# Generated by pormake.
# Topology iac, (4,6)-cn, num edge types: 1
# Building blocks:
#     Node 0, Type 0, BuildingBlock: QUQFOY_clean_sbu_3, # of connection points: 4
#     Node 1, Type 0, BuildingBlock: QUQFOY_clean_sbu_3, # of connection points: 4
#     Node 2, Type 0, BuildingBlock: QUQFOY_clean_sbu_3, # of connection points: 4
#     Node 3, Type 0, BuildingBlock: QUQFOY_clean_sbu_3, # of connection points: 4
#     Node 4, Type 0, BuildingBlock: QUQFOY_clean_sbu_3, # of connection points: 4
#     Node 5, Type 0, BuildingBlock: QUQFOY_clean_sbu_3, # of connection points: 4
#     Node 6, Type 0, BuildingBlock: QUQFOY_clean_sbu_3, # of connection points: 4
#     Node 7, Type 0, BuildingBlock: QUQFOY_clean_sbu_3, # of connection points: 4
#     Node 8, Type 0, BuildingBlock: QUQFOY_clean_sbu_3, # of connection points: 4
#     Node 9, Type 0, BuildingBlock: QUQFOY_clean_sbu_3, # of connection points: 4
#     Node 10, Type 0, BuildingBlock: QUQFOY_clean_sbu_3, # of connection points: 4
#     Node 11, Type 0, BuildingBlock: QUQFOY_clean_sbu_3, # of connection points: 4
#     Node 12, Type 0, BuildingBlock: QUQFOY_clean_sbu_3, # of connection points: 4
#     Node 13, Type 0, BuildingBlock: QUQFOY_clean_sbu_3, # of connection points: 4
#     Node 14, Type 0, BuildingBlock: QUQFOY_clean_sbu_3, # of connection points: 4
#     Node 15, Type 0, BuildingBlock: QUQFOY_clean_sbu_3, # of connection points: 4
#     Node 16, Type 0, BuildingBlock: QUQFOY_clean_sbu_3, # of connection points: 4
#     Node 17, Type 0, BuildingBlock: QUQFOY_clean_sbu_3, # of connection points: 4
#     Node 18, Type 0, BuildingBlock: QUQFOY_clean_sbu_3, # of connection points: 4
#     Node 19, Type 0, BuildingBlock: QUQFOY_clean_sbu_3, # of connection points: 4
#     Node 20, Type 0, BuildingBlock: QUQFOY_clean_sbu_3, # of connection points: 4
#     Node 21, Type 0, BuildingBlock: QUQFOY_clean_sbu_3, # of connection points: 4
#     Node 22, Type 0, BuildingBlock: QUQFOY_clean_sbu_3, # of connection points: 4
#     Node 23, Type 0, BuildingBlock: QUQFOY_clean_sbu_3, # of connection points: 4
#     Node 24, Type 1, BuildingBlock: JUFBIX_clean_sbu_0, # of connection points: 6
#     Node 25, Type 1, BuildingBlock: JUFBIX_clean_sbu_0, # of connection points: 6
#     Node 26, Type 1, BuildingBlock: JUFBIX_clean_sbu_0, # of connection points: 6
#     Node 27, Type 1, BuildingBlock: JUFBIX_clean_sbu_0, # of connection points: 6
#     Node 28, Type 1, BuildingBlock: JUFBIX_clean_sbu_0, # of connection points: 6
#     Node 29, Type 1, BuildingBlock: JUFBIX_clean_sbu_0, # of connection points: 6
#     Node 30, Type 1, BuildingBlock: JUFBIX_clean_sbu_0, # of connection points: 6
#     Node 31, Type 1, BuildingBlock: JUFBIX_clean_sbu_0, # of connection points: 6
#     Node 32, Type 1, BuildingBlock: JUFBIX_clean_sbu_0, # of connection points: 6
#     Node 33, Type 1, BuildingBlock: JUFBIX_clean_sbu_0, # of connection points: 6
#     Node 34, Type 1, BuildingBlock: JUFBIX_clean_sbu_0, # of connection points: 6
#     Node 35, Type 1, BuildingBlock: JUFBIX_clean_sbu_0, # of connection points: 6
#     Node 36, Type 1, BuildingBlock: JUFBIX_clean_sbu_0, # of connection points: 6
#     Node 37, Type 1, BuildingBlock: JUFBIX_clean_sbu_0, # of connection points: 6
#     Node 38, Type 1, BuildingBlock: JUFBIX_clean_sbu_0, # of connection points: 6
#     Node 39, Type 1, BuildingBlock: JUFBIX_clean_sbu_0, # of connection points: 6
#     Edge 40, Type (0, 1), BuildingBlock: XIVTED_clean_linker_0, # of connection points: 2
#     Edge 41, Type (0, 1), BuildingBlock: XIVTED_clean_linker_0, # of connection points: 2
#     Edge 42, Type (0, 1), BuildingBlock: XIVTED_clean_linker_0, # of connection points: 2
#     Edge 43, Type (0, 1), BuildingBlock: XIVTED_clean_linker_0, # of connection points: 2
#     Edge 44, Type (0, 1), BuildingBlock: XIVTED_clean_linker_0, # of connection points: 2
#     Edge 45, Type (0, 1), BuildingBlock: XIVTED_clean_linker_0, # of connection points: 2
#     Edge 46, Type (0, 1), BuildingBlock: XIVTED_clean_linker_0, # of connection points: 2
#     Edge 47, Type (0, 1), BuildingBlock: XIVTED_clean_linker_0, # of connection points: 2
#     Edge 48, Type (0, 1), BuildingBlock: XIVTED_clean_linker_0, # of connection points: 2
#     Edge 49, Type (0, 1), BuildingBlock: XIVTED_clean_linker_0, # of connection points: 2
#     Edge 50, Type (0, 1), BuildingBlock: XIVTED_clean_linker_0, # of connection points: 2
#     Edge 51, Type (0, 1), BuildingBlock: XIVTED_clean_linker_0, # of connection points: 2
#     Edge 52, Type (0, 1), BuildingBlock: XIVTED_clean_linker_0, # of connection points: 2
#     Edge 53, Type (0, 1), BuildingBlock: XIVTED_clean_linker_0, # of connection points: 2
#     Edge 54, Type (0, 1), BuildingBlock: XIVTED_clean_linker_0, # of connection points: 2
#     Edge 55, Type (0, 1), BuildingBlock: XIVTED_clean_linker_0, # of connection points: 2
#     Edge 56, Type (0, 1), BuildingBlock: XIVTED_clean_linker_0, # of connection points: 2
#     Edge 57, Type (0, 1), BuildingBlock: XIVTED_clean_linker_0, # of connection points: 2
#     Edge 58, Type (0, 1), BuildingBlock: XIVTED_clean_linker_0, # of connection points: 2
#     Edge 59, Type (0, 1), BuildingBlock: XIVTED_clean_linker_0, # of connection points: 2
#     Edge 60, Type (0, 1), BuildingBlock: XIVTED_clean_linker_0, # of connection points: 2
#     Edge 61, Type (0, 1), BuildingBlock: XIVTED_clean_linker_0, # of connection points: 2
#     Edge 62, Type (0, 1), BuildingBlock: XIVTED_clean_linker_0, # of connection points: 2
#     Edge 63, Type (0, 1), BuildingBlock: XIVTED_clean_linker_0, # of connection points: 2
#     Edge 64, Type (0, 1), BuildingBlock: XIVTED_clean_linker_0, # of connection points: 2
#     Edge 65, Type (0, 1), BuildingBlock: XIVTED_clean_linker_0, # of connection points: 2
#     Edge 66, Type (0, 1), BuildingBlock: XIVTED_clean_linker_0, # of connection points: 2
#     Edge 67, Type (0, 1), BuildingBlock: XIVTED_clean_linker_0, # of connection points: 2
#     Edge 68, Type (0, 1), BuildingBlock: XIVTED_clean_linker_0, # of connection points: 2
#     Edge 69, Type (0, 1), BuildingBlock: XIVTED_clean_linker_0, # of connection points: 2
#     Edge 70, Type (0, 1), BuildingBlock: XIVTED_clean_linker_0, # of connection points: 2
#     Edge 71, Type (0, 1), BuildingBlock: XIVTED_clean_linker_0, # of connection points: 2
#     Edge 72, Type (0, 1), BuildingBlock: XIVTED_clean_linker_0, # of connection points: 2
#     Edge 73, Type (0, 1), BuildingBlock: XIVTED_clean_linker_0, # of connection points: 2
#     Edge 74, Type (0, 1), BuildingBlock: XIVTED_clean_linker_0, # of connection points: 2
#     Edge 75, Type (0, 1), BuildingBlock: XIVTED_clean_linker_0, # of connection points: 2
#     Edge 76, Type (0, 1), BuildingBlock: XIVTED_clean_linker_0, # of connection points: 2
#     Edge 77, Type (0, 1), BuildingBlock: XIVTED_clean_linker_0, # of connection points: 2
#     Edge 78, Type (0, 1), BuildingBlock: XIVTED_clean_linker_0, # of connection points: 2
#     Edge 79, Type (0, 1), BuildingBlock: XIVTED_clean_linker_0, # of connection points: 2
#     Edge 80, Type (0, 1), BuildingBlock: XIVTED_clean_linker_0, # of connection points: 2
#     Edge 81, Type (0, 1), BuildingBlock: XIVTED_clean_linker_0, # of connection points: 2
#     Edge 82, Type (0, 1), BuildingBlock: XIVTED_clean_linker_0, # of connection points: 2
#     Edge 83, Type (0, 1), BuildingBlock: XIVTED_clean_linker_0, # of connection points: 2
#     Edge 84, Type (0, 1), BuildingBlock: XIVTED_clean_linker_0, # of connection points: 2
#     Edge 85, Type (0, 1), BuildingBlock: XIVTED_clean_linker_0, # of connection points: 2
#     Edge 86, Type (0, 1), BuildingBlock: XIVTED_clean_linker_0, # of connection points: 2
#     Edge 87, Type (0, 1), BuildingBlock: XIVTED_clean_linker_0, # of connection points: 2
#     Edge 88, Type (0, 1), BuildingBlock: XIVTED_clean_linker_0, # of connection points: 2
#     Edge 89, Type (0, 1), BuildingBlock: XIVTED_clean_linker_0, # of connection points: 2
#     Edge 90, Type (0, 1), BuildingBlock: XIVTED_clean_linker_0, # of connection points: 2
#     Edge 91, Type (0, 1), BuildingBlock: XIVTED_clean_linker_0, # of connection points: 2
#     Edge 92, Type (0, 1), BuildingBlock: XIVTED_clean_linker_0, # of connection points: 2
#     Edge 93, Type (0, 1), BuildingBlock: XIVTED_clean_linker_0, # of connection points: 2
#     Edge 94, Type (0, 1), BuildingBlock: XIVTED_clean_linker_0, # of connection points: 2
#     Edge 95, Type (0, 1), BuildingBlock: XIVTED_clean_linker_0, # of connection points: 2
#     Edge 96, Type (0, 1), BuildingBlock: XIVTED_clean_linker_0, # of connection points: 2
#     Edge 97, Type (0, 1), BuildingBlock: XIVTED_clean_linker_0, # of connection points: 2
#     Edge 98, Type (0, 1), BuildingBlock: XIVTED_clean_linker_0, # of connection points: 2
#     Edge 99, Type (0, 1), BuildingBlock: XIVTED_clean_linker_0, # of connection points: 2
#     Edge 100, Type (0, 1), BuildingBlock: XIVTED_clean_linker_0, # of connection points: 2
#     Edge 101, Type (0, 1), BuildingBlock: XIVTED_clean_linker_0, # of connection points: 2
#     Edge 102, Type (0, 1), BuildingBlock: XIVTED_clean_linker_0, # of connection points: 2
#     Edge 103, Type (0, 1), BuildingBlock: XIVTED_clean_linker_0, # of connection points: 2
#     Edge 104, Type (0, 1), BuildingBlock: XIVTED_clean_linker_0, # of connection points: 2
#     Edge 105, Type (0, 1), BuildingBlock: XIVTED_clean_linker_0, # of connection points: 2
#     Edge 106, Type (0, 1), BuildingBlock: XIVTED_clean_linker_0, # of connection points: 2
#     Edge 107, Type (0, 1), BuildingBlock: XIVTED_clean_linker_0, # of connection points: 2
#     Edge 108, Type (0, 1), BuildingBlock: XIVTED_clean_linker_0, # of connection points: 2
#     Edge 109, Type (0, 1), BuildingBlock: XIVTED_clean_linker_0, # of connection points: 2
#     Edge 110, Type (0, 1), BuildingBlock: XIVTED_clean_linker_0, # of connection points: 2
#     Edge 111, Type (0, 1), BuildingBlock: XIVTED_clean_linker_0, # of connection points: 2
#     Edge 112, Type (0, 1), BuildingBlock: XIVTED_clean_linker_0, # of connection points: 2
#     Edge 113, Type (0, 1), BuildingBlock: XIVTED_clean_linker_0, # of connection points: 2
#     Edge 114, Type (0, 1), BuildingBlock: XIVTED_clean_linker_0, # of connection points: 2
#     Edge 115, Type (0, 1), BuildingBlock: XIVTED_clean_linker_0, # of connection points: 2
#     Edge 116, Type (0, 1), BuildingBlock: XIVTED_clean_linker_0, # of connection points: 2
#     Edge 117, Type (0, 1), BuildingBlock: XIVTED_clean_linker_0, # of connection points: 2
#     Edge 118, Type (0, 1), BuildingBlock: XIVTED_clean_linker_0, # of connection points: 2
#     Edge 119, Type (0, 1), BuildingBlock: XIVTED_clean_linker_0, # of connection points: 2
#     Edge 120, Type (0, 1), BuildingBlock: XIVTED_clean_linker_0, # of connection points: 2
#     Edge 121, Type (0, 1), BuildingBlock: XIVTED_clean_linker_0, # of connection points: 2
#     Edge 122, Type (0, 1), BuildingBlock: XIVTED_clean_linker_0, # of connection points: 2
#     Edge 123, Type (0, 1), BuildingBlock: XIVTED_clean_linker_0, # of connection points: 2
#     Edge 124, Type (0, 1), BuildingBlock: XIVTED_clean_linker_0, # of connection points: 2
#     Edge 125, Type (0, 1), BuildingBlock: XIVTED_clean_linker_0, # of connection points: 2
#     Edge 126, Type (0, 1), BuildingBlock: XIVTED_clean_linker_0, # of connection points: 2
#     Edge 127, Type (0, 1), BuildingBlock: XIVTED_clean_linker_0, # of connection points: 2
#     Edge 128, Type (0, 1), BuildingBlock: XIVTED_clean_linker_0, # of connection points: 2
#     Edge 129, Type (0, 1), BuildingBlock: XIVTED_clean_linker_0, # of connection points: 2
#     Edge 130, Type (0, 1), BuildingBlock: XIVTED_clean_linker_0, # of connection points: 2
#     Edge 131, Type (0, 1), BuildingBlock: XIVTED_clean_linker_0, # of connection points: 2
#     Edge 132, Type (0, 1), BuildingBlock: XIVTED_clean_linker_0, # of connection points: 2
#     Edge 133, Type (0, 1), BuildingBlock: XIVTED_clean_linker_0, # of connection points: 2
#     Edge 134, Type (0, 1), BuildingBlock: XIVTED_clean_linker_0, # of connection points: 2
#     Edge 135, Type (0, 1), BuildingBlock: XIVTED_clean_linker_0, # of connection points: 2
# Relax obj value: 0.224
# Max RMSD: 0.231
# Mean RMSD: 0.112
data_MOF--net-iac--node1-QUQFOY_clean_sbu_3--node2-JUFBIX_clean_sbu_0--edge1-XIVTED_clean_linker_0
_symmetry_space_group_name_H-M    P1
_symmetry_Int_Tables_number       1
_symmetry_cell_setting            triclinic
loop_
_symmetry_equiv_pos_as_xyz
'x, y, z'
_cell_length_a     55.127662
_cell_length_b     57.259407
_cell_length_c     56.181533
_cell_angle_alpha  90.181315
_cell_angle_beta   88.291857
_cell_angle_gamma 89.185482
loop_
_atom_site_label
_atom_site_type_symbol
_atom_site_fract_x
_atom_site_fract_y
_atom_site_fract_z
_atom_type_partial_charge
C0 C 0.97922 0.26884 0.18249 0.0
O1 O -0.00627 0.25518 0.19293 0.0
Cd2 Cd 0.03436 0.24739 0.18033 0.0
O3 O 0.98593 0.27945 0.16345 0.0
Cd4 Cd 0.02423 0.2815 0.13715 0.0
C5 C 0.02397 0.22175 0.12589 0.0
O6 O 0.05043 0.2849 0.17119 0.0
O7 O 0.07004 0.27759 0.13842 0.0
O8 O 0.01636 0.32387 0.13432 0.0
C9 C 0.07073 0.28296 0.16034 0.0
O10 O 0.03098 0.22023 0.14722 0.0
C11 C 0.01668 0.3256 0.11183 0.0
O12 O 0.01892 0.2418 0.1171 0.0
O13 O 0.02033 0.30663 0.10031 0.0
C14 C 0.0198 0.75087 0.3701 0.0
O15 O 0.03462 0.76238 0.35718 0.0
Cd16 Cd 0.06606 0.78309 0.3747 0.0
O17 O 0.02442 0.7457 0.39161 0.0
Cd18 Cd 0.05857 0.74592 0.41996 0.0
C19 C 0.03388 0.79904 0.42757 0.0
O20 O 0.08847 0.75232 0.39056 0.0
O21 O 0.101 0.7597 0.42564 0.0
O22 O 0.05809 0.70403 0.41827 0.0
C23 C 0.10546 0.75895 0.40335 0.0
O24 O 0.04246 0.80315 0.40667 0.0
C25 C 0.0576 0.70085 0.44062 0.0
O26 O 0.03752 0.77945 0.43767 0.0
O27 O 0.05726 0.71898 0.45383 0.0
C28 C 0.4816 0.77512 0.684 0.0
O29 O 0.4963 0.76243 0.69543 0.0
Cd30 Cd 0.53568 0.74968 0.68238 0.0
O31 O 0.48755 0.78361 0.66361 0.0
Cd32 Cd 0.52476 0.78574 0.63577 0.0
C33 C 0.52208 0.72527 0.62713 0.0
O34 O 0.55111 0.78563 0.66934 0.0
O35 O 0.57092 0.78551 0.63599 0.0
O36 O 0.51642 0.82816 0.63299 0.0
C37 C 0.57151 0.78562 0.65857 0.0
O38 O 0.52839 0.72381 0.64873 0.0
C39 C 0.51614 0.82971 0.61047 0.0
O40 O 0.51887 0.74533 0.61749 0.0
O41 O 0.51946 0.81064 0.59903 0.0
C42 C 0.51977 0.27332 0.8644 0.0
O43 O 0.53479 0.28946 0.85995 0.0
Cd44 Cd 0.57116 0.29698 0.87975 0.0
O45 O 0.52342 0.25846 0.88086 0.0
Cd46 Cd 0.55603 0.25043 0.9097 0.0
C47 C 0.54544 0.30251 0.93612 0.0
O48 O 0.58762 0.25899 0.88186 0.0
O49 O 0.60002 0.25652 0.91755 0.0
O50 O 0.5507 0.20842 0.90499 0.0
C51 C 0.6052 0.2594 0.89564 0.0
O52 O 0.55779 0.31155 0.91906 0.0
C53 C 0.55079 0.20433 0.92721 0.0
O54 O 0.54034 0.28093 0.93618 0.0
O55 O 0.55262 0.22176 0.94102 0.0
C56 C 0.11288 0.98676 0.3224 0.0
O57 O 0.09876 -0.00348 0.30787 0.0
Cd58 Cd 0.11053 0.01008 0.26939 0.0
O59 O 0.13522 0.98307 0.31684 0.0
Cd60 Cd 0.16215 0.9891 0.28103 0.0
C61 C 0.15505 0.0474 0.2855 0.0
O62 O 0.13234 0.97694 0.25328 0.0
O63 O 0.16336 0.99366 0.23725 0.0
O64 O 0.1842 0.95436 0.29348 0.0
C65 C 0.14396 0.98251 0.2345 0.0
O66 O 0.13452 0.04546 0.27591 0.0
C67 C 0.20491 0.96177 0.28679 0.0
O68 O 0.16762 0.02942 0.29049 0.0
O69 O 0.20574 0.98201 0.27775 0.0
C70 C 0.24938 0.95297 0.52682 0.0
O71 O 0.23144 0.95842 0.51423 0.0
Cd72 Cd 0.19755 0.93311 0.51303 0.0
O73 O 0.24877 0.93488 0.53996 0.0
Cd74 Cd 0.22086 0.90337 0.55132 0.0
C75 C 0.22836 0.88339 0.4957 0.0
O76 O 0.18541 0.92741 0.55442 0.0
O77 O 0.17854 0.89029 0.55407 0.0
O78 O 0.23446 0.90604 0.59198 0.0
C79 C 0.17088 0.91088 0.55848 0.0
O80 O 0.21485 0.90033 0.48935 0.0
C81 C 0.23753 0.88413 0.59398 0.0
O82 O 0.23339 0.88069 0.51738 0.0
O83 O 0.2337 0.87163 0.57583 0.0
C84 C 0.43343 0.03178 0.77335 0.0
O85 O 0.44476 0.02641 0.75406 0.0
Cd86 Cd 0.42388 0.02893 0.71773 0.0
O87 O 0.41251 0.04151 0.77329 0.0
Cd88 Cd 0.38294 0.05798 0.74586 0.0
C89 C 0.37089 0.00218 0.73704 0.0
O90 O 0.41205 0.06932 0.71636 0.0
O91 O 0.3753 0.06826 0.70439 0.0
O92 O 0.38018 0.09271 0.76986 0.0
C93 C 0.39718 0.07391 0.70029 0.0
O94 O 0.39125 0.00063 0.72575 0.0
C95 C 0.35718 0.09415 0.76937 0.0
O96 O 0.36347 0.02147 0.74588 0.0
O97 O 0.34622 0.07777 0.75911 0.0
C98 C 0.30459 0.1107 0.02955 0.0
O99 O 0.28999 0.09998 0.0434 0.0
Cd100 Cd 0.24885 0.11058 0.05085 0.0
O101 O 0.29776 0.12918 0.01873 0.0
Cd102 Cd 0.2586 0.1536 0.01802 0.0
C103 C 0.25796 0.16326 0.07851 0.0
O104 O 0.23356 0.11903 0.01226 0.0
O105 O 0.21331 0.15006 0.02179 0.0
O106 O 0.27372 0.16387 0.97737 0.0
C107 C 0.21308 0.12903 0.01469 0.0
O108 O 0.25051 0.14235 0.07987 0.0
C109 C 0.26426 0.18419 0.97693 0.0
O110 O 0.26378 0.17197 0.05825 0.0
O111 O 0.25258 0.19068 -0.00433 0.0
C112 C 0.75257 0.43595 0.01254 0.0
O113 O 0.73485 0.44278 0.00028 0.0
Cd114 Cd 0.69535 0.42756 0.00608 0.0
O115 O 0.7497 0.42072 0.02888 0.0
Cd116 Cd 0.71638 0.39714 0.04631 0.0
C117 C 0.7121 0.37153 0.99266 0.0
O118 O 0.69078 0.4306 0.04896 0.0
O119 O 0.67254 0.39835 0.05702 0.0
O120 O 0.73677 0.39799 0.08405 0.0
C121 C 0.67255 0.42048 0.05801 0.0
O122 O 0.70169 0.39007 0.98549 0.0
C123 C 0.7329 0.3766 0.08846 0.0
O124 O 0.71887 0.36997 0.01395 0.0
O125 O 0.72219 0.3649 0.07282 0.0
C126 C 0.97832 0.53644 0.2715 0.0
O127 O 0.98032 0.52507 0.25211 0.0
Cd128 Cd 0.94892 0.52559 0.22365 0.0
O129 O 0.9591 0.5482 0.27671 0.0
Cd130 Cd 0.91987 0.55628 0.25881 0.0
C131 C 0.90433 0.50055 0.25774 0.0
O132 O 0.93487 0.56527 0.2196 0.0
O133 O 0.89689 0.5567 0.22203 0.0
O134 O 0.9192 0.59573 0.27406 0.0
C135 C 0.91431 0.56559 0.21016 0.0
O136 O 0.91754 0.49903 0.23879 0.0
C137 C 0.89699 0.59539 0.28068 0.0
O138 O 0.90372 0.51915 0.27012 0.0
O139 O 0.88628 0.57598 0.27935 0.0
C140 C 0.80166 0.60435 0.52042 0.0
O141 O 0.78771 0.59284 0.53428 0.0
Cd142 Cd 0.74881 0.6053 0.54959 0.0
O143 O 0.79524 0.62438 0.51255 0.0
Cd144 Cd 0.75813 0.651 0.51393 0.0
C145 C 0.76174 0.65908 0.57509 0.0
O146 O 0.73099 0.61805 0.51407 0.0
O147 O 0.71238 0.65117 0.51625 0.0
O148 O 0.76386 0.65661 0.47075 0.0
C149 C 0.71101 0.62908 0.51529 0.0
O150 O 0.75574 0.63773 0.57693 0.0
C151 C 0.76526 0.6787 0.47099 0.0
O152 O 0.76458 0.66845 0.55454 0.0
O153 O 0.76365 0.68844 0.49137 0.0
C154 C 0.61847 0.48276 0.81812 0.0
O155 O 0.60409 0.4913 0.80309 0.0
Cd156 Cd 0.6158 0.5047 0.76459 0.0
O157 O 0.64108 0.48006 0.81312 0.0
Cd158 Cd 0.66891 0.48536 0.77773 0.0
C159 C 0.65905 0.54371 0.78052 0.0
O160 O 0.63936 0.47166 0.75114 0.0
O161 O 0.67037 0.48615 0.73312 0.0
O162 O 0.69141 0.45271 0.79416 0.0
C163 C 0.65027 0.47588 0.73164 0.0
O164 O 0.63844 0.54101 0.77128 0.0
C165 C 0.71215 0.46022 0.78771 0.0
O166 O 0.6724 0.52622 0.78535 0.0
O167 O 0.71279 0.47931 0.77633 0.0
C168 C 0.97428 0.7845 0.85558 0.0
O169 O 0.98987 0.7965 0.84413 0.0
Cd170 Cd 0.02977 0.80494 0.85654 0.0
O171 O 0.9796 0.77533 0.87555 0.0
Cd172 Cd 0.0169 0.77249 0.90159 0.0
C173 C 0.01834 0.83233 0.91104 0.0
O174 O 0.04716 0.76866 0.86854 0.0
O175 O 0.06201 0.7747 0.90286 0.0
O176 O 0.00488 0.73117 0.90485 0.0
C177 C 0.06588 0.77068 0.88088 0.0
O178 O 0.02542 0.83283 0.88927 0.0
C179 C 0.00784 0.72873 0.927 0.0
O180 O 0.01251 0.81288 0.92078 0.0
O181 O 0.0146 0.74685 0.93806 0.0
C182 C 0.99197 0.25867 0.67589 0.0
O183 O 0.01231 0.25405 0.68493 0.0
Cd184 Cd 0.05011 0.26411 0.66662 0.0
O185 O 0.99073 0.26951 0.65615 0.0
Cd186 Cd 0.01764 0.28767 0.62564 0.0
C187 C 0.04442 0.23578 0.61287 0.0
O188 O 0.04309 0.30348 0.65465 0.0
O189 O 0.05907 0.3041 0.61949 0.0
O190 O 0.98792 0.31906 0.62247 0.0
C191 C 0.06063 0.30953 0.64128 0.0
O192 O 0.0553 0.23759 0.63248 0.0
C193 C 0.98797 0.3191 0.59988 0.0
O194 O 0.02864 0.2509 0.60685 0.0
O195 O 0.00146 0.304 0.5892 0.0
C196 C 0.47347 0.28919 0.35375 0.0
O197 O 0.48826 0.30268 0.34304 0.0
Cd198 Cd 0.52801 0.3134 0.3546 0.0
O199 O 0.47926 0.2792 0.37318 0.0
Cd200 Cd 0.51582 0.27722 0.40008 0.0
C201 C 0.51596 0.33751 0.41073 0.0
O202 O 0.54604 0.27829 0.3676 0.0
O203 O 0.56078 0.279 0.40267 0.0
O204 O 0.51643 0.23431 0.40198 0.0
C205 C 0.56463 0.27904 0.38028 0.0
O206 O 0.52198 0.339 0.38874 0.0
C207 C 0.5099 0.23212 0.42367 0.0
O208 O 0.51182 0.31751 0.42022 0.0
O209 O 0.5054 0.25103 0.43507 0.0
C210 C 0.48722 0.75053 0.17229 0.0
O211 O 0.50665 0.74343 0.18169 0.0
Cd212 Cd 0.54626 0.75462 0.16906 0.0
O213 O 0.48774 0.76458 0.1547 0.0
Cd214 Cd 0.51694 0.78637 0.12931 0.0
C215 C 0.54542 0.73643 0.11043 0.0
O216 O 0.53956 0.79512 0.16277 0.0
O217 O 0.55751 0.80521 0.13016 0.0
O218 O 0.48893 0.8194 0.13005 0.0
C219 C 0.55761 0.80456 0.15272 0.0
O220 O 0.55369 0.73426 0.13125 0.0
C221 C 0.48972 0.82255 0.10771 0.0
O222 O 0.53088 0.75308 0.10545 0.0
O223 O 0.5025 0.80817 0.09524 0.0
C224 C 0.93029 0.05022 0.77164 0.0
O225 O 0.94311 0.0425 0.75409 0.0
Cd226 Cd 0.92689 0.03929 0.71494 0.0
O227 O 0.90817 0.05613 0.76919 0.0
Cd228 Cd 0.87555 0.05888 0.74062 0.0
C229 C 0.88106 0.00112 0.72923 0.0
O230 O 0.90252 0.07388 0.71059 0.0
O231 O 0.86651 0.06736 0.69881 0.0
O232 O 0.86398 0.08936 0.76811 0.0
C233 C 0.88788 0.07395 0.69367 0.0
O234 O 0.90087 0.00504 0.71776 0.0
C235 C 0.84127 0.08684 0.76652 0.0
O236 O 0.86938 0.0174 0.74021 0.0
O237 O 0.83407 0.07127 0.75231 0.0
C238 C 0.83074 0.11629 0.52321 0.0
O239 O 0.81794 0.10308 0.53651 0.0
Cd240 Cd 0.77701 0.11229 0.54956 0.0
O241 O 0.82225 0.1355 0.51556 0.0
Cd242 Cd 0.78465 0.15855 0.51539 0.0
C243 C 0.78132 0.16715 0.57492 0.0
O244 O 0.76025 0.12457 0.5131 0.0
O245 O 0.74013 0.15708 0.51293 0.0
O246 O 0.79856 0.16387 0.4751 0.0
C247 C 0.73989 0.13494 0.51269 0.0
O248 O 0.7771 0.14542 0.57713 0.0
C249 C 0.79602 0.1859 0.47502 0.0
O250 O 0.78596 0.17605 0.55459 0.0
O251 O 0.78774 0.19556 0.49405 0.0
C252 C 0.59735 0.01455 0.31474 0.0
O253 O 0.58449 0.02286 0.29831 0.0
Cd254 Cd 0.60081 0.02888 0.25901 0.0
O255 O 0.61928 0.00828 0.31061 0.0
Cd256 Cd 0.65001 0.00404 0.2789 0.0
C257 C 0.65084 0.06198 0.27234 0.0
O258 O 0.62168 0.99312 0.25025 0.0
O259 O 0.65695 0.00106 0.23531 0.0
O260 O 0.65639 0.96725 0.2976 0.0
C261 C 0.63547 0.99438 0.23197 0.0
O262 O 0.63043 0.0602 0.26245 0.0
C263 C 0.67936 0.9681 0.29723 0.0
O264 O 0.6613 0.04435 0.28148 0.0
O265 O 0.68908 0.98628 0.28843 0.0
C266 C 0.80585 0.94194 0.00678 0.0
O267 O 0.78975 0.95234 -0.00509 0.0
Cd268 Cd 0.74992 0.93846 0.98895 0.0
O269 O 0.80117 0.92248 0.017 0.0
Cd270 Cd 0.76496 0.89532 0.0223 0.0
C271 C 0.76234 0.88508 0.96163 0.0
O272 O 0.73445 0.92677 0.0271 0.0
O273 O 0.71979 0.8927 0.02185 0.0
O274 O 0.7785 0.8923 0.06388 0.0
C275 C 0.71582 0.91421 0.026 0.0
O276 O 0.75456 0.90611 0.96088 0.0
C277 C 0.77579 0.87048 0.06633 0.0
O278 O 0.76882 0.87619 0.98141 0.0
O279 O 0.76854 0.85963 0.04811 0.0
C280 C 0.31979 0.59838 0.01295 0.0
O281 O 0.30833 0.58637 0.02847 0.0
Cd282 Cd 0.2711 0.59978 0.04784 0.0
O283 O 0.312 0.6184 0.00684 0.0
Cd284 Cd 0.27869 0.64631 0.01208 0.0
C285 C 0.28501 0.65397 0.07143 0.0
O286 O 0.25038 0.61582 0.01515 0.0
O287 O 0.23428 0.65035 0.01637 0.0
O288 O 0.28534 0.64976 0.97 0.0
C289 C 0.23151 0.62844 0.01788 0.0
O290 O 0.27908 0.63269 0.07428 0.0
C291 C 0.28777 0.67174 0.96993 0.0
O292 O 0.28751 0.66275 0.05071 0.0
O293 O 0.28533 0.68234 0.98981 0.0
C294 C 0.0932 0.53351 0.82225 0.0
O295 O 0.07924 0.54216 0.80688 0.0
Cd296 Cd 0.08864 0.54158 0.76499 0.0
O297 O 0.11302 0.52329 0.81607 0.0
Cd298 Cd 0.13753 0.51167 0.78135 0.0
C299 C 0.14428 0.56791 0.76564 0.0
O300 O 0.103 0.50245 0.75969 0.0
O301 O 0.13633 0.49988 0.73898 0.0
O302 O 0.14585 0.4775 0.80441 0.0
C303 C 0.1134 0.49817 0.73981 0.0
O304 O 0.12232 0.56872 0.75917 0.0
C305 C 0.16868 0.47801 0.80089 0.0
O306 O 0.15317 0.54979 0.77526 0.0
O307 O 0.1771 0.49426 0.78784 0.0
C308 C 0.30116 0.44368 0.51317 0.0
O309 O 0.28508 0.45416 0.50133 0.0
Cd310 Cd 0.2454 0.43989 0.49462 0.0
O311 O 0.2965 0.42405 0.523 0.0
Cd312 Cd 0.26007 0.3971 0.52741 0.0
C313 C 0.2582 0.38678 0.46689 0.0
O314 O 0.22861 0.42804 0.5323 0.0
O315 O 0.21559 0.3934 0.52606 0.0
O316 O 0.2726 0.39435 0.56913 0.0
C317 C 0.21065 0.41458 0.53094 0.0
O318 O 0.25028 0.40777 0.46622 0.0
C319 C 0.26914 0.37266 0.57181 0.0
O320 O 0.26467 0.37787 0.48666 0.0
O321 O 0.26231 0.36167 0.55352 0.0
C322 C 0.44368 0.54699 0.27118 0.0
O323 O 0.45634 0.5372 0.25463 0.0
Cd324 Cd 0.43927 0.53269 0.21563 0.0
O325 O 0.42201 0.55366 0.2677 0.0
Cd326 Cd 0.39002 0.55565 0.23894 0.0
C327 C 0.39193 0.49721 0.2308 0.0
O328 O 0.41746 0.56854 0.20751 0.0
O329 O 0.38058 0.56245 0.19749 0.0
O330 O 0.37974 0.58843 0.26415 0.0
C331 C 0.40184 0.56866 0.19138 0.0
O332 O 0.41186 0.49947 0.21904 0.0
C333 C 0.35695 0.58576 0.26383 0.0
O334 O 0.38145 0.51461 0.24103 0.0
O335 O 0.34916 0.56915 0.25126 0.0
Co336 Co 0.01049 0.03742 -0.00048 0.0
C337 C 0.00682 0.06737 0.03954 0.0
Co338 Co 0.01657 0.0199 0.03362 0.0
C339 C -0.00406 0.04533 0.9513 0.0
C340 C 0.01211 0.0754 0.96669 0.0
N341 N 0.00582 0.05316 0.97144 0.0
N342 N -0.00428 0.06188 0.93429 0.0
C343 C 0.00576 0.08086 0.94389 0.0
H344 H 0.98883 0.02794 0.94923 0.0
H345 H 0.02096 0.08688 0.97894 0.0
C346 C 0.02037 0.9898 0.99393 0.0
N347 N 0.02152 0.00403 0.06166 0.0
C348 C 0.03918 0.00722 0.07738 0.0
C349 C 0.00942 0.98518 0.06964 0.0
N350 N 0.03877 0.99099 0.09479 0.0
C351 C 0.01986 0.97722 0.09001 0.0
C352 C 0.96849 0.0185 0.0195 0.0
O353 O 0.01613 0.00848 0.98242 0.0
O354 O 0.02209 0.99113 0.01642 0.0
O355 O 0.98284 0.01291 0.03589 0.0
O356 O 0.97665 0.03027 0.00191 0.0
O357 O 0.01111 0.04861 0.05089 0.0
H358 H -0.0056 0.97726 0.06084 0.0
H359 H 0.05259 0.02073 0.07551 0.0
O360 O 0.00491 0.06619 0.01705 0.0
O361 O 0.04417 0.04448 -0.00304 0.0
O362 O 0.05033 0.0273 0.03103 0.0
C363 C 0.05846 0.03898 0.0134 0.0
H364 H 0.0087 0.09732 0.93491 0.0
H365 H 0.01403 0.96221 0.1002 0.0
Co366 Co 0.30842 0.78077 0.30822 0.0
C367 C 0.29272 0.7363 0.30026 0.0
Co368 Co 0.287 0.77815 0.27589 0.0
C369 C 0.31893 0.80239 0.3514 0.0
C370 C 0.33744 0.76939 0.34925 0.0
N371 N 0.32409 0.78449 0.3365 0.0
N372 N 0.32776 0.79901 0.37316 0.0
C373 C 0.33949 0.7782 0.37203 0.0
H374 H 0.30638 0.81641 0.34722 0.0
H375 H 0.34343 0.75227 0.34311 0.0
C376 C 0.30207 0.82274 0.28409 0.0
N377 N 0.27119 0.77438 0.24774 0.0
C378 C 0.27554 0.75661 0.2324 0.0
C379 C 0.2554 0.78862 0.23674 0.0
N380 N 0.26339 0.75915 0.21214 0.0
C381 C 0.25066 0.77932 0.21468 0.0
C382 C 0.25821 0.78788 0.3146 0.0
O383 O 0.31152 0.81322 0.30202 0.0
O384 O 0.29076 0.81023 0.26955 0.0
O385 O 0.25746 0.78474 0.29226 0.0
O386 O 0.27845 0.7867 0.32469 0.0
O387 O 0.28314 0.74595 0.28247 0.0
H388 H 0.24844 0.80502 0.24394 0.0
H389 H 0.28843 0.74261 0.23557 0.0
O390 O 0.30502 0.74856 0.31423 0.0
O391 O 0.33814 0.77449 0.29174 0.0
O392 O 0.31665 0.77151 0.25967 0.0
C393 C 0.337 0.77037 0.26957 0.0
H394 H 0.34738 0.76929 0.38696 0.0
H395 H 0.23911 0.78695 0.20144 0.0
Co396 Co 0.48285 0.02567 0.50479 0.0
C397 C 0.50113 0.07007 0.49393 0.0
Co398 Co 0.51803 0.03233 0.52049 0.0
C399 C 0.4334 0.01258 0.50317 0.0
C400 C 0.44629 0.02511 0.46933 0.0
N401 N 0.45333 0.02052 0.49163 0.0
N402 N 0.41405 0.01212 0.48909 0.0
C403 C 0.42207 0.01996 0.46771 0.0
H404 H 0.43298 0.00795 0.52183 0.0
H405 H 0.45792 0.0321 0.45531 0.0
C406 C 0.50009 0.98797 0.53167 0.0
N407 N 0.54748 0.03763 0.53375 0.0
C408 C 0.56611 0.04936 0.52374 0.0
C409 C 0.55507 0.03124 0.55543 0.0
N410 N 0.585 0.05066 0.53829 0.0
C411 C 0.57827 0.03917 0.55823 0.0
C412 C 0.4791 0.04657 0.54881 0.0
O413 O 0.48278 0.99442 0.51851 0.0
O414 O 0.51715 0.00217 0.53512 0.0
O415 O 0.50212 0.04576 0.54757 0.0
O416 O 0.46714 0.03786 0.53216 0.0
O417 O 0.51885 0.06256 0.50582 0.0
H418 H 0.54431 0.02171 0.56845 0.0
H419 H 0.56585 0.05676 0.50604 0.0
O420 O 0.48305 0.05681 0.49128 0.0
O421 O 0.49853 0.01377 0.47739 0.0
O422 O 0.53391 0.01917 0.49315 0.0
C423 C 0.52148 0.01236 0.47583 0.0
H424 H 0.41126 0.02187 0.45205 0.0
H425 H 0.58908 0.03719 0.57389 0.0
Co426 Co 0.28922 0.29835 0.78406 0.0
C427 C 0.27302 0.30821 0.73882 0.0
Co428 Co 0.25208 0.28631 0.77924 0.0
C429 C 0.33871 0.29477 0.79745 0.0
C430 C 0.33039 0.32822 0.78256 0.0
N431 N 0.32046 0.30761 0.78857 0.0
N432 N 0.35975 0.30646 0.79705 0.0
C433 C 0.35461 0.32756 0.78773 0.0
H434 H 0.3367 0.27694 0.80346 0.0
H435 H 0.3207 0.34266 0.77464 0.0
C436 C 0.26837 0.27574 0.82404 0.0
N437 N 0.22084 0.27731 0.77391 0.0
C438 C 0.20475 0.29021 0.76187 0.0
C439 C 0.21083 0.25603 0.77603 0.0
N440 N 0.18545 0.27776 0.75568 0.0
C441 C 0.18907 0.2562 0.76454 0.0
C442 C 0.28653 0.25308 0.76772 0.0
O443 O 0.28752 0.28541 0.81579 0.0
O444 O 0.24988 0.27479 0.81106 0.0
O445 O 0.26383 0.25691 0.76889 0.0
O446 O 0.30087 0.26942 0.77252 0.0
O447 O 0.25446 0.29771 0.74702 0.0
H448 H 0.21963 0.24095 0.78373 0.0
H449 H 0.20827 0.30777 0.75568 0.0
O450 O 0.29084 0.31093 0.75235 0.0
O451 O 0.27756 0.32725 0.79593 0.0
O452 O 0.24047 0.31565 0.79017 0.0
C453 C 0.25489 0.33114 0.79717 0.0
H454 H 0.36738 0.34154 0.78493 0.0
H455 H 0.17757 0.24134 0.76166 0.0
Co456 Co 0.98927 -0.00172 0.50885 0.0
C457 C 0.97521 0.02872 0.54512 0.0
Co458 Co 0.01534 0.02638 0.5147 0.0
C459 C 0.97388 0.95182 0.5028 0.0
C460 C 0.94413 0.97542 0.49762 0.0
N461 N 0.96763 0.9746 0.50371 0.0
N462 N 0.95548 0.93832 0.49624 0.0
C463 C 0.93668 0.95303 0.49266 0.0
H464 H 0.9922 0.94534 0.50517 0.0
H465 H 0.93349 0.9913 0.49577 0.0
C466 C 0.02948 -0.00364 0.47819 0.0
N467 N 0.03757 0.04946 0.51967 0.0
C468 C 0.03308 0.07211 0.52485 0.0
C469 C 0.06193 0.04699 0.52002 0.0
N470 N 0.05364 0.08387 0.52864 0.0
C471 C 0.07187 0.06813 0.52563 0.0
C472 C 0.02387 0.98678 0.54124 0.0
O473 O 0.00967 0.98635 0.48355 0.0
O474 O 0.03532 0.01445 0.48963 0.0
O475 O 0.03144 0.00711 0.53651 0.0
O476 O 0.00552 0.97918 0.5308 0.0
O477 O -0.00471 0.03818 0.53968 0.0
H478 H 0.07178 0.03073 0.5169 0.0
H479 H 0.01497 0.07958 0.52676 0.0
O480 O 0.9689 0.01052 0.53397 0.0
O481 O 0.97318 0.01755 0.48728 0.0
O482 O -0.00134 0.04589 0.4932 0.0
C483 C 0.97971 0.03843 0.4835 0.0
H484 H 0.91924 0.94805 0.48604 0.0
H485 H 0.09096 0.07156 0.52765 0.0
Co486 Co 0.27896 0.79892 0.7942 0.0
C487 C 0.23254 0.78232 0.80359 0.0
Co488 Co 0.27163 0.76661 0.7748 0.0
C489 C 0.29983 0.8428 0.79969 0.0
C490 C 0.27697 0.83594 0.83018 0.0
N491 N 0.28565 0.82637 0.80957 0.0
N492 N 0.30055 0.86218 0.81306 0.0
C493 C 0.28597 0.85828 0.83224 0.0
H494 H 0.3084 0.8412 0.78216 0.0
H495 H 0.2643 0.82761 0.8424 0.0
C496 C 0.31772 0.78284 0.76497 0.0
N497 N 0.26543 0.7399 0.75819 0.0
C498 C 0.25378 0.72082 0.76598 0.0
C499 C 0.27 0.73609 0.73474 0.0
N500 N 0.25061 0.70539 0.74826 0.0
C501 C 0.26072 0.71487 0.72853 0.0
C502 C 0.26015 0.80617 0.74987 0.0
O503 O 0.31128 0.79836 0.78013 0.0
O504 O 0.30296 0.76691 0.76013 0.0
O505 O 0.25973 0.78409 0.74953 0.0
O506 O 0.26784 0.81652 0.76806 0.0
O507 O 0.23986 0.76627 0.7893 0.0
H508 H 0.27883 0.74831 0.72279 0.0
H509 H 0.24674 0.71878 0.78405 0.0
O510 O 0.24677 0.79896 0.80818 0.0
O511 O 0.29005 0.78164 0.82001 0.0
O512 O 0.28371 0.74905 0.80055 0.0
C513 C 0.29071 0.75948 0.81911 0.0
H514 H 0.28178 0.87076 0.84633 0.0
H515 H 0.26097 0.70718 0.71089 0.0
Co516 Co 0.50595 0.00237 -0.00295 0.0
C517 C 0.55044 0.98958 0.01579 0.0
Co518 Co 0.51189 0.01767 0.03212 0.0
C519 C 0.49657 -0.00082 0.94735 0.0
C520 C 0.50155 0.96548 0.96301 0.0
N521 N 0.50107 0.98856 0.9681 0.0
N522 N 0.4941 0.98365 0.92962 0.0
C523 C 0.49696 0.9624 0.9393 0.0
H524 H 0.49462 0.01791 0.94534 0.0
H525 H 0.505 0.95177 0.97572 0.0
C526 C 0.46765 0.03077 0.01389 0.0
N527 N 0.51735 0.03089 0.06115 0.0
C528 C 0.52721 0.01952 0.07944 0.0
C529 C 0.51635 0.05355 0.06784 0.0
N530 N 0.53296 0.0341 0.0971 0.0
C531 C 0.52623 0.05561 0.08999 0.0
C532 C 0.5279 0.04511 0.99442 0.0
O533 O 0.47492 0.01853 -0.00401 0.0
O534 O 0.4811 0.03225 0.03177 0.0
O535 O 0.52562 0.04391 0.01691 0.0
O536 O 0.52096 0.02817 0.98183 0.0
O537 O 0.54305 0.00306 0.03251 0.0
H538 H 0.51018 0.06775 0.05678 0.0
H539 H 0.53189 0.00109 0.07899 0.0
O540 O 0.53684 0.9864 -0.00177 0.0
O541 O 0.49085 0.97686 0.01224 0.0
O542 O 0.49791 0.99126 0.04739 0.0
C543 C 0.4894 0.97513 0.0347 0.0
H544 H 0.49592 0.94594 0.92987 0.0
H545 H 0.5292 0.07167 0.09964 0.0
Co546 Co 0.25999 0.26092 0.28028 0.0
C547 C 0.30863 0.27247 0.28298 0.0
Co548 Co 0.26887 0.29312 0.26118 0.0
C549 C 0.2375 0.21708 0.29009 0.0
C550 C 0.25877 0.22856 0.31906 0.0
N551 N 0.25192 0.23447 0.29701 0.0
N552 N 0.23504 0.20048 0.30693 0.0
C553 C 0.24845 0.20762 0.32519 0.0
H554 H 0.22926 0.21649 0.27285 0.0
H555 H 0.27041 0.23888 0.32999 0.0
C556 C 0.2205 0.28172 0.25787 0.0
N557 N 0.27688 0.31945 0.24431 0.0
C558 C 0.29174 0.33662 0.25085 0.0
C559 C 0.27061 0.32481 0.22192 0.0
N560 N 0.29523 0.35234 0.23335 0.0
C561 C 0.28199 0.34503 0.21508 0.0
C562 C 0.27206 0.25271 0.23269 0.0
O563 O 0.22696 0.26432 0.27034 0.0
O564 O 0.23591 0.29735 0.25288 0.0
O565 O 0.27436 0.27477 0.23279 0.0
O566 O 0.26681 0.24254 0.25223 0.0
O567 O 0.30196 0.28895 0.26944 0.0
H568 H 0.25894 0.3144 0.2111 0.0
H569 H 0.30052 0.3371 0.26783 0.0
O570 O 0.29304 0.25758 0.28982 0.0
O571 O 0.2532 0.2793 0.3084 0.0
O572 O 0.26335 0.31136 0.28976 0.0
C573 C 0.25684 0.30117 0.30898 0.0
H574 H 0.25046 0.19852 0.34189 0.0
H575 H 0.28069 0.35364 0.19803 0.0
Co576 Co 0.4947 0.50593 0.00382 0.0
C577 C 0.47681 0.54095 0.03371 0.0
Co578 Co 0.51366 0.53928 -0.00056 0.0
C579 C 0.49194 0.45714 0.01038 0.0
C580 C 0.45621 0.47214 0.01052 0.0
N581 N 0.4799 0.47762 0.00865 0.0
N582 N 0.47693 0.43894 0.0131 0.0
C583 C 0.45431 0.44824 0.01307 0.0
H584 H 0.5115 0.45556 0.00852 0.0
H585 H 0.44135 0.48461 0.00953 0.0
C586 C 0.53199 0.50435 0.96983 0.0
N587 N 0.52883 0.56737 0.99459 0.0
C588 C 0.53586 0.58249 0.01135 0.0
C589 C 0.5343 0.57777 0.97363 0.0
N590 N 0.5453 0.60203 0.00174 0.0
C591 C 0.54433 0.59919 0.97798 0.0
C592 C 0.53402 0.51142 0.033 0.0
O593 O 0.51559 0.49217 0.97985 0.0
O594 O 0.53394 0.52565 0.97557 0.0
O595 O 0.53661 0.53085 0.02246 0.0
O596 O 0.51692 0.49818 0.02727 0.0
O597 O 0.49344 0.55283 0.02368 0.0
H598 H 0.53071 0.57046 0.95633 0.0
H599 H 0.53311 0.57962 0.03027 0.0
O600 O 0.474 0.51982 0.02751 0.0
O601 O 0.47247 0.5138 0.98075 0.0
O602 O 0.49019 0.54761 0.97662 0.0
C603 C 0.47324 0.53386 0.97128 0.0
H604 H 0.43766 0.43847 0.01425 0.0
H605 H 0.55005 0.61182 0.96475 0.0
Co606 Co 0.77702 0.30421 0.29217 0.0
C607 C 0.73103 0.2876 0.30398 0.0
Co608 Co 0.77036 0.26926 0.27772 0.0
C609 C 0.79524 0.35012 0.29315 0.0
C610 C 0.77714 0.34215 0.32626 0.0
N611 N 0.78297 0.3332 0.30458 0.0
N612 N 0.79752 0.36936 0.30672 0.0
C613 C 0.78615 0.36444 0.32766 0.0
H614 H 0.80301 0.34799 0.27535 0.0
H615 H 0.76728 0.33295 0.34019 0.0
C616 C 0.81625 0.28517 0.2658 0.0
N617 N 0.76459 0.24054 0.26458 0.0
C618 C 0.752 0.22272 0.27414 0.0
C619 C 0.77023 0.23381 0.24202 0.0
N620 N 0.74923 0.20533 0.2583 0.0
C621 C 0.76069 0.21217 0.23807 0.0
C622 C 0.75839 0.3056 0.24765 0.0
O623 O 0.80943 0.30296 0.27798 0.0
O624 O 0.80174 0.2684 0.26363 0.0
O625 O 0.75834 0.28359 0.2501 0.0
O626 O 0.7657 0.31827 0.26442 0.0
O627 O 0.73878 0.26994 0.29217 0.0
H628 H 0.77989 0.24435 0.22901 0.0
H629 H 0.74392 0.22304 0.29195 0.0
O630 O 0.74466 0.30521 0.306 0.0
O631 O 0.78848 0.29007 0.32004 0.0
O632 O 0.7825 0.25517 0.30522 0.0
C633 C 0.78951 0.26801 0.32209 0.0
H634 H 0.78454 0.376 0.34291 0.0
H635 H 0.76161 0.20245 0.2215 0.0
Co636 Co 0.00359 0.49867 0.49639 0.0
C637 C 0.04321 0.48441 0.52307 0.0
Co638 Co 0.00244 0.51172 0.53323 0.0
C639 C 0.0086 0.50093 0.44561 0.0
C640 C 0.01294 0.46608 0.45854 0.0
N641 N 0.00698 0.48802 0.46554 0.0
N642 N 0.01588 0.48807 0.42646 0.0
C643 C 0.01837 0.46604 0.43451 0.0
H644 H 0.00516 0.51957 0.44539 0.0
H645 H 0.01457 0.45132 0.47039 0.0
C646 C 0.96334 0.52642 0.5063 0.0
N647 N -0.0005 0.5218 0.56433 0.0
C648 C 0.01761 0.52418 0.57963 0.0
C649 C 0.97893 0.52483 0.57766 0.0
N650 N 0.00928 0.52785 0.60213 0.0
C651 C 0.98489 0.52851 0.60096 0.0
C652 C 0.02556 0.54192 0.50322 0.0
O653 O 0.97321 0.51388 0.48984 0.0
O654 O 0.97323 0.52764 0.52636 0.0
O655 O 0.01966 0.53879 0.52496 0.0
O656 O 0.02038 0.52645 0.48799 0.0
O657 O 0.03231 0.4958 0.53969 0.0
H658 H 0.96078 0.52296 0.57119 0.0
H659 H 0.03654 0.52135 0.57472 0.0
O660 O 0.0337 0.48356 0.50283 0.0
O661 O 0.98693 0.47131 0.50507 0.0
O662 O 0.98494 0.48449 0.5417 0.0
C663 C 0.98017 0.46874 0.52666 0.0
H664 H 0.02469 0.45111 0.4241 0.0
H665 H 0.97225 0.53018 0.61599 0.0
Co666 Co 0.80134 0.78779 0.2753 0.0
C667 C 0.7881 0.79659 0.22896 0.0
Co668 Co 0.76648 0.77206 0.26762 0.0
C669 C 0.84927 0.78464 0.29119 0.0
C670 C 0.8402 0.82027 0.28372 0.0
N671 N 0.83146 0.79838 0.28287 0.0
N672 N 0.86867 0.79691 0.29725 0.0
C673 C 0.86317 0.81942 0.29285 0.0
H674 H 0.84768 0.76599 0.29384 0.0
H675 H 0.83028 0.83584 0.27869 0.0
C676 C 0.77925 0.7628 0.31357 0.0
N677 N 0.73653 0.76134 0.26017 0.0
C678 C 0.72102 0.77293 0.24632 0.0
C679 C 0.7248 0.74184 0.267 0.0
N680 N 0.70011 0.76156 0.24408 0.0
C681 C 0.70215 0.74202 0.25718 0.0
C682 C 0.8038 0.74191 0.25842 0.0
O683 O 0.79795 0.77428 0.3071 0.0
O684 O 0.76247 0.76026 0.29886 0.0
O685 O 0.78083 0.74323 0.2582 0.0
O686 O 0.81566 0.7598 0.26396 0.0
O687 O 0.77065 0.78377 0.23583 0.0
H688 H 0.73214 0.72853 0.27848 0.0
H689 H 0.72475 0.7898 0.23847 0.0
O690 O 0.80448 0.80126 0.24372 0.0
O691 O 0.7871 0.81546 0.28664 0.0
O692 O 0.75194 0.80098 0.27776 0.0
C693 C 0.76427 0.81762 0.28593 0.0
H694 H 0.87481 0.83408 0.29618 0.0
H695 H 0.68837 0.72885 0.25936 0.0
Co696 Co 0.81321 0.28265 0.81462 0.0
C697 C 0.79339 0.24048 0.80272 0.0
Co698 Co 0.79308 0.28404 0.7814 0.0
C699 C 0.82228 0.29896 0.8603 0.0
C700 C 0.83721 0.26452 0.85618 0.0
N701 N 0.82772 0.28247 0.84386 0.0
N702 N 0.82652 0.29177 0.88257 0.0
C703 C 0.8362 0.27011 0.88013 0.0
H704 H 0.81164 0.31445 0.85641 0.0
H705 H 0.84163 0.24749 0.84872 0.0
C706 C 0.81191 0.32646 0.79359 0.0
N707 N 0.77799 0.28413 0.75263 0.0
C708 C 0.77968 0.26677 0.73647 0.0
C709 C 0.76404 0.30074 0.7426 0.0
N710 N 0.76742 0.27172 0.71672 0.0
C711 C 0.75761 0.29317 0.72033 0.0
C712 C 0.76353 0.29353 0.81964 0.0
O713 O 0.81936 0.31517 0.81143 0.0
O714 O 0.80057 0.31577 0.77764 0.0
O715 O 0.76371 0.29247 0.79709 0.0
O716 O 0.78303 0.28962 0.83044 0.0
O717 O 0.78538 0.25213 0.7854 0.0
H718 H 0.75912 0.31732 0.75082 0.0
H719 H 0.79037 0.251 0.73888 0.0
O720 O 0.80666 0.25048 0.81762 0.0
O721 O 0.84306 0.27532 0.79868 0.0
O722 O 0.82254 0.27548 0.76577 0.0
C723 C 0.84242 0.27242 0.77626 0.0
H724 H 0.83979 0.25828 0.89464 0.0
H725 H 0.74661 0.30263 0.70785 0.0
Co726 Co 0.76208 0.75755 0.77699 0.0
C727 C 0.81129 0.76757 0.78076 0.0
Co728 Co 0.77324 0.78861 0.75706 0.0
C729 C 0.73803 0.71457 0.78725 0.0
C730 C 0.75843 0.72641 0.81668 0.0
N731 N 0.75256 0.73186 0.79423 0.0
N732 N 0.73461 0.69845 0.80442 0.0
C733 C 0.74745 0.70583 0.82299 0.0
H734 H 0.73054 0.71363 0.76968 0.0
H735 H 0.76996 0.73674 0.82772 0.0
C736 C 0.72437 0.77904 0.75261 0.0
N737 N 0.78256 0.81415 0.73962 0.0
C738 C 0.79632 0.83201 0.74653 0.0
C739 C 0.77765 0.81857 0.71666 0.0
N740 N 0.80034 0.84734 0.72875 0.0
C741 C 0.78867 0.83897 0.70989 0.0
C742 C 0.77553 0.7475 0.72988 0.0
O743 O 0.72921 0.76216 0.76649 0.0
O744 O 0.74101 0.79332 0.74721 0.0
O745 O 0.77933 0.76932 0.72953 0.0
O746 O 0.76865 0.73821 0.74943 0.0
O747 O 0.80565 0.78397 0.76669 0.0
H748 H 0.76682 0.80761 0.70555 0.0
H749 H 0.80362 0.83352 0.76414 0.0
O750 O 0.79499 0.75321 0.78732 0.0
O751 O 0.75561 0.77671 0.8044 0.0
O752 O 0.76711 0.80791 0.78501 0.0
C753 C 0.75992 0.79844 0.80442 0.0
H754 H 0.74875 0.69707 0.83996 0.0
H755 H 0.78787 0.84719 0.6926 0.0
Co756 Co 0.50506 0.53975 0.50501 0.0
C757 C 0.50214 0.56899 0.54541 0.0
Co758 Co 0.51309 0.52176 0.53842 0.0
C759 C 0.49208 0.54759 0.45618 0.0
C760 C 0.50472 0.5785 0.47306 0.0
N761 N 0.49967 0.55584 0.47717 0.0
N762 N 0.49224 0.56421 0.43922 0.0
C763 C 0.50003 0.58372 0.44981 0.0
H764 H 0.4868 0.52969 0.45331 0.0
H765 H 0.51215 0.59033 0.48591 0.0
C766 C 0.51628 0.49238 0.49837 0.0
N767 N 0.51902 0.50544 0.56597 0.0
C768 C 0.53655 0.50872 0.58183 0.0
C769 C 0.50811 0.48553 0.57282 0.0
N770 N 0.53713 0.49151 0.59821 0.0
C771 C 0.51913 0.47698 0.59262 0.0
C772 C 0.46427 0.51971 0.52544 0.0
O773 O 0.51123 0.51112 0.4873 0.0
O774 O 0.5186 0.49343 0.52077 0.0
O775 O 0.47923 0.51423 0.54139 0.0
O776 O 0.47167 0.5318 0.50778 0.0
O777 O 0.50768 0.55024 0.55627 0.0
H778 H 0.49377 0.47715 0.56339 0.0
H779 H 0.54898 0.52316 0.58103 0.0
O780 O 0.49902 0.568 0.52309 0.0
O781 O 0.53821 0.54784 0.50213 0.0
O782 O 0.54689 0.52957 0.53499 0.0
C783 C 0.55361 0.54227 0.51753 0.0
H784 H 0.50299 0.60033 0.44112 0.0
H785 H 0.51492 0.46071 0.60148 0.0
Co786 Co 0.98077 0.52213 0.00872 0.0
C787 C -0.00345 0.5682 0.00128 0.0
Co788 Co 0.01302 0.53091 0.02861 0.0
C789 C 0.93459 0.50355 0.00017 0.0
C790 C 0.94858 0.52105 0.96924 0.0
N791 N 0.95405 0.51501 0.99163 0.0
N792 N 0.91683 0.50239 0.98424 0.0
C793 C 0.92564 0.51331 0.96463 0.0
H794 H 0.93354 0.49649 0.01799 0.0
H795 H 0.96024 0.53095 0.95731 0.0
C796 C -0.00209 0.48492 0.0362 0.0
N797 N 0.0395 0.53811 0.04603 0.0
C798 C 0.05783 0.55198 0.03912 0.0
C799 C 0.04478 0.53122 0.06827 0.0
N800 N 0.07434 0.55408 0.0561 0.0
C801 C 0.06643 0.54092 0.07446 0.0
C802 C 0.96978 0.5411 0.05251 0.0
O803 O 0.98143 0.49069 0.02184 0.0
O804 O 0.01347 0.50006 0.04156 0.0
O805 O 0.99268 0.5414 0.05387 0.0
O806 O 0.9603 0.53258 0.03422 0.0
O807 O 0.01256 0.5618 0.01578 0.0
H808 H 0.03359 0.51994 0.07926 0.0
H809 H 0.05928 0.56007 0.02175 0.0
O810 O 0.98053 0.55355 -0.00447 0.0
O811 O 0.00086 0.51203 0.98346 0.0
O812 O 0.03351 0.52083 0.00274 0.0
C813 C 0.02377 0.51323 0.98408 0.0
H814 H 0.91601 0.51622 0.94838 0.0
H815 H 0.07551 0.53868 0.09114 0.0
H816 H 0.0317 0.17723 0.14151 0.0
H817 H -0.00071 0.11126 0.02061 0.0
H818 H 0.00912 0.2148 0.07927 0.0
H819 H 0.01441 0.07666 0.08674 0.0
H820 H 0.0027 0.14916 0.04078 0.0
H821 H 0.02599 0.14064 0.12074 0.0
C822 C 0.02557 0.17791 0.12339 0.0
C823 C 0.02093 0.19944 0.11225 0.0
C824 C 0.00509 0.13328 0.05089 0.0
C825 C 0.01422 0.15679 0.08803 0.0
C826 C 0.00307 0.11157 0.03941 0.0
C827 C 0.00649 0.09056 0.05195 0.0
C828 C 0.01074 0.13412 0.07512 0.0
C829 C 0.01152 0.09223 0.07627 0.0
C830 C 0.02223 0.1568 0.1115 0.0
C831 C 0.01297 0.19876 0.08866 0.0
N832 N 0.01359 0.1135 0.08693 0.0
N833 N 0.00992 0.17781 0.07734 0.0
H834 H 0.11066 0.77352 0.3578 0.0
H835 H 0.25319 0.78964 0.3632 0.0
H836 H 0.14964 0.76757 0.42309 0.0
H837 H 0.21202 0.79271 0.29902 0.0
H838 H 0.21521 0.78835 0.38672 0.0
H839 H 0.14707 0.78729 0.33763 0.0
C840 C 0.12695 0.77519 0.36796 0.0
C841 C 0.12729 0.76902 0.39208 0.0
C842 C 0.21452 0.78962 0.36752 0.0
C843 C 0.16933 0.7846 0.36887 0.0
C844 C 0.23616 0.79038 0.35406 0.0
C845 C 0.2357 0.79079 0.32908 0.0
C846 C 0.1924 0.7893 0.35585 0.0
C847 C 0.21321 0.792 0.31821 0.0
C848 C 0.14777 0.78315 0.3564 0.0
C849 C 0.14877 0.77195 0.4044 0.0
N850 N 0.19246 0.79095 0.33167 0.0
N851 N 0.16916 0.77924 0.39253 0.0
H852 H 0.52133 0.87314 0.62979 0.0
H853 H 0.47672 0.94756 0.51861 0.0
H854 H 0.50337 0.83932 0.56406 0.0
H855 H 0.52542 0.97429 0.57047 0.0
H856 H 0.48008 0.90866 0.53711 0.0
H857 H 0.5166 0.91112 0.61057 0.0
C858 C 0.51628 0.87365 0.61131 0.0
C859 C 0.51282 0.85286 0.59856 0.0
C860 C 0.48998 0.92309 0.54439 0.0
C861 C 0.50704 0.89668 0.57639 0.0
C862 C 0.48797 0.94533 0.53394 0.0
C863 C 0.50083 0.96432 0.54294 0.0
C864 C 0.5045 0.91989 0.56434 0.0
C865 C 0.51524 0.96025 0.5628 0.0
C866 C 0.51366 0.89542 0.60032 0.0
C867 C 0.50633 0.85483 0.57458 0.0
N868 N 0.51652 0.93866 0.57286 0.0
N869 N 0.5035 0.87632 0.56433 0.0
H870 H 0.51116 0.29455 0.8222 0.0
H871 H 0.36846 0.27408 0.83105 0.0
H872 H 0.47695 0.25164 0.87624 0.0
H873 H 0.40398 0.3193 0.78 0.0
H874 H 0.40821 0.26125 0.84463 0.0
H875 H 0.47241 0.29891 0.80307 0.0
C876 C 0.49549 0.28586 0.82994 0.0
C877 C 0.49717 0.27303 0.85106 0.0
C878 C 0.40728 0.27386 0.83035 0.0
C879 C 0.4526 0.27818 0.82935 0.0
C880 C 0.38462 0.28113 0.82255 0.0
C881 C 0.38294 0.298 0.80456 0.0
C882 C 0.42835 0.2835 0.82003 0.0
C883 C 0.40443 0.30667 0.79426 0.0
C884 C 0.47334 0.28837 0.819 0.0
C885 C 0.47638 0.26183 0.86006 0.0
N886 N 0.42623 0.2994 0.80223 0.0
N887 N 0.45481 0.26493 0.84931 0.0
H888 H 0.02263 0.80389 0.47529 0.0
H889 H 0.94055 0.91815 0.45581 0.0
H890 H 0.00885 0.83439 0.40673 0.0
H891 H 0.97777 0.90438 0.52071 0.0
H892 H 0.95513 0.88031 0.44002 0.0
H893 H -0.0031 0.83446 0.49419 0.0
C894 C 0.01411 0.81692 0.46423 0.0
C895 C 0.0182 0.81689 0.43947 0.0
C896 C 0.95963 0.88536 0.45793 0.0
C897 C 0.98846 0.85133 0.46081 0.0
C898 C 0.95109 0.90676 0.467 0.0
C899 C 0.9582 0.91427 0.48944 0.0
C900 C 0.97516 0.87147 0.47156 0.0
C901 C 0.97215 0.8991 0.50322 0.0
C902 C -0.00058 0.83426 0.475 0.0
C903 C 0.00657 0.83404 0.42593 0.0
N904 N 0.98045 0.87848 0.49396 0.0
N905 N 0.99226 0.85059 0.43679 0.0
H906 H 0.47077 0.78191 0.73096 0.0
H907 H 0.33041 0.76349 0.72189 0.0
H908 H 0.43756 0.77906 0.6625 0.0
H909 H 0.35914 0.80442 0.77889 0.0
H910 H 0.36999 0.76481 0.70094 0.0
H911 H 0.43052 0.7864 0.75012 0.0
C912 C 0.45496 0.78239 0.71996 0.0
C913 C 0.45743 0.78007 0.69512 0.0
C914 C 0.36755 0.7736 0.71797 0.0
C915 C 0.41138 0.7847 0.71698 0.0
C916 C 0.34508 0.7727 0.73003 0.0
C917 C 0.34157 0.78371 0.75227 0.0
C918 C 0.38683 0.78512 0.72845 0.0
C919 C 0.36112 0.79563 0.76184 0.0
C920 C 0.43206 0.78504 0.7309 0.0
C921 C 0.4364 0.7809 0.68169 0.0
N922 N 0.38303 0.79575 0.75002 0.0
N923 N 0.41416 0.78276 0.69283 0.0
H924 H 0.55424 0.19071 0.9734 0.0
H925 H 0.5295 0.0562 0.94693 0.0
H926 H 0.5447 0.16349 0.90258 0.0
H927 H 0.54433 0.08404 0.01646 0.0
H928 H 0.53752 0.09461 0.92969 0.0
H929 H 0.55237 0.15115 0.989 0.0
C930 C 0.55171 0.17638 0.96112 0.0
C931 C 0.54946 0.18039 0.93668 0.0
C932 C 0.53926 0.09222 0.94868 0.0
C933 C 0.54738 0.13496 0.95442 0.0
C934 C 0.53478 0.07028 0.95852 0.0
C935 C 0.53604 0.06699 0.9832 0.0
C936 C 0.54494 0.11092 0.96367 0.0
C937 C 0.54296 0.08583 -0.00263 0.0
C938 C 0.55075 0.15376 0.97003 0.0
C939 C 0.5464 0.16116 0.92158 0.0
N940 N 0.54693 0.10702 0.98742 0.0
N941 N 0.54533 0.13923 0.93072 0.0
H942 H 0.11225 0.25627 0.15335 0.0
H943 H 0.1923 0.31983 0.24732 0.0
H944 H 0.08064 0.31055 0.19822 0.0
H945 H 0.19556 0.24483 0.24045 0.0
H946 H 0.15565 0.32046 0.22335 0.0
H947 H 0.14814 0.25556 0.17855 0.0
C948 C 0.11303 0.26824 0.16827 0.0
C949 C 0.09351 0.28352 0.17372 0.0
C950 C 0.16433 0.30389 0.22729 0.0
C951 C 0.13439 0.28297 0.20227 0.0
C952 C 0.18512 0.3035 0.24101 0.0
C953 C 0.19674 0.28222 0.24618 0.0
C954 C 0.15565 0.28294 0.21792 0.0
C955 C 0.18689 0.26157 0.23724 0.0
C956 C 0.13334 0.26767 0.18273 0.0
C957 C 0.0953 0.29848 0.19344 0.0
N958 N 0.16713 0.26246 0.22324 0.0
N959 N 0.11546 0.29801 0.20686 0.0
H960 H 0.1534 0.00832 0.19439 0.0
H961 H 0.04539 0.95273 0.12286 0.0
H962 H 0.10794 0.95341 0.2222 0.0
H963 H 0.07189 0.02243 0.10988 0.0
H964 H 0.07385 0.94854 0.1548 0.0
H965 H 0.12965 0.00889 0.15816 0.0
C966 C 0.1387 -0.00386 0.19269 0.0
C967 C 0.1324 0.98095 0.21132 0.0
C968 C 0.07343 0.9647 0.14483 0.0
C969 C 0.10536 0.98151 0.17021 0.0
C970 C 0.05701 0.96723 0.12663 0.0
C971 C 0.05587 0.9881 0.11357 0.0
C972 C 0.08903 0.98303 0.14995 0.0
C973 C 0.07203 0.00595 0.11918 0.0
C974 C 0.12509 -0.00342 0.17214 0.0
C975 C 0.11319 0.96555 0.2083 0.0
N976 N 0.08792 0.00301 0.13697 0.0
N977 N 0.10026 0.96628 0.18815 0.0
H978 H 0.25049 0.84098 0.50224 0.0
H979 H 0.3205 0.84541 0.37639 0.0
H980 H 0.23676 0.89298 0.44861 0.0
H981 H 0.31432 0.78156 0.4164 0.0
H982 H 0.29571 0.86558 0.40701 0.0
H983 H 0.27795 0.8204 0.474 0.0
C984 C 0.25299 0.84788 0.48442 0.0
C985 C 0.24135 0.86873 0.47773 0.0
C986 C 0.3 0.84722 0.40925 0.0
C987 C 0.27315 0.84567 0.44575 0.0
C988 C 0.31434 0.8358 0.39196 0.0
C989 C 0.31922 0.8118 0.39383 0.0
C990 C 0.29061 0.83456 0.42866 0.0
C991 C 0.31103 0.8001 0.41438 0.0
C992 C 0.26874 0.8362 0.46841 0.0
C993 C 0.24524 0.87691 0.45447 0.0
N994 N 0.29684 0.81157 0.43096 0.0
N995 N 0.26104 0.86548 0.43938 0.0
H996 H 0.3731 0.07198 0.65838 0.0
H997 H 0.49861 0.06937 0.58635 0.0
H998 H 0.44179 0.09007 0.68793 0.0
H999 H 0.43021 0.04992 0.55696 0.0
H1000 H 0.47667 0.08571 0.62103 0.0
H1001 H 0.39195 0.07352 0.6185 0.0
C1002 C 0.39202 0.07678 0.65642 0.0
C1003 C 0.40619 0.08015 0.67638 0.0
C1004 C 0.46644 0.0781 0.60686 0.0
C1005 C 0.42781 0.08165 0.63115 0.0
C1006 C 0.47898 0.06863 0.58716 0.0
C1007 C 0.46622 0.05778 0.5691 0.0
C1008 C 0.44105 0.07644 0.60855 0.0
C1009 C 0.44078 0.05773 0.57075 0.0
C1010 C 0.40277 0.07759 0.63369 0.0
C1011 C 0.43045 0.08668 0.67294 0.0
N1012 N 0.42902 0.06662 0.59034 0.0
N1013 N 0.44064 0.08677 0.65074 0.0
H1014 H 0.29828 0.18188 0.94034 0.0
H1015 H 0.22899 0.26685 0.85343 0.0
H1016 H 0.23421 0.22036 0.9641 0.0
H1017 H 0.30684 0.25831 0.84866 0.0
H1018 H 0.22858 0.24599 0.89157 0.0
H1019 H 0.29999 0.20572 0.90407 0.0
C1020 C 0.28461 0.19537 0.93796 0.0
C1021 C 0.2661 0.19915 0.95534 0.0
C1022 C 0.24575 0.24884 0.88224 0.0
C1023 C 0.2677 0.22618 0.91364 0.0
C1024 C 0.246 0.26069 0.86045 0.0
C1025 C 0.26799 0.26443 0.84786 0.0
C1026 C 0.26756 0.24008 0.89124 0.0
C1027 C 0.28949 0.256 0.85783 0.0
C1028 C 0.28565 0.20901 0.9173 0.0
C1029 C 0.24887 0.21692 0.95127 0.0
N1030 N 0.28871 0.24397 0.87875 0.0
N1031 N 0.24991 0.22957 0.93074 0.0
H1032 H 0.13823 0.97941 0.36308 0.0
H1033 H 0.07703 0.00629 0.46908 0.0
H1034 H 0.06564 0.98071 0.33628 0.0
H1035 H 0.01705 0.96826 0.44115 0.0
H1036 H 0.10065 -0.00233 0.43268 0.0
H1037 H 0.12104 0.97521 0.40356 0.0
C1038 C 0.11872 0.97857 0.36569 0.0
C1039 C 0.10329 0.98095 0.3464 0.0
C1040 C 0.08262 0.99057 0.43475 0.0
C1041 C 0.08359 0.9765 0.39243 0.0
C1042 C 0.06901 -0.00428 0.45544 0.0
C1043 C 0.04497 0.98819 0.45796 0.0
C1044 C 0.07196 0.97805 0.41636 0.0
C1045 C 0.0355 0.97447 0.43983 0.0
C1046 C 0.10893 0.97639 0.38878 0.0
C1047 C 0.07816 0.97947 0.35072 0.0
N1048 N 0.04886 0.97027 0.41952 0.0
N1049 N 0.06909 0.97748 0.37331 0.0
H1050 H 0.24331 0.83786 0.60308 0.0
H1051 H 0.26369 0.85328 0.742 0.0
H1052 H 0.24404 0.90571 0.63688 0.0
H1053 H 0.24405 0.78854 0.70838 0.0
H1054 H 0.25911 0.87326 0.70384 0.0
H1055 H 0.24789 0.81965 0.64171 0.0
C1056 C 0.24465 0.84894 0.61864 0.0
C1057 C 0.24315 0.87331 0.61685 0.0
C1058 C 0.25563 0.85473 0.70497 0.0
C1059 C 0.24811 0.85257 0.66116 0.0
C1060 C 0.25811 0.84336 0.7267 0.0
C1061 C 0.25436 0.81922 0.72827 0.0
C1062 C 0.24956 0.84175 0.68482 0.0
C1063 C 0.24725 0.80715 0.70795 0.0
C1064 C 0.24709 0.83853 0.64072 0.0
C1065 C 0.24506 0.88683 0.63757 0.0
N1066 N 0.24526 0.81852 0.68703 0.0
N1067 N 0.24737 0.87624 0.65899 0.0
H1068 H 0.40834 0.01836 0.81295 0.0
H1069 H 0.51403 0.01666 0.90155 0.0
H1070 H 0.48119 0.029 0.78515 0.0
H1071 H 0.46011 0.96292 0.90393 0.0
H1072 H 0.50071 0.02777 0.86164 0.0
H1073 H 0.42503 0.00471 0.85035 0.0
C1074 C 0.42785 0.01803 0.81485 0.0
C1075 C 0.4435 0.02483 0.79612 0.0
C1076 C 0.49207 0.01339 0.87087 0.0
C1077 C 0.46246 0.00948 0.83859 0.0
C1078 C 0.49953 0.00716 0.89347 0.0
C1079 C 0.48803 0.98893 0.90571 0.0
C1080 C 0.47258 0.0017 0.86104 0.0
C1081 C 0.4694 0.97696 0.8948 0.0
C1082 C 0.43729 0.01005 0.83601 0.0
C1083 C 0.46862 0.02383 0.79928 0.0
N1084 N 0.4619 0.98384 0.87312 0.0
N1085 N 0.47743 0.0165 0.82036 0.0
H1086 H 0.249 0.14851 0.12415 0.0
H1087 H 0.28202 0.26917 0.18751 0.0
H1088 H 0.27315 0.20884 0.08466 0.0
H1089 H 0.26343 0.20615 0.22537 0.0
H1090 H 0.2794 0.24783 0.14979 0.0
H1091 H 0.25412 0.16984 0.16112 0.0
C1092 C 0.25535 0.1663 0.12317 0.0
C1093 C 0.2606 0.17682 0.10105 0.0
C1094 C 0.27607 0.23863 0.16635 0.0
C1095 C 0.26661 0.20156 0.14386 0.0
C1096 C 0.27764 0.25079 0.18795 0.0
C1097 C 0.27299 0.23947 0.20977 0.0
C1098 C 0.26966 0.21497 0.16646 0.0
C1099 C 0.26726 0.21565 0.20909 0.0
C1100 C 0.25834 0.17849 0.14442 0.0
C1101 C 0.26882 0.19997 0.1012 0.0
N1102 N 0.26565 0.20429 0.18787 0.0
N1103 N 0.27153 0.21156 0.12223 0.0
H1104 H 0.20372 0.09266 0.98503 0.0
H1105 H 0.08374 0.05218 0.05208 0.0
H1106 H 0.17122 0.13434 0.04186 0.0
H1107 H 0.08843 0.04995 0.97533 0.0
H1108 H 0.12162 0.07426 0.05212 0.0
H1109 H 0.16666 0.06923 0.9843 0.0
C1110 C 0.18877 0.09688 -0.00269 0.0
C1111 C 0.19042 0.11555 0.01342 0.0
C1112 C 0.11443 0.06868 0.03533 0.0
C1113 C 0.14855 0.08842 0.01318 0.0
C1114 C 0.09302 0.05588 0.03527 0.0
C1115 C 0.08302 0.04912 0.01365 0.0
C1116 C 0.12628 0.0742 0.01367 0.0
C1117 C 0.09559 0.05478 0.99237 0.0
C1118 C 0.16771 0.08355 -0.00314 0.0
C1119 C 0.17057 0.12025 0.02901 0.0
N1120 N 0.11669 0.06685 0.9929 0.0
N1121 N 0.15055 0.10658 0.02873 0.0
H1122 H 0.6729 0.46473 0.07511 0.0
H1123 H 0.57738 0.53092 0.04375 0.0
H1124 H 0.62488 0.40771 0.06152 0.0
H1125 H 0.532 0.47182 0.0597 0.0
H1126 H 0.61106 0.51083 0.06192 0.0
H1127 H 0.63786 0.49037 0.08248 0.0
C1128 C 0.65487 0.45763 0.07377 0.0
C1129 C 0.65162 0.43438 0.06679 0.0
C1130 C 0.5936 0.50248 0.06239 0.0
C1131 C 0.61157 0.46376 0.07413 0.0
C1132 C 0.57433 0.514 0.05178 0.0
C1133 C 0.55218 0.50267 0.04951 0.0
C1134 C 0.59058 0.47946 0.07062 0.0
C1135 C 0.54906 0.48089 0.06048 0.0
C1136 C 0.63488 0.47232 0.07783 0.0
C1137 C 0.62807 0.42572 0.06626 0.0
N1138 N 0.56826 0.46972 0.07002 0.0
N1139 N 0.60884 0.44061 0.06931 0.0
H1140 H 0.89181 0.46264 0.2313 0.0
H1141 H 0.81789 0.40058 0.33655 0.0
H1142 H 0.88147 0.49401 0.30095 0.0
H1143 H 0.80814 0.38512 0.26216 0.0
H1144 H 0.8438 0.43316 0.32487 0.0
H1145 H 0.86455 0.43131 0.24352 0.0
C1146 C 0.88391 0.46286 0.24919 0.0
C1147 C 0.88885 0.48095 0.26512 0.0
C1148 C 0.83586 0.42263 0.31117 0.0
C1149 C 0.8577 0.44527 0.27916 0.0
C1150 C 0.82095 0.40412 0.31781 0.0
C1151 C 0.81104 0.38984 0.30033 0.0
C1152 C 0.84101 0.42671 0.28693 0.0
C1153 C 0.81586 0.3952 0.27628 0.0
C1154 C 0.86825 0.44508 0.25609 0.0
C1155 C 0.87805 0.48044 0.28807 0.0
N1156 N 0.83066 0.41307 0.27031 0.0
N1157 N 0.86302 0.46282 0.29445 0.0
H1158 H 0.81244 0.55832 0.51337 0.0
H1159 H 0.95231 0.56994 0.5226 0.0
H1160 H 0.8449 0.6264 0.51139 0.0
H1161 H 0.92287 0.51313 0.48263 0.0
H1162 H 0.91312 0.5905 0.52126 0.0
H1163 H 0.85239 0.5405 0.50472 0.0
C1164 C 0.82799 0.56952 0.51097 0.0
C1165 C 0.82544 0.59386 0.51325 0.0
C1166 C 0.91534 0.57371 0.51246 0.0
C1167 C 0.87115 0.57356 0.50372 0.0
C1168 C 0.93761 0.56195 0.5133 0.0
C1169 C 0.94071 0.53982 0.50274 0.0
C1170 C 0.89579 0.56296 0.50165 0.0
C1171 C 0.92117 0.53021 0.49088 0.0
C1172 C 0.85071 0.55935 0.50587 0.0
C1173 C 0.84612 0.60758 0.50977 0.0
N1174 N 0.89931 0.54164 0.49106 0.0
N1175 N 0.86824 0.5972 0.50562 0.0
H1176 H 0.19366 0.05724 0.3127 0.0
H1177 H 0.19526 0.19281 0.28075 0.0
H1178 H 0.13914 0.0904 0.27014 0.0
H1179 H 0.24392 0.15966 0.3295 0.0
H1180 H 0.17387 0.15593 0.27691 0.0
H1181 H 0.21155 0.09508 0.31955 0.0
C1182 C 0.18538 0.07252 0.30482 0.0
C1183 C 0.16495 0.07062 0.29067 0.0
C1184 C 0.18914 0.1568 0.28855 0.0
C1185 C 0.18549 0.11417 0.29842 0.0
C1186 C 0.20146 0.17778 0.29062 0.0
C1187 C 0.22152 0.17927 0.30536 0.0
C1188 C 0.19704 0.13715 0.3012 0.0
C1189 C 0.22847 0.15938 0.3181 0.0
C1190 C 0.1956 0.09418 0.3088 0.0
C1191 C 0.15491 0.09108 0.28112 0.0
N1192 N 0.21634 0.13912 0.3156 0.0
N1193 N 0.16542 0.11204 0.28503 0.0
H1194 H 0.26028 0.98836 0.49566 0.0
H1195 H 0.4009 0.98272 0.52473 0.0
H1196 H 0.29049 0.94714 0.55214 0.0
H1197 H 0.3718 0.02614 0.46942 0.0
H1198 H 0.35992 0.97193 0.53678 0.0
H1199 H 0.30017 0.00532 0.48797 0.0
C1200 C 0.2752 0.98313 0.50668 0.0
C1201 C 0.27214 0.96608 0.52437 0.0
C1202 C 0.36244 0.98391 0.52206 0.0
C1203 C 0.31776 0.98519 0.51549 0.0
C1204 C 0.38589 0.99015 0.51521 0.0
C1205 C 0.38984 0.00538 0.49602 0.0
C1206 C 0.3427 0.99281 0.50956 0.0
C1207 C 0.36963 0.01409 0.48408 0.0
C1208 C 0.29798 0.99274 0.5022 0.0
C1209 C 0.29207 0.96002 0.53813 0.0
N1210 N 0.34689 0.00762 0.49102 0.0
N1211 N 0.31407 0.9694 0.53324 0.0
H1212 H 0.9145 0.63963 0.28243 0.0
H1213 H 0.78431 0.69838 0.26288 0.0
H1214 H 0.84779 0.60097 0.28551 0.0
H1215 H 0.85244 0.7341 0.25391 0.0
H1216 H 0.8067 0.6625 0.27212 0.0
H1217 H 0.89114 0.67536 0.27608 0.0
C1218 C 0.89489 0.63875 0.28234 0.0
C1219 C 0.88308 0.61728 0.28414 0.0
C1220 C 0.81671 0.67816 0.26789 0.0
C1221 C 0.85631 0.65793 0.27617 0.0
C1222 C 0.80397 0.69852 0.26225 0.0
C1223 C 0.81656 0.71922 0.2577 0.0
C1224 C 0.84212 0.67864 0.26899 0.0
C1225 C 0.84201 0.71853 0.25742 0.0
C1226 C 0.88157 0.6591 0.27839 0.0
C1227 C 0.85763 0.61715 0.28401 0.0
N1228 N 0.85394 0.69862 0.26323 0.0
N1229 N 0.84506 0.63716 0.27968 0.0
H1230 H 0.72024 0.43116 0.82485 0.0
H1231 H 0.81434 0.35533 0.8322 0.0
H1232 H 0.75424 0.45852 0.76088 0.0
H1233 H 0.80654 0.35595 0.75598 0.0
H1234 H 0.79751 0.39507 0.83425 0.0
H1235 H 0.75498 0.40482 0.82943 0.0
C1236 C 0.73529 0.43188 0.81203 0.0
C1237 C 0.73438 0.44675 0.79235 0.0
C1238 C 0.80013 0.38668 0.81704 0.0
C1239 C 0.77412 0.41682 0.79743 0.0
C1240 C 0.80997 0.36412 0.81579 0.0
C1241 C 0.81108 0.35215 0.79394 0.0
C1242 C 0.79155 0.39713 0.79629 0.0
C1243 C 0.80537 0.36444 0.77324 0.0
C1244 C 0.75526 0.41711 0.81482 0.0
C1245 C 0.75433 0.44718 0.77627 0.0
N1246 N 0.79534 0.38618 0.77496 0.0
N1247 N 0.77314 0.43187 0.77877 0.0
H1248 H 0.01363 0.84044 0.95993 0.0
H1249 H 0.01933 0.98032 0.94593 0.0
H1250 H 0.02118 0.87634 0.89276 0.0
H1251 H 0.02273 0.94601 0.01403 0.0
H1252 H 0.01816 0.94207 0.92652 0.0
H1253 H 0.01458 0.87851 0.98051 0.0
C1254 C 0.01533 0.85623 0.94949 0.0
C1255 C 0.01739 0.85499 0.9245 0.0
C1256 C 0.01927 0.94284 0.94572 0.0
C1257 C 0.01853 0.89869 0.94796 0.0
C1258 C 0.02001 0.96477 0.95683 0.0
C1259 C 0.02129 0.96654 0.9817 0.0
C1260 C 0.0196 0.92233 0.95948 0.0
C1261 C 0.02192 0.9456 -0.0052 0.0
C1262 C 0.01599 0.87798 0.96126 0.0
C1263 C 0.01966 0.87619 0.91201 0.0
N1264 N 0.02098 0.92444 0.98359 0.0
N1265 N 0.02014 0.89696 0.92379 0.0
H1266 H 0.94544 0.26036 0.66047 0.0
H1267 H 0.88845 0.26385 0.79182 0.0
H1268 H 0.98725 0.24634 0.72278 0.0
H1269 H 0.84601 0.26515 0.7284 0.0
H1270 H 0.92465 0.2546 0.76708 0.0
H1271 H 0.90837 0.25874 0.68508 0.0
C1272 C 0.9468 0.25663 0.67928 0.0
C1273 C 0.96946 0.25385 0.68966 0.0
C1274 C 0.90734 0.25669 0.75865 0.0
C1275 C 0.92717 0.25231 0.71801 0.0
C1276 C 0.88673 0.26208 0.77275 0.0
C1277 C 0.8643 0.26563 0.76211 0.0
C1278 C 0.90542 0.25503 0.73381 0.0
C1279 C 0.86301 0.26287 0.73735 0.0
C1280 C 0.92563 0.25571 0.69334 0.0
C1281 C 0.97015 0.2488 0.71408 0.0
N1282 N 0.88333 0.25796 0.72404 0.0
N1283 N 0.94929 0.24856 0.72753 0.0
H1284 H 0.53762 0.19367 0.41252 0.0
H1285 H 0.46271 0.09991 0.48555 0.0
H1286 H 0.47911 0.21665 0.45995 0.0
H1287 H 0.54075 0.09503 0.47911 0.0
H1288 H 0.4645 0.13997 0.46962 0.0
H1289 H 0.53536 0.15456 0.43007 0.0
C1290 C 0.52423 0.19048 0.42661 0.0
C1291 C 0.50858 0.20854 0.43483 0.0
C1292 C 0.48118 0.13006 0.47173 0.0
C1293 C 0.50553 0.16351 0.45458 0.0
C1294 C 0.48018 0.10718 0.48064 0.0
C1295 C 0.50162 0.09406 0.48365 0.0
C1296 C 0.5037 0.13964 0.46508 0.0
C1297 C 0.52377 0.10448 0.47715 0.0
C1298 C 0.52303 0.16817 0.43664 0.0
C1299 C 0.49163 0.20332 0.45319 0.0
N1300 N 0.52422 0.12648 0.46792 0.0
N1301 N 0.49033 0.18121 0.46225 0.0
H1302 H 0.60466 0.80626 0.1352 0.0
H1303 H 0.6527 0.75782 0.2565 0.0
H1304 H 0.56137 0.80655 0.20053 0.0
H1305 H 0.70173 0.78405 0.20201 0.0
H1306 H 0.6185 0.77397 0.23475 0.0
H1307 H 0.64091 0.79861 0.15836 0.0
C1308 C 0.60289 0.80535 0.15443 0.0
C1309 C 0.58003 0.80654 0.16599 0.0
C1310 C 0.63677 0.77631 0.22763 0.0
C1311 C 0.62094 0.79728 0.19228 0.0
C1312 C 0.65615 0.76684 0.23986 0.0
C1313 C 0.67985 0.76964 0.23092 0.0
C1314 C 0.64123 0.78829 0.20617 0.0
C1315 C 0.6836 0.78172 0.20946 0.0
C1316 C 0.6235 0.80083 0.1676 0.0
C1317 C 0.57867 0.80527 0.19092 0.0
N1318 N 0.66443 0.7905 0.19765 0.0
N1319 N 0.5988 0.80025 0.20322 0.0
H1320 H 0.07888 0.20134 0.61799 0.0
H1321 H 0.02346 0.12001 0.51882 0.0
H1322 H 0.02104 0.22335 0.57256 0.0
H1323 H 0.08747 0.1017 0.55737 0.0
H1324 H 0.02393 0.15904 0.53646 0.0
H1325 H 0.08414 0.16581 0.59419 0.0
C1326 C 0.06739 0.19879 0.60292 0.0
C1327 C 0.04929 0.21522 0.59744 0.0
C1328 C 0.03804 0.14658 0.54087 0.0
C1329 C 0.05515 0.17456 0.57019 0.0
C1330 C 0.03769 0.12428 0.5309 0.0
C1331 C 0.05529 0.10756 0.53685 0.0
C1332 C 0.05599 0.15209 0.55712 0.0
C1333 C 0.0736 0.11409 0.55225 0.0
C1334 C 0.07045 0.17852 0.58929 0.0
C1335 C 0.0351 0.21109 0.57756 0.0
N1336 N 0.07331 0.13578 0.56208 0.0
N1337 N 0.03817 0.19105 0.56481 0.0
H1338 H 0.57784 0.30201 0.33948 0.0
H1339 H 0.70931 0.25024 0.32483 0.0
H1340 H 0.60738 0.26142 0.39658 0.0
H1341 H 0.69778 0.32341 0.31039 0.0
H1342 H 0.66901 0.24901 0.34461 0.0
H1343 H 0.61897 0.30544 0.32169 0.0
C1344 C 0.59298 0.29378 0.34821 0.0
C1345 C 0.58929 0.28142 0.36952 0.0
C1346 C 0.67538 0.26531 0.33713 0.0
C1347 C 0.63598 0.28484 0.34904 0.0
C1348 C 0.69823 0.26602 0.32577 0.0
C1349 C 0.70682 0.28698 0.31601 0.0
C1350 C 0.66069 0.28549 0.33803 0.0
C1351 C 0.69182 0.30696 0.3178 0.0
C1352 C 0.61636 0.29587 0.33814 0.0
C1353 C 0.60951 0.27118 0.38019 0.0
N1354 N 0.66926 0.30566 0.3283 0.0
N1355 N 0.63198 0.2728 0.36964 0.0
H1356 H 0.47073 0.86094 0.13089 0.0
H1357 H 0.47353 0.93626 0.01199 0.0
H1358 H 0.485 0.83253 0.0605 0.0
H1359 H 0.4838 0.96482 0.08217 0.0
H1360 H 0.46434 0.89854 0.02991 0.0
H1361 H 0.4619 0.89894 0.11316 0.0
C1362 C 0.47145 0.86255 0.11167 0.0
C1363 C 0.4791 0.84371 0.09712 0.0
C1364 C 0.46823 0.91318 0.04138 0.0
C1365 C 0.46909 0.88702 0.07688 0.0
C1366 C 0.47348 0.93472 0.03121 0.0
C1367 C 0.47995 0.95358 0.04561 0.0
C1368 C 0.46939 0.91049 0.06612 0.0
C1369 C 0.47928 0.95063 0.07039 0.0
C1370 C 0.4665 0.88426 0.10161 0.0
C1371 C 0.47956 0.84672 0.07237 0.0
N1372 N 0.47441 0.92935 0.07988 0.0
N1373 N 0.47495 0.8681 0.06301 0.0
H1374 H 0.95747 0.80387 0.81485 0.0
H1375 H 0.82783 0.74173 0.81866 0.0
H1376 H 0.93587 0.75709 0.87149 0.0
H1377 H 0.85088 0.79256 0.76647 0.0
H1378 H 0.86753 0.74471 0.83729 0.0
H1379 H 0.91885 0.79792 0.79639 0.0
C1380 C 0.9446 0.79232 0.82351 0.0
C1381 C 0.95011 0.78101 0.8449 0.0
C1382 C 0.86389 0.75507 0.82167 0.0
C1383 C 0.90525 0.774 0.82347 0.0
C1384 C 0.8413 0.75327 0.81092 0.0
C1385 C 0.83594 0.76691 0.79091 0.0
C1386 C 0.88128 0.77056 0.81229 0.0
C1387 C 0.85406 0.78171 0.78184 0.0
C1388 C 0.92241 0.7889 0.81286 0.0
C1389 C 0.93246 0.76625 0.85508 0.0
N1390 N 0.87575 0.78315 0.79259 0.0
N1391 N 0.91083 0.76316 0.84428 0.0
H1392 H 0.91497 0.07904 0.80774 0.0
H1393 H -0.00093 0.02404 0.90537 0.0
H1394 H 0.96925 0.0264 0.78941 0.0
H1395 H 0.97211 0.09501 0.90964 0.0
H1396 H 0.98389 0.02118 0.86479 0.0
H1397 H 0.9315 0.08191 0.84745 0.0
C1398 C 0.93039 0.06809 0.81209 0.0
C1399 C 0.94081 0.05246 0.79531 0.0
C1400 C 0.98141 0.03737 0.87464 0.0
C1401 C 0.95954 0.05549 0.84071 0.0
C1402 C 0.98985 0.03893 0.89775 0.0
C1403 C 0.98677 0.05979 0.9107 0.0
C1404 C 0.96942 0.05665 0.86476 0.0
C1405 C 0.97497 0.07872 0.90007 0.0
C1406 C 0.93984 0.06981 0.83469 0.0
C1407 C 0.96081 0.03875 0.80183 0.0
N1408 N 0.96652 0.07665 0.87775 0.0
N1409 N 0.96944 0.04042 0.82418 0.0
H1410 H 0.77419 0.15436 0.62145 0.0
H1411 H 0.76559 0.28563 0.6707 0.0
H1412 H 0.78323 0.21493 0.57656 0.0
H1413 H 0.76727 0.22464 0.71548 0.0
H1414 H 0.76809 0.26014 0.63551 0.0
H1415 H 0.76859 0.18007 0.65587 0.0
C1416 C 0.77511 0.17306 0.61883 0.0
C1417 C 0.77926 0.18249 0.59608 0.0
C1418 C 0.76782 0.25236 0.65306 0.0
C1419 C 0.77265 0.21205 0.63543 0.0
C1420 C 0.76619 0.26688 0.67307 0.0
C1421 C 0.76646 0.25718 0.69594 0.0
C1422 C 0.76956 0.22804 0.65605 0.0
C1423 C 0.76745 0.2328 0.69813 0.0
C1424 C 0.77185 0.18774 0.6385 0.0
C1425 C 0.78019 0.20688 0.59379 0.0
N1426 N 0.76903 0.21907 0.67845 0.0
N1427 N 0.77686 0.22084 0.61323 0.0
H1428 H 0.62123 0.00479 0.35543 0.0
H1429 H 0.49963 -0.0009 0.4352 0.0
H1430 H 0.54939 0.01601 0.32854 0.0
H1431 H 0.57009 0.01096 0.46435 0.0
H1432 H 0.51865 -0.00433 0.39565 0.0
H1433 H 0.60332 -0.00133 0.39513 0.0
C1434 C 0.60169 0.00593 0.35787 0.0
C1435 C 0.58674 0.01113 0.33874 0.0
C1436 C 0.52995 -0.00124 0.41076 0.0
C1437 C 0.56628 0.00385 0.38391 0.0
C1438 C 0.51917 0.0006 0.43335 0.0
C1439 C 0.5333 0.00575 0.453 0.0
C1440 C 0.555 0.00201 0.40785 0.0
C1441 C 0.55853 0.00726 0.4496 0.0
C1442 C 0.59153 0.00239 0.38049 0.0
C1443 C 0.56157 0.01231 0.34286 0.0
N1444 N 0.5686 0.00566 0.42732 0.0
N1445 N 0.5521 0.0087 0.36507 0.0
H1446 H 0.79853 0.88784 0.10532 0.0
H1447 H 0.76118 0.78267 0.19145 0.0
H1448 H 0.76243 0.82636 0.08073 0.0
H1449 H 0.81531 0.83272 0.20994 0.0
H1450 H 0.75983 0.79957 0.15163 0.0
H1451 H 0.80335 0.86925 0.14417 0.0
C1452 C 0.7917 0.87038 0.10802 0.0
C1453 C 0.78003 0.85869 0.0896 0.0
C1454 C 0.77214 0.8068 0.1643 0.0
C1455 C 0.78527 0.83733 0.13439 0.0
C1456 C 0.77291 0.79717 0.18714 0.0
C1457 C 0.78844 0.80621 0.20423 0.0
C1458 C 0.7867 0.82597 0.15834 0.0
C1459 C 0.80315 0.82507 0.19741 0.0
C1460 C 0.79452 0.85975 0.13025 0.0
C1461 C 0.7716 0.83606 0.09428 0.0
N1462 N 0.80176 0.83443 0.17512 0.0
N1463 N 0.77419 0.82625 0.1162 0.0
H1464 H 0.93049 0.09184 0.67695 0.0
H1465 H 0.92925 0.01592 0.55929 0.0
H1466 H 0.86666 0.05628 0.65417 0.0
H1467 H 0.98544 0.06521 0.57426 0.0
H1468 H 0.90476 0.03224 0.59254 0.0
H1469 H 0.9495 0.08495 0.63776 0.0
C1470 C 0.92032 0.08296 0.66351 0.0
C1471 C 0.89715 0.07433 0.66885 0.0
C1472 C 0.92234 0.03963 0.58836 0.0
C1473 C 0.91891 0.06591 0.6242 0.0
C1474 C 0.93638 0.03021 0.5695 0.0
C1475 C 0.95956 0.03896 0.56427 0.0
C1476 C 0.9317 0.05772 0.60216 0.0
C1477 C 0.96779 0.05771 0.57785 0.0
C1478 C 0.93117 0.07899 0.64115 0.0
C1479 C 0.88465 0.06309 0.65079 0.0
N1480 N 0.95398 0.06628 0.59633 0.0
N1481 N 0.89589 0.05879 0.62936 0.0
H1482 H 0.81454 0.16921 0.4328 0.0
H1483 H 0.79582 0.28977 0.36477 0.0
H1484 H 0.79013 0.23295 0.4678 0.0
H1485 H 0.80049 0.22223 0.33035 0.0
H1486 H 0.80352 0.27099 0.40289 0.0
H1487 H 0.81939 0.19053 0.39557 0.0
C1488 C 0.81039 0.18776 0.4327 0.0
C1489 C 0.80147 0.19928 0.45328 0.0
C1490 C 0.80314 0.26037 0.38692 0.0
C1491 C 0.80698 0.2237 0.41076 0.0
C1492 C 0.79881 0.27104 0.36518 0.0
C1493 C 0.79716 0.25744 0.34448 0.0
C1494 C 0.80598 0.23601 0.38783 0.0
C1495 C 0.80128 0.2333 0.34596 0.0
C1496 C 0.81318 0.19989 0.41144 0.0
C1497 C 0.79674 0.22337 0.45222 0.0
N1498 N 0.80533 0.22332 0.36734 0.0
N1499 N 0.79931 0.23479 0.43118 0.0
H1500 H 0.64978 0.02098 0.19388 0.0
H1501 H 0.5296 0.99497 0.12316 0.0
H1502 H 0.59583 0.97166 0.21758 0.0
H1503 H 0.57005 0.05844 0.11486 0.0
H1504 H 0.55764 0.98199 0.1535 0.0
H1505 H 0.6253 0.02982 0.15922 0.0
C1506 C 0.63313 0.01156 0.19141 0.0
C1507 C 0.6246 -0.00429 0.20855 0.0
C1508 C 0.56033 -0.00119 0.14512 0.0
C1509 C 0.5966 0.00592 0.16951 0.0
C1510 C 0.54433 0.00621 0.12796 0.0
C1511 C 0.54752 0.02782 0.1168 0.0
C1512 C 0.57979 0.01305 0.15093 0.0
C1513 C 0.56683 0.04183 0.12344 0.0
C1514 C 0.61906 0.01682 0.17186 0.0
C1515 C 0.60285 0.98412 0.20475 0.0
N1516 N 0.5824 0.03413 0.14007 0.0
N1517 N 0.58947 0.98959 0.18568 0.0
H1518 H 0.76596 0.83707 0.95471 0.0
H1519 H 0.76546 0.8457 0.81175 0.0
H1520 H 0.7608 0.90202 0.91633 0.0
H1521 H 0.75308 0.78136 0.8497 0.0
H1522 H 0.76684 0.86632 0.84999 0.0
H1523 H 0.76492 0.81589 0.91652 0.0
C1524 C 0.7648 0.84689 0.93833 0.0
C1525 C 0.76338 0.87141 0.93888 0.0
C1526 C 0.7637 0.8477 0.84996 0.0
C1527 C 0.76219 0.84729 0.89507 0.0
C1528 C 0.76283 0.83592 0.82808 0.0
C1529 C 0.75896 0.81174 0.82737 0.0
C1530 C 0.761 0.83524 0.87143 0.0
C1531 C 0.75591 0.80002 0.84926 0.0
C1532 C 0.76406 0.83479 0.91653 0.0
C1533 C 0.76178 0.88314 0.91696 0.0
N1534 N 0.75712 0.81181 0.8703 0.0
N1535 N 0.76128 0.87104 0.8961 0.0
H1536 H 0.8233 0.97927 0.9818 0.0
H1537 H 0.94775 0.98764 0.05108 0.0
H1538 H 0.84331 0.93057 0.03658 0.0
H1539 H 0.9324 0.0271 0.98782 0.0
H1540 H 0.90828 0.96893 0.0485 0.0
H1541 H 0.8619 -0.00123 0.98592 0.0
C1542 C 0.83582 0.9726 -0.00528 0.0
C1543 C 0.82992 0.95315 0.00886 0.0
C1544 C 0.9135 0.98177 0.03526 0.0
C1545 C 0.87446 0.97573 0.01377 0.0
C1546 C 0.93599 0.99261 0.03679 0.0
C1547 C 0.94349 0.00905 0.01964 0.0
C1548 C 0.89822 0.98745 0.01652 0.0
C1549 C 0.92745 0.01459 0.00147 0.0
C1550 C 0.85794 0.98381 -0.00296 0.0
C1551 C 0.84705 0.94541 0.02523 0.0
N1552 N 0.90565 0.00382 0.00039 0.0
N1553 N 0.86849 0.95677 0.02729 0.0
H1554 H 0.33422 0.55258 0.00989 0.0
H1555 H 0.46261 0.57924 0.95967 0.0
H1556 H 0.35342 0.62163 0.98581 0.0
H1557 H 0.43288 0.5099 0.95924 0.0
H1558 H 0.42156 0.59549 0.96181 0.0
H1559 H 0.36917 0.53659 0.98735 0.0
C1560 C 0.34585 0.56437 -8e-05 0.0
C1561 C 0.3412 0.58848 7e-05 0.0
C1562 C 0.42398 0.57673 0.96048 0.0
C1563 C 0.38099 0.57033 0.97397 0.0
C1564 C 0.44747 0.56741 0.95902 0.0
C1565 C 0.45111 0.54317 0.9605 0.0
C1566 C 0.40432 0.56159 0.96365 0.0
C1567 C 0.43085 0.52873 0.95905 0.0
C1568 C 0.36556 0.55522 0.98674 0.0
C1569 C 0.35655 0.60293 0.98641 0.0
N1570 N 0.40823 0.53815 0.96162 0.0
N1571 N 0.37599 0.59367 0.97418 0.0
H1572 H 0.13777 0.6052 0.73591 0.0
H1573 H 0.24933 0.675 0.78466 0.0
H1574 H 0.18651 0.57664 0.78752 0.0
H1575 H 0.22029 0.6887 0.7156 0.0
H1576 H 0.2234 0.6408 0.78841 0.0
H1577 H 0.16488 0.63847 0.73052 0.0
C1578 C 0.1541 0.60597 0.74612 0.0
C1579 C 0.15994 0.58822 0.76218 0.0
C1580 C 0.22285 0.65119 0.77235 0.0
C1581 C 0.19072 0.62595 0.75619 0.0
C1582 C 0.23752 0.67065 0.77029 0.0
C1583 C 0.23684 0.68447 0.74982 0.0
C1584 C 0.20714 0.64584 0.75397 0.0
C1585 C 0.22142 0.67822 0.73154 0.0
C1586 C 0.16959 0.62482 0.74293 0.0
C1587 C 0.18137 0.58993 0.77488 0.0
N1588 N 0.20693 0.6594 0.73412 0.0
N1589 N 0.19593 0.60856 0.77171 0.0
H1590 H 0.17006 0.39326 0.51508 0.0
H1591 H 0.07645 0.49398 0.5571 0.0
H1592 H 0.19351 0.45649 0.54885 0.0
H1593 H 0.06429 0.44877 0.49716 0.0
H1594 H 0.11703 0.47621 0.56076 0.0
H1595 H 0.12863 0.40925 0.5149 0.0
C1596 C 0.16647 0.41044 0.52263 0.0
C1597 C 0.1853 0.42362 0.53188 0.0
C1598 C 0.10538 0.47016 0.5469 0.0
C1599 C 0.13788 0.44189 0.53194 0.0
C1600 C 0.08221 0.48017 0.54488 0.0
C1601 C 0.06703 0.4729 0.52673 0.0
C1602 C 0.11317 0.45243 0.53098 0.0
C1603 C 0.07546 0.45501 0.51132 0.0
C1604 C 0.14285 0.41957 0.52243 0.0
C1605 C 0.17956 0.44581 0.5414 0.0
N1606 N 0.0979 0.44534 0.51384 0.0
N1607 N 0.15633 0.45423 0.54126 0.0
H1608 H 0.8925 0.96455 0.69925 0.0
H1609 H 0.804 0.87596 0.76673 0.0
H1610 H 0.84734 0.98369 0.76058 0.0
H1611 H 0.82735 0.86679 0.6933 0.0
H1612 H 0.82592 0.91276 0.76786 0.0
H1613 H 0.8745 0.92567 0.69987 0.0
C1614 C 0.87893 0.96053 0.71291 0.0
C1615 C 0.87125 0.97737 0.72979 0.0
C1616 C 0.82628 0.90264 0.75152 0.0
C1617 C 0.85087 0.93314 0.73067 0.0
C1618 C 0.81394 0.88163 0.75092 0.0
C1619 C 0.81383 0.8685 0.72985 0.0
C1620 C 0.83879 0.91037 0.73097 0.0
C1621 C 0.82677 0.87666 0.70977 0.0
C1622 C 0.86864 0.93843 0.71319 0.0
C1623 C 0.85361 0.97129 0.7471 0.0
N1624 N 0.8388 0.89713 0.71081 0.0
N1625 N 0.84402 0.94962 0.74711 0.0
H1626 H 0.73461 0.08887 0.52317 0.0
H1627 H 0.59085 0.09038 0.51307 0.0
H1628 H 0.6936 0.15135 0.50705 0.0
H1629 H 0.62964 0.03846 0.55303 0.0
H1630 H 0.62894 0.11077 0.50531 0.0
H1631 H 0.69666 0.0678 0.52863 0.0
C1632 C 0.71761 0.09811 0.52063 0.0
C1633 C 0.71716 0.12189 0.51473 0.0
C1634 C 0.62909 0.09492 0.51578 0.0
C1635 C 0.67384 0.09792 0.52091 0.0
C1636 C 0.60745 0.08323 0.52007 0.0
C1637 C 0.60723 0.06274 0.53369 0.0
C1638 C 0.65065 0.08587 0.52492 0.0
C1639 C 0.62911 0.05433 0.54265 0.0
C1640 C 0.696 0.08611 0.52386 0.0
C1641 C 0.69467 0.13304 0.5117 0.0
N1642 N 0.65003 0.06589 0.53801 0.0
N1643 N 0.67383 0.12092 0.51479 0.0
H1644 H 0.15541 0.44161 0.82927 0.0
H1645 H 0.27886 0.37241 0.80055 0.0
H1646 H 0.21759 0.47189 0.79312 0.0
H1647 H 0.20921 0.34077 0.8142 0.0
H1648 H 0.26074 0.41063 0.81067 0.0
H1649 H 0.17973 0.4068 0.83735 0.0
C1650 C 0.1743 0.44109 0.82337 0.0
C1651 C 0.18436 0.45928 0.80987 0.0
C1652 C 0.2496 0.39522 0.81183 0.0
C1653 C 0.21209 0.41962 0.81896 0.0
C1654 C 0.25987 0.37348 0.80605 0.0
C1655 C 0.24528 0.35362 0.80603 0.0
C1656 C 0.22474 0.39687 0.81782 0.0
C1657 C 0.2209 0.3558 0.81348 0.0
C1658 C 0.18814 0.42125 0.82801 0.0
C1659 C 0.20903 0.45796 0.80313 0.0
N1660 N 0.21131 0.37713 0.81887 0.0
N1661 N 0.22201 0.43818 0.80736 0.0
H1662 H 0.36636 0.61068 0.30348 0.0
H1663 H 0.26961 0.70475 0.27249 0.0
H1664 H 0.31044 0.59824 0.25308 0.0
H1665 H 0.31533 0.70949 0.33335 0.0
H1666 H 0.27789 0.66284 0.27053 0.0
H1667 H 0.34245 0.6432 0.32011 0.0
C1668 C 0.34881 0.61465 0.29617 0.0
C1669 C 0.34054 0.60224 0.27656 0.0
C1670 C 0.28565 0.67293 0.28468 0.0
C1671 C 0.31328 0.63968 0.29512 0.0
C1672 C 0.28094 0.69689 0.2858 0.0
C1673 C 0.29244 0.7107 0.30265 0.0
C1674 C 0.30222 0.66289 0.30031 0.0
C1675 C 0.30657 0.69957 0.31969 0.0
C1676 C 0.33509 0.63314 0.30573 0.0
C1677 C 0.31753 0.60768 0.26802 0.0
N1678 N 0.31152 0.67637 0.31774 0.0
N1679 N 0.30491 0.62645 0.27698 0.0
H1680 H 0.50829 0.71828 0.58028 0.0
H1681 H 0.51023 0.578 0.59259 0.0
H1682 H 0.5264 0.68073 0.644 0.0
H1683 H 0.49448 0.61293 0.52678 0.0
H1684 H 0.51404 0.61603 0.61186 0.0
H1685 H 0.50158 0.68058 0.56034 0.0
C1686 C 0.51089 0.70223 0.59009 0.0
C1687 C 0.51801 0.7029 0.61393 0.0
C1688 C 0.50961 0.61546 0.59323 0.0
C1689 C 0.5102 0.65962 0.59123 0.0
C1690 C 0.5073 0.59365 0.58221 0.0
C1691 C 0.50197 0.59209 0.55797 0.0
C1692 C 0.50665 0.63612 0.58002 0.0
C1693 C 0.49855 0.61317 0.54551 0.0
C1694 C 0.50701 0.68069 0.5787 0.0
C1695 C 0.52099 0.68137 0.62565 0.0
N1696 N 0.50104 0.63423 0.55661 0.0
N1697 N 0.5171 0.66083 0.61426 0.0
H1698 H 0.64782 0.26292 0.91975 0.0
H1699 H 0.7194 0.30608 0.80279 0.0
H1700 H 0.61583 0.27678 0.85189 0.0
H1701 H 0.75519 0.28696 0.8674 0.0
H1702 H 0.68037 0.30289 0.8238 0.0
H1703 H 0.68662 0.27769 0.90366 0.0
C1704 C 0.64895 0.26912 0.90156 0.0
C1705 C 0.62875 0.26832 0.88702 0.0
C1706 C 0.69675 0.29962 0.8335 0.0
C1707 C 0.67257 0.28542 0.86874 0.0
C1708 C 0.71904 0.30152 0.8215 0.0
C1709 C 0.74047 0.29624 0.83323 0.0
C1710 C 0.69589 0.29208 0.85728 0.0
C1711 C 0.73901 0.29081 0.8576 0.0
C1712 C 0.67099 0.27762 0.89244 0.0
C1713 C 0.63103 0.27675 0.86366 0.0
N1714 N 0.717 0.28844 0.86876 0.0
N1715 N 0.65253 0.28483 0.85526 0.0
H1716 H 0.02057 0.36876 0.13196 0.0
H1717 H 0.97745 0.44387 0.02069 0.0
H1718 H 0.00527 0.33563 0.06513 0.0
H1719 H 0.022 0.47129 0.07576 0.0
H1720 H 0.98177 0.40464 0.03825 0.0
H1721 H 0.01538 0.40691 0.11334 0.0
C1722 C 0.01605 0.36946 0.11334 0.0
C1723 C 0.01343 0.34882 0.10013 0.0
C1724 C 0.99057 0.41929 0.04643 0.0
C1725 C 0.00714 0.39285 0.07862 0.0
C1726 C 0.98801 0.4417 0.0365 0.0
C1727 C -0.00061 0.461 0.04672 0.0
C1728 C 0.00417 0.4162 0.06701 0.0
C1729 C 0.01295 0.45703 0.06717 0.0
C1730 C 0.01315 0.39133 0.10269 0.0
C1731 C 0.00758 0.35103 0.076 0.0
N1732 N 0.0148 0.43524 0.07666 0.0
N1733 N 0.00448 0.37262 0.06606 0.0
H1734 H 0.97751 0.75734 0.39527 0.0
H1735 H 0.89423 0.75911 0.28231 0.0
H1736 H 0.00655 0.7402 0.32512 0.0
H1737 H 0.89026 0.81244 0.33658 0.0
H1738 H 0.92924 0.74134 0.30192 0.0
H1739 H 0.93793 0.76548 0.37804 0.0
C1740 C 0.97528 0.75438 0.3764 0.0
C1741 C -0.00481 0.74825 0.36147 0.0
C1742 C 0.92058 0.75686 0.30951 0.0
C1743 C 0.95046 0.7576 0.34191 0.0
C1744 C 0.90086 0.76701 0.29835 0.0
C1745 C 0.88986 0.78735 0.30779 0.0
C1746 C 0.92875 0.76685 0.33055 0.0
C1747 C 0.89871 0.79698 0.32867 0.0
C1748 C 0.95287 0.75932 0.36661 0.0
C1749 C 0.99155 0.74501 0.33711 0.0
N1750 N 0.91767 0.78654 0.33951 0.0
N1751 N 0.96956 0.74992 0.32798 0.0
H1752 H 0.50102 0.30013 0.95866 0.0
H1753 H 0.51918 0.42002 0.02769 0.0
H1754 H 0.56697 0.33981 0.9562 0.0
H1755 H 0.45167 0.40254 -0.00451 0.0
H1756 H 0.53584 0.38188 0.0157 0.0
H1757 H 0.48242 0.32969 0.98563 0.0
C1758 C 0.51173 0.31476 0.96428 0.0
C1759 C 0.53542 0.31782 0.9551 0.0
C1760 C 0.5172 0.38626 0.01175 0.0
C1761 C 0.51458 0.35104 0.986 0.0
C1762 C 0.50771 0.408 0.01847 0.0
C1763 C 0.48429 0.41476 0.01182 0.0
C1764 C 0.50308 0.37108 -0.00144 0.0
C1765 C 0.46991 0.39817 0.00068 0.0
C1766 C 0.50112 0.33155 0.97954 0.0
C1767 C 0.54856 0.33705 0.96272 0.0
N1768 N 0.4797 0.37715 0.99398 0.0
N1769 N 0.53792 0.35301 0.97771 0.0
H1770 H 0.94821 0.30699 0.1793 0.0
H1771 H 0.84063 0.24572 0.252 0.0
H1772 H 0.95408 0.23829 0.21015 0.0
H1773 H 0.84687 0.32076 0.25201 0.0
H1774 H 0.87966 0.24247 0.23071 0.0
H1775 H 0.9083 0.31217 0.19988 0.0
C1776 C 0.94102 0.29296 0.19018 0.0
C1777 C 0.95447 0.27219 0.19305 0.0
C1778 C 0.87257 0.25967 0.23541 0.0
C1779 C 0.90912 0.27794 0.21635 0.0
C1780 C 0.85026 0.26156 0.24755 0.0
C1781 C 0.84054 0.28355 0.2539 0.0
C1782 C 0.88524 0.27992 0.22912 0.0
C1783 C 0.85386 0.30346 0.24762 0.0
C1784 C 0.91842 0.29601 0.20204 0.0
C1785 C 0.94443 0.25464 0.20751 0.0
N1786 N 0.87554 0.30121 0.23538 0.0
N1787 N 0.92238 0.25787 0.21847 0.0
H1788 H 0.06142 0.6598 0.41617 0.0
H1789 H 0.03447 0.58057 0.5303 0.0
H1790 H 0.05276 0.68763 0.48747 0.0
H1791 H 0.04003 0.55435 0.45814 0.0
H1792 H 0.0463 0.6191 0.51584 0.0
H1793 H 0.05843 0.62046 0.43211 0.0
C1794 C 0.05897 0.65763 0.43523 0.0
C1795 C 0.05707 0.67703 0.45051 0.0
C1796 C 0.04517 0.60485 0.50323 0.0
C1797 C 0.05359 0.63192 0.46892 0.0
C1798 C 0.0385 0.58282 0.51146 0.0
C1799 C 0.036 0.56428 0.49535 0.0
C1800 C 0.04934 0.60832 0.47873 0.0
C1801 C 0.04152 0.56819 0.47117 0.0
C1802 C 0.0573 0.63512 0.44433 0.0
C1803 C 0.05414 0.67314 0.47506 0.0
N1804 N 0.04772 0.58982 0.46359 0.0
N1805 N 0.0523 0.65099 0.48351 0.0
H1806 H 0.61807 0.79557 0.64303 0.0
H1807 H 0.6817 0.75584 0.7628 0.0
H1808 H 0.57692 0.77216 0.70473 0.0
H1809 H 0.71362 0.80541 0.71381 0.0
H1810 H 0.6444 0.75703 0.73982 0.0
H1811 H 0.655 0.79424 0.66651 0.0
C1812 C 0.61683 0.79003 0.66144 0.0
C1813 C 0.59436 0.78406 0.67193 0.0
C1814 C 0.65957 0.76773 0.73425 0.0
C1815 C 0.63651 0.7823 0.69883 0.0
C1816 C 0.68082 0.7671 0.74738 0.0
C1817 C 0.7008 0.78068 0.7404 0.0
C1818 C 0.65846 0.78164 0.71369 0.0
C1819 C 0.69865 0.79479 0.72007 0.0
C1820 C 0.63786 0.78938 0.67487 0.0
C1821 C 0.59382 0.77705 0.69593 0.0
N1822 N 0.67802 0.79474 0.70737 0.0
N1823 N 0.61455 0.77625 0.7085 0.0
H1824 H 0.66086 0.4973 0.68884 0.0
H1825 H 0.53088 0.46674 0.63885 0.0
H1826 H 0.6091 0.45211 0.72391 0.0
H1827 H 0.58308 0.50834 0.59971 0.0
H1828 H 0.56056 0.45999 0.66926 0.0
H1829 H 0.63428 0.49978 0.65464 0.0
C1830 C 0.64413 0.4876 0.68916 0.0
C1831 C 0.637 0.47469 0.7093 0.0
C1832 C 0.56561 0.47056 0.654 0.0
C1833 C 0.60652 0.47766 0.67059 0.0
C1834 C 0.54863 0.47438 0.63656 0.0
C1835 C 0.55443 0.48813 0.61664 0.0
C1836 C 0.58862 0.48065 0.65167 0.0
C1837 C 0.57766 0.4979 0.61491 0.0
C1838 C 0.62891 0.48913 0.66973 0.0
C1839 C 0.61516 0.46248 0.70885 0.0
N1840 N 0.59392 0.494 0.63224 0.0
N1841 N 0.60062 0.46443 0.68992 0.0
H1842 H 0.7283 0.32688 0.00079 0.0
H1843 H 0.82091 0.33732 0.8929 0.0
H1844 H 0.72091 0.37821 0.94524 0.0
H1845 H 0.80159 0.26863 0.91752 0.0
H1846 H 0.7891 0.35416 0.91915 0.0
H1847 H 0.75762 0.30517 0.97516 0.0
C1848 C 0.73227 0.3332 0.98296 0.0
C1849 C 0.7224 0.35455 0.97523 0.0
C1850 C 0.79203 0.33541 0.919 0.0
C1851 C 0.75639 0.33042 0.94654 0.0
C1852 C 0.81037 0.32587 0.90437 0.0
C1853 C 0.81371 0.3016 0.90293 0.0
C1854 C 0.77717 0.32059 0.93262 0.0
C1855 C 0.79967 0.28744 0.91821 0.0
C1856 C 0.74911 0.32092 0.96851 0.0
C1857 C 0.72812 0.36192 0.95199 0.0
N1858 N 0.78178 0.29716 0.9324 0.0
N1859 N 0.74523 0.35017 0.93868 0.0
H1860 H 0.93857 0.59905 0.18607 0.0
H1861 H 0.92295 0.53044 0.06562 0.0
H1862 H 0.88625 0.54468 0.17719 0.0
H1863 H 0.98208 0.57563 0.08246 0.0
H1864 H 0.90041 0.54504 0.10116 0.0
H1865 H 0.94409 0.60138 0.14296 0.0
C1866 C 0.92788 0.58795 0.1749 0.0
C1867 C 0.91253 0.57119 0.18493 0.0
C1868 C 0.91811 0.55205 0.09673 0.0
C1869 C 0.91933 0.57308 0.13592 0.0
C1870 C 0.93097 0.54368 0.07661 0.0
C1871 C 0.95462 0.55136 0.07174 0.0
C1872 C 0.92905 0.56829 0.11168 0.0
C1873 C 0.96416 0.56875 0.08612 0.0
C1874 C 0.93101 0.58925 0.15035 0.0
C1875 C 0.8986 0.55755 0.16993 0.0
N1876 N 0.95143 0.57645 0.10559 0.0
N1877 N 0.90287 0.55828 0.14602 0.0
H1878 H 0.78056 0.72408 0.46445 0.0
H1879 H 0.7495 0.72721 0.32681 0.0
H1880 H 0.75612 0.66396 0.42595 0.0
H1881 H 0.80441 0.77195 0.35447 0.0
H1882 H 0.74654 0.70748 0.3652 0.0
H1883 H 0.78466 0.74534 0.42646 0.0
C1884 C 0.77602 0.71537 0.44807 0.0
C1885 C 0.76801 0.69216 0.44842 0.0
C1886 C 0.75923 0.72163 0.36293 0.0
C1887 C 0.7723 0.71647 0.40506 0.0
C1888 C 0.76087 0.73302 0.34101 0.0
C1889 C 0.77725 0.75133 0.33732 0.0
C1890 C 0.77374 0.72874 0.38166 0.0
C1891 C 0.79158 0.7579 0.35648 0.0
C1892 C 0.77846 0.72748 0.42642 0.0
C1893 C 0.76245 0.68176 0.4266 0.0
N1894 N 0.78938 0.74673 0.37789 0.0
N1895 N 0.76449 0.69401 0.40594 0.0
H1896 H 0.57325 0.46772 0.83027 0.0
H1897 H 0.5776 0.5181 0.95755 0.0
H1898 H 0.64148 0.48619 0.8604 0.0
H1899 H 0.52314 0.4682 0.9395 0.0
H1900 H 0.60214 0.50538 0.92287 0.0
H1901 H 0.55498 0.46589 0.87036 0.0
C1902 C 0.58447 0.471 0.84541 0.0
C1903 C 0.60877 0.47744 0.84213 0.0
C1904 C 0.58505 0.49688 0.92674 0.0
C1905 C 0.58794 0.4758 0.88784 0.0
C1906 C 0.57097 0.50424 0.9464 0.0
C1907 C 0.54819 0.49441 0.95106 0.0
C1908 C 0.57595 0.48002 0.91133 0.0
C1909 C 0.54055 0.47631 0.93633 0.0
C1910 C 0.57408 0.46983 0.86826 0.0
C1911 C 0.62262 0.48128 0.86225 0.0
N1912 N 0.55419 0.47003 0.91673 0.0
N1913 N 0.61184 0.48095 0.88432 0.0
H1914 H 0.75107 0.39819 0.12743 0.0
H1915 H 0.7427 0.28356 0.20791 0.0
H1916 H 0.72749 0.33127 0.10185 0.0
H1917 H 0.76137 0.35148 0.23499 0.0
H1918 H 0.73741 0.30073 0.16872 0.0
H1919 H 0.75657 0.38105 0.16671 0.0
C1920 C 0.74728 0.37985 0.13003 0.0
C1921 C 0.73874 0.36612 0.11145 0.0
C1922 C 0.74254 0.3119 0.18327 0.0
C1923 C 0.7447 0.34653 0.15623 0.0
C1924 C 0.74544 0.30213 0.20566 0.0
C1925 C 0.75249 0.31613 0.22469 0.0
C1926 C 0.74681 0.33579 0.1799 0.0
C1927 C 0.75587 0.34006 0.22079 0.0
C1928 C 0.75027 0.37011 0.15246 0.0
C1929 C 0.73404 0.34248 0.11574 0.0
N1930 N 0.75311 0.34914 0.19876 0.0
N1931 N 0.73701 0.33344 0.13774 0.0
H1932 H 0.00944 0.49942 0.27678 0.0
H1933 H 0.02533 0.53268 0.41258 0.0
H1934 H 0.98771 0.56551 0.3085 0.0
H1935 H 0.01797 0.46245 0.38558 0.0
H1936 H 0.02745 0.54698 0.37178 0.0
H1937 H 0.02946 0.4889 0.31359 0.0
C1938 C 0.00959 0.51204 0.29118 0.0
C1939 C -0.00364 0.53308 0.28996 0.0
C1940 C 0.0258 0.52839 0.37489 0.0
C1941 C 0.01901 0.52114 0.33182 0.0
C1942 C 0.02425 0.5202 0.39817 0.0
C1943 C 0.02056 0.49635 0.40262 0.0
C1944 C 0.0238 0.51265 0.35594 0.0
C1945 C 0.02046 0.48098 0.38311 0.0
C1946 C 0.02089 0.50596 0.31218 0.0
C1947 C -0.00276 0.54886 0.30902 0.0
N1948 N 0.02166 0.48945 0.36059 0.0
N1949 N 0.008 0.54239 0.3294 0.0
H1950 H 0.77451 0.70546 0.58041 0.0
H1951 H 0.76706 0.70072 0.72358 0.0
H1952 H 0.7574 0.6437 0.62108 0.0
H1953 H 0.78584 0.76293 0.68442 0.0
H1954 H 0.76504 0.67939 0.68594 0.0
H1955 H 0.7799 0.72677 0.6179 0.0
C1956 C 0.77191 0.69635 0.59713 0.0
C1957 C 0.76541 0.67269 0.59742 0.0
C1958 C 0.76977 0.69767 0.68554 0.0
C1959 C 0.77161 0.69701 0.6405 0.0
C1960 C 0.77102 0.70986 0.7071 0.0
C1961 C 0.77667 0.7337 0.70729 0.0
C1962 C 0.77407 0.70933 0.66383 0.0
C1963 C 0.78147 0.74457 0.68523 0.0
C1964 C 0.77501 0.70853 0.61856 0.0
C1965 C 0.76235 0.66188 0.61977 0.0
N1966 N 0.77995 0.73237 0.66445 0.0
N1967 N 0.76542 0.67408 0.64025 0.0
H1968 H 0.66553 0.64595 0.50546 0.0
H1969 H 0.5943 0.53076 0.54278 0.0
H1970 H 0.70333 0.58359 0.5276 0.0
H1971 H 0.568 0.57935 0.49058 0.0
H1972 H 0.63292 0.55183 0.54273 0.0
H1973 H 0.62754 0.62403 0.50578 0.0
C1974 C 0.6658 0.62771 0.51053 0.0
C1975 C 0.68762 0.61656 0.51639 0.0
C1976 C 0.61868 0.55771 0.5312 0.0
C1977 C 0.64428 0.59147 0.51703 0.0
C1978 C 0.5967 0.54568 0.53118 0.0
C1979 C 0.57793 0.55315 0.51652 0.0
C1980 C 0.62165 0.57765 0.51691 0.0
C1981 C 0.58199 0.57278 0.50201 0.0
C1982 C 0.64418 0.61519 0.51059 0.0
C1983 C 0.68693 0.59284 0.52279 0.0
N1984 N 0.60325 0.58444 0.50275 0.0
N1985 N 0.66561 0.58112 0.52307 0.0
H1986 H 0.12993 0.88524 0.55172 0.0
H1987 H 0.05357 -0.00077 0.57672 0.0
H1988 H 0.15551 0.9479 0.58494 0.0
H1989 H 0.02676 0.93919 0.53971 0.0
H1990 H 0.08533 0.97477 0.59327 0.0
H1991 H 0.088 0.89876 0.55965 0.0
C1992 C 0.12666 0.90157 0.56114 0.0
C1993 C 0.14597 0.91597 0.56692 0.0
C1994 C 0.07222 0.96675 0.58195 0.0
C1995 C 0.09856 0.93137 0.57615 0.0
C1996 C 0.05411 0.98075 0.57252 0.0
C1997 C 0.0382 0.9713 0.55624 0.0
C1998 C 0.07486 0.94343 0.5743 0.0
C1999 C 0.03914 0.94719 0.55182 0.0
C2000 C 0.10281 0.90925 0.56573 0.0
C2001 C 0.14099 0.93672 0.57946 0.0
N2002 N 0.05775 0.93414 0.56021 0.0
N2003 N 0.11776 0.94398 0.58332 0.0
H2004 H 0.32559 -0.0007 0.75777 0.0
H2005 H 0.34478 0.86546 0.79249 0.0
H2006 H 0.38676 0.95678 0.73329 0.0
H2007 H 0.282 0.90619 0.81531 0.0
H2008 H 0.36089 0.89939 0.77158 0.0
H2009 H 0.30849 0.96536 0.77786 0.0
C2010 C 0.33522 0.98272 0.75624 0.0
C2011 C 0.3578 0.98092 0.74405 0.0
C2012 C 0.34368 0.90107 0.7813 0.0
C2013 C 0.33854 0.94219 0.7674 0.0
C2014 C 0.33465 0.88181 0.79338 0.0
C2015 C 0.31211 0.8832 0.80551 0.0
C2016 C 0.33 0.9219 0.78128 0.0
C2017 C 0.29957 0.90462 0.80629 0.0
C2018 C 0.32553 0.96341 0.7679 0.0
C2019 C 0.36936 0.95899 0.74253 0.0
N2020 N 0.3086 0.92318 0.79409 0.0
N2021 N 0.35972 0.94053 0.75434 0.0
H2022 H 0.33022 0.08758 0.06257 0.0
H2023 H 0.43788 0.04199 0.97661 0.0
H2024 H 0.33575 0.11166 0.98997 0.0
H2025 H 0.44326 0.0482 0.05285 0.0
H2026 H 0.39872 0.06343 0.97938 0.0
H2027 H 0.36999 0.06893 0.05773 0.0
C2028 C 0.3399 0.08903 0.04559 0.0
C2029 C 0.32967 0.10124 0.02666 0.0
C2030 C 0.40863 0.06012 -0.00459 0.0
C2031 C 0.37531 0.07948 0.02085 0.0
C2032 C 0.43084 0.04777 0.99387 0.0
C2033 C 0.44384 0.04322 0.01454 0.0
C2034 C 0.39929 0.0675 0.01779 0.0
C2035 C 0.43395 0.05127 0.03643 0.0
C2036 C 0.36266 0.07839 0.04285 0.0
C2037 C 0.34311 0.10256 0.00506 0.0
N2038 N 0.41229 0.06281 0.03747 0.0
N2039 N 0.36521 0.09156 0.00262 0.0
H2040 H 0.69634 0.55466 0.80886 0.0
H2041 H 0.69616 0.69004 0.7766 0.0
H2042 H 0.64227 0.58631 0.76466 0.0
H2043 H 0.74252 0.65815 0.82824 0.0
H2044 H 0.67551 0.6528 0.77215 0.0
H2045 H 0.71272 0.59296 0.81645 0.0
C2046 C 0.68786 0.56971 0.80074 0.0
C2047 C 0.66801 0.56725 0.78592 0.0
C2048 C 0.69008 0.65404 0.78458 0.0
C2049 C 0.68682 0.61138 0.79456 0.0
C2050 C 0.70198 0.67523 0.78701 0.0
C2051 C 0.72123 0.67716 0.8027 0.0
C2052 C 0.69761 0.63465 0.79781 0.0
C2053 C 0.7277 0.65754 0.81608 0.0
C2054 C 0.6972 0.59164 0.80517 0.0
C2055 C 0.65763 0.58744 0.77615 0.0
N2056 N 0.71604 0.63709 0.8132 0.0
N2057 N 0.66732 0.60871 0.78048 0.0
H2058 H 0.76846 0.45941 0.97287 0.0
H2059 H 0.89467 0.49192 0.02684 0.0
H2060 H 0.79174 0.43441 0.04108 0.0
H2061 H 0.88404 0.49088 0.95087 0.0
H2062 H 0.855 0.47513 0.03315 0.0
H2063 H 0.80887 0.47545 0.96532 0.0
C2064 C 0.78205 0.45734 0.98627 0.0
C2065 C 0.77678 0.44563 0.00767 0.0
C2066 C 0.86144 0.47848 0.01509 0.0
C2067 C 0.82273 0.46397 -0.00082 0.0
C2068 C 0.88426 0.48799 0.01138 0.0
C2069 C 0.89308 0.49267 0.98817 0.0
C2070 C 0.84705 0.47388 -0.00444 0.0
C2071 C 0.87807 0.48775 0.96906 0.0
C2072 C 0.80508 0.46638 0.98188 0.0
C2073 C 0.79506 0.44329 0.02434 0.0
N2074 N 0.85571 0.47867 0.97319 0.0
N2075 N 0.81722 0.45253 0.0198 0.0
H2076 H 0.37623 0.13299 0.78923 0.0
H2077 H 0.26088 0.21297 0.76199 0.0
H2078 H 0.30926 0.10499 0.76409 0.0
H2079 H 0.33357 0.23854 0.77013 0.0
H2080 H 0.27631 0.17311 0.76704 0.0
H2081 H 0.35778 0.17188 0.78964 0.0
C2082 C 0.35747 0.13496 0.7843 0.0
C2083 C 0.34439 0.11589 0.77613 0.0
C2084 C 0.28884 0.18749 0.76755 0.0
C2085 C 0.32344 0.16024 0.77601 0.0
C2086 C 0.28013 0.21018 0.7644 0.0
C2087 C 0.29598 0.22906 0.76568 0.0
C2088 C 0.31347 0.18382 0.77214 0.0
C2089 C 0.3207 0.2245 0.76901 0.0
C2090 C 0.34704 0.15718 0.78428 0.0
C2091 C 0.32006 0.11934 0.7702 0.0
N2092 N 0.32865 0.20233 0.77232 0.0
N2093 N 0.31043 0.14125 0.76989 0.0
H2094 H 0.24475 0.96175 0.25681 0.0
H2095 H 0.29347 0.84962 0.24504 0.0
H2096 H 0.21432 0.92777 0.31905 0.0
H2097 H 0.30374 0.85371 0.32079 0.0
H2098 H 0.2773 0.88965 0.24597 0.0
H2099 H 0.27787 0.9325 0.25538 0.0
C2100 C 0.24536 0.94843 0.27044 0.0
C2101 C 0.22669 0.9468 0.28787 0.0
C2102 C 0.28398 0.88207 0.2622 0.0
C2103 C 0.26432 0.9139 0.2865 0.0
C2104 C 0.29311 0.85924 0.26169 0.0
C2105 C 0.29965 0.84832 0.28291 0.0
C2106 C 0.28083 0.89364 0.28416 0.0
C2107 C 0.29878 0.86147 0.30404 0.0
C2108 C 0.26413 0.93181 0.26954 0.0
C2109 C 0.22822 0.92932 0.30513 0.0
N2110 N 0.28868 0.88322 0.30429 0.0
N2111 N 0.24672 0.91346 0.30398 0.0
H2112 H 0.5122 0.38159 0.39312 0.0
H2113 H 0.52254 0.44871 0.5178 0.0
H2114 H 0.51614 0.34491 0.4599 0.0
H2115 H 0.51183 0.48301 0.45058 0.0
H2116 H 0.52144 0.41078 0.49751 0.0
H2117 H 0.51262 0.41853 0.41438 0.0
C2118 C 0.51308 0.38122 0.41235 0.0
C2119 C 0.51424 0.35986 0.42464 0.0
C2120 C 0.5194 0.42659 0.48719 0.0
C2121 C 0.51487 0.40281 0.44939 0.0
C2122 C 0.52016 0.44833 0.49874 0.0
C2123 C 0.51739 0.46926 0.48591 0.0
C2124 C 0.51591 0.42561 0.46255 0.0
C2125 C 0.51416 0.46748 0.46126 0.0
C2126 C 0.51332 0.40249 0.42452 0.0
C2127 C 0.51515 0.36084 0.44963 0.0
N2128 N 0.51352 0.44614 0.45047 0.0
N2129 N 0.5156 0.38193 0.46116 0.0
H2130 H 0.44175 0.75771 0.15535 0.0
H2131 H 0.3825 0.75961 0.28502 0.0
H2132 H 0.47934 0.73272 0.21686 0.0
H2133 H 0.34058 0.76501 0.22146 0.0
H2134 H 0.41807 0.74836 0.26029 0.0
H2135 H 0.40383 0.75796 0.17882 0.0
C2136 C 0.44195 0.75185 0.17366 0.0
C2137 C 0.46377 0.74561 0.1843 0.0
C2138 C 0.40101 0.75182 0.25182 0.0
C2139 C 0.42064 0.7463 0.21134 0.0
C2140 C 0.3808 0.75844 0.26589 0.0
C2141 C 0.3587 0.76355 0.25523 0.0
C2142 C 0.39906 0.75057 0.22697 0.0
C2143 C 0.35735 0.76145 0.23041 0.0
C2144 C 0.42031 0.75203 0.18707 0.0
C2145 C 0.46295 0.73791 0.20801 0.0
N2146 N 0.37733 0.75533 0.21709 0.0
N2147 N 0.44178 0.73893 0.22091 0.0
H2148 H 0.98604 0.6899 0.90926 0.0
H2149 H 0.02339 0.60538 0.01571 0.0
H2150 H 0.0218 0.71454 0.97158 0.0
H2151 H 0.97096 0.58632 0.96384 0.0
H2152 H 0.0249 0.64463 -0.00133 0.0
H2153 H 0.9821 0.65142 0.92775 0.0
C2154 C 0.993 0.68728 0.92689 0.0
C2155 C 0.00428 0.70562 0.93884 0.0
C2156 C 0.01298 0.63192 0.99106 0.0
C2157 C 4e-05 0.66122 0.9601 0.0
C2158 C 0.01213 0.60942 0.00075 0.0
C2159 C -0.00302 0.59237 0.99125 0.0
C2160 C -0.00115 0.63756 0.97142 0.0
C2161 C 0.98284 0.59881 0.97184 0.0
C2162 C 0.9907 0.66525 0.93746 0.0
C2163 C 0.0129 0.70103 0.96169 0.0
N2164 N 0.98424 0.62077 0.9625 0.0
N2165 N 0.01078 0.67931 0.97146 0.0
H2166 H 0.10372 0.28828 0.62904 0.0
H2167 H 0.16252 0.31946 0.75308 0.0
H2168 H 0.06996 0.33649 0.67944 0.0
H2169 H 0.17091 0.25265 0.71809 0.0
H2170 H 0.1361 0.33262 0.72113 0.0
H2171 H 0.13762 0.28308 0.65589 0.0
C2172 C 0.10399 0.29853 0.64527 0.0
C2173 C 0.08413 0.31278 0.6522 0.0
C2174 C 0.14378 0.3151 0.72049 0.0
C2175 C 0.12225 0.30657 0.68294 0.0
C2176 C 0.15862 0.30759 0.73869 0.0
C2177 C 0.16839 0.28487 0.73829 0.0
C2178 C 0.13922 0.2999 0.70158 0.0
C2179 C 0.1632 0.27011 0.71923 0.0
C2180 C 0.12308 0.29527 0.66071 0.0
C2181 C 0.08504 0.32534 0.6736 0.0
N2182 N 0.14898 0.27792 0.70153 0.0
N2183 N 0.10369 0.32175 0.68842 0.0
H2184 H 0.57207 0.69618 0.1158 0.0
H2185 H 0.54043 0.64699 0.98747 0.0
H2186 H 0.53287 0.73566 0.06358 0.0
H2187 H 0.56487 0.6041 0.04524 0.0
H2188 H 0.54629 0.68177 0.0119 0.0
H2189 H 0.578 0.66462 0.08687 0.0
C2190 C 0.56492 0.69835 0.09818 0.0
C2191 C 0.55157 0.71845 0.09224 0.0
C2192 C 0.55065 0.66476 0.01911 0.0
C2193 C 0.55832 0.68235 0.05909 0.0
C2194 C 0.54747 0.64494 0.00512 0.0
C2195 C 0.55185 0.62266 0.01452 0.0
C2196 C 0.55836 0.66223 0.04257 0.0
C2197 C 0.5608 0.62096 0.03756 0.0
C2198 C 0.56831 0.68029 0.08169 0.0
C2199 C 0.54297 0.72034 0.06905 0.0
N2200 N 0.56357 0.64048 0.05089 0.0
N2201 N 0.54629 0.7024 0.05338 0.0
H2202 H 0.08035 0.75646 0.83604 0.0
H2203 H 0.21443 0.80695 0.84242 0.0
H2204 H 0.10764 0.78713 0.89999 0.0
H2205 H 0.1946 0.75493 0.79106 0.0
H2206 H 0.17406 0.80373 0.86164 0.0
H2207 H 0.12085 0.75931 0.81723 0.0
C2208 C 0.09486 0.76374 0.84615 0.0
C2209 C 0.09058 0.77152 0.86963 0.0
C2210 C 0.17858 0.79304 0.84617 0.0
C2211 C 0.13697 0.77514 0.84808 0.0
C2212 C 0.20157 0.79495 0.83511 0.0
C2213 C 0.20794 0.7812 0.81507 0.0
C2214 C 0.16167 0.77753 0.83693 0.0
C2215 C 0.19053 0.76585 0.80648 0.0
C2216 C 0.11799 0.76534 0.83541 0.0
C2217 C 0.11013 0.78082 0.88186 0.0
N2218 N 0.1682 0.76453 0.81736 0.0
N2219 N 0.13241 0.78253 0.8709 0.0
H2220 H 0.98646 0.32515 0.55162 0.0
H2221 H 0.95929 0.45902 0.57016 0.0
H2222 H 0.96124 0.35576 0.61833 0.0
H2223 H 0.97751 0.42774 0.50181 0.0
H2224 H 0.95056 0.42036 0.58601 0.0
H2225 H 0.974 0.36069 0.53116 0.0
C2226 C 0.97783 0.33916 0.5619 0.0
C2227 C 0.97549 0.33779 0.58678 0.0
C2228 C 0.956 0.42195 0.56741 0.0
C2229 C 0.96152 0.37858 0.56357 0.0
C2230 C 0.96102 0.44404 0.55836 0.0
C2231 C 0.96974 0.44649 0.53482 0.0
C2232 C 0.96016 0.40217 0.55292 0.0
C2233 C 0.97123 0.42658 0.52021 0.0
C2234 C 0.97072 0.35947 0.55021 0.0
C2235 C 0.96386 0.35629 0.59917 0.0
N2236 N 0.96703 0.40516 0.52965 0.0
N2237 N 0.95777 0.37613 0.58749 0.0
H2238 H 0.45578 0.30923 0.31366 0.0
H2239 H 0.32734 0.24505 0.31851 0.0
H2240 H 0.43608 0.26037 0.36909 0.0
H2241 H 0.34691 0.29952 0.26894 0.0
H2242 H 0.36767 0.24777 0.33572 0.0
H2243 H 0.41674 0.30343 0.29586 0.0
C2244 C 0.44326 0.29722 0.32217 0.0
C2245 C 0.44938 0.28533 0.34306 0.0
C2246 C 0.36315 0.259 0.32099 0.0
C2247 C 0.40411 0.27854 0.32245 0.0
C2248 C 0.34018 0.25738 0.31105 0.0
C2249 C 0.33366 0.27207 0.2922 0.0
C2250 C 0.37979 0.27538 0.31195 0.0
C2251 C 0.35102 0.28783 0.28342 0.0
C2252 C 0.42084 0.29392 0.31191 0.0
C2253 C 0.4322 0.26998 0.35306 0.0
N2254 N 0.37315 0.28907 0.29337 0.0
N2255 N 0.41034 0.26704 0.34268 0.0
H2256 H 0.42984 0.5805 0.30304 0.0
H2257 H 0.49959 0.52579 0.41141 0.0
H2258 H 0.47942 0.52198 0.29341 0.0
H2259 H 0.47222 0.59671 0.41092 0.0
H2260 H 0.49 0.52208 0.36919 0.0
H2261 H 0.44316 0.58508 0.34366 0.0
C2262 C 0.44367 0.56867 0.30948 0.0
C2263 C 0.45352 0.55077 0.29492 0.0
C2264 C 0.48625 0.53846 0.37835 0.0
C2265 C 0.46864 0.55577 0.34153 0.0
C2266 C 0.49146 0.54051 0.40242 0.0
C2267 C 0.48657 0.56157 0.4146 0.0
C2268 C 0.47574 0.55751 0.3666 0.0
C2269 C 0.4764 0.58025 0.40211 0.0
C2270 C 0.45131 0.57134 0.33265 0.0
C2271 C 0.47148 0.53604 0.3041 0.0
N2272 N 0.47116 0.57773 0.37883 0.0
N2273 N 0.47831 0.53869 0.32702 0.0
H2274 H 0.28468 0.64139 0.1184 0.0
H2275 H 0.26127 0.77179 0.16572 0.0
H2276 H 0.2863 0.70178 0.07252 0.0
H2277 H 0.27152 0.71254 0.21172 0.0
H2278 H 0.26882 0.7463 0.13109 0.0
H2279 H 0.27972 0.66724 0.15282 0.0
C2280 C 0.2843 0.6601 0.11557 0.0
C2281 C 0.28579 0.66941 0.09251 0.0
C2282 C 0.26942 0.73889 0.14878 0.0
C2283 C 0.27969 0.69911 0.13185 0.0
C2284 C 0.26485 0.75339 0.16849 0.0
C2285 C 0.26583 0.74424 0.19157 0.0
C2286 C 0.2748 0.7151 0.15223 0.0
C2287 C 0.27089 0.72032 0.19422 0.0
C2288 C 0.28137 0.67485 0.13524 0.0
C2289 C 0.28522 0.69381 0.08996 0.0
N2290 N 0.27516 0.70658 0.17481 0.0
N2291 N 0.28197 0.70781 0.10938 0.0
H2292 H 0.12127 0.52854 0.86119 0.0
H2293 H 0.00854 0.49382 0.94315 0.0
H2294 H 0.04678 0.53447 0.83997 0.0
H2295 H 0.07087 0.52572 0.97407 0.0
H2296 H 0.02744 0.49839 0.9038 0.0
H2297 H 0.10691 0.51996 0.90198 0.0
C2298 C 0.10193 0.52831 0.8652 0.0
C2299 C 0.08511 0.5322 0.84729 0.0
C2300 C 0.03708 0.5041 0.91925 0.0
C2301 C 0.06889 0.5217 0.89323 0.0
C2302 C 0.02646 0.50132 0.94171 0.0
C2303 C 0.03797 0.50987 0.96181 0.0
C2304 C 0.05943 0.51529 0.91693 0.0
C2305 C 0.06132 0.5191 0.95895 0.0
C2306 C 0.09384 0.52333 0.88834 0.0
C2307 C 0.06031 0.53172 0.85329 0.0
N2308 N 0.07126 0.52188 0.93673 0.0
N2309 N 0.05292 0.52623 0.87576 0.0
H2310 H 0.25097 0.33061 0.58732 0.0
H2311 H 0.30485 0.33926 0.71812 0.0
H2312 H 0.29265 0.38915 0.6106 0.0
H2313 H 0.24289 0.29732 0.70243 0.0
H2314 H 0.30521 0.35392 0.67711 0.0
H2315 H 0.25262 0.31419 0.62762 0.0
C2316 C 0.2607 0.33989 0.6008 0.0
C2317 C 0.27166 0.36134 0.59551 0.0
C2318 C 0.29157 0.34148 0.68265 0.0
C2319 C 0.27369 0.34257 0.64171 0.0
C2320 C 0.29138 0.33305 0.70606 0.0
C2321 C 0.27377 0.31706 0.71385 0.0
C2322 C 0.27427 0.33361 0.66667 0.0
C2323 C 0.25675 0.3097 0.69731 0.0
C2324 C 0.2615 0.33057 0.62385 0.0
C2325 C 0.28387 0.37262 0.61383 0.0
N2326 N 0.25749 0.31793 0.67455 0.0
N2327 N 0.28461 0.3631 0.636 0.0
H2328 H 0.37603 0.55725 0.15236 0.0
H2329 H 0.48716 0.57874 0.06118 0.0
H2330 H 0.44434 0.58591 0.17296 0.0
H2331 H 0.43334 0.52572 0.0517 0.0
H2332 H 0.46553 0.59143 0.09778 0.0
H2333 H 0.39112 0.5559 0.11098 0.0
C2334 C 0.39402 0.56366 0.14812 0.0
C2335 C 0.40913 0.57134 0.16612 0.0
C2336 C 0.45832 0.57726 0.08745 0.0
C2337 C 0.42634 0.56993 0.11899 0.0
C2338 C 0.47056 0.57006 0.06657 0.0
C2339 C 0.46218 0.55092 0.05367 0.0
C2340 C 0.43744 0.56543 0.0952 0.0
C2341 C 0.44058 0.54032 0.06138 0.0
C2342 C 0.40261 0.56281 0.12455 0.0
C2343 C 0.43224 0.57955 0.15963 0.0
N2344 N 0.42901 0.54763 0.08177 0.0
N2345 N 0.44025 0.57844 0.13656 0.0
H2346 H 0.29377 0.65289 0.92557 0.0
H2347 H 0.30452 0.77665 0.86193 0.0
H2348 H 0.29412 0.71867 0.96338 0.0
H2349 H 0.29147 0.71204 0.82481 0.0
H2350 H 0.30894 0.75479 0.89874 0.0
H2351 H 0.30057 0.67363 0.88824 0.0
C2352 C 0.29537 0.67172 0.92603 0.0
C2353 C 0.29303 0.68415 0.94754 0.0
C2354 C 0.30538 0.74538 0.88249 0.0
C2355 C 0.30089 0.70794 0.9049 0.0
C2356 C 0.30292 0.75782 0.86144 0.0
C2357 C 0.29722 0.74615 0.84037 0.0
C2358 C 0.30211 0.72114 0.88242 0.0
C2359 C 0.29559 0.72175 0.84073 0.0
C2360 C 0.2993 0.68352 0.90471 0.0
C2361 C 0.29554 0.70847 0.94713 0.0
N2362 N 0.29775 0.71005 0.86153 0.0
N2363 N 0.29917 0.71962 0.92607 0.0
H2364 H 0.1291 0.50673 0.69397 0.0
H2365 H -0.00551 0.51093 0.64516 0.0
H2366 H 0.06508 0.49112 0.7368 0.0
H2367 H 0.05668 0.53828 0.60656 0.0
H2368 H 0.02038 0.50143 0.67821 0.0
H2369 H 0.10332 0.51429 0.66004 0.0
C2370 C 0.10968 0.50448 0.69609 0.0
C2371 C 0.09912 0.4985 0.71819 0.0
C2372 C 0.02834 0.50962 0.66255 0.0
C2373 C 0.06965 0.50745 0.67981 0.0
C2374 C 0.0135 0.51533 0.64377 0.0
C2375 C 0.02347 0.52534 0.62301 0.0
C2376 C 0.05333 0.51389 0.66051 0.0
C2377 C 0.04835 0.53025 0.6221 0.0
C2378 C 0.09497 0.50904 0.67684 0.0
C2379 C 0.07389 0.4959 0.72007 0.0
N2380 N 0.06248 0.52434 0.64054 0.0
N2381 N 0.05997 0.50055 0.70115 0.0
H2382 H 0.26289 0.33883 0.45976 0.0
H2383 H 0.26035 0.34844 0.31695 0.0
H2384 H 0.2558 0.40377 0.42166 0.0
H2385 H 0.25165 0.28316 0.35416 0.0
H2386 H 0.26143 0.36869 0.35534 0.0
H2387 H 0.26207 0.31771 0.4215 0.0
C2388 C 0.26134 0.34866 0.44343 0.0
C2389 C 0.25934 0.37316 0.44409 0.0
C2390 C 0.25916 0.34993 0.35514 0.0
C2391 C 0.25839 0.34911 0.4002 0.0
C2392 C 0.25847 0.33835 0.33316 0.0
C2393 C 0.25573 0.31403 0.33219 0.0
C2394 C 0.25737 0.33716 0.37649 0.0
C2395 C 0.2536 0.30194 0.35395 0.0
C2396 C 0.26073 0.3366 0.42159 0.0
C2397 C 0.25726 0.38491 0.42223 0.0
N2398 N 0.25458 0.31358 0.37513 0.0
N2399 N 0.25688 0.37284 0.40135 0.0
H2400 H 0.31802 0.48239 0.49008 0.0
H2401 H 0.44498 0.48675 0.55581 0.0
H2402 H 0.3392 0.431 0.54182 0.0
H2403 H 0.42684 0.53001 0.49596 0.0
H2404 H 0.40529 0.46819 0.55364 0.0
H2405 H 0.35671 0.50161 0.49441 0.0
C2406 C 0.33081 0.47507 0.50239 0.0
C2407 C 0.32521 0.45493 0.51558 0.0
C2408 C 0.40996 0.48183 0.54108 0.0
C2409 C 0.36993 0.47718 0.52072 0.0
C2410 C 0.43257 0.49257 0.5424 0.0
C2411 C 0.43933 0.51005 0.52605 0.0
C2412 C 0.39387 0.48866 0.52338 0.0
C2413 C 0.4225 0.51666 0.50895 0.0
C2414 C 0.35299 0.48613 0.50484 0.0
C2415 C 0.3427 0.4464 0.53121 0.0
N2416 N 0.40065 0.50598 0.50807 0.0
N2417 N 0.36423 0.45759 0.53338 0.0
H2418 H 0.86957 0.14217 0.50795 0.0
H2419 H 0.93914 0.02855 0.45904 0.0
H2420 H 0.84468 0.07131 0.51485 0.0
H2421 H 0.97806 0.08602 0.48898 0.0
H2422 H 0.90166 0.0515 0.46306 0.0
H2423 H 0.90713 0.1273 0.48805 0.0
C2424 C 0.87208 0.12352 0.50535 0.0
C2425 C 0.85427 0.10785 0.51337 0.0
C2426 C 0.91857 0.05932 0.46803 0.0
C2427 C 0.89617 0.09112 0.48975 0.0
C2428 C 0.94001 0.04637 0.4655 0.0
C2429 C 0.96152 0.05506 0.47462 0.0
C2430 C 0.91884 0.08109 0.47948 0.0
C2431 C 0.9617 0.07843 0.48231 0.0
C2432 C 0.89328 0.11516 0.49384 0.0
C2433 C 0.85816 0.08393 0.50936 0.0
N2434 N 0.94042 0.09049 0.48529 0.0
N2435 N 0.87865 0.0763 0.49771 0.0
H2436 H 0.64233 0.09941 0.24363 0.0
H2437 H 0.74409 0.17934 0.29813 0.0
H2438 H 0.68773 0.0758 0.30036 0.0
H2439 H 0.72073 0.18561 0.22585 0.0
H2440 H 0.71824 0.14502 0.3033 0.0
H2441 H 0.66552 0.13545 0.24124 0.0
C2442 C 0.657 0.10192 0.25575 0.0
C2443 C 0.66327 0.08456 0.27211 0.0
C2444 C 0.71885 0.15394 0.28633 0.0
C2445 C 0.68969 0.12561 0.26947 0.0
C2446 C 0.73346 0.17346 0.28342 0.0
C2447 C 0.73459 0.18505 0.2615 0.0
C2448 C 0.705 0.14638 0.26729 0.0
C2449 C 0.7206 0.17686 0.24289 0.0
C2450 C 0.67028 0.12239 0.25427 0.0
C2451 C 0.68247 0.08868 0.28735 0.0
N2452 N 0.70626 0.15804 0.24624 0.0
N2453 N 0.69505 0.10883 0.28566 0.0
H2454 H 0.70129 0.95755 0.04164 0.0
H2455 H 0.5684 0.95217 0.98954 0.0
H2456 H 0.67412 0.89507 0.00934 0.0
H2457 H 0.58746 0.00023 0.04505 0.0
H2458 H 0.60836 0.93305 0.99267 0.0
H2459 H 0.66088 0.97554 0.03936 0.0
C2460 C 0.6868 0.94759 0.03413 0.0
C2461 C 0.69109 0.92475 0.02572 0.0
C2462 C 0.60372 0.94776 0.00416 0.0
C2463 C 0.64483 0.94539 0.02272 0.0
C2464 C 0.58099 0.95875 0.00231 0.0
C2465 C 0.57456 0.97786 0.01703 0.0
C2466 C 0.62029 0.95619 0.02056 0.0
C2467 C 0.59158 0.98555 0.03335 0.0
C2468 C 0.66373 0.95785 0.03287 0.0
C2469 C 0.6716 0.91267 0.01615 0.0
N2470 N 0.61367 0.97481 0.03456 0.0
N2471 N 0.64936 0.9232 0.01472 0.0
H2472 H 0.39887 0.45969 0.2009 0.0
H2473 H 0.30376 0.37974 0.27129 0.0
H2474 H 0.35825 0.48276 0.26376 0.0
H2475 H 0.32188 0.37013 0.19667 0.0
H2476 H 0.3298 0.414 0.27179 0.0
H2477 H 0.37673 0.42285 0.20217 0.0
C2478 C 0.38548 0.45691 0.21507 0.0
C2479 C 0.38021 0.47431 0.23215 0.0
C2480 C 0.32809 0.40435 0.25533 0.0
C2481 C 0.3551 0.43244 0.23374 0.0
C2482 C 0.31336 0.38481 0.25507 0.0
C2483 C 0.31062 0.37229 0.23388 0.0
C2484 C 0.34036 0.41118 0.2343 0.0
C2485 C 0.32328 0.37959 0.21326 0.0
C2486 C 0.37281 0.43599 0.21571 0.0
C2487 C 0.36268 0.46988 0.25011 0.0
N2488 N 0.3377 0.39858 0.21398 0.0
N2489 N 0.35074 0.44935 0.25045 0.0
H2490 H 0.22357 0.5843 0.0337 0.0
H2491 H 0.08052 0.59555 0.03442 0.0
H2492 H 0.1867 0.6495 0.01908 0.0
H2493 H 0.11804 0.54177 0.07297 0.0
H2494 H 0.1191 0.61524 0.02712 0.0
H2495 H 0.18485 0.56755 0.04625 0.0
C2496 C 0.20729 0.59507 0.03309 0.0
C2497 C 0.20821 0.61826 0.02523 0.0
C2498 C 0.11885 0.59928 0.03742 0.0
C2499 C 0.16402 0.59925 0.03957 0.0
C2500 C 0.09694 0.58804 0.04146 0.0
C2501 C 0.09632 0.56699 0.05411 0.0
C2502 C 0.14027 0.58915 0.04576 0.0
C2503 C 0.11789 0.55802 0.0632 0.0
C2504 C 0.18526 0.58556 0.04044 0.0
C2505 C 0.18667 0.63152 0.02499 0.0
N2506 N 0.13914 0.56901 0.05856 0.0
N2507 N 0.16533 0.62174 0.03189 0.0
H2508 H 0.72876 0.96204 0.2942 0.0
H2509 H 0.71594 0.82572 0.29474 0.0
H2510 H 0.66264 0.92746 0.31595 0.0
H2511 H 0.78569 0.8591 0.29554 0.0
H2512 H 0.69642 0.863 0.30521 0.0
H2513 H 0.75085 0.92498 0.29808 0.0
C2514 C 0.719 0.94677 0.30024 0.0
C2515 C 0.69379 0.94762 0.30421 0.0
C2516 C 0.71603 0.86211 0.30341 0.0
C2517 C 0.71873 0.90535 0.30835 0.0
C2518 C 0.72713 0.84088 0.29728 0.0
C2519 C 0.75238 0.83947 0.29395 0.0
C2520 C 0.73028 0.88209 0.30581 0.0
C2521 C 0.76611 0.85953 0.29774 0.0
C2522 C 0.73159 0.92564 0.30245 0.0
C2523 C 0.68203 0.92744 0.31224 0.0
N2524 N 0.75483 0.88015 0.30312 0.0
N2525 N 0.69453 0.90699 0.31361 0.0
H2526 H 0.84701 0.10657 0.80979 0.0
H2527 H 0.76895 0.21297 0.7718 0.0
H2528 H 0.79773 0.1039 0.75172 0.0
H2529 H 0.80877 0.21023 0.83679 0.0
H2530 H 0.77066 0.17043 0.76967 0.0
H2531 H 0.82493 0.1405 0.82583 0.0
C2532 C 0.83114 0.11291 0.80073 0.0
C2533 C 0.82444 0.10294 0.77916 0.0
C2534 C 0.77853 0.17908 0.78471 0.0
C2535 C 0.79958 0.14216 0.79686 0.0
C2536 C 0.77762 0.2034 0.7859 0.0
C2537 C 0.78949 0.21513 0.80406 0.0
C2538 C 0.79166 0.16655 0.80163 0.0
C2539 C 0.79999 0.20189 0.82209 0.0
C2540 C 0.81849 0.13226 0.80987 0.0
C2541 C 0.80358 0.11141 0.76827 0.0
N2542 N 0.8013 0.1783 0.82014 0.0
N2543 N 0.79224 0.13103 0.77688 0.0
loop_
_geom_bond_atom_site_label_1
_geom_bond_atom_site_label_2
_geom_bond_distance
_geom_bond_site_symmetry_2
_ccdc_geom_bond_type
C0 O1 1.306 . S
C0 O3 1.160 . S
O1 C0 1.306 . S
O1 Cd2 2.228 1_655 S
Cd2 O1 2.228 1_455 S
Cd2 O6 2.273 . S
Cd2 O10 2.277 . S
O3 C0 1.160 . S
O3 Cd4 2.203 1_655 S
Cd4 O3 2.203 1_455 S
Cd4 O6 2.411 . S
Cd4 O7 2.333 . S
Cd4 O8 2.352 . S
Cd4 O12 2.277 . S
Cd4 O13 2.356 . S
C5 O10 1.209 . S
C5 O12 1.226 . S
O6 Cd2 2.273 . S
O6 Cd4 2.411 . S
O6 C9 1.320 . S
O7 Cd4 2.333 . S
O7 C9 1.214 . S
O8 Cd4 2.352 . S
O8 C11 1.258 . S
C9 O6 1.320 . S
C9 O7 1.214 . S
O10 Cd2 2.277 . S
O10 C5 1.209 . S
C11 O8 1.258 . S
C11 O13 1.282 . S
O12 Cd4 2.277 . S
O12 C5 1.226 . S
O13 Cd4 2.356 . S
O13 C11 1.282 . S
C14 O15 1.306 . S
C14 O17 1.160 . S
O15 C14 1.306 . S
O15 Cd16 2.228 . S
Cd16 O15 2.228 . S
Cd16 O20 2.273 . S
Cd16 O24 2.277 . S
O17 C14 1.160 . S
O17 Cd18 2.203 . S
Cd18 O17 2.203 . S
Cd18 O20 2.411 . S
Cd18 O21 2.333 . S
Cd18 O22 2.352 . S
Cd18 O26 2.277 . S
Cd18 O27 2.356 . S
C19 O24 1.209 . S
C19 O26 1.226 . S
O20 Cd16 2.273 . S
O20 Cd18 2.411 . S
O20 C23 1.320 . S
O21 Cd18 2.333 . S
O21 C23 1.214 . S
O22 Cd18 2.352 . S
O22 C25 1.258 . S
C23 O20 1.320 . S
C23 O21 1.214 . S
O24 Cd16 2.277 . S
O24 C19 1.209 . S
C25 O22 1.258 . S
C25 O27 1.282 . S
O26 Cd18 2.277 . S
O26 C19 1.226 . S
O27 Cd18 2.356 . S
O27 C25 1.282 . S
C28 O29 1.306 . S
C28 O31 1.160 . S
O29 C28 1.306 . S
O29 Cd30 2.228 . S
Cd30 O29 2.228 . S
Cd30 O34 2.273 . S
Cd30 O38 2.277 . S
O31 C28 1.160 . S
O31 Cd32 2.203 . S
Cd32 O31 2.203 . S
Cd32 O34 2.411 . S
Cd32 O35 2.333 . S
Cd32 O36 2.352 . S
Cd32 O40 2.277 . S
Cd32 O41 2.356 . S
C33 O38 1.209 . S
C33 O40 1.226 . S
O34 Cd30 2.273 . S
O34 Cd32 2.411 . S
O34 C37 1.320 . S
O35 Cd32 2.333 . S
O35 C37 1.214 . S
O36 Cd32 2.352 . S
O36 C39 1.258 . S
C37 O34 1.320 . S
C37 O35 1.214 . S
O38 Cd30 2.277 . S
O38 C33 1.209 . S
C39 O36 1.258 . S
C39 O41 1.282 . S
O40 Cd32 2.277 . S
O40 C33 1.226 . S
O41 Cd32 2.356 . S
O41 C39 1.282 . S
C42 O43 1.306 . S
C42 O45 1.160 . S
O43 C42 1.306 . S
O43 Cd44 2.228 . S
Cd44 O43 2.228 . S
Cd44 O48 2.273 . S
Cd44 O52 2.277 . S
O45 C42 1.160 . S
O45 Cd46 2.203 . S
Cd46 O45 2.203 . S
Cd46 O48 2.411 . S
Cd46 O49 2.333 . S
Cd46 O50 2.352 . S
Cd46 O54 2.277 . S
Cd46 O55 2.356 . S
C47 O52 1.209 . S
C47 O54 1.226 . S
O48 Cd44 2.273 . S
O48 Cd46 2.411 . S
O48 C51 1.320 . S
O49 Cd46 2.333 . S
O49 C51 1.214 . S
O50 Cd46 2.352 . S
O50 C53 1.258 . S
C51 O48 1.320 . S
C51 O49 1.214 . S
O52 Cd44 2.277 . S
O52 C47 1.209 . S
C53 O50 1.258 . S
C53 O55 1.282 . S
O54 Cd46 2.277 . S
O54 C47 1.226 . S
O55 Cd46 2.356 . S
O55 C53 1.282 . S
C56 O57 1.306 . S
C56 O59 1.160 . S
O57 C56 1.306 . S
O57 Cd58 2.228 . S
Cd58 O57 2.228 . S
Cd58 O62 2.273 . S
Cd58 O66 2.277 . S
O59 C56 1.160 . S
O59 Cd60 2.203 . S
Cd60 O59 2.203 . S
Cd60 O62 2.411 . S
Cd60 O63 2.333 . S
Cd60 O64 2.352 1_545 S
Cd60 O68 2.277 . S
Cd60 O69 2.356 1_545 S
C61 O66 1.209 . S
C61 O68 1.226 . S
O62 Cd58 2.273 . S
O62 Cd60 2.411 . S
O62 C65 1.320 . S
O63 Cd60 2.333 . S
O63 C65 1.214 . S
O64 Cd60 2.352 1_565 S
O64 C67 1.258 . S
C65 O62 1.320 . S
C65 O63 1.214 . S
O66 Cd58 2.277 . S
O66 C61 1.209 . S
C67 O64 1.258 . S
C67 O69 1.282 . S
O68 Cd60 2.277 . S
O68 C61 1.226 . S
O69 Cd60 2.356 1_565 S
O69 C67 1.282 . S
C70 O71 1.306 . S
C70 O73 1.160 . S
O71 C70 1.306 . S
O71 Cd72 2.228 . S
Cd72 O71 2.228 . S
Cd72 O76 2.273 . S
Cd72 O80 2.277 . S
O73 C70 1.160 . S
O73 Cd74 2.203 . S
Cd74 O73 2.203 . S
Cd74 O76 2.411 . S
Cd74 O77 2.333 . S
Cd74 O78 2.352 . S
Cd74 O82 2.277 . S
Cd74 O83 2.356 . S
C75 O80 1.209 . S
C75 O82 1.226 . S
O76 Cd72 2.273 . S
O76 Cd74 2.411 . S
O76 C79 1.320 . S
O77 Cd74 2.333 . S
O77 C79 1.214 . S
O78 Cd74 2.352 . S
O78 C81 1.258 . S
C79 O76 1.320 . S
C79 O77 1.214 . S
O80 Cd72 2.277 . S
O80 C75 1.209 . S
C81 O78 1.258 . S
C81 O83 1.282 . S
O82 Cd74 2.277 . S
O82 C75 1.226 . S
O83 Cd74 2.356 . S
O83 C81 1.282 . S
C84 O85 1.306 . S
C84 O87 1.160 . S
O85 C84 1.306 . S
O85 Cd86 2.228 . S
Cd86 O85 2.228 . S
Cd86 O90 2.273 . S
Cd86 O94 2.277 . S
O87 C84 1.160 . S
O87 Cd88 2.203 . S
Cd88 O87 2.203 . S
Cd88 O90 2.411 . S
Cd88 O91 2.333 . S
Cd88 O92 2.352 . S
Cd88 O96 2.277 . S
Cd88 O97 2.356 . S
C89 O94 1.209 . S
C89 O96 1.226 . S
O90 Cd86 2.273 . S
O90 Cd88 2.411 . S
O90 C93 1.320 . S
O91 Cd88 2.333 . S
O91 C93 1.214 . S
O92 Cd88 2.352 . S
O92 C95 1.258 . S
C93 O90 1.320 . S
C93 O91 1.214 . S
O94 Cd86 2.277 . S
O94 C89 1.209 . S
C95 O92 1.258 . S
C95 O97 1.282 . S
O96 Cd88 2.277 . S
O96 C89 1.226 . S
O97 Cd88 2.356 . S
O97 C95 1.282 . S
C98 O99 1.306 . S
C98 O101 1.160 . S
O99 C98 1.306 . S
O99 Cd100 2.228 . S
Cd100 O99 2.228 . S
Cd100 O104 2.273 . S
Cd100 O108 2.277 . S
O101 C98 1.160 . S
O101 Cd102 2.203 . S
Cd102 O101 2.203 . S
Cd102 O104 2.411 . S
Cd102 O105 2.333 . S
Cd102 O106 2.352 1_554 S
Cd102 O110 2.277 . S
Cd102 O111 2.356 1_554 S
C103 O108 1.209 . S
C103 O110 1.226 . S
O104 Cd100 2.273 . S
O104 Cd102 2.411 . S
O104 C107 1.320 . S
O105 Cd102 2.333 . S
O105 C107 1.214 . S
O106 Cd102 2.352 1_556 S
O106 C109 1.258 . S
C107 O104 1.320 . S
C107 O105 1.214 . S
O108 Cd100 2.277 . S
O108 C103 1.209 . S
C109 O106 1.258 . S
C109 O111 1.282 . S
O110 Cd102 2.277 . S
O110 C103 1.226 . S
O111 Cd102 2.356 1_556 S
O111 C109 1.282 . S
C112 O113 1.306 . S
C112 O115 1.160 . S
O113 C112 1.306 . S
O113 Cd114 2.228 . S
Cd114 O113 2.228 . S
Cd114 O118 2.273 . S
Cd114 O122 2.277 . S
O115 C112 1.160 . S
O115 Cd116 2.203 . S
Cd116 O115 2.203 . S
Cd116 O118 2.411 . S
Cd116 O119 2.333 . S
Cd116 O120 2.352 . S
Cd116 O124 2.277 . S
Cd116 O125 2.356 . S
C117 O122 1.209 . S
C117 O124 1.226 . S
O118 Cd114 2.273 . S
O118 Cd116 2.411 . S
O118 C121 1.320 . S
O119 Cd116 2.333 . S
O119 C121 1.214 . S
O120 Cd116 2.352 . S
O120 C123 1.258 . S
C121 O118 1.320 . S
C121 O119 1.214 . S
O122 Cd114 2.277 . S
O122 C117 1.209 . S
C123 O120 1.258 . S
C123 O125 1.282 . S
O124 Cd116 2.277 . S
O124 C117 1.226 . S
O125 Cd116 2.356 . S
O125 C123 1.282 . S
C126 O127 1.306 . S
C126 O129 1.160 . S
O127 C126 1.306 . S
O127 Cd128 2.228 . S
Cd128 O127 2.228 . S
Cd128 O132 2.273 . S
Cd128 O136 2.277 . S
O129 C126 1.160 . S
O129 Cd130 2.203 . S
Cd130 O129 2.203 . S
Cd130 O132 2.411 . S
Cd130 O133 2.333 . S
Cd130 O134 2.352 . S
Cd130 O138 2.277 . S
Cd130 O139 2.356 . S
C131 O136 1.209 . S
C131 O138 1.226 . S
O132 Cd128 2.273 . S
O132 Cd130 2.411 . S
O132 C135 1.320 . S
O133 Cd130 2.333 . S
O133 C135 1.214 . S
O134 Cd130 2.352 . S
O134 C137 1.258 . S
C135 O132 1.320 . S
C135 O133 1.214 . S
O136 Cd128 2.277 . S
O136 C131 1.209 . S
C137 O134 1.258 . S
C137 O139 1.282 . S
O138 Cd130 2.277 . S
O138 C131 1.226 . S
O139 Cd130 2.356 . S
O139 C137 1.282 . S
C140 O141 1.306 . S
C140 O143 1.160 . S
O141 C140 1.306 . S
O141 Cd142 2.228 . S
Cd142 O141 2.228 . S
Cd142 O146 2.273 . S
Cd142 O150 2.277 . S
O143 C140 1.160 . S
O143 Cd144 2.203 . S
Cd144 O143 2.203 . S
Cd144 O146 2.411 . S
Cd144 O147 2.333 . S
Cd144 O148 2.352 . S
Cd144 O152 2.277 . S
Cd144 O153 2.356 . S
C145 O150 1.209 . S
C145 O152 1.226 . S
O146 Cd142 2.273 . S
O146 Cd144 2.411 . S
O146 C149 1.320 . S
O147 Cd144 2.333 . S
O147 C149 1.214 . S
O148 Cd144 2.352 . S
O148 C151 1.258 . S
C149 O146 1.320 . S
C149 O147 1.214 . S
O150 Cd142 2.277 . S
O150 C145 1.209 . S
C151 O148 1.258 . S
C151 O153 1.282 . S
O152 Cd144 2.277 . S
O152 C145 1.226 . S
O153 Cd144 2.356 . S
O153 C151 1.282 . S
C154 O155 1.306 . S
C154 O157 1.160 . S
O155 C154 1.306 . S
O155 Cd156 2.228 . S
Cd156 O155 2.228 . S
Cd156 O160 2.273 . S
Cd156 O164 2.277 . S
O157 C154 1.160 . S
O157 Cd158 2.203 . S
Cd158 O157 2.203 . S
Cd158 O160 2.411 . S
Cd158 O161 2.333 . S
Cd158 O162 2.352 . S
Cd158 O166 2.277 . S
Cd158 O167 2.356 . S
C159 O164 1.209 . S
C159 O166 1.226 . S
O160 Cd156 2.273 . S
O160 Cd158 2.411 . S
O160 C163 1.320 . S
O161 Cd158 2.333 . S
O161 C163 1.214 . S
O162 Cd158 2.352 . S
O162 C165 1.258 . S
C163 O160 1.320 . S
C163 O161 1.214 . S
O164 Cd156 2.277 . S
O164 C159 1.209 . S
C165 O162 1.258 . S
C165 O167 1.282 . S
O166 Cd158 2.277 . S
O166 C159 1.226 . S
O167 Cd158 2.356 . S
O167 C165 1.282 . S
C168 O169 1.306 . S
C168 O171 1.160 . S
O169 C168 1.306 . S
O169 Cd170 2.228 1_655 S
Cd170 O169 2.228 1_455 S
Cd170 O174 2.273 . S
Cd170 O178 2.277 . S
O171 C168 1.160 . S
O171 Cd172 2.203 1_655 S
Cd172 O171 2.203 1_455 S
Cd172 O174 2.411 . S
Cd172 O175 2.333 . S
Cd172 O176 2.352 . S
Cd172 O180 2.277 . S
Cd172 O181 2.356 . S
C173 O178 1.209 . S
C173 O180 1.226 . S
O174 Cd170 2.273 . S
O174 Cd172 2.411 . S
O174 C177 1.320 . S
O175 Cd172 2.333 . S
O175 C177 1.214 . S
O176 Cd172 2.352 . S
O176 C179 1.258 . S
C177 O174 1.320 . S
C177 O175 1.214 . S
O178 Cd170 2.277 . S
O178 C173 1.209 . S
C179 O176 1.258 . S
C179 O181 1.282 . S
O180 Cd172 2.277 . S
O180 C173 1.226 . S
O181 Cd172 2.356 . S
O181 C179 1.282 . S
C182 O183 1.306 . S
C182 O185 1.160 . S
O183 C182 1.306 . S
O183 Cd184 2.228 1_655 S
Cd184 O183 2.228 1_455 S
Cd184 O188 2.273 . S
Cd184 O192 2.277 . S
O185 C182 1.160 . S
O185 Cd186 2.203 1_655 S
Cd186 O185 2.203 1_455 S
Cd186 O188 2.411 . S
Cd186 O189 2.333 . S
Cd186 O190 2.351 1_455 S
Cd186 O194 2.277 1_455 S
Cd186 O195 2.356 . S
C187 O192 1.215 . S
C187 O194 1.225 1_455 S
O188 Cd184 2.273 . S
O188 Cd186 2.411 . S
O188 C191 1.320 . S
O189 Cd186 2.333 . S
O189 C191 1.214 . S
O190 Cd186 2.351 1_655 S
O190 C193 1.255 1_655 S
C191 O188 1.320 . S
C191 O189 1.214 . S
O192 Cd184 2.277 . S
O192 C187 1.215 . S
C193 O190 1.255 1_455 S
C193 O195 1.282 . S
O194 Cd186 2.277 1_655 S
O194 C187 1.225 1_655 S
O195 Cd186 2.356 . S
O195 C193 1.282 . S
C196 O197 1.306 . S
C196 O199 1.160 . S
O197 C196 1.306 . S
O197 Cd198 2.228 . S
Cd198 O197 2.228 . S
Cd198 O202 2.273 . S
Cd198 O206 2.277 . S
O199 C196 1.160 . S
O199 Cd200 2.203 . S
Cd200 O199 2.203 . S
Cd200 O202 2.411 . S
Cd200 O203 2.333 . S
Cd200 O204 2.352 . S
Cd200 O208 2.277 . S
Cd200 O209 2.356 . S
C201 O206 1.209 . S
C201 O208 1.226 . S
O202 Cd198 2.273 . S
O202 Cd200 2.411 . S
O202 C205 1.320 . S
O203 Cd200 2.333 . S
O203 C205 1.214 . S
O204 Cd200 2.352 . S
O204 C207 1.258 . S
C205 O202 1.320 . S
C205 O203 1.214 . S
O206 Cd198 2.277 . S
O206 C201 1.209 . S
C207 O204 1.258 . S
C207 O209 1.282 . S
O208 Cd200 2.277 . S
O208 C201 1.226 . S
O209 Cd200 2.356 . S
O209 C207 1.282 . S
C210 O211 1.306 . S
C210 O213 1.160 . S
O211 C210 1.306 . S
O211 Cd212 2.228 . S
Cd212 O211 2.228 . S
Cd212 O216 2.273 . S
Cd212 O220 2.277 . S
O213 C210 1.160 . S
O213 Cd214 2.203 . S
Cd214 O213 2.203 . S
Cd214 O216 2.411 . S
Cd214 O217 2.333 . S
Cd214 O218 2.352 . S
Cd214 O222 2.277 . S
Cd214 O223 2.356 . S
C215 O220 1.209 . S
C215 O222 1.226 . S
O216 Cd212 2.273 . S
O216 Cd214 2.411 . S
O216 C219 1.320 . S
O217 Cd214 2.333 . S
O217 C219 1.214 . S
O218 Cd214 2.352 . S
O218 C221 1.258 . S
C219 O216 1.320 . S
C219 O217 1.214 . S
O220 Cd212 2.277 . S
O220 C215 1.209 . S
C221 O218 1.258 . S
C221 O223 1.282 . S
O222 Cd214 2.277 . S
O222 C215 1.226 . S
O223 Cd214 2.356 . S
O223 C221 1.282 . S
C224 O225 1.306 . S
C224 O227 1.160 . S
O225 C224 1.306 . S
O225 Cd226 2.228 . S
Cd226 O225 2.228 . S
Cd226 O230 2.273 . S
Cd226 O234 2.277 . S
O227 C224 1.160 . S
O227 Cd228 2.203 . S
Cd228 O227 2.203 . S
Cd228 O230 2.411 . S
Cd228 O231 2.333 . S
Cd228 O232 2.352 . S
Cd228 O236 2.277 . S
Cd228 O237 2.356 . S
C229 O234 1.209 . S
C229 O236 1.226 . S
O230 Cd226 2.273 . S
O230 Cd228 2.411 . S
O230 C233 1.320 . S
O231 Cd228 2.333 . S
O231 C233 1.214 . S
O232 Cd228 2.352 . S
O232 C235 1.258 . S
C233 O230 1.320 . S
C233 O231 1.214 . S
O234 Cd226 2.277 . S
O234 C229 1.209 . S
C235 O232 1.258 . S
C235 O237 1.282 . S
O236 Cd228 2.277 . S
O236 C229 1.226 . S
O237 Cd228 2.356 . S
O237 C235 1.282 . S
C238 O239 1.306 . S
C238 O241 1.160 . S
O239 C238 1.306 . S
O239 Cd240 2.228 . S
Cd240 O239 2.228 . S
Cd240 O244 2.273 . S
Cd240 O248 2.277 . S
O241 C238 1.160 . S
O241 Cd242 2.203 . S
Cd242 O241 2.203 . S
Cd242 O244 2.411 . S
Cd242 O245 2.333 . S
Cd242 O246 2.352 . S
Cd242 O250 2.277 . S
Cd242 O251 2.356 . S
C243 O248 1.209 . S
C243 O250 1.226 . S
O244 Cd240 2.273 . S
O244 Cd242 2.411 . S
O244 C247 1.320 . S
O245 Cd242 2.333 . S
O245 C247 1.214 . S
O246 Cd242 2.352 . S
O246 C249 1.258 . S
C247 O244 1.320 . S
C247 O245 1.214 . S
O248 Cd240 2.277 . S
O248 C243 1.209 . S
C249 O246 1.258 . S
C249 O251 1.282 . S
O250 Cd242 2.277 . S
O250 C243 1.226 . S
O251 Cd242 2.356 . S
O251 C249 1.282 . S
C252 O253 1.306 . S
C252 O255 1.160 . S
O253 C252 1.306 . S
O253 Cd254 2.228 . S
Cd254 O253 2.228 . S
Cd254 O258 2.273 . S
Cd254 O262 2.277 . S
O255 C252 1.160 . S
O255 Cd256 2.203 . S
Cd256 O255 2.203 . S
Cd256 O258 2.411 . S
Cd256 O259 2.333 . S
Cd256 O260 2.352 1_545 S
Cd256 O264 2.277 . S
Cd256 O265 2.356 1_545 S
C257 O262 1.209 . S
C257 O264 1.226 . S
O258 Cd254 2.273 . S
O258 Cd256 2.411 . S
O258 C261 1.320 . S
O259 Cd256 2.333 . S
O259 C261 1.214 . S
O260 Cd256 2.352 1_565 S
O260 C263 1.258 . S
C261 O258 1.320 . S
C261 O259 1.214 . S
O262 Cd254 2.277 . S
O262 C257 1.209 . S
C263 O260 1.258 . S
C263 O265 1.282 . S
O264 Cd256 2.277 . S
O264 C257 1.226 . S
O265 Cd256 2.356 1_565 S
O265 C263 1.282 . S
C266 O267 1.306 . S
C266 O269 1.160 . S
O267 C266 1.306 . S
O267 Cd268 2.228 1_554 S
Cd268 O267 2.228 1_556 S
Cd268 O272 2.273 1_556 S
Cd268 O276 2.277 . S
O269 C266 1.160 . S
O269 Cd270 2.203 . S
Cd270 O269 2.203 . S
Cd270 O272 2.411 . S
Cd270 O273 2.333 . S
Cd270 O274 2.352 . S
Cd270 O278 2.277 1_554 S
Cd270 O279 2.356 . S
C271 O276 1.209 . S
C271 O278 1.226 . S
O272 Cd268 2.273 1_554 S
O272 Cd270 2.411 . S
O272 C275 1.320 . S
O273 Cd270 2.333 . S
O273 C275 1.214 . S
O274 Cd270 2.352 . S
O274 C277 1.258 . S
C275 O272 1.320 . S
C275 O273 1.214 . S
O276 Cd268 2.277 . S
O276 C271 1.209 . S
C277 O274 1.258 . S
C277 O279 1.282 . S
O278 Cd270 2.277 1_556 S
O278 C271 1.226 . S
O279 Cd270 2.356 . S
O279 C277 1.282 . S
C280 O281 1.306 . S
C280 O283 1.160 1_554 S
O281 C280 1.306 . S
O281 Cd282 2.228 . S
Cd282 O281 2.228 . S
Cd282 O286 2.273 . S
Cd282 O290 2.277 . S
O283 C280 1.160 1_556 S
O283 Cd284 2.203 . S
Cd284 O283 2.203 . S
Cd284 O286 2.411 1_556 S
Cd284 O287 2.333 . S
Cd284 O288 2.352 . S
Cd284 O292 2.277 1_556 S
Cd284 O293 2.356 . S
C285 O290 1.209 . S
C285 O292 1.226 . S
O286 Cd282 2.273 . S
O286 Cd284 2.411 1_554 S
O286 C289 1.323 . S
O287 Cd284 2.333 . S
O287 C289 1.210 1_556 S
O288 Cd284 2.352 . S
O288 C291 1.258 . S
C289 O286 1.323 . S
C289 O287 1.210 1_554 S
O290 Cd282 2.277 . S
O290 C285 1.209 . S
C291 O288 1.258 . S
C291 O293 1.282 . S
O292 Cd284 2.277 1_554 S
O292 C285 1.226 . S
O293 Cd284 2.356 . S
O293 C291 1.282 . S
C294 O295 1.306 . S
C294 O297 1.160 . S
O295 C294 1.306 . S
O295 Cd296 2.228 . S
Cd296 O295 2.228 . S
Cd296 O300 2.273 . S
Cd296 O304 2.277 . S
O297 C294 1.160 . S
O297 Cd298 2.203 . S
Cd298 O297 2.203 . S
Cd298 O300 2.411 . S
Cd298 O301 2.333 . S
Cd298 O302 2.352 . S
Cd298 O306 2.277 . S
Cd298 O307 2.356 . S
C299 O304 1.209 . S
C299 O306 1.226 . S
O300 Cd296 2.273 . S
O300 Cd298 2.411 . S
O300 C303 1.320 . S
O301 Cd298 2.333 . S
O301 C303 1.214 . S
O302 Cd298 2.352 . S
O302 C305 1.258 . S
C303 O300 1.320 . S
C303 O301 1.214 . S
O304 Cd296 2.277 . S
O304 C299 1.209 . S
C305 O302 1.258 . S
C305 O307 1.282 . S
O306 Cd298 2.277 . S
O306 C299 1.226 . S
O307 Cd298 2.356 . S
O307 C305 1.282 . S
C308 O309 1.306 . S
C308 O311 1.160 . S
O309 C308 1.306 . S
O309 Cd310 2.228 . S
Cd310 O309 2.228 . S
Cd310 O314 2.273 . S
Cd310 O318 2.277 . S
O311 C308 1.160 . S
O311 Cd312 2.203 . S
Cd312 O311 2.203 . S
Cd312 O314 2.411 . S
Cd312 O315 2.333 . S
Cd312 O316 2.352 . S
Cd312 O320 2.277 . S
Cd312 O321 2.356 . S
C313 O318 1.209 . S
C313 O320 1.226 . S
O314 Cd310 2.273 . S
O314 Cd312 2.411 . S
O314 C317 1.320 . S
O315 Cd312 2.333 . S
O315 C317 1.214 . S
O316 Cd312 2.352 . S
O316 C319 1.258 . S
C317 O314 1.320 . S
C317 O315 1.214 . S
O318 Cd310 2.277 . S
O318 C313 1.209 . S
C319 O316 1.258 . S
C319 O321 1.282 . S
O320 Cd312 2.277 . S
O320 C313 1.226 . S
O321 Cd312 2.356 . S
O321 C319 1.282 . S
C322 O323 1.306 . S
C322 O325 1.160 . S
O323 C322 1.306 . S
O323 Cd324 2.228 . S
Cd324 O323 2.228 . S
Cd324 O328 2.273 . S
Cd324 O332 2.277 . S
O325 C322 1.160 . S
O325 Cd326 2.203 . S
Cd326 O325 2.203 . S
Cd326 O328 2.411 . S
Cd326 O329 2.333 . S
Cd326 O330 2.352 . S
Cd326 O334 2.277 . S
Cd326 O335 2.356 . S
C327 O332 1.209 . S
C327 O334 1.226 . S
O328 Cd324 2.273 . S
O328 Cd326 2.411 . S
O328 C331 1.320 . S
O329 Cd326 2.333 . S
O329 C331 1.214 . S
O330 Cd326 2.352 . S
O330 C333 1.258 . S
C331 O328 1.320 . S
C331 O329 1.214 . S
O332 Cd324 2.277 . S
O332 C327 1.209 . S
C333 O330 1.258 . S
C333 O335 1.282 . S
O334 Cd326 2.277 . S
O334 C327 1.226 . S
O335 Cd326 2.356 . S
O335 C333 1.282 . S
Co336 N341 2.057 1_554 S
Co336 O353 2.021 1_554 S
Co336 O356 2.062 1_455 S
Co336 O360 2.117 . S
Co336 O361 2.020 . S
C337 O357 1.259 . S
C337 O360 1.258 . S
Co338 N347 2.057 . S
Co338 O354 2.117 1_545 S
Co338 O355 2.020 1_455 S
Co338 O357 2.021 . S
Co338 O362 2.062 . S
C339 N341 1.316 . S
C339 N342 1.347 1_455 S
C339 H344 0.931 . S
C340 N341 1.365 1_655 S
C340 C343 1.366 . S
C340 H345 0.923 1_655 S
N341 Co336 2.057 1_556 S
N341 C339 1.316 . S
N341 C340 1.365 1_455 S
N342 C339 1.347 1_655 S
N342 C343 1.373 . S
C343 C340 1.366 . S
C343 N342 1.373 . S
C343 H364 0.931 . S
H344 C339 0.931 . S
H345 C340 0.923 1_455 S
C346 O353 1.259 1_564 S
C346 O354 1.258 . S
N347 Co338 2.057 . S
N347 C348 1.316 . S
N347 C349 1.375 1_545 S
C348 N347 1.316 . S
C348 N350 1.347 . S
C348 H359 0.931 . S
C349 N347 1.375 1_565 S
C349 C351 1.350 . S
C349 H358 0.930 . S
N350 C348 1.347 . S
N350 C351 1.373 1_545 S
C351 C349 1.350 . S
C351 N350 1.373 1_565 S
C351 H365 0.931 . S
C352 O355 1.256 . S
C352 O356 1.255 . S
O353 Co336 2.021 1_556 S
O353 C346 1.259 1_546 S
O354 Co338 2.117 1_565 S
O354 C346 1.258 . S
O355 Co338 2.020 1_655 S
O355 C352 1.256 . S
O356 Co336 2.062 1_655 S
O356 C352 1.255 . S
O357 C337 1.259 . S
O357 Co338 2.021 . S
H358 C349 0.930 . S
H359 C348 0.931 . S
O360 Co336 2.117 . S
O360 C337 1.258 . S
O361 Co336 2.020 . S
O361 C363 1.256 . S
O362 Co338 2.062 . S
O362 C363 1.255 . S
C363 O361 1.256 . S
C363 O362 1.255 . S
H364 C343 0.931 . S
H365 C351 0.931 . S
Co366 N371 2.057 . S
Co366 O383 2.021 . S
Co366 O386 2.062 . S
Co366 O390 2.117 . S
Co366 O391 2.020 . S
C367 O387 1.259 . S
C367 O390 1.258 . S
Co368 N377 2.057 . S
Co368 O384 2.117 . S
Co368 O385 2.020 . S
Co368 O387 2.021 . S
Co368 O392 2.062 . S
C369 N371 1.316 . S
C369 N372 1.347 . S
C369 H374 0.931 . S
C370 N371 1.375 . S
C370 C373 1.350 . S
C370 H375 0.930 . S
N371 Co366 2.057 . S
N371 C369 1.316 . S
N371 C370 1.375 . S
N372 C369 1.347 . S
N372 C373 1.373 . S
C373 C370 1.350 . S
C373 N372 1.373 . S
C373 H394 0.931 . S
H374 C369 0.931 . S
H375 C370 0.930 . S
C376 O383 1.259 . S
C376 O384 1.258 . S
N377 Co368 2.057 . S
N377 C378 1.316 . S
N377 C379 1.375 . S
C378 N377 1.316 . S
C378 N380 1.347 . S
C378 H389 0.931 . S
C379 N377 1.375 . S
C379 C381 1.350 . S
C379 H388 0.930 . S
N380 C378 1.347 . S
N380 C381 1.373 . S
C381 C379 1.350 . S
C381 N380 1.373 . S
C381 H395 0.931 . S
C382 O385 1.256 . S
C382 O386 1.255 . S
O383 Co366 2.021 . S
O383 C376 1.259 . S
O384 Co368 2.117 . S
O384 C376 1.258 . S
O385 Co368 2.020 . S
O385 C382 1.256 . S
O386 Co366 2.062 . S
O386 C382 1.255 . S
O387 C367 1.259 . S
O387 Co368 2.021 . S
H388 C379 0.930 . S
H389 C378 0.931 . S
O390 Co366 2.117 . S
O390 C367 1.258 . S
O391 Co366 2.020 . S
O391 C393 1.256 . S
O392 Co368 2.062 . S
O392 C393 1.255 . S
C393 O391 1.256 . S
C393 O392 1.255 . S
H394 C373 0.931 . S
H395 C381 0.931 . S
Co396 N401 2.057 . S
Co396 O413 2.021 1_545 S
Co396 O416 2.062 . S
Co396 O420 2.117 . S
Co396 O421 2.020 . S
C397 O417 1.259 . S
C397 O420 1.258 . S
Co398 N407 2.057 . S
Co398 O414 2.117 . S
Co398 O415 2.020 . S
Co398 O417 2.021 . S
Co398 O422 2.062 . S
C399 N401 1.316 1_565 S
C399 N402 1.347 1_565 S
C399 H404 0.931 . S
C400 N401 1.375 . S
C400 C403 1.350 . S
C400 H405 0.930 . S
N401 Co396 2.057 . S
N401 C399 1.316 1_545 S
N401 C400 1.375 . S
N402 C399 1.347 1_545 S
N402 C403 1.373 . S
C403 C400 1.350 . S
C403 N402 1.373 . S
C403 H424 0.931 . S
H404 C399 0.931 . S
H405 C400 0.930 . S
C406 O413 1.259 . S
C406 O414 1.258 1_565 S
N407 Co398 2.057 . S
N407 C408 1.316 . S
N407 C409 1.375 . S
C408 N407 1.316 . S
C408 N410 1.347 . S
C408 H419 0.931 . S
C409 N407 1.375 . S
C409 C411 1.350 . S
C409 H418 0.930 . S
N410 C408 1.347 . S
N410 C411 1.373 . S
C411 C409 1.350 . S
C411 N410 1.373 . S
C411 H425 0.931 . S
C412 O415 1.256 . S
C412 O416 1.255 . S
O413 Co396 2.021 1_565 S
O413 C406 1.259 . S
O414 Co398 2.117 . S
O414 C406 1.258 1_545 S
O415 Co398 2.020 . S
O415 C412 1.256 . S
O416 Co396 2.062 . S
O416 C412 1.255 . S
O417 C397 1.259 . S
O417 Co398 2.021 . S
H418 C409 0.930 . S
H419 C408 0.931 . S
O420 Co396 2.117 . S
O420 C397 1.258 . S
O421 Co396 2.020 . S
O421 C423 1.256 . S
O422 Co398 2.062 . S
O422 C423 1.255 . S
C423 O421 1.256 . S
C423 O422 1.255 . S
H424 C403 0.931 . S
H425 C411 0.931 . S
Co426 N431 2.057 . S
Co426 O443 2.021 . S
Co426 O446 2.062 . S
Co426 O450 2.117 . S
Co426 O451 2.020 . S
C427 O447 1.259 . S
C427 O450 1.258 . S
Co428 N437 2.057 . S
Co428 O444 2.117 . S
Co428 O445 2.020 . S
Co428 O447 2.021 . S
Co428 O452 2.062 . S
C429 N431 1.316 . S
C429 N432 1.347 . S
C429 H434 0.931 . S
C430 N431 1.375 . S
C430 C433 1.350 . S
C430 H435 0.930 . S
N431 Co426 2.057 . S
N431 C429 1.316 . S
N431 C430 1.375 . S
N432 C429 1.347 . S
N432 C433 1.373 . S
C433 C430 1.350 . S
C433 N432 1.373 . S
C433 H454 0.931 . S
H434 C429 0.931 . S
H435 C430 0.930 . S
C436 O443 1.259 . S
C436 O444 1.258 . S
N437 Co428 2.057 . S
N437 C438 1.316 . S
N437 C439 1.375 . S
C438 N437 1.316 . S
C438 N440 1.347 . S
C438 H449 0.931 . S
C439 N437 1.375 . S
C439 C441 1.350 . S
C439 H448 0.930 . S
N440 C438 1.347 . S
N440 C441 1.373 . S
C441 C439 1.350 . S
C441 N440 1.373 . S
C441 H455 0.931 . S
C442 O445 1.256 . S
C442 O446 1.255 . S
O443 Co426 2.021 . S
O443 C436 1.259 . S
O444 Co428 2.117 . S
O444 C436 1.258 . S
O445 Co428 2.020 . S
O445 C442 1.256 . S
O446 Co426 2.062 . S
O446 C442 1.255 . S
O447 C427 1.259 . S
O447 Co428 2.021 . S
H448 C439 0.930 . S
H449 C438 0.931 . S
O450 Co426 2.117 . S
O450 C427 1.258 . S
O451 Co426 2.020 . S
O451 C453 1.256 . S
O452 Co428 2.062 . S
O452 C453 1.255 . S
C453 O451 1.256 . S
C453 O452 1.255 . S
H454 C433 0.931 . S
H455 C441 0.931 . S
Co456 N461 2.057 1_545 S
Co456 O473 2.021 . S
Co456 O476 2.051 1_545 S
Co456 O480 2.117 . S
Co456 O481 2.020 1_455 S
C457 O477 1.259 . S
C457 O480 1.258 . S
Co458 N467 2.057 . S
Co458 O474 2.117 . S
Co458 O475 2.020 . S
Co458 O477 2.021 . S
Co458 O482 2.062 1_455 S
C459 N461 1.316 . S
C459 N462 1.347 . S
C459 H464 0.931 . S
C460 N461 1.375 1_655 S
C460 C463 1.350 . S
C460 H465 0.930 . S
N461 Co456 2.057 1_565 S
N461 C459 1.316 . S
N461 C460 1.375 1_455 S
N462 C459 1.347 . S
N462 C463 1.373 1_455 S
C463 C460 1.350 . S
C463 N462 1.373 1_655 S
C463 H484 0.931 . S
H464 C459 0.931 . S
H465 C460 0.930 . S
C466 O473 1.259 . S
C466 O474 1.258 . S
N467 Co458 2.057 . S
N467 C468 1.316 . S
N467 C469 1.375 . S
C468 N467 1.316 . S
C468 N470 1.347 . S
C468 H479 0.931 . S
C469 N467 1.375 . S
C469 C471 1.350 . S
C469 H478 0.930 . S
N470 C468 1.347 . S
N470 C471 1.373 . S
C471 C469 1.350 . S
C471 N470 1.373 . S
C471 H485 0.931 . S
C472 O475 1.256 . S
C472 O476 1.226 1_545 S
O473 Co456 2.021 . S
O473 C466 1.259 . S
O474 Co458 2.117 . S
O474 C466 1.258 . S
O475 Co458 2.020 . S
O475 C472 1.256 . S
O476 Co456 2.051 1_565 S
O476 C472 1.226 1_565 S
O477 C457 1.259 . S
O477 Co458 2.021 . S
H478 C469 0.930 . S
H479 C468 0.931 . S
O480 Co456 2.117 . S
O480 C457 1.258 . S
O481 Co456 2.020 1_655 S
O481 C483 1.256 . S
O482 Co458 2.062 1_655 S
O482 C483 1.255 . S
C483 O481 1.256 . S
C483 O482 1.255 . S
H484 C463 0.931 . S
H485 C471 0.931 . S
Co486 N491 2.057 . S
Co486 O503 2.021 . S
Co486 O506 2.062 . S
Co486 O510 2.117 . S
Co486 O511 2.020 . S
C487 O507 1.259 . S
C487 O510 1.258 . S
Co488 N497 2.057 . S
Co488 O504 2.117 . S
Co488 O505 2.020 . S
Co488 O507 2.021 . S
Co488 O512 2.062 . S
C489 N491 1.316 . S
C489 N492 1.347 . S
C489 H494 0.931 . S
C490 N491 1.375 . S
C490 C493 1.350 . S
C490 H495 0.930 . S
N491 Co486 2.057 . S
N491 C489 1.316 . S
N491 C490 1.375 . S
N492 C489 1.347 . S
N492 C493 1.373 . S
C493 C490 1.350 . S
C493 N492 1.373 . S
C493 H514 0.931 . S
H494 C489 0.931 . S
H495 C490 0.930 . S
C496 O503 1.259 . S
C496 O504 1.258 . S
N497 Co488 2.057 . S
N497 C498 1.316 . S
N497 C499 1.375 . S
C498 N497 1.316 . S
C498 N500 1.347 . S
C498 H509 0.931 . S
C499 N497 1.375 . S
C499 C501 1.350 . S
C499 H508 0.930 . S
N500 C498 1.347 . S
N500 C501 1.373 . S
C501 C499 1.350 . S
C501 N500 1.373 . S
C501 H515 0.931 . S
C502 O505 1.256 . S
C502 O506 1.255 . S
O503 Co486 2.021 . S
O503 C496 1.259 . S
O504 Co488 2.117 . S
O504 C496 1.258 . S
O505 Co488 2.020 . S
O505 C502 1.256 . S
O506 Co486 2.062 . S
O506 C502 1.255 . S
O507 C487 1.259 . S
O507 Co488 2.021 . S
H508 C499 0.930 . S
H509 C498 0.931 . S
O510 Co486 2.117 . S
O510 C487 1.258 . S
O511 Co486 2.020 . S
O511 C513 1.256 . S
O512 Co488 2.062 . S
O512 C513 1.255 . S
C513 O511 1.256 . S
C513 O512 1.255 . S
H514 C493 0.931 . S
H515 C501 0.931 . S
Co516 N521 2.057 1_554 S
Co516 O533 2.021 . S
Co516 O536 2.062 1_554 S
Co516 O540 2.117 . S
Co516 O541 2.020 1_545 S
C517 O537 1.259 . S
C517 O540 1.258 . S
Co518 N527 2.057 . S
Co518 O534 2.117 . S
Co518 O535 2.020 . S
Co518 O537 2.021 . S
Co518 O542 2.062 . S
C519 N521 1.316 . S
C519 N522 1.347 . S
C519 H524 0.931 . S
C520 N521 1.375 . S
C520 C523 1.350 . S
C520 H525 0.930 1_545 S
N521 Co516 2.057 1_556 S
N521 C519 1.316 . S
N521 C520 1.375 . S
N522 C519 1.347 . S
N522 C523 1.373 . S
C523 C520 1.350 . S
C523 N522 1.373 . S
C523 H544 0.931 1_545 S
H524 C519 0.931 . S
H525 C520 0.930 1_565 S
C526 O533 1.259 . S
C526 O534 1.258 . S
N527 Co518 2.057 . S
N527 C528 1.316 . S
N527 C529 1.375 . S
C528 N527 1.316 . S
C528 N530 1.347 . S
C528 H539 0.931 . S
C529 N527 1.375 . S
C529 C531 1.350 . S
C529 H538 0.930 . S
N530 C528 1.347 . S
N530 C531 1.373 . S
C531 C529 1.350 . S
C531 N530 1.373 . S
C531 H545 0.931 . S
C532 O535 1.256 . S
C532 O536 1.255 1_554 S
O533 Co516 2.021 . S
O533 C526 1.259 . S
O534 Co518 2.117 . S
O534 C526 1.258 . S
O535 Co518 2.020 . S
O535 C532 1.256 . S
O536 Co516 2.062 1_556 S
O536 C532 1.255 1_556 S
O537 C517 1.259 . S
O537 Co518 2.021 . S
H538 C529 0.930 . S
H539 C528 0.931 . S
O540 Co516 2.117 . S
O540 C517 1.258 . S
O541 Co516 2.020 1_565 S
O541 C543 1.256 . S
O542 Co518 2.062 . S
O542 C543 1.255 1_545 S
C543 O541 1.256 . S
C543 O542 1.255 1_565 S
H544 C523 0.931 1_565 S
H545 C531 0.931 . S
Co546 N551 2.057 . S
Co546 O563 2.021 . S
Co546 O566 2.062 . S
Co546 O570 2.117 . S
Co546 O571 2.020 . S
C547 O567 1.259 . S
C547 O570 1.258 . S
Co548 N557 2.057 . S
Co548 O564 2.117 . S
Co548 O565 2.020 . S
Co548 O567 2.021 . S
Co548 O572 2.062 . S
C549 N551 1.316 . S
C549 N552 1.347 . S
C549 H554 0.931 . S
C550 N551 1.375 . S
C550 C553 1.350 . S
C550 H555 0.930 . S
N551 Co546 2.057 . S
N551 C549 1.316 . S
N551 C550 1.375 . S
N552 C549 1.347 . S
N552 C553 1.373 . S
C553 C550 1.350 . S
C553 N552 1.373 . S
C553 H574 0.931 . S
H554 C549 0.931 . S
H555 C550 0.930 . S
C556 O563 1.259 . S
C556 O564 1.258 . S
N557 Co548 2.057 . S
N557 C558 1.316 . S
N557 C559 1.375 . S
C558 N557 1.316 . S
C558 N560 1.347 . S
C558 H569 0.931 . S
C559 N557 1.375 . S
C559 C561 1.350 . S
C559 H568 0.930 . S
N560 C558 1.347 . S
N560 C561 1.373 . S
C561 C559 1.350 . S
C561 N560 1.373 . S
C561 H575 0.931 . S
C562 O565 1.256 . S
C562 O566 1.255 . S
O563 Co546 2.021 . S
O563 C556 1.259 . S
O564 Co548 2.117 . S
O564 C556 1.258 . S
O565 Co548 2.020 . S
O565 C562 1.256 . S
O566 Co546 2.062 . S
O566 C562 1.255 . S
O567 C547 1.259 . S
O567 Co548 2.021 . S
H568 C559 0.930 . S
H569 C558 0.931 . S
O570 Co546 2.117 . S
O570 C547 1.258 . S
O571 Co546 2.020 . S
O571 C573 1.256 . S
O572 Co548 2.062 . S
O572 C573 1.255 . S
C573 O571 1.256 . S
C573 O572 1.255 . S
H574 C553 0.931 . S
H575 C561 0.931 . S
Co576 N581 2.057 . S
Co576 O593 2.021 1_554 S
Co576 O596 2.062 . S
Co576 O600 2.117 . S
Co576 O601 2.020 . S
C577 O597 1.259 . S
C577 O600 1.258 . S
Co578 N587 2.057 . S
Co578 O594 2.117 . S
Co578 O595 2.020 . S
Co578 O597 2.021 . S
Co578 O602 2.062 . S
C579 N581 1.316 1_556 S
C579 N582 1.347 1_556 S
C579 H584 0.931 . S
C580 N581 1.375 . S
C580 C583 1.350 . S
C580 H585 0.930 . S
N581 Co576 2.057 . S
N581 C579 1.316 1_554 S
N581 C580 1.375 . S
N582 C579 1.347 1_554 S
N582 C583 1.373 . S
C583 C580 1.350 . S
C583 N582 1.373 . S
C583 H604 0.931 . S
H584 C579 0.931 . S
H585 C580 0.930 . S
C586 O593 1.259 . S
C586 O594 1.258 1_556 S
N587 Co578 2.057 . S
N587 C588 1.316 . S
N587 C589 1.375 . S
C588 N587 1.316 . S
C588 N590 1.347 . S
C588 H599 0.931 . S
C589 N587 1.375 . S
C589 C591 1.350 . S
C589 H598 0.930 . S
N590 C588 1.347 . S
N590 C591 1.373 . S
C591 C589 1.350 . S
C591 N590 1.373 . S
C591 H605 0.931 . S
C592 O595 1.256 . S
C592 O596 1.255 . S
O593 Co576 2.021 1_556 S
O593 C586 1.259 . S
O594 Co578 2.117 . S
O594 C586 1.258 1_554 S
O595 Co578 2.020 . S
O595 C592 1.256 . S
O596 Co576 2.062 . S
O596 C592 1.255 . S
O597 C577 1.259 . S
O597 Co578 2.021 . S
H598 C589 0.930 . S
H599 C588 0.931 . S
O600 Co576 2.117 . S
O600 C577 1.258 . S
O601 Co576 2.020 . S
O601 C603 1.256 . S
O602 Co578 2.062 . S
O602 C603 1.255 . S
C603 O601 1.256 . S
C603 O602 1.255 . S
H604 C583 0.931 . S
H605 C591 0.931 . S
Co606 N611 2.057 . S
Co606 O623 2.021 . S
Co606 O626 2.062 . S
Co606 O630 2.117 . S
Co606 O631 2.020 . S
C607 O627 1.259 . S
C607 O630 1.258 . S
Co608 N617 2.057 . S
Co608 O624 2.117 . S
Co608 O625 2.020 . S
Co608 O627 2.021 . S
Co608 O632 2.062 . S
C609 N611 1.316 . S
C609 N612 1.347 . S
C609 H614 0.931 . S
C610 N611 1.375 . S
C610 C613 1.350 . S
C610 H615 0.930 . S
N611 Co606 2.057 . S
N611 C609 1.316 . S
N611 C610 1.375 . S
N612 C609 1.347 . S
N612 C613 1.373 . S
C613 C610 1.350 . S
C613 N612 1.373 . S
C613 H634 0.931 . S
H614 C609 0.931 . S
H615 C610 0.930 . S
C616 O623 1.259 . S
C616 O624 1.258 . S
N617 Co608 2.057 . S
N617 C618 1.316 . S
N617 C619 1.375 . S
C618 N617 1.316 . S
C618 N620 1.347 . S
C618 H629 0.931 . S
C619 N617 1.375 . S
C619 C621 1.350 . S
C619 H628 0.930 . S
N620 C618 1.347 . S
N620 C621 1.373 . S
C621 C619 1.350 . S
C621 N620 1.373 . S
C621 H635 0.931 . S
C622 O625 1.256 . S
C622 O626 1.255 . S
O623 Co606 2.021 . S
O623 C616 1.259 . S
O624 Co608 2.117 . S
O624 C616 1.258 . S
O625 Co608 2.020 . S
O625 C622 1.256 . S
O626 Co606 2.062 . S
O626 C622 1.255 . S
O627 C607 1.259 . S
O627 Co608 2.021 . S
H628 C619 0.930 . S
H629 C618 0.931 . S
O630 Co606 2.117 . S
O630 C607 1.258 . S
O631 Co606 2.020 . S
O631 C633 1.256 . S
O632 Co608 2.062 . S
O632 C633 1.255 . S
C633 O631 1.256 . S
C633 O632 1.255 . S
H634 C613 0.931 . S
H635 C621 0.931 . S
Co636 N641 2.057 . S
Co636 O653 2.021 1_455 S
Co636 O656 2.062 . S
Co636 O660 2.117 . S
Co636 O661 2.020 . S
C637 O657 1.259 . S
C637 O660 1.258 . S
Co638 N647 2.057 . S
Co638 O654 2.120 . S
Co638 O655 2.020 . S
Co638 O657 2.021 . S
Co638 O662 2.062 . S
C639 N641 1.316 1_655 S
C639 N642 1.351 . S
C639 H644 0.931 . S
C640 N641 1.375 . S
C640 C643 1.350 . S
C640 H645 0.930 . S
N641 Co636 2.057 . S
N641 C639 1.316 1_455 S
N641 C640 1.375 . S
N642 C639 1.351 . S
N642 C643 1.350 1_655 S
C643 C640 1.350 . S
C643 N642 1.350 1_455 S
C643 H664 0.931 . S
H644 C639 0.931 . S
H645 C640 0.930 . S
C646 O653 1.259 . S
C646 O654 1.256 1_655 S
N647 Co638 2.057 . S
N647 C648 1.316 . S
N647 C649 1.375 . S
C648 N647 1.316 . S
C648 N650 1.347 . S
C648 H659 0.931 . S
C649 N647 1.375 . S
C649 C651 1.350 . S
C649 H658 0.930 . S
N650 C648 1.347 . S
N650 C651 1.373 . S
C651 C649 1.350 . S
C651 N650 1.373 . S
C651 H665 0.931 . S
C652 O655 1.256 . S
C652 O656 1.255 . S
O653 Co636 2.021 1_655 S
O653 C646 1.259 . S
O654 Co638 2.120 . S
O654 C646 1.256 1_455 S
O655 Co638 2.020 . S
O655 C652 1.256 . S
O656 Co636 2.062 . S
O656 C652 1.255 . S
O657 C637 1.259 . S
O657 Co638 2.021 . S
H658 C649 0.930 . S
H659 C648 0.931 . S
O660 Co636 2.117 . S
O660 C637 1.258 . S
O661 Co636 2.020 . S
O661 C663 1.256 . S
O662 Co638 2.062 . S
O662 C663 1.255 . S
C663 O661 1.256 . S
C663 O662 1.255 . S
H664 C643 0.931 . S
H665 C651 0.931 . S
Co666 N671 2.057 . S
Co666 O683 2.021 . S
Co666 O686 2.062 . S
Co666 O690 2.117 . S
Co666 O691 2.020 . S
C667 O687 1.259 . S
C667 O690 1.258 . S
Co668 N677 2.057 . S
Co668 O684 2.117 . S
Co668 O685 2.020 . S
Co668 O687 2.021 . S
Co668 O692 2.062 . S
C669 N671 1.316 . S
C669 N672 1.347 . S
C669 H674 0.931 . S
C670 N671 1.375 . S
C670 C673 1.350 . S
C670 H675 0.930 . S
N671 Co666 2.057 . S
N671 C669 1.316 . S
N671 C670 1.375 . S
N672 C669 1.347 . S
N672 C673 1.373 . S
C673 C670 1.350 . S
C673 N672 1.373 . S
C673 H694 0.931 . S
H674 C669 0.931 . S
H675 C670 0.930 . S
C676 O683 1.259 . S
C676 O684 1.258 . S
N677 Co668 2.057 . S
N677 C678 1.316 . S
N677 C679 1.375 . S
C678 N677 1.316 . S
C678 N680 1.347 . S
C678 H689 0.931 . S
C679 N677 1.375 . S
C679 C681 1.350 . S
C679 H688 0.930 . S
N680 C678 1.347 . S
N680 C681 1.373 . S
C681 C679 1.350 . S
C681 N680 1.373 . S
C681 H695 0.931 . S
C682 O685 1.256 . S
C682 O686 1.255 . S
O683 Co666 2.021 . S
O683 C676 1.259 . S
O684 Co668 2.117 . S
O684 C676 1.258 . S
O685 Co668 2.020 . S
O685 C682 1.256 . S
O686 Co666 2.062 . S
O686 C682 1.255 . S
O687 C667 1.259 . S
O687 Co668 2.021 . S
H688 C679 0.930 . S
H689 C678 0.931 . S
O690 Co666 2.117 . S
O690 C667 1.258 . S
O691 Co666 2.020 . S
O691 C693 1.256 . S
O692 Co668 2.062 . S
O692 C693 1.255 . S
C693 O691 1.256 . S
C693 O692 1.255 . S
H694 C673 0.931 . S
H695 C681 0.931 . S
Co696 N701 2.057 . S
Co696 O713 2.021 . S
Co696 O716 2.062 . S
Co696 O720 2.117 . S
Co696 O721 2.020 . S
C697 O717 1.259 . S
C697 O720 1.258 . S
Co698 N707 2.057 . S
Co698 O714 2.117 . S
Co698 O715 2.020 . S
Co698 O717 2.021 . S
Co698 O722 2.062 . S
C699 N701 1.316 . S
C699 N702 1.347 . S
C699 H704 0.931 . S
C700 N701 1.375 . S
C700 C703 1.350 . S
C700 H705 0.930 . S
N701 Co696 2.057 . S
N701 C699 1.316 . S
N701 C700 1.375 . S
N702 C699 1.347 . S
N702 C703 1.373 . S
C703 C700 1.350 . S
C703 N702 1.373 . S
C703 H724 0.931 . S
H704 C699 0.931 . S
H705 C700 0.930 . S
C706 O713 1.259 . S
C706 O714 1.258 . S
N707 Co698 2.057 . S
N707 C708 1.316 . S
N707 C709 1.375 . S
C708 N707 1.316 . S
C708 N710 1.347 . S
C708 H719 0.931 . S
C709 N707 1.375 . S
C709 C711 1.350 . S
C709 H718 0.930 . S
N710 C708 1.347 . S
N710 C711 1.373 . S
C711 C709 1.350 . S
C711 N710 1.373 . S
C711 H725 0.931 . S
C712 O715 1.256 . S
C712 O716 1.255 . S
O713 Co696 2.021 . S
O713 C706 1.259 . S
O714 Co698 2.117 . S
O714 C706 1.258 . S
O715 Co698 2.020 . S
O715 C712 1.256 . S
O716 Co696 2.062 . S
O716 C712 1.255 . S
O717 C697 1.259 . S
O717 Co698 2.021 . S
H718 C709 0.930 . S
H719 C708 0.931 . S
O720 Co696 2.117 . S
O720 C697 1.258 . S
O721 Co696 2.020 . S
O721 C723 1.256 . S
O722 Co698 2.062 . S
O722 C723 1.255 . S
C723 O721 1.256 . S
C723 O722 1.255 . S
H724 C703 0.931 . S
H725 C711 0.931 . S
Co726 N731 2.057 . S
Co726 O743 2.021 . S
Co726 O746 2.062 . S
Co726 O750 2.117 . S
Co726 O751 2.020 . S
C727 O747 1.259 . S
C727 O750 1.258 . S
Co728 N737 2.057 . S
Co728 O744 2.117 . S
Co728 O745 2.020 . S
Co728 O747 2.021 . S
Co728 O752 2.062 . S
C729 N731 1.316 . S
C729 N732 1.347 . S
C729 H734 0.931 . S
C730 N731 1.375 . S
C730 C733 1.350 . S
C730 H735 0.930 . S
N731 Co726 2.057 . S
N731 C729 1.316 . S
N731 C730 1.375 . S
N732 C729 1.347 . S
N732 C733 1.373 . S
C733 C730 1.350 . S
C733 N732 1.373 . S
C733 H754 0.931 . S
H734 C729 0.931 . S
H735 C730 0.930 . S
C736 O743 1.259 . S
C736 O744 1.258 . S
N737 Co728 2.057 . S
N737 C738 1.316 . S
N737 C739 1.375 . S
C738 N737 1.316 . S
C738 N740 1.347 . S
C738 H749 0.931 . S
C739 N737 1.375 . S
C739 C741 1.350 . S
C739 H748 0.930 . S
N740 C738 1.347 . S
N740 C741 1.373 . S
C741 C739 1.350 . S
C741 N740 1.373 . S
C741 H755 0.931 . S
C742 O745 1.256 . S
C742 O746 1.255 . S
O743 Co726 2.021 . S
O743 C736 1.259 . S
O744 Co728 2.117 . S
O744 C736 1.258 . S
O745 Co728 2.020 . S
O745 C742 1.256 . S
O746 Co726 2.062 . S
O746 C742 1.255 . S
O747 C727 1.259 . S
O747 Co728 2.021 . S
H748 C739 0.930 . S
H749 C738 0.931 . S
O750 Co726 2.117 . S
O750 C727 1.258 . S
O751 Co726 2.020 . S
O751 C753 1.256 . S
O752 Co728 2.062 . S
O752 C753 1.255 . S
C753 O751 1.256 . S
C753 O752 1.255 . S
H754 C733 0.931 . S
H755 C741 0.931 . S
Co756 N761 2.057 . S
Co756 O773 2.021 . S
Co756 O776 2.062 . S
Co756 O780 2.117 . S
Co756 O781 2.020 . S
C757 O777 1.259 . S
C757 O780 1.258 . S
Co758 N767 2.057 . S
Co758 O774 2.117 . S
Co758 O775 2.020 . S
Co758 O777 2.021 . S
Co758 O782 2.062 . S
C759 N761 1.316 . S
C759 N762 1.347 . S
C759 H764 0.931 . S
C760 N761 1.375 . S
C760 C763 1.350 . S
C760 H765 0.930 . S
N761 Co756 2.057 . S
N761 C759 1.316 . S
N761 C760 1.375 . S
N762 C759 1.347 . S
N762 C763 1.373 . S
C763 C760 1.350 . S
C763 N762 1.373 . S
C763 H784 0.931 . S
H764 C759 0.931 . S
H765 C760 0.930 . S
C766 O773 1.259 . S
C766 O774 1.258 . S
N767 Co758 2.057 . S
N767 C768 1.316 . S
N767 C769 1.375 . S
C768 N767 1.316 . S
C768 N770 1.347 . S
C768 H779 0.931 . S
C769 N767 1.375 . S
C769 C771 1.350 . S
C769 H778 0.930 . S
N770 C768 1.347 . S
N770 C771 1.373 . S
C771 C769 1.350 . S
C771 N770 1.373 . S
C771 H785 0.931 . S
C772 O775 1.256 . S
C772 O776 1.255 . S
O773 Co756 2.021 . S
O773 C766 1.259 . S
O774 Co758 2.117 . S
O774 C766 1.258 . S
O775 Co758 2.020 . S
O775 C772 1.256 . S
O776 Co756 2.062 . S
O776 C772 1.255 . S
O777 C757 1.259 . S
O777 Co758 2.021 . S
H778 C769 0.930 . S
H779 C768 0.931 . S
O780 Co756 2.117 . S
O780 C757 1.258 . S
O781 Co756 2.020 . S
O781 C783 1.256 . S
O782 Co758 2.062 . S
O782 C783 1.255 . S
C783 O781 1.256 . S
C783 O782 1.255 . S
H784 C763 0.931 . S
H785 C771 0.931 . S
Co786 N791 2.057 1_455 S
Co786 O803 2.021 . S
Co786 O806 2.062 1_455 S
Co786 O810 2.117 . S
Co786 O811 2.020 1_554 S
C787 O807 1.259 . S
C787 O810 1.258 . S
Co788 N797 2.057 . S
Co788 O804 2.117 . S
Co788 O805 2.020 . S
Co788 O807 2.021 . S
Co788 O812 2.062 1_554 S
C789 N791 1.316 . S
C789 N792 1.347 . S
C789 H794 0.931 . S
C790 N791 1.381 . S
C790 C793 1.350 . S
C790 H795 0.925 1_554 S
N791 Co786 2.057 1_655 S
N791 C789 1.316 . S
N791 C790 1.381 . S
N792 C789 1.347 . S
N792 C793 1.374 . S
C793 C790 1.350 . S
C793 N792 1.374 . S
C793 H814 0.930 1_554 S
H794 C789 0.931 . S
H795 C790 0.925 1_556 S
C796 O803 1.259 . S
C796 O804 1.258 . S
N797 Co788 2.057 . S
N797 C798 1.316 . S
N797 C799 1.375 . S
C798 N797 1.316 . S
C798 N800 1.347 . S
C798 H809 0.931 . S
C799 N797 1.375 . S
C799 C801 1.350 . S
C799 H808 0.930 . S
N800 C798 1.347 . S
N800 C801 1.373 . S
C801 C799 1.350 . S
C801 N800 1.373 . S
C801 H815 0.931 . S
C802 O805 1.256 . S
C802 O806 1.255 1_455 S
O803 Co786 2.021 . S
O803 C796 1.259 . S
O804 Co788 2.117 . S
O804 C796 1.258 . S
O805 Co788 2.020 . S
O805 C802 1.256 . S
O806 Co786 2.062 1_655 S
O806 C802 1.255 1_655 S
O807 C787 1.259 . S
O807 Co788 2.021 . S
H808 C799 0.930 . S
H809 C798 0.931 . S
O810 Co786 2.117 . S
O810 C787 1.258 . S
O811 Co786 2.020 1_556 S
O811 C813 1.256 . S
O812 Co788 2.062 1_556 S
O812 C813 1.255 . S
C813 O811 1.256 . S
C813 O812 1.255 . S
H814 C793 0.930 1_556 S
H815 C801 0.931 . S
H816 C822 0.930 . S
H817 C826 0.930 . S
H818 C831 0.929 1_655 S
H819 C829 0.929 . S
H820 C824 0.944 . S
H821 C830 0.929 . S
C822 H816 0.930 . S
C822 C823 1.367 . S
C822 C830 1.378 . S
C823 C822 1.367 . S
C823 C831 1.433 . S
C824 H820 0.944 . S
C824 C826 1.381 . S
C824 C828 1.331 1_655 S
C825 C828 1.463 . S
C825 C830 1.350 . S
C825 N833 1.427 . S
C826 H817 0.930 . S
C826 C824 1.381 . S
C826 C827 1.367 1_655 S
C827 C826 1.367 1_455 S
C827 C829 1.433 . S
C828 C824 1.331 1_455 S
C828 C825 1.463 . S
C828 N832 1.427 . S
C829 H819 0.929 . S
C829 C827 1.433 . S
C829 N832 1.384 . S
C830 H821 0.929 . S
C830 C822 1.378 . S
C830 C825 1.350 . S
C831 H818 0.929 1_455 S
C831 C823 1.433 . S
C831 N833 1.384 . S
N832 C828 1.427 . S
N832 C829 1.384 . S
N833 C825 1.427 . S
N833 C831 1.384 . S
H834 C840 0.930 . S
H835 C844 0.930 . S
H836 C849 0.929 . S
H837 C847 0.929 . S
H838 C842 0.929 . S
H839 C848 0.929 . S
C840 H834 0.930 . S
C840 C841 1.367 . S
C840 C848 1.378 . S
C841 C840 1.367 . S
C841 C849 1.433 . S
C842 H838 0.929 . S
C842 C844 1.378 . S
C842 C846 1.350 . S
C843 C846 1.463 . S
C843 C848 1.350 . S
C843 N851 1.427 . S
C844 H835 0.930 . S
C844 C842 1.378 . S
C844 C845 1.367 . S
C845 C844 1.367 . S
C845 C847 1.433 . S
C846 C842 1.350 . S
C846 C843 1.463 . S
C846 N850 1.427 . S
C847 H837 0.929 . S
C847 C845 1.433 . S
C847 N850 1.384 . S
C848 H839 0.929 . S
C848 C840 1.378 . S
C848 C843 1.350 . S
C849 H836 0.929 . S
C849 C841 1.433 . S
C849 N851 1.384 . S
N850 C846 1.427 . S
N850 C847 1.384 . S
N851 C843 1.427 . S
N851 C849 1.384 . S
H852 C858 0.930 . S
H853 C862 0.930 . S
H854 C867 0.929 . S
H855 C865 0.929 . S
H856 C860 0.929 . S
H857 C866 0.929 . S
C858 H852 0.930 . S
C858 C859 1.367 . S
C858 C866 1.378 . S
C859 C858 1.367 . S
C859 C867 1.433 . S
C860 H856 0.929 . S
C860 C862 1.378 . S
C860 C864 1.350 . S
C861 C864 1.463 . S
C861 C866 1.350 . S
C861 N869 1.427 . S
C862 H853 0.930 . S
C862 C860 1.378 . S
C862 C863 1.367 . S
C863 C862 1.367 . S
C863 C865 1.433 . S
C864 C860 1.350 . S
C864 C861 1.463 . S
C864 N868 1.427 . S
C865 H855 0.929 . S
C865 C863 1.433 . S
C865 N868 1.384 . S
C866 H857 0.929 . S
C866 C858 1.378 . S
C866 C861 1.350 . S
C867 H854 0.929 . S
C867 C859 1.433 . S
C867 N869 1.384 . S
N868 C864 1.427 . S
N868 C865 1.384 . S
N869 C861 1.427 . S
N869 C867 1.384 . S
H870 C876 0.930 . S
H871 C880 0.930 . S
H872 C885 0.929 . S
H873 C883 0.929 . S
H874 C878 0.929 . S
H875 C884 0.929 . S
C876 H870 0.930 . S
C876 C877 1.367 . S
C876 C884 1.378 . S
C877 C876 1.367 . S
C877 C885 1.433 . S
C878 H874 0.929 . S
C878 C880 1.378 . S
C878 C882 1.350 . S
C879 C882 1.463 . S
C879 C884 1.350 . S
C879 N887 1.427 . S
C880 H871 0.930 . S
C880 C878 1.378 . S
C880 C881 1.367 . S
C881 C880 1.367 . S
C881 C883 1.433 . S
C882 C878 1.350 . S
C882 C879 1.463 . S
C882 N886 1.427 . S
C883 H873 0.929 . S
C883 C881 1.433 . S
C883 N886 1.384 . S
C884 H875 0.929 . S
C884 C876 1.378 . S
C884 C879 1.350 . S
C885 H872 0.929 . S
C885 C877 1.433 . S
C885 N887 1.384 . S
N886 C882 1.427 . S
N886 C883 1.384 . S
N887 C879 1.427 . S
N887 C885 1.384 . S
H888 C894 0.930 . S
H889 C898 0.930 1_655 S
H890 C903 0.929 . S
H891 C901 0.929 . S
H892 C896 0.929 . S
H893 C902 0.929 . S
C894 H888 0.930 . S
C894 C895 1.367 . S
C894 C902 1.378 . S
C895 C894 1.367 . S
C895 C903 1.433 . S
C896 H892 0.929 . S
C896 C898 1.378 . S
C896 C900 1.350 . S
C897 C900 1.463 . S
C897 C902 1.350 . S
C897 N905 1.427 . S
C898 H889 0.930 1_455 S
C898 C896 1.378 . S
C898 C899 1.367 . S
C899 C898 1.367 . S
C899 C901 1.433 . S
C900 C896 1.350 . S
C900 C897 1.463 . S
C900 N904 1.427 . S
C901 H891 0.929 . S
C901 C899 1.433 . S
C901 N904 1.384 . S
C902 H893 0.929 . S
C902 C894 1.378 . S
C902 C897 1.350 . S
C903 H890 0.929 . S
C903 C895 1.433 . S
C903 N905 1.384 . S
N904 C900 1.427 . S
N904 C901 1.384 . S
N905 C897 1.427 . S
N905 C903 1.384 . S
H906 C912 0.930 . S
H907 C916 0.930 . S
H908 C921 0.929 . S
H909 C919 0.929 . S
H910 C914 0.929 . S
H911 C920 0.929 . S
C912 H906 0.930 . S
C912 C913 1.367 . S
C912 C920 1.378 . S
C913 C912 1.367 . S
C913 C921 1.433 . S
C914 H910 0.929 . S
C914 C916 1.378 . S
C914 C918 1.350 . S
C915 C918 1.463 . S
C915 C920 1.350 . S
C915 N923 1.427 . S
C916 H907 0.930 . S
C916 C914 1.378 . S
C916 C917 1.367 . S
C917 C916 1.367 . S
C917 C919 1.433 . S
C918 C914 1.350 . S
C918 C915 1.463 . S
C918 N922 1.427 . S
C919 H909 0.929 . S
C919 C917 1.433 . S
C919 N922 1.384 . S
C920 H911 0.929 . S
C920 C912 1.378 . S
C920 C915 1.350 . S
C921 H908 0.929 . S
C921 C913 1.433 . S
C921 N923 1.384 . S
N922 C918 1.427 . S
N922 C919 1.384 . S
N923 C915 1.427 . S
N923 C921 1.384 . S
H924 C930 0.930 . S
H925 C934 0.930 . S
H926 C939 0.929 . S
H927 C937 0.929 . S
H928 C932 0.929 . S
H929 C938 0.929 . S
C930 H924 0.930 . S
C930 C931 1.367 . S
C930 C938 1.378 . S
C931 C930 1.367 . S
C931 C939 1.433 . S
C932 H928 0.929 . S
C932 C934 1.378 . S
C932 C936 1.350 . S
C933 C936 1.463 . S
C933 C938 1.350 . S
C933 N941 1.427 . S
C934 H925 0.930 . S
C934 C932 1.378 . S
C934 C935 1.344 1_556 S
C935 C934 1.344 1_554 S
C935 C937 1.439 . S
C936 C932 1.350 . S
C936 C933 1.463 . S
C936 N940 1.427 . S
C937 H927 0.929 . S
C937 C935 1.439 . S
C937 N940 1.384 1_554 S
C938 H929 0.929 . S
C938 C930 1.378 . S
C938 C933 1.350 . S
C939 H926 0.929 . S
C939 C931 1.433 . S
C939 N941 1.384 . S
N940 C936 1.427 . S
N940 C937 1.384 1_556 S
N941 C933 1.427 . S
N941 C939 1.384 . S
H942 C948 0.930 . S
H943 C952 0.930 . S
H944 C957 0.929 . S
H945 C955 0.929 . S
H946 C950 0.929 . S
H947 C956 0.929 . S
C948 H942 0.930 . S
C948 C949 1.367 . S
C948 C956 1.378 . S
C949 C948 1.367 . S
C949 C957 1.433 . S
C950 H946 0.929 . S
C950 C952 1.378 . S
C950 C954 1.350 . S
C951 C954 1.463 . S
C951 C956 1.350 . S
C951 N959 1.427 . S
C952 H943 0.930 . S
C952 C950 1.378 . S
C952 C953 1.367 . S
C953 C952 1.367 . S
C953 C955 1.433 . S
C954 C950 1.350 . S
C954 C951 1.463 . S
C954 N958 1.427 . S
C955 H945 0.929 . S
C955 C953 1.433 . S
C955 N958 1.384 . S
C956 H947 0.929 . S
C956 C948 1.378 . S
C956 C951 1.350 . S
C957 H944 0.929 . S
C957 C949 1.433 . S
C957 N959 1.384 . S
N958 C954 1.427 . S
N958 C955 1.384 . S
N959 C951 1.427 . S
N959 C957 1.384 . S
H960 C966 0.930 . S
H961 C970 0.930 . S
H962 C975 0.929 . S
H963 C973 0.929 . S
H964 C968 0.929 . S
H965 C974 0.929 . S
C966 H960 0.930 . S
C966 C967 1.367 . S
C966 C974 1.378 . S
C967 C966 1.367 . S
C967 C975 1.433 1_545 S
C968 H964 0.929 . S
C968 C970 1.378 . S
C968 C972 1.350 1_565 S
C969 C972 1.463 . S
C969 C974 1.350 . S
C969 N977 1.427 1_545 S
C970 H961 0.930 . S
C970 C968 1.378 . S
C970 C971 1.367 1_565 S
C971 C970 1.367 1_545 S
C971 C973 1.433 . S
C972 C968 1.350 1_545 S
C972 C969 1.463 . S
C972 N976 1.427 . S
C973 H963 0.929 . S
C973 C971 1.433 . S
C973 N976 1.384 . S
C974 H965 0.929 . S
C974 C966 1.378 . S
C974 C969 1.350 . S
C975 H962 0.929 . S
C975 C967 1.433 1_565 S
C975 N977 1.384 . S
N976 C972 1.427 . S
N976 C973 1.384 . S
N977 C969 1.427 1_565 S
N977 C975 1.384 . S
H978 C984 0.930 . S
H979 C988 0.930 . S
H980 C993 0.929 . S
H981 C991 0.929 . S
H982 C986 0.929 . S
H983 C992 0.929 . S
C984 H978 0.930 . S
C984 C985 1.367 . S
C984 C992 1.378 . S
C985 C984 1.367 . S
C985 C993 1.433 . S
C986 H982 0.929 . S
C986 C988 1.378 . S
C986 C990 1.350 . S
C987 C990 1.463 . S
C987 C992 1.350 . S
C987 N995 1.427 . S
C988 H979 0.930 . S
C988 C986 1.378 . S
C988 C989 1.367 . S
C989 C988 1.367 . S
C989 C991 1.433 . S
C990 C986 1.350 . S
C990 C987 1.463 . S
C990 N994 1.427 . S
C991 H981 0.929 . S
C991 C989 1.433 . S
C991 N994 1.384 . S
C992 H983 0.929 . S
C992 C984 1.378 . S
C992 C987 1.350 . S
C993 H980 0.929 . S
C993 C985 1.433 . S
C993 N995 1.384 . S
N994 C990 1.427 . S
N994 C991 1.384 . S
N995 C987 1.427 . S
N995 C993 1.384 . S
H996 C1002 0.930 . S
H997 C1006 0.930 . S
H998 C1011 0.929 . S
H999 C1009 0.929 . S
H1000 C1004 0.929 . S
H1001 C1010 0.929 . S
C1002 H996 0.930 . S
C1002 C1003 1.367 . S
C1002 C1010 1.378 . S
C1003 C1002 1.367 . S
C1003 C1011 1.433 . S
C1004 H1000 0.929 . S
C1004 C1006 1.378 . S
C1004 C1008 1.350 . S
C1005 C1008 1.463 . S
C1005 C1010 1.350 . S
C1005 N1013 1.427 . S
C1006 H997 0.930 . S
C1006 C1004 1.378 . S
C1006 C1007 1.367 . S
C1007 C1006 1.367 . S
C1007 C1009 1.433 . S
C1008 C1004 1.350 . S
C1008 C1005 1.463 . S
C1008 N1012 1.427 . S
C1009 H999 0.929 . S
C1009 C1007 1.433 . S
C1009 N1012 1.384 . S
C1010 H1001 0.929 . S
C1010 C1002 1.378 . S
C1010 C1005 1.350 . S
C1011 H998 0.929 . S
C1011 C1003 1.433 . S
C1011 N1013 1.384 . S
N1012 C1008 1.427 . S
N1012 C1009 1.384 . S
N1013 C1005 1.427 . S
N1013 C1011 1.384 . S
H1014 C1020 0.930 . S
H1015 C1024 0.930 . S
H1016 C1029 0.929 . S
H1017 C1027 0.929 . S
H1018 C1022 0.929 . S
H1019 C1028 0.929 . S
C1020 H1014 0.930 . S
C1020 C1021 1.367 . S
C1020 C1028 1.378 . S
C1021 C1020 1.367 . S
C1021 C1029 1.433 . S
C1022 H1018 0.929 . S
C1022 C1024 1.378 . S
C1022 C1026 1.350 . S
C1023 C1026 1.463 . S
C1023 C1028 1.350 . S
C1023 N1031 1.427 . S
C1024 H1015 0.930 . S
C1024 C1022 1.378 . S
C1024 C1025 1.367 . S
C1025 C1024 1.367 . S
C1025 C1027 1.433 . S
C1026 C1022 1.350 . S
C1026 C1023 1.463 . S
C1026 N1030 1.427 . S
C1027 H1017 0.929 . S
C1027 C1025 1.433 . S
C1027 N1030 1.384 . S
C1028 H1019 0.929 . S
C1028 C1020 1.378 . S
C1028 C1023 1.350 . S
C1029 H1016 0.929 . S
C1029 C1021 1.433 . S
C1029 N1031 1.384 . S
N1030 C1026 1.427 . S
N1030 C1027 1.384 . S
N1031 C1023 1.427 . S
N1031 C1029 1.384 . S
H1032 C1038 0.930 . S
H1033 C1042 0.930 . S
H1034 C1047 0.929 . S
H1035 C1045 0.929 . S
H1036 C1040 0.929 . S
H1037 C1046 0.929 . S
C1038 H1032 0.930 . S
C1038 C1039 1.367 . S
C1038 C1046 1.378 . S
C1039 C1038 1.367 . S
C1039 C1047 1.433 . S
C1040 H1036 0.929 . S
C1040 C1042 1.378 . S
C1040 C1044 1.350 . S
C1041 C1044 1.463 . S
C1041 C1046 1.350 . S
C1041 N1049 1.427 . S
C1042 H1033 0.930 . S
C1042 C1040 1.378 . S
C1042 C1043 1.367 . S
C1043 C1042 1.367 . S
C1043 C1045 1.433 . S
C1044 C1040 1.350 . S
C1044 C1041 1.463 . S
C1044 N1048 1.427 . S
C1045 H1035 0.929 . S
C1045 C1043 1.433 . S
C1045 N1048 1.384 . S
C1046 H1037 0.929 . S
C1046 C1038 1.378 . S
C1046 C1041 1.350 . S
C1047 H1034 0.929 . S
C1047 C1039 1.433 . S
C1047 N1049 1.384 . S
N1048 C1044 1.427 . S
N1048 C1045 1.384 . S
N1049 C1041 1.427 . S
N1049 C1047 1.384 . S
H1050 C1056 0.930 . S
H1051 C1060 0.930 . S
H1052 C1065 0.929 . S
H1053 C1063 0.929 . S
H1054 C1058 0.929 . S
H1055 C1064 0.929 . S
C1056 H1050 0.930 . S
C1056 C1057 1.367 . S
C1056 C1064 1.378 . S
C1057 C1056 1.367 . S
C1057 C1065 1.433 . S
C1058 H1054 0.929 . S
C1058 C1060 1.378 . S
C1058 C1062 1.350 . S
C1059 C1062 1.463 . S
C1059 C1064 1.350 . S
C1059 N1067 1.427 . S
C1060 H1051 0.930 . S
C1060 C1058 1.378 . S
C1060 C1061 1.367 . S
C1061 C1060 1.367 . S
C1061 C1063 1.433 . S
C1062 C1058 1.350 . S
C1062 C1059 1.463 . S
C1062 N1066 1.427 . S
C1063 H1053 0.929 . S
C1063 C1061 1.433 . S
C1063 N1066 1.384 . S
C1064 H1055 0.929 . S
C1064 C1056 1.378 . S
C1064 C1059 1.350 . S
C1065 H1052 0.929 . S
C1065 C1057 1.433 . S
C1065 N1067 1.384 . S
N1066 C1062 1.427 . S
N1066 C1063 1.384 . S
N1067 C1059 1.427 . S
N1067 C1065 1.384 . S
H1068 C1074 0.930 . S
H1069 C1078 0.930 . S
H1070 C1083 0.929 . S
H1071 C1081 0.975 . S
H1072 C1076 0.929 . S
H1073 C1082 0.929 . S
C1074 H1068 0.930 . S
C1074 C1075 1.367 . S
C1074 C1082 1.378 . S
C1075 C1074 1.367 . S
C1075 C1083 1.433 . S
C1076 H1072 0.929 . S
C1076 C1078 1.378 . S
C1076 C1080 1.350 . S
C1077 C1080 1.463 . S
C1077 C1082 1.350 . S
C1077 N1085 1.427 . S
C1078 H1069 0.930 . S
C1078 C1076 1.378 . S
C1078 C1079 1.367 . S
C1079 C1078 1.367 . S
C1079 C1081 1.398 1_545 S
C1080 C1076 1.350 . S
C1080 C1077 1.463 . S
C1080 N1084 1.427 . S
C1081 H1071 0.975 . S
C1081 C1079 1.398 1_565 S
C1081 N1084 1.371 1_565 S
C1082 H1073 0.929 . S
C1082 C1074 1.378 . S
C1082 C1077 1.350 . S
C1083 H1070 0.929 . S
C1083 C1075 1.433 . S
C1083 N1085 1.384 . S
N1084 C1080 1.427 . S
N1084 C1081 1.371 1_545 S
N1085 C1077 1.427 . S
N1085 C1083 1.384 . S
H1086 C1092 0.930 . S
H1087 C1096 0.930 . S
H1088 C1101 0.929 . S
H1089 C1099 0.929 . S
H1090 C1094 0.929 . S
H1091 C1100 0.929 . S
C1092 H1086 0.930 . S
C1092 C1093 1.367 . S
C1092 C1100 1.378 . S
C1093 C1092 1.367 . S
C1093 C1101 1.433 . S
C1094 H1090 0.929 . S
C1094 C1096 1.378 . S
C1094 C1098 1.350 . S
C1095 C1098 1.463 . S
C1095 C1100 1.350 . S
C1095 N1103 1.427 . S
C1096 H1087 0.930 . S
C1096 C1094 1.378 . S
C1096 C1097 1.367 . S
C1097 C1096 1.367 . S
C1097 C1099 1.433 . S
C1098 C1094 1.350 . S
C1098 C1095 1.463 . S
C1098 N1102 1.427 . S
C1099 H1089 0.929 . S
C1099 C1097 1.433 . S
C1099 N1102 1.384 . S
C1100 H1091 0.929 . S
C1100 C1092 1.378 . S
C1100 C1095 1.350 . S
C1101 H1088 0.929 . S
C1101 C1093 1.433 . S
C1101 N1103 1.384 . S
N1102 C1098 1.427 . S
N1102 C1099 1.384 . S
N1103 C1095 1.427 . S
N1103 C1101 1.384 . S
H1104 C1110 0.930 1_556 S
H1105 C1114 0.930 . S
H1106 C1119 0.929 . S
H1107 C1117 0.929 . S
H1108 C1112 0.929 . S
H1109 C1118 0.929 1_556 S
C1110 H1104 0.930 1_554 S
C1110 C1111 1.367 . S
C1110 C1118 1.378 . S
C1111 C1110 1.367 . S
C1111 C1119 1.433 . S
C1112 H1108 0.929 . S
C1112 C1114 1.378 . S
C1112 C1116 1.350 . S
C1113 C1116 1.463 . S
C1113 C1118 1.350 . S
C1113 N1121 1.427 . S
C1114 H1105 0.930 . S
C1114 C1112 1.378 . S
C1114 C1115 1.367 . S
C1115 C1114 1.367 . S
C1115 C1117 1.433 1_554 S
C1116 C1112 1.350 . S
C1116 C1113 1.463 . S
C1116 N1120 1.453 . S
C1117 H1107 0.929 . S
C1117 C1115 1.433 1_556 S
C1117 N1120 1.380 1_556 S
C1118 H1109 0.929 1_554 S
C1118 C1110 1.378 . S
C1118 C1113 1.350 . S
C1119 H1106 0.929 . S
C1119 C1111 1.433 . S
C1119 N1121 1.384 . S
N1120 C1116 1.453 . S
N1120 C1117 1.380 1_554 S
N1121 C1113 1.427 . S
N1121 C1119 1.384 . S
H1122 C1128 0.930 . S
H1123 C1132 0.930 . S
H1124 C1137 0.929 . S
H1125 C1135 0.929 . S
H1126 C1130 0.929 . S
H1127 C1136 0.929 . S
C1128 H1122 0.930 . S
C1128 C1129 1.367 . S
C1128 C1136 1.378 . S
C1129 C1128 1.367 . S
C1129 C1137 1.433 . S
C1130 H1126 0.929 . S
C1130 C1132 1.378 . S
C1130 C1134 1.350 . S
C1131 C1134 1.463 . S
C1131 C1136 1.350 . S
C1131 N1139 1.427 . S
C1132 H1123 0.930 . S
C1132 C1130 1.378 . S
C1132 C1133 1.367 . S
C1133 C1132 1.367 . S
C1133 C1135 1.433 . S
C1134 C1130 1.350 . S
C1134 C1131 1.463 . S
C1134 N1138 1.427 . S
C1135 H1125 0.929 . S
C1135 C1133 1.433 . S
C1135 N1138 1.384 . S
C1136 H1127 0.929 . S
C1136 C1128 1.378 . S
C1136 C1131 1.350 . S
C1137 H1124 0.929 . S
C1137 C1129 1.433 . S
C1137 N1139 1.384 . S
N1138 C1134 1.427 . S
N1138 C1135 1.384 . S
N1139 C1131 1.427 . S
N1139 C1137 1.384 . S
H1140 C1146 0.930 . S
H1141 C1150 0.930 . S
H1142 C1155 0.929 . S
H1143 C1153 0.929 . S
H1144 C1148 0.929 . S
H1145 C1154 0.929 . S
C1146 H1140 0.930 . S
C1146 C1147 1.367 . S
C1146 C1154 1.378 . S
C1147 C1146 1.367 . S
C1147 C1155 1.433 . S
C1148 H1144 0.929 . S
C1148 C1150 1.378 . S
C1148 C1152 1.350 . S
C1149 C1152 1.463 . S
C1149 C1154 1.350 . S
C1149 N1157 1.427 . S
C1150 H1141 0.930 . S
C1150 C1148 1.378 . S
C1150 C1151 1.367 . S
C1151 C1150 1.367 . S
C1151 C1153 1.433 . S
C1152 C1148 1.350 . S
C1152 C1149 1.463 . S
C1152 N1156 1.427 . S
C1153 H1143 0.929 . S
C1153 C1151 1.433 . S
C1153 N1156 1.384 . S
C1154 H1145 0.929 . S
C1154 C1146 1.378 . S
C1154 C1149 1.350 . S
C1155 H1142 0.929 . S
C1155 C1147 1.433 . S
C1155 N1157 1.384 . S
N1156 C1152 1.427 . S
N1156 C1153 1.384 . S
N1157 C1149 1.427 . S
N1157 C1155 1.384 . S
H1158 C1164 0.930 . S
H1159 C1168 0.930 . S
H1160 C1173 0.929 . S
H1161 C1171 0.929 . S
H1162 C1166 0.929 . S
H1163 C1172 0.929 . S
C1164 H1158 0.930 . S
C1164 C1165 1.367 . S
C1164 C1172 1.378 . S
C1165 C1164 1.367 . S
C1165 C1173 1.433 . S
C1166 H1162 0.929 . S
C1166 C1168 1.378 . S
C1166 C1170 1.350 . S
C1167 C1170 1.463 . S
C1167 C1172 1.350 . S
C1167 N1175 1.427 . S
C1168 H1159 0.930 . S
C1168 C1166 1.378 . S
C1168 C1169 1.367 . S
C1169 C1168 1.367 . S
C1169 C1171 1.433 . S
C1170 C1166 1.350 . S
C1170 C1167 1.463 . S
C1170 N1174 1.427 . S
C1171 H1161 0.929 . S
C1171 C1169 1.433 . S
C1171 N1174 1.384 . S
C1172 H1163 0.929 . S
C1172 C1164 1.378 . S
C1172 C1167 1.350 . S
C1173 H1160 0.929 . S
C1173 C1165 1.433 . S
C1173 N1175 1.384 . S
N1174 C1170 1.427 . S
N1174 C1171 1.384 . S
N1175 C1167 1.427 . S
N1175 C1173 1.384 . S
H1176 C1182 0.930 . S
H1177 C1186 0.930 . S
H1178 C1191 0.929 . S
H1179 C1189 0.929 . S
H1180 C1184 0.929 . S
H1181 C1190 0.929 . S
C1182 H1176 0.930 . S
C1182 C1183 1.367 . S
C1182 C1190 1.378 . S
C1183 C1182 1.367 . S
C1183 C1191 1.433 . S
C1184 H1180 0.929 . S
C1184 C1186 1.378 . S
C1184 C1188 1.350 . S
C1185 C1188 1.463 . S
C1185 C1190 1.350 . S
C1185 N1193 1.427 . S
C1186 H1177 0.930 . S
C1186 C1184 1.378 . S
C1186 C1187 1.367 . S
C1187 C1186 1.367 . S
C1187 C1189 1.433 . S
C1188 C1184 1.350 . S
C1188 C1185 1.463 . S
C1188 N1192 1.427 . S
C1189 H1179 0.929 . S
C1189 C1187 1.433 . S
C1189 N1192 1.384 . S
C1190 H1181 0.929 . S
C1190 C1182 1.378 . S
C1190 C1185 1.350 . S
C1191 H1178 0.929 . S
C1191 C1183 1.433 . S
C1191 N1193 1.384 . S
N1192 C1188 1.427 . S
N1192 C1189 1.384 . S
N1193 C1185 1.427 . S
N1193 C1191 1.384 . S
H1194 C1200 0.930 . S
H1195 C1204 0.930 . S
H1196 C1209 0.929 . S
H1197 C1207 0.929 . S
H1198 C1202 0.929 . S
H1199 C1208 0.929 . S
C1200 H1194 0.930 . S
C1200 C1201 1.367 . S
C1200 C1208 1.378 . S
C1201 C1200 1.367 . S
C1201 C1209 1.433 . S
C1202 H1198 0.929 . S
C1202 C1204 1.378 . S
C1202 C1206 1.350 . S
C1203 C1206 1.463 . S
C1203 C1208 1.350 . S
C1203 N1211 1.427 . S
C1204 H1195 0.930 . S
C1204 C1202 1.378 . S
C1204 C1205 1.367 . S
C1205 C1204 1.367 . S
C1205 C1207 1.433 1_565 S
C1206 C1202 1.350 . S
C1206 C1203 1.463 . S
C1206 N1210 1.427 . S
C1207 H1197 0.929 . S
C1207 C1205 1.433 1_545 S
C1207 N1210 1.384 1_545 S
C1208 H1199 0.929 . S
C1208 C1200 1.378 . S
C1208 C1203 1.350 . S
C1209 H1196 0.929 . S
C1209 C1201 1.433 . S
C1209 N1211 1.384 . S
N1210 C1206 1.427 . S
N1210 C1207 1.384 1_565 S
N1211 C1203 1.427 . S
N1211 C1209 1.384 . S
H1212 C1218 0.930 . S
H1213 C1222 0.930 . S
H1214 C1227 0.929 . S
H1215 C1225 0.929 . S
H1216 C1220 0.929 . S
H1217 C1226 0.929 . S
C1218 H1212 0.930 . S
C1218 C1219 1.367 . S
C1218 C1226 1.378 . S
C1219 C1218 1.367 . S
C1219 C1227 1.433 . S
C1220 H1216 0.929 . S
C1220 C1222 1.378 . S
C1220 C1224 1.350 . S
C1221 C1224 1.463 . S
C1221 C1226 1.350 . S
C1221 N1229 1.427 . S
C1222 H1213 0.930 . S
C1222 C1220 1.378 . S
C1222 C1223 1.367 . S
C1223 C1222 1.367 . S
C1223 C1225 1.433 . S
C1224 C1220 1.350 . S
C1224 C1221 1.463 . S
C1224 N1228 1.427 . S
C1225 H1215 0.929 . S
C1225 C1223 1.433 . S
C1225 N1228 1.384 . S
C1226 H1217 0.929 . S
C1226 C1218 1.378 . S
C1226 C1221 1.350 . S
C1227 H1214 0.929 . S
C1227 C1219 1.433 . S
C1227 N1229 1.384 . S
N1228 C1224 1.427 . S
N1228 C1225 1.384 . S
N1229 C1221 1.427 . S
N1229 C1227 1.384 . S
H1230 C1236 0.930 . S
H1231 C1240 0.930 . S
H1232 C1245 0.929 . S
H1233 C1243 0.929 . S
H1234 C1238 0.929 . S
H1235 C1244 0.929 . S
C1236 H1230 0.930 . S
C1236 C1237 1.367 . S
C1236 C1244 1.378 . S
C1237 C1236 1.367 . S
C1237 C1245 1.433 . S
C1238 H1234 0.929 . S
C1238 C1240 1.378 . S
C1238 C1242 1.350 . S
C1239 C1242 1.463 . S
C1239 C1244 1.350 . S
C1239 N1247 1.427 . S
C1240 H1231 0.930 . S
C1240 C1238 1.378 . S
C1240 C1241 1.367 . S
C1241 C1240 1.367 . S
C1241 C1243 1.433 . S
C1242 C1238 1.350 . S
C1242 C1239 1.463 . S
C1242 N1246 1.427 . S
C1243 H1233 0.929 . S
C1243 C1241 1.433 . S
C1243 N1246 1.384 . S
C1244 H1235 0.929 . S
C1244 C1236 1.378 . S
C1244 C1239 1.350 . S
C1245 H1232 0.929 . S
C1245 C1237 1.433 . S
C1245 N1247 1.384 . S
N1246 C1242 1.427 . S
N1246 C1243 1.384 . S
N1247 C1239 1.427 . S
N1247 C1245 1.384 . S
H1248 C1254 0.930 . S
H1249 C1258 0.930 . S
H1250 C1263 0.929 1_655 S
H1251 C1261 0.929 1_554 S
H1252 C1256 0.894 1_655 S
H1253 C1262 0.929 . S
C1254 H1248 0.930 . S
C1254 C1255 1.367 . S
C1254 C1262 1.378 . S
C1255 C1254 1.367 . S
C1255 C1263 1.433 . S
C1256 H1252 0.894 1_455 S
C1256 C1258 1.378 . S
C1256 C1260 1.350 . S
C1257 C1260 1.463 . S
C1257 C1262 1.350 . S
C1257 N1265 1.427 . S
C1258 H1249 0.930 . S
C1258 C1256 1.378 . S
C1258 C1259 1.367 . S
C1259 C1258 1.367 . S
C1259 C1261 1.433 . S
C1260 C1256 1.350 . S
C1260 C1257 1.463 . S
C1260 N1264 1.427 . S
C1261 H1251 0.929 1_556 S
C1261 C1259 1.433 . S
C1261 N1264 1.384 . S
C1262 H1253 0.929 . S
C1262 C1254 1.378 . S
C1262 C1257 1.350 . S
C1263 H1250 0.929 1_455 S
C1263 C1255 1.433 . S
C1263 N1265 1.384 . S
N1264 C1260 1.427 . S
N1264 C1261 1.384 . S
N1265 C1257 1.427 . S
N1265 C1263 1.384 . S
H1266 C1272 0.930 . S
H1267 C1276 0.930 . S
H1268 C1281 0.929 . S
H1269 C1279 0.929 . S
H1270 C1274 0.929 . S
H1271 C1280 0.929 . S
C1272 H1266 0.930 . S
C1272 C1273 1.367 . S
C1272 C1280 1.378 . S
C1273 C1272 1.367 . S
C1273 C1281 1.433 . S
C1274 H1270 0.929 . S
C1274 C1276 1.378 . S
C1274 C1278 1.350 . S
C1275 C1278 1.463 . S
C1275 C1280 1.350 . S
C1275 N1283 1.427 . S
C1276 H1267 0.930 . S
C1276 C1274 1.378 . S
C1276 C1277 1.367 . S
C1277 C1276 1.367 . S
C1277 C1279 1.433 . S
C1278 C1274 1.350 . S
C1278 C1275 1.463 . S
C1278 N1282 1.427 . S
C1279 H1269 0.929 . S
C1279 C1277 1.433 . S
C1279 N1282 1.384 . S
C1280 H1271 0.929 . S
C1280 C1272 1.378 . S
C1280 C1275 1.350 . S
C1281 H1268 0.929 . S
C1281 C1273 1.433 . S
C1281 N1283 1.384 . S
N1282 C1278 1.427 . S
N1282 C1279 1.384 . S
N1283 C1275 1.427 . S
N1283 C1281 1.384 . S
H1284 C1290 0.930 . S
H1285 C1294 0.930 . S
H1286 C1299 0.929 . S
H1287 C1297 0.929 . S
H1288 C1292 0.929 . S
H1289 C1298 0.929 . S
C1290 H1284 0.930 . S
C1290 C1291 1.367 . S
C1290 C1298 1.378 . S
C1291 C1290 1.367 . S
C1291 C1299 1.433 . S
C1292 H1288 0.929 . S
C1292 C1294 1.378 . S
C1292 C1296 1.350 . S
C1293 C1296 1.463 . S
C1293 C1298 1.350 . S
C1293 N1301 1.427 . S
C1294 H1285 0.930 . S
C1294 C1292 1.378 . S
C1294 C1295 1.367 . S
C1295 C1294 1.367 . S
C1295 C1297 1.433 . S
C1296 C1292 1.350 . S
C1296 C1293 1.463 . S
C1296 N1300 1.427 . S
C1297 H1287 0.929 . S
C1297 C1295 1.433 . S
C1297 N1300 1.384 . S
C1298 H1289 0.929 . S
C1298 C1290 1.378 . S
C1298 C1293 1.350 . S
C1299 H1286 0.929 . S
C1299 C1291 1.433 . S
C1299 N1301 1.384 . S
N1300 C1296 1.427 . S
N1300 C1297 1.384 . S
N1301 C1293 1.427 . S
N1301 C1299 1.384 . S
H1302 C1308 0.930 . S
H1303 C1312 0.930 . S
H1304 C1317 0.929 . S
H1305 C1315 0.929 . S
H1306 C1310 0.929 . S
H1307 C1316 0.929 . S
C1308 H1302 0.930 . S
C1308 C1309 1.367 . S
C1308 C1316 1.378 . S
C1309 C1308 1.367 . S
C1309 C1317 1.433 . S
C1310 H1306 0.929 . S
C1310 C1312 1.378 . S
C1310 C1314 1.350 . S
C1311 C1314 1.463 . S
C1311 C1316 1.350 . S
C1311 N1319 1.427 . S
C1312 H1303 0.930 . S
C1312 C1310 1.378 . S
C1312 C1313 1.367 . S
C1313 C1312 1.367 . S
C1313 C1315 1.433 . S
C1314 C1310 1.350 . S
C1314 C1311 1.463 . S
C1314 N1318 1.427 . S
C1315 H1305 0.929 . S
C1315 C1313 1.433 . S
C1315 N1318 1.384 . S
C1316 H1307 0.929 . S
C1316 C1308 1.378 . S
C1316 C1311 1.350 . S
C1317 H1304 0.929 . S
C1317 C1309 1.433 . S
C1317 N1319 1.384 . S
N1318 C1314 1.427 . S
N1318 C1315 1.384 . S
N1319 C1311 1.427 . S
N1319 C1317 1.384 . S
H1320 C1326 0.930 . S
H1321 C1330 0.930 . S
H1322 C1335 0.929 . S
H1323 C1333 0.929 . S
H1324 C1328 0.929 . S
H1325 C1334 0.929 . S
C1326 H1320 0.930 . S
C1326 C1327 1.367 . S
C1326 C1334 1.378 . S
C1327 C1326 1.367 . S
C1327 C1335 1.433 1_455 S
C1328 H1324 0.929 . S
C1328 C1330 1.378 . S
C1328 C1332 1.350 . S
C1329 C1332 1.463 . S
C1329 C1334 1.350 . S
C1329 N1337 1.416 1_455 S
C1330 H1321 0.930 . S
C1330 C1328 1.378 . S
C1330 C1331 1.367 . S
C1331 C1330 1.367 . S
C1331 C1333 1.433 . S
C1332 C1328 1.350 . S
C1332 C1329 1.463 . S
C1332 N1336 1.427 . S
C1333 H1323 0.929 . S
C1333 C1331 1.433 . S
C1333 N1336 1.384 . S
C1334 H1325 0.929 . S
C1334 C1326 1.378 . S
C1334 C1329 1.350 . S
C1335 H1322 0.929 . S
C1335 C1327 1.433 1_655 S
C1335 N1337 1.388 . S
N1336 C1332 1.427 . S
N1336 C1333 1.384 . S
N1337 C1329 1.416 1_655 S
N1337 C1335 1.388 . S
H1338 C1344 0.930 . S
H1339 C1348 0.930 . S
H1340 C1353 0.929 . S
H1341 C1351 0.929 . S
H1342 C1346 0.929 . S
H1343 C1352 0.929 . S
C1344 H1338 0.930 . S
C1344 C1345 1.367 . S
C1344 C1352 1.378 . S
C1345 C1344 1.367 . S
C1345 C1353 1.433 . S
C1346 H1342 0.929 . S
C1346 C1348 1.378 . S
C1346 C1350 1.350 . S
C1347 C1350 1.463 . S
C1347 C1352 1.350 . S
C1347 N1355 1.427 . S
C1348 H1339 0.930 . S
C1348 C1346 1.378 . S
C1348 C1349 1.367 . S
C1349 C1348 1.367 . S
C1349 C1351 1.433 . S
C1350 C1346 1.350 . S
C1350 C1347 1.463 . S
C1350 N1354 1.427 . S
C1351 H1341 0.929 . S
C1351 C1349 1.433 . S
C1351 N1354 1.384 . S
C1352 H1343 0.929 . S
C1352 C1344 1.378 . S
C1352 C1347 1.350 . S
C1353 H1340 0.929 . S
C1353 C1345 1.433 . S
C1353 N1355 1.384 . S
N1354 C1350 1.427 . S
N1354 C1351 1.384 . S
N1355 C1347 1.427 . S
N1355 C1353 1.384 . S
H1356 C1362 0.930 . S
H1357 C1366 0.930 . S
H1358 C1371 0.929 . S
H1359 C1369 0.929 . S
H1360 C1364 0.929 . S
H1361 C1370 0.929 . S
C1362 H1356 0.930 . S
C1362 C1363 1.367 . S
C1362 C1370 1.378 . S
C1363 C1362 1.367 . S
C1363 C1371 1.433 . S
C1364 H1360 0.929 . S
C1364 C1366 1.378 . S
C1364 C1368 1.350 . S
C1365 C1368 1.463 . S
C1365 C1370 1.350 . S
C1365 N1373 1.427 . S
C1366 H1357 0.930 . S
C1366 C1364 1.378 . S
C1366 C1367 1.367 . S
C1367 C1366 1.367 . S
C1367 C1369 1.433 . S
C1368 C1364 1.350 . S
C1368 C1365 1.463 . S
C1368 N1372 1.427 . S
C1369 H1359 0.929 . S
C1369 C1367 1.433 . S
C1369 N1372 1.384 . S
C1370 H1361 0.929 . S
C1370 C1362 1.378 . S
C1370 C1365 1.350 . S
C1371 H1358 0.929 . S
C1371 C1363 1.433 . S
C1371 N1373 1.384 . S
N1372 C1368 1.427 . S
N1372 C1369 1.384 . S
N1373 C1365 1.427 . S
N1373 C1371 1.384 . S
H1374 C1380 0.930 . S
H1375 C1384 0.930 . S
H1376 C1389 0.929 . S
H1377 C1387 0.929 . S
H1378 C1382 0.929 . S
H1379 C1388 0.929 . S
C1380 H1374 0.930 . S
C1380 C1381 1.367 . S
C1380 C1388 1.378 . S
C1381 C1380 1.367 . S
C1381 C1389 1.433 . S
C1382 H1378 0.929 . S
C1382 C1384 1.378 . S
C1382 C1386 1.350 . S
C1383 C1386 1.463 . S
C1383 C1388 1.350 . S
C1383 N1391 1.427 . S
C1384 H1375 0.930 . S
C1384 C1382 1.378 . S
C1384 C1385 1.367 . S
C1385 C1384 1.367 . S
C1385 C1387 1.433 . S
C1386 C1382 1.350 . S
C1386 C1383 1.463 . S
C1386 N1390 1.427 . S
C1387 H1377 0.929 . S
C1387 C1385 1.433 . S
C1387 N1390 1.384 . S
C1388 H1379 0.929 . S
C1388 C1380 1.378 . S
C1388 C1383 1.350 . S
C1389 H1376 0.929 . S
C1389 C1381 1.433 . S
C1389 N1391 1.384 . S
N1390 C1386 1.427 . S
N1390 C1387 1.384 . S
N1391 C1383 1.427 . S
N1391 C1389 1.384 . S
H1392 C1398 0.930 . S
H1393 C1402 0.930 1_455 S
H1394 C1407 0.929 . S
H1395 C1405 0.929 . S
H1396 C1400 0.929 . S
H1397 C1406 0.929 . S
C1398 H1392 0.930 . S
C1398 C1399 1.367 . S
C1398 C1406 1.378 . S
C1399 C1398 1.367 . S
C1399 C1407 1.433 . S
C1400 H1396 0.929 . S
C1400 C1402 1.378 . S
C1400 C1404 1.350 . S
C1401 C1404 1.463 . S
C1401 C1406 1.350 . S
C1401 N1409 1.427 . S
C1402 H1393 0.930 1_655 S
C1402 C1400 1.378 . S
C1402 C1403 1.367 . S
C1403 C1402 1.367 . S
C1403 C1405 1.433 . S
C1404 C1400 1.350 . S
C1404 C1401 1.463 . S
C1404 N1408 1.427 . S
C1405 H1395 0.929 . S
C1405 C1403 1.433 . S
C1405 N1408 1.384 . S
C1406 H1397 0.929 . S
C1406 C1398 1.378 . S
C1406 C1401 1.350 . S
C1407 H1394 0.929 . S
C1407 C1399 1.433 . S
C1407 N1409 1.384 . S
N1408 C1404 1.427 . S
N1408 C1405 1.384 . S
N1409 C1401 1.427 . S
N1409 C1407 1.384 . S
H1410 C1416 0.930 . S
H1411 C1420 0.930 . S
H1412 C1425 0.929 . S
H1413 C1423 0.929 . S
H1414 C1418 0.929 . S
H1415 C1424 0.929 . S
C1416 H1410 0.930 . S
C1416 C1417 1.367 . S
C1416 C1424 1.378 . S
C1417 C1416 1.367 . S
C1417 C1425 1.433 . S
C1418 H1414 0.929 . S
C1418 C1420 1.378 . S
C1418 C1422 1.350 . S
C1419 C1422 1.463 . S
C1419 C1424 1.350 . S
C1419 N1427 1.427 . S
C1420 H1411 0.930 . S
C1420 C1418 1.378 . S
C1420 C1421 1.367 . S
C1421 C1420 1.367 . S
C1421 C1423 1.433 . S
C1422 C1418 1.350 . S
C1422 C1419 1.463 . S
C1422 N1426 1.427 . S
C1423 H1413 0.929 . S
C1423 C1421 1.433 . S
C1423 N1426 1.384 . S
C1424 H1415 0.929 . S
C1424 C1416 1.378 . S
C1424 C1419 1.350 . S
C1425 H1412 0.929 . S
C1425 C1417 1.433 . S
C1425 N1427 1.384 . S
N1426 C1422 1.427 . S
N1426 C1423 1.384 . S
N1427 C1419 1.427 . S
N1427 C1425 1.384 . S
H1428 C1434 0.930 . S
H1429 C1438 0.930 . S
H1430 C1443 0.929 . S
H1431 C1441 0.929 . S
H1432 C1436 0.929 . S
H1433 C1442 0.929 . S
C1434 H1428 0.930 . S
C1434 C1435 1.367 1_565 S
C1434 C1442 1.378 . S
C1435 C1434 1.367 1_545 S
C1435 C1443 1.433 . S
C1436 H1432 0.929 . S
C1436 C1438 1.378 . S
C1436 C1440 1.350 . S
C1437 C1440 1.463 . S
C1437 C1442 1.350 1_545 S
C1437 N1445 1.427 . S
C1438 H1429 0.930 . S
C1438 C1436 1.378 . S
C1438 C1439 1.367 . S
C1439 C1438 1.367 . S
C1439 C1441 1.433 1_545 S
C1440 C1436 1.350 . S
C1440 C1437 1.463 . S
C1440 N1444 1.427 1_545 S
C1441 H1431 0.929 . S
C1441 C1439 1.433 1_565 S
C1441 N1444 1.384 . S
C1442 H1433 0.929 . S
C1442 C1434 1.378 . S
C1442 C1437 1.350 1_565 S
C1443 H1430 0.929 . S
C1443 C1435 1.433 . S
C1443 N1445 1.384 . S
N1444 C1440 1.427 1_565 S
N1444 C1441 1.384 . S
N1445 C1437 1.427 . S
N1445 C1443 1.384 . S
H1446 C1452 0.930 . S
H1447 C1456 0.930 . S
H1448 C1461 0.929 . S
H1449 C1459 0.929 . S
H1450 C1454 0.929 . S
H1451 C1460 0.929 . S
C1452 H1446 0.930 . S
C1452 C1453 1.367 . S
C1452 C1460 1.378 . S
C1453 C1452 1.367 . S
C1453 C1461 1.433 . S
C1454 H1450 0.929 . S
C1454 C1456 1.378 . S
C1454 C1458 1.350 . S
C1455 C1458 1.463 . S
C1455 C1460 1.350 . S
C1455 N1463 1.427 . S
C1456 H1447 0.930 . S
C1456 C1454 1.378 . S
C1456 C1457 1.367 . S
C1457 C1456 1.367 . S
C1457 C1459 1.433 . S
C1458 C1454 1.350 . S
C1458 C1455 1.463 . S
C1458 N1462 1.427 . S
C1459 H1449 0.929 . S
C1459 C1457 1.433 . S
C1459 N1462 1.384 . S
C1460 H1451 0.929 . S
C1460 C1452 1.378 . S
C1460 C1455 1.350 . S
C1461 H1448 0.929 . S
C1461 C1453 1.433 . S
C1461 N1463 1.384 . S
N1462 C1458 1.427 . S
N1462 C1459 1.384 . S
N1463 C1455 1.427 . S
N1463 C1461 1.384 . S
H1464 C1470 0.930 . S
H1465 C1474 0.930 1_565 S
H1466 C1479 0.929 . S
H1467 C1477 0.929 1_455 S
H1468 C1472 0.929 . S
H1469 C1478 0.929 . S
C1470 H1464 0.930 . S
C1470 C1471 1.367 . S
C1470 C1478 1.378 . S
C1471 C1470 1.367 . S
C1471 C1479 1.433 . S
C1472 H1468 0.929 . S
C1472 C1474 1.378 . S
C1472 C1476 1.350 . S
C1473 C1476 1.463 . S
C1473 C1478 1.350 . S
C1473 N1481 1.427 . S
C1474 H1465 0.930 1_545 S
C1474 C1472 1.378 . S
C1474 C1475 1.367 . S
C1475 C1474 1.367 . S
C1475 C1477 1.433 . S
C1476 C1472 1.350 . S
C1476 C1473 1.463 . S
C1476 N1480 1.427 . S
C1477 H1467 0.929 1_655 S
C1477 C1475 1.433 . S
C1477 N1480 1.384 . S
C1478 H1469 0.929 . S
C1478 C1470 1.378 . S
C1478 C1473 1.350 . S
C1479 H1466 0.929 . S
C1479 C1471 1.433 . S
C1479 N1481 1.384 . S
N1480 C1476 1.427 . S
N1480 C1477 1.384 . S
N1481 C1473 1.427 . S
N1481 C1479 1.384 . S
H1482 C1488 0.930 . S
H1483 C1492 0.930 . S
H1484 C1497 0.929 . S
H1485 C1495 0.929 . S
H1486 C1490 0.929 . S
H1487 C1496 0.929 . S
C1488 H1482 0.930 . S
C1488 C1489 1.367 . S
C1488 C1496 1.378 . S
C1489 C1488 1.367 . S
C1489 C1497 1.433 . S
C1490 H1486 0.929 . S
C1490 C1492 1.378 . S
C1490 C1494 1.350 . S
C1491 C1494 1.463 . S
C1491 C1496 1.350 . S
C1491 N1499 1.427 . S
C1492 H1483 0.930 . S
C1492 C1490 1.378 . S
C1492 C1493 1.367 . S
C1493 C1492 1.367 . S
C1493 C1495 1.433 . S
C1494 C1490 1.350 . S
C1494 C1491 1.463 . S
C1494 N1498 1.427 . S
C1495 H1485 0.929 . S
C1495 C1493 1.433 . S
C1495 N1498 1.384 . S
C1496 H1487 0.929 . S
C1496 C1488 1.378 . S
C1496 C1491 1.350 . S
C1497 H1484 0.929 . S
C1497 C1489 1.433 . S
C1497 N1499 1.384 . S
N1498 C1494 1.427 . S
N1498 C1495 1.384 . S
N1499 C1491 1.427 . S
N1499 C1497 1.384 . S
H1500 C1506 0.930 . S
H1501 C1510 0.930 . S
H1502 C1515 0.929 . S
H1503 C1513 0.929 . S
H1504 C1508 0.929 1_565 S
H1505 C1514 0.929 . S
C1506 H1500 0.930 . S
C1506 C1507 1.367 . S
C1506 C1514 1.378 . S
C1507 C1506 1.367 . S
C1507 C1515 1.433 1_545 S
C1508 H1504 0.929 1_545 S
C1508 C1510 1.378 . S
C1508 C1512 1.350 . S
C1509 C1512 1.463 . S
C1509 C1514 1.350 . S
C1509 N1517 1.427 1_545 S
C1510 H1501 0.930 . S
C1510 C1508 1.378 . S
C1510 C1511 1.367 . S
C1511 C1510 1.367 . S
C1511 C1513 1.433 . S
C1512 C1508 1.350 . S
C1512 C1509 1.463 . S
C1512 N1516 1.427 . S
C1513 H1503 0.929 . S
C1513 C1511 1.433 . S
C1513 N1516 1.384 . S
C1514 H1505 0.929 . S
C1514 C1506 1.378 . S
C1514 C1509 1.350 . S
C1515 H1502 0.929 . S
C1515 C1507 1.433 1_565 S
C1515 N1517 1.384 . S
N1516 C1512 1.427 . S
N1516 C1513 1.384 . S
N1517 C1509 1.427 1_565 S
N1517 C1515 1.384 . S
H1518 C1524 0.930 . S
H1519 C1528 0.930 . S
H1520 C1533 0.929 . S
H1521 C1531 0.929 . S
H1522 C1526 0.929 . S
H1523 C1532 0.929 . S
C1524 H1518 0.930 . S
C1524 C1525 1.367 . S
C1524 C1532 1.378 . S
C1525 C1524 1.367 . S
C1525 C1533 1.433 . S
C1526 H1522 0.929 . S
C1526 C1528 1.378 . S
C1526 C1530 1.350 . S
C1527 C1530 1.463 . S
C1527 C1532 1.350 . S
C1527 N1535 1.427 . S
C1528 H1519 0.930 . S
C1528 C1526 1.378 . S
C1528 C1529 1.367 . S
C1529 C1528 1.367 . S
C1529 C1531 1.433 . S
C1530 C1526 1.350 . S
C1530 C1527 1.463 . S
C1530 N1534 1.427 . S
C1531 H1521 0.929 . S
C1531 C1529 1.433 . S
C1531 N1534 1.384 . S
C1532 H1523 0.929 . S
C1532 C1524 1.378 . S
C1532 C1527 1.350 . S
C1533 H1520 0.929 . S
C1533 C1525 1.433 . S
C1533 N1535 1.384 . S
N1534 C1530 1.427 . S
N1534 C1531 1.384 . S
N1535 C1527 1.427 . S
N1535 C1533 1.384 . S
H1536 C1542 0.930 1_556 S
H1537 C1546 0.930 . S
H1538 C1551 0.929 . S
H1539 C1549 0.929 . S
H1540 C1544 0.929 . S
H1541 C1550 0.947 . S
C1542 H1536 0.930 1_554 S
C1542 C1543 1.367 . S
C1542 C1550 1.378 . S
C1543 C1542 1.367 . S
C1543 C1551 1.433 . S
C1544 H1540 0.929 . S
C1544 C1546 1.378 . S
C1544 C1548 1.350 . S
C1545 C1548 1.463 . S
C1545 C1550 1.350 . S
C1545 N1553 1.427 . S
C1546 H1537 0.930 . S
C1546 C1544 1.378 . S
C1546 C1547 1.367 1_565 S
C1547 C1546 1.367 1_545 S
C1547 C1549 1.433 . S
C1548 C1544 1.350 . S
C1548 C1545 1.463 . S
C1548 N1552 1.427 . S
C1549 H1539 0.929 . S
C1549 C1547 1.433 . S
C1549 N1552 1.384 1_545 S
C1550 H1541 0.947 . S
C1550 C1542 1.378 . S
C1550 C1545 1.350 . S
C1551 H1538 0.929 . S
C1551 C1543 1.433 . S
C1551 N1553 1.384 . S
N1552 C1548 1.427 . S
N1552 C1549 1.384 1_565 S
N1553 C1545 1.427 . S
N1553 C1551 1.384 . S
H1554 C1560 0.930 . S
H1555 C1564 0.930 . S
H1556 C1569 0.929 . S
H1557 C1567 0.929 . S
H1558 C1562 0.929 . S
H1559 C1568 0.929 . S
C1560 H1554 0.930 . S
C1560 C1561 1.367 . S
C1560 C1568 1.378 . S
C1561 C1560 1.367 . S
C1561 C1569 1.433 1_554 S
C1562 H1558 0.929 . S
C1562 C1564 1.378 . S
C1562 C1566 1.350 1_556 S
C1563 C1566 1.463 . S
C1563 C1568 1.350 . S
C1563 N1571 1.427 1_554 S
C1564 H1555 0.930 . S
C1564 C1562 1.378 . S
C1564 C1565 1.367 1_556 S
C1565 C1564 1.367 1_554 S
C1565 C1567 1.433 . S
C1566 C1562 1.350 1_554 S
C1566 C1563 1.463 . S
C1566 N1570 1.427 . S
C1567 H1557 0.929 . S
C1567 C1565 1.433 . S
C1567 N1570 1.384 . S
C1568 H1559 0.929 . S
C1568 C1560 1.378 . S
C1568 C1563 1.350 . S
C1569 H1556 0.929 . S
C1569 C1561 1.433 1_556 S
C1569 N1571 1.384 . S
N1570 C1566 1.427 . S
N1570 C1567 1.384 . S
N1571 C1563 1.427 1_556 S
N1571 C1569 1.384 . S
H1572 C1578 0.930 . S
H1573 C1582 0.930 . S
H1574 C1587 0.929 . S
H1575 C1585 0.929 . S
H1576 C1580 0.929 . S
H1577 C1586 0.929 . S
C1578 H1572 0.930 . S
C1578 C1579 1.367 . S
C1578 C1586 1.378 . S
C1579 C1578 1.367 . S
C1579 C1587 1.433 . S
C1580 H1576 0.929 . S
C1580 C1582 1.378 . S
C1580 C1584 1.350 . S
C1581 C1584 1.463 . S
C1581 C1586 1.350 . S
C1581 N1589 1.427 . S
C1582 H1573 0.930 . S
C1582 C1580 1.378 . S
C1582 C1583 1.367 . S
C1583 C1582 1.367 . S
C1583 C1585 1.433 . S
C1584 C1580 1.350 . S
C1584 C1581 1.463 . S
C1584 N1588 1.427 . S
C1585 H1575 0.929 . S
C1585 C1583 1.433 . S
C1585 N1588 1.384 . S
C1586 H1577 0.929 . S
C1586 C1578 1.378 . S
C1586 C1581 1.350 . S
C1587 H1574 0.929 . S
C1587 C1579 1.433 . S
C1587 N1589 1.384 . S
N1588 C1584 1.427 . S
N1588 C1585 1.384 . S
N1589 C1581 1.427 . S
N1589 C1587 1.384 . S
H1590 C1596 0.930 . S
H1591 C1600 0.930 . S
H1592 C1605 0.929 . S
H1593 C1603 0.929 . S
H1594 C1598 0.929 . S
H1595 C1604 0.929 . S
C1596 H1590 0.930 . S
C1596 C1597 1.367 . S
C1596 C1604 1.378 . S
C1597 C1596 1.367 . S
C1597 C1605 1.433 . S
C1598 H1594 0.929 . S
C1598 C1600 1.378 . S
C1598 C1602 1.350 . S
C1599 C1602 1.463 . S
C1599 C1604 1.350 . S
C1599 N1607 1.427 . S
C1600 H1591 0.930 . S
C1600 C1598 1.378 . S
C1600 C1601 1.367 . S
C1601 C1600 1.367 . S
C1601 C1603 1.433 . S
C1602 C1598 1.350 . S
C1602 C1599 1.463 . S
C1602 N1606 1.427 . S
C1603 H1593 0.929 . S
C1603 C1601 1.433 . S
C1603 N1606 1.384 . S
C1604 H1595 0.929 . S
C1604 C1596 1.378 . S
C1604 C1599 1.350 . S
C1605 H1592 0.929 . S
C1605 C1597 1.433 . S
C1605 N1607 1.384 . S
N1606 C1602 1.427 . S
N1606 C1603 1.384 . S
N1607 C1599 1.427 . S
N1607 C1605 1.384 . S
H1608 C1614 0.930 . S
H1609 C1618 0.930 . S
H1610 C1623 0.914 1_545 S
H1611 C1621 0.929 . S
H1612 C1616 0.929 . S
H1613 C1622 0.929 . S
C1614 H1608 0.930 . S
C1614 C1615 1.367 . S
C1614 C1622 1.378 . S
C1615 C1614 1.367 . S
C1615 C1623 1.433 . S
C1616 H1612 0.929 . S
C1616 C1618 1.378 . S
C1616 C1620 1.350 . S
C1617 C1620 1.463 . S
C1617 C1622 1.350 . S
C1617 N1625 1.427 . S
C1618 H1609 0.930 . S
C1618 C1616 1.378 . S
C1618 C1619 1.367 . S
C1619 C1618 1.367 . S
C1619 C1621 1.433 . S
C1620 C1616 1.350 . S
C1620 C1617 1.463 . S
C1620 N1624 1.427 . S
C1621 H1611 0.929 . S
C1621 C1619 1.433 . S
C1621 N1624 1.384 . S
C1622 H1613 0.929 . S
C1622 C1614 1.378 . S
C1622 C1617 1.350 . S
C1623 H1610 0.914 1_565 S
C1623 C1615 1.433 . S
C1623 N1625 1.384 . S
N1624 C1620 1.427 . S
N1624 C1621 1.384 . S
N1625 C1617 1.427 . S
N1625 C1623 1.384 . S
H1626 C1632 0.930 . S
H1627 C1636 0.930 . S
H1628 C1641 0.929 . S
H1629 C1639 0.929 . S
H1630 C1634 0.929 . S
H1631 C1640 0.929 . S
C1632 H1626 0.930 . S
C1632 C1633 1.367 . S
C1632 C1640 1.378 . S
C1633 C1632 1.367 . S
C1633 C1641 1.433 . S
C1634 H1630 0.929 . S
C1634 C1636 1.378 . S
C1634 C1638 1.350 . S
C1635 C1638 1.463 . S
C1635 C1640 1.350 . S
C1635 N1643 1.427 . S
C1636 H1627 0.930 . S
C1636 C1634 1.378 . S
C1636 C1637 1.367 . S
C1637 C1636 1.367 . S
C1637 C1639 1.433 . S
C1638 C1634 1.350 . S
C1638 C1635 1.463 . S
C1638 N1642 1.427 . S
C1639 H1629 0.929 . S
C1639 C1637 1.433 . S
C1639 N1642 1.384 . S
C1640 H1631 0.929 . S
C1640 C1632 1.378 . S
C1640 C1635 1.350 . S
C1641 H1628 0.929 . S
C1641 C1633 1.433 . S
C1641 N1643 1.384 . S
N1642 C1638 1.427 . S
N1642 C1639 1.384 . S
N1643 C1635 1.427 . S
N1643 C1641 1.384 . S
H1644 C1650 0.930 . S
H1645 C1654 0.930 . S
H1646 C1659 0.929 . S
H1647 C1657 0.929 . S
H1648 C1652 0.929 . S
H1649 C1658 0.929 . S
C1650 H1644 0.930 . S
C1650 C1651 1.367 . S
C1650 C1658 1.378 . S
C1651 C1650 1.367 . S
C1651 C1659 1.433 . S
C1652 H1648 0.929 . S
C1652 C1654 1.378 . S
C1652 C1656 1.350 . S
C1653 C1656 1.463 . S
C1653 C1658 1.350 . S
C1653 N1661 1.427 . S
C1654 H1645 0.930 . S
C1654 C1652 1.378 . S
C1654 C1655 1.367 . S
C1655 C1654 1.367 . S
C1655 C1657 1.433 . S
C1656 C1652 1.350 . S
C1656 C1653 1.463 . S
C1656 N1660 1.427 . S
C1657 H1647 0.929 . S
C1657 C1655 1.433 . S
C1657 N1660 1.384 . S
C1658 H1649 0.929 . S
C1658 C1650 1.378 . S
C1658 C1653 1.350 . S
C1659 H1646 0.929 . S
C1659 C1651 1.433 . S
C1659 N1661 1.384 . S
N1660 C1656 1.427 . S
N1660 C1657 1.384 . S
N1661 C1653 1.427 . S
N1661 C1659 1.384 . S
H1662 C1668 0.930 . S
H1663 C1672 0.930 . S
H1664 C1677 0.929 . S
H1665 C1675 0.929 . S
H1666 C1670 0.929 . S
H1667 C1676 0.929 . S
C1668 H1662 0.930 . S
C1668 C1669 1.367 . S
C1668 C1676 1.378 . S
C1669 C1668 1.367 . S
C1669 C1677 1.433 . S
C1670 H1666 0.929 . S
C1670 C1672 1.378 . S
C1670 C1674 1.350 . S
C1671 C1674 1.463 . S
C1671 C1676 1.350 . S
C1671 N1679 1.427 . S
C1672 H1663 0.930 . S
C1672 C1670 1.378 . S
C1672 C1673 1.367 . S
C1673 C1672 1.367 . S
C1673 C1675 1.433 . S
C1674 C1670 1.350 . S
C1674 C1671 1.463 . S
C1674 N1678 1.427 . S
C1675 H1665 0.929 . S
C1675 C1673 1.433 . S
C1675 N1678 1.384 . S
C1676 H1667 0.929 . S
C1676 C1668 1.378 . S
C1676 C1671 1.350 . S
C1677 H1664 0.929 . S
C1677 C1669 1.433 . S
C1677 N1679 1.384 . S
N1678 C1674 1.427 . S
N1678 C1675 1.384 . S
N1679 C1671 1.427 . S
N1679 C1677 1.384 . S
H1680 C1686 0.930 . S
H1681 C1690 0.930 . S
H1682 C1695 0.929 . S
H1683 C1693 0.929 . S
H1684 C1688 0.929 . S
H1685 C1694 0.929 . S
C1686 H1680 0.930 . S
C1686 C1687 1.367 . S
C1686 C1694 1.378 . S
C1687 C1686 1.367 . S
C1687 C1695 1.433 . S
C1688 H1684 0.929 . S
C1688 C1690 1.378 . S
C1688 C1692 1.350 . S
C1689 C1692 1.463 . S
C1689 C1694 1.350 . S
C1689 N1697 1.427 . S
C1690 H1681 0.930 . S
C1690 C1688 1.378 . S
C1690 C1691 1.367 . S
C1691 C1690 1.367 . S
C1691 C1693 1.433 . S
C1692 C1688 1.350 . S
C1692 C1689 1.463 . S
C1692 N1696 1.427 . S
C1693 H1683 0.929 . S
C1693 C1691 1.433 . S
C1693 N1696 1.384 . S
C1694 H1685 0.929 . S
C1694 C1686 1.378 . S
C1694 C1689 1.350 . S
C1695 H1682 0.929 . S
C1695 C1687 1.433 . S
C1695 N1697 1.384 . S
N1696 C1692 1.427 . S
N1696 C1693 1.384 . S
N1697 C1689 1.427 . S
N1697 C1695 1.384 . S
H1698 C1704 0.930 . S
H1699 C1708 0.930 . S
H1700 C1713 0.929 . S
H1701 C1711 0.929 . S
H1702 C1706 0.929 . S
H1703 C1712 0.929 . S
C1704 H1698 0.930 . S
C1704 C1705 1.367 . S
C1704 C1712 1.378 . S
C1705 C1704 1.367 . S
C1705 C1713 1.433 . S
C1706 H1702 0.929 . S
C1706 C1708 1.378 . S
C1706 C1710 1.350 . S
C1707 C1710 1.463 . S
C1707 C1712 1.350 . S
C1707 N1715 1.427 . S
C1708 H1699 0.930 . S
C1708 C1706 1.378 . S
C1708 C1709 1.367 . S
C1709 C1708 1.367 . S
C1709 C1711 1.433 . S
C1710 C1706 1.350 . S
C1710 C1707 1.463 . S
C1710 N1714 1.427 . S
C1711 H1701 0.929 . S
C1711 C1709 1.433 . S
C1711 N1714 1.384 . S
C1712 H1703 0.929 . S
C1712 C1704 1.378 . S
C1712 C1707 1.350 . S
C1713 H1700 0.929 . S
C1713 C1705 1.433 . S
C1713 N1715 1.384 . S
N1714 C1710 1.427 . S
N1714 C1711 1.384 . S
N1715 C1707 1.427 . S
N1715 C1713 1.384 . S
H1716 C1722 0.930 . S
H1717 C1726 0.930 . S
H1718 C1731 0.929 . S
H1719 C1729 0.929 . S
H1720 C1724 0.929 . S
H1721 C1730 0.929 . S
C1722 H1716 0.930 . S
C1722 C1723 1.367 . S
C1722 C1730 1.378 . S
C1723 C1722 1.367 . S
C1723 C1731 1.433 . S
C1724 H1720 0.929 . S
C1724 C1726 1.378 . S
C1724 C1728 1.350 . S
C1725 C1728 1.463 . S
C1725 C1730 1.350 . S
C1725 N1733 1.427 . S
C1726 H1717 0.930 . S
C1726 C1724 1.378 . S
C1726 C1727 1.367 . S
C1727 C1726 1.367 . S
C1727 C1729 1.433 . S
C1728 C1724 1.350 . S
C1728 C1725 1.463 . S
C1728 N1732 1.427 . S
C1729 H1719 0.929 . S
C1729 C1727 1.433 . S
C1729 N1732 1.384 . S
C1730 H1721 0.929 . S
C1730 C1722 1.378 . S
C1730 C1725 1.350 . S
C1731 H1718 0.929 . S
C1731 C1723 1.433 . S
C1731 N1733 1.384 . S
N1732 C1728 1.427 . S
N1732 C1729 1.384 . S
N1733 C1725 1.427 . S
N1733 C1731 1.384 . S
H1734 C1740 0.930 . S
H1735 C1744 0.930 . S
H1736 C1749 0.929 . S
H1737 C1747 0.929 . S
H1738 C1742 0.929 . S
H1739 C1748 0.929 . S
C1740 H1734 0.930 . S
C1740 C1741 1.367 . S
C1740 C1748 1.378 . S
C1741 C1740 1.367 . S
C1741 C1749 1.433 . S
C1742 H1738 0.929 . S
C1742 C1744 1.378 . S
C1742 C1746 1.350 . S
C1743 C1746 1.463 . S
C1743 C1748 1.350 . S
C1743 N1751 1.427 . S
C1744 H1735 0.930 . S
C1744 C1742 1.378 . S
C1744 C1745 1.367 . S
C1745 C1744 1.367 . S
C1745 C1747 1.433 . S
C1746 C1742 1.350 . S
C1746 C1743 1.463 . S
C1746 N1750 1.427 . S
C1747 H1737 0.929 . S
C1747 C1745 1.433 . S
C1747 N1750 1.384 . S
C1748 H1739 0.929 . S
C1748 C1740 1.378 . S
C1748 C1743 1.350 . S
C1749 H1736 0.929 . S
C1749 C1741 1.433 . S
C1749 N1751 1.384 . S
N1750 C1746 1.427 . S
N1750 C1747 1.384 . S
N1751 C1743 1.427 . S
N1751 C1749 1.384 . S
H1752 C1758 0.930 . S
H1753 C1762 0.930 1_554 S
H1754 C1767 0.929 . S
H1755 C1765 0.929 . S
H1756 C1760 0.929 . S
H1757 C1766 0.929 . S
C1758 H1752 0.930 . S
C1758 C1759 1.367 . S
C1758 C1766 1.378 . S
C1759 C1758 1.367 . S
C1759 C1767 1.433 . S
C1760 H1756 0.929 . S
C1760 C1762 1.378 . S
C1760 C1764 1.350 . S
C1761 C1764 1.463 . S
C1761 C1766 1.350 . S
C1761 N1769 1.427 . S
C1762 H1753 0.930 1_556 S
C1762 C1760 1.378 . S
C1762 C1763 1.367 . S
C1763 C1762 1.367 . S
C1763 C1765 1.433 . S
C1764 C1760 1.350 . S
C1764 C1761 1.463 . S
C1764 N1768 1.427 . S
C1765 H1755 0.929 . S
C1765 C1763 1.433 . S
C1765 N1768 1.384 . S
C1766 H1757 0.929 . S
C1766 C1758 1.378 . S
C1766 C1761 1.350 . S
C1767 H1754 0.929 . S
C1767 C1759 1.433 . S
C1767 N1769 1.384 . S
N1768 C1764 1.427 . S
N1768 C1765 1.384 . S
N1769 C1761 1.427 . S
N1769 C1767 1.384 . S
H1770 C1776 0.930 . S
H1771 C1780 0.930 . S
H1772 C1785 0.929 . S
H1773 C1783 0.929 . S
H1774 C1778 0.929 . S
H1775 C1784 0.929 . S
C1776 H1770 0.930 . S
C1776 C1777 1.367 . S
C1776 C1784 1.378 . S
C1777 C1776 1.367 . S
C1777 C1785 1.433 . S
C1778 H1774 0.929 . S
C1778 C1780 1.378 . S
C1778 C1782 1.350 . S
C1779 C1782 1.463 . S
C1779 C1784 1.350 . S
C1779 N1787 1.427 . S
C1780 H1771 0.930 . S
C1780 C1778 1.378 . S
C1780 C1781 1.367 . S
C1781 C1780 1.367 . S
C1781 C1783 1.433 . S
C1782 C1778 1.350 . S
C1782 C1779 1.463 . S
C1782 N1786 1.427 . S
C1783 H1773 0.929 . S
C1783 C1781 1.433 . S
C1783 N1786 1.384 . S
C1784 H1775 0.929 . S
C1784 C1776 1.378 . S
C1784 C1779 1.350 . S
C1785 H1772 0.929 . S
C1785 C1777 1.433 . S
C1785 N1787 1.384 . S
N1786 C1782 1.427 . S
N1786 C1783 1.384 . S
N1787 C1779 1.427 . S
N1787 C1785 1.384 . S
H1788 C1794 0.930 . S
H1789 C1798 0.930 . S
H1790 C1803 0.929 . S
H1791 C1801 0.929 . S
H1792 C1796 0.929 . S
H1793 C1802 0.929 . S
C1794 H1788 0.930 . S
C1794 C1795 1.367 . S
C1794 C1802 1.378 . S
C1795 C1794 1.367 . S
C1795 C1803 1.433 . S
C1796 H1792 0.929 . S
C1796 C1798 1.378 . S
C1796 C1800 1.350 . S
C1797 C1800 1.463 . S
C1797 C1802 1.350 . S
C1797 N1805 1.427 . S
C1798 H1789 0.930 . S
C1798 C1796 1.378 . S
C1798 C1799 1.367 . S
C1799 C1798 1.367 . S
C1799 C1801 1.433 . S
C1800 C1796 1.350 . S
C1800 C1797 1.463 . S
C1800 N1804 1.427 . S
C1801 H1791 0.929 . S
C1801 C1799 1.433 . S
C1801 N1804 1.384 . S
C1802 H1793 0.929 . S
C1802 C1794 1.378 . S
C1802 C1797 1.350 . S
C1803 H1790 0.929 . S
C1803 C1795 1.433 . S
C1803 N1805 1.384 . S
N1804 C1800 1.427 . S
N1804 C1801 1.384 . S
N1805 C1797 1.427 . S
N1805 C1803 1.384 . S
H1806 C1812 0.930 . S
H1807 C1816 0.930 . S
H1808 C1821 0.929 . S
H1809 C1819 0.929 . S
H1810 C1814 0.929 . S
H1811 C1820 0.929 . S
C1812 H1806 0.930 . S
C1812 C1813 1.367 . S
C1812 C1820 1.378 . S
C1813 C1812 1.367 . S
C1813 C1821 1.433 . S
C1814 H1810 0.929 . S
C1814 C1816 1.378 . S
C1814 C1818 1.350 . S
C1815 C1818 1.463 . S
C1815 C1820 1.350 . S
C1815 N1823 1.427 . S
C1816 H1807 0.930 . S
C1816 C1814 1.378 . S
C1816 C1817 1.367 . S
C1817 C1816 1.367 . S
C1817 C1819 1.433 . S
C1818 C1814 1.350 . S
C1818 C1815 1.463 . S
C1818 N1822 1.427 . S
C1819 H1809 0.929 . S
C1819 C1817 1.433 . S
C1819 N1822 1.384 . S
C1820 H1811 0.929 . S
C1820 C1812 1.378 . S
C1820 C1815 1.350 . S
C1821 H1808 0.929 . S
C1821 C1813 1.433 . S
C1821 N1823 1.384 . S
N1822 C1818 1.427 . S
N1822 C1819 1.384 . S
N1823 C1815 1.427 . S
N1823 C1821 1.384 . S
H1824 C1830 0.930 . S
H1825 C1834 0.930 . S
H1826 C1839 0.929 . S
H1827 C1837 0.929 . S
H1828 C1832 0.929 . S
H1829 C1838 0.929 . S
C1830 H1824 0.930 . S
C1830 C1831 1.367 . S
C1830 C1838 1.378 . S
C1831 C1830 1.367 . S
C1831 C1839 1.433 . S
C1832 H1828 0.929 . S
C1832 C1834 1.378 . S
C1832 C1836 1.350 . S
C1833 C1836 1.463 . S
C1833 C1838 1.350 . S
C1833 N1841 1.427 . S
C1834 H1825 0.930 . S
C1834 C1832 1.378 . S
C1834 C1835 1.367 . S
C1835 C1834 1.367 . S
C1835 C1837 1.433 . S
C1836 C1832 1.350 . S
C1836 C1833 1.463 . S
C1836 N1840 1.427 . S
C1837 H1827 0.929 . S
C1837 C1835 1.433 . S
C1837 N1840 1.384 . S
C1838 H1829 0.929 . S
C1838 C1830 1.378 . S
C1838 C1833 1.350 . S
C1839 H1826 0.929 . S
C1839 C1831 1.433 . S
C1839 N1841 1.384 . S
N1840 C1836 1.427 . S
N1840 C1837 1.384 . S
N1841 C1833 1.427 . S
N1841 C1839 1.384 . S
H1842 C1848 0.920 1_554 S
H1843 C1852 0.930 . S
H1844 C1857 0.929 . S
H1845 C1855 0.929 . S
H1846 C1850 0.929 . S
H1847 C1856 0.929 . S
C1848 H1842 0.920 1_556 S
C1848 C1849 1.367 . S
C1848 C1856 1.378 . S
C1849 C1848 1.367 . S
C1849 C1857 1.433 . S
C1850 H1846 0.929 . S
C1850 C1852 1.378 . S
C1850 C1854 1.350 . S
C1851 C1854 1.463 . S
C1851 C1856 1.350 . S
C1851 N1859 1.427 . S
C1852 H1843 0.930 . S
C1852 C1850 1.378 . S
C1852 C1853 1.367 . S
C1853 C1852 1.367 . S
C1853 C1855 1.433 . S
C1854 C1850 1.350 . S
C1854 C1851 1.463 . S
C1854 N1858 1.427 . S
C1855 H1845 0.929 . S
C1855 C1853 1.433 . S
C1855 N1858 1.384 . S
C1856 H1847 0.929 . S
C1856 C1848 1.378 . S
C1856 C1851 1.350 . S
C1857 H1844 0.929 . S
C1857 C1849 1.433 . S
C1857 N1859 1.384 . S
N1858 C1854 1.427 . S
N1858 C1855 1.384 . S
N1859 C1851 1.427 . S
N1859 C1857 1.384 . S
H1860 C1866 0.930 . S
H1861 C1870 0.930 . S
H1862 C1875 0.929 . S
H1863 C1873 0.929 . S
H1864 C1868 0.929 . S
H1865 C1874 0.929 . S
C1866 H1860 0.930 . S
C1866 C1867 1.367 . S
C1866 C1874 1.378 . S
C1867 C1866 1.367 . S
C1867 C1875 1.433 . S
C1868 H1864 0.929 . S
C1868 C1870 1.378 . S
C1868 C1872 1.350 . S
C1869 C1872 1.463 . S
C1869 C1874 1.350 . S
C1869 N1877 1.427 . S
C1870 H1861 0.930 . S
C1870 C1868 1.378 . S
C1870 C1871 1.367 . S
C1871 C1870 1.367 . S
C1871 C1873 1.433 1_655 S
C1872 C1868 1.350 . S
C1872 C1869 1.463 . S
C1872 N1876 1.427 . S
C1873 H1863 0.929 . S
C1873 C1871 1.433 1_455 S
C1873 N1876 1.384 1_455 S
C1874 H1865 0.929 . S
C1874 C1866 1.378 . S
C1874 C1869 1.350 . S
C1875 H1862 0.929 . S
C1875 C1867 1.433 . S
C1875 N1877 1.384 . S
N1876 C1872 1.427 . S
N1876 C1873 1.384 1_655 S
N1877 C1869 1.427 . S
N1877 C1875 1.384 . S
H1878 C1884 0.930 . S
H1879 C1888 0.930 . S
H1880 C1893 0.929 . S
H1881 C1891 0.929 . S
H1882 C1886 0.929 . S
H1883 C1892 0.929 . S
C1884 H1878 0.930 . S
C1884 C1885 1.367 . S
C1884 C1892 1.378 . S
C1885 C1884 1.367 . S
C1885 C1893 1.433 . S
C1886 H1882 0.929 . S
C1886 C1888 1.378 . S
C1886 C1890 1.350 . S
C1887 C1890 1.463 . S
C1887 C1892 1.350 . S
C1887 N1895 1.427 . S
C1888 H1879 0.930 . S
C1888 C1886 1.378 . S
C1888 C1889 1.367 . S
C1889 C1888 1.367 . S
C1889 C1891 1.433 . S
C1890 C1886 1.350 . S
C1890 C1887 1.463 . S
C1890 N1894 1.427 . S
C1891 H1881 0.929 . S
C1891 C1889 1.433 . S
C1891 N1894 1.384 . S
C1892 H1883 0.929 . S
C1892 C1884 1.378 . S
C1892 C1887 1.350 . S
C1893 H1880 0.929 . S
C1893 C1885 1.433 . S
C1893 N1895 1.384 . S
N1894 C1890 1.427 . S
N1894 C1891 1.384 . S
N1895 C1887 1.427 . S
N1895 C1893 1.384 . S
H1896 C1902 0.930 . S
H1897 C1906 0.930 . S
H1898 C1911 0.929 . S
H1899 C1909 0.929 . S
H1900 C1904 0.929 . S
H1901 C1910 0.929 . S
C1902 H1896 0.930 . S
C1902 C1903 1.367 . S
C1902 C1910 1.378 . S
C1903 C1902 1.367 . S
C1903 C1911 1.433 . S
C1904 H1900 0.929 . S
C1904 C1906 1.378 . S
C1904 C1908 1.350 . S
C1905 C1908 1.463 . S
C1905 C1910 1.350 . S
C1905 N1913 1.427 . S
C1906 H1897 0.930 . S
C1906 C1904 1.378 . S
C1906 C1907 1.367 . S
C1907 C1906 1.367 . S
C1907 C1909 1.433 . S
C1908 C1904 1.350 . S
C1908 C1905 1.463 . S
C1908 N1912 1.427 . S
C1909 H1899 0.929 . S
C1909 C1907 1.433 . S
C1909 N1912 1.384 . S
C1910 H1901 0.929 . S
C1910 C1902 1.378 . S
C1910 C1905 1.350 . S
C1911 H1898 0.929 . S
C1911 C1903 1.433 . S
C1911 N1913 1.384 . S
N1912 C1908 1.427 . S
N1912 C1909 1.384 . S
N1913 C1905 1.427 . S
N1913 C1911 1.384 . S
H1914 C1920 0.930 . S
H1915 C1924 0.930 . S
H1916 C1929 0.929 . S
H1917 C1927 0.929 . S
H1918 C1922 0.929 . S
H1919 C1928 0.929 . S
C1920 H1914 0.930 . S
C1920 C1921 1.367 . S
C1920 C1928 1.378 . S
C1921 C1920 1.367 . S
C1921 C1929 1.433 . S
C1922 H1918 0.929 . S
C1922 C1924 1.378 . S
C1922 C1926 1.350 . S
C1923 C1926 1.463 . S
C1923 C1928 1.350 . S
C1923 N1931 1.427 . S
C1924 H1915 0.930 . S
C1924 C1922 1.378 . S
C1924 C1925 1.367 . S
C1925 C1924 1.367 . S
C1925 C1927 1.433 . S
C1926 C1922 1.350 . S
C1926 C1923 1.463 . S
C1926 N1930 1.427 . S
C1927 H1917 0.929 . S
C1927 C1925 1.433 . S
C1927 N1930 1.384 . S
C1928 H1919 0.929 . S
C1928 C1920 1.378 . S
C1928 C1923 1.350 . S
C1929 H1916 0.929 . S
C1929 C1921 1.433 . S
C1929 N1931 1.384 . S
N1930 C1926 1.427 . S
N1930 C1927 1.384 . S
N1931 C1923 1.427 . S
N1931 C1929 1.384 . S
H1932 C1938 0.930 . S
H1933 C1942 0.930 . S
H1934 C1947 0.929 . S
H1935 C1945 0.942 . S
H1936 C1940 0.929 . S
H1937 C1946 0.929 . S
C1938 H1932 0.930 . S
C1938 C1939 1.367 . S
C1938 C1946 1.378 . S
C1939 C1938 1.367 . S
C1939 C1947 1.433 . S
C1940 H1936 0.929 . S
C1940 C1942 1.378 . S
C1940 C1944 1.350 . S
C1941 C1944 1.463 . S
C1941 C1946 1.350 . S
C1941 N1949 1.427 . S
C1942 H1933 0.930 . S
C1942 C1940 1.378 . S
C1942 C1943 1.367 . S
C1943 C1942 1.367 . S
C1943 C1945 1.433 . S
C1944 C1940 1.350 . S
C1944 C1941 1.463 . S
C1944 N1948 1.427 . S
C1945 H1935 0.942 . S
C1945 C1943 1.433 . S
C1945 N1948 1.384 . S
C1946 H1937 0.929 . S
C1946 C1938 1.378 . S
C1946 C1941 1.350 . S
C1947 H1934 0.929 . S
C1947 C1939 1.433 . S
C1947 N1949 1.384 . S
N1948 C1944 1.427 . S
N1948 C1945 1.384 . S
N1949 C1941 1.427 . S
N1949 C1947 1.384 . S
H1950 C1956 0.930 . S
H1951 C1960 0.930 . S
H1952 C1965 0.929 . S
H1953 C1963 0.929 . S
H1954 C1958 0.929 . S
H1955 C1964 0.929 . S
C1956 H1950 0.930 . S
C1956 C1957 1.367 . S
C1956 C1964 1.378 . S
C1957 C1956 1.367 . S
C1957 C1965 1.433 . S
C1958 H1954 0.929 . S
C1958 C1960 1.378 . S
C1958 C1962 1.350 . S
C1959 C1962 1.463 . S
C1959 C1964 1.350 . S
C1959 N1967 1.427 . S
C1960 H1951 0.930 . S
C1960 C1958 1.378 . S
C1960 C1961 1.367 . S
C1961 C1960 1.367 . S
C1961 C1963 1.433 . S
C1962 C1958 1.350 . S
C1962 C1959 1.463 . S
C1962 N1966 1.427 . S
C1963 H1953 0.929 . S
C1963 C1961 1.433 . S
C1963 N1966 1.384 . S
C1964 H1955 0.929 . S
C1964 C1956 1.378 . S
C1964 C1959 1.350 . S
C1965 H1952 0.929 . S
C1965 C1957 1.433 . S
C1965 N1967 1.384 . S
N1966 C1962 1.427 . S
N1966 C1963 1.384 . S
N1967 C1959 1.427 . S
N1967 C1965 1.384 . S
H1968 C1974 0.930 . S
H1969 C1978 0.930 . S
H1970 C1983 0.929 . S
H1971 C1981 0.929 . S
H1972 C1976 0.929 . S
H1973 C1982 0.929 . S
C1974 H1968 0.930 . S
C1974 C1975 1.367 . S
C1974 C1982 1.378 . S
C1975 C1974 1.367 . S
C1975 C1983 1.433 . S
C1976 H1972 0.929 . S
C1976 C1978 1.378 . S
C1976 C1980 1.350 . S
C1977 C1980 1.463 . S
C1977 C1982 1.350 . S
C1977 N1985 1.427 . S
C1978 H1969 0.930 . S
C1978 C1976 1.378 . S
C1978 C1979 1.367 . S
C1979 C1978 1.367 . S
C1979 C1981 1.433 . S
C1980 C1976 1.350 . S
C1980 C1977 1.463 . S
C1980 N1984 1.427 . S
C1981 H1971 0.929 . S
C1981 C1979 1.433 . S
C1981 N1984 1.384 . S
C1982 H1973 0.929 . S
C1982 C1974 1.378 . S
C1982 C1977 1.350 . S
C1983 H1970 0.929 . S
C1983 C1975 1.433 . S
C1983 N1985 1.384 . S
N1984 C1980 1.427 . S
N1984 C1981 1.384 . S
N1985 C1977 1.427 . S
N1985 C1983 1.384 . S
H1986 C1992 0.930 . S
H1987 C1996 0.930 . S
H1988 C2001 0.929 . S
H1989 C1999 0.929 . S
H1990 C1994 0.929 . S
H1991 C2000 0.929 . S
C1992 H1986 0.930 . S
C1992 C1993 1.367 . S
C1992 C2000 1.378 . S
C1993 C1992 1.367 . S
C1993 C2001 1.433 . S
C1994 H1990 0.929 . S
C1994 C1996 1.378 1_565 S
C1994 C1998 1.350 . S
C1995 C1998 1.463 . S
C1995 C2000 1.350 . S
C1995 N2003 1.427 . S
C1996 H1987 0.930 . S
C1996 C1994 1.378 1_545 S
C1996 C1997 1.367 . S
C1997 C1996 1.367 . S
C1997 C1999 1.433 1_545 S
C1998 C1994 1.350 . S
C1998 C1995 1.463 . S
C1998 N2002 1.427 . S
C1999 H1989 0.929 . S
C1999 C1997 1.433 1_565 S
C1999 N2002 1.384 . S
C2000 H1991 0.929 . S
C2000 C1992 1.378 . S
C2000 C1995 1.350 . S
C2001 H1988 0.929 . S
C2001 C1993 1.433 . S
C2001 N2003 1.384 . S
N2002 C1998 1.427 . S
N2002 C1999 1.384 . S
N2003 C1995 1.427 . S
N2003 C2001 1.384 . S
H2004 C2010 0.930 1_545 S
H2005 C2014 0.930 . S
H2006 C2019 0.929 . S
H2007 C2017 0.929 . S
H2008 C2012 0.929 . S
H2009 C2018 0.929 . S
C2010 H2004 0.930 1_565 S
C2010 C2011 1.367 . S
C2010 C2018 1.378 . S
C2011 C2010 1.367 . S
C2011 C2019 1.433 . S
C2012 H2008 0.929 . S
C2012 C2014 1.378 . S
C2012 C2016 1.350 . S
C2013 C2016 1.463 . S
C2013 C2018 1.350 . S
C2013 N2021 1.427 . S
C2014 H2005 0.930 . S
C2014 C2012 1.378 . S
C2014 C2015 1.367 . S
C2015 C2014 1.367 . S
C2015 C2017 1.433 . S
C2016 C2012 1.350 . S
C2016 C2013 1.463 . S
C2016 N2020 1.427 . S
C2017 H2007 0.929 . S
C2017 C2015 1.433 . S
C2017 N2020 1.384 . S
C2018 H2009 0.929 . S
C2018 C2010 1.378 . S
C2018 C2013 1.350 . S
C2019 H2006 0.929 . S
C2019 C2011 1.433 . S
C2019 N2021 1.384 . S
N2020 C2016 1.427 . S
N2020 C2017 1.384 . S
N2021 C2013 1.427 . S
N2021 C2019 1.384 . S
H2022 C2028 0.930 . S
H2023 C2032 0.930 . S
H2024 C2037 0.929 1_556 S
H2025 C2035 0.929 . S
H2026 C2030 0.939 . S
H2027 C2036 0.929 . S
C2028 H2022 0.930 . S
C2028 C2029 1.367 . S
C2028 C2036 1.378 . S
C2029 C2028 1.367 . S
C2029 C2037 1.433 . S
C2030 H2026 0.939 . S
C2030 C2032 1.378 . S
C2030 C2034 1.350 . S
C2031 C2034 1.463 . S
C2031 C2036 1.350 . S
C2031 N2039 1.427 . S
C2032 H2023 0.930 . S
C2032 C2030 1.378 . S
C2032 C2033 1.367 . S
C2033 C2032 1.367 . S
C2033 C2035 1.433 . S
C2034 C2030 1.350 . S
C2034 C2031 1.463 . S
C2034 N2038 1.427 . S
C2035 H2025 0.929 . S
C2035 C2033 1.433 . S
C2035 N2038 1.384 . S
C2036 H2027 0.929 . S
C2036 C2028 1.378 . S
C2036 C2031 1.350 . S
C2037 H2024 0.929 1_554 S
C2037 C2029 1.433 . S
C2037 N2039 1.384 . S
N2038 C2034 1.427 . S
N2038 C2035 1.384 . S
N2039 C2031 1.427 . S
N2039 C2037 1.384 . S
H2040 C2046 0.930 . S
H2041 C2050 0.930 . S
H2042 C2055 0.929 . S
H2043 C2053 0.929 . S
H2044 C2048 0.929 . S
H2045 C2054 0.929 . S
C2046 H2040 0.930 . S
C2046 C2047 1.367 . S
C2046 C2054 1.378 . S
C2047 C2046 1.367 . S
C2047 C2055 1.433 . S
C2048 H2044 0.929 . S
C2048 C2050 1.378 . S
C2048 C2052 1.350 . S
C2049 C2052 1.463 . S
C2049 C2054 1.350 . S
C2049 N2057 1.427 . S
C2050 H2041 0.930 . S
C2050 C2048 1.378 . S
C2050 C2051 1.367 . S
C2051 C2050 1.367 . S
C2051 C2053 1.433 . S
C2052 C2048 1.350 . S
C2052 C2049 1.463 . S
C2052 N2056 1.427 . S
C2053 H2043 0.929 . S
C2053 C2051 1.433 . S
C2053 N2056 1.384 . S
C2054 H2045 0.929 . S
C2054 C2046 1.378 . S
C2054 C2049 1.350 . S
C2055 H2042 0.929 . S
C2055 C2047 1.433 . S
C2055 N2057 1.384 . S
N2056 C2052 1.427 . S
N2056 C2053 1.384 . S
N2057 C2049 1.427 . S
N2057 C2055 1.384 . S
H2058 C2064 0.930 . S
H2059 C2068 0.930 . S
H2060 C2073 0.929 . S
H2061 C2071 0.913 1_556 S
H2062 C2066 0.929 . S
H2063 C2072 0.929 . S
C2064 H2058 0.930 . S
C2064 C2065 1.367 . S
C2064 C2072 1.378 . S
C2065 C2064 1.367 . S
C2065 C2073 1.433 . S
C2066 H2062 0.929 . S
C2066 C2068 1.378 . S
C2066 C2070 1.350 . S
C2067 C2070 1.463 . S
C2067 C2072 1.350 . S
C2067 N2075 1.427 . S
C2068 H2059 0.930 . S
C2068 C2066 1.378 . S
C2068 C2069 1.367 . S
C2069 C2068 1.367 . S
C2069 C2071 1.446 . S
C2070 C2066 1.350 . S
C2070 C2067 1.463 . S
C2070 N2074 1.427 . S
C2071 H2061 0.913 1_554 S
C2071 C2069 1.446 . S
C2071 N2074 1.389 . S
C2072 H2063 0.929 . S
C2072 C2064 1.378 . S
C2072 C2067 1.350 . S
C2073 H2060 0.929 . S
C2073 C2065 1.433 . S
C2073 N2075 1.384 . S
N2074 C2070 1.427 . S
N2074 C2071 1.389 . S
N2075 C2067 1.427 . S
N2075 C2073 1.384 . S
H2076 C2082 0.930 . S
H2077 C2086 0.930 . S
H2078 C2091 0.929 . S
H2079 C2089 0.929 . S
H2080 C2084 0.929 . S
H2081 C2090 0.929 . S
C2082 H2076 0.930 . S
C2082 C2083 1.367 . S
C2082 C2090 1.378 . S
C2083 C2082 1.367 . S
C2083 C2091 1.433 . S
C2084 H2080 0.929 . S
C2084 C2086 1.378 . S
C2084 C2088 1.350 . S
C2085 C2088 1.463 . S
C2085 C2090 1.350 . S
C2085 N2093 1.427 . S
C2086 H2077 0.930 . S
C2086 C2084 1.378 . S
C2086 C2087 1.367 . S
C2087 C2086 1.367 . S
C2087 C2089 1.433 . S
C2088 C2084 1.350 . S
C2088 C2085 1.463 . S
C2088 N2092 1.427 . S
C2089 H2079 0.929 . S
C2089 C2087 1.433 . S
C2089 N2092 1.384 . S
C2090 H2081 0.929 . S
C2090 C2082 1.378 . S
C2090 C2085 1.350 . S
C2091 H2078 0.929 . S
C2091 C2083 1.433 . S
C2091 N2093 1.384 . S
N2092 C2088 1.427 . S
N2092 C2089 1.384 . S
N2093 C2085 1.427 . S
N2093 C2091 1.384 . S
H2094 C2100 0.930 . S
H2095 C2104 0.930 . S
H2096 C2109 0.929 . S
H2097 C2107 0.929 . S
H2098 C2102 0.929 . S
H2099 C2108 0.929 . S
C2100 H2094 0.930 . S
C2100 C2101 1.367 . S
C2100 C2108 1.378 . S
C2101 C2100 1.367 . S
C2101 C2109 1.433 . S
C2102 H2098 0.929 . S
C2102 C2104 1.378 . S
C2102 C2106 1.350 . S
C2103 C2106 1.463 . S
C2103 C2108 1.350 . S
C2103 N2111 1.427 . S
C2104 H2095 0.930 . S
C2104 C2102 1.378 . S
C2104 C2105 1.367 . S
C2105 C2104 1.367 . S
C2105 C2107 1.433 . S
C2106 C2102 1.350 . S
C2106 C2103 1.463 . S
C2106 N2110 1.427 . S
C2107 H2097 0.929 . S
C2107 C2105 1.433 . S
C2107 N2110 1.384 . S
C2108 H2099 0.929 . S
C2108 C2100 1.378 . S
C2108 C2103 1.350 . S
C2109 H2096 0.929 . S
C2109 C2101 1.433 . S
C2109 N2111 1.384 . S
N2110 C2106 1.427 . S
N2110 C2107 1.384 . S
N2111 C2103 1.427 . S
N2111 C2109 1.384 . S
H2112 C2118 0.930 . S
H2113 C2122 0.930 . S
H2114 C2127 0.929 . S
H2115 C2125 0.929 . S
H2116 C2120 0.929 . S
H2117 C2126 0.929 . S
C2118 H2112 0.930 . S
C2118 C2119 1.367 . S
C2118 C2126 1.378 . S
C2119 C2118 1.367 . S
C2119 C2127 1.433 . S
C2120 H2116 0.929 . S
C2120 C2122 1.378 . S
C2120 C2124 1.350 . S
C2121 C2124 1.463 . S
C2121 C2126 1.350 . S
C2121 N2129 1.427 . S
C2122 H2113 0.930 . S
C2122 C2120 1.378 . S
C2122 C2123 1.367 . S
C2123 C2122 1.367 . S
C2123 C2125 1.433 . S
C2124 C2120 1.350 . S
C2124 C2121 1.463 . S
C2124 N2128 1.427 . S
C2125 H2115 0.929 . S
C2125 C2123 1.433 . S
C2125 N2128 1.384 . S
C2126 H2117 0.929 . S
C2126 C2118 1.378 . S
C2126 C2121 1.350 . S
C2127 H2114 0.929 . S
C2127 C2119 1.433 . S
C2127 N2129 1.384 . S
N2128 C2124 1.427 . S
N2128 C2125 1.384 . S
N2129 C2121 1.427 . S
N2129 C2127 1.384 . S
H2130 C2136 0.930 . S
H2131 C2140 0.930 . S
H2132 C2145 0.929 . S
H2133 C2143 0.929 . S
H2134 C2138 0.929 . S
H2135 C2144 0.929 . S
C2136 H2130 0.930 . S
C2136 C2137 1.367 . S
C2136 C2144 1.378 . S
C2137 C2136 1.367 . S
C2137 C2145 1.433 . S
C2138 H2134 0.929 . S
C2138 C2140 1.378 . S
C2138 C2142 1.350 . S
C2139 C2142 1.463 . S
C2139 C2144 1.350 . S
C2139 N2147 1.427 . S
C2140 H2131 0.930 . S
C2140 C2138 1.378 . S
C2140 C2141 1.367 . S
C2141 C2140 1.367 . S
C2141 C2143 1.433 . S
C2142 C2138 1.350 . S
C2142 C2139 1.463 . S
C2142 N2146 1.427 . S
C2143 H2133 0.929 . S
C2143 C2141 1.433 . S
C2143 N2146 1.384 . S
C2144 H2135 0.929 . S
C2144 C2136 1.378 . S
C2144 C2139 1.350 . S
C2145 H2132 0.929 . S
C2145 C2137 1.433 . S
C2145 N2147 1.384 . S
N2146 C2142 1.427 . S
N2146 C2143 1.384 . S
N2147 C2139 1.427 . S
N2147 C2145 1.384 . S
H2148 C2154 0.930 . S
H2149 C2158 0.930 1_655 S
H2150 C2163 0.929 . S
H2151 C2161 0.929 . S
H2152 C2156 0.929 1_554 S
H2153 C2162 0.929 . S
C2154 H2148 0.930 . S
C2154 C2155 1.367 . S
C2154 C2162 1.378 . S
C2155 C2154 1.367 . S
C2155 C2163 1.433 . S
C2156 H2152 0.929 1_556 S
C2156 C2158 1.378 1_556 S
C2156 C2160 1.350 . S
C2157 C2160 1.463 . S
C2157 C2162 1.350 . S
C2157 N2165 1.427 . S
C2158 H2149 0.930 1_455 S
C2158 C2156 1.378 1_554 S
C2158 C2159 1.367 1_554 S
C2159 C2158 1.367 1_556 S
C2159 C2161 1.433 . S
C2160 C2156 1.350 . S
C2160 C2157 1.463 . S
C2160 N2164 1.427 . S
C2161 H2151 0.929 . S
C2161 C2159 1.433 . S
C2161 N2164 1.384 . S
C2162 H2153 0.929 . S
C2162 C2154 1.378 . S
C2162 C2157 1.350 . S
C2163 H2150 0.929 . S
C2163 C2155 1.433 . S
C2163 N2165 1.384 . S
N2164 C2160 1.427 . S
N2164 C2161 1.384 . S
N2165 C2157 1.427 . S
N2165 C2163 1.384 . S
H2166 C2172 0.930 . S
H2167 C2176 0.930 . S
H2168 C2181 0.929 . S
H2169 C2179 0.929 . S
H2170 C2174 0.929 . S
H2171 C2180 0.929 . S
C2172 H2166 0.930 . S
C2172 C2173 1.367 . S
C2172 C2180 1.378 . S
C2173 C2172 1.367 . S
C2173 C2181 1.433 . S
C2174 H2170 0.929 . S
C2174 C2176 1.378 . S
C2174 C2178 1.350 . S
C2175 C2178 1.463 . S
C2175 C2180 1.350 . S
C2175 N2183 1.427 . S
C2176 H2167 0.930 . S
C2176 C2174 1.378 . S
C2176 C2177 1.367 . S
C2177 C2176 1.367 . S
C2177 C2179 1.433 . S
C2178 C2174 1.350 . S
C2178 C2175 1.463 . S
C2178 N2182 1.427 . S
C2179 H2169 0.929 . S
C2179 C2177 1.433 . S
C2179 N2182 1.384 . S
C2180 H2171 0.929 . S
C2180 C2172 1.378 . S
C2180 C2175 1.350 . S
C2181 H2168 0.929 . S
C2181 C2173 1.433 . S
C2181 N2183 1.384 . S
N2182 C2178 1.427 . S
N2182 C2179 1.384 . S
N2183 C2175 1.427 . S
N2183 C2181 1.384 . S
H2184 C2190 0.930 . S
H2185 C2194 0.930 . S
H2186 C2199 0.929 . S
H2187 C2197 0.929 . S
H2188 C2192 0.929 . S
H2189 C2198 0.929 . S
C2190 H2184 0.930 . S
C2190 C2191 1.367 . S
C2190 C2198 1.378 . S
C2191 C2190 1.367 . S
C2191 C2199 1.433 . S
C2192 H2188 0.929 . S
C2192 C2194 1.378 . S
C2192 C2196 1.350 . S
C2193 C2196 1.463 . S
C2193 C2198 1.350 . S
C2193 N2201 1.427 . S
C2194 H2185 0.930 . S
C2194 C2192 1.378 . S
C2194 C2195 1.367 . S
C2195 C2194 1.367 . S
C2195 C2197 1.433 . S
C2196 C2192 1.350 . S
C2196 C2193 1.463 . S
C2196 N2200 1.427 . S
C2197 H2187 0.929 . S
C2197 C2195 1.433 . S
C2197 N2200 1.384 . S
C2198 H2189 0.929 . S
C2198 C2190 1.378 . S
C2198 C2193 1.350 . S
C2199 H2186 0.929 . S
C2199 C2191 1.433 . S
C2199 N2201 1.384 . S
N2200 C2196 1.427 . S
N2200 C2197 1.384 . S
N2201 C2193 1.427 . S
N2201 C2199 1.384 . S
H2202 C2208 0.930 . S
H2203 C2212 0.930 . S
H2204 C2217 0.929 . S
H2205 C2215 0.929 . S
H2206 C2210 0.929 . S
H2207 C2216 0.929 . S
C2208 H2202 0.930 . S
C2208 C2209 1.367 . S
C2208 C2216 1.378 . S
C2209 C2208 1.367 . S
C2209 C2217 1.433 . S
C2210 H2206 0.929 . S
C2210 C2212 1.378 . S
C2210 C2214 1.350 . S
C2211 C2214 1.463 . S
C2211 C2216 1.350 . S
C2211 N2219 1.427 . S
C2212 H2203 0.930 . S
C2212 C2210 1.378 . S
C2212 C2213 1.367 . S
C2213 C2212 1.367 . S
C2213 C2215 1.433 . S
C2214 C2210 1.350 . S
C2214 C2211 1.463 . S
C2214 N2218 1.427 . S
C2215 H2205 0.929 . S
C2215 C2213 1.433 . S
C2215 N2218 1.384 . S
C2216 H2207 0.929 . S
C2216 C2208 1.378 . S
C2216 C2211 1.350 . S
C2217 H2204 0.929 . S
C2217 C2209 1.433 . S
C2217 N2219 1.384 . S
N2218 C2214 1.427 . S
N2218 C2215 1.384 . S
N2219 C2211 1.427 . S
N2219 C2217 1.384 . S
H2220 C2226 0.930 . S
H2221 C2230 0.930 . S
H2222 C2235 0.929 . S
H2223 C2233 0.929 . S
H2224 C2228 0.929 . S
H2225 C2234 0.929 . S
C2226 H2220 0.930 . S
C2226 C2227 1.367 . S
C2226 C2234 1.378 . S
C2227 C2226 1.367 . S
C2227 C2235 1.433 . S
C2228 H2224 0.929 . S
C2228 C2230 1.378 . S
C2228 C2232 1.350 . S
C2229 C2232 1.463 . S
C2229 C2234 1.350 . S
C2229 N2237 1.427 . S
C2230 H2221 0.930 . S
C2230 C2228 1.378 . S
C2230 C2231 1.367 . S
C2231 C2230 1.367 . S
C2231 C2233 1.433 . S
C2232 C2228 1.350 . S
C2232 C2229 1.463 . S
C2232 N2236 1.427 . S
C2233 H2223 0.929 . S
C2233 C2231 1.433 . S
C2233 N2236 1.384 . S
C2234 H2225 0.929 . S
C2234 C2226 1.378 . S
C2234 C2229 1.350 . S
C2235 H2222 0.929 . S
C2235 C2227 1.433 . S
C2235 N2237 1.384 . S
N2236 C2232 1.427 . S
N2236 C2233 1.384 . S
N2237 C2229 1.427 . S
N2237 C2235 1.384 . S
H2238 C2244 0.930 . S
H2239 C2248 0.930 . S
H2240 C2253 0.929 . S
H2241 C2251 0.929 . S
H2242 C2246 0.929 . S
H2243 C2252 0.929 . S
C2244 H2238 0.930 . S
C2244 C2245 1.367 . S
C2244 C2252 1.378 . S
C2245 C2244 1.367 . S
C2245 C2253 1.433 . S
C2246 H2242 0.929 . S
C2246 C2248 1.378 . S
C2246 C2250 1.350 . S
C2247 C2250 1.463 . S
C2247 C2252 1.350 . S
C2247 N2255 1.427 . S
C2248 H2239 0.930 . S
C2248 C2246 1.378 . S
C2248 C2249 1.367 . S
C2249 C2248 1.367 . S
C2249 C2251 1.433 . S
C2250 C2246 1.350 . S
C2250 C2247 1.463 . S
C2250 N2254 1.427 . S
C2251 H2241 0.929 . S
C2251 C2249 1.433 . S
C2251 N2254 1.384 . S
C2252 H2243 0.929 . S
C2252 C2244 1.378 . S
C2252 C2247 1.350 . S
C2253 H2240 0.929 . S
C2253 C2245 1.433 . S
C2253 N2255 1.384 . S
N2254 C2250 1.427 . S
N2254 C2251 1.384 . S
N2255 C2247 1.427 . S
N2255 C2253 1.384 . S
H2256 C2262 0.930 . S
H2257 C2266 0.930 . S
H2258 C2271 0.929 . S
H2259 C2269 0.929 . S
H2260 C2264 0.929 . S
H2261 C2270 0.929 . S
C2262 H2256 0.930 . S
C2262 C2263 1.367 . S
C2262 C2270 1.378 . S
C2263 C2262 1.367 . S
C2263 C2271 1.433 . S
C2264 H2260 0.929 . S
C2264 C2266 1.378 . S
C2264 C2268 1.350 . S
C2265 C2268 1.463 . S
C2265 C2270 1.350 . S
C2265 N2273 1.427 . S
C2266 H2257 0.930 . S
C2266 C2264 1.378 . S
C2266 C2267 1.367 . S
C2267 C2266 1.367 . S
C2267 C2269 1.433 . S
C2268 C2264 1.350 . S
C2268 C2265 1.463 . S
C2268 N2272 1.427 . S
C2269 H2259 0.929 . S
C2269 C2267 1.433 . S
C2269 N2272 1.384 . S
C2270 H2261 0.929 . S
C2270 C2262 1.378 . S
C2270 C2265 1.350 . S
C2271 H2258 0.929 . S
C2271 C2263 1.433 . S
C2271 N2273 1.384 . S
N2272 C2268 1.427 . S
N2272 C2269 1.384 . S
N2273 C2265 1.427 . S
N2273 C2271 1.384 . S
H2274 C2280 0.930 . S
H2275 C2284 0.930 . S
H2276 C2289 0.929 . S
H2277 C2287 0.929 . S
H2278 C2282 0.929 . S
H2279 C2288 0.929 . S
C2280 H2274 0.930 . S
C2280 C2281 1.367 . S
C2280 C2288 1.378 . S
C2281 C2280 1.367 . S
C2281 C2289 1.433 . S
C2282 H2278 0.929 . S
C2282 C2284 1.378 . S
C2282 C2286 1.350 . S
C2283 C2286 1.463 . S
C2283 C2288 1.350 . S
C2283 N2291 1.427 . S
C2284 H2275 0.930 . S
C2284 C2282 1.378 . S
C2284 C2285 1.367 . S
C2285 C2284 1.367 . S
C2285 C2287 1.433 . S
C2286 C2282 1.350 . S
C2286 C2283 1.463 . S
C2286 N2290 1.427 . S
C2287 H2277 0.929 . S
C2287 C2285 1.433 . S
C2287 N2290 1.384 . S
C2288 H2279 0.929 . S
C2288 C2280 1.378 . S
C2288 C2283 1.350 . S
C2289 H2276 0.929 . S
C2289 C2281 1.433 . S
C2289 N2291 1.384 . S
N2290 C2286 1.427 . S
N2290 C2287 1.384 . S
N2291 C2283 1.427 . S
N2291 C2289 1.384 . S
H2292 C2298 0.930 . S
H2293 C2302 0.930 . S
H2294 C2307 0.929 . S
H2295 C2305 0.929 . S
H2296 C2300 0.929 . S
H2297 C2306 0.929 . S
C2298 H2292 0.930 . S
C2298 C2299 1.367 . S
C2298 C2306 1.378 . S
C2299 C2298 1.367 . S
C2299 C2307 1.433 . S
C2300 H2296 0.929 . S
C2300 C2302 1.378 . S
C2300 C2304 1.350 . S
C2301 C2304 1.463 . S
C2301 C2306 1.350 . S
C2301 N2309 1.427 . S
C2302 H2293 0.930 . S
C2302 C2300 1.378 . S
C2302 C2303 1.367 . S
C2303 C2302 1.367 . S
C2303 C2305 1.433 . S
C2304 C2300 1.350 . S
C2304 C2301 1.463 . S
C2304 N2308 1.427 . S
C2305 H2295 0.929 . S
C2305 C2303 1.433 . S
C2305 N2308 1.384 . S
C2306 H2297 0.929 . S
C2306 C2298 1.378 . S
C2306 C2301 1.350 . S
C2307 H2294 0.929 . S
C2307 C2299 1.433 . S
C2307 N2309 1.384 . S
N2308 C2304 1.427 . S
N2308 C2305 1.384 . S
N2309 C2301 1.427 . S
N2309 C2307 1.384 . S
H2310 C2316 0.930 . S
H2311 C2320 0.930 . S
H2312 C2325 0.929 . S
H2313 C2323 0.929 . S
H2314 C2318 0.929 . S
H2315 C2324 0.929 . S
C2316 H2310 0.930 . S
C2316 C2317 1.367 . S
C2316 C2324 1.378 . S
C2317 C2316 1.367 . S
C2317 C2325 1.433 . S
C2318 H2314 0.929 . S
C2318 C2320 1.378 . S
C2318 C2322 1.350 . S
C2319 C2322 1.463 . S
C2319 C2324 1.350 . S
C2319 N2327 1.427 . S
C2320 H2311 0.930 . S
C2320 C2318 1.378 . S
C2320 C2321 1.367 . S
C2321 C2320 1.367 . S
C2321 C2323 1.433 . S
C2322 C2318 1.350 . S
C2322 C2319 1.463 . S
C2322 N2326 1.427 . S
C2323 H2313 0.929 . S
C2323 C2321 1.433 . S
C2323 N2326 1.384 . S
C2324 H2315 0.929 . S
C2324 C2316 1.378 . S
C2324 C2319 1.350 . S
C2325 H2312 0.929 . S
C2325 C2317 1.433 . S
C2325 N2327 1.384 . S
N2326 C2322 1.427 . S
N2326 C2323 1.384 . S
N2327 C2319 1.427 . S
N2327 C2325 1.384 . S
H2328 C2334 0.930 . S
H2329 C2338 0.930 . S
H2330 C2343 0.929 . S
H2331 C2341 0.929 . S
H2332 C2336 0.929 . S
H2333 C2342 0.929 . S
C2334 H2328 0.930 . S
C2334 C2335 1.367 . S
C2334 C2342 1.378 . S
C2335 C2334 1.367 . S
C2335 C2343 1.433 . S
C2336 H2332 0.929 . S
C2336 C2338 1.378 . S
C2336 C2340 1.350 . S
C2337 C2340 1.463 . S
C2337 C2342 1.350 . S
C2337 N2345 1.427 . S
C2338 H2329 0.930 . S
C2338 C2336 1.378 . S
C2338 C2339 1.367 . S
C2339 C2338 1.367 . S
C2339 C2341 1.433 . S
C2340 C2336 1.350 . S
C2340 C2337 1.463 . S
C2340 N2344 1.427 . S
C2341 H2331 0.929 . S
C2341 C2339 1.433 . S
C2341 N2344 1.384 . S
C2342 H2333 0.929 . S
C2342 C2334 1.378 . S
C2342 C2337 1.350 . S
C2343 H2330 0.929 . S
C2343 C2335 1.433 . S
C2343 N2345 1.384 . S
N2344 C2340 1.427 . S
N2344 C2341 1.384 . S
N2345 C2337 1.427 . S
N2345 C2343 1.384 . S
H2346 C2352 0.930 . S
H2347 C2356 0.930 . S
H2348 C2361 0.929 . S
H2349 C2359 0.929 . S
H2350 C2354 0.929 . S
H2351 C2360 0.929 . S
C2352 H2346 0.930 . S
C2352 C2353 1.367 . S
C2352 C2360 1.378 . S
C2353 C2352 1.367 . S
C2353 C2361 1.433 . S
C2354 H2350 0.929 . S
C2354 C2356 1.378 . S
C2354 C2358 1.350 . S
C2355 C2358 1.463 . S
C2355 C2360 1.350 . S
C2355 N2363 1.427 . S
C2356 H2347 0.930 . S
C2356 C2354 1.378 . S
C2356 C2357 1.367 . S
C2357 C2356 1.367 . S
C2357 C2359 1.433 . S
C2358 C2354 1.350 . S
C2358 C2355 1.463 . S
C2358 N2362 1.427 . S
C2359 H2349 0.929 . S
C2359 C2357 1.433 . S
C2359 N2362 1.384 . S
C2360 H2351 0.929 . S
C2360 C2352 1.378 . S
C2360 C2355 1.350 . S
C2361 H2348 0.929 . S
C2361 C2353 1.433 . S
C2361 N2363 1.384 . S
N2362 C2358 1.427 . S
N2362 C2359 1.384 . S
N2363 C2355 1.427 . S
N2363 C2361 1.384 . S
H2364 C2370 0.930 . S
H2365 C2374 0.930 . S
H2366 C2379 0.929 . S
H2367 C2377 0.929 . S
H2368 C2372 0.929 . S
H2369 C2378 0.929 . S
C2370 H2364 0.930 . S
C2370 C2371 1.367 . S
C2370 C2378 1.378 . S
C2371 C2370 1.367 . S
C2371 C2379 1.433 . S
C2372 H2368 0.929 . S
C2372 C2374 1.378 . S
C2372 C2376 1.350 . S
C2373 C2376 1.463 . S
C2373 C2378 1.350 . S
C2373 N2381 1.427 . S
C2374 H2365 0.930 . S
C2374 C2372 1.378 . S
C2374 C2375 1.367 . S
C2375 C2374 1.367 . S
C2375 C2377 1.433 . S
C2376 C2372 1.350 . S
C2376 C2373 1.463 . S
C2376 N2380 1.427 . S
C2377 H2367 0.929 . S
C2377 C2375 1.433 . S
C2377 N2380 1.384 . S
C2378 H2369 0.929 . S
C2378 C2370 1.378 . S
C2378 C2373 1.350 . S
C2379 H2366 0.929 . S
C2379 C2371 1.433 . S
C2379 N2381 1.384 . S
N2380 C2376 1.427 . S
N2380 C2377 1.384 . S
N2381 C2373 1.427 . S
N2381 C2379 1.384 . S
H2382 C2388 0.930 . S
H2383 C2392 0.930 . S
H2384 C2397 0.929 . S
H2385 C2395 0.929 . S
H2386 C2390 0.929 . S
H2387 C2396 0.929 . S
C2388 H2382 0.930 . S
C2388 C2389 1.367 . S
C2388 C2396 1.378 . S
C2389 C2388 1.367 . S
C2389 C2397 1.433 . S
C2390 H2386 0.929 . S
C2390 C2392 1.378 . S
C2390 C2394 1.350 . S
C2391 C2394 1.463 . S
C2391 C2396 1.350 . S
C2391 N2399 1.427 . S
C2392 H2383 0.930 . S
C2392 C2390 1.378 . S
C2392 C2393 1.367 . S
C2393 C2392 1.367 . S
C2393 C2395 1.433 . S
C2394 C2390 1.350 . S
C2394 C2391 1.463 . S
C2394 N2398 1.427 . S
C2395 H2385 0.929 . S
C2395 C2393 1.433 . S
C2395 N2398 1.384 . S
C2396 H2387 0.929 . S
C2396 C2388 1.378 . S
C2396 C2391 1.350 . S
C2397 H2384 0.929 . S
C2397 C2389 1.433 . S
C2397 N2399 1.384 . S
N2398 C2394 1.427 . S
N2398 C2395 1.384 . S
N2399 C2391 1.427 . S
N2399 C2397 1.384 . S
H2400 C2406 0.930 . S
H2401 C2410 0.930 . S
H2402 C2415 0.929 . S
H2403 C2413 0.929 . S
H2404 C2408 0.929 . S
H2405 C2414 0.929 . S
C2406 H2400 0.930 . S
C2406 C2407 1.367 . S
C2406 C2414 1.378 . S
C2407 C2406 1.367 . S
C2407 C2415 1.433 . S
C2408 H2404 0.929 . S
C2408 C2410 1.378 . S
C2408 C2412 1.350 . S
C2409 C2412 1.463 . S
C2409 C2414 1.350 . S
C2409 N2417 1.427 . S
C2410 H2401 0.930 . S
C2410 C2408 1.378 . S
C2410 C2411 1.367 . S
C2411 C2410 1.367 . S
C2411 C2413 1.433 . S
C2412 C2408 1.350 . S
C2412 C2409 1.463 . S
C2412 N2416 1.427 . S
C2413 H2403 0.929 . S
C2413 C2411 1.433 . S
C2413 N2416 1.384 . S
C2414 H2405 0.929 . S
C2414 C2406 1.378 . S
C2414 C2409 1.350 . S
C2415 H2402 0.929 . S
C2415 C2407 1.433 . S
C2415 N2417 1.384 . S
N2416 C2412 1.427 . S
N2416 C2413 1.384 . S
N2417 C2409 1.427 . S
N2417 C2415 1.384 . S
H2418 C2424 0.930 . S
H2419 C2428 0.930 . S
H2420 C2433 0.929 . S
H2421 C2431 0.929 . S
H2422 C2426 0.929 . S
H2423 C2432 0.929 . S
C2424 H2418 0.930 . S
C2424 C2425 1.367 . S
C2424 C2432 1.378 . S
C2425 C2424 1.367 . S
C2425 C2433 1.433 . S
C2426 H2422 0.929 . S
C2426 C2428 1.378 . S
C2426 C2430 1.350 . S
C2427 C2430 1.463 . S
C2427 C2432 1.350 . S
C2427 N2435 1.427 . S
C2428 H2419 0.930 . S
C2428 C2426 1.378 . S
C2428 C2429 1.367 . S
C2429 C2428 1.367 . S
C2429 C2431 1.433 . S
C2430 C2426 1.350 . S
C2430 C2427 1.463 . S
C2430 N2434 1.427 . S
C2431 H2421 0.929 . S
C2431 C2429 1.433 . S
C2431 N2434 1.384 . S
C2432 H2423 0.929 . S
C2432 C2424 1.378 . S
C2432 C2427 1.350 . S
C2433 H2420 0.929 . S
C2433 C2425 1.433 . S
C2433 N2435 1.384 . S
N2434 C2430 1.427 . S
N2434 C2431 1.384 . S
N2435 C2427 1.427 . S
N2435 C2433 1.384 . S
H2436 C2442 0.930 . S
H2437 C2446 0.930 . S
H2438 C2451 0.929 . S
H2439 C2449 0.929 . S
H2440 C2444 0.929 . S
H2441 C2450 0.929 . S
C2442 H2436 0.930 . S
C2442 C2443 1.367 . S
C2442 C2450 1.378 . S
C2443 C2442 1.367 . S
C2443 C2451 1.433 . S
C2444 H2440 0.929 . S
C2444 C2446 1.378 . S
C2444 C2448 1.350 . S
C2445 C2448 1.463 . S
C2445 C2450 1.350 . S
C2445 N2453 1.427 . S
C2446 H2437 0.930 . S
C2446 C2444 1.378 . S
C2446 C2447 1.367 . S
C2447 C2446 1.367 . S
C2447 C2449 1.433 . S
C2448 C2444 1.350 . S
C2448 C2445 1.463 . S
C2448 N2452 1.427 . S
C2449 H2439 0.929 . S
C2449 C2447 1.433 . S
C2449 N2452 1.384 . S
C2450 H2441 0.929 . S
C2450 C2442 1.378 . S
C2450 C2445 1.350 . S
C2451 H2438 0.929 . S
C2451 C2443 1.433 . S
C2451 N2453 1.384 . S
N2452 C2448 1.427 . S
N2452 C2449 1.384 . S
N2453 C2445 1.427 . S
N2453 C2451 1.384 . S
H2454 C2460 0.930 . S
H2455 C2464 0.930 . S
H2456 C2469 0.929 1_556 S
H2457 C2467 0.929 . S
H2458 C2462 0.955 . S
H2459 C2468 0.929 . S
C2460 H2454 0.930 . S
C2460 C2461 1.367 . S
C2460 C2468 1.378 . S
C2461 C2460 1.367 . S
C2461 C2469 1.433 . S
C2462 H2458 0.955 . S
C2462 C2464 1.382 . S
C2462 C2466 1.320 1_556 S
C2463 C2466 1.463 . S
C2463 C2468 1.350 . S
C2463 N2471 1.427 . S
C2464 H2455 0.930 . S
C2464 C2462 1.382 . S
C2464 C2465 1.367 1_556 S
C2465 C2464 1.367 1_554 S
C2465 C2467 1.433 1_565 S
C2466 C2462 1.320 1_554 S
C2466 C2463 1.463 . S
C2466 N2470 1.427 . S
C2467 H2457 0.929 . S
C2467 C2465 1.433 1_545 S
C2467 N2470 1.384 1_545 S
C2468 H2459 0.929 . S
C2468 C2460 1.378 . S
C2468 C2463 1.350 . S
C2469 H2456 0.929 1_554 S
C2469 C2461 1.433 . S
C2469 N2471 1.384 . S
N2470 C2466 1.427 . S
N2470 C2467 1.384 1_565 S
N2471 C2463 1.427 . S
N2471 C2469 1.384 . S
H2472 C2478 0.930 . S
H2473 C2482 0.930 . S
H2474 C2487 0.929 . S
H2475 C2485 0.929 . S
H2476 C2480 0.929 . S
H2477 C2486 0.929 . S
C2478 H2472 0.930 . S
C2478 C2479 1.367 . S
C2478 C2486 1.378 . S
C2479 C2478 1.367 . S
C2479 C2487 1.433 . S
C2480 H2476 0.929 . S
C2480 C2482 1.378 . S
C2480 C2484 1.350 . S
C2481 C2484 1.463 . S
C2481 C2486 1.350 . S
C2481 N2489 1.427 . S
C2482 H2473 0.930 . S
C2482 C2480 1.378 . S
C2482 C2483 1.367 . S
C2483 C2482 1.367 . S
C2483 C2485 1.433 . S
C2484 C2480 1.350 . S
C2484 C2481 1.463 . S
C2484 N2488 1.427 . S
C2485 H2475 0.929 . S
C2485 C2483 1.433 . S
C2485 N2488 1.384 . S
C2486 H2477 0.929 . S
C2486 C2478 1.378 . S
C2486 C2481 1.350 . S
C2487 H2474 0.929 . S
C2487 C2479 1.433 . S
C2487 N2489 1.384 . S
N2488 C2484 1.427 . S
N2488 C2485 1.384 . S
N2489 C2481 1.427 . S
N2489 C2487 1.384 . S
H2490 C2496 0.930 . S
H2491 C2500 0.930 . S
H2492 C2505 0.929 . S
H2493 C2503 0.929 . S
H2494 C2498 0.929 . S
H2495 C2504 0.929 . S
C2496 H2490 0.930 . S
C2496 C2497 1.367 1_556 S
C2496 C2504 1.378 . S
C2497 C2496 1.367 1_554 S
C2497 C2505 1.433 . S
C2498 H2494 0.929 . S
C2498 C2500 1.378 . S
C2498 C2502 1.350 . S
C2499 C2502 1.463 . S
C2499 C2504 1.350 1_554 S
C2499 N2507 1.427 . S
C2500 H2491 0.930 . S
C2500 C2498 1.378 . S
C2500 C2501 1.367 . S
C2501 C2500 1.367 . S
C2501 C2503 1.433 . S
C2502 C2498 1.350 . S
C2502 C2499 1.463 . S
C2502 N2506 1.427 . S
C2503 H2493 0.929 . S
C2503 C2501 1.433 . S
C2503 N2506 1.384 . S
C2504 H2495 0.929 . S
C2504 C2496 1.378 . S
C2504 C2499 1.350 1_556 S
C2505 H2492 0.929 . S
C2505 C2497 1.433 . S
C2505 N2507 1.384 . S
N2506 C2502 1.427 . S
N2506 C2503 1.384 . S
N2507 C2499 1.427 . S
N2507 C2505 1.384 . S
H2508 C2514 0.930 . S
H2509 C2518 0.930 . S
H2510 C2523 0.929 . S
H2511 C2521 0.929 . S
H2512 C2516 0.929 . S
H2513 C2522 0.929 . S
C2514 H2508 0.930 . S
C2514 C2515 1.367 . S
C2514 C2522 1.378 . S
C2515 C2514 1.367 . S
C2515 C2523 1.433 . S
C2516 H2512 0.929 . S
C2516 C2518 1.378 . S
C2516 C2520 1.350 . S
C2517 C2520 1.463 . S
C2517 C2522 1.350 . S
C2517 N2525 1.427 . S
C2518 H2509 0.930 . S
C2518 C2516 1.378 . S
C2518 C2519 1.367 . S
C2519 C2518 1.367 . S
C2519 C2521 1.433 . S
C2520 C2516 1.350 . S
C2520 C2517 1.463 . S
C2520 N2524 1.427 . S
C2521 H2511 0.929 . S
C2521 C2519 1.433 . S
C2521 N2524 1.384 . S
C2522 H2513 0.929 . S
C2522 C2514 1.378 . S
C2522 C2517 1.350 . S
C2523 H2510 0.929 . S
C2523 C2515 1.433 . S
C2523 N2525 1.384 . S
N2524 C2520 1.427 . S
N2524 C2521 1.384 . S
N2525 C2517 1.427 . S
N2525 C2523 1.384 . S
H2526 C2532 0.930 . S
H2527 C2536 0.930 . S
H2528 C2541 0.929 . S
H2529 C2539 0.929 . S
H2530 C2534 0.929 . S
H2531 C2540 0.929 . S
C2532 H2526 0.930 . S
C2532 C2533 1.367 . S
C2532 C2540 1.378 . S
C2533 C2532 1.367 . S
C2533 C2541 1.433 . S
C2534 H2530 0.929 . S
C2534 C2536 1.378 . S
C2534 C2538 1.350 . S
C2535 C2538 1.463 . S
C2535 C2540 1.350 . S
C2535 N2543 1.427 . S
C2536 H2527 0.930 . S
C2536 C2534 1.378 . S
C2536 C2537 1.367 . S
C2537 C2536 1.367 . S
C2537 C2539 1.433 . S
C2538 C2534 1.350 . S
C2538 C2535 1.463 . S
C2538 N2542 1.427 . S
C2539 H2529 0.929 . S
C2539 C2537 1.433 . S
C2539 N2542 1.384 . S
C2540 H2531 0.929 . S
C2540 C2532 1.378 . S
C2540 C2535 1.350 . S
C2541 H2528 0.929 . S
C2541 C2533 1.433 . S
C2541 N2543 1.384 . S
N2542 C2538 1.427 . S
N2542 C2539 1.384 . S
N2543 C2535 1.427 . S
N2543 C2541 1.384 . S
C827 C337 1.797 . S
C823 C5 1.825 . S
C841 C23 1.012 . S
C845 C382 1.001 . S
C859 C39 1.680 . S
C863 C406 1.653 . S
C881 N432 1.039 . S
C877 C42 1.012 . S
C895 C19 1.128 . S
C899 N462 1.136 . S
C917 C496 1.595 . S
C913 C28 1.608 . S
C935 C532 1.142 . S
C931 C53 1.131 . S
C949 C9 1.765 . S
C953 C556 1.742 . S
C967 C65 1.006 . S
C971 N350 0.999 . S
C985 C75 1.115 . S
C989 N372 1.128 . S
C1007 C412 1.083 . S
C1003 C93 1.087 . S
C1025 C436 1.724 . S
C1021 C109 1.749 . S
C1039 C56 1.219 . S
C1043 C466 1.212 . S
C1061 C502 1.044 . S
C1057 C81 1.038 . S
C1079 N522 1.109 . S
C1075 C84 1.083 . S
C1097 C562 1.708 . S
C1093 C103 1.730 . S
C1115 C363 1.641 . S
C1111 C107 1.658 . S
C1133 C592 1.022 . S
C1129 C121 1.032 . S
C1147 C131 1.154 . S
C1151 N612 1.158 . S
C1169 C646 1.608 . S
C1165 C140 1.625 . S
C1183 C61 0.967 . S
C1187 N552 0.967 . S
C1205 N402 1.049 1_565 S
C1201 C70 1.028 . S
C1219 C137 1.055 . S
C1223 C682 1.057 . S
C1241 C706 0.995 . S
C1237 C165 1.014 . S
C1255 C173 1.794 . S
C1259 C346 1.759 1_556 S
C1277 C723 0.962 . S
C1273 C182 0.974 . S
C1291 C207 1.655 . S
C1295 C397 1.631 . S
C1309 C219 1.021 . S
C1313 N680 1.024 . S
C1331 N470 1.104 . S
C1327 C187 1.098 . S
C1349 C607 1.572 . S
C1345 C205 1.604 . S
C1367 C543 1.108 . S
C1363 C221 1.104 . S
C1385 C727 1.707 . S
C1381 C168 1.727 . S
C1403 N342 0.975 . S
C1399 C224 0.977 . S
C1417 C243 1.091 . S
C1421 N710 1.099 . S
C1439 C423 1.022 . S
C1435 C252 1.029 . S
C1453 C277 1.716 . S
C1457 C667 1.688 . S
C1471 C233 1.237 . S
C1475 C457 1.211 1_655 S
C1489 C249 1.025 . S
C1493 C633 1.030 . S
C1511 N530 1.095 . S
C1507 C261 1.091 . S
C1525 C271 1.705 . S
C1529 C753 1.684 . S
C1543 C266 1.630 . S
C1547 C352 1.614 . S
C1561 C280 0.974 . S
C1565 C603 0.985 . S
C1579 C299 1.104 . S
C1583 N500 1.117 . S
C1597 C317 1.607 . S
C1601 C637 1.574 . S
C1619 N740 0.946 . S
C1615 C229 0.948 1_565 S
C1637 N410 1.047 . S
C1633 C247 1.045 . S
C1655 C453 1.028 . S
C1651 C305 1.026 . S
C1673 C367 0.988 . S
C1669 C333 1.014 . S
C1687 C33 1.825 . S
C1691 C757 1.793 . S
C1709 C712 1.011 . S
C1705 C51 1.014 . S
C1727 C796 1.650 . S
C1723 C11 1.679 . S
C1741 C14 1.017 1_655 S
C1745 N672 1.038 . S
C1759 C47 1.122 . S
C1763 N582 1.134 1_556 S
C1781 C616 1.598 . S
C1777 C0 1.613 . S
C1799 C652 1.129 . S
C1795 C25 1.135 . S
C1817 C736 1.737 . S
C1813 C37 1.762 . S
C1835 N770 1.000 . S
C1831 C163 1.005 . S
C1849 C117 1.120 1_556 S
C1853 N702 1.129 . S
C1867 C135 1.085 . S
C1871 C802 1.074 1_655 S
C1889 C676 1.724 . S
C1885 C151 1.746 . S
C1907 C586 1.212 . S
C1903 C154 1.219 . S
C1921 C123 1.047 . S
C1925 C622 1.043 . S
C1943 N642 1.125 . S
C1939 C126 1.083 . S
C1957 C145 1.731 . S
C1961 C742 1.713 . S
C1979 C783 1.646 . S
C1975 C149 1.658 . S
C1997 C472 1.031 . S
C1993 C79 1.033 . S
C2015 N492 1.159 . S
C2011 C89 1.150 1_565 S
C2029 C98 1.624 . S
C2033 C526 1.603 . S
C2051 N732 0.969 . S
C2047 C159 0.967 . S
C2065 C112 1.021 . S
C2069 N792 1.047 . S
C2087 C442 1.057 . S
C2083 C95 1.057 . S
C2105 C376 1.014 . S
C2101 C67 1.023 . S
C2119 C201 1.797 . S
C2123 C766 1.768 . S
C2141 C393 0.969 . S
C2137 C210 0.967 . S
C2159 C787 1.628 1_556 S
C2155 C179 1.656 . S
C2173 C191 1.021 . S
C2177 N440 1.020 . S
C2191 C215 1.100 . S
C2195 N590 1.106 . S
C2209 C177 1.603 . S
C2213 C487 1.581 . S
C2227 C193 1.099 . S
C2231 C663 1.099 . S
C2245 C196 1.730 . S
C2249 C547 1.709 . S
C2267 N762 0.976 . S
C2263 C322 0.976 . S
C2281 C285 1.092 . S
C2285 N380 1.096 . S
C2303 C813 1.022 . S
C2299 C294 1.029 . S
C2317 C319 1.712 . S
C2321 C427 1.687 . S
C2335 C331 1.233 . S
C2339 C577 1.196 . S
C2357 C513 1.026 . S
C2353 C291 1.031 . S
C2371 C303 1.091 . S
C2375 N650 1.094 . S
C2393 C573 1.683 . S
C2389 C313 1.704 . S
C2411 C772 1.612 . S
C2407 C308 1.630 . S
C2429 C483 0.983 . S
C2425 C238 0.987 . S
C2443 C257 1.105 . S
C2447 N620 1.116 . S
C2465 C517 1.582 1_565 S
C2461 C275 1.607 . S
C2483 N560 0.949 . S
C2479 C327 0.947 . S
C2497 C289 1.049 . S
C2501 N800 1.046 . S
C2519 C693 1.018 . S
C2515 C263 1.024 . S
C2537 C697 0.987 . S
C2533 C235 1.013 . S
