# Generated by pormake.
# Topology pyr, (3,6)-cn, num edge types: 1
# Building blocks:
#     Node 0, Type 0, BuildingBlock: WUSLED_clean_sbu_0, # of connection points: 3
#     Node 1, Type 0, BuildingBlock: WUSLED_clean_sbu_0, # of connection points: 3
#     Node 2, Type 0, BuildingBlock: WUSLED_clean_sbu_0, # of connection points: 3
#     Node 3, Type 0, BuildingBlock: WUSLED_clean_sbu_0, # of connection points: 3
#     Node 4, Type 0, BuildingBlock: WUSLED_clean_sbu_0, # of connection points: 3
#     Node 5, Type 0, BuildingBlock: WUSLED_clean_sbu_0, # of connection points: 3
#     Node 6, Type 0, BuildingBlock: WUSLED_clean_sbu_0, # of connection points: 3
#     Node 7, Type 0, BuildingBlock: WUSLED_clean_sbu_0, # of connection points: 3
#     Node 8, Type 1, BuildingBlock: MIFKUJ_clean_sbu_0, # of connection points: 6
#     Node 9, Type 1, BuildingBlock: MIFKUJ_clean_sbu_0, # of connection points: 6
#     Node 10, Type 1, BuildingBlock: MIFKUJ_clean_sbu_0, # of connection points: 6
#     Node 11, Type 1, BuildingBlock: MIFKUJ_clean_sbu_0, # of connection points: 6
#     Edge 12, Type (0, 1), BuildingBlock: OJICUG_clean_linker_0, # of connection points: 2
#     Edge 13, Type (0, 1), BuildingBlock: OJICUG_clean_linker_0, # of connection points: 2
#     Edge 14, Type (0, 1), BuildingBlock: OJICUG_clean_linker_0, # of connection points: 2
#     Edge 15, Type (0, 1), BuildingBlock: OJICUG_clean_linker_0, # of connection points: 2
#     Edge 16, Type (0, 1), BuildingBlock: OJICUG_clean_linker_0, # of connection points: 2
#     Edge 17, Type (0, 1), BuildingBlock: OJICUG_clean_linker_0, # of connection points: 2
#     Edge 18, Type (0, 1), BuildingBlock: OJICUG_clean_linker_0, # of connection points: 2
#     Edge 19, Type (0, 1), BuildingBlock: OJICUG_clean_linker_0, # of connection points: 2
#     Edge 20, Type (0, 1), BuildingBlock: OJICUG_clean_linker_0, # of connection points: 2
#     Edge 21, Type (0, 1), BuildingBlock: OJICUG_clean_linker_0, # of connection points: 2
#     Edge 22, Type (0, 1), BuildingBlock: OJICUG_clean_linker_0, # of connection points: 2
#     Edge 23, Type (0, 1), BuildingBlock: OJICUG_clean_linker_0, # of connection points: 2
#     Edge 24, Type (0, 1), BuildingBlock: OJICUG_clean_linker_0, # of connection points: 2
#     Edge 25, Type (0, 1), BuildingBlock: OJICUG_clean_linker_0, # of connection points: 2
#     Edge 26, Type (0, 1), BuildingBlock: OJICUG_clean_linker_0, # of connection points: 2
#     Edge 27, Type (0, 1), BuildingBlock: OJICUG_clean_linker_0, # of connection points: 2
#     Edge 28, Type (0, 1), BuildingBlock: OJICUG_clean_linker_0, # of connection points: 2
#     Edge 29, Type (0, 1), BuildingBlock: OJICUG_clean_linker_0, # of connection points: 2
#     Edge 30, Type (0, 1), BuildingBlock: OJICUG_clean_linker_0, # of connection points: 2
#     Edge 31, Type (0, 1), BuildingBlock: OJICUG_clean_linker_0, # of connection points: 2
#     Edge 32, Type (0, 1), BuildingBlock: OJICUG_clean_linker_0, # of connection points: 2
#     Edge 33, Type (0, 1), BuildingBlock: OJICUG_clean_linker_0, # of connection points: 2
#     Edge 34, Type (0, 1), BuildingBlock: OJICUG_clean_linker_0, # of connection points: 2
#     Edge 35, Type (0, 1), BuildingBlock: OJICUG_clean_linker_0, # of connection points: 2
# Relax obj value: 0.027
# Max RMSD: 0.084
# Mean RMSD: 0.046
data_MOF--net-pyr--node1-WUSLED_clean_sbu_0--node2-MIFKUJ_clean_sbu_0--edge1-OJICUG_clean_linker_0
_symmetry_space_group_name_H-M    P1
_symmetry_Int_Tables_number       1
_symmetry_cell_setting            triclinic
loop_
_symmetry_equiv_pos_as_xyz
'x, y, z'
_cell_length_a     40.267294
_cell_length_b     36.705224
_cell_length_c     39.070002
_cell_angle_alpha  85.116905
_cell_angle_beta   88.969732
_cell_angle_gamma 96.162279
loop_
_atom_site_label
_atom_site_type_symbol
_atom_site_fract_x
_atom_site_fract_y
_atom_site_fract_z
_atom_type_partial_charge
C0 C 0.18553 0.24222 0.13562 0.0
C1 C 0.16588 0.26011 0.15752 0.0
C2 C 0.154 0.30347 0.10969 0.0
C3 C 0.15029 0.29055 0.14467 0.0
C4 C 0.17299 0.28467 0.08779 0.0
C5 C 0.18865 0.25442 0.10068 0.0
U6 U 0.19628 0.16262 0.2024 0.0
O7 O 0.20929 0.10693 0.19528 0.0
O8 O 0.24183 0.14386 0.22479 0.0
C9 C 0.23789 0.11242 0.21074 0.0
C10 C 0.20316 0.21107 0.14871 0.0
C11 C 0.26732 0.10256 0.19216 0.0
C12 C 0.31535 0.11844 0.15297 0.0
C13 C 0.28673 0.12826 0.16928 0.0
C14 C 0.30478 0.05694 0.18151 0.0
C15 C 0.32495 0.08274 0.15923 0.0
C16 C 0.27634 0.06681 0.19784 0.0
C17 C 0.13383 0.14417 0.27931 0.0
C18 C 0.14135 0.10865 0.3335 0.0
C19 C 0.08633 0.12455 0.31824 0.0
C20 C 0.09964 0.14274 0.28734 0.0
C21 C 0.10705 0.10751 0.34182 0.0
C22 C 0.15462 0.12672 0.30244 0.0
C23 C 0.14713 0.16465 0.24705 0.0
O24 O 0.21931 0.21535 0.17729 0.0
O25 O 0.18633 0.17842 0.14822 0.0
O26 O 0.14386 0.14677 0.21935 0.0
O27 O 0.17642 0.18402 0.24853 0.0
H28 H 0.163 0.25087 0.1846 0.0
H29 H 0.1361 0.30452 0.1623 0.0
H30 H 0.17585 0.29339 0.06061 0.0
H31 H 0.20345 0.24071 0.08336 0.0
H32 H 0.33039 0.13907 0.13619 0.0
H33 H 0.28003 0.156 0.16442 0.0
H34 H 0.31098 0.02902 0.18642 0.0
H35 H 0.2615 0.04652 0.21517 0.0
H36 H 0.1579 0.09543 0.35094 0.0
H37 H 0.05993 0.12458 0.32401 0.0
H38 H 0.08322 0.15609 0.26981 0.0
H39 H 0.18109 0.12729 0.29661 0.0
C40 C 0.26472 0.86141 0.63483 0.0
C41 C 0.25768 0.88918 0.65554 0.0
C42 C 0.20821 0.89923 0.62261 0.0
C43 C 0.22966 0.90795 0.64948 0.0
C44 C 0.21529 0.87106 0.60219 0.0
C45 C 0.24335 0.85234 0.60827 0.0
U46 U 0.3419 0.84594 0.68563 0.0
O47 O 0.36359 0.79531 0.70267 0.0
O48 O 0.39267 0.83785 0.66808 0.0
C49 C 0.39075 0.8043 0.68326 0.0
C50 C 0.29452 0.84222 0.64052 0.0
C51 C 0.40023 0.77596 0.66171 0.0
C52 C 0.38553 0.7252 0.62687 0.0
C53 C 0.376 0.75304 0.646 0.0
C54 C 0.44365 0.74373 0.63796 0.0
C55 C 0.41948 0.71999 0.62285 0.0
C56 C 0.43407 0.77137 0.65728 0.0
C57 C 0.36296 0.8993 0.76219 0.0
C58 C 0.41247 0.88819 0.79424 0.0
C59 C 0.37605 0.93168 0.81267 0.0
C60 C 0.35525 0.92459 0.78519 0.0
C61 C 0.40487 0.91347 0.81755 0.0
C62 C 0.39168 0.88115 0.76681 0.0
C63 C 0.34082 0.89143 0.73374 0.0
O64 O 0.32312 0.86297 0.63495 0.0
O65 O 0.29372 0.82021 0.66895 0.0
O66 O 0.3244 0.85834 0.73652 0.0
O67 O 0.35404 0.90118 0.70288 0.0
H68 H 0.27406 0.89654 0.67615 0.0
H69 H 0.22518 0.92979 0.66538 0.0
H70 H 0.19905 0.86333 0.58161 0.0
H71 H 0.24842 0.83087 0.59215 0.0
H72 H 0.36621 0.70721 0.61596 0.0
H73 H 0.3497 0.75629 0.64896 0.0
H74 H 0.47002 0.74095 0.6349 0.0
H75 H 0.45311 0.78902 0.66901 0.0
H76 H 0.43471 0.87411 0.79698 0.0
H77 H 0.36931 0.95099 0.83038 0.0
H78 H 0.33306 0.93869 0.782 0.0
H79 H 0.39797 0.86153 0.74918 0.0
C80 C 0.61709 0.38257 0.75504 0.0
C81 C 0.60939 0.41892 0.75648 0.0
C82 C 0.59898 0.42387 0.69501 0.0
C83 C 0.60037 0.43931 0.72678 0.0
C84 C 0.60722 0.38774 0.69359 0.0
C85 C 0.61604 0.36734 0.72325 0.0
U86 U 0.67095 0.35767 0.83259 0.0
O87 O 0.65595 0.33544 0.88531 0.0
O88 O 0.68439 0.30342 0.85255 0.0
C89 C 0.6678 0.3039 0.88178 0.0
C90 C 0.62446 0.35932 0.78633 0.0
C91 C 0.64601 0.26988 0.89355 0.0
C92 C 0.59377 0.23823 0.91858 0.0
C93 C 0.61279 0.27062 0.90504 0.0
C94 C 0.64051 0.20378 0.90868 0.0
C95 C 0.60751 0.20447 0.9208 0.0
C96 C 0.65953 0.23611 0.89534 0.0
C97 C 0.75231 0.41807 0.84759 0.0
C98 C 0.78759 0.40827 0.89676 0.0
C99 C 0.80657 0.45347 0.84974 0.0
C100 C 0.77684 0.44501 0.83285 0.0
C101 C 0.81247 0.43508 0.8818 0.0
C102 C 0.75776 0.39971 0.8797 0.0
C103 C 0.72164 0.40934 0.82864 0.0
O104 O 0.65033 0.34058 0.78391 0.0
O105 O 0.62215 0.37346 0.81601 0.0
O106 O 0.69334 0.41216 0.845 0.0
O107 O 0.72086 0.3798 0.81178 0.0
H108 H 0.60991 0.43153 0.78056 0.0
H109 H 0.59445 0.46717 0.7287 0.0
H110 H 0.6059 0.37477 0.66969 0.0
H111 H 0.62149 0.33928 0.72143 0.0
H112 H 0.56832 0.23963 0.92739 0.0
H113 H 0.6016 0.29622 0.90404 0.0
H114 H 0.65205 0.17837 0.91045 0.0
H115 H 0.68517 0.23482 0.88701 0.0
H116 H 0.79143 0.39349 0.92131 0.0
H117 H 0.82487 0.47472 0.83775 0.0
H118 H 0.77302 0.4595 0.80813 0.0
H119 H 0.73907 0.37868 0.8914 0.0
C120 C 0.78957 0.58794 0.32492 0.0
C121 C 0.78959 0.57654 0.36023 0.0
C122 C 0.72875 0.56728 0.36236 0.0
C123 C 0.75951 0.56627 0.37871 0.0
C124 C 0.72883 0.57882 0.32707 0.0
C125 C 0.75888 0.58881 0.30856 0.0
U126 U 0.86721 0.65548 0.3057 0.0
O127 O 0.91925 0.64738 0.29354 0.0
O128 O 0.89081 0.67881 0.25621 0.0
C129 C 0.9179 0.66239 0.26185 0.0
C130 C 0.82102 0.59961 0.30492 0.0
C131 C 0.92791 0.64029 0.23426 0.0
C132 C 0.93841 0.58172 0.21359 0.0
C133 C 0.92916 0.60211 0.24018 0.0
C134 C 0.9446 0.63708 0.17457 0.0
C135 C 0.94617 0.59897 0.18048 0.0
C136 C 0.93569 0.65753 0.20123 0.0
C137 C 0.87386 0.73708 0.36384 0.0
C138 C 0.91459 0.79127 0.36082 0.0
C139 C 0.87032 0.78281 0.40456 0.0
C140 C 0.85821 0.74963 0.39213 0.0
C141 C 0.89836 0.80432 0.38884 0.0
C142 C 0.90231 0.75783 0.34829 0.0
C143 C 0.85902 0.70271 0.35111 0.0
O144 O 0.82107 0.62992 0.28441 0.0
O145 O 0.849 0.59777 0.32154 0.0
O146 O 0.87504 0.67362 0.35749 0.0
O147 O 0.84673 0.70532 0.32017 0.0
H148 H 0.8128 0.57548 0.37368 0.0
H149 H 0.76042 0.55697 0.4057 0.0
H150 H 0.70563 0.58045 0.31373 0.0
H151 H 0.75812 0.59752 0.28141 0.0
H152 H 0.93911 0.55235 0.21882 0.0
H153 H 0.92291 0.58793 0.26529 0.0
H154 H 0.95082 0.65121 0.14943 0.0
H155 H 0.93483 0.68688 0.19605 0.0
H156 H 0.9362 0.80729 0.34815 0.0
H157 H 0.85765 0.79162 0.4266 0.0
H158 H 0.83631 0.73383 0.40453 0.0
H159 H 0.91468 0.74841 0.32636 0.0
C160 C 0.84905 0.76932 0.89329 0.0
C161 C 0.8838 0.77004 0.88865 0.0
C162 C 0.8822 0.70971 0.92043 0.0
C163 C 0.90026 0.74052 0.90219 0.0
C164 C 0.84729 0.70894 0.92424 0.0
C165 C 0.83095 0.73848 0.91092 0.0
U166 U 0.83749 0.84958 0.82703 0.0
O167 O 0.79124 0.86629 0.80416 0.0
O168 O 0.82238 0.90433 0.83391 0.0
C169 C 0.794 0.8977 0.81825 0.0
C170 C 0.83107 0.80021 0.88003 0.0
C171 C 0.76364 0.90668 0.83599 0.0
C172 C 0.73259 0.91662 0.88783 0.0
C173 C 0.7611 0.90601 0.87197 0.0
C174 C 0.70844 0.92746 0.83205 0.0
C175 C 0.70606 0.92794 0.868 0.0
C176 C 0.73694 0.91706 0.81627 0.0
C177 C 0.89949 0.87078 0.74961 0.0
C178 C 0.92602 0.92641 0.71736 0.0
C179 C 0.91245 0.87113 0.6885 0.0
C180 C 0.89952 0.85263 0.7194 0.0
C181 C 0.92594 0.9082 0.68711 0.0
C182 C 0.91287 0.90793 0.7483 0.0
C183 C 0.88693 0.84987 0.78221 0.0
O184 O 0.84685 0.83335 0.88116 0.0
O185 O 0.8156 0.79573 0.85111 0.0
O186 O 0.85834 0.82914 0.78078 0.0
O187 O 0.88964 0.86714 0.81036 0.0
H188 H 0.89824 0.79351 0.87483 0.0
H189 H 0.92715 0.74216 0.89893 0.0
H190 H 0.83244 0.68536 0.9374 0.0
H191 H 0.80408 0.73726 0.91443 0.0
H192 H 0.73173 0.91685 0.91552 0.0
H193 H 0.78131 0.89786 0.8878 0.0
H194 H 0.68825 0.9352 0.816 0.0
H195 H 0.73828 0.91749 0.78851 0.0
H196 H 0.93596 0.95505 0.71704 0.0
H197 H 0.91242 0.85615 0.66578 0.0
H198 H 0.88978 0.8239 0.71975 0.0
H199 H 0.91336 0.92273 0.77113 0.0
C200 C 0.62481 0.17204 0.28124 0.0
C201 C 0.63895 0.14285 0.2677 0.0
C202 C 0.60007 0.14402 0.22071 0.0
C203 C 0.62661 0.12886 0.23766 0.0
C204 C 0.58617 0.17337 0.23447 0.0
C205 C 0.59847 0.18724 0.26447 0.0
U206 U 0.68742 0.17697 0.35298 0.0
O207 O 0.71064 0.22455 0.37758 0.0
O208 O 0.67861 0.18106 0.40825 0.0
C209 C 0.6946 0.21432 0.40703 0.0
C210 C 0.63711 0.18686 0.31286 0.0
C211 C 0.67576 0.24227 0.42065 0.0
C212 C 0.63963 0.29096 0.41174 0.0
C213 C 0.65618 0.2632 0.39898 0.0
C214 C 0.66079 0.27601 0.46831 0.0
C215 C 0.64212 0.29808 0.44647 0.0
C216 C 0.67755 0.24844 0.45545 0.0
C217 C 0.76047 0.11908 0.35339 0.0
C218 C 0.80245 0.12185 0.39724 0.0
C219 C 0.80735 0.08313 0.35052 0.0
C220 C 0.77781 0.09416 0.33699 0.0
C221 C 0.82011 0.09694 0.38072 0.0
C222 C 0.77284 0.13289 0.38362 0.0
C223 C 0.72992 0.13088 0.33827 0.0
O224 O 0.63491 0.16322 0.34024 0.0
O225 O 0.66583 0.20769 0.30962 0.0
O226 O 0.73242 0.16527 0.32517 0.0
O227 O 0.70223 0.12085 0.35659 0.0
H228 H 0.65946 0.13091 0.28038 0.0
H229 H 0.63802 0.10647 0.22752 0.0
H230 H 0.56539 0.18527 0.22235 0.0
H231 H 0.58728 0.20974 0.27469 0.0
H232 H 0.62581 0.30761 0.3941 0.0
H233 H 0.65426 0.25855 0.37203 0.0
H234 H 0.66273 0.28026 0.49532 0.0
H235 H 0.69223 0.23223 0.47259 0.0
H236 H 0.81174 0.13318 0.42037 0.0
H237 H 0.81998 0.06342 0.33751 0.0
H238 H 0.76851 0.08324 0.31365 0.0
H239 H 0.75971 0.15232 0.39651 0.0
C240 C 0.29032 0.60851 0.18615 0.0
C241 C 0.26422 0.63113 0.1862 0.0
C242 C 0.23136 0.59119 0.14969 0.0
C243 C 0.23508 0.62252 0.16822 0.0
C244 C 0.25773 0.56905 0.14902 0.0
C245 C 0.28679 0.57752 0.1672 0.0
U246 U 0.37283 0.66531 0.2042 0.0
O247 O 0.39344 0.68221 0.25298 0.0
O248 O 0.42076 0.64781 0.2216 0.0
C249 C 0.41873 0.66253 0.25101 0.0
C250 C 0.32051 0.6158 0.20682 0.0
C251 C 0.42559 0.63951 0.28262 0.0
C252 C 0.44134 0.58265 0.31159 0.0
C253 C 0.43228 0.60273 0.28174 0.0
C254 C 0.43645 0.63534 0.34387 0.0
C255 C 0.44381 0.59882 0.34297 0.0
C256 C 0.42758 0.65543 0.31404 0.0
C257 C 0.40073 0.7503 0.14044 0.0
C258 C 0.4378 0.80555 0.1487 0.0
C259 C 0.42308 0.79096 0.09121 0.0
C260 C 0.40358 0.75912 0.10485 0.0
C261 C 0.44022 0.81479 0.11293 0.0
C262 C 0.41827 0.7735 0.16236 0.0
C263 C 0.37807 0.71772 0.15364 0.0
O264 O 0.34919 0.6111 0.19213 0.0
O265 O 0.32221 0.64513 0.22413 0.0
O266 O 0.36185 0.71992 0.18278 0.0
O267 O 0.38925 0.68566 0.15126 0.0
H268 H 0.266 0.65525 0.20049 0.0
H269 H 0.21532 0.64029 0.169 0.0
H270 H 0.25547 0.54445 0.1354 0.0
H271 H 0.30632 0.5594 0.16691 0.0
H272 H 0.44652 0.55447 0.31008 0.0
H273 H 0.43103 0.58958 0.25795 0.0
H274 H 0.43858 0.64885 0.36744 0.0
H275 H 0.42292 0.68382 0.31541 0.0
H276 H 0.45094 0.82312 0.16611 0.0
H277 H 0.4239 0.79744 0.06362 0.0
H278 H 0.39012 0.74166 0.08753 0.0
H279 H 0.41654 0.76712 0.18996 0.0
C280 C 0.10802 0.27139 0.70594 0.0
C281 C 0.12759 0.27069 0.67598 0.0
C282 C 0.09944 0.21056 0.66613 0.0
C283 C 0.12328 0.24068 0.65622 0.0
C284 C 0.07958 0.21158 0.69603 0.0
C285 C 0.08389 0.24177 0.71581 0.0
U286 U 0.16396 0.35466 0.72467 0.0
O287 O 0.15483 0.41004 0.73713 0.0
O288 O 0.18245 0.37563 0.77276 0.0
C289 C 0.16908 0.40664 0.76709 0.0
C290 C 0.11413 0.30233 0.7274 0.0
C291 C 0.15086 0.41858 0.79634 0.0
C292 C 0.09988 0.42089 0.82997 0.0
C293 C 0.1166 0.40794 0.80247 0.0
C294 C 0.15159 0.45476 0.84557 0.0
C295 C 0.11722 0.44451 0.85181 0.0
C296 C 0.1682 0.44191 0.8181 0.0
C297 C 0.24245 0.37642 0.66606 0.0
C298 C 0.29787 0.40507 0.67774 0.0
C299 C 0.27809 0.40797 0.61949 0.0
C300 C 0.24792 0.388 0.6311 0.0
C301 C 0.30356 0.41651 0.64262 0.0
C302 C 0.26757 0.38536 0.68938 0.0
C303 C 0.21082 0.35423 0.67725 0.0
O304 O 0.14027 0.30084 0.74694 0.0
O305 O 0.11269 0.33504 0.71125 0.0
O306 O 0.18352 0.3703 0.67183 0.0
O307 O 0.21056 0.33513 0.70731 0.0
H308 H 0.14646 0.29328 0.66802 0.0
H309 H 0.13862 0.24113 0.6331 0.0
H310 H 0.06124 0.1887 0.70458 0.0
H311 H 0.06876 0.24176 0.73901 0.0
H312 H 0.07349 0.41213 0.83434 0.0
H313 H 0.10282 0.38981 0.78595 0.0
H314 H 0.16561 0.47325 0.86159 0.0
H315 H 0.19463 0.45051 0.81365 0.0
H316 H 0.31704 0.41076 0.69623 0.0
H317 H 0.28133 0.41689 0.59239 0.0
H318 H 0.22884 0.38147 0.6127 0.0
H319 H 0.26401 0.37681 0.71654 0.0
Zn320 Zn 0.05517 0.02603 0.54918 0.0
Zn321 Zn 0.97515 0.99616 0.48144 0.0
C322 C 0.08645 0.08582 0.58372 0.0
O323 O 0.1131 0.07553 0.56901 0.0
C324 C 0.93919 0.9387 0.45128 0.0
O325 O 0.91589 0.95378 0.46728 0.0
O326 O 0.0899 0.99263 0.56302 0.0
O327 O 1.00937 0.99777 0.5545 0.0
O328 O 0.96314 0.97691 0.53036 0.0
C329 C 0.09652 0.98321 0.59397 0.0
O330 O 0.07934 0.99482 0.61899 0.0
O331 O 0.05807 0.06849 0.57902 0.0
C332 C 0.9381 0.03799 0.43388 0.0
O333 O 0.95904 0.02633 0.4122 0.0
O334 O 0.94085 0.02966 0.46585 0.0
O335 O 0.02133 0.02405 0.47549 0.0
O336 O 0.06714 0.04561 0.50021 0.0
O337 O 0.96946 0.95231 0.45313 0.0
C338 C 0.98038 0.98011 0.55705 0.0
C339 C 0.05051 0.04136 0.47321 0.0
Zn340 Zn 0.53406 0.98412 0.97445 0.0
Zn341 Zn 0.50427 0.03829 0.05869 0.0
C342 C 0.49335 0.94219 0.92963 0.0
O343 O 0.50722 0.91523 0.94605 0.0
C344 C 0.53813 0.08721 0.10103 0.0
O345 O 0.52528 0.11004 0.07853 0.0
O346 O 0.57679 0.96555 0.95842 0.0
O347 O 0.54277 0.03905 0.97482 0.0
O348 O 0.52544 0.06958 0.01722 0.0
C349 C 0.58895 0.97901 0.92922 0.0
O350 O 0.57363 1.00415 0.91179 0.0
O351 O 0.50082 0.97483 0.93765 0.0
C352 C 0.44789 0.04183 0.10084 0.0
O353 O 0.46583 0.02065 0.11999 0.0
O354 O 0.45883 0.05359 0.0707 0.0
O355 O 0.4993 0.98277 0.06024 0.0
O356 O 0.51586 0.95298 0.01693 0.0
O357 O 0.53307 0.05289 0.09792 0.0
C358 C 0.53988 0.06901 0.98809 0.0
C359 C 0.50317 0.953 0.04695 0.0
Zn360 Zn 0.55916 0.49141 0.49041 0.0
Zn361 Zn 0.48219 0.52772 0.5475 0.0
C362 C 0.60499 0.51655 0.43785 0.0
O363 O 0.58107 0.49753 0.42241 0.0
C364 C 0.42915 0.49766 0.5937 0.0
O365 O 0.44621 0.51937 0.61372 0.0
O366 O 0.56363 0.43976 0.47819 0.0
O367 O 0.56033 0.48825 0.54223 0.0
O368 O 0.51957 0.50658 0.5732 0.0
C369 C 0.59043 0.42846 0.48969 0.0
O370 O 0.6096 0.44994 0.50819 0.0
O371 O 0.60145 0.51995 0.46981 0.0
C372 C 0.45347 0.59463 0.5544 0.0
O373 O 0.43329 0.58086 0.53156 0.0
O374 O 0.47756 0.57714 0.56456 0.0
O375 O 0.48264 0.53408 0.49572 0.0
O376 O 0.52196 0.51325 0.46452 0.0
O377 O 0.44 0.49587 0.56319 0.0
C378 C 0.54713 0.49293 0.57109 0.0
C379 C 0.49547 0.52898 0.46679 0.0
Zn380 Zn 0.97992 0.52331 0.98752 0.0
Zn381 Zn 0.06323 0.49625 0.04753 0.0
C382 C 0.93626 0.48624 0.94396 0.0
O383 O 0.96026 0.50222 0.92284 0.0
C384 C 0.10678 0.53702 0.09062 0.0
O385 O 0.08136 0.52654 0.11204 0.0
O386 O 0.9697 0.57292 0.96623 0.0
O387 O 0.98208 0.5284 0.03868 0.0
O388 O 0.02405 0.51387 0.07158 0.0
C389 C 0.94287 0.58294 0.97824 0.0
O390 O 0.926 0.56146 1.00265 0.0
O391 O 0.9391 0.48947 0.97599 0.0
C392 C 0.09998 0.43686 0.05731 0.0
O393 O 0.1183 0.46 0.03525 0.0
O394 O 0.07196 0.44562 0.06754 0.0
O395 O 0.06163 0.49383 0.99624 0.0
O396 O 0.01983 0.50747 0.9628 0.0
O397 O 0.10466 0.52881 0.05967 0.0
C398 C 0.99565 0.52561 0.06783 0.0
C399 C 0.0487 0.49692 0.96682 0.0
C400 C 0.11014 0.09465 0.4058 0.0
C401 C 0.09297 0.08949 0.3753 0.0
H402 H 0.1102 0.08384 0.46044 0.0
C403 C 0.06188 0.06779 0.37717 0.0
H404 H 0.13394 0.11155 0.40534 0.0
C405 C 0.04819 0.05189 0.40884 0.0
C406 C 0.06512 0.05752 0.4394 0.0
H407 H 0.04822 0.06286 0.35408 0.0
H408 H 0.02438 0.03511 0.40933 0.0
C409 C 0.09638 0.07891 0.43745 0.0
C410 C 0.44068 0.89181 0.86544 0.0
C411 C 0.42696 0.92079 0.84679 0.0
H412 H 0.47221 0.87577 0.90626 0.0
C413 C 0.43479 0.95683 0.85605 0.0
H414 H 0.43475 0.86367 0.85928 0.0
C415 C 0.45612 0.96376 0.88313 0.0
C416 C 0.47008 0.93479 0.90154 0.0
H417 H 0.42494 0.97981 0.84196 0.0
H418 H 0.46189 0.99188 0.88938 0.0
C419 C 0.46199 0.89873 0.89251 0.0
C420 C 0.56001 0.46479 0.66539 0.0
C421 C 0.58766 0.44458 0.66368 0.0
H422 H 0.5256 0.49596 0.63771 0.0
C423 C 0.60333 0.44275 0.63151 0.0
H424 H 0.54716 0.4665 0.68969 0.0
C425 C 0.59097 0.45962 0.60164 0.0
C426 C 0.56251 0.47864 0.60315 0.0
H427 H 0.62498 0.42787 0.62934 0.0
H428 H 0.6033 0.45691 0.57729 0.0
C429 C 0.54755 0.48156 0.6355 0.0
C430 C 0.94383 0.58316 0.11926 0.0
C431 C 0.95657 0.57756 0.15231 0.0
H432 H 0.9457 0.57076 0.06686 0.0
C433 C 0.9803 0.55241 0.15794 0.0
H434 H 0.92523 0.60204 0.11425 0.0
C435 C 0.99205 0.53441 0.13077 0.0
C436 C 0.98012 0.5409 0.09742 0.0
H437 H 0.9907 0.54766 0.1831 0.0
H438 H 1.01108 0.51606 0.13577 0.0
C439 C 0.95535 0.56491 0.09216 0.0
C440 C 0.36649 0.08473 0.10957 0.0
C441 C 0.3564 0.07255 0.14371 0.0
H442 H 0.40319 0.08449 0.06904 0.0
C443 C 0.37674 0.05041 0.16328 0.0
H444 H 0.35129 0.10159 0.09367 0.0
C445 C 0.40615 0.04041 0.14915 0.0
C446 C 0.41623 0.0524 0.11505 0.0
H447 H 0.3702 0.04111 0.18984 0.0
H448 H 0.42112 0.02341 0.16519 0.0
C449 C 0.39611 0.07475 0.09538 0.0
C450 C 0.15921 0.92992 0.64241 0.0
C451 C 0.179 0.91996 0.61542 0.0
H452 H 0.11754 0.9575 0.65687 0.0
C453 C 0.171 0.93044 0.58138 0.0
H454 H 0.16447 0.92188 0.66891 0.0
C455 C 0.14401 0.95058 0.57448 0.0
C456 C 0.1244 0.96081 0.60146 0.0
H457 H 0.186 0.92371 0.56 0.0
H458 H 0.13881 0.95848 0.54794 0.0
C459 C 0.1322 0.95013 0.63551 0.0
C460 C 0.87468 0.4504 0.87963 0.0
C461 C 0.8446 0.44417 0.89909 0.0
H462 H 0.927 0.46802 0.8786 0.0
C463 C 0.84547 0.44855 0.93453 0.0
H464 H 0.87507 0.44646 0.85247 0.0
C465 C 0.87552 0.46071 0.94971 0.0
C466 C 0.90522 0.4687 0.92971 0.0
H467 H 0.82272 0.44406 0.95023 0.0
H468 H 0.87522 0.46522 0.97675 0.0
C469 C 0.90453 0.46257 0.8947 0.0
C470 C 0.69218 0.56387 0.41587 0.0
C471 C 0.69673 0.55543 0.38173 0.0
H472 H 0.65957 0.55839 0.46047 0.0
C473 C 0.67052 0.53499 0.36622 0.0
H474 H 0.71168 0.57999 0.42846 0.0
C475 C 0.64064 0.52311 0.38434 0.0
C476 C 0.63622 0.53109 0.41857 0.0
H477 H 0.67329 0.5274 0.34021 0.0
H478 H 0.62119 0.50706 0.37158 0.0
C479 C 0.66224 0.55174 0.43414 0.0
C480 C 0.10751 0.34462 0.10717 0.0
C481 C 0.13942 0.33725 0.09619 0.0
H482 H 0.06976 0.38178 0.1034 0.0
C483 C 0.1578 0.36277 0.0723 0.0
H484 H 0.09257 0.32538 0.12534 0.0
C485 C 0.14469 0.39472 0.05961 0.0
C486 C 0.11288 0.40221 0.07056 0.0
H487 H 0.1827 0.35843 0.06377 0.0
H488 H 0.15979 0.41375 0.04138 0.0
C489 C 0.09435 0.3768 0.09446 0.0
C490 C 0.58973 0.13657 0.92246 0.0
C491 C 0.58813 0.17023 0.93676 0.0
H492 H 0.57569 0.07851 0.92712 0.0
C493 C 0.56911 0.1706 0.96725 0.0
H494 H 0.60379 0.13539 0.89876 0.0
C495 C 0.55287 0.13791 0.98357 0.0
C496 C 0.55517 0.10409 0.96971 0.0
H497 H 0.56763 0.196 0.97913 0.0
H498 H 0.53902 0.13914 1.00738 0.0
C499 C 0.57344 0.10394 0.93868 0.0
C500 C 0.94386 0.85125 0.40658 0.0
C501 C 0.9098 0.84038 0.40176 0.0
H502 H 0.98006 0.89102 0.42617 0.0
C503 C 0.88612 0.86346 0.4111 0.0
H504 H 0.96268 0.83398 0.39972 0.0
C505 C 0.89595 0.89568 0.42639 0.0
C506 C 0.92979 0.9059 0.43253 0.0
H507 H 0.85976 0.85636 0.407 0.0
H508 H 0.87685 0.91235 0.43381 0.0
C509 C 0.95378 0.88379 0.42183 0.0
C510 C 0.41277 0.67903 0.57439 0.0
C511 C 0.42952 0.6892 0.60397 0.0
H512 H 0.40731 0.64138 0.53541 0.0
C513 C 0.45534 0.66896 0.61606 0.0
H514 H 0.39316 0.69436 0.56401 0.0
C515 C 0.46375 0.6389 0.59939 0.0
C516 C 0.44638 0.62819 0.57038 0.0
H517 H 0.46847 0.67564 0.63905 0.0
H518 H 0.48329 0.62349 0.60983 0.0
C519 C 0.42104 0.6488 0.55784 0.0
C520 C 0.92274 0.92273 0.62348 0.0
C521 C 0.93977 0.92759 0.6541 0.0
H522 H 0.92204 0.93546 0.56917 0.0
C523 C 0.97021 0.9505 0.65273 0.0
H524 H 0.89904 0.90567 0.62369 0.0
C525 C 0.98353 0.96771 0.62131 0.0
C526 C 0.96653 0.96255 0.59066 0.0
H527 H 0.98406 0.95455 0.67587 0.0
H528 H 1.00713 0.98493 0.62104 0.0
C529 C 0.9359 0.94002 0.59221 0.0
C530 C 0.58104 0.09106 0.18643 0.0
C531 C 0.58647 0.1292 0.18903 0.0
H532 H 0.56147 0.04776 0.15654 0.0
C533 C 0.57758 0.15323 0.16162 0.0
H534 H 0.58739 0.07184 0.20724 0.0
C535 C 0.5626 0.13949 0.13275 0.0
C536 C 0.55622 0.10139 0.13057 0.0
H537 H 0.58201 0.18276 0.16256 0.0
H538 H 0.55562 0.15884 0.11235 0.0
C539 C 0.56606 0.07727 0.15746 0.0
C540 C 0.48224 0.55716 0.37251 0.0
C541 C 0.45531 0.57841 0.37439 0.0
H542 H 0.516 0.52491 0.39997 0.0
C543 C 0.44048 0.5814 0.40675 0.0
H544 H 0.49447 0.55456 0.34806 0.0
C545 C 0.45286 0.56446 0.43657 0.0
C546 C 0.48049 0.54417 0.43485 0.0
H547 H 0.4194 0.59713 0.40908 0.0
H548 H 0.44112 0.56794 0.46106 0.0
C549 C 0.49471 0.54029 0.40236 0.0
C550 C 0.11502 0.46039 0.91302 0.0
C551 C 0.09972 0.45847 0.88106 0.0
H552 H 0.11122 0.47422 0.96485 0.0
C553 C 0.06782 0.4703 0.87724 0.0
H554 H 0.13943 0.45113 0.91695 0.0
C555 C 0.05153 0.48354 0.90481 0.0
C556 C 0.06672 0.4851 0.9369 0.0
H557 H 0.05553 0.46964 0.85284 0.0
H558 H 0.02689 0.49217 0.90101 0.0
C559 C 0.09874 0.47352 0.94056 0.0
C560 C 0.66234 0.92411 0.91577 0.0
C561 C 0.67639 0.94118 0.88441 0.0
H562 H 0.62371 0.92257 0.95459 0.0
C563 C 0.6618 0.9712 0.86857 0.0
H564 H 0.67273 0.90074 0.92855 0.0
C565 C 0.63364 0.98346 0.8833 0.0
C566 C 0.61937 0.96621 0.91441 0.0
H567 H 0.6723 0.98554 0.84481 0.0
H568 H 0.62309 0.00657 0.87021 0.0
C569 C 0.63415 0.93652 0.93063 0.0
C570 C 0.85436 0.07619 0.43041 0.0
C571 C 0.85152 0.0849 0.39491 0.0
H572 H 0.88404 0.05468 0.47066 0.0
C573 C 0.87847 0.08058 0.37279 0.0
H574 H 0.83395 0.07895 0.44811 0.0
C575 C 0.90703 0.06648 0.38565 0.0
C576 C 0.90938 0.05651 0.42095 0.0
H577 H 0.87735 0.08775 0.34539 0.0
H578 H 0.92701 0.06276 0.36777 0.0
C579 C 0.88303 0.06217 0.44331 0.0
C580 C 0.16874 0.58145 0.1504 0.0
C581 C 0.19935 0.58038 0.13287 0.0
H582 H 0.11563 0.56876 0.15075 0.0
C583 C 0.19908 0.56724 0.10006 0.0
H584 H 0.16807 0.59106 0.17583 0.0
C585 C 0.16889 0.55459 0.08553 0.0
C586 C 0.13842 0.5544 0.10372 0.0
H587 H 0.22225 0.56638 0.08578 0.0
H588 H 0.16954 0.5438 0.06059 0.0
C589 C 0.13867 0.56847 0.13608 0.0
C590 C 0.35057 0.43047 0.59859 0.0
C591 C 0.33594 0.43713 0.63013 0.0
H592 H 0.39141 0.4443 0.56234 0.0
C593 C 0.35249 0.46366 0.64962 0.0
H594 H 0.33883 0.40981 0.58318 0.0
C595 C 0.38288 0.48302 0.63789 0.0
C596 C 0.39732 0.47653 0.60628 0.0
H597 H 0.34173 0.46993 0.67374 0.0
H598 H 0.39483 0.50341 0.65347 0.0
C599 C 0.38085 0.45006 0.58674 0.0
C600 C 0.88858 0.66076 0.968 0.0
C601 C 0.89945 0.67855 0.93584 0.0
H602 H 0.89381 0.617 1.0065 0.0
C603 C 0.92628 0.66579 0.91847 0.0
H604 H 0.86858 0.67034 0.98255 0.0
C605 C 0.9412 0.63532 0.93256 0.0
C606 C 0.92942 0.61692 0.96418 0.0
H607 H 0.93516 0.67865 0.89353 0.0
H608 H 0.96127 0.62559 0.91826 0.0
C609 C 0.90323 0.63027 0.98188 0.0
C610 C 0.47812 0.8507 0.06725 0.0
C611 C 0.4593 0.84974 0.09805 0.0
H612 H 0.50687 0.88371 0.02718 0.0
C613 C 0.45719 0.88281 0.11327 0.0
H614 H 0.48076 0.82566 0.05512 0.0
C615 C 0.47239 0.91621 0.09734 0.0
C616 C 0.49006 0.91732 0.06578 0.0
H617 H 0.44266 0.88313 0.13683 0.0
H618 H 0.46937 0.94127 0.10927 0.0
C619 C 0.49327 0.88403 0.05131 0.0
C620 C 0.12434 0.16503 0.63161 0.0
C621 C 0.09589 0.17809 0.64556 0.0
H622 H 0.14369 0.12586 0.60133 0.0
C623 C 0.06421 0.1601 0.6394 0.0
H624 H 0.14916 0.17778 0.63633 0.0
C625 C 0.06108 0.13002 0.61948 0.0
C626 C 0.08956 0.11729 0.60527 0.0
H627 H 0.04177 0.16965 0.64946 0.0
H628 H 0.03631 0.11697 0.615 0.0
C629 C 0.12121 0.13507 0.61168 0.0
C630 C 0.6449 0.35182 0.48212 0.0
C631 C 0.62719 0.32985 0.45933 0.0
H632 H 0.64709 0.39967 0.50968 0.0
C633 C 0.59613 0.33964 0.44782 0.0
H634 H 0.66913 0.34557 0.49107 0.0
C635 C 0.58356 0.37119 0.45824 0.0
C636 C 0.60179 0.39349 0.48041 0.0
H637 H 0.58164 0.32306 0.43057 0.0
H638 H 0.55991 0.37842 0.44848 0.0
C639 C 0.63233 0.38312 0.49259 0.0
loop_
_geom_bond_atom_site_label_1
_geom_bond_atom_site_label_2
_geom_bond_distance
_geom_bond_site_symmetry_2
_ccdc_geom_bond_type
C0 C1 1.264 . S
C0 C5 1.479 . S
C0 C10 1.465 . S
C1 C0 1.264 . S
C1 C3 1.339 . S
C1 H28 0.931 . S
C2 C3 1.395 . S
C2 C4 1.320 . S
C3 C1 1.339 . S
C3 C2 1.395 . S
C3 H29 0.929 . S
C4 C2 1.320 . S
C4 C5 1.405 . S
C4 H30 0.930 . S
C5 C0 1.479 . S
C5 C4 1.405 . S
C5 H31 0.931 . S
U6 O7 2.454 . S
U6 O8 2.458 . S
U6 C9 2.984 . S
U6 C10 2.847 . S
U6 C23 2.882 . S
U6 O24 2.441 . S
U6 O25 2.420 . S
U6 O26 2.455 . S
U6 O27 2.449 . S
O7 U6 2.454 . S
O7 C9 1.353 . S
O8 U6 2.458 . S
O8 C9 1.286 . S
C9 U6 2.984 . S
C9 O7 1.353 . S
C9 O8 1.286 . S
C9 C11 1.363 . S
C10 C0 1.465 . S
C10 U6 2.847 . S
C10 O24 1.249 . S
C10 O25 1.202 . S
C11 C9 1.363 . S
C11 C13 1.408 . S
C11 C16 1.342 . S
C12 C13 1.310 . S
C12 C15 1.461 . S
C12 H32 0.932 . S
C13 C11 1.408 . S
C13 C12 1.310 . S
C13 H33 0.930 . S
C14 C15 1.474 . S
C14 C16 1.285 . S
C14 H34 0.929 . S
C15 C12 1.461 . S
C15 C14 1.474 . S
C16 C11 1.342 . S
C16 C14 1.285 . S
C16 H35 0.930 . S
C17 C20 1.424 . S
C17 C22 1.245 . S
C17 C23 1.428 . S
C18 C21 1.260 . S
C18 C22 1.477 . S
C18 H36 0.932 . S
C19 C20 1.384 . S
C19 C21 1.479 . S
C19 H37 0.929 . S
C20 C17 1.424 . S
C20 C19 1.384 . S
C20 H38 0.928 . S
C21 C18 1.260 . S
C21 C19 1.479 . S
C22 C17 1.245 . S
C22 C18 1.477 . S
C22 H39 0.932 . S
C23 U6 2.882 . S
C23 C17 1.428 . S
C23 O26 1.301 . S
C23 O27 1.282 . S
O24 U6 2.441 . S
O24 C10 1.249 . S
O25 U6 2.420 . S
O25 C10 1.202 . S
O26 U6 2.455 . S
O26 C23 1.301 . S
O27 U6 2.449 . S
O27 C23 1.282 . S
H28 C1 0.931 . S
H29 C3 0.929 . S
H30 C4 0.930 . S
H31 C5 0.931 . S
H32 C12 0.932 . S
H33 C13 0.930 . S
H34 C14 0.929 . S
H35 C16 0.930 . S
H36 C18 0.932 . S
H37 C19 0.929 . S
H38 C20 0.928 . S
H39 C22 0.932 . S
C40 C41 1.264 . S
C40 C45 1.479 . S
C40 C50 1.465 . S
C41 C40 1.264 . S
C41 C43 1.339 . S
C41 H68 0.931 . S
C42 C43 1.395 . S
C42 C44 1.320 . S
C43 C41 1.339 . S
C43 C42 1.395 . S
C43 H69 0.929 . S
C44 C42 1.320 . S
C44 C45 1.405 . S
C44 H70 0.930 . S
C45 C40 1.479 . S
C45 C44 1.405 . S
C45 H71 0.931 . S
U46 O47 2.454 . S
U46 O48 2.458 . S
U46 C49 2.984 . S
U46 C50 2.847 . S
U46 C63 2.882 . S
U46 O64 2.441 . S
U46 O65 2.420 . S
U46 O66 2.455 . S
U46 O67 2.449 . S
O47 U46 2.454 . S
O47 C49 1.353 . S
O48 U46 2.458 . S
O48 C49 1.286 . S
C49 U46 2.984 . S
C49 O47 1.353 . S
C49 O48 1.286 . S
C49 C51 1.363 . S
C50 C40 1.465 . S
C50 U46 2.847 . S
C50 O64 1.249 . S
C50 O65 1.202 . S
C51 C49 1.363 . S
C51 C53 1.408 . S
C51 C56 1.342 . S
C52 C53 1.310 . S
C52 C55 1.461 . S
C52 H72 0.932 . S
C53 C51 1.408 . S
C53 C52 1.310 . S
C53 H73 0.930 . S
C54 C55 1.474 . S
C54 C56 1.285 . S
C54 H74 0.929 . S
C55 C52 1.461 . S
C55 C54 1.474 . S
C56 C51 1.342 . S
C56 C54 1.285 . S
C56 H75 0.930 . S
C57 C60 1.424 . S
C57 C62 1.245 . S
C57 C63 1.428 . S
C58 C61 1.260 . S
C58 C62 1.477 . S
C58 H76 0.932 . S
C59 C60 1.384 . S
C59 C61 1.479 . S
C59 H77 0.929 . S
C60 C57 1.424 . S
C60 C59 1.384 . S
C60 H78 0.928 . S
C61 C58 1.260 . S
C61 C59 1.479 . S
C62 C57 1.245 . S
C62 C58 1.477 . S
C62 H79 0.932 . S
C63 U46 2.882 . S
C63 C57 1.428 . S
C63 O66 1.301 . S
C63 O67 1.282 . S
O64 U46 2.441 . S
O64 C50 1.249 . S
O65 U46 2.420 . S
O65 C50 1.202 . S
O66 U46 2.455 . S
O66 C63 1.301 . S
O67 U46 2.449 . S
O67 C63 1.282 . S
H68 C41 0.931 . S
H69 C43 0.929 . S
H70 C44 0.930 . S
H71 C45 0.931 . S
H72 C52 0.932 . S
H73 C53 0.930 . S
H74 C54 0.929 . S
H75 C56 0.930 . S
H76 C58 0.932 . S
H77 C59 0.929 . S
H78 C60 0.928 . S
H79 C62 0.932 . S
C80 C81 1.264 . S
C80 C85 1.479 . S
C80 C90 1.465 . S
C81 C80 1.264 . S
C81 C83 1.339 . S
C81 H108 0.931 . S
C82 C83 1.395 . S
C82 C84 1.320 . S
C83 C81 1.339 . S
C83 C82 1.395 . S
C83 H109 0.929 . S
C84 C82 1.320 . S
C84 C85 1.405 . S
C84 H110 0.930 . S
C85 C80 1.479 . S
C85 C84 1.405 . S
C85 H111 0.931 . S
U86 O87 2.454 . S
U86 O88 2.458 . S
U86 C89 2.984 . S
U86 C90 2.847 . S
U86 C103 2.882 . S
U86 O104 2.441 . S
U86 O105 2.420 . S
U86 O106 2.455 . S
U86 O107 2.449 . S
O87 U86 2.454 . S
O87 C89 1.353 . S
O88 U86 2.458 . S
O88 C89 1.286 . S
C89 U86 2.984 . S
C89 O87 1.353 . S
C89 O88 1.286 . S
C89 C91 1.363 . S
C90 C80 1.465 . S
C90 U86 2.847 . S
C90 O104 1.249 . S
C90 O105 1.202 . S
C91 C89 1.363 . S
C91 C93 1.408 . S
C91 C96 1.342 . S
C92 C93 1.310 . S
C92 C95 1.461 . S
C92 H112 0.932 . S
C93 C91 1.408 . S
C93 C92 1.310 . S
C93 H113 0.930 . S
C94 C95 1.474 . S
C94 C96 1.285 . S
C94 H114 0.929 . S
C95 C92 1.461 . S
C95 C94 1.474 . S
C96 C91 1.342 . S
C96 C94 1.285 . S
C96 H115 0.930 . S
C97 C100 1.424 . S
C97 C102 1.245 . S
C97 C103 1.428 . S
C98 C101 1.260 . S
C98 C102 1.477 . S
C98 H116 0.932 . S
C99 C100 1.384 . S
C99 C101 1.479 . S
C99 H117 0.929 . S
C100 C97 1.424 . S
C100 C99 1.384 . S
C100 H118 0.928 . S
C101 C98 1.260 . S
C101 C99 1.479 . S
C102 C97 1.245 . S
C102 C98 1.477 . S
C102 H119 0.932 . S
C103 U86 2.882 . S
C103 C97 1.428 . S
C103 O106 1.301 . S
C103 O107 1.282 . S
O104 U86 2.441 . S
O104 C90 1.249 . S
O105 U86 2.420 . S
O105 C90 1.202 . S
O106 U86 2.455 . S
O106 C103 1.301 . S
O107 U86 2.449 . S
O107 C103 1.282 . S
H108 C81 0.931 . S
H109 C83 0.929 . S
H110 C84 0.930 . S
H111 C85 0.931 . S
H112 C92 0.932 . S
H113 C93 0.930 . S
H114 C94 0.929 . S
H115 C96 0.930 . S
H116 C98 0.932 . S
H117 C99 0.929 . S
H118 C100 0.928 . S
H119 C102 0.932 . S
C120 C121 1.264 . S
C120 C125 1.479 . S
C120 C130 1.465 . S
C121 C120 1.264 . S
C121 C123 1.339 . S
C121 H148 0.931 . S
C122 C123 1.395 . S
C122 C124 1.320 . S
C123 C121 1.339 . S
C123 C122 1.395 . S
C123 H149 0.929 . S
C124 C122 1.320 . S
C124 C125 1.405 . S
C124 H150 0.930 . S
C125 C120 1.479 . S
C125 C124 1.405 . S
C125 H151 0.931 . S
U126 O127 2.454 . S
U126 O128 2.458 . S
U126 C129 2.984 . S
U126 C130 2.847 . S
U126 C143 2.882 . S
U126 O144 2.441 . S
U126 O145 2.420 . S
U126 O146 2.455 . S
U126 O147 2.449 . S
O127 U126 2.454 . S
O127 C129 1.353 . S
O128 U126 2.458 . S
O128 C129 1.286 . S
C129 U126 2.984 . S
C129 O127 1.353 . S
C129 O128 1.286 . S
C129 C131 1.363 . S
C130 C120 1.465 . S
C130 U126 2.847 . S
C130 O144 1.249 . S
C130 O145 1.202 . S
C131 C129 1.363 . S
C131 C133 1.408 . S
C131 C136 1.342 . S
C132 C133 1.310 . S
C132 C135 1.461 . S
C132 H152 0.932 . S
C133 C131 1.408 . S
C133 C132 1.310 . S
C133 H153 0.930 . S
C134 C135 1.474 . S
C134 C136 1.285 . S
C134 H154 0.929 . S
C135 C132 1.461 . S
C135 C134 1.474 . S
C136 C131 1.342 . S
C136 C134 1.285 . S
C136 H155 0.930 . S
C137 C140 1.424 . S
C137 C142 1.245 . S
C137 C143 1.428 . S
C138 C141 1.260 . S
C138 C142 1.477 . S
C138 H156 0.932 . S
C139 C140 1.384 . S
C139 C141 1.479 . S
C139 H157 0.929 . S
C140 C137 1.424 . S
C140 C139 1.384 . S
C140 H158 0.928 . S
C141 C138 1.260 . S
C141 C139 1.479 . S
C142 C137 1.245 . S
C142 C138 1.477 . S
C142 H159 0.932 . S
C143 U126 2.882 . S
C143 C137 1.428 . S
C143 O146 1.301 . S
C143 O147 1.282 . S
O144 U126 2.441 . S
O144 C130 1.249 . S
O145 U126 2.420 . S
O145 C130 1.202 . S
O146 U126 2.455 . S
O146 C143 1.301 . S
O147 U126 2.449 . S
O147 C143 1.282 . S
H148 C121 0.931 . S
H149 C123 0.929 . S
H150 C124 0.930 . S
H151 C125 0.931 . S
H152 C132 0.932 . S
H153 C133 0.930 . S
H154 C134 0.929 . S
H155 C136 0.930 . S
H156 C138 0.932 . S
H157 C139 0.929 . S
H158 C140 0.928 . S
H159 C142 0.932 . S
C160 C161 1.264 . S
C160 C165 1.479 . S
C160 C170 1.465 . S
C161 C160 1.264 . S
C161 C163 1.339 . S
C161 H188 0.931 . S
C162 C163 1.395 . S
C162 C164 1.320 . S
C163 C161 1.339 . S
C163 C162 1.395 . S
C163 H189 0.929 . S
C164 C162 1.320 . S
C164 C165 1.405 . S
C164 H190 0.930 . S
C165 C160 1.479 . S
C165 C164 1.405 . S
C165 H191 0.931 . S
U166 O167 2.454 . S
U166 O168 2.458 . S
U166 C169 2.984 . S
U166 C170 2.847 . S
U166 C183 2.882 . S
U166 O184 2.441 . S
U166 O185 2.420 . S
U166 O186 2.455 . S
U166 O187 2.449 . S
O167 U166 2.454 . S
O167 C169 1.353 . S
O168 U166 2.458 . S
O168 C169 1.286 . S
C169 U166 2.984 . S
C169 O167 1.353 . S
C169 O168 1.286 . S
C169 C171 1.363 . S
C170 C160 1.465 . S
C170 U166 2.847 . S
C170 O184 1.249 . S
C170 O185 1.202 . S
C171 C169 1.363 . S
C171 C173 1.408 . S
C171 C176 1.342 . S
C172 C173 1.310 . S
C172 C175 1.461 . S
C172 H192 0.932 . S
C173 C171 1.408 . S
C173 C172 1.310 . S
C173 H193 0.930 . S
C174 C175 1.474 . S
C174 C176 1.285 . S
C174 H194 0.929 . S
C175 C172 1.461 . S
C175 C174 1.474 . S
C176 C171 1.342 . S
C176 C174 1.285 . S
C176 H195 0.930 . S
C177 C180 1.424 . S
C177 C182 1.245 . S
C177 C183 1.428 . S
C178 C181 1.260 . S
C178 C182 1.477 . S
C178 H196 0.932 . S
C179 C180 1.384 . S
C179 C181 1.479 . S
C179 H197 0.929 . S
C180 C177 1.424 . S
C180 C179 1.384 . S
C180 H198 0.928 . S
C181 C178 1.260 . S
C181 C179 1.479 . S
C182 C177 1.245 . S
C182 C178 1.477 . S
C182 H199 0.932 . S
C183 U166 2.882 . S
C183 C177 1.428 . S
C183 O186 1.301 . S
C183 O187 1.282 . S
O184 U166 2.441 . S
O184 C170 1.249 . S
O185 U166 2.420 . S
O185 C170 1.202 . S
O186 U166 2.455 . S
O186 C183 1.301 . S
O187 U166 2.449 . S
O187 C183 1.282 . S
H188 C161 0.931 . S
H189 C163 0.929 . S
H190 C164 0.930 . S
H191 C165 0.931 . S
H192 C172 0.932 . S
H193 C173 0.930 . S
H194 C174 0.929 . S
H195 C176 0.930 . S
H196 C178 0.932 . S
H197 C179 0.929 . S
H198 C180 0.928 . S
H199 C182 0.932 . S
C200 C201 1.264 . S
C200 C205 1.479 . S
C200 C210 1.465 . S
C201 C200 1.264 . S
C201 C203 1.339 . S
C201 H228 0.931 . S
C202 C203 1.395 . S
C202 C204 1.320 . S
C203 C201 1.339 . S
C203 C202 1.395 . S
C203 H229 0.929 . S
C204 C202 1.320 . S
C204 C205 1.405 . S
C204 H230 0.930 . S
C205 C200 1.479 . S
C205 C204 1.405 . S
C205 H231 0.931 . S
U206 O207 2.454 . S
U206 O208 2.458 . S
U206 C209 2.984 . S
U206 C210 2.847 . S
U206 C223 2.882 . S
U206 O224 2.441 . S
U206 O225 2.420 . S
U206 O226 2.455 . S
U206 O227 2.449 . S
O207 U206 2.454 . S
O207 C209 1.353 . S
O208 U206 2.458 . S
O208 C209 1.286 . S
C209 U206 2.984 . S
C209 O207 1.353 . S
C209 O208 1.286 . S
C209 C211 1.363 . S
C210 C200 1.465 . S
C210 U206 2.847 . S
C210 O224 1.249 . S
C210 O225 1.202 . S
C211 C209 1.363 . S
C211 C213 1.408 . S
C211 C216 1.342 . S
C212 C213 1.310 . S
C212 C215 1.461 . S
C212 H232 0.932 . S
C213 C211 1.408 . S
C213 C212 1.310 . S
C213 H233 0.930 . S
C214 C215 1.474 . S
C214 C216 1.285 . S
C214 H234 0.929 . S
C215 C212 1.461 . S
C215 C214 1.474 . S
C216 C211 1.342 . S
C216 C214 1.285 . S
C216 H235 0.930 . S
C217 C220 1.424 . S
C217 C222 1.245 . S
C217 C223 1.428 . S
C218 C221 1.260 . S
C218 C222 1.477 . S
C218 H236 0.932 . S
C219 C220 1.384 . S
C219 C221 1.479 . S
C219 H237 0.929 . S
C220 C217 1.424 . S
C220 C219 1.384 . S
C220 H238 0.928 . S
C221 C218 1.260 . S
C221 C219 1.479 . S
C222 C217 1.245 . S
C222 C218 1.477 . S
C222 H239 0.932 . S
C223 U206 2.882 . S
C223 C217 1.428 . S
C223 O226 1.301 . S
C223 O227 1.282 . S
O224 U206 2.441 . S
O224 C210 1.249 . S
O225 U206 2.420 . S
O225 C210 1.202 . S
O226 U206 2.455 . S
O226 C223 1.301 . S
O227 U206 2.449 . S
O227 C223 1.282 . S
H228 C201 0.931 . S
H229 C203 0.929 . S
H230 C204 0.930 . S
H231 C205 0.931 . S
H232 C212 0.932 . S
H233 C213 0.930 . S
H234 C214 0.929 . S
H235 C216 0.930 . S
H236 C218 0.932 . S
H237 C219 0.929 . S
H238 C220 0.928 . S
H239 C222 0.932 . S
C240 C241 1.264 . S
C240 C245 1.479 . S
C240 C250 1.465 . S
C241 C240 1.264 . S
C241 C243 1.339 . S
C241 H268 0.931 . S
C242 C243 1.395 . S
C242 C244 1.320 . S
C243 C241 1.339 . S
C243 C242 1.395 . S
C243 H269 0.929 . S
C244 C242 1.320 . S
C244 C245 1.405 . S
C244 H270 0.930 . S
C245 C240 1.479 . S
C245 C244 1.405 . S
C245 H271 0.931 . S
U246 O247 2.454 . S
U246 O248 2.458 . S
U246 C249 2.984 . S
U246 C250 2.847 . S
U246 C263 2.882 . S
U246 O264 2.441 . S
U246 O265 2.420 . S
U246 O266 2.455 . S
U246 O267 2.449 . S
O247 U246 2.454 . S
O247 C249 1.353 . S
O248 U246 2.458 . S
O248 C249 1.286 . S
C249 U246 2.984 . S
C249 O247 1.353 . S
C249 O248 1.286 . S
C249 C251 1.363 . S
C250 C240 1.465 . S
C250 U246 2.847 . S
C250 O264 1.249 . S
C250 O265 1.202 . S
C251 C249 1.363 . S
C251 C253 1.408 . S
C251 C256 1.342 . S
C252 C253 1.310 . S
C252 C255 1.461 . S
C252 H272 0.932 . S
C253 C251 1.408 . S
C253 C252 1.310 . S
C253 H273 0.930 . S
C254 C255 1.474 . S
C254 C256 1.285 . S
C254 H274 0.929 . S
C255 C252 1.461 . S
C255 C254 1.474 . S
C256 C251 1.342 . S
C256 C254 1.285 . S
C256 H275 0.930 . S
C257 C260 1.424 . S
C257 C262 1.245 . S
C257 C263 1.428 . S
C258 C261 1.260 . S
C258 C262 1.477 . S
C258 H276 0.932 . S
C259 C260 1.384 . S
C259 C261 1.479 . S
C259 H277 0.929 . S
C260 C257 1.424 . S
C260 C259 1.384 . S
C260 H278 0.928 . S
C261 C258 1.260 . S
C261 C259 1.479 . S
C262 C257 1.245 . S
C262 C258 1.477 . S
C262 H279 0.932 . S
C263 U246 2.882 . S
C263 C257 1.428 . S
C263 O266 1.301 . S
C263 O267 1.282 . S
O264 U246 2.441 . S
O264 C250 1.249 . S
O265 U246 2.420 . S
O265 C250 1.202 . S
O266 U246 2.455 . S
O266 C263 1.301 . S
O267 U246 2.449 . S
O267 C263 1.282 . S
H268 C241 0.931 . S
H269 C243 0.929 . S
H270 C244 0.930 . S
H271 C245 0.931 . S
H272 C252 0.932 . S
H273 C253 0.930 . S
H274 C254 0.929 . S
H275 C256 0.930 . S
H276 C258 0.932 . S
H277 C259 0.929 . S
H278 C260 0.928 . S
H279 C262 0.932 . S
C280 C281 1.264 . S
C280 C285 1.479 . S
C280 C290 1.465 . S
C281 C280 1.264 . S
C281 C283 1.339 . S
C281 H308 0.931 . S
C282 C283 1.395 . S
C282 C284 1.320 . S
C283 C281 1.339 . S
C283 C282 1.395 . S
C283 H309 0.929 . S
C284 C282 1.320 . S
C284 C285 1.405 . S
C284 H310 0.930 . S
C285 C280 1.479 . S
C285 C284 1.405 . S
C285 H311 0.931 . S
U286 O287 2.454 . S
U286 O288 2.458 . S
U286 C289 2.984 . S
U286 C290 2.847 . S
U286 C303 2.882 . S
U286 O304 2.441 . S
U286 O305 2.420 . S
U286 O306 2.455 . S
U286 O307 2.449 . S
O287 U286 2.454 . S
O287 C289 1.353 . S
O288 U286 2.458 . S
O288 C289 1.286 . S
C289 U286 2.984 . S
C289 O287 1.353 . S
C289 O288 1.286 . S
C289 C291 1.363 . S
C290 C280 1.465 . S
C290 U286 2.847 . S
C290 O304 1.249 . S
C290 O305 1.202 . S
C291 C289 1.363 . S
C291 C293 1.408 . S
C291 C296 1.342 . S
C292 C293 1.310 . S
C292 C295 1.461 . S
C292 H312 0.932 . S
C293 C291 1.408 . S
C293 C292 1.310 . S
C293 H313 0.930 . S
C294 C295 1.474 . S
C294 C296 1.285 . S
C294 H314 0.929 . S
C295 C292 1.461 . S
C295 C294 1.474 . S
C296 C291 1.342 . S
C296 C294 1.285 . S
C296 H315 0.930 . S
C297 C300 1.424 . S
C297 C302 1.245 . S
C297 C303 1.428 . S
C298 C301 1.260 . S
C298 C302 1.477 . S
C298 H316 0.932 . S
C299 C300 1.384 . S
C299 C301 1.479 . S
C299 H317 0.929 . S
C300 C297 1.424 . S
C300 C299 1.384 . S
C300 H318 0.928 . S
C301 C298 1.260 . S
C301 C299 1.479 . S
C302 C297 1.245 . S
C302 C298 1.477 . S
C302 H319 0.932 . S
C303 U286 2.882 . S
C303 C297 1.428 . S
C303 O306 1.301 . S
C303 O307 1.282 . S
O304 U286 2.441 . S
O304 C290 1.249 . S
O305 U286 2.420 . S
O305 C290 1.202 . S
O306 U286 2.455 . S
O306 C303 1.301 . S
O307 U286 2.449 . S
O307 C303 1.282 . S
H308 C281 0.931 . S
H309 C283 0.929 . S
H310 C284 0.930 . S
H311 C285 0.931 . S
H312 C292 0.932 . S
H313 C293 0.930 . S
H314 C294 0.929 . S
H315 C296 0.930 . S
H316 C298 0.932 . S
H317 C299 0.929 . S
H318 C300 0.928 . S
H319 C302 0.932 . S
Zn320 O326 1.969 1_545 S
Zn320 O327 1.965 1_545 S
Zn320 O331 2.024 . S
Zn320 O336 1.969 . S
Zn321 O328 1.969 . S
Zn321 O334 1.969 1_565 S
Zn321 O335 1.965 1_665 S
Zn321 O337 2.024 . S
C322 O323 1.229 . S
C322 O331 1.058 . S
O323 C322 1.229 . S
C324 O325 1.229 . S
C324 O337 1.058 . S
O325 C324 1.229 . S
O326 Zn320 1.969 1_565 S
O326 C329 1.267 . S
O327 Zn320 1.965 1_565 S
O327 C338 1.260 1_455 S
O328 Zn321 1.969 . S
O328 C338 1.258 . S
C329 O326 1.267 . S
C329 O330 1.228 . S
O330 C329 1.228 . S
O331 Zn320 2.024 . S
O331 C322 1.058 . S
C332 O333 1.228 . S
C332 O334 1.267 . S
O333 C332 1.228 . S
O334 Zn321 1.969 1_545 S
O334 C332 1.267 . S
O335 Zn321 1.965 1_445 S
O335 C339 1.260 . S
O336 Zn320 1.969 . S
O336 C339 1.258 . S
O337 Zn321 2.024 . S
O337 C324 1.058 . S
C338 O327 1.260 1_655 S
C338 O328 1.258 . S
C339 O335 1.260 . S
C339 O336 1.258 . S
Zn340 O346 1.969 . S
Zn340 O347 1.965 1_565 S
Zn340 O351 2.024 . S
Zn340 O356 1.969 1_556 S
Zn341 O348 1.969 . S
Zn341 O354 1.969 . S
Zn341 O355 1.965 1_545 S
Zn341 O357 2.024 . S
C342 O343 1.229 . S
C342 O351 1.058 . S
O343 C342 1.229 . S
C344 O345 1.229 . S
C344 O357 1.058 . S
O345 C344 1.229 . S
O346 Zn340 1.969 . S
O346 C349 1.267 . S
O347 Zn340 1.965 1_545 S
O347 C358 1.260 . S
O348 Zn341 1.969 . S
O348 C358 1.258 1_554 S
C349 O346 1.267 . S
C349 O350 1.228 . S
O350 C349 1.228 . S
O351 Zn340 2.024 . S
O351 C342 1.058 . S
C352 O353 1.228 . S
C352 O354 1.267 . S
O353 C352 1.228 . S
O354 Zn341 1.969 . S
O354 C352 1.267 . S
O355 Zn341 1.965 1_565 S
O355 C359 1.260 . S
O356 Zn340 1.969 1_554 S
O356 C359 1.258 . S
O357 Zn341 2.024 . S
O357 C344 1.058 . S
C358 O347 1.260 . S
C358 O348 1.258 1_556 S
C359 O355 1.260 . S
C359 O356 1.258 . S
Zn360 O366 1.969 . S
Zn360 O367 1.965 . S
Zn360 O371 2.024 . S
Zn360 O376 1.969 . S
Zn361 O368 1.969 . S
Zn361 O374 1.969 . S
Zn361 O375 1.965 . S
Zn361 O377 2.024 . S
C362 O363 1.229 . S
C362 O371 1.058 . S
O363 C362 1.229 . S
C364 O365 1.229 . S
C364 O377 1.058 . S
O365 C364 1.229 . S
O366 Zn360 1.969 . S
O366 C369 1.267 . S
O367 Zn360 1.965 . S
O367 C378 1.260 . S
O368 Zn361 1.969 . S
O368 C378 1.258 . S
C369 O366 1.267 . S
C369 O370 1.228 . S
O370 C369 1.228 . S
O371 Zn360 2.024 . S
O371 C362 1.058 . S
C372 O373 1.228 . S
C372 O374 1.267 . S
O373 C372 1.228 . S
O374 Zn361 1.969 . S
O374 C372 1.267 . S
O375 Zn361 1.965 . S
O375 C379 1.260 . S
O376 Zn360 1.969 . S
O376 C379 1.258 . S
O377 Zn361 2.024 . S
O377 C364 1.058 . S
C378 O367 1.260 . S
C378 O368 1.258 . S
C379 O375 1.260 . S
C379 O376 1.258 . S
Zn380 O386 1.969 . S
Zn380 O387 1.965 1_556 S
Zn380 O391 2.024 . S
Zn380 O396 1.969 1_655 S
Zn381 O388 1.969 . S
Zn381 O394 1.969 . S
Zn381 O395 1.965 1_554 S
Zn381 O397 2.024 . S
C382 O383 1.229 . S
C382 O391 1.058 . S
O383 C382 1.229 . S
C384 O385 1.229 . S
C384 O397 1.058 . S
O385 C384 1.229 . S
O386 Zn380 1.969 . S
O386 C389 1.267 . S
O387 Zn380 1.965 1_554 S
O387 C398 1.260 . S
O388 Zn381 1.969 . S
O388 C398 1.258 1_455 S
C389 O386 1.267 . S
C389 O390 1.228 . S
O390 C389 1.228 . S
O391 Zn380 2.024 . S
O391 C382 1.058 . S
C392 O393 1.228 . S
C392 O394 1.267 . S
O393 C392 1.228 . S
O394 Zn381 1.969 . S
O394 C392 1.267 . S
O395 Zn381 1.965 1_556 S
O395 C399 1.260 . S
O396 Zn380 1.969 1_455 S
O396 C399 1.258 . S
O397 Zn381 2.024 . S
O397 C384 1.058 . S
C398 O387 1.260 . S
C398 O388 1.258 1_655 S
C399 O395 1.260 . S
C399 O396 1.258 . S
C400 C401 1.387 . S
C400 H404 0.950 . S
C400 C409 1.390 . S
C401 C400 1.387 . S
C401 C403 1.387 . S
H402 C409 0.950 . S
C403 C401 1.387 . S
C403 C405 1.390 . S
C403 H407 0.950 . S
H404 C400 0.950 . S
C405 C403 1.390 . S
C405 C406 1.387 . S
C405 H408 0.950 . S
C406 C405 1.387 . S
C406 C409 1.387 . S
H407 C403 0.950 . S
H408 C405 0.950 . S
C409 C400 1.390 . S
C409 H402 0.950 . S
C409 C406 1.387 . S
C410 C411 1.387 . S
C410 H414 0.950 . S
C410 C419 1.390 . S
C411 C410 1.387 . S
C411 C413 1.387 . S
H412 C419 0.950 . S
C413 C411 1.387 . S
C413 C415 1.390 . S
C413 H417 0.950 . S
H414 C410 0.950 . S
C415 C413 1.390 . S
C415 C416 1.387 . S
C415 H418 0.976 . S
C416 C415 1.387 . S
C416 C419 1.387 . S
H417 C413 0.950 . S
H418 C415 0.976 . S
C419 C410 1.390 . S
C419 H412 0.950 . S
C419 C416 1.387 . S
C420 C421 1.387 . S
C420 H424 0.950 . S
C420 C429 1.390 . S
C421 C420 1.387 . S
C421 C423 1.387 . S
H422 C429 0.950 . S
C423 C421 1.387 . S
C423 C425 1.390 . S
C423 H427 0.950 . S
H424 C420 0.950 . S
C425 C423 1.390 . S
C425 C426 1.387 . S
C425 H428 0.950 . S
C426 C425 1.387 . S
C426 C429 1.387 . S
H427 C423 0.950 . S
H428 C425 0.950 . S
C429 C420 1.390 . S
C429 H422 0.950 . S
C429 C426 1.387 . S
C430 C431 1.387 . S
C430 H434 0.950 . S
C430 C439 1.390 . S
C431 C430 1.387 . S
C431 C433 1.387 . S
H432 C439 0.950 . S
C433 C431 1.387 . S
C433 C435 1.390 . S
C433 H437 0.950 . S
H434 C430 0.950 . S
C435 C433 1.390 . S
C435 C436 1.387 . S
C435 H438 0.950 . S
C436 C435 1.387 . S
C436 C439 1.387 . S
H437 C433 0.950 . S
H438 C435 0.950 . S
C439 C430 1.390 . S
C439 H432 0.950 . S
C439 C436 1.387 . S
C440 C441 1.387 . S
C440 H444 0.950 . S
C440 C449 1.390 . S
C441 C440 1.387 . S
C441 C443 1.387 . S
H442 C449 0.950 . S
C443 C441 1.387 . S
C443 C445 1.390 . S
C443 H447 0.950 . S
H444 C440 0.950 . S
C445 C443 1.390 . S
C445 C446 1.387 . S
C445 H448 0.950 . S
C446 C445 1.387 . S
C446 C449 1.387 . S
H447 C443 0.950 . S
H448 C445 0.950 . S
C449 C440 1.390 . S
C449 H442 0.950 . S
C449 C446 1.387 . S
C450 C451 1.387 . S
C450 H454 0.950 . S
C450 C459 1.390 . S
C451 C450 1.387 . S
C451 C453 1.387 . S
H452 C459 0.950 . S
C453 C451 1.387 . S
C453 C455 1.390 . S
C453 H457 0.950 . S
H454 C450 0.950 . S
C455 C453 1.390 . S
C455 C456 1.387 . S
C455 H458 0.950 . S
C456 C455 1.387 . S
C456 C459 1.387 . S
H457 C453 0.950 . S
H458 C455 0.950 . S
C459 C450 1.390 . S
C459 H452 0.950 . S
C459 C456 1.387 . S
C460 C461 1.387 . S
C460 H464 0.950 . S
C460 C469 1.390 . S
C461 C460 1.387 . S
C461 C463 1.387 . S
H462 C469 0.950 . S
C463 C461 1.387 . S
C463 C465 1.390 . S
C463 H467 0.950 . S
H464 C460 0.950 . S
C465 C463 1.390 . S
C465 C466 1.387 . S
C465 H468 0.950 . S
C466 C465 1.387 . S
C466 C469 1.387 . S
H467 C463 0.950 . S
H468 C465 0.950 . S
C469 C460 1.390 . S
C469 H462 0.950 . S
C469 C466 1.387 . S
C470 C471 1.387 . S
C470 H474 0.950 . S
C470 C479 1.390 . S
C471 C470 1.387 . S
C471 C473 1.387 . S
H472 C479 0.950 . S
C473 C471 1.387 . S
C473 C475 1.390 . S
C473 H477 0.950 . S
H474 C470 0.950 . S
C475 C473 1.390 . S
C475 C476 1.387 . S
C475 H478 0.950 . S
C476 C475 1.387 . S
C476 C479 1.387 . S
H477 C473 0.950 . S
H478 C475 0.950 . S
C479 C470 1.390 . S
C479 H472 0.950 . S
C479 C476 1.387 . S
C480 C481 1.387 . S
C480 H484 0.950 . S
C480 C489 1.390 . S
C481 C480 1.387 . S
C481 C483 1.387 . S
H482 C489 0.950 . S
C483 C481 1.387 . S
C483 C485 1.390 . S
C483 H487 0.950 . S
H484 C480 0.950 . S
C485 C483 1.390 . S
C485 C486 1.387 . S
C485 H488 0.950 . S
C486 C485 1.387 . S
C486 C489 1.387 . S
H487 C483 0.950 . S
H488 C485 0.950 . S
C489 C480 1.390 . S
C489 H482 0.950 . S
C489 C486 1.387 . S
C490 C491 1.387 . S
C490 H494 0.950 . S
C490 C499 1.390 . S
C491 C490 1.387 . S
C491 C493 1.387 . S
H492 C499 0.950 . S
C493 C491 1.387 . S
C493 C495 1.390 . S
C493 H497 0.950 . S
H494 C490 0.950 . S
C495 C493 1.390 . S
C495 C496 1.387 . S
C495 H498 0.950 . S
C496 C495 1.387 . S
C496 C499 1.387 . S
H497 C493 0.950 . S
H498 C495 0.950 . S
C499 C490 1.390 . S
C499 H492 0.950 . S
C499 C496 1.387 . S
C500 C501 1.387 . S
C500 H504 0.950 . S
C500 C509 1.390 . S
C501 C500 1.387 . S
C501 C503 1.387 . S
H502 C509 0.950 . S
C503 C501 1.387 . S
C503 C505 1.390 . S
C503 H507 0.950 . S
H504 C500 0.950 . S
C505 C503 1.390 . S
C505 C506 1.387 . S
C505 H508 0.950 . S
C506 C505 1.387 . S
C506 C509 1.387 . S
H507 C503 0.950 . S
H508 C505 0.950 . S
C509 C500 1.390 . S
C509 H502 0.950 . S
C509 C506 1.387 . S
C510 C511 1.387 . S
C510 H514 0.950 . S
C510 C519 1.390 . S
C511 C510 1.387 . S
C511 C513 1.387 . S
H512 C519 0.950 . S
C513 C511 1.387 . S
C513 C515 1.390 . S
C513 H517 0.950 . S
H514 C510 0.950 . S
C515 C513 1.390 . S
C515 C516 1.387 . S
C515 H518 0.950 . S
C516 C515 1.387 . S
C516 C519 1.387 . S
H517 C513 0.950 . S
H518 C515 0.950 . S
C519 C510 1.390 . S
C519 H512 0.950 . S
C519 C516 1.387 . S
C520 C521 1.387 . S
C520 H524 0.950 . S
C520 C529 1.390 . S
C521 C520 1.387 . S
C521 C523 1.387 . S
H522 C529 0.950 . S
C523 C521 1.387 . S
C523 C525 1.390 . S
C523 H527 0.950 . S
H524 C520 0.950 . S
C525 C523 1.390 . S
C525 C526 1.387 . S
C525 H528 0.950 . S
C526 C525 1.387 . S
C526 C529 1.387 . S
H527 C523 0.950 . S
H528 C525 0.950 . S
C529 C520 1.390 . S
C529 H522 0.950 . S
C529 C526 1.387 . S
C530 C531 1.387 . S
C530 H534 0.950 . S
C530 C539 1.390 . S
C531 C530 1.387 . S
C531 C533 1.387 . S
H532 C539 0.950 . S
C533 C531 1.387 . S
C533 C535 1.390 . S
C533 H537 0.950 . S
H534 C530 0.950 . S
C535 C533 1.390 . S
C535 C536 1.387 . S
C535 H538 0.950 . S
C536 C535 1.387 . S
C536 C539 1.387 . S
H537 C533 0.950 . S
H538 C535 0.950 . S
C539 C530 1.390 . S
C539 H532 0.950 . S
C539 C536 1.387 . S
C540 C541 1.387 . S
C540 H544 0.950 . S
C540 C549 1.390 . S
C541 C540 1.387 . S
C541 C543 1.387 . S
H542 C549 0.950 . S
C543 C541 1.387 . S
C543 C545 1.390 . S
C543 H547 0.950 . S
H544 C540 0.950 . S
C545 C543 1.390 . S
C545 C546 1.387 . S
C545 H548 0.950 . S
C546 C545 1.387 . S
C546 C549 1.387 . S
H547 C543 0.950 . S
H548 C545 0.950 . S
C549 C540 1.390 . S
C549 H542 0.950 . S
C549 C546 1.387 . S
C550 C551 1.387 . S
C550 H554 0.950 . S
C550 C559 1.390 . S
C551 C550 1.387 . S
C551 C553 1.387 . S
H552 C559 0.950 . S
C553 C551 1.387 . S
C553 C555 1.390 . S
C553 H557 0.950 . S
H554 C550 0.950 . S
C555 C553 1.390 . S
C555 C556 1.387 . S
C555 H558 0.950 . S
C556 C555 1.387 . S
C556 C559 1.387 . S
H557 C553 0.950 . S
H558 C555 0.950 . S
C559 C550 1.390 . S
C559 H552 0.950 . S
C559 C556 1.387 . S
C560 C561 1.387 . S
C560 H564 0.950 . S
C560 C569 1.390 . S
C561 C560 1.387 . S
C561 C563 1.387 . S
H562 C569 0.950 . S
C563 C561 1.387 . S
C563 C565 1.390 . S
C563 H567 0.950 . S
H564 C560 0.950 . S
C565 C563 1.390 . S
C565 C566 1.387 . S
C565 H568 0.950 . S
C566 C565 1.387 . S
C566 C569 1.387 . S
H567 C563 0.950 . S
H568 C565 0.950 . S
C569 C560 1.390 . S
C569 H562 0.950 . S
C569 C566 1.387 . S
C570 C571 1.387 . S
C570 H574 0.950 . S
C570 C579 1.390 . S
C571 C570 1.387 . S
C571 C573 1.387 . S
H572 C579 0.950 . S
C573 C571 1.387 . S
C573 C575 1.390 . S
C573 H577 0.950 . S
H574 C570 0.950 . S
C575 C573 1.390 . S
C575 C576 1.387 . S
C575 H578 0.950 . S
C576 C575 1.387 . S
C576 C579 1.387 . S
H577 C573 0.950 . S
H578 C575 0.950 . S
C579 C570 1.390 . S
C579 H572 0.950 . S
C579 C576 1.387 . S
C580 C581 1.387 . S
C580 H584 0.950 . S
C580 C589 1.390 . S
C581 C580 1.387 . S
C581 C583 1.387 . S
H582 C589 0.950 . S
C583 C581 1.387 . S
C583 C585 1.390 . S
C583 H587 0.950 . S
H584 C580 0.950 . S
C585 C583 1.390 . S
C585 C586 1.387 . S
C585 H588 0.950 . S
C586 C585 1.387 . S
C586 C589 1.387 . S
H587 C583 0.950 . S
H588 C585 0.950 . S
C589 C580 1.390 . S
C589 H582 0.950 . S
C589 C586 1.387 . S
C590 C591 1.387 . S
C590 H594 0.950 . S
C590 C599 1.390 . S
C591 C590 1.387 . S
C591 C593 1.387 . S
H592 C599 0.950 . S
C593 C591 1.387 . S
C593 C595 1.390 . S
C593 H597 0.950 . S
H594 C590 0.950 . S
C595 C593 1.390 . S
C595 C596 1.387 . S
C595 H598 0.950 . S
C596 C595 1.387 . S
C596 C599 1.387 . S
H597 C593 0.950 . S
H598 C595 0.950 . S
C599 C590 1.390 . S
C599 H592 0.950 . S
C599 C596 1.387 . S
C600 C601 1.387 . S
C600 H604 0.950 . S
C600 C609 1.390 . S
C601 C600 1.387 . S
C601 C603 1.387 . S
H602 C609 0.950 . S
C603 C601 1.387 . S
C603 C605 1.390 . S
C603 H607 0.950 . S
H604 C600 0.950 . S
C605 C603 1.390 . S
C605 C606 1.387 . S
C605 H608 0.950 . S
C606 C605 1.387 . S
C606 C609 1.387 . S
H607 C603 0.950 . S
H608 C605 0.950 . S
C609 C600 1.390 . S
C609 H602 0.950 . S
C609 C606 1.387 . S
C610 C611 1.387 . S
C610 H614 0.950 . S
C610 C619 1.390 . S
C611 C610 1.387 . S
C611 C613 1.387 . S
H612 C619 0.950 . S
C613 C611 1.387 . S
C613 C615 1.390 . S
C613 H617 0.950 . S
H614 C610 0.950 . S
C615 C613 1.390 . S
C615 C616 1.387 . S
C615 H618 0.950 . S
C616 C615 1.387 . S
C616 C619 1.387 . S
H617 C613 0.950 . S
H618 C615 0.950 . S
C619 C610 1.390 . S
C619 H612 0.950 . S
C619 C616 1.387 . S
C620 C621 1.387 . S
C620 H624 0.950 . S
C620 C629 1.390 . S
C621 C620 1.387 . S
C621 C623 1.387 . S
H622 C629 0.950 . S
C623 C621 1.387 . S
C623 C625 1.390 . S
C623 H627 0.950 . S
H624 C620 0.950 . S
C625 C623 1.390 . S
C625 C626 1.387 . S
C625 H628 0.950 . S
C626 C625 1.387 . S
C626 C629 1.387 . S
H627 C623 0.950 . S
H628 C625 0.950 . S
C629 C620 1.390 . S
C629 H622 0.950 . S
C629 C626 1.387 . S
C630 C631 1.387 . S
C630 H634 0.950 . S
C630 C639 1.390 . S
C631 C630 1.387 . S
C631 C633 1.387 . S
H632 C639 0.950 . S
C633 C631 1.387 . S
C633 C635 1.390 . S
C633 H637 0.950 . S
H634 C630 0.950 . S
C635 C633 1.390 . S
C635 C636 1.387 . S
C635 H638 0.950 . S
C636 C635 1.387 . S
C636 C639 1.387 . S
H637 C633 0.950 . S
H638 C635 0.950 . S
C639 C630 1.390 . S
C639 H632 0.950 . S
C639 C636 1.387 . S
C401 C21 1.528 . S
C406 C339 1.544 . S
C411 C61 1.330 . S
C416 C342 1.299 . S
C426 C378 1.753 . S
C421 C82 1.721 . S
C431 C135 1.711 . S
C436 C398 1.699 . S
C446 C352 1.673 . S
C441 C15 1.712 . S
C456 C329 1.510 . S
C451 C42 1.524 . S
C466 C382 1.572 . S
C461 C101 1.699 . S
C476 C362 1.413 . S
C471 C122 1.489 . S
C481 C2 1.388 . S
C486 C392 1.363 . S
C496 C358 1.592 . S
C491 C95 1.607 . S
C501 C141 1.669 . S
C506 C324 1.663 . S
C511 C55 1.333 . S
C516 C372 1.299 . S
C526 C338 1.561 . S
C521 C181 1.641 . S
C531 C202 1.303 . S
C536 C344 1.283 . S
C541 C255 1.763 . S
C546 C379 1.745 . S
C551 C295 1.695 . S
C556 C399 1.691 . S
C561 C175 1.714 . S
C566 C349 1.667 . S
C576 C332 1.525 . S
C571 C221 1.536 . S
C586 C384 1.520 . S
C581 C242 1.690 . S
C596 C364 1.457 . S
C591 C301 1.507 . S
C601 C162 1.440 . S
C606 C389 1.339 . S
C616 C359 1.639 . S
C611 C261 1.646 . S
C626 C322 1.620 . S
C621 C282 1.655 . S
C631 C215 1.360 . S
C636 C369 1.325 . S
