# Generated by pormake.
# Topology ssa, (4,4)-cn, num edge types: 1
# Building blocks:
#     Node 0, Type 0, BuildingBlock: KOZSID_clean_sbu_0, # of connection points: 4
#     Node 1, Type 0, BuildingBlock: KOZSID_clean_sbu_0, # of connection points: 4
#     Node 2, Type 0, BuildingBlock: KOZSID_clean_sbu_0, # of connection points: 4
#     Node 3, Type 0, BuildingBlock: KOZSID_clean_sbu_0, # of connection points: 4
#     Node 4, Type 0, BuildingBlock: KOZSID_clean_sbu_0, # of connection points: 4
#     Node 5, Type 0, BuildingBlock: KOZSID_clean_sbu_0, # of connection points: 4
#     Node 6, Type 1, BuildingBlock: ESEHIV_clean_sbu_0, # of connection points: 4
#     Node 7, Type 1, BuildingBlock: ESEHIV_clean_sbu_0, # of connection points: 4
#     Node 8, Type 1, BuildingBlock: ESEHIV_clean_sbu_0, # of connection points: 4
#     Node 9, Type 1, BuildingBlock: ESEHIV_clean_sbu_0, # of connection points: 4
#     Node 10, Type 1, BuildingBlock: ESEHIV_clean_sbu_0, # of connection points: 4
#     Node 11, Type 1, BuildingBlock: ESEHIV_clean_sbu_0, # of connection points: 4
#     Edge 12, Type (0, 1), BuildingBlock: ZUJKAS_clean_linker_0, # of connection points: 2
#     Edge 13, Type (0, 1), BuildingBlock: ZUJKAS_clean_linker_0, # of connection points: 2
#     Edge 14, Type (0, 1), BuildingBlock: ZUJKAS_clean_linker_0, # of connection points: 2
#     Edge 15, Type (0, 1), BuildingBlock: ZUJKAS_clean_linker_0, # of connection points: 2
#     Edge 16, Type (0, 1), BuildingBlock: ZUJKAS_clean_linker_0, # of connection points: 2
#     Edge 17, Type (0, 1), BuildingBlock: ZUJKAS_clean_linker_0, # of connection points: 2
#     Edge 18, Type (0, 1), BuildingBlock: ZUJKAS_clean_linker_0, # of connection points: 2
#     Edge 19, Type (0, 1), BuildingBlock: ZUJKAS_clean_linker_0, # of connection points: 2
#     Edge 20, Type (0, 1), BuildingBlock: ZUJKAS_clean_linker_0, # of connection points: 2
#     Edge 21, Type (0, 1), BuildingBlock: ZUJKAS_clean_linker_0, # of connection points: 2
#     Edge 22, Type (0, 1), BuildingBlock: ZUJKAS_clean_linker_0, # of connection points: 2
#     Edge 23, Type (0, 1), BuildingBlock: ZUJKAS_clean_linker_0, # of connection points: 2
#     Edge 24, Type (0, 1), BuildingBlock: ZUJKAS_clean_linker_0, # of connection points: 2
#     Edge 25, Type (0, 1), BuildingBlock: ZUJKAS_clean_linker_0, # of connection points: 2
#     Edge 26, Type (0, 1), BuildingBlock: ZUJKAS_clean_linker_0, # of connection points: 2
#     Edge 27, Type (0, 1), BuildingBlock: ZUJKAS_clean_linker_0, # of connection points: 2
#     Edge 28, Type (0, 1), BuildingBlock: ZUJKAS_clean_linker_0, # of connection points: 2
#     Edge 29, Type (0, 1), BuildingBlock: ZUJKAS_clean_linker_0, # of connection points: 2
#     Edge 30, Type (0, 1), BuildingBlock: ZUJKAS_clean_linker_0, # of connection points: 2
#     Edge 31, Type (0, 1), BuildingBlock: ZUJKAS_clean_linker_0, # of connection points: 2
#     Edge 32, Type (0, 1), BuildingBlock: ZUJKAS_clean_linker_0, # of connection points: 2
#     Edge 33, Type (0, 1), BuildingBlock: ZUJKAS_clean_linker_0, # of connection points: 2
#     Edge 34, Type (0, 1), BuildingBlock: ZUJKAS_clean_linker_0, # of connection points: 2
#     Edge 35, Type (0, 1), BuildingBlock: ZUJKAS_clean_linker_0, # of connection points: 2
# Relax obj value: 0.014
# Max RMSD: 0.096
# Mean RMSD: 0.055
data_MOF--net-ssa--node1-KOZSID_clean_sbu_0--node2-ESEHIV_clean_sbu_0--edge1-ZUJKAS_clean_linker_0
_symmetry_space_group_name_H-M    P1
_symmetry_Int_Tables_number       1
_symmetry_cell_setting            triclinic
loop_
_symmetry_equiv_pos_as_xyz
'x, y, z'
_cell_length_a     67.920212
_cell_length_b     69.227389
_cell_length_c     51.105942
_cell_angle_alpha  87.969934
_cell_angle_beta   89.953853
_cell_angle_gamma 121.92103
loop_
_atom_site_label
_atom_site_type_symbol
_atom_site_fract_x
_atom_site_fract_y
_atom_site_fract_z
_atom_type_partial_charge
C0 C 0.96359 0.50528 0.99962 0.0
C1 C 0.9416 0.49618 0.01069 0.0
C2 C 0.94172 0.48711 0.03479 0.0
C3 C 0.96363 0.49103 0.03707 0.0
N4 N 0.97769 0.50233 0.01601 0.0
Co5 Co 0.01042 0.50986 0.01071 0.0
N6 N 0.01038 0.49597 0.04602 0.0
C7 C 0.99278 0.48647 0.06401 0.0
C8 C 0.99804 0.47967 0.08706 0.0
C9 C 0.02047 0.4854 0.08381 0.0
C10 C 0.02762 0.49527 0.05876 0.0
N11 N 0.04292 0.51687 1.0051 0.0
C12 C 0.05697 0.51373 0.02134 0.0
C13 C 0.07825 0.52101 0.00932 0.0
C14 C 0.07785 0.52945 0.98492 0.0
C15 C 0.05638 0.52672 0.98329 0.0
N16 N 0.01072 0.52434 0.97574 0.0
C17 C 0.02876 0.53498 0.95837 0.0
C18 C 0.02403 0.54321 0.93604 0.0
C19 C 1.00155 0.53735 0.93918 0.0
C20 C 0.99374 0.52569 0.96329 0.0
N21 N 0.02285 0.53957 0.0272 0.0
C22 C 0.04436 0.57981 0.05522 0.0
C23 C 0.05381 0.5788 0.0314 0.0
C24 C 0.0428 0.5587 0.01776 0.0
C25 C 0.02315 0.56086 0.06383 0.0
C26 C 0.01269 0.54114 0.04953 0.0
N27 N 0.99795 0.48009 0.99428 0.0
C28 C 0.99384 0.45865 0.95611 0.0
C29 C 0.97561 0.4387 0.96824 0.0
C30 C 0.96982 0.43959 0.99423 0.0
C31 C 0.9811 0.46025 0.00675 0.0
C32 C 1.00483 0.47891 0.96947 0.0
H33 H 0.97547 0.45977 0.02631 0.0
H34 H 0.01838 0.49352 0.95901 0.0
H35 H 0.05115 0.55883 1.00006 0.0
H36 H 0.99671 0.52722 0.05733 0.0
C37 C 0.97156 0.48436 0.0587 0.0
C38 C 0.96992 0.51588 0.97315 0.0
C39 C 0.0512 0.50435 0.04837 0.0
C40 C 0.04918 0.53513 0.9626 0.0
H41 H 0.92686 0.49583 1.0021 0.0
H42 H 0.92743 0.47843 0.04886 0.0
H43 H 0.987 0.47181 0.10434 0.0
H44 H 0.03051 0.48292 0.09845 0.0
H45 H 0.09273 0.52062 0.0175 0.0
H46 H 0.0918 0.53724 0.97037 0.0
H47 H 0.03537 0.55187 0.91915 0.0
H48 H 0.99185 0.54091 0.9251 0.0
H49 H 0.07019 0.59309 0.02385 0.0
H50 H 0.01484 0.56106 0.08183 0.0
H51 H 0.99909 0.45896 0.93601 0.0
H52 H 0.95632 0.42448 1.00483 0.0
C53 C 0.5452 0.01275 0.55552 0.0
C54 C 0.54638 1.00243 0.57878 0.0
C55 C 0.52454 0.98436 0.58436 0.0
C56 C 0.51126 0.98472 0.56443 0.0
N57 N 0.52338 1.00167 0.54612 0.0
Co58 Co 0.51054 0.00967 0.51511 0.0
N59 N 0.47793 0.98513 0.52544 0.0
C60 C 0.47098 0.97083 0.54685 0.0
C61 C 0.44764 0.95496 0.54792 0.0
C62 C 0.43921 0.95905 0.52558 0.0
C63 C 0.458 0.97731 0.51218 0.0
N64 N 0.49777 0.01765 0.48409 0.0
C65 C 0.47593 0.00667 0.47486 0.0
C66 C 0.47443 0.01724 0.45204 0.0
C67 C 0.49629 0.03524 0.44622 0.0
C68 C 0.50978 0.03465 0.46579 0.0
N69 N 0.54307 0.03422 0.50477 0.0
C70 C 0.55005 0.0485 0.48333 0.0
C71 C 0.57351 0.0639 0.48186 0.0
C72 C 0.58196 0.05955 0.50401 0.0
C73 C 0.56305 0.04177 0.51779 0.0
N74 N 0.51328 0.98743 0.4936 0.0
C75 C 0.51562 0.9554 0.46223 0.0
C76 C 0.52387 0.97772 0.45283 0.0
C77 C 0.5225 0.99321 0.46859 0.0
C78 C 0.50623 0.94954 0.48778 0.0
C79 C 0.50532 0.96562 0.50296 0.0
N80 N 0.50782 0.03193 0.53663 0.0
C81 C 0.51459 0.06974 0.54219 0.0
C82 C 0.50628 0.0643 0.56819 0.0
C83 C 0.49849 0.04215 0.57787 0.0
C84 C 0.4993 0.02643 0.56195 0.0
C85 C 0.51526 0.05355 0.52699 0.0
H86 H 0.49307 0.00993 0.57067 0.0
H87 H 0.52215 0.05904 0.50754 0.0
H88 H 0.52884 0.00976 0.45995 0.0
H89 H 0.49799 0.95996 0.52222 0.0
C90 C 0.48709 0.97114 0.56403 0.0
C91 C 0.56469 0.03398 0.54412 0.0
C92 C 0.45654 0.98535 0.48594 0.0
C93 C 0.53396 0.04826 0.46611 0.0
H94 H 0.56118 0.00779 0.5911 0.0
H95 H 0.51879 0.97304 0.60163 0.0
H96 H 0.43808 0.94133 0.56254 0.0
H97 H 0.42142 0.94912 0.51943 0.0
H98 H 0.45923 0.01193 0.44037 0.0
H99 H 0.50186 0.04675 0.42914 0.0
H100 H 0.58318 0.07728 0.46701 0.0
H101 H 0.59988 0.06893 0.50989 0.0
H102 H 0.53104 0.98322 0.43312 0.0
H103 H 0.49985 0.93264 0.49629 0.0
H104 H 0.52108 0.08665 0.53365 0.0
H105 H 0.49153 0.03679 0.59767 0.0
C106 C 0.55347 0.5431 0.97656 0.0
C107 C 0.55835 0.55643 0.95368 0.0
C108 C 0.53794 0.55399 0.94603 0.0
C109 C 0.52182 0.53928 0.96448 0.0
N110 N 0.53077 0.53259 0.98385 0.0
Co111 Co 0.51316 0.50947 0.01308 0.0
N112 N 0.48283 0.50407 1.0003 0.0
C113 C 0.47941 0.51421 0.97921 0.0
C114 C 0.45676 0.50803 0.97636 0.0
C115 C 0.44509 0.49349 0.99726 0.0
C116 C 0.4614 0.4917 0.01166 0.0
N117 N 0.49553 0.48587 0.04184 0.0
C118 C 0.47273 0.4748 0.04877 0.0
C119 C 0.46763 0.46027 0.07058 0.0
C120 C 0.48804 0.46253 0.07795 0.0
C121 C 0.50436 0.47825 0.06032 0.0
N122 N 0.54352 0.51537 0.02634 0.0
C123 C 0.54703 0.5062 0.04829 0.0
C124 C 0.56984 0.51328 0.05195 0.0
C125 C 0.58155 0.52749 0.03081 0.0
C126 C 0.56508 0.52812 0.01541 0.0
N127 N 0.51563 0.53374 0.03579 0.0
C128 C 0.5169 0.56691 0.06844 0.0
C129 C 0.51928 0.54925 0.07876 0.0
C130 C 0.51876 0.53315 0.06229 0.0
C131 C 0.51411 0.56769 0.04134 0.0
C132 C 0.51341 0.5511 0.0256 0.0
N133 N 0.51067 0.4852 0.99039 0.0
C134 C 0.51715 0.45443 0.98304 0.0
C135 C 0.50885 0.45185 0.95747 0.0
C136 C 0.50136 0.46636 0.94891 0.0
C137 C 0.50245 0.4827 0.96542 0.0
C138 C 0.51782 0.47091 0.99896 0.0
H139 H 0.49659 0.49319 0.95746 0.0
H140 H 0.52442 0.4719 0.01811 0.0
H141 H 0.5208 0.52029 0.07153 0.0
H142 H 0.51081 0.55255 1.00524 0.0
C143 C 0.498 0.53034 0.96328 0.0
C144 C 0.57043 0.53948 0.98956 0.0
C145 C 0.45599 0.47926 0.03684 0.0
C146 C 0.52831 0.48865 0.0629 0.0
H147 H 0.57474 0.56629 0.94306 0.0
H148 H 0.53504 0.56134 0.92853 0.0
H149 H 0.44972 0.51398 0.96136 0.0
H150 H 0.42678 0.48561 1.00189 0.0
H151 H 0.45112 0.44987 0.08083 0.0
H152 H 0.49086 0.45466 0.09503 0.0
H153 H 0.57695 0.5078 0.06739 0.0
H154 H 0.59995 0.53571 0.02658 0.0
H155 H 0.52182 0.54794 0.09951 0.0
H156 H 0.51196 0.58081 0.03226 0.0
H157 H 0.52353 0.44405 0.99078 0.0
H158 H 0.49439 0.46503 0.92956 0.0
C159 C 0.96517 0.46664 0.52626 0.0
C160 C 0.94364 0.45256 0.51541 0.0
C161 C 0.9445 0.46148 0.4909 0.0
C162 C 0.96645 0.48034 0.48803 0.0
N163 N 0.97984 0.48393 0.5091 0.0
Co164 Co 0.01287 0.50975 0.51295 0.0
N165 N 0.01361 0.52368 0.47741 0.0
C166 C 0.99604 0.51551 0.46032 0.0
C167 C 1.00167 0.52801 0.43712 0.0
C168 C 0.02427 0.54514 0.43935 0.0
C169 C 0.03119 0.54218 0.46395 0.0
N170 N 0.0459 0.5356 0.51679 0.0
C171 C 0.06053 0.55294 0.49967 0.0
C172 C 0.08213 0.56691 0.51039 0.0
C173 C 0.08133 0.55794 0.53486 0.0
C174 C 0.05934 0.53913 0.53781 0.0
N175 N 0.01212 0.49581 0.54849 0.0
C176 C 0.02974 0.50394 0.56553 0.0
C177 C 0.02403 0.49162 0.58886 0.0
C178 C 1.00133 0.47467 0.58678 0.0
C179 C 0.99443 0.4775 0.5621 0.0
N180 N 0.02435 0.49175 0.49676 0.0
C181 C 0.04487 0.47154 0.47023 0.0
C182 C 0.05319 0.48145 0.49425 0.0
C183 C 0.04265 0.4912 0.50717 0.0
C184 C 0.02522 0.47065 0.4605 0.0
C185 C 0.01528 0.48073 0.47402 0.0
N186 N 1.00141 0.52776 0.52913 0.0
C187 C 1.00071 0.54882 0.5655 0.0
C188 C 0.98136 0.54847 0.55564 0.0
C189 C 0.97304 0.53869 0.53152 0.0
C190 C 0.9833 0.5286 0.51866 0.0
C191 C 0.01046 0.53858 0.55197 0.0
H192 H 0.97595 0.52116 0.50057 0.0
H193 H 0.02491 0.53915 0.56078 0.0
H194 H 0.04998 0.49865 0.52523 0.0
H195 H 1.00067 0.47993 0.46528 0.0
C196 C 0.97475 0.49547 0.46618 0.0
C197 C 0.97064 0.4629 0.55301 0.0
C198 C 0.0549 0.55691 0.47312 0.0
C199 C 0.05105 0.52397 0.55965 0.0
H200 H 0.92874 0.43749 0.52436 0.0
H201 H 0.93066 0.45514 0.47695 0.0
H202 H 0.99078 0.52476 0.42034 0.0
H203 H 0.03462 0.55807 0.42432 0.0
H204 H 0.09703 0.58195 0.50137 0.0
H205 H 0.09523 0.56421 0.54873 0.0
H206 H 0.03489 0.49495 0.60567 0.0
H207 H 0.99094 0.46201 0.60201 0.0
H208 H 0.06804 0.48202 0.50289 0.0
H209 H 0.01808 0.46306 0.44198 0.0
H210 H 0.00784 0.55615 0.58413 0.0
H211 H 0.95845 0.5385 0.52271 0.0
C212 C 0.48144 0.99264 0.05986 0.0
C213 C 0.48078 0.99948 0.08489 0.0
C214 C 0.49857 0.02162 0.08598 0.0
C215 C 0.5092 0.02706 0.06174 0.0
N216 N 0.49917 0.00981 0.04504 0.0
Co217 Co 0.51052 0.01024 0.00848 0.0
N218 N 0.53716 0.04272 0.01041 0.0
C219 C 0.54209 0.05626 0.03094 0.0
C220 C 0.56106 0.07781 0.02669 0.0
C221 C 0.56859 0.07823 1.00181 0.0
C222 C 0.55365 0.05685 0.99215 0.0
N223 N 0.52221 0.01047 0.97218 0.0
C224 C 0.54028 0.02746 0.95754 0.0
C225 C 0.54161 0.02021 0.93297 0.0
C226 C 0.52397 0.99798 0.93206 0.0
C227 C 0.51277 0.99287 0.95593 0.0
N228 N 0.48353 0.97796 0.0063 0.0
C229 C 0.47792 0.9648 0.98531 0.0
C230 C 0.45853 0.94348 0.9893 0.0
C231 C 0.45134 0.94286 0.01443 0.0
C232 C 0.46693 0.96388 0.02448 0.0
N233 N 0.49123 0.0216 0.99387 0.0
C234 C 0.46936 0.04225 0.96936 0.0
C235 C 0.46934 0.02415 0.95809 0.0
C236 C 0.4801 0.01404 0.97067 0.0
C237 C 0.47918 0.0488 0.99396 0.0
C238 C 0.48988 0.0383 0.00579 0.0
N239 N 0.52983 0.99894 0.02309 0.0
C240 C 0.53921 0.96978 0.02608 0.0
C241 C 0.55288 0.97962 0.04787 0.0
C242 C 0.55585 1.00002 0.05608 0.0
C243 C 0.5443 0.00932 0.0435 0.0
C244 C 0.52811 0.97974 0.01398 0.0
H245 H 0.547 0.02465 0.05101 0.0
H246 H 0.51774 0.97123 0.99771 0.0
H247 H 0.47978 1.00062 0.96081 0.0
H248 H 0.49744 0.04439 0.02425 0.0
C249 C 0.52877 0.0481 0.05413 0.0
C250 C 0.46527 0.96945 0.05148 0.0
C251 C 0.55598 0.05091 0.96553 0.0
C252 C 0.4922 0.97238 0.96282 0.0
H253 H 0.4689 0.98942 0.10091 0.0
H254 H 0.5034 0.03238 0.10261 0.0
H255 H 0.56852 0.09158 0.0401 0.0
H256 H 0.58343 0.0927 0.99191 0.0
H257 H 0.5537 0.03007 0.91705 0.0
H258 H 0.51939 0.98706 0.91561 0.0
H259 H 0.45082 0.92982 0.97574 0.0
H260 H 0.43646 0.92844 0.02433 0.0
H261 H 0.46199 0.01838 0.93905 0.0
H262 H 0.47906 0.0623 1.00388 0.0
H263 H 0.53626 0.95394 0.01893 0.0
H264 H 0.56677 0.00866 0.07243 0.0
C265 C 0.53278 0.56215 0.5092 0.0
C266 C 0.53247 0.57924 0.52226 0.0
C267 C 0.5178 0.56895 0.5434 0.0
C268 C 0.50997 0.54628 0.54202 0.0
N269 N 0.51911 0.54149 0.52155 0.0
Co270 Co 0.5115 0.51065 0.51115 0.0
N271 N 0.48768 0.49526 0.54016 0.0
C272 C 0.48108 0.50523 0.55748 0.0
C273 C 0.46478 0.4902 0.57563 0.0
C274 C 0.46107 0.46944 0.56987 0.0
C275 C 0.47545 0.4731 0.54853 0.0
N276 N 0.50401 0.4798 0.50087 0.0
C277 C 0.49033 0.45914 0.51322 0.0
C278 C 0.49089 0.44209 0.50041 0.0
C279 C 0.50573 0.45238 0.4794 0.0
C280 C 0.51341 0.47504 0.48063 0.0
N281 N 0.53522 0.52603 0.48202 0.0
C282 C 0.54165 0.51606 0.46452 0.0
C283 C 0.55769 0.53106 0.44615 0.0
C284 C 0.56136 0.5518 0.45192 0.0
C285 C 0.54722 0.54815 0.4735 0.0
N286 N 0.53578 0.51255 0.53522 0.0
C287 C 0.56911 0.51359 0.57002 0.0
C288 C 0.5679 0.50731 0.54402 0.0
C289 C 0.55134 0.50691 0.5272 0.0
C290 C 0.5533 0.5195 0.57808 0.0
C291 C 0.53703 0.5189 0.5606 0.0
N292 N 0.48722 0.50874 0.48708 0.0
C293 C 0.46873 0.50029 0.44475 0.0
C294 C 0.45367 0.50727 0.45233 0.0
C295 C 0.45583 0.51498 0.47777 0.0
C296 C 0.47244 0.51551 0.49462 0.0
C297 C 0.48518 0.5012 0.46216 0.0
H298 H 0.47303 0.52154 0.51367 0.0
H299 H 0.4962 0.49588 0.45491 0.0
H300 H 0.55132 0.50172 0.50782 0.0
H301 H 0.52554 0.52354 0.56816 0.0
C302 C 0.49218 0.52889 0.55779 0.0
C303 C 0.54452 0.56591 0.48396 0.0
C304 C 0.47815 0.4553 0.53817 0.0
C305 C 0.53088 0.49241 0.46454 0.0
H306 H 0.54118 0.59715 0.5166 0.0
H307 H 0.51257 0.5769 0.55735 0.0
H308 H 0.45725 0.49402 0.59179 0.0
H309 H 0.44971 0.45352 0.58067 0.0
H310 H 0.48215 0.42418 0.50612 0.0
H311 H 0.51106 0.44444 0.46555 0.0
H312 H 0.56513 0.52724 0.42988 0.0
H313 H 0.57253 0.56771 0.44099 0.0
H314 H 0.5794 0.50225 0.53667 0.0
H315 H 0.55355 0.52485 0.59779 0.0
H316 H 0.46816 0.49446 0.42522 0.0
H317 H 0.4445 0.52032 0.48492 0.0
Cu318 Cu 0.23717 0.4683 0.2438 0.0
N319 N 0.24294 0.45248 0.21906 0.0
N320 N 0.26249 0.44498 0.19012 0.0
C321 C 0.26352 0.46006 0.20698 0.0
C322 C 0.24029 0.42721 0.19163 0.0
C323 C 0.22828 0.43191 0.20944 0.0
O324 O 0.26582 0.48521 0.26446 0.0
C325 C 0.20453 0.47119 0.21435 0.0
O326 O 0.19495 0.44919 0.21897 0.0
H327 H 0.27903 0.47621 0.21092 0.0
H328 H 0.21012 0.42106 0.21488 0.0
N329 N 0.21402 0.44798 0.26777 0.0
N330 N 0.18644 0.43544 0.29895 0.0
C331 C 0.20242 0.45354 0.28407 0.0
C332 C 0.20524 0.42559 0.2726 0.0
C333 C 0.18807 0.41776 0.29177 0.0
C334 C 0.27281 0.47255 0.27408 0.0
O335 O 0.26072 0.45078 0.26919 0.0
H336 H 0.20539 0.4705 0.28462 0.0
H337 H 0.21095 0.41567 0.26301 0.0
O338 O 0.22444 0.48454 0.22416 0.0
H339 H 0.23311 0.41203 0.18044 0.0
H340 H 0.17785 0.40052 0.30002 0.0
Cu341 Cu 0.77515 0.23944 0.7535 0.0
N342 N 0.77176 0.21962 0.72775 0.0
N343 N 0.75478 0.19268 0.6985 0.0
C344 C 0.75168 0.20159 0.72001 0.0
C345 C 0.77768 0.20551 0.69252 0.0
C346 C 0.78815 0.22207 0.71076 0.0
O347 O 0.74485 0.22518 0.77251 0.0
C348 C 0.78776 0.27396 0.71219 0.0
O349 O 0.77222 0.25702 0.69855 0.0
H350 H 0.73495 0.19598 0.72899 0.0
H351 H 0.80623 0.23562 0.71092 0.0
N352 N 0.79683 0.24123 0.77709 0.0
N353 N 0.82584 0.25641 0.80522 0.0
C354 C 0.81445 0.26057 0.78644 0.0
C355 C 0.79706 0.22417 0.79022 0.0
C356 C 0.81495 0.23351 0.80773 0.0
C357 C 0.74293 0.22636 0.79722 0.0
O358 O 0.7614 0.24087 0.81002 0.0
H359 H 0.81806 0.27733 0.78054 0.0
H360 H 0.78461 0.20625 0.78784 0.0
O361 O 0.78944 0.27031 0.73655 0.0
H362 H 0.78607 0.20345 0.67578 0.0
H363 H 0.81929 0.22419 0.82155 0.0
Cu364 Cu 0.55594 0.77972 0.26723 0.0
N365 N 0.57575 0.8033 0.24336 0.0
N366 N 0.58762 0.83173 0.21327 0.0
C367 C 0.56956 0.81526 0.22793 0.0
C368 C 0.60587 0.82991 0.21971 0.0
C369 C 0.5985 0.81237 0.23827 0.0
O370 O 0.53938 0.79117 0.28754 0.0
C371 C 0.55085 0.74745 0.23264 0.0
O372 O 0.57347 0.76122 0.23331 0.0
H373 H 0.55205 0.81177 0.22751 0.0
H374 H 0.60902 0.80669 0.2474 0.0
N375 N 0.57328 0.77399 0.29097 0.0
N376 N 0.5824 0.75464 0.31913 0.0
C377 C 0.56645 0.75357 0.30249 0.0
C378 C 0.59425 0.78858 0.30067 0.0
C379 C 0.59994 0.77669 0.31802 0.0
C380 C 0.5526 0.81105 0.29646 0.0
O381 O 0.57499 0.82139 0.29145 0.0
H382 H 0.54982 0.73837 0.29905 0.0
H383 H 0.60465 0.80662 0.29564 0.0
O384 O 0.5382 0.75184 0.2468 0.0
H385 H 0.62341 0.84068 0.21196 0.0
H386 H 0.61583 0.78377 0.32883 0.0
Cu387 Cu 0.78324 0.55003 0.77629 0.0
N388 N 0.80716 0.56941 0.7527 0.0
N389 N 0.83748 0.58214 0.72511 0.0
C390 C 0.82522 0.56769 0.74554 0.0
C391 C 0.82666 0.59339 0.71934 0.0
C392 C 0.80788 0.58537 0.73623 0.0
O393 O 0.7952 0.53425 0.79812 0.0
C394 C 0.73522 0.52625 0.75869 0.0
O395 O 0.72939 0.52725 0.78284 0.0
H396 H 0.82868 0.55542 0.75452 0.0
H397 H 0.79493 0.58995 0.73564 0.0
N398 N 0.77732 0.56773 0.79809 0.0
N399 N 0.7611 0.57734 0.82908 0.0
C400 C 0.76227 0.56029 0.81862 0.0
C401 C 0.7866 0.59038 0.79605 0.0
C402 C 0.7766 0.59634 0.81501 0.0
C403 C 0.81133 0.54703 0.81371 0.0
O404 O 0.81776 0.56855 0.81418 0.0
H405 H 0.75176 0.54256 0.82508 0.0
H406 H 0.79956 0.60182 0.78162 0.0
O407 O 0.75624 0.5325 0.75337 0.0
H408 H 0.83108 0.60551 0.70305 0.0
H409 H 0.7803 0.61334 0.81792 0.0
Cu410 Cu 0.24568 0.7849 0.26893 0.0
N411 N 0.22208 0.78042 0.24639 0.0
N412 N 0.19298 0.76262 0.21866 0.0
C413 C 0.20773 0.76081 0.23473 0.0
C414 C 0.1983 0.78428 0.22022 0.0
C415 C 0.21624 0.79521 0.23743 0.0
O416 O 0.23289 0.75586 0.29017 0.0
C417 C 0.2812 0.81709 0.23604 0.0
O418 O 0.26954 0.82665 0.2419 0.0
H419 H 0.20853 0.74567 0.23753 0.0
H420 H 0.22455 0.81277 0.24275 0.0
N421 N 0.25184 0.8074 0.29252 0.0
N422 N 0.27134 0.83472 0.32101 0.0
C423 C 0.27155 0.81923 0.30585 0.0
C424 C 0.23858 0.81557 0.29949 0.0
C425 C 0.25055 0.83241 0.31707 0.0
C426 C 0.21387 0.74992 0.30243 0.0
O427 O 0.20558 0.76321 0.2994 0.0
H428 H 0.28569 0.81634 0.30446 0.0
H429 H 0.22146 0.80979 0.29223 0.0
O430 O 0.27417 0.79727 0.24643 0.0
H431 H 0.18983 0.79166 0.20974 0.0
H432 H 0.24453 0.84241 0.32587 0.0
Cu433 Cu 0.46999 0.2442 0.75457 0.0
N434 N 0.45192 0.24993 0.73226 0.0
N435 N 0.44129 0.26844 0.70482 0.0
C436 C 0.45839 0.26989 0.71974 0.0
C437 C 0.42339 0.24665 0.70813 0.0
C438 C 0.43001 0.23528 0.7251 0.0
O439 O 0.48906 0.27283 0.77321 0.0
C440 C 0.49629 0.22341 0.7386 0.0
O441 O 0.50251 0.22421 0.76307 0.0
H442 H 0.47547 0.28503 0.72128 0.0
H443 H 0.41962 0.21759 0.73177 0.0
N444 N 0.44955 0.22129 0.77864 0.0
N445 N 0.43343 0.19084 0.80628 0.0
C446 C 0.44917 0.20237 0.78669 0.0
C447 C 0.43322 0.22152 0.79332 0.0
C448 C 0.42332 0.20281 0.81052 0.0
C449 C 0.49091 0.27325 0.79813 0.0
O450 O 0.48412 0.25408 0.81145 0.0
H451 H 0.46088 0.19767 0.77926 0.0
H452 H 0.42941 0.23485 0.7922 0.0
O453 O 0.48478 0.23252 0.73189 0.0
H454 H 0.40662 0.23946 0.69919 0.0
H455 H 0.41015 0.19865 0.82538 0.0
H456 H 0.09069 0.5401 0.06834 0.0
H457 H 0.12009 0.53887 0.09527 0.0
H458 H 0.08102 0.46558 0.09316 0.0
H459 H 0.05197 0.46691 0.06592 0.0
H460 H 0.11729 0.51894 0.14388 0.0
H461 H 0.14484 0.48075 0.07028 0.0
H462 H 0.12722 0.49239 0.06208 0.0
H463 H 0.11414 0.4641 0.07676 0.0
C464 C 0.08852 0.52377 0.07358 0.0
C465 C 0.06909 0.5036 0.06498 0.0
C466 C 0.10528 0.52305 0.08902 0.0
C467 C 0.10313 0.50215 0.09603 0.0
C468 C 0.08351 0.48199 0.08764 0.0
H469 H 0.16335 0.44442 0.19096 0.0
H470 H 0.14176 0.45515 0.16271 0.0
C471 C 0.06678 0.48271 0.07221 0.0
C472 C 0.12109 0.50128 0.11232 0.0
H473 H 0.15624 0.47964 0.11433 0.0
C474 C 0.12604 0.51062 0.13726 0.0
C475 C 0.13282 0.49065 0.10376 0.0
C476 C 0.1297 0.48162 0.07665 0.0
C477 C 0.14132 0.50851 0.15423 0.0
C478 C 0.15222 0.49699 0.14605 0.0
C479 C 0.14791 0.48843 0.12076 0.0
C480 C 0.16611 0.49141 0.16415 0.0
C481 C 0.14485 0.51769 0.18127 0.0
C482 C 0.18733 0.50823 0.17468 0.0
C483 C 0.20008 0.50209 0.19113 0.0
C484 C 0.19179 0.47899 0.19739 0.0
C485 C 0.1705 0.4624 0.18679 0.0
C486 C 0.15799 0.4685 0.17045 0.0
H487 H 0.13256 0.52311 0.18605 0.0
H488 H 0.14268 0.50463 0.19623 0.0
H489 H 0.16278 0.53264 0.18254 0.0
H490 H 0.19421 0.52608 0.16989 0.0
H491 H 0.21638 0.51533 0.19879 0.0
H492 H 0.57705 0.07593 0.55941 0.0
H493 H 0.61063 0.10214 0.58495 0.0
H494 H 0.63035 0.05226 0.5918 0.0
H495 H 0.59769 0.02677 0.56453 0.0
H496 H 0.6212 0.09955 0.63254 0.0
H497 H 0.69099 0.1062 0.56952 0.0
H498 H 0.66133 0.09241 0.55927 0.0
H499 H 0.67056 0.07734 0.5803 0.0
C500 C 0.58876 0.07074 0.56621 0.0
C501 C 0.58481 0.04936 0.56028 0.0
C502 C 0.60786 0.08564 0.58085 0.0
C503 C 0.62328 0.07937 0.59006 0.0
C504 C 0.61913 0.0578 0.58438 0.0
H505 H 0.717 0.15358 0.71683 0.0
H506 H 0.68532 0.12469 0.69101 0.0
C507 C 0.60028 0.04309 0.56919 0.0
C508 C 0.64322 0.09522 0.6062 0.0
H509 H 0.70196 0.12157 0.61174 0.0
C510 C 0.63888 0.10445 0.62788 0.0
C511 C 0.66637 0.1019 0.59997 0.0
C512 C 0.67264 0.09414 0.57584 0.0
C513 C 0.65692 0.12018 0.64341 0.0
C514 C 0.67994 0.12609 0.63788 0.0
C515 C 0.68431 0.11684 0.61622 0.0
C516 C 0.69986 0.14257 0.65361 0.0
C517 C 0.65108 0.13086 0.66493 0.0
C518 C 0.71924 0.16156 0.64115 0.0
C519 C 0.73763 0.17764 0.65584 0.0
C520 C 0.73685 0.17518 0.68327 0.0
C521 C 0.71778 0.15594 0.69571 0.0
C522 C 0.69963 0.13957 0.68098 0.0
H523 H 0.63457 0.1301 0.66123 0.0
H524 H 0.64889 0.12139 0.68377 0.0
H525 H 0.66503 0.14896 0.667 0.0
H526 H 0.71991 0.16424 0.62008 0.0
H527 H 0.75209 0.19243 0.64585 0.0
H528 H 0.4968 0.56026 0.1175 0.0
H529 H 0.4975 0.58863 0.14547 0.0
H530 H 0.5393 0.64149 0.08708 0.0
H531 H 0.53826 0.61319 0.05888 0.0
H532 H 0.53092 0.62407 0.16867 0.0
H533 H 0.49143 0.65673 0.10001 0.0
H534 H 0.49182 0.63142 0.09404 0.0
H535 H 0.5168 0.65921 0.0857 0.0
C536 C 0.50615 0.57793 0.11056 0.0
C537 C 0.51734 0.5843 0.08572 0.0
C538 C 0.50647 0.59419 0.12661 0.0
C539 C 0.51801 0.61733 0.11834 0.0
C540 C 0.52956 0.62376 0.09374 0.0
H541 H 0.5702 0.74562 0.18728 0.0
H542 H 0.55899 0.71281 0.16087 0.0
C543 C 0.52905 0.60749 0.07759 0.0
C544 C 0.51868 0.63479 0.13574 0.0
H545 H 0.51132 0.68014 0.13626 0.0
C546 C 0.52624 0.63605 0.16164 0.0
C547 C 0.51245 0.65051 0.12692 0.0
C548 C 0.50243 0.64926 0.10025 0.0
C549 C 0.52871 0.65302 0.1783 0.0
C550 C 0.52349 0.66928 0.16901 0.0
C551 C 0.51534 0.6677 0.14345 0.0
C552 C 0.5287 0.68934 0.18458 0.0
C553 C 0.53781 0.6541 0.20546 0.0
C554 C 0.51506 0.68734 0.20655 0.0
C555 C 0.52129 0.70639 0.22168 0.0
C556 C 0.54146 0.72764 0.21528 0.0
C557 C 0.55459 0.72954 0.19288 0.0
C558 C 0.54821 0.71075 0.17768 0.0
H559 H 0.54237 0.64106 0.2093 0.0
H560 H 0.55343 0.67123 0.20822 0.0
H561 H 0.52446 0.65142 0.22016 0.0
H562 H 0.49984 0.671 0.21223 0.0
H563 H 0.51092 0.70426 0.2389 0.0
H564 H 0.93461 0.52942 0.56178 0.0
H565 H 0.91442 0.54153 0.5899 0.0
H566 H 0.98001 0.59824 0.61372 0.0
H567 H 1.00048 0.58643 0.58523 0.0
H568 H 0.94978 0.57211 0.65554 0.0
H569 H 0.90543 0.59556 0.58176 0.0
H570 H 0.90093 0.56789 0.5774 0.0
H571 H 0.92966 0.59278 0.57347 0.0
C572 C 0.94479 0.5448 0.57246 0.0
C573 C 0.96919 0.557 0.57115 0.0
C574 C 0.9332 0.55168 0.58858 0.0
C575 C 0.94572 0.57094 0.60362 0.0
C576 C 0.97005 0.58337 0.60216 0.0
H577 H 0.87018 0.61761 0.69447 0.0
H578 H 0.89944 0.61792 0.66617 0.0
C579 C 0.98169 0.57653 0.58597 0.0
C580 C 0.93331 0.57703 0.62217 0.0
H581 H 0.89039 0.58856 0.62587 0.0
C582 C 0.93703 0.57604 0.64907 0.0
C583 C 0.91692 0.58244 0.61366 0.0
C584 C 0.91313 0.58497 0.58498 0.0
C585 C 0.92394 0.5792 0.66775 0.0
C586 C 0.90651 0.58315 0.65926 0.0
C587 C 0.90362 0.5853 0.63234 0.0
C588 C 0.89014 0.58373 0.67789 0.0
C589 C 0.92869 0.57801 0.69641 0.0
C590 C 0.87524 0.56441 0.69384 0.0
C591 C 0.85843 0.56412 0.70989 0.0
C592 C 0.85605 0.58311 0.71018 0.0
C593 C 0.87134 0.60261 0.69451 0.0
C594 C 0.88815 0.60287 0.67842 0.0
H595 H 0.9466 0.58182 0.69934 0.0
H596 H 0.92628 0.59011 0.70758 0.0
H597 H 0.91643 0.56053 0.7046 0.0
H598 H 0.87612 0.54926 0.69326 0.0
H599 H 0.84677 0.54866 0.72126 0.0
H600 H 0.42739 0.96804 0.07256 0.0
H601 H 0.39768 0.93923 0.10332 0.0
H602 H 0.43181 0.90152 0.10268 0.0
H603 H 0.46178 0.93064 0.07231 0.0
H604 H 0.36671 0.89396 0.09803 0.0
H605 H 0.42411 0.90453 0.1807 0.0
H606 H 0.43365 0.92471 0.15314 0.0
H607 H 0.43231 0.89823 0.15026 0.0
C608 C 0.4286 0.95366 0.07917 0.0
C609 C 0.44701 0.95169 0.07021 0.0
C610 C 0.41158 0.93715 0.09671 0.0
C611 C 0.41255 0.91823 0.10586 0.0
C612 C 0.43083 0.91612 0.09658 0.0
H613 H 0.31162 0.80497 0.21645 0.0
H614 H 0.34385 0.82711 0.18418 0.0
C615 C 0.44788 0.93268 0.07904 0.0
C616 C 0.39407 0.90061 0.12446 0.0
H617 H 0.38459 0.87527 0.18598 0.0
C618 C 0.37073 0.88985 0.11718 0.0
C619 C 0.39907 0.89493 0.14953 0.0
C620 C 0.42361 0.90631 0.15906 0.0
C621 C 0.35245 0.87406 0.1342 0.0
C622 C 0.35739 0.8689 0.15952 0.0
C623 C 0.38072 0.87904 0.16657 0.0
C624 C 0.33847 0.8552 0.1797 0.0
C625 C 0.32785 0.86315 0.12499 0.0
C626 C 0.32503 0.8637 0.18837 0.0
C627 C 0.30689 0.85127 0.20667 0.0
C628 C 0.30143 0.8298 0.21711 0.0
C629 C 0.31518 0.82134 0.20884 0.0
C630 C 0.33363 0.83401 0.1904 0.0
H631 H 0.32715 0.86355 0.10327 0.0
H632 H 0.31704 0.84519 0.13253 0.0
H633 H 0.32015 0.87265 0.13242 0.0
H634 H 0.32856 0.8801 0.18089 0.0
H635 H 0.297 0.85864 0.21247 0.0
H636 H 0.49967 0.45369 0.58192 0.0
H637 H 0.48984 0.42014 0.61006 0.0
H638 H 0.43248 0.37786 0.56058 0.0
H639 H 0.44235 0.41153 0.53242 0.0
H640 H 0.44595 0.38872 0.637 0.0
H641 H 0.47141 0.34723 0.5644 0.0
H642 H 0.48094 0.37702 0.56137 0.0
H643 H 0.45178 0.35567 0.55344 0.0
C644 C 0.48499 0.43718 0.57716 0.0
C645 C 0.47185 0.43492 0.55503 0.0
C646 C 0.47938 0.41812 0.59317 0.0
C647 C 0.46063 0.39654 0.58717 0.0
C648 C 0.44723 0.39433 0.56526 0.0
H649 H 0.41593 0.2637 0.66175 0.0
H650 H 0.41822 0.29422 0.63368 0.0
C651 C 0.4528 0.41346 0.54928 0.0
C652 C 0.4552 0.37643 0.60398 0.0
H653 H 0.45624 0.32766 0.60512 0.0
C654 C 0.44809 0.37529 0.63005 0.0
C655 C 0.45793 0.35896 0.59473 0.0
C656 C 0.46608 0.35971 0.56702 0.0
C657 C 0.44373 0.35714 0.64726 0.0
C658 C 0.44709 0.33997 0.63823 0.0
C659 C 0.4537 0.34086 0.61197 0.0
C660 C 0.44485 0.32149 0.65597 0.0
C661 C 0.43543 0.35644 0.67487 0.0
C662 C 0.45915 0.32672 0.67772 0.0
C663 C 0.45776 0.30935 0.6939 0.0
C664 C 0.4422 0.28635 0.68852 0.0
C665 C 0.42787 0.28118 0.66669 0.0
C666 C 0.42925 0.2986 0.65052 0.0
H667 H 0.42706 0.36649 0.67627 0.0
H668 H 0.42289 0.33867 0.68206 0.0
H669 H 0.45051 0.36393 0.68799 0.0
H670 H 0.47164 0.34428 0.68198 0.0
H671 H 0.46887 0.31399 0.71065 0.0
H672 H 0.48367 0.90932 0.45841 0.0
H673 H 0.48642 0.88204 0.43168 0.0
H674 H 0.55301 0.93592 0.40104 0.0
H675 H 0.55068 0.96313 0.42801 0.0
H676 H 0.49155 0.88109 0.3765 0.0
H677 H 0.56649 0.88764 0.42786 0.0
H678 H 0.5494 0.89806 0.4413 0.0
H679 H 0.57137 0.91471 0.41651 0.0
C680 C 0.49904 0.91538 0.4462 0.0
C681 C 0.51701 0.93857 0.44563 0.0
C682 C 0.50049 0.89973 0.43072 0.0
C683 C 0.52006 0.90674 0.41449 0.0
C684 C 0.53786 0.9299 0.41363 0.0
H685 H 0.57629 0.85598 0.30641 0.0
H686 H 0.56568 0.87647 0.33493 0.0
C687 C 0.53639 0.94556 0.42896 0.0
C688 C 0.52204 0.89003 0.39848 0.0
H689 H 0.55706 0.8693 0.38723 0.0
C690 C 0.50573 0.87832 0.37901 0.0
C691 C 0.5404 0.88616 0.40178 0.0
C692 C 0.5578 0.89711 0.42315 0.0
C693 C 0.50799 0.86384 0.36203 0.0
C694 C 0.52684 0.8606 0.3648 0.0
C695 C 0.54263 0.87174 0.38488 0.0
C696 C 0.53185 0.84743 0.34597 0.0
C697 C 0.49074 0.85294 0.34055 0.0
C698 C 0.51627 0.82403 0.34205 0.0
C699 C 0.52233 0.81202 0.32534 0.0
C700 C 0.54418 0.82315 0.31243 0.0
C701 C 0.55937 0.84663 0.31607 0.0
C702 C 0.55333 0.8585 0.3325 0.0
H703 H 0.4802 0.86077 0.33763 0.0
H704 H 0.49973 0.85436 0.32176 0.0
H705 H 0.47877 0.83457 0.34577 0.0
H706 H 0.4997 0.81489 0.35245 0.0
H707 H 0.51026 0.79397 0.32318 0.0
H708 H 0.60915 0.58068 0.97585 0.0
H709 H 0.64317 0.5877 0.95023 0.0
H710 H 0.61315 0.51521 0.94652 0.0
H711 H 0.57892 0.50827 0.97138 0.0
H712 H 0.67501 0.57509 0.95962 0.0
H713 H 0.6261 0.53612 0.8698 0.0
H714 H 0.61381 0.54283 0.89671 0.0
H715 H 0.61488 0.5174 0.89842 0.0
C716 C 0.6099 0.56635 0.96936 0.0
C717 C 0.59145 0.54398 0.97503 0.0
C718 C 0.62928 0.57032 0.9549 0.0
C719 C 0.63046 0.55197 0.94604 0.0
C720 C 0.61234 0.5296 0.95259 0.0
H721 H 0.7383 0.54331 0.8664 0.0
H722 H 0.70747 0.53776 0.89645 0.0
C723 C 0.59292 0.52564 0.96688 0.0
C724 C 0.65055 0.5562 0.92978 0.0
H725 H 0.66531 0.54588 0.87026 0.0
C726 C 0.6729 0.56876 0.94006 0.0
C727 C 0.64776 0.54806 0.90417 0.0
C728 C 0.62438 0.53554 0.89148 0.0
C729 C 0.69248 0.57306 0.92553 0.0
C730 C 0.68956 0.56455 0.90022 0.0
C731 C 0.66733 0.55215 0.88984 0.0
C732 C 0.70947 0.56887 0.8838 0.0
C733 C 0.71622 0.58664 0.9371 0.0
C734 C 0.7208 0.5883 0.86701 0.0
C735 C 0.73825 0.59144 0.84965 0.0
C736 C 0.74465 0.57515 0.84872 0.0
C737 C 0.73363 0.55602 0.86625 0.0
C738 C 0.71612 0.55287 0.88357 0.0
H739 H 0.71556 0.59163 0.95735 0.0
H740 H 0.72458 0.57652 0.93733 0.0
H741 H 0.72731 0.60229 0.92464 0.0
H742 H 0.71571 0.60072 0.86688 0.0
H743 H 0.74605 0.60623 0.83632 0.0
H744 H 0.09316 0.56056 0.44968 0.0
H745 H 0.12314 0.59215 0.42148 0.0
H746 H 0.08734 0.62788 0.42878 0.0
H747 H 0.05764 0.59647 0.45716 0.0
H748 H 0.12044 0.6111 0.37362 0.0
H749 H 0.15283 0.67609 0.44877 0.0
H750 H 0.13416 0.64603 0.45687 0.0
H751 H 0.1221 0.6622 0.44457 0.0
C752 C 0.09181 0.57524 0.44528 0.0
C753 C 0.07312 0.57611 0.45569 0.0
C754 C 0.10891 0.59327 0.42911 0.0
C755 C 0.10785 0.61271 0.42319 0.0
C756 C 0.08896 0.6134 0.43339 0.0
H757 H 0.17496 0.73705 0.3313 0.0
H758 H 0.15199 0.70351 0.35973 0.0
C759 C 0.07187 0.59538 0.4495 0.0
C760 C 0.12625 0.63219 0.40625 0.0
H761 H 0.16447 0.68993 0.40452 0.0
C762 C 0.13028 0.6283 0.38049 0.0
C763 C 0.13936 0.6547 0.41511 0.0
C764 C 0.13711 0.66003 0.44292 0.0
C765 C 0.14603 0.64636 0.36308 0.0
C766 C 0.15846 0.66899 0.37169 0.0
C767 C 0.155 0.67269 0.39774 0.0
C768 C 0.17324 0.68933 0.35353 0.0
C769 C 0.14844 0.64121 0.33526 0.0
C770 C 0.19326 0.69296 0.34028 0.0
C771 C 0.20678 0.71254 0.32364 0.0
C772 C 0.20052 0.72887 0.31995 0.0
C773 C 0.18053 0.72503 0.3334 0.0
C774 C 0.16723 0.70572 0.34987 0.0
H775 H 0.13469 0.62364 0.33038 0.0
H776 H 0.14772 0.65347 0.32128 0.0
H777 H 0.16552 0.64295 0.33248 0.0
H778 H 0.1986 0.68081 0.343 0.0
H779 H 0.22203 0.71487 0.31373 0.0
H780 H 0.43146 0.02576 0.93774 0.0
H781 H 0.42085 0.04793 0.9093 0.0
H782 H 0.47682 0.1101 0.9398 0.0
H783 H 0.4882 0.08829 0.96733 0.0
H784 H 0.40871 0.08014 0.91881 0.0
H785 H 0.49095 0.1183 0.86097 0.0
H786 H 0.48128 0.09426 0.8837 0.0
H787 H 0.49533 0.12268 0.8954 0.0
C788 C 0.44153 0.04416 0.93837 0.0
C789 C 0.46085 0.05524 0.95463 0.0
C790 C 0.43533 0.05677 0.92225 0.0
C791 C 0.44835 0.08064 0.92211 0.0
C792 C 0.46683 0.09169 0.93929 0.0
H793 H 0.42302 0.18178 0.85812 0.0
H794 H 0.42335 0.15217 0.8852 0.0
C795 C 0.47312 0.07914 0.95528 0.0
C796 C 0.44334 0.09413 0.90324 0.0
H797 H 0.46828 0.13487 0.85389 0.0
C798 C 0.42163 0.092 0.90446 0.0
C799 C 0.46006 0.1092 0.88418 0.0
C800 C 0.48312 0.11112 0.88074 0.0
C801 C 0.41651 0.10521 0.88768 0.0
C802 C 0.43373 0.12121 0.86961 0.0
C803 C 0.45513 0.12273 0.86786 0.0
C804 C 0.43047 0.13719 0.85286 0.0
C805 C 0.39269 0.1018 0.88938 0.0
C806 C 0.43445 0.13872 0.82569 0.0
C807 C 0.43456 0.15582 0.81025 0.0
C808 C 0.43063 0.17169 0.82167 0.0
C809 C 0.42574 0.16959 0.84871 0.0
C810 C 0.42585 0.1526 0.8642 0.0
H811 H 0.37963 0.08451 0.89754 0.0
H812 H 0.39313 0.11438 0.90263 0.0
H813 H 0.38697 0.10428 0.86987 0.0
H814 H 0.43811 0.12704 0.81654 0.0
H815 H 0.43815 0.15692 0.78943 0.0
H816 H 0.42724 0.47456 0.41707 0.0
H817 H 0.39818 0.47291 0.38742 0.0
H818 H 0.40974 0.53565 0.41662 0.0
H819 H 0.43929 0.53775 0.44593 0.0
H820 H 0.35713 0.47064 0.40001 0.0
H821 H 0.41379 0.54828 0.3373 0.0
H822 H 0.42529 0.53547 0.35872 0.0
H823 H 0.4152 0.55251 0.3719 0.0
C824 C 0.42392 0.48823 0.41699 0.0
C825 C 0.43586 0.50635 0.43399 0.0
C826 C 0.40711 0.48718 0.40007 0.0
C827 C 0.40185 0.5043 0.39937 0.0
C828 C 0.41367 0.5224 0.41631 0.0
H829 H 0.29635 0.51188 0.30284 0.0
H830 H 0.32777 0.52158 0.33407 0.0
C831 C 0.43043 0.52343 0.43336 0.0
C832 C 0.38339 0.50256 0.38164 0.0
H833 H 0.3736 0.52835 0.32901 0.0
C834 C 0.36079 0.48333 0.38456 0.0
C835 C 0.38791 0.51918 0.36155 0.0
C836 C 0.41188 0.53997 0.35693 0.0
C837 C 0.34283 0.48013 0.36796 0.0
C838 C 0.3475 0.49631 0.34728 0.0
C839 C 0.36991 0.51591 0.34478 0.0
C840 C 0.32977 0.49199 0.327 0.0
C841 C 0.31889 0.45931 0.37279 0.0
C842 C 0.32099 0.47271 0.31189 0.0
C843 C 0.30321 0.4672 0.29426 0.0
C844 C 0.29367 0.48089 0.29084 0.0
C845 C 0.30323 0.50093 0.30494 0.0
C846 C 0.32115 0.50644 0.32286 0.0
H847 H 0.31639 0.4527 0.39343 0.0
H848 H 0.30523 0.46306 0.36822 0.0
H849 H 0.31658 0.44565 0.36003 0.0
H850 H 0.32765 0.46158 0.31406 0.0
H851 H 0.29666 0.45182 0.28353 0.0
H852 H 0.92875 0.40829 0.97136 0.0
H853 H 0.90556 0.37517 0.94519 0.0
H854 H 0.96736 0.38892 0.9039 0.0
H855 H 0.99096 0.42152 0.93101 0.0
H856 H 0.90114 0.37632 0.89312 0.0
H857 H 0.9349 0.32089 0.91967 0.0
H858 H 0.94087 0.34491 0.93852 0.0
H859 H 0.95699 0.34922 0.90867 0.0
C860 C 0.93757 0.40397 0.95727 0.0
C861 C 0.9618 0.41759 0.95343 0.0
C862 C 0.92422 0.3851 0.94213 0.0
C863 C 0.93472 0.37941 0.92276 0.0
C864 C 0.95891 0.39272 0.91907 0.0
H865 H 0.85905 0.29951 0.79026 0.0
H866 H 0.88706 0.32919 0.81839 0.0
C867 C 0.97235 0.41155 0.93436 0.0
C868 C 0.92005 0.36065 0.90521 0.0
H869 H 0.90978 0.31012 0.8833 0.0
C870 C 0.903 0.36182 0.89104 0.0
C871 C 0.92237 0.34164 0.9027 0.0
C872 C 0.93962 0.33891 0.91837 0.0
C873 C 0.88824 0.34459 0.87435 0.0
C874 C 0.89101 0.32593 0.87119 0.0
C875 C 0.90791 0.3246 0.88552 0.0
C876 C 0.876 0.30739 0.85358 0.0
C877 C 0.86948 0.34632 0.86072 0.0
C878 C 0.8613 0.28505 0.86378 0.0
C879 C 0.84541 0.26802 0.84768 0.0
C880 C 0.84394 0.2731 0.82114 0.0
C881 C 0.85949 0.29524 0.81074 0.0
C882 C 0.87547 0.31218 0.82678 0.0
H883 H 0.86581 0.35822 0.87046 0.0
H884 H 0.87521 0.35285 0.84024 0.0
H885 H 0.85312 0.3294 0.86024 0.0
H886 H 0.86151 0.28099 0.88441 0.0
H887 H 0.83359 0.25116 0.85627 0.0
H888 H 0.9486 0.49169 0.9298 0.0
H889 H 0.92038 0.49407 0.90179 0.0
H890 H 0.92338 0.5449 0.9509 0.0
H891 H 0.9516 0.54253 0.97875 0.0
H892 H 0.8757 0.4871 0.91414 0.0
H893 H 0.93757 0.57557 0.87697 0.0
H894 H 0.94692 0.5583 0.89327 0.0
H895 H 0.93575 0.57207 0.91205 0.0
C896 C 0.94317 0.50333 0.93455 0.0
C897 C 0.95231 0.51697 0.95639 0.0
C898 C 0.92701 0.50466 0.91859 0.0
C899 C 0.91985 0.51986 0.92395 0.0
C900 C 0.92882 0.53328 0.94602 0.0
H901 H 0.83465 0.56617 0.85781 0.0
H902 H 0.8593 0.55735 0.88339 0.0
C903 C 0.94487 0.53187 0.96202 0.0
C904 C 0.90324 0.52192 0.90644 0.0
H905 H 0.89791 0.56012 0.86757 0.0
C906 C 0.88059 0.50302 0.90379 0.0
C907 C 0.90953 0.54262 0.89274 0.0
C908 C 0.93382 0.56326 0.89363 0.0
C909 C 0.8639 0.50453 0.88881 0.0
C910 C 0.87008 0.52542 0.87556 0.0
C911 C 0.89294 0.5441 0.87772 0.0
C912 C 0.85304 0.52895 0.86063 0.0
C913 C 0.83956 0.48399 0.88819 0.0
C914 C 0.84064 0.51571 0.83929 0.0
C915 C 0.82609 0.52062 0.82457 0.0
C916 C 0.8239 0.5391 0.83066 0.0
C917 C 0.83591 0.55187 0.85236 0.0
C918 C 0.85015 0.54687 0.86708 0.0
H919 H 0.83611 0.47136 0.90436 0.0
H920 H 0.82655 0.48901 0.88961 0.0
H921 H 0.83715 0.47554 0.86939 0.0
H922 H 0.84279 0.50204 0.83344 0.0
H923 H 0.81735 0.5106 0.80783 0.0
H924 H 0.41189 0.97525 0.48878 0.0
H925 H 0.37946 0.94946 0.46116 0.0
H926 H 0.42551 0.93698 0.41691 0.0
H927 H 0.45767 0.96228 0.44491 0.0
H928 H 0.37428 0.95136 0.4076 0.0
H929 H 0.37271 0.8728 0.43776 0.0
H930 H 0.38848 0.89871 0.45535 0.0
H931 H 0.40061 0.89551 0.42572 0.0
C932 C 0.41489 0.96682 0.47322 0.0
C933 C 0.43698 0.97032 0.46904 0.0
C934 C 0.39649 0.9522 0.45746 0.0
C935 C 0.39999 0.94095 0.43733 0.0
C936 C 0.42229 0.94502 0.43274 0.0
H937 H 0.31734 0.85038 0.31663 0.0
H938 H 0.34802 0.87647 0.34525 0.0
C939 C 0.44064 0.95954 0.44855 0.0
C940 C 0.38041 0.92516 0.4209 0.0
H941 H 0.35005 0.87039 0.40107 0.0
C942 C 0.36885 0.93361 0.40631 0.0
C943 C 0.37334 0.902 0.41931 0.0
C944 C 0.38427 0.89162 0.43556 0.0
C945 C 0.35079 0.91965 0.38961 0.0
C946 C 0.344 0.89661 0.38773 0.0
C947 C 0.3554 0.8881 0.4025 0.0
C948 C 0.32527 0.88106 0.37031 0.0
C949 C 0.33949 0.92976 0.37361 0.0
C950 C 0.30226 0.87485 0.37508 0.0
C951 C 0.28459 0.85974 0.35888 0.0
C952 C 0.28959 0.85049 0.33763 0.0
C953 C 0.31273 0.85683 0.33298 0.0
C954 C 0.33035 0.87187 0.34923 0.0
H955 H 0.34987 0.94868 0.37313 0.0
H956 H 0.337 0.92402 0.3532 0.0
H957 H 0.32215 0.92391 0.38233 0.0
H958 H 0.29794 0.88145 0.39156 0.0
H959 H 0.26698 0.85501 0.36332 0.0
H960 H 0.51551 0.45437 0.90369 0.0
H961 H 0.51315 0.42541 0.87553 0.0
H962 H 0.49927 0.38081 0.94327 0.0
H963 H 0.50037 0.40908 0.97139 0.0
H964 H 0.53796 0.40559 0.87218 0.0
H965 H 0.44726 0.33833 0.89794 0.0
H966 H 0.4598 0.36736 0.90732 0.0
H967 H 0.46503 0.34811 0.92623 0.0
C968 C 0.51154 0.43827 0.91268 0.0
C969 C 0.50793 0.43423 0.94004 0.0
C970 C 0.51042 0.42172 0.89646 0.0
C971 C 0.50558 0.40057 0.90703 0.0
C972 C 0.50245 0.39666 0.93436 0.0
H973 H 0.49478 0.27851 0.85105 0.0
H974 H 0.49943 0.31016 0.87572 0.0
C975 C 0.50345 0.41312 0.95057 0.0
C976 C 0.50409 0.38276 0.88963 0.0
H977 H 0.46944 0.32668 0.87466 0.0
C978 C 0.52287 0.3884 0.8726 0.0
C979 C 0.48439 0.36023 0.88985 0.0
C980 C 0.46289 0.35318 0.90611 0.0
C981 C 0.5228 0.37209 0.85663 0.0
C982 C 0.50335 0.34946 0.8574 0.0
C983 C 0.48445 0.34393 0.87411 0.0
C984 C 0.50234 0.33104 0.84169 0.0
C985 C 0.54385 0.37904 0.83961 0.0
C986 C 0.50267 0.33211 0.8141 0.0
C987 C 0.49997 0.31386 0.79976 0.0
C988 C 0.49686 0.29406 0.81268 0.0
C989 C 0.49718 0.29339 0.84028 0.0
C990 C 0.49977 0.31152 0.85452 0.0
H991 H 0.55918 0.39545 0.84535 0.0
H992 H 0.54831 0.36574 0.84063 0.0
H993 H 0.54001 0.38108 0.81895 0.0
H994 H 0.50426 0.34676 0.80362 0.0
H995 H 0.49958 0.31497 0.77859 0.0
H996 H 0.09152 0.49306 0.46175 0.0
H997 H 0.11248 0.48132 0.4343 0.0
H998 H 0.04796 0.42032 0.41617 0.0
H999 H 0.02676 0.43217 0.44345 0.0
H1000 H 0.11576 0.44367 0.4369 0.0
H1001 H 0.07527 0.44752 0.34386 0.0
H1002 H 0.07217 0.45903 0.37361 0.0
H1003 H 0.05524 0.42884 0.36924 0.0
C1004 C 0.08179 0.47702 0.45215 0.0
C1005 C 0.05748 0.46354 0.45471 0.0
C1006 C 0.09379 0.47037 0.4364 0.0
C1007 C 0.08176 0.45012 0.42288 0.0
C1008 C 0.05753 0.43627 0.42594 0.0
H1009 H 0.14273 0.40079 0.31159 0.0
H1010 H 0.11579 0.40131 0.34326 0.0
C1011 C 0.04546 0.44302 0.44158 0.0
C1012 C 0.09482 0.44392 0.4054 0.0
H1013 H 0.10265 0.43656 0.3413 0.0
C1014 C 0.11277 0.44194 0.41603 0.0
C1015 C 0.09088 0.44167 0.37816 0.0
C1016 C 0.0725 0.44455 0.36542 0.0
C1017 C 0.12721 0.43828 0.40008 0.0
C1018 C 0.12364 0.43664 0.37283 0.0
C1019 C 0.10521 0.43776 0.36227 0.0
C1020 C 0.14004 0.4357 0.35471 0.0
C1021 C 0.14644 0.43655 0.41236 0.0
C1022 C 0.16244 0.45488 0.35071 0.0
C1023 C 0.17772 0.45468 0.33262 0.0
C1024 C 0.17089 0.43524 0.31826 0.0
C1025 C 0.14851 0.4159 0.32258 0.0
C1026 C 0.13312 0.4162 0.34053 0.0
H1027 H 0.14366 0.43295 0.43385 0.0
H1028 H 0.14792 0.42297 0.4034 0.0
H1029 H 0.16316 0.45294 0.40884 0.0
H1030 H 0.16799 0.47016 0.36131 0.0
H1031 H 0.19492 0.46973 0.3299 0.0
H1032 H 0.55955 0.08979 0.9449 0.0
H1033 H 0.58982 0.11929 0.91527 0.0
H1034 H 0.62369 0.08135 0.91372 0.0
H1035 H 0.59389 0.05236 0.94423 0.0
H1036 H 0.65498 0.12434 0.91837 0.0
H1037 H 0.59842 0.11988 0.83808 0.0
H1038 H 0.59027 0.12606 0.86857 0.0
H1039 H 0.5879 0.09911 0.86508 0.0
C1040 C 0.57344 0.08777 0.93813 0.0
C1041 C 0.57423 0.06866 0.94674 0.0
C1042 C 0.59067 0.10454 0.92093 0.0
C1043 C 0.60897 0.1025 0.91154 0.0
C1044 C 0.60979 0.08342 0.92036 0.0
H1045 H 0.70568 0.18564 0.78119 0.0
H1046 H 0.6732 0.15577 0.80833 0.0
C1047 C 0.59269 0.06676 0.93775 0.0
C1048 C 0.62772 0.12056 0.89345 0.0
H1049 H 0.63749 0.15171 0.8359 0.0
C1050 C 0.65106 0.13019 0.9003 0.0
C1051 C 0.62293 0.12815 0.86949 0.0
C1052 C 0.59854 0.1176 0.8597 0.0
C1053 C 0.66949 0.14726 0.88436 0.0
C1054 C 0.66467 0.15565 0.86105 0.0
C1055 C 0.64136 0.14569 0.85388 0.0
C1056 C 0.68358 0.17454 0.84389 0.0
C1057 C 0.69402 0.15568 0.89247 0.0
C1058 C 0.69994 0.19554 0.85431 0.0
C1059 C 0.7186 0.21257 0.83887 0.0
C1060 C 0.72128 0.20935 0.81234 0.0
C1061 C 0.70421 0.18882 0.80148 0.0
C1062 C 0.68561 0.17164 0.81707 0.0
H1063 H 0.69483 0.14294 0.90551 0.0
H1064 H 0.70566 0.15963 0.87518 0.0
H1065 H 0.70068 0.17142 0.90347 0.0
H1066 H 0.69851 0.19868 0.87462 0.0
H1067 H 0.73121 0.22817 0.84793 0.0
H1068 H 0.57942 0.61022 0.48891 0.0
H1069 H 0.58722 0.64339 0.46108 0.0
H1070 H 0.53021 0.59913 0.41221 0.0
H1071 H 0.52206 0.5662 0.44045 0.0
H1072 H 0.59816 0.65324 0.40843 0.0
H1073 H 0.51461 0.64607 0.43088 0.0
H1074 H 0.52472 0.63055 0.44966 0.0
H1075 H 0.51101 0.6204 0.41879 0.0
C1076 C 0.56857 0.60776 0.47228 0.0
C1077 C 0.54997 0.58594 0.46688 0.0
C1078 C 0.57303 0.62659 0.4564 0.0
C1079 C 0.55898 0.62375 0.43493 0.0
C1080 C 0.54087 0.60176 0.42908 0.0
H1081 H 0.55554 0.70935 0.31091 0.0
H1082 H 0.55104 0.67814 0.33936 0.0
C1083 C 0.53633 0.583 0.44502 0.0
C1084 C 0.56326 0.64372 0.4185 0.0
H1085 H 0.53732 0.67158 0.39538 0.0
C1086 C 0.58495 0.65738 0.40572 0.0
C1087 C 0.546 0.64912 0.41513 0.0
C1088 C 0.52286 0.63591 0.42954 0.0
C1089 C 0.58958 0.67594 0.38903 0.0
C1090 C 0.57213 0.68097 0.38524 0.0
C1091 C 0.55058 0.66751 0.39825 0.0
C1092 C 0.57575 0.70003 0.36765 0.0
C1093 C 0.61287 0.68975 0.37507 0.0
C1094 C 0.5911 0.72265 0.37425 0.0
C1095 C 0.59352 0.74059 0.35819 0.0
C1096 C 0.58061 0.7362 0.33524 0.0
C1097 C 0.56547 0.71343 0.3286 0.0
C1098 C 0.56298 0.69553 0.34473 0.0
H1099 H 0.62292 0.68128 0.37651 0.0
H1100 H 0.61067 0.69271 0.35407 0.0
H1101 H 0.62312 0.70661 0.38394 0.0
H1102 H 0.60083 0.7264 0.39211 0.0
H1103 H 0.60509 0.75783 0.36415 0.0
H1104 H 0.51625 0.07144 0.62055 0.0
H1105 H 0.51526 0.09922 0.64803 0.0
H1106 H 0.49509 0.12456 0.58175 0.0
H1107 H 0.49559 0.09656 0.55424 0.0
H1108 H 0.54055 0.14743 0.64256 0.0
H1109 H 0.44588 0.1121 0.63783 0.0
H1110 H 0.45877 0.09625 0.62832 0.0
H1111 H 0.46057 0.11814 0.60659 0.0
C1112 C 0.51133 0.08272 0.61181 0.0
C1113 C 0.50586 0.0815 0.58506 0.0
C1114 C 0.51094 0.09876 0.62757 0.0
C1115 C 0.5048 0.1139 0.61718 0.0
C1116 C 0.49952 0.11289 0.59046 0.0
H1117 H 0.48551 0.21746 0.6863 0.0
H1118 H 0.48886 0.19225 0.65661 0.0
C1119 C 0.50005 0.09695 0.57463 0.0
C1120 C 0.50423 0.13087 0.63421 0.0
H1121 H 0.46831 0.14697 0.65875 0.0
C1122 C 0.52473 0.14728 0.64614 0.0
C1123 C 0.48367 0.13089 0.63888 0.0
C1124 C 0.4609 0.11331 0.62745 0.0
C1125 C 0.5253 0.16377 0.66217 0.0
C1126 C 0.50466 0.16363 0.66715 0.0
C1127 C 0.48419 0.14726 0.65507 0.0
C1128 C 0.50376 0.17997 0.68506 0.0
C1129 C 0.54826 0.18157 0.67304 0.0
C1130 C 0.51096 0.1817 0.71114 0.0
C1131 C 0.50926 0.19631 0.72814 0.0
C1132 C 0.50002 0.20946 0.71971 0.0
C1133 C 0.49287 0.20778 0.69356 0.0
C1134 C 0.49469 0.19324 0.67652 0.0
H1135 H 0.56307 0.18395 0.66099 0.0
H1136 H 0.54966 0.19825 0.67404 0.0
H1137 H 0.54987 0.17598 0.69312 0.0
H1138 H 0.51743 0.17131 0.71864 0.0
H1139 H 0.51468 0.19682 0.74816 0.0
H1140 H 0.41629 0.43808 0.04759 0.0
H1141 H 0.38186 0.43069 0.07273 0.0
H1142 H 0.41487 0.50261 0.08485 0.0
H1143 H 0.4492 0.50993 0.05981 0.0
H1144 H 0.38028 0.44263 0.12595 0.0
H1145 H 0.35088 0.48397 0.05447 0.0
H1146 H 0.37101 0.47559 0.0457 0.0
H1147 H 0.38086 0.50121 0.06297 0.0
C1148 C 0.41606 0.4522 0.05571 0.0
C1149 C 0.43519 0.47451 0.05201 0.0
C1150 C 0.3965 0.44801 0.06997 0.0
C1151 C 0.39577 0.46615 0.08034 0.0
C1152 C 0.41497 0.48845 0.07663 0.0
H1153 H 0.30138 0.48432 0.17313 0.0
H1154 H 0.33338 0.48829 0.14676 0.0
C1155 C 0.43452 0.49261 0.06249 0.0
C1156 C 0.37518 0.46179 0.09557 0.0
H1157 H 0.33252 0.47382 0.09659 0.0
C1158 C 0.36968 0.44925 0.11949 0.0
C1159 C 0.3615 0.47054 0.08703 0.0
C1160 C 0.36617 0.48342 0.06103 0.0
C1161 C 0.3512 0.4458 0.13554 0.0
C1162 C 0.33764 0.45475 0.12712 0.0
C1163 C 0.34298 0.46702 0.10301 0.0
C1164 C 0.31816 0.45206 0.14329 0.0
C1165 C 0.34686 0.43327 0.16173 0.0
C1166 C 0.29886 0.43038 0.14987 0.0
C1167 C 0.28059 0.42803 0.16518 0.0
C1168 C 0.2812 0.44735 0.17407 0.0
C1169 C 0.30046 0.46906 0.16707 0.0
C1170 C 0.31872 0.47138 0.15181 0.0
H1171 H 0.36212 0.43255 0.16801 0.0
H1172 H 0.34254 0.44149 0.17708 0.0
H1173 H 0.33195 0.41553 0.16026 0.0
H1174 H 0.29789 0.41525 0.14309 0.0
H1175 H 0.26615 0.41106 0.1703 0.0
H1176 H 0.93124 0.45942 0.57258 0.0
H1177 H 0.90043 0.42874 0.60067 0.0
H1178 H 0.93748 0.39381 0.60192 0.0
H1179 H 0.96782 0.42414 0.57303 0.0
H1180 H 0.89317 0.36428 0.59516 0.0
H1181 H 0.89916 0.41643 0.67782 0.0
H1182 H 0.89367 0.42638 0.64748 0.0
H1183 H 0.92056 0.42744 0.65152 0.0
C1184 C 0.93279 0.44521 0.57896 0.0
C1185 C 0.95206 0.4443 0.57078 0.0
C1186 C 0.91527 0.42773 0.59526 0.0
C1187 C 0.91668 0.409 0.60412 0.0
C1188 C 0.93589 0.40804 0.59568 0.0
H1189 H 0.82989 0.30856 0.72978 0.0
H1190 H 0.86092 0.3413 0.70413 0.0
C1191 C 0.95332 0.42543 0.57922 0.0
C1192 C 0.89783 0.39003 0.62128 0.0
H1193 H 0.86612 0.37848 0.6783 0.0
C1194 C 0.88738 0.36747 0.61338 0.0
C1195 C 0.8903 0.39386 0.6454 0.0
C1196 C 0.90166 0.41731 0.65622 0.0
C1197 C 0.86956 0.3489 0.62844 0.0
C1198 C 0.86129 0.35282 0.65195 0.0
C1199 C 0.87206 0.37532 0.66017 0.0
C1200 C 0.84171 0.33378 0.66826 0.0
C1201 C 0.86019 0.32516 0.6192 0.0
C1202 C 0.82009 0.31894 0.65719 0.0
C1203 C 0.80237 0.30015 0.67179 0.0
C1204 C 0.80552 0.29579 0.69811 0.0
C1205 C 0.82672 0.31134 0.70964 0.0
C1206 C 0.84457 0.33008 0.69491 0.0
H1207 H 0.87281 0.32452 0.60598 0.0
H1208 H 0.85586 0.31281 0.63596 0.0
H1209 H 0.84418 0.31969 0.60806 0.0
H1210 H 0.817 0.32166 0.637 0.0
H1211 H 0.78628 0.28873 0.66221 0.0
H1212 H 0.55585 0.97634 0.10102 0.0
H1213 H 0.56811 0.95396 0.12593 0.0
H1214 H 0.58306 0.93287 0.0541 0.0
H1215 H 0.57139 0.95577 0.02883 0.0
H1216 H 0.55231 0.8968 0.09048 0.0
H1217 H 0.63271 0.96239 0.13756 0.0
H1218 H 0.60877 0.96645 0.14043 0.0
H1219 H 0.62131 0.96857 0.10867 0.0
C1220 C 0.56238 0.96752 0.09043 0.0
C1221 C 0.56262 0.96788 0.06287 0.0
C1222 C 0.56935 0.95469 0.10474 0.0
C1223 C 0.5767 0.94198 0.09183 0.0
C1224 C 0.57752 0.94268 0.06438 0.0
H1225 H 0.61825 0.85553 0.17297 0.0
H1226 H 0.6174 0.88276 0.14183 0.0
C1227 C 0.57069 0.95564 0.05001 0.0
C1228 C 0.58129 0.92629 0.10709 0.0
H1229 H 0.61451 0.9243 0.15595 0.0
C1230 C 0.56612 0.9028 0.10451 0.0
C1231 C 0.59937 0.93422 0.12528 0.0
C1232 C 0.61663 0.95929 0.12806 0.0
C1233 C 0.56793 0.88697 0.12053 0.0
C1234 C 0.58529 0.8949 0.13956 0.0
C1235 C 0.60112 0.91836 0.14139 0.0
C1236 C 0.58632 0.87902 0.15871 0.0
C1237 C 0.55097 0.86186 0.11744 0.0
C1238 C 0.56932 0.86828 0.17864 0.0
C1239 C 0.56986 0.85295 0.19663 0.0
C1240 C 0.5874 0.84797 0.19496 0.0
C1241 C 0.60461 0.85906 0.17504 0.0
C1242 C 0.60412 0.87454 0.15713 0.0
H1243 H 0.54163 0.85846 0.09869 0.0
H1244 H 0.56004 0.85242 0.11829 0.0
H1245 H 0.53795 0.85513 0.13378 0.0
H1246 H 0.55561 0.87181 0.18028 0.0
H1247 H 0.55662 0.84521 0.21195 0.0
H1248 H 0.6143 0.5259 0.55944 0.0
H1249 H 0.64228 0.52576 0.58947 0.0
H1250 H 0.59207 0.50271 0.65296 0.0
H1251 H 0.56372 0.50196 0.62294 0.0
H1252 H 0.66178 0.54958 0.6332 0.0
H1253 H 0.61227 0.45748 0.66086 0.0
H1254 H 0.60445 0.4692 0.63362 0.0
H1255 H 0.59617 0.47081 0.66655 0.0
C1256 C 0.609 0.52045 0.57969 0.0
C1257 C 0.58651 0.51381 0.58853 0.0
C1258 C 0.62517 0.52055 0.59696 0.0
C1259 C 0.61932 0.51385 0.62354 0.0
C1260 C 0.597 0.50747 0.6325 0.0
H1261 H 0.6889 0.51028 0.76418 0.0
H1262 H 0.66192 0.50685 0.73044 0.0
C1263 C 0.58082 0.50737 0.61527 0.0
C1264 C 0.63669 0.51411 0.64198 0.0
H1265 H 0.64503 0.48115 0.68671 0.0
C1266 C 0.65817 0.53454 0.6447 0.0
C1267 C 0.63217 0.49454 0.6571 0.0
C1268 C 0.61012 0.47171 0.65425 0.0
C1269 C 0.67477 0.53613 0.66257 0.0
C1270 C 0.67009 0.51663 0.67798 0.0
C1271 C 0.64875 0.49613 0.67501 0.0
C1272 C 0.68657 0.51744 0.69815 0.0
C1273 C 0.69684 0.55893 0.66547 0.0
C1274 C 0.70943 0.52387 0.6914 0.0
C1275 C 0.72504 0.52579 0.7108 0.0
C1276 C 0.71814 0.52128 0.73745 0.0
C1277 C 0.69497 0.51397 0.74395 0.0
C1278 C 0.67943 0.512 0.7246 0.0
H1279 H 0.69538 0.57315 0.6571 0.0
H1280 H 0.70146 0.56205 0.68639 0.0
H1281 H 0.71124 0.55913 0.65493 0.0
H1282 H 0.71534 0.52768 0.67113 0.0
H1283 H 0.74269 0.53148 0.70497 0.0
H1284 H 0.0682 0.62519 0.03996 0.0
H1285 H 0.09218 0.65775 0.0673 0.0
H1286 H 0.07382 0.61211 0.13505 0.0
H1287 H 0.05014 0.57954 0.10798 0.0
H1288 H 0.07827 0.66991 0.11867 0.0
H1289 H 0.14755 0.65008 0.12603 0.0
H1290 H 0.1267 0.63986 0.10015 0.0
H1291 H 0.11828 0.6267 0.13243 0.0
C1292 C 0.06922 0.62212 0.0607 0.0
C1293 C 0.0573 0.5998 0.07181 0.0
C1294 C 0.0828 0.64071 0.07627 0.0
C1295 C 0.08483 0.63722 0.10307 0.0
C1296 C 0.0725 0.61507 0.11434 0.0
H1297 H 0.16901 0.71717 0.22923 0.0
H1298 H 0.14172 0.6874 0.20079 0.0
C1299 C 0.05885 0.59652 0.09888 0.0
C1300 C 0.10056 0.65655 0.11923 0.0
H1301 H 0.15118 0.67914 0.15226 0.0
C1302 C 0.0943 0.6721 0.12594 0.0
C1303 C 0.12136 0.65919 0.12862 0.0
C1304 C 0.12908 0.64321 0.12136 0.0
C1305 C 0.10808 0.68996 0.14252 0.0
C1306 C 0.12886 0.69253 0.15209 0.0
C1307 C 0.13521 0.67711 0.14499 0.0
C1308 C 0.14421 0.7108 0.16983 0.0
C1309 C 0.0999 0.70545 0.15031 0.0
C1310 C 0.15463 0.73386 0.16192 0.0
C1311 C 0.17021 0.75092 0.17821 0.0
C1312 C 0.17588 0.7452 0.20253 0.0
C1313 C 0.16522 0.7221 0.21048 0.0
C1314 C 0.14955 0.70509 0.1943 0.0
H1315 H 0.08103 0.69763 0.14715 0.0
H1316 H 0.10345 0.70972 0.1712 0.0
H1317 H 0.10932 0.72154 0.13818 0.0
H1318 H 0.1512 0.73866 0.14286 0.0
H1319 H 0.17839 0.76855 0.1714 0.0
loop_
_geom_bond_atom_site_label_1
_geom_bond_atom_site_label_2
_geom_bond_distance
_geom_bond_site_symmetry_2
_ccdc_geom_bond_type
C0 C1 1.444 1_556 S
C0 N4 1.376 1_556 S
C0 C38 1.389 . S
C1 C0 1.444 1_554 S
C1 C2 1.339 . S
C1 H41 0.952 1_554 S
C2 C1 1.339 . S
C2 C3 1.439 . S
C2 H42 0.950 . S
C3 C2 1.439 . S
C3 N4 1.374 . S
C3 C37 1.395 . S
N4 C0 1.376 1_554 S
N4 C3 1.374 . S
N4 Co5 2.008 1_655 S
Co5 N4 2.008 1_455 S
Co5 N6 1.995 . S
Co5 N11 2.012 . S
Co5 N16 1.995 1_554 S
Co5 N21 2.282 . S
Co5 N27 2.282 1_454 S
N6 Co5 1.995 . S
N6 C7 1.376 1_455 S
N6 C10 1.383 . S
C7 N6 1.376 1_655 S
C7 C8 1.446 . S
C7 C37 1.391 . S
C8 C7 1.446 . S
C8 C9 1.339 1_655 S
C8 H43 0.949 . S
C9 C8 1.339 1_455 S
C9 C10 1.439 . S
C9 H44 0.950 . S
C10 N6 1.383 . S
C10 C9 1.439 . S
C10 C39 1.392 . S
N11 Co5 2.012 . S
N11 C12 1.396 . S
N11 C15 1.354 1_554 S
C12 N11 1.396 . S
C12 C13 1.443 . S
C12 C39 1.389 . S
C13 C12 1.443 . S
C13 C14 1.340 1_554 S
C13 H45 0.951 . S
C14 C13 1.340 1_556 S
C14 C15 1.439 . S
C14 H46 0.950 . S
C15 N11 1.354 1_556 S
C15 C14 1.439 . S
C15 C40 1.395 . S
N16 Co5 1.995 1_556 S
N16 C17 1.376 . S
N16 C20 1.383 1_455 S
C17 N16 1.376 . S
C17 C18 1.446 . S
C17 C40 1.391 . S
C18 C17 1.446 . S
C18 C19 1.339 . S
C18 H47 0.949 . S
C19 C18 1.339 . S
C19 C20 1.439 1_455 S
C19 H48 0.950 . S
C20 N16 1.383 1_655 S
C20 C19 1.439 1_655 S
C20 C38 1.392 . S
N21 Co5 2.282 . S
N21 C24 1.332 . S
N21 C26 1.332 . S
C22 C23 1.386 . S
C22 C25 1.388 . S
C23 C22 1.386 . S
C23 C24 1.382 . S
C23 H49 0.950 . S
C24 N21 1.332 . S
C24 C23 1.382 . S
C24 H35 0.952 . S
C25 C22 1.388 . S
C25 C26 1.382 . S
C25 H50 0.950 . S
C26 N21 1.332 . S
C26 C25 1.382 . S
C26 H36 0.948 . S
N27 Co5 2.282 1_656 S
N27 C31 1.332 . S
N27 C32 1.332 . S
C28 C29 1.388 . S
C28 C32 1.382 . S
C28 H51 0.950 . S
C29 C28 1.388 . S
C29 C30 1.386 . S
C30 C29 1.386 . S
C30 C31 1.382 . S
C30 H52 0.950 . S
C31 N27 1.332 . S
C31 C30 1.382 . S
C31 H33 0.952 1_556 S
C32 N27 1.332 . S
C32 C28 1.382 . S
C32 H34 0.948 1_655 S
H33 C31 0.952 1_554 S
H34 C32 0.948 1_455 S
H35 C24 0.952 . S
H36 C26 0.948 . S
C37 C3 1.395 . S
C37 C7 1.391 . S
C38 C0 1.389 . S
C38 C20 1.392 . S
C39 C10 1.392 . S
C39 C12 1.389 . S
C40 C15 1.395 . S
C40 C17 1.391 . S
H41 C1 0.952 1_556 S
H42 C2 0.950 . S
H43 C8 0.949 . S
H44 C9 0.950 . S
H45 C13 0.951 . S
H46 C14 0.950 . S
H47 C18 0.949 . S
H48 C19 0.950 . S
H49 C23 0.950 . S
H50 C25 0.950 . S
H51 C28 0.950 . S
H52 C30 0.950 . S
C53 C54 1.443 . S
C53 N57 1.376 . S
C53 C91 1.389 . S
C54 C53 1.443 . S
C54 C55 1.340 1_545 S
C54 H94 0.951 . S
C55 C54 1.340 1_565 S
C55 C56 1.439 . S
C55 H95 0.950 . S
C56 C55 1.439 . S
C56 N57 1.374 1_565 S
C56 C90 1.395 . S
N57 C53 1.376 . S
N57 C56 1.374 1_545 S
N57 Co58 2.008 . S
Co58 N57 2.008 . S
Co58 N59 1.995 1_545 S
Co58 N64 2.008 . S
Co58 N69 1.995 . S
Co58 N74 2.282 1_545 S
Co58 N80 2.282 . S
N59 Co58 1.995 1_565 S
N59 C60 1.376 . S
N59 C63 1.383 . S
C60 N59 1.376 . S
C60 C61 1.446 . S
C60 C90 1.391 . S
C61 C60 1.446 . S
C61 C62 1.339 . S
C61 H96 0.949 . S
C62 C61 1.339 . S
C62 C63 1.439 . S
C62 H97 0.950 . S
C63 N59 1.383 . S
C63 C62 1.439 . S
C63 C92 1.392 . S
N64 Co58 2.008 . S
N64 C65 1.376 1_545 S
N64 C68 1.374 . S
C65 N64 1.376 1_565 S
C65 C66 1.443 1_565 S
C65 C92 1.389 . S
C66 C65 1.443 1_545 S
C66 C67 1.340 . S
C66 H98 0.951 1_545 S
C67 C66 1.340 . S
C67 C68 1.439 . S
C67 H99 0.950 . S
C68 N64 1.374 . S
C68 C67 1.439 . S
C68 C93 1.395 . S
N69 Co58 1.995 . S
N69 C70 1.376 . S
N69 C73 1.383 . S
C70 N69 1.376 . S
C70 C71 1.446 . S
C70 C93 1.391 . S
C71 C70 1.446 . S
C71 C72 1.339 . S
C71 H100 0.949 . S
C72 C71 1.339 . S
C72 C73 1.439 . S
C72 H101 0.950 . S
C73 N69 1.383 . S
C73 C72 1.439 . S
C73 C91 1.392 . S
N74 Co58 2.282 1_565 S
N74 C77 1.332 . S
N74 C79 1.332 . S
C75 C76 1.386 . S
C75 C78 1.388 . S
C76 C75 1.386 . S
C76 C77 1.382 . S
C76 H102 0.950 . S
C77 N74 1.332 . S
C77 C76 1.382 . S
C77 H88 0.952 1_565 S
C78 C75 1.388 . S
C78 C79 1.382 . S
C78 H103 0.950 . S
C79 N74 1.332 . S
C79 C78 1.382 . S
C79 H89 0.948 . S
N80 Co58 2.282 . S
N80 C84 1.332 . S
N80 C85 1.332 . S
C81 C82 1.388 . S
C81 C85 1.382 . S
C81 H104 0.950 . S
C82 C81 1.388 . S
C82 C83 1.386 . S
C83 C82 1.386 . S
C83 C84 1.382 . S
C83 H105 0.950 . S
C84 N80 1.332 . S
C84 C83 1.382 . S
C84 H86 0.952 . S
C85 N80 1.332 . S
C85 C81 1.382 . S
C85 H87 0.948 . S
H86 C84 0.952 . S
H87 C85 0.948 . S
H88 C77 0.952 1_545 S
H89 C79 0.948 . S
C90 C56 1.395 . S
C90 C60 1.391 . S
C91 C53 1.389 . S
C91 C73 1.392 . S
C92 C63 1.392 . S
C92 C65 1.389 . S
C93 C68 1.395 . S
C93 C70 1.391 . S
H94 C54 0.951 . S
H95 C55 0.950 . S
H96 C61 0.949 . S
H97 C62 0.950 . S
H98 C66 0.951 1_565 S
H99 C67 0.950 . S
H100 C71 0.949 . S
H101 C72 0.950 . S
H102 C76 0.950 . S
H103 C78 0.950 . S
H104 C81 0.950 . S
H105 C83 0.950 . S
C106 C107 1.443 . S
C106 N110 1.376 . S
C106 C144 1.389 . S
C107 C106 1.443 . S
C107 C108 1.340 . S
C107 H147 0.951 . S
C108 C107 1.340 . S
C108 C109 1.439 . S
C108 H148 0.950 . S
C109 C108 1.439 . S
C109 N110 1.374 . S
C109 C143 1.395 . S
N110 C106 1.376 . S
N110 C109 1.374 . S
N110 Co111 2.008 1_556 S
Co111 N110 2.008 1_554 S
Co111 N112 1.995 1_554 S
Co111 N117 2.008 . S
Co111 N122 1.995 . S
Co111 N127 2.282 . S
Co111 N133 2.282 1_554 S
N112 Co111 1.995 1_556 S
N112 C113 1.376 . S
N112 C116 1.383 1_556 S
C113 N112 1.376 . S
C113 C114 1.446 . S
C113 C143 1.391 . S
C114 C113 1.446 . S
C114 C115 1.339 1_556 S
C114 H149 0.949 . S
C115 C114 1.339 1_554 S
C115 C116 1.439 . S
C115 H150 0.950 . S
C116 N112 1.383 1_554 S
C116 C115 1.439 . S
C116 C145 1.392 . S
N117 Co111 2.008 . S
N117 C118 1.376 . S
N117 C121 1.374 . S
C118 N117 1.376 . S
C118 C119 1.443 . S
C118 C145 1.389 . S
C119 C118 1.443 . S
C119 C120 1.340 . S
C119 H151 0.951 . S
C120 C119 1.340 . S
C120 C121 1.439 . S
C120 H152 0.950 . S
C121 N117 1.374 . S
C121 C120 1.439 . S
C121 C146 1.395 . S
N122 Co111 1.995 . S
N122 C123 1.376 . S
N122 C126 1.383 1_554 S
C123 N122 1.376 . S
C123 C124 1.446 . S
C123 C146 1.391 . S
C124 C123 1.446 . S
C124 C125 1.339 . S
C124 H153 0.949 . S
C125 C124 1.339 . S
C125 C126 1.439 1_554 S
C125 H154 0.950 1_554 S
C126 N122 1.383 1_556 S
C126 C125 1.439 1_556 S
C126 C144 1.392 . S
N127 Co111 2.282 . S
N127 C130 1.332 . S
N127 C132 1.332 . S
C128 C129 1.386 . S
C128 C131 1.388 . S
C129 C128 1.386 . S
C129 C130 1.382 . S
C129 H155 0.950 . S
C130 N127 1.332 . S
C130 C129 1.382 . S
C130 H141 0.952 . S
C131 C128 1.388 . S
C131 C132 1.382 . S
C131 H156 0.950 . S
C132 N127 1.332 . S
C132 C131 1.382 . S
C132 H142 0.948 . S
N133 Co111 2.282 1_556 S
N133 C137 1.332 . S
N133 C138 1.332 . S
C134 C135 1.388 . S
C134 C138 1.382 . S
C134 H157 0.950 . S
C135 C134 1.388 . S
C135 C136 1.386 . S
C136 C135 1.386 . S
C136 C137 1.382 . S
C136 H158 0.950 . S
C137 N133 1.332 . S
C137 C136 1.382 . S
C137 H139 0.952 . S
C138 N133 1.332 . S
C138 C134 1.382 . S
C138 H140 0.948 1_556 S
H139 C137 0.952 . S
H140 C138 0.948 1_554 S
H141 C130 0.952 . S
H142 C132 0.948 . S
C143 C109 1.395 . S
C143 C113 1.391 . S
C144 C106 1.389 . S
C144 C126 1.392 . S
C145 C116 1.392 . S
C145 C118 1.389 . S
C146 C121 1.395 . S
C146 C123 1.391 . S
H147 C107 0.951 . S
H148 C108 0.950 . S
H149 C114 0.949 . S
H150 C115 0.950 . S
H151 C119 0.951 . S
H152 C120 0.950 . S
H153 C124 0.949 . S
H154 C125 0.950 1_556 S
H155 C129 0.950 . S
H156 C131 0.950 . S
H157 C134 0.950 . S
H158 C136 0.950 . S
C159 C160 1.443 . S
C159 N163 1.376 . S
C159 C197 1.389 . S
C160 C159 1.443 . S
C160 C161 1.340 . S
C160 H200 0.951 . S
C161 C160 1.340 . S
C161 C162 1.439 . S
C161 H201 0.950 . S
C162 C161 1.439 . S
C162 N163 1.374 . S
C162 C196 1.395 . S
N163 C159 1.376 . S
N163 C162 1.374 . S
N163 Co164 2.008 1_655 S
Co164 N163 2.008 1_455 S
Co164 N165 1.995 1_455 S
Co164 N170 2.008 . S
Co164 N175 1.995 . S
Co164 N180 2.282 . S
Co164 N186 2.282 1_455 S
N165 Co164 1.995 1_655 S
N165 C166 1.376 . S
N165 C169 1.383 1_655 S
C166 N165 1.376 . S
C166 C167 1.446 . S
C166 C196 1.391 . S
C167 C166 1.446 . S
C167 C168 1.339 1_655 S
C167 H202 0.949 . S
C168 C167 1.339 1_455 S
C168 C169 1.439 . S
C168 H203 0.950 . S
C169 N165 1.383 1_455 S
C169 C168 1.439 . S
C169 C198 1.392 . S
N170 Co164 2.008 . S
N170 C171 1.376 . S
N170 C174 1.374 . S
C171 N170 1.376 . S
C171 C172 1.443 . S
C171 C198 1.389 . S
C172 C171 1.443 . S
C172 C173 1.340 . S
C172 H204 0.951 . S
C173 C172 1.340 . S
C173 C174 1.439 . S
C173 H205 0.950 . S
C174 N170 1.374 . S
C174 C173 1.439 . S
C174 C199 1.395 . S
N175 Co164 1.995 . S
N175 C176 1.376 . S
N175 C179 1.383 1_455 S
C176 N175 1.376 . S
C176 C177 1.446 . S
C176 C199 1.391 . S
C177 C176 1.446 . S
C177 C178 1.308 1_455 S
C177 H206 0.949 . S
C178 C177 1.308 1_655 S
C178 C179 1.465 . S
C178 H207 0.955 . S
C179 N175 1.383 1_655 S
C179 C178 1.465 . S
C179 C197 1.392 . S
N180 Co164 2.282 . S
N180 C183 1.332 . S
N180 C185 1.332 . S
C181 C182 1.386 . S
C181 C184 1.388 . S
C182 C181 1.386 . S
C182 C183 1.382 . S
C182 H208 0.950 . S
C183 N180 1.332 . S
C183 C182 1.382 . S
C183 H194 0.952 . S
C184 C181 1.388 . S
C184 C185 1.382 . S
C184 H209 0.950 . S
C185 N180 1.332 . S
C185 C184 1.382 . S
C185 H195 0.948 . S
N186 Co164 2.282 1_655 S
N186 C190 1.332 . S
N186 C191 1.332 . S
C187 C188 1.388 . S
C187 C191 1.382 . S
C187 H210 0.950 . S
C188 C187 1.388 . S
C188 C189 1.386 . S
C189 C188 1.386 . S
C189 C190 1.382 . S
C189 H211 0.950 . S
C190 N186 1.332 . S
C190 C189 1.382 . S
C190 H192 0.952 . S
C191 N186 1.332 . S
C191 C187 1.382 . S
C191 H193 0.948 1_655 S
H192 C190 0.952 . S
H193 C191 0.948 1_455 S
H194 C183 0.952 . S
H195 C185 0.948 . S
C196 C162 1.395 . S
C196 C166 1.391 . S
C197 C159 1.389 . S
C197 C179 1.392 . S
C198 C169 1.392 . S
C198 C171 1.389 . S
C199 C174 1.395 . S
C199 C176 1.391 . S
H200 C160 0.951 . S
H201 C161 0.950 . S
H202 C167 0.949 . S
H203 C168 0.950 . S
H204 C172 0.951 . S
H205 C173 0.950 . S
H206 C177 0.949 . S
H207 C178 0.955 . S
H208 C182 0.950 . S
H209 C184 0.950 . S
H210 C187 0.950 . S
H211 C189 0.950 . S
C212 C213 1.443 . S
C212 N216 1.376 1_565 S
C212 C250 1.389 . S
C213 C212 1.443 . S
C213 C214 1.340 1_565 S
C213 H253 0.951 . S
C214 C213 1.340 1_545 S
C214 C215 1.439 . S
C214 H254 0.950 . S
C215 C214 1.439 . S
C215 N216 1.374 . S
C215 C249 1.395 . S
N216 C212 1.376 1_545 S
N216 C215 1.374 . S
N216 Co217 2.008 . S
Co217 N216 2.008 . S
Co217 N218 1.995 . S
Co217 N223 2.008 1_544 S
Co217 N228 1.995 1_545 S
Co217 N233 2.282 1_554 S
Co217 N239 2.282 1_545 S
N218 Co217 1.995 . S
N218 C219 1.376 . S
N218 C222 1.383 1_554 S
C219 N218 1.376 . S
C219 C220 1.446 . S
C219 C249 1.391 . S
C220 C219 1.446 . S
C220 C221 1.339 1_554 S
C220 H255 0.949 . S
C221 C220 1.339 1_556 S
C221 C222 1.439 . S
C221 H256 0.950 . S
C222 N218 1.383 1_556 S
C222 C221 1.439 . S
C222 C251 1.392 . S
N223 Co217 2.008 1_566 S
N223 C224 1.376 1_565 S
N223 C227 1.374 . S
C224 N223 1.376 1_545 S
C224 C225 1.443 . S
C224 C251 1.389 . S
C225 C224 1.443 . S
C225 C226 1.340 1_545 S
C225 H257 0.951 . S
C226 C225 1.340 1_565 S
C226 C227 1.439 . S
C226 H258 0.950 . S
C227 N223 1.374 . S
C227 C226 1.439 . S
C227 C252 1.395 . S
N228 Co217 1.995 1_565 S
N228 C229 1.376 1_554 S
N228 C232 1.383 . S
C229 N228 1.376 1_556 S
C229 C230 1.446 . S
C229 C252 1.391 . S
C230 C229 1.446 . S
C230 C231 1.339 1_556 S
C230 H259 0.949 . S
C231 C230 1.339 1_554 S
C231 C232 1.439 . S
C231 H260 0.950 . S
C232 N228 1.383 . S
C232 C231 1.439 . S
C232 C250 1.392 . S
N233 Co217 2.282 1_556 S
N233 C236 1.332 . S
N233 C238 1.332 . S
C234 C235 1.386 . S
C234 C237 1.388 . S
C235 C234 1.386 . S
C235 C236 1.382 . S
C235 H261 0.950 . S
C236 N233 1.332 . S
C236 C235 1.382 . S
C236 H247 0.952 1_545 S
C237 C234 1.388 . S
C237 C238 1.382 . S
C237 H262 0.950 . S
C238 N233 1.332 . S
C238 C237 1.382 . S
C238 H248 0.967 . S
N239 Co217 2.282 1_565 S
N239 C243 1.332 . S
N239 C244 1.332 . S
C240 C241 1.388 . S
C240 C244 1.382 . S
C240 H263 0.950 . S
C241 C240 1.388 . S
C241 C242 1.386 . S
C242 C241 1.386 . S
C242 C243 1.382 . S
C242 H264 0.950 . S
C243 N239 1.332 . S
C243 C242 1.382 . S
C243 H245 0.952 1_565 S
C244 N239 1.332 . S
C244 C240 1.382 . S
C244 H246 0.948 . S
H245 C243 0.952 1_545 S
H246 C244 0.948 . S
H247 C236 0.952 1_565 S
H248 C238 0.967 . S
C249 C215 1.395 . S
C249 C219 1.391 . S
C250 C212 1.389 . S
C250 C232 1.392 . S
C251 C222 1.392 . S
C251 C224 1.389 . S
C252 C227 1.395 . S
C252 C229 1.391 . S
H253 C213 0.951 . S
H254 C214 0.950 . S
H255 C220 0.949 . S
H256 C221 0.950 . S
H257 C225 0.951 . S
H258 C226 0.950 . S
H259 C230 0.949 . S
H260 C231 0.950 . S
H261 C235 0.950 . S
H262 C237 0.950 . S
H263 C240 0.950 . S
H264 C242 0.950 . S
C265 C266 1.443 . S
C265 N269 1.376 . S
C265 C303 1.389 . S
C266 C265 1.443 . S
C266 C267 1.340 . S
C266 H306 0.951 . S
C267 C266 1.340 . S
C267 C268 1.439 . S
C267 H307 0.950 . S
C268 C267 1.439 . S
C268 N269 1.374 . S
C268 C302 1.395 . S
N269 C265 1.376 . S
N269 C268 1.374 . S
N269 Co270 2.008 . S
Co270 N269 2.008 . S
Co270 N271 1.995 . S
Co270 N276 2.008 . S
Co270 N281 1.995 . S
Co270 N286 2.282 . S
Co270 N292 2.282 . S
N271 Co270 1.995 . S
N271 C272 1.376 . S
N271 C275 1.383 . S
C272 N271 1.376 . S
C272 C273 1.446 . S
C272 C302 1.391 . S
C273 C272 1.446 . S
C273 C274 1.339 . S
C273 H308 0.949 . S
C274 C273 1.339 . S
C274 C275 1.439 . S
C274 H309 0.950 . S
C275 N271 1.383 . S
C275 C274 1.439 . S
C275 C304 1.392 . S
N276 Co270 2.008 . S
N276 C277 1.376 . S
N276 C280 1.374 . S
C277 N276 1.376 . S
C277 C278 1.443 . S
C277 C304 1.389 . S
C278 C277 1.443 . S
C278 C279 1.340 . S
C278 H310 0.951 . S
C279 C278 1.340 . S
C279 C280 1.439 . S
C279 H311 0.950 . S
C280 N276 1.374 . S
C280 C279 1.439 . S
C280 C305 1.395 . S
N281 Co270 1.995 . S
N281 C282 1.376 . S
N281 C285 1.383 . S
C282 N281 1.376 . S
C282 C283 1.446 . S
C282 C305 1.391 . S
C283 C282 1.446 . S
C283 C284 1.339 . S
C283 H312 0.949 . S
C284 C283 1.339 . S
C284 C285 1.439 . S
C284 H313 0.950 . S
C285 N281 1.383 . S
C285 C284 1.439 . S
C285 C303 1.392 . S
N286 Co270 2.282 . S
N286 C289 1.332 . S
N286 C291 1.332 . S
C287 C288 1.386 . S
C287 C290 1.388 . S
C288 C287 1.386 . S
C288 C289 1.382 . S
C288 H314 0.950 . S
C289 N286 1.332 . S
C289 C288 1.382 . S
C289 H300 0.952 . S
C290 C287 1.388 . S
C290 C291 1.382 . S
C290 H315 0.950 . S
C291 N286 1.332 . S
C291 C290 1.382 . S
C291 H301 0.948 . S
N292 Co270 2.282 . S
N292 C296 1.332 . S
N292 C297 1.332 . S
C293 C294 1.388 . S
C293 C297 1.382 . S
C293 H316 0.950 . S
C294 C293 1.388 . S
C294 C295 1.386 . S
C295 C294 1.386 . S
C295 C296 1.382 . S
C295 H317 0.950 . S
C296 N292 1.332 . S
C296 C295 1.382 . S
C296 H298 0.952 . S
C297 N292 1.332 . S
C297 C293 1.382 . S
C297 H299 0.948 . S
H298 C296 0.952 . S
H299 C297 0.948 . S
H300 C289 0.952 . S
H301 C291 0.948 . S
C302 C268 1.395 . S
C302 C272 1.391 . S
C303 C265 1.389 . S
C303 C285 1.392 . S
C304 C275 1.392 . S
C304 C277 1.389 . S
C305 C280 1.395 . S
C305 C282 1.391 . S
H306 C266 0.951 . S
H307 C267 0.950 . S
H308 C273 0.949 . S
H309 C274 0.950 . S
H310 C278 0.951 . S
H311 C279 0.950 . S
H312 C283 0.949 . S
H313 C284 0.950 . S
H314 C288 0.950 . S
H315 C290 0.950 . S
H316 C293 0.950 . S
H317 C295 0.950 . S
Cu318 N319 1.999 . S
Cu318 O324 1.974 . S
Cu318 N329 1.985 . S
Cu318 O338 1.959 . S
N319 Cu318 1.999 . S
N319 C321 1.263 . S
N319 C323 1.389 . S
N320 C321 1.358 . S
N320 C322 1.400 . S
C321 N319 1.263 . S
C321 N320 1.358 . S
C321 H327 0.930 . S
C322 N320 1.400 . S
C322 C323 1.351 . S
C322 H339 0.930 . S
C323 N319 1.389 . S
C323 C322 1.351 . S
C323 H328 0.930 . S
O324 Cu318 1.974 . S
O324 C334 1.282 . S
C325 O326 1.261 . S
C325 O338 1.251 . S
O326 C325 1.261 . S
H327 C321 0.930 . S
H328 C323 0.930 . S
N329 Cu318 1.985 . S
N329 C331 1.335 . S
N329 C332 1.390 . S
N330 C331 1.345 . S
N330 C333 1.336 . S
C331 N329 1.335 . S
C331 N330 1.345 . S
C331 H336 0.930 . S
C332 N329 1.390 . S
C332 C333 1.346 . S
C332 H337 0.930 . S
C333 N330 1.336 . S
C333 C332 1.346 . S
C333 H340 0.929 . S
C334 O324 1.282 . S
C334 O335 1.216 . S
O335 C334 1.216 . S
H336 C331 0.930 . S
H337 C332 0.930 . S
O338 Cu318 1.959 . S
O338 C325 1.251 . S
H339 C322 0.930 . S
H340 C333 0.929 . S
Cu341 N342 1.999 . S
Cu341 O347 1.974 . S
Cu341 N352 1.985 . S
Cu341 O361 1.959 . S
N342 Cu341 1.999 . S
N342 C344 1.263 . S
N342 C346 1.389 . S
N343 C344 1.358 . S
N343 C345 1.400 . S
C344 N342 1.263 . S
C344 N343 1.358 . S
C344 H350 0.930 . S
C345 N343 1.400 . S
C345 C346 1.351 . S
C345 H362 0.930 . S
C346 N342 1.389 . S
C346 C345 1.351 . S
C346 H351 0.930 . S
O347 Cu341 1.974 . S
O347 C357 1.282 . S
C348 O349 1.261 . S
C348 O361 1.251 . S
O349 C348 1.261 . S
H350 C344 0.930 . S
H351 C346 0.930 . S
N352 Cu341 1.985 . S
N352 C354 1.335 . S
N352 C355 1.390 . S
N353 C354 1.345 . S
N353 C356 1.336 . S
C354 N352 1.335 . S
C354 N353 1.345 . S
C354 H359 0.930 . S
C355 N352 1.390 . S
C355 C356 1.346 . S
C355 H360 0.930 . S
C356 N353 1.336 . S
C356 C355 1.346 . S
C356 H363 0.929 . S
C357 O347 1.282 . S
C357 O358 1.216 . S
O358 C357 1.216 . S
H359 C354 0.930 . S
H360 C355 0.930 . S
O361 Cu341 1.959 . S
O361 C348 1.251 . S
H362 C345 0.930 . S
H363 C356 0.929 . S
Cu364 N365 1.999 . S
Cu364 O370 1.974 . S
Cu364 N375 1.985 . S
Cu364 O384 1.959 . S
N365 Cu364 1.999 . S
N365 C367 1.263 . S
N365 C369 1.389 . S
N366 C367 1.358 . S
N366 C368 1.400 . S
C367 N365 1.263 . S
C367 N366 1.358 . S
C367 H373 0.930 . S
C368 N366 1.400 . S
C368 C369 1.351 . S
C368 H385 0.930 . S
C369 N365 1.389 . S
C369 C368 1.351 . S
C369 H374 0.930 . S
O370 Cu364 1.974 . S
O370 C380 1.282 . S
C371 O372 1.261 . S
C371 O384 1.251 . S
O372 C371 1.261 . S
H373 C367 0.930 . S
H374 C369 0.930 . S
N375 Cu364 1.985 . S
N375 C377 1.335 . S
N375 C378 1.390 . S
N376 C377 1.345 . S
N376 C379 1.336 . S
C377 N375 1.335 . S
C377 N376 1.345 . S
C377 H382 0.930 . S
C378 N375 1.390 . S
C378 C379 1.346 . S
C378 H383 0.930 . S
C379 N376 1.336 . S
C379 C378 1.346 . S
C379 H386 0.929 . S
C380 O370 1.282 . S
C380 O381 1.216 . S
O381 C380 1.216 . S
H382 C377 0.930 . S
H383 C378 0.930 . S
O384 Cu364 1.959 . S
O384 C371 1.251 . S
H385 C368 0.930 . S
H386 C379 0.929 . S
Cu387 N388 1.999 . S
Cu387 O393 1.974 . S
Cu387 N398 1.985 . S
Cu387 O407 1.959 . S
N388 Cu387 1.999 . S
N388 C390 1.263 . S
N388 C392 1.389 . S
N389 C390 1.358 . S
N389 C391 1.400 . S
C390 N388 1.263 . S
C390 N389 1.358 . S
C390 H396 0.930 . S
C391 N389 1.400 . S
C391 C392 1.351 . S
C391 H408 0.930 . S
C392 N388 1.389 . S
C392 C391 1.351 . S
C392 H397 0.930 . S
O393 Cu387 1.974 . S
O393 C403 1.282 . S
C394 O395 1.261 . S
C394 O407 1.251 . S
O395 C394 1.261 . S
H396 C390 0.930 . S
H397 C392 0.930 . S
N398 Cu387 1.985 . S
N398 C400 1.335 . S
N398 C401 1.390 . S
N399 C400 1.345 . S
N399 C402 1.336 . S
C400 N398 1.335 . S
C400 N399 1.345 . S
C400 H405 0.930 . S
C401 N398 1.390 . S
C401 C402 1.346 . S
C401 H406 0.930 . S
C402 N399 1.336 . S
C402 C401 1.346 . S
C402 H409 0.929 . S
C403 O393 1.282 . S
C403 O404 1.216 . S
O404 C403 1.216 . S
H405 C400 0.930 . S
H406 C401 0.930 . S
O407 Cu387 1.959 . S
O407 C394 1.251 . S
H408 C391 0.930 . S
H409 C402 0.929 . S
Cu410 N411 1.999 . S
Cu410 O416 1.974 . S
Cu410 N421 1.985 . S
Cu410 O430 1.959 . S
N411 Cu410 1.999 . S
N411 C413 1.263 . S
N411 C415 1.389 . S
N412 C413 1.358 . S
N412 C414 1.400 . S
C413 N411 1.263 . S
C413 N412 1.358 . S
C413 H419 0.930 . S
C414 N412 1.400 . S
C414 C415 1.351 . S
C414 H431 0.930 . S
C415 N411 1.389 . S
C415 C414 1.351 . S
C415 H420 0.930 . S
O416 Cu410 1.974 . S
O416 C426 1.282 . S
C417 O418 1.261 . S
C417 O430 1.251 . S
O418 C417 1.261 . S
H419 C413 0.930 . S
H420 C415 0.930 . S
N421 Cu410 1.985 . S
N421 C423 1.335 . S
N421 C424 1.390 . S
N422 C423 1.345 . S
N422 C425 1.336 . S
C423 N421 1.335 . S
C423 N422 1.345 . S
C423 H428 0.930 . S
C424 N421 1.390 . S
C424 C425 1.346 . S
C424 H429 0.930 . S
C425 N422 1.336 . S
C425 C424 1.346 . S
C425 H432 0.929 . S
C426 O416 1.282 . S
C426 O427 1.216 . S
O427 C426 1.216 . S
H428 C423 0.930 . S
H429 C424 0.930 . S
O430 Cu410 1.959 . S
O430 C417 1.251 . S
H431 C414 0.930 . S
H432 C425 0.929 . S
Cu433 N434 1.999 . S
Cu433 O439 1.974 . S
Cu433 N444 1.985 . S
Cu433 O453 1.959 . S
N434 Cu433 1.999 . S
N434 C436 1.263 . S
N434 C438 1.389 . S
N435 C436 1.358 . S
N435 C437 1.400 . S
C436 N434 1.263 . S
C436 N435 1.358 . S
C436 H442 0.930 . S
C437 N435 1.400 . S
C437 C438 1.351 . S
C437 H454 0.930 . S
C438 N434 1.389 . S
C438 C437 1.351 . S
C438 H443 0.930 . S
O439 Cu433 1.974 . S
O439 C449 1.282 . S
C440 O441 1.261 . S
C440 O453 1.251 . S
O441 C440 1.261 . S
H442 C436 0.930 . S
H443 C438 0.930 . S
N444 Cu433 1.985 . S
N444 C446 1.335 . S
N444 C447 1.390 . S
N445 C446 1.345 . S
N445 C448 1.336 . S
C446 N444 1.335 . S
C446 N445 1.345 . S
C446 H451 0.930 . S
C447 N444 1.390 . S
C447 C448 1.346 . S
C447 H452 0.930 . S
C448 N445 1.336 . S
C448 C447 1.346 . S
C448 H455 0.929 . S
C449 O439 1.282 . S
C449 O450 1.216 . S
O450 C449 1.216 . S
H451 C446 0.930 . S
H452 C447 0.930 . S
O453 Cu433 1.959 . S
O453 C440 1.251 . S
H454 C437 0.930 . S
H455 C448 0.929 . S
H456 C464 0.929 . S
H457 C466 0.930 . S
H458 C468 0.930 . S
H459 C471 0.929 . S
H460 C474 0.930 . S
H461 C476 0.960 . S
H462 C476 0.960 . S
H463 C476 0.960 . S
C464 H456 0.929 . S
C464 C465 1.377 . S
C464 C466 1.384 . S
C465 C464 1.377 . S
C465 C471 1.390 . S
C466 H457 0.930 . S
C466 C464 1.384 . S
C466 C467 1.372 . S
C467 C466 1.372 . S
C467 C468 1.400 . S
C467 C472 1.490 . S
C468 H458 0.930 . S
C468 C467 1.400 . S
C468 C471 1.386 . S
H469 C485 0.930 . S
H470 C486 0.931 . S
C471 H459 0.929 . S
C471 C465 1.390 . S
C471 C468 1.386 . S
C472 C467 1.490 . S
C472 C474 1.395 . S
C472 C475 1.403 . S
H473 C479 0.930 . S
C474 H460 0.930 . S
C474 C472 1.395 . S
C474 C477 1.403 . S
C475 C472 1.403 . S
C475 C476 1.524 . S
C475 C479 1.400 . S
C476 H461 0.960 . S
C476 H462 0.960 . S
C476 H463 0.960 . S
C476 C475 1.524 . S
C477 C474 1.403 . S
C477 C478 1.392 . S
C477 C481 1.495 . S
C478 C477 1.392 . S
C478 C479 1.385 . S
C478 C480 1.478 . S
C479 H473 0.930 . S
C479 C475 1.400 . S
C479 C478 1.385 . S
C480 C478 1.478 . S
C480 C482 1.381 . S
C480 C486 1.383 . S
C481 C477 1.495 . S
C481 H487 0.959 . S
C481 H488 0.961 . S
C481 H489 0.960 . S
C482 C480 1.381 . S
C482 C483 1.394 . S
C482 H490 0.930 . S
C483 C482 1.394 . S
C483 C484 1.383 . S
C483 H491 0.929 . S
C484 C483 1.383 . S
C484 C485 1.377 . S
C485 H469 0.930 . S
C485 C484 1.377 . S
C485 C486 1.379 . S
C486 H470 0.931 . S
C486 C480 1.383 . S
C486 C485 1.379 . S
H487 C481 0.959 . S
H488 C481 0.961 . S
H489 C481 0.960 . S
H490 C482 0.930 . S
H491 C483 0.929 . S
H492 C500 0.929 . S
H493 C502 0.930 . S
H494 C504 0.930 . S
H495 C507 0.929 . S
H496 C510 0.930 . S
H497 C512 0.960 . S
H498 C512 0.960 . S
H499 C512 0.960 . S
C500 H492 0.929 . S
C500 C501 1.377 . S
C500 C502 1.384 . S
C501 C500 1.377 . S
C501 C507 1.390 . S
C502 H493 0.930 . S
C502 C500 1.384 . S
C502 C503 1.372 . S
C503 C502 1.372 . S
C503 C504 1.400 . S
C503 C508 1.490 . S
C504 H494 0.930 . S
C504 C503 1.400 . S
C504 C507 1.386 . S
H505 C521 0.930 . S
H506 C522 0.931 . S
C507 H495 0.929 . S
C507 C501 1.390 . S
C507 C504 1.386 . S
C508 C503 1.490 . S
C508 C510 1.395 . S
C508 C511 1.403 . S
H509 C515 0.930 . S
C510 H496 0.930 . S
C510 C508 1.395 . S
C510 C513 1.403 . S
C511 C508 1.403 . S
C511 C512 1.524 . S
C511 C515 1.400 . S
C512 H497 0.960 . S
C512 H498 0.960 . S
C512 H499 0.960 . S
C512 C511 1.524 . S
C513 C510 1.403 . S
C513 C514 1.392 . S
C513 C517 1.495 . S
C514 C513 1.392 . S
C514 C515 1.385 . S
C514 C516 1.478 . S
C515 H509 0.930 . S
C515 C511 1.400 . S
C515 C514 1.385 . S
C516 C514 1.478 . S
C516 C518 1.381 . S
C516 C522 1.383 . S
C517 C513 1.495 . S
C517 H523 0.959 . S
C517 H524 0.961 . S
C517 H525 0.960 . S
C518 C516 1.381 . S
C518 C519 1.394 . S
C518 H526 0.930 . S
C519 C518 1.394 . S
C519 C520 1.383 . S
C519 H527 0.929 . S
C520 C519 1.383 . S
C520 C521 1.377 . S
C521 H505 0.930 . S
C521 C520 1.377 . S
C521 C522 1.379 . S
C522 H506 0.931 . S
C522 C516 1.383 . S
C522 C521 1.379 . S
H523 C517 0.959 . S
H524 C517 0.961 . S
H525 C517 0.960 . S
H526 C518 0.930 . S
H527 C519 0.929 . S
H528 C536 0.929 . S
H529 C538 0.930 . S
H530 C540 0.930 . S
H531 C543 0.929 . S
H532 C546 0.930 . S
H533 C548 0.960 . S
H534 C548 0.960 . S
H535 C548 0.960 . S
C536 H528 0.929 . S
C536 C537 1.377 . S
C536 C538 1.384 . S
C537 C536 1.377 . S
C537 C543 1.390 . S
C538 H529 0.930 . S
C538 C536 1.384 . S
C538 C539 1.372 . S
C539 C538 1.372 . S
C539 C540 1.400 . S
C539 C544 1.490 . S
C540 H530 0.930 . S
C540 C539 1.400 . S
C540 C543 1.386 . S
H541 C557 0.930 . S
H542 C558 0.931 . S
C543 H531 0.929 . S
C543 C537 1.390 . S
C543 C540 1.386 . S
C544 C539 1.490 . S
C544 C546 1.395 . S
C544 C547 1.403 . S
H545 C551 0.930 . S
C546 H532 0.930 . S
C546 C544 1.395 . S
C546 C549 1.403 . S
C547 C544 1.403 . S
C547 C548 1.524 . S
C547 C551 1.400 . S
C548 H533 0.960 . S
C548 H534 0.960 . S
C548 H535 0.960 . S
C548 C547 1.524 . S
C549 C546 1.403 . S
C549 C550 1.392 . S
C549 C553 1.495 . S
C550 C549 1.392 . S
C550 C551 1.385 . S
C550 C552 1.478 . S
C551 H545 0.930 . S
C551 C547 1.400 . S
C551 C550 1.385 . S
C552 C550 1.478 . S
C552 C554 1.381 . S
C552 C558 1.383 . S
C553 C549 1.495 . S
C553 H559 0.959 . S
C553 H560 0.961 . S
C553 H561 0.960 . S
C554 C552 1.381 . S
C554 C555 1.394 . S
C554 H562 0.930 . S
C555 C554 1.394 . S
C555 C556 1.383 . S
C555 H563 0.929 . S
C556 C555 1.383 . S
C556 C557 1.377 . S
C557 H541 0.930 . S
C557 C556 1.377 . S
C557 C558 1.379 . S
C558 H542 0.931 . S
C558 C552 1.383 . S
C558 C557 1.379 . S
H559 C553 0.959 . S
H560 C553 0.961 . S
H561 C553 0.960 . S
H562 C554 0.930 . S
H563 C555 0.929 . S
H564 C572 0.929 . S
H565 C574 0.930 . S
H566 C576 0.930 . S
H567 C579 0.929 . S
H568 C582 0.930 . S
H569 C584 0.960 . S
H570 C584 0.960 . S
H571 C584 0.960 . S
C572 H564 0.929 . S
C572 C573 1.377 . S
C572 C574 1.384 . S
C573 C572 1.377 . S
C573 C579 1.390 . S
C574 H565 0.930 . S
C574 C572 1.384 . S
C574 C575 1.372 . S
C575 C574 1.372 . S
C575 C576 1.400 . S
C575 C580 1.490 . S
C576 H566 0.930 . S
C576 C575 1.400 . S
C576 C579 1.386 . S
H577 C593 0.930 . S
H578 C594 0.931 . S
C579 H567 0.929 . S
C579 C573 1.390 . S
C579 C576 1.386 . S
C580 C575 1.490 . S
C580 C582 1.395 . S
C580 C583 1.403 . S
H581 C587 0.930 . S
C582 H568 0.930 . S
C582 C580 1.395 . S
C582 C585 1.403 . S
C583 C580 1.403 . S
C583 C584 1.524 . S
C583 C587 1.400 . S
C584 H569 0.960 . S
C584 H570 0.960 . S
C584 H571 0.960 . S
C584 C583 1.524 . S
C585 C582 1.403 . S
C585 C586 1.392 . S
C585 C589 1.495 . S
C586 C585 1.392 . S
C586 C587 1.385 . S
C586 C588 1.478 . S
C587 H581 0.930 . S
C587 C583 1.400 . S
C587 C586 1.385 . S
C588 C586 1.478 . S
C588 C590 1.381 . S
C588 C594 1.383 . S
C589 C585 1.495 . S
C589 H595 0.959 . S
C589 H596 0.961 . S
C589 H597 0.960 . S
C590 C588 1.381 . S
C590 C591 1.394 . S
C590 H598 0.930 . S
C591 C590 1.394 . S
C591 C592 1.383 . S
C591 H599 0.929 . S
C592 C591 1.383 . S
C592 C593 1.377 . S
C593 H577 0.930 . S
C593 C592 1.377 . S
C593 C594 1.379 . S
C594 H578 0.931 . S
C594 C588 1.383 . S
C594 C593 1.379 . S
H595 C589 0.959 . S
H596 C589 0.961 . S
H597 C589 0.960 . S
H598 C590 0.930 . S
H599 C591 0.929 . S
H600 C608 0.929 . S
H601 C610 0.930 . S
H602 C612 0.930 . S
H603 C615 0.929 . S
H604 C618 0.930 . S
H605 C620 0.960 . S
H606 C620 0.960 . S
H607 C620 0.960 . S
C608 H600 0.929 . S
C608 C609 1.377 . S
C608 C610 1.384 . S
C609 C608 1.377 . S
C609 C615 1.390 . S
C610 H601 0.930 . S
C610 C608 1.384 . S
C610 C611 1.372 . S
C611 C610 1.372 . S
C611 C612 1.400 . S
C611 C616 1.490 . S
C612 H602 0.930 . S
C612 C611 1.400 . S
C612 C615 1.386 . S
H613 C629 0.930 . S
H614 C630 0.931 . S
C615 H603 0.929 . S
C615 C609 1.390 . S
C615 C612 1.386 . S
C616 C611 1.490 . S
C616 C618 1.395 . S
C616 C619 1.403 . S
H617 C623 0.930 . S
C618 H604 0.930 . S
C618 C616 1.395 . S
C618 C621 1.403 . S
C619 C616 1.403 . S
C619 C620 1.524 . S
C619 C623 1.400 . S
C620 H605 0.960 . S
C620 H606 0.960 . S
C620 H607 0.960 . S
C620 C619 1.524 . S
C621 C618 1.403 . S
C621 C622 1.392 . S
C621 C625 1.495 . S
C622 C621 1.392 . S
C622 C623 1.385 . S
C622 C624 1.478 . S
C623 H617 0.930 . S
C623 C619 1.400 . S
C623 C622 1.385 . S
C624 C622 1.478 . S
C624 C626 1.381 . S
C624 C630 1.383 . S
C625 C621 1.495 . S
C625 H631 0.959 . S
C625 H632 0.961 . S
C625 H633 0.960 . S
C626 C624 1.381 . S
C626 C627 1.394 . S
C626 H634 0.930 . S
C627 C626 1.394 . S
C627 C628 1.383 . S
C627 H635 0.929 . S
C628 C627 1.383 . S
C628 C629 1.377 . S
C629 H613 0.930 . S
C629 C628 1.377 . S
C629 C630 1.379 . S
C630 H614 0.931 . S
C630 C624 1.383 . S
C630 C629 1.379 . S
H631 C625 0.959 . S
H632 C625 0.961 . S
H633 C625 0.960 . S
H634 C626 0.930 . S
H635 C627 0.929 . S
H636 C644 0.929 . S
H637 C646 0.930 . S
H638 C648 0.930 . S
H639 C651 0.929 . S
H640 C654 0.930 . S
H641 C656 0.960 . S
H642 C656 0.960 . S
H643 C656 0.960 . S
C644 H636 0.929 . S
C644 C645 1.377 . S
C644 C646 1.384 . S
C645 C644 1.377 . S
C645 C651 1.390 . S
C646 H637 0.930 . S
C646 C644 1.384 . S
C646 C647 1.372 . S
C647 C646 1.372 . S
C647 C648 1.400 . S
C647 C652 1.490 . S
C648 H638 0.930 . S
C648 C647 1.400 . S
C648 C651 1.386 . S
H649 C665 0.930 . S
H650 C666 0.931 . S
C651 H639 0.929 . S
C651 C645 1.390 . S
C651 C648 1.386 . S
C652 C647 1.490 . S
C652 C654 1.395 . S
C652 C655 1.403 . S
H653 C659 0.930 . S
C654 H640 0.930 . S
C654 C652 1.395 . S
C654 C657 1.403 . S
C655 C652 1.403 . S
C655 C656 1.524 . S
C655 C659 1.400 . S
C656 H641 0.960 . S
C656 H642 0.960 . S
C656 H643 0.960 . S
C656 C655 1.524 . S
C657 C654 1.403 . S
C657 C658 1.392 . S
C657 C661 1.495 . S
C658 C657 1.392 . S
C658 C659 1.385 . S
C658 C660 1.478 . S
C659 H653 0.930 . S
C659 C655 1.400 . S
C659 C658 1.385 . S
C660 C658 1.478 . S
C660 C662 1.381 . S
C660 C666 1.383 . S
C661 C657 1.495 . S
C661 H667 0.959 . S
C661 H668 0.961 . S
C661 H669 0.960 . S
C662 C660 1.381 . S
C662 C663 1.394 . S
C662 H670 0.930 . S
C663 C662 1.394 . S
C663 C664 1.383 . S
C663 H671 0.929 . S
C664 C663 1.383 . S
C664 C665 1.377 . S
C665 H649 0.930 . S
C665 C664 1.377 . S
C665 C666 1.379 . S
C666 H650 0.931 . S
C666 C660 1.383 . S
C666 C665 1.379 . S
H667 C661 0.959 . S
H668 C661 0.961 . S
H669 C661 0.960 . S
H670 C662 0.930 . S
H671 C663 0.929 . S
H672 C680 0.929 . S
H673 C682 0.930 . S
H674 C684 0.930 . S
H675 C687 0.929 . S
H676 C690 0.930 . S
H677 C692 0.960 . S
H678 C692 0.960 . S
H679 C692 0.960 . S
C680 H672 0.929 . S
C680 C681 1.377 . S
C680 C682 1.384 . S
C681 C680 1.377 . S
C681 C687 1.390 . S
C682 H673 0.930 . S
C682 C680 1.384 . S
C682 C683 1.372 . S
C683 C682 1.372 . S
C683 C684 1.400 . S
C683 C688 1.490 . S
C684 H674 0.930 . S
C684 C683 1.400 . S
C684 C687 1.386 . S
H685 C701 0.930 . S
H686 C702 0.931 . S
C687 H675 0.929 . S
C687 C681 1.390 . S
C687 C684 1.386 . S
C688 C683 1.490 . S
C688 C690 1.395 . S
C688 C691 1.403 . S
H689 C695 0.930 . S
C690 H676 0.930 . S
C690 C688 1.395 . S
C690 C693 1.403 . S
C691 C688 1.403 . S
C691 C692 1.524 . S
C691 C695 1.400 . S
C692 H677 0.960 . S
C692 H678 0.960 . S
C692 H679 0.960 . S
C692 C691 1.524 . S
C693 C690 1.403 . S
C693 C694 1.392 . S
C693 C697 1.495 . S
C694 C693 1.392 . S
C694 C695 1.385 . S
C694 C696 1.478 . S
C695 H689 0.930 . S
C695 C691 1.400 . S
C695 C694 1.385 . S
C696 C694 1.478 . S
C696 C698 1.381 . S
C696 C702 1.383 . S
C697 C693 1.495 . S
C697 H703 0.959 . S
C697 H704 0.961 . S
C697 H705 0.960 . S
C698 C696 1.381 . S
C698 C699 1.394 . S
C698 H706 0.930 . S
C699 C698 1.394 . S
C699 C700 1.383 . S
C699 H707 0.929 . S
C700 C699 1.383 . S
C700 C701 1.377 . S
C701 H685 0.930 . S
C701 C700 1.377 . S
C701 C702 1.379 . S
C702 H686 0.931 . S
C702 C696 1.383 . S
C702 C701 1.379 . S
H703 C697 0.959 . S
H704 C697 0.961 . S
H705 C697 0.960 . S
H706 C698 0.930 . S
H707 C699 0.929 . S
H708 C716 0.929 . S
H709 C718 0.930 . S
H710 C720 0.930 . S
H711 C723 0.929 . S
H712 C726 0.930 . S
H713 C728 0.960 . S
H714 C728 0.960 . S
H715 C728 0.960 . S
C716 H708 0.929 . S
C716 C717 1.377 . S
C716 C718 1.384 . S
C717 C716 1.377 . S
C717 C723 1.390 . S
C718 H709 0.930 . S
C718 C716 1.384 . S
C718 C719 1.372 . S
C719 C718 1.372 . S
C719 C720 1.400 . S
C719 C724 1.490 . S
C720 H710 0.930 . S
C720 C719 1.400 . S
C720 C723 1.386 . S
H721 C737 0.930 . S
H722 C738 0.931 . S
C723 H711 0.929 . S
C723 C717 1.390 . S
C723 C720 1.386 . S
C724 C719 1.490 . S
C724 C726 1.395 . S
C724 C727 1.403 . S
H725 C731 0.930 . S
C726 H712 0.930 . S
C726 C724 1.395 . S
C726 C729 1.403 . S
C727 C724 1.403 . S
C727 C728 1.524 . S
C727 C731 1.400 . S
C728 H713 0.960 . S
C728 H714 0.960 . S
C728 H715 0.960 . S
C728 C727 1.524 . S
C729 C726 1.403 . S
C729 C730 1.392 . S
C729 C733 1.495 . S
C730 C729 1.392 . S
C730 C731 1.385 . S
C730 C732 1.478 . S
C731 H725 0.930 . S
C731 C727 1.400 . S
C731 C730 1.385 . S
C732 C730 1.478 . S
C732 C734 1.381 . S
C732 C738 1.383 . S
C733 C729 1.495 . S
C733 H739 0.959 . S
C733 H740 0.961 . S
C733 H741 0.960 . S
C734 C732 1.381 . S
C734 C735 1.394 . S
C734 H742 0.930 . S
C735 C734 1.394 . S
C735 C736 1.383 . S
C735 H743 0.929 . S
C736 C735 1.383 . S
C736 C737 1.377 . S
C737 H721 0.930 . S
C737 C736 1.377 . S
C737 C738 1.379 . S
C738 H722 0.931 . S
C738 C732 1.383 . S
C738 C737 1.379 . S
H739 C733 0.959 . S
H740 C733 0.961 . S
H741 C733 0.960 . S
H742 C734 0.930 . S
H743 C735 0.929 . S
H744 C752 0.929 . S
H745 C754 0.930 . S
H746 C756 0.930 . S
H747 C759 0.929 . S
H748 C762 0.930 . S
H749 C764 0.960 . S
H750 C764 0.960 . S
H751 C764 0.960 . S
C752 H744 0.929 . S
C752 C753 1.377 . S
C752 C754 1.384 . S
C753 C752 1.377 . S
C753 C759 1.390 . S
C754 H745 0.930 . S
C754 C752 1.384 . S
C754 C755 1.372 . S
C755 C754 1.372 . S
C755 C756 1.400 . S
C755 C760 1.490 . S
C756 H746 0.930 . S
C756 C755 1.400 . S
C756 C759 1.386 . S
H757 C773 0.930 . S
H758 C774 0.931 . S
C759 H747 0.929 . S
C759 C753 1.390 . S
C759 C756 1.386 . S
C760 C755 1.490 . S
C760 C762 1.395 . S
C760 C763 1.403 . S
H761 C767 0.930 . S
C762 H748 0.930 . S
C762 C760 1.395 . S
C762 C765 1.403 . S
C763 C760 1.403 . S
C763 C764 1.524 . S
C763 C767 1.400 . S
C764 H749 0.960 . S
C764 H750 0.960 . S
C764 H751 0.960 . S
C764 C763 1.524 . S
C765 C762 1.403 . S
C765 C766 1.392 . S
C765 C769 1.495 . S
C766 C765 1.392 . S
C766 C767 1.385 . S
C766 C768 1.478 . S
C767 H761 0.930 . S
C767 C763 1.400 . S
C767 C766 1.385 . S
C768 C766 1.478 . S
C768 C770 1.381 . S
C768 C774 1.383 . S
C769 C765 1.495 . S
C769 H775 0.959 . S
C769 H776 0.961 . S
C769 H777 0.960 . S
C770 C768 1.381 . S
C770 C771 1.394 . S
C770 H778 0.930 . S
C771 C770 1.394 . S
C771 C772 1.383 . S
C771 H779 0.929 . S
C772 C771 1.383 . S
C772 C773 1.377 . S
C773 H757 0.930 . S
C773 C772 1.377 . S
C773 C774 1.379 . S
C774 H758 0.931 . S
C774 C768 1.383 . S
C774 C773 1.379 . S
H775 C769 0.959 . S
H776 C769 0.961 . S
H777 C769 0.960 . S
H778 C770 0.930 . S
H779 C771 0.929 . S
H780 C788 0.929 . S
H781 C790 0.930 . S
H782 C792 0.930 . S
H783 C795 0.929 . S
H784 C798 0.930 . S
H785 C800 0.960 . S
H786 C800 0.960 . S
H787 C800 0.960 . S
C788 H780 0.929 . S
C788 C789 1.377 . S
C788 C790 1.384 . S
C789 C788 1.377 . S
C789 C795 1.390 . S
C790 H781 0.930 . S
C790 C788 1.384 . S
C790 C791 1.372 . S
C791 C790 1.372 . S
C791 C792 1.400 . S
C791 C796 1.490 . S
C792 H782 0.930 . S
C792 C791 1.400 . S
C792 C795 1.386 . S
H793 C809 0.930 . S
H794 C810 0.931 . S
C795 H783 0.929 . S
C795 C789 1.390 . S
C795 C792 1.386 . S
C796 C791 1.490 . S
C796 C798 1.395 . S
C796 C799 1.403 . S
H797 C803 0.930 . S
C798 H784 0.930 . S
C798 C796 1.395 . S
C798 C801 1.403 . S
C799 C796 1.403 . S
C799 C800 1.524 . S
C799 C803 1.400 . S
C800 H785 0.960 . S
C800 H786 0.960 . S
C800 H787 0.960 . S
C800 C799 1.524 . S
C801 C798 1.403 . S
C801 C802 1.392 . S
C801 C805 1.495 . S
C802 C801 1.392 . S
C802 C803 1.385 . S
C802 C804 1.478 . S
C803 H797 0.930 . S
C803 C799 1.400 . S
C803 C802 1.385 . S
C804 C802 1.478 . S
C804 C806 1.381 . S
C804 C810 1.383 . S
C805 C801 1.495 . S
C805 H811 0.959 . S
C805 H812 0.961 . S
C805 H813 0.960 . S
C806 C804 1.381 . S
C806 C807 1.394 . S
C806 H814 0.930 . S
C807 C806 1.394 . S
C807 C808 1.383 . S
C807 H815 0.929 . S
C808 C807 1.383 . S
C808 C809 1.377 . S
C809 H793 0.930 . S
C809 C808 1.377 . S
C809 C810 1.379 . S
C810 H794 0.931 . S
C810 C804 1.383 . S
C810 C809 1.379 . S
H811 C805 0.959 . S
H812 C805 0.961 . S
H813 C805 0.960 . S
H814 C806 0.930 . S
H815 C807 0.929 . S
H816 C824 0.929 . S
H817 C826 0.930 . S
H818 C828 0.930 . S
H819 C831 0.929 . S
H820 C834 0.930 . S
H821 C836 0.960 . S
H822 C836 0.960 . S
H823 C836 0.960 . S
C824 H816 0.929 . S
C824 C825 1.377 . S
C824 C826 1.384 . S
C825 C824 1.377 . S
C825 C831 1.390 . S
C826 H817 0.930 . S
C826 C824 1.384 . S
C826 C827 1.372 . S
C827 C826 1.372 . S
C827 C828 1.400 . S
C827 C832 1.490 . S
C828 H818 0.930 . S
C828 C827 1.400 . S
C828 C831 1.386 . S
H829 C845 0.930 . S
H830 C846 0.931 . S
C831 H819 0.929 . S
C831 C825 1.390 . S
C831 C828 1.386 . S
C832 C827 1.490 . S
C832 C834 1.395 . S
C832 C835 1.403 . S
H833 C839 0.930 . S
C834 H820 0.930 . S
C834 C832 1.395 . S
C834 C837 1.403 . S
C835 C832 1.403 . S
C835 C836 1.524 . S
C835 C839 1.400 . S
C836 H821 0.960 . S
C836 H822 0.960 . S
C836 H823 0.960 . S
C836 C835 1.524 . S
C837 C834 1.403 . S
C837 C838 1.392 . S
C837 C841 1.495 . S
C838 C837 1.392 . S
C838 C839 1.385 . S
C838 C840 1.478 . S
C839 H833 0.930 . S
C839 C835 1.400 . S
C839 C838 1.385 . S
C840 C838 1.478 . S
C840 C842 1.381 . S
C840 C846 1.383 . S
C841 C837 1.495 . S
C841 H847 0.959 . S
C841 H848 0.961 . S
C841 H849 0.960 . S
C842 C840 1.381 . S
C842 C843 1.394 . S
C842 H850 0.930 . S
C843 C842 1.394 . S
C843 C844 1.383 . S
C843 H851 0.929 . S
C844 C843 1.383 . S
C844 C845 1.377 . S
C845 H829 0.930 . S
C845 C844 1.377 . S
C845 C846 1.379 . S
C846 H830 0.931 . S
C846 C840 1.383 . S
C846 C845 1.379 . S
H847 C841 0.959 . S
H848 C841 0.961 . S
H849 C841 0.960 . S
H850 C842 0.930 . S
H851 C843 0.929 . S
H852 C860 0.929 . S
H853 C862 0.930 . S
H854 C864 0.930 . S
H855 C867 0.929 . S
H856 C870 0.930 . S
H857 C872 0.960 . S
H858 C872 0.960 . S
H859 C872 0.960 . S
C860 H852 0.929 . S
C860 C861 1.377 . S
C860 C862 1.384 . S
C861 C860 1.377 . S
C861 C867 1.390 . S
C862 H853 0.930 . S
C862 C860 1.384 . S
C862 C863 1.372 . S
C863 C862 1.372 . S
C863 C864 1.400 . S
C863 C868 1.490 . S
C864 H854 0.930 . S
C864 C863 1.400 . S
C864 C867 1.386 . S
H865 C881 0.930 . S
H866 C882 0.931 . S
C867 H855 0.929 . S
C867 C861 1.390 . S
C867 C864 1.386 . S
C868 C863 1.490 . S
C868 C870 1.395 . S
C868 C871 1.403 . S
H869 C875 0.930 . S
C870 H856 0.930 . S
C870 C868 1.395 . S
C870 C873 1.403 . S
C871 C868 1.403 . S
C871 C872 1.524 . S
C871 C875 1.400 . S
C872 H857 0.960 . S
C872 H858 0.960 . S
C872 H859 0.960 . S
C872 C871 1.524 . S
C873 C870 1.403 . S
C873 C874 1.392 . S
C873 C877 1.495 . S
C874 C873 1.392 . S
C874 C875 1.385 . S
C874 C876 1.478 . S
C875 H869 0.930 . S
C875 C871 1.400 . S
C875 C874 1.385 . S
C876 C874 1.478 . S
C876 C878 1.381 . S
C876 C882 1.383 . S
C877 C873 1.495 . S
C877 H883 0.959 . S
C877 H884 0.961 . S
C877 H885 0.960 . S
C878 C876 1.381 . S
C878 C879 1.394 . S
C878 H886 0.930 . S
C879 C878 1.394 . S
C879 C880 1.383 . S
C879 H887 0.929 . S
C880 C879 1.383 . S
C880 C881 1.377 . S
C881 H865 0.930 . S
C881 C880 1.377 . S
C881 C882 1.379 . S
C882 H866 0.931 . S
C882 C876 1.383 . S
C882 C881 1.379 . S
H883 C877 0.959 . S
H884 C877 0.961 . S
H885 C877 0.960 . S
H886 C878 0.930 . S
H887 C879 0.929 . S
H888 C896 0.929 . S
H889 C898 0.930 . S
H890 C900 0.930 . S
H891 C903 0.929 . S
H892 C906 0.930 . S
H893 C908 0.960 . S
H894 C908 0.960 . S
H895 C908 0.960 . S
C896 H888 0.929 . S
C896 C897 1.377 . S
C896 C898 1.384 . S
C897 C896 1.377 . S
C897 C903 1.390 . S
C898 H889 0.930 . S
C898 C896 1.384 . S
C898 C899 1.372 . S
C899 C898 1.372 . S
C899 C900 1.400 . S
C899 C904 1.490 . S
C900 H890 0.930 . S
C900 C899 1.400 . S
C900 C903 1.386 . S
H901 C917 0.930 . S
H902 C918 0.931 . S
C903 H891 0.929 . S
C903 C897 1.390 . S
C903 C900 1.386 . S
C904 C899 1.490 . S
C904 C906 1.395 . S
C904 C907 1.403 . S
H905 C911 0.930 . S
C906 H892 0.930 . S
C906 C904 1.395 . S
C906 C909 1.403 . S
C907 C904 1.403 . S
C907 C908 1.524 . S
C907 C911 1.400 . S
C908 H893 0.960 . S
C908 H894 0.960 . S
C908 H895 0.960 . S
C908 C907 1.524 . S
C909 C906 1.403 . S
C909 C910 1.392 . S
C909 C913 1.495 . S
C910 C909 1.392 . S
C910 C911 1.385 . S
C910 C912 1.478 . S
C911 H905 0.930 . S
C911 C907 1.400 . S
C911 C910 1.385 . S
C912 C910 1.478 . S
C912 C914 1.381 . S
C912 C918 1.383 . S
C913 C909 1.495 . S
C913 H919 0.959 . S
C913 H920 0.961 . S
C913 H921 0.960 . S
C914 C912 1.381 . S
C914 C915 1.394 . S
C914 H922 0.930 . S
C915 C914 1.394 . S
C915 C916 1.383 . S
C915 H923 0.929 . S
C916 C915 1.383 . S
C916 C917 1.377 . S
C917 H901 0.930 . S
C917 C916 1.377 . S
C917 C918 1.379 . S
C918 H902 0.931 . S
C918 C912 1.383 . S
C918 C917 1.379 . S
H919 C913 0.959 . S
H920 C913 0.961 . S
H921 C913 0.960 . S
H922 C914 0.930 . S
H923 C915 0.929 . S
H924 C932 0.929 . S
H925 C934 0.930 . S
H926 C936 0.930 . S
H927 C939 0.929 . S
H928 C942 0.930 . S
H929 C944 0.960 . S
H930 C944 0.960 . S
H931 C944 0.960 . S
C932 H924 0.929 . S
C932 C933 1.377 . S
C932 C934 1.384 . S
C933 C932 1.377 . S
C933 C939 1.390 . S
C934 H925 0.930 . S
C934 C932 1.384 . S
C934 C935 1.372 . S
C935 C934 1.372 . S
C935 C936 1.400 . S
C935 C940 1.490 . S
C936 H926 0.930 . S
C936 C935 1.400 . S
C936 C939 1.386 . S
H937 C953 0.930 . S
H938 C954 0.931 . S
C939 H927 0.929 . S
C939 C933 1.390 . S
C939 C936 1.386 . S
C940 C935 1.490 . S
C940 C942 1.395 . S
C940 C943 1.403 . S
H941 C947 0.930 . S
C942 H928 0.930 . S
C942 C940 1.395 . S
C942 C945 1.403 . S
C943 C940 1.403 . S
C943 C944 1.524 . S
C943 C947 1.400 . S
C944 H929 0.960 . S
C944 H930 0.960 . S
C944 H931 0.960 . S
C944 C943 1.524 . S
C945 C942 1.403 . S
C945 C946 1.392 . S
C945 C949 1.495 . S
C946 C945 1.392 . S
C946 C947 1.385 . S
C946 C948 1.478 . S
C947 H941 0.930 . S
C947 C943 1.400 . S
C947 C946 1.385 . S
C948 C946 1.478 . S
C948 C950 1.381 . S
C948 C954 1.383 . S
C949 C945 1.495 . S
C949 H955 0.959 . S
C949 H956 0.961 . S
C949 H957 0.960 . S
C950 C948 1.381 . S
C950 C951 1.394 . S
C950 H958 0.930 . S
C951 C950 1.394 . S
C951 C952 1.383 . S
C951 H959 0.929 . S
C952 C951 1.383 . S
C952 C953 1.377 . S
C953 H937 0.930 . S
C953 C952 1.377 . S
C953 C954 1.379 . S
C954 H938 0.931 . S
C954 C948 1.383 . S
C954 C953 1.379 . S
H955 C949 0.959 . S
H956 C949 0.961 . S
H957 C949 0.960 . S
H958 C950 0.930 . S
H959 C951 0.929 . S
H960 C968 0.929 . S
H961 C970 0.930 . S
H962 C972 0.930 . S
H963 C975 0.929 . S
H964 C978 0.930 . S
H965 C980 0.960 . S
H966 C980 0.960 . S
H967 C980 0.960 . S
C968 H960 0.929 . S
C968 C969 1.377 . S
C968 C970 1.384 . S
C969 C968 1.377 . S
C969 C975 1.390 . S
C970 H961 0.930 . S
C970 C968 1.384 . S
C970 C971 1.372 . S
C971 C970 1.372 . S
C971 C972 1.400 . S
C971 C976 1.490 . S
C972 H962 0.930 . S
C972 C971 1.400 . S
C972 C975 1.386 . S
H973 C989 0.930 . S
H974 C990 0.931 . S
C975 H963 0.929 . S
C975 C969 1.390 . S
C975 C972 1.386 . S
C976 C971 1.490 . S
C976 C978 1.395 . S
C976 C979 1.403 . S
H977 C983 0.930 . S
C978 H964 0.930 . S
C978 C976 1.395 . S
C978 C981 1.403 . S
C979 C976 1.403 . S
C979 C980 1.524 . S
C979 C983 1.400 . S
C980 H965 0.960 . S
C980 H966 0.960 . S
C980 H967 0.960 . S
C980 C979 1.524 . S
C981 C978 1.403 . S
C981 C982 1.392 . S
C981 C985 1.495 . S
C982 C981 1.392 . S
C982 C983 1.385 . S
C982 C984 1.478 . S
C983 H977 0.930 . S
C983 C979 1.400 . S
C983 C982 1.385 . S
C984 C982 1.478 . S
C984 C986 1.381 . S
C984 C990 1.383 . S
C985 C981 1.495 . S
C985 H991 0.959 . S
C985 H992 0.961 . S
C985 H993 0.960 . S
C986 C984 1.381 . S
C986 C987 1.394 . S
C986 H994 0.930 . S
C987 C986 1.394 . S
C987 C988 1.383 . S
C987 H995 0.929 . S
C988 C987 1.383 . S
C988 C989 1.377 . S
C989 H973 0.930 . S
C989 C988 1.377 . S
C989 C990 1.379 . S
C990 H974 0.931 . S
C990 C984 1.383 . S
C990 C989 1.379 . S
H991 C985 0.959 . S
H992 C985 0.961 . S
H993 C985 0.960 . S
H994 C986 0.930 . S
H995 C987 0.929 . S
H996 C1004 0.929 . S
H997 C1006 0.930 . S
H998 C1008 0.930 . S
H999 C1011 0.929 . S
H1000 C1014 0.930 . S
H1001 C1016 0.960 . S
H1002 C1016 0.960 . S
H1003 C1016 0.960 . S
C1004 H996 0.929 . S
C1004 C1005 1.377 . S
C1004 C1006 1.384 . S
C1005 C1004 1.377 . S
C1005 C1011 1.390 . S
C1006 H997 0.930 . S
C1006 C1004 1.384 . S
C1006 C1007 1.372 . S
C1007 C1006 1.372 . S
C1007 C1008 1.400 . S
C1007 C1012 1.490 . S
C1008 H998 0.930 . S
C1008 C1007 1.400 . S
C1008 C1011 1.386 . S
H1009 C1025 0.930 . S
H1010 C1026 0.931 . S
C1011 H999 0.929 . S
C1011 C1005 1.390 . S
C1011 C1008 1.386 . S
C1012 C1007 1.490 . S
C1012 C1014 1.395 . S
C1012 C1015 1.403 . S
H1013 C1019 0.930 . S
C1014 H1000 0.930 . S
C1014 C1012 1.395 . S
C1014 C1017 1.403 . S
C1015 C1012 1.403 . S
C1015 C1016 1.524 . S
C1015 C1019 1.400 . S
C1016 H1001 0.960 . S
C1016 H1002 0.960 . S
C1016 H1003 0.960 . S
C1016 C1015 1.524 . S
C1017 C1014 1.403 . S
C1017 C1018 1.392 . S
C1017 C1021 1.495 . S
C1018 C1017 1.392 . S
C1018 C1019 1.385 . S
C1018 C1020 1.478 . S
C1019 H1013 0.930 . S
C1019 C1015 1.400 . S
C1019 C1018 1.385 . S
C1020 C1018 1.478 . S
C1020 C1022 1.381 . S
C1020 C1026 1.383 . S
C1021 C1017 1.495 . S
C1021 H1027 0.959 . S
C1021 H1028 0.961 . S
C1021 H1029 0.960 . S
C1022 C1020 1.381 . S
C1022 C1023 1.394 . S
C1022 H1030 0.930 . S
C1023 C1022 1.394 . S
C1023 C1024 1.383 . S
C1023 H1031 0.929 . S
C1024 C1023 1.383 . S
C1024 C1025 1.377 . S
C1025 H1009 0.930 . S
C1025 C1024 1.377 . S
C1025 C1026 1.379 . S
C1026 H1010 0.931 . S
C1026 C1020 1.383 . S
C1026 C1025 1.379 . S
H1027 C1021 0.959 . S
H1028 C1021 0.961 . S
H1029 C1021 0.960 . S
H1030 C1022 0.930 . S
H1031 C1023 0.929 . S
H1032 C1040 0.929 . S
H1033 C1042 0.930 . S
H1034 C1044 0.930 . S
H1035 C1047 0.929 . S
H1036 C1050 0.930 . S
H1037 C1052 0.960 . S
H1038 C1052 0.960 . S
H1039 C1052 0.960 . S
C1040 H1032 0.929 . S
C1040 C1041 1.377 . S
C1040 C1042 1.384 . S
C1041 C1040 1.377 . S
C1041 C1047 1.390 . S
C1042 H1033 0.930 . S
C1042 C1040 1.384 . S
C1042 C1043 1.372 . S
C1043 C1042 1.372 . S
C1043 C1044 1.400 . S
C1043 C1048 1.490 . S
C1044 H1034 0.930 . S
C1044 C1043 1.400 . S
C1044 C1047 1.386 . S
H1045 C1061 0.930 . S
H1046 C1062 0.931 . S
C1047 H1035 0.929 . S
C1047 C1041 1.390 . S
C1047 C1044 1.386 . S
C1048 C1043 1.490 . S
C1048 C1050 1.395 . S
C1048 C1051 1.403 . S
H1049 C1055 0.930 . S
C1050 H1036 0.930 . S
C1050 C1048 1.395 . S
C1050 C1053 1.403 . S
C1051 C1048 1.403 . S
C1051 C1052 1.524 . S
C1051 C1055 1.400 . S
C1052 H1037 0.960 . S
C1052 H1038 0.960 . S
C1052 H1039 0.960 . S
C1052 C1051 1.524 . S
C1053 C1050 1.403 . S
C1053 C1054 1.392 . S
C1053 C1057 1.495 . S
C1054 C1053 1.392 . S
C1054 C1055 1.385 . S
C1054 C1056 1.478 . S
C1055 H1049 0.930 . S
C1055 C1051 1.400 . S
C1055 C1054 1.385 . S
C1056 C1054 1.478 . S
C1056 C1058 1.381 . S
C1056 C1062 1.383 . S
C1057 C1053 1.495 . S
C1057 H1063 0.959 . S
C1057 H1064 0.961 . S
C1057 H1065 0.960 . S
C1058 C1056 1.381 . S
C1058 C1059 1.394 . S
C1058 H1066 0.930 . S
C1059 C1058 1.394 . S
C1059 C1060 1.383 . S
C1059 H1067 0.929 . S
C1060 C1059 1.383 . S
C1060 C1061 1.377 . S
C1061 H1045 0.930 . S
C1061 C1060 1.377 . S
C1061 C1062 1.379 . S
C1062 H1046 0.931 . S
C1062 C1056 1.383 . S
C1062 C1061 1.379 . S
H1063 C1057 0.959 . S
H1064 C1057 0.961 . S
H1065 C1057 0.960 . S
H1066 C1058 0.930 . S
H1067 C1059 0.929 . S
H1068 C1076 0.929 . S
H1069 C1078 0.930 . S
H1070 C1080 0.930 . S
H1071 C1083 0.929 . S
H1072 C1086 0.930 . S
H1073 C1088 0.960 . S
H1074 C1088 0.960 . S
H1075 C1088 0.960 . S
C1076 H1068 0.929 . S
C1076 C1077 1.377 . S
C1076 C1078 1.384 . S
C1077 C1076 1.377 . S
C1077 C1083 1.390 . S
C1078 H1069 0.930 . S
C1078 C1076 1.384 . S
C1078 C1079 1.372 . S
C1079 C1078 1.372 . S
C1079 C1080 1.400 . S
C1079 C1084 1.490 . S
C1080 H1070 0.930 . S
C1080 C1079 1.400 . S
C1080 C1083 1.386 . S
H1081 C1097 0.930 . S
H1082 C1098 0.931 . S
C1083 H1071 0.929 . S
C1083 C1077 1.390 . S
C1083 C1080 1.386 . S
C1084 C1079 1.490 . S
C1084 C1086 1.395 . S
C1084 C1087 1.403 . S
H1085 C1091 0.930 . S
C1086 H1072 0.930 . S
C1086 C1084 1.395 . S
C1086 C1089 1.403 . S
C1087 C1084 1.403 . S
C1087 C1088 1.524 . S
C1087 C1091 1.400 . S
C1088 H1073 0.960 . S
C1088 H1074 0.960 . S
C1088 H1075 0.960 . S
C1088 C1087 1.524 . S
C1089 C1086 1.403 . S
C1089 C1090 1.392 . S
C1089 C1093 1.495 . S
C1090 C1089 1.392 . S
C1090 C1091 1.385 . S
C1090 C1092 1.478 . S
C1091 H1085 0.930 . S
C1091 C1087 1.400 . S
C1091 C1090 1.385 . S
C1092 C1090 1.478 . S
C1092 C1094 1.381 . S
C1092 C1098 1.383 . S
C1093 C1089 1.495 . S
C1093 H1099 0.959 . S
C1093 H1100 0.961 . S
C1093 H1101 0.960 . S
C1094 C1092 1.381 . S
C1094 C1095 1.394 . S
C1094 H1102 0.930 . S
C1095 C1094 1.394 . S
C1095 C1096 1.383 . S
C1095 H1103 0.929 . S
C1096 C1095 1.383 . S
C1096 C1097 1.377 . S
C1097 H1081 0.930 . S
C1097 C1096 1.377 . S
C1097 C1098 1.379 . S
C1098 H1082 0.931 . S
C1098 C1092 1.383 . S
C1098 C1097 1.379 . S
H1099 C1093 0.959 . S
H1100 C1093 0.961 . S
H1101 C1093 0.960 . S
H1102 C1094 0.930 . S
H1103 C1095 0.929 . S
H1104 C1112 0.929 . S
H1105 C1114 0.930 . S
H1106 C1116 0.930 . S
H1107 C1119 0.929 . S
H1108 C1122 0.930 . S
H1109 C1124 0.960 . S
H1110 C1124 0.960 . S
H1111 C1124 0.960 . S
C1112 H1104 0.929 . S
C1112 C1113 1.377 . S
C1112 C1114 1.384 . S
C1113 C1112 1.377 . S
C1113 C1119 1.390 . S
C1114 H1105 0.930 . S
C1114 C1112 1.384 . S
C1114 C1115 1.372 . S
C1115 C1114 1.372 . S
C1115 C1116 1.400 . S
C1115 C1120 1.490 . S
C1116 H1106 0.930 . S
C1116 C1115 1.400 . S
C1116 C1119 1.386 . S
H1117 C1133 0.930 . S
H1118 C1134 0.931 . S
C1119 H1107 0.929 . S
C1119 C1113 1.390 . S
C1119 C1116 1.386 . S
C1120 C1115 1.490 . S
C1120 C1122 1.395 . S
C1120 C1123 1.403 . S
H1121 C1127 0.930 . S
C1122 H1108 0.930 . S
C1122 C1120 1.395 . S
C1122 C1125 1.403 . S
C1123 C1120 1.403 . S
C1123 C1124 1.524 . S
C1123 C1127 1.400 . S
C1124 H1109 0.960 . S
C1124 H1110 0.960 . S
C1124 H1111 0.960 . S
C1124 C1123 1.524 . S
C1125 C1122 1.403 . S
C1125 C1126 1.392 . S
C1125 C1129 1.495 . S
C1126 C1125 1.392 . S
C1126 C1127 1.385 . S
C1126 C1128 1.478 . S
C1127 H1121 0.930 . S
C1127 C1123 1.400 . S
C1127 C1126 1.385 . S
C1128 C1126 1.478 . S
C1128 C1130 1.381 . S
C1128 C1134 1.383 . S
C1129 C1125 1.495 . S
C1129 H1135 0.959 . S
C1129 H1136 0.961 . S
C1129 H1137 0.960 . S
C1130 C1128 1.381 . S
C1130 C1131 1.394 . S
C1130 H1138 0.930 . S
C1131 C1130 1.394 . S
C1131 C1132 1.383 . S
C1131 H1139 0.929 . S
C1132 C1131 1.383 . S
C1132 C1133 1.377 . S
C1133 H1117 0.930 . S
C1133 C1132 1.377 . S
C1133 C1134 1.379 . S
C1134 H1118 0.931 . S
C1134 C1128 1.383 . S
C1134 C1133 1.379 . S
H1135 C1129 0.959 . S
H1136 C1129 0.961 . S
H1137 C1129 0.960 . S
H1138 C1130 0.930 . S
H1139 C1131 0.929 . S
H1140 C1148 0.929 . S
H1141 C1150 0.930 . S
H1142 C1152 0.930 . S
H1143 C1155 0.929 . S
H1144 C1158 0.930 . S
H1145 C1160 0.960 . S
H1146 C1160 0.960 . S
H1147 C1160 0.960 . S
C1148 H1140 0.929 . S
C1148 C1149 1.377 . S
C1148 C1150 1.384 . S
C1149 C1148 1.377 . S
C1149 C1155 1.390 . S
C1150 H1141 0.930 . S
C1150 C1148 1.384 . S
C1150 C1151 1.372 . S
C1151 C1150 1.372 . S
C1151 C1152 1.400 . S
C1151 C1156 1.490 . S
C1152 H1142 0.930 . S
C1152 C1151 1.400 . S
C1152 C1155 1.386 . S
H1153 C1169 0.930 . S
H1154 C1170 0.931 . S
C1155 H1143 0.929 . S
C1155 C1149 1.390 . S
C1155 C1152 1.386 . S
C1156 C1151 1.490 . S
C1156 C1158 1.395 . S
C1156 C1159 1.403 . S
H1157 C1163 0.930 . S
C1158 H1144 0.930 . S
C1158 C1156 1.395 . S
C1158 C1161 1.403 . S
C1159 C1156 1.403 . S
C1159 C1160 1.524 . S
C1159 C1163 1.400 . S
C1160 H1145 0.960 . S
C1160 H1146 0.960 . S
C1160 H1147 0.960 . S
C1160 C1159 1.524 . S
C1161 C1158 1.403 . S
C1161 C1162 1.392 . S
C1161 C1165 1.495 . S
C1162 C1161 1.392 . S
C1162 C1163 1.385 . S
C1162 C1164 1.478 . S
C1163 H1157 0.930 . S
C1163 C1159 1.400 . S
C1163 C1162 1.385 . S
C1164 C1162 1.478 . S
C1164 C1166 1.381 . S
C1164 C1170 1.383 . S
C1165 C1161 1.495 . S
C1165 H1171 0.959 . S
C1165 H1172 0.961 . S
C1165 H1173 0.960 . S
C1166 C1164 1.381 . S
C1166 C1167 1.394 . S
C1166 H1174 0.930 . S
C1167 C1166 1.394 . S
C1167 C1168 1.383 . S
C1167 H1175 0.929 . S
C1168 C1167 1.383 . S
C1168 C1169 1.377 . S
C1169 H1153 0.930 . S
C1169 C1168 1.377 . S
C1169 C1170 1.379 . S
C1170 H1154 0.931 . S
C1170 C1164 1.383 . S
C1170 C1169 1.379 . S
H1171 C1165 0.959 . S
H1172 C1165 0.961 . S
H1173 C1165 0.960 . S
H1174 C1166 0.930 . S
H1175 C1167 0.929 . S
H1176 C1184 0.929 . S
H1177 C1186 0.930 . S
H1178 C1188 0.930 . S
H1179 C1191 0.929 . S
H1180 C1194 0.930 . S
H1181 C1196 0.960 . S
H1182 C1196 0.960 . S
H1183 C1196 0.960 . S
C1184 H1176 0.929 . S
C1184 C1185 1.377 . S
C1184 C1186 1.384 . S
C1185 C1184 1.377 . S
C1185 C1191 1.390 . S
C1186 H1177 0.930 . S
C1186 C1184 1.384 . S
C1186 C1187 1.372 . S
C1187 C1186 1.372 . S
C1187 C1188 1.400 . S
C1187 C1192 1.490 . S
C1188 H1178 0.930 . S
C1188 C1187 1.400 . S
C1188 C1191 1.386 . S
H1189 C1205 0.930 . S
H1190 C1206 0.931 . S
C1191 H1179 0.929 . S
C1191 C1185 1.390 . S
C1191 C1188 1.386 . S
C1192 C1187 1.490 . S
C1192 C1194 1.395 . S
C1192 C1195 1.403 . S
H1193 C1199 0.930 . S
C1194 H1180 0.930 . S
C1194 C1192 1.395 . S
C1194 C1197 1.403 . S
C1195 C1192 1.403 . S
C1195 C1196 1.524 . S
C1195 C1199 1.400 . S
C1196 H1181 0.960 . S
C1196 H1182 0.960 . S
C1196 H1183 0.960 . S
C1196 C1195 1.524 . S
C1197 C1194 1.403 . S
C1197 C1198 1.392 . S
C1197 C1201 1.495 . S
C1198 C1197 1.392 . S
C1198 C1199 1.385 . S
C1198 C1200 1.478 . S
C1199 H1193 0.930 . S
C1199 C1195 1.400 . S
C1199 C1198 1.385 . S
C1200 C1198 1.478 . S
C1200 C1202 1.381 . S
C1200 C1206 1.383 . S
C1201 C1197 1.495 . S
C1201 H1207 0.959 . S
C1201 H1208 0.961 . S
C1201 H1209 0.960 . S
C1202 C1200 1.381 . S
C1202 C1203 1.394 . S
C1202 H1210 0.930 . S
C1203 C1202 1.394 . S
C1203 C1204 1.383 . S
C1203 H1211 0.929 . S
C1204 C1203 1.383 . S
C1204 C1205 1.377 . S
C1205 H1189 0.930 . S
C1205 C1204 1.377 . S
C1205 C1206 1.379 . S
C1206 H1190 0.931 . S
C1206 C1200 1.383 . S
C1206 C1205 1.379 . S
H1207 C1201 0.959 . S
H1208 C1201 0.961 . S
H1209 C1201 0.960 . S
H1210 C1202 0.930 . S
H1211 C1203 0.929 . S
H1212 C1220 0.929 . S
H1213 C1222 0.930 . S
H1214 C1224 0.930 . S
H1215 C1227 0.929 . S
H1216 C1230 0.930 . S
H1217 C1232 0.960 . S
H1218 C1232 0.960 . S
H1219 C1232 0.960 . S
C1220 H1212 0.929 . S
C1220 C1221 1.377 . S
C1220 C1222 1.384 . S
C1221 C1220 1.377 . S
C1221 C1227 1.390 . S
C1222 H1213 0.930 . S
C1222 C1220 1.384 . S
C1222 C1223 1.372 . S
C1223 C1222 1.372 . S
C1223 C1224 1.400 . S
C1223 C1228 1.490 . S
C1224 H1214 0.930 . S
C1224 C1223 1.400 . S
C1224 C1227 1.386 . S
H1225 C1241 0.930 . S
H1226 C1242 0.931 . S
C1227 H1215 0.929 . S
C1227 C1221 1.390 . S
C1227 C1224 1.386 . S
C1228 C1223 1.490 . S
C1228 C1230 1.395 . S
C1228 C1231 1.403 . S
H1229 C1235 0.930 . S
C1230 H1216 0.930 . S
C1230 C1228 1.395 . S
C1230 C1233 1.403 . S
C1231 C1228 1.403 . S
C1231 C1232 1.524 . S
C1231 C1235 1.400 . S
C1232 H1217 0.960 . S
C1232 H1218 0.960 . S
C1232 H1219 0.960 . S
C1232 C1231 1.524 . S
C1233 C1230 1.403 . S
C1233 C1234 1.392 . S
C1233 C1237 1.495 . S
C1234 C1233 1.392 . S
C1234 C1235 1.385 . S
C1234 C1236 1.478 . S
C1235 H1229 0.930 . S
C1235 C1231 1.400 . S
C1235 C1234 1.385 . S
C1236 C1234 1.478 . S
C1236 C1238 1.381 . S
C1236 C1242 1.383 . S
C1237 C1233 1.495 . S
C1237 H1243 0.959 . S
C1237 H1244 0.961 . S
C1237 H1245 0.960 . S
C1238 C1236 1.381 . S
C1238 C1239 1.394 . S
C1238 H1246 0.930 . S
C1239 C1238 1.394 . S
C1239 C1240 1.383 . S
C1239 H1247 0.929 . S
C1240 C1239 1.383 . S
C1240 C1241 1.377 . S
C1241 H1225 0.930 . S
C1241 C1240 1.377 . S
C1241 C1242 1.379 . S
C1242 H1226 0.931 . S
C1242 C1236 1.383 . S
C1242 C1241 1.379 . S
H1243 C1237 0.959 . S
H1244 C1237 0.961 . S
H1245 C1237 0.960 . S
H1246 C1238 0.930 . S
H1247 C1239 0.929 . S
H1248 C1256 0.929 . S
H1249 C1258 0.930 . S
H1250 C1260 0.930 . S
H1251 C1263 0.929 . S
H1252 C1266 0.930 . S
H1253 C1268 0.960 . S
H1254 C1268 0.960 . S
H1255 C1268 0.960 . S
C1256 H1248 0.929 . S
C1256 C1257 1.377 . S
C1256 C1258 1.384 . S
C1257 C1256 1.377 . S
C1257 C1263 1.390 . S
C1258 H1249 0.930 . S
C1258 C1256 1.384 . S
C1258 C1259 1.372 . S
C1259 C1258 1.372 . S
C1259 C1260 1.400 . S
C1259 C1264 1.490 . S
C1260 H1250 0.930 . S
C1260 C1259 1.400 . S
C1260 C1263 1.386 . S
H1261 C1277 0.930 . S
H1262 C1278 0.931 . S
C1263 H1251 0.929 . S
C1263 C1257 1.390 . S
C1263 C1260 1.386 . S
C1264 C1259 1.490 . S
C1264 C1266 1.395 . S
C1264 C1267 1.403 . S
H1265 C1271 0.930 . S
C1266 H1252 0.930 . S
C1266 C1264 1.395 . S
C1266 C1269 1.403 . S
C1267 C1264 1.403 . S
C1267 C1268 1.524 . S
C1267 C1271 1.400 . S
C1268 H1253 0.960 . S
C1268 H1254 0.960 . S
C1268 H1255 0.960 . S
C1268 C1267 1.524 . S
C1269 C1266 1.403 . S
C1269 C1270 1.392 . S
C1269 C1273 1.495 . S
C1270 C1269 1.392 . S
C1270 C1271 1.385 . S
C1270 C1272 1.478 . S
C1271 H1265 0.930 . S
C1271 C1267 1.400 . S
C1271 C1270 1.385 . S
C1272 C1270 1.478 . S
C1272 C1274 1.381 . S
C1272 C1278 1.383 . S
C1273 C1269 1.495 . S
C1273 H1279 0.959 . S
C1273 H1280 0.961 . S
C1273 H1281 0.960 . S
C1274 C1272 1.381 . S
C1274 C1275 1.394 . S
C1274 H1282 0.930 . S
C1275 C1274 1.394 . S
C1275 C1276 1.383 . S
C1275 H1283 0.929 . S
C1276 C1275 1.383 . S
C1276 C1277 1.377 . S
C1277 H1261 0.930 . S
C1277 C1276 1.377 . S
C1277 C1278 1.379 . S
C1278 H1262 0.931 . S
C1278 C1272 1.383 . S
C1278 C1277 1.379 . S
H1279 C1273 0.959 . S
H1280 C1273 0.961 . S
H1281 C1273 0.960 . S
H1282 C1274 0.930 . S
H1283 C1275 0.929 . S
H1284 C1292 0.929 . S
H1285 C1294 0.930 . S
H1286 C1296 0.930 . S
H1287 C1299 0.929 . S
H1288 C1302 0.930 . S
H1289 C1304 0.960 . S
H1290 C1304 0.960 . S
H1291 C1304 0.960 . S
C1292 H1284 0.929 . S
C1292 C1293 1.377 . S
C1292 C1294 1.384 . S
C1293 C1292 1.377 . S
C1293 C1299 1.390 . S
C1294 H1285 0.930 . S
C1294 C1292 1.384 . S
C1294 C1295 1.372 . S
C1295 C1294 1.372 . S
C1295 C1296 1.400 . S
C1295 C1300 1.490 . S
C1296 H1286 0.930 . S
C1296 C1295 1.400 . S
C1296 C1299 1.386 . S
H1297 C1313 0.930 . S
H1298 C1314 0.931 . S
C1299 H1287 0.929 . S
C1299 C1293 1.390 . S
C1299 C1296 1.386 . S
C1300 C1295 1.490 . S
C1300 C1302 1.395 . S
C1300 C1303 1.403 . S
H1301 C1307 0.930 . S
C1302 H1288 0.930 . S
C1302 C1300 1.395 . S
C1302 C1305 1.403 . S
C1303 C1300 1.403 . S
C1303 C1304 1.524 . S
C1303 C1307 1.400 . S
C1304 H1289 0.960 . S
C1304 H1290 0.960 . S
C1304 H1291 0.960 . S
C1304 C1303 1.524 . S
C1305 C1302 1.403 . S
C1305 C1306 1.392 . S
C1305 C1309 1.495 . S
C1306 C1305 1.392 . S
C1306 C1307 1.385 . S
C1306 C1308 1.478 . S
C1307 H1301 0.930 . S
C1307 C1303 1.400 . S
C1307 C1306 1.385 . S
C1308 C1306 1.478 . S
C1308 C1310 1.381 . S
C1308 C1314 1.383 . S
C1309 C1305 1.495 . S
C1309 H1315 0.959 . S
C1309 H1316 0.961 . S
C1309 H1317 0.960 . S
C1310 C1308 1.381 . S
C1310 C1311 1.394 . S
C1310 H1318 0.930 . S
C1311 C1310 1.394 . S
C1311 C1312 1.383 . S
C1311 H1319 0.929 . S
C1312 C1311 1.383 . S
C1312 C1313 1.377 . S
C1313 H1297 0.930 . S
C1313 C1312 1.377 . S
C1313 C1314 1.379 . S
C1314 H1298 0.931 . S
C1314 C1308 1.383 . S
C1314 C1313 1.379 . S
H1315 C1309 0.959 . S
H1316 C1309 0.961 . S
H1317 C1309 0.960 . S
H1318 C1310 0.930 . S
H1319 C1311 0.929 . S
C465 C39 2.129 . S
C484 C325 2.096 . S
C501 C91 1.416 . S
C520 N343 1.404 . S
C556 C371 1.927 . S
C537 C128 1.949 . S
C592 N389 1.249 . S
C573 C188 1.249 . S
C628 C417 2.024 . S
C609 C250 2.039 . S
C664 N435 1.402 . S
C645 C304 1.402 . S
C681 C75 1.980 . S
C700 C380 1.973 . S
C717 C144 1.421 . S
C736 N399 1.365 . S
C772 C426 2.065 . S
C753 C198 2.070 . S
C808 N445 1.214 . S
C789 C234 1.252 . S
C825 C294 1.893 . S
C844 C334 1.889 . S
C880 N353 1.192 . S
C861 C29 1.270 . S
C916 C403 1.959 . S
C897 C38 2.020 . S
C933 C92 1.316 . S
C952 N422 1.306 . S
C988 C449 1.780 . S
C969 C135 1.840 . S
C1005 C181 1.147 . S
C1024 N330 1.091 . S
C1041 C251 1.937 . S
C1060 C357 1.894 . S
C1077 C303 1.281 . S
C1096 N376 1.262 . S
C1113 C82 1.889 . S
C1132 C440 1.862 . S
C1168 N320 1.266 . S
C1149 C145 1.312 . S
C1185 C197 1.986 . S
C1204 C348 1.973 . S
C1221 C241 1.139 . S
C1240 N366 1.034 . S
C1257 C287 1.808 . S
C1276 C394 1.801 . S
C1293 C22 1.172 . S
C1312 N412 1.153 . S
