# Generated by pormake.
# Topology hwx, (6,3)-cn, num edge types: 1
# Building blocks:
#     Node 0, Type 0, BuildingBlock: IZENUY_clean_sbu_0, # of connection points: 6
#     Node 1, Type 0, BuildingBlock: IZENUY_clean_sbu_0, # of connection points: 6
#     Node 2, Type 0, BuildingBlock: IZENUY_clean_sbu_0, # of connection points: 6
#     Node 3, Type 0, BuildingBlock: IZENUY_clean_sbu_0, # of connection points: 6
#     Node 4, Type 1, BuildingBlock: OLANEW_clean_sbu_2, # of connection points: 3
#     Node 5, Type 1, BuildingBlock: OLANEW_clean_sbu_2, # of connection points: 3
#     Node 6, Type 1, BuildingBlock: OLANEW_clean_sbu_2, # of connection points: 3
#     Node 7, Type 1, BuildingBlock: OLANEW_clean_sbu_2, # of connection points: 3
#     Node 8, Type 1, BuildingBlock: OLANEW_clean_sbu_2, # of connection points: 3
#     Node 9, Type 1, BuildingBlock: OLANEW_clean_sbu_2, # of connection points: 3
#     Node 10, Type 1, BuildingBlock: OLANEW_clean_sbu_2, # of connection points: 3
#     Node 11, Type 1, BuildingBlock: OLANEW_clean_sbu_2, # of connection points: 3
#     Edge 12, Type (0, 1), BuildingBlock: XUDNAN_clean_linker_2, # of connection points: 2
#     Edge 13, Type (0, 1), BuildingBlock: XUDNAN_clean_linker_2, # of connection points: 2
#     Edge 14, Type (0, 1), BuildingBlock: XUDNAN_clean_linker_2, # of connection points: 2
#     Edge 15, Type (0, 1), BuildingBlock: XUDNAN_clean_linker_2, # of connection points: 2
#     Edge 16, Type (0, 1), BuildingBlock: XUDNAN_clean_linker_2, # of connection points: 2
#     Edge 17, Type (0, 1), BuildingBlock: XUDNAN_clean_linker_2, # of connection points: 2
#     Edge 18, Type (0, 1), BuildingBlock: XUDNAN_clean_linker_2, # of connection points: 2
#     Edge 19, Type (0, 1), BuildingBlock: XUDNAN_clean_linker_2, # of connection points: 2
#     Edge 20, Type (0, 1), BuildingBlock: XUDNAN_clean_linker_2, # of connection points: 2
#     Edge 21, Type (0, 1), BuildingBlock: XUDNAN_clean_linker_2, # of connection points: 2
#     Edge 22, Type (0, 1), BuildingBlock: XUDNAN_clean_linker_2, # of connection points: 2
#     Edge 23, Type (0, 1), BuildingBlock: XUDNAN_clean_linker_2, # of connection points: 2
#     Edge 24, Type (0, 1), BuildingBlock: XUDNAN_clean_linker_2, # of connection points: 2
#     Edge 25, Type (0, 1), BuildingBlock: XUDNAN_clean_linker_2, # of connection points: 2
#     Edge 26, Type (0, 1), BuildingBlock: XUDNAN_clean_linker_2, # of connection points: 2
#     Edge 27, Type (0, 1), BuildingBlock: XUDNAN_clean_linker_2, # of connection points: 2
#     Edge 28, Type (0, 1), BuildingBlock: XUDNAN_clean_linker_2, # of connection points: 2
#     Edge 29, Type (0, 1), BuildingBlock: XUDNAN_clean_linker_2, # of connection points: 2
#     Edge 30, Type (0, 1), BuildingBlock: XUDNAN_clean_linker_2, # of connection points: 2
#     Edge 31, Type (0, 1), BuildingBlock: XUDNAN_clean_linker_2, # of connection points: 2
#     Edge 32, Type (0, 1), BuildingBlock: XUDNAN_clean_linker_2, # of connection points: 2
#     Edge 33, Type (0, 1), BuildingBlock: XUDNAN_clean_linker_2, # of connection points: 2
#     Edge 34, Type (0, 1), BuildingBlock: XUDNAN_clean_linker_2, # of connection points: 2
#     Edge 35, Type (0, 1), BuildingBlock: XUDNAN_clean_linker_2, # of connection points: 2
# Relax obj value: 0.014
# Max RMSD: 0.068
# Mean RMSD: 0.060
data_MOF--net-hwx--node1-IZENUY_clean_sbu_0--node2-OLANEW_clean_sbu_2--edge1-XUDNAN_clean_linker_2
_symmetry_space_group_name_H-M    P1
_symmetry_Int_Tables_number       1
_symmetry_cell_setting            triclinic
loop_
_symmetry_equiv_pos_as_xyz
'x, y, z'
_cell_length_a     54.258354
_cell_length_b     54.369982
_cell_length_c     22.35908
_cell_angle_alpha  85.497318
_cell_angle_beta   94.409113
_cell_angle_gamma 90.058881
loop_
_atom_site_label
_atom_site_type_symbol
_atom_site_fract_x
_atom_site_fract_y
_atom_site_fract_z
_atom_type_partial_charge
Fe0 Fe 0.22968 0.21205 0.08123 0.0
Fe1 Fe 0.22761 0.21231 0.94373 0.0
O2 O 0.21708 0.20077 0.01331 0.0
Fe3 Fe 0.19396 0.17779 0.0151 0.0
O4 O 0.17329 0.19778 0.04911 0.0
O5 O 0.20086 0.20833 0.1197 0.0
O6 O 0.21934 0.2431 0.05674 0.0
C7 C 0.22482 0.25487 0.00875 0.0
C8 C 0.22713 0.16277 0.11453 0.0
O9 O 0.23328 0.24376 0.96682 0.0
C10 C 0.22324 0.16097 0.93307 0.0
O11 O 0.26082 0.21793 0.05508 0.0
O12 O 0.25892 0.20245 0.96702 0.0
O13 O 0.20555 0.16297 0.08847 0.0
O14 O 0.24074 0.18154 0.10964 0.0
C15 C 0.17826 0.20899 0.91198 0.0
O16 O 0.22404 0.1828 0.90865 0.0
O17 O 0.21337 0.15655 0.9819 0.0
C18 C 0.27134 0.20883 0.01308 0.0
O19 O 0.19682 0.22287 0.91584 0.0
O20 O 0.17826 0.18816 0.94154 0.0
C21 C 0.17854 0.20698 0.09858 0.0
Fe22 Fe 0.26146 0.73442 0.61817 0.0
Fe23 Fe 0.28986 0.69538 0.55818 0.0
O24 O 0.27149 0.72238 0.55274 0.0
Fe25 Fe 0.26314 0.7376 0.48122 0.0
O26 O 0.27966 0.76484 0.50187 0.0
O27 O 0.26286 0.76707 0.58783 0.0
O28 O 0.29291 0.73808 0.64938 0.0
C29 C 0.3091 0.72127 0.65686 0.0
C30 C 0.21991 0.74172 0.54246 0.0
O31 O 0.30639 0.70155 0.63039 0.0
C32 C 0.25643 0.69005 0.45533 0.0
O33 O 0.25868 0.70408 0.6601 0.0
O34 O 0.26651 0.67741 0.59489 0.0
O35 O 0.23359 0.74974 0.50197 0.0
O36 O 0.22925 0.7314 0.59137 0.0
C37 C 0.31223 0.72203 0.46994 0.0
O38 O 0.27653 0.68452 0.48647 0.0
O39 O 0.2464 0.71088 0.45709 0.0
C40 C 0.25765 0.68235 0.64306 0.0
O41 O 0.31466 0.71147 0.52217 0.0
O42 O 0.29104 0.72846 0.44635 0.0
C43 C 0.27549 0.7766 0.54643 0.0
Fe44 Fe 0.77014 0.78382 0.95708 0.0
Fe45 Fe 0.76718 0.78302 0.09342 0.0
O46 O 0.78017 0.79494 0.02702 0.0
Fe47 Fe 0.80329 0.81787 0.03086 0.0
O48 O 0.79411 0.83338 0.95629 0.0
O49 O 0.75999 0.81444 0.92665 0.0
O50 O 0.73818 0.77824 0.97663 0.0
C51 C 0.72576 0.78668 0.01637 0.0
C52 C 0.82197 0.78946 0.94984 0.0
O53 O 0.73644 0.79343 0.06453 0.0
C54 C 0.81604 0.78495 0.13252 0.0
O55 O 0.77958 0.75238 0.98316 0.0
O56 O 0.76152 0.75207 0.06783 0.0
O57 O 0.82537 0.79843 6e-05 0.0
O58 O 0.80032 0.78749 0.92498 0.0
C59 C 0.7725 0.834 0.11039 0.0
O60 O 0.7971 0.77169 0.12563 0.0
O61 O 0.81679 0.80636 0.10585 0.0
C62 C 0.77131 0.74069 0.02832 0.0
O63 O 0.77037 0.81184 0.13153 0.0
O64 O 0.78269 0.83887 0.06206 0.0
C65 C 0.77386 0.83306 0.92416 0.0
Fe66 Fe 0.69845 0.32552 0.479 0.0
Fe67 Fe 0.72738 0.28881 0.57013 0.0
O68 O 0.71878 0.29985 0.49457 0.0
Fe69 Fe 0.73065 0.28558 0.43421 0.0
O70 O 0.74493 0.31416 0.40709 0.0
O71 O 0.71196 0.33718 0.40955 0.0
O72 O 0.71968 0.3453 0.51901 0.0
C73 C 0.72777 0.34107 0.57326 0.0
C74 C 0.6805 0.29505 0.39495 0.0
O75 O 0.72685 0.31954 0.59944 0.0
C76 C 0.7213 0.24486 0.50876 0.0
O77 O 0.681 0.31875 0.54522 0.0
O78 O 0.6954 0.28298 0.5856 0.0
O79 O 0.70253 0.29084 0.38323 0.0
O80 O 0.67596 0.30734 0.43829 0.0
C81 C 0.77184 0.28547 0.52025 0.0
O82 O 0.72937 0.25607 0.55397 0.0
O83 O 0.71753 0.25618 0.45751 0.0
C84 C 0.67835 0.29894 0.57767 0.0
O85 O 0.76001 0.29398 0.56051 0.0
O86 O 0.76058 0.27729 0.47432 0.0
C87 C 0.7335 0.33421 0.39332 0.0
O88 O 0.25991 0.5117 0.87703 0.0
Cd89 Cd 0.2797 0.47703 0.93925 0.0
O90 O 0.25961 0.52918 0.96157 0.0
Cd91 Cd 0.2574 0.55821 0.02349 0.0
O92 O 0.25492 0.58188 0.09731 0.0
C93 C 0.23421 0.59091 0.10757 0.0
O94 O 0.21453 0.58623 0.07233 0.0
C95 C 0.25544 0.5306 0.90459 0.0
C96 C 0.25458 0.43232 0.95036 0.0
O97 O 0.2511 0.44936 0.9854 0.0
O98 O 0.2692 0.43683 0.90846 0.0
O99 O 0.9616 0.74245 0.47316 0.0
Cd100 Cd 0.98895 0.74455 0.56534 0.0
O101 O 0.95834 0.78285 0.459 0.0
Cd102 Cd 0.97447 0.78767 0.54947 0.0
O103 O 0.96177 0.78616 0.63984 0.0
C104 C 0.93925 0.77979 0.64125 0.0
O105 O 0.92698 0.77469 0.59076 0.0
C106 C 0.9535 0.76159 0.44123 0.0
C107 C 0.03901 0.74904 0.54517 0.0
O108 O 0.02985 0.72802 0.56118 0.0
O109 O 0.02452 0.7678 0.53814 0.0
O110 O 0.79377 0.4822 0.09405 0.0
Cd111 Cd 0.7955 0.51104 0.00372 0.0
O112 O 0.75468 0.47397 0.07042 0.0
Cd113 Cd 0.75486 0.49057 0.97848 0.0
O114 O 0.7544 0.47823 0.88777 0.0
C115 C 0.759 0.45533 0.88706 0.0
O116 O 0.76413 0.44232 0.93858 0.0
C117 C 0.77382 0.47135 0.10691 0.0
C118 C 0.78492 0.56047 0.01953 0.0
O119 O 0.76767 0.54457 0.01292 0.0
O120 O 0.80734 0.55305 0.01964 0.0
O121 O 0.02946 0.29839 0.67338 0.0
Cd122 Cd 0.99851 0.32646 0.61889 0.0
O123 O 0.0389 0.28516 0.58775 0.0
Cd124 Cd 0.0615 0.26545 0.52952 0.0
O125 O 0.08112 0.25297 0.4551 0.0
C126 C 0.06865 0.24921 0.40619 0.0
O127 O 0.04455 0.25233 0.40286 0.0
C128 C 0.04261 0.28474 0.64468 0.0
C129 C 0.95101 0.30752 0.59632 0.0
O130 O 0.96818 0.30422 0.56139 0.0
O131 O 0.95643 0.31924 0.64311 0.0
O132 O 0.69744 0.98945 0.69302 0.0
Cd133 Cd 0.67006 0.0234 0.64942 0.0
O134 O 0.70664 0.97866 0.60471 0.0
Cd135 Cd 0.72174 0.95426 0.54257 0.0
O136 O 0.73139 0.93389 0.46648 0.0
C137 C 0.73374 0.94593 0.41614 0.0
O138 O 0.73071 0.96999 0.41208 0.0
C139 C 0.70843 0.97492 0.66177 0.0
C140 C 0.69033 0.06858 0.60919 0.0
O141 O 0.68475 0.06464 0.6638 0.0
O142 O 0.68733 0.05086 0.57474 0.0
O143 O 0.5267 0.25372 0.09065 0.0
Cd144 Cd 0.49686 0.25856 0.00201 0.0
O145 O 0.54028 0.2915 0.07173 0.0
Cd146 Cd 0.52556 0.29418 0.97791 0.0
O147 O 0.53844 0.29481 0.8875 0.0
C148 C 0.55841 0.28306 0.88304 0.0
O149 O 0.56886 0.2707 0.93123 0.0
C150 C 0.54008 0.27175 0.10612 0.0
C151 C 0.44988 0.23817 0.01464 0.0
O152 O 0.45481 0.25998 0.02991 0.0
O153 O 0.46731 0.22583 0.99515 0.0
O154 O 0.28423 0.0269 0.46349 0.0
Cd155 Cd 0.2986 0.00627 0.56119 0.0
O156 O 0.31292 0.05549 0.46682 0.0
Cd157 Cd 0.32322 0.04637 0.56197 0.0
O158 O 0.31394 0.0603 0.64618 0.0
C159 C 0.30191 0.04776 0.68435 0.0
O160 O 0.29667 0.02464 0.67591 0.0
C161 C 0.29482 0.04547 0.4386 0.0
C162 C 0.30078 0.95513 0.55739 0.0
O163 O 0.28152 0.96553 0.57399 0.0
O164 O 0.31891 0.9689 0.54292 0.0
O165 O 0.48283 0.70323 0.88212 0.0
Cd166 Cd 0.52075 0.68832 0.94002 0.0
O167 O 0.46851 0.71019 0.96806 0.0
Cd168 Cd 0.44043 0.71789 0.02936 0.0
O169 O 0.41864 0.7212 0.10657 0.0
C170 C 0.43009 0.71979 0.15851 0.0
O171 O 0.45421 0.71677 0.16301 0.0
C172 C 0.46517 0.71013 0.91115 0.0
C173 C 0.55875 0.72239 0.95636 0.0
O174 O 0.55739 0.70923 0.91109 0.0
O175 O 0.54166 0.72002 0.99291 0.0
H176 H 0.18244 0.22066 0.2148 0.0
H177 H 0.12875 0.20794 0.06621 0.0
H178 H 0.09495 0.21735 0.12874 0.0
H179 H 0.14745 0.19333 0.33167 0.0
H180 H 0.15691 0.21547 0.38475 0.0
H181 H 0.17699 0.20836 0.32789 0.0
H182 H 0.1786 0.25468 0.29099 0.0
H183 H 0.15861 0.26196 0.3479 0.0
H184 H 0.15016 0.27137 0.26993 0.0
H185 H 0.06694 0.22758 0.20772 0.0
H186 H 0.04667 0.23844 0.29717 0.0
H187 H 0.11855 0.24418 0.39475 0.0
C188 C 0.16359 0.21997 0.19518 0.0
C189 C 0.15829 0.21352 0.13548 0.0
C190 C 0.13332 0.21276 0.1118 0.0
C191 C 0.11398 0.21809 0.14698 0.0
C192 C 0.11986 0.22413 0.20577 0.0
C193 C 0.14405 0.22515 0.2297 0.0
C194 C 0.14533 0.23188 0.29438 0.0
C195 C 0.15738 0.21101 0.33719 0.0
C196 C 0.15898 0.25643 0.30117 0.0
C197 C 0.11806 0.23445 0.30312 0.0
C198 C 0.1037 0.22993 0.25142 0.0
C199 C 0.078 0.23119 0.24845 0.0
C200 C 0.06665 0.23736 0.29958 0.0
C201 C 0.08098 0.24216 0.35309 0.0
C202 C 0.10705 0.24058 0.35465 0.0
H203 H 0.2653 0.633 0.63565 0.0
H204 H 0.23311 0.68498 0.74555 0.0
H205 H 0.22451 0.65064 0.82024 0.0
H206 H 0.22425 0.58022 0.67119 0.0
H207 H 0.24925 0.55832 0.67255 0.0
H208 H 0.2494 0.58641 0.62405 0.0
H209 H 0.2926 0.59709 0.67265 0.0
H210 H 0.29256 0.56917 0.72137 0.0
H211 H 0.29691 0.59849 0.75307 0.0
H212 H 0.22276 0.61081 0.88706 0.0
H213 H 0.22941 0.56967 0.94116 0.0
H214 H 0.26475 0.5448 0.78902 0.0
C215 C 0.25585 0.63717 0.6746 0.0
C216 C 0.24971 0.66171 0.68448 0.0
C217 C 0.23788 0.66633 0.73685 0.0
C218 C 0.23286 0.64692 0.77943 0.0
C219 C 0.23976 0.62302 0.76895 0.0
C220 C 0.25095 0.61812 0.71766 0.0
C221 C 0.25871 0.59133 0.71941 0.0
C222 C 0.24455 0.5783 0.6688 0.0
C223 C 0.28686 0.5889 0.71648 0.0
C224 C 0.25077 0.582 0.78046 0.0
C225 C 0.23952 0.6004 0.80803 0.0
C226 C 0.23159 0.5963 0.86584 0.0
C227 C 0.23579 0.57297 0.89665 0.0
C228 C 0.24821 0.55421 0.87005 0.0
C229 C 0.25514 0.55872 0.81058 0.0
H230 H 0.85288 0.81251 0.18459 0.0
H231 H 0.8264 0.73738 0.17681 0.0
H232 H 0.86147 0.72261 0.2476 0.0
H233 H 0.9189 0.79843 0.19702 0.0
H234 H 0.92614 0.82147 0.24931 0.0
H235 H 0.9001 0.82587 0.1944 0.0
H236 H 0.87114 0.83135 0.27943 0.0
H237 H 0.89708 0.82718 0.33445 0.0
H238 H 0.87033 0.80771 0.34048 0.0
H239 H 0.89865 0.7163 0.32214 0.0
H240 H 0.93264 0.7193 0.4012 0.0
H241 H 0.93401 0.79875 0.36162 0.0
C242 C 0.85458 0.79292 0.19726 0.0
C243 C 0.83696 0.77608 0.17505 0.0
C244 C 0.83965 0.75062 0.19344 0.0
C245 C 0.8596 0.74204 0.23327 0.0
C246 C 0.87663 0.75916 0.2544 0.0
C247 C 0.8742 0.78408 0.23738 0.0
C248 C 0.89399 0.79886 0.2697 0.0
C249 C 0.91078 0.81192 0.22492 0.0
C250 C 0.88244 0.81735 0.30831 0.0
C251 C 0.90772 0.7784 0.30836 0.0
C252 C 0.89768 0.75559 0.29821 0.0
C253 C 0.90675 0.73404 0.33022 0.0
C254 C 0.92613 0.73593 0.37493 0.0
C255 C 0.93604 0.75925 0.38767 0.0
C256 C 0.92698 0.78063 0.35283 0.0
H257 H 0.74501 0.33942 0.69208 0.0
H258 H 0.72723 0.39038 0.53526 0.0
H259 H 0.73633 0.42546 0.59697 0.0
H260 H 0.71737 0.373 0.79555 0.0
H261 H 0.74052 0.36581 0.85663 0.0
H262 H 0.735 0.34476 0.79892 0.0
H263 H 0.78128 0.34664 0.77752 0.0
H264 H 0.78699 0.36765 0.83544 0.0
H265 H 0.79534 0.37613 0.76012 0.0
H266 H 0.74371 0.45504 0.67814 0.0
H267 H 0.74974 0.47651 0.7717 0.0
H268 H 0.76318 0.40599 0.87414 0.0
C269 C 0.74337 0.35792 0.67038 0.0
C270 C 0.73533 0.36209 0.6088 0.0
C271 C 0.73335 0.38666 0.58235 0.0
C272 C 0.73852 0.40674 0.61701 0.0
C273 C 0.74588 0.40196 0.67789 0.0
C274 C 0.74852 0.37814 0.70419 0.0
C275 C 0.75556 0.37794 0.77102 0.0
C276 C 0.73594 0.3646 0.80766 0.0
C277 C 0.78133 0.36641 0.78694 0.0
C278 C 0.75577 0.40535 0.77857 0.0
C279 C 0.75035 0.41895 0.72434 0.0
C280 C 0.74828 0.4446 0.72076 0.0
C281 C 0.75168 0.45663 0.77413 0.0
C282 C 0.75702 0.44297 0.83022 0.0
C283 C 0.75935 0.41703 0.83199 0.0
H284 H 0.64049 0.32163 0.34456 0.0
H285 H 0.67426 0.24905 0.35713 0.0
H286 H 0.6388 0.23376 0.29406 0.0
H287 H 0.57589 0.30276 0.3414 0.0
H288 H 0.56566 0.32712 0.28569 0.0
H289 H 0.59225 0.33165 0.33701 0.0
H290 H 0.6188 0.34257 0.24714 0.0
H291 H 0.59225 0.33838 0.1957 0.0
H292 H 0.62027 0.32128 0.18961 0.0
H293 H 0.59961 0.2266 0.22955 0.0
H294 H 0.56373 0.22964 0.15406 0.0
H295 H 0.55775 0.3079 0.17602 0.0
C296 C 0.6402 0.30248 0.33436 0.0
C297 C 0.65981 0.28636 0.35584 0.0
C298 C 0.65929 0.26158 0.3408 0.0
C299 C 0.63916 0.25273 0.30559 0.0
C300 C 0.62 0.26906 0.28507 0.0
C301 C 0.62061 0.29355 0.29788 0.0
C302 C 0.59904 0.3079 0.26521 0.0
C303 C 0.58222 0.31794 0.31001 0.0
C304 C 0.60814 0.32875 0.22184 0.0
C305 C 0.58634 0.28774 0.23149 0.0
C306 C 0.59831 0.26533 0.24484 0.0
C307 C 0.59008 0.24404 0.21873 0.0
C308 C 0.56959 0.2459 0.17626 0.0
C309 C 0.55801 0.26898 0.15938 0.0
C310 C 0.56623 0.29001 0.18832 0.0
H311 H 0.25321 0.16333 0.83942 0.0
H312 H 0.21647 0.11158 0.9607 0.0
H313 H 0.23444 0.07685 0.91387 0.0
H314 H 0.24541 0.12907 0.70942 0.0
H315 H 0.27532 0.13707 0.68393 0.0
H316 H 0.25973 0.15776 0.72769 0.0
H317 H 0.29793 0.15704 0.80499 0.0
H318 H 0.31358 0.13618 0.76167 0.0
H319 H 0.30956 0.12791 0.83997 0.0
H320 H 0.25534 0.04771 0.85166 0.0
H321 H 0.27722 0.02642 0.77745 0.0
H322 H 0.30122 0.09725 0.69935 0.0
C323 C 0.24881 0.1447 0.85592 0.0
C324 C 0.23329 0.14019 0.90342 0.0
C325 C 0.22826 0.11552 0.92421 0.0
C326 C 0.23843 0.09564 0.89804 0.0
C327 C 0.25376 0.10074 0.85153 0.0
C328 C 0.25897 0.12465 0.8307 0.0
C329 C 0.2759 0.1251 0.77993 0.0
C330 C 0.26333 0.13801 0.72181 0.0
C331 C 0.30071 0.13728 0.79773 0.0
C332 C 0.27904 0.09771 0.77475 0.0
C333 C 0.26622 0.08395 0.81659 0.0
C334 C 0.26561 0.05827 0.81894 0.0
C335 C 0.2781 0.04634 0.77666 0.0
C336 C 0.29103 0.06013 0.73279 0.0
C337 C 0.29176 0.08613 0.73269 0.0
H338 H 0.31157 0.72715 0.34704 0.0
H339 H 0.36127 0.71923 0.50915 0.0
H340 H 0.39699 0.71906 0.44689 0.0
H341 H 0.34438 0.6864 0.26472 0.0
H342 H 0.3383 0.704 0.19338 0.0
H343 H 0.31682 0.70508 0.25061 0.0
H344 H 0.32044 0.75273 0.24583 0.0
H345 H 0.34189 0.75184 0.18839 0.0
H346 H 0.3505 0.76663 0.25626 0.0
H347 H 0.42711 0.71862 0.36699 0.0
H348 H 0.44956 0.71743 0.2754 0.0
H349 H 0.37998 0.72471 0.16556 0.0
C350 C 0.32998 0.72576 0.3695 0.0
C351 C 0.33368 0.7234 0.43294 0.0
C352 C 0.35804 0.72111 0.46058 0.0
C353 C 0.37842 0.72102 0.42562 0.0
C354 C 0.3741 0.72309 0.36317 0.0
C355 C 0.35049 0.72537 0.33535 0.0
C356 C 0.35078 0.72619 0.26756 0.0
C357 C 0.33674 0.70411 0.24262 0.0
C358 C 0.34028 0.75082 0.23777 0.0
C359 C 0.37828 0.72412 0.26152 0.0
C360 C 0.3914 0.72241 0.31718 0.0
C361 C 0.41704 0.72003 0.32314 0.0
C362 C 0.42962 0.71936 0.2708 0.0
C363 C 0.41655 0.72101 0.21324 0.0
C364 C 0.39053 0.72348 0.20882 0.0
H365 H 0.73102 0.85976 0.90445 0.0
H366 H 0.80392 0.85245 0.84106 0.0
H367 H 0.79456 0.88692 0.76335 0.0
H368 H 0.69743 0.87713 0.76104 0.0
H369 H 0.67828 0.8995 0.79113 0.0
H370 H 0.69008 0.87313 0.83847 0.0
H371 H 0.70984 0.90211 0.91524 0.0
H372 H 0.69809 0.92856 0.86818 0.0
H373 H 0.73069 0.92593 0.89027 0.0
H374 H 0.77659 0.92163 0.69086 0.0
H375 H 0.75333 0.95701 0.63699 0.0
H376 H 0.69397 0.94424 0.75466 0.0
C377 C 0.74484 0.86534 0.87369 0.0
C378 C 0.76804 0.85342 0.87786 0.0
C379 C 0.78601 0.86143 0.8381 0.0
C380 C 0.78081 0.88087 0.79382 0.0
C381 C 0.75776 0.8924 0.79087 0.0
C382 C 0.74021 0.88519 0.83038 0.0
C383 C 0.7176 0.90175 0.82053 0.0
C384 C 0.69448 0.88699 0.80166 0.0
C385 C 0.71385 0.9154 0.8769 0.0
C386 C 0.7251 0.91933 0.76919 0.0
C387 C 0.74814 0.91337 0.75196 0.0
C388 C 0.75861 0.92657 0.70424 0.0
C389 C 0.74527 0.94652 0.67375 0.0
C390 C 0.72201 0.95332 0.69198 0.0
C391 C 0.71187 0.93953 0.74029 0.0
H392 H 0.8219 0.77685 0.83347 0.0
H393 H 0.87109 0.79237 0.98837 0.0
H394 H 0.90698 0.78894 0.92799 0.0
H395 H 0.86283 0.73288 0.77192 0.0
H396 H 0.85371 0.74393 0.6953 0.0
H397 H 0.83221 0.7453 0.7525 0.0
H398 H 0.82651 0.79227 0.72503 0.0
H399 H 0.84808 0.7911 0.66811 0.0
H400 H 0.85324 0.812 0.72647 0.0
H401 H 0.93724 0.78743 0.84794 0.0
H402 H 0.95937 0.78672 0.75534 0.0
H403 H 0.89016 0.77192 0.65407 0.0
C404 C 0.84022 0.77909 0.85515 0.0
C405 C 0.84363 0.78488 0.91571 0.0
C406 C 0.86797 0.78791 0.94203 0.0
C407 C 0.88849 0.78598 0.90813 0.0
C408 C 0.88441 0.78084 0.84813 0.0
C409 C 0.86088 0.77724 0.82203 0.0
C410 C 0.86133 0.7732 0.75596 0.0
C411 C 0.85197 0.74728 0.74319 0.0
C412 C 0.84641 0.79335 0.7166 0.0
C413 C 0.88873 0.77558 0.74863 0.0
C414 C 0.90179 0.77985 0.80229 0.0
C415 C 0.92725 0.7838 0.80581 0.0
C416 C 0.93964 0.78342 0.75299 0.0
C417 C 0.92653 0.77916 0.69754 0.0
C418 C 0.90079 0.775 0.69579 0.0
H419 H 0.70965 0.37154 0.3225 0.0
H420 H 0.78271 0.34195 0.37902 0.0
H421 H 0.8014 0.37625 0.31876 0.0
H422 H 0.72231 0.38885 0.17115 0.0
H423 H 0.70324 0.4162 0.16495 0.0
H424 H 0.69607 0.39027 0.2156 0.0
H425 H 0.69772 0.41865 0.3037 0.0
H426 H 0.70518 0.44465 0.25337 0.0
H427 H 0.72519 0.43636 0.32001 0.0
H428 H 0.81194 0.41403 0.25148 0.0
H429 H 0.81328 0.44891 0.17381 0.0
H430 H 0.73312 0.45233 0.15877 0.0
C431 C 0.7296 0.37234 0.32252 0.0
C432 C 0.74476 0.35415 0.35565 0.0
C433 C 0.77076 0.35565 0.35377 0.0
C434 C 0.78153 0.37516 0.32007 0.0
C435 C 0.76602 0.39288 0.28814 0.0
C436 C 0.7406 0.39143 0.28852 0.0
C437 C 0.72794 0.41183 0.24743 0.0
C438 C 0.71143 0.40114 0.19678 0.0
C439 C 0.71314 0.42888 0.28329 0.0
C440 C 0.75019 0.42491 0.22336 0.0
C441 C 0.77202 0.414 0.2481 0.0
C442 C 0.79495 0.42273 0.23189 0.0
C443 C 0.79554 0.44265 0.18799 0.0
C444 C 0.77332 0.45337 0.16019 0.0
C445 C 0.75044 0.44459 0.17921 0.0
H446 H 0.15644 0.25428 0.88727 0.0
H447 H 0.15333 0.17893 0.83668 0.0
H448 H 0.11905 0.19037 0.75996 0.0
H449 H 0.09037 0.26325 0.87564 0.0
H450 H 0.09191 0.29523 0.84804 0.0
H451 H 0.11709 0.28138 0.89624 0.0
H452 H 0.14756 0.29445 0.81596 0.0
H453 H 0.12247 0.30829 0.76741 0.0
H454 H 0.14174 0.28519 0.74051 0.0
H455 H 0.08631 0.21066 0.68571 0.0
H456 H 0.05402 0.23699 0.62818 0.0
H457 H 0.07572 0.29789 0.73442 0.0
C458 C 0.14857 0.24029 0.85971 0.0
C459 C 0.15756 0.21581 0.86718 0.0
C460 C 0.14661 0.19779 0.83138 0.0
C461 C 0.12726 0.20414 0.78761 0.0
C462 C 0.11877 0.22847 0.78122 0.0
C463 C 0.12878 0.24615 0.81701 0.0
C464 C 0.11529 0.27058 0.80361 0.0
C465 C 0.10293 0.27804 0.85919 0.0
C466 C 0.13282 0.29081 0.78049 0.0
C467 C 0.09627 0.26393 0.75437 0.0
C468 C 0.09885 0.23967 0.74137 0.0
C469 C 0.08397 0.22961 0.69588 0.0
C470 C 0.06579 0.24468 0.66329 0.0
C471 C 0.0624 0.26931 0.67726 0.0
C472 C 0.07782 0.27899 0.7234 0.0
H473 H 0.28311 0.65728 0.39935 0.0
H474 H 0.20948 0.68804 0.40207 0.0
H475 H 0.19527 0.66473 0.31529 0.0
H476 H 0.28399 0.66186 0.24149 0.0
H477 H 0.30124 0.63374 0.23842 0.0
H478 H 0.305 0.65086 0.30421 0.0
H479 H 0.29358 0.61205 0.37123 0.0
H480 H 0.28999 0.59472 0.3057 0.0
H481 H 0.26496 0.59633 0.35381 0.0
H482 H 0.18969 0.63955 0.22543 0.0
H483 H 0.19306 0.61449 0.13895 0.0
H484 H 0.27083 0.60151 0.19328 0.0
C485 C 0.26385 0.65867 0.38259 0.0
C486 C 0.24728 0.67421 0.4078 0.0
C487 C 0.22241 0.6761 0.38353 0.0
C488 C 0.21419 0.66294 0.33433 0.0
C489 C 0.23114 0.64817 0.30971 0.0
C490 C 0.25545 0.64597 0.33302 0.0
C491 C 0.27033 0.63013 0.29608 0.0
C492 C 0.29137 0.64504 0.26842 0.0
C493 C 0.2803 0.60693 0.33397 0.0
C494 C 0.25059 0.62374 0.24829 0.0
C495 C 0.22809 0.63422 0.25709 0.0
C496 C 0.20718 0.63116 0.21822 0.0
C497 C 0.2093 0.61692 0.16917 0.0
C498 C 0.2322 0.60602 0.15926 0.0
C499 C 0.25306 0.60957 0.19952 0.0
H500 H 0.35239 0.69483 0.66699 0.0
H501 H 0.31498 0.75386 0.74445 0.0
H502 H 0.35102 0.75785 0.81753 0.0
H503 H 0.38155 0.66666 0.80422 0.0
H504 H 0.4098 0.65955 0.77155 0.0
H505 H 0.38103 0.6614 0.72552 0.0
H506 H 0.39986 0.69406 0.65166 0.0
H507 H 0.4287 0.69231 0.69746 0.0
H508 H 0.41327 0.72163 0.67987 0.0
H509 H 0.39079 0.75443 0.88442 0.0
H510 H 0.43197 0.74506 0.93674 0.0
H511 H 0.4437 0.68933 0.81322 0.0
C512 C 0.35173 0.70856 0.69942 0.0
C513 C 0.33079 0.72392 0.70025 0.0
C514 C 0.33081 0.74187 0.74294 0.0
C515 C 0.35118 0.74426 0.7847 0.0
C516 C 0.37149 0.72876 0.78274 0.0
C517 C 0.37199 0.71139 0.74088 0.0
C518 C 0.39619 0.69724 0.74768 0.0
C519 C 0.39187 0.66958 0.76318 0.0
C520 C 0.41034 0.70158 0.69079 0.0
C521 C 0.40914 0.70918 0.80031 0.0
C522 C 0.39456 0.72723 0.82013 0.0
C523 C 0.40237 0.74035 0.86925 0.0
C524 C 0.42567 0.73477 0.899 0.0
C525 C 0.44086 0.71635 0.87931 0.0
C526 C 0.43251 0.70362 0.82897 0.0
H527 H 0.75996 0.83089 0.22757 0.0
H528 H 0.77016 0.88343 0.07498 0.0
H529 H 0.76076 0.91762 0.13619 0.0
H530 H 0.70945 0.86295 0.28568 0.0
H531 H 0.72015 0.85528 0.36322 0.0
H532 H 0.72678 0.83492 0.30667 0.0
H533 H 0.77356 0.83743 0.33894 0.0
H534 H 0.7671 0.85788 0.39541 0.0
H535 H 0.78825 0.86717 0.3396 0.0
H536 H 0.75111 0.94615 0.21456 0.0
H537 H 0.74184 0.96704 0.30429 0.0
H538 H 0.73852 0.89595 0.40644 0.0
C539 C 0.76001 0.84956 0.20676 0.0
C540 C 0.76578 0.85444 0.14633 0.0
C541 C 0.76585 0.87919 0.12115 0.0
C542 C 0.76051 0.89875 0.15555 0.0
C543 C 0.75518 0.89328 0.21512 0.0
C544 C 0.75487 0.8693 0.24053 0.0
C545 C 0.74917 0.86848 0.30597 0.0
C546 C 0.72494 0.85459 0.31595 0.0
C547 C 0.77081 0.85707 0.34741 0.0
C548 C 0.7464 0.89577 0.31348 0.0
C549 C 0.74986 0.90974 0.26047 0.0
C550 C 0.74832 0.9354 0.25629 0.0
C551 C 0.74306 0.94709 0.3076 0.0
C552 C 0.73946 0.93318 0.36253 0.0
C553 C 0.7412 0.90715 0.36523 0.0
H554 H 0.67252 0.2705 0.68306 0.0
H555 H 0.63379 0.32149 0.5489 0.0
H556 H 0.59727 0.31988 0.60828 0.0
H557 H 0.61812 0.23355 0.72431 0.0
H558 H 0.62875 0.23034 0.80293 0.0
H559 H 0.65079 0.23317 0.74645 0.0
H560 H 0.67065 0.27059 0.79643 0.0
H561 H 0.64866 0.26794 0.85283 0.0
H562 H 0.65157 0.29667 0.80795 0.0
H563 H 0.56624 0.31546 0.68552 0.0
H564 H 0.54329 0.30926 0.77667 0.0
H565 H 0.60236 0.26178 0.86168 0.0
C566 C 0.65615 0.28089 0.66559 0.0
C567 C 0.65594 0.29603 0.61123 0.0
C568 C 0.63436 0.30978 0.59049 0.0
C569 C 0.61348 0.30891 0.62374 0.0
C570 C 0.61444 0.29422 0.67775 0.0
C571 C 0.63519 0.28043 0.6986 0.0
C572 C 0.63209 0.26772 0.76031 0.0
C573 C 0.63245 0.23952 0.75836 0.0
C574 C 0.65191 0.27625 0.80713 0.0
C575 C 0.60661 0.27696 0.77136 0.0
C576 C 0.59662 0.29196 0.72286 0.0
C577 C 0.57374 0.30354 0.72358 0.0
C578 C 0.56085 0.29992 0.77559 0.0
C579 C 0.57097 0.28501 0.82632 0.0
C580 C 0.59401 0.27315 0.82356 0.0
H581 H 0.26821 0.15848 0.19489 0.0
H582 H 0.20498 0.11763 0.12481 0.0
H583 H 0.21807 0.08144 0.19316 0.0
H584 H 0.31172 0.10611 0.21789 0.0
H585 H 0.326 0.11664 0.2867 0.0
H586 H 0.31297 0.13864 0.22835 0.0
H587 H 0.28548 0.15665 0.30429 0.0
H588 H 0.29848 0.13482 0.36281 0.0
H589 H 0.26547 0.13637 0.34589 0.0
H590 H 0.23617 0.05077 0.27393 0.0
H591 H 0.25709 0.02851 0.36419 0.0
H592 H 0.30856 0.08923 0.38145 0.0
C593 C 0.25727 0.14184 0.19336 0.0
C594 C 0.23554 0.14093 0.15452 0.0
C595 C 0.22164 0.11883 0.15436 0.0
C596 C 0.22901 0.0981 0.19274 0.0
C597 C 0.25037 0.09969 0.23088 0.0
C598 C 0.26431 0.12098 0.23154 0.0
C599 C 0.28557 0.11839 0.27962 0.0
C600 C 0.31054 0.12004 0.25144 0.0
C601 C 0.28362 0.13769 0.32588 0.0
C602 C 0.28101 0.09256 0.30689 0.0
C603 C 0.26082 0.08197 0.27763 0.0
C604 C 0.2522 0.05874 0.29683 0.0
C605 C 0.2642 0.04623 0.34816 0.0
C606 C 0.28453 0.05705 0.37984 0.0
C607 C 0.29328 0.08029 0.3579 0.0
H608 H 0.24601 0.2872 0.92725 0.0
H609 H 0.20113 0.2843 0.08027 0.0
H610 H 0.20065 0.3298 0.07575 0.0
H611 H 0.28384 0.3359 0.97173 0.0
H612 H 0.28629 0.35001 0.89674 0.0
H613 H 0.28101 0.31737 0.90816 0.0
H614 H 0.24177 0.32166 0.83425 0.0
H615 H 0.24691 0.35439 0.82264 0.0
H616 H 0.2178 0.34312 0.84719 0.0
H617 H 0.2074 0.37539 0.05911 0.0
H618 H 0.22205 0.41765 0.03378 0.0
H619 H 0.2628 0.39084 0.89212 0.0
C620 C 0.23575 0.29612 0.95924 0.0
C621 C 0.22356 0.28216 0.00405 0.0
C622 C 0.21066 0.29458 0.04561 0.0
C623 C 0.21017 0.32043 0.04322 0.0
C624 C 0.22264 0.33361 0.99898 0.0
C625 C 0.2352 0.32189 0.95775 0.0
C626 C 0.24847 0.3403 0.9173 0.0
C627 C 0.27656 0.33561 0.92391 0.0
C628 C 0.23811 0.33983 0.85144 0.0
C629 C 0.24185 0.36416 0.94306 0.0
C630 C 0.22669 0.35992 0.98968 0.0
C631 C 0.21907 0.37897 0.02229 0.0
C632 C 0.2275 0.40292 0.00756 0.0
C633 C 0.2435 0.4076 0.96083 0.0
C634 C 0.25037 0.38794 0.92764 0.0
H635 H 0.18296 0.71577 0.59565 0.0
H636 H 0.1962 0.77879 0.47097 0.0
H637 H 0.15134 0.78747 0.45794 0.0
H638 H 0.12721 0.69612 0.51422 0.0
H639 H 0.11226 0.68627 0.58123 0.0
H640 H 0.14547 0.68538 0.582 0.0
H641 H 0.14893 0.7125 0.6725 0.0
H642 H 0.11574 0.71346 0.67207 0.0
H643 H 0.13301 0.74178 0.66664 0.0
H644 H 0.10529 0.79033 0.46185 0.0
H645 H 0.06082 0.78542 0.47675 0.0
H646 H 0.07719 0.7189 0.59331 0.0
C647 C 0.17639 0.73145 0.56583 0.0
C648 C 0.19303 0.74673 0.53463 0.0
C649 C 0.18375 0.76685 0.49527 0.0
C650 C 0.15833 0.77195 0.48769 0.0
C651 C 0.1424 0.75654 0.51908 0.0
C652 C 0.15102 0.73654 0.55685 0.0
C653 C 0.1299 0.72246 0.58388 0.0
C654 C 0.12864 0.69599 0.56413 0.0
C655 C 0.13203 0.72257 0.65286 0.0
C656 C 0.10809 0.73783 0.5559 0.0
C657 C 0.11573 0.75752 0.51908 0.0
C658 C 0.09905 0.77485 0.4901 0.0
C659 C 0.07386 0.77194 0.49893 0.0
C660 C 0.06558 0.75168 0.53571 0.0
C661 C 0.08297 0.73438 0.56425 0.0
H662 H 0.80389 0.70721 0.99096 0.0
H663 H 0.73426 0.71288 0.07232 0.0
H664 H 0.73019 0.66759 0.0782 0.0
H665 H 0.78792 0.65562 0.90326 0.0
H666 H 0.81791 0.64113 0.91693 0.0
H667 H 0.81505 0.67414 0.91697 0.0
H668 H 0.83722 0.67238 0.02403 0.0
H669 H 0.84012 0.63936 0.02439 0.0
H670 H 0.82523 0.65271 0.08362 0.0
H671 H 0.73276 0.62204 0.07233 0.0
H672 H 0.74335 0.57851 0.0618 0.0
H673 H 0.81284 0.60146 0.99156 0.0
C674 C 0.78777 0.69884 0.00966 0.0
C675 C 0.76933 0.71351 0.03095 0.0
C676 C 0.74864 0.70196 0.05597 0.0
C677 C 0.74611 0.67626 0.05932 0.0
C678 C 0.76463 0.66228 0.03835 0.0
C679 C 0.7852 0.67306 0.0146 0.0
C680 C 0.80282 0.65357 0.99754 0.0
C681 C 0.80611 0.65628 0.92964 0.0
C682 C 0.82783 0.65457 0.03462 0.0
C683 C 0.78881 0.63024 0.01494 0.0
C684 C 0.76671 0.63576 0.03779 0.0
C685 C 0.75011 0.61745 0.055 0.0
C686 C 0.75626 0.59279 0.04876 0.0
C687 C 0.77898 0.58661 0.02642 0.0
C688 C 0.79549 0.60563 0.00958 0.0
H689 H 0.80379 0.30661 0.6036 0.0
H690 H 0.80199 0.26117 0.45195 0.0
H691 H 0.84745 0.25988 0.45938 0.0
H692 H 0.85496 0.34297 0.56264 0.0
H693 H 0.8682 0.34502 0.63852 0.0
H694 H 0.83538 0.34102 0.62442 0.0
H695 H 0.83718 0.30192 0.69863 0.0
H696 H 0.87004 0.30577 0.71304 0.0
H697 H 0.85802 0.27712 0.68779 0.0
H698 H 0.89288 0.26522 0.4789 0.0
H699 H 0.93561 0.2772 0.5092 0.0
H700 H 0.90858 0.31904 0.64855 0.0
C701 C 0.81295 0.29611 0.57248 0.0
C702 C 0.79922 0.28391 0.52733 0.0
C703 C 0.812 0.27067 0.48697 0.0
C704 C 0.83787 0.26976 0.49089 0.0
C705 C 0.85082 0.28215 0.53543 0.0
C706 C 0.83887 0.29506 0.57561 0.0
C707 C 0.85731 0.30766 0.61748 0.0
C708 C 0.85375 0.33584 0.6103 0.0
C709 C 0.85553 0.2975 0.68313 0.0
C710 C 0.88144 0.30006 0.59392 0.0
C711 C 0.87722 0.28523 0.54679 0.0
C712 C 0.89646 0.27665 0.51609 0.0
C713 C 0.92068 0.28358 0.53359 0.0
C714 C 0.92549 0.29896 0.5814 0.0
C715 C 0.90555 0.30704 0.61228 0.0
H716 H 0.71459 0.21411 0.61059 0.0
H717 H 0.72153 0.21405 0.41839 0.0
H718 H 0.71699 0.16889 0.4251 0.0
H719 H 0.74693 0.15611 0.65539 0.0
H720 H 0.72618 0.1466 0.71197 0.0
H721 H 0.73137 0.17895 0.6933 0.0
H722 H 0.68428 0.18596 0.66997 0.0
H723 H 0.67894 0.15368 0.6888 0.0
H724 H 0.66761 0.16781 0.61629 0.0
H725 H 0.71126 0.12405 0.45134 0.0
H726 H 0.7016 0.08237 0.49441 0.0
H727 H 0.69678 0.11087 0.66929 0.0
C728 C 0.71537 0.20453 0.57009 0.0
C729 C 0.71857 0.21765 0.51402 0.0
C730 C 0.71907 0.20447 0.46185 0.0
C731 C 0.71663 0.17877 0.4652 0.0
C732 C 0.71348 0.16641 0.52096 0.0
C733 C 0.7126 0.17879 0.57244 0.0
C734 C 0.70763 0.16106 0.62601 0.0
C735 C 0.72932 0.16066 0.67453 0.0
C736 C 0.68316 0.16751 0.65177 0.0
C737 C 0.70579 0.13685 0.59642 0.0
C738 C 0.70949 0.1404 0.53592 0.0
C739 C 0.70836 0.121 0.4987 0.0
C740 C 0.70289 0.09735 0.52366 0.0
C741 C 0.69844 0.09326 0.58526 0.0
C742 C 0.70021 0.11332 0.62213 0.0
H743 H 0.30536 0.23992 0.06483 0.0
H744 H 0.2987 0.17519 0.96308 0.0
H745 H 0.34406 0.17385 0.9597 0.0
H746 H 0.35181 0.26834 0.98127 0.0
H747 H 0.36821 0.28135 0.04443 0.0
H748 H 0.33554 0.27569 0.04495 0.0
H749 H 0.34291 0.2489 0.1458 0.0
H750 H 0.37565 0.25451 0.14563 0.0
H751 H 0.36428 0.22331 0.1512 0.0
H752 H 0.38975 0.18033 0.96375 0.0
H753 H 0.43254 0.19577 0.96882 0.0
H754 H 0.40973 0.25774 0.06314 0.0
C755 C 0.31355 0.22521 0.04292 0.0
C756 C 0.2986 0.20748 0.01479 0.0
C757 C 0.30987 0.18889 0.98509 0.0
C758 C 0.3356 0.18792 0.98314 0.0
C759 C 0.34983 0.20583 0.01058 0.0
C760 C 0.33925 0.22424 0.03956 0.0
C761 C 0.35861 0.24238 0.06105 0.0
C762 C 0.35322 0.26848 0.03112 0.0
C763 C 0.36047 0.24226 0.13002 0.0
C764 C 0.38165 0.23144 0.039 0.0
C765 C 0.37619 0.21015 0.01085 0.0
C766 C 0.39428 0.19693 0.98589 0.0
C767 C 0.41857 0.20585 0.98906 0.0
C768 C 0.42455 0.22797 0.01634 0.0
C769 C 0.4058 0.24075 0.0421 0.0
H770 H 0.25462 0.81525 0.59782 0.0
H771 H 0.31566 0.79605 0.4955 0.0
H772 H 0.3298 0.83922 0.49169 0.0
H773 H 0.24133 0.87294 0.51529 0.0
H774 H 0.23339 0.88862 0.57933 0.0
H775 H 0.22909 0.8558 0.57864 0.0
H776 H 0.25632 0.84895 0.67896 0.0
H777 H 0.26066 0.88178 0.68005 0.0
H778 H 0.28711 0.8615 0.68434 0.0
H779 H 0.33689 0.88428 0.49658 0.0
H780 H 0.33542 0.92915 0.50582 0.0
H781 H 0.26874 0.91999 0.60083 0.0
C782 C 0.27115 0.82013 0.57541 0.0
C783 C 0.28414 0.80234 0.5472 0.0
C784 C 0.30542 0.80945 0.51728 0.0
C785 C 0.31365 0.83388 0.51507 0.0
C786 C 0.30029 0.85106 0.54256 0.0
C787 C 0.27943 0.84461 0.57191 0.0
C788 C 0.2677 0.86706 0.59456 0.0
C789 C 0.24132 0.87136 0.56518 0.0
C790 C 0.26797 0.86468 0.66358 0.0
C791 C 0.28513 0.88709 0.57293 0.0
C792 C 0.30395 0.87737 0.54368 0.0
C793 C 0.32227 0.89215 0.51947 0.0
C794 C 0.32128 0.91761 0.52498 0.0
C795 C 0.30195 0.92809 0.55391 0.0
C796 C 0.28372 0.91254 0.57833 0.0
H797 H 0.69743 0.765 0.92875 0.0
H798 H 0.69236 0.80215 0.09236 0.0
H799 H 0.64754 0.79356 0.08863 0.0
H800 H 0.63593 0.78371 0.85596 0.0
H801 H 0.63122 0.75419 0.82551 0.0
H802 H 0.66203 0.76628 0.83672 0.0
H803 H 0.67556 0.72635 0.9019 0.0
H804 H 0.64484 0.7142 0.89123 0.0
H805 H 0.65886 0.71665 0.96626 0.0
H806 H 0.60427 0.77683 0.07298 0.0
H807 H 0.56638 0.75345 0.04693 0.0
H808 H 0.60022 0.7272 0.89398 0.0
C809 C 0.68686 0.77188 0.96312 0.0
C810 C 0.69846 0.78434 0.01078 0.0
C811 C 0.68392 0.79264 0.05529 0.0
C812 C 0.65842 0.78789 0.05347 0.0
C813 C 0.64774 0.77496 0.00669 0.0
C814 C 0.66151 0.76722 0.96212 0.0
C815 C 0.64617 0.75192 0.91954 0.0
C816 C 0.64369 0.7648 0.85565 0.0
C817 C 0.657 0.72574 0.9198 0.0
C818 C 0.62177 0.75164 0.94803 0.0
C819 C 0.62291 0.76526 0.99783 0.0
C820 C 0.60305 0.76641 0.03356 0.0
C821 C 0.58162 0.75303 0.01845 0.0
C822 C 0.58027 0.73858 0.96823 0.0
C823 C 0.60052 0.7383 0.93218 0.0
loop_
_geom_bond_atom_site_label_1
_geom_bond_atom_site_label_2
_geom_bond_distance
_geom_bond_site_symmetry_2
_ccdc_geom_bond_type
Fe0 O2 1.918 . S
Fe0 O5 1.997 . S
Fe0 O6 2.002 . S
Fe0 O11 1.976 . S
Fe0 O14 1.996 . S
Fe1 O2 1.918 1_556 S
Fe1 O9 1.997 . S
Fe1 O12 1.996 . S
Fe1 O16 1.976 . S
Fe1 O19 2.002 . S
O2 Fe0 1.918 . S
O2 Fe1 1.918 1_554 S
O2 Fe3 1.918 . S
Fe3 O2 1.918 . S
Fe3 O4 2.002 . S
Fe3 O13 1.976 . S
Fe3 O17 1.996 1_554 S
Fe3 O20 1.997 1_554 S
O4 Fe3 2.002 . S
O4 C21 1.295 . S
O5 Fe0 1.997 . S
O5 C21 1.235 . S
O6 Fe0 2.002 . S
O6 C7 1.295 . S
C7 O6 1.295 . S
C7 O9 1.235 1_554 S
C8 O13 1.287 . S
C8 O14 1.255 . S
O9 Fe1 1.997 . S
O9 C7 1.235 1_556 S
C10 O16 1.287 . S
C10 O17 1.255 . S
O11 Fe0 1.976 . S
O11 C18 1.287 . S
O12 Fe1 1.996 . S
O12 C18 1.255 1_556 S
O13 Fe3 1.976 . S
O13 C8 1.287 . S
O14 Fe0 1.996 . S
O14 C8 1.255 . S
C15 O19 1.295 . S
C15 O20 1.235 . S
O16 Fe1 1.976 . S
O16 C10 1.287 . S
O17 Fe3 1.996 1_556 S
O17 C10 1.255 . S
C18 O11 1.287 . S
C18 O12 1.255 1_554 S
O19 Fe1 2.002 . S
O19 C15 1.295 . S
O20 Fe3 1.997 1_556 S
O20 C15 1.235 . S
C21 O4 1.295 . S
C21 O5 1.235 . S
Fe22 O24 1.918 . S
Fe22 O27 1.997 . S
Fe22 O28 2.002 . S
Fe22 O33 1.976 . S
Fe22 O36 1.996 . S
Fe23 O24 1.918 . S
Fe23 O31 1.997 . S
Fe23 O34 1.996 . S
Fe23 O38 1.976 . S
Fe23 O41 2.002 . S
O24 Fe22 1.918 . S
O24 Fe23 1.918 . S
O24 Fe25 1.918 . S
Fe25 O24 1.918 . S
Fe25 O26 2.002 . S
Fe25 O35 1.976 . S
Fe25 O39 1.996 . S
Fe25 O42 1.997 . S
O26 Fe25 2.002 . S
O26 C43 1.295 . S
O27 Fe22 1.997 . S
O27 C43 1.235 . S
O28 Fe22 2.002 . S
O28 C29 1.295 . S
C29 O28 1.295 . S
C29 O31 1.235 . S
C30 O35 1.287 . S
C30 O36 1.255 . S
O31 Fe23 1.997 . S
O31 C29 1.235 . S
C32 O38 1.287 . S
C32 O39 1.255 . S
O33 Fe22 1.976 . S
O33 C40 1.287 . S
O34 Fe23 1.996 . S
O34 C40 1.255 . S
O35 Fe25 1.976 . S
O35 C30 1.287 . S
O36 Fe22 1.996 . S
O36 C30 1.255 . S
C37 O41 1.295 . S
C37 O42 1.235 . S
O38 Fe23 1.976 . S
O38 C32 1.287 . S
O39 Fe25 1.996 . S
O39 C32 1.255 . S
C40 O33 1.287 . S
C40 O34 1.255 . S
O41 Fe23 2.002 . S
O41 C37 1.295 . S
O42 Fe25 1.997 . S
O42 C37 1.235 . S
C43 O26 1.295 . S
C43 O27 1.235 . S
Fe44 O46 1.918 1_556 S
Fe44 O49 1.997 . S
Fe44 O50 2.002 . S
Fe44 O55 1.976 . S
Fe44 O58 1.996 . S
Fe45 O46 1.918 . S
Fe45 O53 1.997 . S
Fe45 O56 1.996 . S
Fe45 O60 1.976 . S
Fe45 O63 2.002 . S
O46 Fe44 1.918 1_554 S
O46 Fe45 1.918 . S
O46 Fe47 1.918 . S
Fe47 O46 1.918 . S
Fe47 O48 2.002 1_554 S
Fe47 O57 1.976 1_554 S
Fe47 O61 1.996 . S
Fe47 O64 1.997 . S
O48 Fe47 2.002 1_556 S
O48 C65 1.295 . S
O49 Fe44 1.997 . S
O49 C65 1.235 . S
O50 Fe44 2.002 . S
O50 C51 1.295 1_556 S
C51 O50 1.295 1_554 S
C51 O53 1.235 . S
C52 O57 1.287 . S
C52 O58 1.255 . S
O53 Fe45 1.997 . S
O53 C51 1.235 . S
C54 O60 1.287 . S
C54 O61 1.255 . S
O55 Fe44 1.976 . S
O55 C62 1.287 1_556 S
O56 Fe45 1.996 . S
O56 C62 1.255 . S
O57 Fe47 1.976 1_556 S
O57 C52 1.287 . S
O58 Fe44 1.996 . S
O58 C52 1.255 . S
C59 O63 1.295 . S
C59 O64 1.235 . S
O60 Fe45 1.976 . S
O60 C54 1.287 . S
O61 Fe47 1.996 . S
O61 C54 1.255 . S
C62 O55 1.287 1_554 S
C62 O56 1.255 . S
O63 Fe45 2.002 . S
O63 C59 1.295 . S
O64 Fe47 1.997 . S
O64 C59 1.235 . S
C65 O48 1.295 . S
C65 O49 1.235 . S
Fe66 O68 1.918 . S
Fe66 O71 1.997 . S
Fe66 O72 2.002 . S
Fe66 O77 1.976 . S
Fe66 O80 1.996 . S
Fe67 O68 1.918 . S
Fe67 O75 1.997 . S
Fe67 O78 1.996 . S
Fe67 O82 1.976 . S
Fe67 O85 2.002 . S
O68 Fe66 1.918 . S
O68 Fe67 1.918 . S
O68 Fe69 1.918 . S
Fe69 O68 1.918 . S
Fe69 O70 2.002 . S
Fe69 O79 1.976 . S
Fe69 O83 1.996 . S
Fe69 O86 1.997 . S
O70 Fe69 2.002 . S
O70 C87 1.295 . S
O71 Fe66 1.997 . S
O71 C87 1.235 . S
O72 Fe66 2.002 . S
O72 C73 1.295 . S
C73 O72 1.295 . S
C73 O75 1.235 . S
C74 O79 1.287 . S
C74 O80 1.255 . S
O75 Fe67 1.997 . S
O75 C73 1.235 . S
C76 O82 1.287 . S
C76 O83 1.255 . S
O77 Fe66 1.976 . S
O77 C84 1.287 . S
O78 Fe67 1.996 . S
O78 C84 1.255 . S
O79 Fe69 1.976 . S
O79 C74 1.287 . S
O80 Fe66 1.996 . S
O80 C74 1.255 . S
C81 O85 1.295 . S
C81 O86 1.235 . S
O82 Fe67 1.976 . S
O82 C76 1.287 . S
O83 Fe69 1.996 . S
O83 C76 1.255 . S
C84 O77 1.287 . S
C84 O78 1.255 . S
O85 Fe67 2.002 . S
O85 C81 1.295 . S
O86 Fe69 1.997 . S
O86 C81 1.235 . S
C87 O70 1.295 . S
C87 O71 1.235 . S
O88 Cd89 2.300 1_556 S
O88 C95 1.275 . S
Cd89 O88 2.300 1_554 S
Cd89 O97 2.381 1_554 S
Cd89 O98 2.378 . S
O90 Cd91 2.385 1_556 S
O90 C95 1.255 . S
Cd91 O90 2.385 1_554 S
Cd91 O92 2.317 . S
O92 Cd91 2.317 . S
O92 C93 1.232 . S
C93 O92 1.232 . S
C93 O94 1.218 . S
O94 C93 1.218 . S
C95 O88 1.275 . S
C95 O90 1.255 . S
C96 O97 1.258 1_554 S
C96 O98 1.256 . S
O97 Cd89 2.381 1_556 S
O97 C96 1.258 1_556 S
O98 Cd89 2.378 . S
O98 C96 1.256 . S
O99 Cd100 2.300 1_655 S
O99 C106 1.275 . S
Cd100 O99 2.300 1_455 S
Cd100 O108 2.381 . S
Cd100 O109 2.378 . S
O101 Cd102 2.385 . S
O101 C106 1.255 . S
Cd102 O101 2.385 . S
Cd102 O103 2.317 . S
O103 Cd102 2.317 . S
O103 C104 1.232 . S
C104 O103 1.232 . S
C104 O105 1.218 . S
O105 C104 1.218 . S
C106 O99 1.275 . S
C106 O101 1.255 . S
C107 O108 1.258 . S
C107 O109 1.256 . S
O108 Cd100 2.381 . S
O108 C107 1.258 . S
O109 Cd100 2.378 . S
O109 C107 1.256 . S
O110 Cd111 2.300 . S
O110 C117 1.275 . S
Cd111 O110 2.300 . S
Cd111 O119 2.381 . S
Cd111 O120 2.378 . S
O112 Cd113 2.380 1_554 S
O112 C117 1.255 . S
Cd113 O112 2.380 1_556 S
Cd113 O114 2.322 . S
O114 Cd113 2.322 . S
O114 C115 1.232 . S
C115 O114 1.232 . S
C115 O116 1.218 . S
O116 C115 1.218 . S
C117 O110 1.275 . S
C117 O112 1.255 . S
C118 O119 1.258 . S
C118 O120 1.256 . S
O119 Cd111 2.381 . S
O119 C118 1.258 . S
O120 Cd111 2.378 . S
O120 C118 1.256 . S
O121 Cd122 2.300 1_455 S
O121 C128 1.275 . S
Cd122 O121 2.300 1_655 S
Cd122 O130 2.381 . S
Cd122 O131 2.378 . S
O123 Cd124 2.385 . S
O123 C128 1.255 . S
Cd124 O123 2.385 . S
Cd124 O125 2.317 . S
O125 Cd124 2.317 . S
O125 C126 1.232 . S
C126 O125 1.232 . S
C126 O127 1.218 . S
O127 C126 1.218 . S
C128 O121 1.275 . S
C128 O123 1.255 . S
C129 O130 1.258 . S
C129 O131 1.256 . S
O130 Cd122 2.381 . S
O130 C129 1.258 . S
O131 Cd122 2.378 . S
O131 C129 1.256 . S
O132 Cd133 2.300 1_565 S
O132 C139 1.275 . S
Cd133 O132 2.300 1_545 S
Cd133 O141 2.381 . S
Cd133 O142 2.378 . S
O134 Cd135 2.385 . S
O134 C139 1.255 . S
Cd135 O134 2.385 . S
Cd135 O136 2.317 . S
O136 Cd135 2.317 . S
O136 C137 1.232 . S
C137 O136 1.232 . S
C137 O138 1.218 . S
O138 C137 1.218 . S
C139 O132 1.275 . S
C139 O134 1.255 . S
C140 O141 1.258 . S
C140 O142 1.256 . S
O141 Cd133 2.381 . S
O141 C140 1.258 . S
O142 Cd133 2.378 . S
O142 C140 1.256 . S
O143 Cd144 2.300 . S
O143 C150 1.275 . S
Cd144 O143 2.300 . S
Cd144 O152 2.381 . S
Cd144 O153 2.378 1_554 S
O145 Cd146 2.385 1_554 S
O145 C150 1.255 . S
Cd146 O145 2.385 1_556 S
Cd146 O147 2.317 . S
O147 Cd146 2.317 . S
O147 C148 1.232 . S
C148 O147 1.232 . S
C148 O149 1.218 . S
O149 C148 1.218 . S
C150 O143 1.275 . S
C150 O145 1.255 . S
C151 O152 1.258 . S
C151 O153 1.256 1_554 S
O152 Cd144 2.381 . S
O152 C151 1.258 . S
O153 Cd144 2.378 1_556 S
O153 C151 1.256 1_556 S
O154 Cd155 2.300 1_545 S
O154 C161 1.275 . S
Cd155 O154 2.300 1_565 S
Cd155 O163 2.381 . S
Cd155 O164 2.378 . S
O156 Cd157 2.385 . S
O156 C161 1.255 . S
Cd157 O156 2.385 . S
Cd157 O158 2.317 . S
O158 Cd157 2.317 . S
O158 C159 1.232 . S
C159 O158 1.232 . S
C159 O160 1.218 . S
O160 C159 1.218 . S
C161 O154 1.275 . S
C161 O156 1.255 . S
C162 O163 1.258 . S
C162 O164 1.256 . S
O163 Cd155 2.381 . S
O163 C162 1.258 . S
O164 Cd155 2.378 . S
O164 C162 1.256 . S
O165 Cd166 2.300 1_556 S
O165 C172 1.275 . S
Cd166 O165 2.300 1_554 S
Cd166 O174 2.381 1_554 S
Cd166 O175 2.378 . S
O167 Cd168 2.385 1_556 S
O167 C172 1.255 . S
Cd168 O167 2.385 1_554 S
Cd168 O169 2.317 . S
O169 Cd168 2.317 . S
O169 C170 1.232 . S
C170 O169 1.232 . S
C170 O171 1.218 . S
O171 C170 1.218 . S
C172 O165 1.275 . S
C172 O167 1.255 . S
C173 O174 1.258 1_554 S
C173 O175 1.256 . S
O174 Cd166 2.381 1_556 S
O174 C173 1.258 1_556 S
O175 Cd166 2.378 . S
O175 C173 1.256 . S
H176 C188 0.930 . S
H177 C190 0.930 . S
H178 C191 0.930 . S
H179 C195 0.959 . S
H180 C195 0.959 . S
H181 C195 0.961 . S
H182 C196 0.960 . S
H183 C196 0.961 . S
H184 C196 0.959 . S
H185 C199 0.929 . S
H186 C200 0.931 . S
H187 C202 0.930 . S
C188 H176 0.930 . S
C188 C189 1.399 . S
C188 C193 1.399 . S
C189 C188 1.399 . S
C189 C190 1.376 . S
C190 H177 0.930 . S
C190 C189 1.376 . S
C190 C191 1.388 . S
C191 H178 0.930 . S
C191 C190 1.388 . S
C191 C192 1.390 . S
C192 C191 1.390 . S
C192 C193 1.394 . S
C192 C198 1.465 . S
C193 C188 1.399 . S
C193 C192 1.394 . S
C193 C194 1.516 . S
C194 C193 1.516 . S
C194 C195 1.502 . S
C194 C196 1.561 . S
C194 C197 1.526 . S
C195 H179 0.959 . S
C195 H180 0.959 . S
C195 H181 0.961 . S
C195 C194 1.502 . S
C196 H182 0.960 . S
C196 H183 0.961 . S
C196 H184 0.959 . S
C196 C194 1.561 . S
C197 C194 1.526 . S
C197 C198 1.396 . S
C197 C202 1.390 . S
C198 C192 1.465 . S
C198 C197 1.396 . S
C198 C199 1.399 . S
C199 H185 0.929 . S
C199 C198 1.399 . S
C199 C200 1.385 . S
C200 H186 0.931 . S
C200 C199 1.385 . S
C200 C201 1.389 . S
C201 C200 1.389 . S
C201 C202 1.387 . S
C202 H187 0.930 . S
C202 C197 1.390 . S
C202 C201 1.387 . S
H203 C215 0.930 . S
H204 C217 0.930 . S
H205 C218 0.930 . S
H206 C222 0.959 . S
H207 C222 0.959 . S
H208 C222 0.961 . S
H209 C223 0.960 . S
H210 C223 0.961 . S
H211 C223 0.959 . S
H212 C226 0.929 . S
H213 C227 0.931 . S
H214 C229 0.930 . S
C215 H203 0.930 . S
C215 C216 1.399 . S
C215 C220 1.399 . S
C216 C215 1.399 . S
C216 C217 1.376 . S
C217 H204 0.930 . S
C217 C216 1.376 . S
C217 C218 1.388 . S
C218 H205 0.930 . S
C218 C217 1.388 . S
C218 C219 1.390 . S
C219 C218 1.390 . S
C219 C220 1.394 . S
C219 C225 1.465 . S
C220 C215 1.399 . S
C220 C219 1.394 . S
C220 C221 1.516 . S
C221 C220 1.516 . S
C221 C222 1.502 . S
C221 C223 1.561 . S
C221 C224 1.526 . S
C222 H206 0.959 . S
C222 H207 0.959 . S
C222 H208 0.961 . S
C222 C221 1.502 . S
C223 H209 0.960 . S
C223 H210 0.961 . S
C223 H211 0.959 . S
C223 C221 1.561 . S
C224 C221 1.526 . S
C224 C225 1.396 . S
C224 C229 1.390 . S
C225 C219 1.465 . S
C225 C224 1.396 . S
C225 C226 1.399 . S
C226 H212 0.929 . S
C226 C225 1.399 . S
C226 C227 1.385 . S
C227 H213 0.931 . S
C227 C226 1.385 . S
C227 C228 1.389 . S
C228 C227 1.389 . S
C228 C229 1.387 . S
C229 H214 0.930 . S
C229 C224 1.390 . S
C229 C228 1.387 . S
H230 C242 0.930 . S
H231 C244 0.930 . S
H232 C245 0.930 . S
H233 C249 0.959 . S
H234 C249 0.959 . S
H235 C249 0.961 . S
H236 C250 0.960 . S
H237 C250 0.961 . S
H238 C250 0.959 . S
H239 C253 0.929 . S
H240 C254 0.931 . S
H241 C256 0.930 . S
C242 H230 0.930 . S
C242 C243 1.399 . S
C242 C247 1.399 . S
C243 C242 1.399 . S
C243 C244 1.376 . S
C244 H231 0.930 . S
C244 C243 1.376 . S
C244 C245 1.388 . S
C245 H232 0.930 . S
C245 C244 1.388 . S
C245 C246 1.390 . S
C246 C245 1.390 . S
C246 C247 1.394 . S
C246 C252 1.465 . S
C247 C242 1.399 . S
C247 C246 1.394 . S
C247 C248 1.516 . S
C248 C247 1.516 . S
C248 C249 1.502 . S
C248 C250 1.561 . S
C248 C251 1.526 . S
C249 H233 0.959 . S
C249 H234 0.959 . S
C249 H235 0.961 . S
C249 C248 1.502 . S
C250 H236 0.960 . S
C250 H237 0.961 . S
C250 H238 0.959 . S
C250 C248 1.561 . S
C251 C248 1.526 . S
C251 C252 1.396 . S
C251 C256 1.390 . S
C252 C246 1.465 . S
C252 C251 1.396 . S
C252 C253 1.399 . S
C253 H239 0.929 . S
C253 C252 1.399 . S
C253 C254 1.385 . S
C254 H240 0.931 . S
C254 C253 1.385 . S
C254 C255 1.389 . S
C255 C254 1.389 . S
C255 C256 1.387 . S
C256 H241 0.930 . S
C256 C251 1.390 . S
C256 C255 1.387 . S
H257 C269 0.930 . S
H258 C271 0.930 . S
H259 C272 0.930 . S
H260 C276 0.959 . S
H261 C276 0.959 . S
H262 C276 0.961 . S
H263 C277 0.960 . S
H264 C277 0.961 . S
H265 C277 0.959 . S
H266 C280 0.929 . S
H267 C281 0.931 . S
H268 C283 0.930 . S
C269 H257 0.930 . S
C269 C270 1.399 . S
C269 C274 1.399 . S
C270 C269 1.399 . S
C270 C271 1.376 . S
C271 H258 0.930 . S
C271 C270 1.376 . S
C271 C272 1.388 . S
C272 H259 0.930 . S
C272 C271 1.388 . S
C272 C273 1.390 . S
C273 C272 1.390 . S
C273 C274 1.394 . S
C273 C279 1.465 . S
C274 C269 1.399 . S
C274 C273 1.394 . S
C274 C275 1.516 . S
C275 C274 1.516 . S
C275 C276 1.502 . S
C275 C277 1.561 . S
C275 C278 1.526 . S
C276 H260 0.959 . S
C276 H261 0.959 . S
C276 H262 0.961 . S
C276 C275 1.502 . S
C277 H263 0.960 . S
C277 H264 0.961 . S
C277 H265 0.959 . S
C277 C275 1.561 . S
C278 C275 1.526 . S
C278 C279 1.396 . S
C278 C283 1.390 . S
C279 C273 1.465 . S
C279 C278 1.396 . S
C279 C280 1.399 . S
C280 H266 0.929 . S
C280 C279 1.399 . S
C280 C281 1.385 . S
C281 H267 0.931 . S
C281 C280 1.385 . S
C281 C282 1.389 . S
C282 C281 1.389 . S
C282 C283 1.387 . S
C283 H268 0.930 . S
C283 C278 1.390 . S
C283 C282 1.387 . S
H284 C296 0.930 . S
H285 C298 0.930 . S
H286 C299 0.930 . S
H287 C303 0.959 . S
H288 C303 0.959 . S
H289 C303 0.961 . S
H290 C304 0.960 . S
H291 C304 0.961 . S
H292 C304 0.959 . S
H293 C307 0.929 . S
H294 C308 0.931 . S
H295 C310 0.930 . S
C296 H284 0.930 . S
C296 C297 1.399 . S
C296 C301 1.399 . S
C297 C296 1.399 . S
C297 C298 1.376 . S
C298 H285 0.930 . S
C298 C297 1.376 . S
C298 C299 1.388 . S
C299 H286 0.930 . S
C299 C298 1.388 . S
C299 C300 1.390 . S
C300 C299 1.390 . S
C300 C301 1.394 . S
C300 C306 1.465 . S
C301 C296 1.399 . S
C301 C300 1.394 . S
C301 C302 1.516 . S
C302 C301 1.516 . S
C302 C303 1.502 . S
C302 C304 1.561 . S
C302 C305 1.526 . S
C303 H287 0.959 . S
C303 H288 0.959 . S
C303 H289 0.961 . S
C303 C302 1.502 . S
C304 H290 0.960 . S
C304 H291 0.961 . S
C304 H292 0.959 . S
C304 C302 1.561 . S
C305 C302 1.526 . S
C305 C306 1.396 . S
C305 C310 1.390 . S
C306 C300 1.465 . S
C306 C305 1.396 . S
C306 C307 1.399 . S
C307 H293 0.929 . S
C307 C306 1.399 . S
C307 C308 1.385 . S
C308 H294 0.931 . S
C308 C307 1.385 . S
C308 C309 1.389 . S
C309 C308 1.389 . S
C309 C310 1.387 . S
C310 H295 0.930 . S
C310 C305 1.390 . S
C310 C309 1.387 . S
H311 C323 0.930 . S
H312 C325 0.930 . S
H313 C326 0.930 . S
H314 C330 0.959 . S
H315 C330 0.959 . S
H316 C330 0.961 . S
H317 C331 0.960 . S
H318 C331 0.961 . S
H319 C331 0.959 . S
H320 C334 0.929 . S
H321 C335 0.931 . S
H322 C337 0.930 . S
C323 H311 0.930 . S
C323 C324 1.399 . S
C323 C328 1.399 . S
C324 C323 1.399 . S
C324 C325 1.376 . S
C325 H312 0.930 . S
C325 C324 1.376 . S
C325 C326 1.388 . S
C326 H313 0.930 . S
C326 C325 1.388 . S
C326 C327 1.390 . S
C327 C326 1.390 . S
C327 C328 1.394 . S
C327 C333 1.465 . S
C328 C323 1.399 . S
C328 C327 1.394 . S
C328 C329 1.516 . S
C329 C328 1.516 . S
C329 C330 1.502 . S
C329 C331 1.561 . S
C329 C332 1.526 . S
C330 H314 0.959 . S
C330 H315 0.959 . S
C330 H316 0.961 . S
C330 C329 1.502 . S
C331 H317 0.960 . S
C331 H318 0.961 . S
C331 H319 0.959 . S
C331 C329 1.561 . S
C332 C329 1.526 . S
C332 C333 1.396 . S
C332 C337 1.390 . S
C333 C327 1.465 . S
C333 C332 1.396 . S
C333 C334 1.399 . S
C334 H320 0.929 . S
C334 C333 1.399 . S
C334 C335 1.385 . S
C335 H321 0.931 . S
C335 C334 1.385 . S
C335 C336 1.389 . S
C336 C335 1.389 . S
C336 C337 1.387 . S
C337 H322 0.930 . S
C337 C332 1.390 . S
C337 C336 1.387 . S
H338 C350 0.930 . S
H339 C352 0.930 . S
H340 C353 0.930 . S
H341 C357 0.959 . S
H342 C357 0.959 . S
H343 C357 0.961 . S
H344 C358 0.960 . S
H345 C358 0.961 . S
H346 C358 0.959 . S
H347 C361 0.929 . S
H348 C362 0.931 . S
H349 C364 0.930 . S
C350 H338 0.930 . S
C350 C351 1.399 . S
C350 C355 1.399 . S
C351 C350 1.399 . S
C351 C352 1.376 . S
C352 H339 0.930 . S
C352 C351 1.376 . S
C352 C353 1.388 . S
C353 H340 0.930 . S
C353 C352 1.388 . S
C353 C354 1.390 . S
C354 C353 1.390 . S
C354 C355 1.394 . S
C354 C360 1.465 . S
C355 C350 1.399 . S
C355 C354 1.394 . S
C355 C356 1.516 . S
C356 C355 1.516 . S
C356 C357 1.502 . S
C356 C358 1.561 . S
C356 C359 1.526 . S
C357 H341 0.959 . S
C357 H342 0.959 . S
C357 H343 0.961 . S
C357 C356 1.502 . S
C358 H344 0.960 . S
C358 H345 0.961 . S
C358 H346 0.959 . S
C358 C356 1.561 . S
C359 C356 1.526 . S
C359 C360 1.396 . S
C359 C364 1.390 . S
C360 C354 1.465 . S
C360 C359 1.396 . S
C360 C361 1.399 . S
C361 H347 0.929 . S
C361 C360 1.399 . S
C361 C362 1.385 . S
C362 H348 0.931 . S
C362 C361 1.385 . S
C362 C363 1.389 . S
C363 C362 1.389 . S
C363 C364 1.387 . S
C364 H349 0.930 . S
C364 C359 1.390 . S
C364 C363 1.387 . S
H365 C377 0.930 . S
H366 C379 0.930 . S
H367 C380 0.930 . S
H368 C384 0.959 . S
H369 C384 0.959 . S
H370 C384 0.961 . S
H371 C385 0.960 . S
H372 C385 0.961 . S
H373 C385 0.959 . S
H374 C388 0.929 . S
H375 C389 0.931 . S
H376 C391 0.930 . S
C377 H365 0.930 . S
C377 C378 1.399 . S
C377 C382 1.399 . S
C378 C377 1.399 . S
C378 C379 1.376 . S
C379 H366 0.930 . S
C379 C378 1.376 . S
C379 C380 1.388 . S
C380 H367 0.930 . S
C380 C379 1.388 . S
C380 C381 1.390 . S
C381 C380 1.390 . S
C381 C382 1.394 . S
C381 C387 1.465 . S
C382 C377 1.399 . S
C382 C381 1.394 . S
C382 C383 1.516 . S
C383 C382 1.516 . S
C383 C384 1.502 . S
C383 C385 1.561 . S
C383 C386 1.526 . S
C384 H368 0.959 . S
C384 H369 0.959 . S
C384 H370 0.961 . S
C384 C383 1.502 . S
C385 H371 0.960 . S
C385 H372 0.961 . S
C385 H373 0.959 . S
C385 C383 1.561 . S
C386 C383 1.526 . S
C386 C387 1.396 . S
C386 C391 1.390 . S
C387 C381 1.465 . S
C387 C386 1.396 . S
C387 C388 1.399 . S
C388 H374 0.929 . S
C388 C387 1.399 . S
C388 C389 1.385 . S
C389 H375 0.931 . S
C389 C388 1.385 . S
C389 C390 1.389 . S
C390 C389 1.389 . S
C390 C391 1.387 . S
C391 H376 0.930 . S
C391 C386 1.390 . S
C391 C390 1.387 . S
H392 C404 0.930 . S
H393 C406 0.930 . S
H394 C407 0.930 . S
H395 C411 0.959 . S
H396 C411 0.959 . S
H397 C411 0.961 . S
H398 C412 0.960 . S
H399 C412 0.961 . S
H400 C412 0.959 . S
H401 C415 0.929 . S
H402 C416 0.931 . S
H403 C418 0.930 . S
C404 H392 0.930 . S
C404 C405 1.399 . S
C404 C409 1.399 . S
C405 C404 1.399 . S
C405 C406 1.376 . S
C406 H393 0.930 . S
C406 C405 1.376 . S
C406 C407 1.388 . S
C407 H394 0.930 . S
C407 C406 1.388 . S
C407 C408 1.390 . S
C408 C407 1.390 . S
C408 C409 1.394 . S
C408 C414 1.465 . S
C409 C404 1.399 . S
C409 C408 1.394 . S
C409 C410 1.516 . S
C410 C409 1.516 . S
C410 C411 1.502 . S
C410 C412 1.561 . S
C410 C413 1.526 . S
C411 H395 0.959 . S
C411 H396 0.959 . S
C411 H397 0.961 . S
C411 C410 1.502 . S
C412 H398 0.960 . S
C412 H399 0.961 . S
C412 H400 0.959 . S
C412 C410 1.561 . S
C413 C410 1.526 . S
C413 C414 1.396 . S
C413 C418 1.390 . S
C414 C408 1.465 . S
C414 C413 1.396 . S
C414 C415 1.399 . S
C415 H401 0.929 . S
C415 C414 1.399 . S
C415 C416 1.385 . S
C416 H402 0.931 . S
C416 C415 1.385 . S
C416 C417 1.389 . S
C417 C416 1.389 . S
C417 C418 1.387 . S
C418 H403 0.930 . S
C418 C413 1.390 . S
C418 C417 1.387 . S
H419 C431 0.930 . S
H420 C433 0.930 . S
H421 C434 0.930 . S
H422 C438 0.959 . S
H423 C438 0.959 . S
H424 C438 0.961 . S
H425 C439 0.960 . S
H426 C439 0.961 . S
H427 C439 0.959 . S
H428 C442 0.929 . S
H429 C443 0.931 . S
H430 C445 0.930 . S
C431 H419 0.930 . S
C431 C432 1.399 . S
C431 C436 1.399 . S
C432 C431 1.399 . S
C432 C433 1.376 . S
C433 H420 0.930 . S
C433 C432 1.376 . S
C433 C434 1.388 . S
C434 H421 0.930 . S
C434 C433 1.388 . S
C434 C435 1.390 . S
C435 C434 1.390 . S
C435 C436 1.394 . S
C435 C441 1.465 . S
C436 C431 1.399 . S
C436 C435 1.394 . S
C436 C437 1.516 . S
C437 C436 1.516 . S
C437 C438 1.502 . S
C437 C439 1.561 . S
C437 C440 1.526 . S
C438 H422 0.959 . S
C438 H423 0.959 . S
C438 H424 0.961 . S
C438 C437 1.502 . S
C439 H425 0.960 . S
C439 H426 0.961 . S
C439 H427 0.959 . S
C439 C437 1.561 . S
C440 C437 1.526 . S
C440 C441 1.396 . S
C440 C445 1.390 . S
C441 C435 1.465 . S
C441 C440 1.396 . S
C441 C442 1.399 . S
C442 H428 0.929 . S
C442 C441 1.399 . S
C442 C443 1.385 . S
C443 H429 0.931 . S
C443 C442 1.385 . S
C443 C444 1.389 . S
C444 C443 1.389 . S
C444 C445 1.387 . S
C445 H430 0.930 . S
C445 C440 1.390 . S
C445 C444 1.387 . S
H446 C458 0.930 . S
H447 C460 0.930 . S
H448 C461 0.930 . S
H449 C465 0.959 . S
H450 C465 0.959 . S
H451 C465 0.961 . S
H452 C466 0.960 . S
H453 C466 0.961 . S
H454 C466 0.959 . S
H455 C469 0.929 . S
H456 C470 0.931 . S
H457 C472 0.930 . S
C458 H446 0.930 . S
C458 C459 1.399 . S
C458 C463 1.399 . S
C459 C458 1.399 . S
C459 C460 1.376 . S
C460 H447 0.930 . S
C460 C459 1.376 . S
C460 C461 1.388 . S
C461 H448 0.930 . S
C461 C460 1.388 . S
C461 C462 1.390 . S
C462 C461 1.390 . S
C462 C463 1.394 . S
C462 C468 1.465 . S
C463 C458 1.399 . S
C463 C462 1.394 . S
C463 C464 1.516 . S
C464 C463 1.516 . S
C464 C465 1.502 . S
C464 C466 1.561 . S
C464 C467 1.526 . S
C465 H449 0.959 . S
C465 H450 0.959 . S
C465 H451 0.961 . S
C465 C464 1.502 . S
C466 H452 0.960 . S
C466 H453 0.961 . S
C466 H454 0.959 . S
C466 C464 1.561 . S
C467 C464 1.526 . S
C467 C468 1.396 . S
C467 C472 1.390 . S
C468 C462 1.465 . S
C468 C467 1.396 . S
C468 C469 1.399 . S
C469 H455 0.929 . S
C469 C468 1.399 . S
C469 C470 1.385 . S
C470 H456 0.931 . S
C470 C469 1.385 . S
C470 C471 1.389 . S
C471 C470 1.389 . S
C471 C472 1.387 . S
C472 H457 0.930 . S
C472 C467 1.390 . S
C472 C471 1.387 . S
H473 C485 0.930 . S
H474 C487 0.930 . S
H475 C488 0.930 . S
H476 C492 0.959 . S
H477 C492 0.959 . S
H478 C492 0.961 . S
H479 C493 0.960 . S
H480 C493 0.961 . S
H481 C493 0.959 . S
H482 C496 0.929 . S
H483 C497 0.931 . S
H484 C499 0.930 . S
C485 H473 0.930 . S
C485 C486 1.399 . S
C485 C490 1.399 . S
C486 C485 1.399 . S
C486 C487 1.376 . S
C487 H474 0.930 . S
C487 C486 1.376 . S
C487 C488 1.388 . S
C488 H475 0.930 . S
C488 C487 1.388 . S
C488 C489 1.390 . S
C489 C488 1.390 . S
C489 C490 1.394 . S
C489 C495 1.465 . S
C490 C485 1.399 . S
C490 C489 1.394 . S
C490 C491 1.516 . S
C491 C490 1.516 . S
C491 C492 1.502 . S
C491 C493 1.561 . S
C491 C494 1.526 . S
C492 H476 0.959 . S
C492 H477 0.959 . S
C492 H478 0.961 . S
C492 C491 1.502 . S
C493 H479 0.960 . S
C493 H480 0.961 . S
C493 H481 0.959 . S
C493 C491 1.561 . S
C494 C491 1.526 . S
C494 C495 1.396 . S
C494 C499 1.390 . S
C495 C489 1.465 . S
C495 C494 1.396 . S
C495 C496 1.399 . S
C496 H482 0.929 . S
C496 C495 1.399 . S
C496 C497 1.385 . S
C497 H483 0.931 . S
C497 C496 1.385 . S
C497 C498 1.389 . S
C498 C497 1.389 . S
C498 C499 1.387 . S
C499 H484 0.930 . S
C499 C494 1.390 . S
C499 C498 1.387 . S
H500 C512 0.930 . S
H501 C514 0.930 . S
H502 C515 0.930 . S
H503 C519 0.959 . S
H504 C519 0.959 . S
H505 C519 0.961 . S
H506 C520 0.960 . S
H507 C520 0.961 . S
H508 C520 0.959 . S
H509 C523 0.929 . S
H510 C524 0.931 . S
H511 C526 0.930 . S
C512 H500 0.930 . S
C512 C513 1.399 . S
C512 C517 1.399 . S
C513 C512 1.399 . S
C513 C514 1.376 . S
C514 H501 0.930 . S
C514 C513 1.376 . S
C514 C515 1.388 . S
C515 H502 0.930 . S
C515 C514 1.388 . S
C515 C516 1.390 . S
C516 C515 1.390 . S
C516 C517 1.394 . S
C516 C522 1.465 . S
C517 C512 1.399 . S
C517 C516 1.394 . S
C517 C518 1.516 . S
C518 C517 1.516 . S
C518 C519 1.502 . S
C518 C520 1.561 . S
C518 C521 1.526 . S
C519 H503 0.959 . S
C519 H504 0.959 . S
C519 H505 0.961 . S
C519 C518 1.502 . S
C520 H506 0.960 . S
C520 H507 0.961 . S
C520 H508 0.959 . S
C520 C518 1.561 . S
C521 C518 1.526 . S
C521 C522 1.396 . S
C521 C526 1.390 . S
C522 C516 1.465 . S
C522 C521 1.396 . S
C522 C523 1.399 . S
C523 H509 0.929 . S
C523 C522 1.399 . S
C523 C524 1.385 . S
C524 H510 0.931 . S
C524 C523 1.385 . S
C524 C525 1.389 . S
C525 C524 1.389 . S
C525 C526 1.387 . S
C526 H511 0.930 . S
C526 C521 1.390 . S
C526 C525 1.387 . S
H527 C539 0.930 . S
H528 C541 0.930 . S
H529 C542 0.930 . S
H530 C546 0.959 . S
H531 C546 0.959 . S
H532 C546 0.961 . S
H533 C547 0.960 . S
H534 C547 0.961 . S
H535 C547 0.959 . S
H536 C550 0.929 . S
H537 C551 0.931 . S
H538 C553 0.930 . S
C539 H527 0.930 . S
C539 C540 1.399 . S
C539 C544 1.399 . S
C540 C539 1.399 . S
C540 C541 1.376 . S
C541 H528 0.930 . S
C541 C540 1.376 . S
C541 C542 1.388 . S
C542 H529 0.930 . S
C542 C541 1.388 . S
C542 C543 1.390 . S
C543 C542 1.390 . S
C543 C544 1.394 . S
C543 C549 1.465 . S
C544 C539 1.399 . S
C544 C543 1.394 . S
C544 C545 1.516 . S
C545 C544 1.516 . S
C545 C546 1.502 . S
C545 C547 1.561 . S
C545 C548 1.526 . S
C546 H530 0.959 . S
C546 H531 0.959 . S
C546 H532 0.961 . S
C546 C545 1.502 . S
C547 H533 0.960 . S
C547 H534 0.961 . S
C547 H535 0.959 . S
C547 C545 1.561 . S
C548 C545 1.526 . S
C548 C549 1.396 . S
C548 C553 1.390 . S
C549 C543 1.465 . S
C549 C548 1.396 . S
C549 C550 1.399 . S
C550 H536 0.929 . S
C550 C549 1.399 . S
C550 C551 1.385 . S
C551 H537 0.931 . S
C551 C550 1.385 . S
C551 C552 1.389 . S
C552 C551 1.389 . S
C552 C553 1.387 . S
C553 H538 0.930 . S
C553 C548 1.390 . S
C553 C552 1.387 . S
H554 C566 0.930 . S
H555 C568 0.930 . S
H556 C569 0.930 . S
H557 C573 0.959 . S
H558 C573 0.959 . S
H559 C573 0.961 . S
H560 C574 0.960 . S
H561 C574 0.961 . S
H562 C574 0.959 . S
H563 C577 0.929 . S
H564 C578 0.931 . S
H565 C580 0.930 . S
C566 H554 0.930 . S
C566 C567 1.399 . S
C566 C571 1.399 . S
C567 C566 1.399 . S
C567 C568 1.376 . S
C568 H555 0.930 . S
C568 C567 1.376 . S
C568 C569 1.388 . S
C569 H556 0.930 . S
C569 C568 1.388 . S
C569 C570 1.390 . S
C570 C569 1.390 . S
C570 C571 1.394 . S
C570 C576 1.465 . S
C571 C566 1.399 . S
C571 C570 1.394 . S
C571 C572 1.516 . S
C572 C571 1.516 . S
C572 C573 1.502 . S
C572 C574 1.561 . S
C572 C575 1.526 . S
C573 H557 0.959 . S
C573 H558 0.959 . S
C573 H559 0.961 . S
C573 C572 1.502 . S
C574 H560 0.960 . S
C574 H561 0.961 . S
C574 H562 0.959 . S
C574 C572 1.561 . S
C575 C572 1.526 . S
C575 C576 1.396 . S
C575 C580 1.390 . S
C576 C570 1.465 . S
C576 C575 1.396 . S
C576 C577 1.399 . S
C577 H563 0.929 . S
C577 C576 1.399 . S
C577 C578 1.385 . S
C578 H564 0.931 . S
C578 C577 1.385 . S
C578 C579 1.389 . S
C579 C578 1.389 . S
C579 C580 1.387 . S
C580 H565 0.930 . S
C580 C575 1.390 . S
C580 C579 1.387 . S
H581 C593 0.930 . S
H582 C595 0.930 . S
H583 C596 0.930 . S
H584 C600 0.959 . S
H585 C600 0.959 . S
H586 C600 0.961 . S
H587 C601 0.960 . S
H588 C601 0.961 . S
H589 C601 0.959 . S
H590 C604 0.929 . S
H591 C605 0.931 . S
H592 C607 0.930 . S
C593 H581 0.930 . S
C593 C594 1.399 . S
C593 C598 1.399 . S
C594 C593 1.399 . S
C594 C595 1.376 . S
C595 H582 0.930 . S
C595 C594 1.376 . S
C595 C596 1.388 . S
C596 H583 0.930 . S
C596 C595 1.388 . S
C596 C597 1.390 . S
C597 C596 1.390 . S
C597 C598 1.394 . S
C597 C603 1.465 . S
C598 C593 1.399 . S
C598 C597 1.394 . S
C598 C599 1.516 . S
C599 C598 1.516 . S
C599 C600 1.502 . S
C599 C601 1.561 . S
C599 C602 1.526 . S
C600 H584 0.959 . S
C600 H585 0.959 . S
C600 H586 0.961 . S
C600 C599 1.502 . S
C601 H587 0.960 . S
C601 H588 0.961 . S
C601 H589 0.959 . S
C601 C599 1.561 . S
C602 C599 1.526 . S
C602 C603 1.396 . S
C602 C607 1.390 . S
C603 C597 1.465 . S
C603 C602 1.396 . S
C603 C604 1.399 . S
C604 H590 0.929 . S
C604 C603 1.399 . S
C604 C605 1.385 . S
C605 H591 0.931 . S
C605 C604 1.385 . S
C605 C606 1.389 . S
C606 C605 1.389 . S
C606 C607 1.387 . S
C607 H592 0.930 . S
C607 C602 1.390 . S
C607 C606 1.387 . S
H608 C620 0.930 . S
H609 C622 0.930 . S
H610 C623 0.930 . S
H611 C627 0.955 1_554 S
H612 C627 0.961 . S
H613 C627 0.962 . S
H614 C628 0.960 . S
H615 C628 0.961 . S
H616 C628 0.959 . S
H617 C631 0.929 . S
H618 C632 0.931 . S
H619 C634 0.930 . S
C620 H608 0.930 . S
C620 C621 1.399 1_556 S
C620 C625 1.399 . S
C621 C620 1.399 1_554 S
C621 C622 1.376 . S
C622 H609 0.930 . S
C622 C621 1.376 . S
C622 C623 1.388 . S
C623 H610 0.930 . S
C623 C622 1.388 . S
C623 C624 1.390 . S
C624 C623 1.390 . S
C624 C625 1.394 1_554 S
C624 C630 1.465 . S
C625 C620 1.399 . S
C625 C624 1.394 1_556 S
C625 C626 1.516 . S
C626 C625 1.516 . S
C626 C627 1.503 . S
C626 C628 1.561 . S
C626 C629 1.526 . S
C627 H611 0.955 1_556 S
C627 H612 0.961 . S
C627 H613 0.962 . S
C627 C626 1.503 . S
C628 H614 0.960 . S
C628 H615 0.961 . S
C628 H616 0.959 . S
C628 C626 1.561 . S
C629 C626 1.526 . S
C629 C630 1.396 1_556 S
C629 C634 1.390 . S
C630 C624 1.465 . S
C630 C629 1.396 1_554 S
C630 C631 1.399 . S
C631 H617 0.929 . S
C631 C630 1.399 . S
C631 C632 1.385 . S
C632 H618 0.931 . S
C632 C631 1.385 . S
C632 C633 1.389 . S
C633 C632 1.389 . S
C633 C634 1.387 1_554 S
C634 H619 0.930 . S
C634 C629 1.390 . S
C634 C633 1.387 1_556 S
H635 C647 0.930 . S
H636 C649 0.930 . S
H637 C650 0.930 . S
H638 C654 0.959 . S
H639 C654 0.959 . S
H640 C654 0.961 . S
H641 C655 0.960 . S
H642 C655 0.961 . S
H643 C655 0.959 . S
H644 C658 0.929 . S
H645 C659 0.931 . S
H646 C661 0.930 . S
C647 H635 0.930 . S
C647 C648 1.399 . S
C647 C652 1.399 . S
C648 C647 1.399 . S
C648 C649 1.376 . S
C649 H636 0.930 . S
C649 C648 1.376 . S
C649 C650 1.388 . S
C650 H637 0.930 . S
C650 C649 1.388 . S
C650 C651 1.390 . S
C651 C650 1.390 . S
C651 C652 1.394 . S
C651 C657 1.465 . S
C652 C647 1.399 . S
C652 C651 1.394 . S
C652 C653 1.516 . S
C653 C652 1.516 . S
C653 C654 1.502 . S
C653 C655 1.561 . S
C653 C656 1.526 . S
C654 H638 0.959 . S
C654 H639 0.959 . S
C654 H640 0.961 . S
C654 C653 1.502 . S
C655 H641 0.960 . S
C655 H642 0.961 . S
C655 H643 0.959 . S
C655 C653 1.561 . S
C656 C653 1.526 . S
C656 C657 1.396 . S
C656 C661 1.390 . S
C657 C651 1.465 . S
C657 C656 1.396 . S
C657 C658 1.399 . S
C658 H644 0.929 . S
C658 C657 1.399 . S
C658 C659 1.385 . S
C659 H645 0.931 . S
C659 C658 1.385 . S
C659 C660 1.389 . S
C660 C659 1.389 . S
C660 C661 1.387 . S
C661 H646 0.930 . S
C661 C656 1.390 . S
C661 C660 1.387 . S
H662 C674 0.930 . S
H663 C676 0.930 . S
H664 C677 0.930 . S
H665 C681 0.959 . S
H666 C681 0.959 . S
H667 C681 0.961 . S
H668 C682 0.960 . S
H669 C682 0.961 . S
H670 C682 0.959 1_554 S
H671 C685 0.929 . S
H672 C686 0.931 . S
H673 C688 0.933 . S
C674 H662 0.930 . S
C674 C675 1.399 1_556 S
C674 C679 1.399 1_556 S
C675 C674 1.399 1_554 S
C675 C676 1.376 . S
C676 H663 0.930 . S
C676 C675 1.376 . S
C676 C677 1.388 . S
C677 H664 0.930 . S
C677 C676 1.388 . S
C677 C678 1.390 . S
C678 C677 1.390 . S
C678 C679 1.394 . S
C678 C684 1.465 . S
C679 C674 1.399 1_554 S
C679 C678 1.394 . S
C679 C680 1.516 1_554 S
C680 C679 1.516 1_556 S
C680 C681 1.502 . S
C680 C682 1.561 . S
C680 C683 1.526 1_556 S
C681 H665 0.959 . S
C681 H666 0.959 . S
C681 H667 0.961 . S
C681 C680 1.502 . S
C682 H668 0.960 . S
C682 H669 0.961 . S
C682 H670 0.959 1_556 S
C682 C680 1.561 . S
C683 C680 1.526 1_554 S
C683 C684 1.396 . S
C683 C688 1.388 1_554 S
C684 C678 1.465 . S
C684 C683 1.396 . S
C684 C685 1.399 . S
C685 H671 0.929 . S
C685 C684 1.399 . S
C685 C686 1.385 . S
C686 H672 0.931 . S
C686 C685 1.385 . S
C686 C687 1.389 . S
C687 C686 1.389 . S
C687 C688 1.384 1_554 S
C688 H673 0.933 . S
C688 C683 1.388 1_556 S
C688 C687 1.384 1_556 S
H689 C701 0.930 . S
H690 C703 0.930 . S
H691 C704 0.930 . S
H692 C708 0.959 . S
H693 C708 0.959 . S
H694 C708 0.961 . S
H695 C709 0.960 . S
H696 C709 0.961 . S
H697 C709 0.959 . S
H698 C712 0.929 . S
H699 C713 0.931 . S
H700 C715 0.930 . S
C701 H689 0.930 . S
C701 C702 1.399 . S
C701 C706 1.399 . S
C702 C701 1.399 . S
C702 C703 1.376 . S
C703 H690 0.930 . S
C703 C702 1.376 . S
C703 C704 1.388 . S
C704 H691 0.930 . S
C704 C703 1.388 . S
C704 C705 1.390 . S
C705 C704 1.390 . S
C705 C706 1.394 . S
C705 C711 1.465 . S
C706 C701 1.399 . S
C706 C705 1.394 . S
C706 C707 1.516 . S
C707 C706 1.516 . S
C707 C708 1.502 . S
C707 C709 1.561 . S
C707 C710 1.526 . S
C708 H692 0.959 . S
C708 H693 0.959 . S
C708 H694 0.961 . S
C708 C707 1.502 . S
C709 H695 0.960 . S
C709 H696 0.961 . S
C709 H697 0.959 . S
C709 C707 1.561 . S
C710 C707 1.526 . S
C710 C711 1.396 . S
C710 C715 1.390 . S
C711 C705 1.465 . S
C711 C710 1.396 . S
C711 C712 1.399 . S
C712 H698 0.929 . S
C712 C711 1.399 . S
C712 C713 1.385 . S
C713 H699 0.931 . S
C713 C712 1.385 . S
C713 C714 1.389 . S
C714 C713 1.389 . S
C714 C715 1.387 . S
C715 H700 0.930 . S
C715 C710 1.390 . S
C715 C714 1.387 . S
H716 C728 0.930 . S
H717 C730 0.930 . S
H718 C731 0.930 . S
H719 C735 0.959 . S
H720 C735 0.959 . S
H721 C735 0.961 . S
H722 C736 0.960 . S
H723 C736 0.961 . S
H724 C736 0.959 . S
H725 C739 0.929 . S
H726 C740 0.931 . S
H727 C742 0.930 . S
C728 H716 0.930 . S
C728 C729 1.399 . S
C728 C733 1.399 . S
C729 C728 1.399 . S
C729 C730 1.376 . S
C730 H717 0.930 . S
C730 C729 1.376 . S
C730 C731 1.388 . S
C731 H718 0.930 . S
C731 C730 1.388 . S
C731 C732 1.390 . S
C732 C731 1.390 . S
C732 C733 1.394 . S
C732 C738 1.465 . S
C733 C728 1.399 . S
C733 C732 1.394 . S
C733 C734 1.516 . S
C734 C733 1.516 . S
C734 C735 1.502 . S
C734 C736 1.561 . S
C734 C737 1.526 . S
C735 H719 0.959 . S
C735 H720 0.959 . S
C735 H721 0.961 . S
C735 C734 1.502 . S
C736 H722 0.960 . S
C736 H723 0.961 . S
C736 H724 0.959 . S
C736 C734 1.561 . S
C737 C734 1.526 . S
C737 C738 1.396 . S
C737 C742 1.390 . S
C738 C732 1.465 . S
C738 C737 1.396 . S
C738 C739 1.399 . S
C739 H725 0.929 . S
C739 C738 1.399 . S
C739 C740 1.385 . S
C740 H726 0.931 . S
C740 C739 1.385 . S
C740 C741 1.389 . S
C741 C740 1.389 . S
C741 C742 1.387 . S
C742 H727 0.930 . S
C742 C737 1.390 . S
C742 C741 1.387 . S
H743 C755 0.930 . S
H744 C757 0.930 . S
H745 C758 0.930 . S
H746 C762 0.959 . S
H747 C762 0.959 . S
H748 C762 0.961 . S
H749 C763 0.960 . S
H750 C763 0.961 . S
H751 C763 0.959 . S
H752 C766 0.929 . S
H753 C767 0.931 . S
H754 C769 0.930 . S
C755 H743 0.930 . S
C755 C756 1.399 . S
C755 C760 1.399 . S
C756 C755 1.399 . S
C756 C757 1.376 1_554 S
C757 H744 0.930 . S
C757 C756 1.376 1_556 S
C757 C758 1.388 . S
C758 H745 0.930 . S
C758 C757 1.388 . S
C758 C759 1.390 . S
C759 C758 1.390 . S
C759 C760 1.394 1_556 S
C759 C765 1.465 . S
C760 C755 1.399 . S
C760 C759 1.394 1_554 S
C760 C761 1.516 . S
C761 C760 1.516 . S
C761 C762 1.502 . S
C761 C763 1.561 . S
C761 C764 1.526 . S
C762 H746 0.959 . S
C762 H747 0.959 . S
C762 H748 0.961 . S
C762 C761 1.502 . S
C763 H749 0.960 . S
C763 H750 0.961 . S
C763 H751 0.959 . S
C763 C761 1.561 . S
C764 C761 1.526 . S
C764 C765 1.396 1_554 S
C764 C769 1.390 . S
C765 C759 1.465 . S
C765 C764 1.396 1_556 S
C765 C766 1.399 . S
C766 H752 0.929 . S
C766 C765 1.399 . S
C766 C767 1.385 . S
C767 H753 0.931 . S
C767 C766 1.385 . S
C767 C768 1.389 1_556 S
C768 C767 1.389 1_554 S
C768 C769 1.387 . S
C769 H754 0.930 . S
C769 C764 1.390 . S
C769 C768 1.387 . S
H770 C782 0.930 . S
H771 C784 0.930 . S
H772 C785 0.930 . S
H773 C789 0.959 . S
H774 C789 0.959 . S
H775 C789 0.961 . S
H776 C790 0.960 . S
H777 C790 0.961 . S
H778 C790 0.959 . S
H779 C793 0.929 . S
H780 C794 0.931 . S
H781 C796 0.930 . S
C782 H770 0.930 . S
C782 C783 1.399 . S
C782 C787 1.399 . S
C783 C782 1.399 . S
C783 C784 1.376 . S
C784 H771 0.930 . S
C784 C783 1.376 . S
C784 C785 1.388 . S
C785 H772 0.930 . S
C785 C784 1.388 . S
C785 C786 1.390 . S
C786 C785 1.390 . S
C786 C787 1.394 . S
C786 C792 1.465 . S
C787 C782 1.399 . S
C787 C786 1.394 . S
C787 C788 1.516 . S
C788 C787 1.516 . S
C788 C789 1.502 . S
C788 C790 1.561 . S
C788 C791 1.526 . S
C789 H773 0.959 . S
C789 H774 0.959 . S
C789 H775 0.961 . S
C789 C788 1.502 . S
C790 H776 0.960 . S
C790 H777 0.961 . S
C790 H778 0.959 . S
C790 C788 1.561 . S
C791 C788 1.526 . S
C791 C792 1.396 . S
C791 C796 1.390 . S
C792 C786 1.465 . S
C792 C791 1.396 . S
C792 C793 1.399 . S
C793 H779 0.929 . S
C793 C792 1.399 . S
C793 C794 1.385 . S
C794 H780 0.931 . S
C794 C793 1.385 . S
C794 C795 1.389 . S
C795 C794 1.389 . S
C795 C796 1.387 . S
C796 H781 0.930 . S
C796 C791 1.390 . S
C796 C795 1.387 . S
H797 C809 0.930 . S
H798 C811 0.930 . S
H799 C812 0.930 . S
H800 C816 0.959 . S
H801 C816 0.959 . S
H802 C816 0.961 . S
H803 C817 0.960 . S
H804 C817 0.961 . S
H805 C817 0.959 . S
H806 C820 0.929 . S
H807 C821 0.931 . S
H808 C823 0.930 . S
C809 H797 0.930 . S
C809 C810 1.399 1_556 S
C809 C814 1.399 . S
C810 C809 1.399 1_554 S
C810 C811 1.376 . S
C811 H798 0.930 . S
C811 C810 1.376 . S
C811 C812 1.388 . S
C812 H799 0.930 . S
C812 C811 1.388 . S
C812 C813 1.390 . S
C813 C812 1.390 . S
C813 C814 1.394 1_554 S
C813 C819 1.465 . S
C814 C809 1.399 . S
C814 C813 1.394 1_556 S
C814 C815 1.516 . S
C815 C814 1.516 . S
C815 C816 1.502 . S
C815 C817 1.561 . S
C815 C818 1.526 . S
C816 H800 0.959 . S
C816 H801 0.959 . S
C816 H802 0.961 . S
C816 C815 1.502 . S
C817 H803 0.960 . S
C817 H804 0.961 . S
C817 H805 0.959 . S
C817 C815 1.561 . S
C818 C815 1.526 . S
C818 C819 1.396 1_556 S
C818 C823 1.390 . S
C819 C813 1.465 . S
C819 C818 1.396 1_554 S
C819 C820 1.399 . S
C820 H806 0.929 . S
C820 C819 1.399 . S
C820 C821 1.385 . S
C821 H807 0.931 . S
C821 C820 1.385 . S
C821 C822 1.389 . S
C822 C821 1.389 . S
C822 C823 1.387 1_554 S
C823 H808 0.930 . S
C823 C818 1.390 . S
C823 C822 1.387 1_556 S
C189 C21 1.480 . S
C201 C126 1.322 . S
C216 C40 1.561 . S
C228 C95 1.479 . S
C255 C106 1.475 . S
C243 C54 1.483 . S
C270 C73 1.525 . S
C282 C115 1.398 . S
C309 C150 1.506 . S
C297 C74 1.499 . S
C336 C159 1.445 . S
C324 C10 1.515 . S
C363 C170 1.300 . S
C351 C37 1.449 . S
C390 C139 1.451 . S
C378 C65 1.553 . S
C405 C52 1.428 . S
C417 C104 1.235 . S
C432 C87 1.600 . S
C444 C117 1.568 . S
C459 C15 1.489 . S
C471 C128 1.510 . S
C498 C93 1.229 . S
C486 C32 1.472 . S
C513 C29 1.559 . S
C525 C172 1.469 . S
C552 C137 1.252 . S
C540 C59 1.549 . S
C579 C148 1.229 . S
C567 C84 1.403 . S
C594 C8 1.528 . S
C606 C161 1.517 . S
C633 C96 1.576 . S
C621 C7 1.595 . S
C660 C107 1.518 . S
C648 C30 1.508 . S
C675 C62 1.595 . S
C687 C118 1.594 . S
C702 C81 1.499 . S
C714 C129 1.535 . S
C741 C140 1.526 . S
C729 C76 1.598 . S
C756 C18 1.519 . S
C768 C151 1.522 . S
C783 C43 1.595 . S
C795 C162 1.594 . S
C810 C51 1.508 . S
C822 C173 1.520 . S
