# Generated by pormake.
# Topology ant, (3,6)-cn, num edge types: 1
# Building blocks:
#     Node 0, Type 0, BuildingBlock: WUSLED_clean_sbu_0, # of connection points: 3
#     Node 1, Type 0, BuildingBlock: WUSLED_clean_sbu_0, # of connection points: 3
#     Node 2, Type 0, BuildingBlock: WUSLED_clean_sbu_0, # of connection points: 3
#     Node 3, Type 0, BuildingBlock: WUSLED_clean_sbu_0, # of connection points: 3
#     Node 4, Type 0, BuildingBlock: WUSLED_clean_sbu_0, # of connection points: 3
#     Node 5, Type 0, BuildingBlock: WUSLED_clean_sbu_0, # of connection points: 3
#     Node 6, Type 0, BuildingBlock: WUSLED_clean_sbu_0, # of connection points: 3
#     Node 7, Type 0, BuildingBlock: WUSLED_clean_sbu_0, # of connection points: 3
#     Node 8, Type 1, BuildingBlock: MIDCAF_clean_sbu_0, # of connection points: 6
#     Node 9, Type 1, BuildingBlock: MIDCAF_clean_sbu_0, # of connection points: 6
#     Node 10, Type 1, BuildingBlock: MIDCAF_clean_sbu_0, # of connection points: 6
#     Node 11, Type 1, BuildingBlock: MIDCAF_clean_sbu_0, # of connection points: 6
#     Edge 12, Type (0, 1), BuildingBlock: MIFKUJ_clean_linker_0, # of connection points: 2
#     Edge 13, Type (0, 1), BuildingBlock: MIFKUJ_clean_linker_0, # of connection points: 2
#     Edge 14, Type (0, 1), BuildingBlock: MIFKUJ_clean_linker_0, # of connection points: 2
#     Edge 15, Type (0, 1), BuildingBlock: MIFKUJ_clean_linker_0, # of connection points: 2
#     Edge 16, Type (0, 1), BuildingBlock: MIFKUJ_clean_linker_0, # of connection points: 2
#     Edge 17, Type (0, 1), BuildingBlock: MIFKUJ_clean_linker_0, # of connection points: 2
#     Edge 18, Type (0, 1), BuildingBlock: MIFKUJ_clean_linker_0, # of connection points: 2
#     Edge 19, Type (0, 1), BuildingBlock: MIFKUJ_clean_linker_0, # of connection points: 2
#     Edge 20, Type (0, 1), BuildingBlock: MIFKUJ_clean_linker_0, # of connection points: 2
#     Edge 21, Type (0, 1), BuildingBlock: MIFKUJ_clean_linker_0, # of connection points: 2
#     Edge 22, Type (0, 1), BuildingBlock: MIFKUJ_clean_linker_0, # of connection points: 2
#     Edge 23, Type (0, 1), BuildingBlock: MIFKUJ_clean_linker_0, # of connection points: 2
#     Edge 24, Type (0, 1), BuildingBlock: MIFKUJ_clean_linker_0, # of connection points: 2
#     Edge 25, Type (0, 1), BuildingBlock: MIFKUJ_clean_linker_0, # of connection points: 2
#     Edge 26, Type (0, 1), BuildingBlock: MIFKUJ_clean_linker_0, # of connection points: 2
#     Edge 27, Type (0, 1), BuildingBlock: MIFKUJ_clean_linker_0, # of connection points: 2
#     Edge 28, Type (0, 1), BuildingBlock: MIFKUJ_clean_linker_0, # of connection points: 2
#     Edge 29, Type (0, 1), BuildingBlock: MIFKUJ_clean_linker_0, # of connection points: 2
#     Edge 30, Type (0, 1), BuildingBlock: MIFKUJ_clean_linker_0, # of connection points: 2
#     Edge 31, Type (0, 1), BuildingBlock: MIFKUJ_clean_linker_0, # of connection points: 2
#     Edge 32, Type (0, 1), BuildingBlock: MIFKUJ_clean_linker_0, # of connection points: 2
#     Edge 33, Type (0, 1), BuildingBlock: MIFKUJ_clean_linker_0, # of connection points: 2
#     Edge 34, Type (0, 1), BuildingBlock: MIFKUJ_clean_linker_0, # of connection points: 2
#     Edge 35, Type (0, 1), BuildingBlock: MIFKUJ_clean_linker_0, # of connection points: 2
# Relax obj value: 0.097
# Max RMSD: 0.155
# Mean RMSD: 0.099
data_MOF--net-ant--node1-WUSLED_clean_sbu_0--node2-MIDCAF_clean_sbu_0--edge1-MIFKUJ_clean_linker_0
_symmetry_space_group_name_H-M    P1
_symmetry_Int_Tables_number       1
_symmetry_cell_setting            triclinic
loop_
_symmetry_equiv_pos_as_xyz
'x, y, z'
_cell_length_a     44.834751
_cell_length_b     44.49991
_cell_length_c     121.5974
_cell_angle_alpha  89.9175
_cell_angle_beta   94.00794
_cell_angle_gamma 89.650931
loop_
_atom_site_label
_atom_site_type_symbol
_atom_site_fract_x
_atom_site_fract_y
_atom_site_fract_z
_atom_type_partial_charge
C0 C 0.19572 0.18124 0.09132 0.0
C1 C 0.18558 0.15722 0.08462 0.0
C2 C 0.20208 0.12131 0.09898 0.0
C3 C 0.18862 0.12761 0.08842 0.0
C4 C 0.21258 0.14544 0.10563 0.0
C5 C 0.20935 0.17516 0.10183 0.0
U6 U 0.18399 0.23393 0.06712 0.0
O7 O 0.15664 0.27477 0.06425 0.0
O8 O 0.20524 0.27673 0.06302 0.0
C9 C 0.17987 0.29179 0.06271 0.0
C10 C 0.19272 0.21243 0.08721 0.0
C11 C 0.18058 0.32185 0.0679 0.0
C12 C 0.16651 0.35721 0.08196 0.0
C13 C 0.16746 0.32776 0.07784 0.0
C14 C 0.19219 0.375 0.06637 0.0
C15 C 0.17868 0.38128 0.07622 0.0
C16 C 0.1931 0.34568 0.06228 0.0
C17 C 0.17669 0.19411 0.0387 0.0
C18 C 0.15072 0.2079 0.02114 0.0
C19 C 0.1929 0.17356 0.02156 0.0
C20 C 0.19602 0.17576 0.03304 0.0
C21 C 0.1702 0.18957 0.01547 0.0
C22 C 0.15398 0.21025 0.03266 0.0
C23 C 0.18028 0.19496 0.05086 0.0
O24 O 0.21461 0.22161 0.08142 0.0
O25 O 0.16614 0.2198 0.08271 0.0
O26 O 0.15711 0.2038 0.05611 0.0
O27 O 0.20576 0.20564 0.05514 0.0
H28 H 0.17537 0.16137 0.07641 0.0
H29 H 0.18074 0.10958 0.08301 0.0
H30 H 0.22291 0.14137 0.11382 0.0
H31 H 0.21748 0.19338 0.1071 0.0
H32 H 0.15626 0.36112 0.08963 0.0
H33 H 0.15763 0.30975 0.08234 0.0
H34 H 0.20138 0.39288 0.06162 0.0
H35 H 0.20308 0.34171 0.05454 0.0
H36 H 0.13323 0.22077 0.01667 0.0
H37 H 0.20806 0.15902 0.01746 0.0
H38 H 0.21352 0.16291 0.03754 0.0
H39 H 0.13876 0.22461 0.03681 0.0
C40 C 0.17575 0.79482 0.341 0.0
C41 C 0.19797 0.79142 0.33351 0.0
C42 C 0.23687 0.80036 0.34816 0.0
C43 C 0.2282 0.79409 0.33705 0.0
C44 C 0.21447 0.80422 0.3556 0.0
C45 C 0.18418 0.8014 0.35205 0.0
U46 U 0.11654 0.78628 0.31759 0.0
O47 O 0.07786 0.75612 0.3152 0.0
O48 O 0.07117 0.80506 0.31459 0.0
C49 C 0.0586 0.77845 0.31396 0.0
C50 C 0.14395 0.7912 0.3373 0.0
C51 C 0.03013 0.77504 0.31914 0.0
C52 C 0.99973 0.77587 0.33494 0.0
C53 C 0.02767 0.77872 0.3305 0.0
C54 C 0.97678 0.76555 0.31672 0.0
C55 C 0.97391 0.76925 0.32808 0.0
C56 C 1.00456 0.76838 0.31232 0.0
C57 C 0.14073 0.7864 0.28831 0.0
C58 C 0.1085 0.76855 0.27281 0.0
C59 C 0.15304 0.79689 0.26956 0.0
C60 C 0.15959 0.79938 0.28094 0.0
C61 C 0.12756 0.78122 0.26538 0.0
C62 C 0.11494 0.77126 0.28418 0.0
C63 C 0.1481 0.78881 0.30025 0.0
O64 O 0.13159 0.81418 0.33186 0.0
O65 O 0.13717 0.76522 0.33265 0.0
O66 O 0.14473 0.76405 0.30593 0.0
O67 O 0.13754 0.81281 0.30495 0.0
H68 H 0.1919 0.78654 0.32492 0.0
H69 H 0.2448 0.79141 0.33107 0.0
H70 H 0.22036 0.80879 0.36423 0.0
H71 H 0.16735 0.8041 0.35796 0.0
H72 H 0.99839 0.77862 0.34374 0.0
H73 H 0.04724 0.78386 0.33588 0.0
H74 H 0.95742 0.76102 0.31115 0.0
H75 H 1.00602 0.76562 0.30352 0.0
H76 H 0.08855 0.75664 0.26983 0.0
H77 H 0.16828 0.80664 0.26403 0.0
H78 H 0.17952 0.81123 0.28398 0.0
H79 H 0.0999 0.76138 0.28976 0.0
C80 C 0.70687 0.67868 0.59053 0.0
C81 C 0.70959 0.65518 0.58297 0.0
C82 C 0.71585 0.61878 0.59799 0.0
C83 C 0.71406 0.62559 0.58665 0.0
C84 C 0.71313 0.64247 0.60555 0.0
C85 C 0.70871 0.67215 0.60184 0.0
U86 U 0.69076 0.73054 0.56642 0.0
O87 O 0.66018 0.76914 0.56356 0.0
O88 O 0.70833 0.7748 0.56207 0.0
C89 C 0.68186 0.7878 0.56167 0.0
C90 C 0.70153 0.70971 0.58653 0.0
C91 C 0.68025 0.81802 0.56658 0.0
C92 C 0.68211 0.85216 0.58224 0.0
C93 C 0.68389 0.82289 0.57799 0.0
C94 C 0.67305 0.87178 0.56372 0.0
C95 C 0.67658 0.87701 0.57514 0.0
C96 C 0.67486 0.84266 0.55951 0.0
C97 C 0.68385 0.69013 0.5383 0.0
C98 C 0.67286 0.71479 0.52063 0.0
C99 C 0.68035 0.66083 0.52143 0.0
C100 C 0.68515 0.66243 0.53289 0.0
C101 C 0.67412 0.68698 0.51515 0.0
C102 C 0.67771 0.71635 0.53213 0.0
C103 C 0.68884 0.69093 0.55036 0.0
O104 O 0.72247 0.72069 0.58064 0.0
O105 O 0.6744 0.71505 0.58212 0.0
O106 O 0.66552 0.69824 0.55578 0.0
O107 O 0.71361 0.70391 0.55426 0.0
H108 H 0.70801 0.65971 0.57419 0.0
H109 H 0.7155 0.60795 0.58058 0.0
H110 H 0.71463 0.63811 0.61433 0.0
H111 H 0.70663 0.68998 0.6078 0.0
H112 H 0.68468 0.85527 0.59108 0.0
H113 H 0.68802 0.80412 0.58359 0.0
H114 H 0.6693 0.89028 0.55798 0.0
H115 H 0.67211 0.83938 0.55067 0.0
H116 H 0.66848 0.7354 0.51604 0.0
H117 H 0.68107 0.63903 0.51751 0.0
H118 H 0.68977 0.64195 0.53755 0.0
H119 H 0.67669 0.73796 0.53619 0.0
C120 C 0.68469 0.31006 0.83877 0.0
C121 C 0.70581 0.29697 0.83222 0.0
C122 C 0.74666 0.31527 0.84471 0.0
C123 C 0.73638 0.29936 0.83519 0.0
C124 C 0.72535 0.32848 0.85123 0.0
C125 C 0.69467 0.32586 0.84828 0.0
U126 U 0.62267 0.30073 0.81638 0.0
O127 O 0.58214 0.27306 0.81529 0.0
O128 O 0.57833 0.32214 0.81347 0.0
C129 C 0.56419 0.29639 0.81375 0.0
C130 C 0.6524 0.30776 0.83556 0.0
C131 C 0.5361 0.29598 0.81934 0.0
C132 C 0.50685 0.28395 0.83486 0.0
C133 C 0.53466 0.28643 0.8303 0.0
C134 C 0.48203 0.30098 0.81762 0.0
C135 C 0.48019 0.29071 0.82849 0.0
C136 C 0.50966 0.30357 0.81312 0.0
C137 C 0.64352 0.29412 0.78675 0.0
C138 C 0.60798 0.27759 0.77202 0.0
C139 C 0.65479 0.30009 0.76764 0.0
C140 C 0.66279 0.30363 0.77888 0.0
C141 C 0.62738 0.28685 0.76408 0.0
C142 C 0.61591 0.28134 0.78326 0.0
C143 C 0.6523 0.29791 0.79855 0.0
O144 O 0.64083 0.33038 0.82971 0.0
O145 O 0.64348 0.28142 0.83173 0.0
O146 O 0.64791 0.27448 0.80482 0.0
O147 O 0.6439 0.32337 0.80286 0.0
H148 H 0.69865 0.28478 0.8248 0.0
H149 H 0.75195 0.28839 0.83006 0.0
H150 H 0.73235 0.3412 0.85853 0.0
H151 H 0.67873 0.33633 0.8534 0.0
H152 H 0.50614 0.27592 0.84325 0.0
H153 H 0.55487 0.28037 0.83523 0.0
H154 H 0.46201 0.30691 0.81256 0.0
H155 H 0.51033 0.31098 0.80464 0.0
H156 H 0.5866 0.26759 0.76953 0.0
H157 H 0.67036 0.30713 0.76173 0.0
H158 H 0.68414 0.31364 0.78143 0.0
H159 H 0.60057 0.27417 0.78923 0.0
C160 C 0.08443 0.82061 0.91887 0.0
C161 C 0.06864 0.84092 0.92521 0.0
C162 C 0.09217 0.88331 0.91664 0.0
C163 C 0.07237 0.8719 0.92405 0.0
C164 C 0.10829 0.86302 0.91043 0.0
C165 C 0.10433 0.83198 0.9115 0.0
U166 U 0.08607 0.7511 0.93693 0.0
O167 O 0.05485 0.71328 0.93775 0.0
O168 O 0.10185 0.70485 0.93456 0.0
C169 C 0.07514 0.6933 0.93537 0.0
C170 C 0.08069 0.78772 0.92001 0.0
C171 C 0.06542 0.66936 0.92751 0.0
C172 C 0.07567 0.63458 0.91277 0.0
C173 C 0.08264 0.66074 0.91879 0.0
C174 C 0.03334 0.62621 0.92368 0.0
C175 C 0.05149 0.61652 0.91539 0.0
C176 C 0.04028 0.65228 0.92968 0.0
C177 C 0.10759 0.76198 0.96759 0.0
C178 C 0.10368 0.72225 0.98113 0.0
C179 C 0.12504 0.77029 0.98665 0.0
C180 C 0.12067 0.78061 0.97581 0.0
C181 C 0.1163 0.74111 0.98948 0.0
C182 C 0.09936 0.73263 0.97026 0.0
C183 C 0.10243 0.77369 0.95632 0.0
O184 O 0.1053 0.7723 0.92263 0.0
O185 O 0.05786 0.77895 0.92542 0.0
O186 O 0.07454 0.77324 0.95222 0.0
O187 O 0.12158 0.76459 0.94932 0.0
H188 H 0.05338 0.83296 0.93107 0.0
H189 H 0.05987 0.88698 0.92903 0.0
H190 H 0.1235 0.87118 0.90458 0.0
H191 H 0.11678 0.81682 0.90654 0.0
H192 H 0.09024 0.6276 0.90649 0.0
H193 H 0.10224 0.67337 0.91694 0.0
H194 H 0.01435 0.613 0.9258 0.0
H195 H 0.02672 0.65834 0.93638 0.0
H196 H 0.0965 0.69976 0.98305 0.0
H197 H 0.1353 0.7852 0.99283 0.0
H198 H 0.12734 0.80326 0.97385 0.0
H199 H 0.08928 0.71792 0.96397 0.0
C200 C 0.59053 0.80732 0.16455 0.0
C201 C 0.56922 0.80777 0.17247 0.0
C202 C 0.52874 0.80975 0.15797 0.0
C203 C 0.53866 0.80898 0.16922 0.0
C204 C 0.55027 0.80979 0.15007 0.0
C205 C 0.58087 0.80853 0.15334 0.0
U206 U 0.6525 0.80169 0.18732 0.0
O207 O 0.69314 0.77367 0.1891 0.0
O208 O 0.69683 0.8229 0.18951 0.0
C209 C 0.71104 0.79696 0.18997 0.0
C210 C 0.62269 0.805 0.16796 0.0
C211 C 0.73912 0.79501 0.18441 0.0
C212 C 0.76782 0.78337 0.16867 0.0
C213 C 0.74014 0.78663 0.17331 0.0
C214 C 0.79336 0.79713 0.18613 0.0
C215 C 0.79477 0.7882 0.17509 0.0
C216 C 0.76587 0.80049 0.19071 0.0
C217 C 0.63176 0.80186 0.21715 0.0
C218 C 0.66597 0.78631 0.23255 0.0
C219 C 0.62066 0.81371 0.23592 0.0
C220 C 0.61309 0.81499 0.22458 0.0
C221 C 0.64705 0.79908 0.24008 0.0
C222 C 0.65843 0.78778 0.22119 0.0
C223 C 0.62317 0.80319 0.20525 0.0
O224 O 0.63429 0.82856 0.17314 0.0
O225 O 0.63114 0.77944 0.17268 0.0
O226 O 0.62757 0.77842 0.19969 0.0
O227 O 0.63146 0.82752 0.20018 0.0
H228 H 0.57624 0.80697 0.18118 0.0
H229 H 0.52279 0.80937 0.17554 0.0
H230 H 0.54348 0.81003 0.14135 0.0
H231 H 0.597 0.80815 0.14711 0.0
H232 H 0.76816 0.77639 0.16015 0.0
H233 H 0.71967 0.78224 0.16832 0.0
H234 H 0.81358 0.8016 0.19125 0.0
H235 H 0.76553 0.80702 0.19929 0.0
H236 H 0.68629 0.77464 0.23543 0.0
H237 H 0.60585 0.82433 0.24143 0.0
H238 H 0.59257 0.82622 0.22161 0.0
H239 H 0.6733 0.77768 0.21557 0.0
C240 C 0.58133 0.32306 0.41969 0.0
C241 C 0.58885 0.34065 0.42904 0.0
C242 C 0.58924 0.38583 0.41763 0.0
C243 C 0.59271 0.37174 0.42803 0.0
C244 C 0.5817 0.36798 0.4083 0.0
C245 C 0.57779 0.33693 0.40932 0.0
U246 U 0.58474 0.25193 0.43705 0.0
O247 O 0.55352 0.2139 0.43773 0.0
O248 O 0.59992 0.20606 0.43364 0.0
C249 C 0.57356 0.19422 0.43489 0.0
C250 C 0.5771 0.29034 0.42066 0.0
C251 C 0.56334 0.17049 0.42705 0.0
C252 C 0.56556 0.14405 0.4096 0.0
C253 C 0.57236 0.16924 0.41623 0.0
C254 C 0.53977 0.12169 0.42439 0.0
C255 C 0.54969 0.11965 0.41369 0.0
C256 C 0.54652 0.14681 0.43097 0.0
C257 C 0.61086 0.25757 0.46744 0.0
C258 C 0.60948 0.21463 0.47977 0.0
C259 C 0.62982 0.26197 0.48655 0.0
C260 C 0.62405 0.2747 0.4761 0.0
C261 C 0.62245 0.23182 0.48854 0.0
C262 C 0.60379 0.22739 0.4693 0.0
C263 C 0.60425 0.27155 0.45658 0.0
O264 O 0.60172 0.27444 0.42262 0.0
O265 O 0.55545 0.2821 0.42675 0.0
O266 O 0.57589 0.27191 0.45303 0.0
O267 O 0.6221 0.26368 0.44895 0.0
H268 H 0.59178 0.33031 0.43712 0.0
H269 H 0.59882 0.38468 0.43537 0.0
H270 H 0.57843 0.37806 0.40019 0.0
H271 H 0.5719 0.32374 0.40202 0.0
H272 H 0.57322 0.14346 0.40136 0.0
H273 H 0.58537 0.18726 0.41301 0.0
H274 H 0.52796 0.10327 0.42792 0.0
H275 H 0.53956 0.14718 0.43933 0.0
H276 H 0.60378 0.1913 0.48099 0.0
H277 H 0.63938 0.27598 0.49315 0.0
H278 H 0.62959 0.29805 0.4748 0.0
H279 H 0.59368 0.21381 0.46267 0.0
C280 C 0.09674 0.31042 0.66297 0.0
C281 C 0.07634 0.31686 0.6709 0.0
C282 C 0.03476 0.31448 0.65687 0.0
C283 C 0.04572 0.31899 0.66788 0.0
C284 C 0.05541 0.30852 0.64892 0.0
C285 C 0.08611 0.30647 0.65195 0.0
U286 U 0.15795 0.29926 0.68559 0.0
O287 O 0.19766 0.26991 0.68692 0.0
O288 O 0.20288 0.31884 0.68851 0.0
C289 C 0.21629 0.29252 0.68829 0.0
C290 C 0.12883 0.3066 0.66627 0.0
C291 C 0.2443 0.29087 0.68263 0.0
C292 C 0.27406 0.27271 0.66798 0.0
C293 C 0.2462 0.27649 0.67242 0.0
C294 C 0.29811 0.29816 0.68377 0.0
C295 C 0.3004 0.28302 0.67373 0.0
C296 C 0.27039 0.30203 0.68816 0.0
C297 C 0.13548 0.29484 0.71518 0.0
C298 C 0.16929 0.27717 0.73035 0.0
C299 C 0.12269 0.30172 0.73409 0.0
C300 C 0.11576 0.30532 0.72277 0.0
C301 C 0.14945 0.28744 0.738 0.0
C302 C 0.16243 0.28097 0.71903 0.0
C303 C 0.12766 0.29853 0.7033 0.0
O304 O 0.14125 0.32888 0.67198 0.0
O305 O 0.13638 0.28006 0.67038 0.0
O306 O 0.13168 0.27464 0.69722 0.0
O307 O 0.13711 0.3234 0.69891 0.0
H308 H 0.08409 0.31993 0.67947 0.0
H309 H 0.0306 0.32406 0.6742 0.0
H310 H 0.04781 0.30455 0.6404 0.0
H311 H 0.1015 0.30131 0.64573 0.0
H312 H 0.27509 0.26087 0.66024 0.0
H313 H 0.22634 0.26761 0.66803 0.0
H314 H 0.31784 0.30687 0.68831 0.0
H315 H 0.26942 0.31316 0.69605 0.0
H316 H 0.19021 0.26638 0.73312 0.0
H317 H 0.10679 0.30957 0.73976 0.0
H318 H 0.09489 0.31612 0.71994 0.0
H319 H 0.17809 0.27298 0.71328 0.0
Zn320 Zn 0.17999 0.71065 0.13915 0.0
Zn321 Zn 0.11738 0.78351 0.11301 0.0
Zn322 Zn 0.15034 0.75007 0.12646 0.0
C323 C 0.12371 0.73103 0.10176 0.0
C324 C 0.17155 0.81388 0.11715 0.0
O325 O 0.12815 0.74661 0.14217 0.0
O326 O 0.1535 0.71079 0.15147 0.0
C327 C 0.16725 0.67955 0.12025 0.0
O328 O 0.14023 0.7256 0.11067 0.0
O329 O 0.10936 0.75542 0.10069 0.0
O330 O 0.14728 0.81536 0.11124 0.0
O331 O 0.17701 0.79123 0.12363 0.0
O332 O 0.18083 0.67498 0.12953 0.0
O333 O 0.15514 0.70543 0.11793 0.0
O334 O 0.19497 0.7709 0.13021 0.0
O335 O 0.21641 0.73574 0.141 0.0
C336 C 0.21768 0.76096 0.13627 0.0
O337 O 0.10754 0.76125 0.13438 0.0
O338 O 0.08394 0.79161 0.12226 0.0
C339 C 0.13289 0.73028 0.15091 0.0
C340 C 0.08458 0.77773 0.13133 0.0
Zn341 Zn 0.58464 0.72245 0.36284 0.0
Zn342 Zn 0.65041 0.78982 0.38956 0.0
Zn343 Zn 0.61634 0.75759 0.37673 0.0
C344 C 0.60238 0.82641 0.38247 0.0
C345 C 0.68561 0.7741 0.37287 0.0
O346 O 0.61079 0.71301 0.38484 0.0
O347 O 0.59014 0.68465 0.37147 0.0
C348 C 0.54773 0.77105 0.36869 0.0
O349 O 0.59178 0.80087 0.37911 0.0
O350 O 0.62886 0.82804 0.38666 0.0
O351 O 0.68849 0.7848 0.38249 0.0
O352 O 0.65981 0.76461 0.36899 0.0
O353 O 0.5471 0.74653 0.36346 0.0
O354 O 0.57206 0.77995 0.37395 0.0
O355 O 0.63852 0.75479 0.36088 0.0
O356 O 0.60803 0.72764 0.34984 0.0
C357 C 0.63136 0.74325 0.35132 0.0
O358 O 0.62467 0.7326 0.39247 0.0
O359 O 0.6445 0.76788 0.40346 0.0
C360 C 0.60135 0.68725 0.38124 0.0
C361 C 0.63427 0.74169 0.40213 0.0
Zn362 Zn 0.62622 0.27685 0.6125 0.0
Zn363 Zn 0.68982 0.20972 0.64042 0.0
Zn364 Zn 0.65866 0.24426 0.62656 0.0
C365 C 0.72508 0.2603 0.63691 0.0
C366 C 0.67884 0.17402 0.62218 0.0
O367 O 0.61392 0.25266 0.63352 0.0
O368 O 0.58822 0.27529 0.61971 0.0
C369 C 0.67505 0.31204 0.6193 0.0
O370 O 0.70203 0.26771 0.63051 0.0
O371 O 0.72532 0.2359 0.64223 0.0
O372 O 0.69232 0.17279 0.63163 0.0
O373 O 0.66559 0.19866 0.61888 0.0
O374 O 0.6499 0.31419 0.61401 0.0
O375 O 0.68325 0.28714 0.62409 0.0
O376 O 0.6533 0.21864 0.61086 0.0
O377 O 0.63028 0.25135 0.59938 0.0
C378 C 0.64258 0.22606 0.60111 0.0
O379 O 0.63473 0.24127 0.64193 0.0
O380 O 0.66281 0.21014 0.65252 0.0
C381 C 0.58912 0.264 0.62925 0.0
C382 C 0.6403 0.22721 0.65114 0.0
Zn383 Zn 0.09393 0.2207 0.86331 0.0
Zn384 Zn 0.15816 0.28901 0.89012 0.0
Zn385 Zn 0.12487 0.25634 0.87666 0.0
C386 C 0.15296 0.23516 0.90092 0.0
C387 C 0.10314 0.31879 0.88703 0.0
O388 O 0.14703 0.2528 0.86091 0.0
O389 O 0.12231 0.21689 0.85165 0.0
C390 C 0.10356 0.18819 0.88241 0.0
O391 O 0.13552 0.23043 0.89221 0.0
O392 O 0.16748 0.25929 0.90193 0.0
O393 O 0.12769 0.32006 0.89276 0.0
O394 O 0.09801 0.29701 0.8802 0.0
O395 O 0.08841 0.18646 0.8733 0.0
O396 O 0.11905 0.21191 0.88484 0.0
O397 O 0.0807 0.27866 0.87297 0.0
O398 O 0.05969 0.24853 0.86024 0.0
C399 C 0.05876 0.27209 0.86598 0.0
O400 O 0.16743 0.2674 0.86876 0.0
O401 O 0.19067 0.29841 0.8806 0.0
C402 C 0.14298 0.23605 0.85228 0.0
C403 C 0.19007 0.28419 0.87162 0.0
H404 H 0.13183 0.40926 0.08561 0.0
H405 H 0.12849 0.46154 0.09164 0.0
H406 H 0.21746 0.47761 0.08169 0.0
H407 H 0.22138 0.4252 0.07602 0.0
H408 H 0.21079 0.50252 0.10107 0.0
H409 H 0.15395 0.5022 0.06606 0.0
H410 H 0.11454 0.48515 0.05237 0.0
H411 H 0.04726 0.50899 0.07431 0.0
H412 H 0.08632 0.52583 0.08821 0.0
H413 H 0.21012 0.6585 0.10758 0.0
H414 H 0.21027 0.61018 0.09792 0.0
H415 H 0.12019 0.59391 0.10677 0.0
H416 H 0.11967 0.64301 0.11594 0.0
H417 H 0.12731 0.56947 0.08742 0.0
H418 H 0.18358 0.56738 0.12269 0.0
H419 H 0.22254 0.58464 0.13653 0.0
H420 H 0.29035 0.56472 0.11433 0.0
H421 H 0.25173 0.54768 0.10029 0.0
C422 C 0.15084 0.4238 0.08482 0.0
C423 C 0.17685 0.41291 0.08027 0.0
C424 C 0.14875 0.45385 0.08815 0.0
C425 C 0.17253 0.47378 0.08696 0.0
C426 C 0.19871 0.46282 0.08263 0.0
C427 C 0.20083 0.43282 0.07931 0.0
C428 C 0.17049 0.50587 0.09041 0.0
C429 C 0.19274 0.51723 0.09795 0.0
C430 C 0.1466 0.52504 0.08657 0.0
C431 C 0.12308 0.515 0.07821 0.0
C432 C 0.13077 0.50359 0.068 0.0
C433 C 0.10849 0.49401 0.0602 0.0
C434 C 0.07842 0.49591 0.06248 0.0
C435 C 0.07056 0.50749 0.07256 0.0
C436 C 0.09276 0.51708 0.0804 0.0
C437 C 0.19007 0.64496 0.10712 0.0
C438 C 0.16483 0.65436 0.11241 0.0
C439 C 0.19024 0.61721 0.10172 0.0
C440 C 0.16555 0.59787 0.10189 0.0
C441 C 0.13959 0.60824 0.10657 0.0
C442 C 0.13923 0.6363 0.11178 0.0
C443 C 0.16767 0.56609 0.09804 0.0
C444 C 0.14541 0.55477 0.09049 0.0
C445 C 0.19148 0.54683 0.10191 0.0
C446 C 0.21476 0.5565 0.11041 0.0
C447 C 0.20679 0.5668 0.12075 0.0
C448 C 0.22881 0.57654 0.12863 0.0
C449 C 0.25889 0.57584 0.1263 0.0
C450 C 0.26703 0.56528 0.11611 0.0
C451 C 0.2451 0.55555 0.1082 0.0
H452 H 0.2759 0.58344 0.13241 0.0
H453 H 0.0612 0.48848 0.05642 0.0
H454 H 0.92948 0.72886 0.32238 0.0
H455 H 0.87924 0.72678 0.32893 0.0
H456 H 0.89998 0.80157 0.35059 0.0
H457 H 0.95021 0.80406 0.34398 0.0
H458 H 0.87113 0.75761 0.36093 0.0
H459 H 0.85474 0.81294 0.32648 0.0
H460 H 0.85802 0.82053 0.30649 0.0
H461 H 0.81126 0.73782 0.29992 0.0
H462 H 0.80844 0.72947 0.31988 0.0
H463 H 0.73311 0.8114 0.3746 0.0
H464 H 0.78012 0.80683 0.36583 0.0
H465 H 0.74665 0.72914 0.34788 0.0
H466 H 0.6992 0.73346 0.35679 0.0
H467 H 0.78083 0.76851 0.33515 0.0
H468 H 0.79115 0.71696 0.36965 0.0
H469 H 0.78707 0.71034 0.38962 0.0
H470 H 0.84613 0.78474 0.39623 0.0
H471 H 0.8502 0.79212 0.37628 0.0
C472 C 0.92333 0.74504 0.32849 0.0
C473 C 0.94391 0.76679 0.33259 0.0
C474 C 0.89455 0.74379 0.33222 0.0
C475 C 0.88564 0.76429 0.34014 0.0
C476 C 0.90633 0.78554 0.34446 0.0
C477 C 0.93512 0.78683 0.34072 0.0
C478 C 0.85486 0.76354 0.34398 0.0
C479 C 0.85142 0.76023 0.35529 0.0
C480 C 0.82904 0.76591 0.33661 0.0
C481 C 0.8312 0.77066 0.32464 0.0
C482 C 0.84529 0.79633 0.32076 0.0
C483 C 0.84712 0.80075 0.30944 0.0
C484 C 0.83481 0.77971 0.30193 0.0
C485 C 0.82072 0.75416 0.30573 0.0
C486 C 0.81894 0.7496 0.31704 0.0
C487 C 0.73556 0.79346 0.36871 0.0
C488 C 0.71239 0.77278 0.36639 0.0
C489 C 0.76249 0.79088 0.3637 0.0
C490 C 0.76711 0.76739 0.35633 0.0
C491 C 0.74357 0.74744 0.35356 0.0
C492 C 0.71643 0.75001 0.35861 0.0
C493 C 0.79719 0.76315 0.35211 0.0
C494 C 0.80052 0.76548 0.34075 0.0
C495 C 0.82298 0.75972 0.35944 0.0
C496 C 0.8208 0.75523 0.37146 0.0
C497 C 0.80309 0.73206 0.37536 0.0
C498 C 0.80081 0.72814 0.38667 0.0
C499 C 0.81629 0.74714 0.39419 0.0
C500 C 0.83414 0.77005 0.3904 0.0
C501 C 0.83647 0.77409 0.37909 0.0
H502 H 0.81449 0.74407 0.40295 0.0
H503 H 0.83622 0.78318 0.29317 0.0
H504 H 0.75212 0.57513 0.59004 0.0
H505 H 0.75551 0.5221 0.59529 0.0
H506 H 0.69226 0.53715 0.61987 0.0
H507 H 0.68859 0.59023 0.61462 0.0
H508 H 0.73748 0.4987 0.62744 0.0
H509 H 0.66958 0.50877 0.59486 0.0
H510 H 0.65534 0.52428 0.57572 0.0
H511 H 0.72579 0.46947 0.56415 0.0
H512 H 0.7407 0.45395 0.58326 0.0
H513 H 0.6666 0.35841 0.63289 0.0
H514 H 0.68507 0.40953 0.63097 0.0
H515 H 0.7408 0.37957 0.60554 0.0
H516 H 0.72159 0.3283 0.60736 0.0
H517 H 0.70738 0.42469 0.59834 0.0
H518 H 0.77103 0.40865 0.63059 0.0
H519 H 0.78516 0.39246 0.64964 0.0
H520 H 0.72437 0.45723 0.6619 0.0
H521 H 0.7095 0.47351 0.6429 0.0
C522 C 0.73889 0.5672 0.59657 0.0
C523 C 0.71981 0.58698 0.60182 0.0
C524 C 0.74097 0.53686 0.59959 0.0
C525 C 0.72386 0.52549 0.60789 0.0
C526 C 0.70572 0.54538 0.61346 0.0
C527 C 0.70367 0.57577 0.61045 0.0
C528 C 0.72343 0.49263 0.6103 0.0
C529 C 0.73075 0.48248 0.62111 0.0
C530 C 0.71555 0.47132 0.60197 0.0
C531 C 0.70645 0.48047 0.59049 0.0
C532 C 0.68216 0.5002 0.58824 0.0
C533 C 0.67395 0.50897 0.5774 0.0
C534 C 0.68971 0.49794 0.56873 0.0
C535 C 0.71365 0.47804 0.57088 0.0
C536 C 0.72197 0.46924 0.58171 0.0
C537 C 0.68375 0.36256 0.62723 0.0
C538 C 0.6932 0.33944 0.62043 0.0
C539 C 0.6943 0.39182 0.62611 0.0
C540 C 0.71453 0.39856 0.61814 0.0
C541 C 0.7253 0.37498 0.61177 0.0
C542 C 0.71463 0.34564 0.61289 0.0
C543 C 0.72109 0.43055 0.61555 0.0
C544 C 0.71473 0.44067 0.60468 0.0
C545 C 0.72997 0.45171 0.62382 0.0
C546 C 0.73901 0.44219 0.63529 0.0
C547 C 0.76051 0.41932 0.63734 0.0
C548 C 0.76868 0.41014 0.64813 0.0
C549 C 0.75565 0.42379 0.65698 0.0
C550 C 0.73446 0.44668 0.65504 0.0
C551 C 0.72618 0.45593 0.64425 0.0
H552 H 0.76199 0.41664 0.66533 0.0
H553 H 0.68332 0.50475 0.56034 0.0
H554 H 0.77583 0.31401 0.86545 0.0
H555 H 0.82981 0.31494 0.8702 0.0
H556 H 0.84581 0.32214 0.83576 0.0
H557 H 0.79208 0.32228 0.83094 0.0
H558 H 0.8773 0.27558 0.84644 0.0
H559 H 0.85776 0.3806 0.85213 0.0
H560 H 0.83455 0.42497 0.86023 0.0
H561 H 0.86936 0.39764 0.89252 0.0
H562 H 0.89233 0.35279 0.88464 0.0
H563 H 0.0294 0.29057 0.84706 0.0
H564 H 0.97712 0.30631 0.84465 0.0
H565 H 0.97198 0.30714 0.87995 0.0
H566 H 0.02508 0.29257 0.88237 0.0
H567 H 0.93441 0.34831 0.87036 0.0
H568 H 0.95324 0.2443 0.86528 0.0
H569 H 0.97778 0.19984 0.85776 0.0
H570 H 0.94419 0.22451 0.82504 0.0
H571 H 0.91984 0.26941 0.83234 0.0
C572 C 0.79076 0.31643 0.85889 0.0
C573 C 0.77943 0.31776 0.84778 0.0
C574 C 0.82165 0.31688 0.86163 0.0
C575 C 0.84185 0.31859 0.85333 0.0
C576 C 0.83064 0.32065 0.84229 0.0
C577 C 0.79985 0.32048 0.83955 0.0
C578 C 0.87464 0.31606 0.856 0.0
C579 C 0.88982 0.29181 0.85153 0.0
C580 C 0.89082 0.33651 0.86303 0.0
C581 C 0.87635 0.36305 0.86781 0.0
C582 C 0.86009 0.38379 0.86098 0.0
C583 C 0.84707 0.4091 0.86553 0.0
C584 C 0.85036 0.41405 0.87689 0.0
C585 C 0.86672 0.39372 0.88373 0.0
C586 C 0.87973 0.36834 0.87922 0.0
C587 C 0.0174 0.29521 0.85431 0.0
C588 C 0.03106 0.29015 0.86489 0.0
C589 C 0.98746 0.30391 0.85293 0.0
C590 C 0.9703 0.30675 0.86211 0.0
C591 C 0.98467 0.30465 0.87275 0.0
C592 C 0.01501 0.29649 0.87413 0.0
C593 C 0.93712 0.30868 0.86044 0.0
C594 C 0.92183 0.33237 0.86521 0.0
C595 C 0.92067 0.28759 0.85378 0.0
C596 C 0.93491 0.26036 0.84935 0.0
C597 C 0.95123 0.24034 0.85647 0.0
C598 C 0.9651 0.21506 0.85225 0.0
C599 C 0.9626 0.20939 0.84093 0.0
C600 C 0.94614 0.22895 0.83381 0.0
C601 C 0.93227 0.25431 0.83798 0.0
H602 H 0.97336 0.18981 0.83767 0.0
H603 H 0.84032 0.4337 0.88039 0.0
H604 H 0.04051 0.56438 0.92604 0.0
H605 H 0.03931 0.51355 0.91859 0.0
H606 H 0.05266 0.54836 0.88622 0.0
H607 H 0.05385 0.59979 0.89365 0.0
H608 H 1.00773 0.49487 0.88858 0.0
H609 H 0.10994 0.52691 0.89645 0.0
H610 H 0.1507 0.5506 0.90796 0.0
H611 H 0.13898 0.48669 0.93378 0.0
H612 H 0.09777 0.46295 0.92248 0.0
H613 H 0.07515 0.35345 0.87072 0.0
H614 H 0.0546 0.40415 0.87339 0.0
H615 H 0.0634 0.39074 0.90862 0.0
H616 H 0.08458 0.34091 0.90597 0.0
H617 H 0.09697 0.43609 0.90243 0.0
H618 H 0.99493 0.40446 0.89545 0.0
H619 H 0.95051 0.383 0.88535 0.0
H620 H 0.96009 0.44469 0.85866 0.0
H621 H 1.00459 0.46659 0.86863 0.0
C622 C 0.0424 0.56142 0.91728 0.0
C623 C 0.04728 0.58616 0.91044 0.0
C624 C 0.04177 0.53231 0.91304 0.0
C625 C 0.04584 0.52727 0.90187 0.0
C626 C 0.04926 0.55189 0.89486 0.0
C627 C 0.05021 0.58116 0.89913 0.0
C628 C 0.05013 0.4961 0.89802 0.0
C629 C 0.02744 0.48201 0.8914 0.0
C630 C 0.07558 0.47937 0.9019 0.0
C631 C 0.1006 0.49335 0.90866 0.0
C632 C 0.11588 0.51809 0.90462 0.0
C633 C 0.13909 0.53149 0.9111 0.0
C634 C 0.14738 0.5202 0.92161 0.0
C635 C 0.13252 0.49543 0.92564 0.0
C636 C 0.10925 0.48198 0.9192 0.0
C637 C 0.07147 0.36099 0.87898 0.0
C638 C 0.08167 0.34358 0.88816 0.0
C639 C 0.05979 0.38994 0.88051 0.0
C640 C 0.0579 0.40142 0.89122 0.0
C641 C 0.06494 0.38251 0.90029 0.0
C642 C 0.07692 0.35398 0.89878 0.0
C643 C 0.05415 0.43415 0.89318 0.0
C644 C 0.07726 0.44874 0.89945 0.0
C645 C 0.02903 0.45107 0.88898 0.0
C646 C 1.0033 0.4369 0.88273 0.0
C647 C 0.98782 0.41316 0.88736 0.0
C648 C 0.96253 0.40102 0.88168 0.0
C649 C 0.95253 0.4124 0.87134 0.0
C650 C 0.96787 0.43588 0.86666 0.0
C651 C 0.99308 0.44821 0.87233 0.0
H652 H 0.93282 0.40319 0.86698 0.0
H653 H 0.16536 0.53061 0.92661 0.0
H654 H 0.81251 0.80614 0.15494 0.0
H655 H 0.8625 0.80191 0.14811 0.0
H656 H 0.89402 0.75617 0.17804 0.0
H657 H 0.84428 0.76044 0.1849 0.0
H658 H 0.93183 0.79872 0.17344 0.0
H659 H 0.88279 0.71869 0.15317 0.0
H660 H 0.84346 0.69527 0.14089 0.0
H661 H 0.86369 0.75494 0.11469 0.0
H662 H 0.90289 0.779 0.12685 0.0
H663 H 0.06678 0.73949 0.14758 0.0
H664 H 0.01916 0.74068 0.15642 0.0
H665 H 0.9917 0.81864 0.13717 0.0
H666 H 0.03973 0.81904 0.12897 0.0
H667 H 0.95316 0.75735 0.13694 0.0
H668 H 1.00033 0.83886 0.15772 0.0
H669 H 0.03832 0.86314 0.17025 0.0
H670 H 0.01962 0.80126 0.19597 0.0
H671 H 0.98262 0.77558 0.18339 0.0
C672 C 0.82999 0.7948 0.15999 0.0
C673 C 0.82443 0.7838 0.17049 0.0
C674 C 0.85859 0.79239 0.15608 0.0
C675 C 0.8821 0.77859 0.16254 0.0
C676 C 0.87637 0.76706 0.17293 0.0
C677 C 0.8479 0.76958 0.17685 0.0
C678 C 0.91293 0.77721 0.15871 0.0
C679 C 0.93652 0.78919 0.16553 0.0
C680 C 0.91909 0.7653 0.14831 0.0
C681 C 0.8956 0.75082 0.14096 0.0
C682 C 0.8787 0.72697 0.14481 0.0
C683 C 0.85646 0.71356 0.13787 0.0
C684 C 0.85103 0.72366 0.12703 0.0
C685 C 0.8679 0.74716 0.12309 0.0
C686 C 0.89015 0.76067 0.13001 0.0
C687 C 0.05126 0.75768 0.14562 0.0
C688 C 0.05755 0.77954 0.13775 0.0
C689 C 0.02383 0.75806 0.15054 0.0
C690 C 1.00202 0.77986 0.14746 0.0
C691 C 1.00831 0.80175 0.1397 0.0
C692 C 0.03585 0.80188 0.13503 0.0
C693 C 0.9718 0.77884 0.15168 0.0
C694 C 0.9484 0.76648 0.1449 0.0
C695 C 0.96581 0.79037 0.16212 0.0
C696 C 0.98926 0.80476 0.1695 0.0
C697 C 1.00496 0.8298 0.16593 0.0
C698 C 0.02625 0.84392 0.17306 0.0
C699 C 0.03162 0.83358 0.18387 0.0
C700 C 0.01572 0.80906 0.18756 0.0
C701 C 0.99472 0.79459 0.18041 0.0
H702 H 0.04793 0.84475 0.18938 0.0
H703 H 0.8338 0.71325 0.12166 0.0
H704 H 0.57089 0.43101 0.43108 0.0
H705 H 0.57662 0.48531 0.42877 0.0
H706 H 0.62215 0.46993 0.39917 0.0
H707 H 0.61729 0.41574 0.4016 0.0
H708 H 0.64933 0.51364 0.4115 0.0
H709 H 0.54734 0.48895 0.39851 0.0
H710 H 0.49674 0.46909 0.40048 0.0
H711 H 0.48429 0.53149 0.4267 0.0
H712 H 0.535 0.55145 0.42497 0.0
H713 H 0.62075 0.63306 0.37484 0.0
H714 H 0.62275 0.586 0.38523 0.0
H715 H 0.59075 0.63192 0.41332 0.0
H716 H 0.58869 0.67948 0.40286 0.0
H717 H 0.55835 0.57761 0.40642 0.0
H718 H 0.6563 0.60889 0.41693 0.0
H719 H 0.70597 0.63024 0.41446 0.0
H720 H 0.72596 0.55705 0.39316 0.0
H721 H 0.67615 0.53551 0.39531 0.0
C722 C 0.58247 0.43916 0.42415 0.0
C723 C 0.59343 0.41893 0.41648 0.0
C724 C 0.58554 0.47026 0.4228 0.0
C725 C 0.59956 0.4818 0.41373 0.0
C726 C 0.6112 0.46163 0.40623 0.0
C727 C 0.60812 0.43061 0.40757 0.0
C728 C 0.60134 0.51479 0.41173 0.0
C729 C 0.62942 0.52759 0.41037 0.0
C730 C 0.57551 0.53341 0.41068 0.0
C731 C 0.54509 0.52138 0.41172 0.0
C732 C 0.53391 0.49823 0.40476 0.0
C733 C 0.5052 0.487 0.40582 0.0
C734 C 0.48736 0.49893 0.41374 0.0
C735 C 0.49817 0.5222 0.4206 0.0
C736 C 0.52688 0.53349 0.41958 0.0
C737 C 0.61446 0.6332 0.38328 0.0
C738 C 0.60482 0.65989 0.3881 0.0
C739 C 0.6157 0.60635 0.38922 0.0
C740 C 0.60695 0.60547 0.40006 0.0
C741 C 0.59758 0.63216 0.40497 0.0
C742 C 0.59672 0.6593 0.39905 0.0
C743 C 0.60617 0.57602 0.4058 0.0
C744 C 0.57831 0.56385 0.40783 0.0
C745 C 0.63219 0.55803 0.4075 0.0
C746 C 0.66236 0.57064 0.40624 0.0
C747 C 0.67118 0.59744 0.41165 0.0
C748 C 0.69938 0.60957 0.41031 0.0
C749 C 0.71909 0.59502 0.40365 0.0
C750 C 0.71066 0.56828 0.39832 0.0
C751 C 0.68244 0.55607 0.39961 0.0
H752 H 0.74093 0.60445 0.40263 0.0
H753 H 0.46513 0.49022 0.41455 0.0
H754 H 1.00455 0.33772 0.63818 0.0
H755 H 0.95072 0.33579 0.63305 0.0
H756 H 0.9368 0.29039 0.66362 0.0
H757 H 0.99035 0.29128 0.6686 0.0
H758 H 0.90822 0.26252 0.64691 0.0
H759 H 0.91845 0.36552 0.65904 0.0
H760 H 0.93838 0.41702 0.65882 0.0
H761 H 0.90435 0.42771 0.62514 0.0
H762 H 0.88456 0.37608 0.62511 0.0
H763 H 0.75991 0.26977 0.65553 0.0
H764 H 0.81112 0.28813 0.65696 0.0
H765 H 0.80426 0.30984 0.62231 0.0
H766 H 0.75238 0.29138 0.62083 0.0
H767 H 0.84306 0.35106 0.63795 0.0
H768 H 0.83085 0.24802 0.62635 0.0
H769 H 0.80919 0.19736 0.62731 0.0
H770 H 0.84698 0.18742 0.66056 0.0
H771 H 0.86842 0.23827 0.65985 0.0
C772 C 0.99002 0.32724 0.64379 0.0
C773 C 1.00189 0.3147 0.65383 0.0
C774 C 0.95919 0.32643 0.64089 0.0
C775 C 0.93959 0.31314 0.64798 0.0
C776 C 0.9514 0.30083 0.65801 0.0
C777 C 0.98209 0.3016 0.6609 0.0
C778 C 0.90695 0.31063 0.64487 0.0
C779 C 0.89409 0.28197 0.645 0.0
C780 C 0.88843 0.33583 0.64202 0.0
C781 C 0.90037 0.36681 0.64203 0.0
C782 C 0.91547 0.37875 0.65155 0.0
C783 C 0.92668 0.40799 0.65148 0.0
C784 C 0.92273 0.42559 0.64196 0.0
C785 C 0.90746 0.41402 0.6325 0.0
C786 C 0.89623 0.38478 0.63252 0.0
C787 C 0.76894 0.27934 0.64827 0.0
C788 C 0.7523 0.27894 0.63805 0.0
C789 C 0.7982 0.28986 0.64911 0.0
C790 C 0.81162 0.29991 0.63971 0.0
C791 C 0.79425 0.3022 0.62966 0.0
C792 C 0.76464 0.29175 0.62882 0.0
C793 C 0.84464 0.30314 0.64028 0.0
C794 C 0.85747 0.33171 0.63968 0.0
C795 C 0.86332 0.2779 0.6427 0.0
C796 C 0.85106 0.24703 0.64307 0.0
C797 C 0.83438 0.2351 0.63389 0.0
C798 C 0.82215 0.20635 0.63438 0.0
C799 C 0.82666 0.1892 0.64399 0.0
C800 C 0.84349 0.20074 0.65312 0.0
C801 C 0.85571 0.22951 0.65267 0.0
H802 H 0.81716 0.16695 0.64437 0.0
H803 H 0.93142 0.44823 0.64192 0.0
H804 H 0.31714 0.28919 0.65255 0.0
H805 H 0.36705 0.28208 0.64594 0.0
H806 H 0.40116 0.25695 0.67875 0.0
H807 H 0.3515 0.26435 0.6854 0.0
H808 H 0.43794 0.2941 0.67069 0.0
H809 H 0.39084 0.20463 0.65768 0.0
H810 H 0.35191 0.1732 0.64823 0.0
H811 H 0.36721 0.21549 0.61738 0.0
H812 H 0.40596 0.24752 0.62668 0.0
H813 H 0.57478 0.23118 0.64754 0.0
H814 H 0.52767 0.23253 0.65672 0.0
H815 H 0.49109 0.29538 0.63232 0.0
H816 H 0.5385 0.29614 0.62374 0.0
H817 H 0.4576 0.23496 0.6374 0.0
H818 H 0.50693 0.32492 0.65232 0.0
H819 H 0.54554 0.35347 0.66315 0.0
H820 H 0.52518 0.30594 0.69243 0.0
H821 H 0.48786 0.27573 0.68165 0.0
C822 C 0.33522 0.28184 0.65832 0.0
C823 C 0.33035 0.27748 0.66951 0.0
C824 C 0.36377 0.27772 0.65453 0.0
C825 C 0.38795 0.26871 0.66182 0.0
C826 C 0.38299 0.26402 0.67296 0.0
C827 C 0.35456 0.26833 0.67676 0.0
C828 C 0.4186 0.26525 0.65793 0.0
C829 C 0.4423 0.28071 0.66352 0.0
C830 C 0.42439 0.24789 0.64855 0.0
C831 C 0.40113 0.22868 0.6429 0.0
C832 C 0.38574 0.20741 0.6489 0.0
C833 C 0.36373 0.18946 0.64357 0.0
C834 C 0.35704 0.1924 0.63222 0.0
C835 C 0.3724 0.21326 0.62618 0.0
C836 C 0.39441 0.23131 0.63147 0.0
C837 C 0.55727 0.24627 0.64444 0.0
C838 C 0.56104 0.2643 0.63514 0.0
C839 C 0.53012 0.2466 0.64956 0.0
C840 C 0.50603 0.26429 0.64523 0.0
C841 C 0.50949 0.28174 0.63583 0.0
C842 C 0.53671 0.28207 0.63094 0.0
C843 C 0.47665 0.26404 0.65012 0.0
C844 C 0.45321 0.24794 0.64467 0.0
C845 C 0.47128 0.28028 0.65978 0.0
C846 C 0.49507 0.29743 0.66609 0.0
C847 C 0.51135 0.3198 0.66098 0.0
C848 C 0.53301 0.33638 0.66713 0.0
C849 C 0.53811 0.3313 0.67845 0.0
C850 C 0.52158 0.3096 0.68363 0.0
C851 C 0.50034 0.29257 0.67749 0.0
H852 H 0.55469 0.34435 0.68321 0.0
H853 H 0.34 0.17847 0.62811 0.0
H854 H 0.49856 0.8416 0.14116 0.0
H855 H 0.44506 0.84 0.13541 0.0
H856 H 0.43156 0.7763 0.16134 0.0
H857 H 0.48486 0.77713 0.1669 0.0
H858 H 0.40359 0.75861 0.14245 0.0
H859 H 0.4119 0.85115 0.16321 0.0
H860 H 0.43102 0.90193 0.16751 0.0
H861 H 0.39745 0.93293 0.13552 0.0
H862 H 0.37848 0.88218 0.13097 0.0
H863 H 0.25657 0.76006 0.1542 0.0
H864 H 0.30835 0.77644 0.15551 0.0
H865 H 0.29654 0.81479 0.12292 0.0
H866 H 0.24406 0.79797 0.12148 0.0
H867 H 0.33704 0.84829 0.14144 0.0
H868 H 0.32487 0.75534 0.12149 0.0
H869 H 0.30392 0.70478 0.1182 0.0
H870 H 0.34444 0.67479 0.14937 0.0
H871 H 0.36519 0.72536 0.15293 0.0
C872 C 0.48421 0.82713 0.1456 0.0
C873 C 0.49609 0.80956 0.15453 0.0
C874 C 0.45356 0.82645 0.14236 0.0
C875 C 0.43416 0.80819 0.14799 0.0
C876 C 0.44601 0.79061 0.15687 0.0
C877 C 0.47652 0.79132 0.16011 0.0
C878 C 0.4016 0.80662 0.14459 0.0
C879 C 0.38914 0.77829 0.14223 0.0
C880 C 0.38267 0.83233 0.14397 0.0
C881 C 0.39413 0.86279 0.1467 0.0
C882 C 0.40885 0.86872 0.15705 0.0
C883 C 0.41961 0.89751 0.15954 0.0
C884 C 0.41555 0.92062 0.15178 0.0
C885 C 0.40065 0.91499 0.14152 0.0
C886 C 0.38988 0.88622 0.13898 0.0
C887 C 0.26468 0.77259 0.14738 0.0
C888 C 0.2463 0.77747 0.13769 0.0
C889 C 0.29431 0.78199 0.14817 0.0
C890 C 0.30638 0.79648 0.13928 0.0
C891 C 0.28757 0.80364 0.12988 0.0
C892 C 0.25761 0.79414 0.12908 0.0
C893 C 0.3393 0.8003 0.13955 0.0
C894 C 0.35174 0.82885 0.14138 0.0
C895 C 0.35836 0.77482 0.13969 0.0
C896 C 0.3464 0.7442 0.1375 0.0
C897 C 0.32912 0.73802 0.12767 0.0
C898 C 0.31731 0.70936 0.12576 0.0
C899 C 0.3228 0.68659 0.13358 0.0
C900 C 0.34019 0.69244 0.14332 0.0
C901 C 0.35201 0.7211 0.14528 0.0
H902 H 0.31362 0.66441 0.13208 0.0
H903 H 0.42388 0.9429 0.15373 0.0
H904 H 0.46235 0.30709 0.84879 0.0
H905 H 0.41212 0.30343 0.85543 0.0
H906 H 0.38057 0.26151 0.82486 0.0
H907 H 0.43052 0.26533 0.81818 0.0
H908 H 0.34329 0.30412 0.82979 0.0
H909 H 0.39064 0.22139 0.84935 0.0
H910 H 0.42922 0.19575 0.86146 0.0
H911 H 0.40933 0.25352 0.88827 0.0
H912 H 0.37088 0.27979 0.87627 0.0
H913 H 0.20873 0.24424 0.85612 0.0
H914 H 0.25625 0.24475 0.84723 0.0
H915 H 0.28174 0.3254 0.86494 0.0
H916 H 0.23367 0.32642 0.87314 0.0
H917 H 0.32051 0.26064 0.86581 0.0
H918 H 0.27584 0.34578 0.84519 0.0
H919 H 0.23824 0.37112 0.83263 0.0
H920 H 0.25498 0.30781 0.80713 0.0
H921 H 0.29153 0.2811 0.81976 0.0
C922 C 0.44478 0.29673 0.84356 0.0
C923 C 0.45037 0.2867 0.83293 0.0
C924 C 0.41607 0.29462 0.84736 0.0
C925 C 0.39251 0.28204 0.84067 0.0
C926 C 0.39827 0.27145 0.83015 0.0
C927 C 0.42685 0.27371 0.82634 0.0
C928 C 0.36157 0.28111 0.84438 0.0
C929 C 0.33831 0.29418 0.8376 0.0
C930 C 0.35499 0.26853 0.85463 0.0
C931 C 0.37806 0.25274 0.86188 0.0
C932 C 0.39465 0.22878 0.8578 0.0
C933 C 0.41647 0.2141 0.86465 0.0
C934 C 0.42177 0.22304 0.87562 0.0
C935 C 0.40521 0.24664 0.87977 0.0
C936 C 0.38338 0.26141 0.87295 0.0
C937 C 0.22372 0.26289 0.85767 0.0
C938 C 0.21688 0.2857 0.86511 0.0
C939 C 0.25111 0.26288 0.85274 0.0
C940 C 0.27231 0.28531 0.85537 0.0
C941 C 0.2655 0.30813 0.86271 0.0
C942 C 0.23797 0.30859 0.8674 0.0
C943 C 0.30259 0.28379 0.85125 0.0
C944 C 0.32562 0.27025 0.85796 0.0
C945 C 0.30897 0.29584 0.84093 0.0
C946 C 0.28581 0.31091 0.83354 0.0
C947 C 0.27082 0.33665 0.83704 0.0
C948 C 0.24977 0.35136 0.82988 0.0
C949 C 0.24396 0.3409 0.81913 0.0
C950 C 0.25919 0.31569 0.81551 0.0
C951 C 0.27994 0.30064 0.82269 0.0
H952 H 0.22783 0.35252 0.8136 0.0
H953 H 0.43867 0.21165 0.88091 0.0
H954 H 0.28256 0.76367 0.34255 0.0
H955 H 0.33553 0.76666 0.34865 0.0
H956 H 0.31755 0.84381 0.36861 0.0
H957 H 0.26439 0.8413 0.36236 0.0
H958 H 0.36772 0.85179 0.35729 0.0
H959 H 0.33017 0.77748 0.38091 0.0
H960 H 0.30272 0.73186 0.38557 0.0
H961 H 0.36098 0.67808 0.36696 0.0
H962 H 0.38852 0.72344 0.36206 0.0
H963 H 0.51595 0.78159 0.38652 0.0
H964 H 0.46288 0.79621 0.38609 0.0
H965 H 0.46234 0.81097 0.35101 0.0
H966 H 0.51501 0.79572 0.35143 0.0
H967 H 0.42034 0.76246 0.37384 0.0
H968 H 0.40872 0.86544 0.34412 0.0
H969 H 0.435 0.91271 0.3407 0.0
H970 H 0.47461 0.91154 0.37389 0.0
H971 H 0.44846 0.8644 0.37754 0.0
C972 C 0.28985 0.78144 0.34817 0.0
C973 C 0.26917 0.80225 0.35196 0.0
C974 C 0.32014 0.78297 0.35172 0.0
C975 C 0.33052 0.80528 0.35918 0.0
C976 C 0.31005 0.82634 0.36289 0.0
C977 C 0.27965 0.82473 0.35937 0.0
C978 C 0.36276 0.80641 0.36303 0.0
C979 C 0.37922 0.83233 0.36096 0.0
C980 C 0.37768 0.7813 0.36808 0.0
C981 C 0.36129 0.75391 0.37106 0.0
C982 C 0.337 0.75596 0.37775 0.0
C983 C 0.32144 0.73014 0.38044 0.0
C984 C 0.33007 0.7021 0.37655 0.0
C985 C 0.35432 0.69981 0.36997 0.0
C986 C 0.36993 0.72557 0.36724 0.0
C987 C 0.50471 0.78909 0.37882 0.0
C988 C 0.51949 0.78797 0.36903 0.0
C989 C 0.4744 0.7972 0.37856 0.0
C990 C 0.45865 0.80473 0.36852 0.0
C991 C 0.47409 0.80561 0.35886 0.0
C992 C 0.50416 0.79699 0.3591 0.0
C993 C 0.4255 0.80744 0.36773 0.0
C994 C 0.40882 0.78211 0.37032 0.0
C995 C 0.41043 0.83319 0.36328 0.0
C996 C 0.42672 0.86125 0.36107 0.0
C997 C 0.42301 0.87528 0.35069 0.0
C998 C 0.43791 0.90204 0.34871 0.0
C999 C 0.45648 0.9151 0.35706 0.0
C1000 C 0.46032 0.90134 0.36741 0.0
C1001 C 0.44554 0.87454 0.36942 0.0
H1002 H 0.4678 0.93594 0.35552 0.0
H1003 H 0.31799 0.68213 0.37864 0.0
H1004 H 0.63771 0.92225 0.56816 0.0
H1005 H 0.63568 0.97384 0.57494 0.0
H1006 H 0.70898 0.95452 0.59883 0.0
H1007 H 0.71121 0.9029 0.59206 0.0
H1008 H 0.66751 0.98484 0.60824 0.0
H1009 H 0.71686 0.99553 0.57487 0.0
H1010 H 0.7247 0.99252 0.55504 0.0
H1011 H 0.64698 0.04768 0.54761 0.0
H1012 H 0.6383 0.05054 0.56738 0.0
H1013 H 0.71856 0.12774 0.62345 0.0
H1014 H 0.71415 0.0789 0.61448 0.0
H1015 H 0.63228 0.10764 0.59676 0.0
H1016 H 0.63609 0.15665 0.60608 0.0
H1017 H 0.6717 0.07387 0.58384 0.0
H1018 H 0.62541 0.06501 0.61767 0.0
H1019 H 0.62106 0.07064 0.63766 0.0
H1020 H 0.69791 0.01367 0.64421 0.0
H1021 H 0.70302 1.00808 0.62425 0.0
C1022 C 0.65361 0.92901 0.5748 0.0
C1023 C 0.67473 0.90831 0.57953 0.0
C1024 C 0.65241 0.9586 0.57867 0.0
C1025 C 0.67242 0.96834 0.58732 0.0
C1026 C 0.69327 0.94764 0.59215 0.0
C1027 C 0.69444 0.91802 0.5883 0.0
C1028 C 0.67126 0.99981 0.59154 0.0
C1029 C 0.6689 1.00422 0.60289 0.0
C1030 C 0.67204 0.02535 0.58455 0.0
C1031 C 0.67661 0.02278 0.57261 0.0
C1032 C 0.70115 1.00662 0.569 0.0
C1033 C 0.70581 1.00503 0.55777 0.0
C1034 C 0.68627 0.01977 0.55007 0.0
C1035 C 0.66202 0.03615 0.55358 0.0
C1036 C 0.65719 0.03772 0.5648 0.0
C1037 C 0.69971 0.12388 0.61757 0.0
C1038 C 0.67777 0.14627 0.6154 0.0
C1039 C 0.69721 0.09587 0.61246 0.0
C1040 C 0.67269 0.08944 0.60507 0.0
C1041 C 0.65138 0.11213 0.60245 0.0
C1042 C 0.65377 0.14026 0.60766 0.0
C1043 C 0.66923 0.05859 0.60048 0.0
C1044 C 0.67044 0.05434 0.58911 0.0
C1045 C 0.66781 0.03318 0.60743 0.0
C1046 C 0.66473 0.03632 0.61946 0.0
C1047 C 0.64153 0.05387 0.62337 0.0
C1048 C 0.63891 0.05703 0.6347 0.0
C1049 C 0.65923 0.04257 0.6422 0.0
C1050 C 0.68219 0.02487 0.63839 0.0
C1051 C 0.68495 0.02168 0.62707 0.0
H1052 H 0.65716 0.04504 0.65097 0.0
H1053 H 0.68998 0.01859 0.54138 0.0
H1054 H 0.2504 0.09385 0.1101 0.0
H1055 H 0.25527 0.04108 0.11589 0.0
H1056 H 0.16525 0.02446 0.10252 0.0
H1057 H 0.16009 0.07705 0.09692 0.0
H1058 H 0.1758 0.99724 0.1223 0.0
H1059 H 0.22518 1.00614 0.0882 0.0
H1060 H 0.26256 0.0265 0.07628 0.0
H1061 H 0.33344 0.99573 0.09921 0.0
H1062 H 0.29642 0.97552 0.11133 0.0
H1063 H 0.18724 0.84431 0.09925 0.0
H1064 H 0.20511 0.89595 0.09893 0.0
H1065 H 0.2165 0.89587 0.13445 0.0
H1066 H 0.19876 0.84368 0.13477 0.0
H1067 H 0.25211 0.93217 0.10644 0.0
H1068 H 0.18219 0.96184 0.14234 0.0
H1069 H 0.14187 0.94048 0.15272 0.0
H1070 H 0.10772 0.89325 0.12379 0.0
H1071 H 0.14755 0.91468 0.11322 0.0
C1072 C 0.23154 0.07901 0.10852 0.0
C1073 C 0.20491 0.08964 0.10297 0.0
C1074 C 0.23442 0.04881 0.11177 0.0
C1075 C 0.2107 0.0287 0.10958 0.0
C1076 C 0.18388 0.0395 0.10431 0.0
C1077 C 0.18104 0.06954 0.10102 0.0
C1078 C 0.21377 0.99617 0.11238 0.0
C1079 C 0.1928 0.98315 0.11897 0.0
C1080 C 0.23584 0.9776 0.10802 0.0
C1081 C 0.25805 0.98967 0.10073 0.0
C1082 C 0.24873 1.00394 0.09074 0.0
C1083 C 0.26985 0.01541 0.08394 0.0
C1084 C 0.30036 0.0125 0.087 0.0
C1085 C 0.30981 0.99803 0.09686 0.0
C1086 C 0.28877 0.98656 0.10369 0.0
C1087 C 0.19474 0.85489 0.10697 0.0
C1088 C 0.19147 0.84015 0.11704 0.0
C1089 C 0.20497 0.88443 0.10678 0.0
C1090 C 0.21166 0.89999 0.11666 0.0
C1091 C 0.21125 0.88434 0.12672 0.0
C1092 C 0.20132 0.85448 0.12691 0.0
C1093 C 0.21405 0.93332 0.11629 0.0
C1094 C 0.23583 0.94648 0.1101 0.0
C1095 C 0.19246 0.95203 0.12087 0.0
C1096 C 0.16804 0.93954 0.12706 0.0
C1097 C 0.166 0.94697 0.1382 0.0
C1098 C 0.14324 0.93486 0.14411 0.0
C1099 C 0.12232 0.91543 0.13893 0.0
C1100 C 0.12399 0.90821 0.12781 0.0
C1101 C 0.14665 0.92033 0.12186 0.0
H1102 H 0.10476 0.90603 0.14352 0.0
H1103 H 0.31668 0.02139 0.08173 0.0
H1104 H 0.50068 0.08245 0.41222 0.0
H1105 H 0.49675 0.03267 0.40373 0.0
H1106 H 0.58485 0.04252 0.39211 0.0
H1107 H 0.58922 0.09194 0.40071 0.0
H1108 H 0.5462 0.01513 0.37669 0.0
H1109 H 0.57499 1.00575 0.41587 0.0
H1110 H 0.56791 0.01323 0.43561 0.0
H1111 H 0.48468 0.96577 0.43206 0.0
H1112 H 0.49111 0.95838 0.41225 0.0
H1113 H 0.6232 0.87978 0.37631 0.0
H1114 H 0.60017 0.92888 0.37803 0.0
H1115 H 0.51982 0.88718 0.38815 0.0
H1116 H 0.54348 0.83732 0.3866 0.0
H1117 H 0.53948 0.92944 0.40252 0.0
H1118 H 0.52046 0.92652 0.36415 0.0
H1119 H 0.52896 0.91871 0.34458 0.0
H1120 H 0.59514 0.98819 0.34627 0.0
H1121 H 0.58722 0.99625 0.36589 0.0
C1122 C 0.5192 0.07411 0.40782 0.0
C1123 C 0.54542 0.09121 0.40726 0.0
C1124 C 0.51683 0.04568 0.40292 0.0
C1125 C 0.54063 0.03369 0.39738 0.0
C1126 C 0.56614 0.05132 0.39631 0.0
C1127 C 0.56857 0.07969 0.40122 0.0
C1128 C 0.5402 1.00205 0.39341 0.0
C1129 C 0.54478 0.99632 0.3823 0.0
C1130 C 0.53713 0.97751 0.40066 0.0
C1131 C 0.53332 0.98188 0.41256 0.0
C1132 C 0.55506 0.99714 0.41928 0.0
C1133 C 0.55119 1.00132 0.43049 0.0
C1134 C 0.52581 0.99007 0.43508 0.0
C1135 C 0.50429 0.97454 0.42849 0.0
C1136 C 0.50803 0.97035 0.41727 0.0
C1137 C 0.60032 0.88097 0.37864 0.0
C1138 C 0.58508 0.85475 0.38131 0.0
C1139 C 0.58707 0.90913 0.37956 0.0
C1140 C 0.55812 0.91189 0.38314 0.0
C1141 C 0.54213 0.88561 0.38531 0.0
C1142 C 0.55549 0.85714 0.38432 0.0
C1143 C 0.54677 0.94235 0.38584 0.0
C1144 C 0.54003 0.94802 0.39675 0.0
C1145 C 0.54803 0.9668 0.37839 0.0
C1146 C 0.55307 0.96206 0.36654 0.0
C1147 C 0.53683 0.94013 0.36037 0.0
C1148 C 0.54158 0.93564 0.34926 0.0
C1149 C 0.56256 0.95297 0.34417 0.0
C1150 C 0.57883 0.97483 0.35021 0.0
C1151 C 0.57413 0.97942 0.36133 0.0
H1152 H 0.56624 0.94945 0.33557 0.0
H1153 H 0.52285 0.99332 0.44376 0.0
H1154 H 0.14364 0.91603 0.9158 0.0
H1155 H 0.148 0.97034 0.91265 0.0
H1156 H 0.05194 0.97903 0.91089 0.0
H1157 H 0.04745 0.925 0.91405 0.0
H1158 H 0.07932 1.00412 0.89291 0.0
H1159 H 0.0897 1.00489 0.93265 0.0
H1160 H 0.11228 0.99107 0.95105 0.0
H1161 H 0.19641 0.02723 0.94275 0.0
H1162 H 0.17443 0.0409 0.92424 0.0
H1163 H 0.05585 0.15617 0.88785 0.0
H1164 H 0.05634 0.10682 0.89666 0.0
H1165 H 0.15245 0.11061 0.90182 0.0
H1166 H 0.1518 0.16094 0.8934 0.0
H1167 H 0.12881 0.07891 0.91823 0.0
H1168 H 0.12047 0.07763 0.87882 0.0
H1169 H 0.09952 0.09197 0.86026 0.0
H1170 H 0.01448 0.05555 0.86735 0.0
H1171 H 0.03482 0.04138 0.88603 0.0
C1172 C 0.12349 0.9296 0.91478 0.0
C1173 C 0.09519 0.91629 0.91516 0.0
C1174 C 0.12602 0.9606 0.91308 0.0
C1175 C 0.10029 0.9787 0.91161 0.0
C1176 C 0.07208 0.96547 0.91207 0.0
C1177 C 0.06955 0.93463 0.91391 0.0
C1178 C 0.10245 0.01103 0.9088 0.0
C1179 C 0.08983 0.02052 0.8985 0.0
C1180 C 0.11717 0.03218 0.91594 0.0
C1181 C 0.13051 0.02357 0.92701 0.0
C1182 C 0.11311 1.00957 0.9347 0.0
C1183 C 0.12577 1.00185 0.94516 0.0
C1184 C 0.15579 1.00818 0.94806 0.0
C1185 C 0.17318 0.02229 0.94049 0.0
C1186 C 0.16063 0.03004 0.93002 0.0
C1187 C 0.07698 0.14682 0.89116 0.0
C1188 C 0.1038 0.16208 0.88988 0.0
C1189 C 0.07729 0.11858 0.89613 0.0
C1190 C 0.10452 0.10458 0.89957 0.0
C1191 C 0.13121 0.12085 0.89913 0.0
C1192 C 0.13083 0.14956 0.89434 0.0
C1193 C 0.10503 0.07206 0.90243 0.0
C1194 C 0.11835 0.06248 0.91264 0.0
C1195 C 0.09132 0.05057 0.89515 0.0
C1196 C 0.07912 0.05866 0.88386 0.0
C1197 C 0.09726 0.07282 0.87645 0.0
C1198 C 0.08549 0.08092 0.8659 0.0
C1199 C 0.05567 0.07473 0.86263 0.0
C1200 C 0.03757 0.06035 0.8699 0.0
C1201 C 0.04921 0.05226 0.88046 0.0
H1202 H 0.0466 0.08103 0.85447 0.0
H1203 H 0.16554 1.00222 0.95617 0.0
H1204 H 0.11914 0.18309 1.00186 0.0
H1205 H 0.11492 0.18122 0.98164 0.0
H1206 H 0.21064 0.18942 0.98128 0.0
H1207 H 0.21498 0.1916 1.0014 0.0
H1208 H 0.18031 0.22992 0.96775 0.0
H1209 H 0.1779 0.12382 0.97503 0.0
H1210 H 0.15933 0.07698 0.98289 0.0
H1211 H 0.07358 0.09124 0.96561 0.0
H1212 H 0.0915 0.13843 0.95777 0.0
H1213 H 0.20235 0.21681 0.91314 0.0
H1214 H 0.20383 0.19766 0.932 0.0
H1215 H 0.10768 0.19069 0.92957 0.0
H1216 H 0.10626 0.20894 0.91046 0.0
H1217 H 0.13556 0.14819 0.94438 0.0
H1218 H 0.13651 0.25466 0.9378 0.0
H1219 H 0.1545 0.30117 0.92951 0.0
H1220 H 0.24162 0.28676 0.94572 0.0
H1221 H 0.22426 0.23984 0.95396 0.0
C1222 C 0.13926 0.18447 0.99746 0.0
C1223 C 0.1674 0.18754 0.00323 0.0
C1224 C 0.13685 0.18308 0.98592 0.0
C1225 C 0.1625 0.18492 0.97996 0.0
C1226 C 0.19058 0.18778 0.98571 0.0
C1227 C 0.19303 0.18892 0.99722 0.0
C1228 C 0.16012 0.18615 0.96772 0.0
C1229 C 0.17087 0.21184 0.96266 0.0
C1230 C 0.14689 0.16299 0.96108 0.0
C1231 C 0.13594 0.13487 0.96592 0.0
C1232 C 0.15497 0.11716 0.97301 0.0
C1233 C 0.14459 0.0905 0.97743 0.0
C1234 C 0.11526 0.08118 0.97478 0.0
C1235 C 0.09627 0.09851 0.96768 0.0
C1236 C 0.10653 0.12521 0.96324 0.0
C1237 C 0.18165 0.20994 0.91648 0.0
C1238 C 0.15418 0.21459 0.91044 0.0
C1239 C 0.18249 0.19913 0.92726 0.0
C1240 C 0.1558 0.19364 0.93229 0.0
C1241 C 0.12851 0.19502 0.92587 0.0
C1242 C 0.12772 0.20538 0.91495 0.0
C1243 C 0.15633 0.19166 0.94449 0.0
C1244 C 0.14502 0.16614 0.94952 0.0
C1245 C 0.16881 0.21509 0.95119 0.0
C1246 C 0.17916 0.24361 0.94642 0.0
C1247 C 0.15955 0.26132 0.93955 0.0
C1248 C 0.16963 0.28775 0.93486 0.0
C1249 C 0.1992 0.29689 0.93707 0.0
C1250 C 0.21873 0.27964 0.944 0.0
C1251 C 0.20878 0.25313 0.94869 0.0
H1252 H 0.20697 0.31736 0.93343 0.0
H1253 H 0.10728 0.06051 0.9782 0.0
H1254 H 0.13048 0.82359 0.24914 0.0
H1255 H 0.12317 0.81613 0.22917 0.0
H1256 H 0.10362 0.72263 0.2344 0.0
H1257 H 0.11116 0.72986 0.25435 0.0
H1258 H 0.14659 0.73186 0.21935 0.0
H1259 H 0.04634 0.76812 0.22508 0.0
H1260 H 0.0099 0.80406 0.23197 0.0
H1261 H 0.04709 0.87495 0.21332 0.0
H1262 H 0.084 0.83945 0.20646 0.0
H1263 H 0.11396 0.68991 0.16558 0.0
H1264 H 0.10329 0.7002 0.18464 0.0
H1265 H 0.11022 0.7954 0.17857 0.0
H1266 H 0.11938 0.78511 0.15928 0.0
H1267 H 0.07347 0.78675 0.19413 0.0
H1268 H 0.17176 0.75335 0.18794 0.0
H1269 H 0.21023 0.72016 0.18085 0.0
H1270 H 0.18124 0.64755 0.20073 0.0
H1271 H 0.14225 0.68021 0.20781 0.0
C1272 C 0.12452 0.80148 0.24602 0.0
C1273 C 0.12143 0.77729 0.25331 0.0
C1274 C 0.1201 0.79731 0.23463 0.0
C1275 C 0.11264 0.76887 0.23032 0.0
C1276 C 0.10923 0.74478 0.23757 0.0
C1277 C 0.1134 0.74898 0.24896 0.0
C1278 C 0.11024 0.76376 0.21825 0.0
C1279 C 0.13017 0.74339 0.21386 0.0
C1280 C 0.08973 0.7798 0.21105 0.0
C1281 C 0.06787 0.8012 0.21527 0.0
C1282 C 0.04682 0.79142 0.22251 0.0
C1283 C 0.02609 0.81169 0.2264 0.0
C1284 C 0.02618 0.84177 0.22309 0.0
C1285 C 0.04703 0.85165 0.21589 0.0
C1286 C 0.06785 0.83147 0.21199 0.0
C1287 C 0.11211 0.71305 0.16822 0.0
C1288 C 0.11787 0.73672 0.16105 0.0
C1289 C 0.10628 0.71893 0.17913 0.0
C1290 C 0.10723 0.74851 0.18315 0.0
C1291 C 0.10984 0.77236 0.1757 0.0
C1292 C 0.11498 0.76649 0.16467 0.0
C1293 C 0.10905 0.75407 0.19524 0.0
C1294 C 0.08945 0.77483 0.19963 0.0
C1295 C 0.13028 0.73878 0.20246 0.0
C1296 C 0.1539 0.71914 0.19832 0.0
C1297 C 0.17347 0.73025 0.19074 0.0
C1298 C 0.19537 0.71154 0.18673 0.0
C1299 C 0.19813 0.68175 0.19032 0.0
C1300 C 0.17904 0.67063 0.19795 0.0
C1301 C 0.15704 0.68923 0.20197 0.0
H1302 H 0.2151 0.66729 0.1872 0.0
H1303 H 0.01008 0.85742 0.2261 0.0
H1304 H 0.70417 0.65251 0.50079 0.0
H1305 H 0.69526 0.64939 0.48075 0.0
H1306 H 0.62385 0.71449 0.48179 0.0
H1307 H 0.63198 0.71702 0.50186 0.0
H1308 H 0.6084 0.66885 0.46778 0.0
H1309 H 0.69349 0.73458 0.47483 0.0
H1310 H 0.7441 0.74755 0.48255 0.0
H1311 H 0.78124 0.67504 0.46455 0.0
H1312 H 0.73076 0.6614 0.45683 0.0
H1313 H 0.60046 0.75266 0.41904 0.0
H1314 H 0.60418 0.72849 0.43712 0.0
H1315 H 0.66869 0.66536 0.42578 0.0
H1316 H 0.66453 0.68955 0.40748 0.0
H1317 H 0.68962 0.69699 0.44413 0.0
H1318 H 0.60501 0.63628 0.4348 0.0
H1319 H 0.55424 0.62345 0.42713 0.0
H1320 H 0.51638 0.6868 0.44889 0.0
H1321 H 0.56683 0.69988 0.45675 0.0
C1322 C 0.68634 0.66592 0.49677 0.0
C1323 C 0.66886 0.68512 0.50294 0.0
C1324 C 0.68141 0.66425 0.4853 0.0
C1325 C 0.65903 0.68186 0.47975 0.0
C1326 C 0.64125 0.70068 0.4859 0.0
C1327 C 0.64615 0.70236 0.49736 0.0
C1328 C 0.65462 0.68158 0.46753 0.0
C1329 C 0.62613 0.67506 0.4626 0.0
C1330 C 0.67803 0.68855 0.46073 0.0
C1331 C 0.70834 0.69673 0.46537 0.0
C1332 C 0.71243 0.72124 0.4726 0.0
C1333 C 0.74109 0.72874 0.47696 0.0
C1334 C 0.76586 0.71206 0.47408 0.0
C1335 C 0.76203 0.68789 0.4668 0.0
C1336 C 0.7334 0.68027 0.46243 0.0
C1337 C 0.61465 0.73299 0.42032 0.0
C1338 C 0.6321 0.72279 0.41195 0.0
C1339 C 0.6167 0.71909 0.43063 0.0
C1340 C 0.6366 0.69499 0.4328 0.0
C1341 C 0.65306 0.6838 0.42425 0.0
C1342 C 0.65066 0.69752 0.41383 0.0
C1343 C 0.64315 0.68516 0.4444 0.0
C1344 C 0.67206 0.68991 0.44925 0.0
C1345 C 0.62014 0.67659 0.45112 0.0
C1346 C 0.58973 0.66917 0.44632 0.0
C1347 C 0.58586 0.64763 0.43789 0.0
C1348 C 0.55715 0.64026 0.43353 0.0
C1349 C 0.53215 0.65442 0.43747 0.0
C1350 C 0.53578 0.67586 0.44584 0.0
C1351 C 0.56441 0.68316 0.45029 0.0
H1352 H 0.50996 0.64872 0.43407 0.0
H1353 H 0.78803 0.71791 0.47746 0.0
H1354 H 0.6336 0.32591 0.74698 0.0
H1355 H 0.6248 0.31592 0.72723 0.0
H1356 H 0.59488 0.22657 0.73445 0.0
H1357 H 0.60397 0.23628 0.75421 0.0
H1358 H 0.6385 0.22713 0.71979 0.0
H1359 H 0.54516 0.27805 0.72394 0.0
H1360 H 0.51214 0.31928 0.72925 0.0
H1361 H 0.55498 0.37979 0.70787 0.0
H1362 H 0.58861 0.33903 0.70258 0.0
H1363 H 0.61678 0.18722 0.66493 0.0
H1364 H 0.60216 0.19752 0.68357 0.0
H1365 H 0.61579 0.29234 0.67839 0.0
H1366 H 0.62806 0.2821 0.65944 0.0
H1367 H 0.57718 0.28764 0.69232 0.0
H1368 H 0.67312 0.24159 0.68971 0.0
H1369 H 0.70888 0.20296 0.68424 0.0
H1370 H 0.6649 0.13656 0.70289 0.0
H1371 H 0.62862 0.17474 0.70835 0.0
C1372 C 0.62496 0.30421 0.74436 0.0
C1373 C 0.61961 0.28183 0.75215 0.0
C1374 C 0.61966 0.29864 0.73308 0.0
C1375 C 0.60898 0.27057 0.72938 0.0
C1376 C 0.60297 0.24843 0.73714 0.0
C1377 C 0.60805 0.25406 0.74842 0.0
C1378 C 0.60671 0.2634 0.71744 0.0
C1379 C 0.62449 0.2399 0.7138 0.0
C1380 C 0.58938 0.28085 0.7096 0.0
C1381 C 0.56958 0.30553 0.71294 0.0
C1382 C 0.54777 0.30022 0.72047 0.0
C1383 C 0.52889 0.3235 0.72345 0.0
C1384 C 0.5315 0.35216 0.71892 0.0
C1385 C 0.55301 0.3576 0.71139 0.0
C1386 C 0.57199 0.33442 0.7084 0.0
C1387 C 0.61549 0.21031 0.66767 0.0
C1388 C 0.62372 0.23388 0.66086 0.0
C1389 C 0.60754 0.2162 0.67836 0.0
C1390 C 0.60926 0.24557 0.68259 0.0
C1391 C 0.61473 0.26942 0.67541 0.0
C1392 C 0.62166 0.2636 0.66457 0.0
C1393 C 0.60845 0.25104 0.69465 0.0
C1394 C 0.59052 0.27442 0.69832 0.0
C1395 C 0.62609 0.23387 0.70254 0.0
C1396 C 0.64799 0.21093 0.69934 0.0
C1397 C 0.67099 0.21871 0.69259 0.0
C1398 C 0.69135 0.1969 0.6895 0.0
C1399 C 0.68911 0.16731 0.69319 0.0
C1400 C 0.66656 0.15948 0.70002 0.0
C1401 C 0.64611 0.18118 0.70312 0.0
H1402 H 0.70489 0.15046 0.69079 0.0
H1403 H 0.51683 0.37013 0.72123 0.0
H1404 H 0.13506 0.68591 0.99764 0.0
H1405 H 0.1409 0.67013 0.01703 0.0
H1406 H 0.1107 0.75756 0.02697 0.0
H1407 H 0.10457 0.77329 0.00775 0.0
H1408 H 0.15996 0.74055 0.03915 0.0
H1409 H 0.06493 0.69684 0.0263 0.0
H1410 H 0.03211 0.66424 0.01444 0.0
H1411 H 0.08394 0.58693 0.0253 0.0
H1412 H 0.11733 0.61917 0.03711 0.0
H1413 H 0.07709 0.71801 0.08725 0.0
H1414 H 0.0809 0.70162 0.06828 0.0
H1415 H 0.17518 0.68453 0.07511 0.0
H1416 H 0.17143 0.70122 0.09416 0.0
H1417 H 0.1023 0.65724 0.05441 0.0
H1418 H 0.20881 0.7262 0.05622 0.0
H1419 H 0.23623 0.7624 0.06848 0.0
H1420 H 0.15329 0.79488 0.07975 0.0
H1421 H 0.12545 0.75924 0.06742 0.0
C1422 C 0.12946 0.70165 0.00397 0.0
C1423 C 0.11956 0.73094 1.00116 0.0
C1424 C 0.13289 0.69263 0.01503 0.0
C1425 C 0.12633 0.71271 0.02344 0.0
C1426 C 0.11624 0.74181 0.02062 0.0
C1427 C 0.11282 0.7508 0.00962 0.0
C1428 C 0.12981 0.70395 0.03524 0.0
C1429 C 0.14776 0.72197 0.04244 0.0
C1430 C 0.11386 0.67977 0.03957 0.0
C1431 C 0.09385 0.66045 0.03246 0.0
C1432 C 0.06949 0.67293 0.02607 0.0
C1433 C 0.05076 0.65451 0.01938 0.0
C1434 C 0.05601 0.62355 0.01908 0.0
C1435 C 0.07995 0.61092 0.02551 0.0
C1436 C 0.09878 0.62925 0.03221 0.0
C1437 C 0.09834 0.70945 0.08484 0.0
C1438 C 0.12403 0.71117 0.09209 0.0
C1439 C 0.10047 0.69991 0.074 0.0
C1440 C 0.12842 0.69241 0.07024 0.0
C1441 C 0.15343 0.69039 0.07786 0.0
C1442 C 0.15124 0.69978 0.08876 0.0
C1443 C 0.13212 0.69409 0.05824 0.0
C1444 C 0.11545 0.67497 0.05103 0.0
C1445 C 0.1487 0.7177 0.05386 0.0
C1446 C 0.16516 0.73985 0.06102 0.0
C1447 C 0.19648 0.74118 0.06128 0.0
C1448 C 0.21207 0.76159 0.06824 0.0
C1449 C 0.19652 0.78085 0.07492 0.0
C1450 C 0.16532 0.7799 0.0746 0.0
C1451 C 0.14963 0.75963 0.06762 0.0
H1452 H 0.20863 0.79655 0.08033 0.0
H1453 H 0.04147 0.60932 0.0139 0.0
H1454 H 0.60849 0.78896 0.25613 0.0
H1455 H 0.61987 0.78557 0.27597 0.0
H1456 H 0.71342 0.79898 0.27152 0.0
H1457 H 0.70215 0.80314 0.25154 0.0
H1458 H 0.70395 0.75289 0.28618 0.0
H1459 H 0.67673 0.85527 0.28179 0.0
H1460 H 0.6466 0.89861 0.27475 0.0
H1461 H 0.57136 0.86655 0.29125 0.0
H1462 H 0.60088 0.82276 0.29825 0.0
H1463 H 0.6638 0.7937 0.34733 0.0
H1464 H 0.68289 0.80832 0.32966 0.0
H1465 H 0.65487 0.72301 0.31577 0.0
H1466 H 0.63634 0.70829 0.33332 0.0
H1467 H 0.64765 0.8159 0.31136 0.0
H1468 H 0.69603 0.7032 0.29452 0.0
H1469 H 0.72619 0.66035 0.3019 0.0
H1470 H 0.76215 0.71476 0.32868 0.0
H1471 H 0.73335 0.75842 0.32123 0.0
C1472 C 0.63146 0.79168 0.25933 0.0
C1473 C 0.65434 0.79665 0.2522 0.0
C1474 C 0.63795 0.7896 0.2707 0.0
C1475 C 0.66745 0.79243 0.27524 0.0
C1476 C 0.6905 0.79682 0.26819 0.0
C1477 C 0.684 0.79906 0.25677 0.0
C1478 C 0.67372 0.7903 0.28738 0.0
C1479 C 0.69196 0.7668 0.29174 0.0
C1480 C 0.65889 0.80919 0.29462 0.0
C1481 C 0.64104 0.83565 0.29052 0.0
C1482 C 0.65371 0.85736 0.28387 0.0
C1483 C 0.63674 0.88202 0.27989 0.0
C1484 C 0.60708 0.88532 0.28255 0.0
C1485 C 0.59434 0.86398 0.2892 0.0
C1486 C 0.61121 0.83925 0.29319 0.0
C1487 C 0.66266 0.77775 0.3406 0.0
C1488 C 0.64852 0.7499 0.34167 0.0
C1489 C 0.6734 0.78618 0.3305 0.0
C1490 C 0.67039 0.76675 0.32139 0.0
C1491 C 0.6579 0.73824 0.3227 0.0
C1492 C 0.64711 0.7299 0.33273 0.0
C1493 C 0.67635 0.77721 0.31015 0.0
C1494 C 0.66037 0.80237 0.30591 0.0
C1495 C 0.69353 0.75997 0.30308 0.0
C1496 C 0.71228 0.73418 0.30731 0.0
C1497 C 0.71071 0.70625 0.30189 0.0
C1498 C 0.72762 0.68179 0.30609 0.0
C1499 C 0.74611 0.68486 0.31574 0.0
C1500 C 0.74787 0.71246 0.32119 0.0
C1501 C 0.73134 0.73712 0.31695 0.0
H1502 H 0.75904 0.66585 0.31902 0.0
H1503 H 0.59397 0.90442 0.27945 0.0
H1504 H 0.58477 0.19567 0.49933 0.0
H1505 H 0.59041 0.17885 0.51852 0.0
H1506 H 0.67597 0.22271 0.52259 0.0
H1507 H 0.67088 0.23893 0.50332 0.0
H1508 H 0.67566 0.16855 0.534 0.0
H1509 H 0.61502 0.25888 0.52958 0.0
H1510 H 0.57252 0.28919 0.52166 0.0
H1511 H 0.51097 0.22534 0.53361 0.0
H1512 H 0.55317 0.19443 0.54147 0.0
H1513 H 0.69063 0.2208 0.58905 0.0
H1514 H 0.68936 0.20439 0.56987 0.0
H1515 H 0.59933 0.17222 0.57216 0.0
H1516 H 0.60025 0.19024 0.5912 0.0
H1517 H 0.59899 0.21119 0.55708 0.0
H1518 H 0.66045 0.12359 0.56382 0.0
H1519 H 0.70353 0.09302 0.57117 0.0
H1520 H 0.76359 0.15123 0.55548 0.0
H1521 H 0.72102 0.18199 0.54792 0.0
C1522 C 0.60511 0.20115 0.50423 0.0
C1523 C 0.62723 0.21894 0.49982 0.0
C1524 C 0.60823 0.19163 0.51521 0.0
C1525 C 0.63346 0.19981 0.52202 0.0
C1526 C 0.65631 0.21616 0.51749 0.0
C1527 C 0.6532 0.2257 0.50651 0.0
C1528 C 0.63474 0.19405 0.53407 0.0
C1529 C 0.65896 0.17781 0.5391 0.0
C1530 C 0.61257 0.20555 0.54066 0.0
C1531 C 0.58722 0.22417 0.53598 0.0
C1532 C 0.59242 0.25119 0.53044 0.0
C1533 C 0.5684 0.26849 0.52597 0.0
C1534 C 0.53907 0.25915 0.5271 0.0
C1535 C 0.5337 0.23252 0.53272 0.0
C1536 C 0.55766 0.2151 0.53718 0.0
C1537 C 0.67115 0.20893 0.58558 0.0
C1538 C 0.64564 0.20647 0.59155 0.0
C1539 C 0.67041 0.19943 0.5746 0.0
C1540 C 0.64421 0.187 0.56948 0.0
C1541 C 0.61978 0.1818 0.57588 0.0
C1542 C 0.62034 0.19187 0.58677 0.0
C1543 C 0.6401 0.1856 0.55722 0.0
C1544 C 0.61538 0.20094 0.55208 0.0
C1545 C 0.66185 0.17324 0.55059 0.0
C1546 C 0.68754 0.15523 0.55537 0.0
C1547 C 0.68286 0.13003 0.56201 0.0
C1548 C 0.70716 0.11261 0.56619 0.0
C1549 C 0.73621 0.12029 0.56386 0.0
C1550 C 0.74107 0.14532 0.55729 0.0
C1551 C 0.71687 0.16267 0.55301 0.0
H1552 H 0.75496 0.10678 0.56712 0.0
H1553 H 0.5205 0.27258 0.52365 0.0
H1554 H 0.14273 0.32755 0.75471 0.0
H1555 H 0.1509 0.31867 0.77456 0.0
H1556 H 0.17966 0.22798 0.76835 0.0
H1557 H 0.17111 0.23657 0.74847 0.0
H1558 H 0.13697 0.2311 0.78357 0.0
H1559 H 0.23189 0.27837 0.77827 0.0
H1560 H 0.26418 0.31828 0.77164 0.0
H1561 H 0.2195 0.3836 0.79071 0.0
H1562 H 0.18673 0.34409 0.79735 0.0
H1563 H 0.16563 0.19503 0.83854 0.0
H1564 H 0.1779 0.20399 0.81954 0.0
H1565 H 0.1641 0.2992 0.82395 0.0
H1566 H 0.15393 0.29034 0.8432 0.0
H1567 H 0.20151 0.29287 0.80933 0.0
H1568 H 0.10618 0.24936 0.81416 0.0
H1569 H 0.07097 0.2122 0.8208 0.0
H1570 H 0.11158 0.143 0.8022 0.0
H1571 H 0.14731 0.1797 0.79557 0.0
C1572 C 0.15088 0.30574 0.75757 0.0
C1573 C 0.15621 0.28273 0.75003 0.0
C1574 C 0.15581 0.3008 0.76891 0.0
C1575 C 0.16615 0.27275 0.77293 0.0
C1576 C 0.17183 0.24984 0.76542 0.0
C1577 C 0.16709 0.25483 0.75407 0.0
C1578 C 0.16919 0.26677 0.78496 0.0
C1579 C 0.15164 0.24412 0.78919 0.0
C1580 C 0.18739 0.28455 0.79231 0.0
C1581 C 0.20687 0.30834 0.78828 0.0
C1582 C 0.22887 0.30128 0.78099 0.0
C1583 C 0.24726 0.32381 0.77724 0.0
C1584 C 0.24389 0.35346 0.78075 0.0
C1585 C 0.22208 0.36063 0.788 0.0
C1586 C 0.20362 0.33818 0.79176 0.0
C1587 C 0.16636 0.21794 0.83555 0.0
C1588 C 0.15856 0.24199 0.84224 0.0
C1589 C 0.17301 0.22305 0.82466 0.0
C1590 C 0.17056 0.25213 0.82014 0.0
C1591 C 0.16569 0.27649 0.82716 0.0
C1592 C 0.15995 0.27145 0.83818 0.0
C1593 C 0.16987 0.2567 0.80798 0.0
C1594 C 0.18745 0.27935 0.80372 0.0
C1595 C 0.15124 0.23925 0.80058 0.0
C1596 C 0.1296 0.2172 0.80446 0.0
C1597 C 0.10769 0.22618 0.81153 0.0
C1598 C 0.08764 0.20521 0.81529 0.0
C1599 C 0.08909 0.17524 0.81194 0.0
C1600 C 0.11053 0.16621 0.8048 0.0
C1601 C 0.13067 0.18708 0.80103 0.0
H1602 H 0.07355 0.15904 0.81486 0.0
H1603 H 0.25817 0.37087 0.77785 0.0
loop_
_geom_bond_atom_site_label_1
_geom_bond_atom_site_label_2
_geom_bond_distance
_geom_bond_site_symmetry_2
_ccdc_geom_bond_type
C0 C1 1.264 . S
C0 C5 1.479 . S
C0 C10 1.465 . S
C1 C0 1.264 . S
C1 C3 1.339 . S
C1 H28 0.931 . S
C2 C3 1.395 . S
C2 C4 1.320 . S
C3 C1 1.339 . S
C3 C2 1.395 . S
C3 H29 0.929 . S
C4 C2 1.320 . S
C4 C5 1.405 . S
C4 H30 0.930 . S
C5 C0 1.479 . S
C5 C4 1.405 . S
C5 H31 0.931 . S
U6 O7 2.454 . S
U6 O8 2.458 . S
U6 C9 2.984 . S
U6 C10 2.847 . S
U6 C23 2.882 . S
U6 O24 2.441 . S
U6 O25 2.420 . S
U6 O26 2.455 . S
U6 O27 2.449 . S
O7 U6 2.454 . S
O7 C9 1.353 . S
O8 U6 2.458 . S
O8 C9 1.286 . S
C9 U6 2.984 . S
C9 O7 1.353 . S
C9 O8 1.286 . S
C9 C11 1.363 . S
C10 C0 1.465 . S
C10 U6 2.847 . S
C10 O24 1.249 . S
C10 O25 1.202 . S
C11 C9 1.363 . S
C11 C13 1.408 . S
C11 C16 1.342 . S
C12 C13 1.310 . S
C12 C15 1.461 . S
C12 H32 0.932 . S
C13 C11 1.408 . S
C13 C12 1.310 . S
C13 H33 0.930 . S
C14 C15 1.474 . S
C14 C16 1.285 . S
C14 H34 0.929 . S
C15 C12 1.461 . S
C15 C14 1.474 . S
C16 C11 1.342 . S
C16 C14 1.285 . S
C16 H35 0.930 . S
C17 C20 1.424 . S
C17 C22 1.245 . S
C17 C23 1.428 . S
C18 C21 1.260 . S
C18 C22 1.477 . S
C18 H36 0.932 . S
C19 C20 1.384 . S
C19 C21 1.479 . S
C19 H37 0.929 . S
C20 C17 1.424 . S
C20 C19 1.384 . S
C20 H38 0.928 . S
C21 C18 1.260 . S
C21 C19 1.479 . S
C22 C17 1.245 . S
C22 C18 1.477 . S
C22 H39 0.932 . S
C23 U6 2.882 . S
C23 C17 1.428 . S
C23 O26 1.301 . S
C23 O27 1.282 . S
O24 U6 2.441 . S
O24 C10 1.249 . S
O25 U6 2.420 . S
O25 C10 1.202 . S
O26 U6 2.455 . S
O26 C23 1.301 . S
O27 U6 2.449 . S
O27 C23 1.282 . S
H28 C1 0.931 . S
H29 C3 0.929 . S
H30 C4 0.930 . S
H31 C5 0.931 . S
H32 C12 0.932 . S
H33 C13 0.930 . S
H34 C14 0.929 . S
H35 C16 0.930 . S
H36 C18 0.932 . S
H37 C19 0.929 . S
H38 C20 0.928 . S
H39 C22 0.932 . S
C40 C41 1.264 . S
C40 C45 1.479 . S
C40 C50 1.465 . S
C41 C40 1.264 . S
C41 C43 1.339 . S
C41 H68 0.931 . S
C42 C43 1.395 . S
C42 C44 1.320 . S
C43 C41 1.339 . S
C43 C42 1.395 . S
C43 H69 0.929 . S
C44 C42 1.320 . S
C44 C45 1.405 . S
C44 H70 0.930 . S
C45 C40 1.479 . S
C45 C44 1.405 . S
C45 H71 0.931 . S
U46 O47 2.454 . S
U46 O48 2.458 . S
U46 C49 2.984 . S
U46 C50 2.847 . S
U46 C63 2.882 . S
U46 O64 2.441 . S
U46 O65 2.420 . S
U46 O66 2.455 . S
U46 O67 2.449 . S
O47 U46 2.454 . S
O47 C49 1.353 . S
O48 U46 2.458 . S
O48 C49 1.286 . S
C49 U46 2.984 . S
C49 O47 1.353 . S
C49 O48 1.286 . S
C49 C51 1.363 . S
C50 C40 1.465 . S
C50 U46 2.847 . S
C50 O64 1.249 . S
C50 O65 1.202 . S
C51 C49 1.363 . S
C51 C53 1.408 . S
C51 C56 1.342 . S
C52 C53 1.310 . S
C52 C55 1.461 1_455 S
C52 H72 0.932 . S
C53 C51 1.408 . S
C53 C52 1.310 . S
C53 H73 0.930 . S
C54 C55 1.474 . S
C54 C56 1.285 1_655 S
C54 H74 0.929 . S
C55 C52 1.461 1_655 S
C55 C54 1.474 . S
C56 C51 1.342 . S
C56 C54 1.285 1_455 S
C56 H75 0.930 . S
C57 C60 1.424 . S
C57 C62 1.245 . S
C57 C63 1.428 . S
C58 C61 1.260 . S
C58 C62 1.477 . S
C58 H76 0.932 . S
C59 C60 1.384 . S
C59 C61 1.479 . S
C59 H77 0.929 . S
C60 C57 1.424 . S
C60 C59 1.384 . S
C60 H78 0.928 . S
C61 C58 1.260 . S
C61 C59 1.479 . S
C62 C57 1.245 . S
C62 C58 1.477 . S
C62 H79 0.932 . S
C63 U46 2.882 . S
C63 C57 1.428 . S
C63 O66 1.301 . S
C63 O67 1.282 . S
O64 U46 2.441 . S
O64 C50 1.249 . S
O65 U46 2.420 . S
O65 C50 1.202 . S
O66 U46 2.455 . S
O66 C63 1.301 . S
O67 U46 2.449 . S
O67 C63 1.282 . S
H68 C41 0.931 . S
H69 C43 0.929 . S
H70 C44 0.930 . S
H71 C45 0.931 . S
H72 C52 0.932 . S
H73 C53 0.930 . S
H74 C54 0.929 . S
H75 C56 0.930 . S
H76 C58 0.932 . S
H77 C59 0.929 . S
H78 C60 0.928 . S
H79 C62 0.932 . S
C80 C81 1.264 . S
C80 C85 1.479 . S
C80 C90 1.465 . S
C81 C80 1.264 . S
C81 C83 1.339 . S
C81 H108 0.931 . S
C82 C83 1.395 . S
C82 C84 1.320 . S
C83 C81 1.339 . S
C83 C82 1.395 . S
C83 H109 0.929 . S
C84 C82 1.320 . S
C84 C85 1.405 . S
C84 H110 0.930 . S
C85 C80 1.479 . S
C85 C84 1.405 . S
C85 H111 0.931 . S
U86 O87 2.454 . S
U86 O88 2.458 . S
U86 C89 2.984 . S
U86 C90 2.847 . S
U86 C103 2.882 . S
U86 O104 2.441 . S
U86 O105 2.420 . S
U86 O106 2.455 . S
U86 O107 2.449 . S
O87 U86 2.454 . S
O87 C89 1.353 . S
O88 U86 2.458 . S
O88 C89 1.286 . S
C89 U86 2.984 . S
C89 O87 1.353 . S
C89 O88 1.286 . S
C89 C91 1.363 . S
C90 C80 1.465 . S
C90 U86 2.847 . S
C90 O104 1.249 . S
C90 O105 1.202 . S
C91 C89 1.363 . S
C91 C93 1.408 . S
C91 C96 1.342 . S
C92 C93 1.310 . S
C92 C95 1.461 . S
C92 H112 0.932 . S
C93 C91 1.408 . S
C93 C92 1.310 . S
C93 H113 0.930 . S
C94 C95 1.474 . S
C94 C96 1.285 . S
C94 H114 0.929 . S
C95 C92 1.461 . S
C95 C94 1.474 . S
C96 C91 1.342 . S
C96 C94 1.285 . S
C96 H115 0.930 . S
C97 C100 1.424 . S
C97 C102 1.245 . S
C97 C103 1.428 . S
C98 C101 1.260 . S
C98 C102 1.477 . S
C98 H116 0.932 . S
C99 C100 1.384 . S
C99 C101 1.479 . S
C99 H117 0.929 . S
C100 C97 1.424 . S
C100 C99 1.384 . S
C100 H118 0.928 . S
C101 C98 1.260 . S
C101 C99 1.479 . S
C102 C97 1.245 . S
C102 C98 1.477 . S
C102 H119 0.932 . S
C103 U86 2.882 . S
C103 C97 1.428 . S
C103 O106 1.301 . S
C103 O107 1.282 . S
O104 U86 2.441 . S
O104 C90 1.249 . S
O105 U86 2.420 . S
O105 C90 1.202 . S
O106 U86 2.455 . S
O106 C103 1.301 . S
O107 U86 2.449 . S
O107 C103 1.282 . S
H108 C81 0.931 . S
H109 C83 0.929 . S
H110 C84 0.930 . S
H111 C85 0.931 . S
H112 C92 0.932 . S
H113 C93 0.930 . S
H114 C94 0.929 . S
H115 C96 0.930 . S
H116 C98 0.932 . S
H117 C99 0.929 . S
H118 C100 0.928 . S
H119 C102 0.932 . S
C120 C121 1.264 . S
C120 C125 1.479 . S
C120 C130 1.465 . S
C121 C120 1.264 . S
C121 C123 1.339 . S
C121 H148 0.931 . S
C122 C123 1.395 . S
C122 C124 1.320 . S
C123 C121 1.339 . S
C123 C122 1.395 . S
C123 H149 0.929 . S
C124 C122 1.320 . S
C124 C125 1.405 . S
C124 H150 0.930 . S
C125 C120 1.479 . S
C125 C124 1.405 . S
C125 H151 0.931 . S
U126 O127 2.454 . S
U126 O128 2.458 . S
U126 C129 2.984 . S
U126 C130 2.847 . S
U126 C143 2.882 . S
U126 O144 2.441 . S
U126 O145 2.420 . S
U126 O146 2.455 . S
U126 O147 2.449 . S
O127 U126 2.454 . S
O127 C129 1.353 . S
O128 U126 2.458 . S
O128 C129 1.286 . S
C129 U126 2.984 . S
C129 O127 1.353 . S
C129 O128 1.286 . S
C129 C131 1.363 . S
C130 C120 1.465 . S
C130 U126 2.847 . S
C130 O144 1.249 . S
C130 O145 1.202 . S
C131 C129 1.363 . S
C131 C133 1.408 . S
C131 C136 1.342 . S
C132 C133 1.310 . S
C132 C135 1.461 . S
C132 H152 0.932 . S
C133 C131 1.408 . S
C133 C132 1.310 . S
C133 H153 0.930 . S
C134 C135 1.474 . S
C134 C136 1.285 . S
C134 H154 0.929 . S
C135 C132 1.461 . S
C135 C134 1.474 . S
C136 C131 1.342 . S
C136 C134 1.285 . S
C136 H155 0.930 . S
C137 C140 1.424 . S
C137 C142 1.245 . S
C137 C143 1.428 . S
C138 C141 1.260 . S
C138 C142 1.477 . S
C138 H156 0.932 . S
C139 C140 1.384 . S
C139 C141 1.479 . S
C139 H157 0.929 . S
C140 C137 1.424 . S
C140 C139 1.384 . S
C140 H158 0.928 . S
C141 C138 1.260 . S
C141 C139 1.479 . S
C142 C137 1.245 . S
C142 C138 1.477 . S
C142 H159 0.932 . S
C143 U126 2.882 . S
C143 C137 1.428 . S
C143 O146 1.301 . S
C143 O147 1.282 . S
O144 U126 2.441 . S
O144 C130 1.249 . S
O145 U126 2.420 . S
O145 C130 1.202 . S
O146 U126 2.455 . S
O146 C143 1.301 . S
O147 U126 2.449 . S
O147 C143 1.282 . S
H148 C121 0.931 . S
H149 C123 0.929 . S
H150 C124 0.930 . S
H151 C125 0.931 . S
H152 C132 0.932 . S
H153 C133 0.930 . S
H154 C134 0.929 . S
H155 C136 0.930 . S
H156 C138 0.932 . S
H157 C139 0.929 . S
H158 C140 0.928 . S
H159 C142 0.932 . S
C160 C161 1.264 . S
C160 C165 1.479 . S
C160 C170 1.465 . S
C161 C160 1.264 . S
C161 C163 1.339 . S
C161 H188 0.931 . S
C162 C163 1.395 . S
C162 C164 1.320 . S
C163 C161 1.339 . S
C163 C162 1.395 . S
C163 H189 0.929 . S
C164 C162 1.320 . S
C164 C165 1.405 . S
C164 H190 0.930 . S
C165 C160 1.479 . S
C165 C164 1.405 . S
C165 H191 0.931 . S
U166 O167 2.454 . S
U166 O168 2.458 . S
U166 C169 2.984 . S
U166 C170 2.847 . S
U166 C183 2.882 . S
U166 O184 2.441 . S
U166 O185 2.420 . S
U166 O186 2.455 . S
U166 O187 2.449 . S
O167 U166 2.454 . S
O167 C169 1.353 . S
O168 U166 2.458 . S
O168 C169 1.286 . S
C169 U166 2.984 . S
C169 O167 1.353 . S
C169 O168 1.286 . S
C169 C171 1.363 . S
C170 C160 1.465 . S
C170 U166 2.847 . S
C170 O184 1.249 . S
C170 O185 1.202 . S
C171 C169 1.363 . S
C171 C173 1.408 . S
C171 C176 1.342 . S
C172 C173 1.310 . S
C172 C175 1.461 . S
C172 H192 0.932 . S
C173 C171 1.408 . S
C173 C172 1.310 . S
C173 H193 0.930 . S
C174 C175 1.474 . S
C174 C176 1.285 . S
C174 H194 0.929 . S
C175 C172 1.461 . S
C175 C174 1.474 . S
C176 C171 1.342 . S
C176 C174 1.285 . S
C176 H195 0.930 . S
C177 C180 1.424 . S
C177 C182 1.245 . S
C177 C183 1.428 . S
C178 C181 1.260 . S
C178 C182 1.477 . S
C178 H196 0.932 . S
C179 C180 1.384 . S
C179 C181 1.479 . S
C179 H197 0.929 . S
C180 C177 1.424 . S
C180 C179 1.384 . S
C180 H198 0.928 . S
C181 C178 1.260 . S
C181 C179 1.479 . S
C182 C177 1.245 . S
C182 C178 1.477 . S
C182 H199 0.932 . S
C183 U166 2.882 . S
C183 C177 1.428 . S
C183 O186 1.301 . S
C183 O187 1.282 . S
O184 U166 2.441 . S
O184 C170 1.249 . S
O185 U166 2.420 . S
O185 C170 1.202 . S
O186 U166 2.455 . S
O186 C183 1.301 . S
O187 U166 2.449 . S
O187 C183 1.282 . S
H188 C161 0.931 . S
H189 C163 0.929 . S
H190 C164 0.930 . S
H191 C165 0.931 . S
H192 C172 0.932 . S
H193 C173 0.930 . S
H194 C174 0.929 . S
H195 C176 0.930 . S
H196 C178 0.932 . S
H197 C179 0.929 . S
H198 C180 0.928 . S
H199 C182 0.932 . S
C200 C201 1.264 . S
C200 C205 1.479 . S
C200 C210 1.465 . S
C201 C200 1.264 . S
C201 C203 1.339 . S
C201 H228 0.931 . S
C202 C203 1.395 . S
C202 C204 1.320 . S
C203 C201 1.339 . S
C203 C202 1.395 . S
C203 H229 0.929 . S
C204 C202 1.320 . S
C204 C205 1.405 . S
C204 H230 0.930 . S
C205 C200 1.479 . S
C205 C204 1.405 . S
C205 H231 0.931 . S
U206 O207 2.454 . S
U206 O208 2.458 . S
U206 C209 2.984 . S
U206 C210 2.847 . S
U206 C223 2.882 . S
U206 O224 2.441 . S
U206 O225 2.420 . S
U206 O226 2.455 . S
U206 O227 2.449 . S
O207 U206 2.454 . S
O207 C209 1.353 . S
O208 U206 2.458 . S
O208 C209 1.286 . S
C209 U206 2.984 . S
C209 O207 1.353 . S
C209 O208 1.286 . S
C209 C211 1.363 . S
C210 C200 1.465 . S
C210 U206 2.847 . S
C210 O224 1.249 . S
C210 O225 1.202 . S
C211 C209 1.363 . S
C211 C213 1.408 . S
C211 C216 1.342 . S
C212 C213 1.310 . S
C212 C215 1.461 . S
C212 H232 0.932 . S
C213 C211 1.408 . S
C213 C212 1.310 . S
C213 H233 0.930 . S
C214 C215 1.474 . S
C214 C216 1.285 . S
C214 H234 0.929 . S
C215 C212 1.461 . S
C215 C214 1.474 . S
C216 C211 1.342 . S
C216 C214 1.285 . S
C216 H235 0.930 . S
C217 C220 1.424 . S
C217 C222 1.245 . S
C217 C223 1.428 . S
C218 C221 1.260 . S
C218 C222 1.477 . S
C218 H236 0.932 . S
C219 C220 1.384 . S
C219 C221 1.479 . S
C219 H237 0.929 . S
C220 C217 1.424 . S
C220 C219 1.384 . S
C220 H238 0.928 . S
C221 C218 1.260 . S
C221 C219 1.479 . S
C222 C217 1.245 . S
C222 C218 1.477 . S
C222 H239 0.932 . S
C223 U206 2.882 . S
C223 C217 1.428 . S
C223 O226 1.301 . S
C223 O227 1.282 . S
O224 U206 2.441 . S
O224 C210 1.249 . S
O225 U206 2.420 . S
O225 C210 1.202 . S
O226 U206 2.455 . S
O226 C223 1.301 . S
O227 U206 2.449 . S
O227 C223 1.282 . S
H228 C201 0.931 . S
H229 C203 0.929 . S
H230 C204 0.930 . S
H231 C205 0.931 . S
H232 C212 0.932 . S
H233 C213 0.930 . S
H234 C214 0.929 . S
H235 C216 0.930 . S
H236 C218 0.932 . S
H237 C219 0.929 . S
H238 C220 0.928 . S
H239 C222 0.932 . S
C240 C241 1.264 . S
C240 C245 1.479 . S
C240 C250 1.465 . S
C241 C240 1.264 . S
C241 C243 1.339 . S
C241 H268 0.931 . S
C242 C243 1.395 . S
C242 C244 1.320 . S
C243 C241 1.339 . S
C243 C242 1.395 . S
C243 H269 0.929 . S
C244 C242 1.320 . S
C244 C245 1.405 . S
C244 H270 0.930 . S
C245 C240 1.479 . S
C245 C244 1.405 . S
C245 H271 0.931 . S
U246 O247 2.454 . S
U246 O248 2.458 . S
U246 C249 2.984 . S
U246 C250 2.847 . S
U246 C263 2.882 . S
U246 O264 2.441 . S
U246 O265 2.420 . S
U246 O266 2.455 . S
U246 O267 2.449 . S
O247 U246 2.454 . S
O247 C249 1.353 . S
O248 U246 2.458 . S
O248 C249 1.286 . S
C249 U246 2.984 . S
C249 O247 1.353 . S
C249 O248 1.286 . S
C249 C251 1.363 . S
C250 C240 1.465 . S
C250 U246 2.847 . S
C250 O264 1.249 . S
C250 O265 1.202 . S
C251 C249 1.363 . S
C251 C253 1.408 . S
C251 C256 1.342 . S
C252 C253 1.310 . S
C252 C255 1.461 . S
C252 H272 0.932 . S
C253 C251 1.408 . S
C253 C252 1.310 . S
C253 H273 0.930 . S
C254 C255 1.474 . S
C254 C256 1.285 . S
C254 H274 0.929 . S
C255 C252 1.461 . S
C255 C254 1.474 . S
C256 C251 1.342 . S
C256 C254 1.285 . S
C256 H275 0.930 . S
C257 C260 1.424 . S
C257 C262 1.245 . S
C257 C263 1.428 . S
C258 C261 1.260 . S
C258 C262 1.477 . S
C258 H276 0.932 . S
C259 C260 1.384 . S
C259 C261 1.479 . S
C259 H277 0.929 . S
C260 C257 1.424 . S
C260 C259 1.384 . S
C260 H278 0.928 . S
C261 C258 1.260 . S
C261 C259 1.479 . S
C262 C257 1.245 . S
C262 C258 1.477 . S
C262 H279 0.932 . S
C263 U246 2.882 . S
C263 C257 1.428 . S
C263 O266 1.301 . S
C263 O267 1.282 . S
O264 U246 2.441 . S
O264 C250 1.249 . S
O265 U246 2.420 . S
O265 C250 1.202 . S
O266 U246 2.455 . S
O266 C263 1.301 . S
O267 U246 2.449 . S
O267 C263 1.282 . S
H268 C241 0.931 . S
H269 C243 0.929 . S
H270 C244 0.930 . S
H271 C245 0.931 . S
H272 C252 0.932 . S
H273 C253 0.930 . S
H274 C254 0.929 . S
H275 C256 0.930 . S
H276 C258 0.932 . S
H277 C259 0.929 . S
H278 C260 0.928 . S
H279 C262 0.932 . S
C280 C281 1.264 . S
C280 C285 1.479 . S
C280 C290 1.465 . S
C281 C280 1.264 . S
C281 C283 1.339 . S
C281 H308 0.931 . S
C282 C283 1.395 . S
C282 C284 1.320 . S
C283 C281 1.339 . S
C283 C282 1.395 . S
C283 H309 0.929 1_455 S
C284 C282 1.320 . S
C284 C285 1.405 . S
C284 H310 0.930 . S
C285 C280 1.479 . S
C285 C284 1.405 . S
C285 H311 0.931 . S
U286 O287 2.454 . S
U286 O288 2.458 . S
U286 C289 2.984 . S
U286 C290 2.847 . S
U286 C303 2.882 . S
U286 O304 2.441 . S
U286 O305 2.420 . S
U286 O306 2.455 . S
U286 O307 2.449 . S
O287 U286 2.454 . S
O287 C289 1.353 . S
O288 U286 2.458 . S
O288 C289 1.286 . S
C289 U286 2.984 . S
C289 O287 1.353 . S
C289 O288 1.286 . S
C289 C291 1.363 . S
C290 C280 1.465 . S
C290 U286 2.847 . S
C290 O304 1.249 . S
C290 O305 1.202 . S
C291 C289 1.363 . S
C291 C293 1.408 . S
C291 C296 1.342 . S
C292 C293 1.310 . S
C292 C295 1.461 . S
C292 H312 0.932 . S
C293 C291 1.408 . S
C293 C292 1.310 . S
C293 H313 0.930 . S
C294 C295 1.474 . S
C294 C296 1.285 . S
C294 H314 0.929 . S
C295 C292 1.461 . S
C295 C294 1.474 . S
C296 C291 1.342 . S
C296 C294 1.285 . S
C296 H315 0.930 . S
C297 C300 1.424 . S
C297 C302 1.245 . S
C297 C303 1.428 . S
C298 C301 1.260 . S
C298 C302 1.477 . S
C298 H316 0.932 . S
C299 C300 1.384 . S
C299 C301 1.479 . S
C299 H317 0.929 . S
C300 C297 1.424 . S
C300 C299 1.384 . S
C300 H318 0.928 . S
C301 C298 1.260 . S
C301 C299 1.479 . S
C302 C297 1.245 . S
C302 C298 1.477 . S
C302 H319 0.932 . S
C303 U286 2.882 . S
C303 C297 1.428 . S
C303 O306 1.301 . S
C303 O307 1.282 . S
O304 U286 2.441 . S
O304 C290 1.249 . S
O305 U286 2.420 . S
O305 C290 1.202 . S
O306 U286 2.455 . S
O306 C303 1.301 . S
O307 U286 2.449 . S
O307 C303 1.282 . S
H308 C281 0.931 . S
H309 C283 0.929 1_655 S
H310 C284 0.930 . S
H311 C285 0.931 . S
H312 C292 0.932 . S
H313 C293 0.930 . S
H314 C294 0.929 . S
H315 C296 0.930 . S
H316 C298 0.932 . S
H317 C299 0.929 . S
H318 C300 0.928 . S
H319 C302 0.932 . S
Zn320 O326 1.920 . S
Zn320 O332 1.898 . S
Zn320 O335 1.905 . S
Zn321 O329 1.905 . S
Zn321 O330 1.898 . S
Zn321 O338 1.920 . S
Zn322 O325 2.080 . S
Zn322 O328 2.114 . S
Zn322 O331 2.120 . S
Zn322 O333 2.120 . S
Zn322 O334 2.114 . S
Zn322 O337 2.080 . S
C323 O328 1.166 . S
C323 O329 1.182 . S
C324 O330 1.167 . S
C324 O331 1.299 . S
O325 Zn322 2.080 . S
O325 C339 1.305 . S
O326 Zn320 1.920 . S
O326 C339 1.234 . S
C327 O332 1.167 . S
C327 O333 1.299 . S
O328 Zn322 2.114 . S
O328 C323 1.166 . S
O329 Zn321 1.905 . S
O329 C323 1.182 . S
O330 Zn321 1.898 . S
O330 C324 1.167 . S
O331 Zn322 2.120 . S
O331 C324 1.299 . S
O332 Zn320 1.898 . S
O332 C327 1.167 . S
O333 Zn322 2.120 . S
O333 C327 1.299 . S
O334 Zn322 2.114 . S
O334 C336 1.166 . S
O335 Zn320 1.905 . S
O335 C336 1.182 . S
C336 O334 1.166 . S
C336 O335 1.182 . S
O337 Zn322 2.080 . S
O337 C340 1.305 . S
O338 Zn321 1.920 . S
O338 C340 1.234 . S
C339 O325 1.305 . S
C339 O326 1.234 . S
C340 O337 1.305 . S
C340 O338 1.234 . S
Zn341 O347 1.920 . S
Zn341 O353 1.898 . S
Zn341 O356 1.905 . S
Zn342 O350 1.905 . S
Zn342 O351 1.898 . S
Zn342 O359 1.920 . S
Zn343 O346 2.080 . S
Zn343 O349 2.114 . S
Zn343 O352 2.120 . S
Zn343 O354 2.120 . S
Zn343 O355 2.114 . S
Zn343 O358 2.080 . S
C344 O349 1.166 . S
C344 O350 1.182 . S
C345 O351 1.167 . S
C345 O352 1.299 . S
O346 Zn343 2.080 . S
O346 C360 1.305 . S
O347 Zn341 1.920 . S
O347 C360 1.234 . S
C348 O353 1.167 . S
C348 O354 1.299 . S
O349 Zn343 2.114 . S
O349 C344 1.166 . S
O350 Zn342 1.905 . S
O350 C344 1.182 . S
O351 Zn342 1.898 . S
O351 C345 1.167 . S
O352 Zn343 2.120 . S
O352 C345 1.299 . S
O353 Zn341 1.898 . S
O353 C348 1.167 . S
O354 Zn343 2.120 . S
O354 C348 1.299 . S
O355 Zn343 2.114 . S
O355 C357 1.166 . S
O356 Zn341 1.905 . S
O356 C357 1.182 . S
C357 O355 1.166 . S
C357 O356 1.182 . S
O358 Zn343 2.080 . S
O358 C361 1.305 . S
O359 Zn342 1.920 . S
O359 C361 1.234 . S
C360 O346 1.305 . S
C360 O347 1.234 . S
C361 O358 1.305 . S
C361 O359 1.234 . S
Zn362 O368 1.920 . S
Zn362 O374 1.898 . S
Zn362 O377 1.905 . S
Zn363 O371 1.905 . S
Zn363 O372 1.898 . S
Zn363 O380 1.920 . S
Zn364 O367 2.080 . S
Zn364 O370 2.114 . S
Zn364 O373 2.120 . S
Zn364 O375 2.120 . S
Zn364 O376 2.114 . S
Zn364 O379 2.080 . S
C365 O370 1.166 . S
C365 O371 1.182 . S
C366 O372 1.167 . S
C366 O373 1.299 . S
O367 Zn364 2.080 . S
O367 C381 1.305 . S
O368 Zn362 1.920 . S
O368 C381 1.234 . S
C369 O374 1.167 . S
C369 O375 1.299 . S
O370 Zn364 2.114 . S
O370 C365 1.166 . S
O371 Zn363 1.905 . S
O371 C365 1.182 . S
O372 Zn363 1.898 . S
O372 C366 1.167 . S
O373 Zn364 2.120 . S
O373 C366 1.299 . S
O374 Zn362 1.898 . S
O374 C369 1.167 . S
O375 Zn364 2.120 . S
O375 C369 1.299 . S
O376 Zn364 2.114 . S
O376 C378 1.166 . S
O377 Zn362 1.905 . S
O377 C378 1.182 . S
C378 O376 1.166 . S
C378 O377 1.182 . S
O379 Zn364 2.080 . S
O379 C382 1.305 . S
O380 Zn363 1.920 . S
O380 C382 1.234 . S
C381 O367 1.305 . S
C381 O368 1.234 . S
C382 O379 1.305 . S
C382 O380 1.234 . S
Zn383 O389 1.920 . S
Zn383 O395 1.898 . S
Zn383 O398 1.905 . S
Zn384 O392 1.905 . S
Zn384 O393 1.898 . S
Zn384 O401 1.920 . S
Zn385 O388 2.080 . S
Zn385 O391 2.114 . S
Zn385 O394 2.120 . S
Zn385 O396 2.120 . S
Zn385 O397 2.114 . S
Zn385 O400 2.080 . S
C386 O391 1.166 . S
C386 O392 1.182 . S
C387 O393 1.167 . S
C387 O394 1.299 . S
O388 Zn385 2.080 . S
O388 C402 1.305 . S
O389 Zn383 1.920 . S
O389 C402 1.234 . S
C390 O395 1.167 . S
C390 O396 1.299 . S
O391 Zn385 2.114 . S
O391 C386 1.166 . S
O392 Zn384 1.905 . S
O392 C386 1.182 . S
O393 Zn384 1.898 . S
O393 C387 1.167 . S
O394 Zn385 2.120 . S
O394 C387 1.299 . S
O395 Zn383 1.898 . S
O395 C390 1.167 . S
O396 Zn385 2.120 . S
O396 C390 1.299 . S
O397 Zn385 2.114 . S
O397 C399 1.166 . S
O398 Zn383 1.905 . S
O398 C399 1.182 . S
C399 O397 1.166 . S
C399 O398 1.182 . S
O400 Zn385 2.080 . S
O400 C403 1.305 . S
O401 Zn384 1.920 . S
O401 C403 1.234 . S
C402 O388 1.305 . S
C402 O389 1.234 . S
C403 O400 1.305 . S
C403 O401 1.234 . S
H404 C422 0.951 . S
H405 C424 0.951 . S
H406 C426 0.950 . S
H407 C427 0.950 . S
H408 C429 0.950 . S
H409 C432 0.950 . S
H410 C433 0.950 . S
H411 C435 0.950 . S
H412 C436 0.950 . S
H413 C437 0.951 . S
H414 C439 0.951 . S
H415 C441 0.950 . S
H416 C442 0.950 . S
H417 C444 0.950 . S
H418 C447 0.950 . S
H419 C448 0.950 . S
H420 C450 0.950 . S
H421 C451 0.950 . S
C422 H404 0.951 . S
C422 C423 1.366 . S
C422 C424 1.388 . S
C423 C422 1.366 . S
C423 C427 1.385 . S
C424 H405 0.951 . S
C424 C422 1.388 . S
C424 C425 1.366 . S
C425 C424 1.366 . S
C425 C426 1.414 . S
C425 C428 1.499 . S
C426 H406 0.950 . S
C426 C425 1.414 . S
C426 C427 1.374 . S
C427 H407 0.950 . S
C427 C423 1.385 . S
C427 C426 1.374 . S
C428 C425 1.499 . S
C428 C429 1.373 . S
C428 C430 1.389 . S
C429 H408 0.950 . S
C429 C428 1.373 . S
C429 C445 1.377 . S
C430 C428 1.389 . S
C430 C431 1.524 . S
C430 C444 1.377 . S
C431 C430 1.524 . S
C431 C432 1.397 . S
C431 C436 1.363 . S
C432 H409 0.950 . S
C432 C431 1.397 . S
C432 C433 1.334 . S
C433 H410 0.950 . S
C433 C432 1.334 . S
C433 C434 1.287 . S
C434 C433 1.287 . S
C434 C435 1.524 . S
C434 H453 0.913 . S
C435 H411 0.950 . S
C435 C434 1.524 . S
C435 C436 1.415 . S
C436 H412 0.950 . S
C436 C431 1.363 . S
C436 C435 1.415 . S
C437 H413 0.951 . S
C437 C438 1.366 . S
C437 C439 1.388 . S
C438 C437 1.366 . S
C438 C442 1.385 . S
C439 H414 0.951 . S
C439 C437 1.388 . S
C439 C440 1.366 . S
C440 C439 1.366 . S
C440 C441 1.414 . S
C440 C443 1.499 . S
C441 H415 0.950 . S
C441 C440 1.414 . S
C441 C442 1.374 . S
C442 H416 0.950 . S
C442 C438 1.385 . S
C442 C441 1.374 . S
C443 C440 1.499 . S
C443 C444 1.373 . S
C443 C445 1.389 . S
C444 H417 0.950 . S
C444 C430 1.377 . S
C444 C443 1.373 . S
C445 C429 1.377 . S
C445 C443 1.389 . S
C445 C446 1.524 . S
C446 C445 1.524 . S
C446 C447 1.397 . S
C446 C451 1.363 . S
C447 H418 0.950 . S
C447 C446 1.397 . S
C447 C448 1.334 . S
C448 H419 0.950 . S
C448 C447 1.334 . S
C448 C449 1.287 . S
C449 C448 1.287 . S
C449 C450 1.524 . S
C449 H452 0.999 . S
C450 H420 0.950 . S
C450 C449 1.524 . S
C450 C451 1.415 . S
C451 H421 0.950 . S
C451 C446 1.363 . S
C451 C450 1.415 . S
H452 C449 0.999 . S
H453 C434 0.913 . S
H454 C472 0.951 . S
H455 C474 0.951 . S
H456 C476 0.950 . S
H457 C477 0.950 . S
H458 C479 0.950 . S
H459 C482 0.950 . S
H460 C483 0.950 . S
H461 C485 0.950 . S
H462 C486 0.950 . S
H463 C487 0.951 . S
H464 C489 0.951 . S
H465 C491 0.950 . S
H466 C492 0.950 . S
H467 C494 0.950 . S
H468 C497 0.950 . S
H469 C498 0.950 . S
H470 C500 0.950 . S
H471 C501 0.950 . S
C472 H454 0.951 . S
C472 C473 1.366 . S
C472 C474 1.388 . S
C473 C472 1.366 . S
C473 C477 1.385 . S
C474 H455 0.951 . S
C474 C472 1.388 . S
C474 C475 1.366 . S
C475 C474 1.366 . S
C475 C476 1.414 . S
C475 C478 1.499 . S
C476 H456 0.950 . S
C476 C475 1.414 . S
C476 C477 1.374 . S
C477 H457 0.950 . S
C477 C473 1.385 . S
C477 C476 1.374 . S
C478 C475 1.499 . S
C478 C479 1.373 . S
C478 C480 1.389 . S
C479 H458 0.950 . S
C479 C478 1.373 . S
C479 C495 1.377 . S
C480 C478 1.389 . S
C480 C481 1.524 . S
C480 C494 1.377 . S
C481 C480 1.524 . S
C481 C482 1.397 . S
C481 C486 1.363 . S
C482 H459 0.950 . S
C482 C481 1.397 . S
C482 C483 1.334 . S
C483 H460 0.950 . S
C483 C482 1.334 . S
C483 C484 1.287 . S
C484 C483 1.287 . S
C484 C485 1.524 . S
C484 H503 0.913 . S
C485 H461 0.950 . S
C485 C484 1.524 . S
C485 C486 1.415 . S
C486 H462 0.950 . S
C486 C481 1.363 . S
C486 C485 1.415 . S
C487 H463 0.951 . S
C487 C488 1.366 . S
C487 C489 1.388 . S
C488 C487 1.366 . S
C488 C492 1.385 . S
C489 H464 0.951 . S
C489 C487 1.388 . S
C489 C490 1.366 . S
C490 C489 1.366 . S
C490 C491 1.414 . S
C490 C493 1.499 . S
C491 H465 0.950 . S
C491 C490 1.414 . S
C491 C492 1.374 . S
C492 H466 0.950 . S
C492 C488 1.385 . S
C492 C491 1.374 . S
C493 C490 1.499 . S
C493 C494 1.373 . S
C493 C495 1.389 . S
C494 H467 0.950 . S
C494 C480 1.377 . S
C494 C493 1.373 . S
C495 C479 1.377 . S
C495 C493 1.389 . S
C495 C496 1.524 . S
C496 C495 1.524 . S
C496 C497 1.397 . S
C496 C501 1.363 . S
C497 H468 0.950 . S
C497 C496 1.397 . S
C497 C498 1.334 . S
C498 H469 0.950 . S
C498 C497 1.334 . S
C498 C499 1.287 . S
C499 C498 1.287 . S
C499 C500 1.524 . S
C499 H502 0.999 . S
C500 H470 0.950 . S
C500 C499 1.524 . S
C500 C501 1.415 . S
C501 H471 0.950 . S
C501 C496 1.363 . S
C501 C500 1.415 . S
H502 C499 0.999 . S
H503 C484 0.913 . S
H504 C522 0.951 . S
H505 C524 0.951 . S
H506 C526 0.950 . S
H507 C527 0.950 . S
H508 C529 0.950 . S
H509 C532 0.950 . S
H510 C533 0.950 . S
H511 C535 0.950 . S
H512 C536 0.950 . S
H513 C537 0.951 . S
H514 C539 0.951 . S
H515 C541 0.950 . S
H516 C542 0.950 . S
H517 C544 0.950 . S
H518 C547 0.950 . S
H519 C548 0.950 . S
H520 C550 0.950 . S
H521 C551 0.950 . S
C522 H504 0.951 . S
C522 C523 1.366 . S
C522 C524 1.388 . S
C523 C522 1.366 . S
C523 C527 1.385 . S
C524 H505 0.951 . S
C524 C522 1.388 . S
C524 C525 1.366 . S
C525 C524 1.366 . S
C525 C526 1.414 . S
C525 C528 1.499 . S
C526 H506 0.950 . S
C526 C525 1.414 . S
C526 C527 1.374 . S
C527 H507 0.950 . S
C527 C523 1.385 . S
C527 C526 1.374 . S
C528 C525 1.499 . S
C528 C529 1.373 . S
C528 C530 1.389 . S
C529 H508 0.950 . S
C529 C528 1.373 . S
C529 C545 1.377 . S
C530 C528 1.389 . S
C530 C531 1.524 . S
C530 C544 1.377 . S
C531 C530 1.524 . S
C531 C532 1.397 . S
C531 C536 1.363 . S
C532 H509 0.950 . S
C532 C531 1.397 . S
C532 C533 1.334 . S
C533 H510 0.950 . S
C533 C532 1.334 . S
C533 C534 1.287 . S
C534 C533 1.287 . S
C534 C535 1.524 . S
C534 H553 0.913 . S
C535 H511 0.950 . S
C535 C534 1.524 . S
C535 C536 1.415 . S
C536 H512 0.950 . S
C536 C531 1.363 . S
C536 C535 1.415 . S
C537 H513 0.951 . S
C537 C538 1.366 . S
C537 C539 1.388 . S
C538 C537 1.366 . S
C538 C542 1.385 . S
C539 H514 0.951 . S
C539 C537 1.388 . S
C539 C540 1.366 . S
C540 C539 1.366 . S
C540 C541 1.414 . S
C540 C543 1.499 . S
C541 H515 0.950 . S
C541 C540 1.414 . S
C541 C542 1.374 . S
C542 H516 0.950 . S
C542 C538 1.385 . S
C542 C541 1.374 . S
C543 C540 1.499 . S
C543 C544 1.373 . S
C543 C545 1.389 . S
C544 H517 0.950 . S
C544 C530 1.377 . S
C544 C543 1.373 . S
C545 C529 1.377 . S
C545 C543 1.389 . S
C545 C546 1.524 . S
C546 C545 1.524 . S
C546 C547 1.397 . S
C546 C551 1.363 . S
C547 H518 0.950 . S
C547 C546 1.397 . S
C547 C548 1.334 . S
C548 H519 0.950 . S
C548 C547 1.334 . S
C548 C549 1.287 . S
C549 C548 1.287 . S
C549 C550 1.524 . S
C549 H552 0.999 . S
C550 H520 0.950 . S
C550 C549 1.524 . S
C550 C551 1.415 . S
C551 H521 0.950 . S
C551 C546 1.363 . S
C551 C550 1.415 . S
H552 C549 0.999 . S
H553 C534 0.913 . S
H554 C572 0.951 . S
H555 C574 0.951 . S
H556 C576 0.950 . S
H557 C577 0.950 . S
H558 C579 0.950 . S
H559 C582 0.950 . S
H560 C583 0.950 . S
H561 C585 0.950 . S
H562 C586 0.950 . S
H563 C587 0.951 . S
H564 C589 0.951 . S
H565 C591 0.950 . S
H566 C592 0.950 . S
H567 C594 0.950 . S
H568 C597 0.950 . S
H569 C598 0.950 . S
H570 C600 0.950 . S
H571 C601 0.950 . S
C572 H554 0.951 . S
C572 C573 1.366 . S
C572 C574 1.388 . S
C573 C572 1.366 . S
C573 C577 1.385 . S
C574 H555 0.951 . S
C574 C572 1.388 . S
C574 C575 1.366 . S
C575 C574 1.366 . S
C575 C576 1.414 . S
C575 C578 1.499 . S
C576 H556 0.950 . S
C576 C575 1.414 . S
C576 C577 1.374 . S
C577 H557 0.950 . S
C577 C573 1.385 . S
C577 C576 1.374 . S
C578 C575 1.499 . S
C578 C579 1.373 . S
C578 C580 1.389 . S
C579 H558 0.950 . S
C579 C578 1.373 . S
C579 C595 1.377 . S
C580 C578 1.389 . S
C580 C581 1.524 . S
C580 C594 1.377 . S
C581 C580 1.524 . S
C581 C582 1.397 . S
C581 C586 1.363 . S
C582 H559 0.950 . S
C582 C581 1.397 . S
C582 C583 1.334 . S
C583 H560 0.950 . S
C583 C582 1.334 . S
C583 C584 1.287 . S
C584 C583 1.287 . S
C584 C585 1.524 . S
C584 H603 0.913 . S
C585 H561 0.950 . S
C585 C584 1.524 . S
C585 C586 1.415 . S
C586 H562 0.950 . S
C586 C581 1.363 . S
C586 C585 1.415 . S
C587 H563 0.951 . S
C587 C588 1.366 . S
C587 C589 1.388 1_455 S
C588 C587 1.366 . S
C588 C592 1.385 . S
C589 H564 0.951 . S
C589 C587 1.388 1_655 S
C589 C590 1.366 . S
C590 C589 1.366 . S
C590 C591 1.414 . S
C590 C593 1.499 . S
C591 H565 0.950 . S
C591 C590 1.414 . S
C591 C592 1.374 1_655 S
C592 H566 0.950 . S
C592 C588 1.385 . S
C592 C591 1.374 1_455 S
C593 C590 1.499 . S
C593 C594 1.373 . S
C593 C595 1.389 . S
C594 H567 0.950 . S
C594 C580 1.377 . S
C594 C593 1.373 . S
C595 C579 1.377 . S
C595 C593 1.389 . S
C595 C596 1.524 . S
C596 C595 1.524 . S
C596 C597 1.397 . S
C596 C601 1.363 . S
C597 H568 0.950 . S
C597 C596 1.397 . S
C597 C598 1.334 . S
C598 H569 0.950 . S
C598 C597 1.334 . S
C598 C599 1.287 . S
C599 C598 1.287 . S
C599 C600 1.524 . S
C599 H602 0.999 . S
C600 H570 0.950 . S
C600 C599 1.524 . S
C600 C601 1.415 . S
C601 H571 0.950 . S
C601 C596 1.363 . S
C601 C600 1.415 . S
H602 C599 0.999 . S
H603 C584 0.913 . S
H604 C622 0.951 . S
H605 C624 0.951 . S
H606 C626 0.950 . S
H607 C627 0.950 . S
H608 C629 0.950 . S
H609 C632 0.950 . S
H610 C633 0.950 . S
H611 C635 0.950 . S
H612 C636 0.950 . S
H613 C637 0.951 . S
H614 C639 0.951 . S
H615 C641 0.950 . S
H616 C642 0.950 . S
H617 C644 0.950 . S
H618 C647 0.950 . S
H619 C648 0.950 . S
H620 C650 0.950 . S
H621 C651 0.950 . S
C622 H604 0.951 . S
C622 C623 1.366 . S
C622 C624 1.388 . S
C623 C622 1.366 . S
C623 C627 1.385 . S
C624 H605 0.951 . S
C624 C622 1.388 . S
C624 C625 1.366 . S
C625 C624 1.366 . S
C625 C626 1.414 . S
C625 C628 1.499 . S
C626 H606 0.950 . S
C626 C625 1.414 . S
C626 C627 1.374 . S
C627 H607 0.950 . S
C627 C623 1.385 . S
C627 C626 1.374 . S
C628 C625 1.499 . S
C628 C629 1.373 . S
C628 C630 1.389 . S
C629 H608 0.950 . S
C629 C628 1.373 . S
C629 C645 1.377 . S
C630 C628 1.389 . S
C630 C631 1.524 . S
C630 C644 1.377 . S
C631 C630 1.524 . S
C631 C632 1.397 . S
C631 C636 1.363 . S
C632 H609 0.950 . S
C632 C631 1.397 . S
C632 C633 1.334 . S
C633 H610 0.950 . S
C633 C632 1.334 . S
C633 C634 1.287 . S
C634 C633 1.287 . S
C634 C635 1.524 . S
C634 H653 0.913 . S
C635 H611 0.950 . S
C635 C634 1.524 . S
C635 C636 1.415 . S
C636 H612 0.950 . S
C636 C631 1.363 . S
C636 C635 1.415 . S
C637 H613 0.951 . S
C637 C638 1.366 . S
C637 C639 1.388 . S
C638 C637 1.366 . S
C638 C642 1.385 . S
C639 H614 0.951 . S
C639 C637 1.388 . S
C639 C640 1.366 . S
C640 C639 1.366 . S
C640 C641 1.414 . S
C640 C643 1.499 . S
C641 H615 0.950 . S
C641 C640 1.414 . S
C641 C642 1.374 . S
C642 H616 0.950 . S
C642 C638 1.385 . S
C642 C641 1.374 . S
C643 C640 1.499 . S
C643 C644 1.373 . S
C643 C645 1.389 . S
C644 H617 0.950 . S
C644 C630 1.377 . S
C644 C643 1.373 . S
C645 C629 1.377 . S
C645 C643 1.389 . S
C645 C646 1.524 . S
C646 C645 1.524 . S
C646 C647 1.397 . S
C646 C651 1.363 . S
C647 H618 0.950 . S
C647 C646 1.397 . S
C647 C648 1.334 . S
C648 H619 0.950 . S
C648 C647 1.334 . S
C648 C649 1.287 1_455 S
C649 C648 1.287 1_655 S
C649 C650 1.524 . S
C649 H652 0.999 . S
C650 H620 0.950 . S
C650 C649 1.524 . S
C650 C651 1.415 1_655 S
C651 H621 0.950 . S
C651 C646 1.363 . S
C651 C650 1.415 1_455 S
H652 C649 0.999 . S
H653 C634 0.913 . S
H654 C672 0.951 . S
H655 C674 0.951 . S
H656 C676 0.950 . S
H657 C677 0.950 . S
H658 C679 0.950 . S
H659 C682 0.950 . S
H660 C683 0.950 . S
H661 C685 0.950 . S
H662 C686 0.950 . S
H663 C687 0.951 . S
H664 C689 0.945 1_655 S
H665 C691 0.950 . S
H666 C692 0.950 . S
H667 C694 0.950 . S
H668 C697 0.950 . S
H669 C698 0.950 1_455 S
H670 C700 0.950 . S
H671 C701 0.950 . S
C672 H654 0.951 . S
C672 C673 1.366 . S
C672 C674 1.388 . S
C673 C672 1.366 . S
C673 C677 1.385 . S
C674 H655 0.951 . S
C674 C672 1.388 . S
C674 C675 1.366 . S
C675 C674 1.366 . S
C675 C676 1.414 . S
C675 C678 1.499 . S
C676 H656 0.950 . S
C676 C675 1.414 . S
C676 C677 1.374 . S
C677 H657 0.950 . S
C677 C673 1.385 . S
C677 C676 1.374 . S
C678 C675 1.499 . S
C678 C679 1.373 . S
C678 C680 1.389 . S
C679 H658 0.950 . S
C679 C678 1.373 . S
C679 C695 1.377 . S
C680 C678 1.389 . S
C680 C681 1.524 . S
C680 C694 1.377 . S
C681 C680 1.524 . S
C681 C682 1.397 . S
C681 C686 1.363 . S
C682 H659 0.950 . S
C682 C681 1.397 . S
C682 C683 1.334 . S
C683 H660 0.950 . S
C683 C682 1.334 . S
C683 C684 1.287 . S
C684 C683 1.287 . S
C684 C685 1.524 . S
C684 H703 0.913 . S
C685 H661 0.950 . S
C685 C684 1.524 . S
C685 C686 1.415 . S
C686 H662 0.950 . S
C686 C681 1.363 . S
C686 C685 1.415 . S
C687 H663 0.951 . S
C687 C688 1.366 . S
C687 C689 1.402 . S
C688 C687 1.366 . S
C688 C692 1.385 . S
C689 H664 0.945 1_455 S
C689 C687 1.402 . S
C689 C690 1.357 1_455 S
C690 C689 1.357 1_655 S
C690 C691 1.414 . S
C690 C693 1.499 . S
C691 H665 0.950 . S
C691 C690 1.414 . S
C691 C692 1.374 1_655 S
C692 H666 0.950 . S
C692 C688 1.385 . S
C692 C691 1.374 1_455 S
C693 C690 1.499 . S
C693 C694 1.373 . S
C693 C695 1.389 . S
C694 H667 0.950 . S
C694 C680 1.377 . S
C694 C693 1.373 . S
C695 C679 1.377 . S
C695 C693 1.389 . S
C695 C696 1.524 . S
C696 C695 1.524 . S
C696 C697 1.397 . S
C696 C701 1.363 . S
C697 H668 0.950 . S
C697 C696 1.397 . S
C697 C698 1.334 . S
C698 H669 0.950 1_655 S
C698 C697 1.334 . S
C698 C699 1.287 . S
C699 C698 1.287 . S
C699 C700 1.524 . S
C699 H702 0.999 1_655 S
C700 H670 0.950 . S
C700 C699 1.524 . S
C700 C701 1.415 . S
C701 H671 0.950 . S
C701 C696 1.363 . S
C701 C700 1.415 . S
H702 C699 0.999 1_455 S
H703 C684 0.913 . S
H704 C722 0.951 . S
H705 C724 0.951 . S
H706 C726 0.950 . S
H707 C727 0.950 . S
H708 C729 0.950 . S
H709 C732 0.950 . S
H710 C733 0.950 . S
H711 C735 0.950 . S
H712 C736 0.950 . S
H713 C737 0.951 . S
H714 C739 0.951 . S
H715 C741 0.950 . S
H716 C742 0.950 . S
H717 C744 0.950 . S
H718 C747 0.950 . S
H719 C748 0.950 . S
H720 C750 0.950 . S
H721 C751 0.950 . S
C722 H704 0.951 . S
C722 C723 1.366 . S
C722 C724 1.388 . S
C723 C722 1.366 . S
C723 C727 1.385 . S
C724 H705 0.951 . S
C724 C722 1.388 . S
C724 C725 1.366 . S
C725 C724 1.366 . S
C725 C726 1.414 . S
C725 C728 1.499 . S
C726 H706 0.950 . S
C726 C725 1.414 . S
C726 C727 1.374 . S
C727 H707 0.950 . S
C727 C723 1.385 . S
C727 C726 1.374 . S
C728 C725 1.499 . S
C728 C729 1.373 . S
C728 C730 1.389 . S
C729 H708 0.950 . S
C729 C728 1.373 . S
C729 C745 1.377 . S
C730 C728 1.389 . S
C730 C731 1.524 . S
C730 C744 1.377 . S
C731 C730 1.524 . S
C731 C732 1.397 . S
C731 C736 1.363 . S
C732 H709 0.950 . S
C732 C731 1.397 . S
C732 C733 1.334 . S
C733 H710 0.950 . S
C733 C732 1.334 . S
C733 C734 1.287 . S
C734 C733 1.287 . S
C734 C735 1.524 . S
C734 H753 0.913 . S
C735 H711 0.950 . S
C735 C734 1.524 . S
C735 C736 1.415 . S
C736 H712 0.950 . S
C736 C731 1.363 . S
C736 C735 1.415 . S
C737 H713 0.951 . S
C737 C738 1.366 . S
C737 C739 1.388 . S
C738 C737 1.366 . S
C738 C742 1.385 . S
C739 H714 0.951 . S
C739 C737 1.388 . S
C739 C740 1.366 . S
C740 C739 1.366 . S
C740 C741 1.414 . S
C740 C743 1.499 . S
C741 H715 0.950 . S
C741 C740 1.414 . S
C741 C742 1.374 . S
C742 H716 0.950 . S
C742 C738 1.385 . S
C742 C741 1.374 . S
C743 C740 1.499 . S
C743 C744 1.373 . S
C743 C745 1.389 . S
C744 H717 0.950 . S
C744 C730 1.377 . S
C744 C743 1.373 . S
C745 C729 1.377 . S
C745 C743 1.389 . S
C745 C746 1.524 . S
C746 C745 1.524 . S
C746 C747 1.397 . S
C746 C751 1.363 . S
C747 H718 0.950 . S
C747 C746 1.397 . S
C747 C748 1.334 . S
C748 H719 0.950 . S
C748 C747 1.334 . S
C748 C749 1.287 . S
C749 C748 1.287 . S
C749 C750 1.524 . S
C749 H752 0.999 . S
C750 H720 0.950 . S
C750 C749 1.524 . S
C750 C751 1.415 . S
C751 H721 0.950 . S
C751 C746 1.363 . S
C751 C750 1.415 . S
H752 C749 0.999 . S
H753 C734 0.913 . S
H754 C772 0.951 . S
H755 C774 0.951 . S
H756 C776 0.950 . S
H757 C777 0.950 . S
H758 C779 0.950 . S
H759 C782 0.950 . S
H760 C783 0.950 . S
H761 C785 0.950 . S
H762 C786 0.950 . S
H763 C787 0.951 . S
H764 C789 0.951 . S
H765 C791 0.950 . S
H766 C792 0.950 . S
H767 C794 0.950 . S
H768 C797 0.950 . S
H769 C798 0.950 . S
H770 C800 0.950 . S
H771 C801 0.950 . S
C772 H754 0.951 . S
C772 C773 1.366 . S
C772 C774 1.388 . S
C773 C772 1.366 . S
C773 C777 1.385 . S
C774 H755 0.951 . S
C774 C772 1.388 . S
C774 C775 1.366 . S
C775 C774 1.366 . S
C775 C776 1.414 . S
C775 C778 1.499 . S
C776 H756 0.950 . S
C776 C775 1.414 . S
C776 C777 1.374 . S
C777 H757 0.950 . S
C777 C773 1.385 . S
C777 C776 1.374 . S
C778 C775 1.499 . S
C778 C779 1.373 . S
C778 C780 1.389 . S
C779 H758 0.950 . S
C779 C778 1.373 . S
C779 C795 1.377 . S
C780 C778 1.389 . S
C780 C781 1.524 . S
C780 C794 1.377 . S
C781 C780 1.524 . S
C781 C782 1.397 . S
C781 C786 1.363 . S
C782 H759 0.950 . S
C782 C781 1.397 . S
C782 C783 1.334 . S
C783 H760 0.950 . S
C783 C782 1.334 . S
C783 C784 1.287 . S
C784 C783 1.287 . S
C784 C785 1.524 . S
C784 H803 0.913 . S
C785 H761 0.950 . S
C785 C784 1.524 . S
C785 C786 1.415 . S
C786 H762 0.950 . S
C786 C781 1.363 . S
C786 C785 1.415 . S
C787 H763 0.951 . S
C787 C788 1.366 . S
C787 C789 1.388 . S
C788 C787 1.366 . S
C788 C792 1.385 . S
C789 H764 0.951 . S
C789 C787 1.388 . S
C789 C790 1.366 . S
C790 C789 1.366 . S
C790 C791 1.414 . S
C790 C793 1.499 . S
C791 H765 0.950 . S
C791 C790 1.414 . S
C791 C792 1.374 . S
C792 H766 0.950 . S
C792 C788 1.385 . S
C792 C791 1.374 . S
C793 C790 1.499 . S
C793 C794 1.373 . S
C793 C795 1.389 . S
C794 H767 0.950 . S
C794 C780 1.377 . S
C794 C793 1.373 . S
C795 C779 1.377 . S
C795 C793 1.389 . S
C795 C796 1.524 . S
C796 C795 1.524 . S
C796 C797 1.397 . S
C796 C801 1.363 . S
C797 H768 0.950 . S
C797 C796 1.397 . S
C797 C798 1.334 . S
C798 H769 0.950 . S
C798 C797 1.334 . S
C798 C799 1.287 . S
C799 C798 1.287 . S
C799 C800 1.524 . S
C799 H802 0.999 . S
C800 H770 0.950 . S
C800 C799 1.524 . S
C800 C801 1.415 . S
C801 H771 0.950 . S
C801 C796 1.363 . S
C801 C800 1.415 . S
H802 C799 0.999 . S
H803 C784 0.913 . S
H804 C822 0.951 . S
H805 C824 0.951 . S
H806 C826 0.950 . S
H807 C827 0.950 . S
H808 C829 0.950 . S
H809 C832 0.950 . S
H810 C833 0.950 . S
H811 C835 0.950 . S
H812 C836 0.950 . S
H813 C837 0.951 . S
H814 C839 0.951 . S
H815 C841 0.950 . S
H816 C842 0.950 . S
H817 C844 0.950 . S
H818 C847 0.950 . S
H819 C848 0.950 . S
H820 C850 0.950 . S
H821 C851 0.950 . S
C822 H804 0.951 . S
C822 C823 1.366 . S
C822 C824 1.388 . S
C823 C822 1.366 . S
C823 C827 1.385 . S
C824 H805 0.951 . S
C824 C822 1.388 . S
C824 C825 1.366 . S
C825 C824 1.366 . S
C825 C826 1.414 . S
C825 C828 1.499 . S
C826 H806 0.950 . S
C826 C825 1.414 . S
C826 C827 1.374 . S
C827 H807 0.950 . S
C827 C823 1.385 . S
C827 C826 1.374 . S
C828 C825 1.499 . S
C828 C829 1.373 . S
C828 C830 1.389 . S
C829 H808 0.950 . S
C829 C828 1.373 . S
C829 C845 1.377 . S
C830 C828 1.389 . S
C830 C831 1.524 . S
C830 C844 1.377 . S
C831 C830 1.524 . S
C831 C832 1.397 . S
C831 C836 1.363 . S
C832 H809 0.950 . S
C832 C831 1.397 . S
C832 C833 1.334 . S
C833 H810 0.950 . S
C833 C832 1.334 . S
C833 C834 1.287 . S
C834 C833 1.287 . S
C834 C835 1.524 . S
C834 H853 0.913 . S
C835 H811 0.950 . S
C835 C834 1.524 . S
C835 C836 1.415 . S
C836 H812 0.950 . S
C836 C831 1.363 . S
C836 C835 1.415 . S
C837 H813 0.951 . S
C837 C838 1.366 . S
C837 C839 1.388 . S
C838 C837 1.366 . S
C838 C842 1.385 . S
C839 H814 0.951 . S
C839 C837 1.388 . S
C839 C840 1.366 . S
C840 C839 1.366 . S
C840 C841 1.414 . S
C840 C843 1.499 . S
C841 H815 0.950 . S
C841 C840 1.414 . S
C841 C842 1.374 . S
C842 H816 0.950 . S
C842 C838 1.385 . S
C842 C841 1.374 . S
C843 C840 1.499 . S
C843 C844 1.373 . S
C843 C845 1.389 . S
C844 H817 0.950 . S
C844 C830 1.377 . S
C844 C843 1.373 . S
C845 C829 1.377 . S
C845 C843 1.389 . S
C845 C846 1.524 . S
C846 C845 1.524 . S
C846 C847 1.397 . S
C846 C851 1.363 . S
C847 H818 0.950 . S
C847 C846 1.397 . S
C847 C848 1.334 . S
C848 H819 0.950 . S
C848 C847 1.334 . S
C848 C849 1.287 . S
C849 C848 1.287 . S
C849 C850 1.524 . S
C849 H852 0.999 . S
C850 H820 0.950 . S
C850 C849 1.524 . S
C850 C851 1.415 . S
C851 H821 0.950 . S
C851 C846 1.363 . S
C851 C850 1.415 . S
H852 C849 0.999 . S
H853 C834 0.913 . S
H854 C872 0.951 . S
H855 C874 0.951 . S
H856 C876 0.950 . S
H857 C877 0.950 . S
H858 C879 0.950 . S
H859 C882 0.950 . S
H860 C883 0.950 . S
H861 C885 0.950 . S
H862 C886 0.950 . S
H863 C887 0.951 . S
H864 C889 0.951 . S
H865 C891 0.950 . S
H866 C892 0.950 . S
H867 C894 0.950 . S
H868 C897 0.950 . S
H869 C898 0.950 . S
H870 C900 0.950 . S
H871 C901 0.950 . S
C872 H854 0.951 . S
C872 C873 1.366 . S
C872 C874 1.388 . S
C873 C872 1.366 . S
C873 C877 1.385 . S
C874 H855 0.951 . S
C874 C872 1.388 . S
C874 C875 1.366 . S
C875 C874 1.366 . S
C875 C876 1.414 . S
C875 C878 1.499 . S
C876 H856 0.950 . S
C876 C875 1.414 . S
C876 C877 1.374 . S
C877 H857 0.950 . S
C877 C873 1.385 . S
C877 C876 1.374 . S
C878 C875 1.499 . S
C878 C879 1.373 . S
C878 C880 1.389 . S
C879 H858 0.950 . S
C879 C878 1.373 . S
C879 C895 1.377 . S
C880 C878 1.389 . S
C880 C881 1.524 . S
C880 C894 1.377 . S
C881 C880 1.524 . S
C881 C882 1.397 . S
C881 C886 1.363 . S
C882 H859 0.950 . S
C882 C881 1.397 . S
C882 C883 1.334 . S
C883 H860 0.950 . S
C883 C882 1.334 . S
C883 C884 1.287 . S
C884 C883 1.287 . S
C884 C885 1.524 . S
C884 H903 0.913 . S
C885 H861 0.950 . S
C885 C884 1.524 . S
C885 C886 1.415 . S
C886 H862 0.950 . S
C886 C881 1.363 . S
C886 C885 1.415 . S
C887 H863 0.951 . S
C887 C888 1.366 . S
C887 C889 1.388 . S
C888 C887 1.366 . S
C888 C892 1.385 . S
C889 H864 0.951 . S
C889 C887 1.388 . S
C889 C890 1.366 . S
C890 C889 1.366 . S
C890 C891 1.414 . S
C890 C893 1.499 . S
C891 H865 0.950 . S
C891 C890 1.414 . S
C891 C892 1.374 . S
C892 H866 0.950 . S
C892 C888 1.385 . S
C892 C891 1.374 . S
C893 C890 1.499 . S
C893 C894 1.373 . S
C893 C895 1.389 . S
C894 H867 0.950 . S
C894 C880 1.377 . S
C894 C893 1.373 . S
C895 C879 1.377 . S
C895 C893 1.389 . S
C895 C896 1.524 . S
C896 C895 1.524 . S
C896 C897 1.397 . S
C896 C901 1.363 . S
C897 H868 0.950 . S
C897 C896 1.397 . S
C897 C898 1.334 . S
C898 H869 0.950 . S
C898 C897 1.334 . S
C898 C899 1.287 . S
C899 C898 1.287 . S
C899 C900 1.524 . S
C899 H902 0.999 . S
C900 H870 0.950 . S
C900 C899 1.524 . S
C900 C901 1.415 . S
C901 H871 0.950 . S
C901 C896 1.363 . S
C901 C900 1.415 . S
H902 C899 0.999 . S
H903 C884 0.913 . S
H904 C922 0.951 . S
H905 C924 0.951 . S
H906 C926 0.950 . S
H907 C927 0.950 . S
H908 C929 0.950 . S
H909 C932 0.950 . S
H910 C933 0.950 . S
H911 C935 0.950 . S
H912 C936 0.950 . S
H913 C937 0.951 . S
H914 C939 0.951 . S
H915 C941 0.950 . S
H916 C942 0.950 . S
H917 C944 0.950 . S
H918 C947 0.950 . S
H919 C948 0.950 . S
H920 C950 0.950 . S
H921 C951 0.950 . S
C922 H904 0.951 . S
C922 C923 1.366 . S
C922 C924 1.388 . S
C923 C922 1.366 . S
C923 C927 1.385 . S
C924 H905 0.951 . S
C924 C922 1.388 . S
C924 C925 1.366 . S
C925 C924 1.366 . S
C925 C926 1.414 . S
C925 C928 1.499 . S
C926 H906 0.950 . S
C926 C925 1.414 . S
C926 C927 1.374 . S
C927 H907 0.950 . S
C927 C923 1.385 . S
C927 C926 1.374 . S
C928 C925 1.499 . S
C928 C929 1.373 . S
C928 C930 1.389 . S
C929 H908 0.950 . S
C929 C928 1.373 . S
C929 C945 1.377 . S
C930 C928 1.389 . S
C930 C931 1.524 . S
C930 C944 1.377 . S
C931 C930 1.524 . S
C931 C932 1.397 . S
C931 C936 1.363 . S
C932 H909 0.950 . S
C932 C931 1.397 . S
C932 C933 1.334 . S
C933 H910 0.950 . S
C933 C932 1.334 . S
C933 C934 1.287 . S
C934 C933 1.287 . S
C934 C935 1.524 . S
C934 H953 0.913 . S
C935 H911 0.950 . S
C935 C934 1.524 . S
C935 C936 1.415 . S
C936 H912 0.950 . S
C936 C931 1.363 . S
C936 C935 1.415 . S
C937 H913 0.951 . S
C937 C938 1.366 . S
C937 C939 1.388 . S
C938 C937 1.366 . S
C938 C942 1.385 . S
C939 H914 0.951 . S
C939 C937 1.388 . S
C939 C940 1.366 . S
C940 C939 1.366 . S
C940 C941 1.414 . S
C940 C943 1.499 . S
C941 H915 0.950 . S
C941 C940 1.414 . S
C941 C942 1.374 . S
C942 H916 0.950 . S
C942 C938 1.385 . S
C942 C941 1.374 . S
C943 C940 1.499 . S
C943 C944 1.373 . S
C943 C945 1.389 . S
C944 H917 0.950 . S
C944 C930 1.377 . S
C944 C943 1.373 . S
C945 C929 1.377 . S
C945 C943 1.389 . S
C945 C946 1.524 . S
C946 C945 1.524 . S
C946 C947 1.397 . S
C946 C951 1.363 . S
C947 H918 0.950 . S
C947 C946 1.397 . S
C947 C948 1.334 . S
C948 H919 0.950 . S
C948 C947 1.334 . S
C948 C949 1.287 . S
C949 C948 1.287 . S
C949 C950 1.524 . S
C949 H952 0.999 . S
C950 H920 0.950 . S
C950 C949 1.524 . S
C950 C951 1.415 . S
C951 H921 0.950 . S
C951 C946 1.363 . S
C951 C950 1.415 . S
H952 C949 0.999 . S
H953 C934 0.913 . S
H954 C972 0.951 . S
H955 C974 0.951 . S
H956 C976 0.950 . S
H957 C977 0.950 . S
H958 C979 0.950 . S
H959 C982 0.950 . S
H960 C983 0.950 . S
H961 C985 0.950 . S
H962 C986 0.950 . S
H963 C987 0.951 . S
H964 C989 0.951 . S
H965 C991 0.950 . S
H966 C992 0.950 . S
H967 C994 0.950 . S
H968 C997 0.950 . S
H969 C998 0.950 . S
H970 C1000 0.950 . S
H971 C1001 0.950 . S
C972 H954 0.951 . S
C972 C973 1.366 . S
C972 C974 1.388 . S
C973 C972 1.366 . S
C973 C977 1.385 . S
C974 H955 0.951 . S
C974 C972 1.388 . S
C974 C975 1.366 . S
C975 C974 1.366 . S
C975 C976 1.414 . S
C975 C978 1.499 . S
C976 H956 0.950 . S
C976 C975 1.414 . S
C976 C977 1.374 . S
C977 H957 0.950 . S
C977 C973 1.385 . S
C977 C976 1.374 . S
C978 C975 1.499 . S
C978 C979 1.373 . S
C978 C980 1.389 . S
C979 H958 0.950 . S
C979 C978 1.373 . S
C979 C995 1.377 . S
C980 C978 1.389 . S
C980 C981 1.524 . S
C980 C994 1.377 . S
C981 C980 1.524 . S
C981 C982 1.397 . S
C981 C986 1.363 . S
C982 H959 0.950 . S
C982 C981 1.397 . S
C982 C983 1.334 . S
C983 H960 0.950 . S
C983 C982 1.334 . S
C983 C984 1.287 . S
C984 C983 1.287 . S
C984 C985 1.524 . S
C984 H1003 0.913 . S
C985 H961 0.950 . S
C985 C984 1.524 . S
C985 C986 1.415 . S
C986 H962 0.950 . S
C986 C981 1.363 . S
C986 C985 1.415 . S
C987 H963 0.951 . S
C987 C988 1.366 . S
C987 C989 1.388 . S
C988 C987 1.366 . S
C988 C992 1.385 . S
C989 H964 0.951 . S
C989 C987 1.388 . S
C989 C990 1.366 . S
C990 C989 1.366 . S
C990 C991 1.414 . S
C990 C993 1.499 . S
C991 H965 0.950 . S
C991 C990 1.414 . S
C991 C992 1.374 . S
C992 H966 0.950 . S
C992 C988 1.385 . S
C992 C991 1.374 . S
C993 C990 1.499 . S
C993 C994 1.373 . S
C993 C995 1.389 . S
C994 H967 0.950 . S
C994 C980 1.377 . S
C994 C993 1.373 . S
C995 C979 1.377 . S
C995 C993 1.389 . S
C995 C996 1.524 . S
C996 C995 1.524 . S
C996 C997 1.397 . S
C996 C1001 1.363 . S
C997 H968 0.950 . S
C997 C996 1.397 . S
C997 C998 1.334 . S
C998 H969 0.950 . S
C998 C997 1.334 . S
C998 C999 1.287 . S
C999 C998 1.287 . S
C999 C1000 1.524 . S
C999 H1002 0.999 . S
C1000 H970 0.950 . S
C1000 C999 1.524 . S
C1000 C1001 1.415 . S
C1001 H971 0.950 . S
C1001 C996 1.363 . S
C1001 C1000 1.415 . S
H1002 C999 0.999 . S
H1003 C984 0.913 . S
H1004 C1022 0.951 . S
H1005 C1024 0.951 . S
H1006 C1026 0.950 . S
H1007 C1027 0.950 . S
H1008 C1029 0.950 1_565 S
H1009 C1032 0.950 1_565 S
H1010 C1033 0.950 . S
H1011 C1035 0.950 . S
H1012 C1036 0.950 . S
H1013 C1037 0.951 . S
H1014 C1039 0.951 . S
H1015 C1041 0.950 . S
H1016 C1042 0.950 . S
H1017 C1044 0.950 . S
H1018 C1047 0.950 . S
H1019 C1048 0.950 . S
H1020 C1050 0.950 . S
H1021 C1051 0.950 . S
C1022 H1004 0.951 . S
C1022 C1023 1.366 . S
C1022 C1024 1.388 . S
C1023 C1022 1.366 . S
C1023 C1027 1.385 . S
C1024 H1005 0.951 . S
C1024 C1022 1.388 . S
C1024 C1025 1.366 . S
C1025 C1024 1.366 . S
C1025 C1026 1.414 . S
C1025 C1028 1.499 . S
C1026 H1006 0.950 . S
C1026 C1025 1.414 . S
C1026 C1027 1.374 . S
C1027 H1007 0.950 . S
C1027 C1023 1.385 . S
C1027 C1026 1.374 . S
C1028 C1025 1.499 . S
C1028 C1029 1.373 1_565 S
C1028 C1030 1.389 1_565 S
C1029 H1008 0.950 1_545 S
C1029 C1028 1.373 1_545 S
C1029 C1045 1.377 . S
C1030 C1028 1.389 1_545 S
C1030 C1031 1.524 . S
C1030 C1044 1.377 . S
C1031 C1030 1.524 . S
C1031 C1032 1.397 . S
C1031 C1036 1.363 . S
C1032 H1009 0.950 1_545 S
C1032 C1031 1.397 . S
C1032 C1033 1.334 1_545 S
C1033 H1010 0.950 . S
C1033 C1032 1.334 1_565 S
C1033 C1034 1.287 1_565 S
C1034 C1033 1.287 1_545 S
C1034 C1035 1.524 . S
C1034 H1053 0.913 . S
C1035 H1011 0.950 . S
C1035 C1034 1.524 . S
C1035 C1036 1.415 . S
C1036 H1012 0.950 . S
C1036 C1031 1.363 . S
C1036 C1035 1.415 . S
C1037 H1013 0.951 . S
C1037 C1038 1.366 . S
C1037 C1039 1.388 . S
C1038 C1037 1.366 . S
C1038 C1042 1.385 . S
C1039 H1014 0.951 . S
C1039 C1037 1.388 . S
C1039 C1040 1.366 . S
C1040 C1039 1.366 . S
C1040 C1041 1.414 . S
C1040 C1043 1.499 . S
C1041 H1015 0.950 . S
C1041 C1040 1.414 . S
C1041 C1042 1.374 . S
C1042 H1016 0.950 . S
C1042 C1038 1.385 . S
C1042 C1041 1.374 . S
C1043 C1040 1.499 . S
C1043 C1044 1.373 . S
C1043 C1045 1.389 . S
C1044 H1017 0.950 . S
C1044 C1030 1.377 . S
C1044 C1043 1.373 . S
C1045 C1029 1.377 . S
C1045 C1043 1.389 . S
C1045 C1046 1.524 . S
C1046 C1045 1.524 . S
C1046 C1047 1.397 . S
C1046 C1051 1.363 . S
C1047 H1018 0.950 . S
C1047 C1046 1.397 . S
C1047 C1048 1.334 . S
C1048 H1019 0.950 . S
C1048 C1047 1.334 . S
C1048 C1049 1.287 . S
C1049 C1048 1.287 . S
C1049 C1050 1.524 . S
C1049 H1052 0.999 . S
C1050 H1020 0.950 . S
C1050 C1049 1.524 . S
C1050 C1051 1.415 . S
C1051 H1021 0.950 . S
C1051 C1046 1.363 . S
C1051 C1050 1.415 . S
H1052 C1049 0.999 . S
H1053 C1034 0.913 . S
H1054 C1072 0.951 . S
H1055 C1074 0.951 . S
H1056 C1076 0.950 . S
H1057 C1077 0.950 . S
H1058 C1079 0.950 . S
H1059 C1082 0.950 . S
H1060 C1083 0.950 . S
H1061 C1085 0.950 . S
H1062 C1086 0.950 . S
H1063 C1087 0.951 . S
H1064 C1089 0.951 . S
H1065 C1091 0.950 . S
H1066 C1092 0.950 . S
H1067 C1094 0.950 . S
H1068 C1097 0.950 . S
H1069 C1098 0.950 . S
H1070 C1100 0.950 . S
H1071 C1101 0.950 . S
C1072 H1054 0.951 . S
C1072 C1073 1.366 . S
C1072 C1074 1.388 . S
C1073 C1072 1.366 . S
C1073 C1077 1.385 . S
C1074 H1055 0.951 . S
C1074 C1072 1.388 . S
C1074 C1075 1.366 . S
C1075 C1074 1.366 . S
C1075 C1076 1.414 . S
C1075 C1078 1.499 1_545 S
C1076 H1056 0.950 . S
C1076 C1075 1.414 . S
C1076 C1077 1.374 . S
C1077 H1057 0.950 . S
C1077 C1073 1.385 . S
C1077 C1076 1.374 . S
C1078 C1075 1.499 1_565 S
C1078 C1079 1.373 . S
C1078 C1080 1.389 . S
C1079 H1058 0.950 . S
C1079 C1078 1.373 . S
C1079 C1095 1.377 . S
C1080 C1078 1.389 . S
C1080 C1081 1.524 . S
C1080 C1094 1.377 . S
C1081 C1080 1.524 . S
C1081 C1082 1.397 . S
C1081 C1086 1.363 . S
C1082 H1059 0.950 . S
C1082 C1081 1.397 . S
C1082 C1083 1.334 . S
C1083 H1060 0.950 . S
C1083 C1082 1.334 . S
C1083 C1084 1.287 . S
C1084 C1083 1.287 . S
C1084 C1085 1.524 . S
C1084 H1103 0.913 . S
C1085 H1061 0.950 . S
C1085 C1084 1.524 . S
C1085 C1086 1.415 . S
C1086 H1062 0.950 . S
C1086 C1081 1.363 . S
C1086 C1085 1.415 . S
C1087 H1063 0.951 . S
C1087 C1088 1.366 . S
C1087 C1089 1.388 . S
C1088 C1087 1.366 . S
C1088 C1092 1.385 . S
C1089 H1064 0.951 . S
C1089 C1087 1.388 . S
C1089 C1090 1.366 . S
C1090 C1089 1.366 . S
C1090 C1091 1.414 . S
C1090 C1093 1.499 . S
C1091 H1065 0.950 . S
C1091 C1090 1.414 . S
C1091 C1092 1.374 . S
C1092 H1066 0.950 . S
C1092 C1088 1.385 . S
C1092 C1091 1.374 . S
C1093 C1090 1.499 . S
C1093 C1094 1.373 . S
C1093 C1095 1.389 . S
C1094 H1067 0.950 . S
C1094 C1080 1.377 . S
C1094 C1093 1.373 . S
C1095 C1079 1.377 . S
C1095 C1093 1.389 . S
C1095 C1096 1.524 . S
C1096 C1095 1.524 . S
C1096 C1097 1.397 . S
C1096 C1101 1.363 . S
C1097 H1068 0.950 . S
C1097 C1096 1.397 . S
C1097 C1098 1.334 . S
C1098 H1069 0.950 . S
C1098 C1097 1.334 . S
C1098 C1099 1.287 . S
C1099 C1098 1.287 . S
C1099 C1100 1.524 . S
C1099 H1102 0.999 . S
C1100 H1070 0.950 . S
C1100 C1099 1.524 . S
C1100 C1101 1.415 . S
C1101 H1071 0.950 . S
C1101 C1096 1.363 . S
C1101 C1100 1.415 . S
H1102 C1099 0.999 . S
H1103 C1084 0.913 . S
H1104 C1122 0.951 . S
H1105 C1124 0.951 . S
H1106 C1126 0.950 . S
H1107 C1127 0.950 . S
H1108 C1129 0.950 . S
H1109 C1132 0.950 . S
H1110 C1133 0.950 . S
H1111 C1135 0.950 . S
H1112 C1136 0.950 . S
H1113 C1137 0.951 . S
H1114 C1139 0.951 . S
H1115 C1141 0.950 . S
H1116 C1142 0.950 . S
H1117 C1144 0.950 . S
H1118 C1147 0.950 . S
H1119 C1148 0.950 . S
H1120 C1150 0.950 . S
H1121 C1151 0.950 . S
C1122 H1104 0.951 . S
C1122 C1123 1.366 . S
C1122 C1124 1.388 . S
C1123 C1122 1.366 . S
C1123 C1127 1.385 . S
C1124 H1105 0.951 . S
C1124 C1122 1.388 . S
C1124 C1125 1.366 . S
C1125 C1124 1.366 . S
C1125 C1126 1.414 . S
C1125 C1128 1.499 1_545 S
C1126 H1106 0.950 . S
C1126 C1125 1.414 . S
C1126 C1127 1.374 . S
C1127 H1107 0.950 . S
C1127 C1123 1.385 . S
C1127 C1126 1.374 . S
C1128 C1125 1.499 1_565 S
C1128 C1129 1.373 . S
C1128 C1130 1.389 . S
C1129 H1108 0.950 . S
C1129 C1128 1.373 . S
C1129 C1145 1.377 . S
C1130 C1128 1.389 . S
C1130 C1131 1.524 . S
C1130 C1144 1.377 . S
C1131 C1130 1.524 . S
C1131 C1132 1.397 1_565 S
C1131 C1136 1.363 . S
C1132 H1109 0.950 . S
C1132 C1131 1.397 1_545 S
C1132 C1133 1.334 . S
C1133 H1110 0.950 . S
C1133 C1132 1.334 . S
C1133 C1134 1.287 . S
C1134 C1133 1.287 . S
C1134 C1135 1.524 1_545 S
C1134 H1153 0.913 . S
C1135 H1111 0.950 . S
C1135 C1134 1.524 1_565 S
C1135 C1136 1.415 . S
C1136 H1112 0.950 . S
C1136 C1131 1.363 . S
C1136 C1135 1.415 . S
C1137 H1113 0.951 . S
C1137 C1138 1.366 . S
C1137 C1139 1.388 . S
C1138 C1137 1.366 . S
C1138 C1142 1.385 . S
C1139 H1114 0.951 . S
C1139 C1137 1.388 . S
C1139 C1140 1.366 . S
C1140 C1139 1.366 . S
C1140 C1141 1.414 . S
C1140 C1143 1.499 . S
C1141 H1115 0.950 . S
C1141 C1140 1.414 . S
C1141 C1142 1.374 . S
C1142 H1116 0.950 . S
C1142 C1138 1.385 . S
C1142 C1141 1.374 . S
C1143 C1140 1.499 . S
C1143 C1144 1.373 . S
C1143 C1145 1.389 . S
C1144 H1117 0.950 . S
C1144 C1130 1.377 . S
C1144 C1143 1.373 . S
C1145 C1129 1.377 . S
C1145 C1143 1.389 . S
C1145 C1146 1.524 . S
C1146 C1145 1.524 . S
C1146 C1147 1.397 . S
C1146 C1151 1.363 . S
C1147 H1118 0.950 . S
C1147 C1146 1.397 . S
C1147 C1148 1.334 . S
C1148 H1119 0.950 . S
C1148 C1147 1.334 . S
C1148 C1149 1.287 . S
C1149 C1148 1.287 . S
C1149 C1150 1.524 . S
C1149 H1152 0.999 . S
C1150 H1120 0.950 . S
C1150 C1149 1.524 . S
C1150 C1151 1.415 . S
C1151 H1121 0.950 . S
C1151 C1146 1.363 . S
C1151 C1150 1.415 . S
H1152 C1149 0.999 . S
H1153 C1134 0.913 . S
H1154 C1172 0.951 . S
H1155 C1174 0.951 . S
H1156 C1176 0.950 . S
H1157 C1177 0.950 . S
H1158 C1179 0.950 . S
H1159 C1182 0.950 . S
H1160 C1183 0.950 . S
H1161 C1185 0.950 . S
H1162 C1186 0.950 1_545 S
H1163 C1187 0.951 . S
H1164 C1189 0.951 . S
H1165 C1191 0.950 . S
H1166 C1192 0.950 . S
H1167 C1194 0.950 . S
H1168 C1197 0.950 . S
H1169 C1198 0.950 . S
H1170 C1200 0.950 1_655 S
H1171 C1201 0.950 . S
C1172 H1154 0.951 . S
C1172 C1173 1.366 . S
C1172 C1174 1.388 . S
C1173 C1172 1.366 . S
C1173 C1177 1.385 . S
C1174 H1155 0.951 . S
C1174 C1172 1.388 . S
C1174 C1175 1.366 . S
C1175 C1174 1.366 . S
C1175 C1176 1.414 . S
C1175 C1178 1.499 . S
C1176 H1156 0.950 . S
C1176 C1175 1.414 . S
C1176 C1177 1.374 . S
C1177 H1157 0.950 . S
C1177 C1173 1.385 . S
C1177 C1176 1.374 . S
C1178 C1175 1.499 . S
C1178 C1179 1.373 1_565 S
C1178 C1180 1.389 1_565 S
C1179 H1158 0.950 . S
C1179 C1178 1.373 1_545 S
C1179 C1195 1.377 . S
C1180 C1178 1.389 1_545 S
C1180 C1181 1.524 1_545 S
C1180 C1194 1.377 . S
C1181 C1180 1.524 1_565 S
C1181 C1182 1.397 . S
C1181 C1186 1.363 . S
C1182 H1159 0.950 . S
C1182 C1181 1.397 . S
C1182 C1183 1.334 . S
C1183 H1160 0.950 . S
C1183 C1182 1.334 . S
C1183 C1184 1.287 . S
C1184 C1183 1.287 . S
C1184 C1185 1.524 . S
C1184 H1203 0.913 . S
C1185 H1161 0.950 . S
C1185 C1184 1.524 . S
C1185 C1186 1.415 . S
C1186 H1162 0.950 1_565 S
C1186 C1181 1.363 . S
C1186 C1185 1.415 . S
C1187 H1163 0.951 . S
C1187 C1188 1.366 . S
C1187 C1189 1.388 . S
C1188 C1187 1.366 . S
C1188 C1192 1.385 . S
C1189 H1164 0.951 . S
C1189 C1187 1.388 . S
C1189 C1190 1.366 . S
C1190 C1189 1.366 . S
C1190 C1191 1.414 . S
C1190 C1193 1.499 . S
C1191 H1165 0.950 . S
C1191 C1190 1.414 . S
C1191 C1192 1.374 . S
C1192 H1166 0.950 . S
C1192 C1188 1.385 . S
C1192 C1191 1.374 . S
C1193 C1190 1.499 . S
C1193 C1194 1.373 . S
C1193 C1195 1.389 . S
C1194 H1167 0.950 . S
C1194 C1180 1.377 . S
C1194 C1193 1.373 . S
C1195 C1179 1.377 . S
C1195 C1193 1.389 . S
C1195 C1196 1.524 . S
C1196 C1195 1.524 . S
C1196 C1197 1.397 . S
C1196 C1201 1.363 . S
C1197 H1168 0.950 . S
C1197 C1196 1.397 . S
C1197 C1198 1.334 . S
C1198 H1169 0.950 . S
C1198 C1197 1.334 . S
C1198 C1199 1.287 . S
C1199 C1198 1.287 . S
C1199 C1200 1.524 . S
C1199 H1202 0.999 . S
C1200 H1170 0.950 1_455 S
C1200 C1199 1.524 . S
C1200 C1201 1.415 . S
C1201 H1171 0.950 . S
C1201 C1196 1.363 . S
C1201 C1200 1.415 . S
H1202 C1199 0.999 . S
H1203 C1184 0.913 . S
H1204 C1222 0.951 1_554 S
H1205 C1224 0.951 . S
H1206 C1226 0.950 . S
H1207 C1227 0.950 . S
H1208 C1229 0.950 . S
H1209 C1232 0.950 . S
H1210 C1233 0.950 . S
H1211 C1235 0.950 . S
H1212 C1236 0.950 . S
H1213 C1237 0.951 . S
H1214 C1239 0.951 . S
H1215 C1241 0.950 . S
H1216 C1242 0.950 . S
H1217 C1244 0.950 . S
H1218 C1247 0.950 . S
H1219 C1248 0.950 . S
H1220 C1250 0.950 . S
H1221 C1251 0.950 . S
C1222 H1204 0.951 1_556 S
C1222 C1223 1.352 1_556 S
C1222 C1224 1.388 . S
C1223 C1222 1.352 1_554 S
C1223 C1227 1.353 1_554 S
C1224 H1205 0.951 . S
C1224 C1222 1.388 . S
C1224 C1225 1.366 . S
C1225 C1224 1.366 . S
C1225 C1226 1.414 . S
C1225 C1228 1.499 . S
C1226 H1206 0.950 . S
C1226 C1225 1.414 . S
C1226 C1227 1.374 . S
C1227 H1207 0.950 . S
C1227 C1223 1.353 1_556 S
C1227 C1226 1.374 . S
C1228 C1225 1.499 . S
C1228 C1229 1.373 . S
C1228 C1230 1.389 . S
C1229 H1208 0.950 . S
C1229 C1228 1.373 . S
C1229 C1245 1.377 . S
C1230 C1228 1.389 . S
C1230 C1231 1.524 . S
C1230 C1244 1.377 . S
C1231 C1230 1.524 . S
C1231 C1232 1.397 . S
C1231 C1236 1.363 . S
C1232 H1209 0.950 . S
C1232 C1231 1.397 . S
C1232 C1233 1.334 . S
C1233 H1210 0.950 . S
C1233 C1232 1.334 . S
C1233 C1234 1.287 . S
C1234 C1233 1.287 . S
C1234 C1235 1.524 . S
C1234 H1253 0.913 . S
C1235 H1211 0.950 . S
C1235 C1234 1.524 . S
C1235 C1236 1.415 . S
C1236 H1212 0.950 . S
C1236 C1231 1.363 . S
C1236 C1235 1.415 . S
C1237 H1213 0.951 . S
C1237 C1238 1.366 . S
C1237 C1239 1.388 . S
C1238 C1237 1.366 . S
C1238 C1242 1.385 . S
C1239 H1214 0.951 . S
C1239 C1237 1.388 . S
C1239 C1240 1.366 . S
C1240 C1239 1.366 . S
C1240 C1241 1.414 . S
C1240 C1243 1.499 . S
C1241 H1215 0.950 . S
C1241 C1240 1.414 . S
C1241 C1242 1.374 . S
C1242 H1216 0.950 . S
C1242 C1238 1.385 . S
C1242 C1241 1.374 . S
C1243 C1240 1.499 . S
C1243 C1244 1.373 . S
C1243 C1245 1.389 . S
C1244 H1217 0.950 . S
C1244 C1230 1.377 . S
C1244 C1243 1.373 . S
C1245 C1229 1.377 . S
C1245 C1243 1.389 . S
C1245 C1246 1.524 . S
C1246 C1245 1.524 . S
C1246 C1247 1.397 . S
C1246 C1251 1.363 . S
C1247 H1218 0.950 . S
C1247 C1246 1.397 . S
C1247 C1248 1.334 . S
C1248 H1219 0.950 . S
C1248 C1247 1.334 . S
C1248 C1249 1.287 . S
C1249 C1248 1.287 . S
C1249 C1250 1.524 . S
C1249 H1252 0.999 . S
C1250 H1220 0.950 . S
C1250 C1249 1.524 . S
C1250 C1251 1.415 . S
C1251 H1221 0.950 . S
C1251 C1246 1.363 . S
C1251 C1250 1.415 . S
H1252 C1249 0.999 . S
H1253 C1234 0.913 . S
H1254 C1272 0.951 . S
H1255 C1274 0.951 . S
H1256 C1276 0.950 . S
H1257 C1277 0.950 . S
H1258 C1279 0.950 . S
H1259 C1282 0.950 . S
H1260 C1283 0.950 . S
H1261 C1285 0.950 . S
H1262 C1286 0.950 . S
H1263 C1287 0.951 . S
H1264 C1289 0.951 . S
H1265 C1291 0.950 . S
H1266 C1292 0.950 . S
H1267 C1294 0.950 . S
H1268 C1297 0.950 . S
H1269 C1298 0.950 . S
H1270 C1300 0.950 . S
H1271 C1301 0.950 . S
C1272 H1254 0.951 . S
C1272 C1273 1.366 . S
C1272 C1274 1.388 . S
C1273 C1272 1.366 . S
C1273 C1277 1.385 . S
C1274 H1255 0.951 . S
C1274 C1272 1.388 . S
C1274 C1275 1.366 . S
C1275 C1274 1.366 . S
C1275 C1276 1.414 . S
C1275 C1278 1.499 . S
C1276 H1256 0.950 . S
C1276 C1275 1.414 . S
C1276 C1277 1.374 . S
C1277 H1257 0.950 . S
C1277 C1273 1.385 . S
C1277 C1276 1.374 . S
C1278 C1275 1.499 . S
C1278 C1279 1.373 . S
C1278 C1280 1.389 . S
C1279 H1258 0.950 . S
C1279 C1278 1.373 . S
C1279 C1295 1.377 . S
C1280 C1278 1.389 . S
C1280 C1281 1.524 . S
C1280 C1294 1.377 . S
C1281 C1280 1.524 . S
C1281 C1282 1.397 . S
C1281 C1286 1.363 . S
C1282 H1259 0.950 . S
C1282 C1281 1.397 . S
C1282 C1283 1.334 . S
C1283 H1260 0.950 . S
C1283 C1282 1.334 . S
C1283 C1284 1.287 . S
C1284 C1283 1.287 . S
C1284 C1285 1.524 . S
C1284 H1303 0.878 1_455 S
C1285 H1261 0.950 . S
C1285 C1284 1.524 . S
C1285 C1286 1.415 . S
C1286 H1262 0.950 . S
C1286 C1281 1.363 . S
C1286 C1285 1.415 . S
C1287 H1263 0.951 . S
C1287 C1288 1.366 . S
C1287 C1289 1.388 . S
C1288 C1287 1.366 . S
C1288 C1292 1.385 . S
C1289 H1264 0.951 . S
C1289 C1287 1.388 . S
C1289 C1290 1.366 . S
C1290 C1289 1.366 . S
C1290 C1291 1.414 . S
C1290 C1293 1.499 . S
C1291 H1265 0.950 . S
C1291 C1290 1.414 . S
C1291 C1292 1.374 . S
C1292 H1266 0.950 . S
C1292 C1288 1.385 . S
C1292 C1291 1.374 . S
C1293 C1290 1.499 . S
C1293 C1294 1.373 . S
C1293 C1295 1.389 . S
C1294 H1267 0.950 . S
C1294 C1280 1.377 . S
C1294 C1293 1.373 . S
C1295 C1279 1.377 . S
C1295 C1293 1.389 . S
C1295 C1296 1.524 . S
C1296 C1295 1.524 . S
C1296 C1297 1.397 . S
C1296 C1301 1.363 . S
C1297 H1268 0.950 . S
C1297 C1296 1.397 . S
C1297 C1298 1.334 . S
C1298 H1269 0.950 . S
C1298 C1297 1.334 . S
C1298 C1299 1.287 . S
C1299 C1298 1.287 . S
C1299 C1300 1.524 . S
C1299 H1302 0.999 . S
C1300 H1270 0.950 . S
C1300 C1299 1.524 . S
C1300 C1301 1.415 . S
C1301 H1271 0.950 . S
C1301 C1296 1.363 . S
C1301 C1300 1.415 . S
H1302 C1299 0.999 . S
H1303 C1284 0.878 1_655 S
H1304 C1322 0.951 . S
H1305 C1324 0.951 . S
H1306 C1326 0.950 . S
H1307 C1327 0.950 . S
H1308 C1329 0.950 . S
H1309 C1332 0.950 . S
H1310 C1333 0.950 . S
H1311 C1335 0.950 . S
H1312 C1336 0.950 . S
H1313 C1337 0.951 . S
H1314 C1339 0.951 . S
H1315 C1341 0.950 . S
H1316 C1342 0.950 . S
H1317 C1344 0.950 . S
H1318 C1347 0.950 . S
H1319 C1348 0.950 . S
H1320 C1350 0.950 . S
H1321 C1351 0.950 . S
C1322 H1304 0.951 . S
C1322 C1323 1.366 . S
C1322 C1324 1.388 . S
C1323 C1322 1.366 . S
C1323 C1327 1.385 . S
C1324 H1305 0.951 . S
C1324 C1322 1.388 . S
C1324 C1325 1.366 . S
C1325 C1324 1.366 . S
C1325 C1326 1.414 . S
C1325 C1328 1.499 . S
C1326 H1306 0.950 . S
C1326 C1325 1.414 . S
C1326 C1327 1.374 . S
C1327 H1307 0.950 . S
C1327 C1323 1.385 . S
C1327 C1326 1.374 . S
C1328 C1325 1.499 . S
C1328 C1329 1.373 . S
C1328 C1330 1.389 . S
C1329 H1308 0.950 . S
C1329 C1328 1.373 . S
C1329 C1345 1.377 . S
C1330 C1328 1.389 . S
C1330 C1331 1.524 . S
C1330 C1344 1.377 . S
C1331 C1330 1.524 . S
C1331 C1332 1.397 . S
C1331 C1336 1.363 . S
C1332 H1309 0.950 . S
C1332 C1331 1.397 . S
C1332 C1333 1.334 . S
C1333 H1310 0.950 . S
C1333 C1332 1.334 . S
C1333 C1334 1.287 . S
C1334 C1333 1.287 . S
C1334 C1335 1.524 . S
C1334 H1353 0.913 . S
C1335 H1311 0.950 . S
C1335 C1334 1.524 . S
C1335 C1336 1.415 . S
C1336 H1312 0.950 . S
C1336 C1331 1.363 . S
C1336 C1335 1.415 . S
C1337 H1313 0.951 . S
C1337 C1338 1.366 . S
C1337 C1339 1.388 . S
C1338 C1337 1.366 . S
C1338 C1342 1.385 . S
C1339 H1314 0.951 . S
C1339 C1337 1.388 . S
C1339 C1340 1.366 . S
C1340 C1339 1.366 . S
C1340 C1341 1.414 . S
C1340 C1343 1.499 . S
C1341 H1315 0.950 . S
C1341 C1340 1.414 . S
C1341 C1342 1.374 . S
C1342 H1316 0.950 . S
C1342 C1338 1.385 . S
C1342 C1341 1.374 . S
C1343 C1340 1.499 . S
C1343 C1344 1.373 . S
C1343 C1345 1.389 . S
C1344 H1317 0.950 . S
C1344 C1330 1.377 . S
C1344 C1343 1.373 . S
C1345 C1329 1.377 . S
C1345 C1343 1.389 . S
C1345 C1346 1.524 . S
C1346 C1345 1.524 . S
C1346 C1347 1.397 . S
C1346 C1351 1.363 . S
C1347 H1318 0.950 . S
C1347 C1346 1.397 . S
C1347 C1348 1.334 . S
C1348 H1319 0.950 . S
C1348 C1347 1.334 . S
C1348 C1349 1.287 . S
C1349 C1348 1.287 . S
C1349 C1350 1.524 . S
C1349 H1352 0.999 . S
C1350 H1320 0.950 . S
C1350 C1349 1.524 . S
C1350 C1351 1.415 . S
C1351 H1321 0.950 . S
C1351 C1346 1.363 . S
C1351 C1350 1.415 . S
H1352 C1349 0.999 . S
H1353 C1334 0.913 . S
H1354 C1372 0.951 . S
H1355 C1374 0.951 . S
H1356 C1376 0.950 . S
H1357 C1377 0.950 . S
H1358 C1379 0.950 . S
H1359 C1382 0.950 . S
H1360 C1383 0.950 . S
H1361 C1385 0.950 . S
H1362 C1386 0.950 . S
H1363 C1387 0.951 . S
H1364 C1389 0.951 . S
H1365 C1391 0.950 . S
H1366 C1392 0.950 . S
H1367 C1394 0.950 . S
H1368 C1397 0.950 . S
H1369 C1398 0.950 . S
H1370 C1400 0.950 . S
H1371 C1401 0.950 . S
C1372 H1354 0.951 . S
C1372 C1373 1.366 . S
C1372 C1374 1.388 . S
C1373 C1372 1.366 . S
C1373 C1377 1.385 . S
C1374 H1355 0.951 . S
C1374 C1372 1.388 . S
C1374 C1375 1.366 . S
C1375 C1374 1.366 . S
C1375 C1376 1.414 . S
C1375 C1378 1.499 . S
C1376 H1356 0.950 . S
C1376 C1375 1.414 . S
C1376 C1377 1.374 . S
C1377 H1357 0.950 . S
C1377 C1373 1.385 . S
C1377 C1376 1.374 . S
C1378 C1375 1.499 . S
C1378 C1379 1.373 . S
C1378 C1380 1.389 . S
C1379 H1358 0.950 . S
C1379 C1378 1.373 . S
C1379 C1395 1.377 . S
C1380 C1378 1.389 . S
C1380 C1381 1.524 . S
C1380 C1394 1.377 . S
C1381 C1380 1.524 . S
C1381 C1382 1.397 . S
C1381 C1386 1.363 . S
C1382 H1359 0.950 . S
C1382 C1381 1.397 . S
C1382 C1383 1.334 . S
C1383 H1360 0.950 . S
C1383 C1382 1.334 . S
C1383 C1384 1.287 . S
C1384 C1383 1.287 . S
C1384 C1385 1.524 . S
C1384 H1403 0.913 . S
C1385 H1361 0.950 . S
C1385 C1384 1.524 . S
C1385 C1386 1.415 . S
C1386 H1362 0.950 . S
C1386 C1381 1.363 . S
C1386 C1385 1.415 . S
C1387 H1363 0.951 . S
C1387 C1388 1.366 . S
C1387 C1389 1.388 . S
C1388 C1387 1.366 . S
C1388 C1392 1.385 . S
C1389 H1364 0.951 . S
C1389 C1387 1.388 . S
C1389 C1390 1.366 . S
C1390 C1389 1.366 . S
C1390 C1391 1.414 . S
C1390 C1393 1.499 . S
C1391 H1365 0.950 . S
C1391 C1390 1.414 . S
C1391 C1392 1.374 . S
C1392 H1366 0.950 . S
C1392 C1388 1.385 . S
C1392 C1391 1.374 . S
C1393 C1390 1.499 . S
C1393 C1394 1.373 . S
C1393 C1395 1.389 . S
C1394 H1367 0.950 . S
C1394 C1380 1.377 . S
C1394 C1393 1.373 . S
C1395 C1379 1.377 . S
C1395 C1393 1.389 . S
C1395 C1396 1.524 . S
C1396 C1395 1.524 . S
C1396 C1397 1.397 . S
C1396 C1401 1.363 . S
C1397 H1368 0.950 . S
C1397 C1396 1.397 . S
C1397 C1398 1.334 . S
C1398 H1369 0.950 . S
C1398 C1397 1.334 . S
C1398 C1399 1.287 . S
C1399 C1398 1.287 . S
C1399 C1400 1.524 . S
C1399 H1402 0.999 . S
C1400 H1370 0.950 . S
C1400 C1399 1.524 . S
C1400 C1401 1.415 . S
C1401 H1371 0.950 . S
C1401 C1396 1.363 . S
C1401 C1400 1.415 . S
H1402 C1399 0.999 . S
H1403 C1384 0.913 . S
H1404 C1422 0.951 1_556 S
H1405 C1424 0.951 . S
H1406 C1426 0.950 . S
H1407 C1427 0.950 . S
H1408 C1429 0.950 . S
H1409 C1432 0.950 . S
H1410 C1433 0.950 1_655 S
H1411 C1435 0.950 . S
H1412 C1436 0.950 . S
H1413 C1437 0.951 . S
H1414 C1439 0.951 . S
H1415 C1441 0.950 . S
H1416 C1442 0.950 . S
H1417 C1444 0.950 . S
H1418 C1447 0.950 . S
H1419 C1448 0.950 . S
H1420 C1450 0.950 . S
H1421 C1451 0.950 . S
C1422 H1404 0.951 1_554 S
C1422 C1423 1.366 1_554 S
C1422 C1424 1.388 . S
C1423 C1422 1.366 1_556 S
C1423 C1427 1.385 1_556 S
C1424 H1405 0.951 . S
C1424 C1422 1.388 . S
C1424 C1425 1.366 . S
C1425 C1424 1.366 . S
C1425 C1426 1.414 . S
C1425 C1428 1.499 . S
C1426 H1406 0.950 . S
C1426 C1425 1.414 . S
C1426 C1427 1.374 . S
C1427 H1407 0.950 . S
C1427 C1423 1.385 1_554 S
C1427 C1426 1.374 . S
C1428 C1425 1.499 . S
C1428 C1429 1.373 . S
C1428 C1430 1.389 . S
C1429 H1408 0.950 . S
C1429 C1428 1.373 . S
C1429 C1445 1.377 . S
C1430 C1428 1.389 . S
C1430 C1431 1.524 . S
C1430 C1444 1.377 . S
C1431 C1430 1.524 . S
C1431 C1432 1.397 . S
C1431 C1436 1.363 . S
C1432 H1409 0.950 . S
C1432 C1431 1.397 . S
C1432 C1433 1.334 . S
C1433 H1410 0.950 1_455 S
C1433 C1432 1.334 . S
C1433 C1434 1.287 . S
C1434 C1433 1.287 . S
C1434 C1435 1.524 . S
C1434 H1453 0.913 . S
C1435 H1411 0.950 . S
C1435 C1434 1.524 . S
C1435 C1436 1.415 . S
C1436 H1412 0.950 . S
C1436 C1431 1.363 . S
C1436 C1435 1.415 . S
C1437 H1413 0.951 . S
C1437 C1438 1.366 . S
C1437 C1439 1.388 . S
C1438 C1437 1.366 . S
C1438 C1442 1.385 . S
C1439 H1414 0.951 . S
C1439 C1437 1.388 . S
C1439 C1440 1.366 . S
C1440 C1439 1.366 . S
C1440 C1441 1.414 . S
C1440 C1443 1.499 . S
C1441 H1415 0.950 . S
C1441 C1440 1.414 . S
C1441 C1442 1.374 . S
C1442 H1416 0.950 . S
C1442 C1438 1.385 . S
C1442 C1441 1.374 . S
C1443 C1440 1.499 . S
C1443 C1444 1.373 . S
C1443 C1445 1.389 . S
C1444 H1417 0.950 . S
C1444 C1430 1.377 . S
C1444 C1443 1.373 . S
C1445 C1429 1.377 . S
C1445 C1443 1.389 . S
C1445 C1446 1.524 . S
C1446 C1445 1.524 . S
C1446 C1447 1.397 . S
C1446 C1451 1.363 . S
C1447 H1418 0.950 . S
C1447 C1446 1.397 . S
C1447 C1448 1.334 . S
C1448 H1419 0.950 . S
C1448 C1447 1.334 . S
C1448 C1449 1.287 . S
C1449 C1448 1.287 . S
C1449 C1450 1.524 . S
C1449 H1452 0.999 . S
C1450 H1420 0.950 . S
C1450 C1449 1.524 . S
C1450 C1451 1.415 . S
C1451 H1421 0.950 . S
C1451 C1446 1.363 . S
C1451 C1450 1.415 . S
H1452 C1449 0.999 . S
H1453 C1434 0.913 . S
H1454 C1472 0.951 . S
H1455 C1474 0.951 . S
H1456 C1476 0.950 . S
H1457 C1477 0.950 . S
H1458 C1479 0.950 . S
H1459 C1482 0.950 . S
H1460 C1483 0.950 . S
H1461 C1485 0.950 . S
H1462 C1486 0.950 . S
H1463 C1487 0.951 . S
H1464 C1489 0.951 . S
H1465 C1491 0.950 . S
H1466 C1492 0.950 . S
H1467 C1494 0.950 . S
H1468 C1497 0.950 . S
H1469 C1498 0.950 . S
H1470 C1500 0.950 . S
H1471 C1501 0.950 . S
C1472 H1454 0.951 . S
C1472 C1473 1.366 . S
C1472 C1474 1.388 . S
C1473 C1472 1.366 . S
C1473 C1477 1.385 . S
C1474 H1455 0.951 . S
C1474 C1472 1.388 . S
C1474 C1475 1.366 . S
C1475 C1474 1.366 . S
C1475 C1476 1.414 . S
C1475 C1478 1.499 . S
C1476 H1456 0.950 . S
C1476 C1475 1.414 . S
C1476 C1477 1.374 . S
C1477 H1457 0.950 . S
C1477 C1473 1.385 . S
C1477 C1476 1.374 . S
C1478 C1475 1.499 . S
C1478 C1479 1.373 . S
C1478 C1480 1.389 . S
C1479 H1458 0.950 . S
C1479 C1478 1.373 . S
C1479 C1495 1.377 . S
C1480 C1478 1.389 . S
C1480 C1481 1.524 . S
C1480 C1494 1.377 . S
C1481 C1480 1.524 . S
C1481 C1482 1.397 . S
C1481 C1486 1.363 . S
C1482 H1459 0.950 . S
C1482 C1481 1.397 . S
C1482 C1483 1.334 . S
C1483 H1460 0.950 . S
C1483 C1482 1.334 . S
C1483 C1484 1.287 . S
C1484 C1483 1.287 . S
C1484 C1485 1.524 . S
C1484 H1503 0.913 . S
C1485 H1461 0.950 . S
C1485 C1484 1.524 . S
C1485 C1486 1.415 . S
C1486 H1462 0.950 . S
C1486 C1481 1.363 . S
C1486 C1485 1.415 . S
C1487 H1463 0.951 . S
C1487 C1488 1.366 . S
C1487 C1489 1.388 . S
C1488 C1487 1.366 . S
C1488 C1492 1.385 . S
C1489 H1464 0.951 . S
C1489 C1487 1.388 . S
C1489 C1490 1.366 . S
C1490 C1489 1.366 . S
C1490 C1491 1.414 . S
C1490 C1493 1.499 . S
C1491 H1465 0.950 . S
C1491 C1490 1.414 . S
C1491 C1492 1.374 . S
C1492 H1466 0.950 . S
C1492 C1488 1.385 . S
C1492 C1491 1.374 . S
C1493 C1490 1.499 . S
C1493 C1494 1.373 . S
C1493 C1495 1.389 . S
C1494 H1467 0.950 . S
C1494 C1480 1.377 . S
C1494 C1493 1.373 . S
C1495 C1479 1.377 . S
C1495 C1493 1.389 . S
C1495 C1496 1.524 . S
C1496 C1495 1.524 . S
C1496 C1497 1.397 . S
C1496 C1501 1.363 . S
C1497 H1468 0.950 . S
C1497 C1496 1.397 . S
C1497 C1498 1.334 . S
C1498 H1469 0.950 . S
C1498 C1497 1.334 . S
C1498 C1499 1.287 . S
C1499 C1498 1.287 . S
C1499 C1500 1.524 . S
C1499 H1502 0.999 . S
C1500 H1470 0.950 . S
C1500 C1499 1.524 . S
C1500 C1501 1.415 . S
C1501 H1471 0.950 . S
C1501 C1496 1.363 . S
C1501 C1500 1.415 . S
H1502 C1499 0.999 . S
H1503 C1484 0.913 . S
H1504 C1522 0.951 . S
H1505 C1524 0.951 . S
H1506 C1526 0.950 . S
H1507 C1527 0.950 . S
H1508 C1529 0.950 . S
H1509 C1532 0.950 . S
H1510 C1533 0.950 . S
H1511 C1535 0.950 . S
H1512 C1536 0.950 . S
H1513 C1537 0.951 . S
H1514 C1539 0.951 . S
H1515 C1541 0.950 . S
H1516 C1542 0.950 . S
H1517 C1544 0.950 . S
H1518 C1547 0.950 . S
H1519 C1548 0.950 . S
H1520 C1550 0.950 . S
H1521 C1551 0.950 . S
C1522 H1504 0.951 . S
C1522 C1523 1.366 . S
C1522 C1524 1.388 . S
C1523 C1522 1.366 . S
C1523 C1527 1.385 . S
C1524 H1505 0.951 . S
C1524 C1522 1.388 . S
C1524 C1525 1.366 . S
C1525 C1524 1.366 . S
C1525 C1526 1.414 . S
C1525 C1528 1.499 . S
C1526 H1506 0.950 . S
C1526 C1525 1.414 . S
C1526 C1527 1.374 . S
C1527 H1507 0.950 . S
C1527 C1523 1.385 . S
C1527 C1526 1.374 . S
C1528 C1525 1.499 . S
C1528 C1529 1.373 . S
C1528 C1530 1.389 . S
C1529 H1508 0.950 . S
C1529 C1528 1.373 . S
C1529 C1545 1.377 . S
C1530 C1528 1.389 . S
C1530 C1531 1.524 . S
C1530 C1544 1.377 . S
C1531 C1530 1.524 . S
C1531 C1532 1.397 . S
C1531 C1536 1.363 . S
C1532 H1509 0.950 . S
C1532 C1531 1.397 . S
C1532 C1533 1.334 . S
C1533 H1510 0.950 . S
C1533 C1532 1.334 . S
C1533 C1534 1.287 . S
C1534 C1533 1.287 . S
C1534 C1535 1.524 . S
C1534 H1553 0.913 . S
C1535 H1511 0.950 . S
C1535 C1534 1.524 . S
C1535 C1536 1.415 . S
C1536 H1512 0.950 . S
C1536 C1531 1.363 . S
C1536 C1535 1.415 . S
C1537 H1513 0.951 . S
C1537 C1538 1.366 . S
C1537 C1539 1.388 . S
C1538 C1537 1.366 . S
C1538 C1542 1.385 . S
C1539 H1514 0.951 . S
C1539 C1537 1.388 . S
C1539 C1540 1.366 . S
C1540 C1539 1.366 . S
C1540 C1541 1.414 . S
C1540 C1543 1.499 . S
C1541 H1515 0.950 . S
C1541 C1540 1.414 . S
C1541 C1542 1.374 . S
C1542 H1516 0.950 . S
C1542 C1538 1.385 . S
C1542 C1541 1.374 . S
C1543 C1540 1.499 . S
C1543 C1544 1.373 . S
C1543 C1545 1.389 . S
C1544 H1517 0.950 . S
C1544 C1530 1.377 . S
C1544 C1543 1.373 . S
C1545 C1529 1.377 . S
C1545 C1543 1.389 . S
C1545 C1546 1.524 . S
C1546 C1545 1.524 . S
C1546 C1547 1.397 . S
C1546 C1551 1.363 . S
C1547 H1518 0.950 . S
C1547 C1546 1.397 . S
C1547 C1548 1.334 . S
C1548 H1519 0.950 . S
C1548 C1547 1.334 . S
C1548 C1549 1.287 . S
C1549 C1548 1.287 . S
C1549 C1550 1.524 . S
C1549 H1552 0.999 . S
C1550 H1520 0.950 . S
C1550 C1549 1.524 . S
C1550 C1551 1.415 . S
C1551 H1521 0.950 . S
C1551 C1546 1.363 . S
C1551 C1550 1.415 . S
H1552 C1549 0.999 . S
H1553 C1534 0.913 . S
H1554 C1572 0.951 . S
H1555 C1574 0.951 . S
H1556 C1576 0.950 . S
H1557 C1577 0.950 . S
H1558 C1579 0.950 . S
H1559 C1582 0.950 . S
H1560 C1583 0.950 . S
H1561 C1585 0.950 . S
H1562 C1586 0.950 . S
H1563 C1587 0.951 . S
H1564 C1589 0.951 . S
H1565 C1591 0.950 . S
H1566 C1592 0.950 . S
H1567 C1594 0.950 . S
H1568 C1597 0.950 . S
H1569 C1598 0.950 . S
H1570 C1600 0.950 . S
H1571 C1601 0.950 . S
C1572 H1554 0.951 . S
C1572 C1573 1.366 . S
C1572 C1574 1.388 . S
C1573 C1572 1.366 . S
C1573 C1577 1.385 . S
C1574 H1555 0.951 . S
C1574 C1572 1.388 . S
C1574 C1575 1.366 . S
C1575 C1574 1.366 . S
C1575 C1576 1.414 . S
C1575 C1578 1.499 . S
C1576 H1556 0.950 . S
C1576 C1575 1.414 . S
C1576 C1577 1.374 . S
C1577 H1557 0.950 . S
C1577 C1573 1.385 . S
C1577 C1576 1.374 . S
C1578 C1575 1.499 . S
C1578 C1579 1.373 . S
C1578 C1580 1.389 . S
C1579 H1558 0.950 . S
C1579 C1578 1.373 . S
C1579 C1595 1.377 . S
C1580 C1578 1.389 . S
C1580 C1581 1.524 . S
C1580 C1594 1.377 . S
C1581 C1580 1.524 . S
C1581 C1582 1.397 . S
C1581 C1586 1.363 . S
C1582 H1559 0.950 . S
C1582 C1581 1.397 . S
C1582 C1583 1.334 . S
C1583 H1560 0.950 . S
C1583 C1582 1.334 . S
C1583 C1584 1.287 . S
C1584 C1583 1.287 . S
C1584 C1585 1.524 . S
C1584 H1603 0.913 . S
C1585 H1561 0.950 . S
C1585 C1584 1.524 . S
C1585 C1586 1.415 . S
C1586 H1562 0.950 . S
C1586 C1581 1.363 . S
C1586 C1585 1.415 . S
C1587 H1563 0.951 . S
C1587 C1588 1.366 . S
C1587 C1589 1.388 . S
C1588 C1587 1.366 . S
C1588 C1592 1.385 . S
C1589 H1564 0.951 . S
C1589 C1587 1.388 . S
C1589 C1590 1.366 . S
C1590 C1589 1.366 . S
C1590 C1591 1.414 . S
C1590 C1593 1.499 . S
C1591 H1565 0.950 . S
C1591 C1590 1.414 . S
C1591 C1592 1.374 . S
C1592 H1566 0.950 . S
C1592 C1588 1.385 . S
C1592 C1591 1.374 . S
C1593 C1590 1.499 . S
C1593 C1594 1.373 . S
C1593 C1595 1.389 . S
C1594 H1567 0.950 . S
C1594 C1580 1.377 . S
C1594 C1593 1.373 . S
C1595 C1579 1.377 . S
C1595 C1593 1.389 . S
C1595 C1596 1.524 . S
C1596 C1595 1.524 . S
C1596 C1597 1.397 . S
C1596 C1601 1.363 . S
C1597 H1568 0.950 . S
C1597 C1596 1.397 . S
C1597 C1598 1.334 . S
C1598 H1569 0.950 . S
C1598 C1597 1.334 . S
C1598 C1599 1.287 . S
C1599 C1598 1.287 . S
C1599 C1600 1.524 . S
C1599 H1602 0.999 . S
C1600 H1570 0.950 . S
C1600 C1599 1.524 . S
C1600 C1601 1.415 . S
C1601 H1571 0.950 . S
C1601 C1596 1.363 . S
C1601 C1600 1.415 . S
H1602 C1599 0.999 . S
H1603 C1584 0.913 . S
C438 C327 1.557 . S
C423 C15 1.695 . S
C488 C345 1.281 . S
C473 C55 1.372 . S
C523 C82 1.335 . S
C538 C369 1.264 . S
C588 C399 1.298 . S
C573 C122 1.428 . S
C638 C387 1.290 . S
C623 C175 1.381 . S
C673 C215 1.381 . S
C688 C340 1.298 . S
C723 C242 1.685 . S
C738 C360 1.529 . S
C773 C282 1.426 1_655 S
C788 C365 1.295 . S
C823 C295 1.370 . S
C838 C381 1.286 . S
C873 C202 1.426 . S
C888 C336 1.290 . S
C938 C403 1.285 . S
C923 C135 1.369 . S
C988 C348 1.297 . S
C973 C42 1.435 . S
C1023 C95 1.690 . S
C1038 C366 1.552 . S
C1073 C2 1.348 . S
C1088 C324 1.279 . S
C1138 C344 1.275 . S
C1123 C255 1.360 . S
C1188 C390 1.545 . S
C1173 C162 1.710 . S
C1238 C386 1.329 . S
C1223 C21 1.514 . S
C1288 C339 1.322 . S
C1273 C61 1.391 . S
C1323 C101 1.446 . S
C1338 C361 1.304 . S
C1373 C141 1.416 . S
C1388 C382 1.342 . S
C1438 C323 1.330 . S
C1423 C181 1.508 . S
C1473 C221 1.445 . S
C1488 C357 1.370 . S
C1538 C378 1.344 . S
C1523 C261 1.524 . S
C1588 C402 1.345 . S
C1573 C301 1.419 . S
