# Generated by pormake.
# Topology pyr, (3,6)-cn, num edge types: 1
# Building blocks:
#     Node 0, Type 0, BuildingBlock: OLANEW_clean_sbu_2, # of connection points: 3
#     Node 1, Type 0, BuildingBlock: OLANEW_clean_sbu_2, # of connection points: 3
#     Node 2, Type 0, BuildingBlock: OLANEW_clean_sbu_2, # of connection points: 3
#     Node 3, Type 0, BuildingBlock: OLANEW_clean_sbu_2, # of connection points: 3
#     Node 4, Type 0, BuildingBlock: OLANEW_clean_sbu_2, # of connection points: 3
#     Node 5, Type 0, BuildingBlock: OLANEW_clean_sbu_2, # of connection points: 3
#     Node 6, Type 0, BuildingBlock: OLANEW_clean_sbu_2, # of connection points: 3
#     Node 7, Type 0, BuildingBlock: OLANEW_clean_sbu_2, # of connection points: 3
#     Node 8, Type 1, BuildingBlock: PAMTOO_clean_sbu_0, # of connection points: 6
#     Node 9, Type 1, BuildingBlock: PAMTOO_clean_sbu_0, # of connection points: 6
#     Node 10, Type 1, BuildingBlock: PAMTOO_clean_sbu_0, # of connection points: 6
#     Node 11, Type 1, BuildingBlock: PAMTOO_clean_sbu_0, # of connection points: 6
#     Edge 12, Type (0, 1), BuildingBlock: KIFKEQ_clean_linker_1, # of connection points: 2
#     Edge 13, Type (0, 1), BuildingBlock: KIFKEQ_clean_linker_1, # of connection points: 2
#     Edge 14, Type (0, 1), BuildingBlock: KIFKEQ_clean_linker_1, # of connection points: 2
#     Edge 15, Type (0, 1), BuildingBlock: KIFKEQ_clean_linker_1, # of connection points: 2
#     Edge 16, Type (0, 1), BuildingBlock: KIFKEQ_clean_linker_1, # of connection points: 2
#     Edge 17, Type (0, 1), BuildingBlock: KIFKEQ_clean_linker_1, # of connection points: 2
#     Edge 18, Type (0, 1), BuildingBlock: KIFKEQ_clean_linker_1, # of connection points: 2
#     Edge 19, Type (0, 1), BuildingBlock: KIFKEQ_clean_linker_1, # of connection points: 2
#     Edge 20, Type (0, 1), BuildingBlock: KIFKEQ_clean_linker_1, # of connection points: 2
#     Edge 21, Type (0, 1), BuildingBlock: KIFKEQ_clean_linker_1, # of connection points: 2
#     Edge 22, Type (0, 1), BuildingBlock: KIFKEQ_clean_linker_1, # of connection points: 2
#     Edge 23, Type (0, 1), BuildingBlock: KIFKEQ_clean_linker_1, # of connection points: 2
#     Edge 24, Type (0, 1), BuildingBlock: KIFKEQ_clean_linker_1, # of connection points: 2
#     Edge 25, Type (0, 1), BuildingBlock: KIFKEQ_clean_linker_1, # of connection points: 2
#     Edge 26, Type (0, 1), BuildingBlock: KIFKEQ_clean_linker_1, # of connection points: 2
#     Edge 27, Type (0, 1), BuildingBlock: KIFKEQ_clean_linker_1, # of connection points: 2
#     Edge 28, Type (0, 1), BuildingBlock: KIFKEQ_clean_linker_1, # of connection points: 2
#     Edge 29, Type (0, 1), BuildingBlock: KIFKEQ_clean_linker_1, # of connection points: 2
#     Edge 30, Type (0, 1), BuildingBlock: KIFKEQ_clean_linker_1, # of connection points: 2
#     Edge 31, Type (0, 1), BuildingBlock: KIFKEQ_clean_linker_1, # of connection points: 2
#     Edge 32, Type (0, 1), BuildingBlock: KIFKEQ_clean_linker_1, # of connection points: 2
#     Edge 33, Type (0, 1), BuildingBlock: KIFKEQ_clean_linker_1, # of connection points: 2
#     Edge 34, Type (0, 1), BuildingBlock: KIFKEQ_clean_linker_1, # of connection points: 2
#     Edge 35, Type (0, 1), BuildingBlock: KIFKEQ_clean_linker_1, # of connection points: 2
# Relax obj value: 0.124
# Max RMSD: 0.213
# Mean RMSD: 0.127
data_MOF--net-pyr--node1-OLANEW_clean_sbu_2--node2-PAMTOO_clean_sbu_0--edge1-KIFKEQ_clean_linker_1
_symmetry_space_group_name_H-M    P1
_symmetry_Int_Tables_number       1
_symmetry_cell_setting            triclinic
loop_
_symmetry_equiv_pos_as_xyz
'x, y, z'
_cell_length_a     39.881151
_cell_length_b     43.499145
_cell_length_c     42.591674
_cell_angle_alpha  93.77976
_cell_angle_beta   89.60598
_cell_angle_gamma 105.88756
loop_
_atom_site_label
_atom_site_type_symbol
_atom_site_fract_x
_atom_site_fract_y
_atom_site_fract_z
_atom_type_partial_charge
O0 O 0.40372 0.28779 0.13881 0.0
Cd1 Cd 0.38803 0.33883 0.1438 0.0
O2 O 0.37144 0.27255 0.17964 0.0
Cd3 Cd 0.34987 0.24224 0.21773 0.0
O4 O 0.32125 0.21314 0.25399 0.0
C5 C 0.31832 0.22591 0.28119 0.0
O6 O 0.33334 0.25661 0.28719 0.0
C7 C 0.3923 0.26698 0.15871 0.0
C8 C 0.32011 0.33982 0.12839 0.0
O9 O 0.34415 0.34407 0.10767 0.0
O10 O 0.32776 0.33374 0.15608 0.0
O11 O 0.19181 0.76268 0.80756 0.0
Cd12 Cd 0.16986 0.74732 0.75385 0.0
O13 O 0.1541 0.78906 0.82289 0.0
Cd14 Cd 0.12922 0.78479 0.7768 0.0
O15 O 0.1107 0.80814 0.73936 0.0
C16 C 0.12454 0.83817 0.7393 0.0
O17 O 0.14874 0.85191 0.76047 0.0
C18 C 0.18002 0.77862 0.82885 0.0
C19 C 0.22232 0.72856 0.72081 0.0
O20 O 0.19882 0.70835 0.73526 0.0
O21 O 0.22025 0.75746 0.72098 0.0
O22 O 0.70624 0.40707 0.87623 0.0
Cd23 Cd 0.65358 0.38536 0.84191 0.0
O24 O 0.70019 0.36638 0.90677 0.0
Cd25 Cd 0.6516 0.32865 0.89536 0.0
O26 O 0.61979 0.28229 0.91139 0.0
C27 C 0.61099 0.28179 0.94019 0.0
O28 O 0.61945 0.30883 0.95776 0.0
C29 C 0.71724 0.39395 0.89855 0.0
C30 C 0.63941 0.42213 0.79344 0.0
O31 O 0.62709 0.42412 0.82116 0.0
O32 O 0.65949 0.40379 0.78877 0.0
O33 O 0.90237 0.74799 0.35336 0.0
Cd34 Cd 0.86917 0.69731 0.32509 0.0
O35 O 0.90235 0.72566 0.39834 0.0
Cd36 Cd 0.86622 0.67945 0.38466 0.0
O37 O 0.81895 0.65234 0.4071 0.0
C38 C 0.817 0.65974 0.43633 0.0
O39 O 0.84328 0.68135 0.4502 0.0
C40 C 0.91126 0.75015 0.38228 0.0
C41 C 0.89997 0.66922 0.2753 0.0
O42 O 0.88593 0.69182 0.27076 0.0
O43 O 0.90078 0.6608 0.30352 0.0
O44 O 0.69305 0.74588 0.79932 0.0
Cd45 Cd 0.66404 0.70808 0.83727 0.0
O46 O 0.67831 0.78423 0.82681 0.0
Cd47 Cd 0.67507 0.83176 0.84457 0.0
O48 O 0.65692 0.86554 0.87615 0.0
C49 C 0.63559 0.85316 0.89718 0.0
O50 O 0.62631 0.82185 0.89836 0.0
C51 C 0.69423 0.77535 0.80342 0.0
C52 C 0.71536 0.68936 0.86883 0.0
O53 O 0.70061 0.67359 0.84382 0.0
O54 O 0.70513 0.71351 0.87941 0.0
O55 O 0.87667 0.26305 0.34273 0.0
Cd56 Cd 0.90724 0.28038 0.39285 0.0
O57 O 0.84825 0.29998 0.3434 0.0
Cd58 Cd 0.8631 0.32298 0.39015 0.0
O59 O 0.83018 0.3454 0.41969 0.0
C60 C 0.81604 0.36321 0.405 0.0
O61 O 0.82466 0.36826 0.37557 0.0
C62 C 0.85571 0.27586 0.32978 0.0
C63 C 0.92606 0.22839 0.41506 0.0
O64 O 0.89606 0.23278 0.42075 0.0
O65 O 0.94765 0.24901 0.39933 0.0
O66 O 0.42302 0.75772 0.25887 0.0
Cd67 Cd 0.406 0.70142 0.27595 0.0
O68 O 0.38243 0.74424 0.22157 0.0
Cd69 Cd 0.35334 0.69485 0.22894 0.0
O70 O 0.30439 0.66195 0.21041 0.0
C71 C 0.30383 0.64723 0.18351 0.0
O72 O 0.33333 0.6499 0.16857 0.0
C73 C 0.40779 0.76505 0.23529 0.0
C74 C 0.42871 0.68086 0.33203 0.0
O75 O 0.44833 0.68577 0.30784 0.0
O76 O 0.3993 0.68737 0.33054 0.0
O77 O 0.15436 0.4212 0.7779 0.0
Cd78 Cd 0.17079 0.39593 0.72911 0.0
O79 O 0.11382 0.37719 0.78785 0.0
Cd80 Cd 0.12257 0.34474 0.74898 0.0
O81 O 0.11536 0.29789 0.72327 0.0
C82 C 0.10474 0.29266 0.69483 0.0
O83 O 0.09928 0.31636 0.67989 0.0
C84 C 0.12978 0.40638 0.79512 0.0
C85 C 0.23324 0.42982 0.70223 0.0
O86 O 0.20424 0.43533 0.69548 0.0
O87 O 0.23278 0.40883 0.72213 0.0
Dy88 Dy 0.05189 0.01829 0.53586 0.0
Dy89 Dy 0.97734 1.00454 0.57387 0.0
C90 C 0.03911 0.06978 0.58708 0.0
O91 O 0.05975 0.99922 0.58201 0.0
O92 O 0.00382 0.96959 0.5903 0.0
O93 O 0.10803 0.03663 0.53557 0.0
O94 O 0.08004 0.01047 0.49417 0.0
O95 O 0.968 0.96997 0.53101 0.0
O96 O 0.02405 0.96693 0.52571 0.0
O97 O 0.97769 0.04439 0.54393 0.0
O98 O 0.01664 0.03714 0.50604 0.0
O99 O 0.92089 0.99243 0.57461 0.0
O100 O 0.95092 1.00441 0.61811 0.0
C101 C 0.03746 0.97587 0.5955 0.0
O102 O 0.05243 0.06543 0.55948 0.0
O103 O 0.01526 0.04665 0.59947 0.0
C104 C 0.13213 0.05023 0.48602 0.0
C105 C 0.17428 0.09167 0.44452 0.0
C106 C 0.13975 0.09264 0.45014 0.0
C107 C 0.11881 0.07206 0.47078 0.0
C108 C 0.16671 0.04974 0.48114 0.0
C109 C 0.18766 0.07031 0.46062 0.0
C110 C 0.11012 0.027 0.50614 0.0
C111 C 0.99073 0.95547 0.51936 0.0
C112 C 0.99182 0.04984 0.51623 0.0
C113 C 0.89395 0.97067 0.62106 0.0
C114 C 0.84639 0.92691 0.65705 0.0
C115 C 0.87574 0.91907 0.64388 0.0
C116 C 0.89943 0.94086 0.62607 0.0
C117 C 0.86429 0.97817 0.63334 0.0
C118 C 0.8407 0.95652 0.65119 0.0
C119 C 0.91992 0.9953 0.60526 0.0
H120 H 0.12858 0.10862 0.43792 0.0
H121 H 0.09209 0.07274 0.47439 0.0
H122 H 0.17739 0.03311 0.4929 0.0
H123 H 0.21432 0.06937 0.45726 0.0
H124 H 0.88098 0.89655 0.6482 0.0
H125 H 0.9224 0.93481 0.61689 0.0
H126 H 0.85974 1.00113 0.62971 0.0
H127 H 0.81812 0.96307 0.6606 0.0
Dy128 Dy 0.46636 0.01218 0.06911 0.0
Dy129 Dy 0.53971 0.03813 0.11018 0.0
C130 C 0.48157 0.97425 0.12709 0.0
O131 O 0.46053 0.05559 0.09617 0.0
O132 O 0.50413 0.06466 0.13377 0.0
O133 O 0.41001 0.99794 0.06632 0.0
O134 O 0.44077 0.99804 0.02403 0.0
O135 O 0.53914 0.07932 0.08228 0.0
O136 O 0.50058 0.0527 0.04313 0.0
O137 O 0.55109 0.01431 0.06469 0.0
O138 O 0.49792 0.97838 0.05618 0.0
O139 O 0.59582 0.05259 0.11049 0.0
O140 O 0.56785 0.04693 0.15454 0.0
C141 C 0.47611 0.07047 0.12208 0.0
O142 O 0.45792 0.98388 0.11213 0.0
O143 O 0.51491 0.98851 0.12448 0.0
C144 C 0.38536 0.96039 0.02441 0.0
C145 C 0.33864 0.90478 0.9964 0.0
C146 C 0.37381 0.90588 1.00138 0.0
C147 C 0.39701 0.93346 0.01538 0.0
C148 C 0.3501 0.95891 0.02064 0.0
C149 C 0.32691 0.93136 1.00681 0.0
C150 C 0.40963 0.99084 0.03607 0.0
C151 C 0.52465 0.07825 0.05451 0.0
C152 C 0.53148 0.98757 0.05106 0.0
C153 C 0.62357 0.08548 0.15482 0.0
C154 C 0.67646 0.13686 0.18287 0.0
C155 C 0.67815 0.12716 0.15093 0.0
C156 C 0.65204 0.1017 0.13707 0.0
C157 C 0.62147 0.09566 0.18658 0.0
C158 C 0.64757 0.12115 0.20043 0.0
C159 C 0.59817 0.05628 0.1411 0.0
H160 H 0.38351 0.88566 0.99385 0.0
H161 H 0.42414 0.93406 0.01836 0.0
H162 H 0.3407 0.97949 0.02749 0.0
H163 H 0.30013 0.93148 1.00294 0.0
H164 H 0.69993 0.13898 0.13673 0.0
H165 H 0.65466 0.09425 0.11261 0.0
H166 H 0.60018 0.08337 0.20103 0.0
H167 H 0.64577 0.12771 0.22523 0.0
Dy168 Dy 0.51891 0.51641 0.54505 0.0
Dy169 Dy 0.52674 0.58314 0.58886 0.0
C170 C 0.5541 0.52584 0.6138 0.0
O171 O 0.47444 0.50603 0.57813 0.0
O172 O 0.46984 0.55709 0.58705 0.0
O173 O 0.51024 0.46505 0.54024 0.0
O174 O 0.51971 0.49253 0.49905 0.0
O175 O 0.51901 0.59362 0.53914 0.0
O176 O 0.48746 0.54376 0.52042 0.0
O177 O 0.58161 0.58631 0.57445 0.0
O178 O 0.56849 0.55034 0.53125 0.0
O179 O 0.53707 0.63469 0.59406 0.0
O180 O 0.52102 0.60643 0.63415 0.0
C181 C 0.45692 0.52602 0.5885 0.0
O182 O 0.55498 0.51426 0.58459 0.0
O183 O 0.53944 0.54897 0.62092 0.0
C184 C 0.54743 0.45187 0.50199 0.0
C185 C 0.60485 0.42885 0.48424 0.0
C186 C 0.60913 0.45548 0.50592 0.0
C187 C 0.5807 0.46684 0.5147 0.0
C188 C 0.54279 0.42513 0.48062 0.0
C189 C 0.5713 0.41367 0.4718 0.0
C190 C 0.51824 0.46515 0.51051 0.0
C191 C 0.49782 0.57497 0.51801 0.0
C192 C 0.59063 0.57321 0.54815 0.0
C193 C 0.49775 0.64969 0.62953 0.0
C194 C 0.43967 0.67214 0.64596 0.0
C195 C 0.44056 0.65538 0.61674 0.0
C196 C 0.46927 0.64408 0.60867 0.0
C197 C 0.49745 0.66722 0.65826 0.0
C198 C 0.46862 0.67835 0.66645 0.0
C199 C 0.52585 0.63439 0.62289 0.0
H200 H 0.63462 0.4681 0.51554 0.0
H201 H 0.58477 0.48766 0.53113 0.0
H202 H 0.51726 0.41333 0.47059 0.0
H203 H 0.56708 0.39292 0.45528 0.0
H204 H 0.41847 0.64986 0.60066 0.0
H205 H 0.46875 0.63008 0.58658 0.0
H206 H 0.51907 0.67149 0.67475 0.0
H207 H 0.46873 0.69142 0.68902 0.0
Dy208 Dy 0.01377 0.55943 0.02276 0.0
Dy209 Dy 0.00889 0.49332 0.05792 0.0
C210 C 0.97938 0.54911 0.08953 0.0
O211 O 0.05775 0.57141 0.05781 0.0
O212 O 0.06499 0.52114 0.05912 0.0
O213 O 0.016 0.60974 0.02579 0.0
O214 O 0.01521 0.58427 0.98032 0.0
O215 O 0.02526 0.4851 1.00856 0.0
O216 O 0.05041 0.53682 0.99616 0.0
O217 O 0.95427 0.48813 0.04077 0.0
O218 O 0.969 0.52176 1.0006 0.0
O219 O 0.99676 0.4417 0.05784 0.0
O220 O 0.01888 0.47113 0.09952 0.0
C221 C 0.07645 0.55223 0.06511 0.0
O222 O 0.97466 0.55701 0.06104 0.0
O223 O 0.99741 0.52866 0.09419 0.0
C224 C 0.98186 0.62079 0.98565 0.0
C225 C 0.9232 0.63739 0.96344 0.0
C226 C 0.9192 0.61254 0.98386 0.0
C227 C 0.94824 0.60428 0.99478 0.0
C228 C 0.98619 0.64594 0.96577 0.0
C229 C 0.95706 0.65425 0.95477 0.0
C230 C 0.01188 0.61026 0.99549 0.0
C231 C 0.04555 0.50581 0.99072 0.0
C232 C 0.94652 0.49868 1.0142 0.0
C233 C 0.03948 0.4264 0.08649 0.0
C234 C 0.0971 0.40088 0.09203 0.0
C235 C 0.09307 0.41728 0.06549 0.0
C236 C 0.06472 0.43006 0.06285 0.0
C237 C 0.04282 0.40945 0.11262 0.0
C238 C 0.07133 0.39677 0.11538 0.0
C239 C 0.0116 0.44264 0.08523 0.0
H240 H 0.89357 0.59939 0.99135 0.0
H241 H 0.94444 0.58464 1.01002 0.0
H242 H 0.01198 0.65872 0.9583 0.0
H243 H 0.96099 0.67326 0.93879 0.0
H244 H 0.11201 0.42051 0.04679 0.0
H245 H 0.06289 0.44338 0.04261 0.0
H246 H 0.02386 0.40674 0.1313 0.0
H247 H 0.07374 0.3847 0.13634 0.0
H248 H 0.28072 0.16308 0.27499 0.0
H249 H 0.30892 0.24495 0.34236 0.0
H250 H 0.24584 0.13134 0.31465 0.0
H251 H 0.2746 0.21288 0.38232 0.0
H252 H 0.17961 0.15453 0.43482 0.0
H253 H 0.21422 0.18716 0.39532 0.0
H254 H 0.25344 0.10751 0.36277 0.0
H255 H 0.2178 0.07459 0.4012 0.0
C256 C 0.27966 0.17426 0.29832 0.0
C257 C 0.29763 0.20654 0.30552 0.0
C258 C 0.25979 0.156 0.32112 0.0
C259 C 0.25752 0.16955 0.35167 0.0
C260 C 0.27548 0.20185 0.35889 0.0
C261 C 0.29532 0.22016 0.33604 0.0
C262 C 0.19542 0.14395 0.41905 0.0
C263 C 0.19596 0.11198 0.42117 0.0
C264 C 0.21554 0.16274 0.39666 0.0
C265 C 0.23657 0.14992 0.37589 0.0
C266 C 0.23722 0.11801 0.37816 0.0
C267 C 0.21712 0.09926 0.40048 0.0
H268 H 0.23647 0.76095 0.84954 0.0
H269 H 0.16667 0.81822 0.87696 0.0
H270 H 0.27329 0.78387 0.89537 0.0
H271 H 0.20386 0.84166 0.92215 0.0
H272 H 0.27017 0.87451 1.00771 0.0
H273 H 0.22908 0.83624 0.97208 0.0
H274 H 0.31252 0.83636 0.90675 0.0
H275 H 0.35336 0.87418 0.94234 0.0
C276 C 0.22867 0.77806 0.86558 0.0
C277 C 0.19889 0.78811 0.85932 0.0
C278 C 0.24989 0.7913 0.89176 0.0
C279 C 0.24182 0.81493 0.9122 0.0
C280 C 0.21076 0.82334 0.90708 0.0
C281 C 0.18949 0.81002 0.88099 0.0
C282 C 0.27974 0.86594 0.98593 0.0
C283 C 0.31493 0.87758 0.9777 0.0
C284 C 0.25623 0.84406 0.96552 0.0
C285 C 0.26741 0.83346 0.93642 0.0
C286 C 0.30303 0.84364 0.92913 0.0
C287 C 0.32652 0.86541 0.94956 0.0
H288 H 0.59167 0.45708 0.79447 0.0
H289 H 0.66411 0.42581 0.733 0.0
H290 H 0.57258 0.4823 0.7512 0.0
H291 H 0.64591 0.45202 0.68981 0.0
H292 H 0.57802 0.47207 0.61085 0.0
H293 H 0.59972 0.44818 0.65387 0.0
H294 H 0.58737 0.52517 0.71835 0.0
H295 H 0.56461 0.54832 0.67562 0.0
C296 C 0.6039 0.45592 0.77179 0.0
C297 C 0.62947 0.43934 0.76734 0.0
C298 C 0.59305 0.4706 0.74688 0.0
C299 C 0.60759 0.46937 0.71671 0.0
C300 C 0.63359 0.45315 0.71242 0.0
C301 C 0.64429 0.43829 0.73734 0.0
C302 C 0.58005 0.48397 0.63419 0.0
C303 C 0.56932 0.51209 0.63965 0.0
C304 C 0.59273 0.47034 0.65895 0.0
C305 C 0.59527 0.48452 0.68991 0.0
C306 C 0.58521 0.51304 0.69513 0.0
C307 C 0.57232 0.52652 0.67045 0.0
H308 H 0.91175 0.68706 0.2148 0.0
H309 H 0.91747 0.61265 0.27508 0.0
H310 H 0.93091 0.65804 0.17046 0.0
H311 H 0.93502 0.58281 0.23059 0.0
H312 H 0.99742 0.55043 0.15154 0.0
H313 H 0.97977 0.58004 0.19608 0.0
H314 H 0.91344 0.61347 0.1345 0.0
H315 H 0.93247 0.58495 0.08971 0.0
C316 C 0.91702 0.66444 0.21858 0.0
C317 C 0.91317 0.65227 0.24856 0.0
C318 C 0.92771 0.64756 0.19302 0.0
C319 C 0.93441 0.6178 0.19663 0.0
C320 C 0.93072 0.60581 0.22678 0.0
C321 C 0.92048 0.62289 0.25239 0.0
C322 C 0.97889 0.56393 0.14751 0.0
C323 C 0.96635 0.56524 0.11699 0.0
C324 C 0.9686 0.5809 0.17318 0.0
C325 C 0.94511 0.59937 0.16916 0.0
C326 C 0.93209 0.60013 0.13862 0.0
C327 C 0.94274 0.58347 0.11287 0.0
H328 H 0.45564 0.26067 0.14026 0.0
H329 H 0.35628 0.20679 0.1746 0.0
H330 H 0.47595 0.21246 0.13782 0.0
H331 H 0.37695 0.15887 0.17335 0.0
H332 H 0.41007 0.07582 0.11879 0.0
H333 H 0.3901 0.12299 0.13198 0.0
H334 H 0.49225 0.17298 0.1695 0.0
H335 H 0.5125 0.12543 0.1558 0.0
C336 C 0.43828 0.23859 0.14766 0.0
C337 C 0.40452 0.23767 0.15808 0.0
C338 C 0.45007 0.21106 0.14664 0.0
C339 C 0.42823 0.18182 0.15568 0.0
C340 C 0.39449 0.18098 0.16626 0.0
C341 C 0.38276 0.20858 0.16739 0.0
C342 C 0.42815 0.09665 0.13041 0.0
C343 C 0.46293 0.09694 0.13612 0.0
C344 C 0.41662 0.1237 0.13813 0.0
C345 C 0.43961 0.1519 0.15158 0.0
C346 C 0.474 0.15172 0.1588 0.0
C347 C 0.4855 0.12441 0.1513 0.0
H348 H 0.07322 0.8182 0.69405 0.0
H349 H 0.14896 0.90259 0.73409 0.0
H350 H 0.0527 0.85122 0.65856 0.0
H351 H 0.12805 0.93553 0.69914 0.0
H352 H 0.10528 0.98018 0.61055 0.0
H353 H 0.12679 0.94615 0.64391 0.0
H354 H 0.02091 0.89205 0.6613 0.0
H355 H 0.99933 0.92566 0.62751 0.0
C356 C 0.08551 0.84376 0.69526 0.0
C357 C 0.1127 0.85776 0.71692 0.0
C358 C 0.07361 0.8627 0.67507 0.0
C359 C 0.08869 0.89602 0.67608 0.0
C360 C 0.11615 0.9099 0.69748 0.0
C361 C 0.12801 0.891 0.71766 0.0
C362 C 0.08655 0.96106 0.6215 0.0
C363 C 0.05057 0.9557 0.61636 0.0
C364 C 0.0989 0.94162 0.64072 0.0
C365 C 0.07557 0.91637 0.65524 0.0
C366 C 0.03959 0.91101 0.65011 0.0
C367 C 0.02723 0.93046 0.6309 0.0
H368 H 0.75306 0.36839 0.93935 0.0
H369 H 0.75698 0.45671 0.89678 0.0
H370 H 0.80712 0.3941 0.96748 0.0
H371 H 0.8108 0.48301 0.92604 0.0
H372 H 0.92563 0.51036 0.95624 0.0
H373 H 0.87058 0.48611 0.92904 0.0
H374 H 0.83324 0.43082 1.0091 0.0
H375 H 0.88918 0.45433 0.03595 0.0
C376 C 0.76529 0.39346 0.93616 0.0
C377 C 0.7505 0.41041 0.91565 0.0
C378 C 0.79633 0.40835 0.95261 0.0
C379 C 0.81354 0.44081 0.94936 0.0
C380 C 0.79869 0.45787 0.92892 0.0
C381 C 0.76767 0.44283 0.91218 0.0
C382 C 0.90574 0.49303 0.96817 0.0
C383 C 0.91208 0.48419 0.99834 0.0
C384 C 0.87387 0.47926 0.95256 0.0
C385 C 0.84715 0.45637 0.96668 0.0
C386 C 0.8533 0.4479 0.99711 0.0
C387 C 0.88538 0.46153 1.01267 0.0
H388 H 0.75546 0.61918 0.41399 0.0
H389 H 0.80645 0.66882 0.49933 0.0
H390 H 0.70235 0.59817 0.44322 0.0
H391 H 0.75356 0.64709 0.52877 0.0
H392 H 0.63873 0.63138 0.56115 0.0
H393 H 0.6947 0.65174 0.53525 0.0
H394 H 0.67889 0.56083 0.48181 0.0
H395 H 0.62301 0.54102 0.50684 0.0
C396 C 0.75546 0.62534 0.43904 0.0
C397 C 0.78519 0.64566 0.45429 0.0
C398 C 0.72505 0.61317 0.45588 0.0
C399 C 0.72369 0.62086 0.48842 0.0
C400 C 0.75356 0.641 0.5037 0.0
C401 C 0.78395 0.65327 0.48683 0.0
C402 C 0.64749 0.61573 0.54413 0.0
C403 C 0.62629 0.58479 0.53576 0.0
C404 C 0.67955 0.62732 0.52931 0.0
C405 C 0.69105 0.60806 0.50607 0.0
C406 C 0.67046 0.57662 0.49894 0.0
C407 C 0.63846 0.56519 0.51347 0.0
H408 H 0.26318 0.33106 0.16666 0.0
H409 H 0.29843 0.35865 0.07385 0.0
H410 H 0.20828 0.34351 0.15659 0.0
H411 H 0.24346 0.3708 0.06375 0.0
H412 H 0.16444 0.43066 0.07654 0.0
H413 H 0.21634 0.41268 0.08354 0.0
H414 H 0.15409 0.32746 0.1241 0.0
H415 H 0.10176 0.34517 0.11662 0.0
C416 C 0.25906 0.33938 0.14396 0.0
C417 C 0.28532 0.34403 0.12113 0.0
C418 C 0.22751 0.34639 0.13815 0.0
C419 C 0.22158 0.35841 0.10946 0.0
C420 C 0.24741 0.36205 0.08628 0.0
C421 C 0.27884 0.35487 0.092 0.0
C422 C 0.16157 0.40779 0.08644 0.0
C423 C 0.12873 0.38933 0.09586 0.0
C424 C 0.19144 0.39751 0.09051 0.0
C425 C 0.18939 0.36856 0.10427 0.0
C426 C 0.15661 0.35002 0.11369 0.0
C427 C 0.12663 0.36024 0.10946 0.0
H428 H 0.59621 0.21999 0.91337 0.0
H429 H 0.58783 0.27427 1.00031 0.0
H430 H 0.57359 0.1701 0.93962 0.0
H431 H 0.56493 0.2248 0.02617 0.0
H432 H 0.57089 0.13555 0.07239 0.0
H433 H 0.58912 0.18331 0.04336 0.0
H434 H 0.52205 0.13532 0.96557 0.0
H435 H 0.50387 0.08681 0.9947 0.0
C436 C 0.58918 0.22132 0.93793 0.0
C437 C 0.5942 0.25122 0.95477 0.0
C438 C 0.57609 0.19271 0.95295 0.0
C439 C 0.56785 0.19339 0.98515 0.0
C440 C 0.57169 0.22332 1.00155 0.0
C441 C 0.58468 0.25177 0.98661 0.0
C442 C 0.55991 0.13495 0.0491 0.0
C443 C 0.53576 0.10717 0.036 0.0
C444 C 0.57025 0.16256 0.03248 0.0
C445 C 0.55683 0.16336 1.0022 0.0
C446 C 0.53302 0.1355 0.98879 0.0
C447 C 0.52249 0.10773 1.00556 0.0
H448 H 0.94891 0.76128 0.43689 0.0
H449 H 0.91009 0.80991 0.36613 0.0
H450 H 0.96828 0.81144 0.46906 0.0
H451 H 0.92947 0.86038 0.39863 0.0
H452 H 0.92808 0.93036 0.48789 0.0
H453 H 0.91145 0.88189 0.45214 0.0
H454 H 0.01158 0.86518 0.46812 0.0
H455 H 0.02817 0.91314 0.50354 0.0
C456 C 0.94503 0.78282 0.42796 0.0
C457 C 0.92806 0.78161 0.39889 0.0
C458 C 0.95611 0.81157 0.44642 0.0
C459 C 0.95013 0.8398 0.4365 0.0
C460 C 0.93406 0.8389 0.40702 0.0
C461 C 0.92339 0.81012 0.38826 0.0
C462 C 0.94643 0.91624 0.48383 0.0
C463 C 0.97939 0.92561 0.49865 0.0
C464 C 0.93706 0.8887 0.46315 0.0
C465 C 0.96028 0.8698 0.45727 0.0
C466 C 0.99306 0.87912 0.47229 0.0
C467 C 0.00255 0.9067 0.49256 0.0
H468 H 0.23826 0.67162 0.72342 0.0
H469 H 0.27425 0.76463 0.68553 0.0
H470 H 0.29035 0.65807 0.7038 0.0
H471 H 0.32648 0.75098 0.66598 0.0
H472 H 0.39991 0.70024 0.61139 0.0
H473 H 0.34586 0.71308 0.62715 0.0
H474 H 0.35362 0.6775 0.71835 0.0
H475 H 0.40717 0.6643 0.70251 0.0
C476 C 0.2571 0.68907 0.71064 0.0
C477 C 0.25219 0.71927 0.70617 0.0
C478 C 0.28704 0.68136 0.69959 0.0
C479 C 0.31261 0.70359 0.68363 0.0
C480 C 0.30713 0.73334 0.6781 0.0
C481 C 0.27728 0.74117 0.68938 0.0
C482 C 0.38998 0.69516 0.63477 0.0
C483 C 0.40779 0.68136 0.65576 0.0
C484 C 0.35921 0.70266 0.64383 0.0
C485 C 0.34545 0.69612 0.6739 0.0
C486 C 0.36338 0.68246 0.69489 0.0
C487 C 0.39426 0.67526 0.68596 0.0
H488 H 0.74874 0.76789 0.76842 0.0
H489 H 0.68714 0.83418 0.78917 0.0
H490 H 0.78423 0.80454 0.73285 0.0
H491 H 0.72259 0.87099 0.75315 0.0
H492 H 0.81868 0.94221 0.71284 0.0
H493 H 0.78074 0.90608 0.7477 0.0
H494 H 0.7817 0.82568 0.68276 0.0
H495 H 0.82006 0.86186 0.64812 0.0
C496 C 0.74267 0.7903 0.76529 0.0
C497 C 0.71535 0.79829 0.78195 0.0
C498 C 0.76294 0.81127 0.74472 0.0
C499 C 0.75626 0.84071 0.74001 0.0
C500 C 0.7288 0.84871 0.75659 0.0
C501 C 0.70855 0.8277 0.77737 0.0
C502 C 0.81048 0.91684 0.70586 0.0
C503 C 0.82242 0.90487 0.67773 0.0
C504 C 0.78866 0.89613 0.72582 0.0
C505 C 0.7782 0.86295 0.71811 0.0
C506 C 0.78975 0.85105 0.68972 0.0
C507 C 0.8117 0.87175 0.66983 0.0
H508 H 0.85555 0.21822 0.29975 0.0
H509 H 0.81123 0.29805 0.29473 0.0
H510 H 0.81489 0.18819 0.25906 0.0
H511 H 0.77107 0.2682 0.25354 0.0
H512 H 0.67251 0.18543 0.22561 0.0
H513 H 0.72013 0.22251 0.25561 0.0
H514 H 0.79424 0.18251 0.20481 0.0
H515 H 0.7464 0.14454 0.17561 0.0
C516 C 0.83777 0.2297 0.28941 0.0
C517 C 0.83628 0.26034 0.30086 0.0
C518 C 0.8145 0.2125 0.26596 0.0
C519 C 0.78939 0.22565 0.2534 0.0
C520 C 0.78963 0.25718 0.26323 0.0
C521 C 0.81281 0.27434 0.28672 0.0
C522 C 0.69898 0.18465 0.22076 0.0
C523 C 0.70565 0.16189 0.19843 0.0
C524 C 0.72633 0.20618 0.23766 0.0
C525 C 0.76101 0.20543 0.23262 0.0
C526 C 0.76779 0.18349 0.20943 0.0
C527 C 0.74041 0.16196 0.19249 0.0
H528 H 0.49348 0.676 0.34811 0.0
H529 H 0.38674 0.65217 0.37917 0.0
H530 H 0.50947 0.64994 0.39268 0.0
H531 H 0.40271 0.62564 0.42347 0.0
H532 H 0.4422 0.55027 0.4769 0.0
H533 H 0.42504 0.57609 0.43239 0.0
H534 H 0.51217 0.65909 0.45251 0.0
H535 H 0.52896 0.63378 0.49694 0.0
C536 C 0.47343 0.66531 0.36448 0.0
C537 C 0.43885 0.6664 0.36008 0.0
C538 C 0.48261 0.65038 0.39006 0.0
C539 C 0.45735 0.63557 0.41161 0.0
C540 C 0.42274 0.63654 0.40717 0.0
C541 C 0.41367 0.65201 0.38192 0.0
C542 C 0.45766 0.57401 0.47181 0.0
C543 C 0.48694 0.58989 0.49062 0.0
C544 C 0.44774 0.58888 0.44641 0.0
C545 C 0.46729 0.61967 0.43884 0.0
C546 C 0.49669 0.63531 0.45749 0.0
C547 C 0.50618 0.62078 0.48313 0.0
H548 H 0.07478 0.38279 0.83311 0.0
H549 H 0.16075 0.46681 0.82213 0.0
H550 H 0.05715 0.40832 0.88024 0.0
H551 H 0.14345 0.49227 0.87022 0.0
H552 H 0.07583 0.5376 0.93955 0.0
H553 H 0.09806 0.51489 0.8924 0.0
H554 H 0.07583 0.42332 0.93344 0.0
H555 H 0.05288 0.44562 0.97983 0.0
C556 C 0.09012 0.40669 0.84085 0.0
C557 C 0.11932 0.42265 0.82381 0.0
C558 C 0.08011 0.42129 0.8681 0.0
C559 C 0.0991 0.45225 0.87934 0.0
C560 C 0.12811 0.46848 0.86215 0.0
C561 C 0.13812 0.45383 0.83467 0.0
C562 C 0.07597 0.51269 0.93855 0.0
C563 C 0.06216 0.49334 0.9633 0.0
C564 C 0.08883 0.49969 0.91156 0.0
C565 C 0.08828 0.46712 0.90887 0.0
C566 C 0.07584 0.44826 0.93429 0.0
C567 C 0.06282 0.46113 0.96103 0.0
H568 H 0.6497 0.91872 0.90241 0.0
H569 H 0.58863 0.83317 0.9435 0.0
H570 H 0.62481 0.9514 0.93963 0.0
H571 H 0.5643 0.86578 0.98084 0.0
H572 H 0.49887 0.93111 0.01844 0.0
H573 H 0.52443 0.89936 0.98117 0.0
H574 H 0.62536 0.96758 0.99609 0.0
H575 H 0.59972 0.99972 0.03309 0.0
C576 C 0.63108 0.90689 0.91942 0.0
C577 C 0.62109 0.87332 0.9199 0.0
C578 C 0.61697 0.92563 0.94086 0.0
C579 C 0.59249 0.91119 0.96315 0.0
C580 C 0.5827 0.87764 0.96369 0.0
C581 C 0.59683 0.85895 0.94235 0.0
C582 C 0.52653 0.93937 1.01386 0.0
C583 C 0.54724 0.96797 0.02883 0.0
C584 C 0.54122 0.92106 0.99257 0.0
C585 C 0.57696 0.93089 0.98568 0.0
C586 C 0.59767 0.95952 1.0006 0.0
C587 C 0.583 0.97783 0.02198 0.0
H588 H 0.99063 0.21778 0.41734 0.0
H589 H 0.88222 0.17512 0.43771 0.0
H590 H 0.00578 0.1724 0.43851 0.0
H591 H 0.89703 0.12934 0.45762 0.0
H592 H 0.94024 0.07823 0.53013 0.0
H593 H 0.92473 0.11954 0.50319 0.0
H594 H 1.00201 0.11574 0.43249 0.0
H595 H 0.01866 0.07459 0.46044 0.0
C596 C 0.97 0.19854 0.42601 0.0
C597 C 0.9353 0.20024 0.42629 0.0
C598 C 0.97864 0.17239 0.4379 0.0
C599 C 0.95268 0.14729 0.45004 0.0
C600 C 0.91782 0.14855 0.44914 0.0
C601 C 0.90928 0.17478 0.43763 0.0
C602 C 0.95393 0.08591 0.50874 0.0
C603 C 0.98082 0.07304 0.49752 0.0
C604 C 0.94476 0.10956 0.49307 0.0
C605 C 0.96194 0.12095 0.46552 0.0
C606 C 0.98845 0.10771 0.45383 0.0
C607 C 0.9978 0.08395 0.46968 0.0
H608 H 0.23813 0.64866 0.20131 0.0
H609 H 0.29346 0.60829 0.12932 0.0
H610 H 0.18346 0.62505 0.17246 0.0
H611 H 0.23871 0.58468 0.10054 0.0
H612 H 0.12649 0.52175 0.07612 0.0
H613 H 0.18118 0.54313 0.10554 0.0
H614 H 0.15805 0.63423 0.12108 0.0
H615 H 0.10339 0.61299 0.09168 0.0
C616 C 0.23861 0.63449 0.17951 0.0
C617 C 0.27021 0.63044 0.16759 0.0
C618 C 0.20732 0.62119 0.16286 0.0
C619 C 0.20684 0.60322 0.13411 0.0
C620 C 0.23823 0.59829 0.12269 0.0
C621 C 0.2696 0.6119 0.13916 0.0
C622 C 0.13312 0.5464 0.08566 0.0
C623 C 0.11053 0.56567 0.0815 0.0
C624 C 0.1645 0.55864 0.10245 0.0
C625 C 0.17381 0.59029 0.11578 0.0
C626 C 0.15137 0.60962 0.11143 0.0
C627 C 0.12018 0.59751 0.09435 0.0
H628 H 0.24353 0.47731 0.66097 0.0
H629 H 0.29729 0.41933 0.70808 0.0
H630 H 0.29696 0.50175 0.63297 0.0
H631 H 0.35051 0.44387 0.68033 0.0
H632 H 0.42424 0.4635 0.59775 0.0
H633 H 0.3703 0.44203 0.62543 0.0
H634 H 0.35785 0.5373 0.64165 0.0
H635 H 0.4121 0.55906 0.61362 0.0
C636 C 0.26677 0.46995 0.66554 0.0
C637 C 0.26607 0.44623 0.68666 0.0
C638 C 0.2974 0.48406 0.64958 0.0
C639 C 0.32788 0.47455 0.65422 0.0
C640 C 0.32731 0.45134 0.67584 0.0
C641 C 0.29683 0.43741 0.69191 0.0
C642 C 0.41003 0.47998 0.607 0.0
C643 C 0.42267 0.51307 0.6035 0.0
C644 C 0.37917 0.46763 0.6231 0.0
C645 C 0.35998 0.48798 0.63605 0.0
C646 C 0.372 0.52099 0.63185 0.0
C647 C 0.40312 0.53344 0.61584 0.0
H648 H 0.74374 0.64054 0.85105 0.0
H649 H 0.75274 0.71879 0.92134 0.0
H650 H 0.79358 0.62814 0.87454 0.0
H651 H 0.80225 0.70595 0.94523 0.0
H652 H 0.9138 0.6965 0.95536 0.0
H653 H 0.86289 0.70853 0.93321 0.0
H654 H 0.81087 0.6073 0.92136 0.0
H655 H 0.86217 0.59526 0.94227 0.0
C656 C 0.75614 0.65491 0.8717 0.0
C657 C 0.74429 0.68068 0.8843 0.0
C658 C 0.78463 0.64771 0.88526 0.0
C659 C 0.80194 0.66609 0.91173 0.0
C660 C 0.78978 0.6916 0.92459 0.0
C661 C 0.76126 0.69881 0.91103 0.0
C662 C 0.89159 0.67683 0.94779 0.0
C663 C 0.89205 0.64493 0.95058 0.0
C664 C 0.86227 0.68373 0.93546 0.0
C665 C 0.8328 0.65887 0.92556 0.0
C666 C 0.83325 0.627 0.92848 0.0
C667 C 0.86252 0.62011 0.94081 0.0
H668 H 0.46212 0.81798 0.25496 0.0
H669 H 0.37881 0.7858 0.186 0.0
H670 H 0.47966 0.87019 0.23185 0.0
H671 H 0.39662 0.83683 0.16282 0.0
H672 H 0.41518 0.93936 0.14092 0.0
H673 H 0.3977 0.89139 0.17024 0.0
H674 H 0.50591 0.8957 0.18547 0.0
H675 H 0.52339 0.94423 0.15693 0.0
C676 C 0.44753 0.82195 0.235 0.0
C677 C 0.41899 0.79749 0.22252 0.0
C678 C 0.45767 0.85185 0.2216 0.0
C679 C 0.43946 0.85801 0.19546 0.0
C680 C 0.41092 0.8335 0.18325 0.0
C681 C 0.40085 0.80389 0.19654 0.0
C682 C 0.43529 0.93025 0.15067 0.0
C683 C 0.47072 0.9457 0.14626 0.0
C684 C 0.42526 0.90254 0.16742 0.0
C685 C 0.45034 0.88926 0.18011 0.0
C686 C 0.48579 0.90523 0.1764 0.0
C687 C 0.49582 0.93304 0.15976 0.0
H688 H 0.08611 0.27411 0.63335 0.0
H689 H 0.10527 0.23693 0.72108 0.0
H690 H 0.07113 0.22006 0.60815 0.0
H691 H 0.0905 0.18284 0.69571 0.0
H692 H 0.02144 0.08827 0.64643 0.0
H693 H 0.03842 0.142 0.67276 0.0
H694 H 0.09939 0.17776 0.59213 0.0
H695 H 0.08235 0.12439 0.56574 0.0
C696 C 0.08731 0.25445 0.64724 0.0
C697 C 0.09692 0.2599 0.67924 0.0
C698 C 0.07887 0.22347 0.63274 0.0
C699 C 0.07962 0.19714 0.64993 0.0
C700 C 0.08932 0.20257 0.68191 0.0
C701 C 0.09802 0.23361 0.69638 0.0
C702 C 0.03858 0.10756 0.63438 0.0
C703 C 0.05045 0.10195 0.60393 0.0
C704 C 0.04844 0.13832 0.64953 0.0
C705 C 0.07014 0.16418 0.63447 0.0
C706 C 0.08228 0.15846 0.6042 0.0
C707 C 0.07265 0.12775 0.58916 0.0
H708 H 0.78363 0.34914 0.46144 0.0
H709 H 0.78344 0.40366 0.38024 0.0
H710 H 0.73243 0.36431 0.48147 0.0
H711 H 0.73294 0.41927 0.40051 0.0
H712 H 0.61993 0.40934 0.42473 0.0
H713 H 0.67154 0.39374 0.40728 0.0
H714 H 0.71194 0.40939 0.5026 0.0
H715 H 0.65955 0.42375 0.5203 0.0
C716 C 0.77299 0.36471 0.44809 0.0
C717 C 0.78747 0.37501 0.41914 0.0
C718 C 0.74368 0.37344 0.45959 0.0
C719 C 0.72831 0.39267 0.44238 0.0
C720 C 0.74362 0.40384 0.414 0.0
C721 C 0.77279 0.39509 0.40251 0.0
C722 C 0.63953 0.40897 0.44207 0.0
C723 C 0.6356 0.41785 0.47391 0.0
C724 C 0.66938 0.40046 0.43199 0.0
C725 C 0.69607 0.40065 0.45349 0.0
C726 C 0.69183 0.40887 0.48545 0.0
C727 C 0.66195 0.4174 0.49554 0.0
loop_
_geom_bond_atom_site_label_1
_geom_bond_atom_site_label_2
_geom_bond_distance
_geom_bond_site_symmetry_2
_ccdc_geom_bond_type
O0 Cd1 2.300 . S
O0 C7 1.275 . S
Cd1 O0 2.300 . S
Cd1 O9 2.381 . S
Cd1 O10 2.378 . S
O2 Cd3 2.385 . S
O2 C7 1.255 . S
Cd3 O2 2.385 . S
Cd3 O4 2.317 . S
O4 Cd3 2.317 . S
O4 C5 1.232 . S
C5 O4 1.232 . S
C5 O6 1.218 . S
O6 C5 1.218 . S
C7 O0 1.275 . S
C7 O2 1.255 . S
C8 O9 1.258 . S
C8 O10 1.256 . S
O9 Cd1 2.381 . S
O9 C8 1.258 . S
O10 Cd1 2.378 . S
O10 C8 1.256 . S
O11 Cd12 2.300 . S
O11 C18 1.275 . S
Cd12 O11 2.300 . S
Cd12 O20 2.381 . S
Cd12 O21 2.378 . S
O13 Cd14 2.385 . S
O13 C18 1.255 . S
Cd14 O13 2.385 . S
Cd14 O15 2.317 . S
O15 Cd14 2.317 . S
O15 C16 1.232 . S
C16 O15 1.232 . S
C16 O17 1.218 . S
O17 C16 1.218 . S
C18 O11 1.275 . S
C18 O13 1.255 . S
C19 O20 1.258 . S
C19 O21 1.256 . S
O20 Cd12 2.381 . S
O20 C19 1.258 . S
O21 Cd12 2.378 . S
O21 C19 1.256 . S
O22 Cd23 2.300 . S
O22 C29 1.275 . S
Cd23 O22 2.300 . S
Cd23 O31 2.381 . S
Cd23 O32 2.378 . S
O24 Cd25 2.385 . S
O24 C29 1.255 . S
Cd25 O24 2.385 . S
Cd25 O26 2.317 . S
O26 Cd25 2.317 . S
O26 C27 1.232 . S
C27 O26 1.232 . S
C27 O28 1.218 . S
O28 C27 1.218 . S
C29 O22 1.275 . S
C29 O24 1.255 . S
C30 O31 1.258 . S
C30 O32 1.256 . S
O31 Cd23 2.381 . S
O31 C30 1.258 . S
O32 Cd23 2.378 . S
O32 C30 1.256 . S
O33 Cd34 2.300 . S
O33 C40 1.275 . S
Cd34 O33 2.300 . S
Cd34 O42 2.381 . S
Cd34 O43 2.378 . S
O35 Cd36 2.385 . S
O35 C40 1.255 . S
Cd36 O35 2.385 . S
Cd36 O37 2.317 . S
O37 Cd36 2.317 . S
O37 C38 1.232 . S
C38 O37 1.232 . S
C38 O39 1.218 . S
O39 C38 1.218 . S
C40 O33 1.275 . S
C40 O35 1.255 . S
C41 O42 1.258 . S
C41 O43 1.256 . S
O42 Cd34 2.381 . S
O42 C41 1.258 . S
O43 Cd34 2.378 . S
O43 C41 1.256 . S
O44 Cd45 2.300 . S
O44 C51 1.275 . S
Cd45 O44 2.300 . S
Cd45 O53 2.381 . S
Cd45 O54 2.378 . S
O46 Cd47 2.385 . S
O46 C51 1.255 . S
Cd47 O46 2.385 . S
Cd47 O48 2.317 . S
O48 Cd47 2.317 . S
O48 C49 1.232 . S
C49 O48 1.232 . S
C49 O50 1.218 . S
O50 C49 1.218 . S
C51 O44 1.275 . S
C51 O46 1.255 . S
C52 O53 1.258 . S
C52 O54 1.256 . S
O53 Cd45 2.381 . S
O53 C52 1.258 . S
O54 Cd45 2.378 . S
O54 C52 1.256 . S
O55 Cd56 2.300 . S
O55 C62 1.275 . S
Cd56 O55 2.300 . S
Cd56 O64 2.381 . S
Cd56 O65 2.378 . S
O57 Cd58 2.385 . S
O57 C62 1.255 . S
Cd58 O57 2.385 . S
Cd58 O59 2.317 . S
O59 Cd58 2.317 . S
O59 C60 1.232 . S
C60 O59 1.232 . S
C60 O61 1.218 . S
O61 C60 1.218 . S
C62 O55 1.275 . S
C62 O57 1.255 . S
C63 O64 1.258 . S
C63 O65 1.256 . S
O64 Cd56 2.381 . S
O64 C63 1.258 . S
O65 Cd56 2.378 . S
O65 C63 1.256 . S
O66 Cd67 2.300 . S
O66 C73 1.275 . S
Cd67 O66 2.300 . S
Cd67 O75 2.381 . S
Cd67 O76 2.378 . S
O68 Cd69 2.385 . S
O68 C73 1.255 . S
Cd69 O68 2.385 . S
Cd69 O70 2.317 . S
O70 Cd69 2.317 . S
O70 C71 1.232 . S
C71 O70 1.232 . S
C71 O72 1.218 . S
O72 C71 1.218 . S
C73 O66 1.275 . S
C73 O68 1.255 . S
C74 O75 1.258 . S
C74 O76 1.256 . S
O75 Cd67 2.381 . S
O75 C74 1.258 . S
O76 Cd67 2.378 . S
O76 C74 1.256 . S
O77 Cd78 2.300 . S
O77 C84 1.275 . S
Cd78 O77 2.300 . S
Cd78 O86 2.381 . S
Cd78 O87 2.378 . S
O79 Cd80 2.385 . S
O79 C84 1.255 . S
Cd80 O79 2.385 . S
Cd80 O81 2.317 . S
O81 Cd80 2.317 . S
O81 C82 1.232 . S
C82 O81 1.232 . S
C82 O83 1.218 . S
O83 C82 1.218 . S
C84 O77 1.275 . S
C84 O79 1.255 . S
C85 O86 1.258 . S
C85 O87 1.256 . S
O86 Cd78 2.381 . S
O86 C85 1.258 . S
O87 Cd78 2.378 . S
O87 C85 1.256 . S
Dy88 O91 2.307 1_545 S
Dy88 O93 2.395 . S
Dy88 O94 2.379 . S
Dy88 O96 2.339 1_545 S
Dy88 O98 2.298 . S
Dy88 O102 2.275 . S
Dy88 C110 2.738 . S
Dy89 O92 2.298 1_645 S
Dy89 O95 2.275 1_545 S
Dy89 O97 2.307 . S
Dy89 O99 2.395 1_545 S
Dy89 O100 2.379 1_545 S
Dy89 O103 2.339 . S
Dy89 C119 2.738 1_545 S
C90 O102 1.254 . S
C90 O103 1.257 1_455 S
O91 Dy88 2.307 1_565 S
O91 C101 1.266 . S
O92 Dy89 2.298 1_465 S
O92 C101 1.236 . S
O93 Dy88 2.395 . S
O93 C110 1.255 . S
O94 Dy88 2.379 . S
O94 C110 1.249 . S
O95 Dy89 2.275 1_565 S
O95 C111 1.254 . S
O96 Dy88 2.339 1_565 S
O96 C111 1.257 1_455 S
O97 Dy89 2.307 . S
O97 C112 1.266 . S
O98 Dy88 2.298 . S
O98 C112 1.236 1_455 S
O99 Dy89 2.395 1_565 S
O99 C119 1.255 . S
O100 Dy89 2.379 1_565 S
O100 C119 1.249 . S
C101 O91 1.266 . S
C101 O92 1.236 . S
O102 Dy88 2.275 . S
O102 C90 1.254 . S
O103 Dy89 2.339 . S
O103 C90 1.257 1_655 S
C104 C107 1.344 . S
C104 C108 1.328 . S
C104 C110 1.516 . S
C105 C106 1.304 . S
C105 C109 1.323 . S
C106 C105 1.304 . S
C106 C107 1.371 . S
C106 H120 0.930 . S
C107 C104 1.344 . S
C107 C106 1.371 . S
C107 H121 0.931 . S
C108 C104 1.328 . S
C108 C109 1.433 . S
C108 H122 0.931 . S
C109 C105 1.323 . S
C109 C108 1.433 . S
C109 H123 0.933 . S
C110 Dy88 2.738 . S
C110 O93 1.255 . S
C110 O94 1.249 . S
C110 C104 1.516 . S
C111 O95 1.254 . S
C111 O96 1.257 1_655 S
C112 O97 1.266 . S
C112 O98 1.236 1_655 S
C113 C116 1.344 . S
C113 C117 1.328 . S
C113 C119 1.516 . S
C114 C115 1.304 . S
C114 C118 1.323 . S
C115 C114 1.304 . S
C115 C116 1.371 . S
C115 H124 0.930 . S
C116 C113 1.344 . S
C116 C115 1.371 . S
C116 H125 0.931 . S
C117 C113 1.328 . S
C117 C118 1.433 . S
C117 H126 0.931 . S
C118 C114 1.323 . S
C118 C117 1.433 . S
C118 H127 0.933 . S
C119 Dy89 2.738 1_565 S
C119 O99 1.255 . S
C119 O100 1.249 . S
C119 C113 1.516 . S
H120 C106 0.930 . S
H121 C107 0.931 . S
H122 C108 0.931 . S
H123 C109 0.933 . S
H124 C115 0.930 . S
H125 C116 0.931 . S
H126 C117 0.931 . S
H127 C118 0.933 . S
Dy128 O131 2.307 . S
Dy128 O133 2.395 1_545 S
Dy128 O134 2.379 1_554 S
Dy128 O136 2.339 . S
Dy128 O138 2.298 . S
Dy128 O142 2.275 1_545 S
Dy128 C150 2.738 1_544 S
Dy129 O132 2.298 . S
Dy129 O135 2.275 . S
Dy129 O137 2.307 . S
Dy129 O139 2.395 . S
Dy129 O140 2.379 . S
Dy129 O143 2.339 1_545 S
Dy129 C159 2.738 . S
C130 O142 1.254 . S
C130 O143 1.257 . S
O131 Dy128 2.307 . S
O131 C141 1.266 . S
O132 Dy129 2.298 . S
O132 C141 1.236 . S
O133 Dy128 2.395 1_565 S
O133 C150 1.255 1_554 S
O134 Dy128 2.379 1_556 S
O134 C150 1.249 1_545 S
O135 Dy129 2.275 . S
O135 C151 1.254 . S
O136 Dy128 2.339 . S
O136 C151 1.257 . S
O137 Dy129 2.307 . S
O137 C152 1.266 1_545 S
O138 Dy128 2.298 . S
O138 C152 1.236 1_545 S
O139 Dy129 2.395 . S
O139 C159 1.255 . S
O140 Dy129 2.379 . S
O140 C159 1.249 . S
C141 O131 1.266 . S
C141 O132 1.236 . S
O142 Dy128 2.275 1_565 S
O142 C130 1.254 . S
O143 Dy129 2.339 1_565 S
O143 C130 1.257 . S
C144 C147 1.344 . S
C144 C148 1.328 . S
C144 C150 1.516 . S
C145 C146 1.304 . S
C145 C149 1.323 . S
C146 C145 1.304 . S
C146 C147 1.371 . S
C146 H160 0.930 . S
C147 C144 1.344 . S
C147 C146 1.371 . S
C147 H161 0.931 . S
C148 C144 1.328 . S
C148 C149 1.433 . S
C148 H162 0.931 . S
C149 C145 1.323 . S
C149 C148 1.433 . S
C149 H163 0.933 . S
C150 Dy128 2.738 1_566 S
C150 O133 1.255 1_556 S
C150 O134 1.249 1_565 S
C150 C144 1.516 . S
C151 O135 1.254 . S
C151 O136 1.257 . S
C152 O137 1.266 1_565 S
C152 O138 1.236 1_565 S
C153 C156 1.344 . S
C153 C157 1.328 . S
C153 C159 1.516 . S
C154 C155 1.304 . S
C154 C158 1.323 . S
C155 C154 1.304 . S
C155 C156 1.371 . S
C155 H164 0.930 . S
C156 C153 1.344 . S
C156 C155 1.371 . S
C156 H165 0.931 . S
C157 C153 1.328 . S
C157 C158 1.433 . S
C157 H166 0.931 . S
C158 C154 1.323 . S
C158 C157 1.433 . S
C158 H167 0.933 . S
C159 Dy129 2.738 . S
C159 O139 1.255 . S
C159 O140 1.249 . S
C159 C153 1.516 . S
H160 C146 0.930 . S
H161 C147 0.931 . S
H162 C148 0.931 . S
H163 C149 0.933 . S
H164 C155 0.930 . S
H165 C156 0.931 . S
H166 C157 0.931 . S
H167 C158 0.933 . S
Dy168 O171 2.307 . S
Dy168 O173 2.395 . S
Dy168 O174 2.379 . S
Dy168 O176 2.339 . S
Dy168 O178 2.298 . S
Dy168 O182 2.275 . S
Dy168 C190 2.738 . S
Dy169 O172 2.298 . S
Dy169 O175 2.275 . S
Dy169 O177 2.307 . S
Dy169 O179 2.395 . S
Dy169 O180 2.379 . S
Dy169 O183 2.339 . S
Dy169 C199 2.738 . S
C170 O182 1.254 . S
C170 O183 1.257 . S
O171 Dy168 2.307 . S
O171 C181 1.266 . S
O172 Dy169 2.298 . S
O172 C181 1.236 . S
O173 Dy168 2.395 . S
O173 C190 1.255 . S
O174 Dy168 2.379 . S
O174 C190 1.249 . S
O175 Dy169 2.275 . S
O175 C191 1.254 . S
O176 Dy168 2.339 . S
O176 C191 1.257 . S
O177 Dy169 2.307 . S
O177 C192 1.266 . S
O178 Dy168 2.298 . S
O178 C192 1.236 . S
O179 Dy169 2.395 . S
O179 C199 1.255 . S
O180 Dy169 2.379 . S
O180 C199 1.249 . S
C181 O171 1.266 . S
C181 O172 1.236 . S
O182 Dy168 2.275 . S
O182 C170 1.254 . S
O183 Dy169 2.339 . S
O183 C170 1.257 . S
C184 C187 1.344 . S
C184 C188 1.328 . S
C184 C190 1.516 . S
C185 C186 1.304 . S
C185 C189 1.323 . S
C186 C185 1.304 . S
C186 C187 1.371 . S
C186 H200 0.930 . S
C187 C184 1.344 . S
C187 C186 1.371 . S
C187 H201 0.931 . S
C188 C184 1.328 . S
C188 C189 1.433 . S
C188 H202 0.931 . S
C189 C185 1.323 . S
C189 C188 1.433 . S
C189 H203 0.933 . S
C190 Dy168 2.738 . S
C190 O173 1.255 . S
C190 O174 1.249 . S
C190 C184 1.516 . S
C191 O175 1.254 . S
C191 O176 1.257 . S
C192 O177 1.266 . S
C192 O178 1.236 . S
C193 C196 1.344 . S
C193 C197 1.328 . S
C193 C199 1.516 . S
C194 C195 1.304 . S
C194 C198 1.323 . S
C195 C194 1.304 . S
C195 C196 1.371 . S
C195 H204 0.930 . S
C196 C193 1.344 . S
C196 C195 1.371 . S
C196 H205 0.931 . S
C197 C193 1.328 . S
C197 C198 1.433 . S
C197 H206 0.931 . S
C198 C194 1.323 . S
C198 C197 1.433 . S
C198 H207 0.933 . S
C199 Dy169 2.738 . S
C199 O179 1.255 . S
C199 O180 1.249 . S
C199 C193 1.516 . S
H200 C186 0.930 . S
H201 C187 0.931 . S
H202 C188 0.931 . S
H203 C189 0.933 . S
H204 C195 0.930 . S
H205 C196 0.931 . S
H206 C197 0.931 . S
H207 C198 0.933 . S
Dy208 O211 2.307 1_556 S
Dy208 O213 2.395 1_455 S
Dy208 O214 2.380 1_455 S
Dy208 O216 2.339 . S
Dy208 O218 2.298 1_455 S
Dy208 O222 2.275 1_556 S
Dy208 C230 2.738 1_455 S
Dy209 O212 2.298 . S
Dy209 O215 2.275 1_554 S
Dy209 O217 2.307 1_455 S
Dy209 O219 2.395 . S
Dy209 O220 2.379 . S
Dy209 O223 2.339 1_455 S
Dy209 C239 2.738 . S
C210 O222 1.254 1_655 S
C210 O223 1.257 . S
O211 Dy208 2.307 1_554 S
O211 C221 1.266 . S
O212 Dy209 2.298 . S
O212 C221 1.236 . S
O213 Dy208 2.395 1_655 S
O213 C230 1.255 . S
O214 Dy208 2.380 1_655 S
O214 C230 1.248 . S
O215 Dy209 2.275 1_556 S
O215 C231 1.254 . S
O216 Dy208 2.339 . S
O216 C231 1.257 . S
O217 Dy209 2.307 1_655 S
O217 C232 1.266 1_554 S
O218 Dy208 2.298 1_655 S
O218 C232 1.236 . S
O219 Dy209 2.395 . S
O219 C239 1.255 . S
O220 Dy209 2.379 . S
O220 C239 1.249 . S
C221 O211 1.266 . S
C221 O212 1.236 . S
O222 Dy208 2.275 1_554 S
O222 C210 1.254 1_455 S
O223 Dy209 2.339 1_655 S
O223 C210 1.257 . S
C224 C227 1.344 . S
C224 C228 1.328 . S
C224 C230 1.516 . S
C225 C226 1.304 . S
C225 C229 1.323 . S
C226 C225 1.304 . S
C226 C227 1.371 . S
C226 H240 0.930 . S
C227 C224 1.344 . S
C227 C226 1.371 . S
C227 H241 0.931 . S
C228 C224 1.328 . S
C228 C229 1.433 . S
C228 H242 0.931 . S
C229 C225 1.323 . S
C229 C228 1.433 . S
C229 H243 0.933 . S
C230 Dy208 2.738 1_655 S
C230 O213 1.255 . S
C230 O214 1.248 . S
C230 C224 1.516 . S
C231 O215 1.254 . S
C231 O216 1.257 . S
C232 O217 1.266 1_556 S
C232 O218 1.236 . S
C233 C236 1.344 . S
C233 C237 1.328 . S
C233 C239 1.516 . S
C234 C235 1.304 . S
C234 C238 1.323 . S
C235 C234 1.304 . S
C235 C236 1.371 . S
C235 H244 0.930 . S
C236 C233 1.344 . S
C236 C235 1.371 . S
C236 H245 0.931 . S
C237 C233 1.328 . S
C237 C238 1.433 . S
C237 H246 0.931 . S
C238 C234 1.323 . S
C238 C237 1.433 . S
C238 H247 0.933 . S
C239 Dy209 2.738 . S
C239 O219 1.255 . S
C239 O220 1.249 . S
C239 C233 1.516 . S
H240 C226 0.930 . S
H241 C227 0.931 . S
H242 C228 0.931 . S
H243 C229 0.933 . S
H244 C235 0.930 . S
H245 C236 0.931 . S
H246 C237 0.931 . S
H247 C238 0.933 . S
H248 C256 0.950 . S
H249 C261 0.950 . S
H250 C258 0.950 . S
H251 C260 0.950 . S
H252 C262 0.950 . S
H253 C264 0.950 . S
H254 C266 0.950 . S
H255 C267 0.950 . S
C256 H248 0.950 . S
C256 C257 1.386 . S
C256 C258 1.391 . S
C257 C256 1.386 . S
C257 C261 1.393 . S
C258 H250 0.950 . S
C258 C256 1.391 . S
C258 C259 1.400 . S
C259 C258 1.400 . S
C259 C260 1.398 . S
C259 C265 1.491 . S
C260 H251 0.950 . S
C260 C259 1.398 . S
C260 C261 1.391 . S
C261 H249 0.950 . S
C261 C257 1.393 . S
C261 C260 1.391 . S
C262 H252 0.950 . S
C262 C263 1.386 . S
C262 C264 1.391 . S
C263 C262 1.386 . S
C263 C267 1.393 . S
C264 H253 0.950 . S
C264 C262 1.391 . S
C264 C265 1.400 . S
C265 C259 1.491 . S
C265 C264 1.400 . S
C265 C266 1.398 . S
C266 H254 0.950 . S
C266 C265 1.398 . S
C266 C267 1.391 . S
C267 H255 0.950 . S
C267 C263 1.393 . S
C267 C266 1.391 . S
H268 C276 0.950 . S
H269 C281 0.950 . S
H270 C278 0.950 . S
H271 C280 0.950 . S
H272 C282 0.950 . S
H273 C284 0.950 . S
H274 C286 0.950 . S
H275 C287 0.950 . S
C276 H268 0.950 . S
C276 C277 1.386 . S
C276 C278 1.391 . S
C277 C276 1.386 . S
C277 C281 1.393 . S
C278 H270 0.950 . S
C278 C276 1.391 . S
C278 C279 1.400 . S
C279 C278 1.400 . S
C279 C280 1.398 . S
C279 C285 1.491 . S
C280 H271 0.950 . S
C280 C279 1.398 . S
C280 C281 1.391 . S
C281 H269 0.950 . S
C281 C277 1.393 . S
C281 C280 1.391 . S
C282 H272 0.950 . S
C282 C283 1.386 . S
C282 C284 1.391 . S
C283 C282 1.386 . S
C283 C287 1.393 . S
C284 H273 0.950 . S
C284 C282 1.391 . S
C284 C285 1.400 . S
C285 C279 1.491 . S
C285 C284 1.400 . S
C285 C286 1.398 . S
C286 H274 0.950 . S
C286 C285 1.398 . S
C286 C287 1.391 . S
C287 H275 0.950 . S
C287 C283 1.393 . S
C287 C286 1.391 . S
H288 C296 0.950 . S
H289 C301 0.950 . S
H290 C298 0.950 . S
H291 C300 0.950 . S
H292 C302 0.950 . S
H293 C304 0.950 . S
H294 C306 0.950 . S
H295 C307 0.950 . S
C296 H288 0.950 . S
C296 C297 1.386 . S
C296 C298 1.391 . S
C297 C296 1.386 . S
C297 C301 1.393 . S
C298 H290 0.950 . S
C298 C296 1.391 . S
C298 C299 1.400 . S
C299 C298 1.400 . S
C299 C300 1.398 . S
C299 C305 1.491 . S
C300 H291 0.950 . S
C300 C299 1.398 . S
C300 C301 1.391 . S
C301 H289 0.950 . S
C301 C297 1.393 . S
C301 C300 1.391 . S
C302 H292 0.950 . S
C302 C303 1.386 . S
C302 C304 1.391 . S
C303 C302 1.386 . S
C303 C307 1.393 . S
C304 H293 0.950 . S
C304 C302 1.391 . S
C304 C305 1.400 . S
C305 C299 1.491 . S
C305 C304 1.400 . S
C305 C306 1.398 . S
C306 H294 0.950 . S
C306 C305 1.398 . S
C306 C307 1.391 . S
C307 H295 0.950 . S
C307 C303 1.393 . S
C307 C306 1.391 . S
H308 C316 0.950 . S
H309 C321 0.950 . S
H310 C318 0.950 . S
H311 C320 0.950 . S
H312 C322 0.950 . S
H313 C324 0.950 . S
H314 C326 0.950 . S
H315 C327 0.950 . S
C316 H308 0.950 . S
C316 C317 1.386 . S
C316 C318 1.391 . S
C317 C316 1.386 . S
C317 C321 1.393 . S
C318 H310 0.950 . S
C318 C316 1.391 . S
C318 C319 1.400 . S
C319 C318 1.400 . S
C319 C320 1.398 . S
C319 C325 1.491 . S
C320 H311 0.950 . S
C320 C319 1.398 . S
C320 C321 1.391 . S
C321 H309 0.950 . S
C321 C317 1.393 . S
C321 C320 1.391 . S
C322 H312 0.950 . S
C322 C323 1.386 . S
C322 C324 1.391 . S
C323 C322 1.386 . S
C323 C327 1.393 . S
C324 H313 0.950 . S
C324 C322 1.391 . S
C324 C325 1.400 . S
C325 C319 1.491 . S
C325 C324 1.400 . S
C325 C326 1.398 . S
C326 H314 0.950 . S
C326 C325 1.398 . S
C326 C327 1.391 . S
C327 H315 0.950 . S
C327 C323 1.393 . S
C327 C326 1.391 . S
H328 C336 0.950 . S
H329 C341 0.950 . S
H330 C338 0.950 . S
H331 C340 0.950 . S
H332 C342 0.950 . S
H333 C344 0.950 . S
H334 C346 0.950 . S
H335 C347 0.950 . S
C336 H328 0.950 . S
C336 C337 1.386 . S
C336 C338 1.391 . S
C337 C336 1.386 . S
C337 C341 1.393 . S
C338 H330 0.950 . S
C338 C336 1.391 . S
C338 C339 1.400 . S
C339 C338 1.400 . S
C339 C340 1.398 . S
C339 C345 1.491 . S
C340 H331 0.950 . S
C340 C339 1.398 . S
C340 C341 1.391 . S
C341 H329 0.950 . S
C341 C337 1.393 . S
C341 C340 1.391 . S
C342 H332 0.950 . S
C342 C343 1.386 . S
C342 C344 1.391 . S
C343 C342 1.386 . S
C343 C347 1.393 . S
C344 H333 0.950 . S
C344 C342 1.391 . S
C344 C345 1.400 . S
C345 C339 1.491 . S
C345 C344 1.400 . S
C345 C346 1.398 . S
C346 H334 0.950 . S
C346 C345 1.398 . S
C346 C347 1.391 . S
C347 H335 0.950 . S
C347 C343 1.393 . S
C347 C346 1.391 . S
H348 C356 0.950 . S
H349 C361 0.950 . S
H350 C358 0.950 . S
H351 C360 0.950 . S
H352 C362 0.950 . S
H353 C364 0.950 . S
H354 C366 0.950 . S
H355 C367 0.950 1_655 S
C356 H348 0.950 . S
C356 C357 1.386 . S
C356 C358 1.391 . S
C357 C356 1.386 . S
C357 C361 1.393 . S
C358 H350 0.950 . S
C358 C356 1.391 . S
C358 C359 1.400 . S
C359 C358 1.400 . S
C359 C360 1.398 . S
C359 C365 1.491 . S
C360 H351 0.950 . S
C360 C359 1.398 . S
C360 C361 1.391 . S
C361 H349 0.950 . S
C361 C357 1.393 . S
C361 C360 1.391 . S
C362 H352 0.950 . S
C362 C363 1.386 . S
C362 C364 1.391 . S
C363 C362 1.386 . S
C363 C367 1.393 . S
C364 H353 0.950 . S
C364 C362 1.391 . S
C364 C365 1.400 . S
C365 C359 1.491 . S
C365 C364 1.400 . S
C365 C366 1.398 . S
C366 H354 0.950 . S
C366 C365 1.398 . S
C366 C367 1.391 . S
C367 H355 0.950 1_455 S
C367 C363 1.393 . S
C367 C366 1.391 . S
H368 C376 0.950 . S
H369 C381 0.950 . S
H370 C378 0.950 . S
H371 C380 0.950 . S
H372 C382 0.950 . S
H373 C384 0.950 . S
H374 C386 0.950 . S
H375 C387 0.950 1_554 S
C376 H368 0.950 . S
C376 C377 1.386 . S
C376 C378 1.391 . S
C377 C376 1.386 . S
C377 C381 1.393 . S
C378 H370 0.950 . S
C378 C376 1.391 . S
C378 C379 1.400 . S
C379 C378 1.400 . S
C379 C380 1.398 . S
C379 C385 1.491 . S
C380 H371 0.950 . S
C380 C379 1.398 . S
C380 C381 1.391 . S
C381 H369 0.950 . S
C381 C377 1.393 . S
C381 C380 1.391 . S
C382 H372 0.950 . S
C382 C383 1.386 . S
C382 C384 1.391 . S
C383 C382 1.386 . S
C383 C387 1.393 . S
C384 H373 0.950 . S
C384 C382 1.391 . S
C384 C385 1.400 . S
C385 C379 1.491 . S
C385 C384 1.400 . S
C385 C386 1.398 . S
C386 H374 0.950 . S
C386 C385 1.398 . S
C386 C387 1.391 . S
C387 H375 0.950 1_556 S
C387 C383 1.393 . S
C387 C386 1.391 . S
H388 C396 0.950 . S
H389 C401 0.950 . S
H390 C398 0.950 . S
H391 C400 0.950 . S
H392 C402 0.950 . S
H393 C404 0.950 . S
H394 C406 0.950 . S
H395 C407 0.950 . S
C396 H388 0.950 . S
C396 C397 1.386 . S
C396 C398 1.391 . S
C397 C396 1.386 . S
C397 C401 1.393 . S
C398 H390 0.950 . S
C398 C396 1.391 . S
C398 C399 1.400 . S
C399 C398 1.400 . S
C399 C400 1.398 . S
C399 C405 1.491 . S
C400 H391 0.950 . S
C400 C399 1.398 . S
C400 C401 1.391 . S
C401 H389 0.950 . S
C401 C397 1.393 . S
C401 C400 1.391 . S
C402 H392 0.950 . S
C402 C403 1.386 . S
C402 C404 1.391 . S
C403 C402 1.386 . S
C403 C407 1.393 . S
C404 H393 0.950 . S
C404 C402 1.391 . S
C404 C405 1.400 . S
C405 C399 1.491 . S
C405 C404 1.400 . S
C405 C406 1.398 . S
C406 H394 0.950 . S
C406 C405 1.398 . S
C406 C407 1.391 . S
C407 H395 0.950 . S
C407 C403 1.393 . S
C407 C406 1.391 . S
H408 C416 0.950 . S
H409 C421 0.950 . S
H410 C418 0.950 . S
H411 C420 0.950 . S
H412 C422 0.950 . S
H413 C424 0.950 . S
H414 C426 0.950 . S
H415 C427 0.950 . S
C416 H408 0.950 . S
C416 C417 1.386 . S
C416 C418 1.391 . S
C417 C416 1.386 . S
C417 C421 1.393 . S
C418 H410 0.950 . S
C418 C416 1.391 . S
C418 C419 1.400 . S
C419 C418 1.400 . S
C419 C420 1.398 . S
C419 C425 1.491 . S
C420 H411 0.950 . S
C420 C419 1.398 . S
C420 C421 1.391 . S
C421 H409 0.950 . S
C421 C417 1.393 . S
C421 C420 1.391 . S
C422 H412 0.950 . S
C422 C423 1.386 . S
C422 C424 1.391 . S
C423 C422 1.386 . S
C423 C427 1.393 . S
C424 H413 0.950 . S
C424 C422 1.391 . S
C424 C425 1.400 . S
C425 C419 1.491 . S
C425 C424 1.400 . S
C425 C426 1.398 . S
C426 H414 0.950 . S
C426 C425 1.398 . S
C426 C427 1.391 . S
C427 H415 0.950 . S
C427 C423 1.393 . S
C427 C426 1.391 . S
H428 C436 0.950 . S
H429 C441 0.950 . S
H430 C438 0.950 . S
H431 C440 0.950 . S
H432 C442 0.950 . S
H433 C444 0.950 . S
H434 C446 0.950 . S
H435 C447 0.950 . S
C436 H428 0.950 . S
C436 C437 1.386 . S
C436 C438 1.391 . S
C437 C436 1.386 . S
C437 C441 1.393 . S
C438 H430 0.950 . S
C438 C436 1.391 . S
C438 C439 1.400 . S
C439 C438 1.400 . S
C439 C440 1.398 . S
C439 C445 1.491 . S
C440 H431 0.950 . S
C440 C439 1.398 . S
C440 C441 1.391 . S
C441 H429 0.950 . S
C441 C437 1.393 . S
C441 C440 1.391 . S
C442 H432 0.950 . S
C442 C443 1.386 . S
C442 C444 1.391 . S
C443 C442 1.386 . S
C443 C447 1.393 1_554 S
C444 H433 0.950 . S
C444 C442 1.391 . S
C444 C445 1.400 1_554 S
C445 C439 1.491 . S
C445 C444 1.400 1_556 S
C445 C446 1.398 . S
C446 H434 0.950 . S
C446 C445 1.398 . S
C446 C447 1.391 . S
C447 H435 0.950 . S
C447 C443 1.393 1_556 S
C447 C446 1.391 . S
H448 C456 0.950 . S
H449 C461 0.950 . S
H450 C458 0.950 . S
H451 C460 0.950 . S
H452 C462 0.950 . S
H453 C464 0.950 . S
H454 C466 0.950 . S
H455 C467 0.950 . S
C456 H448 0.950 . S
C456 C457 1.386 . S
C456 C458 1.391 . S
C457 C456 1.386 . S
C457 C461 1.393 . S
C458 H450 0.950 . S
C458 C456 1.391 . S
C458 C459 1.400 . S
C459 C458 1.400 . S
C459 C460 1.398 . S
C459 C465 1.491 . S
C460 H451 0.950 . S
C460 C459 1.398 . S
C460 C461 1.391 . S
C461 H449 0.950 . S
C461 C457 1.393 . S
C461 C460 1.391 . S
C462 H452 0.950 . S
C462 C463 1.386 . S
C462 C464 1.391 . S
C463 C462 1.386 . S
C463 C467 1.393 . S
C464 H453 0.950 . S
C464 C462 1.391 . S
C464 C465 1.400 . S
C465 C459 1.491 . S
C465 C464 1.400 . S
C465 C466 1.398 . S
C466 H454 0.950 . S
C466 C465 1.398 . S
C466 C467 1.391 . S
C467 H455 0.950 . S
C467 C463 1.393 . S
C467 C466 1.391 . S
H468 C476 0.950 . S
H469 C481 0.950 . S
H470 C478 0.950 . S
H471 C480 0.950 . S
H472 C482 0.950 . S
H473 C484 0.950 . S
H474 C486 0.950 . S
H475 C487 0.950 . S
C476 H468 0.950 . S
C476 C477 1.386 . S
C476 C478 1.391 . S
C477 C476 1.386 . S
C477 C481 1.393 . S
C478 H470 0.950 . S
C478 C476 1.391 . S
C478 C479 1.400 . S
C479 C478 1.400 . S
C479 C480 1.398 . S
C479 C485 1.491 . S
C480 H471 0.950 . S
C480 C479 1.398 . S
C480 C481 1.391 . S
C481 H469 0.950 . S
C481 C477 1.393 . S
C481 C480 1.391 . S
C482 H472 0.950 . S
C482 C483 1.386 . S
C482 C484 1.391 . S
C483 C482 1.386 . S
C483 C487 1.393 . S
C484 H473 0.950 . S
C484 C482 1.391 . S
C484 C485 1.400 . S
C485 C479 1.491 . S
C485 C484 1.400 . S
C485 C486 1.398 . S
C486 H474 0.950 . S
C486 C485 1.398 . S
C486 C487 1.391 . S
C487 H475 0.950 . S
C487 C483 1.393 . S
C487 C486 1.391 . S
H488 C496 0.950 . S
H489 C501 0.950 . S
H490 C498 0.950 . S
H491 C500 0.950 . S
H492 C502 0.950 . S
H493 C504 0.950 . S
H494 C506 0.950 . S
H495 C507 0.950 . S
C496 H488 0.950 . S
C496 C497 1.386 . S
C496 C498 1.391 . S
C497 C496 1.386 . S
C497 C501 1.393 . S
C498 H490 0.950 . S
C498 C496 1.391 . S
C498 C499 1.400 . S
C499 C498 1.400 . S
C499 C500 1.398 . S
C499 C505 1.491 . S
C500 H491 0.950 . S
C500 C499 1.398 . S
C500 C501 1.391 . S
C501 H489 0.950 . S
C501 C497 1.393 . S
C501 C500 1.391 . S
C502 H492 0.950 . S
C502 C503 1.386 . S
C502 C504 1.391 . S
C503 C502 1.386 . S
C503 C507 1.393 . S
C504 H493 0.950 . S
C504 C502 1.391 . S
C504 C505 1.400 . S
C505 C499 1.491 . S
C505 C504 1.400 . S
C505 C506 1.398 . S
C506 H494 0.950 . S
C506 C505 1.398 . S
C506 C507 1.391 . S
C507 H495 0.950 . S
C507 C503 1.393 . S
C507 C506 1.391 . S
H508 C516 0.950 . S
H509 C521 0.950 . S
H510 C518 0.950 . S
H511 C520 0.950 . S
H512 C522 0.950 . S
H513 C524 0.950 . S
H514 C526 0.950 . S
H515 C527 0.950 . S
C516 H508 0.950 . S
C516 C517 1.386 . S
C516 C518 1.391 . S
C517 C516 1.386 . S
C517 C521 1.393 . S
C518 H510 0.950 . S
C518 C516 1.391 . S
C518 C519 1.400 . S
C519 C518 1.400 . S
C519 C520 1.398 . S
C519 C525 1.491 . S
C520 H511 0.950 . S
C520 C519 1.398 . S
C520 C521 1.391 . S
C521 H509 0.950 . S
C521 C517 1.393 . S
C521 C520 1.391 . S
C522 H512 0.950 . S
C522 C523 1.386 . S
C522 C524 1.391 . S
C523 C522 1.386 . S
C523 C527 1.393 . S
C524 H513 0.950 . S
C524 C522 1.391 . S
C524 C525 1.400 . S
C525 C519 1.491 . S
C525 C524 1.400 . S
C525 C526 1.398 . S
C526 H514 0.950 . S
C526 C525 1.398 . S
C526 C527 1.391 . S
C527 H515 0.950 . S
C527 C523 1.393 . S
C527 C526 1.391 . S
H528 C536 0.950 . S
H529 C541 0.950 . S
H530 C538 0.950 . S
H531 C540 0.950 . S
H532 C542 0.950 . S
H533 C544 0.950 . S
H534 C546 0.950 . S
H535 C547 0.950 . S
C536 H528 0.950 . S
C536 C537 1.386 . S
C536 C538 1.391 . S
C537 C536 1.386 . S
C537 C541 1.393 . S
C538 H530 0.950 . S
C538 C536 1.391 . S
C538 C539 1.400 . S
C539 C538 1.400 . S
C539 C540 1.398 . S
C539 C545 1.491 . S
C540 H531 0.950 . S
C540 C539 1.398 . S
C540 C541 1.391 . S
C541 H529 0.950 . S
C541 C537 1.393 . S
C541 C540 1.391 . S
C542 H532 0.950 . S
C542 C543 1.386 . S
C542 C544 1.391 . S
C543 C542 1.386 . S
C543 C547 1.393 . S
C544 H533 0.950 . S
C544 C542 1.391 . S
C544 C545 1.400 . S
C545 C539 1.491 . S
C545 C544 1.400 . S
C545 C546 1.398 . S
C546 H534 0.950 . S
C546 C545 1.398 . S
C546 C547 1.391 . S
C547 H535 0.950 . S
C547 C543 1.393 . S
C547 C546 1.391 . S
H548 C556 0.950 . S
H549 C561 0.950 . S
H550 C558 0.950 . S
H551 C560 0.950 . S
H552 C562 0.950 . S
H553 C564 0.950 . S
H554 C566 0.950 . S
H555 C567 0.950 . S
C556 H548 0.950 . S
C556 C557 1.386 . S
C556 C558 1.391 . S
C557 C556 1.386 . S
C557 C561 1.393 . S
C558 H550 0.950 . S
C558 C556 1.391 . S
C558 C559 1.400 . S
C559 C558 1.400 . S
C559 C560 1.398 . S
C559 C565 1.491 . S
C560 H551 0.950 . S
C560 C559 1.398 . S
C560 C561 1.391 . S
C561 H549 0.950 . S
C561 C557 1.393 . S
C561 C560 1.391 . S
C562 H552 0.950 . S
C562 C563 1.386 . S
C562 C564 1.391 . S
C563 C562 1.386 . S
C563 C567 1.393 . S
C564 H553 0.950 . S
C564 C562 1.391 . S
C564 C565 1.400 . S
C565 C559 1.491 . S
C565 C564 1.400 . S
C565 C566 1.398 . S
C566 H554 0.950 . S
C566 C565 1.398 . S
C566 C567 1.391 . S
C567 H555 0.950 . S
C567 C563 1.393 . S
C567 C566 1.391 . S
H568 C576 0.950 . S
H569 C581 0.950 . S
H570 C578 0.950 . S
H571 C580 0.950 . S
H572 C582 0.950 . S
H573 C584 0.950 . S
H574 C586 0.950 . S
H575 C587 0.950 . S
C576 H568 0.950 . S
C576 C577 1.386 . S
C576 C578 1.391 . S
C577 C576 1.386 . S
C577 C581 1.393 . S
C578 H570 0.950 . S
C578 C576 1.391 . S
C578 C579 1.400 . S
C579 C578 1.400 . S
C579 C580 1.398 . S
C579 C585 1.491 . S
C580 H571 0.950 . S
C580 C579 1.398 . S
C580 C581 1.391 . S
C581 H569 0.950 . S
C581 C577 1.393 . S
C581 C580 1.391 . S
C582 H572 0.950 . S
C582 C583 1.386 . S
C582 C584 1.391 . S
C583 C582 1.386 . S
C583 C587 1.393 . S
C584 H573 0.950 . S
C584 C582 1.391 . S
C584 C585 1.400 . S
C585 C579 1.491 . S
C585 C584 1.400 . S
C585 C586 1.398 . S
C586 H574 0.950 . S
C586 C585 1.398 . S
C586 C587 1.391 . S
C587 H575 0.950 . S
C587 C583 1.393 . S
C587 C586 1.391 . S
H588 C596 0.950 . S
H589 C601 0.950 . S
H590 C598 0.950 1_455 S
H591 C600 0.950 . S
H592 C602 0.950 . S
H593 C604 0.950 . S
H594 C606 0.950 1_455 S
H595 C607 0.950 1_455 S
C596 H588 0.950 . S
C596 C597 1.386 . S
C596 C598 1.391 . S
C597 C596 1.386 . S
C597 C601 1.393 . S
C598 H590 0.950 1_655 S
C598 C596 1.391 . S
C598 C599 1.400 . S
C599 C598 1.400 . S
C599 C600 1.398 . S
C599 C605 1.491 . S
C600 H591 0.950 . S
C600 C599 1.398 . S
C600 C601 1.391 . S
C601 H589 0.950 . S
C601 C597 1.393 . S
C601 C600 1.391 . S
C602 H592 0.950 . S
C602 C603 1.386 . S
C602 C604 1.391 . S
C603 C602 1.386 . S
C603 C607 1.393 . S
C604 H593 0.950 . S
C604 C602 1.391 . S
C604 C605 1.400 . S
C605 C599 1.491 . S
C605 C604 1.400 . S
C605 C606 1.398 . S
C606 H594 0.950 1_655 S
C606 C605 1.398 . S
C606 C607 1.391 . S
C607 H595 0.950 1_655 S
C607 C603 1.393 . S
C607 C606 1.391 . S
H608 C616 0.950 . S
H609 C621 0.950 . S
H610 C618 0.950 . S
H611 C620 0.950 . S
H612 C622 0.950 . S
H613 C624 0.950 . S
H614 C626 0.950 . S
H615 C627 0.950 . S
C616 H608 0.950 . S
C616 C617 1.386 . S
C616 C618 1.391 . S
C617 C616 1.386 . S
C617 C621 1.393 . S
C618 H610 0.950 . S
C618 C616 1.391 . S
C618 C619 1.400 . S
C619 C618 1.400 . S
C619 C620 1.398 . S
C619 C625 1.491 . S
C620 H611 0.950 . S
C620 C619 1.398 . S
C620 C621 1.391 . S
C621 H609 0.950 . S
C621 C617 1.393 . S
C621 C620 1.391 . S
C622 H612 0.950 . S
C622 C623 1.386 . S
C622 C624 1.391 . S
C623 C622 1.386 . S
C623 C627 1.393 . S
C624 H613 0.950 . S
C624 C622 1.391 . S
C624 C625 1.400 . S
C625 C619 1.491 . S
C625 C624 1.400 . S
C625 C626 1.398 . S
C626 H614 0.950 . S
C626 C625 1.398 . S
C626 C627 1.391 . S
C627 H615 0.950 . S
C627 C623 1.393 . S
C627 C626 1.391 . S
H628 C636 0.950 . S
H629 C641 0.950 . S
H630 C638 0.950 . S
H631 C640 0.950 . S
H632 C642 0.950 . S
H633 C644 0.950 . S
H634 C646 0.950 . S
H635 C647 0.950 . S
C636 H628 0.950 . S
C636 C637 1.386 . S
C636 C638 1.391 . S
C637 C636 1.386 . S
C637 C641 1.393 . S
C638 H630 0.950 . S
C638 C636 1.391 . S
C638 C639 1.400 . S
C639 C638 1.400 . S
C639 C640 1.398 . S
C639 C645 1.491 . S
C640 H631 0.950 . S
C640 C639 1.398 . S
C640 C641 1.391 . S
C641 H629 0.950 . S
C641 C637 1.393 . S
C641 C640 1.391 . S
C642 H632 0.950 . S
C642 C643 1.386 . S
C642 C644 1.391 . S
C643 C642 1.386 . S
C643 C647 1.393 . S
C644 H633 0.950 . S
C644 C642 1.391 . S
C644 C645 1.400 . S
C645 C639 1.491 . S
C645 C644 1.400 . S
C645 C646 1.398 . S
C646 H634 0.950 . S
C646 C645 1.398 . S
C646 C647 1.391 . S
C647 H635 0.950 . S
C647 C643 1.393 . S
C647 C646 1.391 . S
H648 C656 0.950 . S
H649 C661 0.950 . S
H650 C658 0.950 . S
H651 C660 0.950 . S
H652 C662 0.950 . S
H653 C664 0.950 . S
H654 C666 0.950 . S
H655 C667 0.950 . S
C656 H648 0.950 . S
C656 C657 1.386 . S
C656 C658 1.391 . S
C657 C656 1.386 . S
C657 C661 1.393 . S
C658 H650 0.950 . S
C658 C656 1.391 . S
C658 C659 1.400 . S
C659 C658 1.400 . S
C659 C660 1.398 . S
C659 C665 1.491 . S
C660 H651 0.950 . S
C660 C659 1.398 . S
C660 C661 1.391 . S
C661 H649 0.950 . S
C661 C657 1.393 . S
C661 C660 1.391 . S
C662 H652 0.950 . S
C662 C663 1.386 . S
C662 C664 1.391 . S
C663 C662 1.386 . S
C663 C667 1.393 . S
C664 H653 0.950 . S
C664 C662 1.391 . S
C664 C665 1.400 . S
C665 C659 1.491 . S
C665 C664 1.400 . S
C665 C666 1.398 . S
C666 H654 0.950 . S
C666 C665 1.398 . S
C666 C667 1.391 . S
C667 H655 0.950 . S
C667 C663 1.393 . S
C667 C666 1.391 . S
H668 C676 0.950 . S
H669 C681 0.950 . S
H670 C678 0.950 . S
H671 C680 0.950 . S
H672 C682 0.950 . S
H673 C684 0.950 . S
H674 C686 0.950 . S
H675 C687 0.950 . S
C676 H668 0.950 . S
C676 C677 1.386 . S
C676 C678 1.391 . S
C677 C676 1.386 . S
C677 C681 1.393 . S
C678 H670 0.950 . S
C678 C676 1.391 . S
C678 C679 1.400 . S
C679 C678 1.400 . S
C679 C680 1.398 . S
C679 C685 1.491 . S
C680 H671 0.950 . S
C680 C679 1.398 . S
C680 C681 1.391 . S
C681 H669 0.950 . S
C681 C677 1.393 . S
C681 C680 1.391 . S
C682 H672 0.950 . S
C682 C683 1.386 . S
C682 C684 1.391 . S
C683 C682 1.386 . S
C683 C687 1.393 . S
C684 H673 0.950 . S
C684 C682 1.391 . S
C684 C685 1.400 . S
C685 C679 1.491 . S
C685 C684 1.400 . S
C685 C686 1.398 . S
C686 H674 0.950 . S
C686 C685 1.398 . S
C686 C687 1.391 . S
C687 H675 0.950 . S
C687 C683 1.393 . S
C687 C686 1.391 . S
H688 C696 0.950 . S
H689 C701 0.950 . S
H690 C698 0.950 . S
H691 C700 0.950 . S
H692 C702 0.950 . S
H693 C704 0.950 . S
H694 C706 0.950 . S
H695 C707 0.950 . S
C696 H688 0.950 . S
C696 C697 1.386 . S
C696 C698 1.391 . S
C697 C696 1.386 . S
C697 C701 1.393 . S
C698 H690 0.950 . S
C698 C696 1.391 . S
C698 C699 1.400 . S
C699 C698 1.400 . S
C699 C700 1.398 . S
C699 C705 1.491 . S
C700 H691 0.950 . S
C700 C699 1.398 . S
C700 C701 1.391 . S
C701 H689 0.950 . S
C701 C697 1.393 . S
C701 C700 1.391 . S
C702 H692 0.950 . S
C702 C703 1.386 . S
C702 C704 1.391 . S
C703 C702 1.386 . S
C703 C707 1.393 . S
C704 H693 0.950 . S
C704 C702 1.391 . S
C704 C705 1.400 . S
C705 C699 1.491 . S
C705 C704 1.400 . S
C705 C706 1.398 . S
C706 H694 0.950 . S
C706 C705 1.398 . S
C706 C707 1.391 . S
C707 H695 0.950 . S
C707 C703 1.393 . S
C707 C706 1.391 . S
H708 C716 0.950 . S
H709 C721 0.950 . S
H710 C718 0.950 . S
H711 C720 0.950 . S
H712 C722 0.950 . S
H713 C724 0.950 . S
H714 C726 0.950 . S
H715 C727 0.950 . S
C716 H708 0.950 . S
C716 C717 1.386 . S
C716 C718 1.391 . S
C717 C716 1.386 . S
C717 C721 1.393 . S
C718 H710 0.950 . S
C718 C716 1.391 . S
C718 C719 1.400 . S
C719 C718 1.400 . S
C719 C720 1.398 . S
C719 C725 1.491 . S
C720 H711 0.950 . S
C720 C719 1.398 . S
C720 C721 1.391 . S
C721 H709 0.950 . S
C721 C717 1.393 . S
C721 C720 1.391 . S
C722 H712 0.950 . S
C722 C723 1.386 . S
C722 C724 1.391 . S
C723 C722 1.386 . S
C723 C727 1.393 . S
C724 H713 0.950 . S
C724 C722 1.391 . S
C724 C725 1.400 . S
C725 C719 1.491 . S
C725 C724 1.400 . S
C725 C726 1.398 . S
C726 H714 0.950 . S
C726 C725 1.398 . S
C726 C727 1.391 . S
C727 H715 0.950 . S
C727 C723 1.393 . S
C727 C726 1.391 . S
C257 C5 0.933 . S
C263 C105 1.177 . S
C277 C18 1.076 . S
C283 C145 1.124 . S
C303 C170 2.250 . S
C297 C30 2.281 . S
C317 C41 2.158 . S
C323 C210 2.112 . S
C343 C141 1.788 . S
C337 C7 1.645 . S
C363 C101 1.834 . S
C357 C16 1.767 . S
C383 C232 1.734 . S
C377 C29 1.697 . S
C403 C192 1.268 . S
C397 C38 1.118 . S
C417 C8 1.251 . S
C423 C234 1.304 . S
C443 C151 2.356 . S
C437 C27 2.107 . S
C457 C40 2.276 . S
C463 C111 2.250 . S
C477 C19 1.224 . S
C483 C194 1.216 . S
C503 C114 1.182 . S
C497 C51 1.059 . S
C517 C62 1.438 . S
C523 C154 1.412 . S
C537 C74 2.379 . S
C543 C191 2.356 . S
C557 C84 2.111 . S
C563 C231 2.184 . S
C577 C49 1.602 . S
C583 C152 2.085 1_556 S
C603 C112 1.825 . S
C597 C63 1.804 . S
C623 C221 1.557 . S
C617 C71 1.379 . S
C643 C181 1.482 . S
C637 C85 1.483 . S
C657 C52 1.309 . S
C663 C225 1.367 . S
C683 C130 2.451 . S
C677 C73 2.457 . S
C703 C90 1.815 . S
C697 C82 1.618 . S
C717 C60 1.253 . S
C723 C185 1.323 . S
