# Generated by pormake.
# Topology cor, (4,6)-cn, num edge types: 1
# Building blocks:
#     Node 0, Type 0, BuildingBlock: TATPOV_clean_sbu_0, # of connection points: 4
#     Node 1, Type 0, BuildingBlock: TATPOV_clean_sbu_0, # of connection points: 4
#     Node 2, Type 0, BuildingBlock: TATPOV_clean_sbu_0, # of connection points: 4
#     Node 3, Type 0, BuildingBlock: TATPOV_clean_sbu_0, # of connection points: 4
#     Node 4, Type 0, BuildingBlock: TATPOV_clean_sbu_0, # of connection points: 4
#     Node 5, Type 0, BuildingBlock: TATPOV_clean_sbu_0, # of connection points: 4
#     Node 6, Type 0, BuildingBlock: TATPOV_clean_sbu_0, # of connection points: 4
#     Node 7, Type 0, BuildingBlock: TATPOV_clean_sbu_0, # of connection points: 4
#     Node 8, Type 0, BuildingBlock: TATPOV_clean_sbu_0, # of connection points: 4
#     Node 9, Type 0, BuildingBlock: TATPOV_clean_sbu_0, # of connection points: 4
#     Node 10, Type 0, BuildingBlock: TATPOV_clean_sbu_0, # of connection points: 4
#     Node 11, Type 0, BuildingBlock: TATPOV_clean_sbu_0, # of connection points: 4
#     Node 12, Type 0, BuildingBlock: TATPOV_clean_sbu_0, # of connection points: 4
#     Node 13, Type 0, BuildingBlock: TATPOV_clean_sbu_0, # of connection points: 4
#     Node 14, Type 0, BuildingBlock: TATPOV_clean_sbu_0, # of connection points: 4
#     Node 15, Type 0, BuildingBlock: TATPOV_clean_sbu_0, # of connection points: 4
#     Node 16, Type 0, BuildingBlock: TATPOV_clean_sbu_0, # of connection points: 4
#     Node 17, Type 0, BuildingBlock: TATPOV_clean_sbu_0, # of connection points: 4
#     Node 18, Type 1, BuildingBlock: MIDCAF_clean_sbu_0, # of connection points: 6
#     Node 19, Type 1, BuildingBlock: MIDCAF_clean_sbu_0, # of connection points: 6
#     Node 20, Type 1, BuildingBlock: MIDCAF_clean_sbu_0, # of connection points: 6
#     Node 21, Type 1, BuildingBlock: MIDCAF_clean_sbu_0, # of connection points: 6
#     Node 22, Type 1, BuildingBlock: MIDCAF_clean_sbu_0, # of connection points: 6
#     Node 23, Type 1, BuildingBlock: MIDCAF_clean_sbu_0, # of connection points: 6
#     Node 24, Type 1, BuildingBlock: MIDCAF_clean_sbu_0, # of connection points: 6
#     Node 25, Type 1, BuildingBlock: MIDCAF_clean_sbu_0, # of connection points: 6
#     Node 26, Type 1, BuildingBlock: MIDCAF_clean_sbu_0, # of connection points: 6
#     Node 27, Type 1, BuildingBlock: MIDCAF_clean_sbu_0, # of connection points: 6
#     Node 28, Type 1, BuildingBlock: MIDCAF_clean_sbu_0, # of connection points: 6
#     Node 29, Type 1, BuildingBlock: MIDCAF_clean_sbu_0, # of connection points: 6
#     Edge 30, Type (0, 1), BuildingBlock: CIFDUS_clean_linker_0, # of connection points: 2
#     Edge 31, Type (0, 1), BuildingBlock: CIFDUS_clean_linker_0, # of connection points: 2
#     Edge 32, Type (0, 1), BuildingBlock: CIFDUS_clean_linker_0, # of connection points: 2
#     Edge 33, Type (0, 1), BuildingBlock: CIFDUS_clean_linker_0, # of connection points: 2
#     Edge 34, Type (0, 1), BuildingBlock: CIFDUS_clean_linker_0, # of connection points: 2
#     Edge 35, Type (0, 1), BuildingBlock: CIFDUS_clean_linker_0, # of connection points: 2
#     Edge 36, Type (0, 1), BuildingBlock: CIFDUS_clean_linker_0, # of connection points: 2
#     Edge 37, Type (0, 1), BuildingBlock: CIFDUS_clean_linker_0, # of connection points: 2
#     Edge 38, Type (0, 1), BuildingBlock: CIFDUS_clean_linker_0, # of connection points: 2
#     Edge 39, Type (0, 1), BuildingBlock: CIFDUS_clean_linker_0, # of connection points: 2
#     Edge 40, Type (0, 1), BuildingBlock: CIFDUS_clean_linker_0, # of connection points: 2
#     Edge 41, Type (0, 1), BuildingBlock: CIFDUS_clean_linker_0, # of connection points: 2
#     Edge 42, Type (0, 1), BuildingBlock: CIFDUS_clean_linker_0, # of connection points: 2
#     Edge 43, Type (0, 1), BuildingBlock: CIFDUS_clean_linker_0, # of connection points: 2
#     Edge 44, Type (0, 1), BuildingBlock: CIFDUS_clean_linker_0, # of connection points: 2
#     Edge 45, Type (0, 1), BuildingBlock: CIFDUS_clean_linker_0, # of connection points: 2
#     Edge 46, Type (0, 1), BuildingBlock: CIFDUS_clean_linker_0, # of connection points: 2
#     Edge 47, Type (0, 1), BuildingBlock: CIFDUS_clean_linker_0, # of connection points: 2
#     Edge 48, Type (0, 1), BuildingBlock: CIFDUS_clean_linker_0, # of connection points: 2
#     Edge 49, Type (0, 1), BuildingBlock: CIFDUS_clean_linker_0, # of connection points: 2
#     Edge 50, Type (0, 1), BuildingBlock: CIFDUS_clean_linker_0, # of connection points: 2
#     Edge 51, Type (0, 1), BuildingBlock: CIFDUS_clean_linker_0, # of connection points: 2
#     Edge 52, Type (0, 1), BuildingBlock: CIFDUS_clean_linker_0, # of connection points: 2
#     Edge 53, Type (0, 1), BuildingBlock: CIFDUS_clean_linker_0, # of connection points: 2
#     Edge 54, Type (0, 1), BuildingBlock: CIFDUS_clean_linker_0, # of connection points: 2
#     Edge 55, Type (0, 1), BuildingBlock: CIFDUS_clean_linker_0, # of connection points: 2
#     Edge 56, Type (0, 1), BuildingBlock: CIFDUS_clean_linker_0, # of connection points: 2
#     Edge 57, Type (0, 1), BuildingBlock: CIFDUS_clean_linker_0, # of connection points: 2
#     Edge 58, Type (0, 1), BuildingBlock: CIFDUS_clean_linker_0, # of connection points: 2
#     Edge 59, Type (0, 1), BuildingBlock: CIFDUS_clean_linker_0, # of connection points: 2
#     Edge 60, Type (0, 1), BuildingBlock: CIFDUS_clean_linker_0, # of connection points: 2
#     Edge 61, Type (0, 1), BuildingBlock: CIFDUS_clean_linker_0, # of connection points: 2
#     Edge 62, Type (0, 1), BuildingBlock: CIFDUS_clean_linker_0, # of connection points: 2
#     Edge 63, Type (0, 1), BuildingBlock: CIFDUS_clean_linker_0, # of connection points: 2
#     Edge 64, Type (0, 1), BuildingBlock: CIFDUS_clean_linker_0, # of connection points: 2
#     Edge 65, Type (0, 1), BuildingBlock: CIFDUS_clean_linker_0, # of connection points: 2
#     Edge 66, Type (0, 1), BuildingBlock: CIFDUS_clean_linker_0, # of connection points: 2
#     Edge 67, Type (0, 1), BuildingBlock: CIFDUS_clean_linker_0, # of connection points: 2
#     Edge 68, Type (0, 1), BuildingBlock: CIFDUS_clean_linker_0, # of connection points: 2
#     Edge 69, Type (0, 1), BuildingBlock: CIFDUS_clean_linker_0, # of connection points: 2
#     Edge 70, Type (0, 1), BuildingBlock: CIFDUS_clean_linker_0, # of connection points: 2
#     Edge 71, Type (0, 1), BuildingBlock: CIFDUS_clean_linker_0, # of connection points: 2
#     Edge 72, Type (0, 1), BuildingBlock: CIFDUS_clean_linker_0, # of connection points: 2
#     Edge 73, Type (0, 1), BuildingBlock: CIFDUS_clean_linker_0, # of connection points: 2
#     Edge 74, Type (0, 1), BuildingBlock: CIFDUS_clean_linker_0, # of connection points: 2
#     Edge 75, Type (0, 1), BuildingBlock: CIFDUS_clean_linker_0, # of connection points: 2
#     Edge 76, Type (0, 1), BuildingBlock: CIFDUS_clean_linker_0, # of connection points: 2
#     Edge 77, Type (0, 1), BuildingBlock: CIFDUS_clean_linker_0, # of connection points: 2
#     Edge 78, Type (0, 1), BuildingBlock: CIFDUS_clean_linker_0, # of connection points: 2
#     Edge 79, Type (0, 1), BuildingBlock: CIFDUS_clean_linker_0, # of connection points: 2
#     Edge 80, Type (0, 1), BuildingBlock: CIFDUS_clean_linker_0, # of connection points: 2
#     Edge 81, Type (0, 1), BuildingBlock: CIFDUS_clean_linker_0, # of connection points: 2
#     Edge 82, Type (0, 1), BuildingBlock: CIFDUS_clean_linker_0, # of connection points: 2
#     Edge 83, Type (0, 1), BuildingBlock: CIFDUS_clean_linker_0, # of connection points: 2
#     Edge 84, Type (0, 1), BuildingBlock: CIFDUS_clean_linker_0, # of connection points: 2
#     Edge 85, Type (0, 1), BuildingBlock: CIFDUS_clean_linker_0, # of connection points: 2
#     Edge 86, Type (0, 1), BuildingBlock: CIFDUS_clean_linker_0, # of connection points: 2
#     Edge 87, Type (0, 1), BuildingBlock: CIFDUS_clean_linker_0, # of connection points: 2
#     Edge 88, Type (0, 1), BuildingBlock: CIFDUS_clean_linker_0, # of connection points: 2
#     Edge 89, Type (0, 1), BuildingBlock: CIFDUS_clean_linker_0, # of connection points: 2
#     Edge 90, Type (0, 1), BuildingBlock: CIFDUS_clean_linker_0, # of connection points: 2
#     Edge 91, Type (0, 1), BuildingBlock: CIFDUS_clean_linker_0, # of connection points: 2
#     Edge 92, Type (0, 1), BuildingBlock: CIFDUS_clean_linker_0, # of connection points: 2
#     Edge 93, Type (0, 1), BuildingBlock: CIFDUS_clean_linker_0, # of connection points: 2
#     Edge 94, Type (0, 1), BuildingBlock: CIFDUS_clean_linker_0, # of connection points: 2
#     Edge 95, Type (0, 1), BuildingBlock: CIFDUS_clean_linker_0, # of connection points: 2
#     Edge 96, Type (0, 1), BuildingBlock: CIFDUS_clean_linker_0, # of connection points: 2
#     Edge 97, Type (0, 1), BuildingBlock: CIFDUS_clean_linker_0, # of connection points: 2
#     Edge 98, Type (0, 1), BuildingBlock: CIFDUS_clean_linker_0, # of connection points: 2
#     Edge 99, Type (0, 1), BuildingBlock: CIFDUS_clean_linker_0, # of connection points: 2
#     Edge 100, Type (0, 1), BuildingBlock: CIFDUS_clean_linker_0, # of connection points: 2
#     Edge 101, Type (0, 1), BuildingBlock: CIFDUS_clean_linker_0, # of connection points: 2
# Relax obj value: 0.150
# Max RMSD: 0.191
# Mean RMSD: 0.171
data_MOF--net-cor--node1-TATPOV_clean_sbu_0--node2-MIDCAF_clean_sbu_0--edge1-CIFDUS_clean_linker_0
_symmetry_space_group_name_H-M    P1
_symmetry_Int_Tables_number       1
_symmetry_cell_setting            triclinic
loop_
_symmetry_equiv_pos_as_xyz
'x, y, z'
_cell_length_a     33.874211
_cell_length_b     33.936723
_cell_length_c     85.383137
_cell_angle_alpha  89.559927
_cell_angle_beta   91.304658
_cell_angle_gamma 120.0425
loop_
_atom_site_label
_atom_site_type_symbol
_atom_site_fract_x
_atom_site_fract_y
_atom_site_fract_z
_atom_type_partial_charge
Zn0 Zn 0.75628 0.90355 0.25986 0.0
Zn1 Zn 0.75084 0.98122 0.2576 0.0
O2 O 0.68611 0.93263 0.26315 0.0
O3 O 0.68954 0.86962 0.26559 0.0
O4 O 0.74611 0.03705 0.25349 0.0
O5 O 0.77481 0.91134 0.2367 0.0
O6 O 0.77104 0.97404 0.23609 0.0
C7 C 0.66717 0.89031 0.26623 0.0
C8 C 0.81257 0.97401 0.28284 0.0
O9 O 0.79672 -0.0033 0.2759 0.0
O10 O 0.80162 0.93444 0.27807 0.0
C11 C 0.77119 0.07663 0.25922 0.0
O12 O 0.80238 0.08344 0.26996 0.0
C13 C 0.77841 0.94538 0.2292 0.0
Zn14 Zn 0.92897 0.7709 0.26924 0.0
Zn15 Zn 0.00223 0.76235 0.26801 0.0
O16 O 0.9494 0.6998 0.25985 0.0
O17 O 0.88861 0.70655 0.26279 0.0
O18 O 0.05651 0.75299 0.27084 0.0
O19 O 0.93876 0.78791 0.29209 0.0
O20 O 0.0005 0.78245 0.29073 0.0
C21 C 0.9063 0.68333 0.25854 0.0
C22 C 0.99319 0.82754 0.24559 0.0
O23 O 0.0178 0.81154 0.25094 0.0
O24 O 0.9551 0.81617 0.2516 0.0
C25 C 0.09692 0.78669 0.27175 0.0
O26 O 0.10404 0.82792 0.26915 0.0
C27 C 0.97385 0.79046 0.29863 0.0
Zn28 Zn 0.29485 0.20148 0.25837 0.0
Zn29 Zn 0.30416 0.28421 0.26057 0.0
O30 O 0.37053 0.30052 0.25616 0.0
O31 O 0.3604 0.23162 0.25262 0.0
O32 O 0.30402 0.34341 0.26287 0.0
O33 O 0.27746 0.18956 0.28112 0.0
O34 O 0.28093 0.25595 0.28238 0.0
C35 C 0.38603 0.27441 0.25255 0.0
C36 C 0.24532 0.21595 0.23425 0.0
O37 O 0.26306 0.25468 0.241 0.0
O38 O 0.25068 0.18454 0.24013 0.0
C39 C 0.30287 0.36732 0.25152 0.0
O40 O 0.3048 0.35525 0.2371 0.0
C41 C 0.27355 0.21906 0.28887 0.0
Zn42 Zn 0.2775 0.12288 0.77891 0.0
Zn43 Zn 0.27987 0.05055 0.76692 0.0
O44 O 0.34595 0.10252 0.76452 0.0
O45 O 0.34543 0.15996 0.77631 0.0
O46 O 0.28192 0.99295 0.76236 0.0
O47 O 0.25352 0.09387 0.79996 0.0
O48 O 0.25648 0.03643 0.78965 0.0
C49 C 0.36655 0.14381 0.76916 0.0
C50 C 0.22605 0.08629 0.74898 0.0
O51 O 0.23894 0.05685 0.74996 0.0
O52 O 0.23662 0.11547 0.75985 0.0
C53 C 0.25154 0.95562 0.76824 0.0
O54 O 0.21635 0.95414 0.77496 0.0
C55 C 0.24815 0.05434 0.80124 0.0
Zn56 Zn 0.09883 0.25407 0.76359 0.0
Zn57 Zn 0.01544 0.24841 0.76413 0.0
O58 O 0.06243 0.31525 0.76908 0.0
O59 O 0.13023 0.32114 0.76927 0.0
O60 O 0.95671 0.25021 0.76308 0.0
O61 O 0.08477 0.23161 0.74065 0.0
O62 O 0.01657 0.22365 0.74248 0.0
C63 C 0.10554 0.33895 0.77112 0.0
C64 C 0.0376 0.19463 0.78792 0.0
O65 O 0.00918 0.20529 0.78213 0.0
O66 O 0.07672 0.21017 0.78207 0.0
C67 C 0.94599 0.2626 0.75032 0.0
O68 O 0.97278 0.27272 0.73827 0.0
C69 C 0.04584 0.2198 0.73458 0.0
Zn70 Zn 0.75694 0.84982 0.76893 0.0
Zn71 Zn 0.72474 0.758 0.76882 0.0
O72 O 0.66517 0.76068 0.76762 0.0
O73 O 0.69148 0.83482 0.76821 0.0
O74 O 0.70848 0.69204 0.76744 0.0
O75 O 0.79178 0.85729 0.74888 0.0
O76 O 0.76827 0.78415 0.7505 0.0
C77 C 0.65823 0.79436 0.76798 0.0
C78 C 0.77655 0.81562 0.79761 0.0
O79 O 0.75519 0.77747 0.7905 0.0
O80 O 0.78346 0.8518 0.79079 0.0
C81 C 0.70698 0.6745 0.75415 0.0
O82 O 0.70936 0.69735 0.74138 0.0
C83 C 0.79099 0.8221 0.74366 0.0
Zn84 Zn 0.4223 0.23637 0.59277 0.0
Zn85 Zn 0.4027 0.30501 0.59338 0.0
O86 O 0.34001 0.24859 0.59723 0.0
O87 O 0.35487 0.19261 0.59432 0.0
O88 O 0.39361 0.35916 0.59106 0.0
O89 O 0.45036 0.25604 0.57128 0.0
O90 O 0.43231 0.30976 0.57225 0.0
C91 C 0.32703 0.20623 0.59701 0.0
C92 C 0.46077 0.29715 0.6197 0.0
O93 O 0.44315 0.31834 0.61288 0.0
O94 O 0.45754 0.2618 0.61347 0.0
C95 C 0.40271 0.38875 0.60166 0.0
O96 O 0.41434 0.38227 0.61581 0.0
C97 C 0.44924 0.28936 0.56496 0.0
Zn98 Zn 0.59665 0.08142 0.60332 0.0
Zn99 Zn 0.67798 0.10111 0.59403 0.0
O100 O 0.6353 0.03258 0.58983 0.0
O101 O 0.5665 0.0161 0.59677 0.0
O102 O 0.74016 0.10483 0.59522 0.0
O103 O 0.61544 0.10304 0.62575 0.0
O104 O 0.68281 0.13137 0.61539 0.0
C105 C 0.59284 0.00424 0.59085 0.0
C106 C 0.63339 0.14275 0.57558 0.0
O107 O 0.66792 0.1369 0.57608 0.0
O108 O 0.60333 0.1254 0.58603 0.0
C109 C 0.74074 0.08407 0.60771 0.0
O110 O 0.70333 0.06331 0.61588 0.0
C111 C 0.65825 0.12845 0.62687 0.0
Zn112 Zn 0.96988 0.52702 0.60693 0.0
Zn113 Zn 0.96554 0.59978 0.60219 0.0
O114 O 0.03466 0.62395 0.59857 0.0
O115 O 0.03416 0.55886 0.6005 0.0
O116 O 0.95706 0.65558 0.60145 0.0
O117 O 0.95506 0.51969 0.62958 0.0
O118 O 0.94225 0.57593 0.62474 0.0
C119 C 0.05502 0.60097 0.59755 0.0
C120 C 0.91413 0.51622 0.58025 0.0
O121 O 0.92771 0.55814 0.58308 0.0
O122 O 0.92389 0.49366 0.58988 0.0
C123 C 0.96226 0.67779 0.61408 0.0
O124 O 0.97594 0.66614 0.6269 0.0
C125 C 0.94219 0.54663 0.6342 0.0
Zn126 Zn 0.93662 0.44134 0.09429 0.0
Zn127 Zn 0.9392 0.36339 0.08906 0.0
O128 O 0.00665 0.41328 0.08892 0.0
O129 O 0.00506 0.47696 0.09218 0.0
O130 O 0.9401 0.30447 0.09042 0.0
O131 O 0.906 0.41863 0.1155 0.0
O132 O 0.90391 0.35526 0.10884 0.0
C133 C 0.0271 0.45658 0.08978 0.0
C134 C 0.89317 0.39246 0.06464 0.0
O135 O 0.90567 0.36407 0.06881 0.0
O136 O 0.90051 0.42518 0.07364 0.0
C137 C 0.95739 0.28828 0.08125 0.0
O138 O 0.97641 0.31024 0.06833 0.0
C139 C 0.89378 0.37742 0.11827 0.0
Zn140 Zn 0.78246 0.60193 0.08555 0.0
Zn141 Zn 0.70875 0.60549 0.09329 0.0
O142 O 0.76245 0.67062 0.09784 0.0
O143 O 0.8226 0.66855 0.08967 0.0
O144 O 0.65254 0.61196 0.09375 0.0
O145 O 0.75948 0.57813 0.06363 0.0
O146 O 0.69744 0.57701 0.07117 0.0
C147 C 0.80541 0.6901 0.09588 0.0
C148 C 0.7361 0.55038 0.11387 0.0
O149 O 0.70739 0.56366 0.1111 0.0
O150 O 0.76857 0.56077 0.10457 0.0
C151 C 0.61353 0.58223 0.09854 0.0
O152 O 0.60858 0.54559 0.10563 0.0
C153 C 0.71899 0.56908 0.06079 0.0
Zn154 Zn 0.41894 0.15851 0.09184 0.0
Zn155 Zn 0.41243 0.07671 0.09463 0.0
O156 O 0.34591 0.06231 0.0985 0.0
O157 O 0.35346 0.13075 0.0972 0.0
O158 O 0.41007 0.01575 0.09349 0.0
O159 O 0.43765 0.1641 0.06919 0.0
O160 O 0.43789 0.09998 0.07266 0.0
C161 C 0.32908 0.0885 0.09965 0.0
C162 C 0.47155 0.15326 0.11805 0.0
O163 O 0.45528 0.11222 0.1134 0.0
O164 O 0.46308 0.18035 0.11035 0.0
C165 C 0.43303 0.00336 0.10209 0.0
O166 O 0.45777 0.02931 0.11387 0.0
C167 C 0.4445 0.13328 0.06398 0.0
Zn168 Zn 0.08628 0.57163 0.92113 0.0
Zn169 Zn 0.0806 0.64016 0.93466 0.0
O170 O 0.01447 0.5861 0.9342 0.0
O171 O 0.01824 0.53216 0.92121 0.0
O172 O 0.07367 0.69432 0.94028 0.0
O173 O 0.11638 0.60728 0.90163 0.0
O174 O 0.1142 0.66308 0.91366 0.0
C175 C -0.00477 0.54612 0.92835 0.0
C176 C 0.1299 0.60102 0.9528 0.0
O177 O 0.1171 0.63054 0.95227 0.0
O178 O 0.12196 0.57464 0.9412 0.0
C179 C 0.1046 0.73394 0.93625 0.0
O180 O 0.14304 0.73944 0.93086 0.0
C181 C 0.1252 0.64813 0.90189 0.0
Zn182 Zn 0.24709 0.4203 0.93284 0.0
Zn183 Zn 0.32921 0.42413 0.93148 0.0
O184 O 0.28287 0.35628 0.92889 0.0
O185 O 0.21585 0.35232 0.92895 0.0
O186 O 0.38901 0.42511 0.93324 0.0
O187 O 0.26446 0.44833 0.95498 0.0
O188 O 0.33163 0.45445 0.95232 0.0
C189 C 0.23956 0.33327 0.92752 0.0
C190 C 0.30127 0.46892 0.90577 0.0
O191 O 0.33027 0.4591 0.91163 0.0
O192 O 0.26486 0.45828 0.91293 0.0
C193 C 0.4187 0.43584 0.92279 0.0
O194 O 0.41133 0.44752 0.90879 0.0
C195 C 0.30427 0.46097 0.96036 0.0
Zn196 Zn 0.59912 0.84833 0.93235 0.0
Zn197 Zn 0.60421 0.92564 0.92447 0.0
O198 O 0.67242 0.94236 0.92509 0.0
O199 O 0.666 0.87541 0.92977 0.0
O200 O 0.60515 0.98564 0.92223 0.0
O201 O 0.57359 0.84537 0.95376 0.0
O202 O 0.56797 0.90338 0.94502 0.0
C203 C 0.69043 0.91724 0.92667 0.0
C204 C 0.55662 0.84555 0.90201 0.0
O205 O 0.5716 0.88779 0.90449 0.0
O206 O 0.56081 0.82142 0.91263 0.0
C207 C 0.61222 0.00827 0.93485 0.0
O208 O 0.62288 0.99407 0.94776 0.0
C209 C 0.5609 0.87423 0.95564 0.0
Zn210 Zn 0.61271 0.8041 0.43106 0.0
Zn211 Zn 0.6315 0.73487 0.43008 0.0
O212 O 0.69291 0.79076 0.42399 0.0
O213 O 0.67882 0.84726 0.42662 0.0
O214 O 0.64265 0.68149 0.43073 0.0
O215 O 0.59417 0.78916 0.45377 0.0
O216 O 0.61178 0.73508 0.45271 0.0
C217 C 0.706 0.83315 0.42348 0.0
C218 C 0.56158 0.7369 0.40694 0.0
O219 O 0.58222 0.71741 0.41288 0.0
O220 O 0.5685 0.77443 0.4125 0.0
C221 C 0.61564 0.64582 0.43828 0.0
O222 O 0.58019 0.64384 0.44499 0.0
C223 C 0.59815 0.75779 0.46042 0.0
Zn224 Zn 0.44578 0.94101 0.42423 0.0
Zn225 Zn 0.37089 0.94153 0.43239 0.0
O226 O 0.42438 0.00845 0.43377 0.0
O227 O 0.48407 0.00926 0.42372 0.0
O228 O 0.31532 0.949 0.4314 0.0
O229 O 0.41773 0.90406 0.4043 0.0
O230 O 0.35537 0.90009 0.413 0.0
C231 C 0.46607 0.03014 0.42984 0.0
C232 C 0.4048 0.89906 0.45521 0.0
O233 O 0.37285 0.90757 0.45194 0.0
O234 O 0.43694 0.90981 0.44568 0.0
C235 C 0.27915 0.93052 0.43931 0.0
O236 O 0.27553 0.90407 0.45116 0.0
C237 C 0.37525 0.88879 0.403 0.0
Zn238 Zn 0.0976 0.51277 0.43123 0.0
Zn239 Zn 0.07883 0.42387 0.43013 0.0
O240 O 0.01445 0.41518 0.43188 0.0
O241 O 0.02989 0.48653 0.4337 0.0
O242 O 0.07332 0.36222 0.42647 0.0
O243 O 0.12764 0.52636 0.40974 0.0
O244 O 0.11481 0.45624 0.41083 0.0
C245 C 0.00149 0.4442 0.43393 0.0
C246 C 0.13117 0.48451 0.45822 0.0
O247 O 0.11266 0.44625 0.45116 0.0
O248 O 0.13174 0.51867 0.45183 0.0
C249 C 0.10861 0.3591 0.42956 0.0
O250 O 0.1446 0.39378 0.43608 0.0
C251 C 0.13125 0.49422 0.40383 0.0
Zn252 Zn -0.00216 0.01629 0.11844 0.0
Zn253 Zn 0.01678 0.06671 0.16917 0.0
Zn254 Zn 0.00419 0.0329 0.14531 0.0
C255 C 0.00767 0.98125 0.17336 0.0
C256 C 0.09202 0.12045 0.15923 0.0
O257 O 0.96959 0.06798 0.1346 0.0
O258 O 0.99143 0.0679 0.11055 0.0
C259 C 0.94192 0.93536 0.13274 0.0
O260 O 0.98435 0.97494 0.16058 0.0
O261 O 0.03367 0.02152 0.17828 0.0
O262 O 0.06284 0.13025 0.16375 0.0
O263 O 0.07748 0.08201 0.15213 0.0
O264 O 0.94325 0.95557 0.12013 0.0
O265 O 0.96788 0.95794 0.14442 0.0
O266 O 0.07433 0.06138 0.13695 0.0
O267 O 0.05711 0.0184 0.1159 0.0
C268 C 0.08674 0.04571 0.12557 0.0
O269 O 0.94937 0.05027 0.14908 0.0
O270 O 0.95737 0.05552 0.17478 0.0
C271 C 0.97462 0.08262 0.12038 0.0
C272 C 0.9336 0.05083 0.16266 0.0
Zn273 Zn 0.06148 0.03883 0.35411 0.0
Zn274 Zn 0.05074 0.03921 0.40865 0.0
Zn275 Zn 0.05493 0.03839 0.37928 0.0
C276 C 0.0891 0.12995 0.39896 0.0
C277 C 0.9608 0.98862 0.39634 0.0
O278 O 0.07689 0.98835 0.3735 0.0
O279 O 0.03679 0.97325 0.35153 0.0
C280 C 0.13429 0.11289 0.36083 0.0
O281 O 0.08711 0.11157 0.38559 0.0
O282 O 0.07552 0.10553 0.41108 0.0
O283 O 0.9834 -0.00063 0.40911 0.0
O284 O 0.98131 0.00195 0.38324 0.0
O285 O 0.12836 0.07775 0.35384 0.0
O286 O 0.10389 0.10878 0.37056 0.0
O287 O 0.98768 0.01294 0.36678 0.0
O288 O 0.02043 0.06307 0.3481 0.0
C289 C 0.98426 0.03371 0.35454 0.0
O290 O 0.0913 0.00332 0.38896 0.0
O291 O 0.08997 0.01321 0.41444 0.0
C292 C 0.05667 0.96183 0.3617 0.0
C293 C 0.10292 -0.00092 0.40312 0.0
Zn294 Zn 0.0282 0.99398 0.91469 0.0
Zn295 Zn 0.00727 0.94564 0.86247 0.0
Zn296 Zn 0.02191 0.98188 0.8865 0.0
C297 C 0.02202 0.03564 0.85875 0.0
C298 C 0.92924 0.89692 0.87174 0.0
O299 O 0.05888 0.94873 0.8963 0.0
O300 O 0.03687 0.9417 0.92075 0.0
C301 C 0.08356 0.0774 0.90022 0.0
O302 O 0.04249 0.04112 0.87208 0.0
O303 O -0.0023 -0.00417 0.85318 0.0
O304 O 0.95493 0.8841 0.86604 0.0
O305 O 0.94774 0.93475 0.87953 0.0
O306 O 0.0825 0.05582 0.91249 0.0
O307 O 0.05707 0.05604 0.8885 0.0
O308 O 0.9526 0.95202 0.8954 0.0
O309 O 0.96767 0.98937 0.91775 0.0
C310 C 0.93902 0.96409 0.90744 0.0
O311 O 0.07611 0.96421 0.88126 0.0
O312 O 0.06274 0.94834 0.85607 0.0
C313 C 0.05542 0.93154 0.91006 0.0
C314 C 0.08888 0.95755 0.86785 0.0
Zn315 Zn 0.98253 0.00367 0.6752 0.0
Zn316 Zn 0.99114 0.99098 0.61971 0.0
Zn317 Zn 0.99143 -0.00042 0.64921 0.0
C318 C 0.95298 0.90314 0.63065 0.0
C319 C 0.08273 0.04134 0.63072 0.0
O320 O 0.96543 0.04634 0.65523 0.0
O321 O 0.92837 0.01195 0.67631 0.0
C322 C 0.94658 0.91755 0.6737 0.0
O323 O 0.95751 0.92512 0.64346 0.0
O324 O 0.96437 0.92449 0.61787 0.0
O325 O 0.05808 0.02779 0.61842 0.0
O326 O 0.06428 0.03238 0.64424 0.0
O327 O 0.97489 0.94593 0.68339 0.0
O328 O 0.94553 0.93082 0.65955 0.0
O329 O 0.06041 0.03113 0.66136 0.0
O330 O 0.04104 0.0568 0.68157 0.0
C331 C 0.0715 0.05397 0.67432 0.0
O332 O 0.9584 0.03616 0.63806 0.0
O333 O 0.9557 0.01999 0.61294 0.0
C334 C 0.94173 0.04507 0.66705 0.0
C335 C 0.94646 0.03883 0.62382 0.0
Zn336 Zn 0.66942 0.38571 0.50893 0.0
Zn337 Zn 0.67306 0.37219 0.45383 0.0
Zn338 Zn 0.67442 0.37452 0.48229 0.0
C339 C 0.76203 0.40119 0.4631 0.0
C340 C 0.61802 0.28358 0.46217 0.0
O341 O 0.6252 0.3981 0.48907 0.0
O342 O 0.65176 0.43245 0.5117 0.0
C343 C 0.75896 0.41976 0.5069 0.0
O344 O 0.74729 0.40854 0.47592 0.0
O345 O 0.73462 0.38129 0.45181 0.0
O346 O 0.62322 0.30929 0.45069 0.0
O347 O 0.63812 0.30106 0.4754 0.0
O348 O 0.72919 0.40344 0.51724 0.0
O349 O 0.74665 0.41599 0.49231 0.0
O350 O 0.64619 0.30596 0.49257 0.0
O351 O 0.62471 0.32217 0.51455 0.0
C352 C 0.62764 0.2935 0.50605 0.0
O353 O 0.64112 0.4124 0.47295 0.0
O354 O 0.66351 0.42359 0.44853 0.0
C355 C 0.62092 0.41806 0.50124 0.0
C356 C 0.64529 0.43229 0.45969 0.0
Zn357 Zn 0.70546 0.36794 0.74382 0.0
Zn358 Zn 0.69144 0.3746 0.68842 0.0
Zn359 Zn 0.69608 0.36601 0.71435 0.0
C360 C 0.61236 0.35648 0.69527 0.0
C361 C 0.7656 0.44977 0.69411 0.0
O362 O 0.73671 0.3329 0.7196 0.0
O363 O 0.75372 0.35066 0.74464 0.0
C364 C 0.61265 0.30946 0.73593 0.0
O365 O 0.62427 0.33574 0.70538 0.0
O366 O 0.64332 0.39179 0.68892 0.0
O367 O 0.75223 0.42157 0.68299 0.0
O368 O 0.74407 0.43845 0.70712 0.0
O369 O 0.6413 0.31973 0.7471 0.0
O370 O 0.62599 0.32645 0.72228 0.0
O371 O 0.72592 0.43812 0.72145 0.0
O372 O 0.71894 0.43156 0.74712 0.0
C373 C 0.72703 0.45556 0.73495 0.0
O374 O 0.71806 0.32095 0.70442 0.0
O375 O 0.67521 0.31118 0.68337 0.0
C376 C 0.75837 0.33333 0.73226 0.0
C377 C 0.69767 0.29848 0.6919 0.0
Zn378 Zn 0.721 0.35541 0.23941 0.0
Zn379 Zn 0.70387 0.29053 0.17125 0.0
Zn380 Zn 0.71658 0.33715 0.21068 0.0
C381 C 0.75141 0.39715 0.18022 0.0
C382 C 0.63697 0.30129 0.18543 0.0
O383 O 0.74604 0.30157 0.22457 0.0
O384 O 0.74019 0.31464 0.24947 0.0
C385 C 0.77569 0.43711 0.22354 0.0
O386 O 0.74934 0.39549 0.19528 0.0
O387 O 0.73471 0.36132 0.17174 0.0
O388 O 0.6679 0.32254 0.17559 0.0
O389 O 0.64781 0.29853 0.1998 0.0
O390 O 0.76687 0.41992 0.23706 0.0
O391 O 0.75799 0.41197 0.2113 0.0
O392 O 0.64518 0.31051 0.21631 0.0
O393 O 0.65637 0.34039 0.24 0.0
C394 C 0.62981 0.3195 0.22857 0.0
O395 O 0.75431 0.30202 0.20867 0.0
O396 O 0.70917 0.25897 0.19036 0.0
C397 C 0.75065 0.29503 0.23924 0.0
C398 C 0.74955 0.282 0.19562 0.0
Zn399 Zn 0.6485 0.32363 0.99889 0.0
Zn400 Zn 0.64955 0.32697 0.9439 0.0
Zn401 Zn 0.65055 0.32812 0.97322 0.0
C402 C 0.6115 0.23653 0.95327 0.0
C403 C 0.74109 0.3771 0.95417 0.0
O404 O 0.63649 0.38171 0.98141 0.0
O405 O 0.67773 0.3896 1.00271 0.0
C406 C 0.5701 0.2551 0.99222 0.0
O407 O 0.61263 0.2553 0.96649 0.0
O408 O 0.62679 0.26093 0.94122 0.0
O409 O 0.71606 0.36913 0.94205 0.0
O410 O 0.72294 0.36092 0.96747 0.0
O411 O 0.58211 0.28831 1.00134 0.0
O412 O 0.59673 0.25872 0.98106 0.0
O413 O 0.71851 0.34591 0.98337 0.0
O414 O 0.68586 0.2932 1.00126 0.0
C415 C 0.72149 0.32069 0.99417 0.0
O416 O 0.61852 0.36868 0.96608 0.0
O417 O 0.6081 0.35194 0.94083 0.0
C418 C 0.65916 0.40515 0.99355 0.0
C419 C 0.60195 0.37061 0.95255 0.0
Zn420 Zn 0.37079 0.72356 0.84844 0.0
Zn421 Zn 0.30519 0.67952 0.78236 0.0
Zn422 Zn 0.32877 0.69534 0.80965 0.0
C423 C 0.3965 0.71018 0.78269 0.0
C424 C 0.25778 0.5976 0.79666 0.0
O425 O 0.29258 0.72417 0.8213 0.0
O426 O 0.32077 0.73963 0.84586 0.0
C427 C 0.42018 0.73323 0.82426 0.0
O428 O 0.39125 0.72537 0.79575 0.0
O429 O 0.36189 0.68272 0.77466 0.0
O430 O 0.25159 0.61828 0.78537 0.0
O431 O 0.28977 0.62028 0.80689 0.0
O432 O 0.3933 0.69857 0.83171 0.0
O433 O 0.40312 0.74163 0.81211 0.0
O434 O 0.30667 0.63101 0.82303 0.0
O435 O 0.34077 0.65467 0.84669 0.0
C436 C 0.3158 0.62287 0.83707 0.0
O437 O 0.29064 0.7315 0.80463 0.0
O438 O 0.29647 0.73251 0.77898 0.0
C439 C 0.29214 0.73702 0.83545 0.0
C440 C 0.2871 0.74685 0.79114 0.0
Zn441 Zn 0.37384 0.67996 0.07858 0.0
Zn442 Zn 0.38043 0.68739 0.02182 0.0
Zn443 Zn 0.37407 0.68497 0.04847 0.0
C444 C 0.29102 0.63517 0.0243 0.0
C445 C 0.41626 0.77353 0.02665 0.0
O446 O 0.41102 0.64891 0.05619 0.0
O447 O 0.41639 0.6569 0.08191 0.0
C448 C 0.28325 0.63113 0.06767 0.0
O449 O 0.30371 0.65501 0.03779 0.0
O450 O 0.32068 0.63618 0.01543 0.0
O451 O 0.38841 0.74745 0.01636 0.0
O452 O 0.41808 0.75658 0.04005 0.0
O453 O 0.30773 0.63537 0.07962 0.0
O454 O 0.30176 0.65099 0.05478 0.0
O455 O 0.40818 0.75628 0.05668 0.0
O456 O 0.39548 0.7458 0.08203 0.0
C457 C 0.40968 0.77235 0.07043 0.0
O458 O 0.39892 0.64006 0.03912 0.0
O459 O 0.43221 0.677 0.01779 0.0
C460 C 0.4262 0.64375 0.06957 0.0
C461 C 0.42009 0.64269 0.02642 0.0
Zn462 Zn 0.38499 0.67787 0.57259 0.0
Zn463 Zn 0.35518 0.63152 0.52073 0.0
Zn464 Zn 0.37197 0.6615 0.54535 0.0
C465 C 0.36158 0.71625 0.51984 0.0
C466 C 0.28271 0.57556 0.53251 0.0
O467 O 0.40594 0.62406 0.55371 0.0
O468 O 0.38825 0.6228 0.57843 0.0
C469 C 0.44058 0.75739 0.55757 0.0
O470 O 0.38878 0.72145 0.5314 0.0
O471 O 0.33488 0.67663 0.51455 0.0
O472 O 0.31145 0.56725 0.52656 0.0
O473 O 0.29792 0.61342 0.54003 0.0
O474 O 0.44247 0.73618 0.56951 0.0
O475 O 0.40971 0.73604 0.54694 0.0
O476 O 0.30496 0.6336 0.55553 0.0
O477 O 0.32685 0.67844 0.57624 0.0
C478 C 0.29519 0.65037 0.56727 0.0
O479 O 0.42401 0.64215 0.53925 0.0
O480 O 0.41465 0.64506 0.51374 0.0
C481 C 0.40191 0.60765 0.56763 0.0
C482 C 0.43842 0.64464 0.52521 0.0
Zn483 Zn 0.3221 0.67374 0.28119 0.0
Zn484 Zn 0.32602 0.6208 0.35292 0.0
Zn485 Zn 0.32306 0.65746 0.30991 0.0
C486 C 0.39771 0.66083 0.33119 0.0
C487 C 0.27795 0.56917 0.3269 0.0
O488 O 0.286 0.69505 0.30937 0.0
O489 O 0.27774 0.69526 0.28361 0.0
C490 C 0.41297 0.72126 0.29173 0.0
O491 O 0.39143 0.68336 0.32028 0.0
O492 O 0.36459 0.62159 0.33421 0.0
O493 O 0.31787 0.586 0.33268 0.0
O494 O 0.27484 0.58538 0.31369 0.0
O495 O 0.3877 0.72066 0.28051 0.0
O496 O 0.39523 0.6963 0.30382 0.0
O497 O 0.2894 0.59084 0.29781 0.0
O498 O 0.30362 0.61118 0.27313 0.0
C499 C 0.28956 0.58032 0.28339 0.0
O500 O 0.30165 0.69201 0.326 0.0
O501 O 0.3113 0.67325 0.35073 0.0
C502 C 0.26946 0.70418 0.29708 0.0
C503 C 0.30221 0.69674 0.34104 0.0
H504 H 0.23038 0.15183 0.21246 0.0
H505 H 0.21003 0.26556 0.22104 0.0
H506 H 0.17026 0.25273 0.19572 0.0
H507 H 0.13303 0.20337 0.17301 0.0
H508 H 0.14967 0.08712 0.16513 0.0
H509 H 0.20169 0.10856 0.18781 0.0
C510 C 0.2172 0.1738 0.2088 0.0
C511 C 0.22195 0.20879 0.21882 0.0
C512 C 0.19465 0.1664 0.1942 0.0
C513 C 0.20601 0.23786 0.21369 0.0
C514 C 0.18358 0.23074 0.19917 0.0
C515 C 0.14921 0.18352 0.17595 0.0
C516 C 0.13669 0.14316 0.1676 0.0
C517 C 0.17676 0.19445 0.18953 0.0
C518 C 0.15851 0.11825 0.17137 0.0
C519 C 0.18756 0.12999 0.18454 0.0
H520 H 0.79973 0.02015 0.2114 0.0
H521 H 0.78976 0.88832 0.20964 0.0
H522 H 0.82373 0.90574 0.18378 0.0
H523 H 0.87058 0.96392 0.16477 0.0
H524 H 0.89159 0.09932 0.16895 0.0
H525 H 0.83629 0.07436 0.18996 0.0
C526 C 0.80421 -0.00516 0.20526 0.0
C527 C 0.79314 0.95333 0.21265 0.0
C528 C 0.82511 0.00566 0.1906 0.0
C529 C 0.79876 0.92085 0.2044 0.0
C530 C 0.81798 0.93071 0.18956 0.0
C531 C 0.86082 0.98719 0.16966 0.0
C532 C 0.88512 0.03338 0.1654 0.0
C533 C 0.83307 0.97371 0.18287 0.0
C534 C 0.87295 0.06352 0.17193 0.0
C535 C 0.84236 0.04948 0.18428 0.0
H536 H 0.93893 0.81972 0.22097 0.0
H537 H 0.07685 0.90017 0.23882 0.0
H538 H 0.09497 0.95322 0.21683 0.0
H539 H 0.06888 0.98008 0.19405 0.0
H540 H 0.9317 0.89736 0.17564 0.0
H541 H 0.91605 0.84096 0.19618 0.0
C542 C 0.97308 0.84871 0.21993 0.0
C543 C 0.0064 0.85674 0.23157 0.0
C544 C 0.98323 0.87835 0.20719 0.0
C545 C 0.05073 0.89365 0.23001 0.0
C546 C 0.06095 0.92391 0.21748 0.0
C547 C 0.03581 0.94927 0.19438 0.0
C548 C 0.00126 0.94305 0.18348 0.0
C549 C 0.02714 0.9171 0.20621 0.0
C550 C 0.9588 0.90283 0.18389 0.0
C551 C 0.94975 0.87081 0.19571 0.0
H552 H 0.2178 0.23936 0.30561 0.0
H553 H 0.30421 0.17993 0.30964 0.0
H554 H 0.27846 0.15508 0.33619 0.0
H555 H 0.2203 0.13605 0.35555 0.0
H556 H 0.12504 0.18423 0.35027 0.0
H557 H 0.16654 0.22981 0.32759 0.0
C558 C 0.23156 0.22182 0.31248 0.0
C559 C 0.26217 0.21066 0.30562 0.0
C560 C 0.21507 0.20587 0.32761 0.0
C561 C 0.27991 0.18802 0.31459 0.0
C562 C 0.2654 0.17402 0.3298 0.0
C563 C 0.21007 0.1584 0.34988 0.0
C564 C 0.16958 0.15653 0.35441 0.0
C565 C 0.23151 0.18088 0.33611 0.0
C566 C 0.15635 0.18537 0.34704 0.0
C567 C 0.17944 0.21049 0.33381 0.0
H568 H 0.82055 0.92773 0.30765 0.0
H569 H 0.8714 0.06341 0.28961 0.0
H570 H 0.92469 0.09491 0.31197 0.0
H571 H 0.96199 0.08295 0.33505 0.0
H572 H 0.91096 0.94755 0.35326 0.0
H573 H 0.85129 0.91693 0.33279 0.0
C574 C 0.84323 0.96421 0.30866 0.0
C575 C 0.84284 0.99319 0.29683 0.0
C576 C 0.87321 0.9821 0.32168 0.0
C577 C 0.87147 0.04043 0.29848 0.0
C578 C 0.90184 0.05843 0.31127 0.0
C579 C 0.93698 0.04688 0.33479 0.0
C580 C 0.94089 0.0175 0.34564 0.0
C581 C 0.90363 0.0295 0.32275 0.0
C582 C 0.90828 0.97093 0.34521 0.0
C583 C 0.87465 0.95333 0.33332 0.0
H584 H 0.05797 0.83909 0.31268 0.0
H585 H 0.91408 0.77608 0.32154 0.0
H586 H 0.93071 0.81417 0.34692 0.0
H587 H 0.98426 0.87904 0.36285 0.0
H588 H 0.12674 0.95102 0.35209 0.0
H589 H 0.11351 0.89452 0.33192 0.0
C590 C 0.03042 0.83276 0.3204 0.0
C591 C 0.98484 0.80564 0.31514 0.0
C592 C 0.04024 0.85648 0.33473 0.0
C593 C 0.94939 0.79757 0.32522 0.0
C594 C 0.95889 0.81924 0.33975 0.0
C595 C 0.01276 0.88064 0.35671 0.0
C596 C 0.05622 0.91911 0.35877 0.0
C597 C 0.00398 0.85068 0.34419 0.0
C598 C 0.093 0.92144 0.35074 0.0
C599 C 0.08514 0.88977 0.3389 0.0
H600 H 0.79577 0.88085 0.81955 0.0
H601 H 0.79474 0.75463 0.81224 0.0
H602 H 0.8318 0.76273 0.83782 0.0
H603 H 0.87655 0.81247 0.8597 0.0
H604 H 0.88042 0.94011 0.86655 0.0
H605 H 0.82792 0.92341 0.84425 0.0
C606 C 0.80325 0.8549 0.82364 0.0
C607 C 0.79381 0.81789 0.81383 0.0
C608 C 0.82453 0.85975 0.83838 0.0
C609 C 0.80238 0.78382 0.81946 0.0
C610 C 0.82345 0.78836 0.83411 0.0
C611 C 0.86442 0.83578 0.85669 0.0
C612 C 0.88331 0.87799 0.86446 0.0
C613 C 0.83625 0.82705 0.84336 0.0
C614 C 0.86673 0.90753 0.86068 0.0
C615 C 0.83738 0.89839 0.84771 0.0
H616 H 0.24813 0.08629 0.8305 0.0
H617 H 0.20646 0.96222 0.80471 0.0
H618 H 0.1625 0.91736 0.82684 0.0
H619 H 0.12209 0.91488 0.85065 0.0
H620 H 0.16194 0.03838 0.87627 0.0
H621 H 0.22231 0.08164 0.85768 0.0
C622 C 0.23011 0.04942 0.82985 0.0
C623 C 0.22919 0.02771 0.81574 0.0
C624 C 0.20487 0.02366 0.84271 0.0
C625 C 0.2069 0.97991 0.81525 0.0
C626 C 0.18179 0.95412 0.82796 0.0
C627 C 0.14584 0.95081 0.85266 0.0
C628 C 0.13698 0.97365 0.86452 0.0
C629 C 0.17867 0.97573 0.84141 0.0
C630 C 0.16802 0.02005 0.86718 0.0
C631 C 0.2018 0.04504 0.85627 0.0
H632 H 0.09283 0.2005 0.81232 0.0
H633 H 0.955 0.12096 0.7942 0.0
H634 H 0.93669 0.06645 0.81561 0.0
H635 H 0.96198 0.03829 0.83807 0.0
H636 H 0.09846 0.1196 0.85715 0.0
H637 H 0.11507 0.17736 0.83698 0.0
C638 C 0.05872 0.17134 0.81316 0.0
C639 C 0.02545 0.16414 0.8016 0.0
C640 C 0.04827 0.14076 0.82567 0.0
C641 C 0.98114 0.12693 0.80294 0.0
C642 C 0.97073 0.0958 0.81515 0.0
C643 C -0.00488 0.06907 0.83796 0.0
C644 C 0.02918 0.07457 0.84893 0.0
C645 C 0.00428 0.10195 0.82639 0.0
C646 C 0.07174 0.11474 0.84883 0.0
C647 C 0.08133 0.1475 0.83722 0.0
H648 H 0.77667 0.83374 0.71301 0.0
H649 H 0.86796 0.8173 0.74477 0.0
H650 H 0.9213 0.83298 0.72356 0.0
H651 H 0.94754 0.86543 0.69753 0.0
H652 H 0.85705 0.88314 0.66578 0.0
H653 H 0.79661 0.85016 0.685 0.0
C654 C 0.80795 0.83291 0.71512 0.0
C655 C 0.81933 0.82564 0.73037 0.0
C656 C 0.83817 0.84153 0.70283 0.0
C657 C 0.85922 0.8236 0.73309 0.0
C658 C 0.88952 0.83236 0.72098 0.0
C659 C 0.91383 0.85994 0.69455 0.0
C660 C 0.90701 0.87752 0.68043 0.0
C661 C 0.88013 0.84311 0.70596 0.0
C662 C 0.86318 0.86993 0.67658 0.0
C663 C 0.82891 0.85204 0.68774 0.0
H664 H 0.20979 0.04134 0.72071 0.0
H665 H 0.18634 0.13833 0.74532 0.0
H666 H 0.14533 0.14452 0.72262 0.0
H667 H 0.1097 0.11747 0.69697 0.0
H668 H 0.12751 0.01721 0.67238 0.0
H669 H 0.17901 0.01909 0.69343 0.0
C670 C 0.19566 0.06377 0.7211 0.0
C671 C 0.20066 0.08874 0.73489 0.0
C672 C 0.17181 0.06731 0.70787 0.0
C673 C 0.18275 0.11826 0.73502 0.0
C674 C 0.15944 0.12211 0.72198 0.0
C675 C 0.12584 0.0969 0.69599 0.0
C676 C 0.11444 0.06695 0.68319 0.0
C677 C 0.15315 0.09632 0.70847 0.0
C678 C 0.1359 0.0408 0.68204 0.0
C679 C 0.16466 0.04123 0.69425 0.0
H680 H 0.96071 0.17172 0.72131 0.0
H681 H 0.10266 0.22122 0.71203 0.0
H682 H 0.08143 0.18033 0.68706 0.0
H683 H 0.02264 0.12159 0.67007 0.0
H684 H 0.88105 0.06245 0.68159 0.0
H685 H 0.90166 0.11789 0.70286 0.0
C686 C 0.98709 0.17422 0.71371 0.0
C687 C 0.03326 0.19917 0.71865 0.0
C688 C 0.97451 0.14929 0.69959 0.0
C689 C 0.0669 0.2019 0.70864 0.0
C690 C 0.05476 0.17865 0.6943 0.0
C691 C -0.00386 0.12207 0.67683 0.0
C692 C 0.95031 0.08817 0.67421 0.0
C693 C 0.00865 0.15112 0.6899 0.0
C694 C 0.91643 0.08864 0.68325 0.0
C695 C 0.92837 0.11973 0.69561 0.0
H696 H 0.8993 0.55444 0.55363 0.0
H697 H 0.87631 0.42674 0.57299 0.0
H698 H 0.83845 0.3877 0.54887 0.0
H699 H 0.80253 0.38708 0.52389 0.0
H700 H 0.81713 0.5113 0.50496 0.0
H701 H 0.86973 0.55471 0.52661 0.0
C702 C 0.88596 0.51811 0.55255 0.0
C703 C 0.89007 0.49364 0.56533 0.0
C704 C 0.86365 0.49529 0.53849 0.0
C705 C 0.87327 0.44661 0.56354 0.0
C706 C 0.85184 0.4241 0.54965 0.0
C707 C 0.81921 0.42398 0.52409 0.0
C708 C 0.80628 0.446 0.51284 0.0
C709 C 0.84604 0.44784 0.53719 0.0
C710 C 0.82728 0.49368 0.51333 0.0
C711 C 0.85627 0.51829 0.52599 0.0
H712 H 0.48471 0.37495 0.55323 0.0
H713 H 0.45851 0.24023 0.54174 0.0
H714 H 0.49861 0.26843 0.51716 0.0
H715 H 0.55175 0.3328 0.50151 0.0
H716 H 0.59028 0.46921 0.51556 0.0
H717 H 0.53257 0.43911 0.53589 0.0
C718 C 0.48706 0.35166 0.54518 0.0
C719 C 0.46912 0.30566 0.54936 0.0
C720 C 0.51186 0.36853 0.53136 0.0
C721 C 0.4726 0.27588 0.53889 0.0
C722 C 0.49528 0.29195 0.52479 0.0
C723 C 0.54598 0.3559 0.50854 0.0
C724 C 0.57494 0.40314 0.507 0.0
C725 C 0.51639 0.33844 0.52118 0.0
C726 C 0.56786 0.43274 0.5164 0.0
C727 C 0.53562 0.41547 0.52825 0.0
H728 H 0.66982 0.1635 0.54593 0.0
H729 H 0.5774 0.17775 0.57635 0.0
H730 H 0.55905 0.21582 0.55581 0.0
H731 H 0.57359 0.25126 0.5303 0.0
H732 H 0.66919 0.24364 0.49982 0.0
H733 H 0.67989 0.19492 0.51879 0.0
C734 C 0.64592 0.17521 0.54804 0.0
C735 C 0.62555 0.16813 0.56279 0.0
C736 C 0.63519 0.19745 0.53602 0.0
C737 C 0.59392 0.18281 0.5652 0.0
C738 C 0.58306 0.20444 0.55341 0.0
C739 C 0.59587 0.23793 0.5276 0.0
C740 C 0.62089 0.25145 0.51378 0.0
C741 C 0.60383 0.21242 0.53888 0.0
C742 C 0.64928 0.23355 0.51036 0.0
C743 C 0.65613 0.20645 0.52137 0.0
H744 H 0.88606 0.57557 0.64549 0.0
H745 H 0.95976 0.50704 0.65908 0.0
H746 H 0.91958 0.48427 0.68372 0.0
H747 H 0.85096 0.46741 0.69773 0.0
H748 H 0.77039 0.52662 0.68249 0.0
H749 H 0.82688 0.57164 0.66289 0.0
C750 C 0.89412 0.55669 0.65404 0.0
C751 C 0.92481 0.54182 0.65027 0.0
C752 C 0.86961 0.54223 0.66802 0.0
C753 C 0.93534 0.51783 0.66152 0.0
C754 C 0.91252 0.50494 0.67566 0.0
C755 C 0.84737 0.49237 0.69075 0.0
C756 C 0.80671 0.49365 0.69143 0.0
C757 C 0.8778 0.51469 0.6786 0.0
C758 C 0.80177 0.52548 0.68225 0.0
C759 C 0.83351 0.55026 0.67074 0.0
H760 H 0.47819 0.24837 0.64143 0.0
H761 H 0.49133 0.38012 0.63332 0.0
H762 H 0.5299 0.40674 0.65874 0.0
H763 H 0.56886 0.39584 0.68142 0.0
H764 H 0.56028 0.26601 0.6887 0.0
H765 H 0.50869 0.23454 0.66603 0.0
C766 C 0.48942 0.28288 0.64525 0.0
C767 C 0.48292 0.31258 0.63532 0.0
C768 C 0.51146 0.29795 0.65992 0.0
C769 C 0.49655 0.35679 0.64062 0.0
C770 C 0.51838 0.37198 0.65519 0.0
C771 C 0.55413 0.36013 0.67839 0.0
C772 C 0.56809 0.33324 0.68679 0.0
C773 C 0.527 0.34322 0.66475 0.0
C774 C 0.54914 0.28712 0.68273 0.0
C775 C 0.52061 0.26946 0.66947 0.0
H776 H 0.62193 0.1205 0.65571 0.0
H777 H 0.74292 0.20342 0.62916 0.0
H778 H 0.77272 0.26078 0.64985 0.0
H779 H 0.75686 0.29377 0.67277 0.0
H780 H 0.63533 0.21223 0.69891 0.0
H781 H 0.61405 0.14733 0.68154 0.0
C782 C 0.65521 0.15071 0.65461 0.0
C783 C 0.67954 0.15823 0.64073 0.0
C784 C 0.67218 0.18375 0.66656 0.0
C785 C 0.7231 0.19705 0.63961 0.0
C786 C 0.74024 0.22997 0.65145 0.0
C787 C 0.72707 0.26097 0.6751 0.0
C788 C 0.69784 0.25731 0.68709 0.0
C789 C 0.71416 0.22459 0.66465 0.0
C790 C 0.65867 0.21526 0.68988 0.0
C791 C 0.64608 0.17849 0.67976 0.0
H792 H 0.47732 0.21858 0.13742 0.0
H793 H 0.52537 0.12343 0.13208 0.0
H794 H 0.57505 0.15559 0.15535 0.0
H795 H 0.61223 0.21784 0.17482 0.0
H796 H 0.56538 0.31387 0.17949 0.0
H797 H 0.5064 0.27332 0.15923 0.0
C798 C 0.49846 0.20466 0.14142 0.0
C799 C 0.49861 0.16945 0.13284 0.0
C800 C 0.52654 0.22309 0.15481 0.0
C801 C 0.52517 0.15092 0.13838 0.0
C802 C 0.55346 0.16924 0.15169 0.0
C803 C 0.58762 0.22845 0.17186 0.0
C804 C 0.59231 0.26815 0.17874 0.0
C805 C 0.55527 0.2061 0.15974 0.0
C806 C 0.56149 0.28276 0.17456 0.0
C807 C 0.52841 0.26005 0.16279 0.0
H808 H 0.89448 0.41287 0.14705 0.0
H809 H 0.83154 0.28798 0.12024 0.0
H810 H 0.78419 0.24682 0.14231 0.0
H811 H 0.75782 0.2467 0.16871 0.0
H812 H 0.82234 0.36993 0.19634 0.0
H813 H 0.87277 0.4109 0.17474 0.0
C814 C 0.87037 0.37668 0.1461 0.0
C815 C 0.86612 0.35359 0.132 0.0
C816 C 0.84385 0.35279 0.15903 0.0
C817 C 0.83536 0.30653 0.13097 0.0
C818 C 0.80828 0.28291 0.14358 0.0
C819 C 0.78338 0.2824 0.17006 0.0
C820 C 0.78581 0.30531 0.18398 0.0
C821 C 0.81197 0.30573 0.1576 0.0
C822 C 0.81956 0.35141 0.18571 0.0
C823 C 0.84813 0.37502 0.1733 0.0
H824 H 0.80199 0.53527 0.12605 0.0
H825 H 0.66617 0.51005 0.13466 0.0
H826 H 0.6631 0.46742 0.15832 0.0
H827 H 0.69613 0.43086 0.17492 0.0
H828 H 0.82973 0.45264 0.16522 0.0
H829 H 0.83743 0.50453 0.14388 0.0
C830 C 0.77164 0.52054 0.13308 0.0
C831 C 0.73398 0.52517 0.12841 0.0
C832 C 0.7702 0.49623 0.14663 0.0
C833 C 0.69539 0.50656 0.13787 0.0
C834 C 0.69372 0.48237 0.15144 0.0
C835 C 0.72764 0.44864 0.16852 0.0
C836 C 0.76294 0.43923 0.17182 0.0
C837 C 0.73064 0.47641 0.15579 0.0
C838 C 0.80286 0.46063 0.16312 0.0
C839 C 0.80682 0.48958 0.15077 0.0
H840 H 0.42007 0.16167 0.03774 0.0
H841 H 0.50974 0.11442 0.05482 0.0
H842 H 0.5509 0.13653 0.03017 0.0
H843 H 0.57115 0.18502 1.00664 0.0
H844 H 0.48211 0.23336 0.99009 0.0
H845 H 0.42928 0.19285 1.01109 0.0
C846 C 0.44797 0.15529 0.03588 0.0
C847 C 0.46278 0.13768 0.04814 0.0
C848 C 0.47121 0.16784 0.02167 0.0
C849 C 0.4982 0.12851 0.04556 0.0
C850 C 0.52173 0.14117 0.03148 0.0
C851 C 0.53874 0.18417 1.00708 0.0
C852 C 0.53045 0.21215 0.99693 0.0
C853 C 0.50986 0.16284 0.01975 0.0
C854 C 0.48884 0.2116 0.99771 0.0
C855 C 0.4592 0.18936 1.00997 0.0
H856 H 0.85423 0.31926 0.04469 0.0
H857 H 0.88235 0.45753 0.04966 0.0
H858 H 0.84031 0.45056 0.02538 0.0
H859 H 0.78601 0.40193 1.00504 0.0
H860 H 0.75086 0.26159 1.00149 0.0
H861 H 0.80632 0.2729 0.02239 0.0
C862 C 0.85162 0.348 0.04035 0.0
C863 C 0.87067 0.3885 0.04917 0.0
C864 C 0.82643 0.3435 0.02647 0.0
C865 C 0.86723 0.42557 0.0433 0.0
C866 C 0.84341 0.42178 0.02934 0.0
C867 C 0.79218 0.37452 1.00836 0.0
C868 C 0.76518 0.33127 1.00164 0.0
C869 C 0.82171 0.38052 0.02108 0.0
C870 C 0.77204 0.29539 1.00638 0.0
C871 C 0.80314 0.30169 0.0185 0.0
H872 H 0.75612 0.57586 0.03232 0.0
H873 H 0.6286 0.5081 0.05648 0.0
H874 H 0.5926 0.45619 0.0343 0.0
H875 H 0.60293 0.42024 1.01094 0.0
H876 H 0.73066 0.48732 0.98713 0.0
H877 H 0.76045 0.55053 1.00576 0.0
C878 C 0.72018 0.5504 0.03254 0.0
C879 C 0.69534 0.54496 0.04614 0.0
C880 C 0.69967 0.52074 0.01972 0.0
C881 C 0.64857 0.51257 0.0462 0.0
C882 C 0.62796 0.4828 0.03352 0.0
C883 C 0.63621 0.45009 1.00931 0.0
C884 C 0.66459 0.4494 0.99771 0.0
C885 C 0.65378 0.48522 0.02055 0.0
C886 C 0.70803 0.48762 0.99584 0.0
C887 C 0.72544 0.52325 1.00673 0.0
H888 H 0.52274 0.87523 0.87763 0.0
H889 H 0.55152 0.76886 0.89096 0.0
H890 H 0.52161 0.73121 0.86598 0.0
H891 H 0.47941 0.72281 0.84182 0.0
H892 H 0.44192 0.82257 0.82869 0.0
H893 H 0.4846 0.86937 0.85158 0.0
C894 C 0.52259 0.84395 0.87499 0.0
C895 C 0.5386 0.82455 0.88636 0.0
C896 C 0.50434 0.82156 0.86049 0.0
C897 C 0.53854 0.78417 0.88267 0.0
C898 C 0.5218 0.76268 0.86828 0.0
C899 C 0.48201 0.75567 0.84368 0.0
C900 C 0.45801 0.76944 0.83358 0.0
C901 C 0.50375 0.78045 0.85729 0.0
C902 C 0.46093 0.81168 0.83615 0.0
C903 C 0.48452 0.83791 0.84944 0.0
H904 H 0.11654 0.63107 0.8706 0.0
H905 H 0.19433 0.73538 0.90501 0.0
H906 H 0.24964 0.78135 0.88521 0.0
H907 H 0.28362 0.78294 0.85987 0.0
H908 H 0.20521 0.67909 0.82537 0.0
H909 H 0.1413 0.64333 0.84308 0.0
C910 C 0.14505 0.66438 0.87362 0.0
C911 C 0.15217 0.67942 0.88927 0.0
C912 C 0.17646 0.69082 0.86213 0.0
C913 C 0.18851 0.72297 0.89305 0.0
C914 C 0.22018 0.74922 0.88174 0.0
C915 C 0.25169 0.75381 0.85594 0.0
C916 C 0.24971 0.73296 0.84152 0.0
C917 C 0.21563 0.73242 0.86644 0.0
C918 C 0.20793 0.69568 0.83646 0.0
C919 C 0.17157 0.67457 0.84674 0.0
H920 H 0.23875 0.47419 0.88657 0.0
H921 H 0.38108 0.51294 0.88995 0.0
H922 H 0.39521 0.55468 0.86537 0.0
H923 H 0.36973 0.59007 0.84556 0.0
H924 H 0.22912 0.55595 0.84298 0.0
H925 H 0.21092 0.50043 0.8641 0.0
C926 C 0.27282 0.49154 0.88188 0.0
C927 C 0.30911 0.49149 0.89032 0.0
C928 C 0.28071 0.51554 0.86774 0.0
C929 C 0.35275 0.51309 0.88386 0.0
C930 C 0.36081 0.53677 0.86976 0.0
C931 C 0.33469 0.56873 0.84914 0.0
C932 C 0.30071 0.57674 0.84279 0.0
C933 C 0.32536 0.53935 0.86189 0.0
C934 C 0.25557 0.54971 0.84757 0.0
C935 C 0.24549 0.51883 0.85989 0.0
H936 H 0.57945 0.85984 0.98551 0.0
H937 H 0.48773 0.88631 0.95757 0.0
H938 H 0.43852 0.87021 0.98008 0.0
H939 H 0.41417 0.83248 1.00561 0.0
H940 H 0.50598 0.80617 0.03351 0.0
H941 H 0.56394 0.8411 0.01357 0.0
C942 C 0.54913 0.86292 0.98449 0.0
C943 C 0.53627 0.87277 0.96986 0.0
C944 C 0.52136 0.85417 0.99753 0.0
C945 C 0.49776 0.87801 0.96869 0.0
C946 C 0.46969 0.86888 0.98156 0.0
C947 C 0.4478 0.8367 1.00768 0.0
C948 C 0.45536 0.81566 0.02077 0.0
C949 C 0.48011 0.85487 0.99581 0.0
C950 C 0.49916 0.82181 0.02349 0.0
C951 C 0.53199 0.84082 1.01188 0.0
H952 H 0.14849 0.64653 0.98094 0.0
H953 H 0.16294 0.54317 0.95676 0.0
H954 H 0.20462 0.53642 0.97914 0.0
H955 H 0.24592 0.56682 1.00382 0.0
H956 H 0.23756 0.67383 0.02756 0.0
H957 H 0.18263 0.6704 1.00765 0.0
C958 C 0.16051 0.62235 0.98062 0.0
C959 C 0.15331 0.59614 0.96699 0.0
C960 C 0.18494 0.61868 0.99361 0.0
C961 C 0.1685 0.56439 0.96692 0.0
C962 C 0.19218 0.56022 0.97978 0.0
C963 C 0.23071 0.58821 1.00494 0.0
C964 C 0.24576 0.62055 0.01709 0.0
C965 C 0.20162 0.588 0.99298 0.0
C966 C 0.22597 0.64813 0.01845 0.0
C967 C 0.19537 0.6469 1.00684 0.0
H968 H 0.39171 0.51349 0.9712 0.0
H969 H 0.2518 0.46225 0.98399 0.0
H970 H 0.27743 0.50624 1.00833 0.0
H971 H 0.33885 0.56662 0.02407 0.0
H972 H 0.47785 0.62687 1.00921 0.0
H973 H 0.45378 0.57045 0.98806 0.0
C974 C 0.3668 0.5114 0.97942 0.0
C975 C 0.31983 0.48481 0.9757 0.0
C976 C 0.38181 0.538 0.99316 0.0
C977 C 0.28808 0.48275 0.98646 0.0
C978 C 0.30274 0.50775 1.00043 0.0
C979 C 0.36413 0.56621 0.01659 0.0
C980 C 0.41021 0.60037 0.01833 0.0
C981 C 0.34946 0.53636 1.0037 0.0
C982 C 0.44239 0.60034 1.00827 0.0
C983 C 0.42844 0.56863 0.99602 0.0
H984 H 0.14415 0.54681 0.48049 0.0
H985 H 0.1605 0.43063 0.47193 0.0
H986 H 0.19853 0.44135 0.49748 0.0
H987 H 0.23812 0.49123 0.5199 0.0
H988 H 0.22548 0.60977 0.52777 0.0
H989 H 0.17252 0.58896 0.50541 0.0
C990 C 0.15582 0.52369 0.48427 0.0
C991 C 0.15083 0.48883 0.47416 0.0
C992 C 0.17757 0.53 0.49898 0.0
C993 C 0.16473 0.45823 0.47939 0.0
C994 C 0.18627 0.4642 0.49403 0.0
C995 C 0.22235 0.51153 0.51708 0.0
C996 C 0.23663 0.55259 0.52519 0.0
C997 C 0.19425 0.5009 0.50365 0.0
C998 C 0.21536 0.57815 0.52165 0.0
C999 C 0.18579 0.56677 0.50864 0.0
H1000 H 0.57011 0.67653 0.47498 0.0
H1001 H 0.59514 0.81267 0.48287 0.0
H1002 H 0.56036 0.79035 0.50851 0.0
H1003 H 0.50795 0.72893 0.52544 0.0
H1004 H 0.47114 0.59073 0.51518 0.0
H1005 H 0.52748 0.6169 0.49447 0.0
C1006 C 0.56891 0.70154 0.48248 0.0
C1007 C 0.58432 0.74596 0.47691 0.0
C1008 C 0.54702 0.68792 0.49696 0.0
C1009 C 0.58266 0.77804 0.48677 0.0
C1010 C 0.56296 0.76534 0.50147 0.0
C1011 C 0.51439 0.7049 0.51927 0.0
C1012 C 0.48566 0.65809 0.52178 0.0
C1013 C 0.54306 0.7199 0.50633 0.0
C1014 C 0.49336 0.62699 0.51357 0.0
C1015 C 0.52469 0.64195 0.50142 0.0
H1016 H 0.33153 0.84017 0.47223 0.0
H1017 H 0.47811 0.90459 0.4709 0.0
H1018 H 0.47837 0.85894 0.49308 0.0
H1019 H 0.43623 0.79371 0.51062 0.0
H1020 H 0.28936 0.72382 0.50992 0.0
H1021 H 0.28977 0.77889 0.49118 0.0
C1022 C 0.36352 0.84472 0.477 0.0
C1023 C 0.40464 0.87537 0.46985 0.0
C1024 C 0.36332 0.81719 0.48943 0.0
C1025 C 0.44589 0.88077 0.47608 0.0
C1026 C 0.44612 0.85473 0.48879 0.0
C1027 C 0.4045 0.79151 0.50667 0.0
C1028 C 0.36287 0.75513 0.51162 0.0
C1029 C 0.40496 0.82186 0.49526 0.0
C1030 C 0.32181 0.75181 0.50624 0.0
C1031 C 0.32202 0.78306 0.49546 0.0
H1032 H 0.14165 0.55048 0.37912 0.0
H1033 H 0.17737 0.45177 0.39586 0.0
H1034 H 0.22245 0.46327 0.37268 0.0
H1035 H 0.25614 0.50501 0.34859 0.0
H1036 H 0.21847 0.60092 0.33071 0.0
H1037 H 0.16921 0.58651 0.35318 0.0
C1038 C 0.15923 0.53148 0.37762 0.0
C1039 C 0.15665 0.50075 0.38927 0.0
C1040 C 0.18444 0.53751 0.36402 0.0
C1041 C 0.17891 0.47571 0.38708 0.0
C1042 C 0.20472 0.48223 0.37383 0.0
C1043 C 0.23618 0.52183 0.34946 0.0
C1044 C 0.24061 0.55369 0.33808 0.0
C1045 C 0.20814 0.51336 0.36234 0.0
C1046 C 0.21501 0.57571 0.33927 0.0
C1047 C 0.1873 0.56786 0.35221 0.0
H1048 H 0.53891 0.78018 0.38451 0.0
H1049 H 0.51593 0.64774 0.39822 0.0
H1050 H 0.46534 0.61337 0.37544 0.0
H1051 H 0.42605 0.62043 0.35215 0.0
H1052 H 0.45022 0.75254 0.33759 0.0
H1053 H 0.50273 0.78781 0.36004 0.0
C1054 C 0.52265 0.74378 0.38253 0.0
C1055 C 0.53071 0.71643 0.39315 0.0
C1056 C 0.49425 0.72433 0.3692 0.0
C1057 C 0.51014 0.66947 0.39027 0.0
C1058 C 0.48127 0.64981 0.37724 0.0
C1059 C 0.44311 0.65704 0.35381 0.0
C1060 C 0.43406 0.68381 0.34331 0.0
C1061 C 0.47297 0.67687 0.36669 0.0
C1062 C 0.45672 0.73121 0.34549 0.0
C1063 C 0.48646 0.7513 0.35839 0.0
H1064 H 0.39001 0.88711 0.3718 0.0
H1065 H 0.29913 0.80885 0.40868 0.0
H1066 H 0.26121 0.7423 0.39145 0.0
H1067 H 0.26283 0.70357 0.36738 0.0
H1068 H 0.35006 0.7826 0.32984 0.0
H1069 H 0.37925 0.85197 0.34554 0.0
C1070 C 0.36124 0.85572 0.37589 0.0
C1071 C 0.34778 0.85244 0.39151 0.0
C1072 C 0.33887 0.81783 0.36578 0.0
C1073 C 0.3101 0.81196 0.39669 0.0
C1074 C 0.2885 0.77388 0.38686 0.0
C1075 C 0.28679 0.73631 0.36242 0.0
C1076 C 0.30453 0.73801 0.34755 0.0
C1077 C 0.30367 0.77599 0.37157 0.0
C1078 C 0.33559 0.78051 0.34121 0.0
C1079 C 0.35289 0.82011 0.3503 0.0
H1080 H 0.29801 0.13413 0.11622 0.0
H1081 H 0.25438 0.00397 0.09447 0.0
H1082 H 0.17515 0.97873 0.10118 0.0
H1083 H 0.11839 -0.00432 0.11193 0.0
H1084 H 0.16291 0.12499 0.13451 0.0
H1085 H 0.24227 0.14863 0.12891 0.0
C1086 C 0.27114 0.10016 0.11296 0.0
C1087 C 0.28174 0.07111 0.10463 0.0
C1088 C 0.22612 0.08591 0.11701 0.0
C1089 C 0.2469 0.0269 0.10081 0.0
C1090 C 0.20171 0.01261 0.10461 0.0
C1091 C 0.14554 0.02899 0.11568 0.0
C1092 C 0.13492 0.05883 0.12349 0.0
C1093 C 0.19093 0.04212 0.11249 0.0
C1094 C 0.17031 0.10149 0.12853 0.0
C1095 C 0.21559 0.11504 0.12525 0.0
H1096 H 0.93348 0.24331 0.10917 0.0
H1097 H 0.98507 0.24 0.06368 0.0
H1098 H 0.99184 0.17439 0.07164 0.0
H1099 H 0.98671 0.12069 0.09167 0.0
H1100 H 0.93815 0.12475 0.13763 0.0
H1101 H 0.92618 0.1873 0.12922 0.0
C1102 C 0.9459 0.22806 0.10094 0.0
C1103 C 0.95888 0.24675 0.08582 0.0
C1104 C 0.95031 0.1906 0.10567 0.0
C1105 C 0.97499 0.22653 0.07537 0.0
C1106 C 0.97888 0.18898 0.07992 0.0
C1107 C 0.97315 0.13487 0.09989 0.0
C1108 C 0.96345 0.11797 0.11531 0.0
C1109 C 0.96716 0.17114 0.09507 0.0
C1110 C 0.94594 0.137 0.12572 0.0
C1111 C 0.93922 0.17287 0.12091 0.0
H1112 H 0.78931 0.73554 0.11898 0.0
H1113 H 0.89211 0.74764 0.08715 0.0
H1114 H 0.94642 0.82145 0.09834 0.0
H1115 H 0.96344 0.88462 0.11575 0.0
H1116 H 0.86157 0.87668 0.14685 0.0
H1117 H 0.80856 0.79834 0.1379 0.0
C1118 C 0.82349 0.75458 0.11444 0.0
C1119 C 0.83643 0.73637 0.10208 0.0
C1120 C 0.85496 0.7971 0.12107 0.0
C1121 C 0.88113 0.76099 0.09654 0.0
C1122 C 0.91236 0.80307 0.103 0.0
C1123 C 0.93012 0.86499 0.12094 0.0
C1124 C 0.91645 0.88556 0.1321 0.0
C1125 C 0.89959 0.82146 0.11518 0.0
C1126 C 0.873 0.86075 0.13853 0.0
C1127 C 0.84254 0.81645 0.13317 0.0
H1128 H 0.08274 0.31158 0.40209 0.0
H1129 H 0.14064 0.31586 0.44796 0.0
H1130 H 0.1451 0.24796 0.44178 0.0
H1131 H 0.1281 0.18492 0.42399 0.0
H1132 H 0.07393 0.18164 0.37755 0.0
H1133 H 0.07401 0.25257 0.383 0.0
C1134 C 0.0961 0.29735 0.4107 0.0
C1135 C 0.11031 0.31777 0.42559 0.0
C1136 C 0.09998 0.25912 0.40685 0.0
C1137 C 0.12892 0.30015 0.43652 0.0
C1138 C 0.13169 0.26155 0.43296 0.0
C1139 C 0.11726 0.2003 0.41494 0.0
C1140 C 0.1008 0.17802 0.40043 0.0
C1141 C 0.11692 0.24055 0.41823 0.0
C1142 C 0.08713 0.19838 0.38876 0.0
C1143 C 0.08654 0.23856 0.39197 0.0
H1144 H 0.75838 0.82764 0.40075 0.0
H1145 H 0.75846 0.91489 0.43723 0.0
H1146 H 0.83632 0.97268 0.43103 0.0
H1147 H 0.90538 -0.003 0.41612 0.0
H1148 H 0.90612 0.91263 0.37886 0.0
H1149 H 0.82647 0.85559 0.38406 0.0
C1150 C 0.77571 0.85929 0.40732 0.0
C1151 C 0.75325 0.86689 0.41958 0.0
C1152 C 0.82015 0.89304 0.40337 0.0
C1153 C 0.77537 0.90832 0.42783 0.0
C1154 C 0.81975 0.94139 0.42426 0.0
C1155 C 0.8877 0.96645 0.40896 0.0
C1156 C 0.91107 0.95895 0.39707 0.0
C1157 C 0.84249 0.934 0.41214 0.0
C1158 C 0.88822 0.9194 0.38785 0.0
C1159 C 0.84302 0.88656 0.39099 0.0
H1160 H 0.2612 0.95313 0.41048 0.0
H1161 H 0.21063 0.92323 0.45754 0.0
H1162 H 0.14947 0.93859 0.45007 0.0
H1163 H 0.11329 0.96473 0.43064 0.0
H1164 H 0.16194 0.99235 0.38331 0.0
H1165 H 0.2205 0.97272 0.39034 0.0
C1166 C 0.23676 0.94996 0.4191 0.0
C1167 C 0.24087 0.93777 0.43463 0.0
C1168 C 0.20129 0.95816 0.41465 0.0
C1169 C 0.20838 0.93282 0.44557 0.0
C1170 C 0.17343 0.94161 0.44129 0.0
C1171 C 0.13642 0.96604 0.42179 0.0
C1172 C 0.13357 0.98049 0.4065 0.0
C1173 C 0.16995 0.95486 0.42594 0.0
C1174 C 0.16335 0.98134 0.39515 0.0
C1175 C 0.19706 0.97045 0.3992 0.0
H1176 H 0.72612 0.8718 0.91288 0.0
H1177 H 0.76328 0.00213 0.93316 0.0
H1178 H 0.84424 0.02822 0.92897 0.0
H1179 H 0.90409 0.01244 0.92025 0.0
H1180 H 0.86542 0.88338 0.89855 0.0
H1181 H 0.78493 0.85813 0.90247 0.0
C1182 C 0.75198 0.90594 0.91641 0.0
C1183 C 0.73907 0.93487 0.92355 0.0
C1184 C 0.79791 0.92074 0.91367 0.0
C1185 C 0.77262 0.97932 0.92771 0.0
C1186 C 0.81876 0.99409 0.92535 0.0
C1187 C 0.87792 0.9788 0.91639 0.0
C1188 C 0.89045 0.94957 0.90921 0.0
C1189 C 0.83176 0.96488 0.91848 0.0
C1190 C 0.85646 0.90643 0.90401 0.0
C1191 C 0.81053 0.89196 0.90632 0.0
H1192 H 0.14092 0.80383 0.91574 0.0
H1193 H 0.04342 0.74634 0.95272 0.0
H1194 H 0.02129 0.80413 0.94827 0.0
H1195 H 0.02714 0.86844 0.93304 0.0
H1196 H 0.1208 0.92237 0.89484 0.0
H1197 H 0.14679 0.86821 0.90051 0.0
C1198 C 0.1153 0.80435 0.92299 0.0
C1199 C 0.0941 0.77116 0.93466 0.0
C1200 C 0.10172 0.83663 0.92 0.0
C1201 C 0.0603 0.77167 0.94372 0.0
C1202 C 0.04758 0.80458 0.94115 0.0
C1203 C 0.05347 0.86855 0.92601 0.0
C1204 C 0.07196 0.89938 0.91351 0.0
C1205 C 0.06764 0.83682 0.92918 0.0
C1206 C 0.10567 0.89876 0.90441 0.0
C1207 C 0.12071 0.86793 0.90771 0.0
H1208 H 0.16652 0.28806 0.90793 0.0
H1209 H 0.26397 0.27116 0.93631 0.0
H1210 H 0.2268 0.19082 0.92874 0.0
H1211 H 0.16397 0.12488 0.91548 0.0
H1212 H 0.06778 0.14131 0.88624 0.0
H1213 H 0.10808 0.2231 0.89227 0.0
C1214 C 0.1794 0.26661 0.91248 0.0
C1215 C 0.21717 0.28494 0.92294 0.0
C1216 C 0.15858 0.22086 0.90775 0.0
C1217 C 0.23456 0.25745 0.92841 0.0
C1218 C 0.21346 0.21169 0.92404 0.0
C1219 C 0.15228 0.14656 0.91022 0.0
C1220 C 0.11278 0.12728 0.90059 0.0
C1221 C 0.1752 0.19301 0.91388 0.0
C1222 C 0.09823 0.15557 0.89365 0.0
C1223 C 0.12093 0.20212 0.89725 0.0
H1224 H 0.95703 0.72122 0.63993 0.0
H1225 H 0.94579 0.72035 0.58945 0.0
H1226 H 0.93497 0.78634 0.59043 0.0
H1227 H 0.93552 0.84797 0.60544 0.0
H1228 H 0.94979 0.85047 0.65584 0.0
H1229 H 0.95098 0.77928 0.65508 0.0
C1230 C 0.95205 0.7353 0.62912 0.0
C1231 C 0.95296 0.71618 0.6146 0.0
C1232 C 0.94593 0.77331 0.62977 0.0
C1233 C 0.94566 0.73452 0.60076 0.0
C1234 C 0.93941 0.77225 0.60133 0.0
C1235 C 0.93807 0.83262 0.61632 0.0
C1236 C 0.94272 0.85501 0.6307 0.0
C1237 C 0.94035 0.79242 0.61575 0.0
C1238 C 0.9457 0.8342 0.64463 0.0
C1239 C 0.94702 0.79362 0.64418 0.0
H1240 H 0.28144 0.20596 0.62266 0.0
H1241 H 0.27026 0.12912 0.58118 0.0
H1242 H 0.19515 0.06836 0.58906 0.0
H1243 H 0.13232 0.03843 0.60725 0.0
H1244 H 0.14302 0.11286 0.64934 0.0
H1245 H 0.21976 0.17259 0.64213 0.0
C1246 C 0.26207 0.17609 0.61531 0.0
C1247 C 0.28036 0.17219 0.60117 0.0
C1248 C 0.21966 0.14062 0.62022 0.0
C1249 C 0.25613 0.1329 0.59195 0.0
C1250 C 0.21353 0.09812 0.59651 0.0
C1251 C 0.15177 0.06741 0.61498 0.0
C1252 C 0.13214 0.07145 0.62876 0.0
C1253 C 0.19505 0.10168 0.6106 0.0
C1254 C 0.15768 0.10882 0.63876 0.0
C1255 C 0.20121 0.14327 0.6345 0.0
H1256 H 0.81692 0.10026 0.59162 0.0
H1257 H 0.75633 0.06452 0.6372 0.0
H1258 H 0.81804 0.05346 0.64696 0.0
H1259 H 0.88468 0.04554 0.64191 0.0
H1260 H 0.94411 0.0779 0.59619 0.0
H1261 H 0.88829 0.0991 0.58729 0.0
C1262 C 0.81764 0.09066 0.60372 0.0
C1263 C 0.78163 0.08261 0.61355 0.0
C1264 C 0.8531 0.08351 0.60929 0.0
C1265 C 0.78315 0.07024 0.62925 0.0
C1266 C 0.81857 0.06398 0.63491 0.0
C1267 C 0.88624 0.05845 0.63016 0.0
C1268 C 0.91851 0.06007 0.61976 0.0
C1269 C 0.85314 0.06936 0.62495 0.0
C1270 C 0.91944 0.07612 0.60443 0.0
C1271 C 0.88738 0.0881 0.59929 0.0
H1272 H 0.97314 0.48696 0.45342 0.0
H1273 H 0.92417 0.36671 0.42467 0.0
H1274 H 0.84574 0.34197 0.43206 0.0
H1275 H 0.79158 0.35596 0.44589 0.0
H1276 H 0.83967 0.47385 0.47575 0.0
H1277 H 0.91876 0.49791 0.46901 0.0
C1278 C 0.9452 0.45546 0.44871 0.0
C1279 C 0.95411 0.42902 0.43825 0.0
C1280 C 0.9005 0.44102 0.45333 0.0
C1281 C 0.91795 0.38771 0.43258 0.0
C1282 C 0.87326 0.3736 0.43684 0.0
C1283 C 0.81941 0.38688 0.45099 0.0
C1284 C 0.81001 0.41359 0.4611 0.0
C1285 C 0.86423 0.40016 0.44709 0.0
C1286 C 0.84623 0.45291 0.46792 0.0
C1287 C 0.89127 0.46673 0.46397 0.0
H1288 H 0.57704 0.57512 0.45876 0.0
H1289 H 0.67505 0.63087 0.42182 0.0
H1290 H 0.69127 0.56877 0.42497 0.0
H1291 H 0.67896 0.49993 0.43846 0.0
H1292 H 0.58274 0.44456 0.47587 0.0
H1293 H 0.56462 0.50548 0.47236 0.0
C1294 C 0.60179 0.57357 0.45134 0.0
C1295 C 0.62474 0.6076 0.44003 0.0
C1296 C 0.61142 0.53804 0.45336 0.0
C1297 C 0.65699 0.60526 0.43062 0.0
C1298 C 0.66625 0.56972 0.43241 0.0
C1299 C 0.65374 0.50091 0.4458 0.0
C1300 C 0.6324 0.46779 0.45749 0.0
C1301 C 0.64382 0.5361 0.44377 0.0
C1302 C 0.60019 0.46993 0.46697 0.0
C1303 C 0.58963 0.50464 0.46489 0.0
H1304 H 0.47378 0.0729 0.45747 0.0
H1305 H 0.52464 0.09584 0.41049 0.0
H1306 H 0.57712 0.17601 0.4167 0.0
H1307 H 0.60853 0.23903 0.43534 0.0
H1308 H 0.56275 0.217 0.48297 0.0
H1309 H 0.50896 0.13651 0.47686 0.0
C1310 C 0.49604 0.09578 0.4486 0.0
C1311 C 0.49488 0.07902 0.43344 0.0
C1312 C 0.52741 0.1415 0.45246 0.0
C1313 C 0.52469 0.10833 0.42214 0.0
C1314 C 0.55479 0.15399 0.42572 0.0
C1315 C 0.5869 0.21659 0.44443 0.0
C1316 C 0.58935 0.23391 0.45957 0.0
C1317 C 0.55652 0.17081 0.44083 0.0
C1318 C 0.56168 0.20436 0.47128 0.0
C1319 C 0.53067 0.15851 0.46772 0.0
H1320 H 0.72365 0.63907 0.72834 0.0
H1321 H 0.69678 0.61542 0.77773 0.0
H1322 H 0.70504 0.54808 0.77632 0.0
H1323 H 0.71819 0.49527 0.76106 0.0
H1324 H 0.74359 0.51771 0.71155 0.0
H1325 H 0.73881 0.58699 0.71314 0.0
C1326 C 0.71928 0.61905 0.73879 0.0
C1327 C 0.7092 0.63211 0.7531 0.0
C1328 C 0.72453 0.5806 0.73793 0.0
C1329 C 0.70425 0.60603 0.76655 0.0
C1330 C 0.7092 0.56764 0.76577 0.0
C1331 C 0.72333 0.51555 0.75062 0.0
C1332 C 0.73139 0.50117 0.7362 0.0
C1333 C 0.71935 0.55466 0.75153 0.0
C1334 C 0.73765 0.52793 0.72282 0.0
C1335 C 0.73451 0.56741 0.72369 0.0
H1336 H 0.40727 0.15316 0.74136 0.0
H1337 H 0.43223 0.20433 0.78876 0.0
H1338 H 0.51066 0.26081 0.78244 0.0
H1339 H 0.57116 0.29642 0.76344 0.0
H1340 H 0.54645 0.2492 0.71559 0.0
H1341 H 0.46827 0.19098 0.72188 0.0
C1342 C 0.43027 0.17635 0.75029 0.0
C1343 C 0.41465 0.17441 0.76554 0.0
C1344 C 0.47476 0.20984 0.74641 0.0
C1345 C 0.44398 0.20519 0.77699 0.0
C1346 C 0.48859 0.23753 0.77337 0.0
C1347 C 0.54861 0.27346 0.75436 0.0
C1348 C 0.56432 0.27708 0.73905 0.0
C1349 C 0.50414 0.24039 0.7581 0.0
C1350 C 0.53474 0.24747 0.72738 0.0
C1351 C 0.4903 0.2139 0.73104 0.0
H1352 H 0.90699 0.2755 0.72407 0.0
H1353 H 0.8954 0.26484 0.77438 0.0
H1354 H 0.83444 0.28332 0.773 0.0
H1355 H 0.78826 0.30744 0.75777 0.0
H1356 H 0.7986 0.31736 0.70744 0.0
H1357 H 0.85603 0.29372 0.70855 0.0
C1358 C 0.89092 0.27692 0.73473 0.0
C1359 C 0.9061 0.26931 0.74933 0.0
C1360 C 0.85584 0.28755 0.73385 0.0
C1361 C 0.88451 0.27068 0.763 0.0
C1362 C 0.84973 0.28139 0.76223 0.0
C1363 C 0.80289 0.30423 0.74701 0.0
C1364 C 0.7896 0.3147 0.73256 0.0
C1365 C 0.83575 0.29068 0.74775 0.0
C1366 C 0.80828 0.30959 0.71872 0.0
C1367 C 0.84126 0.29626 0.71936 0.0
H1368 H 0.41761 0.23653 0.23239 0.0
H1369 H 0.46105 0.35366 0.2623 0.0
H1370 H 0.54091 0.37901 0.2567 0.0
H1371 H 0.5977 0.36446 0.24491 0.0
H1372 H 0.55457 0.2489 0.21424 0.0
H1373 H 0.47455 0.22629 0.21839 0.0
C1374 C 0.44461 0.26776 0.23761 0.0
C1375 C 0.43375 0.29291 0.24796 0.0
C1376 C 0.4901 0.28211 0.23424 0.0
C1377 C 0.46876 0.33377 0.25437 0.0
C1378 C 0.51428 0.34808 0.25122 0.0
C1379 C 0.57076 0.33435 0.23909 0.0
C1380 C 0.58176 0.30771 0.22955 0.0
C1381 C 0.52525 0.32196 0.24145 0.0
C1382 C 0.54676 0.2696 0.22173 0.0
C1383 C 0.50115 0.25668 0.22415 0.0
H1384 H 0.80111 0.15955 0.27274 0.0
H1385 H 0.7315 0.07974 0.23156 0.0
H1386 H 0.72341 0.14232 0.22101 0.0
H1387 H 0.73258 0.21814 0.224 0.0
H1388 H 0.79674 0.29614 0.26594 0.0
H1389 H 0.81103 0.23622 0.2756 0.0
C1390 C 0.78435 0.156 0.26144 0.0
C1391 C 0.76677 0.11501 0.253 0.0
C1392 C 0.779 0.19187 0.25555 0.0
C1393 C 0.74494 0.11078 0.23838 0.0
C1394 C 0.74046 0.14661 0.23229 0.0
C1395 C 0.75045 0.22236 0.23511 0.0
C1396 C 0.76398 0.26155 0.24419 0.0
C1397 C 0.75699 0.18714 0.24082 0.0
C1398 C 0.78613 0.26619 0.25875 0.0
C1399 C 0.79416 0.23192 0.26429 0.0
H1400 H 0.92983 0.63283 0.23996 0.0
H1401 H 0.81443 0.63347 0.26026 0.0
H1402 H 0.76272 0.56118 0.24774 0.0
H1403 H 0.7503 0.49446 0.23329 0.0
H1404 H 0.86373 0.48893 0.21412 0.0
H1405 H 0.91607 0.56714 0.22326 0.0
C1406 C 0.8934 0.61698 0.24166 0.0
C1407 C 0.87617 0.63831 0.25124 0.0
C1408 C 0.86343 0.57505 0.23432 0.0
C1409 C 0.82876 0.61775 0.25308 0.0
C1410 C 0.79901 0.57647 0.24584 0.0
C1411 C 0.78629 0.51122 0.23058 0.0
C1412 C 0.8033 0.48676 0.22287 0.0
C1413 C 0.81596 0.55464 0.23662 0.0
C1414 C 0.84996 0.50787 0.21971 0.0
C1415 C 0.87987 0.55211 0.22524 0.0
H1416 H 0.60148 0.04768 0.96066 0.0
H1417 H 0.60888 0.05891 0.91029 0.0
H1418 H 0.6028 0.12767 0.91153 0.0
H1419 H 0.60183 0.18759 0.92704 0.0
H1420 H 0.59576 0.17706 0.97747 0.0
H1421 H 0.5934 0.10407 0.97602 0.0
C1422 C 0.60172 0.06512 0.94993 0.0
C1423 C 0.60648 0.04869 0.9354 0.0
C1424 C 0.598 0.10444 0.95074 0.0
C1425 C 0.60571 0.0711 0.92161 0.0
C1426 C 0.60215 0.11036 0.92232 0.0
C1427 C 0.59922 0.16904 0.93773 0.0
C1428 C 0.59946 0.18815 0.95237 0.0
C1429 C 0.59909 0.12772 0.93684 0.0
C1430 C 0.5956 0.16331 0.96606 0.0
C1431 C 0.59473 0.12173 0.96524 0.0
H1432 H 0.94834 0.53106 0.95514 0.0
H1433 H 0.93426 0.48835 0.90692 0.0
H1434 H 0.85473 0.43043 0.91099 0.0
H1435 H 0.78971 0.39224 0.92813 0.0
H1436 H 0.80326 0.43125 0.97677 0.0
H1437 H 0.88313 0.48955 0.97286 0.0
C1438 C 0.92749 0.50935 0.94553 0.0
C1439 C 0.9465 0.51425 0.93068 0.0
C1440 C 0.88227 0.47506 0.94812 0.0
C1441 C 0.91992 0.4853 0.91838 0.0
C1442 C 0.87466 0.45211 0.92073 0.0
C1443 C 0.81022 0.41328 0.93792 0.0
C1444 C 0.79069 0.40761 0.9527 0.0
C1445 C 0.85563 0.4466 0.93555 0.0
C1446 C 0.81773 0.43472 0.96532 0.0
C1447 C 0.86318 0.46836 0.96303 0.0
H1448 H 0.45006 0.42554 0.9513 0.0
H1449 H 0.47956 0.43766 0.90198 0.0
H1450 H 0.54238 0.42334 0.90727 0.0
H1451 H 0.58396 0.40047 0.92543 0.0
H1452 H 0.55496 0.38769 0.97475 0.0
H1453 H 0.49733 0.41014 0.96996 0.0
C1454 C 0.47045 0.42538 0.94172 0.0
C1455 C 0.45965 0.43194 0.92622 0.0
C1456 C 0.5065 0.41703 0.94484 0.0
C1457 C 0.48688 0.4324 0.91398 0.0
C1458 C 0.52278 0.42414 0.917 0.0
C1459 C 0.5654 0.40307 0.93519 0.0
C1460 C 0.5732 0.39176 0.9504 0.0
C1461 C 0.53214 0.41538 0.93231 0.0
C1462 C 0.54951 0.3961 0.96294 0.0
C1463 C 0.51635 0.40861 0.96018 0.0
H1464 H 0.5768 0.71991 0.75977 0.0
H1465 H 0.63593 0.85231 0.78161 0.0
H1466 H 0.56038 0.83832 0.78813 0.0
H1467 H 0.47741 0.78706 0.78876 0.0
H1468 H 0.41761 0.65693 0.76534 0.0
H1469 H 0.49316 0.67143 0.7583 0.0
C1470 C 0.57301 0.74578 0.76582 0.0
C1471 C 0.61187 0.78691 0.77024 0.0
C1472 C 0.52931 0.73788 0.76934 0.0
C1473 C 0.60651 0.82037 0.77798 0.0
C1474 C 0.56332 0.81236 0.78181 0.0
C1475 C 0.48103 0.76209 0.78205 0.0
C1476 C 0.44218 0.72098 0.77766 0.0
C1477 C 0.5245 0.77103 0.77773 0.0
C1478 C 0.44714 0.68899 0.76881 0.0
C1479 C 0.49031 0.69714 0.76482 0.0
H1480 H 0.22336 0.89324 0.79157 0.0
H1481 H 0.29821 0.93146 0.74862 0.0
H1482 H 0.31433 0.86914 0.75188 0.0
H1483 H 0.30887 0.80561 0.76717 0.0
H1484 H 0.23896 0.7699 0.8111 0.0
H1485 H 0.2194 0.82994 0.80734 0.0
C1486 C 0.24276 0.88755 0.78284 0.0
C1487 C 0.25916 0.91651 0.76975 0.0
C1488 C 0.25307 0.85254 0.78507 0.0
C1489 C 0.28511 0.90948 0.75872 0.0
C1490 C 0.29436 0.87395 0.76061 0.0
C1491 C 0.28909 0.81068 0.77592 0.0
C1492 C 0.27508 0.78307 0.78937 0.0
C1493 C 0.27878 0.84555 0.77378 0.0
C1494 C 0.25022 0.79072 0.80069 0.0
C1495 C 0.23893 0.82492 0.79849 0.0
H1496 H 0.18341 0.38801 0.78858 0.0
H1497 H 0.07386 0.39714 0.76529 0.0
H1498 H 0.10901 0.47714 0.77289 0.0
H1499 H 0.17329 0.54546 0.78443 0.0
H1500 H 0.28244 0.53727 0.80834 0.0
H1501 H 0.24427 0.4554 0.80269 0.0
C1502 C 0.16733 0.40761 0.78518 0.0
C1503 C 0.12656 0.38702 0.77613 0.0
C1504 C 0.18733 0.45344 0.78985 0.0
C1505 C 0.10543 0.41237 0.77213 0.0
C1506 C 0.12545 0.45805 0.7765 0.0
C1507 C 0.18839 0.5256 0.78863 0.0
C1508 C 0.23082 0.54735 0.79664 0.0
C1509 C 0.16665 0.47902 0.78515 0.0
C1510 C 0.24972 0.52122 0.8022 0.0
C1511 C 0.22816 0.47456 0.7988 0.0
H1512 H 0.41787 0.9617 0.07367 0.0
H1513 H 0.45155 0.95132 0.12199 0.0
H1514 H 0.45204 0.88123 0.11603 0.0
H1515 H 0.43844 0.82067 0.09748 0.0
H1516 H 0.40625 0.83136 0.04902 0.0
H1517 H 0.41104 0.90423 0.05453 0.0
C1518 C 0.42524 0.94401 0.08289 0.0
C1519 C 0.43388 0.96124 0.09832 0.0
C1520 C 0.42631 0.90414 0.07931 0.0
C1521 C 0.44442 0.93857 0.11007 0.0
C1522 C 0.4448 0.89855 0.10666 0.0
C1523 C 0.43319 0.83929 0.08805 0.0
C1524 C 0.42191 0.82044 0.07286 0.0
C1525 C 0.43532 0.88079 0.09137 0.0
C1526 C 0.41551 0.84518 0.06077 0.0
C1527 C 0.41765 0.88664 0.06397 0.0
H1528 H 0.06963 0.53355 0.07279 0.0
H1529 H 0.0937 0.43881 0.09941 0.0
H1530 H 0.17551 0.48433 0.0944 0.0
H1531 H 0.23993 0.55211 0.08314 0.0
H1532 H 0.21585 0.64412 0.0549 0.0
H1533 H 0.13371 0.59809 0.05955 0.0
C1534 C 0.09295 0.5231 0.07753 0.0
C1535 C 0.07617 0.48355 0.08671 0.0
C1536 C 0.13951 0.54861 0.07418 0.0
C1537 C 0.10618 0.46943 0.09244 0.0
C1538 C 0.15278 0.49536 0.08956 0.0
C1539 C 0.21656 0.56187 0.07793 0.0
C1540 C 0.23358 0.60147 0.0688 0.0
C1541 C 0.16976 0.53511 0.08054 0.0
C1542 C 0.20324 0.61356 0.06188 0.0
C1543 C 0.15647 0.58749 0.06466 0.0
H1544 H 0.59765 0.61788 0.07223 0.0
H1545 H 0.53872 0.55596 0.11631 0.0
H1546 H 0.47303 0.56582 0.11051 0.0
H1547 H 0.435 0.5964 0.09363 0.0
H1548 H 0.49176 0.65497 0.04895 0.0
H1549 H 0.5551 0.6409 0.05401 0.0
C1550 C 0.57038 0.60662 0.08055 0.0
C1551 C 0.57333 0.58711 0.09484 0.0
C1552 C 0.53221 0.6113 0.07693 0.0
C1553 C 0.53732 0.57149 0.10534 0.0
C1554 C 0.49979 0.57704 0.102 0.0
C1555 C 0.46085 0.60536 0.08488 0.0
C1556 C 0.45878 0.6268 0.07095 0.0
C1557 C 0.49717 0.59739 0.08792 0.0
C1558 C 0.49226 0.63795 0.05967 0.0
C1559 C 0.52879 0.63044 0.06266 0.0
H1560 H 0.08529 0.55985 0.57882 0.0
H1561 H 0.12878 0.6865 0.60305 0.0
H1562 H 0.20789 0.71382 0.59532 0.0
H1563 H 0.26467 0.69875 0.58308 0.0
H1564 H 0.21885 0.57183 0.55856 0.0
H1565 H 0.14012 0.54738 0.56496 0.0
C1566 C 0.11209 0.59358 0.58236 0.0
C1567 C 0.10168 0.62097 0.59169 0.0
C1568 C 0.15681 0.60872 0.57787 0.0
C1569 C 0.13626 0.6649 0.59591 0.0
C1570 C 0.18135 0.68029 0.59156 0.0
C1571 C 0.23735 0.6658 0.57912 0.0
C1572 C 0.24749 0.63692 0.57045 0.0
C1573 C 0.19207 0.65205 0.5828 0.0
C1574 C 0.21188 0.59468 0.56517 0.0
C1575 C 0.16691 0.58062 0.56888 0.0
H1576 H 0.40524 0.42378 0.57261 0.0
H1577 H 0.40459 0.45137 0.62187 0.0
H1578 H 0.40831 0.52338 0.61556 0.0
H1579 H 0.40896 0.57689 0.59622 0.0
H1580 H 0.40991 0.5506 0.54688 0.0
H1581 H 0.40998 0.48002 0.5531 0.0
C1582 C 0.40568 0.44546 0.58197 0.0
C1583 C 0.40403 0.43192 0.59771 0.0
C1584 C 0.40839 0.48717 0.57826 0.0
C1585 C 0.4055 0.46079 0.60968 0.0
C1586 C 0.40777 0.50204 0.60608 0.0
C1587 C 0.40959 0.556 0.58678 0.0
C1588 C 0.40912 0.56887 0.57109 0.0
C1589 C 0.40896 0.51538 0.59043 0.0
C1590 C 0.41041 0.54158 0.55905 0.0
C1591 C 0.41005 0.50103 0.56261 0.0
H1592 H 0.51723 0.96211 0.57253 0.0
H1593 H 0.6267 0.94663 0.59251 0.0
H1594 H 0.59229 0.86977 0.58136 0.0
H1595 H 0.52689 0.80483 0.56845 0.0
H1596 H 0.41842 0.8207 0.54775 0.0
H1597 H 0.45763 0.90068 0.55608 0.0
C1598 C 0.53344 0.94177 0.57439 0.0
C1599 C 0.57353 0.95899 0.58366 0.0
C1600 C 0.51409 0.89832 0.56763 0.0
C1601 C 0.59534 0.93339 0.58562 0.0
C1602 C 0.57582 0.88971 0.5792 0.0
C1603 C 0.51254 0.82626 0.56539 0.0
C1604 C 0.46973 0.80714 0.55771 0.0
C1605 C 0.53473 0.87157 0.57049 0.0
C1606 C 0.45147 0.83495 0.55362 0.0
C1607 C 0.47352 0.88038 0.55859 0.0
H1608 H 0.27749 0.38946 0.27858 0.0
H1609 H 0.3166 0.43541 0.23121 0.0
H1610 H 0.31087 0.50304 0.23643 0.0
H1611 H 0.2997 0.5514 0.2549 0.0
H1612 H 0.26046 0.50528 0.30229 0.0
H1613 H 0.26038 0.43509 0.29647 0.0
C1614 C 0.28475 0.41425 0.26939 0.0
C1615 C 0.2981 0.40766 0.25458 0.0
C1616 C 0.28109 0.45293 0.27243 0.0
C1617 C 0.30658 0.43975 0.24273 0.0
C1618 C 0.30324 0.47843 0.2457 0.0
C1619 C 0.29036 0.52575 0.26392 0.0
C1620 C 0.28062 0.53414 0.2791 0.0
C1621 C 0.29108 0.48564 0.26057 0.0
C1622 C 0.26849 0.50022 0.29056 0.0
C1623 C 0.26865 0.46001 0.28726 0.0
H1624 H 0.62605 0.81659 0.28518 0.0
H1625 H 0.6005 0.90849 0.25732 0.0
H1626 H 0.5197 0.8653 0.26359 0.0
H1627 H 0.45615 0.79961 0.27581 0.0
H1628 H 0.48086 0.70917 0.30478 0.0
H1629 H 0.56269 0.75419 0.2995 0.0
C1630 C 0.60269 0.82706 0.2805 0.0
C1631 C 0.61889 0.86518 0.27061 0.0
C1632 C 0.55646 0.80257 0.28441 0.0
C1633 C 0.58867 0.87913 0.26489 0.0
C1634 C 0.54255 0.85447 0.26846 0.0
C1635 C 0.47951 0.78989 0.28105 0.0
C1636 C 0.46266 0.75085 0.29045 0.0
C1637 C 0.52607 0.8159 0.27804 0.0
C1638 C 0.49321 0.73909 0.29745 0.0
C1639 C 0.53983 0.76463 0.29436 0.0
H1640 H 0.09816 0.72861 0.29365 0.0
H1641 H 0.18238 0.83096 0.26033 0.0
H1642 H 0.24597 0.81852 0.26689 0.0
H1643 H 0.27513 0.77388 0.28039 0.0
H1644 H 0.19343 0.67423 0.31474 0.0
H1645 H 0.13161 0.69113 0.30993 0.0
C1646 C 0.13053 0.74814 0.28788 0.0
C1647 C 0.13545 0.77991 0.27626 0.0
C1648 C 0.16737 0.7417 0.29206 0.0
C1649 C 0.17777 0.80598 0.26916 0.0
C1650 C 0.21411 0.79897 0.27294 0.0
C1651 C 0.24422 0.75683 0.28713 0.0
C1652 C 0.2386 0.72292 0.29788 0.0
C1653 C 0.20903 0.76645 0.28418 0.0
C1654 C 0.19858 0.70087 0.30655 0.0
C1655 C 0.16307 0.71008 0.30362 0.0
loop_
_geom_bond_atom_site_label_1
_geom_bond_atom_site_label_2
_geom_bond_distance
_geom_bond_site_symmetry_2
_ccdc_geom_bond_type
Zn0 O3 2.031 . S
Zn0 O5 2.049 . S
Zn0 O10 2.067 . S
Zn1 O2 1.962 1_545 S
Zn1 O4 1.986 . S
Zn1 O6 1.996 1_545 S
Zn1 O9 1.943 . S
O2 Zn1 1.962 1_565 S
O2 C7 1.254 . S
O3 Zn0 2.031 . S
O3 C7 1.269 . S
O4 Zn1 1.986 . S
O4 C11 1.262 . S
O5 Zn0 2.049 . S
O5 C13 1.260 . S
O6 Zn1 1.996 1_565 S
O6 C13 1.257 . S
C7 O2 1.254 . S
C7 O3 1.269 . S
C8 O9 1.249 . S
C8 O10 1.270 1_545 S
O9 Zn1 1.943 . S
O9 C8 1.249 . S
O10 Zn0 2.067 . S
O10 C8 1.270 1_565 S
C11 O4 1.262 . S
C11 O12 1.232 . S
O12 C11 1.232 . S
C13 O5 1.260 . S
C13 O6 1.257 . S
Zn14 O17 2.031 . S
Zn14 O19 2.049 . S
Zn14 O24 2.067 . S
Zn15 O16 1.962 1_455 S
Zn15 O18 1.986 . S
Zn15 O20 1.996 1_455 S
Zn15 O23 1.943 . S
O16 Zn15 1.962 1_655 S
O16 C21 1.254 . S
O17 Zn14 2.031 . S
O17 C21 1.269 . S
O18 Zn15 1.986 . S
O18 C25 1.262 . S
O19 Zn14 2.049 . S
O19 C27 1.260 . S
O20 Zn15 1.996 1_655 S
O20 C27 1.257 . S
C21 O16 1.254 . S
C21 O17 1.269 . S
C22 O23 1.249 . S
C22 O24 1.270 1_455 S
O23 Zn15 1.943 . S
O23 C22 1.249 . S
O24 Zn14 2.067 . S
O24 C22 1.270 1_655 S
C25 O18 1.262 . S
C25 O26 1.232 . S
O26 C25 1.232 . S
C27 O19 1.260 . S
C27 O20 1.257 . S
Zn28 O31 2.031 . S
Zn28 O33 2.049 . S
Zn28 O38 2.067 . S
Zn29 O30 1.962 . S
Zn29 O32 1.986 . S
Zn29 O34 1.996 . S
Zn29 O37 1.943 . S
O30 Zn29 1.962 . S
O30 C35 1.254 . S
O31 Zn28 2.031 . S
O31 C35 1.269 . S
O32 Zn29 1.986 . S
O32 C39 1.262 . S
O33 Zn28 2.049 . S
O33 C41 1.260 . S
O34 Zn29 1.996 . S
O34 C41 1.257 . S
C35 O30 1.254 . S
C35 O31 1.269 . S
C36 O37 1.249 . S
C36 O38 1.270 . S
O37 Zn29 1.943 . S
O37 C36 1.249 . S
O38 Zn28 2.067 . S
O38 C36 1.270 . S
C39 O32 1.262 . S
C39 O40 1.232 . S
O40 C39 1.232 . S
C41 O33 1.260 . S
C41 O34 1.257 . S
Zn42 O45 2.031 . S
Zn42 O47 2.049 . S
Zn42 O52 2.067 . S
Zn43 O44 1.962 . S
Zn43 O46 1.986 1_545 S
Zn43 O48 1.996 . S
Zn43 O51 1.943 1_545 S
O44 Zn43 1.962 . S
O44 C49 1.254 . S
O45 Zn42 2.031 . S
O45 C49 1.269 . S
O46 Zn43 1.986 1_565 S
O46 C53 1.262 . S
O47 Zn42 2.049 . S
O47 C55 1.260 . S
O48 Zn43 1.996 . S
O48 C55 1.257 . S
C49 O44 1.254 . S
C49 O45 1.269 . S
C50 O51 1.249 1_545 S
C50 O52 1.270 . S
O51 Zn43 1.943 1_565 S
O51 C50 1.249 1_565 S
O52 Zn42 2.067 . S
O52 C50 1.270 . S
C53 O46 1.262 . S
C53 O54 1.232 . S
O54 C53 1.232 . S
C55 O47 1.260 . S
C55 O48 1.257 . S
Zn56 O59 2.031 . S
Zn56 O61 2.049 . S
Zn56 O66 2.067 . S
Zn57 O58 1.962 . S
Zn57 O60 1.986 1_455 S
Zn57 O62 1.996 . S
Zn57 O65 1.943 1_455 S
O58 Zn57 1.962 . S
O58 C63 1.254 . S
O59 Zn56 2.031 . S
O59 C63 1.269 . S
O60 Zn57 1.986 1_655 S
O60 C67 1.262 . S
O61 Zn56 2.049 . S
O61 C69 1.260 . S
O62 Zn57 1.996 . S
O62 C69 1.257 . S
C63 O58 1.254 . S
C63 O59 1.269 . S
C64 O65 1.249 1_455 S
C64 O66 1.270 . S
O65 Zn57 1.943 1_655 S
O65 C64 1.249 1_655 S
O66 Zn56 2.067 . S
O66 C64 1.270 . S
C67 O60 1.262 . S
C67 O68 1.232 . S
O68 C67 1.232 . S
C69 O61 1.260 . S
C69 O62 1.257 . S
Zn70 O73 2.031 . S
Zn70 O75 2.049 . S
Zn70 O80 2.067 . S
Zn71 O72 1.962 . S
Zn71 O74 1.986 . S
Zn71 O76 1.996 . S
Zn71 O79 1.943 . S
O72 Zn71 1.962 . S
O72 C77 1.254 . S
O73 Zn70 2.031 . S
O73 C77 1.269 . S
O74 Zn71 1.986 . S
O74 C81 1.262 . S
O75 Zn70 2.049 . S
O75 C83 1.260 . S
O76 Zn71 1.996 . S
O76 C83 1.257 . S
C77 O72 1.254 . S
C77 O73 1.269 . S
C78 O79 1.249 . S
C78 O80 1.270 . S
O79 Zn71 1.943 . S
O79 C78 1.249 . S
O80 Zn70 2.067 . S
O80 C78 1.270 . S
C81 O74 1.262 . S
C81 O82 1.232 . S
O82 C81 1.232 . S
C83 O75 1.260 . S
C83 O76 1.257 . S
Zn84 O87 2.031 . S
Zn84 O89 2.049 . S
Zn84 O94 2.067 . S
Zn85 O86 1.962 . S
Zn85 O88 1.986 . S
Zn85 O90 1.996 . S
Zn85 O93 1.943 . S
O86 Zn85 1.962 . S
O86 C91 1.254 . S
O87 Zn84 2.031 . S
O87 C91 1.269 . S
O88 Zn85 1.986 . S
O88 C95 1.262 . S
O89 Zn84 2.049 . S
O89 C97 1.260 . S
O90 Zn85 1.996 . S
O90 C97 1.257 . S
C91 O86 1.254 . S
C91 O87 1.269 . S
C92 O93 1.249 . S
C92 O94 1.270 . S
O93 Zn85 1.943 . S
O93 C92 1.249 . S
O94 Zn84 2.067 . S
O94 C92 1.270 . S
C95 O88 1.262 . S
C95 O96 1.232 . S
O96 C95 1.232 . S
C97 O89 1.260 . S
C97 O90 1.257 . S
Zn98 O101 2.031 . S
Zn98 O103 2.049 . S
Zn98 O108 2.067 . S
Zn99 O100 1.947 1_545 S
Zn99 O102 1.986 . S
Zn99 O104 1.996 . S
Zn99 O107 1.943 . S
O100 Zn99 1.947 1_565 S
O100 C105 1.247 . S
O101 Zn98 2.031 . S
O101 C105 1.269 1_545 S
O102 Zn99 1.986 . S
O102 C109 1.262 . S
O103 Zn98 2.049 . S
O103 C111 1.260 . S
O104 Zn99 1.996 . S
O104 C111 1.257 . S
C105 O100 1.247 . S
C105 O101 1.269 1_565 S
C106 O107 1.249 . S
C106 O108 1.270 . S
O107 Zn99 1.943 . S
O107 C106 1.249 . S
O108 Zn98 2.067 . S
O108 C106 1.270 . S
C109 O102 1.262 . S
C109 O110 1.232 . S
O110 C109 1.232 . S
C111 O103 1.260 . S
C111 O104 1.257 . S
Zn112 O115 2.031 1_655 S
Zn112 O117 2.049 . S
Zn112 O122 2.067 . S
Zn113 O114 1.962 1_655 S
Zn113 O116 1.986 . S
Zn113 O118 1.996 . S
Zn113 O121 1.943 . S
O114 Zn113 1.962 1_455 S
O114 C119 1.254 . S
O115 Zn112 2.031 1_455 S
O115 C119 1.269 . S
O116 Zn113 1.986 . S
O116 C123 1.262 . S
O117 Zn112 2.049 . S
O117 C125 1.260 . S
O118 Zn113 1.996 . S
O118 C125 1.257 . S
C119 O114 1.254 . S
C119 O115 1.269 . S
C120 O121 1.249 . S
C120 O122 1.270 . S
O121 Zn113 1.943 . S
O121 C120 1.249 . S
O122 Zn112 2.067 . S
O122 C120 1.270 . S
C123 O116 1.262 . S
C123 O124 1.232 1_655 S
O124 C123 1.232 1_455 S
C125 O117 1.260 . S
C125 O118 1.257 . S
Zn126 O129 2.031 1_655 S
Zn126 O131 2.049 . S
Zn126 O136 2.067 . S
Zn127 O128 1.962 1_655 S
Zn127 O130 1.986 . S
Zn127 O132 1.996 . S
Zn127 O135 1.943 . S
O128 Zn127 1.962 1_455 S
O128 C133 1.254 . S
O129 Zn126 2.031 1_455 S
O129 C133 1.269 . S
O130 Zn127 1.986 . S
O130 C137 1.262 . S
O131 Zn126 2.049 . S
O131 C139 1.260 . S
O132 Zn127 1.996 . S
O132 C139 1.257 . S
C133 O128 1.254 . S
C133 O129 1.269 . S
C134 O135 1.249 . S
C134 O136 1.270 . S
O135 Zn127 1.943 . S
O135 C134 1.249 . S
O136 Zn126 2.067 . S
O136 C134 1.270 . S
C137 O130 1.262 . S
C137 O138 1.232 1_655 S
O138 C137 1.232 1_455 S
C139 O131 1.260 . S
C139 O132 1.257 . S
Zn140 O143 2.031 . S
Zn140 O145 2.049 . S
Zn140 O150 2.067 . S
Zn141 O142 1.962 . S
Zn141 O144 1.986 . S
Zn141 O146 1.996 . S
Zn141 O149 1.943 . S
O142 Zn141 1.962 . S
O142 C147 1.254 . S
O143 Zn140 2.031 . S
O143 C147 1.269 . S
O144 Zn141 1.986 . S
O144 C151 1.262 . S
O145 Zn140 2.049 . S
O145 C153 1.260 . S
O146 Zn141 1.996 . S
O146 C153 1.257 . S
C147 O142 1.254 . S
C147 O143 1.269 . S
C148 O149 1.249 . S
C148 O150 1.270 . S
O149 Zn141 1.943 . S
O149 C148 1.249 . S
O150 Zn140 2.067 . S
O150 C148 1.270 . S
C151 O144 1.262 . S
C151 O152 1.232 . S
O152 C151 1.232 . S
C153 O145 1.260 . S
C153 O146 1.257 . S
Zn154 O157 2.031 . S
Zn154 O159 2.049 . S
Zn154 O164 2.067 . S
Zn155 O156 1.962 . S
Zn155 O158 1.986 . S
Zn155 O160 1.996 . S
Zn155 O163 1.943 . S
O156 Zn155 1.962 . S
O156 C161 1.254 . S
O157 Zn154 2.031 . S
O157 C161 1.269 . S
O158 Zn155 1.986 . S
O158 C165 1.262 1_545 S
O159 Zn154 2.049 . S
O159 C167 1.260 . S
O160 Zn155 1.996 . S
O160 C167 1.257 . S
C161 O156 1.254 . S
C161 O157 1.269 . S
C162 O163 1.249 . S
C162 O164 1.270 . S
O163 Zn155 1.943 . S
O163 C162 1.249 . S
O164 Zn154 2.067 . S
O164 C162 1.270 . S
C165 O158 1.262 1_565 S
C165 O166 1.232 . S
O166 C165 1.232 . S
C167 O159 1.260 . S
C167 O160 1.257 . S
Zn168 O171 2.031 . S
Zn168 O173 2.049 . S
Zn168 O178 2.067 . S
Zn169 O170 1.962 . S
Zn169 O172 1.986 . S
Zn169 O174 1.996 . S
Zn169 O177 1.943 . S
O170 Zn169 1.962 . S
O170 C175 1.254 . S
O171 Zn168 2.031 . S
O171 C175 1.269 . S
O172 Zn169 1.986 . S
O172 C179 1.262 . S
O173 Zn168 2.049 . S
O173 C181 1.260 . S
O174 Zn169 1.996 . S
O174 C181 1.257 . S
C175 O170 1.254 . S
C175 O171 1.269 . S
C176 O177 1.249 . S
C176 O178 1.270 . S
O177 Zn169 1.943 . S
O177 C176 1.249 . S
O178 Zn168 2.067 . S
O178 C176 1.270 . S
C179 O172 1.262 . S
C179 O180 1.232 . S
O180 C179 1.232 . S
C181 O173 1.260 . S
C181 O174 1.257 . S
Zn182 O185 2.031 . S
Zn182 O187 2.049 . S
Zn182 O192 2.067 . S
Zn183 O184 1.962 . S
Zn183 O186 1.986 . S
Zn183 O188 1.996 . S
Zn183 O191 1.943 . S
O184 Zn183 1.962 . S
O184 C189 1.254 . S
O185 Zn182 2.031 . S
O185 C189 1.269 . S
O186 Zn183 1.986 . S
O186 C193 1.262 . S
O187 Zn182 2.049 . S
O187 C195 1.260 . S
O188 Zn183 1.996 . S
O188 C195 1.257 . S
C189 O184 1.254 . S
C189 O185 1.269 . S
C190 O191 1.249 . S
C190 O192 1.270 . S
O191 Zn183 1.943 . S
O191 C190 1.249 . S
O192 Zn182 2.067 . S
O192 C190 1.270 . S
C193 O186 1.262 . S
C193 O194 1.232 . S
O194 C193 1.232 . S
C195 O187 1.260 . S
C195 O188 1.257 . S
Zn196 O199 2.031 . S
Zn196 O201 2.049 . S
Zn196 O206 2.067 . S
Zn197 O198 1.962 . S
Zn197 O200 1.986 1_565 S
Zn197 O202 1.996 . S
Zn197 O205 1.943 . S
O198 Zn197 1.962 . S
O198 C203 1.254 . S
O199 Zn196 2.031 . S
O199 C203 1.269 . S
O200 Zn197 1.986 1_545 S
O200 C207 1.262 . S
O201 Zn196 2.049 . S
O201 C209 1.260 . S
O202 Zn197 1.996 . S
O202 C209 1.257 . S
C203 O198 1.254 . S
C203 O199 1.269 . S
C204 O205 1.249 . S
C204 O206 1.270 . S
O205 Zn197 1.943 . S
O205 C204 1.249 . S
O206 Zn196 2.067 . S
O206 C204 1.270 . S
C207 O200 1.262 . S
C207 O208 1.232 . S
O208 C207 1.232 . S
C209 O201 1.260 . S
C209 O202 1.257 . S
Zn210 O213 2.031 . S
Zn210 O215 2.049 . S
Zn210 O220 2.067 . S
Zn211 O212 1.962 . S
Zn211 O214 1.986 . S
Zn211 O216 1.996 . S
Zn211 O219 1.943 . S
O212 Zn211 1.962 . S
O212 C217 1.254 . S
O213 Zn210 2.031 . S
O213 C217 1.269 . S
O214 Zn211 1.986 . S
O214 C221 1.262 . S
O215 Zn210 2.049 . S
O215 C223 1.260 . S
O216 Zn211 1.996 . S
O216 C223 1.257 . S
C217 O212 1.254 . S
C217 O213 1.269 . S
C218 O219 1.249 . S
C218 O220 1.270 . S
O219 Zn211 1.943 . S
O219 C218 1.249 . S
O220 Zn210 2.067 . S
O220 C218 1.270 . S
C221 O214 1.262 . S
C221 O222 1.232 . S
O222 C221 1.232 . S
C223 O215 1.260 . S
C223 O216 1.257 . S
Zn224 O227 2.031 1_565 S
Zn224 O229 2.049 . S
Zn224 O234 2.067 . S
Zn225 O226 1.962 1_565 S
Zn225 O228 1.986 . S
Zn225 O230 1.996 . S
Zn225 O233 1.943 . S
O226 Zn225 1.962 1_545 S
O226 C231 1.254 . S
O227 Zn224 2.031 1_545 S
O227 C231 1.269 . S
O228 Zn225 1.986 . S
O228 C235 1.262 . S
O229 Zn224 2.049 . S
O229 C237 1.260 . S
O230 Zn225 1.996 . S
O230 C237 1.257 . S
C231 O226 1.254 . S
C231 O227 1.269 . S
C232 O233 1.249 . S
C232 O234 1.270 . S
O233 Zn225 1.943 . S
O233 C232 1.249 . S
O234 Zn224 2.067 . S
O234 C232 1.270 . S
C235 O228 1.262 . S
C235 O236 1.232 . S
O236 C235 1.232 . S
C237 O229 1.260 . S
C237 O230 1.257 . S
Zn238 O241 2.031 . S
Zn238 O243 2.049 . S
Zn238 O248 2.067 . S
Zn239 O240 1.962 . S
Zn239 O242 1.986 . S
Zn239 O244 1.996 . S
Zn239 O247 1.943 . S
O240 Zn239 1.962 . S
O240 C245 1.248 1_455 S
O241 Zn238 2.031 . S
O241 C245 1.264 1_455 S
O242 Zn239 1.986 . S
O242 C249 1.262 . S
O243 Zn238 2.049 . S
O243 C251 1.260 . S
O244 Zn239 1.996 . S
O244 C251 1.257 . S
C245 O240 1.248 1_655 S
C245 O241 1.264 1_655 S
C246 O247 1.249 . S
C246 O248 1.270 . S
O247 Zn239 1.943 . S
O247 C246 1.249 . S
O248 Zn238 2.067 . S
O248 C246 1.270 . S
C249 O242 1.262 . S
C249 O250 1.232 . S
O250 C249 1.232 . S
C251 O243 1.260 . S
C251 O244 1.257 . S
Zn252 O258 1.920 . S
Zn252 O264 1.898 1_445 S
Zn252 O267 1.905 . S
Zn253 O261 1.905 1_545 S
Zn253 O262 1.898 . S
Zn253 O270 1.920 1_455 S
Zn254 O257 2.080 . S
Zn254 O260 2.114 1_545 S
Zn254 O263 2.120 . S
Zn254 O265 2.120 1_445 S
Zn254 O266 2.114 . S
Zn254 O269 2.080 1_455 S
C255 O260 1.166 . S
C255 O261 1.182 . S
C256 O262 1.167 . S
C256 O263 1.299 . S
O257 Zn254 2.080 . S
O257 C271 1.305 . S
O258 Zn252 1.920 . S
O258 C271 1.234 . S
C259 O264 1.167 . S
C259 O265 1.299 . S
O260 Zn254 2.114 1_565 S
O260 C255 1.166 . S
O261 Zn253 1.905 1_565 S
O261 C255 1.182 . S
O262 Zn253 1.898 . S
O262 C256 1.167 . S
O263 Zn254 2.120 . S
O263 C256 1.299 . S
O264 Zn252 1.898 1_665 S
O264 C259 1.167 . S
O265 Zn254 2.120 1_665 S
O265 C259 1.299 . S
O266 Zn254 2.114 . S
O266 C268 1.166 . S
O267 Zn252 1.905 . S
O267 C268 1.182 . S
C268 O266 1.166 . S
C268 O267 1.182 . S
O269 Zn254 2.080 1_655 S
O269 C272 1.305 . S
O270 Zn253 1.920 1_655 S
O270 C272 1.234 . S
C271 O257 1.305 . S
C271 O258 1.234 . S
C272 O269 1.305 . S
C272 O270 1.234 . S
Zn273 O279 1.920 1_545 S
Zn273 O285 1.898 . S
Zn273 O288 1.905 1_445 S
Zn274 O282 1.905 . S
Zn274 O283 1.898 1_445 S
Zn274 O291 1.920 1_545 S
Zn275 O278 2.080 1_545 S
Zn275 O281 2.114 . S
Zn275 O284 2.120 1_445 S
Zn275 O286 2.120 . S
Zn275 O287 2.114 1_455 S
Zn275 O290 2.080 . S
C276 O281 1.166 . S
C276 O282 1.182 . S
C277 O283 1.167 . S
C277 O284 1.299 . S
O278 Zn275 2.080 1_565 S
O278 C292 1.305 . S
O279 Zn273 1.920 1_565 S
O279 C292 1.234 . S
C280 O285 1.167 . S
C280 O286 1.299 . S
O281 Zn275 2.114 . S
O281 C276 1.166 . S
O282 Zn274 1.905 . S
O282 C276 1.182 . S
O283 Zn274 1.898 1_665 S
O283 C277 1.167 . S
O284 Zn275 2.120 1_665 S
O284 C277 1.299 . S
O285 Zn273 1.898 . S
O285 C280 1.167 . S
O286 Zn275 2.120 . S
O286 C280 1.299 . S
O287 Zn275 2.114 1_655 S
O287 C289 1.166 . S
O288 Zn273 1.905 1_665 S
O288 C289 1.182 1_565 S
C289 O287 1.166 . S
C289 O288 1.182 1_545 S
O290 Zn275 2.080 . S
O290 C293 1.305 1_545 S
O291 Zn274 1.920 1_565 S
O291 C293 1.234 . S
C292 O278 1.305 . S
C292 O279 1.234 . S
C293 O290 1.305 1_565 S
C293 O291 1.234 . S
Zn294 O300 1.920 1_545 S
Zn294 O306 1.898 . S
Zn294 O309 1.905 1_445 S
Zn295 O303 1.905 . S
Zn295 O304 1.898 1_445 S
Zn295 O312 1.920 . S
Zn296 O299 2.080 1_545 S
Zn296 O302 2.114 . S
Zn296 O305 2.120 1_445 S
Zn296 O307 2.120 . S
Zn296 O308 2.114 1_455 S
Zn296 O311 2.080 . S
C297 O302 1.166 . S
C297 O303 1.182 . S
C298 O304 1.167 . S
C298 O305 1.299 . S
O299 Zn296 2.080 1_565 S
O299 C313 1.305 . S
O300 Zn294 1.920 1_565 S
O300 C313 1.234 . S
C301 O306 1.167 . S
C301 O307 1.299 . S
O302 Zn296 2.114 . S
O302 C297 1.166 . S
O303 Zn295 1.905 . S
O303 C297 1.182 . S
O304 Zn295 1.898 1_665 S
O304 C298 1.167 . S
O305 Zn296 2.120 1_665 S
O305 C298 1.299 . S
O306 Zn294 1.898 . S
O306 C301 1.167 . S
O307 Zn296 2.120 . S
O307 C301 1.299 . S
O308 Zn296 2.114 1_655 S
O308 C310 1.171 . S
O309 Zn294 1.905 1_665 S
O309 C310 1.177 1_565 S
C310 O308 1.171 . S
C310 O309 1.177 1_545 S
O311 Zn296 2.080 . S
O311 C314 1.305 . S
O312 Zn295 1.920 . S
O312 C314 1.234 . S
C313 O299 1.305 . S
C313 O300 1.234 . S
C314 O311 1.305 . S
C314 O312 1.234 . S
Zn315 O321 1.920 . S
Zn315 O327 1.898 1_445 S
Zn315 O330 1.905 . S
Zn316 O324 1.905 1_545 S
Zn316 O325 1.898 . S
Zn316 O333 1.920 1_455 S
Zn317 O320 2.080 . S
Zn317 O323 2.114 1_545 S
Zn317 O326 2.120 . S
Zn317 O328 2.120 1_445 S
Zn317 O329 2.114 . S
Zn317 O332 2.080 1_455 S
C318 O323 1.166 . S
C318 O324 1.182 . S
C319 O325 1.167 . S
C319 O326 1.299 . S
O320 Zn317 2.080 . S
O320 C334 1.305 . S
O321 Zn315 1.920 . S
O321 C334 1.234 . S
C322 O327 1.167 . S
C322 O328 1.299 . S
O323 Zn317 2.114 1_565 S
O323 C318 1.166 . S
O324 Zn316 1.905 1_565 S
O324 C318 1.182 . S
O325 Zn316 1.898 . S
O325 C319 1.167 . S
O326 Zn317 2.120 . S
O326 C319 1.299 . S
O327 Zn315 1.898 1_665 S
O327 C322 1.167 . S
O328 Zn317 2.120 1_665 S
O328 C322 1.299 . S
O329 Zn317 2.114 . S
O329 C331 1.166 . S
O330 Zn315 1.905 . S
O330 C331 1.182 . S
C331 O329 1.166 . S
C331 O330 1.182 . S
O332 Zn317 2.080 1_655 S
O332 C335 1.305 . S
O333 Zn316 1.920 1_655 S
O333 C335 1.234 . S
C334 O320 1.305 . S
C334 O321 1.234 . S
C335 O332 1.305 . S
C335 O333 1.234 . S
Zn336 O342 1.920 . S
Zn336 O348 1.898 . S
Zn336 O351 1.905 . S
Zn337 O345 1.905 . S
Zn337 O346 1.898 . S
Zn337 O354 1.920 . S
Zn338 O341 2.080 . S
Zn338 O344 2.114 . S
Zn338 O347 2.120 . S
Zn338 O349 2.120 . S
Zn338 O350 2.114 . S
Zn338 O353 2.080 . S
C339 O344 1.166 . S
C339 O345 1.182 . S
C340 O346 1.167 . S
C340 O347 1.299 . S
O341 Zn338 2.080 . S
O341 C355 1.305 . S
O342 Zn336 1.920 . S
O342 C355 1.234 . S
C343 O348 1.167 . S
C343 O349 1.299 . S
O344 Zn338 2.114 . S
O344 C339 1.166 . S
O345 Zn337 1.905 . S
O345 C339 1.182 . S
O346 Zn337 1.898 . S
O346 C340 1.167 . S
O347 Zn338 2.120 . S
O347 C340 1.299 . S
O348 Zn336 1.898 . S
O348 C343 1.167 . S
O349 Zn338 2.120 . S
O349 C343 1.299 . S
O350 Zn338 2.114 . S
O350 C352 1.166 . S
O351 Zn336 1.905 . S
O351 C352 1.182 . S
C352 O350 1.166 . S
C352 O351 1.182 . S
O353 Zn338 2.080 . S
O353 C356 1.305 . S
O354 Zn337 1.920 . S
O354 C356 1.234 . S
C355 O341 1.305 . S
C355 O342 1.234 . S
C356 O353 1.305 . S
C356 O354 1.234 . S
Zn357 O363 1.920 . S
Zn357 O369 1.898 . S
Zn357 O372 1.905 . S
Zn358 O366 1.905 . S
Zn358 O367 1.898 . S
Zn358 O375 1.920 . S
Zn359 O362 2.080 . S
Zn359 O365 2.114 . S
Zn359 O368 2.120 . S
Zn359 O370 2.120 . S
Zn359 O371 2.114 . S
Zn359 O374 2.080 . S
C360 O365 1.166 . S
C360 O366 1.182 . S
C361 O367 1.167 . S
C361 O368 1.299 . S
O362 Zn359 2.080 . S
O362 C376 1.305 . S
O363 Zn357 1.920 . S
O363 C376 1.234 . S
C364 O369 1.167 . S
C364 O370 1.299 . S
O365 Zn359 2.114 . S
O365 C360 1.166 . S
O366 Zn358 1.905 . S
O366 C360 1.182 . S
O367 Zn358 1.898 . S
O367 C361 1.167 . S
O368 Zn359 2.120 . S
O368 C361 1.299 . S
O369 Zn357 1.898 . S
O369 C364 1.167 . S
O370 Zn359 2.120 . S
O370 C364 1.299 . S
O371 Zn359 2.114 . S
O371 C373 1.166 . S
O372 Zn357 1.905 . S
O372 C373 1.182 . S
C373 O371 1.166 . S
C373 O372 1.182 . S
O374 Zn359 2.080 . S
O374 C377 1.305 . S
O375 Zn358 1.920 . S
O375 C377 1.234 . S
C376 O362 1.305 . S
C376 O363 1.234 . S
C377 O374 1.305 . S
C377 O375 1.234 . S
Zn378 O384 1.920 . S
Zn378 O390 1.898 . S
Zn378 O393 1.905 . S
Zn379 O387 1.905 . S
Zn379 O388 1.898 . S
Zn379 O396 1.920 . S
Zn380 O383 2.080 . S
Zn380 O386 2.114 . S
Zn380 O389 2.120 . S
Zn380 O391 2.120 . S
Zn380 O392 2.114 . S
Zn380 O395 2.080 . S
C381 O386 1.166 . S
C381 O387 1.182 . S
C382 O388 1.167 . S
C382 O389 1.299 . S
O383 Zn380 2.080 . S
O383 C397 1.305 . S
O384 Zn378 1.920 . S
O384 C397 1.234 . S
C385 O390 1.167 . S
C385 O391 1.299 . S
O386 Zn380 2.114 . S
O386 C381 1.166 . S
O387 Zn379 1.905 . S
O387 C381 1.182 . S
O388 Zn379 1.898 . S
O388 C382 1.167 . S
O389 Zn380 2.120 . S
O389 C382 1.299 . S
O390 Zn378 1.898 . S
O390 C385 1.167 . S
O391 Zn380 2.120 . S
O391 C385 1.299 . S
O392 Zn380 2.114 . S
O392 C394 1.166 . S
O393 Zn378 1.905 . S
O393 C394 1.182 . S
C394 O392 1.166 . S
C394 O393 1.182 . S
O395 Zn380 2.080 . S
O395 C398 1.305 . S
O396 Zn379 1.920 . S
O396 C398 1.234 . S
C397 O383 1.305 . S
C397 O384 1.234 . S
C398 O395 1.305 . S
C398 O396 1.234 . S
Zn399 O405 1.920 . S
Zn399 O411 1.898 . S
Zn399 O414 1.905 . S
Zn400 O408 1.905 . S
Zn400 O409 1.898 . S
Zn400 O417 1.920 . S
Zn401 O404 2.080 . S
Zn401 O407 2.114 . S
Zn401 O410 2.120 . S
Zn401 O412 2.120 . S
Zn401 O413 2.114 . S
Zn401 O416 2.080 . S
C402 O407 1.166 . S
C402 O408 1.182 . S
C403 O409 1.167 . S
C403 O410 1.299 . S
O404 Zn401 2.080 . S
O404 C418 1.305 1_556 S
O405 Zn399 1.920 . S
O405 C418 1.234 . S
C406 O411 1.167 . S
C406 O412 1.299 1_554 S
O407 Zn401 2.114 . S
O407 C402 1.166 . S
O408 Zn400 1.905 . S
O408 C402 1.182 . S
O409 Zn400 1.898 . S
O409 C403 1.167 . S
O410 Zn401 2.120 . S
O410 C403 1.299 . S
O411 Zn399 1.898 . S
O411 C406 1.167 . S
O412 Zn401 2.120 . S
O412 C406 1.299 1_556 S
O413 Zn401 2.114 . S
O413 C415 1.166 1_556 S
O414 Zn399 1.905 . S
O414 C415 1.182 . S
C415 O413 1.166 1_554 S
C415 O414 1.182 . S
O416 Zn401 2.080 . S
O416 C419 1.305 . S
O417 Zn400 1.920 . S
O417 C419 1.234 . S
C418 O404 1.305 1_554 S
C418 O405 1.234 . S
C419 O416 1.305 . S
C419 O417 1.234 . S
Zn420 O426 1.920 . S
Zn420 O432 1.898 . S
Zn420 O435 1.905 . S
Zn421 O429 1.905 . S
Zn421 O430 1.898 . S
Zn421 O438 1.920 . S
Zn422 O425 2.080 . S
Zn422 O428 2.114 . S
Zn422 O431 2.120 . S
Zn422 O433 2.120 . S
Zn422 O434 2.114 . S
Zn422 O437 2.080 . S
C423 O428 1.166 . S
C423 O429 1.182 . S
C424 O430 1.167 . S
C424 O431 1.299 . S
O425 Zn422 2.080 . S
O425 C439 1.305 . S
O426 Zn420 1.920 . S
O426 C439 1.234 . S
C427 O432 1.167 . S
C427 O433 1.299 . S
O428 Zn422 2.114 . S
O428 C423 1.166 . S
O429 Zn421 1.905 . S
O429 C423 1.182 . S
O430 Zn421 1.898 . S
O430 C424 1.167 . S
O431 Zn422 2.120 . S
O431 C424 1.299 . S
O432 Zn420 1.898 . S
O432 C427 1.167 . S
O433 Zn422 2.120 . S
O433 C427 1.299 . S
O434 Zn422 2.114 . S
O434 C436 1.166 . S
O435 Zn420 1.905 . S
O435 C436 1.182 . S
C436 O434 1.166 . S
C436 O435 1.182 . S
O437 Zn422 2.080 . S
O437 C440 1.305 . S
O438 Zn421 1.920 . S
O438 C440 1.234 . S
C439 O425 1.305 . S
C439 O426 1.234 . S
C440 O437 1.305 . S
C440 O438 1.234 . S
Zn441 O447 1.920 . S
Zn441 O453 1.898 . S
Zn441 O456 1.905 . S
Zn442 O450 1.905 . S
Zn442 O451 1.898 . S
Zn442 O459 1.920 . S
Zn443 O446 2.080 . S
Zn443 O449 2.114 . S
Zn443 O452 2.120 . S
Zn443 O454 2.120 . S
Zn443 O455 2.114 . S
Zn443 O458 2.080 . S
C444 O449 1.166 1_556 S
C444 O450 1.182 . S
C445 O451 1.167 . S
C445 O452 1.299 1_556 S
O446 Zn443 2.080 . S
O446 C460 1.305 . S
O447 Zn441 1.920 . S
O447 C460 1.234 . S
C448 O453 1.167 . S
C448 O454 1.299 . S
O449 Zn443 2.114 . S
O449 C444 1.166 1_554 S
O450 Zn442 1.905 . S
O450 C444 1.182 . S
O451 Zn442 1.898 . S
O451 C445 1.167 . S
O452 Zn443 2.120 . S
O452 C445 1.299 1_554 S
O453 Zn441 1.898 . S
O453 C448 1.167 . S
O454 Zn443 2.120 . S
O454 C448 1.299 . S
O455 Zn443 2.114 . S
O455 C457 1.166 . S
O456 Zn441 1.905 . S
O456 C457 1.182 . S
C457 O455 1.166 . S
C457 O456 1.182 . S
O458 Zn443 2.080 . S
O458 C461 1.305 1_554 S
O459 Zn442 1.920 . S
O459 C461 1.234 . S
C460 O446 1.305 . S
C460 O447 1.234 . S
C461 O458 1.305 1_556 S
C461 O459 1.234 . S
Zn462 O468 1.920 . S
Zn462 O474 1.898 . S
Zn462 O477 1.905 . S
Zn463 O471 1.905 . S
Zn463 O472 1.898 . S
Zn463 O480 1.920 . S
Zn464 O467 2.080 . S
Zn464 O470 2.114 . S
Zn464 O473 2.120 . S
Zn464 O475 2.120 . S
Zn464 O476 2.114 . S
Zn464 O479 2.080 . S
C465 O470 1.166 . S
C465 O471 1.182 . S
C466 O472 1.167 . S
C466 O473 1.299 . S
O467 Zn464 2.080 . S
O467 C481 1.305 . S
O468 Zn462 1.920 . S
O468 C481 1.234 . S
C469 O474 1.167 . S
C469 O475 1.299 . S
O470 Zn464 2.114 . S
O470 C465 1.166 . S
O471 Zn463 1.905 . S
O471 C465 1.182 . S
O472 Zn463 1.898 . S
O472 C466 1.167 . S
O473 Zn464 2.120 . S
O473 C466 1.299 . S
O474 Zn462 1.898 . S
O474 C469 1.167 . S
O475 Zn464 2.120 . S
O475 C469 1.299 . S
O476 Zn464 2.114 . S
O476 C478 1.166 . S
O477 Zn462 1.905 . S
O477 C478 1.182 . S
C478 O476 1.166 . S
C478 O477 1.182 . S
O479 Zn464 2.080 . S
O479 C482 1.305 . S
O480 Zn463 1.920 . S
O480 C482 1.234 . S
C481 O467 1.305 . S
C481 O468 1.234 . S
C482 O479 1.305 . S
C482 O480 1.234 . S
Zn483 O489 1.920 . S
Zn483 O495 1.898 . S
Zn483 O498 1.905 . S
Zn484 O492 1.905 . S
Zn484 O493 1.898 . S
Zn484 O501 1.920 . S
Zn485 O488 2.080 . S
Zn485 O491 2.114 . S
Zn485 O494 2.120 . S
Zn485 O496 2.120 . S
Zn485 O497 2.114 . S
Zn485 O500 2.080 . S
C486 O491 1.166 . S
C486 O492 1.182 . S
C487 O493 1.167 . S
C487 O494 1.299 . S
O488 Zn485 2.080 . S
O488 C502 1.305 . S
O489 Zn483 1.920 . S
O489 C502 1.234 . S
C490 O495 1.167 . S
C490 O496 1.299 . S
O491 Zn485 2.114 . S
O491 C486 1.166 . S
O492 Zn484 1.905 . S
O492 C486 1.182 . S
O493 Zn484 1.898 . S
O493 C487 1.167 . S
O494 Zn485 2.120 . S
O494 C487 1.299 . S
O495 Zn483 1.898 . S
O495 C490 1.167 . S
O496 Zn485 2.120 . S
O496 C490 1.299 . S
O497 Zn485 2.114 . S
O497 C499 1.166 . S
O498 Zn483 1.905 . S
O498 C499 1.182 . S
C499 O497 1.166 . S
C499 O498 1.182 . S
O500 Zn485 2.080 . S
O500 C503 1.305 . S
O501 Zn484 1.920 . S
O501 C503 1.234 . S
C502 O488 1.305 . S
C502 O489 1.234 . S
C503 O500 1.305 . S
C503 O501 1.234 . S
H504 C510 0.930 . S
H505 C513 0.930 . S
H506 C514 0.930 . S
H507 C515 0.930 . S
H508 C518 0.930 . S
H509 C519 0.930 . S
C510 H504 0.930 . S
C510 C511 1.355 . S
C510 C512 1.415 . S
C511 C510 1.355 . S
C511 C513 1.419 . S
C512 C510 1.415 . S
C512 C517 1.425 . S
C512 C519 1.409 . S
C513 H505 0.930 . S
C513 C511 1.419 . S
C513 C514 1.362 . S
C514 H506 0.930 . S
C514 C513 1.362 . S
C514 C517 1.409 . S
C515 H507 0.930 . S
C515 C516 1.355 . S
C515 C517 1.415 . S
C516 C515 1.355 . S
C516 C518 1.419 . S
C517 C512 1.425 . S
C517 C514 1.409 . S
C517 C515 1.415 . S
C518 H508 0.930 . S
C518 C516 1.419 . S
C518 C519 1.362 . S
C519 H509 0.930 . S
C519 C512 1.409 . S
C519 C518 1.362 . S
H520 C526 0.930 . S
H521 C529 0.930 . S
H522 C530 0.930 . S
H523 C531 0.930 1_565 S
H524 C534 0.930 . S
H525 C535 0.930 . S
C526 H520 0.930 . S
C526 C527 1.355 1_545 S
C526 C528 1.415 . S
C527 C526 1.355 1_565 S
C527 C529 1.419 . S
C528 C526 1.415 . S
C528 C533 1.410 1_545 S
C528 C535 1.409 . S
C529 H521 0.930 . S
C529 C527 1.419 . S
C529 C530 1.362 . S
C530 H522 0.930 . S
C530 C529 1.362 . S
C530 C533 1.418 . S
C531 H523 0.930 1_545 S
C531 C532 1.355 . S
C531 C533 1.421 1_545 S
C532 C531 1.355 . S
C532 C534 1.419 . S
C533 C528 1.410 1_565 S
C533 C530 1.418 . S
C533 C531 1.421 1_565 S
C534 H524 0.930 . S
C534 C532 1.419 . S
C534 C535 1.362 . S
C535 H525 0.930 . S
C535 C528 1.409 . S
C535 C534 1.362 . S
H536 C542 0.930 1_655 S
H537 C545 0.930 . S
H538 C546 0.930 . S
H539 C547 0.930 . S
H540 C550 0.930 . S
H541 C551 0.930 . S
C542 H536 0.930 1_455 S
C542 C543 1.355 . S
C542 C544 1.415 . S
C543 C542 1.355 . S
C543 C545 1.419 . S
C544 C542 1.415 . S
C544 C549 1.425 . S
C544 C551 1.409 1_455 S
C545 H537 0.930 . S
C545 C543 1.419 . S
C545 C546 1.362 . S
C546 H538 0.930 . S
C546 C545 1.362 . S
C546 C549 1.409 . S
C547 H539 0.930 . S
C547 C548 1.355 . S
C547 C549 1.415 . S
C548 C547 1.355 . S
C548 C550 1.419 1_455 S
C549 C544 1.425 . S
C549 C546 1.409 . S
C549 C547 1.415 . S
C550 H540 0.930 . S
C550 C548 1.419 1_655 S
C550 C551 1.362 . S
C551 H541 0.930 . S
C551 C544 1.409 1_655 S
C551 C550 1.362 . S
H552 C558 0.930 . S
H553 C561 0.930 . S
H554 C562 0.930 . S
H555 C563 0.930 . S
H556 C566 0.930 . S
H557 C567 0.930 . S
C558 H552 0.930 . S
C558 C559 1.355 . S
C558 C560 1.415 . S
C559 C558 1.355 . S
C559 C561 1.419 . S
C560 C558 1.415 . S
C560 C565 1.425 . S
C560 C567 1.409 . S
C561 H553 0.930 . S
C561 C559 1.419 . S
C561 C562 1.362 . S
C562 H554 0.930 . S
C562 C561 1.362 . S
C562 C565 1.409 . S
C563 H555 0.930 . S
C563 C564 1.355 . S
C563 C565 1.415 . S
C564 C563 1.355 . S
C564 C566 1.419 . S
C565 C560 1.425 . S
C565 C562 1.409 . S
C565 C563 1.415 . S
C566 H556 0.930 . S
C566 C564 1.419 . S
C566 C567 1.362 . S
C567 H557 0.930 . S
C567 C560 1.409 . S
C567 C566 1.362 . S
H568 C574 0.948 . S
H569 C577 0.930 . S
H570 C578 0.930 . S
H571 C579 0.930 . S
H572 C582 0.930 . S
H573 C583 0.930 . S
C574 H568 0.948 . S
C574 C575 1.326 1_565 S
C574 C576 1.426 . S
C575 C574 1.326 1_545 S
C575 C577 1.419 . S
C576 C574 1.426 . S
C576 C581 1.425 1_565 S
C576 C583 1.409 . S
C577 H569 0.930 . S
C577 C575 1.419 . S
C577 C578 1.362 . S
C578 H570 0.930 . S
C578 C577 1.362 . S
C578 C581 1.409 . S
C579 H571 0.930 . S
C579 C580 1.355 1_545 S
C579 C581 1.415 . S
C580 C579 1.355 1_565 S
C580 C582 1.419 . S
C581 C576 1.425 1_545 S
C581 C578 1.409 . S
C581 C579 1.415 . S
C582 H572 0.930 . S
C582 C580 1.419 . S
C582 C583 1.362 . S
C583 H573 0.930 . S
C583 C576 1.409 . S
C583 C582 1.362 . S
H584 C590 0.930 . S
H585 C593 0.930 . S
H586 C594 0.930 . S
H587 C595 0.930 . S
H588 C598 0.930 . S
H589 C599 0.930 . S
C590 H584 0.930 . S
C590 C591 1.359 . S
C590 C592 1.415 . S
C591 C590 1.359 . S
C591 C593 1.409 1_455 S
C592 C590 1.415 . S
C592 C597 1.425 1_455 S
C592 C599 1.409 . S
C593 H585 0.930 . S
C593 C591 1.409 1_655 S
C593 C594 1.362 . S
C594 H586 0.930 . S
C594 C593 1.362 . S
C594 C597 1.409 . S
C595 H587 0.930 . S
C595 C596 1.355 1_655 S
C595 C597 1.415 . S
C596 C595 1.355 1_455 S
C596 C598 1.419 . S
C597 C592 1.425 1_655 S
C597 C594 1.409 . S
C597 C595 1.415 . S
C598 H588 0.930 . S
C598 C596 1.419 . S
C598 C599 1.362 . S
C599 H589 0.930 . S
C599 C592 1.409 . S
C599 C598 1.362 . S
H600 C606 0.930 . S
H601 C609 0.930 . S
H602 C610 0.930 . S
H603 C611 0.930 . S
H604 C614 0.930 . S
H605 C615 0.930 . S
C606 H600 0.930 . S
C606 C607 1.355 . S
C606 C608 1.415 . S
C607 C606 1.355 . S
C607 C609 1.419 . S
C608 C606 1.415 . S
C608 C613 1.425 . S
C608 C615 1.409 . S
C609 H601 0.930 . S
C609 C607 1.419 . S
C609 C610 1.362 . S
C610 H602 0.930 . S
C610 C609 1.362 . S
C610 C613 1.409 . S
C611 H603 0.930 . S
C611 C612 1.355 . S
C611 C613 1.415 . S
C612 C611 1.355 . S
C612 C614 1.419 . S
C613 C608 1.425 . S
C613 C610 1.409 . S
C613 C611 1.415 . S
C614 H604 0.930 . S
C614 C612 1.419 . S
C614 C615 1.362 . S
C615 H605 0.930 . S
C615 C608 1.409 . S
C615 C614 1.362 . S
H616 C622 0.930 . S
H617 C625 0.930 . S
H618 C626 0.930 . S
H619 C627 0.930 . S
H620 C630 0.930 1_565 S
H621 C631 0.930 . S
C622 H616 0.930 . S
C622 C623 1.355 . S
C622 C624 1.415 . S
C623 C622 1.355 . S
C623 C625 1.419 . S
C624 C622 1.415 . S
C624 C629 1.425 . S
C624 C631 1.409 . S
C625 H617 0.930 . S
C625 C623 1.419 . S
C625 C626 1.362 . S
C626 H618 0.930 . S
C626 C625 1.362 . S
C626 C629 1.409 . S
C627 H619 0.930 . S
C627 C628 1.355 . S
C627 C629 1.415 . S
C628 C627 1.355 . S
C628 C630 1.419 . S
C629 C624 1.425 . S
C629 C626 1.409 . S
C629 C627 1.415 . S
C630 H620 0.930 1_545 S
C630 C628 1.419 . S
C630 C631 1.362 . S
C631 H621 0.930 . S
C631 C624 1.409 . S
C631 C630 1.362 . S
H632 C638 0.930 . S
H633 C641 0.930 . S
H634 C642 0.930 . S
H635 C643 0.930 . S
H636 C646 0.930 . S
H637 C647 0.930 . S
C638 H632 0.930 . S
C638 C639 1.355 . S
C638 C640 1.415 . S
C639 C638 1.355 . S
C639 C641 1.419 1_455 S
C640 C638 1.415 . S
C640 C645 1.438 . S
C640 C647 1.409 . S
C641 H633 0.930 . S
C641 C639 1.419 1_655 S
C641 C642 1.362 . S
C642 H634 0.930 . S
C642 C641 1.362 . S
C642 C645 1.390 1_655 S
C643 H635 0.930 . S
C643 C644 1.354 1_655 S
C643 C645 1.421 1_655 S
C644 C643 1.354 1_455 S
C644 C646 1.419 . S
C645 C640 1.438 . S
C645 C642 1.390 1_455 S
C645 C643 1.421 1_455 S
C646 H636 0.930 . S
C646 C644 1.419 . S
C646 C647 1.362 . S
C647 H637 0.930 . S
C647 C640 1.409 . S
C647 C646 1.362 . S
H648 C654 0.930 . S
H649 C657 0.930 . S
H650 C658 0.930 . S
H651 C659 0.930 . S
H652 C662 0.930 . S
H653 C663 0.930 . S
C654 H648 0.930 . S
C654 C655 1.355 . S
C654 C656 1.415 . S
C655 C654 1.355 . S
C655 C657 1.419 . S
C656 C654 1.415 . S
C656 C661 1.425 . S
C656 C663 1.409 . S
C657 H649 0.930 . S
C657 C655 1.419 . S
C657 C658 1.362 . S
C658 H650 0.930 . S
C658 C657 1.362 . S
C658 C661 1.409 . S
C659 H651 0.930 . S
C659 C660 1.355 . S
C659 C661 1.415 . S
C660 C659 1.355 . S
C660 C662 1.419 . S
C661 C656 1.425 . S
C661 C658 1.409 . S
C661 C659 1.415 . S
C662 H652 0.930 . S
C662 C660 1.419 . S
C662 C663 1.362 . S
C663 H653 0.930 . S
C663 C656 1.409 . S
C663 C662 1.362 . S
H664 C670 0.930 . S
H665 C673 0.930 . S
H666 C674 0.930 . S
H667 C675 0.930 . S
H668 C678 0.930 . S
H669 C679 0.930 . S
C670 H664 0.930 . S
C670 C671 1.355 1_565 S
C670 C672 1.415 1_565 S
C671 C670 1.355 1_545 S
C671 C673 1.419 . S
C672 C670 1.415 1_545 S
C672 C677 1.425 . S
C672 C679 1.409 1_545 S
C673 H665 0.930 . S
C673 C671 1.419 . S
C673 C674 1.362 . S
C674 H666 0.930 . S
C674 C673 1.362 . S
C674 C677 1.409 . S
C675 H667 0.930 . S
C675 C676 1.355 . S
C675 C677 1.415 . S
C676 C675 1.355 . S
C676 C678 1.419 1_545 S
C677 C672 1.425 . S
C677 C674 1.409 . S
C677 C675 1.415 . S
C678 H668 0.930 . S
C678 C676 1.419 1_565 S
C678 C679 1.362 . S
C679 H669 0.930 . S
C679 C672 1.409 1_565 S
C679 C678 1.362 . S
H680 C686 0.930 1_655 S
H681 C689 0.930 . S
H682 C690 0.930 . S
H683 C691 0.930 . S
H684 C694 0.930 . S
H685 C695 0.930 . S
C686 H680 0.930 1_455 S
C686 C687 1.355 . S
C686 C688 1.415 . S
C687 C686 1.355 . S
C687 C689 1.419 . S
C688 C686 1.415 . S
C688 C693 1.425 . S
C688 C695 1.409 1_455 S
C689 H681 0.930 . S
C689 C687 1.419 . S
C689 C690 1.362 . S
C690 H682 0.930 . S
C690 C689 1.362 . S
C690 C693 1.409 . S
C691 H683 0.930 . S
C691 C692 1.355 . S
C691 C693 1.415 . S
C692 C691 1.355 . S
C692 C694 1.419 1_455 S
C693 C688 1.425 . S
C693 C690 1.409 . S
C693 C691 1.415 . S
C694 H684 0.930 . S
C694 C692 1.419 1_655 S
C694 C695 1.362 . S
C695 H685 0.930 . S
C695 C688 1.409 1_655 S
C695 C694 1.362 . S
H696 C702 0.930 . S
H697 C705 0.930 . S
H698 C706 0.930 . S
H699 C707 0.930 . S
H700 C710 0.930 . S
H701 C711 0.930 . S
C702 H696 0.930 . S
C702 C703 1.355 . S
C702 C704 1.415 . S
C703 C702 1.355 . S
C703 C705 1.419 . S
C704 C702 1.415 . S
C704 C709 1.425 . S
C704 C711 1.409 . S
C705 H697 0.930 . S
C705 C703 1.419 . S
C705 C706 1.362 . S
C706 H698 0.930 . S
C706 C705 1.362 . S
C706 C709 1.409 . S
C707 H699 0.930 . S
C707 C708 1.355 . S
C707 C709 1.415 . S
C708 C707 1.355 . S
C708 C710 1.419 . S
C709 C704 1.425 . S
C709 C706 1.409 . S
C709 C707 1.415 . S
C710 H700 0.930 . S
C710 C708 1.419 . S
C710 C711 1.362 . S
C711 H701 0.930 . S
C711 C704 1.409 . S
C711 C710 1.362 . S
H712 C718 0.930 . S
H713 C721 0.930 . S
H714 C722 0.930 . S
H715 C723 0.930 . S
H716 C726 0.930 . S
H717 C727 0.930 . S
C718 H712 0.930 . S
C718 C719 1.355 . S
C718 C720 1.415 . S
C719 C718 1.355 . S
C719 C721 1.419 . S
C720 C718 1.415 . S
C720 C725 1.425 . S
C720 C727 1.409 . S
C721 H713 0.930 . S
C721 C719 1.419 . S
C721 C722 1.362 . S
C722 H714 0.930 . S
C722 C721 1.362 . S
C722 C725 1.409 . S
C723 H715 0.930 . S
C723 C724 1.355 . S
C723 C725 1.415 . S
C724 C723 1.355 . S
C724 C726 1.419 . S
C725 C720 1.425 . S
C725 C722 1.409 . S
C725 C723 1.415 . S
C726 H716 0.930 . S
C726 C724 1.419 . S
C726 C727 1.362 . S
C727 H717 0.930 . S
C727 C720 1.409 . S
C727 C726 1.362 . S
H728 C734 0.930 . S
H729 C737 0.930 . S
H730 C738 0.930 . S
H731 C739 0.930 . S
H732 C742 0.930 . S
H733 C743 0.930 . S
C734 H728 0.930 . S
C734 C735 1.355 . S
C734 C736 1.415 . S
C735 C734 1.355 . S
C735 C737 1.419 . S
C736 C734 1.415 . S
C736 C741 1.425 . S
C736 C743 1.409 . S
C737 H729 0.930 . S
C737 C735 1.419 . S
C737 C738 1.362 . S
C738 H730 0.930 . S
C738 C737 1.362 . S
C738 C741 1.409 . S
C739 H731 0.930 . S
C739 C740 1.355 . S
C739 C741 1.415 . S
C740 C739 1.355 . S
C740 C742 1.419 . S
C741 C736 1.425 . S
C741 C738 1.409 . S
C741 C739 1.415 . S
C742 H732 0.930 . S
C742 C740 1.419 . S
C742 C743 1.362 . S
C743 H733 0.930 . S
C743 C736 1.409 . S
C743 C742 1.362 . S
H744 C750 0.930 . S
H745 C753 0.930 . S
H746 C754 0.930 . S
H747 C755 0.930 . S
H748 C758 0.930 . S
H749 C759 0.930 . S
C750 H744 0.930 . S
C750 C751 1.355 . S
C750 C752 1.415 . S
C751 C750 1.355 . S
C751 C753 1.419 . S
C752 C750 1.415 . S
C752 C757 1.425 . S
C752 C759 1.409 . S
C753 H745 0.930 . S
C753 C751 1.419 . S
C753 C754 1.362 . S
C754 H746 0.930 . S
C754 C753 1.362 . S
C754 C757 1.409 . S
C755 H747 0.930 . S
C755 C756 1.355 . S
C755 C757 1.415 . S
C756 C755 1.355 . S
C756 C758 1.419 . S
C757 C752 1.425 . S
C757 C754 1.409 . S
C757 C755 1.415 . S
C758 H748 0.930 . S
C758 C756 1.419 . S
C758 C759 1.362 . S
C759 H749 0.930 . S
C759 C752 1.409 . S
C759 C758 1.362 . S
H760 C766 0.930 . S
H761 C769 0.930 . S
H762 C770 0.930 . S
H763 C771 0.930 . S
H764 C774 0.930 . S
H765 C775 0.930 . S
C766 H760 0.930 . S
C766 C767 1.355 . S
C766 C768 1.415 . S
C767 C766 1.355 . S
C767 C769 1.419 . S
C768 C766 1.415 . S
C768 C773 1.425 . S
C768 C775 1.409 . S
C769 H761 0.930 . S
C769 C767 1.419 . S
C769 C770 1.362 . S
C770 H762 0.930 . S
C770 C769 1.362 . S
C770 C773 1.409 . S
C771 H763 0.930 . S
C771 C772 1.355 . S
C771 C773 1.415 . S
C772 C771 1.355 . S
C772 C774 1.419 . S
C773 C768 1.425 . S
C773 C770 1.409 . S
C773 C771 1.415 . S
C774 H764 0.930 . S
C774 C772 1.419 . S
C774 C775 1.362 . S
C775 H765 0.930 . S
C775 C768 1.409 . S
C775 C774 1.362 . S
H776 C782 0.930 . S
H777 C785 0.930 . S
H778 C786 0.930 . S
H779 C787 0.930 . S
H780 C790 0.930 . S
H781 C791 0.930 . S
C782 H776 0.930 . S
C782 C783 1.355 . S
C782 C784 1.415 . S
C783 C782 1.355 . S
C783 C785 1.419 . S
C784 C782 1.415 . S
C784 C789 1.425 . S
C784 C791 1.409 . S
C785 H777 0.930 . S
C785 C783 1.419 . S
C785 C786 1.362 . S
C786 H778 0.930 . S
C786 C785 1.362 . S
C786 C789 1.409 . S
C787 H779 0.930 . S
C787 C788 1.355 . S
C787 C789 1.415 . S
C788 C787 1.355 . S
C788 C790 1.419 . S
C789 C784 1.425 . S
C789 C786 1.409 . S
C789 C787 1.415 . S
C790 H780 0.930 . S
C790 C788 1.419 . S
C790 C791 1.362 . S
C791 H781 0.930 . S
C791 C784 1.409 . S
C791 C790 1.362 . S
H792 C798 0.930 . S
H793 C801 0.930 . S
H794 C802 0.930 . S
H795 C803 0.930 . S
H796 C806 0.930 . S
H797 C807 0.930 . S
C798 H792 0.930 . S
C798 C799 1.355 . S
C798 C800 1.415 . S
C799 C798 1.355 . S
C799 C801 1.419 . S
C800 C798 1.415 . S
C800 C805 1.425 . S
C800 C807 1.409 . S
C801 H793 0.930 . S
C801 C799 1.419 . S
C801 C802 1.362 . S
C802 H794 0.930 . S
C802 C801 1.362 . S
C802 C805 1.409 . S
C803 H795 0.930 . S
C803 C804 1.355 . S
C803 C805 1.415 . S
C804 C803 1.355 . S
C804 C806 1.419 . S
C805 C800 1.425 . S
C805 C802 1.409 . S
C805 C803 1.415 . S
C806 H796 0.930 . S
C806 C804 1.419 . S
C806 C807 1.362 . S
C807 H797 0.930 . S
C807 C800 1.409 . S
C807 C806 1.362 . S
H808 C814 0.930 . S
H809 C817 0.930 . S
H810 C818 0.930 . S
H811 C819 0.930 . S
H812 C822 0.930 . S
H813 C823 0.930 . S
C814 H808 0.930 . S
C814 C815 1.355 . S
C814 C816 1.415 . S
C815 C814 1.355 . S
C815 C817 1.419 . S
C816 C814 1.415 . S
C816 C821 1.425 . S
C816 C823 1.409 . S
C817 H809 0.930 . S
C817 C815 1.419 . S
C817 C818 1.362 . S
C818 H810 0.930 . S
C818 C817 1.362 . S
C818 C821 1.409 . S
C819 H811 0.930 . S
C819 C820 1.355 . S
C819 C821 1.415 . S
C820 C819 1.355 . S
C820 C822 1.419 . S
C821 C816 1.425 . S
C821 C818 1.409 . S
C821 C819 1.415 . S
C822 H812 0.930 . S
C822 C820 1.419 . S
C822 C823 1.362 . S
C823 H813 0.930 . S
C823 C816 1.409 . S
C823 C822 1.362 . S
H824 C830 0.930 . S
H825 C833 0.930 . S
H826 C834 0.930 . S
H827 C835 0.930 . S
H828 C838 0.930 . S
H829 C839 0.930 . S
C830 H824 0.930 . S
C830 C831 1.355 . S
C830 C832 1.415 . S
C831 C830 1.355 . S
C831 C833 1.419 . S
C832 C830 1.415 . S
C832 C837 1.425 . S
C832 C839 1.409 . S
C833 H825 0.930 . S
C833 C831 1.419 . S
C833 C834 1.362 . S
C834 H826 0.930 . S
C834 C833 1.362 . S
C834 C837 1.409 . S
C835 H827 0.930 . S
C835 C836 1.355 . S
C835 C837 1.415 . S
C836 C835 1.355 . S
C836 C838 1.419 . S
C837 C832 1.425 . S
C837 C834 1.409 . S
C837 C835 1.415 . S
C838 H828 0.930 . S
C838 C836 1.419 . S
C838 C839 1.362 . S
C839 H829 0.930 . S
C839 C832 1.409 . S
C839 C838 1.362 . S
H840 C846 0.930 . S
H841 C849 0.930 . S
H842 C850 0.930 . S
H843 C851 0.930 . S
H844 C854 0.930 1_556 S
H845 C855 0.930 . S
C846 H840 0.930 . S
C846 C847 1.355 . S
C846 C848 1.415 . S
C847 C846 1.355 . S
C847 C849 1.419 . S
C848 C846 1.415 . S
C848 C853 1.425 . S
C848 C855 1.409 . S
C849 H841 0.930 . S
C849 C847 1.419 . S
C849 C850 1.362 . S
C850 H842 0.930 . S
C850 C849 1.362 . S
C850 C853 1.409 . S
C851 H843 0.930 . S
C851 C852 1.355 . S
C851 C853 1.415 . S
C852 C851 1.355 . S
C852 C854 1.419 . S
C853 C848 1.425 . S
C853 C850 1.409 . S
C853 C851 1.415 . S
C854 H844 0.930 1_554 S
C854 C852 1.419 . S
C854 C855 1.362 . S
C855 H845 0.930 . S
C855 C848 1.409 . S
C855 C854 1.362 . S
H856 C862 0.930 . S
H857 C865 0.930 . S
H858 C866 0.930 . S
H859 C867 0.930 . S
H860 C870 0.930 . S
H861 C871 0.930 . S
C862 H856 0.930 . S
C862 C863 1.355 . S
C862 C864 1.415 . S
C863 C862 1.355 . S
C863 C865 1.419 . S
C864 C862 1.415 . S
C864 C869 1.425 . S
C864 C871 1.409 . S
C865 H857 0.930 . S
C865 C863 1.419 . S
C865 C866 1.362 . S
C866 H858 0.930 . S
C866 C865 1.362 . S
C866 C869 1.409 . S
C867 H859 0.930 . S
C867 C868 1.355 . S
C867 C869 1.415 . S
C868 C867 1.355 . S
C868 C870 1.419 . S
C869 C864 1.425 . S
C869 C866 1.409 . S
C869 C867 1.415 . S
C870 H860 0.930 . S
C870 C868 1.419 . S
C870 C871 1.362 . S
C871 H861 0.930 . S
C871 C864 1.409 . S
C871 C870 1.362 . S
H872 C878 0.930 . S
H873 C881 0.930 . S
H874 C882 0.930 . S
H875 C883 0.930 . S
H876 C886 0.930 . S
H877 C887 0.930 . S
C878 H872 0.930 . S
C878 C879 1.355 . S
C878 C880 1.415 . S
C879 C878 1.355 . S
C879 C881 1.419 . S
C880 C878 1.415 . S
C880 C885 1.425 . S
C880 C887 1.409 . S
C881 H873 0.930 . S
C881 C879 1.419 . S
C881 C882 1.362 . S
C882 H874 0.930 . S
C882 C881 1.362 . S
C882 C885 1.409 . S
C883 H875 0.930 . S
C883 C884 1.355 . S
C883 C885 1.415 . S
C884 C883 1.355 . S
C884 C886 1.419 . S
C885 C880 1.425 . S
C885 C882 1.409 . S
C885 C883 1.415 . S
C886 H876 0.930 . S
C886 C884 1.419 . S
C886 C887 1.362 . S
C887 H877 0.930 . S
C887 C880 1.409 . S
C887 C886 1.362 . S
H888 C894 0.930 . S
H889 C897 0.930 . S
H890 C898 0.930 . S
H891 C899 0.930 . S
H892 C902 0.930 . S
H893 C903 0.930 . S
C894 H888 0.930 . S
C894 C895 1.355 . S
C894 C896 1.415 . S
C895 C894 1.355 . S
C895 C897 1.419 . S
C896 C894 1.415 . S
C896 C901 1.425 . S
C896 C903 1.409 . S
C897 H889 0.930 . S
C897 C895 1.419 . S
C897 C898 1.362 . S
C898 H890 0.930 . S
C898 C897 1.362 . S
C898 C901 1.409 . S
C899 H891 0.930 . S
C899 C900 1.355 . S
C899 C901 1.415 . S
C900 C899 1.355 . S
C900 C902 1.419 . S
C901 C896 1.425 . S
C901 C898 1.409 . S
C901 C899 1.415 . S
C902 H892 0.930 . S
C902 C900 1.419 . S
C902 C903 1.362 . S
C903 H893 0.930 . S
C903 C896 1.409 . S
C903 C902 1.362 . S
H904 C910 0.930 . S
H905 C913 0.930 . S
H906 C914 0.930 . S
H907 C915 0.930 . S
H908 C918 0.930 . S
H909 C919 0.930 . S
C910 H904 0.930 . S
C910 C911 1.355 . S
C910 C912 1.415 . S
C911 C910 1.355 . S
C911 C913 1.419 . S
C912 C910 1.415 . S
C912 C917 1.425 . S
C912 C919 1.409 . S
C913 H905 0.930 . S
C913 C911 1.419 . S
C913 C914 1.362 . S
C914 H906 0.930 . S
C914 C913 1.362 . S
C914 C917 1.409 . S
C915 H907 0.930 . S
C915 C916 1.355 . S
C915 C917 1.415 . S
C916 C915 1.355 . S
C916 C918 1.419 . S
C917 C912 1.425 . S
C917 C914 1.409 . S
C917 C915 1.415 . S
C918 H908 0.930 . S
C918 C916 1.419 . S
C918 C919 1.362 . S
C919 H909 0.930 . S
C919 C912 1.409 . S
C919 C918 1.362 . S
H920 C926 0.930 . S
H921 C929 0.930 . S
H922 C930 0.930 . S
H923 C931 0.930 . S
H924 C934 0.930 . S
H925 C935 0.930 . S
C926 H920 0.930 . S
C926 C927 1.355 . S
C926 C928 1.415 . S
C927 C926 1.355 . S
C927 C929 1.419 . S
C928 C926 1.415 . S
C928 C933 1.425 . S
C928 C935 1.409 . S
C929 H921 0.930 . S
C929 C927 1.419 . S
C929 C930 1.362 . S
C930 H922 0.930 . S
C930 C929 1.362 . S
C930 C933 1.409 . S
C931 H923 0.930 . S
C931 C932 1.355 . S
C931 C933 1.415 . S
C932 C931 1.355 . S
C932 C934 1.419 . S
C933 C928 1.425 . S
C933 C930 1.409 . S
C933 C931 1.415 . S
C934 H924 0.930 . S
C934 C932 1.419 . S
C934 C935 1.362 . S
C935 H925 0.930 . S
C935 C928 1.409 . S
C935 C934 1.362 . S
H936 C942 0.930 . S
H937 C945 0.930 . S
H938 C946 0.930 . S
H939 C947 0.930 . S
H940 C950 0.930 1_554 S
H941 C951 0.930 . S
C942 H936 0.930 . S
C942 C943 1.355 . S
C942 C944 1.415 . S
C943 C942 1.355 . S
C943 C945 1.419 . S
C944 C942 1.415 . S
C944 C949 1.425 . S
C944 C951 1.409 . S
C945 H937 0.930 . S
C945 C943 1.419 . S
C945 C946 1.362 . S
C946 H938 0.930 . S
C946 C945 1.362 . S
C946 C949 1.409 . S
C947 H939 0.930 . S
C947 C948 1.355 . S
C947 C949 1.415 . S
C948 C947 1.355 . S
C948 C950 1.419 . S
C949 C944 1.425 . S
C949 C946 1.409 . S
C949 C947 1.415 . S
C950 H940 0.930 1_556 S
C950 C948 1.419 . S
C950 C951 1.362 . S
C951 H941 0.930 . S
C951 C944 1.409 . S
C951 C950 1.362 . S
H952 C958 0.930 . S
H953 C961 0.930 . S
H954 C962 0.930 . S
H955 C963 0.930 . S
H956 C966 0.930 . S
H957 C967 0.930 . S
C958 H952 0.930 . S
C958 C959 1.355 . S
C958 C960 1.415 . S
C959 C958 1.355 . S
C959 C961 1.419 . S
C960 C958 1.415 . S
C960 C965 1.425 . S
C960 C967 1.409 . S
C961 H953 0.930 . S
C961 C959 1.419 . S
C961 C962 1.362 . S
C962 H954 0.930 . S
C962 C961 1.362 . S
C962 C965 1.409 . S
C963 H955 0.930 . S
C963 C964 1.355 . S
C963 C965 1.415 . S
C964 C963 1.355 . S
C964 C966 1.419 . S
C965 C960 1.425 . S
C965 C962 1.409 . S
C965 C963 1.415 . S
C966 H956 0.930 . S
C966 C964 1.419 . S
C966 C967 1.362 . S
C967 H957 0.930 . S
C967 C960 1.409 . S
C967 C966 1.362 . S
H968 C974 0.930 . S
H969 C977 0.930 . S
H970 C978 0.930 . S
H971 C979 0.895 1_554 S
H972 C982 0.930 . S
H973 C983 0.930 . S
C974 H968 0.930 . S
C974 C975 1.355 . S
C974 C976 1.415 . S
C975 C974 1.355 . S
C975 C977 1.419 . S
C976 C974 1.415 . S
C976 C981 1.425 . S
C976 C983 1.409 . S
C977 H969 0.930 . S
C977 C975 1.419 . S
C977 C978 1.362 . S
C978 H970 0.930 . S
C978 C977 1.362 . S
C978 C981 1.409 . S
C979 H971 0.895 1_556 S
C979 C980 1.355 . S
C979 C981 1.415 . S
C980 C979 1.355 . S
C980 C982 1.419 . S
C981 C976 1.425 . S
C981 C978 1.409 . S
C981 C979 1.415 . S
C982 H972 0.930 . S
C982 C980 1.419 . S
C982 C983 1.362 . S
C983 H973 0.930 . S
C983 C976 1.409 . S
C983 C982 1.362 . S
H984 C990 0.930 . S
H985 C993 0.930 . S
H986 C994 0.930 . S
H987 C995 0.930 . S
H988 C998 0.930 . S
H989 C999 0.930 . S
C990 H984 0.930 . S
C990 C991 1.355 . S
C990 C992 1.415 . S
C991 C990 1.355 . S
C991 C993 1.419 . S
C992 C990 1.415 . S
C992 C997 1.425 . S
C992 C999 1.409 . S
C993 H985 0.930 . S
C993 C991 1.419 . S
C993 C994 1.362 . S
C994 H986 0.930 . S
C994 C993 1.362 . S
C994 C997 1.409 . S
C995 H987 0.930 . S
C995 C996 1.355 . S
C995 C997 1.415 . S
C996 C995 1.355 . S
C996 C998 1.419 . S
C997 C992 1.425 . S
C997 C994 1.409 . S
C997 C995 1.415 . S
C998 H988 0.930 . S
C998 C996 1.419 . S
C998 C999 1.362 . S
C999 H989 0.930 . S
C999 C992 1.409 . S
C999 C998 1.362 . S
H1000 C1006 0.930 . S
H1001 C1009 0.930 . S
H1002 C1010 0.930 . S
H1003 C1011 0.930 . S
H1004 C1014 0.930 . S
H1005 C1015 0.930 . S
C1006 H1000 0.930 . S
C1006 C1007 1.355 . S
C1006 C1008 1.415 . S
C1007 C1006 1.355 . S
C1007 C1009 1.419 . S
C1008 C1006 1.415 . S
C1008 C1013 1.425 . S
C1008 C1015 1.409 . S
C1009 H1001 0.930 . S
C1009 C1007 1.419 . S
C1009 C1010 1.362 . S
C1010 H1002 0.930 . S
C1010 C1009 1.362 . S
C1010 C1013 1.409 . S
C1011 H1003 0.930 . S
C1011 C1012 1.355 . S
C1011 C1013 1.415 . S
C1012 C1011 1.355 . S
C1012 C1014 1.419 . S
C1013 C1008 1.425 . S
C1013 C1010 1.409 . S
C1013 C1011 1.415 . S
C1014 H1004 0.930 . S
C1014 C1012 1.419 . S
C1014 C1015 1.362 . S
C1015 H1005 0.930 . S
C1015 C1008 1.409 . S
C1015 C1014 1.362 . S
H1016 C1022 0.930 . S
H1017 C1025 0.930 . S
H1018 C1026 0.930 . S
H1019 C1027 0.930 . S
H1020 C1030 0.930 . S
H1021 C1031 0.930 . S
C1022 H1016 0.930 . S
C1022 C1023 1.355 . S
C1022 C1024 1.415 . S
C1023 C1022 1.355 . S
C1023 C1025 1.419 . S
C1024 C1022 1.415 . S
C1024 C1029 1.425 . S
C1024 C1031 1.409 . S
C1025 H1017 0.930 . S
C1025 C1023 1.419 . S
C1025 C1026 1.362 . S
C1026 H1018 0.930 . S
C1026 C1025 1.362 . S
C1026 C1029 1.409 . S
C1027 H1019 0.930 . S
C1027 C1028 1.355 . S
C1027 C1029 1.415 . S
C1028 C1027 1.355 . S
C1028 C1030 1.419 . S
C1029 C1024 1.425 . S
C1029 C1026 1.409 . S
C1029 C1027 1.415 . S
C1030 H1020 0.930 . S
C1030 C1028 1.419 . S
C1030 C1031 1.362 . S
C1031 H1021 0.930 . S
C1031 C1024 1.409 . S
C1031 C1030 1.362 . S
H1032 C1038 0.930 . S
H1033 C1041 0.930 . S
H1034 C1042 0.930 . S
H1035 C1043 0.930 . S
H1036 C1046 0.930 . S
H1037 C1047 0.930 . S
C1038 H1032 0.930 . S
C1038 C1039 1.355 . S
C1038 C1040 1.415 . S
C1039 C1038 1.355 . S
C1039 C1041 1.419 . S
C1040 C1038 1.415 . S
C1040 C1045 1.425 . S
C1040 C1047 1.409 . S
C1041 H1033 0.930 . S
C1041 C1039 1.419 . S
C1041 C1042 1.362 . S
C1042 H1034 0.930 . S
C1042 C1041 1.362 . S
C1042 C1045 1.409 . S
C1043 H1035 0.930 . S
C1043 C1044 1.355 . S
C1043 C1045 1.415 . S
C1044 C1043 1.355 . S
C1044 C1046 1.419 . S
C1045 C1040 1.425 . S
C1045 C1042 1.409 . S
C1045 C1043 1.415 . S
C1046 H1036 0.930 . S
C1046 C1044 1.419 . S
C1046 C1047 1.362 . S
C1047 H1037 0.930 . S
C1047 C1040 1.409 . S
C1047 C1046 1.362 . S
H1048 C1054 0.930 . S
H1049 C1057 0.930 . S
H1050 C1058 0.930 . S
H1051 C1059 0.930 . S
H1052 C1062 0.930 . S
H1053 C1063 0.930 . S
C1054 H1048 0.930 . S
C1054 C1055 1.355 . S
C1054 C1056 1.415 . S
C1055 C1054 1.355 . S
C1055 C1057 1.419 . S
C1056 C1054 1.415 . S
C1056 C1061 1.425 . S
C1056 C1063 1.409 . S
C1057 H1049 0.930 . S
C1057 C1055 1.419 . S
C1057 C1058 1.362 . S
C1058 H1050 0.930 . S
C1058 C1057 1.362 . S
C1058 C1061 1.409 . S
C1059 H1051 0.930 . S
C1059 C1060 1.355 . S
C1059 C1061 1.415 . S
C1060 C1059 1.355 . S
C1060 C1062 1.419 . S
C1061 C1056 1.425 . S
C1061 C1058 1.409 . S
C1061 C1059 1.415 . S
C1062 H1052 0.930 . S
C1062 C1060 1.419 . S
C1062 C1063 1.362 . S
C1063 H1053 0.930 . S
C1063 C1056 1.409 . S
C1063 C1062 1.362 . S
H1064 C1070 0.930 . S
H1065 C1073 0.930 . S
H1066 C1074 0.930 . S
H1067 C1075 0.930 . S
H1068 C1078 0.930 . S
H1069 C1079 0.930 . S
C1070 H1064 0.930 . S
C1070 C1071 1.355 . S
C1070 C1072 1.415 . S
C1071 C1070 1.355 . S
C1071 C1073 1.419 . S
C1072 C1070 1.415 . S
C1072 C1077 1.425 . S
C1072 C1079 1.409 . S
C1073 H1065 0.930 . S
C1073 C1071 1.419 . S
C1073 C1074 1.362 . S
C1074 H1066 0.930 . S
C1074 C1073 1.362 . S
C1074 C1077 1.409 . S
C1075 H1067 0.930 . S
C1075 C1076 1.355 . S
C1075 C1077 1.415 . S
C1076 C1075 1.355 . S
C1076 C1078 1.419 . S
C1077 C1072 1.425 . S
C1077 C1074 1.409 . S
C1077 C1075 1.415 . S
C1078 H1068 0.930 . S
C1078 C1076 1.419 . S
C1078 C1079 1.362 . S
C1079 H1069 0.930 . S
C1079 C1072 1.409 . S
C1079 C1078 1.362 . S
H1080 C1086 0.923 1_565 S
H1081 C1089 0.930 . S
H1082 C1090 0.930 . S
H1083 C1091 0.930 . S
H1084 C1094 0.930 1_565 S
H1085 C1095 0.930 . S
C1086 H1080 0.923 1_545 S
C1086 C1087 1.355 . S
C1086 C1088 1.415 . S
C1087 C1086 1.355 . S
C1087 C1089 1.419 . S
C1088 C1086 1.415 . S
C1088 C1093 1.425 . S
C1088 C1095 1.409 1_545 S
C1089 H1081 0.930 . S
C1089 C1087 1.419 . S
C1089 C1090 1.362 . S
C1090 H1082 0.930 . S
C1090 C1089 1.362 . S
C1090 C1093 1.409 . S
C1091 H1083 0.930 . S
C1091 C1092 1.355 . S
C1091 C1093 1.415 . S
C1092 C1091 1.355 . S
C1092 C1094 1.419 . S
C1093 C1088 1.425 . S
C1093 C1090 1.409 . S
C1093 C1091 1.415 . S
C1094 H1084 0.930 1_545 S
C1094 C1092 1.419 . S
C1094 C1095 1.362 1_545 S
C1095 H1085 0.930 . S
C1095 C1088 1.409 1_565 S
C1095 C1094 1.362 1_565 S
H1096 C1102 0.930 . S
H1097 C1105 0.930 . S
H1098 C1106 0.930 . S
H1099 C1107 0.930 . S
H1100 C1110 0.930 . S
H1101 C1111 0.930 . S
C1102 H1096 0.930 . S
C1102 C1103 1.355 . S
C1102 C1104 1.415 . S
C1103 C1102 1.355 . S
C1103 C1105 1.419 1_655 S
C1104 C1102 1.415 . S
C1104 C1109 1.425 1_655 S
C1104 C1111 1.409 . S
C1105 H1097 0.930 . S
C1105 C1103 1.419 1_455 S
C1105 C1106 1.362 . S
C1106 H1098 0.930 . S
C1106 C1105 1.362 . S
C1106 C1109 1.409 . S
C1107 H1099 0.930 . S
C1107 C1108 1.355 1_455 S
C1107 C1109 1.415 . S
C1108 C1107 1.355 1_655 S
C1108 C1110 1.419 . S
C1109 C1104 1.425 1_455 S
C1109 C1106 1.409 . S
C1109 C1107 1.415 . S
C1110 H1100 0.930 . S
C1110 C1108 1.419 . S
C1110 C1111 1.362 . S
C1111 H1101 0.930 . S
C1111 C1104 1.409 . S
C1111 C1110 1.362 . S
H1112 C1118 0.930 . S
H1113 C1121 0.930 . S
H1114 C1122 0.930 . S
H1115 C1123 0.930 . S
H1116 C1126 0.930 . S
H1117 C1127 0.930 . S
C1118 H1112 0.930 . S
C1118 C1119 1.355 . S
C1118 C1120 1.415 . S
C1119 C1118 1.355 . S
C1119 C1121 1.419 . S
C1120 C1118 1.415 . S
C1120 C1125 1.425 . S
C1120 C1127 1.409 . S
C1121 H1113 0.930 . S
C1121 C1119 1.419 . S
C1121 C1122 1.362 . S
C1122 H1114 0.930 . S
C1122 C1121 1.362 . S
C1122 C1125 1.409 . S
C1123 H1115 0.930 . S
C1123 C1124 1.355 . S
C1123 C1125 1.415 . S
C1124 C1123 1.355 . S
C1124 C1126 1.419 . S
C1125 C1120 1.425 . S
C1125 C1122 1.409 . S
C1125 C1123 1.415 . S
C1126 H1116 0.930 . S
C1126 C1124 1.419 . S
C1126 C1127 1.362 . S
C1127 H1117 0.930 . S
C1127 C1120 1.409 . S
C1127 C1126 1.362 . S
H1128 C1134 0.930 . S
H1129 C1137 0.930 . S
H1130 C1138 0.930 . S
H1131 C1139 0.930 . S
H1132 C1142 0.930 . S
H1133 C1143 0.930 . S
C1134 H1128 0.930 . S
C1134 C1135 1.355 . S
C1134 C1136 1.415 . S
C1135 C1134 1.355 . S
C1135 C1137 1.419 . S
C1136 C1134 1.415 . S
C1136 C1141 1.425 . S
C1136 C1143 1.409 . S
C1137 H1129 0.930 . S
C1137 C1135 1.419 . S
C1137 C1138 1.362 . S
C1138 H1130 0.930 . S
C1138 C1137 1.362 . S
C1138 C1141 1.409 . S
C1139 H1131 0.930 . S
C1139 C1140 1.355 . S
C1139 C1141 1.415 . S
C1140 C1139 1.355 . S
C1140 C1142 1.419 . S
C1141 C1136 1.425 . S
C1141 C1138 1.409 . S
C1141 C1139 1.415 . S
C1142 H1132 0.930 . S
C1142 C1140 1.419 . S
C1142 C1143 1.362 . S
C1143 H1133 0.930 . S
C1143 C1136 1.409 . S
C1143 C1142 1.362 . S
H1144 C1150 0.930 . S
H1145 C1153 0.930 . S
H1146 C1154 0.930 . S
H1147 C1155 0.930 . S
H1148 C1158 0.930 . S
H1149 C1159 0.930 . S
C1150 H1144 0.930 . S
C1150 C1151 1.355 . S
C1150 C1152 1.415 . S
C1151 C1150 1.355 . S
C1151 C1153 1.419 . S
C1152 C1150 1.415 . S
C1152 C1157 1.425 . S
C1152 C1159 1.409 . S
C1153 H1145 0.930 . S
C1153 C1151 1.419 . S
C1153 C1154 1.362 . S
C1154 H1146 0.930 . S
C1154 C1153 1.362 . S
C1154 C1157 1.409 . S
C1155 H1147 0.930 . S
C1155 C1156 1.355 . S
C1155 C1157 1.415 . S
C1156 C1155 1.355 . S
C1156 C1158 1.419 . S
C1157 C1152 1.425 . S
C1157 C1154 1.409 . S
C1157 C1155 1.415 . S
C1158 H1148 0.930 . S
C1158 C1156 1.419 . S
C1158 C1159 1.362 . S
C1159 H1149 0.930 . S
C1159 C1152 1.409 . S
C1159 C1158 1.362 . S
H1160 C1166 0.930 . S
H1161 C1169 0.930 . S
H1162 C1170 0.930 . S
H1163 C1171 0.930 . S
H1164 C1174 0.930 . S
H1165 C1175 0.930 . S
C1166 H1160 0.930 . S
C1166 C1167 1.355 . S
C1166 C1168 1.415 . S
C1167 C1166 1.355 . S
C1167 C1169 1.419 . S
C1168 C1166 1.415 . S
C1168 C1173 1.425 . S
C1168 C1175 1.409 . S
C1169 H1161 0.930 . S
C1169 C1167 1.419 . S
C1169 C1170 1.362 . S
C1170 H1162 0.930 . S
C1170 C1169 1.362 . S
C1170 C1173 1.409 . S
C1171 H1163 0.930 . S
C1171 C1172 1.355 . S
C1171 C1173 1.415 . S
C1172 C1171 1.355 . S
C1172 C1174 1.419 . S
C1173 C1168 1.425 . S
C1173 C1170 1.409 . S
C1173 C1171 1.415 . S
C1174 H1164 0.930 . S
C1174 C1172 1.419 . S
C1174 C1175 1.362 . S
C1175 H1165 0.930 . S
C1175 C1168 1.409 . S
C1175 C1174 1.362 . S
H1176 C1182 0.930 1_545 S
H1177 C1185 0.930 . S
H1178 C1186 0.930 . S
H1179 C1187 0.930 . S
H1180 C1190 0.930 . S
H1181 C1191 0.930 . S
C1182 H1176 0.930 1_565 S
C1182 C1183 1.355 . S
C1182 C1184 1.415 . S
C1183 C1182 1.355 . S
C1183 C1185 1.419 . S
C1184 C1182 1.415 . S
C1184 C1189 1.425 . S
C1184 C1191 1.409 1_565 S
C1185 H1177 0.930 . S
C1185 C1183 1.419 . S
C1185 C1186 1.362 . S
C1186 H1178 0.930 . S
C1186 C1185 1.362 . S
C1186 C1189 1.409 . S
C1187 H1179 0.930 . S
C1187 C1188 1.355 . S
C1187 C1189 1.415 . S
C1188 C1187 1.355 . S
C1188 C1190 1.419 1_565 S
C1189 C1184 1.425 . S
C1189 C1186 1.409 . S
C1189 C1187 1.415 . S
C1190 H1180 0.930 . S
C1190 C1188 1.419 1_545 S
C1190 C1191 1.362 . S
C1191 H1181 0.930 . S
C1191 C1184 1.409 1_545 S
C1191 C1190 1.362 . S
H1192 C1198 0.930 . S
H1193 C1201 0.930 . S
H1194 C1202 0.930 . S
H1195 C1203 0.930 . S
H1196 C1206 0.930 . S
H1197 C1207 0.930 . S
C1198 H1192 0.930 . S
C1198 C1199 1.355 . S
C1198 C1200 1.415 . S
C1199 C1198 1.355 . S
C1199 C1201 1.419 . S
C1200 C1198 1.415 . S
C1200 C1205 1.425 . S
C1200 C1207 1.409 . S
C1201 H1193 0.930 . S
C1201 C1199 1.419 . S
C1201 C1202 1.362 . S
C1202 H1194 0.930 . S
C1202 C1201 1.362 . S
C1202 C1205 1.409 . S
C1203 H1195 0.930 . S
C1203 C1204 1.355 . S
C1203 C1205 1.415 . S
C1204 C1203 1.355 . S
C1204 C1206 1.419 . S
C1205 C1200 1.425 . S
C1205 C1202 1.409 . S
C1205 C1203 1.415 . S
C1206 H1196 0.930 . S
C1206 C1204 1.419 . S
C1206 C1207 1.362 . S
C1207 H1197 0.930 . S
C1207 C1200 1.409 . S
C1207 C1206 1.362 . S
H1208 C1214 0.930 . S
H1209 C1217 0.930 . S
H1210 C1218 0.930 . S
H1211 C1219 0.930 . S
H1212 C1222 0.930 . S
H1213 C1223 0.930 . S
C1214 H1208 0.930 . S
C1214 C1215 1.355 . S
C1214 C1216 1.415 . S
C1215 C1214 1.355 . S
C1215 C1217 1.419 . S
C1216 C1214 1.415 . S
C1216 C1221 1.425 . S
C1216 C1223 1.409 . S
C1217 H1209 0.930 . S
C1217 C1215 1.419 . S
C1217 C1218 1.362 . S
C1218 H1210 0.930 . S
C1218 C1217 1.362 . S
C1218 C1221 1.409 . S
C1219 H1211 0.930 . S
C1219 C1220 1.355 . S
C1219 C1221 1.415 . S
C1220 C1219 1.355 . S
C1220 C1222 1.419 . S
C1221 C1216 1.425 . S
C1221 C1218 1.409 . S
C1221 C1219 1.415 . S
C1222 H1212 0.930 . S
C1222 C1220 1.419 . S
C1222 C1223 1.362 . S
C1223 H1213 0.930 . S
C1223 C1216 1.409 . S
C1223 C1222 1.362 . S
H1224 C1230 0.930 . S
H1225 C1233 0.930 . S
H1226 C1234 0.930 . S
H1227 C1235 0.930 . S
H1228 C1238 0.930 . S
H1229 C1239 0.930 . S
C1230 H1224 0.930 . S
C1230 C1231 1.355 1_455 S
C1230 C1232 1.415 . S
C1231 C1230 1.355 1_655 S
C1231 C1233 1.419 . S
C1232 C1230 1.415 . S
C1232 C1237 1.425 1_455 S
C1232 C1239 1.409 . S
C1233 H1225 0.930 . S
C1233 C1231 1.419 . S
C1233 C1234 1.362 . S
C1234 H1226 0.930 . S
C1234 C1233 1.362 . S
C1234 C1237 1.409 . S
C1235 H1227 0.930 . S
C1235 C1236 1.355 1_655 S
C1235 C1237 1.415 . S
C1236 C1235 1.355 1_455 S
C1236 C1238 1.419 . S
C1237 C1232 1.425 1_655 S
C1237 C1234 1.409 . S
C1237 C1235 1.415 . S
C1238 H1228 0.930 . S
C1238 C1236 1.419 . S
C1238 C1239 1.362 . S
C1239 H1229 0.930 . S
C1239 C1232 1.409 . S
C1239 C1238 1.362 . S
H1240 C1246 0.930 . S
H1241 C1249 0.930 . S
H1242 C1250 0.930 . S
H1243 C1251 0.930 . S
H1244 C1254 0.930 . S
H1245 C1255 0.930 . S
C1246 H1240 0.930 . S
C1246 C1247 1.355 . S
C1246 C1248 1.415 . S
C1247 C1246 1.355 . S
C1247 C1249 1.419 . S
C1248 C1246 1.415 . S
C1248 C1253 1.425 . S
C1248 C1255 1.409 . S
C1249 H1241 0.930 . S
C1249 C1247 1.419 . S
C1249 C1250 1.362 . S
C1250 H1242 0.930 . S
C1250 C1249 1.362 . S
C1250 C1253 1.409 . S
C1251 H1243 0.930 . S
C1251 C1252 1.355 . S
C1251 C1253 1.415 . S
C1252 C1251 1.355 . S
C1252 C1254 1.419 . S
C1253 C1248 1.425 . S
C1253 C1250 1.409 . S
C1253 C1251 1.415 . S
C1254 H1244 0.930 . S
C1254 C1252 1.419 . S
C1254 C1255 1.362 . S
C1255 H1245 0.930 . S
C1255 C1248 1.409 . S
C1255 C1254 1.362 . S
H1256 C1262 0.930 . S
H1257 C1265 0.930 . S
H1258 C1266 0.930 . S
H1259 C1267 0.930 . S
H1260 C1270 0.930 . S
H1261 C1271 0.940 . S
C1262 H1256 0.930 . S
C1262 C1263 1.355 . S
C1262 C1264 1.415 . S
C1263 C1262 1.355 . S
C1263 C1265 1.419 . S
C1264 C1262 1.415 . S
C1264 C1269 1.425 . S
C1264 C1271 1.409 . S
C1265 H1257 0.930 . S
C1265 C1263 1.419 . S
C1265 C1266 1.362 . S
C1266 H1258 0.930 . S
C1266 C1265 1.362 . S
C1266 C1269 1.409 . S
C1267 H1259 0.930 . S
C1267 C1268 1.355 . S
C1267 C1269 1.415 . S
C1268 C1267 1.355 . S
C1268 C1270 1.419 . S
C1269 C1264 1.425 . S
C1269 C1266 1.409 . S
C1269 C1267 1.415 . S
C1270 H1260 0.930 . S
C1270 C1268 1.419 . S
C1270 C1271 1.362 . S
C1271 H1261 0.940 . S
C1271 C1264 1.409 . S
C1271 C1270 1.362 . S
H1272 C1278 0.930 . S
H1273 C1281 0.930 . S
H1274 C1282 0.930 . S
H1275 C1283 0.930 . S
H1276 C1286 0.930 . S
H1277 C1287 0.930 . S
C1278 H1272 0.930 . S
C1278 C1279 1.355 . S
C1278 C1280 1.415 . S
C1279 C1278 1.355 . S
C1279 C1281 1.419 . S
C1280 C1278 1.415 . S
C1280 C1285 1.425 . S
C1280 C1287 1.409 . S
C1281 H1273 0.930 . S
C1281 C1279 1.419 . S
C1281 C1282 1.362 . S
C1282 H1274 0.930 . S
C1282 C1281 1.362 . S
C1282 C1285 1.409 . S
C1283 H1275 0.930 . S
C1283 C1284 1.355 . S
C1283 C1285 1.415 . S
C1284 C1283 1.355 . S
C1284 C1286 1.419 . S
C1285 C1280 1.425 . S
C1285 C1282 1.409 . S
C1285 C1283 1.415 . S
C1286 H1276 0.930 . S
C1286 C1284 1.419 . S
C1286 C1287 1.362 . S
C1287 H1277 0.930 . S
C1287 C1280 1.409 . S
C1287 C1286 1.362 . S
H1288 C1294 0.930 . S
H1289 C1297 0.930 . S
H1290 C1298 0.930 . S
H1291 C1299 0.930 . S
H1292 C1302 0.930 . S
H1293 C1303 0.930 . S
C1294 H1288 0.930 . S
C1294 C1295 1.355 . S
C1294 C1296 1.415 . S
C1295 C1294 1.355 . S
C1295 C1297 1.419 . S
C1296 C1294 1.415 . S
C1296 C1301 1.425 . S
C1296 C1303 1.409 . S
C1297 H1289 0.930 . S
C1297 C1295 1.419 . S
C1297 C1298 1.362 . S
C1298 H1290 0.930 . S
C1298 C1297 1.362 . S
C1298 C1301 1.409 . S
C1299 H1291 0.930 . S
C1299 C1300 1.355 . S
C1299 C1301 1.415 . S
C1300 C1299 1.355 . S
C1300 C1302 1.419 . S
C1301 C1296 1.425 . S
C1301 C1298 1.409 . S
C1301 C1299 1.415 . S
C1302 H1292 0.930 . S
C1302 C1300 1.419 . S
C1302 C1303 1.362 . S
C1303 H1293 0.930 . S
C1303 C1296 1.409 . S
C1303 C1302 1.362 . S
H1304 C1310 0.930 . S
H1305 C1313 0.930 . S
H1306 C1314 0.930 . S
H1307 C1315 0.930 . S
H1308 C1318 0.930 . S
H1309 C1319 0.930 . S
C1310 H1304 0.930 . S
C1310 C1311 1.355 . S
C1310 C1312 1.415 . S
C1311 C1310 1.355 . S
C1311 C1313 1.419 . S
C1312 C1310 1.415 . S
C1312 C1317 1.425 . S
C1312 C1319 1.409 . S
C1313 H1305 0.930 . S
C1313 C1311 1.419 . S
C1313 C1314 1.362 . S
C1314 H1306 0.930 . S
C1314 C1313 1.362 . S
C1314 C1317 1.409 . S
C1315 H1307 0.930 . S
C1315 C1316 1.355 . S
C1315 C1317 1.415 . S
C1316 C1315 1.355 . S
C1316 C1318 1.419 . S
C1317 C1312 1.425 . S
C1317 C1314 1.409 . S
C1317 C1315 1.415 . S
C1318 H1308 0.930 . S
C1318 C1316 1.419 . S
C1318 C1319 1.362 . S
C1319 H1309 0.930 . S
C1319 C1312 1.409 . S
C1319 C1318 1.362 . S
H1320 C1326 0.930 . S
H1321 C1329 0.930 . S
H1322 C1330 0.930 . S
H1323 C1331 0.930 . S
H1324 C1334 0.930 . S
H1325 C1335 0.930 . S
C1326 H1320 0.930 . S
C1326 C1327 1.355 . S
C1326 C1328 1.415 . S
C1327 C1326 1.355 . S
C1327 C1329 1.419 . S
C1328 C1326 1.415 . S
C1328 C1333 1.425 . S
C1328 C1335 1.409 . S
C1329 H1321 0.930 . S
C1329 C1327 1.419 . S
C1329 C1330 1.362 . S
C1330 H1322 0.930 . S
C1330 C1329 1.362 . S
C1330 C1333 1.409 . S
C1331 H1323 0.930 . S
C1331 C1332 1.355 . S
C1331 C1333 1.415 . S
C1332 C1331 1.355 . S
C1332 C1334 1.419 . S
C1333 C1328 1.425 . S
C1333 C1330 1.409 . S
C1333 C1331 1.415 . S
C1334 H1324 0.930 . S
C1334 C1332 1.419 . S
C1334 C1335 1.362 . S
C1335 H1325 0.930 . S
C1335 C1328 1.409 . S
C1335 C1334 1.362 . S
H1336 C1342 0.930 . S
H1337 C1345 0.930 . S
H1338 C1346 0.930 . S
H1339 C1347 0.930 . S
H1340 C1350 0.930 . S
H1341 C1351 0.930 . S
C1342 H1336 0.930 . S
C1342 C1343 1.355 . S
C1342 C1344 1.415 . S
C1343 C1342 1.355 . S
C1343 C1345 1.419 . S
C1344 C1342 1.415 . S
C1344 C1349 1.425 . S
C1344 C1351 1.409 . S
C1345 H1337 0.930 . S
C1345 C1343 1.419 . S
C1345 C1346 1.362 . S
C1346 H1338 0.930 . S
C1346 C1345 1.362 . S
C1346 C1349 1.409 . S
C1347 H1339 0.930 . S
C1347 C1348 1.355 . S
C1347 C1349 1.415 . S
C1348 C1347 1.355 . S
C1348 C1350 1.419 . S
C1349 C1344 1.425 . S
C1349 C1346 1.409 . S
C1349 C1347 1.415 . S
C1350 H1340 0.930 . S
C1350 C1348 1.419 . S
C1350 C1351 1.362 . S
C1351 H1341 0.930 . S
C1351 C1344 1.409 . S
C1351 C1350 1.362 . S
H1352 C1358 0.930 . S
H1353 C1361 0.930 . S
H1354 C1362 0.930 . S
H1355 C1363 0.930 . S
H1356 C1366 0.930 . S
H1357 C1367 0.930 . S
C1358 H1352 0.930 . S
C1358 C1359 1.355 . S
C1358 C1360 1.415 . S
C1359 C1358 1.355 . S
C1359 C1361 1.419 . S
C1360 C1358 1.415 . S
C1360 C1365 1.425 . S
C1360 C1367 1.409 . S
C1361 H1353 0.930 . S
C1361 C1359 1.419 . S
C1361 C1362 1.362 . S
C1362 H1354 0.930 . S
C1362 C1361 1.362 . S
C1362 C1365 1.409 . S
C1363 H1355 0.930 . S
C1363 C1364 1.355 . S
C1363 C1365 1.415 . S
C1364 C1363 1.355 . S
C1364 C1366 1.419 . S
C1365 C1360 1.425 . S
C1365 C1362 1.409 . S
C1365 C1363 1.415 . S
C1366 H1356 0.930 . S
C1366 C1364 1.419 . S
C1366 C1367 1.362 . S
C1367 H1357 0.930 . S
C1367 C1360 1.409 . S
C1367 C1366 1.362 . S
H1368 C1374 0.930 . S
H1369 C1377 0.930 . S
H1370 C1378 0.930 . S
H1371 C1379 0.930 . S
H1372 C1382 0.930 . S
H1373 C1383 0.930 . S
C1374 H1368 0.930 . S
C1374 C1375 1.355 . S
C1374 C1376 1.415 . S
C1375 C1374 1.355 . S
C1375 C1377 1.419 . S
C1376 C1374 1.415 . S
C1376 C1381 1.425 . S
C1376 C1383 1.409 . S
C1377 H1369 0.930 . S
C1377 C1375 1.419 . S
C1377 C1378 1.362 . S
C1378 H1370 0.930 . S
C1378 C1377 1.362 . S
C1378 C1381 1.409 . S
C1379 H1371 0.930 . S
C1379 C1380 1.355 . S
C1379 C1381 1.415 . S
C1380 C1379 1.355 . S
C1380 C1382 1.419 . S
C1381 C1376 1.425 . S
C1381 C1378 1.409 . S
C1381 C1379 1.415 . S
C1382 H1372 0.930 . S
C1382 C1380 1.419 . S
C1382 C1383 1.362 . S
C1383 H1373 0.930 . S
C1383 C1376 1.409 . S
C1383 C1382 1.362 . S
H1384 C1390 0.930 . S
H1385 C1393 0.930 . S
H1386 C1394 0.930 . S
H1387 C1395 0.930 . S
H1388 C1398 0.930 . S
H1389 C1399 0.930 . S
C1390 H1384 0.930 . S
C1390 C1391 1.355 . S
C1390 C1392 1.415 . S
C1391 C1390 1.355 . S
C1391 C1393 1.419 . S
C1392 C1390 1.415 . S
C1392 C1397 1.425 . S
C1392 C1399 1.409 . S
C1393 H1385 0.930 . S
C1393 C1391 1.419 . S
C1393 C1394 1.362 . S
C1394 H1386 0.930 . S
C1394 C1393 1.362 . S
C1394 C1397 1.409 . S
C1395 H1387 0.930 . S
C1395 C1396 1.355 . S
C1395 C1397 1.415 . S
C1396 C1395 1.355 . S
C1396 C1398 1.419 . S
C1397 C1392 1.425 . S
C1397 C1394 1.409 . S
C1397 C1395 1.415 . S
C1398 H1388 0.930 . S
C1398 C1396 1.419 . S
C1398 C1399 1.362 . S
C1399 H1389 0.930 . S
C1399 C1392 1.409 . S
C1399 C1398 1.362 . S
H1400 C1406 0.930 . S
H1401 C1409 0.930 . S
H1402 C1410 0.930 . S
H1403 C1411 0.930 . S
H1404 C1414 0.930 . S
H1405 C1415 0.930 . S
C1406 H1400 0.930 . S
C1406 C1407 1.355 . S
C1406 C1408 1.415 . S
C1407 C1406 1.355 . S
C1407 C1409 1.419 . S
C1408 C1406 1.415 . S
C1408 C1413 1.425 . S
C1408 C1415 1.409 . S
C1409 H1401 0.930 . S
C1409 C1407 1.419 . S
C1409 C1410 1.362 . S
C1410 H1402 0.930 . S
C1410 C1409 1.362 . S
C1410 C1413 1.409 . S
C1411 H1403 0.930 . S
C1411 C1412 1.355 . S
C1411 C1413 1.415 . S
C1412 C1411 1.355 . S
C1412 C1414 1.419 . S
C1413 C1408 1.425 . S
C1413 C1410 1.409 . S
C1413 C1411 1.415 . S
C1414 H1404 0.930 . S
C1414 C1412 1.419 . S
C1414 C1415 1.362 . S
C1415 H1405 0.930 . S
C1415 C1408 1.409 . S
C1415 C1414 1.362 . S
H1416 C1422 0.930 . S
H1417 C1425 0.930 . S
H1418 C1426 0.930 . S
H1419 C1427 0.930 . S
H1420 C1430 0.930 . S
H1421 C1431 0.930 . S
C1422 H1416 0.930 . S
C1422 C1423 1.355 . S
C1422 C1424 1.415 . S
C1423 C1422 1.355 . S
C1423 C1425 1.419 . S
C1424 C1422 1.415 . S
C1424 C1429 1.425 . S
C1424 C1431 1.409 . S
C1425 H1417 0.930 . S
C1425 C1423 1.419 . S
C1425 C1426 1.362 . S
C1426 H1418 0.930 . S
C1426 C1425 1.362 . S
C1426 C1429 1.409 . S
C1427 H1419 0.930 . S
C1427 C1428 1.355 . S
C1427 C1429 1.415 . S
C1428 C1427 1.355 . S
C1428 C1430 1.419 . S
C1429 C1424 1.425 . S
C1429 C1426 1.409 . S
C1429 C1427 1.415 . S
C1430 H1420 0.930 . S
C1430 C1428 1.419 . S
C1430 C1431 1.362 . S
C1431 H1421 0.930 . S
C1431 C1424 1.409 . S
C1431 C1430 1.362 . S
H1432 C1438 0.930 . S
H1433 C1441 0.930 1_455 S
H1434 C1442 0.930 . S
H1435 C1443 0.930 . S
H1436 C1446 0.930 . S
H1437 C1447 0.930 . S
C1438 H1432 0.930 . S
C1438 C1439 1.355 . S
C1438 C1440 1.415 . S
C1439 C1438 1.355 . S
C1439 C1441 1.419 . S
C1440 C1438 1.415 . S
C1440 C1445 1.425 . S
C1440 C1447 1.409 . S
C1441 H1433 0.930 1_655 S
C1441 C1439 1.419 . S
C1441 C1442 1.362 . S
C1442 H1434 0.930 . S
C1442 C1441 1.362 . S
C1442 C1445 1.409 . S
C1443 H1435 0.930 . S
C1443 C1444 1.355 . S
C1443 C1445 1.415 . S
C1444 C1443 1.355 . S
C1444 C1446 1.419 . S
C1445 C1440 1.425 . S
C1445 C1442 1.409 . S
C1445 C1443 1.415 . S
C1446 H1436 0.930 . S
C1446 C1444 1.419 . S
C1446 C1447 1.362 . S
C1447 H1437 0.930 . S
C1447 C1440 1.409 . S
C1447 C1446 1.362 . S
H1448 C1454 0.930 . S
H1449 C1457 0.930 . S
H1450 C1458 0.930 . S
H1451 C1459 0.930 . S
H1452 C1462 0.930 . S
H1453 C1463 0.930 . S
C1454 H1448 0.930 . S
C1454 C1455 1.355 . S
C1454 C1456 1.415 . S
C1455 C1454 1.355 . S
C1455 C1457 1.419 . S
C1456 C1454 1.415 . S
C1456 C1461 1.425 . S
C1456 C1463 1.409 . S
C1457 H1449 0.930 . S
C1457 C1455 1.419 . S
C1457 C1458 1.362 . S
C1458 H1450 0.930 . S
C1458 C1457 1.362 . S
C1458 C1461 1.409 . S
C1459 H1451 0.930 . S
C1459 C1460 1.355 . S
C1459 C1461 1.415 . S
C1460 C1459 1.355 . S
C1460 C1462 1.419 . S
C1461 C1456 1.425 . S
C1461 C1458 1.409 . S
C1461 C1459 1.415 . S
C1462 H1452 0.930 . S
C1462 C1460 1.419 . S
C1462 C1463 1.362 . S
C1463 H1453 0.930 . S
C1463 C1456 1.409 . S
C1463 C1462 1.362 . S
H1464 C1470 0.930 . S
H1465 C1473 0.930 . S
H1466 C1474 0.930 . S
H1467 C1475 0.930 . S
H1468 C1478 0.930 . S
H1469 C1479 0.930 . S
C1470 H1464 0.930 . S
C1470 C1471 1.355 . S
C1470 C1472 1.415 . S
C1471 C1470 1.355 . S
C1471 C1473 1.419 . S
C1472 C1470 1.415 . S
C1472 C1477 1.425 . S
C1472 C1479 1.409 . S
C1473 H1465 0.930 . S
C1473 C1471 1.419 . S
C1473 C1474 1.362 . S
C1474 H1466 0.930 . S
C1474 C1473 1.362 . S
C1474 C1477 1.409 . S
C1475 H1467 0.930 . S
C1475 C1476 1.355 . S
C1475 C1477 1.415 . S
C1476 C1475 1.355 . S
C1476 C1478 1.419 . S
C1477 C1472 1.425 . S
C1477 C1474 1.409 . S
C1477 C1475 1.415 . S
C1478 H1468 0.930 . S
C1478 C1476 1.419 . S
C1478 C1479 1.362 . S
C1479 H1469 0.930 . S
C1479 C1472 1.409 . S
C1479 C1478 1.362 . S
H1480 C1486 0.930 . S
H1481 C1489 0.930 . S
H1482 C1490 0.930 . S
H1483 C1491 0.930 . S
H1484 C1494 0.930 . S
H1485 C1495 0.930 . S
C1486 H1480 0.930 . S
C1486 C1487 1.355 . S
C1486 C1488 1.415 . S
C1487 C1486 1.355 . S
C1487 C1489 1.419 . S
C1488 C1486 1.415 . S
C1488 C1493 1.425 . S
C1488 C1495 1.409 . S
C1489 H1481 0.930 . S
C1489 C1487 1.419 . S
C1489 C1490 1.362 . S
C1490 H1482 0.930 . S
C1490 C1489 1.362 . S
C1490 C1493 1.409 . S
C1491 H1483 0.930 . S
C1491 C1492 1.355 . S
C1491 C1493 1.415 . S
C1492 C1491 1.355 . S
C1492 C1494 1.419 . S
C1493 C1488 1.425 . S
C1493 C1490 1.409 . S
C1493 C1491 1.415 . S
C1494 H1484 0.930 . S
C1494 C1492 1.419 . S
C1494 C1495 1.362 . S
C1495 H1485 0.930 . S
C1495 C1488 1.409 . S
C1495 C1494 1.362 . S
H1496 C1502 0.930 . S
H1497 C1505 0.930 . S
H1498 C1506 0.930 . S
H1499 C1507 0.930 . S
H1500 C1510 0.930 . S
H1501 C1511 0.930 . S
C1502 H1496 0.930 . S
C1502 C1503 1.355 . S
C1502 C1504 1.415 . S
C1503 C1502 1.355 . S
C1503 C1505 1.419 . S
C1504 C1502 1.415 . S
C1504 C1509 1.425 . S
C1504 C1511 1.409 . S
C1505 H1497 0.930 . S
C1505 C1503 1.419 . S
C1505 C1506 1.362 . S
C1506 H1498 0.930 . S
C1506 C1505 1.362 . S
C1506 C1509 1.409 . S
C1507 H1499 0.930 . S
C1507 C1508 1.355 . S
C1507 C1509 1.415 . S
C1508 C1507 1.355 . S
C1508 C1510 1.419 . S
C1509 C1504 1.425 . S
C1509 C1506 1.409 . S
C1509 C1507 1.415 . S
C1510 H1500 0.930 . S
C1510 C1508 1.419 . S
C1510 C1511 1.362 . S
C1511 H1501 0.930 . S
C1511 C1504 1.409 . S
C1511 C1510 1.362 . S
H1512 C1518 0.930 . S
H1513 C1521 0.930 . S
H1514 C1522 0.930 . S
H1515 C1523 0.930 . S
H1516 C1526 0.930 . S
H1517 C1527 0.930 . S
C1518 H1512 0.930 . S
C1518 C1519 1.355 . S
C1518 C1520 1.415 . S
C1519 C1518 1.355 . S
C1519 C1521 1.419 . S
C1520 C1518 1.415 . S
C1520 C1525 1.425 . S
C1520 C1527 1.409 . S
C1521 H1513 0.930 . S
C1521 C1519 1.419 . S
C1521 C1522 1.362 . S
C1522 H1514 0.930 . S
C1522 C1521 1.362 . S
C1522 C1525 1.409 . S
C1523 H1515 0.930 . S
C1523 C1524 1.355 . S
C1523 C1525 1.415 . S
C1524 C1523 1.355 . S
C1524 C1526 1.419 . S
C1525 C1520 1.425 . S
C1525 C1522 1.409 . S
C1525 C1523 1.415 . S
C1526 H1516 0.930 . S
C1526 C1524 1.419 . S
C1526 C1527 1.362 . S
C1527 H1517 0.930 . S
C1527 C1520 1.409 . S
C1527 C1526 1.362 . S
H1528 C1534 0.930 . S
H1529 C1537 0.930 . S
H1530 C1538 0.930 . S
H1531 C1539 0.930 . S
H1532 C1542 0.930 . S
H1533 C1543 0.930 . S
C1534 H1528 0.930 . S
C1534 C1535 1.355 . S
C1534 C1536 1.415 . S
C1535 C1534 1.355 . S
C1535 C1537 1.419 . S
C1536 C1534 1.415 . S
C1536 C1541 1.425 . S
C1536 C1543 1.409 . S
C1537 H1529 0.930 . S
C1537 C1535 1.419 . S
C1537 C1538 1.362 . S
C1538 H1530 0.930 . S
C1538 C1537 1.362 . S
C1538 C1541 1.409 . S
C1539 H1531 0.930 . S
C1539 C1540 1.355 . S
C1539 C1541 1.415 . S
C1540 C1539 1.355 . S
C1540 C1542 1.419 . S
C1541 C1536 1.425 . S
C1541 C1538 1.409 . S
C1541 C1539 1.415 . S
C1542 H1532 0.930 . S
C1542 C1540 1.419 . S
C1542 C1543 1.362 . S
C1543 H1533 0.930 . S
C1543 C1536 1.409 . S
C1543 C1542 1.362 . S
H1544 C1550 0.930 . S
H1545 C1553 0.930 . S
H1546 C1554 0.930 . S
H1547 C1555 0.930 . S
H1548 C1558 0.930 . S
H1549 C1559 0.930 . S
C1550 H1544 0.930 . S
C1550 C1551 1.355 . S
C1550 C1552 1.415 . S
C1551 C1550 1.355 . S
C1551 C1553 1.419 . S
C1552 C1550 1.415 . S
C1552 C1557 1.425 . S
C1552 C1559 1.409 . S
C1553 H1545 0.930 . S
C1553 C1551 1.419 . S
C1553 C1554 1.362 . S
C1554 H1546 0.930 . S
C1554 C1553 1.362 . S
C1554 C1557 1.409 . S
C1555 H1547 0.930 . S
C1555 C1556 1.355 . S
C1555 C1557 1.415 . S
C1556 C1555 1.355 . S
C1556 C1558 1.419 . S
C1557 C1552 1.425 . S
C1557 C1554 1.409 . S
C1557 C1555 1.415 . S
C1558 H1548 0.930 . S
C1558 C1556 1.419 . S
C1558 C1559 1.362 . S
C1559 H1549 0.930 . S
C1559 C1552 1.409 . S
C1559 C1558 1.362 . S
H1560 C1566 0.930 . S
H1561 C1569 0.930 . S
H1562 C1570 0.930 . S
H1563 C1571 0.930 . S
H1564 C1574 0.930 . S
H1565 C1575 0.930 . S
C1566 H1560 0.930 . S
C1566 C1567 1.355 . S
C1566 C1568 1.415 . S
C1567 C1566 1.355 . S
C1567 C1569 1.419 . S
C1568 C1566 1.415 . S
C1568 C1573 1.425 . S
C1568 C1575 1.409 . S
C1569 H1561 0.930 . S
C1569 C1567 1.419 . S
C1569 C1570 1.362 . S
C1570 H1562 0.930 . S
C1570 C1569 1.362 . S
C1570 C1573 1.409 . S
C1571 H1563 0.930 . S
C1571 C1572 1.355 . S
C1571 C1573 1.415 . S
C1572 C1571 1.355 . S
C1572 C1574 1.419 . S
C1573 C1568 1.425 . S
C1573 C1570 1.409 . S
C1573 C1571 1.415 . S
C1574 H1564 0.930 . S
C1574 C1572 1.419 . S
C1574 C1575 1.362 . S
C1575 H1565 0.930 . S
C1575 C1568 1.409 . S
C1575 C1574 1.362 . S
H1576 C1582 0.930 . S
H1577 C1585 0.930 . S
H1578 C1586 0.930 . S
H1579 C1587 0.930 . S
H1580 C1590 0.930 . S
H1581 C1591 0.930 . S
C1582 H1576 0.930 . S
C1582 C1583 1.355 . S
C1582 C1584 1.415 . S
C1583 C1582 1.355 . S
C1583 C1585 1.419 . S
C1584 C1582 1.415 . S
C1584 C1589 1.425 . S
C1584 C1591 1.409 . S
C1585 H1577 0.930 . S
C1585 C1583 1.419 . S
C1585 C1586 1.362 . S
C1586 H1578 0.930 . S
C1586 C1585 1.362 . S
C1586 C1589 1.409 . S
C1587 H1579 0.930 . S
C1587 C1588 1.355 . S
C1587 C1589 1.415 . S
C1588 C1587 1.355 . S
C1588 C1590 1.419 . S
C1589 C1584 1.425 . S
C1589 C1586 1.409 . S
C1589 C1587 1.415 . S
C1590 H1580 0.930 . S
C1590 C1588 1.419 . S
C1590 C1591 1.362 . S
C1591 H1581 0.930 . S
C1591 C1584 1.409 . S
C1591 C1590 1.362 . S
H1592 C1598 0.930 . S
H1593 C1601 0.930 . S
H1594 C1602 0.930 . S
H1595 C1603 0.930 . S
H1596 C1606 0.930 . S
H1597 C1607 0.930 . S
C1598 H1592 0.930 . S
C1598 C1599 1.355 . S
C1598 C1600 1.415 . S
C1599 C1598 1.355 . S
C1599 C1601 1.419 . S
C1600 C1598 1.415 . S
C1600 C1605 1.425 . S
C1600 C1607 1.409 . S
C1601 H1593 0.930 . S
C1601 C1599 1.419 . S
C1601 C1602 1.362 . S
C1602 H1594 0.930 . S
C1602 C1601 1.362 . S
C1602 C1605 1.409 . S
C1603 H1595 0.930 . S
C1603 C1604 1.355 . S
C1603 C1605 1.415 . S
C1604 C1603 1.355 . S
C1604 C1606 1.419 . S
C1605 C1600 1.425 . S
C1605 C1602 1.409 . S
C1605 C1603 1.415 . S
C1606 H1596 0.930 . S
C1606 C1604 1.419 . S
C1606 C1607 1.362 . S
C1607 H1597 0.930 . S
C1607 C1600 1.409 . S
C1607 C1606 1.362 . S
H1608 C1614 0.930 . S
H1609 C1617 0.930 . S
H1610 C1618 0.930 . S
H1611 C1619 0.930 . S
H1612 C1622 0.930 . S
H1613 C1623 0.930 . S
C1614 H1608 0.930 . S
C1614 C1615 1.355 . S
C1614 C1616 1.415 . S
C1615 C1614 1.355 . S
C1615 C1617 1.419 . S
C1616 C1614 1.415 . S
C1616 C1621 1.425 . S
C1616 C1623 1.409 . S
C1617 H1609 0.930 . S
C1617 C1615 1.419 . S
C1617 C1618 1.362 . S
C1618 H1610 0.930 . S
C1618 C1617 1.362 . S
C1618 C1621 1.409 . S
C1619 H1611 0.930 . S
C1619 C1620 1.355 . S
C1619 C1621 1.415 . S
C1620 C1619 1.355 . S
C1620 C1622 1.419 . S
C1621 C1616 1.425 . S
C1621 C1618 1.409 . S
C1621 C1619 1.415 . S
C1622 H1612 0.930 . S
C1622 C1620 1.419 . S
C1622 C1623 1.362 . S
C1623 H1613 0.930 . S
C1623 C1616 1.409 . S
C1623 C1622 1.362 . S
H1624 C1630 0.930 . S
H1625 C1633 0.930 . S
H1626 C1634 0.930 . S
H1627 C1635 0.930 . S
H1628 C1638 0.930 . S
H1629 C1639 0.930 . S
C1630 H1624 0.930 . S
C1630 C1631 1.355 . S
C1630 C1632 1.415 . S
C1631 C1630 1.355 . S
C1631 C1633 1.419 . S
C1632 C1630 1.415 . S
C1632 C1637 1.425 . S
C1632 C1639 1.409 . S
C1633 H1625 0.930 . S
C1633 C1631 1.419 . S
C1633 C1634 1.362 . S
C1634 H1626 0.930 . S
C1634 C1633 1.362 . S
C1634 C1637 1.409 . S
C1635 H1627 0.930 . S
C1635 C1636 1.355 . S
C1635 C1637 1.415 . S
C1636 C1635 1.355 . S
C1636 C1638 1.419 . S
C1637 C1632 1.425 . S
C1637 C1634 1.409 . S
C1637 C1635 1.415 . S
C1638 H1628 0.930 . S
C1638 C1636 1.419 . S
C1638 C1639 1.362 . S
C1639 H1629 0.930 . S
C1639 C1632 1.409 . S
C1639 C1638 1.362 . S
H1640 C1646 0.930 . S
H1641 C1649 0.930 . S
H1642 C1650 0.930 . S
H1643 C1651 0.930 . S
H1644 C1654 0.930 . S
H1645 C1655 0.930 . S
C1646 H1640 0.930 . S
C1646 C1647 1.355 . S
C1646 C1648 1.415 . S
C1647 C1646 1.355 . S
C1647 C1649 1.419 . S
C1648 C1646 1.415 . S
C1648 C1653 1.425 . S
C1648 C1655 1.409 . S
C1649 H1641 0.930 . S
C1649 C1647 1.419 . S
C1649 C1650 1.362 . S
C1650 H1642 0.930 . S
C1650 C1649 1.362 . S
C1650 C1653 1.409 . S
C1651 H1643 0.930 . S
C1651 C1652 1.355 . S
C1651 C1653 1.415 . S
C1652 C1651 1.355 . S
C1652 C1654 1.419 . S
C1653 C1648 1.425 . S
C1653 C1650 1.409 . S
C1653 C1651 1.415 . S
C1654 H1644 0.930 . S
C1654 C1652 1.419 . S
C1654 C1655 1.362 . S
C1655 H1645 0.930 . S
C1655 C1648 1.409 . S
C1655 C1654 1.362 . S
C511 C36 1.348 . S
C516 C256 1.135 . S
C527 C13 1.242 . S
C532 C272 1.199 . S
C548 C255 1.279 . S
C543 C22 1.333 . S
C564 C280 1.109 . S
C559 C41 1.320 . S
C575 C8 1.357 . S
C580 C289 1.168 1_565 S
C596 C292 1.090 . S
C591 C27 1.270 1_455 S
C607 C78 1.336 . S
C612 C298 1.260 . S
C628 C314 1.218 . S
C623 C55 1.246 . S
C644 C297 1.254 . S
C639 C64 1.352 . S
C655 C83 1.309 . S
C660 C322 1.156 . S
C676 C331 1.129 . S
C671 C50 1.318 . S
C692 C334 1.183 . S
C687 C69 1.223 . S
C708 C343 1.211 . S
C703 C120 1.263 . S
C724 C355 1.073 . S
C719 C97 1.318 . S
C740 C352 1.172 . S
C735 C106 1.311 . S
C751 C125 1.276 . S
C756 C361 1.204 . S
C772 C360 1.132 . S
C767 C92 1.310 . S
C783 C111 1.274 . S
C788 C377 1.127 . S
C804 C382 1.284 . S
C799 C162 1.284 . S
C820 C398 1.073 . S
C815 C139 1.317 . S
C831 C148 1.356 . S
C836 C381 1.247 . S
C852 C406 1.164 . S
C847 C167 1.306 . S
C868 C415 1.159 . S
C863 C134 1.279 . S
C879 C153 1.299 . S
C884 C418 1.065 . S
C895 C204 1.279 . S
C900 C427 1.178 . S
C916 C439 1.137 . S
C911 C181 1.296 . S
C932 C436 1.187 . S
C927 C190 1.370 . S
C943 C209 1.269 . S
C948 C445 1.226 . S
C964 C444 1.225 . S
C959 C176 1.249 . S
C975 C195 1.300 . S
C980 C461 1.050 . S
C996 C466 1.266 . S
C991 C246 1.262 . S
C1012 C482 1.081 . S
C1007 C223 1.309 . S
C1023 C232 1.302 . S
C1028 C465 1.181 . S
C1044 C487 1.139 . S
C1039 C251 1.317 . S
C1060 C486 1.165 . S
C1055 C218 1.357 . S
C1076 C503 1.065 . S
C1071 C237 1.299 . S
C1092 C268 1.403 . S
C1087 C161 1.476 . S
C1103 C137 1.506 . S
C1108 C271 1.439 1_655 S
C1124 C259 1.443 . S
C1119 C147 1.494 . S
C1135 C249 1.478 . S
C1140 C276 1.414 . S
C1151 C217 1.400 . S
C1156 C277 1.323 . S
C1172 C293 1.427 . S
C1167 C235 1.481 . S
C1188 C310 1.406 1_565 S
C1183 C203 1.475 . S
C1204 C313 1.400 . S
C1199 C179 1.503 . S
C1215 C189 1.483 . S
C1220 C301 1.426 . S
C1236 C318 1.327 . S
C1231 C123 1.466 . S
C1247 C91 1.394 . S
C1252 C319 1.294 . S
C1263 C109 1.470 . S
C1268 C335 1.329 . S
C1279 C245 1.501 . S
C1284 C339 1.363 . S
C1295 C221 1.503 . S
C1300 C356 1.398 . S
C1316 C340 1.357 . S
C1311 C231 1.474 . S
C1332 C373 1.344 . S
C1327 C81 1.472 . S
C1348 C364 1.276 . S
C1343 C49 1.394 . S
C1359 C67 1.477 . S
C1364 C376 1.341 . S
C1380 C394 1.359 . S
C1375 C35 1.470 . S
C1396 C397 1.393 . S
C1391 C11 1.503 . S
C1407 C21 1.476 . S
C1412 C385 1.348 . S
C1428 C402 1.331 . S
C1423 C207 1.468 . S
C1444 C403 1.272 . S
C1439 C175 1.394 1_655 S
C1460 C419 1.427 . S
C1455 C193 1.477 . S
C1476 C423 1.373 . S
C1471 C77 1.471 . S
C1492 C440 1.468 . S
C1487 C53 1.519 . S
C1503 C63 1.493 . S
C1508 C424 1.356 . S
C1519 C165 1.478 . S
C1524 C457 1.379 . S
C1535 C133 1.430 . S
C1540 C448 1.339 . S
C1556 C460 1.429 . S
C1551 C151 1.480 . S
C1567 C119 1.477 . S
C1572 C478 1.408 . S
C1583 C95 1.525 . S
C1588 C481 1.415 . S
C1604 C469 1.407 . S
C1599 C105 1.506 . S
C1620 C499 1.360 . S
C1615 C39 1.476 . S
C1636 C490 1.264 . S
C1631 C7 1.408 . S
C1647 C25 1.482 . S
C1652 C502 1.426 . S
