# Generated by pormake.
# Topology apo, (3,6)-cn, num edge types: 1
# Building blocks:
#     Node 0, Type 0, BuildingBlock: OLANEW_clean_sbu_2, # of connection points: 3
#     Node 1, Type 0, BuildingBlock: OLANEW_clean_sbu_2, # of connection points: 3
#     Node 2, Type 0, BuildingBlock: OLANEW_clean_sbu_2, # of connection points: 3
#     Node 3, Type 0, BuildingBlock: OLANEW_clean_sbu_2, # of connection points: 3
#     Node 4, Type 0, BuildingBlock: OLANEW_clean_sbu_2, # of connection points: 3
#     Node 5, Type 0, BuildingBlock: OLANEW_clean_sbu_2, # of connection points: 3
#     Node 6, Type 0, BuildingBlock: OLANEW_clean_sbu_2, # of connection points: 3
#     Node 7, Type 0, BuildingBlock: OLANEW_clean_sbu_2, # of connection points: 3
#     Node 8, Type 1, BuildingBlock: KUMJIN_clean_sbu_1, # of connection points: 6
#     Node 9, Type 1, BuildingBlock: KUMJIN_clean_sbu_1, # of connection points: 6
#     Node 10, Type 1, BuildingBlock: KUMJIN_clean_sbu_1, # of connection points: 6
#     Node 11, Type 1, BuildingBlock: KUMJIN_clean_sbu_1, # of connection points: 6
#     Edge 12, Type (0, 1), BuildingBlock: UVAHIK_clean_linker_0, # of connection points: 2
#     Edge 13, Type (0, 1), BuildingBlock: UVAHIK_clean_linker_0, # of connection points: 2
#     Edge 14, Type (0, 1), BuildingBlock: UVAHIK_clean_linker_0, # of connection points: 2
#     Edge 15, Type (0, 1), BuildingBlock: UVAHIK_clean_linker_0, # of connection points: 2
#     Edge 16, Type (0, 1), BuildingBlock: UVAHIK_clean_linker_0, # of connection points: 2
#     Edge 17, Type (0, 1), BuildingBlock: UVAHIK_clean_linker_0, # of connection points: 2
#     Edge 18, Type (0, 1), BuildingBlock: UVAHIK_clean_linker_0, # of connection points: 2
#     Edge 19, Type (0, 1), BuildingBlock: UVAHIK_clean_linker_0, # of connection points: 2
#     Edge 20, Type (0, 1), BuildingBlock: UVAHIK_clean_linker_0, # of connection points: 2
#     Edge 21, Type (0, 1), BuildingBlock: UVAHIK_clean_linker_0, # of connection points: 2
#     Edge 22, Type (0, 1), BuildingBlock: UVAHIK_clean_linker_0, # of connection points: 2
#     Edge 23, Type (0, 1), BuildingBlock: UVAHIK_clean_linker_0, # of connection points: 2
#     Edge 24, Type (0, 1), BuildingBlock: UVAHIK_clean_linker_0, # of connection points: 2
#     Edge 25, Type (0, 1), BuildingBlock: UVAHIK_clean_linker_0, # of connection points: 2
#     Edge 26, Type (0, 1), BuildingBlock: UVAHIK_clean_linker_0, # of connection points: 2
#     Edge 27, Type (0, 1), BuildingBlock: UVAHIK_clean_linker_0, # of connection points: 2
#     Edge 28, Type (0, 1), BuildingBlock: UVAHIK_clean_linker_0, # of connection points: 2
#     Edge 29, Type (0, 1), BuildingBlock: UVAHIK_clean_linker_0, # of connection points: 2
#     Edge 30, Type (0, 1), BuildingBlock: UVAHIK_clean_linker_0, # of connection points: 2
#     Edge 31, Type (0, 1), BuildingBlock: UVAHIK_clean_linker_0, # of connection points: 2
#     Edge 32, Type (0, 1), BuildingBlock: UVAHIK_clean_linker_0, # of connection points: 2
#     Edge 33, Type (0, 1), BuildingBlock: UVAHIK_clean_linker_0, # of connection points: 2
#     Edge 34, Type (0, 1), BuildingBlock: UVAHIK_clean_linker_0, # of connection points: 2
#     Edge 35, Type (0, 1), BuildingBlock: UVAHIK_clean_linker_0, # of connection points: 2
# Relax obj value: 0.029
# Max RMSD: 0.212
# Mean RMSD: 0.128
data_MOF--net-apo--node1-OLANEW_clean_sbu_2--node2-KUMJIN_clean_sbu_1--edge1-UVAHIK_clean_linker_0
_symmetry_space_group_name_H-M    P1
_symmetry_Int_Tables_number       1
_symmetry_cell_setting            triclinic
loop_
_symmetry_equiv_pos_as_xyz
'x, y, z'
_cell_length_a     35.386531
_cell_length_b     58.422803
_cell_length_c     69.599562
_cell_angle_alpha  88.865777
_cell_angle_beta   90.177522
_cell_angle_gamma 91.046849
loop_
_atom_site_label
_atom_site_type_symbol
_atom_site_fract_x
_atom_site_fract_y
_atom_site_fract_z
_atom_type_partial_charge
O0 O 0.29191 0.38229 0.3794 0.0
Cd1 Cd 0.26833 0.35176 0.40103 0.0
O2 O 0.35158 0.37531 0.38585 0.0
Cd3 Cd 0.3397 0.35403 0.41139 0.0
O4 O 0.34798 0.34885 0.44236 0.0
C5 C 0.37964 0.35603 0.44877 0.0
O6 O 0.40441 0.3648 0.43653 0.0
C7 C 0.32683 0.38606 0.37614 0.0
C8 C 0.23291 0.31688 0.38025 0.0
O9 O 0.21419 0.33385 0.38633 0.0
O10 O 0.26833 0.31632 0.38412 0.0
O11 O 0.25774 0.13054 0.93852 0.0
Cd12 Cd 0.267 0.12817 0.90372 0.0
O13 O 0.27496 0.0949 0.94347 0.0
Cd14 Cd 0.2795 0.08693 0.91307 0.0
O15 O 0.26291 0.06823 0.88744 0.0
C16 C 0.2341 0.0745 0.87789 0.0
O17 O 0.21658 0.09307 0.88296 0.0
C18 C 0.26411 0.11384 0.95003 0.0
C19 C 0.30966 0.16421 0.88738 0.0
O20 O 0.27373 0.16557 0.88921 0.0
O21 O 0.32554 0.14594 0.89357 0.0
O22 O 0.82748 0.11538 0.61607 0.0
Cd23 Cd 0.8082 0.14953 0.59786 0.0
O24 O 0.88259 0.11344 0.60155 0.0
Cd25 Cd 0.87 0.13634 0.57722 0.0
O26 O 0.8725 0.1411 0.54592 0.0
C27 C 0.88505 0.12408 0.53693 0.0
O28 O 0.89497 0.10579 0.54688 0.0
C29 C 0.85987 0.10648 0.61463 0.0
C30 C 0.76753 0.17898 0.62106 0.0
O31 O 0.75043 0.16474 0.61011 0.0
O32 O 0.80375 0.17939 0.62099 0.0
O33 O 0.73678 0.33804 0.05494 0.0
Cd34 Cd 0.74441 0.34444 0.08948 0.0
O35 O 0.75529 0.3731 0.0469 0.0
Cd36 Cd 0.75691 0.38515 0.07642 0.0
O37 O 0.73874 0.40676 0.09986 0.0
C38 C 0.72134 0.42468 0.09462 0.0
O39 O 0.71656 0.42881 0.07615 0.0
C40 C 0.7444 0.35316 0.04204 0.0
C41 C 0.78876 0.31199 0.10863 0.0
O42 O 0.7531 0.30872 0.10641 0.0
O43 O 0.80359 0.33047 0.10156 0.0
O44 O 0.73041 0.60099 0.61978 0.0
Cd45 Cd 0.75759 0.63144 0.59921 0.0
O46 O 0.69002 0.59021 0.59747 0.0
Cd47 Cd 0.70721 0.6148 0.575 0.0
O48 O 0.70672 0.62595 0.54487 0.0
C49 C 0.67501 0.63085 0.53736 0.0
O50 O 0.64485 0.63053 0.54833 0.0
C51 C 0.70371 0.58778 0.61428 0.0
C52 C 0.79028 0.6668 0.62037 0.0
O53 O 0.75593 0.66785 0.61457 0.0
O54 O 0.80908 0.64903 0.6162 0.0
O55 O 0.80083 0.88741 0.1208 0.0
Cd56 Cd 0.76989 0.85783 0.10153 0.0
O57 O 0.84129 0.89607 0.0977 0.0
Cd58 Cd 0.82137 0.8715 0.07653 0.0
O59 O 0.82037 0.85956 0.04697 0.0
C60 C 0.85189 0.85484 0.03943 0.0
O61 O 0.88257 0.85589 0.05008 0.0
C62 C 0.82857 0.89945 0.11446 0.0
C63 C 0.73362 0.82335 0.12335 0.0
O64 O 0.76792 0.82127 0.11787 0.0
O65 O 0.71662 0.84185 0.1187 0.0
O66 O 0.22196 0.87743 0.36501 0.0
Cd67 Cd 0.2403 0.84484 0.3856 0.0
O68 O 0.21294 0.89875 0.39025 0.0
Cd69 Cd 0.2247 0.87311 0.41256 0.0
O70 O 0.21886 0.86258 0.44268 0.0
C71 C 0.18676 0.86605 0.45011 0.0
O72 O 0.15972 0.87421 0.4391 0.0
C73 C 0.21299 0.89648 0.37212 0.0
C74 C 0.2792 0.81074 0.36662 0.0
O75 O 0.24303 0.81024 0.36766 0.0
O76 O 0.29698 0.82754 0.37434 0.0
O77 O 0.30377 0.60187 0.8635 0.0
Cd78 Cd 0.28169 0.63325 0.88328 0.0
O79 O 0.31297 0.58035 0.88935 0.0
Cd80 Cd 0.29851 0.60514 0.91103 0.0
O81 O 0.30274 0.61502 0.94105 0.0
C82 C 0.33305 0.60915 0.94949 0.0
O83 O 0.35909 0.59895 0.9395 0.0
C84 C 0.31371 0.58295 0.87117 0.0
C85 C 0.23937 0.66624 0.86359 0.0
O86 O 0.27536 0.6684 0.86517 0.0
O87 O 0.22347 0.6483 0.87103 0.0
Eu88 Eu 0.07581 0.11519 0.22385 0.0
C89 C 0.91605 0.07993 0.23695 0.0
N90 N 0.92756 0.10228 0.23649 0.0
C91 C 0.87679 0.11182 0.21512 0.0
C92 C 0.88484 0.07256 0.22588 0.0
C93 C 0.90808 0.11833 0.22617 0.0
C94 C 0.86526 0.08882 0.21486 0.0
C95 C 0.92496 0.04099 0.24866 0.0
C96 C 0.93617 0.06432 0.24816 0.0
C97 C 0.89458 0.03351 0.23721 0.0
C98 C 0.87451 0.04925 0.22591 0.0
Eu99 Eu 0.98032 0.11169 0.25573 0.0
N100 N 0.96578 0.07196 0.25901 0.0
C101 C 0.94394 0.02595 0.26106 0.0
C102 C 0.98142 0.0578 0.27258 0.0
C103 C 0.97171 0.03451 0.27338 0.0
H104 H 0.91703 0.1361 0.22639 0.0
H105 H 0.98509 0.02327 0.28381 0.0
H106 H 0.13187 0.07176 0.23653 0.0
H107 H 0.10257 0.20764 0.225 0.0
H108 H 1.00063 0.0644 0.28323 0.0
H109 H 0.93622 0.00792 0.26184 0.0
H110 H 0.06579 0.17238 0.21867 0.0
H111 H 0.86165 0.12452 0.20676 0.0
H112 H 0.88595 0.01561 0.23725 0.0
H113 H 0.85094 0.04322 0.21729 0.0
H114 H 0.19539 0.06619 0.25056 0.0
H115 H 0.84119 0.08381 0.20615 0.0
H116 H 0.16703 0.20524 0.23863 0.0
N117 N 0.13634 0.10803 0.23651 0.0
C118 C 0.1585 0.12676 0.23997 0.0
C119 C 0.18529 0.08331 0.24774 0.0
C120 C 0.19509 0.1244 0.24775 0.0
C121 C 0.1492 0.08649 0.24002 0.0
C122 C 0.20831 0.10234 0.25168 0.0
N123 N 0.10832 0.15018 0.22923 0.0
C124 C 0.0936 0.17105 0.22483 0.0
C125 C 0.16641 0.16816 0.23978 0.0
C126 C 0.14432 0.14842 0.23601 0.0
C127 C 0.15099 0.18966 0.23589 0.0
C128 C 0.11453 0.19109 0.22827 0.0
H129 H 0.23626 0.09981 0.25767 0.0
H130 H 0.24535 0.14256 0.25747 0.0
H131 H 0.22023 0.18083 0.25054 0.0
O132 O 0.07407 0.12448 0.19331 0.0
O133 O 0.07955 0.13139 0.25323 0.0
O134 O 0.01943 0.14151 0.26276 0.0
O135 O 0.11682 0.10148 0.20393 0.0
O136 O 0.02606 0.13653 0.2136 0.0
O137 O 0.98943 0.14542 0.23993 0.0
O138 O 0.96087 0.10826 0.286 0.0
O139 O 0.98148 0.10165 0.22416 0.0
O140 O 0.03781 0.08394 0.22163 0.0
O141 O 0.93201 0.13059 0.26539 0.0
O142 O 0.03424 0.09599 0.26818 0.0
O143 O 0.06325 0.08282 0.24106 0.0
C144 C 0.05649 0.14342 0.26363 0.0
C145 C 0.09531 0.09647 0.17222 0.0
C146 C 0.10668 0.08852 0.13843 0.0
C147 C 0.08314 0.06891 0.1402 0.0
C148 C 0.07211 0.07681 0.17372 0.0
C149 C 0.066 0.06315 0.15774 0.0
C150 C 0.11251 0.10227 0.15461 0.0
C151 C 1.00039 0.14895 0.22206 0.0
C152 C 0.10173 0.11115 0.18883 0.0
C153 C 0.21719 0.14404 0.25147 0.0
C154 C 0.2029 0.16585 0.2475 0.0
C155 C 1.00184 0.08512 0.21747 0.0
C156 C 0.9049 0.12873 0.29717 0.0
C157 C 0.8828 0.13077 0.33033 0.0
C158 C 0.84926 0.14074 0.3236 0.0
C159 C 0.87111 0.13875 0.29087 0.0
C160 C 0.91073 0.12483 0.31699 0.0
C161 C 0.84356 0.1447 0.30402 0.0
C162 C 0.05786 0.08213 0.25974 0.0
C163 C 0.93322 0.12227 0.28279 0.0
H164 H 0.07842 0.05781 0.12812 0.0
H165 H 0.05887 0.07199 0.18721 0.0
H166 H 0.04808 0.04797 0.15899 0.0
H167 H 0.13009 0.11763 0.15349 0.0
H168 H 0.82756 0.14576 0.33354 0.0
H169 H 0.86579 0.14187 0.27571 0.0
H170 H 0.93662 0.11704 0.32199 0.0
H171 H 0.81767 0.15242 0.29901 0.0
Eu172 Eu 0.4802 0.36744 0.73434 0.0
C173 C 0.633 0.41104 0.75254 0.0
N174 N 0.62569 0.38812 0.75267 0.0
C175 C 0.68099 0.382 0.73378 0.0
C176 C 0.66435 0.42042 0.74245 0.0
C177 C 0.6494 0.37349 0.74381 0.0
C178 C 0.68835 0.40558 0.73298 0.0
C179 C 0.61602 0.44899 0.76261 0.0
C180 C 0.60876 0.42515 0.76233 0.0
C181 C 0.6464 0.45847 0.75202 0.0
C182 C 0.67052 0.44423 0.74199 0.0
Eu183 Eu 0.57094 0.37529 0.76924 0.0
N184 N 0.57935 0.41553 0.77238 0.0
C185 C 0.5934 0.46249 0.77411 0.0
C186 C 0.56049 0.42827 0.78537 0.0
C187 C 0.56617 0.45199 0.78593 0.0
H188 H 0.64358 0.3553 0.74436 0.0
H189 H 0.5501 0.46207 0.79579 0.0
H190 H 0.41731 0.40799 0.7436 0.0
H191 H 0.4657 0.27409 0.73925 0.0
H192 H 0.54156 0.42024 0.79567 0.0
H193 H 0.59805 0.48085 0.77472 0.0
H194 H 0.49797 0.31084 0.73184 0.0
H195 H 0.69951 0.37039 0.72659 0.0
H196 H 0.65203 0.47677 0.75186 0.0
H197 H 0.69412 0.45177 0.73408 0.0
H198 H 0.35234 0.41054 0.75622 0.0
H199 H 0.71267 0.41214 0.72505 0.0
H200 H 0.40031 0.27349 0.7517 0.0
N201 N 0.41782 0.37166 0.74525 0.0
C202 C 0.39807 0.35198 0.74927 0.0
C203 C 0.36492 0.39398 0.75442 0.0
C204 C 0.36079 0.35262 0.75632 0.0
C205 C 0.40181 0.3925 0.74748 0.0
C206 C 0.34435 0.37396 0.75892 0.0
N207 N 0.45188 0.33104 0.74044 0.0
C208 C 0.46965 0.31092 0.73737 0.0
C209 C 0.39584 0.31041 0.75102 0.0
C210 C 0.4154 0.33109 0.74662 0.0
C211 C 0.41434 0.28973 0.74843 0.0
C212 C 0.45131 0.29 0.74147 0.0
H213 H 0.31579 0.37517 0.76432 0.0
H214 H 0.31262 0.33221 0.76615 0.0
H215 H 0.3433 0.29529 0.76155 0.0
O216 O 0.48646 0.35873 0.70413 0.0
O217 O 0.47596 0.3525 0.76463 0.0
O218 O 0.53641 0.34246 0.77327 0.0
O219 O 0.43917 0.37888 0.71288 0.0
O220 O 0.53291 0.34775 0.72655 0.0
O221 O 0.57218 0.34206 0.75315 0.0
O222 O 0.57782 0.37558 0.80057 0.0
O223 O 0.57365 0.38541 0.73738 0.0
O224 O 0.51531 0.39992 0.73196 0.0
O225 O 0.62241 0.363 0.78298 0.0
O226 O 0.51353 0.38903 0.77846 0.0
O227 O 0.48666 0.4008 0.74987 0.0
C228 C 0.49958 0.34025 0.77492 0.0
C229 C 0.46467 0.3867 0.6822 0.0
C230 C 0.46366 0.39464 0.64763 0.0
C231 C 0.47962 0.41646 0.65095 0.0
C232 C 0.4803 0.40858 0.68521 0.0
C233 C 0.48783 0.42334 0.66963 0.0
C234 C 0.45631 0.37981 0.66343 0.0
C235 C 0.5609 0.33732 0.73555 0.0
C236 C 0.45769 0.37079 0.69848 0.0
C237 C 0.34124 0.33204 0.76068 0.0
C238 C 0.35871 0.31101 0.75804 0.0
C239 C 0.55178 0.40047 0.72902 0.0
C240 C 0.61342 0.34498 0.81315 0.0
C241 C 0.62838 0.32825 0.84469 0.0
C242 C 0.62071 0.30636 0.83733 0.0
C243 C 0.60588 0.32299 0.80618 0.0
C244 C 0.62447 0.34757 0.83239 0.0
C245 C 0.6094 0.30382 0.81825 0.0
C246 C 0.49015 0.40217 0.76861 0.0
C247 C 0.61003 0.36522 0.80037 0.0
H248 H 0.48526 0.42835 0.63912 0.0
H249 H 0.48658 0.41428 0.69957 0.0
H250 H 0.49995 0.44019 0.67205 0.0
H251 H 0.44459 0.3628 0.66114 0.0
H252 H 0.62404 0.2911 0.84621 0.0
H253 H 0.59754 0.32063 0.79135 0.0
H254 H 0.62974 0.36462 0.83776 0.0
H255 H 0.60367 0.2869 0.81276 0.0
Eu256 Eu 0.05536 0.87708 0.72835 0.0
C257 C 0.88828 0.85119 0.74233 0.0
N258 N 0.90465 0.87244 0.74223 0.0
C259 C 0.85516 0.88695 0.72213 0.0
C260 C 0.85484 0.84693 0.73181 0.0
C261 C 0.88847 0.89034 0.73261 0.0
C262 C 0.83833 0.86514 0.72166 0.0
C263 C 0.88977 0.8112 0.75237 0.0
C264 C 0.90585 0.83349 0.75243 0.0
C265 C 0.85681 0.80684 0.74164 0.0
C266 C 0.83935 0.82466 0.73145 0.0
Eu267 Eu 0.96022 0.8767 0.76061 0.0
N268 N 0.93806 0.8381 0.76256 0.0
C269 C 0.9068 0.79399 0.76343 0.0
C270 C 0.95252 0.82184 0.77473 0.0
C271 C 0.93787 0.79945 0.77495 0.0
H272 H 0.90131 0.90724 0.73309 0.0
H273 H 0.95008 0.78654 0.78432 0.0
H274 H 0.11443 0.842 0.75141 0.0
H275 H 0.07214 0.96867 0.71064 0.0
H276 H 0.97454 0.82602 0.78483 0.0
H277 H 0.89533 0.77666 0.76376 0.0
H278 H 0.0443 0.93011 0.70792 0.0
H279 H 0.84249 0.90113 0.7144 0.0
H280 H 0.84433 0.78977 0.74133 0.0
H281 H 0.81387 0.82102 0.72331 0.0
H282 H 0.17433 0.84439 0.76975 0.0
H283 H 0.81267 0.86253 0.71339 0.0
H284 H 0.12896 0.97486 0.73077 0.0
N285 N 0.11304 0.87769 0.74534 0.0
C286 C 0.13091 0.89839 0.74679 0.0
C287 C 0.16234 0.85972 0.76344 0.0
C288 C 0.16519 0.90057 0.75704 0.0
C289 C 0.12833 0.85841 0.7532 0.0
C290 C 0.18077 0.8809 0.76544 0.0
N291 N 0.08127 0.91487 0.72846 0.0
C292 C 0.06734 0.93267 0.71779 0.0
C293 C 0.13232 0.93921 0.73961 0.0
C294 C 0.1144 0.91752 0.73828 0.0
C295 C 0.11609 0.95792 0.73009 0.0
C296 C 0.08387 0.95453 0.71883 0.0
H297 H 0.20704 0.88186 0.77345 0.0
H298 H 0.20874 0.92427 0.76668 0.0
H299 H 0.18006 0.95807 0.75139 0.0
O300 O 0.06258 0.88095 0.69725 0.0
O301 O 0.05899 0.88909 0.75919 0.0
O302 O 1.00223 0.90585 0.76529 0.0
O303 O 0.09838 0.85798 0.71336 0.0
O304 O 1.00501 0.8976 0.71733 0.0
O305 O 0.97382 0.90966 0.74442 0.0
O306 O 0.94488 0.87359 0.79139 0.0
O307 O 0.95795 0.86542 0.72944 0.0
O308 O 0.01399 0.8474 0.7252 0.0
O309 O 0.91553 0.89735 0.77213 0.0
O310 O 0.01143 0.85754 0.77246 0.0
O311 O 0.04127 0.8446 0.74529 0.0
C312 C 0.03914 0.90517 0.76696 0.0
C313 C 0.12458 0.87643 0.68583 0.0
C314 C 0.15672 0.88194 0.65507 0.0
C315 C 0.18616 0.89377 0.66447 0.0
C316 C 0.15434 0.88815 0.69496 0.0
C317 C 0.18493 0.89678 0.68431 0.0
C318 C 0.12593 0.87331 0.66592 0.0
C319 C 0.98303 0.91202 0.7262 0.0
C320 C 0.09168 0.86765 0.69674 0.0
C321 C 0.18256 0.92223 0.75873 0.0
C322 C 0.16615 0.9415 0.75007 0.0
C323 C 0.97755 0.84889 0.72216 0.0
C324 C 0.89433 0.89656 0.80514 0.0
C325 C 0.87082 0.89305 0.83809 0.0
C326 C 0.84692 0.91162 0.83437 0.0
C327 C 0.87003 0.915 0.80182 0.0
C328 C 0.89473 0.88566 0.82336 0.0
C329 C 0.84658 0.92246 0.81637 0.0
C330 C 0.03391 0.84315 0.76381 0.0
C331 C 0.91863 0.88884 0.7894 0.0
H332 H 0.21038 0.90042 0.65653 0.0
H333 H 0.15405 0.8906 0.71028 0.0
H334 H 0.20779 0.9058 0.69145 0.0
H335 H 0.10273 0.86446 0.65884 0.0
H336 H 0.8288 0.91802 0.84549 0.0
H337 H 0.86914 0.92375 0.78796 0.0
H338 H 0.91308 0.87128 0.82597 0.0
H339 H 0.82813 0.93676 0.81369 0.0
Eu340 Eu 0.46096 0.60773 0.22777 0.0
C341 C 0.62551 0.63739 0.24482 0.0
N342 N 0.61161 0.61559 0.24375 0.0
C343 C 0.66353 0.60519 0.22393 0.0
C344 C 0.65879 0.64406 0.23493 0.0
C345 C 0.63028 0.5994 0.23382 0.0
C346 C 0.67775 0.62764 0.22439 0.0
C347 C 0.61944 0.67597 0.25654 0.0
C348 C 0.60572 0.65319 0.25538 0.0
C349 C 0.65209 0.68279 0.24636 0.0
C350 C 0.67174 0.66688 0.23562 0.0
Eu351 Eu 0.55535 0.60727 0.26077 0.0
N352 N 0.5739 0.64618 0.26497 0.0
C353 C 0.60053 0.69109 0.26833 0.0
C354 C 0.55786 0.66028 0.27795 0.0
C355 C 0.57011 0.68306 0.2794 0.0
H356 H 0.61946 0.58202 0.23358 0.0
H357 H 0.55659 0.69427 0.28937 0.0
H358 H 0.39933 0.63901 0.25165 0.0
H359 H 0.45233 0.51726 0.20793 0.0
H360 H 0.53644 0.65399 0.28774 0.0
H361 H 0.61017 0.7087 0.26961 0.0
H362 H 0.4784 0.55637 0.20713 0.0
H363 H 0.67813 0.59236 0.21593 0.0
H364 H 0.66275 0.70027 0.24695 0.0
H365 H 0.69703 0.67238 0.22795 0.0
H366 H 0.33846 0.63359 0.26865 0.0
H367 H 0.70337 0.63212 0.21659 0.0
H368 H 0.39373 0.5083 0.22599 0.0
N369 N 0.40307 0.60411 0.2442 0.0
C370 C 0.38616 0.58301 0.24437 0.0
C371 C 0.35167 0.61921 0.26198 0.0
C372 C 0.3513 0.57916 0.25377 0.0
C373 C 0.38627 0.6222 0.25254 0.0
C374 C 0.33416 0.59758 0.26266 0.0
N375 N 0.43806 0.56931 0.22659 0.0
C376 C 0.45431 0.55265 0.21608 0.0
C377 C 0.38751 0.543 0.23571 0.0
C378 C 0.40428 0.56511 0.23548 0.0
C379 C 0.40568 0.5255 0.22614 0.0
C380 C 0.43891 0.53045 0.21604 0.0
H381 H 0.3074 0.5953 0.27004 0.0
H382 H 0.30826 0.55378 0.26145 0.0
H383 H 0.33988 0.52216 0.24562 0.0
O384 O 0.4518 0.60552 0.19673 0.0
O385 O 0.45753 0.59183 0.2579 0.0
O386 O 0.51592 0.5764 0.26304 0.0
O387 O 0.41784 0.62813 0.21338 0.0
O388 O 0.51301 0.59054 0.21584 0.0
O389 O 0.5454 0.57628 0.24229 0.0
O390 O 0.56863 0.60709 0.29184 0.0
O391 O 0.55834 0.62198 0.23027 0.0
O392 O 0.50081 0.63855 0.22558 0.0
O393 O 0.60091 0.58642 0.2721 0.0
O394 O 0.50216 0.6236 0.27275 0.0
O395 O 0.47291 0.63874 0.24577 0.0
C396 C 0.47915 0.57593 0.26533 0.0
C397 C 0.389 0.61115 0.18632 0.0
C398 C 0.35648 0.60466 0.15586 0.0
C399 C 0.32505 0.59578 0.16605 0.0
C400 C 0.35715 0.60247 0.19621 0.0
C401 C 0.32546 0.59474 0.1861 0.0
C402 C 0.38846 0.61227 0.16616 0.0
C403 C 0.53751 0.57642 0.2238 0.0
C404 C 0.42299 0.61909 0.19669 0.0
C405 C 0.33492 0.55709 0.2542 0.0
C406 C 0.35299 0.53907 0.24523 0.0
C407 C 0.53748 0.63825 0.2229 0.0
C408 C 0.6196 0.58381 0.30553 0.0
C409 C 0.64388 0.586 0.33837 0.0
C410 C 0.66586 0.56664 0.33507 0.0
C411 C 0.64199 0.56458 0.30259 0.0
C412 C 0.62049 0.59441 0.3235 0.0
C413 C 0.66484 0.55605 0.31731 0.0
C414 C 0.47936 0.63847 0.26439 0.0
C415 C 0.59603 0.59277 0.28966 0.0
H416 H 0.29991 0.58999 0.15853 0.0
H417 H 0.35655 0.60177 0.21171 0.0
H418 H 0.30103 0.58807 0.19383 0.0
H419 H 0.41312 0.61887 0.1585 0.0
H420 H 0.68356 0.55949 0.34632 0.0
H421 H 0.64176 0.55605 0.28891 0.0
H422 H 0.60368 0.60944 0.32577 0.0
H423 H 0.68182 0.54114 0.31494 0.0
C424 C 0.19742 0.91364 0.33963 0.0
C425 C 0.20118 0.91594 0.35961 0.0
C426 C 0.1842 0.93183 0.3282 0.0
C427 C 0.16954 -0.00536 0.32818 0.0
H428 H 0.09468 0.98137 0.28898 0.0
C429 C 0.08114 0.06527 0.29096 0.0
C430 C 0.07549 0.06346 0.27107 0.0
C431 C 0.09775 0.0474 0.30148 0.0
C432 C 0.11588 0.98536 0.29973 0.0
H433 H 0.19463 0.93937 0.38317 0.0
H434 H 0.17143 0.97077 0.36336 0.0
H435 H 0.1227 0.94999 0.30734 0.0
H436 H 0.08217 0.04139 0.24664 0.0
H437 H 0.11155 0.0105 0.26488 0.0
H438 H 0.16243 0.03003 0.32066 0.0
C439 C 0.17903 0.95507 0.35643 0.0
C440 C 0.13202 0.96736 0.31022 0.0
C441 C 0.19214 0.93695 0.36783 0.0
C442 C 0.08652 0.04342 0.26193 0.0
C443 C 0.10301 0.02559 0.27242 0.0
C444 C 0.15337 0.01264 0.3177 0.0
C445 C 0.17459 0.95271 0.33651 0.0
C446 C 0.15889 0.97178 0.32466 0.0
C447 C 0.10883 0.02734 0.29231 0.0
C448 C 0.12623 0.00822 0.30341 0.0
H449 H 0.20419 0.89771 0.33283 0.0
H450 H 0.18151 0.92954 0.31285 0.0
H451 H 0.19058 -0.00136 0.339 0.0
H452 H 0.07281 0.0805 0.29837 0.0
H453 H 0.10145 0.04917 0.31683 0.0
C454 C 0.3372 0.54307 0.86815 0.0
C455 C 0.32743 0.564 0.8593 0.0
C456 C 0.35193 0.52542 0.85741 0.0
C457 C 0.40218 0.5147 0.81237 0.0
H458 H 0.37473 0.45138 0.8241 0.0
C459 C 0.45753 0.43975 0.76817 0.0
C460 C 0.46936 0.42023 0.77849 0.0
C461 C 0.43848 0.45712 0.77739 0.0
C462 C 0.38294 0.46896 0.82077 0.0
H463 H 0.32491 0.5826 0.83206 0.0
H464 H 0.35047 0.55158 0.8132 0.0
H465 H 0.34341 0.482 0.84083 0.0
H466 H 0.47038 0.40352 0.80654 0.0
H467 H 0.43728 0.434 0.82277 0.0
H468 H 0.44192 0.50163 0.79241 0.0
C469 C 0.34705 0.54899 0.82855 0.0
C470 C 0.36496 0.48652 0.83034 0.0
C471 C 0.33219 0.56671 0.83933 0.0
C472 C 0.46159 0.41838 0.79824 0.0
C473 C 0.44242 0.43576 0.80747 0.0
C474 C 0.42014 0.49713 0.80279 0.0
C475 C 0.35729 0.52819 0.8375 0.0
C476 C 0.37462 0.5096 0.82639 0.0
C477 C 0.43075 0.45537 0.79716 0.0
C478 C 0.41095 0.47405 0.80699 0.0
H479 H 0.334 0.54034 0.8835 0.0
H480 H 0.36001 0.50979 0.86483 0.0
H481 H 0.41071 0.53226 0.80919 0.0
H482 H 0.46334 0.44176 0.75295 0.0
H483 H 0.42955 0.47186 0.76898 0.0
C484 C 0.65957 0.55461 0.62071 0.0
C485 C 0.68879 0.56922 0.62712 0.0
C486 C 0.64564 0.53682 0.63248 0.0
C487 C 0.66944 0.50027 0.67441 0.0
H488 H 0.56139 0.48789 0.67479 0.0
C489 C 0.60193 0.41741 0.70752 0.0
C490 C 0.56849 0.41988 0.71798 0.0
C491 C 0.6177 0.43606 0.69727 0.0
C492 C 0.5916 0.49122 0.67499 0.0
H493 H 0.72627 0.57652 0.65104 0.0
H494 H 0.70155 0.54546 0.67175 0.0
H495 H 0.5866 0.5201 0.65589 0.0
H496 H 0.52528 0.44364 0.72609 0.0
H497 H 0.55262 0.47614 0.70821 0.0
H498 H 0.6742 0.47144 0.69378 0.0
C499 C 0.68975 0.54771 0.65748 0.0
C500 C 0.6061 0.50954 0.66398 0.0
C501 C 0.70374 0.56559 0.64566 0.0
C502 C 0.55094 0.44122 0.71798 0.0
C503 C 0.5666 0.45982 0.70775 0.0
C504 C 0.65489 0.48187 0.68544 0.0
C505 C 0.66047 0.53316 0.65102 0.0
C506 C 0.6452 0.5142 0.66343 0.0
C507 C 0.60007 0.45745 0.69721 0.0
C508 C 0.6158 0.47712 0.68579 0.0
H509 H 0.64748 0.55679 0.60648 0.0
H510 H 0.62351 0.52571 0.62693 0.0
H511 H 0.69972 0.5033 0.67418 0.0
H512 H 0.61573 0.40103 0.70717 0.0
H513 H 0.64328 0.43362 0.68912 0.0
C514 C 0.83203 0.92264 0.14457 0.0
C515 C 0.84557 0.918 0.1261 0.0
C516 C 0.84747 0.94081 0.15504 0.0
C517 C 0.90063 -0.00463 0.14834 0.0
H518 H 0.92439 0.98839 0.20254 0.0
C519 C 0.95328 0.07101 0.19424 0.0
C520 C 0.98347 0.06648 0.20676 0.0
C521 C 0.93478 0.05311 0.18479 0.0
C522 C 0.91801 0.99055 0.18738 0.0
H523 H 0.88643 0.92864 0.10432 0.0
H524 H 0.91328 0.96002 0.12256 0.0
H525 H 0.89542 0.95638 0.1854 0.0
H526 H 0.01856 0.03997 0.21911 0.0
H527 H 0.98647 0.00865 0.20249 0.0
H528 H 0.92392 0.02932 0.15017 0.0
C529 C 0.89041 0.94988 0.12887 0.0
C530 C 0.90107 0.97232 0.17763 0.0
C531 C 0.87514 0.93174 0.11846 0.0
C532 C 0.99535 0.04386 0.20946 0.0
C533 C 0.97671 0.02595 0.20014 0.0
C534 C 0.91741 0.0136 0.15809 0.0
C535 C 0.87659 0.95476 0.1472 0.0
C536 C 0.89263 0.97444 0.15793 0.0
C537 C 0.94614 0.03036 0.18774 0.0
C538 C 0.92668 0.01131 0.17766 0.0
H539 H 0.80927 0.9124 0.15087 0.0
H540 H 0.83609 0.94422 0.1691 0.0
H541 H 0.89399 -0.00234 0.13323 0.0
H542 H 0.94379 0.08836 0.19189 0.0
H543 H 0.91115 0.05704 0.17545 0.0
C544 C 0.84369 0.07435 0.63783 0.0
C545 C 0.87106 0.08752 0.62775 0.0
C546 C 0.85438 0.0556 0.6493 0.0
C547 C 0.93359 0.03166 0.67635 0.0
H548 H 0.88492 0.97261 0.66806 0.0
C549 C 0.95895 0.95197 0.72503 0.0
C550 C 0.96832 0.93197 0.71536 0.0
C551 C 0.94595 0.97111 0.71483 0.0
C552 C 0.8987 0.98901 0.67051 0.0
H553 H 0.93113 0.09174 0.62223 0.0
H554 H 0.94972 0.05934 0.64259 0.0
H555 H 0.86395 0.00635 0.64976 0.0
H556 H 0.9708 0.91613 0.68751 0.0
H557 H 0.94727 0.94953 0.66967 0.0
H558 H 0.96825 0.01436 0.69713 0.0
C559 C 0.92005 0.06343 0.64148 0.0
C560 C 0.88654 0.0083 0.66017 0.0
C561 C 0.90935 0.0819 0.62977 0.0
C562 C 0.96389 0.93135 0.69531 0.0
C563 C 0.95026 0.95038 0.68514 0.0
C564 C 0.9453 0.01246 0.68692 0.0
C565 C 0.89265 0.04995 0.65119 0.0
C566 C 0.90413 0.02976 0.66287 0.0
C567 C 0.94145 0.97049 0.69479 0.0
C568 C 0.9282 0.99092 0.68397 0.0
H569 H 0.81396 0.07821 0.63652 0.0
H570 H 0.83275 0.04553 0.65673 0.0
H571 H 0.9475 0.04803 0.67875 0.0
H572 H 0.96226 0.95298 0.74047 0.0
H573 H 0.93917 0.98636 0.72261 0.0
C574 C 0.70901 0.43587 0.12873 0.0
C575 C 0.70561 0.44039 0.10888 0.0
C576 C 0.6931 0.45056 0.14202 0.0
C577 C 0.65717 0.50943 0.14658 0.0
H578 H 0.60195 0.48376 0.1902 0.0
C579 C 0.55659 0.56329 0.19126 0.0
C580 C 0.5575 0.56035 0.21134 0.0
C581 C 0.57623 0.54856 0.17947 0.0
C582 C 0.61766 0.4912 0.17822 0.0
H583 H 0.68302 0.46398 0.08747 0.0
H584 H 0.65511 0.48932 0.11053 0.0
H585 H 0.63423 0.45833 0.16846 0.0
H586 H 0.5794 0.53938 0.23477 0.0
H587 H 0.61383 0.5137 0.21414 0.0
H588 H 0.64025 0.54225 0.15618 0.0
C589 C 0.67046 0.47464 0.11589 0.0
C590 C 0.6362 0.47664 0.16578 0.0
C591 C 0.68629 0.45999 0.10264 0.0
C592 C 0.57818 0.54216 0.21935 0.0
C593 C 0.59774 0.52736 0.20754 0.0
C594 C 0.6386 0.52396 0.15898 0.0
C595 C 0.67357 0.4701 0.13573 0.0
C596 C 0.65581 0.48557 0.14968 0.0
C597 C 0.59716 0.53048 0.18746 0.0
C598 C 0.61826 0.51501 0.17482 0.0
H599 H 0.72379 0.42093 0.134 0.0
H600 H 0.69632 0.4467 0.15721 0.0
H601 H 0.67264 0.51692 0.13454 0.0
H602 H 0.54094 0.57711 0.1846 0.0
H603 H 0.57474 0.55122 0.16404 0.0
C604 C 0.3137 0.42073 0.35551 0.0
C605 C 0.33895 0.40388 0.36191 0.0
C606 C 0.32619 0.43878 0.34349 0.0
C607 C 0.40069 0.45683 0.30954 0.0
H608 H 0.38037 0.51821 0.32646 0.0
C609 C 0.48073 0.53562 0.27805 0.0
C610 C 0.46148 0.55632 0.2759 0.0
C611 C 0.46371 0.51682 0.28749 0.0
C612 C 0.38577 0.50124 0.32126 0.0
H613 H 0.39668 0.39225 0.36008 0.0
H614 H 0.41822 0.42354 0.33882 0.0
H615 H 0.35332 0.48535 0.34396 0.0
H616 H 0.4099 0.57382 0.28266 0.0
H617 H 0.37928 0.54073 0.29819 0.0
H618 H 0.43274 0.47255 0.28671 0.0
C619 C 0.38887 0.42284 0.34321 0.0
C620 C 0.37031 0.48241 0.33136 0.0
C621 C 0.37655 0.405 0.35545 0.0
C622 C 0.42505 0.55792 0.28364 0.0
C623 C 0.40776 0.53901 0.29284 0.0
C624 C 0.41575 0.47566 0.29927 0.0
C625 C 0.36399 0.44012 0.33738 0.0
C626 C 0.37804 0.46002 0.32576 0.0
C627 C 0.42688 0.51819 0.29492 0.0
C628 C 0.40898 0.49814 0.30516 0.0
H629 H 0.28457 0.42038 0.36026 0.0
H630 H 0.30638 0.4518 0.33909 0.0
H631 H 0.40676 0.43973 0.30479 0.0
H632 H 0.50892 0.53386 0.2723 0.0
H633 H 0.47972 0.50129 0.28916 0.0
C634 C 0.23329 0.03812 0.85936 0.0
C635 C 0.21777 0.05961 0.86289 0.0
C636 C 0.21537 0.02297 0.84682 0.0
C637 C 0.12091 0.00994 0.82715 0.0
H638 H 0.17538 0.96872 0.79466 0.0
C639 C 0.04457 0.94565 0.77759 0.0
C640 C 0.05911 0.92347 0.77743 0.0
C641 C 0.06453 0.96332 0.7866 0.0
C642 C 0.15982 0.98003 0.80377 0.0
H643 H 0.17234 0.08251 0.8552 0.0
H644 H 0.14142 0.05622 0.83312 0.0
H645 H 0.21006 -0.00171 0.81214 0.0
H646 H 0.10512 0.9021 0.78702 0.0
H647 H 0.14011 0.93293 0.80274 0.0
H648 H 0.07076 -0.00845 0.81896 0.0
C649 C 0.16701 0.05089 0.84036 0.0
C650 C 0.17967 -0.00303 0.81377 0.0
C651 C 0.18488 0.06602 0.85294 0.0
C652 C 0.09362 0.91916 0.78668 0.0
C653 C 0.11366 0.93681 0.79562 0.0
C654 C 0.10109 -0.00694 0.81713 0.0
C655 C 0.18158 0.02898 0.83748 0.0
C656 C 0.16048 0.01198 0.82574 0.0
C657 C 0.09938 0.95911 0.79565 0.0
C658 C 0.12035 0.97775 0.80549 0.0
H659 H 0.25861 0.03264 0.86679 0.0
H660 H 0.22721 0.00618 0.84508 0.0
H661 H 0.10528 0.02093 0.83649 0.0
H662 H 0.01816 0.94947 0.7704 0.0
H663 H 0.05295 0.98035 0.78623 0.0
C664 C 0.26252 0.09693 0.98337 0.0
C665 C 0.25571 0.11557 0.97082 0.0
C666 C 0.25038 0.09721 0.00243 0.0
C667 C 0.1779 0.12308 0.03228 0.0
H668 H 0.23293 0.09372 0.07396 0.0
C669 C 0.16305 0.10238 0.11927 0.0
C670 C 0.12526 0.09452 0.11981 0.0
C671 C 0.18075 0.10749 0.10173 0.0
C672 C 0.21735 0.10224 0.06256 0.0
H673 H 0.23238 0.14962 0.96879 0.0
H674 H 0.2115 0.15018 0.00219 0.0
H675 H 0.26284 0.09904 0.04264 0.0
H676 H 0.07621 0.08637 0.1023 0.0
H677 H 0.10726 0.0948 0.07172 0.0
H678 H 0.13241 0.12628 0.05219 0.0
C679 C 0.22575 0.13519 -0.00286 0.0
C680 C 0.23437 0.10508 0.04454 0.0
C681 C 0.23797 0.13494 0.97804 0.0
C682 C 0.10547 0.09214 0.1024 0.0
C683 C 0.12314 0.09726 0.08487 0.0
C684 C 0.16088 0.12023 0.05029 0.0
C685 C 0.23113 0.11613 0.00945 0.0
C686 C 0.21463 0.1152 0.0291 0.0
C687 C 0.16106 0.10489 0.0843 0.0
C688 C 0.18017 0.10945 0.06556 0.0
H689 H 0.27614 0.08173 0.97832 0.0
H690 H 0.25467 0.08213 0.01143 0.0
H691 H 0.16173 0.13075 0.02068 0.0
H692 H 0.17923 0.1042 0.13241 0.0
H693 H 0.20988 0.11351 0.10182 0.0
C694 C 0.36074 0.34844 0.48317 0.0
C695 C 0.38795 0.35592 0.46965 0.0
C696 C 0.36827 0.34968 0.5029 0.0
C697 C 0.44687 0.35619 0.53802 0.0
H698 H 0.36943 0.38009 0.57101 0.0
C699 C 0.48024 0.39233 0.6127 0.0
C700 C 0.45474 0.38746 0.62773 0.0
C701 C 0.47156 0.38612 0.59389 0.0
C702 C 0.39118 0.37308 0.56206 0.0
H703 H 0.44467 0.37018 0.4663 0.0
H704 H 0.45757 0.37253 0.5005 0.0
H705 H 0.35512 0.37307 0.5373 0.0
H706 H 0.4001 0.3722 0.6348 0.0
H707 H 0.38504 0.36116 0.60192 0.0
H708 H 0.48315 0.35664 0.56269 0.0
C709 C 0.43058 0.36544 0.49595 0.0
C710 C 0.38297 0.36902 0.54273 0.0
C711 C 0.42306 0.36422 0.47629 0.0
C712 C 0.42047 0.37603 0.62355 0.0
C713 C 0.41168 0.3699 0.6047 0.0
C714 C 0.45509 0.36029 0.55731 0.0
C715 C 0.40322 0.35836 0.50951 0.0
C716 C 0.4109 0.36086 0.53041 0.0
C717 C 0.4371 0.37494 0.58965 0.0
C718 C 0.42752 0.36909 0.56949 0.0
H719 H 0.33343 0.34192 0.47853 0.0
H720 H 0.34673 0.34386 0.51297 0.0
H721 H 0.46883 0.34948 0.52903 0.0
H722 H 0.50704 0.40091 0.61548 0.0
H723 H 0.49158 0.39048 0.58261 0.0
C724 C 0.71634 0.32895 0.01605 0.0
C725 C 0.73773 0.3483 0.02147 0.0
C726 C 0.70641 0.32578 -0.0032 0.0
C727 C 0.73044 0.34276 0.94698 0.0
H728 H 0.62464 0.32939 0.93672 0.0
C729 C 0.66858 0.34718 0.87002 0.0
C730 C 0.64084 0.33077 0.86505 0.0
C731 C 0.68097 0.34903 0.88905 0.0
C732 C 0.6544 0.33277 0.93928 0.0
H733 H 0.76685 0.37896 0.01077 0.0
H734 H 0.7499 0.37323 0.97717 0.0
H735 H 0.64674 0.3319 0.96979 0.0
H736 H 0.60386 0.30377 0.87644 0.0
H737 H 0.62643 0.30637 0.90933 0.0
H738 H 0.73832 0.34335 0.91651 0.0
C739 C 0.7407 0.36058 0.98783 0.0
C740 C 0.66703 0.33424 0.95827 0.0
C741 C 0.75028 0.36389 0.0071 0.0
C742 C 0.62565 0.31639 0.87964 0.0
C743 C 0.63825 0.31811 0.89861 0.0
C744 C 0.71789 0.34106 0.92797 0.0
C745 C 0.71803 0.34173 0.98253 0.0
C746 C 0.70514 0.33933 0.96233 0.0
C747 C 0.66614 0.33442 0.90359 0.0
C748 C 0.67965 0.33613 0.92385 0.0
H749 H 0.7062 0.31661 0.02674 0.0
H750 H 0.68927 0.31095 0.99309 0.0
H751 H 0.76004 0.34652 0.94969 0.0
H752 H 0.68126 0.35838 0.85917 0.0
H753 H 0.70207 0.36203 0.89235 0.0
C754 C 0.90066 0.10503 0.50613 0.0
C755 C 0.88828 0.1245 0.51568 0.0
C756 C 0.90327 0.10501 0.48612 0.0
C757 C 0.90976 0.14297 0.44312 0.0
H758 H 0.87177 0.08946 0.41661 0.0
C759 C 0.92158 0.13411 0.36053 0.0
C760 C 0.88813 0.12695 0.35131 0.0
C761 C 0.92466 0.13267 0.38059 0.0
C762 C 0.88249 0.10453 0.42379 0.0
H763 H 0.86936 0.15936 0.51164 0.0
H764 H 0.87375 0.1593 0.47658 0.0
H765 H 0.87037 0.09004 0.45161 0.0
H766 H 0.83248 0.11169 0.35574 0.0
H767 H 0.8378 0.10918 0.39061 0.0
H768 H 0.92104 0.15765 0.41521 0.0
C769 C 0.88172 0.14409 0.48465 0.0
C770 C 0.88198 0.10479 0.44386 0.0
C771 C 0.87897 0.14408 0.50473 0.0
C772 C 0.85848 0.11752 0.36246 0.0
C773 C 0.86165 0.11592 0.38244 0.0
C774 C 0.91044 0.14266 0.42302 0.0
C775 C 0.89367 0.12449 0.47512 0.0
C776 C 0.89531 0.12409 0.45377 0.0
C777 C 0.89452 0.12381 0.39177 0.0
C778 C 0.89644 0.12352 0.41312 0.0
H779 H 0.90821 0.08966 0.51411 0.0
H780 H 0.91304 0.08974 0.47925 0.0
H781 H 0.92059 0.15799 0.45033 0.0
H782 H 0.9448 0.14156 0.35229 0.0
H783 H 0.95049 0.13867 0.38737 0.0
C784 C 0.82271 0.8524 0.0066 0.0
C785 C 0.8548 0.85107 0.0185 0.0
C786 C 0.82628 0.85156 0.98662 0.0
C787 C 0.89566 0.86501 0.94892 0.0
H788 H 0.8215 0.83646 0.91552 0.0
C789 C 0.905 0.87626 0.86665 0.0
C790 C 0.87089 0.88188 0.85746 0.0
C791 C 0.90501 0.86799 0.88566 0.0
C792 C 0.84239 0.84459 0.92465 0.0
H793 H 0.91554 0.84655 0.01877 0.0
H794 H 0.92166 0.84496 0.98396 0.0
H795 H 0.8175 0.83003 0.95024 0.0
H796 H 0.80993 0.88186 0.8606 0.0
H797 H 0.80997 0.86805 0.89377 0.0
H798 H 0.91983 0.88023 0.92352 0.0
C799 C 0.89383 0.84701 0.99007 0.0
C800 C 0.84009 0.84089 0.94453 0.0
C801 C 0.89027 0.84781 0.01003 0.0
C802 C 0.83674 0.87805 0.86738 0.0
C803 C 0.83674 0.86983 0.88635 0.0
C804 C 0.89788 0.86878 0.92907 0.0
C805 C 0.86201 0.84939 0.97812 0.0
C806 C 0.86635 0.85137 0.95691 0.0
C807 C 0.87091 0.86513 0.89586 0.0
C808 C 0.87089 0.85895 0.91671 0.0
H809 H 0.79496 0.85488 0.01266 0.0
H810 H 0.80123 0.85363 0.97782 0.0
H811 H 0.91601 0.87362 0.95806 0.0
H812 H 0.93179 0.87908 0.85942 0.0
H813 H 0.93179 0.86424 0.89248 0.0
C814 C 0.63552 0.63744 0.50792 0.0
C815 C 0.67121 0.63387 0.51627 0.0
C816 C 0.631 0.63747 0.48796 0.0
C817 C 0.68296 0.64036 0.44167 0.0
H818 H 0.59981 0.60213 0.4238 0.0
C819 C 0.68023 0.59991 0.36696 0.0
C820 C 0.64547 0.59712 0.35738 0.0
C821 C 0.68168 0.60859 0.38549 0.0
C822 C 0.62274 0.61325 0.42847 0.0
H823 H 0.73049 0.62869 0.51015 0.0
H824 H 0.72254 0.62854 0.47537 0.0
H825 H 0.60561 0.61019 0.45784 0.0
H826 H 0.58507 0.60204 0.3595 0.0
H827 H 0.58763 0.6176 0.39182 0.0
H828 H 0.70057 0.64294 0.41229 0.0
C829 C 0.69807 0.63149 0.48423 0.0
C830 C 0.62609 0.61786 0.44802 0.0
C831 C 0.70259 0.63145 0.50419 0.0
C832 C 0.6123 0.60405 0.36647 0.0
C833 C 0.61374 0.61275 0.38505 0.0
C834 C 0.67957 0.63578 0.42209 0.0
C835 C 0.66206 0.63395 0.47591 0.0
C836 C 0.6566 0.63113 0.4549 0.0
C837 C 0.6484 0.61477 0.3949 0.0
C838 C 0.64981 0.6218 0.41531 0.0
H839 H 0.61079 0.63954 0.51679 0.0
H840 H 0.603 0.63979 0.48198 0.0
H841 H 0.70647 0.65093 0.44649 0.0
H842 H 0.70637 0.59506 0.36023 0.0
H843 H 0.70881 0.60969 0.39269 0.0
C844 C 0.37052 0.60371 0.97969 0.0
C845 C 0.33786 0.61182 0.97047 0.0
C846 C 0.37405 0.60444 -0.00035 0.0
C847 C 0.3371 0.63134 0.0431 0.0
H848 H 0.37267 0.57615 0.06865 0.0
C849 C 0.36898 0.62588 0.12473 0.0
C850 C 0.35573 0.60607 0.13455 0.0
C851 C 0.3676 0.62733 0.10467 0.0
C852 C 0.36254 0.59164 0.06173 0.0
H853 H 0.28383 0.62781 0.97494 0.0
H854 H 0.29001 0.62905 0.00988 0.0
H855 H 0.36869 0.57791 0.03369 0.0
H856 H 0.33118 0.57213 0.13101 0.0
H857 H 0.32856 0.57471 0.09601 0.0
H858 H 0.33042 0.64491 0.07124 0.0
C859 C 0.31293 0.6222 0.00162 0.0
C860 C 0.36064 0.59275 0.0417 0.0
C861 C 0.30933 0.6214 0.98161 0.0
C862 C 0.34131 0.58769 0.12387 0.0
C863 C 0.34014 0.58909 0.10382 0.0
C864 C 0.33921 0.63028 0.06317 0.0
C865 C 0.34507 0.61337 0.01086 0.0
C866 C 0.34779 0.61257 0.03216 0.0
C867 C 0.35319 0.60893 0.094 0.0
C868 C 0.35176 0.61036 0.0727 0.0
H869 H 0.39317 0.59636 0.97155 0.0
H870 H 0.39942 0.59785 0.00633 0.0
H871 H 0.32731 0.64689 0.03614 0.0
H872 H 0.37993 0.64039 0.13259 0.0
H873 H 0.37815 0.64277 0.0975 0.0
C874 C 0.14616 0.86922 0.47925 0.0
C875 C 0.18091 0.86341 0.4711 0.0
C876 C 0.14157 0.86904 0.49916 0.0
C877 C 0.18181 0.84791 0.54508 0.0
H878 H 0.13512 0.90169 0.56573 0.0
C879 C 0.14857 0.85747 0.62603 0.0
C880 C 0.15807 0.87876 0.63398 0.0
C881 C 0.15021 0.85448 0.60617 0.0
C882 C 0.14831 0.8866 0.56019 0.0
H883 H 0.2376 0.85189 0.47747 0.0
H884 H 0.22955 0.85162 0.51232 0.0
H885 H 0.13998 0.89768 0.53105 0.0
H886 H 0.17621 0.91366 0.62734 0.0
H887 H 0.17925 0.90842 0.5927 0.0
H888 H 0.19072 0.83707 0.57432 0.0
C889 C 0.20584 0.85625 0.50326 0.0
C890 C 0.15073 0.88418 0.54032 0.0
C891 C 0.21049 0.8565 0.4833 0.0
C892 C 0.16904 0.89701 0.62165 0.0
C893 C 0.17043 0.89406 0.60181 0.0
C894 C 0.17917 0.85027 0.56499 0.0
C895 C 0.17156 0.86298 0.5114 0.0
C896 C 0.16771 0.86488 0.53254 0.0
C897 C 0.16107 0.87277 0.59385 0.0
C898 C 0.16269 0.86975 0.57275 0.0
H899 H 0.12269 0.87448 0.47027 0.0
H900 H 0.11463 0.87395 0.50501 0.0
H901 H 0.19483 0.83279 0.5395 0.0
H902 H 0.1403 0.84305 0.63519 0.0
H903 H 0.14257 0.83792 0.60043 0.0
C904 C 0.23511 0.28015 0.36223 0.0
C905 C 0.21428 0.29864 0.3689 0.0
C906 C 0.21769 0.26317 0.35124 0.0
C907 C 0.12407 0.23793 0.33907 0.0
H908 H 0.17724 0.21464 0.29514 0.0
C909 C 0.05219 0.17872 0.28346 0.0
C910 C 0.07357 0.16058 0.27659 0.0
C911 C 0.06898 0.19543 0.29501 0.0
C912 C 0.16216 0.22077 0.30748 0.0
H913 H 0.15871 0.3137 0.3693 0.0
H914 H 0.12842 0.28419 0.34998 0.0
H915 H 0.20729 0.24393 0.31475 0.0
H916 H 0.12899 0.14528 0.27718 0.0
H917 H 0.15822 0.17441 0.29711 0.0
H918 H 0.0789 0.21478 0.33175 0.0
C919 C 0.15814 0.28267 0.35344 0.0
C920 C 0.17941 0.23756 0.31874 0.0
C921 C 0.17557 0.29966 0.36443 0.0
C922 C 0.11188 0.15929 0.28185 0.0
C923 C 0.12868 0.17601 0.2933 0.0
C924 C 0.10681 0.22114 0.3278 0.0
C925 C 0.17901 0.26425 0.34664 0.0
C926 C 0.16061 0.24634 0.33469 0.0
C927 C 0.10751 0.19436 0.29994 0.0
C928 C 0.12567 0.21233 0.31189 0.0
H929 H 0.26496 0.2788 0.36547 0.0
H930 H 0.23449 0.24905 0.34647 0.0
H931 H 0.109 0.24408 0.35141 0.0
H932 H 0.02265 0.18027 0.27963 0.0
H933 H 0.05195 0.20945 0.29973 0.0
C934 C 0.37088 0.18067 0.87466 0.0
C935 C 0.33193 0.18294 0.8779 0.0
C936 C 0.3915 0.19796 0.86495 0.0
C937 C 0.38883 0.2593 0.85072 0.0
H938 H 0.45876 0.24212 0.81094 0.0
C939 C 0.44545 0.32405 0.79406 0.0
C940 C 0.48335 0.32268 0.78828 0.0
C941 C 0.42926 0.3072 0.80607 0.0
C942 C 0.43978 0.24721 0.82219 0.0
H943 H 0.28424 0.20532 0.87369 0.0
H944 H 0.32011 0.23537 0.85672 0.0
H945 H 0.42636 0.21241 0.83012 0.0
H946 H 0.53395 0.30247 0.79058 0.0
H947 H 0.50594 0.27324 0.81204 0.0
H948 H 0.40192 0.29408 0.84269 0.0
C949 C 0.33483 0.22033 0.86183 0.0
C950 C 0.42119 0.23018 0.83319 0.0
C951 C 0.31421 0.20303 0.87148 0.0
C952 C 0.50485 0.30416 0.79496 0.0
C953 C 0.48864 0.28728 0.80706 0.0
C954 C 0.40744 0.27631 0.83976 0.0
C955 C 0.37367 0.21794 0.85834 0.0
C956 C 0.39513 0.23603 0.84742 0.0
C957 C 0.4506 0.28859 0.81272 0.0
C958 C 0.43277 0.27048 0.82519 0.0
H959 H 0.38542 0.16542 0.87945 0.0
H960 H 0.42146 0.1957 0.86268 0.0
H961 H 0.36946 0.2644 0.8618 0.0
H962 H 0.4281 0.33815 0.78927 0.0
H963 H 0.39974 0.30858 0.80987 0.0
C964 C 0.70775 0.19858 0.6299 0.0
C965 C 0.74613 0.19444 0.63347 0.0
C966 C 0.68767 0.21336 0.64151 0.0
C967 C 0.70179 0.25911 0.67782 0.0
H968 H 0.59494 0.24787 0.68696 0.0
C969 C 0.6143 0.30972 0.73254 0.0
C970 C 0.58109 0.31937 0.72502 0.0
C971 C 0.63434 0.29378 0.72204 0.0
C972 C 0.62476 0.25122 0.68447 0.0
H973 H 0.79338 0.2022 0.65228 0.0
H974 H 0.75815 0.22716 0.673 0.0
H975 H 0.63025 0.22126 0.66766 0.0
H976 H 0.54228 0.319 0.70076 0.0
H977 H 0.57678 0.29078 0.68279 0.0
H978 H 0.69614 0.2888 0.69515 0.0
C979 C 0.74367 0.21967 0.66087 0.0
C980 C 0.64503 0.23607 0.67329 0.0
C981 C 0.7639 0.2052 0.64904 0.0
C982 C 0.56781 0.31208 0.70701 0.0
C983 C 0.58747 0.29583 0.6967 0.0
C984 C 0.68162 0.27402 0.68927 0.0
C985 C 0.70527 0.22409 0.65723 0.0
C986 C 0.68381 0.2399 0.66964 0.0
C987 C 0.62116 0.28674 0.704 0.0
C988 C 0.64285 0.27033 0.69257 0.0
H989 H 0.69333 0.19066 0.61792 0.0
H990 H 0.65844 0.21661 0.63793 0.0
H991 H 0.73133 0.26299 0.67509 0.0
H992 H 0.6252 0.31469 0.74643 0.0
H993 H 0.66009 0.28686 0.72806 0.0
C994 C 0.85012 0.29995 0.12356 0.0
C995 C 0.8119 0.29517 0.11945 0.0
C996 C 0.87152 0.28445 0.13441 0.0
C997 C 0.86105 0.23578 0.16912 0.0
H998 H 0.96629 0.22588 0.15701 0.0
C999 C 0.95649 0.18214 0.21921 0.0
C1000 C 0.9816 0.16712 0.21054 0.0
C1001 C 0.93708 0.19838 0.20816 0.0
C1002 C 0.93686 0.22831 0.16052 0.0
H1003 H 0.76642 0.27011 0.12318 0.0
H1004 H 0.80384 0.24292 0.14175 0.0
H1005 H 0.92956 0.25211 0.13707 0.0
H1006 H 1.00636 0.15771 0.18337 0.0
H1007 H 0.97214 0.18574 0.16411 0.0
H1008 H 0.86796 0.21151 0.1922 0.0
C1009 C 0.81715 0.25886 0.13695 0.0
C1010 C 0.91589 0.24358 0.14921 0.0
C1011 C 0.79573 0.27439 0.12618 0.0
C1012 C 0.98736 0.16904 0.19058 0.0
C1013 C 0.96783 0.18522 0.17951 0.0
C1014 C 0.88196 0.22048 0.18038 0.0
C1015 C 0.85525 0.26376 0.14135 0.0
C1016 C 0.87769 0.24749 0.15335 0.0
C1017 C 0.94216 0.19996 0.18813 0.0
C1018 C 0.92014 0.21653 0.17624 0.0
H1019 H 0.86343 0.31585 0.11865 0.0
H1020 H 0.90062 0.28894 0.1377 0.0
H1021 H 0.83186 0.23858 0.17291 0.0
H1022 H 0.95151 0.18127 0.23456 0.0
H1023 H 0.91806 0.20971 0.21534 0.0
C1024 C 0.84355 0.68288 0.64002 0.0
C1025 C 0.80787 0.68561 0.63143 0.0
C1026 C 0.86037 0.70068 0.65031 0.0
C1027 C 0.86125 0.76306 0.65477 0.0
H1028 H 0.90906 0.75064 0.704 0.0
C1029 C 0.92427 0.83533 0.70133 0.0
C1030 C 0.95789 0.83076 0.71132 0.0
C1031 C 0.90464 0.81782 0.69195 0.0
C1032 C 0.89628 0.75437 0.69016 0.0
H1033 H 0.76188 0.70918 0.6269 0.0
H1034 H 0.79152 0.74037 0.64474 0.0
H1035 H 0.87734 0.71961 0.68701 0.0
H1036 H 0.99807 0.80451 0.71888 0.0
H1037 H 0.96468 0.7741 0.70195 0.0
H1038 H 0.88085 0.79768 0.65763 0.0
C1039 C 0.80641 0.72443 0.64349 0.0
C1040 C 0.878 0.73659 0.68047 0.0
C1041 C 0.78938 0.70654 0.63336 0.0
C1042 C 0.97215 0.80851 0.7113 0.0
C1043 C 0.95271 0.79103 0.70181 0.0
C1044 C 0.87983 0.78082 0.66438 0.0
C1045 C 0.84207 0.72168 0.65208 0.0
C1046 C 0.86045 0.74072 0.66263 0.0
C1047 C 0.91854 0.7954 0.69213 0.0
C1048 C 0.89778 0.77667 0.68214 0.0
H1049 H 0.85853 0.66698 0.63882 0.0
H1050 H 0.88805 0.69815 0.65662 0.0
H1051 H 0.84833 0.7667 0.64095 0.0
H1052 H 0.91302 0.85245 0.70087 0.0
H1053 H 0.87827 0.82181 0.68481 0.0
C1054 C 0.7309 0.78333 0.13704 0.0
C1055 C 0.71394 0.80473 0.13434 0.0
C1056 C 0.71176 0.76548 0.14677 0.0
C1057 C 0.63496 0.75312 0.18121 0.0
H1058 H 0.63428 0.69281 0.15892 0.0
C1059 C 0.54048 0.67899 0.21112 0.0
C1060 C 0.55612 0.65708 0.21186 0.0
C1061 C 0.55943 0.6971 0.20161 0.0
C1062 C 0.63457 0.70945 0.1655 0.0
H1063 H 0.66379 0.82427 0.14005 0.0
H1064 H 0.63049 0.79311 0.15715 0.0
H1065 H 0.6687 0.72425 0.14298 0.0
H1066 H 0.6029 0.63667 0.20259 0.0
H1067 H 0.63662 0.66829 0.18657 0.0
H1068 H 0.60129 0.7383 0.20389 0.0
C1069 C 0.65863 0.79019 0.15175 0.0
C1070 C 0.65427 0.72748 0.15633 0.0
C1071 C 0.67765 0.80799 0.14187 0.0
C1072 C 0.59052 0.65348 0.20251 0.0
C1073 C 0.6096 0.67157 0.19312 0.0
C1074 C 0.61548 0.73504 0.19048 0.0
C1075 C 0.67535 0.76868 0.15416 0.0
C1076 C 0.65466 0.74952 0.16406 0.0
C1077 C 0.5944 0.69366 0.1926 0.0
C1078 C 0.61499 0.71297 0.18273 0.0
H1079 H 0.75884 0.78026 0.13143 0.0
H1080 H 0.72554 0.74917 0.14859 0.0
H1081 H 0.63512 0.76986 0.18763 0.0
H1082 H 0.51395 0.68224 0.21821 0.0
H1083 H 0.54657 0.71378 0.20123 0.0
C1084 C 0.33953 0.79271 0.35633 0.0
C1085 C 0.29982 0.79234 0.35698 0.0
C1086 C 0.35895 0.77529 0.34729 0.0
C1087 C 0.34626 0.73084 0.31084 0.0
H1088 H 0.43881 0.70671 0.33254 0.0
C1089 C 0.45664 0.65302 0.29606 0.0
C1090 C 0.46042 0.65582 0.27606 0.0
C1091 C 0.43731 0.66919 0.30672 0.0
C1092 C 0.41285 0.71314 0.32638 0.0
H1093 H 0.24938 0.77321 0.34878 0.0
H1094 H 0.28323 0.74281 0.33309 0.0
H1095 H 0.404 0.73551 0.34993 0.0
H1096 H 0.44791 0.67813 0.25164 0.0
H1097 H 0.41449 0.70616 0.27014 0.0
H1098 H 0.35484 0.70841 0.28739 0.0
C1099 C 0.29938 0.7567 0.33939 0.0
C1100 C 0.39312 0.72981 0.33624 0.0
C1101 C 0.27997 0.77409 0.34846 0.0
C1102 C 0.44511 0.67528 0.267 0.0
C1103 C 0.42579 0.69133 0.2776 0.0
C1104 C 0.36601 0.71426 0.30098 0.0
C1105 C 0.3391 0.75712 0.33865 0.0
C1106 C 0.35968 0.73895 0.32852 0.0
C1107 C 0.42132 0.6884 0.29755 0.0
C1108 C 0.39969 0.70534 0.30855 0.0
H1109 H 0.3557 0.80651 0.36276 0.0
H1110 H 0.38953 0.77629 0.34677 0.0
H1111 H 0.32081 0.73763 0.3044 0.0
H1112 H 0.46806 0.63817 0.30344 0.0
H1113 H 0.43417 0.66639 0.32206 0.0
C1114 C 0.23413 0.70455 0.84695 0.0
C1115 C 0.21677 0.68415 0.85378 0.0
C1116 C 0.21269 0.72166 0.83807 0.0
C1117 C 0.12267 0.73104 0.81263 0.0
H1118 H 0.14274 0.79489 0.82388 0.0
C1119 C 0.06506 0.80513 0.76584 0.0
C1120 C 0.05163 0.82449 0.77514 0.0
C1121 C 0.08317 0.78782 0.77623 0.0
C1122 C 0.13656 0.77713 0.82072 0.0
H1123 H 0.16323 0.66571 0.85657 0.0
H1124 H 0.12588 0.69556 0.84105 0.0
H1125 H 0.17842 0.7651 0.8406 0.0
H1126 H 0.04624 0.84076 0.80269 0.0
H1127 H 0.07797 0.81039 0.82093 0.0
H1128 H 0.0808 0.74305 0.79277 0.0
C1129 C 0.15611 0.69826 0.84247 0.0
C1130 C 0.15728 0.76008 0.83013 0.0
C1131 C 0.17752 0.6812 0.85143 0.0
C1132 C 0.05626 0.82603 0.79513 0.0
C1133 C 0.07464 0.80873 0.80554 0.0
C1134 C 0.1021 0.74808 0.80315 0.0
C1135 C 0.17343 0.71872 0.83573 0.0
C1136 C 0.15073 0.73684 0.82611 0.0
C1137 C 0.08842 0.78947 0.79618 0.0
C1138 C 0.10898 0.77133 0.80698 0.0
H1139 H 0.2643 0.70738 0.84852 0.0
H1140 H 0.22698 0.73708 0.83281 0.0
H1141 H 0.11711 0.71332 0.8091 0.0
H1142 H 0.06179 0.80338 0.75045 0.0
H1143 H 0.0938 0.77335 0.76855 0.0
loop_
_geom_bond_atom_site_label_1
_geom_bond_atom_site_label_2
_geom_bond_distance
_geom_bond_site_symmetry_2
_ccdc_geom_bond_type
O0 Cd1 2.300 . S
O0 C7 1.275 . S
Cd1 O0 2.300 . S
Cd1 O9 2.381 . S
Cd1 O10 2.378 . S
O2 Cd3 2.385 . S
O2 C7 1.255 . S
Cd3 O2 2.385 . S
Cd3 O4 2.317 . S
O4 Cd3 2.317 . S
O4 C5 1.232 . S
C5 O4 1.232 . S
C5 O6 1.218 . S
O6 C5 1.218 . S
C7 O0 1.275 . S
C7 O2 1.255 . S
C8 O9 1.258 . S
C8 O10 1.256 . S
O9 Cd1 2.381 . S
O9 C8 1.258 . S
O10 Cd1 2.378 . S
O10 C8 1.256 . S
O11 Cd12 2.300 . S
O11 C18 1.275 . S
Cd12 O11 2.300 . S
Cd12 O20 2.381 . S
Cd12 O21 2.378 . S
O13 Cd14 2.385 . S
O13 C18 1.255 . S
Cd14 O13 2.385 . S
Cd14 O15 2.317 . S
O15 Cd14 2.317 . S
O15 C16 1.232 . S
C16 O15 1.232 . S
C16 O17 1.218 . S
O17 C16 1.218 . S
C18 O11 1.275 . S
C18 O13 1.255 . S
C19 O20 1.258 . S
C19 O21 1.256 . S
O20 Cd12 2.381 . S
O20 C19 1.258 . S
O21 Cd12 2.378 . S
O21 C19 1.256 . S
O22 Cd23 2.300 . S
O22 C29 1.275 . S
Cd23 O22 2.300 . S
Cd23 O31 2.381 . S
Cd23 O32 2.378 . S
O24 Cd25 2.385 . S
O24 C29 1.255 . S
Cd25 O24 2.385 . S
Cd25 O26 2.317 . S
O26 Cd25 2.317 . S
O26 C27 1.232 . S
C27 O26 1.232 . S
C27 O28 1.218 . S
O28 C27 1.218 . S
C29 O22 1.275 . S
C29 O24 1.255 . S
C30 O31 1.258 . S
C30 O32 1.256 . S
O31 Cd23 2.381 . S
O31 C30 1.258 . S
O32 Cd23 2.378 . S
O32 C30 1.256 . S
O33 Cd34 2.300 . S
O33 C40 1.275 . S
Cd34 O33 2.300 . S
Cd34 O42 2.381 . S
Cd34 O43 2.378 . S
O35 Cd36 2.385 . S
O35 C40 1.255 . S
Cd36 O35 2.385 . S
Cd36 O37 2.317 . S
O37 Cd36 2.317 . S
O37 C38 1.232 . S
C38 O37 1.232 . S
C38 O39 1.218 . S
O39 C38 1.218 . S
C40 O33 1.275 . S
C40 O35 1.255 . S
C41 O42 1.258 . S
C41 O43 1.256 . S
O42 Cd34 2.381 . S
O42 C41 1.258 . S
O43 Cd34 2.378 . S
O43 C41 1.256 . S
O44 Cd45 2.300 . S
O44 C51 1.275 . S
Cd45 O44 2.300 . S
Cd45 O53 2.381 . S
Cd45 O54 2.378 . S
O46 Cd47 2.385 . S
O46 C51 1.255 . S
Cd47 O46 2.385 . S
Cd47 O48 2.317 . S
O48 Cd47 2.317 . S
O48 C49 1.232 . S
C49 O48 1.232 . S
C49 O50 1.218 . S
O50 C49 1.218 . S
C51 O44 1.275 . S
C51 O46 1.255 . S
C52 O53 1.258 . S
C52 O54 1.256 . S
O53 Cd45 2.381 . S
O53 C52 1.258 . S
O54 Cd45 2.378 . S
O54 C52 1.256 . S
O55 Cd56 2.300 . S
O55 C62 1.275 . S
Cd56 O55 2.300 . S
Cd56 O64 2.381 . S
Cd56 O65 2.378 . S
O57 Cd58 2.385 . S
O57 C62 1.255 . S
Cd58 O57 2.385 . S
Cd58 O59 2.317 . S
O59 Cd58 2.317 . S
O59 C60 1.232 . S
C60 O59 1.232 . S
C60 O61 1.218 . S
O61 C60 1.218 . S
C62 O55 1.275 . S
C62 O57 1.255 . S
C63 O64 1.258 . S
C63 O65 1.256 . S
O64 Cd56 2.381 . S
O64 C63 1.258 . S
O65 Cd56 2.378 . S
O65 C63 1.256 . S
O66 Cd67 2.300 . S
O66 C73 1.275 . S
Cd67 O66 2.300 . S
Cd67 O75 2.381 . S
Cd67 O76 2.378 . S
O68 Cd69 2.385 . S
O68 C73 1.255 . S
Cd69 O68 2.385 . S
Cd69 O70 2.317 . S
O70 Cd69 2.317 . S
O70 C71 1.232 . S
C71 O70 1.232 . S
C71 O72 1.218 . S
O72 C71 1.218 . S
C73 O66 1.275 . S
C73 O68 1.255 . S
C74 O75 1.258 . S
C74 O76 1.256 . S
O75 Cd67 2.381 . S
O75 C74 1.258 . S
O76 Cd67 2.378 . S
O76 C74 1.256 . S
O77 Cd78 2.300 . S
O77 C84 1.275 . S
Cd78 O77 2.300 . S
Cd78 O86 2.381 . S
Cd78 O87 2.378 . S
O79 Cd80 2.385 . S
O79 C84 1.255 . S
Cd80 O79 2.385 . S
Cd80 O81 2.317 . S
O81 Cd80 2.317 . S
O81 C82 1.232 . S
C82 O81 1.232 . S
C82 O83 1.218 . S
O83 C82 1.218 . S
C84 O77 1.275 . S
C84 O79 1.255 . S
C85 O86 1.258 . S
C85 O87 1.256 . S
O86 Cd78 2.381 . S
O86 C85 1.258 . S
O87 Cd78 2.378 . S
O87 C85 1.256 . S
Eu88 N117 2.600 . S
Eu88 N123 2.562 . S
Eu88 O132 2.462 . S
Eu88 O133 2.373 . S
Eu88 O135 2.432 . S
Eu88 O136 2.291 . S
Eu88 O140 2.335 . S
Eu88 O143 2.372 . S
Eu88 C152 2.787 . S
C89 N90 1.365 . S
C89 C92 1.405 . S
C89 C96 1.448 . S
N90 C89 1.365 . S
N90 C93 1.319 . S
N90 Eu99 2.600 . S
C91 C93 1.397 . S
C91 C94 1.367 . S
C91 H111 0.931 . S
C92 C89 1.405 . S
C92 C94 1.403 . S
C92 C98 1.439 . S
C93 N90 1.319 . S
C93 C91 1.397 . S
C93 H104 0.930 . S
C94 C91 1.367 . S
C94 C92 1.403 . S
C94 H115 0.929 . S
C95 C96 1.430 . S
C95 C97 1.387 . S
C95 C101 1.404 . S
C96 C89 1.448 . S
C96 C95 1.430 . S
C96 N100 1.351 . S
C97 C95 1.387 . S
C97 C98 1.374 . S
C97 H112 0.931 . S
C98 C92 1.439 . S
C98 C97 1.374 . S
C98 H113 0.931 . S
Eu99 N90 2.600 . S
Eu99 N100 2.562 . S
Eu99 O134 2.335 1_655 S
Eu99 O137 2.372 . S
Eu99 O138 2.462 . S
Eu99 O139 2.373 . S
Eu99 O141 2.432 . S
Eu99 O142 2.291 1_655 S
Eu99 C163 2.787 . S
N100 C96 1.351 . S
N100 Eu99 2.562 . S
N100 C102 1.325 . S
C101 C95 1.404 . S
C101 C103 1.366 . S
C101 H109 0.930 . S
C102 N100 1.325 . S
C102 C103 1.416 . S
C102 H108 0.929 . S
C103 C101 1.366 . S
C103 C102 1.416 . S
C103 H105 0.930 . S
H104 C93 0.930 . S
H105 C103 0.930 . S
H106 C121 0.930 . S
H107 C128 0.930 . S
H108 C102 0.929 . S
H109 C101 0.930 . S
H110 C124 0.929 . S
H111 C91 0.931 . S
H112 C97 0.931 . S
H113 C98 0.931 . S
H114 C119 0.931 . S
H115 C94 0.929 . S
H116 C127 0.930 . S
N117 Eu88 2.600 . S
N117 C118 1.365 . S
N117 C121 1.319 . S
C118 N117 1.365 . S
C118 C120 1.405 . S
C118 C126 1.448 . S
C119 H114 0.931 . S
C119 C121 1.397 . S
C119 C122 1.367 . S
C120 C118 1.405 . S
C120 C122 1.403 . S
C120 C153 1.439 . S
C121 H106 0.930 . S
C121 N117 1.319 . S
C121 C119 1.397 . S
C122 C119 1.367 . S
C122 C120 1.403 . S
C122 H129 0.929 . S
N123 Eu88 2.562 . S
N123 C124 1.325 . S
N123 C126 1.351 . S
C124 H110 0.929 . S
C124 N123 1.325 . S
C124 C128 1.416 . S
C125 C126 1.430 . S
C125 C127 1.404 . S
C125 C154 1.387 . S
C126 C118 1.448 . S
C126 N123 1.351 . S
C126 C125 1.430 . S
C127 H116 0.930 . S
C127 C125 1.404 . S
C127 C128 1.366 . S
C128 H107 0.930 . S
C128 C124 1.416 . S
C128 C127 1.366 . S
H129 C122 0.929 . S
H130 C153 0.931 . S
H131 C154 0.931 . S
O132 Eu88 2.462 . S
O132 C152 1.252 . S
O133 Eu88 2.373 . S
O133 C144 1.249 . S
O134 Eu99 2.335 1_455 S
O134 C144 1.264 . S
O135 Eu88 2.432 . S
O135 C152 1.268 . S
O136 Eu88 2.291 . S
O136 C151 1.255 1_455 S
O137 Eu99 2.372 . S
O137 C151 1.257 . S
O138 Eu99 2.462 . S
O138 C163 1.252 . S
O139 Eu99 2.373 . S
O139 C155 1.249 . S
O140 Eu88 2.335 . S
O140 C155 1.264 1_455 S
O141 Eu99 2.432 . S
O141 C163 1.268 . S
O142 Eu99 2.291 1_455 S
O142 C162 1.255 . S
O143 Eu88 2.372 . S
O143 C162 1.257 . S
C144 O133 1.249 . S
C144 O134 1.264 . S
C145 C148 1.382 . S
C145 C150 1.390 . S
C145 C152 1.506 . S
C146 C147 1.398 . S
C146 C150 1.392 . S
C147 C146 1.398 . S
C147 C149 1.372 . S
C147 H164 0.931 . S
C148 C145 1.382 . S
C148 C149 1.390 . S
C148 H165 0.931 . S
C149 C147 1.372 . S
C149 C148 1.390 . S
C149 H166 0.929 . S
C150 C145 1.390 . S
C150 C146 1.392 . S
C150 H167 0.930 . S
C151 O136 1.255 1_655 S
C151 O137 1.257 . S
C152 Eu88 2.787 . S
C152 O132 1.252 . S
C152 O135 1.268 . S
C152 C145 1.506 . S
C153 C120 1.439 . S
C153 H130 0.931 . S
C153 C154 1.374 . S
C154 C125 1.387 . S
C154 H131 0.931 . S
C154 C153 1.374 . S
C155 O139 1.249 . S
C155 O140 1.264 1_655 S
C156 C159 1.382 . S
C156 C160 1.390 . S
C156 C163 1.506 . S
C157 C158 1.398 . S
C157 C160 1.392 . S
C158 C157 1.398 . S
C158 C161 1.372 . S
C158 H168 0.931 . S
C159 C156 1.382 . S
C159 C161 1.390 . S
C159 H169 0.931 . S
C160 C156 1.390 . S
C160 C157 1.392 . S
C160 H170 0.930 . S
C161 C158 1.372 . S
C161 C159 1.390 . S
C161 H171 0.929 . S
C162 O142 1.255 . S
C162 O143 1.257 . S
C163 Eu99 2.787 . S
C163 O138 1.252 . S
C163 O141 1.268 . S
C163 C156 1.506 . S
H164 C147 0.931 . S
H165 C148 0.931 . S
H166 C149 0.929 . S
H167 C150 0.930 . S
H168 C158 0.931 . S
H169 C159 0.931 . S
H170 C160 0.930 . S
H171 C161 0.929 . S
Eu172 N201 2.600 . S
Eu172 N207 2.562 . S
Eu172 O216 2.462 . S
Eu172 O217 2.373 . S
Eu172 O219 2.432 . S
Eu172 O220 2.291 . S
Eu172 O224 2.335 . S
Eu172 O227 2.372 . S
Eu172 C236 2.787 . S
C173 N174 1.365 . S
C173 C176 1.405 . S
C173 C180 1.448 . S
N174 C173 1.365 . S
N174 C177 1.319 . S
N174 Eu183 2.600 . S
C175 C177 1.397 . S
C175 C178 1.367 . S
C175 H195 0.931 . S
C176 C173 1.405 . S
C176 C178 1.403 . S
C176 C182 1.439 . S
C177 N174 1.319 . S
C177 C175 1.397 . S
C177 H188 0.930 . S
C178 C175 1.367 . S
C178 C176 1.403 . S
C178 H199 0.929 . S
C179 C180 1.430 . S
C179 C181 1.387 . S
C179 C185 1.404 . S
C180 C173 1.448 . S
C180 C179 1.430 . S
C180 N184 1.351 . S
C181 C179 1.387 . S
C181 C182 1.374 . S
C181 H196 0.931 . S
C182 C176 1.439 . S
C182 C181 1.374 . S
C182 H197 0.931 . S
Eu183 N174 2.600 . S
Eu183 N184 2.562 . S
Eu183 O218 2.335 . S
Eu183 O221 2.372 . S
Eu183 O222 2.462 . S
Eu183 O223 2.373 . S
Eu183 O225 2.432 . S
Eu183 O226 2.291 . S
Eu183 C247 2.787 . S
N184 C180 1.351 . S
N184 Eu183 2.562 . S
N184 C186 1.325 . S
C185 C179 1.404 . S
C185 C187 1.366 . S
C185 H193 0.930 . S
C186 N184 1.325 . S
C186 C187 1.416 . S
C186 H192 0.929 . S
C187 C185 1.366 . S
C187 C186 1.416 . S
C187 H189 0.930 . S
H188 C177 0.930 . S
H189 C187 0.930 . S
H190 C205 0.930 . S
H191 C212 0.930 . S
H192 C186 0.929 . S
H193 C185 0.930 . S
H194 C208 0.929 . S
H195 C175 0.931 . S
H196 C181 0.931 . S
H197 C182 0.931 . S
H198 C203 0.931 . S
H199 C178 0.929 . S
H200 C211 0.930 . S
N201 Eu172 2.600 . S
N201 C202 1.365 . S
N201 C205 1.319 . S
C202 N201 1.365 . S
C202 C204 1.405 . S
C202 C210 1.448 . S
C203 H198 0.931 . S
C203 C205 1.397 . S
C203 C206 1.367 . S
C204 C202 1.405 . S
C204 C206 1.403 . S
C204 C237 1.439 . S
C205 H190 0.930 . S
C205 N201 1.319 . S
C205 C203 1.397 . S
C206 C203 1.367 . S
C206 C204 1.403 . S
C206 H213 0.929 . S
N207 Eu172 2.562 . S
N207 C208 1.325 . S
N207 C210 1.351 . S
C208 H194 0.929 . S
C208 N207 1.325 . S
C208 C212 1.416 . S
C209 C210 1.430 . S
C209 C211 1.404 . S
C209 C238 1.387 . S
C210 C202 1.448 . S
C210 N207 1.351 . S
C210 C209 1.430 . S
C211 H200 0.930 . S
C211 C209 1.404 . S
C211 C212 1.366 . S
C212 H191 0.930 . S
C212 C208 1.416 . S
C212 C211 1.366 . S
H213 C206 0.929 . S
H214 C237 0.931 . S
H215 C238 0.931 . S
O216 Eu172 2.462 . S
O216 C236 1.252 . S
O217 Eu172 2.373 . S
O217 C228 1.249 . S
O218 Eu183 2.335 . S
O218 C228 1.264 . S
O219 Eu172 2.432 . S
O219 C236 1.268 . S
O220 Eu172 2.291 . S
O220 C235 1.255 . S
O221 Eu183 2.372 . S
O221 C235 1.257 . S
O222 Eu183 2.462 . S
O222 C247 1.252 . S
O223 Eu183 2.373 . S
O223 C239 1.249 . S
O224 Eu172 2.335 . S
O224 C239 1.264 . S
O225 Eu183 2.432 . S
O225 C247 1.268 . S
O226 Eu183 2.291 . S
O226 C246 1.255 . S
O227 Eu172 2.372 . S
O227 C246 1.257 . S
C228 O217 1.249 . S
C228 O218 1.264 . S
C229 C232 1.382 . S
C229 C234 1.390 . S
C229 C236 1.506 . S
C230 C231 1.398 . S
C230 C234 1.392 . S
C231 C230 1.398 . S
C231 C233 1.372 . S
C231 H248 0.931 . S
C232 C229 1.382 . S
C232 C233 1.390 . S
C232 H249 0.931 . S
C233 C231 1.372 . S
C233 C232 1.390 . S
C233 H250 0.929 . S
C234 C229 1.390 . S
C234 C230 1.392 . S
C234 H251 0.930 . S
C235 O220 1.255 . S
C235 O221 1.257 . S
C236 Eu172 2.787 . S
C236 O216 1.252 . S
C236 O219 1.268 . S
C236 C229 1.506 . S
C237 C204 1.439 . S
C237 H214 0.931 . S
C237 C238 1.374 . S
C238 C209 1.387 . S
C238 H215 0.931 . S
C238 C237 1.374 . S
C239 O223 1.249 . S
C239 O224 1.264 . S
C240 C243 1.382 . S
C240 C244 1.390 . S
C240 C247 1.506 . S
C241 C242 1.398 . S
C241 C244 1.392 . S
C242 C241 1.398 . S
C242 C245 1.372 . S
C242 H252 0.931 . S
C243 C240 1.382 . S
C243 C245 1.390 . S
C243 H253 0.931 . S
C244 C240 1.390 . S
C244 C241 1.392 . S
C244 H254 0.930 . S
C245 C242 1.372 . S
C245 C243 1.390 . S
C245 H255 0.929 . S
C246 O226 1.255 . S
C246 O227 1.257 . S
C247 Eu183 2.787 . S
C247 O222 1.252 . S
C247 O225 1.268 . S
C247 C240 1.506 . S
H248 C231 0.931 . S
H249 C232 0.931 . S
H250 C233 0.929 . S
H251 C234 0.930 . S
H252 C242 0.931 . S
H253 C243 0.931 . S
H254 C244 0.930 . S
H255 C245 0.929 . S
Eu256 N285 2.600 . S
Eu256 N291 2.562 . S
Eu256 O300 2.462 . S
Eu256 O301 2.373 . S
Eu256 O303 2.432 . S
Eu256 O304 2.291 . S
Eu256 O308 2.321 1_455 S
Eu256 O311 2.372 . S
Eu256 C320 2.787 . S
C257 N258 1.365 . S
C257 C260 1.405 . S
C257 C264 1.448 . S
N258 C257 1.365 . S
N258 C261 1.319 . S
N258 Eu267 2.600 . S
C259 C261 1.397 . S
C259 C262 1.367 . S
C259 H279 0.931 . S
C260 C257 1.405 . S
C260 C262 1.403 . S
C260 C266 1.439 . S
C261 N258 1.319 . S
C261 C259 1.397 . S
C261 H272 0.930 . S
C262 C259 1.367 . S
C262 C260 1.403 . S
C262 H283 0.929 . S
C263 C264 1.430 . S
C263 C265 1.387 . S
C263 C269 1.404 . S
C264 C257 1.448 . S
C264 C263 1.430 . S
C264 N268 1.351 . S
C265 C263 1.387 . S
C265 C266 1.374 . S
C265 H280 0.931 . S
C266 C260 1.439 . S
C266 C265 1.374 . S
C266 H281 0.931 . S
Eu267 N258 2.600 . S
Eu267 N268 2.562 . S
Eu267 O302 2.335 1_655 S
Eu267 O305 2.372 . S
Eu267 O306 2.462 . S
Eu267 O307 2.373 . S
Eu267 O309 2.432 . S
Eu267 O310 2.304 . S
Eu267 C331 2.787 . S
N268 C264 1.351 . S
N268 Eu267 2.562 . S
N268 C270 1.325 . S
C269 C263 1.404 . S
C269 C271 1.366 . S
C269 H277 0.930 . S
C270 N268 1.325 . S
C270 C271 1.416 . S
C270 H276 0.929 . S
C271 C269 1.366 . S
C271 C270 1.416 . S
C271 H273 0.930 . S
H272 C261 0.930 . S
H273 C271 0.930 . S
H274 C289 0.930 . S
H275 C296 0.930 . S
H276 C270 0.929 . S
H277 C269 0.930 . S
H278 C292 0.929 . S
H279 C259 0.931 . S
H280 C265 0.931 . S
H281 C266 0.931 . S
H282 C287 0.931 . S
H283 C262 0.929 . S
H284 C295 0.930 . S
N285 Eu256 2.600 . S
N285 C286 1.365 . S
N285 C289 1.319 . S
C286 N285 1.365 . S
C286 C288 1.405 . S
C286 C294 1.448 . S
C287 H282 0.931 . S
C287 C289 1.397 . S
C287 C290 1.367 . S
C288 C286 1.405 . S
C288 C290 1.403 . S
C288 C321 1.439 . S
C289 H274 0.930 . S
C289 N285 1.319 . S
C289 C287 1.397 . S
C290 C287 1.367 . S
C290 C288 1.403 . S
C290 H297 0.929 . S
N291 Eu256 2.562 . S
N291 C292 1.325 . S
N291 C294 1.351 . S
C292 H278 0.929 . S
C292 N291 1.325 . S
C292 C296 1.416 . S
C293 C294 1.430 . S
C293 C295 1.404 . S
C293 C322 1.387 . S
C294 C286 1.448 . S
C294 N291 1.351 . S
C294 C293 1.430 . S
C295 H284 0.930 . S
C295 C293 1.404 . S
C295 C296 1.366 . S
C296 H275 0.930 . S
C296 C292 1.416 . S
C296 C295 1.366 . S
H297 C290 0.929 . S
H298 C321 0.931 . S
H299 C322 0.931 . S
O300 Eu256 2.462 . S
O300 C320 1.252 . S
O301 Eu256 2.373 . S
O301 C312 1.249 . S
O302 Eu267 2.335 1_455 S
O302 C312 1.264 . S
O303 Eu256 2.432 . S
O303 C320 1.268 . S
O304 Eu256 2.291 . S
O304 C319 1.255 1_455 S
O305 Eu267 2.372 . S
O305 C319 1.257 . S
O306 Eu267 2.462 . S
O306 C331 1.252 . S
O307 Eu267 2.373 . S
O307 C323 1.249 . S
O308 Eu256 2.321 1_655 S
O308 C323 1.281 . S
O309 Eu267 2.432 . S
O309 C331 1.268 . S
O310 Eu267 2.304 . S
O310 C330 1.240 1_655 S
O311 Eu256 2.372 . S
O311 C330 1.257 . S
C312 O301 1.249 . S
C312 O302 1.264 . S
C313 C316 1.382 . S
C313 C318 1.390 . S
C313 C320 1.506 . S
C314 C315 1.398 . S
C314 C318 1.392 . S
C315 C314 1.398 . S
C315 C317 1.372 . S
C315 H332 0.931 . S
C316 C313 1.382 . S
C316 C317 1.390 . S
C316 H333 0.931 . S
C317 C315 1.372 . S
C317 C316 1.390 . S
C317 H334 0.929 . S
C318 C313 1.390 . S
C318 C314 1.392 . S
C318 H335 0.930 . S
C319 O304 1.255 1_655 S
C319 O305 1.257 . S
C320 Eu256 2.787 . S
C320 O300 1.252 . S
C320 O303 1.268 . S
C320 C313 1.506 . S
C321 C288 1.439 . S
C321 H298 0.931 . S
C321 C322 1.374 . S
C322 C293 1.387 . S
C322 H299 0.931 . S
C322 C321 1.374 . S
C323 O307 1.249 . S
C323 O308 1.281 . S
C324 C327 1.382 . S
C324 C328 1.390 . S
C324 C331 1.506 . S
C325 C326 1.398 . S
C325 C328 1.392 . S
C326 C325 1.398 . S
C326 C329 1.372 . S
C326 H336 0.931 . S
C327 C324 1.382 . S
C327 C329 1.390 . S
C327 H337 0.931 . S
C328 C324 1.390 . S
C328 C325 1.392 . S
C328 H338 0.930 . S
C329 C326 1.372 . S
C329 C327 1.390 . S
C329 H339 0.929 . S
C330 O310 1.240 1_455 S
C330 O311 1.257 . S
C331 Eu267 2.787 . S
C331 O306 1.252 . S
C331 O309 1.268 . S
C331 C324 1.506 . S
H332 C315 0.931 . S
H333 C316 0.931 . S
H334 C317 0.929 . S
H335 C318 0.930 . S
H336 C326 0.931 . S
H337 C327 0.931 . S
H338 C328 0.930 . S
H339 C329 0.929 . S
Eu340 N369 2.600 . S
Eu340 N375 2.562 . S
Eu340 O384 2.462 . S
Eu340 O385 2.373 . S
Eu340 O387 2.432 . S
Eu340 O388 2.291 . S
Eu340 O392 2.335 . S
Eu340 O395 2.372 . S
Eu340 C404 2.787 . S
C341 N342 1.365 . S
C341 C344 1.405 . S
C341 C348 1.448 . S
N342 C341 1.365 . S
N342 C345 1.319 . S
N342 Eu351 2.600 . S
C343 C345 1.397 . S
C343 C346 1.367 . S
C343 H363 0.931 . S
C344 C341 1.405 . S
C344 C346 1.403 . S
C344 C350 1.439 . S
C345 N342 1.319 . S
C345 C343 1.397 . S
C345 H356 0.930 . S
C346 C343 1.367 . S
C346 C344 1.403 . S
C346 H367 0.929 . S
C347 C348 1.430 . S
C347 C349 1.387 . S
C347 C353 1.404 . S
C348 C341 1.448 . S
C348 C347 1.430 . S
C348 N352 1.351 . S
C349 C347 1.387 . S
C349 C350 1.374 . S
C349 H364 0.931 . S
C350 C344 1.439 . S
C350 C349 1.374 . S
C350 H365 0.931 . S
Eu351 N342 2.600 . S
Eu351 N352 2.562 . S
Eu351 O386 2.335 . S
Eu351 O389 2.372 . S
Eu351 O390 2.462 . S
Eu351 O391 2.373 . S
Eu351 O393 2.432 . S
Eu351 O394 2.291 . S
Eu351 C415 2.787 . S
N352 C348 1.351 . S
N352 Eu351 2.562 . S
N352 C354 1.325 . S
C353 C347 1.404 . S
C353 C355 1.366 . S
C353 H361 0.930 . S
C354 N352 1.325 . S
C354 C355 1.416 . S
C354 H360 0.929 . S
C355 C353 1.366 . S
C355 C354 1.416 . S
C355 H357 0.930 . S
H356 C345 0.930 . S
H357 C355 0.930 . S
H358 C373 0.930 . S
H359 C380 0.930 . S
H360 C354 0.929 . S
H361 C353 0.930 . S
H362 C376 0.929 . S
H363 C343 0.931 . S
H364 C349 0.931 . S
H365 C350 0.931 . S
H366 C371 0.931 . S
H367 C346 0.929 . S
H368 C379 0.930 . S
N369 Eu340 2.600 . S
N369 C370 1.365 . S
N369 C373 1.319 . S
C370 N369 1.365 . S
C370 C372 1.405 . S
C370 C378 1.448 . S
C371 H366 0.931 . S
C371 C373 1.397 . S
C371 C374 1.367 . S
C372 C370 1.405 . S
C372 C374 1.403 . S
C372 C405 1.439 . S
C373 H358 0.930 . S
C373 N369 1.319 . S
C373 C371 1.397 . S
C374 C371 1.367 . S
C374 C372 1.403 . S
C374 H381 0.929 . S
N375 Eu340 2.562 . S
N375 C376 1.325 . S
N375 C378 1.351 . S
C376 H362 0.929 . S
C376 N375 1.325 . S
C376 C380 1.416 . S
C377 C378 1.430 . S
C377 C379 1.404 . S
C377 C406 1.387 . S
C378 C370 1.448 . S
C378 N375 1.351 . S
C378 C377 1.430 . S
C379 H368 0.930 . S
C379 C377 1.404 . S
C379 C380 1.366 . S
C380 H359 0.930 . S
C380 C376 1.416 . S
C380 C379 1.366 . S
H381 C374 0.929 . S
H382 C405 0.931 . S
H383 C406 0.931 . S
O384 Eu340 2.462 . S
O384 C404 1.252 . S
O385 Eu340 2.373 . S
O385 C396 1.249 . S
O386 Eu351 2.335 . S
O386 C396 1.264 . S
O387 Eu340 2.432 . S
O387 C404 1.268 . S
O388 Eu340 2.291 . S
O388 C403 1.255 . S
O389 Eu351 2.372 . S
O389 C403 1.257 . S
O390 Eu351 2.462 . S
O390 C415 1.252 . S
O391 Eu351 2.373 . S
O391 C407 1.249 . S
O392 Eu340 2.335 . S
O392 C407 1.264 . S
O393 Eu351 2.432 . S
O393 C415 1.268 . S
O394 Eu351 2.291 . S
O394 C414 1.255 . S
O395 Eu340 2.372 . S
O395 C414 1.257 . S
C396 O385 1.249 . S
C396 O386 1.264 . S
C397 C400 1.382 . S
C397 C402 1.390 . S
C397 C404 1.506 . S
C398 C399 1.398 . S
C398 C402 1.392 . S
C399 C398 1.398 . S
C399 C401 1.372 . S
C399 H416 0.931 . S
C400 C397 1.382 . S
C400 C401 1.390 . S
C400 H417 0.931 . S
C401 C399 1.372 . S
C401 C400 1.390 . S
C401 H418 0.929 . S
C402 C397 1.390 . S
C402 C398 1.392 . S
C402 H419 0.930 . S
C403 O388 1.255 . S
C403 O389 1.257 . S
C404 Eu340 2.787 . S
C404 O384 1.252 . S
C404 O387 1.268 . S
C404 C397 1.506 . S
C405 C372 1.439 . S
C405 H382 0.931 . S
C405 C406 1.374 . S
C406 C377 1.387 . S
C406 H383 0.931 . S
C406 C405 1.374 . S
C407 O391 1.249 . S
C407 O392 1.264 . S
C408 C411 1.382 . S
C408 C412 1.390 . S
C408 C415 1.506 . S
C409 C410 1.398 . S
C409 C412 1.392 . S
C410 C409 1.398 . S
C410 C413 1.372 . S
C410 H420 0.931 . S
C411 C408 1.382 . S
C411 C413 1.390 . S
C411 H421 0.931 . S
C412 C408 1.390 . S
C412 C409 1.392 . S
C412 H422 0.930 . S
C413 C410 1.372 . S
C413 C411 1.390 . S
C413 H423 0.929 . S
C414 O394 1.255 . S
C414 O395 1.257 . S
C415 Eu351 2.787 . S
C415 O390 1.252 . S
C415 O393 1.268 . S
C415 C408 1.506 . S
H416 C399 0.931 . S
H417 C400 0.931 . S
H418 C401 0.929 . S
H419 C402 0.930 . S
H420 C410 0.931 . S
H421 C411 0.931 . S
H422 C412 0.930 . S
H423 C413 0.929 . S
C424 C425 1.349 . S
C424 C426 1.327 . S
C424 H449 0.950 . S
C425 C424 1.349 . S
C425 C441 1.349 . S
C426 C424 1.327 . S
C426 C445 1.429 . S
C426 H450 0.950 . S
C427 C444 1.574 1_565 S
C427 C446 1.368 . S
C427 H451 0.949 . S
H428 C432 0.949 . S
C429 C430 1.349 . S
C429 C431 1.327 . S
C429 H452 0.950 . S
C430 C429 1.349 . S
C430 C442 1.349 . S
C431 C429 1.327 . S
C431 C447 1.429 . S
C431 H453 0.950 . S
C432 H428 0.949 . S
C432 C440 1.574 . S
C432 C448 1.368 . S
H433 C441 0.950 . S
H434 C439 0.950 . S
H435 C440 0.949 . S
H436 C442 0.950 . S
H437 C443 0.950 1_565 S
H438 C444 0.949 . S
C439 H434 0.950 . S
C439 C441 1.327 . S
C439 C445 1.429 . S
C440 C432 1.574 . S
C440 H435 0.949 . S
C440 C446 1.368 . S
C441 C425 1.349 . S
C441 H433 0.950 . S
C441 C439 1.327 . S
C442 C430 1.349 . S
C442 H436 0.950 . S
C442 C443 1.327 . S
C443 H437 0.950 1_545 S
C443 C442 1.327 . S
C443 C447 1.429 . S
C444 C427 1.574 1_545 S
C444 H438 0.949 . S
C444 C448 1.368 1_545 S
C445 C426 1.429 . S
C445 C439 1.429 . S
C445 C446 1.523 . S
C446 C427 1.368 . S
C446 C440 1.368 . S
C446 C445 1.523 . S
C447 C431 1.429 . S
C447 C443 1.429 . S
C447 C448 1.523 1_545 S
C448 C432 1.368 . S
C448 C444 1.368 1_565 S
C448 C447 1.523 1_565 S
H449 C424 0.950 . S
H450 C426 0.950 . S
H451 C427 0.949 . S
H452 C429 0.950 . S
H453 C431 0.950 . S
C454 C455 1.349 . S
C454 C456 1.327 . S
C454 H479 0.950 . S
C455 C454 1.349 . S
C455 C471 1.349 . S
C456 C454 1.327 . S
C456 C475 1.429 . S
C456 H480 0.950 . S
C457 C474 1.574 . S
C457 C476 1.368 . S
C457 H481 0.949 . S
H458 C462 0.949 . S
C459 C460 1.349 . S
C459 C461 1.327 . S
C459 H482 0.950 . S
C460 C459 1.349 . S
C460 C472 1.349 . S
C461 C459 1.327 . S
C461 C477 1.429 . S
C461 H483 0.950 . S
C462 H458 0.949 . S
C462 C470 1.574 . S
C462 C478 1.368 . S
H463 C471 0.950 . S
H464 C469 0.950 . S
H465 C470 0.949 . S
H466 C472 0.950 . S
H467 C473 0.950 . S
H468 C474 0.949 . S
C469 H464 0.950 . S
C469 C471 1.327 . S
C469 C475 1.429 . S
C470 C462 1.574 . S
C470 H465 0.949 . S
C470 C476 1.368 . S
C471 C455 1.349 . S
C471 H463 0.950 . S
C471 C469 1.327 . S
C472 C460 1.349 . S
C472 H466 0.950 . S
C472 C473 1.327 . S
C473 H467 0.950 . S
C473 C472 1.327 . S
C473 C477 1.429 . S
C474 C457 1.574 . S
C474 H468 0.949 . S
C474 C478 1.368 . S
C475 C456 1.429 . S
C475 C469 1.429 . S
C475 C476 1.523 . S
C476 C457 1.368 . S
C476 C470 1.368 . S
C476 C475 1.523 . S
C477 C461 1.429 . S
C477 C473 1.429 . S
C477 C478 1.523 . S
C478 C462 1.368 . S
C478 C474 1.368 . S
C478 C477 1.523 . S
H479 C454 0.950 . S
H480 C456 0.950 . S
H481 C457 0.949 . S
H482 C459 0.950 . S
H483 C461 0.950 . S
C484 C485 1.349 . S
C484 C486 1.327 . S
C484 H509 0.950 . S
C485 C484 1.349 . S
C485 C501 1.349 . S
C486 C484 1.327 . S
C486 C505 1.429 . S
C486 H510 0.950 . S
C487 C504 1.574 . S
C487 C506 1.368 . S
C487 H511 0.949 . S
H488 C492 0.949 . S
C489 C490 1.349 . S
C489 C491 1.327 . S
C489 H512 0.950 . S
C490 C489 1.349 . S
C490 C502 1.349 . S
C491 C489 1.327 . S
C491 C507 1.429 . S
C491 H513 0.950 . S
C492 H488 0.949 . S
C492 C500 1.574 . S
C492 C508 1.368 . S
H493 C501 0.950 . S
H494 C499 0.950 . S
H495 C500 0.949 . S
H496 C502 0.950 . S
H497 C503 0.950 . S
H498 C504 0.949 . S
C499 H494 0.950 . S
C499 C501 1.327 . S
C499 C505 1.429 . S
C500 C492 1.574 . S
C500 H495 0.949 . S
C500 C506 1.368 . S
C501 C485 1.349 . S
C501 H493 0.950 . S
C501 C499 1.327 . S
C502 C490 1.349 . S
C502 H496 0.950 . S
C502 C503 1.327 . S
C503 H497 0.950 . S
C503 C502 1.327 . S
C503 C507 1.429 . S
C504 C487 1.574 . S
C504 H498 0.949 . S
C504 C508 1.368 . S
C505 C486 1.429 . S
C505 C499 1.429 . S
C505 C506 1.523 . S
C506 C487 1.368 . S
C506 C500 1.368 . S
C506 C505 1.523 . S
C507 C491 1.429 . S
C507 C503 1.429 . S
C507 C508 1.523 . S
C508 C492 1.368 . S
C508 C504 1.368 . S
C508 C507 1.523 . S
H509 C484 0.950 . S
H510 C486 0.950 . S
H511 C487 0.949 . S
H512 C489 0.950 . S
H513 C491 0.950 . S
C514 C515 1.349 . S
C514 C516 1.327 . S
C514 H539 0.950 . S
C515 C514 1.349 . S
C515 C531 1.349 . S
C516 C514 1.327 . S
C516 C535 1.429 . S
C516 H540 0.950 . S
C517 C534 1.574 1_565 S
C517 C536 1.368 . S
C517 H541 0.949 . S
H518 C522 0.949 . S
C519 C520 1.349 . S
C519 C521 1.327 . S
C519 H542 0.950 . S
C520 C519 1.349 . S
C520 C532 1.349 . S
C521 C519 1.327 . S
C521 C537 1.429 . S
C521 H543 0.950 . S
C522 H518 0.949 . S
C522 C530 1.574 . S
C522 C538 1.368 1_565 S
H523 C531 0.950 . S
H524 C529 0.950 . S
H525 C530 0.949 . S
H526 C532 0.965 . S
H527 C533 0.950 1_565 S
H528 C534 0.949 . S
C529 H524 0.950 . S
C529 C531 1.327 . S
C529 C535 1.429 . S
C530 C522 1.574 . S
C530 H525 0.949 . S
C530 C536 1.368 . S
C531 C515 1.349 . S
C531 H523 0.950 . S
C531 C529 1.327 . S
C532 C520 1.349 . S
C532 H526 0.965 . S
C532 C533 1.327 . S
C533 H527 0.950 1_545 S
C533 C532 1.327 . S
C533 C537 1.429 . S
C534 C517 1.574 1_545 S
C534 H528 0.949 . S
C534 C538 1.368 . S
C535 C516 1.429 . S
C535 C529 1.429 . S
C535 C536 1.523 . S
C536 C517 1.368 . S
C536 C530 1.368 . S
C536 C535 1.523 . S
C537 C521 1.429 . S
C537 C533 1.429 . S
C537 C538 1.523 . S
C538 C522 1.368 1_545 S
C538 C534 1.368 . S
C538 C537 1.523 . S
H539 C514 0.950 . S
H540 C516 0.950 . S
H541 C517 0.949 . S
H542 C519 0.950 . S
H543 C521 0.950 . S
C544 C545 1.349 . S
C544 C546 1.327 . S
C544 H569 0.950 . S
C545 C544 1.349 . S
C545 C561 1.349 . S
C546 C544 1.327 . S
C546 C565 1.429 . S
C546 H570 0.950 . S
C547 C564 1.574 . S
C547 C566 1.368 . S
C547 H571 0.949 . S
H548 C552 0.949 . S
C549 C550 1.349 . S
C549 C551 1.327 . S
C549 H572 0.950 . S
C550 C549 1.349 . S
C550 C562 1.349 . S
C551 C549 1.327 . S
C551 C567 1.429 . S
C551 H573 0.918 1_565 S
C552 H548 0.949 . S
C552 C560 1.574 1_565 S
C552 C568 1.358 1_565 S
H553 C561 0.950 . S
H554 C559 0.950 . S
H555 C560 0.949 . S
H556 C562 0.950 . S
H557 C563 0.950 . S
H558 C564 0.949 . S
C559 H554 0.950 . S
C559 C561 1.327 . S
C559 C565 1.429 . S
C560 C552 1.574 1_545 S
C560 H555 0.949 . S
C560 C566 1.368 . S
C561 C545 1.349 . S
C561 H553 0.950 . S
C561 C559 1.327 . S
C562 C550 1.349 . S
C562 H556 0.950 . S
C562 C563 1.327 . S
C563 H557 0.950 . S
C563 C562 1.327 . S
C563 C567 1.429 . S
C564 C547 1.574 . S
C564 H558 0.949 . S
C564 C568 1.396 . S
C565 C546 1.429 . S
C565 C559 1.429 . S
C565 C566 1.523 . S
C566 C547 1.368 . S
C566 C560 1.368 . S
C566 C565 1.523 . S
C567 C551 1.429 . S
C567 C563 1.429 . S
C567 C568 1.501 1_565 S
C568 C552 1.358 1_545 S
C568 C564 1.396 . S
C568 C567 1.501 1_545 S
H569 C544 0.950 . S
H570 C546 0.950 . S
H571 C547 0.949 . S
H572 C549 0.950 . S
H573 C551 0.918 1_545 S
C574 C575 1.349 . S
C574 C576 1.327 . S
C574 H599 0.950 . S
C575 C574 1.349 . S
C575 C591 1.349 . S
C576 C574 1.327 . S
C576 C595 1.429 . S
C576 H600 0.950 . S
C577 C594 1.574 . S
C577 C596 1.368 . S
C577 H601 0.949 . S
H578 C582 0.949 . S
C579 C580 1.349 . S
C579 C581 1.327 . S
C579 H602 0.950 . S
C580 C579 1.349 . S
C580 C592 1.349 . S
C581 C579 1.327 . S
C581 C597 1.429 . S
C581 H603 0.950 . S
C582 H578 0.949 . S
C582 C590 1.574 . S
C582 C598 1.368 . S
H583 C591 0.950 . S
H584 C589 0.950 . S
H585 C590 0.949 . S
H586 C592 0.950 . S
H587 C593 0.950 . S
H588 C594 0.949 . S
C589 H584 0.950 . S
C589 C591 1.327 . S
C589 C595 1.429 . S
C590 C582 1.574 . S
C590 H585 0.949 . S
C590 C596 1.368 . S
C591 C575 1.349 . S
C591 H583 0.950 . S
C591 C589 1.327 . S
C592 C580 1.349 . S
C592 H586 0.950 . S
C592 C593 1.327 . S
C593 H587 0.950 . S
C593 C592 1.327 . S
C593 C597 1.429 . S
C594 C577 1.574 . S
C594 H588 0.949 . S
C594 C598 1.368 . S
C595 C576 1.429 . S
C595 C589 1.429 . S
C595 C596 1.523 . S
C596 C577 1.368 . S
C596 C590 1.368 . S
C596 C595 1.523 . S
C597 C581 1.429 . S
C597 C593 1.429 . S
C597 C598 1.523 . S
C598 C582 1.368 . S
C598 C594 1.368 . S
C598 C597 1.523 . S
H599 C574 0.950 . S
H600 C576 0.950 . S
H601 C577 0.949 . S
H602 C579 0.950 . S
H603 C581 0.950 . S
C604 C605 1.349 . S
C604 C606 1.327 . S
C604 H629 0.950 . S
C605 C604 1.349 . S
C605 C621 1.349 . S
C606 C604 1.327 . S
C606 C625 1.429 . S
C606 H630 0.950 . S
C607 C624 1.574 . S
C607 C626 1.368 . S
C607 H631 0.949 . S
H608 C612 0.949 . S
C609 C610 1.349 . S
C609 C611 1.327 . S
C609 H632 0.950 . S
C610 C609 1.349 . S
C610 C622 1.349 . S
C611 C609 1.327 . S
C611 C627 1.429 . S
C611 H633 0.950 . S
C612 H608 0.949 . S
C612 C620 1.574 . S
C612 C628 1.368 . S
H613 C621 0.950 . S
H614 C619 0.950 . S
H615 C620 0.949 . S
H616 C622 0.950 . S
H617 C623 0.950 . S
H618 C624 0.949 . S
C619 H614 0.950 . S
C619 C621 1.327 . S
C619 C625 1.429 . S
C620 C612 1.574 . S
C620 H615 0.949 . S
C620 C626 1.368 . S
C621 C605 1.349 . S
C621 H613 0.950 . S
C621 C619 1.327 . S
C622 C610 1.349 . S
C622 H616 0.950 . S
C622 C623 1.327 . S
C623 H617 0.950 . S
C623 C622 1.327 . S
C623 C627 1.429 . S
C624 C607 1.574 . S
C624 H618 0.949 . S
C624 C628 1.368 . S
C625 C606 1.429 . S
C625 C619 1.429 . S
C625 C626 1.523 . S
C626 C607 1.368 . S
C626 C620 1.368 . S
C626 C625 1.523 . S
C627 C611 1.429 . S
C627 C623 1.429 . S
C627 C628 1.523 . S
C628 C612 1.368 . S
C628 C624 1.368 . S
C628 C627 1.523 . S
H629 C604 0.950 . S
H630 C606 0.950 . S
H631 C607 0.949 . S
H632 C609 0.950 . S
H633 C611 0.950 . S
C634 C635 1.349 . S
C634 C636 1.327 . S
C634 H659 0.950 . S
C635 C634 1.349 . S
C635 C651 1.349 . S
C636 C634 1.327 . S
C636 C655 1.429 . S
C636 H660 0.950 . S
C637 C654 1.574 . S
C637 C656 1.368 1_565 S
C637 H661 0.949 . S
H638 C642 0.949 . S
C639 C640 1.349 . S
C639 C641 1.327 . S
C639 H662 0.950 . S
C640 C639 1.349 . S
C640 C652 1.349 . S
C641 C639 1.327 . S
C641 C657 1.429 . S
C641 H663 0.950 . S
C642 H638 0.949 . S
C642 C650 1.574 . S
C642 C658 1.368 1_545 S
H643 C651 0.950 . S
H644 C649 0.950 . S
H645 C650 0.949 . S
H646 C652 0.950 . S
H647 C653 0.950 . S
H648 C654 0.949 . S
C649 H644 0.950 . S
C649 C651 1.327 . S
C649 C655 1.429 . S
C650 C642 1.574 . S
C650 H645 0.949 . S
C650 C656 1.368 . S
C651 C635 1.349 . S
C651 H643 0.950 . S
C651 C649 1.327 . S
C652 C640 1.349 . S
C652 H646 0.950 . S
C652 C653 1.327 . S
C653 H647 0.950 . S
C653 C652 1.327 . S
C653 C657 1.429 . S
C654 C637 1.574 . S
C654 H648 0.949 . S
C654 C658 1.368 . S
C655 C636 1.429 . S
C655 C649 1.429 . S
C655 C656 1.523 . S
C656 C637 1.368 1_545 S
C656 C650 1.368 . S
C656 C655 1.523 . S
C657 C641 1.429 . S
C657 C653 1.429 . S
C657 C658 1.523 . S
C658 C642 1.368 1_565 S
C658 C654 1.368 . S
C658 C657 1.523 . S
H659 C634 0.950 . S
H660 C636 0.950 . S
H661 C637 0.949 . S
H662 C639 0.950 . S
H663 C641 0.950 . S
C664 C665 1.349 . S
C664 C666 1.327 . S
C664 H689 0.950 . S
C665 C664 1.349 . S
C665 C681 1.349 . S
C666 C664 1.327 . S
C666 C685 1.429 1_556 S
C666 H690 0.939 1_556 S
C667 C684 1.574 . S
C667 C686 1.368 . S
C667 H691 0.949 . S
H668 C672 0.949 . S
C669 C670 1.349 . S
C669 C671 1.327 . S
C669 H692 0.950 . S
C670 C669 1.349 . S
C670 C682 1.349 . S
C671 C669 1.327 . S
C671 C687 1.429 . S
C671 H693 0.950 . S
C672 H668 0.949 . S
C672 C680 1.574 . S
C672 C688 1.368 . S
H673 C681 0.950 . S
H674 C679 0.950 . S
H675 C680 0.949 . S
H676 C682 0.950 . S
H677 C683 0.950 . S
H678 C684 0.949 . S
C679 H674 0.950 . S
C679 C681 1.327 . S
C679 C685 1.430 1_556 S
C680 C672 1.574 . S
C680 H675 0.949 . S
C680 C686 1.368 . S
C681 C665 1.349 . S
C681 H673 0.950 . S
C681 C679 1.327 . S
C682 C670 1.349 . S
C682 H676 0.950 . S
C682 C683 1.327 . S
C683 H677 0.950 . S
C683 C682 1.327 . S
C683 C687 1.429 . S
C684 C667 1.574 . S
C684 H678 0.949 . S
C684 C688 1.368 . S
C685 C666 1.429 1_554 S
C685 C679 1.430 1_554 S
C685 C686 1.521 . S
C686 C667 1.368 . S
C686 C680 1.368 . S
C686 C685 1.521 . S
C687 C671 1.429 . S
C687 C683 1.429 . S
C687 C688 1.523 . S
C688 C672 1.368 . S
C688 C684 1.368 . S
C688 C687 1.523 . S
H689 C664 0.950 . S
H690 C666 0.939 1_554 S
H691 C667 0.949 . S
H692 C669 0.950 . S
H693 C671 0.950 . S
C694 C695 1.349 . S
C694 C696 1.327 . S
C694 H719 0.950 . S
C695 C694 1.349 . S
C695 C711 1.349 . S
C696 C694 1.327 . S
C696 C715 1.429 . S
C696 H720 0.950 . S
C697 C714 1.574 . S
C697 C716 1.368 . S
C697 H721 0.949 . S
H698 C702 0.949 . S
C699 C700 1.349 . S
C699 C701 1.327 . S
C699 H722 0.950 . S
C700 C699 1.349 . S
C700 C712 1.349 . S
C701 C699 1.327 . S
C701 C717 1.429 . S
C701 H723 0.950 . S
C702 H698 0.949 . S
C702 C710 1.574 . S
C702 C718 1.368 . S
H703 C711 0.950 . S
H704 C709 0.950 . S
H705 C710 0.949 . S
H706 C712 0.950 . S
H707 C713 0.950 . S
H708 C714 0.949 . S
C709 H704 0.950 . S
C709 C711 1.327 . S
C709 C715 1.429 . S
C710 C702 1.574 . S
C710 H705 0.949 . S
C710 C716 1.368 . S
C711 C695 1.349 . S
C711 H703 0.950 . S
C711 C709 1.327 . S
C712 C700 1.349 . S
C712 H706 0.950 . S
C712 C713 1.327 . S
C713 H707 0.950 . S
C713 C712 1.327 . S
C713 C717 1.429 . S
C714 C697 1.574 . S
C714 H708 0.949 . S
C714 C718 1.368 . S
C715 C696 1.429 . S
C715 C709 1.429 . S
C715 C716 1.523 . S
C716 C697 1.368 . S
C716 C710 1.368 . S
C716 C715 1.523 . S
C717 C701 1.429 . S
C717 C713 1.429 . S
C717 C718 1.523 . S
C718 C702 1.368 . S
C718 C714 1.368 . S
C718 C717 1.523 . S
H719 C694 0.950 . S
H720 C696 0.950 . S
H721 C697 0.949 . S
H722 C699 0.950 . S
H723 C701 0.950 . S
C724 C725 1.349 . S
C724 C726 1.327 . S
C724 H749 0.950 . S
C725 C724 1.349 . S
C725 C741 1.349 . S
C726 C724 1.327 . S
C726 C745 1.429 . S
C726 H750 0.950 . S
C727 C744 1.574 . S
C727 C746 1.368 . S
C727 H751 0.949 . S
H728 C732 0.949 . S
C729 C730 1.349 . S
C729 C731 1.327 . S
C729 H752 0.950 . S
C730 C729 1.349 . S
C730 C742 1.349 . S
C731 C729 1.327 . S
C731 C747 1.429 . S
C731 H753 0.950 . S
C732 H728 0.949 . S
C732 C740 1.574 . S
C732 C748 1.368 . S
H733 C741 0.950 . S
H734 C739 0.950 1_556 S
H735 C740 0.949 . S
H736 C742 0.950 . S
H737 C743 0.950 . S
H738 C744 0.949 . S
C739 H734 0.950 1_554 S
C739 C741 1.327 . S
C739 C745 1.429 . S
C740 C732 1.574 . S
C740 H735 0.949 . S
C740 C746 1.368 . S
C741 C725 1.349 . S
C741 H733 0.950 . S
C741 C739 1.327 . S
C742 C730 1.349 . S
C742 H736 0.950 . S
C742 C743 1.327 . S
C743 H737 0.950 . S
C743 C742 1.327 . S
C743 C747 1.429 . S
C744 C727 1.574 . S
C744 H738 0.949 . S
C744 C748 1.368 . S
C745 C726 1.429 . S
C745 C739 1.429 . S
C745 C746 1.523 1_554 S
C746 C727 1.368 . S
C746 C740 1.368 . S
C746 C745 1.523 1_556 S
C747 C731 1.429 . S
C747 C743 1.429 . S
C747 C748 1.523 . S
C748 C732 1.368 . S
C748 C744 1.368 . S
C748 C747 1.523 . S
H749 C724 0.950 . S
H750 C726 0.950 . S
H751 C727 0.949 . S
H752 C729 0.950 . S
H753 C731 0.950 . S
C754 C755 1.349 . S
C754 C756 1.327 . S
C754 H779 0.950 . S
C755 C754 1.349 . S
C755 C771 1.349 . S
C756 C754 1.327 . S
C756 C775 1.429 . S
C756 H780 0.950 . S
C757 C774 1.574 . S
C757 C776 1.368 . S
C757 H781 0.949 . S
H758 C762 0.949 . S
C759 C760 1.349 . S
C759 C761 1.327 . S
C759 H782 0.950 . S
C760 C759 1.349 . S
C760 C772 1.349 . S
C761 C759 1.327 . S
C761 C777 1.429 . S
C761 H783 0.950 . S
C762 H758 0.949 . S
C762 C770 1.574 . S
C762 C778 1.368 . S
H763 C771 0.950 . S
H764 C769 0.950 . S
H765 C770 0.949 . S
H766 C772 0.950 . S
H767 C773 0.950 . S
H768 C774 0.949 . S
C769 H764 0.950 . S
C769 C771 1.327 . S
C769 C775 1.429 . S
C770 C762 1.574 . S
C770 H765 0.949 . S
C770 C776 1.368 . S
C771 C755 1.349 . S
C771 H763 0.950 . S
C771 C769 1.327 . S
C772 C760 1.349 . S
C772 H766 0.950 . S
C772 C773 1.327 . S
C773 H767 0.950 . S
C773 C772 1.327 . S
C773 C777 1.429 . S
C774 C757 1.574 . S
C774 H768 0.949 . S
C774 C778 1.368 . S
C775 C756 1.429 . S
C775 C769 1.429 . S
C775 C776 1.523 . S
C776 C757 1.368 . S
C776 C770 1.368 . S
C776 C775 1.523 . S
C777 C761 1.429 . S
C777 C773 1.429 . S
C777 C778 1.523 . S
C778 C762 1.368 . S
C778 C774 1.368 . S
C778 C777 1.523 . S
H779 C754 0.950 . S
H780 C756 0.950 . S
H781 C757 0.949 . S
H782 C759 0.950 . S
H783 C761 0.950 . S
C784 C785 1.349 . S
C784 C786 1.327 1_554 S
C784 H809 0.950 . S
C785 C784 1.349 . S
C785 C801 1.349 . S
C786 C784 1.327 1_556 S
C786 C805 1.429 . S
C786 H810 0.950 . S
C787 C804 1.574 . S
C787 C806 1.368 . S
C787 H811 0.949 . S
H788 C792 0.949 . S
C789 C790 1.349 . S
C789 C791 1.327 . S
C789 H812 0.950 . S
C790 C789 1.349 . S
C790 C802 1.349 . S
C791 C789 1.327 . S
C791 C807 1.429 . S
C791 H813 0.950 . S
C792 H788 0.949 . S
C792 C800 1.574 . S
C792 C808 1.368 . S
H793 C801 0.950 . S
H794 C799 0.950 . S
H795 C800 0.949 . S
H796 C802 0.950 . S
H797 C803 0.950 . S
H798 C804 0.949 . S
C799 H794 0.950 . S
C799 C801 1.327 . S
C799 C805 1.429 1_554 S
C800 C792 1.574 . S
C800 H795 0.949 . S
C800 C806 1.368 . S
C801 C785 1.349 . S
C801 H793 0.950 . S
C801 C799 1.327 . S
C802 C790 1.349 . S
C802 H796 0.950 . S
C802 C803 1.327 . S
C803 H797 0.950 . S
C803 C802 1.327 . S
C803 C807 1.429 . S
C804 C787 1.574 . S
C804 H798 0.949 . S
C804 C808 1.368 . S
C805 C786 1.429 . S
C805 C799 1.429 1_556 S
C805 C806 1.523 . S
C806 C787 1.368 . S
C806 C800 1.368 . S
C806 C805 1.523 . S
C807 C791 1.429 . S
C807 C803 1.429 . S
C807 C808 1.523 . S
C808 C792 1.368 . S
C808 C804 1.368 . S
C808 C807 1.523 . S
H809 C784 0.950 . S
H810 C786 0.950 . S
H811 C787 0.949 . S
H812 C789 0.950 . S
H813 C791 0.950 . S
C814 C815 1.349 . S
C814 C816 1.327 . S
C814 H839 0.950 . S
C815 C814 1.349 . S
C815 C831 1.349 . S
C816 C814 1.327 . S
C816 C835 1.429 . S
C816 H840 0.950 . S
C817 C834 1.574 . S
C817 C836 1.368 . S
C817 H841 0.949 . S
H818 C822 0.949 . S
C819 C820 1.349 . S
C819 C821 1.327 . S
C819 H842 0.950 . S
C820 C819 1.349 . S
C820 C832 1.349 . S
C821 C819 1.327 . S
C821 C837 1.429 . S
C821 H843 0.950 . S
C822 H818 0.949 . S
C822 C830 1.574 . S
C822 C838 1.368 . S
H823 C831 0.950 . S
H824 C829 0.950 . S
H825 C830 0.949 . S
H826 C832 0.950 . S
H827 C833 0.950 . S
H828 C834 0.949 . S
C829 H824 0.950 . S
C829 C831 1.327 . S
C829 C835 1.429 . S
C830 C822 1.574 . S
C830 H825 0.949 . S
C830 C836 1.368 . S
C831 C815 1.349 . S
C831 H823 0.950 . S
C831 C829 1.327 . S
C832 C820 1.349 . S
C832 H826 0.950 . S
C832 C833 1.327 . S
C833 H827 0.950 . S
C833 C832 1.327 . S
C833 C837 1.429 . S
C834 C817 1.574 . S
C834 H828 0.949 . S
C834 C838 1.368 . S
C835 C816 1.429 . S
C835 C829 1.429 . S
C835 C836 1.523 . S
C836 C817 1.368 . S
C836 C830 1.368 . S
C836 C835 1.523 . S
C837 C821 1.429 . S
C837 C833 1.429 . S
C837 C838 1.523 . S
C838 C822 1.368 . S
C838 C834 1.368 . S
C838 C837 1.523 . S
H839 C814 0.950 . S
H840 C816 0.950 . S
H841 C817 0.949 . S
H842 C819 0.950 . S
H843 C821 0.950 . S
C844 C845 1.349 . S
C844 C846 1.327 . S
C844 H869 0.950 . S
C845 C844 1.349 . S
C845 C861 1.349 . S
C846 C844 1.327 . S
C846 C865 1.429 1_556 S
C846 H870 0.950 . S
C847 C864 1.574 . S
C847 C866 1.368 . S
C847 H871 0.949 . S
H848 C852 0.949 . S
C849 C850 1.349 . S
C849 C851 1.327 . S
C849 H872 0.950 . S
C850 C849 1.349 . S
C850 C862 1.349 . S
C851 C849 1.327 . S
C851 C867 1.429 . S
C851 H873 0.950 . S
C852 H848 0.949 . S
C852 C860 1.574 . S
C852 C868 1.368 . S
H853 C861 0.950 . S
H854 C859 0.950 . S
H855 C860 0.949 . S
H856 C862 0.950 . S
H857 C863 0.950 . S
H858 C864 0.949 . S
C859 H854 0.950 . S
C859 C861 1.327 1_554 S
C859 C865 1.429 . S
C860 C852 1.574 . S
C860 H855 0.949 . S
C860 C866 1.368 . S
C861 C845 1.349 . S
C861 H853 0.950 . S
C861 C859 1.327 1_556 S
C862 C850 1.349 . S
C862 H856 0.950 . S
C862 C863 1.327 . S
C863 H857 0.950 . S
C863 C862 1.327 . S
C863 C867 1.429 . S
C864 C847 1.574 . S
C864 H858 0.949 . S
C864 C868 1.368 . S
C865 C846 1.429 1_554 S
C865 C859 1.429 . S
C865 C866 1.523 . S
C866 C847 1.368 . S
C866 C860 1.368 . S
C866 C865 1.523 . S
C867 C851 1.429 . S
C867 C863 1.429 . S
C867 C868 1.523 . S
C868 C852 1.368 . S
C868 C864 1.368 . S
C868 C867 1.523 . S
H869 C844 0.950 . S
H870 C846 0.950 . S
H871 C847 0.949 . S
H872 C849 0.950 . S
H873 C851 0.950 . S
C874 C875 1.349 . S
C874 C876 1.327 . S
C874 H899 0.950 . S
C875 C874 1.349 . S
C875 C891 1.349 . S
C876 C874 1.327 . S
C876 C895 1.429 . S
C876 H900 0.950 . S
C877 C894 1.574 . S
C877 C896 1.368 . S
C877 H901 0.949 . S
H878 C882 0.949 . S
C879 C880 1.349 . S
C879 C881 1.327 . S
C879 H902 0.950 . S
C880 C879 1.349 . S
C880 C892 1.349 . S
C881 C879 1.327 . S
C881 C897 1.429 . S
C881 H903 0.950 . S
C882 H878 0.949 . S
C882 C890 1.574 . S
C882 C898 1.368 . S
H883 C891 0.950 . S
H884 C889 0.950 . S
H885 C890 0.949 . S
H886 C892 0.950 . S
H887 C893 0.950 . S
H888 C894 0.949 . S
C889 H884 0.950 . S
C889 C891 1.327 . S
C889 C895 1.429 . S
C890 C882 1.574 . S
C890 H885 0.949 . S
C890 C896 1.368 . S
C891 C875 1.349 . S
C891 H883 0.950 . S
C891 C889 1.327 . S
C892 C880 1.349 . S
C892 H886 0.950 . S
C892 C893 1.327 . S
C893 H887 0.950 . S
C893 C892 1.327 . S
C893 C897 1.429 . S
C894 C877 1.574 . S
C894 H888 0.949 . S
C894 C898 1.368 . S
C895 C876 1.429 . S
C895 C889 1.429 . S
C895 C896 1.523 . S
C896 C877 1.368 . S
C896 C890 1.368 . S
C896 C895 1.523 . S
C897 C881 1.429 . S
C897 C893 1.429 . S
C897 C898 1.523 . S
C898 C882 1.368 . S
C898 C894 1.368 . S
C898 C897 1.523 . S
H899 C874 0.950 . S
H900 C876 0.950 . S
H901 C877 0.949 . S
H902 C879 0.950 . S
H903 C881 0.950 . S
C904 C905 1.349 . S
C904 C906 1.327 . S
C904 H929 0.950 . S
C905 C904 1.349 . S
C905 C921 1.349 . S
C906 C904 1.327 . S
C906 C925 1.429 . S
C906 H930 0.950 . S
C907 C924 1.574 . S
C907 C926 1.368 . S
C907 H931 0.949 . S
H908 C912 0.949 . S
C909 C910 1.349 . S
C909 C911 1.327 . S
C909 H932 0.950 . S
C910 C909 1.349 . S
C910 C922 1.349 . S
C911 C909 1.327 . S
C911 C927 1.429 . S
C911 H933 0.950 . S
C912 H908 0.949 . S
C912 C920 1.574 . S
C912 C928 1.368 . S
H913 C921 0.950 . S
H914 C919 0.950 . S
H915 C920 0.949 . S
H916 C922 0.950 . S
H917 C923 0.950 . S
H918 C924 0.949 . S
C919 H914 0.950 . S
C919 C921 1.327 . S
C919 C925 1.429 . S
C920 C912 1.574 . S
C920 H915 0.949 . S
C920 C926 1.368 . S
C921 C905 1.349 . S
C921 H913 0.950 . S
C921 C919 1.327 . S
C922 C910 1.349 . S
C922 H916 0.950 . S
C922 C923 1.327 . S
C923 H917 0.950 . S
C923 C922 1.327 . S
C923 C927 1.429 . S
C924 C907 1.574 . S
C924 H918 0.949 . S
C924 C928 1.368 . S
C925 C906 1.429 . S
C925 C919 1.429 . S
C925 C926 1.523 . S
C926 C907 1.368 . S
C926 C920 1.368 . S
C926 C925 1.523 . S
C927 C911 1.429 . S
C927 C923 1.429 . S
C927 C928 1.523 . S
C928 C912 1.368 . S
C928 C924 1.368 . S
C928 C927 1.523 . S
H929 C904 0.950 . S
H930 C906 0.950 . S
H931 C907 0.949 . S
H932 C909 0.950 . S
H933 C911 0.950 . S
C934 C935 1.349 . S
C934 C936 1.327 . S
C934 H959 0.950 . S
C935 C934 1.349 . S
C935 C951 1.349 . S
C936 C934 1.327 . S
C936 C955 1.429 . S
C936 H960 0.950 . S
C937 C954 1.574 . S
C937 C956 1.368 . S
C937 H961 0.949 . S
H938 C942 0.949 . S
C939 C940 1.349 . S
C939 C941 1.327 . S
C939 H962 0.950 . S
C940 C939 1.349 . S
C940 C952 1.349 . S
C941 C939 1.327 . S
C941 C957 1.429 . S
C941 H963 0.950 . S
C942 H938 0.949 . S
C942 C950 1.574 . S
C942 C958 1.368 . S
H943 C951 0.950 . S
H944 C949 0.950 . S
H945 C950 0.949 . S
H946 C952 0.950 . S
H947 C953 0.950 . S
H948 C954 0.949 . S
C949 H944 0.950 . S
C949 C951 1.327 . S
C949 C955 1.429 . S
C950 C942 1.574 . S
C950 H945 0.949 . S
C950 C956 1.368 . S
C951 C935 1.349 . S
C951 H943 0.950 . S
C951 C949 1.327 . S
C952 C940 1.349 . S
C952 H946 0.950 . S
C952 C953 1.327 . S
C953 H947 0.950 . S
C953 C952 1.327 . S
C953 C957 1.429 . S
C954 C937 1.574 . S
C954 H948 0.949 . S
C954 C958 1.368 . S
C955 C936 1.429 . S
C955 C949 1.429 . S
C955 C956 1.523 . S
C956 C937 1.368 . S
C956 C950 1.368 . S
C956 C955 1.523 . S
C957 C941 1.429 . S
C957 C953 1.429 . S
C957 C958 1.523 . S
C958 C942 1.368 . S
C958 C954 1.368 . S
C958 C957 1.523 . S
H959 C934 0.950 . S
H960 C936 0.950 . S
H961 C937 0.949 . S
H962 C939 0.950 . S
H963 C941 0.950 . S
C964 C965 1.349 . S
C964 C966 1.327 . S
C964 H989 0.950 . S
C965 C964 1.349 . S
C965 C981 1.349 . S
C966 C964 1.327 . S
C966 C985 1.429 . S
C966 H990 0.950 . S
C967 C984 1.574 . S
C967 C986 1.368 . S
C967 H991 0.949 . S
H968 C972 0.949 . S
C969 C970 1.349 . S
C969 C971 1.327 . S
C969 H992 0.950 . S
C970 C969 1.349 . S
C970 C982 1.349 . S
C971 C969 1.327 . S
C971 C987 1.429 . S
C971 H993 0.950 . S
C972 H968 0.949 . S
C972 C980 1.574 . S
C972 C988 1.368 . S
H973 C981 0.950 . S
H974 C979 0.950 . S
H975 C980 0.949 . S
H976 C982 0.950 . S
H977 C983 0.950 . S
H978 C984 0.949 . S
C979 H974 0.950 . S
C979 C981 1.327 . S
C979 C985 1.429 . S
C980 C972 1.574 . S
C980 H975 0.949 . S
C980 C986 1.368 . S
C981 C965 1.349 . S
C981 H973 0.950 . S
C981 C979 1.327 . S
C982 C970 1.349 . S
C982 H976 0.950 . S
C982 C983 1.327 . S
C983 H977 0.950 . S
C983 C982 1.327 . S
C983 C987 1.429 . S
C984 C967 1.574 . S
C984 H978 0.949 . S
C984 C988 1.368 . S
C985 C966 1.429 . S
C985 C979 1.429 . S
C985 C986 1.523 . S
C986 C967 1.368 . S
C986 C980 1.368 . S
C986 C985 1.523 . S
C987 C971 1.429 . S
C987 C983 1.429 . S
C987 C988 1.523 . S
C988 C972 1.368 . S
C988 C984 1.368 . S
C988 C987 1.523 . S
H989 C964 0.950 . S
H990 C966 0.950 . S
H991 C967 0.949 . S
H992 C969 0.950 . S
H993 C971 0.950 . S
C994 C995 1.349 . S
C994 C996 1.327 . S
C994 H1019 0.950 . S
C995 C994 1.349 . S
C995 C1011 1.349 . S
C996 C994 1.327 . S
C996 C1015 1.429 . S
C996 H1020 0.950 . S
C997 C1014 1.574 . S
C997 C1016 1.368 . S
C997 H1021 0.949 . S
H998 C1002 0.949 . S
C999 C1000 1.349 . S
C999 C1001 1.327 . S
C999 H1022 0.950 . S
C1000 C999 1.349 . S
C1000 C1012 1.349 . S
C1001 C999 1.327 . S
C1001 C1017 1.429 . S
C1001 H1023 0.950 . S
C1002 H998 0.949 . S
C1002 C1010 1.574 . S
C1002 C1018 1.368 . S
H1003 C1011 0.950 . S
H1004 C1009 0.950 . S
H1005 C1010 0.949 . S
H1006 C1012 0.950 1_455 S
H1007 C1013 0.950 . S
H1008 C1014 0.949 . S
C1009 H1004 0.950 . S
C1009 C1011 1.327 . S
C1009 C1015 1.429 . S
C1010 C1002 1.574 . S
C1010 H1005 0.949 . S
C1010 C1016 1.368 . S
C1011 C995 1.349 . S
C1011 H1003 0.950 . S
C1011 C1009 1.327 . S
C1012 C1000 1.349 . S
C1012 H1006 0.950 1_655 S
C1012 C1013 1.327 . S
C1013 H1007 0.950 . S
C1013 C1012 1.327 . S
C1013 C1017 1.429 . S
C1014 C997 1.574 . S
C1014 H1008 0.949 . S
C1014 C1018 1.368 . S
C1015 C996 1.429 . S
C1015 C1009 1.429 . S
C1015 C1016 1.523 . S
C1016 C997 1.368 . S
C1016 C1010 1.368 . S
C1016 C1015 1.523 . S
C1017 C1001 1.429 . S
C1017 C1013 1.429 . S
C1017 C1018 1.523 . S
C1018 C1002 1.368 . S
C1018 C1014 1.368 . S
C1018 C1017 1.523 . S
H1019 C994 0.950 . S
H1020 C996 0.950 . S
H1021 C997 0.949 . S
H1022 C999 0.950 . S
H1023 C1001 0.950 . S
C1024 C1025 1.349 . S
C1024 C1026 1.327 . S
C1024 H1049 0.950 . S
C1025 C1024 1.349 . S
C1025 C1041 1.349 . S
C1026 C1024 1.327 . S
C1026 C1045 1.429 . S
C1026 H1050 0.950 . S
C1027 C1044 1.574 . S
C1027 C1046 1.368 . S
C1027 H1051 0.949 . S
H1028 C1032 0.949 . S
C1029 C1030 1.349 . S
C1029 C1031 1.327 . S
C1029 H1052 0.950 . S
C1030 C1029 1.349 . S
C1030 C1042 1.349 . S
C1031 C1029 1.327 . S
C1031 C1047 1.429 . S
C1031 H1053 0.950 . S
C1032 H1028 0.949 . S
C1032 C1040 1.574 . S
C1032 C1048 1.368 . S
H1033 C1041 0.950 . S
H1034 C1039 0.950 . S
H1035 C1040 0.949 . S
H1036 C1042 0.950 . S
H1037 C1043 0.950 . S
H1038 C1044 0.949 . S
C1039 H1034 0.950 . S
C1039 C1041 1.327 . S
C1039 C1045 1.429 . S
C1040 C1032 1.574 . S
C1040 H1035 0.949 . S
C1040 C1046 1.368 . S
C1041 C1025 1.349 . S
C1041 H1033 0.950 . S
C1041 C1039 1.327 . S
C1042 C1030 1.349 . S
C1042 H1036 0.950 . S
C1042 C1043 1.327 . S
C1043 H1037 0.950 . S
C1043 C1042 1.327 . S
C1043 C1047 1.429 . S
C1044 C1027 1.574 . S
C1044 H1038 0.949 . S
C1044 C1048 1.368 . S
C1045 C1026 1.429 . S
C1045 C1039 1.429 . S
C1045 C1046 1.523 . S
C1046 C1027 1.368 . S
C1046 C1040 1.368 . S
C1046 C1045 1.523 . S
C1047 C1031 1.429 . S
C1047 C1043 1.429 . S
C1047 C1048 1.523 . S
C1048 C1032 1.368 . S
C1048 C1044 1.368 . S
C1048 C1047 1.523 . S
H1049 C1024 0.950 . S
H1050 C1026 0.950 . S
H1051 C1027 0.949 . S
H1052 C1029 0.950 . S
H1053 C1031 0.950 . S
C1054 C1055 1.349 . S
C1054 C1056 1.327 . S
C1054 H1079 0.950 . S
C1055 C1054 1.349 . S
C1055 C1071 1.349 . S
C1056 C1054 1.327 . S
C1056 C1075 1.429 . S
C1056 H1080 0.950 . S
C1057 C1074 1.574 . S
C1057 C1076 1.368 . S
C1057 H1081 0.949 . S
H1058 C1062 0.949 . S
C1059 C1060 1.349 . S
C1059 C1061 1.327 . S
C1059 H1082 0.950 . S
C1060 C1059 1.349 . S
C1060 C1072 1.349 . S
C1061 C1059 1.327 . S
C1061 C1077 1.429 . S
C1061 H1083 0.950 . S
C1062 H1058 0.949 . S
C1062 C1070 1.574 . S
C1062 C1078 1.368 . S
H1063 C1071 0.950 . S
H1064 C1069 0.950 . S
H1065 C1070 0.949 . S
H1066 C1072 0.950 . S
H1067 C1073 0.950 . S
H1068 C1074 0.949 . S
C1069 H1064 0.950 . S
C1069 C1071 1.327 . S
C1069 C1075 1.429 . S
C1070 C1062 1.574 . S
C1070 H1065 0.949 . S
C1070 C1076 1.368 . S
C1071 C1055 1.349 . S
C1071 H1063 0.950 . S
C1071 C1069 1.327 . S
C1072 C1060 1.349 . S
C1072 H1066 0.950 . S
C1072 C1073 1.327 . S
C1073 H1067 0.950 . S
C1073 C1072 1.327 . S
C1073 C1077 1.429 . S
C1074 C1057 1.574 . S
C1074 H1068 0.949 . S
C1074 C1078 1.368 . S
C1075 C1056 1.429 . S
C1075 C1069 1.429 . S
C1075 C1076 1.523 . S
C1076 C1057 1.368 . S
C1076 C1070 1.368 . S
C1076 C1075 1.523 . S
C1077 C1061 1.429 . S
C1077 C1073 1.429 . S
C1077 C1078 1.523 . S
C1078 C1062 1.368 . S
C1078 C1074 1.368 . S
C1078 C1077 1.523 . S
H1079 C1054 0.950 . S
H1080 C1056 0.950 . S
H1081 C1057 0.949 . S
H1082 C1059 0.950 . S
H1083 C1061 0.950 . S
C1084 C1085 1.349 . S
C1084 C1086 1.327 . S
C1084 H1109 0.950 . S
C1085 C1084 1.349 . S
C1085 C1101 1.349 . S
C1086 C1084 1.327 . S
C1086 C1105 1.429 . S
C1086 H1110 0.950 . S
C1087 C1104 1.574 . S
C1087 C1106 1.368 . S
C1087 H1111 0.949 . S
H1088 C1092 0.949 . S
C1089 C1090 1.349 . S
C1089 C1091 1.327 . S
C1089 H1112 0.950 . S
C1090 C1089 1.349 . S
C1090 C1102 1.349 . S
C1091 C1089 1.327 . S
C1091 C1107 1.429 . S
C1091 H1113 0.950 . S
C1092 H1088 0.949 . S
C1092 C1100 1.574 . S
C1092 C1108 1.368 . S
H1093 C1101 0.950 . S
H1094 C1099 0.950 . S
H1095 C1100 0.949 . S
H1096 C1102 0.950 . S
H1097 C1103 0.950 . S
H1098 C1104 0.949 . S
C1099 H1094 0.950 . S
C1099 C1101 1.327 . S
C1099 C1105 1.429 . S
C1100 C1092 1.574 . S
C1100 H1095 0.949 . S
C1100 C1106 1.368 . S
C1101 C1085 1.349 . S
C1101 H1093 0.950 . S
C1101 C1099 1.327 . S
C1102 C1090 1.349 . S
C1102 H1096 0.950 . S
C1102 C1103 1.327 . S
C1103 H1097 0.950 . S
C1103 C1102 1.327 . S
C1103 C1107 1.429 . S
C1104 C1087 1.574 . S
C1104 H1098 0.949 . S
C1104 C1108 1.368 . S
C1105 C1086 1.429 . S
C1105 C1099 1.429 . S
C1105 C1106 1.523 . S
C1106 C1087 1.368 . S
C1106 C1100 1.368 . S
C1106 C1105 1.523 . S
C1107 C1091 1.429 . S
C1107 C1103 1.429 . S
C1107 C1108 1.523 . S
C1108 C1092 1.368 . S
C1108 C1104 1.368 . S
C1108 C1107 1.523 . S
H1109 C1084 0.950 . S
H1110 C1086 0.950 . S
H1111 C1087 0.949 . S
H1112 C1089 0.950 . S
H1113 C1091 0.950 . S
C1114 C1115 1.349 . S
C1114 C1116 1.327 . S
C1114 H1139 0.950 . S
C1115 C1114 1.349 . S
C1115 C1131 1.349 . S
C1116 C1114 1.327 . S
C1116 C1135 1.429 . S
C1116 H1140 0.950 . S
C1117 C1134 1.574 . S
C1117 C1136 1.368 . S
C1117 H1141 0.949 . S
H1118 C1122 0.949 . S
C1119 C1120 1.349 . S
C1119 C1121 1.327 . S
C1119 H1142 0.950 . S
C1120 C1119 1.349 . S
C1120 C1132 1.349 . S
C1121 C1119 1.327 . S
C1121 C1137 1.429 . S
C1121 H1143 0.950 . S
C1122 H1118 0.949 . S
C1122 C1130 1.574 . S
C1122 C1138 1.368 . S
H1123 C1131 0.950 . S
H1124 C1129 0.950 . S
H1125 C1130 0.949 . S
H1126 C1132 0.950 . S
H1127 C1133 0.950 . S
H1128 C1134 0.949 . S
C1129 H1124 0.950 . S
C1129 C1131 1.327 . S
C1129 C1135 1.429 . S
C1130 C1122 1.574 . S
C1130 H1125 0.949 . S
C1130 C1136 1.368 . S
C1131 C1115 1.349 . S
C1131 H1123 0.950 . S
C1131 C1129 1.327 . S
C1132 C1120 1.349 . S
C1132 H1126 0.950 . S
C1132 C1133 1.327 . S
C1133 H1127 0.950 . S
C1133 C1132 1.327 . S
C1133 C1137 1.429 . S
C1134 C1117 1.574 . S
C1134 H1128 0.949 . S
C1134 C1138 1.368 . S
C1135 C1116 1.429 . S
C1135 C1129 1.429 . S
C1135 C1136 1.523 . S
C1136 C1117 1.368 . S
C1136 C1130 1.368 . S
C1136 C1135 1.523 . S
C1137 C1121 1.429 . S
C1137 C1133 1.429 . S
C1137 C1138 1.523 . S
C1138 C1122 1.368 . S
C1138 C1134 1.368 . S
C1138 C1137 1.523 . S
H1139 C1114 0.950 . S
H1140 C1116 0.950 . S
H1141 C1117 0.949 . S
H1142 C1119 0.950 . S
H1143 C1121 0.950 . S
C425 C73 1.618 . S
C430 C162 1.652 . S
C460 C246 1.772 . S
C455 C84 1.757 . S
C490 C239 1.653 . S
C485 C51 1.607 . S
C515 C62 1.749 . S
C520 C155 1.784 . S
C550 C319 1.656 . S
C545 C29 1.602 . S
C580 C403 1.580 . S
C575 C38 1.459 . S
C605 C7 1.587 . S
C610 C396 1.662 . S
C635 C16 1.463 . S
C640 C312 1.581 . S
C670 C146 1.515 . S
C665 C18 1.665 . S
C700 C230 1.544 . S
C695 C5 1.454 . S
C730 C241 1.487 . S
C725 C40 1.676 . S
C760 C157 1.514 . S
C755 C27 1.470 . S
C790 C325 1.342 . S
C785 C60 1.355 . S
C815 C49 1.367 . S
C820 C409 1.372 . S
C850 C398 1.337 . S
C845 C82 1.363 . S
C875 C71 1.373 . S
C880 C314 1.355 . S
C910 C144 1.697 . S
C905 C8 1.676 . S
C940 C228 1.567 . S
C935 C19 1.564 . S
C965 C30 1.678 . S
C970 C235 1.677 . S
C1000 C151 1.540 . S
C995 C41 1.556 . S
C1030 C323 1.418 . S
C1025 C52 1.416 . S
C1055 C63 1.571 . S
C1060 C407 1.569 . S
C1085 C74 1.411 . S
C1090 C414 1.388 . S
C1115 C85 1.564 . S
C1120 C330 1.536 . S
