# Generated by pormake.
# Topology tsx, (6,3)-cn, num edge types: 1
# Building blocks:
#     Node 0, Type 0, BuildingBlock: FUNLAD_clean_sbu_0, # of connection points: 6
#     Node 1, Type 0, BuildingBlock: FUNLAD_clean_sbu_0, # of connection points: 6
#     Node 2, Type 1, BuildingBlock: WUSLED_clean_sbu_0, # of connection points: 3
#     Node 3, Type 1, BuildingBlock: WUSLED_clean_sbu_0, # of connection points: 3
#     Node 4, Type 1, BuildingBlock: WUSLED_clean_sbu_0, # of connection points: 3
#     Node 5, Type 1, BuildingBlock: WUSLED_clean_sbu_0, # of connection points: 3
#     Edge 6, Type (0, 1), BuildingBlock: CIFDUS_clean_linker_0, # of connection points: 2
#     Edge 7, Type (0, 1), BuildingBlock: CIFDUS_clean_linker_0, # of connection points: 2
#     Edge 8, Type (0, 1), BuildingBlock: CIFDUS_clean_linker_0, # of connection points: 2
#     Edge 9, Type (0, 1), BuildingBlock: CIFDUS_clean_linker_0, # of connection points: 2
#     Edge 10, Type (0, 1), BuildingBlock: CIFDUS_clean_linker_0, # of connection points: 2
#     Edge 11, Type (0, 1), BuildingBlock: CIFDUS_clean_linker_0, # of connection points: 2
#     Edge 12, Type (0, 1), BuildingBlock: CIFDUS_clean_linker_0, # of connection points: 2
#     Edge 13, Type (0, 1), BuildingBlock: CIFDUS_clean_linker_0, # of connection points: 2
#     Edge 14, Type (0, 1), BuildingBlock: CIFDUS_clean_linker_0, # of connection points: 2
#     Edge 15, Type (0, 1), BuildingBlock: CIFDUS_clean_linker_0, # of connection points: 2
#     Edge 16, Type (0, 1), BuildingBlock: CIFDUS_clean_linker_0, # of connection points: 2
#     Edge 17, Type (0, 1), BuildingBlock: CIFDUS_clean_linker_0, # of connection points: 2
# Relax obj value: 0.157
# Max RMSD: 0.151
# Mean RMSD: 0.083
data_MOF--net-tsx--node1-FUNLAD_clean_sbu_0--node2-WUSLED_clean_sbu_0--edge1-CIFDUS_clean_linker_0
_symmetry_space_group_name_H-M    P1
_symmetry_Int_Tables_number       1
_symmetry_cell_setting            triclinic
loop_
_symmetry_equiv_pos_as_xyz
'x, y, z'
_cell_length_a     22.48075
_cell_length_b     24.573307
_cell_length_c     47.367761
_cell_angle_alpha  91.33089
_cell_angle_beta   91.700507
_cell_angle_gamma 90.223011
loop_
_atom_site_label
_atom_site_type_symbol
_atom_site_fract_x
_atom_site_fract_y
_atom_site_fract_z
_atom_type_partial_charge
C0 C 0.93107 0.93358 0.01398 0.0
N1 N 0.03164 0.01996 0.07588 0.0
C2 C 0.98185 0.02325 0.09148 0.0
C3 C 0.98623 0.02139 0.12096 0.0
C4 C 0.04235 0.01573 0.13439 0.0
C5 C 0.09302 0.01425 0.11777 0.0
C6 C 0.08664 0.01648 0.08846 0.0
Zn7 Zn 0.02534 0.01472 0.03275 0.0
C8 C 0.10478 0.92626 1.00964 0.0
N9 N 0.01372 0.99805 0.943 0.0
C10 C 0.9603 0.99655 0.92873 0.0
C11 C 0.06577 0.9965 0.92907 0.0
C12 C 0.06548 0.99344 0.89966 0.0
C13 C 0.0111 0.99187 0.88431 0.0
C14 C 0.95795 0.99346 0.89921 0.0
Zn15 Zn 0.01811 1.00396 0.98606 0.0
O16 O 0.95562 0.95791 0.03523 0.0
C17 C 0.93679 0.09047 1.00735 0.0
O18 O 0.94898 0.94322 0.98932 0.0
H19 H 0.10776 0.99793 0.94081 0.0
H20 H 0.93854 0.02579 0.08103 0.0
H21 H 0.91948 0.99783 0.94024 0.0
O22 O 0.96053 0.07964 0.03133 0.0
O23 O 0.95355 0.06478 0.98545 0.0
H24 H 0.12566 0.01409 0.07569 0.0
O25 O 0.08765 0.06522 0.98388 0.0
O26 O 0.09383 0.07212 0.03006 0.0
O27 O 0.08127 0.94262 0.98676 0.0
O28 O 0.09027 0.94895 0.03289 0.0
C29 C 0.11148 0.08678 1.0062 0.0
H30 H 0.94604 0.0223 0.13302 0.0
H31 H 0.13717 0.01072 0.12732 0.0
H32 H 0.1075 0.99308 0.88905 0.0
H33 H 0.91504 0.99173 0.88822 0.0
C34 C 0.41604 0.43665 0.52339 0.0
N35 N 0.51699 0.52292 0.58523 0.0
C36 C 0.46492 0.53207 0.59846 0.0
C37 C 0.46436 0.54043 0.62767 0.0
C38 C 0.5178 0.5389 0.6437 0.0
C39 C 0.57087 0.52796 0.62971 0.0
C40 C 0.56951 0.52039 0.60024 0.0
Zn41 Zn 0.51231 0.51482 0.54177 0.0
C42 C 0.59028 0.42939 0.51853 0.0
N43 N 0.49466 0.50079 0.45144 0.0
C44 C 0.44024 0.49751 0.43813 0.0
C45 C 0.54546 0.49906 0.43649 0.0
C46 C 0.54272 0.49374 0.40703 0.0
C47 C 0.48717 0.48982 0.39274 0.0
C48 C 0.43546 0.49185 0.40871 0.0
Zn49 Zn 0.50069 0.50821 0.49475 0.0
O50 O 0.44179 0.45948 0.54477 0.0
C51 C 0.42406 0.59508 0.51737 0.0
O52 O 0.43261 0.4479 0.49874 0.0
H53 H 0.58833 0.50151 0.44744 0.0
H54 H 0.42349 0.53338 0.58632 0.0
H55 H 0.40039 0.49922 0.45036 0.0
O56 O 0.45023 0.58061 0.54014 0.0
O57 O 0.43585 0.57045 0.49432 0.0
H58 H 0.61045 0.51311 0.58936 0.0
O59 O 0.5684 0.56816 0.49181 0.0
O60 O 0.583 0.57026 0.53791 0.0
O61 O 0.56633 0.44704 0.49588 0.0
O62 O 0.5746 0.44911 0.54225 0.0
C63 C 0.59681 0.58646 0.51365 0.0
H64 H 0.42234 0.54794 0.63765 0.0
H65 H 0.61305 0.52664 0.64133 0.0
H66 H 0.58371 0.49171 0.39562 0.0
H67 H 0.3917 0.48957 0.39854 0.0
C68 C 0.93284 0.14699 0.45866 0.0
C69 C 0.88014 0.13179 0.47183 0.0
C70 C 0.85474 0.22712 0.47951 0.0
C71 C 0.84154 0.17161 0.48232 0.0
C72 C 0.90959 0.24201 0.46843 0.0
C73 C 0.94816 0.20238 0.4581 0.0
U74 U 0.03648 0.02311 0.44057 0.0
O75 O 0.02188 0.96593 0.47461 0.0
O76 O 0.10157 0.01784 0.4762 0.0
C77 C 0.07486 0.97512 0.48634 0.0
C78 C 0.96605 0.10805 0.44082 0.0
C79 C 0.11279 0.92662 0.48967 0.0
C80 C 0.19666 0.88138 0.51263 0.0
C81 C 0.15721 0.92537 0.51108 0.0
C82 C 0.14652 0.83874 0.47188 0.0
C83 C 0.19232 0.83786 0.49276 0.0
C84 C 0.10754 0.88269 0.47024 0.0
C85 C 0.06081 0.99511 0.36172 0.0
C86 C 0.10164 1.00159 0.31504 0.0
C87 C 0.99656 0.01746 0.32145 0.0
C88 C 0.0044 1.00845 0.35039 0.0
C89 C 0.04503 0.0136 0.30338 0.0
C90 C 0.10932 0.99224 0.34387 0.0
C91 C 0.07026 0.98304 0.39184 0.0
O92 O 0.94649 0.05755 0.4387 0.0
O93 O 0.02446 0.11208 0.44138 0.0
O94 O 0.02395 0.96467 0.40507 0.0
O95 O 0.10167 0.01919 0.40679 0.0
H96 H 0.86684 0.08945 0.4725 0.0
H97 H 0.79944 0.15904 0.49067 0.0
H98 H 0.92111 0.28453 0.46627 0.0
H99 H 0.9882 0.21537 0.44794 0.0
H100 H 0.23167 0.88233 0.52884 0.0
H101 H 0.16228 0.95901 0.52616 0.0
H102 H 0.141 0.80556 0.45656 0.0
H103 H 0.07391 0.88268 0.45337 0.0
H104 H 0.14018 0.99942 0.30189 0.0
H105 H 0.95231 0.02622 0.31316 0.0
H106 H 0.96626 0.01124 0.36379 0.0
H107 H 0.15327 0.9824 0.35224 0.0
C108 C 0.92983 0.90049 0.53171 0.0
C109 C 0.89718 0.88659 0.55526 0.0
C110 C 0.85591 0.80771 0.52975 0.0
C111 C 0.86047 0.84088 0.55427 0.0
C112 C 0.88862 0.82173 0.50604 0.0
C113 C 0.92562 0.86786 0.50707 0.0
U114 U 1.00024 1.00334 0.57987 0.0
O115 O 0.08945 0.04022 0.58371 0.0
O116 O 0.01049 0.09218 0.57857 0.0
C117 C 0.06893 0.08972 0.57999 0.0
C118 C 0.96912 0.94824 0.53393 0.0
C119 C 0.10107 0.1252 0.56077 0.0
C120 C 0.18847 0.14532 0.53361 0.0
C121 C 0.15247 0.1077 0.54699 0.0
C122 C 0.12013 0.21741 0.54592 0.0
C123 C 0.17379 0.20087 0.53401 0.0
C124 C 0.08429 0.18001 0.55923 0.0
C125 C 0.96141 0.98454 0.65774 0.0
C126 C 0.01814 1.00444 0.70126 0.0
C127 C 0.91082 0.99546 0.70211 0.0
C128 C 0.90884 0.98555 0.67295 0.0
C129 C 0.96558 1.00409 0.71663 0.0
C130 C 0.01608 0.99497 0.67203 0.0
C131 C 0.95808 0.96953 0.62746 0.0
O132 O 0.94253 0.99346 0.5418 0.0
O133 O 0.0196 0.94001 0.54787 0.0
O134 O 0.00697 0.95032 0.61646 0.0
O135 O 0.92931 1.00347 0.611 0.0
H136 H 0.90008 0.91124 0.57452 0.0
H137 H 0.83507 0.83191 0.57269 0.0
H138 H 0.88618 0.79671 0.48692 0.0
H139 H 0.95101 0.87778 0.4888 0.0
H140 H 0.22972 0.13154 0.52467 0.0
H141 H 0.16656 0.06566 0.54777 0.0
H142 H 0.10741 0.25991 0.54621 0.0
H143 H 0.045 0.19461 0.56968 0.0
H144 H 0.06087 0.0116 0.71189 0.0
H145 H 0.86969 0.99447 0.71344 0.0
H146 H 0.86625 0.97744 0.66233 0.0
H147 H 0.0573 0.99481 0.66075 0.0
C148 C 0.45259 0.62593 1.00376 0.0
C149 C 0.43332 0.66032 0.98218 0.0
C150 C 0.36771 0.70767 0.01456 0.0
C151 C 0.39156 0.70091 0.98754 0.0
C152 C 0.38811 0.6737 0.0363 0.0
C153 C 0.43019 0.6331 0.03091 0.0
U154 U 0.53386 0.53879 0.9505 0.0
O155 O 0.62541 0.50736 0.95076 0.0
O156 O 0.5496 0.45057 0.94846 0.0
C157 C 0.60773 0.45626 0.95095 0.0
C158 C 0.49421 0.58145 0.99766 0.0
C159 C 0.63966 0.41919 0.97044 0.0
C160 C 0.73124 0.39386 0.99565 0.0
C161 C 0.69603 0.43311 0.98227 0.0
C162 C 0.65315 0.32694 0.9871 0.0
C163 C 0.71104 0.33984 0.9972 0.0
C164 C 0.61795 0.36609 0.97382 0.0
C165 C 0.50692 0.56725 0.87163 0.0
C166 C 0.56979 0.54049 0.83273 0.0
C167 C 0.46761 0.56692 0.82327 0.0
C168 C 0.45988 0.57572 0.85219 0.0
C169 C 0.52282 0.54969 0.81307 0.0
C170 C 0.56187 0.54907 0.86174 0.0
C171 C 0.49755 0.57836 0.90193 0.0
O172 O 0.46999 0.53848 0.98483 0.0
O173 O 0.54454 0.59631 0.98659 0.0
O174 O 0.54341 0.598 0.91682 0.0
O175 O 0.46802 0.54089 0.91513 0.0
H176 H 0.45017 0.6554 0.96108 0.0
H177 H 0.3778 0.72695 0.97043 0.0
H178 H 0.37041 0.6775 0.05727 0.0
H179 H 0.44452 0.60677 0.04781 0.0
H180 H 0.77578 0.40496 1.00307 0.0
H181 H 0.71438 0.4735 0.97989 0.0
H182 H 0.6361 0.28579 0.98829 0.0
H183 H 0.57493 0.35386 0.96485 0.0
H184 H 0.61301 0.52762 0.82569 0.0
H185 H 0.43004 0.5733 0.80891 0.0
H186 H 0.41701 0.58937 0.8594 0.0
H187 H 0.59881 0.54198 0.87639 0.0
C188 C 0.45181 0.39919 0.03432 0.0
C189 C 0.44994 0.35798 0.05431 0.0
C190 C 0.36482 0.31567 0.02931 0.0
C191 C 0.40735 0.31658 0.05172 0.0
C192 C 0.36797 0.35596 1.00872 0.0
C193 C 0.41108 0.39746 1.01126 0.0
U194 U 0.52929 0.49337 0.08667 0.0
O195 O 0.62054 0.52597 0.09077 0.0
O196 O 0.54456 0.58196 0.08828 0.0
C197 C 0.6027 0.57684 0.09036 0.0
C198 C 0.49238 0.44618 0.03911 0.0
C199 C 0.63856 0.61517 0.07452 0.0
C200 C 0.67773 0.65067 0.0312 0.0
C201 C 0.64271 0.61251 0.045 0.0
C202 C 0.70492 0.69327 0.07641 0.0
C203 C 0.70893 0.69186 0.04681 0.0
C204 C 0.67 0.65561 0.09001 0.0
C205 C 0.49496 0.46661 0.16446 0.0
C206 C 0.55483 0.48509 0.2073 0.0
C207 C 0.44796 0.47517 0.20992 0.0
C208 C 0.4438 0.46635 0.18067 0.0
C209 C 0.50359 0.4841 0.22371 0.0
C210 C 0.55057 0.47657 0.17796 0.0
C211 C 0.48896 0.4549 0.13377 0.0
O212 O 0.46724 0.48999 0.04973 0.0
O213 O 0.54393 0.4352 0.05155 0.0
O214 O 0.5361 0.43542 0.12129 0.0
O215 O 0.4606 0.49162 0.11888 0.0
H216 H 0.48049 0.3585 0.07245 0.0
H217 H 0.40705 0.28572 0.06768 0.0
H218 H 0.3357 0.35671 0.9913 0.0
H219 H 0.41142 0.42911 0.99572 0.0
H220 H 0.67984 0.64835 1.00839 0.0
H221 H 0.61903 0.58111 0.03277 0.0
H222 H 0.72945 0.72322 0.08926 0.0
H223 H 0.66779 0.65796 0.11284 0.0
H224 H 0.59846 0.49133 0.21718 0.0
H225 H 0.40743 0.47518 0.22172 0.0
H226 H 0.40043 0.45898 0.17068 0.0
H227 H 0.5908 0.47716 0.16594 0.0
H228 H 0.15964 0.14639 0.04992 0.0
H229 H 0.16976 0.12233 0.95967 0.0
H230 H 0.24855 0.19151 0.95854 0.0
H231 H 0.31596 0.25806 0.98368 0.0
H232 H 0.30177 0.28185 0.07385 0.0
H233 H 0.22359 0.21334 0.07443 0.0
C234 C 0.17896 0.15609 0.02992 0.0
C235 C 0.15884 0.12894 1.00493 0.0
C236 C 0.22385 0.19584 0.02943 0.0
C237 C 0.18436 0.14252 0.97925 0.0
C238 C 0.22946 0.18208 0.9786 0.0
C239 C 0.29543 0.2485 1.00339 0.0
C240 C 0.31558 0.2747 0.02874 0.0
C241 C 0.24971 0.20899 1.00361 0.0
C242 C 0.28841 0.26157 0.05411 0.0
C243 C 0.24328 0.22258 0.05447 0.0
H244 H 0.19048 0.89716 0.04918 0.0
H245 H 0.11523 0.85267 0.96686 0.0
H246 H 0.18777 0.78044 0.96187 0.0
H247 H 0.27415 0.7314 0.9797 0.0
H248 H 0.35439 0.77625 0.06078 0.0
H249 H 0.27802 0.84582 0.06761 0.0
C250 C 0.18984 0.87133 0.0303 0.0
C251 C 0.14762 0.88064 1.00839 0.0
C252 C 0.23265 0.82987 0.02726 0.0
C253 C 0.14748 0.84689 0.98398 0.0
C254 C 0.18896 0.80539 0.98106 0.0
C255 C 0.27545 0.75669 0.99878 0.0
C256 C 0.32044 0.74892 0.01951 0.0
C257 C 0.23217 0.79698 1.00234 0.0
C258 C 0.32018 0.78114 0.04447 0.0
C259 C 0.27666 0.82117 0.04833 0.0
H260 H 0.90524 0.83406 0.98874 0.0
H261 H 0.84349 0.95118 0.05034 0.0
H262 H 0.76462 0.8891 0.06328 0.0
H263 H 0.7184 0.79952 0.06016 0.0
H264 H 0.78414 0.67742 1.00228 0.0
H265 H 0.85475 0.74352 0.98427 0.0
C266 C 0.87383 0.84602 1.00466 0.0
C267 C 0.88017 0.89699 0.01866 0.0
C268 C 0.82942 0.80913 0.01274 0.0
C269 C 0.83968 0.91199 0.03944 0.0
C270 C 0.79457 0.87654 0.04686 0.0
C271 C 0.74824 0.78713 0.04364 0.0
C272 C 0.74651 0.7332 0.03299 0.0
C273 C 0.78997 0.82459 0.03419 0.0
C274 C 0.7843 0.71861 1.01091 0.0
C275 C 0.8251 0.75633 1.00076 0.0
H276 H 0.91275 0.17982 0.04125 0.0
H277 H 0.852 0.09133 0.96593 0.0
H278 H 0.77483 0.15842 0.95755 0.0
H279 H 0.72792 0.24439 0.96961 0.0
H280 H 0.78913 0.33747 0.04312 0.0
H281 H 0.86269 0.26684 0.05416 0.0
C282 C 0.8822 0.17517 0.0232 0.0
C283 C 0.88837 0.13075 1.00419 0.0
C284 C 0.83816 0.21485 0.01806 0.0
C285 C 0.8487 0.12536 0.98076 0.0
C286 C 0.80436 0.16367 0.97593 0.0
C287 C 0.75654 0.24882 0.98838 0.0
C288 C 0.75265 0.2958 1.00567 0.0
C289 C 0.79916 0.20884 0.99419 0.0
C290 C 0.79127 0.30159 0.02947 0.0
C291 C 0.83328 0.26122 0.03577 0.0
H292 H 0.68324 0.61256 0.55261 0.0
H293 H 0.61946 0.6497 0.46845 0.0
H294 H 0.69685 0.71931 0.46512 0.0
H295 H 0.77873 0.77345 0.48745 0.0
H296 H 0.84357 0.73364 0.57111 0.0
H297 H 0.76966 0.66116 0.57325 0.0
C298 C 0.68632 0.63581 0.53351 0.0
C299 C 0.64529 0.62652 0.51096 0.0
C300 C 0.73102 0.67536 0.53167 0.0
C301 C 0.65043 0.65631 0.48617 0.0
C302 C 0.69461 0.69613 0.48425 0.0
C303 C 0.77737 0.74824 0.50591 0.0
C304 C 0.81602 0.75945 0.52923 0.0
C305 C 0.73472 0.70646 0.50702 0.0
C306 C 0.81349 0.72658 0.5531 0.0
C307 C 0.77136 0.68503 0.55433 0.0
H308 H 0.66105 0.41121 0.47453 0.0
H309 H 0.62789 0.35664 0.55849 0.0
H310 H 0.707 0.28854 0.55412 0.0
H311 H 0.78532 0.24385 0.52569 0.0
H312 H 0.81942 0.30366 0.44275 0.0
H313 H 0.74051 0.37052 0.44752 0.0
C314 C 0.6709 0.38429 0.49188 0.0
C315 C 0.63823 0.38847 0.51666 0.0
C316 C 0.71691 0.34634 0.48942 0.0
C317 C 0.65235 0.35404 0.53915 0.0
C318 C 0.69751 0.31512 0.53663 0.0
C319 C 0.77542 0.27175 0.5088 0.0
C320 C 0.80839 0.26906 0.48397 0.0
C321 C 0.73007 0.31079 0.51179 0.0
C322 C 0.79531 0.30546 0.46222 0.0
C323 C 0.74993 0.34349 0.46484 0.0
H324 H 0.37516 0.35382 0.48818 0.0
H325 H 0.34618 0.43372 0.56873 0.0
H326 H 0.26687 0.36961 0.57808 0.0
H327 H 0.20873 0.28907 0.56469 0.0
H328 H 0.23876 0.20442 0.48573 0.0
H329 H 0.31496 0.27187 0.47444 0.0
C330 C 0.35108 0.35727 0.50763 0.0
C331 C 0.36657 0.39836 0.52775 0.0
C332 C 0.30601 0.31935 0.51321 0.0
C333 C 0.33543 0.40221 0.553 0.0
C334 C 0.28996 0.36564 0.55837 0.0
C335 C 0.23123 0.28585 0.54477 0.0
C336 C 0.21771 0.24239 0.52588 0.0
C337 C 0.2753 0.32387 0.53879 0.0
C338 C 0.24842 0.23776 0.50054 0.0
C339 C 0.29186 0.27627 0.49411 0.0
H340 H 0.37405 0.64599 0.4722 0.0
H341 H 0.37693 0.64652 0.56336 0.0
H342 H 0.30582 0.72148 0.56393 0.0
H343 H 0.24188 0.7865 0.53846 0.0
H344 H 0.24259 0.78756 0.44733 0.0
H345 H 0.31253 0.71217 0.44692 0.0
C346 C 0.35907 0.66238 0.49222 0.0
C347 C 0.38075 0.64048 0.51768 0.0
C348 C 0.31853 0.70576 0.49242 0.0
C349 C 0.36107 0.66257 0.54341 0.0
C350 C 0.32033 0.70547 0.54377 0.0
C351 C 0.25773 0.7706 0.51852 0.0
C352 C 0.23631 0.79255 0.49297 0.0
C353 C 0.29875 0.72745 0.5184 0.0
C354 C 0.25712 0.77089 0.46733 0.0
C355 C 0.29755 0.72793 0.46705 0.0
H356 H 0.98692 0.07303 0.17606 0.0
H357 H 0.1106 0.9419 0.1622 0.0
H358 H 0.12171 0.92954 0.213 0.0
H359 H 0.09614 0.95528 0.26121 0.0
H360 H 0.97466 0.08786 0.27581 0.0
H361 H 0.96167 0.09936 0.22488 0.0
C362 C 0.01602 0.0416 0.18421 0.0
C363 C 0.04817 1.00868 0.16539 0.0
C364 C 0.02234 0.03473 0.21354 0.0
C365 C 0.08608 0.96836 0.17624 0.0
C366 C 0.09221 0.96103 0.20528 0.0
C367 C 0.06737 0.9872 0.25333 0.0
C368 C 0.03669 0.02078 0.2724 0.0
C369 C 0.06077 0.99409 0.22411 0.0
C370 C 0.99843 0.06103 0.26167 0.0
C371 C 0.99124 0.06787 0.23253 0.0
H372 H 0.93849 0.0463 0.84764 0.0
H373 H 0.08185 0.93001 0.85052 0.0
H374 H 0.08211 0.9256 0.79904 0.0
H375 H 0.04027 0.95307 0.75318 0.0
H376 H 0.89538 0.06749 0.75 0.0
H377 H 0.89646 0.07376 0.80164 0.0
C378 C 0.96939 0.0196 0.837 0.0
C379 C 0.01014 0.98863 0.85295 0.0
C380 C 0.969 0.01689 0.80735 0.0
C381 C 0.05053 0.95486 0.8388 0.0
C382 C 0.05054 0.95209 0.80934 0.0
C383 C 0.00943 0.97988 0.76381 0.0
C384 C 0.96797 0.00993 0.74785 0.0
C385 C 0.01002 0.98292 0.79342 0.0
C386 C 0.9275 0.04373 0.76188 0.0
C387 C 0.92817 0.04739 0.79137 0.0
H388 H 0.57218 0.48118 0.68581 0.0
H389 H 0.46221 0.62175 0.6711 0.0
H390 H 0.45571 0.63835 0.7219 0.0
H391 H 0.47908 0.61205 0.77044 0.0
H392 H 0.5855 0.46937 0.78579 0.0
H393 H 0.59663 0.45527 0.73498 0.0
C394 C 0.54733 0.51571 0.69379 0.0
C395 C 0.51746 0.55001 0.6747 0.0
C396 C 0.54315 0.5247 0.72316 0.0
C397 C 0.485 0.59436 0.68534 0.0
C398 C 0.48138 0.60398 0.71439 0.0
C399 C 0.50428 0.57751 0.76275 0.0
C400 C 0.53108 0.54171 0.78207 0.0
C401 C 0.50967 0.56908 0.7335 0.0
C402 C 0.56479 0.49797 0.77154 0.0
C403 C 0.57089 0.48964 0.74242 0.0
H404 H 0.55112 0.54256 0.35353 0.0
H405 H 0.41417 0.42088 0.36163 0.0
H406 H 0.40726 0.40849 0.31034 0.0
H407 H 0.44103 0.43101 0.26328 0.0
H408 H 0.57634 0.55424 0.25485 0.0
H409 H 0.584 0.56609 0.30616 0.0
C410 C 0.52004 0.51308 0.34407 0.0
C411 C 0.48316 0.48276 0.36144 0.0
C412 C 0.51626 0.50614 0.3145 0.0
C413 C 0.44256 0.44525 0.34878 0.0
C414 C 0.43881 0.43791 0.31944 0.0
C415 C 0.47173 0.46099 0.27257 0.0
C416 C 0.50801 0.49165 0.25506 0.0
C417 C 0.47539 0.46815 0.3021 0.0
C418 C 0.54838 0.52948 0.2677 0.0
C419 C 0.55254 0.53658 0.29708 0.0
loop_
_geom_bond_atom_site_label_1
_geom_bond_atom_site_label_2
_geom_bond_distance
_geom_bond_site_symmetry_2
_ccdc_geom_bond_type
C0 O16 1.251 . S
C0 O18 1.254 1_554 S
N1 C2 1.333 1_445 S
N1 C6 1.307 . S
N1 Zn7 2.020 . S
C2 N1 1.333 1_665 S
C2 C3 1.379 . S
C2 H20 0.952 . S
C3 C2 1.379 . S
C3 C4 1.390 1_665 S
C3 H30 0.949 . S
C4 C3 1.390 1_445 S
C4 C5 1.357 . S
C5 C4 1.357 . S
C5 C6 1.370 . S
C5 H31 0.950 . S
C6 N1 1.307 . S
C6 C5 1.370 . S
C6 H24 0.948 . S
Zn7 N1 2.020 . S
Zn7 O16 2.039 1_445 S
Zn7 O22 2.034 1_455 S
Zn7 O26 2.025 . S
Zn7 O28 2.024 1_545 S
C8 O27 1.246 1_554 S
C8 O28 1.249 . S
N9 C10 1.307 1_445 S
N9 C11 1.333 . S
N9 Zn15 2.020 . S
C10 N9 1.307 1_665 S
C10 C14 1.370 . S
C10 H21 0.948 . S
C11 N9 1.333 . S
C11 C12 1.379 . S
C11 H19 0.952 . S
C12 C11 1.379 . S
C12 C13 1.390 . S
C12 H32 0.949 . S
C13 C12 1.390 . S
C13 C14 1.357 1_445 S
C14 C10 1.370 . S
C14 C13 1.357 1_665 S
C14 H33 0.950 . S
Zn15 N9 2.020 . S
Zn15 O18 2.025 1_445 S
Zn15 O23 2.024 1_455 S
Zn15 O25 2.039 . S
Zn15 O27 2.034 1_545 S
O16 C0 1.251 . S
O16 Zn7 2.039 1_665 S
C17 O22 1.246 . S
C17 O23 1.249 1_554 S
O18 C0 1.254 1_556 S
O18 Zn15 2.025 1_665 S
H19 C11 0.952 . S
H20 C2 0.952 . S
H21 C10 0.948 . S
O22 Zn7 2.034 1_655 S
O22 C17 1.246 . S
O23 Zn15 2.024 1_655 S
O23 C17 1.249 1_556 S
H24 C6 0.948 . S
O25 Zn15 2.039 . S
O25 C29 1.251 1_556 S
O26 Zn7 2.025 . S
O26 C29 1.254 . S
O27 C8 1.246 1_556 S
O27 Zn15 2.034 1_565 S
O28 Zn7 2.024 1_565 S
O28 C8 1.249 . S
C29 O25 1.251 1_554 S
C29 O26 1.254 . S
H30 C3 0.949 . S
H31 C5 0.950 . S
H32 C12 0.949 . S
H33 C14 0.950 . S
C34 O50 1.251 . S
C34 O52 1.254 . S
N35 C36 1.333 . S
N35 C40 1.307 . S
N35 Zn41 2.020 . S
C36 N35 1.333 . S
C36 C37 1.379 . S
C36 H54 0.952 . S
C37 C36 1.379 . S
C37 C38 1.390 . S
C37 H64 0.949 . S
C38 C37 1.390 . S
C38 C39 1.357 . S
C39 C38 1.357 . S
C39 C40 1.370 . S
C39 H65 0.950 . S
C40 N35 1.307 . S
C40 C39 1.370 . S
C40 H58 0.948 . S
Zn41 N35 2.020 . S
Zn41 O50 2.039 . S
Zn41 O56 2.034 . S
Zn41 O60 2.025 . S
Zn41 O62 2.024 . S
C42 O61 1.246 . S
C42 O62 1.249 . S
N43 C44 1.307 . S
N43 C45 1.333 . S
N43 Zn49 2.020 . S
C44 N43 1.307 . S
C44 C48 1.370 . S
C44 H55 0.948 . S
C45 N43 1.333 . S
C45 C46 1.379 . S
C45 H53 0.952 . S
C46 C45 1.379 . S
C46 C47 1.390 . S
C46 H66 0.949 . S
C47 C46 1.390 . S
C47 C48 1.357 . S
C48 C44 1.370 . S
C48 C47 1.357 . S
C48 H67 0.950 . S
Zn49 N43 2.020 . S
Zn49 O52 2.025 . S
Zn49 O57 2.024 . S
Zn49 O59 2.039 . S
Zn49 O61 2.034 . S
O50 C34 1.251 . S
O50 Zn41 2.039 . S
C51 O56 1.246 . S
C51 O57 1.249 . S
O52 C34 1.254 . S
O52 Zn49 2.025 . S
H53 C45 0.952 . S
H54 C36 0.952 . S
H55 C44 0.948 . S
O56 Zn41 2.034 . S
O56 C51 1.246 . S
O57 Zn49 2.024 . S
O57 C51 1.249 . S
H58 C40 0.948 . S
O59 Zn49 2.039 . S
O59 C63 1.251 . S
O60 Zn41 2.025 . S
O60 C63 1.254 . S
O61 C42 1.246 . S
O61 Zn49 2.034 . S
O62 Zn41 2.024 . S
O62 C42 1.249 . S
C63 O59 1.251 . S
C63 O60 1.254 . S
H64 C37 0.949 . S
H65 C39 0.950 . S
H66 C46 0.949 . S
H67 C48 0.950 . S
C68 C69 1.264 . S
C68 C73 1.479 . S
C68 C78 1.465 . S
C69 C68 1.264 . S
C69 C71 1.339 . S
C69 H96 0.931 . S
C70 C71 1.395 . S
C70 C72 1.320 . S
C71 C69 1.339 . S
C71 C70 1.395 . S
C71 H97 0.929 . S
C72 C70 1.320 . S
C72 C73 1.405 . S
C72 H98 0.930 . S
C73 C68 1.479 . S
C73 C72 1.405 . S
C73 H99 0.931 . S
U74 O75 2.454 1_545 S
U74 O76 2.458 1_545 S
U74 C77 2.984 1_545 S
U74 C78 2.847 1_455 S
U74 C91 2.882 . S
U74 O92 2.441 1_455 S
U74 O93 2.420 1_455 S
U74 O94 2.455 1_545 S
U74 O95 2.449 . S
O75 U74 2.454 1_565 S
O75 C77 1.353 . S
O76 U74 2.458 1_565 S
O76 C77 1.286 . S
C77 U74 2.984 1_565 S
C77 O75 1.353 . S
C77 O76 1.286 . S
C77 C79 1.363 . S
C78 C68 1.465 . S
C78 U74 2.847 1_655 S
C78 O92 1.249 . S
C78 O93 1.202 . S
C79 C77 1.363 . S
C79 C81 1.408 . S
C79 C84 1.342 . S
C80 C81 1.310 . S
C80 C83 1.461 . S
C80 H100 0.932 . S
C81 C79 1.408 . S
C81 C80 1.310 . S
C81 H101 0.930 . S
C82 C83 1.474 . S
C82 C84 1.285 . S
C82 H102 0.929 . S
C83 C80 1.461 . S
C83 C82 1.474 . S
C84 C79 1.342 . S
C84 C82 1.285 . S
C84 H103 0.930 . S
C85 C88 1.424 1_455 S
C85 C90 1.245 1_545 S
C85 C91 1.428 . S
C86 C89 1.260 1_565 S
C86 C90 1.477 . S
C86 H104 0.932 . S
C87 C88 1.384 . S
C87 C89 1.479 1_655 S
C87 H105 0.929 . S
C88 C85 1.424 1_655 S
C88 C87 1.384 . S
C88 H106 0.928 . S
C89 C86 1.260 1_545 S
C89 C87 1.479 1_455 S
C90 C85 1.245 1_565 S
C90 C86 1.477 . S
C90 H107 0.932 . S
C91 U74 2.882 . S
C91 C85 1.428 . S
C91 O94 1.301 1_545 S
C91 O95 1.282 . S
O92 U74 2.441 1_655 S
O92 C78 1.249 . S
O93 U74 2.420 1_655 S
O93 C78 1.202 . S
O94 U74 2.455 1_565 S
O94 C91 1.301 1_565 S
O95 U74 2.449 . S
O95 C91 1.282 . S
H96 C69 0.931 . S
H97 C71 0.929 . S
H98 C72 0.930 . S
H99 C73 0.931 . S
H100 C80 0.932 . S
H101 C81 0.930 . S
H102 C82 0.929 . S
H103 C84 0.930 . S
H104 C86 0.932 . S
H105 C87 0.929 . S
H106 C88 0.928 . S
H107 C90 0.932 . S
C108 C109 1.264 . S
C108 C113 1.479 . S
C108 C118 1.465 . S
C109 C108 1.264 . S
C109 C111 1.339 . S
C109 H136 0.931 . S
C110 C111 1.395 . S
C110 C112 1.320 . S
C111 C109 1.339 . S
C111 C110 1.395 . S
C111 H137 0.929 . S
C112 C110 1.320 . S
C112 C113 1.405 . S
C112 H138 0.930 . S
C113 C108 1.479 . S
C113 C112 1.405 . S
C113 H139 0.931 . S
U114 O115 2.454 1_565 S
U114 O116 2.458 1_565 S
U114 C117 2.984 1_565 S
U114 C118 2.847 1_455 S
U114 C131 2.882 . S
U114 O132 2.447 . S
U114 O133 2.420 1_455 S
U114 O134 2.455 1_565 S
U114 O135 2.449 . S
O115 U114 2.454 1_545 S
O115 C117 1.353 . S
O116 U114 2.458 1_545 S
O116 C117 1.286 . S
C117 U114 2.984 1_545 S
C117 O115 1.353 . S
C117 O116 1.286 . S
C117 C119 1.363 . S
C118 C108 1.465 . S
C118 U114 2.847 1_655 S
C118 O132 1.241 1_655 S
C118 O133 1.202 . S
C119 C117 1.363 . S
C119 C121 1.408 . S
C119 C124 1.342 . S
C120 C121 1.310 . S
C120 C123 1.461 . S
C120 H140 0.932 . S
C121 C119 1.408 . S
C121 C120 1.310 . S
C121 H141 0.930 . S
C122 C123 1.474 . S
C122 C124 1.285 . S
C122 H142 0.929 . S
C123 C120 1.461 . S
C123 C122 1.474 . S
C124 C119 1.342 . S
C124 C122 1.285 . S
C124 H143 0.930 . S
C125 C128 1.424 . S
C125 C130 1.245 1_565 S
C125 C131 1.428 . S
C126 C129 1.265 . S
C126 C130 1.477 . S
C126 H144 0.932 . S
C127 C128 1.384 1_655 S
C127 C129 1.472 1_665 S
C127 H145 0.929 . S
C128 C125 1.424 . S
C128 C127 1.384 1_455 S
C128 H146 0.928 1_455 S
C129 C126 1.265 . S
C129 C127 1.472 1_445 S
C130 C125 1.245 1_545 S
C130 C126 1.477 . S
C130 H147 0.932 . S
C131 U114 2.882 . S
C131 C125 1.428 . S
C131 O134 1.301 1_565 S
C131 O135 1.282 . S
O132 U114 2.447 . S
O132 C118 1.241 1_455 S
O133 U114 2.420 1_655 S
O133 C118 1.202 . S
O134 U114 2.455 1_545 S
O134 C131 1.301 1_545 S
O135 U114 2.449 . S
O135 C131 1.282 . S
H136 C109 0.931 . S
H137 C111 0.929 . S
H138 C112 0.930 . S
H139 C113 0.931 . S
H140 C120 0.932 . S
H141 C121 0.930 . S
H142 C122 0.929 . S
H143 C124 0.930 . S
H144 C126 0.932 . S
H145 C127 0.929 . S
H146 C128 0.928 1_655 S
H147 C130 0.932 . S
C148 C149 1.264 . S
C148 C153 1.479 1_556 S
C148 C158 1.465 . S
C149 C148 1.264 . S
C149 C151 1.339 . S
C149 H176 0.931 . S
C150 C151 1.395 1_554 S
C150 C152 1.320 . S
C151 C149 1.339 . S
C151 C150 1.395 1_556 S
C151 H177 0.929 . S
C152 C150 1.320 . S
C152 C153 1.405 . S
C152 H178 0.930 . S
C153 C148 1.479 1_554 S
C153 C152 1.405 . S
C153 H179 0.931 . S
U154 O155 2.454 . S
U154 O156 2.458 . S
U154 C157 2.984 . S
U154 C158 2.847 . S
U154 C171 2.882 . S
U154 O172 2.441 . S
U154 O173 2.420 . S
U154 O174 2.455 . S
U154 O175 2.449 . S
O155 U154 2.454 . S
O155 C157 1.353 . S
O156 U154 2.458 . S
O156 C157 1.286 . S
C157 U154 2.984 . S
C157 O155 1.353 . S
C157 O156 1.286 . S
C157 C159 1.363 . S
C158 C148 1.465 . S
C158 U154 2.847 . S
C158 O172 1.249 . S
C158 O173 1.202 . S
C159 C157 1.363 . S
C159 C161 1.408 1_556 S
C159 C164 1.342 . S
C160 C161 1.310 . S
C160 C163 1.461 . S
C160 H180 0.932 . S
C161 C159 1.408 1_554 S
C161 C160 1.310 . S
C161 H181 0.930 . S
C162 C163 1.474 1_556 S
C162 C164 1.285 . S
C162 H182 0.929 . S
C163 C160 1.461 . S
C163 C162 1.474 1_554 S
C164 C159 1.342 . S
C164 C162 1.285 . S
C164 H183 0.930 . S
C165 C168 1.424 . S
C165 C170 1.245 . S
C165 C171 1.428 . S
C166 C169 1.260 . S
C166 C170 1.477 . S
C166 H184 0.932 . S
C167 C168 1.384 . S
C167 C169 1.479 . S
C167 H185 0.929 . S
C168 C165 1.424 . S
C168 C167 1.384 . S
C168 H186 0.928 . S
C169 C166 1.260 . S
C169 C167 1.479 . S
C170 C165 1.245 . S
C170 C166 1.477 . S
C170 H187 0.932 . S
C171 U154 2.882 . S
C171 C165 1.428 . S
C171 O174 1.301 . S
C171 O175 1.282 . S
O172 U154 2.441 . S
O172 C158 1.249 . S
O173 U154 2.420 . S
O173 C158 1.202 . S
O174 U154 2.455 . S
O174 C171 1.301 . S
O175 U154 2.449 . S
O175 C171 1.282 . S
H176 C149 0.931 . S
H177 C151 0.929 . S
H178 C152 0.930 . S
H179 C153 0.931 . S
H180 C160 0.932 . S
H181 C161 0.930 . S
H182 C162 0.929 . S
H183 C164 0.930 . S
H184 C166 0.932 . S
H185 C167 0.929 . S
H186 C168 0.928 . S
H187 C170 0.932 . S
C188 C189 1.264 . S
C188 C193 1.479 1_554 S
C188 C198 1.465 . S
C189 C188 1.264 . S
C189 C191 1.339 . S
C189 H216 0.931 . S
C190 C191 1.395 1_556 S
C190 C192 1.320 . S
C191 C189 1.339 . S
C191 C190 1.395 1_554 S
C191 H217 0.929 . S
C192 C190 1.320 . S
C192 C193 1.405 . S
C192 H218 0.930 . S
C193 C188 1.479 1_556 S
C193 C192 1.405 . S
C193 H219 0.931 . S
U194 O195 2.454 . S
U194 O196 2.458 . S
U194 C197 2.984 . S
U194 C198 2.847 . S
U194 C211 2.882 . S
U194 O212 2.441 . S
U194 O213 2.420 . S
U194 O214 2.455 . S
U194 O215 2.449 . S
O195 U194 2.454 . S
O195 C197 1.353 . S
O196 U194 2.458 . S
O196 C197 1.286 . S
C197 U194 2.984 . S
C197 O195 1.353 . S
C197 O196 1.286 . S
C197 C199 1.363 . S
C198 C188 1.465 . S
C198 U194 2.847 . S
C198 O212 1.249 . S
C198 O213 1.202 . S
C199 C197 1.363 . S
C199 C201 1.408 1_554 S
C199 C204 1.342 . S
C200 C201 1.310 . S
C200 C203 1.461 . S
C200 H220 0.932 . S
C201 C199 1.408 1_556 S
C201 C200 1.310 . S
C201 H221 0.930 . S
C202 C203 1.474 1_554 S
C202 C204 1.285 . S
C202 H222 0.929 . S
C203 C200 1.461 . S
C203 C202 1.474 1_556 S
C204 C199 1.342 . S
C204 C202 1.285 . S
C204 H223 0.930 . S
C205 C208 1.424 . S
C205 C210 1.245 . S
C205 C211 1.428 . S
C206 C209 1.260 . S
C206 C210 1.477 . S
C206 H224 0.932 . S
C207 C208 1.384 . S
C207 C209 1.479 . S
C207 H225 0.929 . S
C208 C205 1.424 . S
C208 C207 1.384 . S
C208 H226 0.928 . S
C209 C206 1.260 . S
C209 C207 1.479 . S
C210 C205 1.245 . S
C210 C206 1.477 . S
C210 H227 0.932 . S
C211 U194 2.882 . S
C211 C205 1.428 . S
C211 O214 1.301 . S
C211 O215 1.282 . S
O212 U194 2.441 . S
O212 C198 1.249 . S
O213 U194 2.420 . S
O213 C198 1.202 . S
O214 U194 2.455 . S
O214 C211 1.301 . S
O215 U194 2.449 . S
O215 C211 1.282 . S
H216 C189 0.931 . S
H217 C191 0.929 . S
H218 C192 0.930 . S
H219 C193 0.931 . S
H220 C200 0.932 . S
H221 C201 0.930 . S
H222 C202 0.929 . S
H223 C204 0.930 . S
H224 C206 0.932 . S
H225 C207 0.929 . S
H226 C208 0.928 . S
H227 C210 0.932 . S
H228 C234 0.930 . S
H229 C237 0.930 . S
H230 C238 0.930 . S
H231 C239 0.930 . S
H232 C242 0.930 . S
H233 C243 0.930 . S
C234 H228 0.930 . S
C234 C235 1.355 1_554 S
C234 C236 1.415 . S
C235 C234 1.355 1_556 S
C235 C237 1.419 . S
C236 C234 1.415 . S
C236 C241 1.425 1_554 S
C236 C243 1.409 . S
C237 H229 0.930 . S
C237 C235 1.419 . S
C237 C238 1.362 . S
C238 H230 0.930 . S
C238 C237 1.362 . S
C238 C241 1.409 . S
C239 H231 0.930 . S
C239 C240 1.355 . S
C239 C241 1.415 . S
C240 C239 1.355 . S
C240 C242 1.419 1_556 S
C241 C236 1.425 1_556 S
C241 C238 1.409 . S
C241 C239 1.415 . S
C242 H232 0.930 . S
C242 C240 1.419 1_554 S
C242 C243 1.362 . S
C243 H233 0.930 . S
C243 C236 1.409 . S
C243 C242 1.362 . S
H244 C250 0.930 . S
H245 C253 0.930 . S
H246 C254 0.930 . S
H247 C255 0.930 1_556 S
H248 C258 0.930 . S
H249 C259 0.930 . S
C250 H244 0.930 . S
C250 C251 1.355 . S
C250 C252 1.415 . S
C251 C250 1.355 . S
C251 C253 1.419 1_554 S
C252 C250 1.415 . S
C252 C257 1.425 . S
C252 C259 1.409 . S
C253 H245 0.930 . S
C253 C251 1.419 1_556 S
C253 C254 1.362 . S
C254 H246 0.930 . S
C254 C253 1.362 . S
C254 C257 1.409 1_556 S
C255 H247 0.930 1_554 S
C255 C256 1.355 . S
C255 C257 1.415 . S
C256 C255 1.355 . S
C256 C258 1.419 . S
C257 C252 1.425 . S
C257 C254 1.409 1_554 S
C257 C255 1.415 . S
C258 H248 0.930 . S
C258 C256 1.419 . S
C258 C259 1.362 . S
C259 H249 0.930 . S
C259 C252 1.409 . S
C259 C258 1.362 . S
H260 C266 0.930 . S
H261 C269 0.930 1_554 S
H262 C270 0.930 . S
H263 C271 0.930 . S
H264 C274 0.930 . S
H265 C275 0.930 . S
C266 H260 0.930 . S
C266 C267 1.354 1_556 S
C266 C268 1.415 . S
C267 C266 1.354 1_554 S
C267 C269 1.419 1_554 S
C268 C266 1.415 . S
C268 C273 1.425 . S
C268 C275 1.409 . S
C269 H261 0.930 1_556 S
C269 C267 1.419 1_556 S
C269 C270 1.364 . S
C270 H262 0.930 . S
C270 C269 1.364 . S
C270 C273 1.409 . S
C271 H263 0.930 . S
C271 C272 1.355 . S
C271 C273 1.415 . S
C272 C271 1.355 . S
C272 C274 1.419 . S
C273 C268 1.425 . S
C273 C270 1.409 . S
C273 C271 1.415 . S
C274 H264 0.930 . S
C274 C272 1.419 . S
C274 C275 1.362 . S
C275 H265 0.930 . S
C275 C268 1.409 . S
C275 C274 1.362 . S
H276 C282 0.930 . S
H277 C285 0.930 . S
H278 C286 0.930 . S
H279 C287 0.930 1_556 S
H280 C290 0.930 . S
H281 C291 0.930 . S
C282 H276 0.930 . S
C282 C283 1.355 . S
C282 C284 1.415 . S
C283 C282 1.355 . S
C283 C285 1.419 1_554 S
C284 C282 1.415 . S
C284 C289 1.453 . S
C284 C291 1.409 . S
C285 H277 0.930 . S
C285 C283 1.419 1_556 S
C285 C286 1.362 . S
C286 H278 0.930 . S
C286 C285 1.362 . S
C286 C289 1.383 1_556 S
C287 H279 0.930 1_554 S
C287 C288 1.355 . S
C287 C289 1.416 . S
C288 C287 1.355 . S
C288 C290 1.419 . S
C289 C284 1.453 . S
C289 C286 1.383 1_554 S
C289 C287 1.416 . S
C290 H280 0.930 . S
C290 C288 1.419 . S
C290 C291 1.362 . S
C291 H281 0.930 . S
C291 C284 1.409 . S
C291 C290 1.362 . S
H292 C298 0.930 . S
H293 C301 0.930 . S
H294 C302 0.930 . S
H295 C303 0.930 . S
H296 C306 0.930 . S
H297 C307 0.930 . S
C298 H292 0.930 . S
C298 C299 1.355 . S
C298 C300 1.415 . S
C299 C298 1.355 . S
C299 C301 1.419 . S
C300 C298 1.415 . S
C300 C305 1.425 . S
C300 C307 1.409 . S
C301 H293 0.930 . S
C301 C299 1.419 . S
C301 C302 1.362 . S
C302 H294 0.930 . S
C302 C301 1.362 . S
C302 C305 1.409 . S
C303 H295 0.930 . S
C303 C304 1.355 . S
C303 C305 1.415 . S
C304 C303 1.355 . S
C304 C306 1.419 . S
C305 C300 1.425 . S
C305 C302 1.409 . S
C305 C303 1.415 . S
C306 H296 0.930 . S
C306 C304 1.419 . S
C306 C307 1.362 . S
C307 H297 0.930 . S
C307 C300 1.409 . S
C307 C306 1.362 . S
H308 C314 0.930 . S
H309 C317 0.930 . S
H310 C318 0.930 . S
H311 C319 0.930 . S
H312 C322 0.930 . S
H313 C323 0.930 . S
C314 H308 0.930 . S
C314 C315 1.355 . S
C314 C316 1.415 . S
C315 C314 1.355 . S
C315 C317 1.419 . S
C316 C314 1.415 . S
C316 C321 1.425 . S
C316 C323 1.409 . S
C317 H309 0.930 . S
C317 C315 1.419 . S
C317 C318 1.362 . S
C318 H310 0.930 . S
C318 C317 1.362 . S
C318 C321 1.409 . S
C319 H311 0.930 . S
C319 C320 1.355 . S
C319 C321 1.415 . S
C320 C319 1.355 . S
C320 C322 1.419 . S
C321 C316 1.425 . S
C321 C318 1.409 . S
C321 C319 1.415 . S
C322 H312 0.930 . S
C322 C320 1.419 . S
C322 C323 1.362 . S
C323 H313 0.930 . S
C323 C316 1.409 . S
C323 C322 1.362 . S
H324 C330 0.930 . S
H325 C333 0.930 . S
H326 C334 0.930 . S
H327 C335 0.930 . S
H328 C338 0.930 . S
H329 C339 0.930 . S
C330 H324 0.930 . S
C330 C331 1.355 . S
C330 C332 1.415 . S
C331 C330 1.355 . S
C331 C333 1.419 . S
C332 C330 1.415 . S
C332 C337 1.425 . S
C332 C339 1.409 . S
C333 H325 0.930 . S
C333 C331 1.419 . S
C333 C334 1.362 . S
C334 H326 0.930 . S
C334 C333 1.362 . S
C334 C337 1.409 . S
C335 H327 0.930 . S
C335 C336 1.355 . S
C335 C337 1.415 . S
C336 C335 1.355 . S
C336 C338 1.419 . S
C337 C332 1.425 . S
C337 C334 1.409 . S
C337 C335 1.415 . S
C338 H328 0.930 . S
C338 C336 1.419 . S
C338 C339 1.362 . S
C339 H329 0.930 . S
C339 C332 1.409 . S
C339 C338 1.362 . S
H340 C346 0.930 . S
H341 C349 0.930 . S
H342 C350 0.930 . S
H343 C351 0.930 . S
H344 C354 0.930 . S
H345 C355 0.930 . S
C346 H340 0.930 . S
C346 C347 1.355 . S
C346 C348 1.415 . S
C347 C346 1.355 . S
C347 C349 1.419 . S
C348 C346 1.415 . S
C348 C353 1.425 . S
C348 C355 1.409 . S
C349 H341 0.930 . S
C349 C347 1.419 . S
C349 C350 1.362 . S
C350 H342 0.930 . S
C350 C349 1.362 . S
C350 C353 1.409 . S
C351 H343 0.930 . S
C351 C352 1.355 . S
C351 C353 1.415 . S
C352 C351 1.355 . S
C352 C354 1.419 . S
C353 C348 1.425 . S
C353 C350 1.409 . S
C353 C351 1.415 . S
C354 H344 0.930 . S
C354 C352 1.419 . S
C354 C355 1.362 . S
C355 H345 0.930 . S
C355 C348 1.409 . S
C355 C354 1.362 . S
H356 C362 0.930 . S
H357 C365 0.930 . S
H358 C366 0.930 . S
H359 C367 0.930 . S
H360 C370 0.930 . S
H361 C371 0.930 . S
C362 H356 0.930 . S
C362 C363 1.359 1_655 S
C362 C364 1.415 . S
C363 C362 1.359 1_455 S
C363 C365 1.413 1_545 S
C364 C362 1.415 . S
C364 C369 1.425 1_645 S
C364 C371 1.409 . S
C365 H357 0.930 . S
C365 C363 1.413 1_565 S
C365 C366 1.362 . S
C366 H358 0.930 . S
C366 C365 1.362 . S
C366 C369 1.409 . S
C367 H359 0.930 . S
C367 C368 1.355 1_465 S
C367 C369 1.415 . S
C368 C367 1.355 1_645 S
C368 C370 1.419 . S
C369 C364 1.425 1_465 S
C369 C366 1.409 . S
C369 C367 1.415 . S
C370 H360 0.930 . S
C370 C368 1.419 . S
C370 C371 1.362 . S
C371 H361 0.930 . S
C371 C364 1.409 . S
C371 C370 1.362 . S
H372 C378 0.930 . S
H373 C381 0.930 . S
H374 C382 0.930 . S
H375 C383 0.930 . S
H376 C386 0.930 . S
H377 C387 0.930 . S
C378 H372 0.930 . S
C378 C379 1.355 1_655 S
C378 C380 1.415 . S
C379 C378 1.355 1_455 S
C379 C381 1.419 1_545 S
C380 C378 1.415 . S
C380 C385 1.425 1_655 S
C380 C387 1.409 . S
C381 H373 0.930 . S
C381 C379 1.419 1_565 S
C381 C382 1.362 . S
C382 H374 0.930 . S
C382 C381 1.362 . S
C382 C385 1.409 1_565 S
C383 H375 0.930 . S
C383 C384 1.355 . S
C383 C385 1.415 . S
C384 C383 1.355 . S
C384 C386 1.419 1_455 S
C385 C380 1.425 1_455 S
C385 C382 1.409 1_545 S
C385 C383 1.415 . S
C386 H376 0.930 . S
C386 C384 1.419 1_655 S
C386 C387 1.362 . S
C387 H377 0.930 . S
C387 C380 1.409 . S
C387 C386 1.362 . S
H388 C394 0.930 . S
H389 C397 0.930 . S
H390 C398 0.930 . S
H391 C399 0.930 . S
H392 C402 0.930 . S
H393 C403 0.930 . S
C394 H388 0.930 . S
C394 C395 1.355 . S
C394 C396 1.415 . S
C395 C394 1.355 . S
C395 C397 1.419 . S
C396 C394 1.415 . S
C396 C401 1.425 . S
C396 C403 1.409 . S
C397 H389 0.930 . S
C397 C395 1.419 . S
C397 C398 1.362 . S
C398 H390 0.930 . S
C398 C397 1.362 . S
C398 C401 1.409 . S
C399 H391 0.930 . S
C399 C400 1.355 . S
C399 C401 1.415 . S
C400 C399 1.355 . S
C400 C402 1.419 . S
C401 C396 1.425 . S
C401 C398 1.409 . S
C401 C399 1.415 . S
C402 H392 0.930 . S
C402 C400 1.419 . S
C402 C403 1.362 . S
C403 H393 0.930 . S
C403 C396 1.409 . S
C403 C402 1.362 . S
H404 C410 0.930 . S
H405 C413 0.930 . S
H406 C414 0.930 . S
H407 C415 0.930 . S
H408 C418 0.930 . S
H409 C419 0.930 . S
C410 H404 0.930 . S
C410 C411 1.355 . S
C410 C412 1.415 . S
C411 C410 1.355 . S
C411 C413 1.419 . S
C412 C410 1.415 . S
C412 C417 1.425 . S
C412 C419 1.409 . S
C413 H405 0.930 . S
C413 C411 1.419 . S
C413 C414 1.362 . S
C414 H406 0.930 . S
C414 C413 1.362 . S
C414 C417 1.409 . S
C415 H407 0.930 . S
C415 C416 1.355 . S
C415 C417 1.415 . S
C416 C415 1.355 . S
C416 C418 1.419 . S
C417 C412 1.425 . S
C417 C414 1.409 . S
C417 C415 1.415 . S
C418 H408 0.930 . S
C418 C416 1.419 . S
C418 C419 1.362 . S
C419 H409 0.930 . S
C419 C412 1.409 . S
C419 C418 1.362 . S
C240 C190 1.533 . S
C235 C29 1.612 1_556 S
C251 C8 1.593 . S
C256 C150 1.541 . S
C267 C0 1.577 . S
C272 C203 1.504 . S
C283 C17 1.618 . S
C288 C163 1.577 . S
C299 C63 1.622 . S
C304 C110 1.560 . S
C315 C42 1.588 . S
C320 C70 1.515 . S
C336 C123 1.552 . S
C331 C34 1.585 . S
C352 C83 1.506 . S
C347 C51 1.612 . S
C363 C4 1.485 . S
C368 C89 1.467 1_655 S
C379 C13 1.480 . S
C384 C129 1.486 . S
C400 C169 1.474 . S
C395 C38 1.479 . S
C411 C47 1.472 . S
C416 C209 1.478 . S
