# Generated by pormake.
# Topology zzz, (3,6)-cn, num edge types: 1
# Building blocks:
#     Node 0, Type 0, BuildingBlock: WUSLED_clean_sbu_0, # of connection points: 3
#     Node 1, Type 0, BuildingBlock: WUSLED_clean_sbu_0, # of connection points: 3
#     Node 2, Type 0, BuildingBlock: WUSLED_clean_sbu_0, # of connection points: 3
#     Node 3, Type 0, BuildingBlock: WUSLED_clean_sbu_0, # of connection points: 3
#     Node 4, Type 0, BuildingBlock: WUSLED_clean_sbu_0, # of connection points: 3
#     Node 5, Type 0, BuildingBlock: WUSLED_clean_sbu_0, # of connection points: 3
#     Node 6, Type 0, BuildingBlock: WUSLED_clean_sbu_0, # of connection points: 3
#     Node 7, Type 0, BuildingBlock: WUSLED_clean_sbu_0, # of connection points: 3
#     Node 8, Type 1, BuildingBlock: HISSIN_clean_sbu_0, # of connection points: 6
#     Node 9, Type 1, BuildingBlock: HISSIN_clean_sbu_0, # of connection points: 6
#     Node 10, Type 1, BuildingBlock: HISSIN_clean_sbu_0, # of connection points: 6
#     Node 11, Type 1, BuildingBlock: HISSIN_clean_sbu_0, # of connection points: 6
#     Edge 12, Type (0, 1), BuildingBlock: AJUNOK_clean_linker_0, # of connection points: 2
#     Edge 13, Type (0, 1), BuildingBlock: AJUNOK_clean_linker_0, # of connection points: 2
#     Edge 14, Type (0, 1), BuildingBlock: AJUNOK_clean_linker_0, # of connection points: 2
#     Edge 15, Type (0, 1), BuildingBlock: AJUNOK_clean_linker_0, # of connection points: 2
#     Edge 16, Type (0, 1), BuildingBlock: AJUNOK_clean_linker_0, # of connection points: 2
#     Edge 17, Type (0, 1), BuildingBlock: AJUNOK_clean_linker_0, # of connection points: 2
#     Edge 18, Type (0, 1), BuildingBlock: AJUNOK_clean_linker_0, # of connection points: 2
#     Edge 19, Type (0, 1), BuildingBlock: AJUNOK_clean_linker_0, # of connection points: 2
#     Edge 20, Type (0, 1), BuildingBlock: AJUNOK_clean_linker_0, # of connection points: 2
#     Edge 21, Type (0, 1), BuildingBlock: AJUNOK_clean_linker_0, # of connection points: 2
#     Edge 22, Type (0, 1), BuildingBlock: AJUNOK_clean_linker_0, # of connection points: 2
#     Edge 23, Type (0, 1), BuildingBlock: AJUNOK_clean_linker_0, # of connection points: 2
#     Edge 24, Type (0, 1), BuildingBlock: AJUNOK_clean_linker_0, # of connection points: 2
#     Edge 25, Type (0, 1), BuildingBlock: AJUNOK_clean_linker_0, # of connection points: 2
#     Edge 26, Type (0, 1), BuildingBlock: AJUNOK_clean_linker_0, # of connection points: 2
#     Edge 27, Type (0, 1), BuildingBlock: AJUNOK_clean_linker_0, # of connection points: 2
#     Edge 28, Type (0, 1), BuildingBlock: AJUNOK_clean_linker_0, # of connection points: 2
#     Edge 29, Type (0, 1), BuildingBlock: AJUNOK_clean_linker_0, # of connection points: 2
#     Edge 30, Type (0, 1), BuildingBlock: AJUNOK_clean_linker_0, # of connection points: 2
#     Edge 31, Type (0, 1), BuildingBlock: AJUNOK_clean_linker_0, # of connection points: 2
#     Edge 32, Type (0, 1), BuildingBlock: AJUNOK_clean_linker_0, # of connection points: 2
#     Edge 33, Type (0, 1), BuildingBlock: AJUNOK_clean_linker_0, # of connection points: 2
#     Edge 34, Type (0, 1), BuildingBlock: AJUNOK_clean_linker_0, # of connection points: 2
#     Edge 35, Type (0, 1), BuildingBlock: AJUNOK_clean_linker_0, # of connection points: 2
# Relax obj value: 0.406
# Max RMSD: 0.230
# Mean RMSD: 0.187
data_MOF--net-zzz--node1-WUSLED_clean_sbu_0--node2-HISSIN_clean_sbu_0--edge1-AJUNOK_clean_linker_0
_symmetry_space_group_name_H-M    P1
_symmetry_Int_Tables_number       1
_symmetry_cell_setting            triclinic
loop_
_symmetry_equiv_pos_as_xyz
'x, y, z'
_cell_length_a     47.99692
_cell_length_b     48.151685
_cell_length_c     18.390594
_cell_angle_alpha  89.863011
_cell_angle_beta   91.566908
_cell_angle_gamma 91.219464
loop_
_atom_site_label
_atom_site_type_symbol
_atom_site_fract_x
_atom_site_fract_y
_atom_site_fract_z
_atom_type_partial_charge
C0 C 0.80674 0.53508 0.43835 0.0
C1 C 0.81344 0.51329 0.48639 0.0
C2 C 0.86153 0.53096 0.50234 0.0
C3 C 0.84042 0.51116 0.51759 0.0
C4 C 0.85489 0.5525 0.45307 0.0
C5 C 0.82795 0.55455 0.42159 0.0
U6 U 0.75142 0.54195 0.2816 0.0
O7 O 0.7143 0.56803 0.26969 0.0
O8 O 0.70939 0.52274 0.26916 0.0
C9 C 0.69722 0.54664 0.2582 0.0
C10 C 0.77739 0.53779 0.40952 0.0
C11 C 0.67824 0.54813 0.1929 0.0
C12 C 0.63154 0.54222 0.13792 0.0
C13 C 0.64976 0.54151 0.19906 0.0
C14 C 0.66996 0.55625 0.0629 0.0
C15 C 0.64131 0.5497 0.06883 0.0
C16 C 0.68818 0.55548 0.12411 0.0
C17 C 0.8136 0.53509 0.16334 0.0
C18 C 0.8537 0.53257 0.08716 0.0
C19 C 0.85639 0.51516 0.21105 0.0
C20 C 0.82901 0.52324 0.22115 0.0
C21 C 0.86863 0.51913 0.14332 0.0
C22 C 0.82627 0.5404 0.09707 0.0
C23 C 0.78378 0.53976 0.1699 0.0
O24 O 0.77072 0.56163 0.37929 0.0
O25 O 0.7664 0.51631 0.37423 0.0
O26 O 0.76957 0.51819 0.19402 0.0
O27 O 0.77722 0.56328 0.2005 0.0
H28 H 0.79767 0.4979 0.50033 0.0
H29 H 0.84474 0.49379 0.55331 0.0
H30 H 0.87046 0.56817 0.43972 0.0
H31 H 0.8237 0.5716 0.38472 0.0
H32 H 0.60988 0.53628 0.14461 0.0
H33 H 0.64159 0.53549 0.25126 0.0
H34 H 0.67831 0.56208 1.01079 0.0
H35 H 0.71008 0.56051 0.11763 0.0
H36 H 0.86274 0.53566 0.03433 0.0
H37 H 0.86766 0.505 0.25511 0.0
H38 H 0.81947 0.5192 0.27294 0.0
H39 H 0.81462 0.54958 0.05213 0.0
C40 C 0.0329 0.81069 0.39156 0.0
C41 C 0.03915 0.83626 0.3575 0.0
C42 C 0.02989 0.86214 0.46914 0.0
C43 C 0.03759 0.86154 0.3956 0.0
C44 C 0.02281 0.83659 0.50223 0.0
C45 C 0.02447 0.81134 0.46426 0.0
U46 U 1.01709 0.75341 0.24409 0.0
O47 O 0.04733 0.728 0.18736 0.0
O48 O 1.01482 0.70749 0.25057 0.0
C49 C 0.03533 0.7043 0.20542 0.0
C50 C 0.03722 0.78325 0.35506 0.0
C51 C 0.03094 0.68368 0.14552 0.0
C52 C 0.04397 0.63996 0.08979 0.0
C53 C 0.04653 0.65933 0.14668 0.0
C54 C 1.01004 0.66881 0.0286 0.0
C55 C 0.02554 0.6442 0.02997 0.0
C56 C 1.01268 0.6883 0.08575 0.0
C57 C 0.96873 0.80627 0.16733 0.0
C58 C 0.96184 0.84742 0.09421 0.0
C59 C 0.9768 0.85189 0.22065 0.0
C60 C 0.9754 0.82301 0.22804 0.0
C61 C 0.97193 0.86422 0.15222 0.0
C62 C 0.96015 0.81865 0.10191 0.0
C63 C 0.97858 0.77776 0.16519 0.0
O64 O 1.01747 0.76407 0.36121 0.0
O65 O 0.04805 0.78357 0.29011 0.0
O66 O 1.00473 0.77661 0.14649 0.0
O67 O 0.97267 0.76171 0.2209 0.0
H68 H 0.04575 0.83679 0.30167 0.0
H69 H 0.04314 0.88063 0.36779 0.0
H70 H 1.01591 0.83601 0.55777 0.0
H71 H 1.01952 0.79215 0.49241 0.0
H72 H 0.05689 0.6218 0.0922 0.0
H73 H 0.06107 0.6554 0.19147 0.0
H74 H 0.9957 0.67289 0.98357 0.0
H75 H 1.00058 0.70703 0.08306 0.0
H76 H 0.95843 0.85597 0.04028 0.0
H77 H 0.98443 0.86428 0.26639 0.0
H78 H 0.98232 0.81374 0.27896 0.0
H79 H 0.95531 0.80602 0.05435 0.0
C80 C 0.73338 0.0221 0.35069 0.0
C81 C 0.71216 0.04154 0.33883 0.0
C82 C 0.68288 0.01918 0.43014 0.0
C83 C 0.68734 0.04005 0.37785 0.0
C84 C 0.70395 0.99962 0.44185 0.0
C85 C 0.72882 1.00108 0.40287 0.0
U86 U 0.78454 1.00531 0.19657 0.0
O87 O 0.81272 0.0338 0.13801 0.0
O88 O 0.83002 0.99825 0.19688 0.0
C89 C 0.83499 0.01904 0.15199 0.0
C90 C 0.76079 0.02516 0.31313 0.0
C91 C 0.85442 1.01439 0.09051 0.0
C92 C 0.89712 0.9941 0.04589 0.0
C93 C 0.87653 0.99579 0.09863 0.0
C94 C 0.87393 0.02908 0.97399 0.0
C95 C 0.89658 1.01115 0.98338 0.0
C96 C 0.8533 0.0308 0.02682 0.0
C97 C 0.72195 0.9654 0.13093 0.0
C98 C 0.67599 0.9671 0.0741 0.0
C99 C 0.68161 0.97405 0.20412 0.0
C100 C 0.71019 0.96963 0.19913 0.0
C101 C 0.66461 0.97489 0.14071 0.0
C102 C 0.70445 0.9624 0.06932 0.0
C103 C 0.7516 0.97182 0.12078 0.0
O104 O 0.77738 1.00374 0.31477 0.0
O105 O 0.76064 0.03793 0.24981 0.0
O106 O 0.75619 0.9979 0.10292 0.0
O107 O 0.76912 0.96281 0.17137 0.0
H108 H 0.71492 0.05832 0.3002 0.0
H109 H 0.67183 0.05575 0.36855 0.0
H110 H 0.70121 0.98315 0.48141 0.0
H111 H 0.74463 0.98586 0.41443 0.0
H112 H 0.91379 0.97965 0.055 0.0
H113 H 0.87842 0.983 0.14697 0.0
H114 H 0.8727 0.04266 0.92703 0.0
H115 H 0.83691 0.0457 1.01865 0.0
H116 H 0.66358 0.96754 0.02403 0.0
H117 H 0.67335 0.97919 0.25652 0.0
H118 H 0.7234 0.97207 0.2475 0.0
H119 H 0.71315 0.95936 1.01624 0.0
C120 C 0.55293 0.73235 0.3619 0.0
C121 C 0.5381 0.70891 0.33445 0.0
C122 C 0.54666 0.68349 0.44841 0.0
C123 C 0.5348 0.68484 0.37747 0.0
C124 C 0.56097 0.70719 0.47591 0.0
C125 C 0.56404 0.73123 0.4333 0.0
U126 U 0.53548 0.78851 0.21388 0.0
O127 O 0.5647 0.80737 0.13649 0.0
O128 O 0.54379 0.83388 0.21368 0.0
C129 C 0.55964 0.83292 0.15643 0.0
C130 C 0.5586 0.75764 0.31711 0.0
C131 C 0.55474 0.85351 0.09636 0.0
C132 C 0.53163 0.89431 0.04516 0.0
C133 C 0.5344 0.87409 0.10021 0.0
C134 C 0.56934 0.87393 0.98094 0.0
C135 C 0.54904 0.89452 0.9846 0.0
C136 C 0.57215 0.8538 0.03593 0.0
C137 C 0.46911 0.74663 0.17196 0.0
C138 C 0.44251 0.70976 0.11178 0.0
C139 C 0.46087 0.70277 0.23432 0.0
C140 C 0.4719 0.72995 0.23439 0.0
C141 C 0.44749 0.69186 0.17122 0.0
C142 C 0.45318 0.73687 0.1123 0.0
C143 C 0.48668 0.77154 0.16199 0.0
O144 O 0.56254 0.75402 0.24732 0.0
O145 O 0.54389 0.7797 0.33047 0.0
O146 O 0.48957 0.78869 0.21737 0.0
O147 O 0.51026 0.76651 0.13047 0.0
H148 H 0.52943 0.70902 0.27947 0.0
H149 H 0.52362 0.667 0.35456 0.0
H150 H 0.56989 0.70716 0.53065 0.0
H151 H 0.57555 0.74893 0.45595 0.0
H152 H 0.51577 0.90982 0.04997 0.0
H153 H 0.52077 0.87482 0.14609 0.0
H154 H 0.58361 0.87376 0.93635 0.0
H155 H 0.58839 0.83865 0.03175 0.0
H156 H 0.4325 0.7022 0.06195 0.0
H157 H 0.46435 0.68986 0.28185 0.0
H158 H 0.48409 0.73727 0.28122 0.0
H159 H 0.45092 0.74943 0.0636 0.0
C160 C 0.25112 0.51182 0.9384 0.0
C161 C 0.22822 0.49661 0.96544 0.0
C162 C 0.1971 0.5156 0.87062 0.0
C163 C 0.20159 0.49847 0.93193 0.0
C164 C 0.22011 0.53065 0.84364 0.0
C165 C 0.24667 0.52881 0.87713 0.0
U166 U 0.30311 0.5101 0.10312 0.0
O167 O 0.34473 0.52982 0.11789 0.0
O168 O 0.34021 0.48454 0.1247 0.0
C169 C 0.35694 0.5063 0.13393 0.0
C170 C 0.27983 0.50984 0.9714 0.0
C171 C 0.37578 0.50624 0.19982 0.0
C172 C 0.4191 0.49125 0.25927 0.0
C173 C 0.40021 0.49069 0.19955 0.0
C174 C 0.38935 0.52265 0.3218 0.0
C175 C 0.41422 0.50757 0.32094 0.0
C176 C 0.37039 0.52204 0.26199 0.0
C177 C 0.23787 0.51814 0.20889 0.0
C178 C 0.19505 0.51704 0.27499 0.0
C179 C 0.19437 0.53078 0.14797 0.0
C180 C 0.2231 0.52674 0.14607 0.0
C181 C 0.18012 0.52611 0.21268 0.0
C182 C 0.22367 0.51297 0.27295 0.0
C183 C 0.26813 0.51503 0.20849 0.0
O184 O 0.29022 0.53241 1.00287 0.0
O185 O 0.2856 0.48712 1.00823 0.0
O186 O 0.28204 0.53624 0.18121 0.0
O187 O 0.27647 0.49085 0.18549 0.0
H188 H 0.23085 0.48331 1.01259 0.0
H189 H 0.18441 0.48665 0.95447 0.0
H190 H 0.21771 0.54356 0.79568 0.0
H191 H 0.2639 0.54057 0.85459 0.0
H192 H 0.43756 0.47877 0.25712 0.0
H193 H 0.40484 0.47821 0.15262 0.0
H194 H 0.38482 0.53544 0.3682 0.0
H195 H 0.35169 0.53418 0.26402 0.0
H196 H 0.18479 0.51412 0.32627 0.0
H197 H 0.1834 0.53801 0.09951 0.0
H198 H 0.2339 0.5309 0.09616 0.0
H199 H 0.23482 0.50641 0.32185 0.0
C200 C 0.03802 0.23885 0.95886 0.0
C201 C 0.06315 0.22989 0.9295 0.0
C202 C 0.04149 0.18523 0.89217 0.0
C203 C 0.06486 0.2035 0.89686 0.0
C204 C 1.01651 0.19417 0.92217 0.0
C205 C 1.01481 0.22046 0.95483 0.0
U206 U 0.05059 0.29658 0.10565 0.0
O207 O 0.0199 0.32577 0.14556 0.0
O208 O 0.05892 0.34212 0.10204 0.0
C209 C 0.0363 0.34773 0.13783 0.0
C210 C 0.0349 0.26769 0.98879 0.0
C211 C 0.03917 0.367 0.20209 0.0
C212 C 0.05881 0.40931 0.2597 0.0
C213 C 0.05735 0.39038 0.20118 0.0
C214 C 0.0237 0.38226 0.32129 0.0
C215 C 0.04211 0.40545 0.321 0.0
C216 C 0.0223 0.36337 0.26312 0.0
C217 C 0.08689 0.23914 0.20322 0.0
C218 C 0.08856 0.19759 0.27662 0.0
C219 C 0.08143 0.1939 0.1459 0.0
C220 C 0.0834 0.22281 0.14029 0.0
C221 C 0.08275 0.18109 0.21461 0.0
C222 C 0.09076 0.22636 0.27081 0.0
C223 C 0.07979 0.26848 0.20125 0.0
O224 O 1.0195 0.27003 0.04641 0.0
O225 O 0.05706 0.28432 0.99152 0.0
O226 O 0.09139 0.28366 0.15031 0.0
O227 O 0.05294 0.27238 0.20642 0.0
H228 H 0.08145 0.24343 0.93059 0.0
H229 H 0.08434 0.19777 0.87329 0.0
H230 H 0.99807 0.1808 0.92015 0.0
H231 H 0.99503 0.22661 0.97602 0.0
H232 H 0.07315 0.42692 0.25711 0.0
H233 H 0.07033 0.3942 0.15479 0.0
H234 H 1.00984 0.37891 0.36609 0.0
H235 H 1.00757 0.34608 0.26581 0.0
H236 H 0.0888 0.18864 0.33069 0.0
H237 H 0.07688 0.18175 0.09733 0.0
H238 H 0.08 0.23248 0.08767 0.0
H239 H 0.09294 0.23871 0.31992 0.0
C240 C 0.32081 0.03368 0.9723 0.0
C241 C 0.33391 0.05963 0.95945 0.0
C242 C 0.37205 0.03733 0.89651 0.0
C243 C 0.35917 0.06142 0.92193 0.0
C244 C 0.3588 1.01149 0.90979 0.0
C245 C 0.33365 1.00973 0.94689 0.0
U246 U 0.27192 0.04474 0.13514 0.0
O247 O 0.2477 1.0126 0.1935 0.0
O248 O 0.22598 0.04693 0.14008 0.0
C249 C 0.22375 0.0249 0.18219 0.0
C250 C 0.29377 0.03053 1.0106 0.0
C251 C 0.20439 0.0266 0.24456 0.0
C252 C 0.15646 0.02827 0.28659 0.0
C253 C 0.17557 0.02824 0.22998 0.0
C254 C 0.19453 0.02586 0.37465 0.0
C255 C 0.16548 0.02707 0.36021 0.0
C256 C 0.21359 0.02501 0.31775 0.0
C257 C 0.301 0.08328 0.3015 0.0
C258 C 0.28786 0.06039 0.41319 0.0
C259 C 0.33299 0.0834 0.40517 0.0
C260 C 0.32594 0.09259 0.33521 0.0
C261 C 0.31521 0.06453 0.44096 0.0
C262 C 0.2807 0.07004 0.34353 0.0
C263 C 0.30178 0.07674 0.22391 0.0
O264 O 0.29442 1.01487 0.06914 0.0
O265 O 0.27819 0.05252 1.01782 0.0
O266 O 0.28207 0.08647 0.18047 0.0
O267 O 0.30669 0.05042 0.21272 0.0
H268 H 0.32461 0.07855 0.97795 0.0
H269 H 0.36831 0.08175 0.91167 0.0
H270 H 0.368 0.99244 0.89183 0.0
H271 H 0.32413 0.98944 0.95569 0.0
H272 H 0.13445 0.0288 0.27221 0.0
H273 H 0.16769 0.029 0.17425 0.0
H274 H 0.20275 0.02576 0.42999 0.0
H275 H 0.23552 0.0229 0.33127 0.0
H276 H 0.27357 0.04631 0.44022 0.0
H277 H 0.35416 0.08722 0.42515 0.0
H278 H 0.34179 0.10307 0.30375 0.0
H279 H 0.26109 0.0634 0.31832 0.0
C280 C 0.50548 0.31907 0.97948 0.0
C281 C 0.48361 0.33759 0.96741 0.0
C282 C 0.51409 0.36988 0.902 0.0
C283 C 0.48783 0.36259 0.92952 0.0
C284 C 0.53619 0.35144 0.91483 0.0
C285 C 0.53194 0.32634 0.95309 0.0
U286 U 0.52015 0.2575 0.11459 0.0
O287 O 0.51213 0.21226 0.10428 0.0
O288 O 0.48881 0.23639 0.18184 0.0
C289 C 0.49466 0.21154 0.15826 0.0
C290 C 0.49937 0.29196 1.01607 0.0
C291 C 0.49919 0.19024 0.21599 0.0
C292 C 0.47953 0.15605 0.29972 0.0
C293 C 0.4762 0.17527 0.24274 0.0
C294 C 0.5291 0.16607 0.30404 0.0
C295 C 0.50598 0.15131 0.33184 0.0
C296 C 0.52573 0.18541 0.24711 0.0
C297 C 0.58561 0.29702 0.18112 0.0
C298 C 0.62642 0.31959 0.23671 0.0
C299 C 0.58838 0.34718 0.18927 0.0
C300 C 0.57458 0.32309 0.16455 0.0
C301 C 0.61349 0.34545 0.23013 0.0
C302 C 0.61232 0.29542 0.21322 0.0
C303 C 0.56744 0.27218 0.17936 0.0
O304 O 0.51483 0.27068 1.00006 0.0
O305 O 0.49342 0.29288 0.08536 0.0
O306 O 0.54294 0.27586 0.20753 0.0
O307 O 0.56624 0.25773 0.11878 0.0
H308 H 0.46297 0.33253 0.98663 0.0
H309 H 0.47028 0.37609 0.92068 0.0
H310 H 0.55685 0.35654 0.89596 0.0
H311 H 0.5493 0.31259 0.96167 0.0
H312 H 0.46122 0.14526 0.31961 0.0
H313 H 0.45548 0.17871 0.22006 0.0
H314 H 0.5499 0.16257 0.32596 0.0
H315 H 0.54383 0.19671 0.22772 0.0
H316 H 0.64622 0.31779 0.2658 0.0
H317 H 0.57795 0.3668 0.18277 0.0
H318 H 0.55406 0.32469 0.13895 0.0
H319 H 0.62127 0.27542 0.22555 0.0
Eu320 Eu 1.01369 0.03534 0.62013 0.0
Eu321 Eu 0.05567 1.01218 0.74515 0.0
C322 C 0.04104 0.07639 0.74195 0.0
C323 C 0.99358 0.06364 0.43886 0.0
C324 C 0.9834 0.08767 0.40546 0.0
C325 C 0.03092 0.06274 0.35233 0.0
C326 C 0.99776 0.1 0.3484 0.0
C327 C 1.01663 0.05049 0.40974 0.0
C328 C 0.02257 0.0885 0.32424 0.0
C329 C 0.98485 0.0567 0.51265 0.0
O330 O 1.01399 1.0147 0.7988 0.0
O331 O 0.98289 0.01883 0.70315 0.0
C332 C 0.98821 1.01518 0.77325 0.0
O333 O 0.02399 0.99221 0.58209 0.0
O334 O 0.07264 0.01773 0.85565 0.0
O335 O 0.08461 0.9823 0.79274 0.0
O336 O 0.03625 0.97331 0.69185 0.0
C337 C 0.0295 0.97035 0.62228 0.0
O338 O 0.05724 0.04186 0.57445 0.0
O339 O 0.08397 1.0144 0.64936 0.0
O340 O 0.06195 0.05918 0.74574 0.0
O341 O 0.98335 0.03039 0.52981 0.0
O342 O 0.99775 0.07147 0.56294 0.0
O343 O 1.0179 0.06869 0.7072 0.0
C344 C 0.06987 0.97462 0.91266 0.0
C345 C 0.05091 0.95359 0.88974 0.0
C346 C 0.0549 0.96796 0.03696 0.0
C347 C 0.03383 0.94031 0.93935 0.0
C348 C 0.07205 0.98145 0.98686 0.0
C349 C 0.0351 0.94786 1.01296 0.0
C350 C 0.08258 0.99279 0.85775 0.0
C351 C 0.08058 0.02859 0.58879 0.0
H352 H 0.96586 0.09825 0.42771 0.0
H353 H 0.0497 0.05322 0.33382 0.0
H354 H 0.99087 0.1199 0.32796 0.0
H355 H 0.025 0.03202 0.4352 0.0
H356 H 0.04832 0.94812 0.83283 0.0
H357 H 0.05643 0.97379 0.0938 0.0
H358 H 1.01933 0.92427 0.91989 0.0
H359 H 0.08612 0.998 1.00546 0.0
Eu360 Eu 0.54304 0.04841 0.72389 0.0
Eu361 Eu 0.51312 1.00418 0.61305 0.0
C362 C 0.5391 0.9834 0.76423 0.0
C363 C 0.56912 0.07381 0.90297 0.0
C364 C 0.5938 0.08141 0.94051 0.0
C365 C 0.55765 0.04156 1.00008 0.0
C366 C 0.60119 0.06798 1.00523 0.0
C367 C 0.55034 0.05493 0.935 0.0
C368 C 0.58389 0.04677 0.03353 0.0
C369 C 0.56687 0.07931 0.82464 0.0
O370 O 0.48069 1.01265 0.69722 0.0
O371 O 0.49708 0.05385 0.74425 0.0
C372 C 0.47723 0.03479 0.7373 0.0
O373 O 0.53831 0.07294 0.61976 0.0
O374 O 0.49293 0.96348 0.59706 0.0
O375 O 0.49465 0.99236 0.50732 0.0
O376 O 0.50258 0.04694 0.56824 0.0
C377 C 0.51855 0.06956 0.56954 0.0
O378 O 0.57868 0.03166 0.65813 0.0
O379 O 0.55545 1.00978 0.56261 0.0
O380 O 0.53831 0.97852 0.69392 0.0
O381 O 0.58022 0.06165 0.78575 0.0
O382 O 0.54203 0.08401 0.79751 0.0
O383 O 0.53578 1.00877 0.78779 0.0
C384 C 0.45145 0.9702 0.52733 0.0
C385 C 0.43858 0.97776 0.46102 0.0
C386 C 0.40759 0.97702 0.58792 0.0
C387 C 0.41094 0.98629 0.45899 0.0
C388 C 0.43523 0.96844 0.59004 0.0
C389 C 0.3958 0.98735 0.52321 0.0
C390 C 0.48223 0.97036 0.53381 0.0
C391 C 0.57862 0.01974 0.59356 0.0
H392 H 0.6087 0.09559 0.91608 0.0
H393 H 0.54392 0.02538 1.0206 0.0
H394 H 0.62184 0.07214 0.02834 0.0
H395 H 0.53124 0.04855 0.90639 0.0
H396 H 0.45056 0.97934 0.41203 0.0
H397 H 0.39604 0.97736 0.63768 0.0
H398 H 0.40215 0.99424 0.40837 0.0
H399 H 0.44443 0.96256 0.64211 0.0
Eu400 Eu 0.50427 0.54055 0.73328 0.0
Eu401 Eu 0.55722 0.51975 0.64291 0.0
C402 C 0.56641 0.54247 0.80906 0.0
C403 C 0.45963 0.56737 0.88458 0.0
C404 C 0.4811 0.58281 0.91955 0.0
C405 C 0.43023 0.57486 0.98803 0.0
C406 C 0.47689 0.59502 0.98672 0.0
C407 C 0.43443 0.56277 0.92004 0.0
C408 C 0.45121 0.59174 1.02124 0.0
C409 C 0.46287 0.55793 0.80933 0.0
O410 O 0.53665 0.47989 0.68371 0.0
O411 O 0.51644 0.49914 0.78203 0.0
C412 C 0.52541 0.47721 0.74798 0.0
O413 O 0.48363 0.51909 0.6358 0.0
O414 O 0.59591 0.49733 0.6348 0.0
O415 O 0.58149 0.52241 0.54424 0.0
O416 O 0.52096 0.51837 0.56077 0.0
C417 C 0.49392 0.51632 0.57068 0.0
O418 O 0.51217 0.5722 0.64359 0.0
O419 O 0.55888 0.56674 0.64186 0.0
O420 O 0.57491 0.52648 0.75667 0.0
O421 O 0.47824 0.57399 0.76871 0.0
O422 O 0.468 0.53171 0.80019 0.0
O423 O 0.54168 0.55392 0.80505 0.0
C424 C 0.60578 0.48209 0.5174 0.0
C425 C 0.5897 0.45748 0.51788 0.0
C426 C 0.63358 0.46348 0.42126 0.0
C427 C 0.59575 0.43587 0.47109 0.0
C428 C 0.62761 0.48512 0.46863 0.0
C429 C 0.61792 0.43856 0.423 0.0
C430 C 0.59977 0.50462 0.56747 0.0
C431 C 0.53694 0.58152 0.6254 0.0
H432 H 0.50066 0.58676 0.89306 0.0
H433 H 0.41018 0.57209 1.01304 0.0
H434 H 0.49317 0.60868 1.00889 0.0
H435 H 0.41764 0.5508 0.89389 0.0
H436 H 0.57252 0.45496 0.55454 0.0
H437 H 0.65055 0.46604 0.38402 0.0
H438 H 0.58293 0.41708 0.47203 0.0
H439 H 0.64004 0.50416 0.46737 0.0
Eu440 Eu 0.03912 0.54908 0.62393 0.0
Eu441 Eu 0.02321 0.49813 0.73137 0.0
C442 C 0.08563 0.52094 0.72768 0.0
C443 C 0.05804 0.58666 0.4537 0.0
C444 C 0.08092 0.60161 0.42722 0.0
C445 C 0.05682 0.55814 0.34486 0.0
C446 C 0.09295 0.59354 0.36268 0.0
C447 C 0.04504 0.56592 0.41023 0.0
C448 C 0.08218 0.5704 0.32365 0.0
C449 C 0.05276 0.58792 0.53177 0.0
O450 O 0.02606 0.53589 0.80528 0.0
O451 O 0.02258 0.57132 0.72231 0.0
C452 C 0.02292 0.56241 0.79016 0.0
O453 O 0.99632 0.5337 0.58633 0.0
O454 O 0.03464 0.4725 0.82481 0.0
O455 O 0.99584 0.46404 0.76592 0.0
O456 O 0.9818 0.51676 0.69478 0.0
C457 C 0.97604 0.52563 0.62835 0.0
O458 O 0.04941 0.51069 0.55801 0.0
O459 O 0.0264 0.4768 0.62268 0.0
O460 O 0.0702 0.49818 0.72254 0.0
O461 O 0.0272 0.58329 0.55181 0.0
O462 O 0.0708 0.57448 0.57188 0.0
O463 O 0.07531 0.54456 0.70502 0.0
C464 C 0.99556 0.45942 0.89364 0.0
C465 C 0.96842 0.44807 0.89546 0.0
C466 C 0.98976 0.4788 1.01408 0.0
C467 C 0.95161 0.45333 0.95432 0.0
C468 C 1.00656 0.47369 0.95508 0.0
C469 C 0.96181 0.46978 1.01256 0.0
C470 C 1.01071 0.45921 0.8249 0.0
C471 C 0.03957 0.48502 0.5644 0.0
H472 H 0.09126 0.61759 0.46014 0.0
H473 H 0.04754 0.54085 0.31465 0.0
H474 H 0.11243 0.60354 0.34796 0.0
H475 H 0.0273 0.55407 0.42974 0.0
H476 H 0.95956 0.43676 0.84919 0.0
H477 H 0.99805 0.4912 0.05903 0.0
H478 H 0.92998 0.44639 0.95153 0.0
H479 H 0.02757 0.48237 0.95598 0.0
C480 C 0.12028 0.0433 0.41361 0.0
C481 C 0.14457 0.02736 0.42069 0.0
C482 C 0.10025 0.04398 0.46833 0.0
C483 C 0.10325 0.02869 0.53336 0.0
H484 H 0.11663 0.05547 0.365 0.0
H485 H 0.08201 0.05645 0.4591 0.0
S486 S 0.16162 0.98133 0.57774 0.0
N487 N 0.16925 0.99418 0.49727 0.0
N488 N 0.13224 0.99587 0.60003 0.0
C489 C 0.12729 1.01233 0.54115 0.0
C490 C 0.14768 1.01157 0.48516 0.0
C491 C 0.49528 0.10494 0.39151 0.0
C492 C 0.50922 0.13103 0.39387 0.0
C493 C 0.49801 0.08555 0.44872 0.0
C494 C 0.51482 0.09126 0.51127 0.0
H495 H 0.48244 0.09919 0.34435 0.0
H496 H 0.48713 0.0657 0.4431 0.0
S497 S 0.55401 0.15747 0.54754 0.0
N498 N 0.53913 0.16212 0.46658 0.0
N499 N 0.54461 0.12583 0.57308 0.0
C500 C 0.52849 0.11751 0.51492 0.0
C501 C 0.52564 0.13726 0.45667 0.0
C502 C 0.42625 0.50689 0.4561 0.0
C503 C 0.43503 0.50907 0.38373 0.0
C504 C 0.44536 0.50861 0.51569 0.0
C505 C 0.47426 0.51264 0.50598 0.0
H506 H 0.40434 0.5037 0.46692 0.0
H507 H 0.43727 0.50695 0.56996 0.0
S508 S 0.50806 0.52109 0.32732 0.0
N509 N 0.47465 0.51652 0.30603 0.0
N510 N 0.51044 0.51938 0.41692 0.0
C511 C 0.48332 0.51482 0.43367 0.0
C512 C 0.46382 0.51313 0.37307 0.0
C513 C 0.0434 0.45462 0.37191 0.0
C514 C 0.04336 0.42562 0.38387 0.0
C515 C 0.04305 0.47371 0.43022 0.0
C516 C 0.0424 0.4647 0.50322 0.0
H517 H 0.043 0.46267 0.31686 0.0
H518 H 0.04242 0.49569 0.41779 0.0
S519 S 0.04528 0.39128 0.56508 0.0
N520 N 0.04521 0.38919 0.47549 0.0
N521 N 0.04381 0.4247 0.58396 0.0
C522 C 0.04316 0.43583 0.51596 0.0
C523 C 0.04381 0.41646 0.4568 0.0
C524 C 0.91477 1.01174 0.85416 0.0
C525 C 0.92009 1.01123 0.93014 0.0
C526 C 0.93662 1.01256 0.80388 0.0
C527 C 0.96492 1.01297 0.82701 0.0
H528 H 0.89347 1.01141 0.83318 0.0
H529 H 0.9312 1.01306 0.74636 0.0
S530 S 0.99033 1.01356 1.02047 0.0
N531 N 0.95607 1.01251 0.02559 0.0
N532 N 0.99672 1.01339 0.93282 0.0
C533 C 0.97046 1.01246 0.9031 0.0
C534 C 0.94826 1.01176 0.95398 0.0
C535 C 0.5446 0.94479 0.94659 0.0
C536 C 0.54662 0.91666 0.9269 0.0
C537 C 0.54263 0.96599 0.89386 0.0
C538 C 0.54239 0.96018 0.81857 0.0
H539 H 0.54484 0.95057 1.00349 0.0
H540 H 0.54114 0.98718 0.91267 0.0
S541 S 0.54597 0.88971 0.73772 0.0
N542 N 0.54745 0.88407 0.82632 0.0
N543 N 0.54385 0.92369 0.72756 0.0
C544 C 0.5443 0.93207 0.79808 0.0
C545 C 0.54639 0.91046 0.85194 0.0
C546 C 0.6303 0.53702 0.93773 0.0
C547 C 0.62206 0.5495 1.00268 0.0
C548 C 0.61242 0.53543 0.87583 0.0
C549 C 0.58532 0.54636 0.87522 0.0
H550 H 0.65061 0.52774 0.93507 0.0
H551 H 0.61998 0.52514 0.82815 0.0
S552 S 0.55405 0.58288 0.03005 0.0
N553 N 0.58528 0.57433 0.06136 0.0
N554 N 0.55168 0.57114 0.94576 0.0
C555 C 0.57701 0.55948 0.93942 0.0
C556 C 0.59527 0.56104 1.00273 0.0
C557 C 0.02339 0.63147 0.89565 0.0
C558 C 0.02293 0.62315 0.96925 0.0
C559 C 0.02274 0.61188 0.8384 0.0
C560 C 0.02146 0.58298 0.8518 0.0
H561 H 0.02507 0.65333 0.88208 0.0
H562 H 0.02383 0.61957 0.78314 0.0
S563 S 1.01697 0.55035 0.03486 0.0
N564 N 1.01895 0.58395 0.05182 0.0
N565 N 1.01797 0.54737 0.94559 0.0
C566 C 0.02006 0.57447 0.92526 0.0
C567 C 0.02075 0.59442 0.98337 0.0
C568 C 0.04646 0.14397 0.1935 0.0
C569 C 0.07253 0.1521 0.22454 0.0
C570 C 0.03137 0.12128 0.22125 0.0
C571 C 0.04178 0.10606 0.28101 0.0
H572 H 0.0364 0.15673 0.15236 0.0
H573 H 1.01049 0.11702 0.19966 0.0
S574 S 0.1111 0.11633 0.37298 0.0
N575 N 0.11017 0.14038 0.30905 0.0
N576 N 0.08111 0.09905 0.36492 0.0
C577 C 0.06903 0.11229 0.30734 0.0
C578 C 0.0846 0.13497 0.278 0.0
C579 C 0.32702 1.01519 0.45851 0.0
C580 C 0.32847 0.04257 0.48574 0.0
C581 C 0.34766 0.99608 0.47651 0.0
C582 C 0.37001 1.0035 0.52363 0.0
H583 H 0.31176 1.00941 0.41644 0.0
H584 H 0.3474 0.97624 0.44884 0.0
S585 S 0.38015 0.0703 0.62162 0.0
N586 N 0.35156 0.07451 0.57102 0.0
N587 N 0.39026 0.03835 0.60584 0.0
C588 C 0.36982 0.02949 0.55829 0.0
C589 C 0.34897 0.0491 0.53927 0.0
C590 C 0.62168 0.39648 0.25061 0.0
C591 C 0.62231 0.36909 0.27761 0.0
C592 C 0.62246 0.4193 0.29798 0.0
C593 C 0.62375 0.41536 0.37372 0.0
H594 H 0.61888 0.40022 0.19279 0.0
H595 H 0.62009 0.43995 0.27543 0.0
S596 S 0.62968 0.34845 0.47198 0.0
N597 N 0.62698 0.33974 0.3853 0.0
N598 N 0.62915 0.3827 0.47346 0.0
C599 C 0.62679 0.38837 0.4011 0.0
C600 C 0.62595 0.36519 0.35323 0.0
C601 C 0.14239 0.56077 0.20027 0.0
C602 C 0.15058 0.53376 0.21909 0.0
C603 C 0.11781 0.57164 0.22681 0.0
C604 C 0.10081 0.55594 0.2735 0.0
H605 H 0.15627 0.57447 0.1707 0.0
H606 H 0.11344 0.59329 0.21623 0.0
S607 S 0.11015 0.4818 0.3237 0.0
N608 N 0.13723 0.48973 0.27375 0.0
N609 N 0.0917 0.51029 0.32671 0.0
C610 C 0.10708 0.52774 0.28477 0.0
C611 C 0.1319 0.51665 0.25694 0.0
C612 C 1.01206 0.89787 0.15752 0.0
C613 C 0.98414 0.89204 0.13564 0.0
C614 C 0.02794 0.91828 0.12222 0.0
C615 C 1.01643 0.93337 0.06383 0.0
H616 H 0.02267 0.88475 0.19688 0.0
H617 H 0.04997 0.92033 0.13606 0.0
S618 S 0.94274 0.93101 0.99801 0.0
N619 N 0.94428 0.90706 0.06236 0.0
N620 N 0.97442 0.94488 0.99442 0.0
C621 C 0.98777 0.93017 0.04752 0.0
C622 C 0.97151 0.90966 0.08401 0.0
C623 C 0.61585 0.97986 0.09199 0.0
C624 C 0.63756 0.98945 0.13907 0.0
C625 C 0.59566 0.99801 0.06483 0.0
C626 C 0.59629 0.02625 0.0847 0.0
H627 H 0.61624 0.95905 0.0698 0.0
H628 H 0.58162 0.99056 1.02178 0.0
S629 S 0.6432 0.05952 0.22321 0.0
N630 N 0.65475 0.02762 0.21607 0.0
N631 N 0.61571 0.06107 0.16765 0.0
C632 C 0.61484 0.03477 0.14094 0.0
C633 C 0.63577 0.01649 0.16769 0.0
C634 C 0.42029 0.65176 0.11713 0.0
C635 C 0.44328 0.66141 0.15992 0.0
C636 C 0.42132 0.62674 0.07875 0.0
C637 C 0.44516 0.61025 0.08319 0.0
H638 H 0.40269 0.66506 0.10679 0.0
H639 H 0.4047 0.62204 0.03939 0.0
S640 S 0.50635 0.62103 0.20794 0.0
N641 N 0.48763 0.64907 0.21795 0.0
N642 N 0.48851 0.60118 0.14942 0.0
C643 C 0.46586 0.61709 0.13608 0.0
C644 C 0.46518 0.6429 0.17385 0.0
C645 C 0.91666 0.52314 0.0963 0.0
C646 C 0.89558 0.50669 0.12726 0.0
C647 C 0.9396 0.51092 0.06498 0.0
C648 C 0.94196 0.48185 0.06286 0.0
H649 H 0.91458 0.54547 0.0926 0.0
H650 H 0.95442 0.52421 0.03728 0.0
S651 S 0.89398 0.42993 0.14401 0.0
N652 N 0.87972 0.46015 0.16017 0.0
N653 N 0.92297 0.43715 0.1007 0.0
C654 C 0.92209 0.46533 0.09827 0.0
C655 C 0.89884 0.47778 0.13079 0.0
C656 C 0.02075 0.1491 0.80507 0.0
C657 C 0.04254 0.15752 0.85371 0.0
C658 C 0.02079 0.12329 0.76892 0.0
C659 C 0.04261 0.10434 0.77934 0.0
H660 H 1.00344 0.16272 0.79426 0.0
H661 H 1.00333 0.11817 0.73248 0.0
S662 S 0.10431 0.11552 0.90328 0.0
N663 N 0.08633 0.14414 0.91177 0.0
N664 N 0.08657 0.09596 0.84381 0.0
C665 C 0.06462 0.11246 0.82779 0.0
C666 C 0.06456 0.13885 0.86474 0.0
C667 C 0.40177 0.02177 0.79323 0.0
C668 C 0.39878 0.03864 0.85501 0.0
C669 C 0.4269 0.02113 0.75562 0.0
C670 C 0.45038 0.0375 0.77689 0.0
H671 H 0.38449 1.00877 0.77357 0.0
H672 H 0.42795 1.00753 0.7093 0.0
S673 S 0.45424 0.08489 0.93617 0.0
N674 N 0.42214 0.07183 0.93676 0.0
N675 N 0.46898 0.07106 0.8651 0.0
C676 C 0.44767 0.05483 0.83796 0.0
C677 C 0.42205 0.05533 0.87695 0.0
C678 C 0.50702 0.4215 0.88906 0.0
C679 C 0.51809 0.3969 0.86159 0.0
C680 C 0.50954 0.447 0.85198 0.0
C681 C 0.52312 0.44933 0.785 0.0
H682 H 0.49641 0.42115 0.9403 0.0
H683 H 0.50059 0.46508 0.87642 0.0
S684 S 0.55539 0.39102 0.68805 0.0
N685 N 0.54291 0.37646 0.76215 0.0
N686 N 0.54777 0.42425 0.69268 0.0
C687 C 0.53433 0.42486 0.7567 0.0
C688 C 0.53185 0.3988 0.79485 0.0
C689 C 0.15257 0.49331 0.81857 0.0
C690 C 0.16867 0.5175 0.83437 0.0
C691 C 0.12608 0.49459 0.78358 0.0
C692 C 0.11431 0.52015 0.76282 0.0
H693 H 0.16065 0.47311 0.83259 0.0
H694 H 0.11476 0.47528 0.77279 0.0
S695 S 0.14709 0.58982 0.79618 0.0
N696 N 0.17017 0.56792 0.82951 0.0
N697 N 0.12087 0.57042 0.76369 0.0
C698 C 0.13013 0.54453 0.77905 0.0
C699 C 0.15709 0.54319 0.81467 0.0
C700 C 1.01845 0.91331 0.47766 0.0
C701 C 0.02933 0.88924 0.51073 0.0
C702 C 1.0182 0.93899 0.51448 0.0
C703 C 0.02878 0.94211 0.58656 0.0
H704 H 1.00987 0.91232 0.42262 0.0
H705 H 1.00964 0.95664 0.48563 0.0
S706 S 0.0608 0.88601 0.69763 0.0
N707 N 0.05191 0.87069 0.61994 0.0
N708 N 0.05099 0.91853 0.68902 0.0
C709 C 0.03965 0.91821 0.62053 0.0
C710 C 0.04001 0.89201 0.58285 0.0
C711 C 0.63017 0.01818 0.43729 0.0
C712 C 0.65656 0.01827 0.47298 0.0
C713 C 0.60524 0.0179 0.47649 0.0
C714 C 0.60548 0.01835 0.55331 0.0
H715 H 0.62877 0.01822 0.37839 0.0
H716 H 0.58558 0.01798 0.44613 0.0
S717 S 0.66913 0.01889 0.67305 0.0
N718 N 0.68129 0.01863 0.5899 0.0
N719 N 0.63482 0.01872 0.66322 0.0
C720 C 0.63178 0.01848 0.58956 0.0
C721 C 0.65713 0.01825 0.54963 0.0
C722 C 0.51867 0.64389 0.50376 0.0
C723 C 0.54459 0.65743 0.49347 0.0
C724 C 0.51634 0.61982 0.54742 0.0
C725 C 0.53988 0.6079 0.58196 0.0
H726 H 0.49994 0.65216 0.47858 0.0
H727 H 0.49588 0.61031 0.5533 0.0
S728 S 0.61282 0.63469 0.56985 0.0
N729 N 0.59441 0.65662 0.52008 0.0
N730 N 0.59018 0.61163 0.60117 0.0
C731 C 0.56597 0.62114 0.57135 0.0
C732 C 0.56827 0.64577 0.52754 0.0
C733 C 0.91411 0.53396 0.49422 0.0
C734 C 0.89043 0.52912 0.5365 0.0
C735 C 0.94135 0.53269 0.52442 0.0
C736 C 0.94649 0.52649 0.59865 0.0
H737 H 0.91164 0.53852 0.43673 0.0
H738 H 0.95858 0.53655 0.48867 0.0
S739 S 0.89187 0.5132 0.73455 0.0
N740 N 0.87412 0.51877 0.6579 0.0
N741 N 0.9251 0.51592 0.71409 0.0
C742 C 0.92302 0.52161 0.64178 0.0
C743 C 0.89517 0.523 0.61096 0.0
loop_
_geom_bond_atom_site_label_1
_geom_bond_atom_site_label_2
_geom_bond_distance
_geom_bond_site_symmetry_2
_ccdc_geom_bond_type
C0 C1 1.264 . S
C0 C5 1.479 . S
C0 C10 1.465 . S
C1 C0 1.264 . S
C1 C3 1.339 . S
C1 H28 0.931 . S
C2 C3 1.395 . S
C2 C4 1.320 . S
C3 C1 1.339 . S
C3 C2 1.395 . S
C3 H29 0.929 . S
C4 C2 1.320 . S
C4 C5 1.405 . S
C4 H30 0.930 . S
C5 C0 1.479 . S
C5 C4 1.405 . S
C5 H31 0.931 . S
U6 O7 2.454 . S
U6 O8 2.458 . S
U6 C9 2.984 . S
U6 C10 2.847 . S
U6 C23 2.882 . S
U6 O24 2.441 . S
U6 O25 2.420 . S
U6 O26 2.455 . S
U6 O27 2.449 . S
O7 U6 2.454 . S
O7 C9 1.353 . S
O8 U6 2.458 . S
O8 C9 1.286 . S
C9 U6 2.984 . S
C9 O7 1.353 . S
C9 O8 1.286 . S
C9 C11 1.363 . S
C10 C0 1.465 . S
C10 U6 2.847 . S
C10 O24 1.249 . S
C10 O25 1.202 . S
C11 C9 1.363 . S
C11 C13 1.408 . S
C11 C16 1.342 . S
C12 C13 1.310 . S
C12 C15 1.461 . S
C12 H32 0.932 . S
C13 C11 1.408 . S
C13 C12 1.310 . S
C13 H33 0.930 . S
C14 C15 1.474 . S
C14 C16 1.285 . S
C14 H34 0.929 . S
C15 C12 1.461 . S
C15 C14 1.474 . S
C16 C11 1.342 . S
C16 C14 1.285 . S
C16 H35 0.930 . S
C17 C20 1.424 . S
C17 C22 1.245 . S
C17 C23 1.428 . S
C18 C21 1.260 1_556 S
C18 C22 1.477 1_556 S
C18 H36 0.932 . S
C19 C20 1.384 . S
C19 C21 1.479 . S
C19 H37 0.929 . S
C20 C17 1.424 . S
C20 C19 1.384 . S
C20 H38 0.928 . S
C21 C18 1.260 1_554 S
C21 C19 1.479 . S
C22 C17 1.245 . S
C22 C18 1.477 1_554 S
C22 H39 0.932 . S
C23 U6 2.882 . S
C23 C17 1.428 . S
C23 O26 1.301 . S
C23 O27 1.282 . S
O24 U6 2.441 . S
O24 C10 1.249 . S
O25 U6 2.420 . S
O25 C10 1.202 . S
O26 U6 2.455 . S
O26 C23 1.301 . S
O27 U6 2.449 . S
O27 C23 1.282 . S
H28 C1 0.931 . S
H29 C3 0.929 . S
H30 C4 0.930 . S
H31 C5 0.931 . S
H32 C12 0.932 . S
H33 C13 0.930 . S
H34 C14 0.929 . S
H35 C16 0.930 . S
H36 C18 0.932 . S
H37 C19 0.929 . S
H38 C20 0.928 . S
H39 C22 0.932 . S
C40 C41 1.264 . S
C40 C45 1.479 . S
C40 C50 1.465 . S
C41 C40 1.264 . S
C41 C43 1.339 . S
C41 H68 0.931 . S
C42 C43 1.395 . S
C42 C44 1.320 . S
C43 C41 1.339 . S
C43 C42 1.395 . S
C43 H69 0.929 . S
C44 C42 1.320 . S
C44 C45 1.405 . S
C44 H70 0.930 . S
C45 C40 1.479 . S
C45 C44 1.405 . S
C45 H71 0.931 . S
U46 O47 2.454 . S
U46 O48 2.458 . S
U46 C49 2.984 . S
U46 C50 2.847 . S
U46 C63 2.882 . S
U46 O64 2.441 . S
U46 O65 2.420 . S
U46 O66 2.455 . S
U46 O67 2.449 . S
O47 U46 2.454 . S
O47 C49 1.353 . S
O48 U46 2.458 . S
O48 C49 1.286 . S
C49 U46 2.984 . S
C49 O47 1.353 . S
C49 O48 1.286 . S
C49 C51 1.363 . S
C50 C40 1.465 . S
C50 U46 2.847 . S
C50 O64 1.249 . S
C50 O65 1.202 . S
C51 C49 1.363 . S
C51 C53 1.408 . S
C51 C56 1.342 . S
C52 C53 1.310 . S
C52 C55 1.461 . S
C52 H72 0.932 . S
C53 C51 1.408 . S
C53 C52 1.310 . S
C53 H73 0.930 . S
C54 C55 1.474 . S
C54 C56 1.285 . S
C54 H74 0.929 . S
C55 C52 1.461 . S
C55 C54 1.474 . S
C56 C51 1.342 . S
C56 C54 1.285 . S
C56 H75 0.930 . S
C57 C60 1.424 . S
C57 C62 1.245 . S
C57 C63 1.428 . S
C58 C61 1.260 . S
C58 C62 1.477 . S
C58 H76 0.932 1_554 S
C59 C60 1.384 . S
C59 C61 1.479 . S
C59 H77 0.929 . S
C60 C57 1.424 . S
C60 C59 1.384 . S
C60 H78 0.928 . S
C61 C58 1.260 . S
C61 C59 1.479 . S
C62 C57 1.245 . S
C62 C58 1.477 . S
C62 H79 0.932 . S
C63 U46 2.882 . S
C63 C57 1.428 . S
C63 O66 1.301 . S
C63 O67 1.282 . S
O64 U46 2.441 . S
O64 C50 1.249 . S
O65 U46 2.420 . S
O65 C50 1.202 . S
O66 U46 2.455 . S
O66 C63 1.301 . S
O67 U46 2.449 . S
O67 C63 1.282 . S
H68 C41 0.931 . S
H69 C43 0.929 . S
H70 C44 0.930 . S
H71 C45 0.931 . S
H72 C52 0.932 . S
H73 C53 0.930 . S
H74 C54 0.929 . S
H75 C56 0.930 . S
H76 C58 0.932 1_556 S
H77 C59 0.929 . S
H78 C60 0.928 . S
H79 C62 0.932 . S
C80 C81 1.264 . S
C80 C85 1.479 . S
C80 C90 1.465 . S
C81 C80 1.264 . S
C81 C83 1.339 . S
C81 H108 0.931 . S
C82 C83 1.395 . S
C82 C84 1.320 . S
C83 C81 1.339 . S
C83 C82 1.395 . S
C83 H109 0.929 . S
C84 C82 1.320 . S
C84 C85 1.405 . S
C84 H110 0.930 . S
C85 C80 1.479 . S
C85 C84 1.405 . S
C85 H111 0.931 . S
U86 O87 2.454 . S
U86 O88 2.458 . S
U86 C89 2.984 . S
U86 C90 2.847 . S
U86 C103 2.882 . S
U86 O104 2.441 . S
U86 O105 2.420 . S
U86 O106 2.455 . S
U86 O107 2.449 . S
O87 U86 2.454 . S
O87 C89 1.353 . S
O88 U86 2.458 . S
O88 C89 1.286 . S
C89 U86 2.984 . S
C89 O87 1.353 . S
C89 O88 1.286 . S
C89 C91 1.363 . S
C90 C80 1.465 . S
C90 U86 2.847 . S
C90 O104 1.249 . S
C90 O105 1.202 . S
C91 C89 1.363 . S
C91 C93 1.408 . S
C91 C96 1.342 . S
C92 C93 1.310 . S
C92 C95 1.461 . S
C92 H112 0.932 . S
C93 C91 1.408 . S
C93 C92 1.310 . S
C93 H113 0.930 . S
C94 C95 1.474 . S
C94 C96 1.285 . S
C94 H114 0.929 . S
C95 C92 1.461 . S
C95 C94 1.474 . S
C96 C91 1.342 . S
C96 C94 1.285 . S
C96 H115 0.930 . S
C97 C100 1.424 . S
C97 C102 1.245 . S
C97 C103 1.428 . S
C98 C101 1.260 . S
C98 C102 1.477 . S
C98 H116 0.932 1_554 S
C99 C100 1.384 . S
C99 C101 1.479 . S
C99 H117 0.929 . S
C100 C97 1.424 . S
C100 C99 1.384 . S
C100 H118 0.928 . S
C101 C98 1.260 . S
C101 C99 1.479 . S
C102 C97 1.245 . S
C102 C98 1.477 . S
C102 H119 0.932 . S
C103 U86 2.882 . S
C103 C97 1.428 . S
C103 O106 1.301 . S
C103 O107 1.282 . S
O104 U86 2.441 . S
O104 C90 1.249 . S
O105 U86 2.420 . S
O105 C90 1.202 . S
O106 U86 2.455 . S
O106 C103 1.301 . S
O107 U86 2.449 . S
O107 C103 1.282 . S
H108 C81 0.931 . S
H109 C83 0.929 . S
H110 C84 0.930 . S
H111 C85 0.931 . S
H112 C92 0.932 . S
H113 C93 0.930 . S
H114 C94 0.929 . S
H115 C96 0.930 . S
H116 C98 0.932 1_556 S
H117 C99 0.929 . S
H118 C100 0.928 . S
H119 C102 0.932 . S
C120 C121 1.264 . S
C120 C125 1.479 . S
C120 C130 1.465 . S
C121 C120 1.264 . S
C121 C123 1.339 . S
C121 H148 0.931 . S
C122 C123 1.395 . S
C122 C124 1.320 . S
C123 C121 1.339 . S
C123 C122 1.395 . S
C123 H149 0.929 . S
C124 C122 1.320 . S
C124 C125 1.405 . S
C124 H150 0.930 . S
C125 C120 1.479 . S
C125 C124 1.405 . S
C125 H151 0.931 . S
U126 O127 2.454 . S
U126 O128 2.458 . S
U126 C129 2.984 . S
U126 C130 2.847 . S
U126 C143 2.882 . S
U126 O144 2.441 . S
U126 O145 2.420 . S
U126 O146 2.455 . S
U126 O147 2.449 . S
O127 U126 2.454 . S
O127 C129 1.353 . S
O128 U126 2.458 . S
O128 C129 1.286 . S
C129 U126 2.984 . S
C129 O127 1.353 . S
C129 O128 1.286 . S
C129 C131 1.363 . S
C130 C120 1.465 . S
C130 U126 2.847 . S
C130 O144 1.249 . S
C130 O145 1.202 . S
C131 C129 1.363 . S
C131 C133 1.408 . S
C131 C136 1.342 . S
C132 C133 1.310 . S
C132 C135 1.461 . S
C132 H152 0.932 . S
C133 C131 1.408 . S
C133 C132 1.310 . S
C133 H153 0.930 . S
C134 C135 1.474 . S
C134 C136 1.285 . S
C134 H154 0.929 . S
C135 C132 1.461 . S
C135 C134 1.474 . S
C136 C131 1.342 . S
C136 C134 1.285 . S
C136 H155 0.930 . S
C137 C140 1.424 . S
C137 C142 1.245 . S
C137 C143 1.428 . S
C138 C141 1.260 1_556 S
C138 C142 1.477 1_556 S
C138 H156 0.932 . S
C139 C140 1.384 . S
C139 C141 1.479 . S
C139 H157 0.929 . S
C140 C137 1.424 . S
C140 C139 1.384 . S
C140 H158 0.928 . S
C141 C138 1.260 1_554 S
C141 C139 1.479 . S
C142 C137 1.245 . S
C142 C138 1.477 1_554 S
C142 H159 0.932 . S
C143 U126 2.882 . S
C143 C137 1.428 . S
C143 O146 1.301 . S
C143 O147 1.282 . S
O144 U126 2.441 . S
O144 C130 1.249 . S
O145 U126 2.420 . S
O145 C130 1.202 . S
O146 U126 2.455 . S
O146 C143 1.301 . S
O147 U126 2.449 . S
O147 C143 1.282 . S
H148 C121 0.931 . S
H149 C123 0.929 . S
H150 C124 0.930 . S
H151 C125 0.931 . S
H152 C132 0.932 . S
H153 C133 0.930 . S
H154 C134 0.929 . S
H155 C136 0.930 . S
H156 C138 0.932 . S
H157 C139 0.929 . S
H158 C140 0.928 . S
H159 C142 0.932 . S
C160 C161 1.264 . S
C160 C165 1.479 . S
C160 C170 1.465 . S
C161 C160 1.264 . S
C161 C163 1.339 . S
C161 H188 0.931 . S
C162 C163 1.395 . S
C162 C164 1.320 . S
C163 C161 1.339 . S
C163 C162 1.395 . S
C163 H189 0.929 . S
C164 C162 1.320 . S
C164 C165 1.405 . S
C164 H190 0.930 . S
C165 C160 1.479 . S
C165 C164 1.405 . S
C165 H191 0.931 . S
U166 O167 2.454 . S
U166 O168 2.458 . S
U166 C169 2.984 . S
U166 C170 2.847 1_554 S
U166 C183 2.882 . S
U166 O184 2.441 1_554 S
U166 O185 2.420 1_554 S
U166 O186 2.455 . S
U166 O187 2.449 . S
O167 U166 2.454 . S
O167 C169 1.353 . S
O168 U166 2.458 . S
O168 C169 1.286 . S
C169 U166 2.984 . S
C169 O167 1.353 . S
C169 O168 1.286 . S
C169 C171 1.363 . S
C170 C160 1.465 . S
C170 U166 2.847 1_556 S
C170 O184 1.249 . S
C170 O185 1.202 . S
C171 C169 1.363 . S
C171 C173 1.408 . S
C171 C176 1.342 . S
C172 C173 1.310 . S
C172 C175 1.461 . S
C172 H192 0.932 . S
C173 C171 1.408 . S
C173 C172 1.310 . S
C173 H193 0.930 . S
C174 C175 1.474 . S
C174 C176 1.285 . S
C174 H194 0.929 . S
C175 C172 1.461 . S
C175 C174 1.474 . S
C176 C171 1.342 . S
C176 C174 1.285 . S
C176 H195 0.930 . S
C177 C180 1.424 . S
C177 C182 1.245 . S
C177 C183 1.428 . S
C178 C181 1.260 . S
C178 C182 1.477 . S
C178 H196 0.932 . S
C179 C180 1.384 . S
C179 C181 1.479 . S
C179 H197 0.929 . S
C180 C177 1.424 . S
C180 C179 1.384 . S
C180 H198 0.928 . S
C181 C178 1.260 . S
C181 C179 1.479 . S
C182 C177 1.245 . S
C182 C178 1.477 . S
C182 H199 0.932 . S
C183 U166 2.882 . S
C183 C177 1.428 . S
C183 O186 1.301 . S
C183 O187 1.282 . S
O184 U166 2.441 1_556 S
O184 C170 1.249 . S
O185 U166 2.420 1_556 S
O185 C170 1.202 . S
O186 U166 2.455 . S
O186 C183 1.301 . S
O187 U166 2.449 . S
O187 C183 1.282 . S
H188 C161 0.931 . S
H189 C163 0.929 . S
H190 C164 0.930 . S
H191 C165 0.931 . S
H192 C172 0.932 . S
H193 C173 0.930 . S
H194 C174 0.929 . S
H195 C176 0.930 . S
H196 C178 0.932 . S
H197 C179 0.929 . S
H198 C180 0.928 . S
H199 C182 0.932 . S
C200 C201 1.264 . S
C200 C205 1.479 . S
C200 C210 1.465 . S
C201 C200 1.264 . S
C201 C203 1.339 . S
C201 H228 0.931 . S
C202 C203 1.395 . S
C202 C204 1.320 . S
C203 C201 1.339 . S
C203 C202 1.395 . S
C203 H229 0.929 . S
C204 C202 1.320 . S
C204 C205 1.405 . S
C204 H230 0.930 . S
C205 C200 1.479 . S
C205 C204 1.405 . S
C205 H231 0.931 . S
U206 O207 2.454 . S
U206 O208 2.458 . S
U206 C209 2.984 . S
U206 C210 2.847 1_554 S
U206 C223 2.882 . S
U206 O224 2.441 1_554 S
U206 O225 2.420 1_554 S
U206 O226 2.455 . S
U206 O227 2.449 . S
O207 U206 2.454 . S
O207 C209 1.353 . S
O208 U206 2.458 . S
O208 C209 1.286 . S
C209 U206 2.984 . S
C209 O207 1.353 . S
C209 O208 1.286 . S
C209 C211 1.363 . S
C210 C200 1.465 . S
C210 U206 2.847 1_556 S
C210 O224 1.249 . S
C210 O225 1.202 . S
C211 C209 1.363 . S
C211 C213 1.408 . S
C211 C216 1.342 . S
C212 C213 1.310 . S
C212 C215 1.461 . S
C212 H232 0.932 . S
C213 C211 1.408 . S
C213 C212 1.310 . S
C213 H233 0.930 1_554 S
C214 C215 1.474 . S
C214 C216 1.285 . S
C214 H234 0.929 . S
C215 C212 1.461 . S
C215 C214 1.474 . S
C216 C211 1.342 . S
C216 C214 1.285 . S
C216 H235 0.930 . S
C217 C220 1.424 . S
C217 C222 1.245 . S
C217 C223 1.428 . S
C218 C221 1.260 . S
C218 C222 1.477 . S
C218 H236 0.932 . S
C219 C220 1.384 . S
C219 C221 1.479 . S
C219 H237 0.929 . S
C220 C217 1.424 . S
C220 C219 1.384 . S
C220 H238 0.928 . S
C221 C218 1.260 . S
C221 C219 1.479 . S
C222 C217 1.245 . S
C222 C218 1.477 . S
C222 H239 0.932 . S
C223 U206 2.882 . S
C223 C217 1.428 . S
C223 O226 1.301 . S
C223 O227 1.282 . S
O224 U206 2.441 1_556 S
O224 C210 1.249 . S
O225 U206 2.420 1_556 S
O225 C210 1.202 . S
O226 U206 2.455 . S
O226 C223 1.301 . S
O227 U206 2.449 . S
O227 C223 1.282 . S
H228 C201 0.931 . S
H229 C203 0.929 . S
H230 C204 0.930 . S
H231 C205 0.931 . S
H232 C212 0.932 . S
H233 C213 0.930 1_556 S
H234 C214 0.929 . S
H235 C216 0.930 . S
H236 C218 0.932 . S
H237 C219 0.929 . S
H238 C220 0.928 . S
H239 C222 0.932 . S
C240 C241 1.264 . S
C240 C245 1.479 . S
C240 C250 1.465 . S
C241 C240 1.264 . S
C241 C243 1.339 . S
C241 H268 0.931 . S
C242 C243 1.395 . S
C242 C244 1.320 . S
C243 C241 1.339 . S
C243 C242 1.395 . S
C243 H269 0.929 . S
C244 C242 1.320 . S
C244 C245 1.405 . S
C244 H270 0.930 . S
C245 C240 1.479 . S
C245 C244 1.405 . S
C245 H271 0.931 . S
U246 O247 2.454 1_554 S
U246 O248 2.458 . S
U246 C249 2.984 . S
U246 C250 2.847 1_554 S
U246 C263 2.882 . S
U246 O264 2.441 1_554 S
U246 O265 2.420 1_554 S
U246 O266 2.455 . S
U246 O267 2.449 . S
O247 U246 2.454 1_556 S
O247 C249 1.353 1_556 S
O248 U246 2.458 . S
O248 C249 1.286 . S
C249 U246 2.984 . S
C249 O247 1.353 1_554 S
C249 O248 1.286 . S
C249 C251 1.363 . S
C250 C240 1.465 . S
C250 U246 2.847 1_556 S
C250 O264 1.249 . S
C250 O265 1.202 . S
C251 C249 1.363 . S
C251 C253 1.408 . S
C251 C256 1.342 . S
C252 C253 1.310 . S
C252 C255 1.461 . S
C252 H272 0.932 1_554 S
C253 C251 1.408 . S
C253 C252 1.310 . S
C253 H273 0.930 1_554 S
C254 C255 1.474 . S
C254 C256 1.285 . S
C254 H274 0.929 . S
C255 C252 1.461 . S
C255 C254 1.474 . S
C256 C251 1.342 . S
C256 C254 1.285 . S
C256 H275 0.930 . S
C257 C260 1.424 . S
C257 C262 1.245 . S
C257 C263 1.428 . S
C258 C261 1.260 . S
C258 C262 1.477 . S
C258 H276 0.932 . S
C259 C260 1.384 . S
C259 C261 1.479 . S
C259 H277 0.929 . S
C260 C257 1.424 . S
C260 C259 1.384 . S
C260 H278 0.928 . S
C261 C258 1.260 . S
C261 C259 1.479 . S
C262 C257 1.245 . S
C262 C258 1.477 . S
C262 H279 0.932 . S
C263 U246 2.882 . S
C263 C257 1.428 . S
C263 O266 1.301 . S
C263 O267 1.282 . S
O264 U246 2.441 1_556 S
O264 C250 1.249 . S
O265 U246 2.420 1_556 S
O265 C250 1.202 . S
O266 U246 2.455 . S
O266 C263 1.301 . S
O267 U246 2.449 . S
O267 C263 1.282 . S
H268 C241 0.931 . S
H269 C243 0.929 . S
H270 C244 0.930 . S
H271 C245 0.931 . S
H272 C252 0.932 1_556 S
H273 C253 0.930 1_556 S
H274 C254 0.929 . S
H275 C256 0.930 . S
H276 C258 0.932 . S
H277 C259 0.929 . S
H278 C260 0.928 . S
H279 C262 0.932 . S
C280 C281 1.264 . S
C280 C285 1.479 . S
C280 C290 1.465 . S
C281 C280 1.264 . S
C281 C283 1.339 . S
C281 H308 0.931 . S
C282 C283 1.395 . S
C282 C284 1.320 . S
C283 C281 1.339 . S
C283 C282 1.395 . S
C283 H309 0.929 . S
C284 C282 1.320 . S
C284 C285 1.405 . S
C284 H310 0.930 . S
C285 C280 1.479 . S
C285 C284 1.405 . S
C285 H311 0.931 . S
U286 O287 2.454 . S
U286 O288 2.458 . S
U286 C289 2.984 . S
U286 C290 2.847 1_554 S
U286 C303 2.882 . S
U286 O304 2.441 1_554 S
U286 O305 2.420 1_554 S
U286 O306 2.455 . S
U286 O307 2.449 . S
O287 U286 2.454 . S
O287 C289 1.353 . S
O288 U286 2.458 . S
O288 C289 1.286 . S
C289 U286 2.984 . S
C289 O287 1.353 . S
C289 O288 1.286 . S
C289 C291 1.363 . S
C290 C280 1.465 . S
C290 U286 2.847 1_556 S
C290 O304 1.249 . S
C290 O305 1.202 . S
C291 C289 1.363 . S
C291 C293 1.408 . S
C291 C296 1.342 . S
C292 C293 1.310 . S
C292 C295 1.461 . S
C292 H312 0.932 . S
C293 C291 1.408 . S
C293 C292 1.310 . S
C293 H313 0.930 . S
C294 C295 1.474 . S
C294 C296 1.285 . S
C294 H314 0.929 . S
C295 C292 1.461 . S
C295 C294 1.474 . S
C296 C291 1.342 . S
C296 C294 1.285 . S
C296 H315 0.930 . S
C297 C300 1.424 . S
C297 C302 1.245 . S
C297 C303 1.428 . S
C298 C301 1.260 . S
C298 C302 1.477 . S
C298 H316 0.932 . S
C299 C300 1.384 . S
C299 C301 1.479 . S
C299 H317 0.929 . S
C300 C297 1.424 . S
C300 C299 1.384 . S
C300 H318 0.928 . S
C301 C298 1.260 . S
C301 C299 1.479 . S
C302 C297 1.245 . S
C302 C298 1.477 . S
C302 H319 0.932 . S
C303 U286 2.882 . S
C303 C297 1.428 . S
C303 O306 1.301 . S
C303 O307 1.282 . S
O304 U286 2.441 1_556 S
O304 C290 1.249 . S
O305 U286 2.420 1_556 S
O305 C290 1.202 . S
O306 U286 2.455 . S
O306 C303 1.301 . S
O307 U286 2.449 . S
O307 C303 1.282 . S
H308 C281 0.931 . S
H309 C283 0.929 . S
H310 C284 0.930 . S
H311 C285 0.931 . S
H312 C292 0.932 . S
H313 C293 0.930 . S
H314 C294 0.929 . S
H315 C296 0.930 . S
H316 C298 0.932 . S
H317 C299 0.929 . S
H318 C300 0.928 . S
H319 C302 0.932 . S
Eu320 C329 2.828 . S
Eu320 O331 2.392 . S
Eu320 O333 2.418 1_545 S
Eu320 O338 2.373 1_655 S
Eu320 O341 2.488 . S
Eu320 O342 2.471 . S
Eu320 O343 2.349 1_655 S
Eu321 O330 2.373 1_455 S
Eu321 O334 2.488 . S
Eu321 O335 2.471 . S
Eu321 O336 2.349 . S
Eu321 O339 2.392 1_565 S
Eu321 O340 2.418 1_565 S
Eu321 C350 2.828 . S
C322 O340 1.244 . S
C322 O343 1.265 . S
C323 C324 1.379 1_655 S
C323 C327 1.373 . S
C323 C329 1.505 . S
C324 C323 1.379 1_455 S
C324 C326 1.369 . S
C324 H352 0.930 . S
C325 C327 1.383 . S
C325 C328 1.382 . S
C325 H353 0.930 . S
C326 C324 1.369 . S
C326 C328 1.392 1_455 S
C326 H354 0.930 . S
C327 C323 1.373 . S
C327 C325 1.383 . S
C327 H355 0.931 . S
C328 C325 1.382 . S
C328 C326 1.392 1_655 S
C329 Eu320 2.828 . S
C329 C323 1.505 . S
C329 O341 1.249 . S
C329 O342 1.244 . S
O330 Eu321 2.373 1_655 S
O330 C332 1.258 . S
O331 Eu320 2.392 . S
O331 C332 1.242 1_545 S
C332 O330 1.258 . S
C332 O331 1.242 1_565 S
O333 Eu320 2.418 1_565 S
O333 C337 1.244 . S
O334 Eu321 2.488 . S
O334 C350 1.249 . S
O335 Eu321 2.471 . S
O335 C350 1.244 . S
O336 Eu321 2.349 . S
O336 C337 1.265 1_455 S
C337 O333 1.244 . S
C337 O336 1.265 1_655 S
O338 Eu320 2.373 1_455 S
O338 C351 1.258 . S
O339 Eu321 2.392 1_545 S
O339 C351 1.242 . S
O340 Eu321 2.418 1_545 S
O340 C322 1.244 . S
O341 Eu320 2.488 . S
O341 C329 1.249 . S
O342 Eu320 2.471 . S
O342 C329 1.244 . S
O343 Eu320 2.349 1_455 S
O343 C322 1.265 . S
C344 C345 1.379 . S
C344 C348 1.373 . S
C344 C350 1.505 . S
C345 C344 1.379 . S
C345 C347 1.369 . S
C345 H356 0.930 1_455 S
C346 C348 1.383 1_554 S
C346 C349 1.382 . S
C346 H357 0.930 . S
C347 C345 1.369 . S
C347 C349 1.392 1_556 S
C347 H358 0.930 1_455 S
C348 C344 1.373 . S
C348 C346 1.383 1_556 S
C348 H359 0.931 . S
C349 C346 1.382 . S
C349 C347 1.392 1_554 S
C350 Eu321 2.828 . S
C350 O334 1.249 . S
C350 O335 1.244 . S
C350 C344 1.505 . S
C351 O338 1.258 . S
C351 O339 1.242 . S
H352 C324 0.930 . S
H353 C325 0.930 . S
H354 C326 0.930 . S
H355 C327 0.931 . S
H356 C345 0.930 1_655 S
H357 C346 0.930 . S
H358 C347 0.930 1_655 S
H359 C348 0.931 . S
Eu360 C369 2.828 . S
Eu360 O371 2.392 . S
Eu360 O373 2.418 . S
Eu360 O378 2.373 . S
Eu360 O381 2.488 . S
Eu360 O382 2.471 . S
Eu360 O383 2.349 1_545 S
Eu361 O370 2.373 1_565 S
Eu361 O374 2.488 . S
Eu361 O375 2.471 1_565 S
Eu361 O376 2.349 1_565 S
Eu361 O379 2.392 . S
Eu361 O380 2.418 . S
Eu361 C390 2.828 . S
C362 O380 1.244 . S
C362 O383 1.265 . S
C363 C364 1.379 . S
C363 C367 1.373 . S
C363 C369 1.505 . S
C364 C363 1.379 . S
C364 C366 1.369 1_545 S
C364 H392 0.930 1_545 S
C365 C367 1.383 . S
C365 C368 1.382 . S
C365 H393 0.930 . S
C366 C364 1.369 1_565 S
C366 C368 1.390 1_565 S
C366 H394 0.932 . S
C367 C363 1.373 . S
C367 C365 1.383 . S
C367 H395 0.931 . S
C368 C365 1.382 . S
C368 C366 1.390 1_545 S
C369 Eu360 2.828 . S
C369 C363 1.505 . S
C369 O381 1.249 . S
C369 O382 1.244 . S
O370 Eu361 2.373 1_545 S
O370 C372 1.258 . S
O371 Eu360 2.392 . S
O371 C372 1.242 . S
C372 O370 1.258 . S
C372 O371 1.242 . S
O373 Eu360 2.418 . S
O373 C377 1.244 . S
O374 Eu361 2.488 . S
O374 C390 1.249 . S
O375 Eu361 2.471 1_545 S
O375 C390 1.244 1_545 S
O376 Eu361 2.349 1_545 S
O376 C377 1.265 . S
C377 O373 1.244 . S
C377 O376 1.265 . S
O378 Eu360 2.373 . S
O378 C391 1.258 1_545 S
O379 Eu361 2.392 . S
O379 C391 1.242 . S
O380 Eu361 2.418 . S
O380 C362 1.244 . S
O381 Eu360 2.488 . S
O381 C369 1.249 . S
O382 Eu360 2.471 . S
O382 C369 1.244 . S
O383 Eu360 2.349 1_565 S
O383 C362 1.265 . S
C384 C385 1.379 1_565 S
C384 C388 1.373 . S
C384 C390 1.505 . S
C385 C384 1.379 1_545 S
C385 C387 1.369 . S
C385 H396 0.930 . S
C386 C388 1.383 . S
C386 C389 1.382 . S
C386 H397 0.930 . S
C387 C385 1.369 . S
C387 C389 1.392 1_545 S
C387 H398 0.930 . S
C388 C384 1.373 . S
C388 C386 1.383 . S
C388 H399 0.931 . S
C389 C386 1.382 . S
C389 C387 1.392 1_565 S
C390 Eu361 2.828 . S
C390 O374 1.249 . S
C390 O375 1.244 1_565 S
C390 C384 1.505 . S
C391 O378 1.258 1_565 S
C391 O379 1.242 . S
H392 C364 0.930 1_565 S
H393 C365 0.930 . S
H394 C366 0.932 . S
H395 C367 0.931 . S
H396 C385 0.930 . S
H397 C386 0.930 . S
H398 C387 0.930 . S
H399 C388 0.931 . S
Eu400 C409 2.828 . S
Eu400 O411 2.392 . S
Eu400 O413 2.418 . S
Eu400 O418 2.373 . S
Eu400 O421 2.488 . S
Eu400 O422 2.471 . S
Eu400 O423 2.349 . S
Eu401 O410 2.373 . S
Eu401 O414 2.488 . S
Eu401 O415 2.471 . S
Eu401 O416 2.349 . S
Eu401 O419 2.392 . S
Eu401 O420 2.418 . S
Eu401 C430 2.828 . S
C402 O420 1.244 . S
C402 O423 1.265 . S
C403 C404 1.379 . S
C403 C407 1.373 . S
C403 C409 1.505 . S
C404 C403 1.379 . S
C404 C406 1.369 . S
C404 H432 0.930 . S
C405 C407 1.383 . S
C405 C408 1.382 . S
C405 H433 0.930 . S
C406 C404 1.369 . S
C406 C408 1.392 . S
C406 H434 0.930 . S
C407 C403 1.373 . S
C407 C405 1.383 . S
C407 H435 0.931 . S
C408 C405 1.382 . S
C408 C406 1.392 . S
C409 Eu400 2.828 . S
C409 C403 1.505 . S
C409 O421 1.249 . S
C409 O422 1.244 . S
O410 Eu401 2.373 . S
O410 C412 1.258 . S
O411 Eu400 2.392 . S
O411 C412 1.242 . S
C412 O410 1.258 . S
C412 O411 1.242 . S
O413 Eu400 2.418 . S
O413 C417 1.244 . S
O414 Eu401 2.488 . S
O414 C430 1.249 . S
O415 Eu401 2.471 . S
O415 C430 1.244 . S
O416 Eu401 2.349 . S
O416 C417 1.265 . S
C417 O413 1.244 . S
C417 O416 1.265 . S
O418 Eu400 2.373 . S
O418 C431 1.258 . S
O419 Eu401 2.392 . S
O419 C431 1.242 . S
O420 Eu401 2.418 . S
O420 C402 1.244 . S
O421 Eu400 2.488 . S
O421 C409 1.249 . S
O422 Eu400 2.471 . S
O422 C409 1.244 . S
O423 Eu400 2.349 . S
O423 C402 1.265 . S
C424 C425 1.379 . S
C424 C428 1.373 . S
C424 C430 1.505 . S
C425 C424 1.379 . S
C425 C427 1.369 . S
C425 H436 0.930 . S
C426 C428 1.383 . S
C426 C429 1.382 . S
C426 H437 0.930 . S
C427 C425 1.369 . S
C427 C429 1.392 . S
C427 H438 0.930 . S
C428 C424 1.373 . S
C428 C426 1.383 . S
C428 H439 0.931 . S
C429 C426 1.382 . S
C429 C427 1.392 . S
C430 Eu401 2.828 . S
C430 O414 1.249 . S
C430 O415 1.244 . S
C430 C424 1.505 . S
C431 O418 1.258 . S
C431 O419 1.242 . S
H432 C404 0.930 . S
H433 C405 0.930 . S
H434 C406 0.930 . S
H435 C407 0.931 . S
H436 C425 0.930 . S
H437 C426 0.930 . S
H438 C427 0.930 . S
H439 C428 0.931 . S
Eu440 C449 2.828 . S
Eu440 O451 2.392 . S
Eu440 O453 2.418 1_455 S
Eu440 O458 2.373 . S
Eu440 O461 2.488 . S
Eu440 O462 2.471 . S
Eu440 O463 2.349 . S
Eu441 O450 2.373 . S
Eu441 O454 2.488 . S
Eu441 O455 2.471 . S
Eu441 O456 2.349 . S
Eu441 O459 2.392 1_655 S
Eu441 O460 2.418 1_655 S
Eu441 C470 2.828 . S
C442 O460 1.244 . S
C442 O463 1.265 . S
C443 C444 1.379 . S
C443 C447 1.373 . S
C443 C449 1.505 . S
C444 C443 1.379 . S
C444 C446 1.369 . S
C444 H472 0.930 . S
C445 C447 1.383 . S
C445 C448 1.382 . S
C445 H473 0.930 . S
C446 C444 1.369 . S
C446 C448 1.392 . S
C446 H474 0.930 . S
C447 C443 1.373 . S
C447 C445 1.383 . S
C447 H475 0.931 . S
C448 C445 1.382 . S
C448 C446 1.392 . S
C449 Eu440 2.828 . S
C449 C443 1.505 . S
C449 O461 1.249 . S
C449 O462 1.244 . S
O450 Eu441 2.373 . S
O450 C452 1.266 . S
O451 Eu440 2.392 . S
O451 C452 1.226 1_455 S
C452 O450 1.266 . S
C452 O451 1.226 1_655 S
O453 Eu440 2.418 1_655 S
O453 C457 1.244 . S
O454 Eu441 2.488 . S
O454 C470 1.249 . S
O455 Eu441 2.471 . S
O455 C470 1.244 . S
O456 Eu441 2.349 . S
O456 C457 1.265 . S
C457 O453 1.244 . S
C457 O456 1.265 . S
O458 Eu440 2.373 . S
O458 C471 1.258 . S
O459 Eu441 2.392 1_455 S
O459 C471 1.242 . S
O460 Eu441 2.418 1_455 S
O460 C442 1.244 . S
O461 Eu440 2.488 . S
O461 C449 1.249 . S
O462 Eu440 2.471 . S
O462 C449 1.244 . S
O463 Eu440 2.349 . S
O463 C442 1.265 . S
C464 C465 1.379 . S
C464 C468 1.373 . S
C464 C470 1.505 . S
C465 C464 1.379 . S
C465 C467 1.369 . S
C465 H476 0.930 . S
C466 C468 1.383 . S
C466 C469 1.382 . S
C466 H477 0.930 1_556 S
C467 C465 1.369 . S
C467 C469 1.392 . S
C467 H478 0.930 . S
C468 C464 1.373 . S
C468 C466 1.383 . S
C468 H479 0.931 . S
C469 C466 1.382 . S
C469 C467 1.392 . S
C470 Eu441 2.828 . S
C470 O454 1.249 . S
C470 O455 1.244 . S
C470 C464 1.505 . S
C471 O458 1.258 . S
C471 O459 1.242 . S
H472 C444 0.930 . S
H473 C445 0.930 . S
H474 C446 0.930 . S
H475 C447 0.931 . S
H476 C465 0.930 . S
H477 C466 0.930 1_554 S
H478 C467 0.930 . S
H479 C468 0.931 . S
C480 C481 1.369 . S
C480 C482 1.419 . S
C480 H484 0.930 . S
C481 C480 1.369 . S
C481 C490 1.429 . S
C482 C480 1.419 . S
C482 C483 1.363 . S
C482 H485 0.929 . S
C483 C482 1.363 . S
C483 C489 1.428 . S
H484 C480 0.930 . S
H485 C482 0.929 . S
S486 N487 1.613 . S
S486 N488 1.610 . S
N487 S486 1.613 . S
N487 C490 1.350 . S
N488 S486 1.610 . S
N488 C489 1.351 . S
C489 C483 1.428 . S
C489 N488 1.351 . S
C489 C490 1.434 . S
C490 C481 1.429 . S
C490 N487 1.350 . S
C490 C489 1.434 . S
C491 C492 1.369 . S
C491 C493 1.419 . S
C491 H495 0.930 . S
C492 C491 1.369 . S
C492 C501 1.429 . S
C493 C491 1.419 . S
C493 C494 1.363 . S
C493 H496 0.929 . S
C494 C493 1.363 . S
C494 C500 1.428 . S
H495 C491 0.930 . S
H496 C493 0.929 . S
S497 N498 1.613 . S
S497 N499 1.610 . S
N498 S497 1.613 . S
N498 C501 1.350 . S
N499 S497 1.610 . S
N499 C500 1.351 . S
C500 C494 1.428 . S
C500 N499 1.351 . S
C500 C501 1.434 . S
C501 C492 1.429 . S
C501 N498 1.350 . S
C501 C500 1.434 . S
C502 C503 1.369 . S
C502 C504 1.419 . S
C502 H506 0.930 . S
C503 C502 1.369 . S
C503 C512 1.429 . S
C504 C502 1.419 . S
C504 C505 1.363 . S
C504 H507 0.929 . S
C505 C504 1.363 . S
C505 C511 1.428 . S
H506 C502 0.930 . S
H507 C504 0.929 . S
S508 N509 1.613 . S
S508 N510 1.610 . S
N509 S508 1.613 . S
N509 C512 1.350 . S
N510 S508 1.610 . S
N510 C511 1.351 . S
C511 C505 1.428 . S
C511 N510 1.351 . S
C511 C512 1.434 . S
C512 C503 1.429 . S
C512 N509 1.350 . S
C512 C511 1.434 . S
C513 C514 1.369 . S
C513 C515 1.419 . S
C513 H517 0.930 . S
C514 C513 1.369 . S
C514 C523 1.429 . S
C515 C513 1.419 . S
C515 C516 1.363 . S
C515 H518 0.929 1_455 S
C516 C515 1.363 . S
C516 C522 1.428 . S
H517 C513 0.930 . S
H518 C515 0.929 1_655 S
S519 N520 1.613 . S
S519 N521 1.610 . S
N520 S519 1.613 . S
N520 C523 1.350 . S
N521 S519 1.610 . S
N521 C522 1.351 . S
C522 C516 1.428 . S
C522 N521 1.351 . S
C522 C523 1.434 . S
C523 C514 1.429 . S
C523 N520 1.350 . S
C523 C522 1.434 . S
C524 C525 1.369 . S
C524 C526 1.419 1_554 S
C524 H528 0.930 . S
C525 C524 1.369 . S
C525 C534 1.448 . S
C526 C524 1.419 1_556 S
C526 C527 1.363 . S
C526 H529 0.929 . S
C527 C526 1.363 . S
C527 C533 1.428 1_565 S
H528 C524 0.930 . S
H529 C526 0.929 . S
S530 N531 1.613 . S
S530 N532 1.610 1_554 S
N531 S530 1.613 . S
N531 C534 1.333 1_545 S
N532 S530 1.610 1_556 S
N532 C533 1.351 . S
C533 C527 1.428 1_545 S
C533 N532 1.351 . S
C533 C534 1.430 1_546 S
C534 C525 1.448 . S
C534 N531 1.333 1_565 S
C534 C533 1.430 1_564 S
C535 C536 1.369 . S
C535 C537 1.419 1_554 S
C535 H539 0.930 . S
C536 C535 1.369 . S
C536 C545 1.429 1_554 S
C537 C535 1.419 1_556 S
C537 C538 1.363 . S
C537 H540 0.929 . S
C538 C537 1.363 . S
C538 C544 1.428 . S
H539 C535 0.930 . S
H540 C537 0.929 . S
S541 N542 1.613 1_556 S
S541 N543 1.610 . S
N542 S541 1.613 1_554 S
N542 C545 1.350 1_554 S
N543 S541 1.610 . S
N543 C544 1.351 . S
C544 C538 1.428 . S
C544 N543 1.351 . S
C544 C545 1.434 . S
C545 C536 1.429 1_556 S
C545 N542 1.350 1_556 S
C545 C544 1.434 . S
C546 C547 1.369 1_556 S
C546 C548 1.419 . S
C546 H550 0.930 1_556 S
C547 C546 1.369 1_554 S
C547 C556 1.429 1_554 S
C548 C546 1.419 . S
C548 C549 1.363 . S
C548 H551 0.929 . S
C549 C548 1.363 . S
C549 C555 1.428 . S
H550 C546 0.930 1_554 S
H551 C548 0.929 . S
S552 N553 1.613 . S
S552 N554 1.610 . S
N553 S552 1.613 . S
N553 C556 1.350 . S
N554 S552 1.610 . S
N554 C555 1.351 . S
C555 C549 1.428 . S
C555 N554 1.351 . S
C555 C556 1.434 . S
C556 C547 1.429 1_556 S
C556 N553 1.350 . S
C556 C555 1.434 . S
C557 C558 1.369 . S
C557 C559 1.409 1_654 S
C557 H561 0.930 1_655 S
C558 C557 1.369 . S
C558 C567 1.429 . S
C559 C557 1.409 1_456 S
C559 C560 1.343 1_455 S
C559 H562 0.962 . S
C560 C559 1.343 1_655 S
C560 C566 1.428 . S
H561 C557 0.930 1_455 S
H562 C559 0.962 . S
S563 N564 1.613 1_556 S
S563 N565 1.610 . S
N564 S563 1.613 1_554 S
N564 C567 1.350 . S
N565 S563 1.610 . S
N565 C566 1.351 . S
C566 C560 1.428 . S
C566 N565 1.351 . S
C566 C567 1.434 1_556 S
C567 C558 1.429 . S
C567 N564 1.350 . S
C567 C566 1.434 1_554 S
C568 C569 1.369 . S
C568 C570 1.419 . S
C568 H572 0.930 . S
C569 C568 1.369 . S
C569 C578 1.429 . S
C570 C568 1.419 . S
C570 C571 1.363 . S
C570 H573 0.929 1_455 S
C571 C570 1.363 . S
C571 C577 1.428 . S
H572 C568 0.930 . S
H573 C570 0.929 1_655 S
S574 N575 1.613 . S
S574 N576 1.610 . S
N575 S574 1.613 . S
N575 C578 1.350 . S
N576 S574 1.610 . S
N576 C577 1.351 . S
C577 C571 1.428 . S
C577 N576 1.351 . S
C577 C578 1.434 . S
C578 C569 1.429 . S
C578 N575 1.350 . S
C578 C577 1.434 . S
C579 C580 1.369 . S
C579 C581 1.419 . S
C579 H583 0.930 . S
C580 C579 1.369 . S
C580 C589 1.429 . S
C581 C579 1.419 . S
C581 C582 1.363 1_545 S
C581 H584 0.922 1_545 S
C582 C581 1.363 1_565 S
C582 C588 1.428 1_565 S
H583 C579 0.930 . S
H584 C581 0.922 1_565 S
S585 N586 1.613 . S
S585 N587 1.610 . S
N586 S585 1.613 . S
N586 C589 1.350 . S
N587 S585 1.610 . S
N587 C588 1.351 . S
C588 C582 1.428 1_545 S
C588 N587 1.351 . S
C588 C589 1.434 . S
C589 C580 1.429 . S
C589 N586 1.350 . S
C589 C588 1.434 . S
C590 C591 1.369 . S
C590 C592 1.419 . S
C590 H594 0.930 . S
C591 C590 1.369 . S
C591 C600 1.429 . S
C592 C590 1.419 . S
C592 C593 1.363 . S
C592 H595 0.929 . S
C593 C592 1.363 . S
C593 C599 1.428 . S
H594 C590 0.930 . S
H595 C592 0.929 . S
S596 N597 1.613 . S
S596 N598 1.610 . S
N597 S596 1.613 . S
N597 C600 1.350 . S
N598 S596 1.610 . S
N598 C599 1.351 . S
C599 C593 1.428 . S
C599 N598 1.351 . S
C599 C600 1.434 . S
C600 C591 1.429 . S
C600 N597 1.350 . S
C600 C599 1.434 . S
C601 C602 1.369 . S
C601 C603 1.419 . S
C601 H605 0.930 . S
C602 C601 1.369 . S
C602 C611 1.429 . S
C603 C601 1.419 . S
C603 C604 1.363 . S
C603 H606 0.929 . S
C604 C603 1.363 . S
C604 C610 1.428 . S
H605 C601 0.930 . S
H606 C603 0.929 . S
S607 N608 1.613 . S
S607 N609 1.610 . S
N608 S607 1.613 . S
N608 C611 1.350 . S
N609 S607 1.610 . S
N609 C610 1.351 . S
C610 C604 1.428 . S
C610 N609 1.351 . S
C610 C611 1.434 . S
C611 C602 1.429 . S
C611 N608 1.350 . S
C611 C610 1.434 . S
C612 C613 1.369 . S
C612 C614 1.419 1_655 S
C612 H616 0.930 . S
C613 C612 1.369 . S
C613 C622 1.429 1_554 S
C614 C612 1.419 1_455 S
C614 C615 1.363 . S
C614 H617 0.929 . S
C615 C614 1.363 . S
C615 C621 1.428 1_455 S
H616 C612 0.930 . S
H617 C614 0.929 . S
S618 N619 1.613 . S
S618 N620 1.610 . S
N619 S618 1.613 . S
N619 C622 1.350 . S
N620 S618 1.610 . S
N620 C621 1.351 1_556 S
C621 C615 1.428 1_655 S
C621 N620 1.351 1_554 S
C621 C622 1.434 1_554 S
C622 C613 1.429 1_556 S
C622 N619 1.350 . S
C622 C621 1.434 1_556 S
C623 C624 1.369 1_556 S
C623 C625 1.419 . S
C623 H627 0.930 1_556 S
C624 C623 1.369 1_554 S
C624 C633 1.429 . S
C625 C623 1.419 . S
C625 C626 1.363 1_565 S
C625 H628 0.929 . S
C626 C625 1.363 1_545 S
C626 C632 1.428 . S
H627 C623 0.930 1_554 S
H628 C625 0.929 . S
S629 N630 1.613 1_546 S
S629 N631 1.610 . S
N630 S629 1.613 1_564 S
N630 C633 1.350 . S
N631 S629 1.610 . S
N631 C632 1.351 . S
C632 C626 1.428 . S
C632 N631 1.351 . S
C632 C633 1.434 1_546 S
C633 C624 1.429 . S
C633 N630 1.350 . S
C633 C632 1.434 1_564 S
C634 C635 1.369 . S
C634 C636 1.419 . S
C634 H638 0.930 . S
C635 C634 1.369 . S
C635 C644 1.429 . S
C636 C634 1.419 . S
C636 C637 1.363 . S
C636 H639 0.929 . S
C637 C636 1.363 . S
C637 C643 1.428 . S
H638 C634 0.930 . S
H639 C636 0.929 . S
S640 N641 1.613 . S
S640 N642 1.610 1_554 S
N641 S640 1.613 . S
N641 C644 1.350 1_554 S
N642 S640 1.610 1_556 S
N642 C643 1.351 . S
C643 C637 1.428 . S
C643 N642 1.351 . S
C643 C644 1.434 . S
C644 C635 1.429 . S
C644 N641 1.350 1_556 S
C644 C643 1.434 . S
C645 C646 1.369 . S
C645 C647 1.419 . S
C645 H649 0.930 . S
C646 C645 1.369 . S
C646 C655 1.429 . S
C647 C645 1.419 . S
C647 C648 1.363 1_556 S
C647 H650 0.929 1_556 S
C648 C647 1.363 1_554 S
C648 C654 1.428 . S
H649 C645 0.930 . S
H650 C647 0.929 1_554 S
S651 N652 1.613 1_554 S
S651 N653 1.610 . S
N652 S651 1.613 1_556 S
N652 C655 1.350 . S
N653 S651 1.610 . S
N653 C654 1.351 . S
C654 C648 1.428 . S
C654 N653 1.351 . S
C654 C655 1.434 1_554 S
C655 C646 1.429 . S
C655 N652 1.350 . S
C655 C654 1.434 1_556 S
C656 C657 1.369 . S
C656 C658 1.419 . S
C656 H660 0.930 . S
C657 C656 1.369 . S
C657 C666 1.429 . S
C658 C656 1.419 . S
C658 C659 1.363 . S
C658 H661 0.929 . S
C659 C658 1.363 . S
C659 C665 1.428 . S
H660 C656 0.930 . S
H661 C658 0.929 . S
S662 N663 1.613 . S
S662 N664 1.610 . S
N663 S662 1.613 . S
N663 C666 1.350 . S
N664 S662 1.610 . S
N664 C665 1.351 . S
C665 C659 1.428 . S
C665 N664 1.351 . S
C665 C666 1.434 . S
C666 C657 1.429 . S
C666 N663 1.350 . S
C666 C665 1.434 . S
C667 C668 1.369 . S
C667 C669 1.419 . S
C667 H671 0.930 . S
C668 C667 1.369 . S
C668 C677 1.429 . S
C669 C667 1.419 . S
C669 C670 1.363 . S
C669 H672 0.929 . S
C670 C669 1.363 . S
C670 C676 1.428 . S
H671 C667 0.930 . S
H672 C669 0.929 . S
S673 N674 1.613 . S
S673 N675 1.610 . S
N674 S673 1.613 . S
N674 C677 1.350 . S
N675 S673 1.610 . S
N675 C676 1.351 . S
C676 C670 1.428 . S
C676 N675 1.351 . S
C676 C677 1.434 . S
C677 C668 1.429 . S
C677 N674 1.350 . S
C677 C676 1.434 . S
C678 C679 1.369 . S
C678 C680 1.419 . S
C678 H682 0.930 . S
C679 C678 1.369 . S
C679 C688 1.429 . S
C680 C678 1.419 . S
C680 C681 1.363 . S
C680 H683 0.929 . S
C681 C680 1.363 . S
C681 C687 1.428 . S
H682 C678 0.930 . S
H683 C680 0.929 . S
S684 N685 1.613 . S
S684 N686 1.610 . S
N685 S684 1.613 . S
N685 C688 1.350 . S
N686 S684 1.610 . S
N686 C687 1.351 . S
C687 C681 1.428 . S
C687 N686 1.351 . S
C687 C688 1.434 . S
C688 C679 1.429 . S
C688 N685 1.350 . S
C688 C687 1.434 . S
C689 C690 1.369 . S
C689 C691 1.419 . S
C689 H693 0.930 . S
C690 C689 1.369 . S
C690 C699 1.429 . S
C691 C689 1.419 . S
C691 C692 1.363 . S
C691 H694 0.929 . S
C692 C691 1.363 . S
C692 C698 1.428 . S
H693 C689 0.930 . S
H694 C691 0.929 . S
S695 N696 1.613 . S
S695 N697 1.610 . S
N696 S695 1.613 . S
N696 C699 1.350 . S
N697 S695 1.610 . S
N697 C698 1.351 . S
C698 C692 1.428 . S
C698 N697 1.351 . S
C698 C699 1.434 . S
C699 C690 1.429 . S
C699 N696 1.350 . S
C699 C698 1.434 . S
C700 C701 1.369 . S
C700 C702 1.419 . S
C700 H704 0.930 . S
C701 C700 1.369 . S
C701 C710 1.429 . S
C702 C700 1.419 . S
C702 C703 1.363 . S
C702 H705 0.929 . S
C703 C702 1.363 . S
C703 C709 1.428 1_655 S
H704 C700 0.930 . S
H705 C702 0.929 . S
S706 N707 1.613 . S
S706 N708 1.610 . S
N707 S706 1.613 . S
N707 C710 1.350 1_455 S
N708 S706 1.610 . S
N708 C709 1.351 . S
C709 C703 1.428 1_455 S
C709 N708 1.351 . S
C709 C710 1.434 1_455 S
C710 C701 1.429 . S
C710 N707 1.350 1_655 S
C710 C709 1.434 1_655 S
C711 C712 1.369 . S
C711 C713 1.419 . S
C711 H715 0.930 . S
C712 C711 1.369 . S
C712 C721 1.429 . S
C713 C711 1.419 . S
C713 C714 1.363 . S
C713 H716 0.929 . S
C714 C713 1.363 . S
C714 C720 1.428 . S
H715 C711 0.930 . S
H716 C713 0.929 . S
S717 N718 1.613 . S
S717 N719 1.610 . S
N718 S717 1.613 . S
N718 C721 1.350 1_545 S
N719 S717 1.610 . S
N719 C720 1.351 1_545 S
C720 C714 1.428 . S
C720 N719 1.351 1_565 S
C720 C721 1.434 . S
C721 C712 1.429 . S
C721 N718 1.350 1_565 S
C721 C720 1.434 . S
C722 C723 1.369 . S
C722 C724 1.419 . S
C722 H726 0.930 . S
C723 C722 1.369 . S
C723 C732 1.429 . S
C724 C722 1.419 . S
C724 C725 1.363 . S
C724 H727 0.929 . S
C725 C724 1.363 . S
C725 C731 1.428 . S
H726 C722 0.930 . S
H727 C724 0.929 . S
S728 N729 1.613 . S
S728 N730 1.610 . S
N729 S728 1.613 . S
N729 C732 1.350 . S
N730 S728 1.610 . S
N730 C731 1.351 . S
C731 C725 1.428 . S
C731 N730 1.351 . S
C731 C732 1.434 . S
C732 C723 1.429 . S
C732 N729 1.350 . S
C732 C731 1.434 . S
C733 C734 1.369 . S
C733 C735 1.419 . S
C733 H737 0.930 . S
C734 C733 1.369 . S
C734 C743 1.429 . S
C735 C733 1.419 . S
C735 C736 1.363 . S
C735 H738 0.929 . S
C736 C735 1.363 . S
C736 C742 1.428 . S
H737 C733 0.930 . S
H738 C735 0.929 . S
S739 N740 1.613 . S
S739 N741 1.610 . S
N740 S739 1.613 . S
N740 C743 1.350 . S
N741 S739 1.610 . S
N741 C742 1.351 . S
C742 C736 1.428 . S
C742 N741 1.351 . S
C742 C743 1.434 . S
C743 C734 1.429 . S
C743 N740 1.350 . S
C743 C742 1.434 . S
C481 C255 3.190 . S
C483 C351 3.473 . S
C494 C377 3.071 . S
C492 C295 2.707 . S
C505 C417 2.939 . S
C503 C175 2.605 . S
C516 C471 3.330 . S
C514 C215 3.079 . S
C527 C332 3.471 . S
C525 C95 3.188 . S
C536 C135 2.712 . S
C538 C362 3.071 . S
C547 C15 2.604 . S
C549 C402 2.939 . S
C558 C55 3.079 . S
C560 C452 3.339 . S
C571 C328 0.866 1_455 S
C569 C221 0.893 . S
C582 C389 0.976 . S
C580 C261 1.025 . S
C593 C429 0.550 . S
C591 C301 0.515 . S
C602 C181 0.763 . S
C604 C448 0.777 . S
C613 C61 0.825 . S
C615 C349 0.863 . S
C626 C368 0.984 . S
C624 C101 0.908 . S
C637 C408 0.541 . S
C635 C141 0.572 1_556 S
C646 C21 0.742 1_556 S
C648 C469 0.780 1_554 S
C657 C202 3.255 . S
C659 C322 3.681 . S
C668 C242 3.735 . S
C670 C372 4.117 . S
C681 C412 3.837 . S
C679 C282 3.438 . S
C692 C442 3.374 . S
C690 C162 2.975 . S
C701 C42 3.211 . S
C703 C337 3.681 . S
C714 C391 4.115 . S
C712 C82 3.706 . S
C725 C431 3.840 . S
C723 C122 3.500 . S
C734 C2 2.936 . S
C736 C457 3.375 . S
