# Generated by pormake.
# Topology tsx, (6,3)-cn, num edge types: 1
# Building blocks:
#     Node 0, Type 0, BuildingBlock: FUNLAD_clean_sbu_0, # of connection points: 6
#     Node 1, Type 0, BuildingBlock: FUNLAD_clean_sbu_0, # of connection points: 6
#     Node 2, Type 1, BuildingBlock: WUSLED_clean_sbu_0, # of connection points: 3
#     Node 3, Type 1, BuildingBlock: WUSLED_clean_sbu_0, # of connection points: 3
#     Node 4, Type 1, BuildingBlock: WUSLED_clean_sbu_0, # of connection points: 3
#     Node 5, Type 1, BuildingBlock: WUSLED_clean_sbu_0, # of connection points: 3
#     Edge 6, Type (0, 1), BuildingBlock: ZUJKAS_clean_linker_0, # of connection points: 2
#     Edge 7, Type (0, 1), BuildingBlock: ZUJKAS_clean_linker_0, # of connection points: 2
#     Edge 8, Type (0, 1), BuildingBlock: ZUJKAS_clean_linker_0, # of connection points: 2
#     Edge 9, Type (0, 1), BuildingBlock: ZUJKAS_clean_linker_0, # of connection points: 2
#     Edge 10, Type (0, 1), BuildingBlock: ZUJKAS_clean_linker_0, # of connection points: 2
#     Edge 11, Type (0, 1), BuildingBlock: ZUJKAS_clean_linker_0, # of connection points: 2
#     Edge 12, Type (0, 1), BuildingBlock: ZUJKAS_clean_linker_0, # of connection points: 2
#     Edge 13, Type (0, 1), BuildingBlock: ZUJKAS_clean_linker_0, # of connection points: 2
#     Edge 14, Type (0, 1), BuildingBlock: ZUJKAS_clean_linker_0, # of connection points: 2
#     Edge 15, Type (0, 1), BuildingBlock: ZUJKAS_clean_linker_0, # of connection points: 2
#     Edge 16, Type (0, 1), BuildingBlock: ZUJKAS_clean_linker_0, # of connection points: 2
#     Edge 17, Type (0, 1), BuildingBlock: ZUJKAS_clean_linker_0, # of connection points: 2
# Relax obj value: 0.157
# Max RMSD: 0.152
# Mean RMSD: 0.092
data_MOF--net-tsx--node1-FUNLAD_clean_sbu_0--node2-WUSLED_clean_sbu_0--edge1-ZUJKAS_clean_linker_0
_symmetry_space_group_name_H-M    P1
_symmetry_Int_Tables_number       1
_symmetry_cell_setting            triclinic
loop_
_symmetry_equiv_pos_as_xyz
'x, y, z'
_cell_length_a     30.501698
_cell_length_b     33.727878
_cell_length_c     63.197234
_cell_angle_alpha  91.41076
_cell_angle_beta   92.00846
_cell_angle_gamma 90.025576
loop_
_atom_site_label
_atom_site_type_symbol
_atom_site_fract_x
_atom_site_fract_y
_atom_site_fract_z
_atom_type_partial_charge
C0 C 0.95908 0.94664 0.00748 0.0
N1 N 0.02332 0.0096 0.05753 0.0
C2 C 0.98437 0.00877 0.06737 0.0
C3 C 0.98336 0.00978 0.08946 0.0
C4 C 0.02279 0.01196 0.10159 0.0
C5 C 0.06253 0.01302 0.09102 0.0
C6 C 0.06205 0.01165 0.06888 0.0
Zn7 Zn 0.02307 0.00737 0.02506 0.0
C8 C 0.08697 0.94791 0.00841 0.0
N9 N 0.02109 1.00183 0.95728 0.0
C10 C 0.98219 0.9992 0.94612 0.0
C11 C 0.05973 1.00395 0.94724 0.0
C12 C 0.0602 1.00386 0.92514 0.0
C13 C 0.02054 1.00133 0.91316 0.0
C14 C 0.98117 0.99878 0.92399 0.0
Zn15 Zn 0.0216 1.00386 0.98975 0.0
O16 O 0.97446 0.96276 0.02455 0.0
C17 C 0.95732 0.06291 0.00588 0.0
O18 O 0.9731 0.95784 0.98986 0.0
H19 H 0.0903 0.00609 0.9564 0.0
H20 H 0.95393 0.00734 0.05808 0.0
H21 H 0.95183 0.99756 0.95439 0.0
O22 O 0.97318 0.05208 0.02372 0.0
O23 O 0.97172 0.04717 0.98902 0.0
H24 H 0.09266 0.0121 0.06075 0.0
O25 O 0.07006 0.05001 0.99039 0.0
O26 O 0.07168 0.05199 0.02513 0.0
O27 O 0.07134 0.96039 0.99089 0.0
O28 O 0.07284 0.96249 0.02565 0.0
C29 C 0.08551 0.06477 0.00783 0.0
H30 H 0.95197 0.00941 0.09695 0.0
H31 H 0.09369 0.01432 0.09976 0.0
H32 H 0.09133 0.00644 0.91757 0.0
H33 H 0.94983 0.99617 0.91548 0.0
C34 C 0.45811 0.44825 0.5076 0.0
N35 N 0.52098 0.51078 0.55811 0.0
C36 C 0.48176 0.51272 0.56769 0.0
C37 C 0.4801 0.51368 0.58975 0.0
C38 C 0.51918 0.51236 0.60219 0.0
C39 C 0.55923 0.51039 0.59184 0.0
C40 C 0.55938 0.50972 0.56971 0.0
Zn41 Zn 0.52159 0.50873 0.52565 0.0
C42 C 0.58615 0.44951 0.50933 0.0
N43 N 0.52173 0.50362 0.45789 0.0
C44 C 0.48295 0.50362 0.44656 0.0
C45 C 0.56069 0.50284 0.44803 0.0
C46 C 0.56164 0.50203 0.42593 0.0
C47 C 0.52212 0.50229 0.41383 0.0
C48 C 0.4824 0.50309 0.42444 0.0
Zn49 Zn 0.52147 0.50564 0.49035 0.0
O50 O 0.47307 0.46408 0.52482 0.0
C51 C 0.45674 0.56464 0.50611 0.0
O52 O 0.47251 0.45986 0.49012 0.0
H53 H 0.59115 0.50306 0.45732 0.0
H54 H 0.45159 0.51351 0.55819 0.0
H55 H 0.45234 0.50412 0.45469 0.0
O56 O 0.47178 0.55351 0.52404 0.0
O57 O 0.47189 0.54919 0.48936 0.0
H58 H 0.59021 0.50811 0.56179 0.0
O59 O 0.57037 0.55136 0.49134 0.0
O60 O 0.57022 0.55346 0.52607 0.0
O61 O 0.57105 0.46211 0.49176 0.0
O62 O 0.57129 0.46376 0.52649 0.0
C63 C 0.58499 0.56615 0.50893 0.0
H64 H 0.44848 0.51587 0.59695 0.0
H65 H 0.59017 0.50878 0.6007 0.0
H66 H 0.593 0.50185 0.41841 0.0
H67 H 0.45118 0.50283 0.41573 0.0
C68 C 0.94617 0.06533 0.47253 0.0
C69 C 0.91855 0.08255 0.45711 0.0
C70 C 0.89036 0.12887 0.48354 0.0
C71 C 0.89079 0.11381 0.46257 0.0
C72 C 0.91806 0.11132 0.49898 0.0
C73 C 0.9457 0.07979 0.4935 0.0
U74 U 1.00339 0.00826 0.4296 0.0
O75 O 0.01426 0.94427 0.42425 0.0
O76 O 0.07046 0.98508 0.42758 0.0
C77 C 0.05719 0.94801 0.42562 0.0
C78 C 0.97613 0.03309 0.46654 0.0
C79 C 0.08138 0.91827 0.43821 0.0
C80 C 0.13773 0.90035 0.46452 0.0
C81 C 0.11113 0.92909 0.45487 0.0
C82 C 0.10395 0.84956 0.44163 0.0
C83 C 0.13516 0.86038 0.45764 0.0
C84 C 0.07751 0.87819 0.432 0.0
C85 C 0.98291 0.04047 0.37257 0.0
C86 C 0.99991 1.0001 0.34153 0.0
C87 C 0.98495 0.07022 0.338 0.0
C88 C 0.97864 0.07369 0.35978 0.0
C89 C 0.99547 0.03336 0.32861 0.0
C90 C 0.99391 1.00367 0.36334 0.0
C91 C 0.97591 0.04484 0.39543 0.0
O92 O 0.9577 1.00351 0.45557 0.0
O93 O 0.0133 0.04472 0.45878 0.0
O94 O 0.01029 0.05649 0.40706 0.0
O95 O 0.95392 0.01608 0.40392 0.0
H96 H 0.91852 0.07184 0.4408 0.0
H97 H 0.86942 0.12598 0.45033 0.0
H98 H 0.91901 0.12239 0.51522 0.0
H99 H 0.96699 0.06695 0.50559 0.0
H100 H 0.16156 0.90971 0.47675 0.0
H101 H 0.11486 0.95982 0.45999 0.0
H102 H 0.1005 0.81895 0.43623 0.0
H103 H 0.05486 0.86913 0.41919 0.0
H104 H 0.00848 0.97142 0.33479 0.0
H105 H 0.98087 0.09629 0.32846 0.0
H106 H 0.97023 0.10234 0.36663 0.0
H107 H 0.99778 0.97771 0.373 0.0
C108 C 0.95719 0.94837 0.54094 0.0
C109 C 0.94893 0.9199 0.55613 0.0
C110 C 0.89745 0.88572 0.5316 0.0
C111 C 0.91962 0.88883 0.55148 0.0
C112 C 0.90611 0.9142 0.51633 0.0
C113 C 0.93572 0.9453 0.52099 0.0
U114 U 0.0142 0.0107 0.58345 0.0
O115 O 0.08118 0.03453 0.58723 0.0
O116 O 0.02482 0.07509 0.58741 0.0
C117 C 0.06776 0.07156 0.58805 0.0
C118 C 0.98674 0.98192 0.5464 0.0
C119 C 0.09214 0.09999 0.57565 0.0
C120 C 0.12548 0.12043 0.54324 0.0
C121 C 0.10032 0.09325 0.55414 0.0
C122 C 0.13374 0.1613 0.5752 0.0
C123 C 0.1426 0.15475 0.5537 0.0
C124 C 0.10878 0.13423 0.58601 0.0
C125 C 0.9914 0.98259 0.64055 0.0
C126 C 0.03496 1.00209 0.67207 0.0
C127 C 0.96139 0.9764 0.67541 0.0
C128 C 0.95697 0.97203 0.65339 0.0
C129 C 1.0005 0.99131 0.68501 0.0
C130 C 0.03037 0.99795 0.65 0.0
C131 C 0.98586 0.97706 0.61743 0.0
O132 O 0.96799 0.01226 0.55589 0.0
O133 O 0.02457 0.9722 0.55547 0.0
O134 O 0.02055 0.9647 0.60741 0.0
O135 O 0.96434 0.00529 0.60759 0.0
H136 H 0.96502 0.92183 0.57168 0.0
H137 H 0.91448 0.86714 0.5635 0.0
H138 H 0.88933 0.91299 0.50094 0.0
H139 H 0.94143 0.96721 0.50913 0.0
H140 H 0.13144 0.11464 0.52666 0.0
H141 H 0.08763 0.06693 0.54587 0.0
H142 H 0.14702 0.18692 0.58389 0.0
H143 H 0.103 0.13978 0.60265 0.0
H144 H 0.0653 0.01404 0.67899 0.0
H145 H 0.93445 0.96741 0.68493 0.0
H146 H 0.92666 0.96012 0.64638 0.0
H147 H 0.05726 0.0066 0.64034 0.0
C148 C 0.45576 0.57016 0.97391 0.0
C149 C 0.43923 0.59618 0.95861 0.0
C150 C 0.39778 0.63169 0.98532 0.0
C151 C 0.41063 0.62668 0.96425 0.0
C152 C 0.41399 0.60515 1.00057 0.0
C153 C 0.44286 0.57467 0.9949 0.0
U154 U 0.51099 0.51227 0.93069 0.0
O155 O 0.52729 0.44914 0.92668 0.0
O156 O 0.57971 0.49397 0.92707 0.0
C157 C 0.5697 0.45604 0.92629 0.0
C158 C 0.48653 0.5386 0.96786 0.0
C159 C 0.5989 0.42956 0.9385 0.0
C160 C 0.61247 0.38145 0.96607 0.0
C161 C 0.58517 0.40975 0.95643 0.0
C162 C 0.66783 0.39363 0.94045 0.0
C163 C 0.65372 0.37246 0.95786 0.0
C164 C 0.64069 0.42178 0.93089 0.0
C165 C 0.48141 0.53818 0.87349 0.0
C166 C 0.52533 0.51957 0.84346 0.0
C167 C 0.45073 0.54255 0.83764 0.0
C168 C 0.44638 0.54724 0.85951 0.0
C169 C 0.49034 0.52889 0.82935 0.0
C170 C 0.52083 0.52397 0.86535 0.0
C171 C 0.47628 0.54382 0.89645 0.0
O172 O 0.46851 0.50756 0.95802 0.0
O173 O 0.52203 0.55105 0.95884 0.0
O174 O 0.5103 0.55907 0.9071 0.0
O175 O 0.45827 0.51405 0.90599 0.0
H176 H 0.44858 0.59294 0.94227 0.0
H177 H 0.39818 0.64611 0.95204 0.0
H178 H 0.40493 0.60835 0.01694 0.0
H179 H 0.45526 0.55477 0.00691 0.0
H180 H 0.60061 0.36557 0.97942 0.0
H181 H 0.55302 0.41532 0.96262 0.0
H182 H 0.69972 0.38799 0.93398 0.0
H183 H 0.65195 0.43679 0.91711 0.0
H184 H 0.55606 0.50854 0.83757 0.0
H185 H 0.42334 0.55034 0.82719 0.0
H186 H 0.4157 0.55818 0.86552 0.0
H187 H 0.54816 0.51644 0.87591 0.0
C188 C 0.45337 0.4489 0.04146 0.0
C189 C 0.43221 0.42913 0.0575 0.0
C190 C 0.39364 0.38683 0.03118 0.0
C191 C 0.40261 0.39847 0.05242 0.0
C192 C 0.41526 0.40652 0.01513 0.0
C193 C 0.44482 0.43743 0.02025 0.0
U194 U 0.51476 0.50786 0.08407 0.0
O195 O 0.58227 0.53063 0.08682 0.0
O196 O 0.52677 0.57198 0.08866 0.0
C197 C 0.56957 0.56784 0.08819 0.0
C198 C 0.4843 0.48126 0.04706 0.0
C199 C 0.59302 0.59631 0.07537 0.0
C200 C 0.63188 0.61369 0.04392 0.0
C201 C 0.60668 0.58669 0.05488 0.0
C202 C 0.62887 0.66035 0.07359 0.0
C203 C 0.64361 0.65074 0.05325 0.0
C204 C 0.60387 0.63343 0.08449 0.0
C205 C 0.49671 0.47761 0.14128 0.0
C206 C 0.50889 0.51859 0.17315 0.0
C207 C 0.50242 0.44729 0.17574 0.0
C208 C 0.49659 0.44381 0.15374 0.0
C209 C 0.50828 0.48474 0.18572 0.0
C210 C 0.50337 0.51505 0.1511 0.0
C211 C 0.489 0.47305 0.1182 0.0
O212 O 0.46712 0.51161 0.05725 0.0
O213 O 0.52205 0.46989 0.05556 0.0
O214 O 0.52271 0.46077 0.10745 0.0
O215 O 0.46689 0.50168 0.10896 0.0
H216 H 0.43865 0.43744 0.07399 0.0
H217 H 0.38712 0.38354 0.06518 0.0
H218 H 0.40884 0.39842 0.99862 0.0
H219 H 0.46089 0.4524 0.00767 0.0
H220 H 0.64235 0.6055 0.02821 0.0
H221 H 0.59849 0.55817 0.04753 0.0
H222 H 0.63785 0.68823 0.08144 0.0
H223 H 0.59383 0.6413 0.10033 0.0
H224 H 0.51383 0.54778 0.18037 0.0
H225 H 0.50133 0.4207 0.18498 0.0
H226 H 0.49148 0.41468 0.14644 0.0
H227 H 0.50397 0.54154 0.14176 0.0
H228 H 0.12903 0.09823 0.04232 0.0
H229 H 0.18238 0.15234 0.04309 0.0
H230 H 0.17116 0.15827 0.97506 0.0
H231 H 0.11747 0.10405 0.97408 0.0
H232 H 0.26442 0.1563 0.02216 0.0
H233 H 0.14682 0.27351 0.99691 0.0
H234 H 0.1291 0.22651 0.00673 0.0
H235 H 0.14825 0.22949 0.98029 0.0
C236 C 0.13783 0.11097 0.02748 0.0
C237 C 0.11877 0.0969 0.00813 0.0
C238 C 0.16843 0.14186 0.02797 0.0
C239 C 0.18036 0.15957 0.00917 0.0
C240 C 0.16192 0.14534 0.98977 0.0
H241 H 0.4013 0.32554 0.00214 0.0
H242 H 0.35012 0.27031 0.99498 0.0
C243 C 0.1314 0.11425 0.98925 0.0
C244 C 0.21208 0.19298 0.01004 0.0
H245 H 0.22076 0.29264 0.0026 0.0
C246 C 0.25504 0.18607 0.01775 0.0
C247 C 0.19952 0.23182 0.00446 0.0
C248 C 0.15336 0.2411 0.99677 0.0
C249 C 0.28576 0.21705 0.02017 0.0
C250 C 0.27324 0.25589 0.01455 0.0
C251 C 0.23034 0.26276 0.00672 0.0
C252 C 0.3034 0.29017 0.01793 0.0
C253 C 0.33094 0.20827 0.02936 0.0
C254 C 0.29351 0.32015 0.03278 0.0
C255 C 0.3225 0.35175 0.03682 0.0
C256 C 0.36191 0.35418 0.026 0.0
C257 C 0.37116 0.32464 0.01068 0.0
C258 C 0.34216 0.2929 0.0067 0.0
H259 H 0.33264 0.17861 0.03661 0.0
H260 H 0.35496 0.20891 0.01658 0.0
H261 H 0.34095 0.23108 0.04156 0.0
H262 H 0.26365 0.31873 0.04152 0.0
H263 H 0.31405 0.37431 0.04847 0.0
H264 H 0.12095 0.90935 0.97422 0.0
H265 H 0.17367 0.85497 0.97407 0.0
H266 H 0.18137 0.85893 0.04233 0.0
H267 H 0.1285 0.91377 0.0427 0.0
H268 H 0.26444 0.85358 0.02254 0.0
H269 H 0.14678 0.73989 0.99057 0.0
H270 H 0.14814 0.78403 0.97528 0.0
H271 H 0.12938 0.78671 1.00193 0.0
C272 C 0.13378 0.89877 0.98925 0.0
C273 C 0.12025 0.91583 0.00849 0.0
C274 C 0.16378 0.8675 0.98911 0.0
C275 C 0.18085 0.85248 0.00818 0.0
C276 C 0.1683 0.86993 0.02744 0.0
H277 H 0.32747 0.62901 0.01117 0.0
H278 H 0.27592 0.68254 0.01936 0.0
C279 C 0.1381 0.90124 0.02761 0.0
C280 C 0.21208 0.81876 0.00783 0.0
H281 H 0.22264 0.72283 0.99018 0.0
C282 C 0.25525 0.82486 0.01566 0.0
C283 C 0.19986 0.78115 0.99911 0.0
C284 C 0.15341 0.77229 0.99142 0.0
C285 C 0.28698 0.79478 0.01422 0.0
C286 C 0.27528 0.75784 0.00451 0.0
C287 C 0.23168 0.75126 0.99746 0.0
C288 C 0.30806 0.72614 1.0007 0.0
C289 C 0.33279 0.80284 0.02306 0.0
C290 C 0.34315 0.73286 0.98745 0.0
C291 C 0.37261 0.70241 0.98278 0.0
C292 C 0.36752 0.66449 0.99117 0.0
C293 C 0.3326 0.65796 0.00464 0.0
C294 C 0.303 0.68845 0.00925 0.0
H295 H 0.33327 0.82745 0.03509 0.0
H296 H 0.34715 0.77599 0.03039 0.0
H297 H 0.35393 0.81155 0.01001 0.0
H298 H 0.34726 0.76148 0.98037 0.0
H299 H 0.39935 0.70855 0.97251 0.0
H300 H 0.92432 0.89943 0.97492 0.0
H301 H 0.87041 0.84583 0.97742 0.0
H302 H 0.86384 0.86925 0.04463 0.0
H303 H 0.91792 0.92199 0.04239 0.0
H304 H 0.87384 0.79036 0.03497 0.0
H305 H 0.73839 0.85454 0.98562 0.0
H306 H 0.79021 0.84983 0.97311 0.0
H307 H 0.78497 0.88351 0.99534 0.0
C308 C 0.91118 0.89326 0.9902 0.0
C309 C 0.92547 0.915 0.00845 0.0
C310 C 0.88021 0.86276 0.99158 0.0
C311 C 0.86274 0.85379 0.01118 0.0
C312 C 0.87685 0.87562 0.02934 0.0
H313 H 0.63732 0.73167 0.05183 0.0
H314 H 0.69102 0.77803 0.03876 0.0
C315 C 0.9078 0.90585 0.02801 0.0
C316 C 0.83071 0.82102 0.01324 0.0
H317 H 0.72603 0.79152 0.99969 0.0
C318 C 0.84164 0.7904 0.02712 0.0
C319 C 0.78863 0.82132 0.00308 0.0
C320 C 0.77451 0.85417 0.98857 0.0
C321 C 0.81133 0.7607 0.03159 0.0
C322 C 0.76915 0.76104 0.02151 0.0
C323 C 0.75851 0.79113 0.00724 0.0
C324 C 0.73454 0.73248 0.02709 0.0
C325 C 0.82413 0.73032 0.04784 0.0
C326 C 0.74039 0.69142 0.02424 0.0
C327 C 0.70995 0.66476 0.03196 0.0
C328 C 0.67291 0.67871 0.04253 0.0
C329 C 0.66592 0.7199 0.04418 0.0
C330 C 0.69641 0.74647 0.03655 0.0
H331 H 0.85386 0.7394 0.05741 0.0
H332 H 0.79699 0.72536 0.05874 0.0
H333 H 0.83131 0.70172 0.03964 0.0
H334 H 0.76917 0.67997 0.01662 0.0
H335 H 0.71645 0.63327 0.03045 0.0
H336 H 0.92112 0.10633 0.03828 0.0
H337 H 0.86395 0.15737 0.03532 0.0
H338 H 0.85848 0.14004 0.96746 0.0
H339 H 0.91494 0.08918 0.97021 0.0
H340 H 0.86563 0.2286 0.01245 0.0
H341 H 0.72958 0.13108 0.9831 0.0
H342 H 0.77913 0.11206 0.99561 0.0
H343 H 0.77812 0.12487 0.96812 0.0
C344 C 0.90753 0.11326 0.02275 0.0
C345 C 0.92251 0.09354 0.00449 0.0
C346 C 0.87492 0.14242 0.0211 0.0
C347 C 0.85645 0.152 1.00121 0.0
C348 C 0.87157 0.13252 0.98301 0.0
H349 H 0.69755 0.31577 0.93561 0.0
H350 H 0.74437 0.26298 0.9493 0.0
C351 C 0.90411 0.10358 0.98462 0.0
C352 C 0.82251 0.18331 0.9991 0.0
H353 H 0.72079 0.20073 0.97701 0.0
C354 C 0.83361 0.22251 0.00508 0.0
C355 C 0.78069 0.1752 0.98958 0.0
C356 C 0.76594 0.13345 0.98392 0.0
C357 C 0.80501 0.25413 1.00057 0.0
C358 C 0.76415 0.24616 0.99003 0.0
C359 C 0.75224 0.20677 0.98499 0.0
C360 C 0.73513 0.27836 0.98227 0.0
C361 C 0.8196 0.29599 0.00604 0.0
C362 C 0.71397 0.30435 0.9963 0.0
C363 C 0.68715 0.33482 0.98848 0.0
C364 C 0.68126 0.33983 0.96652 0.0
C365 C 0.70205 0.31327 0.9526 0.0
C366 C 0.72858 0.28287 0.9604 0.0
H367 H 0.85468 0.2975 0.01135 0.0
H368 H 0.81454 0.31522 0.99215 0.0
H369 H 0.79956 0.30817 0.01899 0.0
H370 H 0.71816 0.30103 0.01325 0.0
H371 H 0.6716 0.35481 0.9996 0.0
H372 H 0.62941 0.59626 0.47583 0.0
H373 H 0.68512 0.64879 0.47738 0.0
H374 H 0.67102 0.6615 0.54486 0.0
H375 H 0.61631 0.60866 0.54356 0.0
H376 H 0.67967 0.7265 0.49024 0.0
H377 H 0.80221 0.64976 0.54123 0.0
H378 H 0.75582 0.62431 0.52865 0.0
H379 H 0.74953 0.65254 0.55291 0.0
C380 C 0.63837 0.6101 0.49102 0.0
C381 C 0.61862 0.59801 0.5096 0.0
C382 C 0.67019 0.64014 0.49187 0.0
C383 C 0.68292 0.65858 0.51129 0.0
C384 C 0.66267 0.64701 0.52977 0.0
H385 H 0.83799 0.85545 0.55843 0.0
H386 H 0.78729 0.80017 0.55177 0.0
C387 C 0.63113 0.6169 0.52897 0.0
C388 C 0.71646 0.69065 0.5123 0.0
H389 H 0.81226 0.7197 0.53777 0.0
C390 C 0.70895 0.72482 0.50042 0.0
C391 C 0.75482 0.68838 0.5255 0.0
C392 C 0.76636 0.6516 0.53762 0.0
C393 C 0.73782 0.75738 0.50208 0.0
C394 C 0.77523 0.75557 0.51586 0.0
C395 C 0.78334 0.72108 0.52732 0.0
C396 C 0.80549 0.78973 0.51936 0.0
C397 C 0.7274 0.79403 0.48967 0.0
C398 C 0.83265 0.80217 0.50331 0.0
C399 C 0.86218 0.8336 0.50713 0.0
C400 C 0.8651 0.85312 0.52709 0.0
C401 C 0.83732 0.84072 0.543 0.0
C402 C 0.80806 0.80926 0.5392 0.0
H403 H 0.69379 0.79308 0.48232 0.0
H404 H 0.73061 0.82097 0.50008 0.0
H405 H 0.75117 0.79673 0.47689 0.0
H406 H 0.83155 0.78711 0.48797 0.0
H407 H 0.8834 0.84198 0.4946 0.0
H408 H 0.61532 0.40508 0.54284 0.0
H409 H 0.66992 0.35154 0.54236 0.0
H410 H 0.68832 0.36972 0.47599 0.0
H411 H 0.63383 0.42276 0.47621 0.0
H412 H 0.66525 0.27999 0.51201 0.0
H413 H 0.81489 0.37266 0.50639 0.0
H414 H 0.76456 0.39163 0.517 0.0
H415 H 0.76936 0.38501 0.48891 0.0
C416 C 0.63121 0.39782 0.52818 0.0
C417 C 0.62023 0.41819 0.50957 0.0
C418 C 0.66229 0.36723 0.52794 0.0
C419 C 0.68333 0.357 0.50918 0.0
C420 C 0.67274 0.37749 0.49067 0.0
H421 H 0.87121 0.19425 0.46004 0.0
H422 H 0.82099 0.24829 0.46818 0.0
C423 C 0.64146 0.4077 0.49083 0.0
C424 C 0.71532 0.324 0.50853 0.0
H425 H 0.82287 0.30351 0.49989 0.0
C426 C 0.69985 0.28498 0.50965 0.0
C427 C 0.76026 0.3308 0.50531 0.0
C428 C 0.77854 0.37227 0.50447 0.0
C429 C 0.7279 0.25238 0.50672 0.0
C430 C 0.77287 0.25914 0.50314 0.0
C431 C 0.78846 0.2983 0.50263 0.0
C432 C 0.8038 0.22616 0.49866 0.0
C433 C 0.70865 0.21114 0.50648 0.0
C434 C 0.81144 0.19589 0.51321 0.0
C435 C 0.83971 0.16445 0.50843 0.0
C436 C 0.86129 0.16286 0.48909 0.0
C437 C 0.85445 0.19391 0.47486 0.0
C438 C 0.82603 0.22511 0.47958 0.0
H439 H 0.67239 0.21152 0.5041 0.0
H440 H 0.72271 0.19228 0.49377 0.0
H441 H 0.71642 0.19726 0.5219 0.0
H442 H 0.79546 0.1965 0.52824 0.0
H443 H 0.84399 0.14105 0.51974 0.0
H444 H 0.425 0.41516 0.54258 0.0
H445 H 0.37121 0.36199 0.54409 0.0
H446 H 0.36139 0.3552 0.47588 0.0
H447 H 0.41549 0.40895 0.47415 0.0
H448 H 0.27893 0.35505 0.49613 0.0
H449 H 0.39312 0.24382 0.52995 0.0
H450 H 0.39475 0.29033 0.5444 0.0
H451 H 0.41185 0.28803 0.51745 0.0
C452 C 0.41158 0.40243 0.52784 0.0
C453 C 0.42481 0.41623 0.50822 0.0
C454 C 0.38095 0.37183 0.52876 0.0
C455 C 0.36287 0.35417 0.51012 0.0
C456 C 0.37526 0.36824 0.49046 0.0
H457 H 0.20785 0.13817 0.52596 0.0
H458 H 0.25908 0.18496 0.51098 0.0
C459 C 0.40617 0.3989 0.4895 0.0
C460 C 0.33047 0.32156 0.51147 0.0
H461 H 0.3164 0.23122 0.53346 0.0
C462 C 0.28719 0.32769 0.504 0.0
C463 C 0.34144 0.28557 0.52138 0.0
C464 C 0.38792 0.27628 0.52857 0.0
C465 C 0.25406 0.29971 0.50728 0.0
C466 C 0.26444 0.26503 0.51861 0.0
C467 C 0.30825 0.25795 0.52498 0.0
C468 C 0.23019 0.23713 0.52542 0.0
C469 C 0.20821 0.3078 0.49877 0.0
C470 C 0.19663 0.25085 0.53835 0.0
C471 C 0.16716 0.22426 0.54677 0.0
C472 C 0.17086 0.18321 0.5427 0.0
C473 C 0.20373 0.16959 0.52924 0.0
C474 C 0.23322 0.19628 0.52077 0.0
H475 H 0.20865 0.32711 0.48478 0.0
H476 H 0.19066 0.27987 0.49419 0.0
H477 H 0.18954 0.32353 0.51117 0.0
H478 H 0.19413 0.28205 0.54258 0.0
H479 H 0.14197 0.23585 0.55688 0.0
H480 H 0.42065 0.60902 0.53819 0.0
H481 H 0.36263 0.65923 0.53487 0.0
H482 H 0.35624 0.63923 0.4672 0.0
H483 H 0.41376 0.58934 0.47027 0.0
H484 H 0.36269 0.73029 0.50929 0.0
H485 H 0.22763 0.62663 0.48562 0.0
H486 H 0.27809 0.61049 0.49853 0.0
H487 H 0.27612 0.61982 0.47062 0.0
C488 C 0.40677 0.61526 0.52261 0.0
C489 C 0.42176 0.59505 0.5045 0.0
C490 C 0.3737 0.64395 0.52076 0.0
C491 C 0.35478 0.6525 0.50082 0.0
C492 C 0.36991 0.63259 0.48276 0.0
H493 H 0.17762 0.80268 0.43539 0.0
H494 H 0.22916 0.75329 0.44879 0.0
C495 C 0.40299 0.60419 0.48456 0.0
C496 C 0.3198 0.68274 0.49852 0.0
H497 H 0.21531 0.69517 0.47872 0.0
C498 C 0.33017 0.7227 0.50295 0.0
C499 C 0.27745 0.67261 0.49031 0.0
C500 C 0.2639 0.63002 0.48617 0.0
C501 C 0.30005 0.75305 0.4982 0.0
C502 C 0.25833 0.74297 0.48911 0.0
C503 C 0.24738 0.70286 0.48559 0.0
C504 C 0.22684 0.77344 0.48149 0.0
C505 C 0.31389 0.79568 0.50189 0.0
C506 C 0.20813 0.80113 0.49546 0.0
C507 C 0.17834 0.82949 0.48783 0.0
C508 C 0.1665 0.83036 0.46611 0.0
C509 C 0.18533 0.80244 0.45225 0.0
C510 C 0.21502 0.77428 0.45986 0.0
H511 H 0.34977 0.79856 0.50524 0.0
H512 H 0.30484 0.81363 0.48791 0.0
H513 H 0.29667 0.8083 0.51569 0.0
H514 H 0.21621 0.80057 0.51227 0.0
H515 H 0.16412 0.85033 0.49894 0.0
H516 H 0.97314 0.96719 0.12721 0.0
H517 H 0.97112 0.97054 0.16594 0.0
H518 H 0.06959 0.06239 0.16789 0.0
H519 H 0.07152 0.05956 0.12914 0.0
H520 H 0.04658 0.96152 0.19668 0.0
H521 H 0.96331 0.10806 0.20175 0.0
H522 H 0.9617 0.0775 0.17785 0.0
H523 H 0.01043 0.10489 0.18544 0.0
C524 C 0.99418 0.98827 0.13588 0.0
C525 C 0.02234 0.01326 0.12511 0.0
C526 C 0.99316 0.98997 0.15798 0.0
C527 C 0.0199 0.01695 0.16971 0.0
C528 C 0.04841 0.04163 0.15907 0.0
H529 H 0.04041 0.08308 0.30351 0.0
H530 H 0.04832 0.07783 0.26513 0.0
C531 C 0.04969 0.03976 0.13697 0.0
C532 C 0.01787 0.01931 0.19308 0.0
H533 H 0.98553 0.07914 0.23397 0.0
C534 C 0.03322 0.98717 0.20489 0.0
C535 C 1.00059 0.05291 0.20366 0.0
C536 C 0.98273 0.08779 0.19161 0.0
C537 C 0.03227 0.98793 0.22711 0.0
C538 C 0.01441 0.02135 0.23772 0.0
C539 C 0.99921 0.05355 0.22585 0.0
C540 C 0.01078 0.02353 0.26111 0.0
C541 C 0.05133 0.95333 0.23899 0.0
C542 C 0.9868 0.99491 0.27162 0.0
C543 C 0.98239 0.99776 0.29356 0.0
C544 C 1.00133 0.02963 0.30539 0.0
C545 C 0.02514 0.05836 0.29481 0.0
C546 C 0.0298 0.05533 0.2729 0.0
H547 H 0.07501 0.93637 0.22934 0.0
H548 H 0.06826 0.96335 0.25402 0.0
H549 H 0.02446 0.93283 0.24286 0.0
H550 H 0.9708 0.97072 0.2628 0.0
H551 H 0.96324 0.97553 0.30119 0.0
H552 H 0.0789 0.96576 0.88658 0.0
H553 H 0.07885 0.96722 0.84794 0.0
H554 H 0.96034 0.0369 0.84751 0.0
H555 H 0.9613 0.03734 0.88615 0.0
H556 H 0.01858 0.93867 0.81918 0.0
H557 H 0.03594 0.10079 0.80984 0.0
H558 H 0.04479 0.0774 0.835 0.0
H559 H 0.98998 0.08798 0.82526 0.0
C560 C 0.05322 0.98202 0.87832 0.0
C561 C 0.02024 1.00164 0.88957 0.0
C562 C 0.05308 0.98256 0.8562 0.0
C563 C 0.02004 1.00275 0.84482 0.0
C564 C 0.98676 0.02191 0.85595 0.0
H565 H 0.94078 0.02028 0.71274 0.0
H566 H 0.94734 0.02315 0.75149 0.0
C567 C 0.987 0.0216 0.87807 0.0
C568 C 0.01952 1.0025 0.8213 0.0
H569 H 0.01658 0.06272 0.77855 0.0
C570 C 0.01854 0.9658 0.81031 0.0
C571 C 0.01954 0.03793 0.80972 0.0
C572 C 0.02306 0.07824 0.82055 0.0
C573 C 0.01649 0.96356 0.78808 0.0
C574 C 0.01572 0.99895 0.77655 0.0
C575 C 0.01704 0.03566 0.78748 0.0
C576 C 0.0127 0.99836 0.75311 0.0
C577 C 0.0141 0.9234 0.77704 0.0
C578 C 0.04761 0.98407 0.74123 0.0
C579 C 0.044 0.98243 0.71909 0.0
C580 C 0.00532 0.99494 0.70847 0.0
C581 C 0.97075 0.00994 0.72046 0.0
C582 C 0.97452 0.0118 0.74258 0.0
H583 H 0.00696 0.89938 0.78814 0.0
H584 H 0.9884 0.92314 0.76414 0.0
H585 H 0.046 0.91684 0.7698 0.0
H586 H 0.07752 0.97393 0.74909 0.0
H587 H 0.07108 0.97051 0.71031 0.0
H588 H 0.46008 0.47593 0.62712 0.0
H589 H 0.45688 0.47891 0.66568 0.0
H590 H 0.57373 0.55111 0.66942 0.0
H591 H 0.57597 0.55003 0.63082 0.0
H592 H 0.51497 0.45386 0.69601 0.0
H593 H 0.49145 0.61645 0.7048 0.0
H594 H 0.4862 0.59058 0.67951 0.0
H595 H 0.53959 0.60302 0.69077 0.0
C596 C 0.48474 0.49301 0.63608 0.0
C597 C 0.51804 0.51308 0.62576 0.0
C598 C 0.48307 0.49437 0.65817 0.0
C599 C 0.5146 0.51581 0.67044 0.0
C600 C 0.54845 0.53512 0.66027 0.0
H601 H 0.55971 0.55215 0.80631 0.0
H602 H 0.5668 0.54728 0.76781 0.0
C603 C 0.55002 0.534 0.63817 0.0
C604 C 0.51225 0.51746 0.69389 0.0
H605 H 0.50479 0.58126 0.73647 0.0
C606 C 0.51258 0.48171 0.70484 0.0
C607 C 0.50904 0.55384 0.70541 0.0
C608 C 0.50611 0.59314 0.69453 0.0
C609 C 0.51033 0.48138 0.727 0.0
C610 C 0.5074 0.51772 0.73847 0.0
C611 C 0.50726 0.55347 0.72759 0.0
C612 C 0.50364 0.5193 0.76178 0.0
C613 C 0.51165 0.44224 0.73805 0.0
C614 C 0.46568 0.50533 0.77107 0.0
C615 C 0.46148 0.50816 0.79302 0.0
C616 C 0.49525 0.52493 0.80608 0.0
C617 C 0.53337 0.53866 0.7967 0.0
C618 C 0.53739 0.53609 0.77473 0.0
H619 H 0.52299 0.41772 0.72753 0.0
H620 H 0.53364 0.44407 0.75242 0.0
H621 H 0.47821 0.43484 0.74312 0.0
H622 H 0.43907 0.49269 0.7613 0.0
H623 H 0.43186 0.49708 0.79978 0.0
H624 H 0.57331 0.45723 0.38789 0.0
H625 H 0.57328 0.45625 0.34911 0.0
H626 H 0.47098 0.5444 0.34779 0.0
H627 H 0.47121 0.54602 0.38656 0.0
H628 H 0.49837 0.4389 0.32077 0.0
H629 H 0.56759 0.58921 0.30981 0.0
H630 H 0.57307 0.56375 0.33458 0.0
H631 H 0.52202 0.58679 0.32703 0.0
C632 C 0.55115 0.47674 0.37935 0.0
C633 C 0.52233 0.50178 0.3903 0.0
C634 C 0.55103 0.47599 0.35721 0.0
C635 C 0.52249 0.50058 0.34562 0.0
C636 C 0.49367 0.52559 0.35646 0.0
H637 H 0.46846 0.53843 0.21191 0.0
H638 H 0.47271 0.54206 0.25067 0.0
C639 C 0.49356 0.52619 0.3786 0.0
C640 C 0.52185 0.49909 0.32216 0.0
H641 H 0.54187 0.55415 0.27891 0.0
C642 C 0.50807 0.46398 0.31158 0.0
C643 C 0.53428 0.53199 0.31029 0.0
C644 C 0.55042 0.57004 0.32093 0.0
C645 C 0.5056 0.46108 0.28937 0.0
C646 C 0.51836 0.49389 0.27743 0.0
C647 C 0.53219 0.52902 0.28806 0.0
C648 C 0.51721 0.49244 0.25391 0.0
C649 C 0.48815 0.42327 0.27892 0.0
C650 C 0.54159 0.46394 0.24284 0.0
C651 C 0.53911 0.46173 0.22071 0.0
C652 C 0.51265 0.48834 0.20919 0.0
C653 C 0.48937 0.51768 0.22031 0.0
C654 C 0.49163 0.5197 0.24246 0.0
H655 H 0.46854 0.40585 0.28992 0.0
H656 H 0.46735 0.4296 0.26463 0.0
H657 H 0.5161 0.40457 0.27399 0.0
H658 H 0.56251 0.44332 0.25131 0.0
H659 H 0.55804 0.43926 0.21258 0.0
loop_
_geom_bond_atom_site_label_1
_geom_bond_atom_site_label_2
_geom_bond_distance
_geom_bond_site_symmetry_2
_ccdc_geom_bond_type
C0 O16 1.251 . S
C0 O18 1.254 1_554 S
N1 C2 1.333 1_445 S
N1 C6 1.307 . S
N1 Zn7 2.020 . S
C2 N1 1.333 1_665 S
C2 C3 1.379 . S
C2 H20 0.952 . S
C3 C2 1.379 . S
C3 C4 1.390 1_665 S
C3 H30 0.949 . S
C4 C3 1.390 1_445 S
C4 C5 1.357 . S
C5 C4 1.357 . S
C5 C6 1.370 . S
C5 H31 0.950 . S
C6 N1 1.307 . S
C6 C5 1.370 . S
C6 H24 0.948 . S
Zn7 N1 2.020 . S
Zn7 O16 2.039 1_445 S
Zn7 O22 2.034 1_455 S
Zn7 O26 2.025 . S
Zn7 O28 2.024 1_545 S
C8 O27 1.246 1_554 S
C8 O28 1.249 . S
N9 C10 1.307 1_445 S
N9 C11 1.333 . S
N9 Zn15 2.020 . S
C10 N9 1.307 1_665 S
C10 C14 1.370 . S
C10 H21 0.948 . S
C11 N9 1.333 . S
C11 C12 1.379 . S
C11 H19 0.952 . S
C12 C11 1.379 . S
C12 C13 1.390 . S
C12 H32 0.949 . S
C13 C12 1.390 . S
C13 C14 1.357 1_445 S
C14 C10 1.370 . S
C14 C13 1.357 1_665 S
C14 H33 0.950 . S
Zn15 N9 2.020 . S
Zn15 O18 2.025 1_445 S
Zn15 O23 2.024 1_455 S
Zn15 O25 2.039 . S
Zn15 O27 2.034 1_545 S
O16 C0 1.251 . S
O16 Zn7 2.039 1_665 S
C17 O22 1.246 . S
C17 O23 1.249 1_554 S
O18 C0 1.254 1_556 S
O18 Zn15 2.025 1_665 S
H19 C11 0.952 . S
H20 C2 0.952 . S
H21 C10 0.948 . S
O22 Zn7 2.034 1_655 S
O22 C17 1.246 . S
O23 Zn15 2.024 1_655 S
O23 C17 1.249 1_556 S
H24 C6 0.948 . S
O25 Zn15 2.039 . S
O25 C29 1.251 1_556 S
O26 Zn7 2.025 . S
O26 C29 1.254 . S
O27 C8 1.246 1_556 S
O27 Zn15 2.034 1_565 S
O28 Zn7 2.024 1_565 S
O28 C8 1.249 . S
C29 O25 1.251 1_554 S
C29 O26 1.254 . S
H30 C3 0.949 . S
H31 C5 0.950 . S
H32 C12 0.949 . S
H33 C14 0.950 . S
C34 O50 1.251 . S
C34 O52 1.254 . S
N35 C36 1.333 . S
N35 C40 1.307 . S
N35 Zn41 2.020 . S
C36 N35 1.333 . S
C36 C37 1.379 . S
C36 H54 0.952 . S
C37 C36 1.379 . S
C37 C38 1.390 . S
C37 H64 0.949 . S
C38 C37 1.390 . S
C38 C39 1.357 . S
C39 C38 1.357 . S
C39 C40 1.370 . S
C39 H65 0.950 . S
C40 N35 1.307 . S
C40 C39 1.370 . S
C40 H58 0.948 . S
Zn41 N35 2.020 . S
Zn41 O50 2.039 . S
Zn41 O56 2.034 . S
Zn41 O60 2.025 . S
Zn41 O62 2.024 . S
C42 O61 1.246 . S
C42 O62 1.249 . S
N43 C44 1.307 . S
N43 C45 1.333 . S
N43 Zn49 2.020 . S
C44 N43 1.307 . S
C44 C48 1.370 . S
C44 H55 0.948 . S
C45 N43 1.333 . S
C45 C46 1.379 . S
C45 H53 0.952 . S
C46 C45 1.379 . S
C46 C47 1.390 . S
C46 H66 0.949 . S
C47 C46 1.390 . S
C47 C48 1.357 . S
C48 C44 1.370 . S
C48 C47 1.357 . S
C48 H67 0.950 . S
Zn49 N43 2.020 . S
Zn49 O52 2.025 . S
Zn49 O57 2.024 . S
Zn49 O59 2.039 . S
Zn49 O61 2.034 . S
O50 C34 1.251 . S
O50 Zn41 2.039 . S
C51 O56 1.246 . S
C51 O57 1.249 . S
O52 C34 1.254 . S
O52 Zn49 2.025 . S
H53 C45 0.952 . S
H54 C36 0.952 . S
H55 C44 0.948 . S
O56 Zn41 2.034 . S
O56 C51 1.246 . S
O57 Zn49 2.024 . S
O57 C51 1.249 . S
H58 C40 0.948 . S
O59 Zn49 2.039 . S
O59 C63 1.251 . S
O60 Zn41 2.025 . S
O60 C63 1.254 . S
O61 C42 1.246 . S
O61 Zn49 2.034 . S
O62 Zn41 2.024 . S
O62 C42 1.249 . S
C63 O59 1.251 . S
C63 O60 1.254 . S
H64 C37 0.949 . S
H65 C39 0.950 . S
H66 C46 0.949 . S
H67 C48 0.950 . S
C68 C69 1.264 . S
C68 C73 1.479 . S
C68 C78 1.465 . S
C69 C68 1.264 . S
C69 C71 1.339 . S
C69 H96 0.931 . S
C70 C71 1.395 . S
C70 C72 1.320 . S
C71 C69 1.339 . S
C71 C70 1.395 . S
C71 H97 0.929 . S
C72 C70 1.320 . S
C72 C73 1.405 . S
C72 H98 0.930 . S
C73 C68 1.479 . S
C73 C72 1.405 . S
C73 H99 0.931 . S
U74 O75 2.454 1_545 S
U74 O76 2.458 1_545 S
U74 C77 2.984 1_545 S
U74 C78 2.847 1_455 S
U74 C91 2.882 . S
U74 O92 2.441 1_455 S
U74 O93 2.420 1_455 S
U74 O94 2.455 1_545 S
U74 O95 2.449 . S
O75 U74 2.454 1_565 S
O75 C77 1.353 . S
O76 U74 2.458 1_565 S
O76 C77 1.286 . S
C77 U74 2.984 1_565 S
C77 O75 1.353 . S
C77 O76 1.286 . S
C77 C79 1.363 . S
C78 C68 1.465 . S
C78 U74 2.847 1_655 S
C78 O92 1.249 . S
C78 O93 1.202 . S
C79 C77 1.363 . S
C79 C81 1.408 . S
C79 C84 1.342 . S
C80 C81 1.310 . S
C80 C83 1.461 . S
C80 H100 0.932 . S
C81 C79 1.408 . S
C81 C80 1.310 . S
C81 H101 0.930 . S
C82 C83 1.474 . S
C82 C84 1.285 . S
C82 H102 0.929 . S
C83 C80 1.461 . S
C83 C82 1.474 . S
C84 C79 1.342 . S
C84 C82 1.285 . S
C84 H103 0.930 . S
C85 C88 1.424 1_455 S
C85 C90 1.245 1_545 S
C85 C91 1.428 . S
C86 C89 1.260 1_565 S
C86 C90 1.477 . S
C86 H104 0.932 . S
C87 C88 1.384 . S
C87 C89 1.479 1_655 S
C87 H105 0.929 . S
C88 C85 1.424 1_655 S
C88 C87 1.384 . S
C88 H106 0.928 . S
C89 C86 1.260 1_545 S
C89 C87 1.479 1_455 S
C90 C85 1.245 1_565 S
C90 C86 1.477 . S
C90 H107 0.932 . S
C91 U74 2.882 . S
C91 C85 1.428 . S
C91 O94 1.301 1_545 S
C91 O95 1.282 . S
O92 U74 2.441 1_655 S
O92 C78 1.249 . S
O93 U74 2.420 1_655 S
O93 C78 1.202 . S
O94 U74 2.455 1_565 S
O94 C91 1.301 1_565 S
O95 U74 2.449 . S
O95 C91 1.282 . S
H96 C69 0.931 . S
H97 C71 0.929 . S
H98 C72 0.930 . S
H99 C73 0.931 . S
H100 C80 0.932 . S
H101 C81 0.930 . S
H102 C82 0.929 . S
H103 C84 0.930 . S
H104 C86 0.932 . S
H105 C87 0.929 . S
H106 C88 0.928 . S
H107 C90 0.932 . S
C108 C109 1.264 . S
C108 C113 1.479 . S
C108 C118 1.465 . S
C109 C108 1.264 . S
C109 C111 1.339 . S
C109 H136 0.931 . S
C110 C111 1.395 . S
C110 C112 1.320 . S
C111 C109 1.339 . S
C111 C110 1.395 . S
C111 H137 0.929 . S
C112 C110 1.320 . S
C112 C113 1.405 . S
C112 H138 0.930 . S
C113 C108 1.479 . S
C113 C112 1.405 . S
C113 H139 0.931 . S
U114 O115 2.454 1_565 S
U114 O116 2.458 1_565 S
U114 C117 2.984 1_565 S
U114 C118 2.847 1_455 S
U114 C131 2.882 . S
U114 O132 2.441 . S
U114 O133 2.420 1_455 S
U114 O134 2.455 1_565 S
U114 O135 2.449 . S
O115 U114 2.454 1_545 S
O115 C117 1.353 . S
O116 U114 2.458 1_545 S
O116 C117 1.286 . S
C117 U114 2.984 1_545 S
C117 O115 1.353 . S
C117 O116 1.286 . S
C117 C119 1.363 . S
C118 C108 1.465 . S
C118 U114 2.847 1_655 S
C118 O132 1.249 1_655 S
C118 O133 1.202 . S
C119 C117 1.363 . S
C119 C121 1.408 . S
C119 C124 1.342 . S
C120 C121 1.310 . S
C120 C123 1.461 . S
C120 H140 0.932 . S
C121 C119 1.408 . S
C121 C120 1.310 . S
C121 H141 0.930 . S
C122 C123 1.474 . S
C122 C124 1.285 . S
C122 H142 0.929 . S
C123 C120 1.461 . S
C123 C122 1.474 . S
C124 C119 1.342 . S
C124 C122 1.285 . S
C124 H143 0.930 . S
C125 C128 1.424 . S
C125 C130 1.245 1_565 S
C125 C131 1.428 . S
C126 C129 1.260 . S
C126 C130 1.477 . S
C126 H144 0.932 . S
C127 C128 1.384 . S
C127 C129 1.479 1_565 S
C127 H145 0.929 1_455 S
C128 C125 1.424 . S
C128 C127 1.384 . S
C128 H146 0.928 1_455 S
C129 C126 1.260 . S
C129 C127 1.479 1_545 S
C130 C125 1.245 1_545 S
C130 C126 1.477 . S
C130 H147 0.932 . S
C131 U114 2.882 . S
C131 C125 1.428 . S
C131 O134 1.301 1_565 S
C131 O135 1.282 . S
O132 U114 2.441 . S
O132 C118 1.249 1_455 S
O133 U114 2.420 1_655 S
O133 C118 1.202 . S
O134 U114 2.455 1_545 S
O134 C131 1.301 1_545 S
O135 U114 2.449 . S
O135 C131 1.282 . S
H136 C109 0.931 . S
H137 C111 0.929 . S
H138 C112 0.930 . S
H139 C113 0.931 . S
H140 C120 0.932 . S
H141 C121 0.930 . S
H142 C122 0.929 . S
H143 C124 0.930 . S
H144 C126 0.932 . S
H145 C127 0.929 1_655 S
H146 C128 0.928 1_655 S
H147 C130 0.932 . S
C148 C149 1.264 . S
C148 C153 1.479 . S
C148 C158 1.465 . S
C149 C148 1.264 . S
C149 C151 1.339 . S
C149 H176 0.931 . S
C150 C151 1.395 . S
C150 C152 1.320 1_556 S
C151 C149 1.339 . S
C151 C150 1.395 . S
C151 H177 0.929 . S
C152 C150 1.320 1_554 S
C152 C153 1.405 1_554 S
C152 H178 0.930 . S
C153 C148 1.479 . S
C153 C152 1.405 1_556 S
C153 H179 0.931 1_556 S
U154 O155 2.454 . S
U154 O156 2.458 . S
U154 C157 2.984 . S
U154 C158 2.847 . S
U154 C171 2.882 . S
U154 O172 2.441 . S
U154 O173 2.420 . S
U154 O174 2.455 . S
U154 O175 2.449 . S
O155 U154 2.454 . S
O155 C157 1.353 . S
O156 U154 2.458 . S
O156 C157 1.286 . S
C157 U154 2.984 . S
C157 O155 1.353 . S
C157 O156 1.286 . S
C157 C159 1.363 . S
C158 C148 1.465 . S
C158 U154 2.847 . S
C158 O172 1.249 . S
C158 O173 1.202 . S
C159 C157 1.363 . S
C159 C161 1.408 . S
C159 C164 1.342 . S
C160 C161 1.310 1_554 S
C160 C163 1.461 1_554 S
C160 H180 0.932 . S
C161 C159 1.408 . S
C161 C160 1.310 1_556 S
C161 H181 0.930 1_556 S
C162 C163 1.474 . S
C162 C164 1.285 . S
C162 H182 0.929 . S
C163 C160 1.461 1_556 S
C163 C162 1.474 . S
C164 C159 1.342 . S
C164 C162 1.285 . S
C164 H183 0.930 . S
C165 C168 1.424 . S
C165 C170 1.245 . S
C165 C171 1.428 . S
C166 C169 1.260 . S
C166 C170 1.477 . S
C166 H184 0.932 . S
C167 C168 1.384 . S
C167 C169 1.479 . S
C167 H185 0.929 . S
C168 C165 1.424 . S
C168 C167 1.384 . S
C168 H186 0.928 . S
C169 C166 1.260 . S
C169 C167 1.479 . S
C170 C165 1.245 . S
C170 C166 1.477 . S
C170 H187 0.932 . S
C171 U154 2.882 . S
C171 C165 1.428 . S
C171 O174 1.301 . S
C171 O175 1.282 . S
O172 U154 2.441 . S
O172 C158 1.249 . S
O173 U154 2.420 . S
O173 C158 1.202 . S
O174 U154 2.455 . S
O174 C171 1.301 . S
O175 U154 2.449 . S
O175 C171 1.282 . S
H176 C149 0.931 . S
H177 C151 0.929 . S
H178 C152 0.930 . S
H179 C153 0.931 1_554 S
H180 C160 0.932 . S
H181 C161 0.930 1_554 S
H182 C162 0.929 . S
H183 C164 0.930 . S
H184 C166 0.932 . S
H185 C167 0.929 . S
H186 C168 0.928 . S
H187 C170 0.932 . S
C188 C189 1.264 . S
C188 C193 1.479 . S
C188 C198 1.465 . S
C189 C188 1.264 . S
C189 C191 1.339 . S
C189 H216 0.931 . S
C190 C191 1.395 . S
C190 C192 1.320 . S
C191 C189 1.339 . S
C191 C190 1.395 . S
C191 H217 0.929 . S
C192 C190 1.320 . S
C192 C193 1.405 . S
C192 H218 0.930 1_554 S
C193 C188 1.479 . S
C193 C192 1.405 . S
C193 H219 0.931 . S
U194 O195 2.454 . S
U194 O196 2.458 . S
U194 C197 2.984 . S
U194 C198 2.847 . S
U194 C211 2.882 . S
U194 O212 2.441 . S
U194 O213 2.420 . S
U194 O214 2.455 . S
U194 O215 2.449 . S
O195 U194 2.454 . S
O195 C197 1.353 . S
O196 U194 2.458 . S
O196 C197 1.286 . S
C197 U194 2.984 . S
C197 O195 1.353 . S
C197 O196 1.286 . S
C197 C199 1.363 . S
C198 C188 1.465 . S
C198 U194 2.847 . S
C198 O212 1.249 . S
C198 O213 1.202 . S
C199 C197 1.363 . S
C199 C201 1.408 . S
C199 C204 1.342 . S
C200 C201 1.310 . S
C200 C203 1.461 . S
C200 H220 0.932 1_554 S
C201 C199 1.408 . S
C201 C200 1.310 . S
C201 H221 0.930 . S
C202 C203 1.474 . S
C202 C204 1.285 . S
C202 H222 0.929 . S
C203 C200 1.461 . S
C203 C202 1.474 . S
C204 C199 1.342 . S
C204 C202 1.285 . S
C204 H223 0.930 . S
C205 C208 1.424 . S
C205 C210 1.245 . S
C205 C211 1.428 . S
C206 C209 1.260 . S
C206 C210 1.477 . S
C206 H224 0.932 . S
C207 C208 1.384 . S
C207 C209 1.479 . S
C207 H225 0.929 . S
C208 C205 1.424 . S
C208 C207 1.384 . S
C208 H226 0.928 . S
C209 C206 1.260 . S
C209 C207 1.479 . S
C210 C205 1.245 . S
C210 C206 1.477 . S
C210 H227 0.932 . S
C211 U194 2.882 . S
C211 C205 1.428 . S
C211 O214 1.301 . S
C211 O215 1.282 . S
O212 U194 2.441 . S
O212 C198 1.249 . S
O213 U194 2.420 . S
O213 C198 1.202 . S
O214 U194 2.455 . S
O214 C211 1.301 . S
O215 U194 2.449 . S
O215 C211 1.282 . S
H216 C189 0.931 . S
H217 C191 0.929 . S
H218 C192 0.930 1_556 S
H219 C193 0.931 . S
H220 C200 0.932 1_556 S
H221 C201 0.930 . S
H222 C202 0.929 . S
H223 C204 0.930 . S
H224 C206 0.932 . S
H225 C207 0.929 . S
H226 C208 0.928 . S
H227 C210 0.932 . S
H228 C236 0.929 . S
H229 C238 0.930 . S
H230 C240 0.930 . S
H231 C243 0.929 . S
H232 C246 0.930 . S
H233 C248 0.963 . S
H234 C248 0.947 1_554 S
H235 C248 0.973 . S
C236 H228 0.929 . S
C236 C237 1.377 . S
C236 C238 1.384 . S
C237 C236 1.377 . S
C237 C243 1.390 1_554 S
C238 H229 0.930 . S
C238 C236 1.384 . S
C238 C239 1.372 . S
C239 C238 1.372 . S
C239 C240 1.400 1_554 S
C239 C244 1.490 . S
C240 H230 0.930 . S
C240 C239 1.400 1_556 S
C240 C243 1.386 . S
H241 C257 0.930 . S
H242 C258 0.931 . S
C243 H231 0.929 . S
C243 C237 1.390 1_556 S
C243 C240 1.386 . S
C244 C239 1.490 . S
C244 C246 1.395 . S
C244 C247 1.403 . S
H245 C251 0.930 . S
C246 H232 0.930 . S
C246 C244 1.395 . S
C246 C249 1.403 . S
C247 C244 1.403 . S
C247 C248 1.521 1_554 S
C247 C251 1.400 . S
C248 H233 0.963 . S
C248 H234 0.947 1_556 S
C248 H235 0.973 . S
C248 C247 1.521 1_556 S
C249 C246 1.403 . S
C249 C250 1.392 . S
C249 C253 1.495 . S
C250 C249 1.392 . S
C250 C251 1.385 . S
C250 C252 1.478 . S
C251 H245 0.930 . S
C251 C247 1.400 . S
C251 C250 1.385 . S
C252 C250 1.478 . S
C252 C254 1.381 . S
C252 C258 1.383 1_554 S
C253 C249 1.495 . S
C253 H259 0.959 . S
C253 H260 0.961 . S
C253 H261 0.960 . S
C254 C252 1.381 . S
C254 C255 1.394 . S
C254 H262 0.930 . S
C255 C254 1.394 . S
C255 C256 1.383 . S
C255 H263 0.929 . S
C256 C255 1.383 . S
C256 C257 1.377 1_554 S
C257 H241 0.930 . S
C257 C256 1.377 1_556 S
C257 C258 1.379 . S
C258 H242 0.931 . S
C258 C252 1.383 1_556 S
C258 C257 1.379 . S
H259 C253 0.959 . S
H260 C253 0.961 . S
H261 C253 0.960 . S
H262 C254 0.930 . S
H263 C255 0.929 . S
H264 C272 0.929 . S
H265 C274 0.930 . S
H266 C276 0.930 . S
H267 C279 0.929 . S
H268 C282 0.930 . S
H269 C284 0.960 . S
H270 C284 0.960 . S
H271 C284 0.960 . S
C272 H264 0.929 . S
C272 C273 1.377 1_556 S
C272 C274 1.384 . S
C273 C272 1.377 1_554 S
C273 C279 1.390 . S
C274 H265 0.930 . S
C274 C272 1.384 . S
C274 C275 1.372 1_556 S
C275 C274 1.372 1_554 S
C275 C276 1.400 . S
C275 C280 1.493 . S
C276 H266 0.930 . S
C276 C275 1.400 . S
C276 C279 1.386 . S
H277 C293 0.930 . S
H278 C294 0.931 . S
C279 H267 0.929 . S
C279 C273 1.390 . S
C279 C276 1.386 . S
C280 C275 1.493 . S
C280 C282 1.424 . S
C280 C283 1.373 1_554 S
H281 C287 0.930 . S
C282 H268 0.930 . S
C282 C280 1.424 . S
C282 C285 1.403 . S
C283 C280 1.373 1_556 S
C283 C284 1.524 . S
C283 C287 1.400 . S
C284 H269 0.960 . S
C284 H270 0.960 . S
C284 H271 0.960 . S
C284 C283 1.524 . S
C285 C282 1.403 . S
C285 C286 1.392 . S
C285 C289 1.495 . S
C286 C285 1.392 . S
C286 C287 1.385 1_554 S
C286 C288 1.479 . S
C287 H281 0.930 . S
C287 C283 1.400 . S
C287 C286 1.385 1_556 S
C288 C286 1.479 . S
C288 C290 1.364 1_554 S
C288 C294 1.397 . S
C289 C285 1.495 . S
C289 H295 0.959 . S
C289 H296 0.961 . S
C289 H297 0.960 . S
C290 C288 1.364 1_556 S
C290 C291 1.394 . S
C290 H298 0.930 . S
C291 C290 1.394 . S
C291 C292 1.383 . S
C291 H299 0.929 . S
C292 C291 1.383 . S
C292 C293 1.377 1_556 S
C293 H277 0.930 . S
C293 C292 1.377 1_554 S
C293 C294 1.379 . S
C294 H278 0.931 . S
C294 C288 1.397 . S
C294 C293 1.379 . S
H295 C289 0.959 . S
H296 C289 0.961 . S
H297 C289 0.960 . S
H298 C290 0.930 . S
H299 C291 0.929 . S
H300 C308 0.929 1_556 S
H301 C310 0.927 1_556 S
H302 C312 0.930 . S
H303 C315 0.929 . S
H304 C318 0.930 . S
H305 C320 0.960 . S
H306 C320 0.960 . S
H307 C320 0.960 . S
C308 H300 0.929 1_554 S
C308 C309 1.377 . S
C308 C310 1.384 . S
C309 C308 1.377 . S
C309 C315 1.390 . S
C310 H301 0.927 1_554 S
C310 C308 1.384 . S
C310 C311 1.372 . S
C311 C310 1.372 . S
C311 C312 1.400 . S
C311 C316 1.490 . S
C312 H302 0.930 . S
C312 C311 1.400 . S
C312 C315 1.386 . S
H313 C329 0.930 . S
H314 C330 0.931 . S
C315 H303 0.929 . S
C315 C309 1.390 . S
C315 C312 1.386 . S
C316 C311 1.490 . S
C316 C318 1.395 . S
C316 C319 1.403 1_554 S
H317 C323 0.930 . S
C318 H304 0.930 . S
C318 C316 1.395 . S
C318 C321 1.403 . S
C319 C316 1.403 1_556 S
C319 C320 1.524 . S
C319 C323 1.400 . S
C320 H305 0.960 . S
C320 H306 0.960 . S
C320 H307 0.960 . S
C320 C319 1.524 . S
C321 C318 1.403 . S
C321 C322 1.392 . S
C321 C325 1.495 . S
C322 C321 1.392 . S
C322 C323 1.385 1_554 S
C322 C324 1.478 . S
C323 H317 0.930 . S
C323 C319 1.400 . S
C323 C322 1.385 1_556 S
C324 C322 1.478 . S
C324 C326 1.381 . S
C324 C330 1.383 . S
C325 C321 1.495 . S
C325 H331 0.959 . S
C325 H332 0.961 . S
C325 H333 0.960 . S
C326 C324 1.381 . S
C326 C327 1.394 . S
C326 H334 0.930 . S
C327 C326 1.394 . S
C327 C328 1.383 . S
C327 H335 0.929 . S
C328 C327 1.383 . S
C328 C329 1.377 . S
C329 H313 0.930 . S
C329 C328 1.377 . S
C329 C330 1.379 . S
C330 H314 0.931 . S
C330 C324 1.383 . S
C330 C329 1.379 . S
H331 C325 0.959 . S
H332 C325 0.961 . S
H333 C325 0.960 . S
H334 C326 0.930 . S
H335 C327 0.929 . S
H336 C344 0.929 . S
H337 C346 0.930 . S
H338 C348 0.930 . S
H339 C351 0.929 . S
H340 C354 0.930 . S
H341 C356 0.960 . S
H342 C356 0.960 1_554 S
H343 C356 0.960 . S
C344 H336 0.929 . S
C344 C345 1.377 . S
C344 C346 1.384 . S
C345 C344 1.377 . S
C345 C351 1.390 1_554 S
C346 H337 0.930 . S
C346 C344 1.384 . S
C346 C347 1.372 . S
C347 C346 1.372 . S
C347 C348 1.400 1_554 S
C347 C352 1.490 . S
C348 H338 0.930 . S
C348 C347 1.400 1_556 S
C348 C351 1.386 . S
H349 C365 0.930 . S
H350 C366 0.931 . S
C351 H339 0.929 . S
C351 C345 1.390 1_556 S
C351 C348 1.386 . S
C352 C347 1.490 . S
C352 C354 1.395 . S
C352 C355 1.404 . S
H353 C359 0.935 . S
C354 H340 0.930 . S
C354 C352 1.395 . S
C354 C357 1.403 . S
C355 C352 1.404 . S
C355 C356 1.523 1_554 S
C355 C359 1.399 1_554 S
C356 H341 0.960 . S
C356 H342 0.960 1_556 S
C356 H343 0.960 . S
C356 C355 1.523 1_556 S
C357 C354 1.403 . S
C357 C358 1.392 . S
C357 C361 1.495 . S
C358 C357 1.392 . S
C358 C359 1.383 1_554 S
C358 C360 1.480 . S
C359 H353 0.935 . S
C359 C355 1.399 1_556 S
C359 C358 1.383 1_556 S
C360 C358 1.480 . S
C360 C362 1.414 . S
C360 C366 1.348 1_554 S
C361 C357 1.495 . S
C361 H367 0.959 . S
C361 H368 0.961 1_554 S
C361 H369 0.960 . S
C362 C360 1.414 . S
C362 C363 1.394 . S
C362 H370 0.930 . S
C363 C362 1.394 . S
C363 C364 1.383 1_554 S
C363 H371 0.929 . S
C364 C363 1.383 1_556 S
C364 C365 1.377 . S
C365 H349 0.930 . S
C365 C364 1.377 . S
C365 C366 1.379 . S
C366 H350 0.931 . S
C366 C360 1.348 1_556 S
C366 C365 1.379 . S
H367 C361 0.959 . S
H368 C361 0.961 1_556 S
H369 C361 0.960 . S
H370 C362 0.930 . S
H371 C363 0.929 . S
H372 C380 0.929 . S
H373 C382 0.930 . S
H374 C384 0.930 . S
H375 C387 0.929 . S
H376 C390 0.930 . S
H377 C392 0.960 . S
H378 C392 0.960 . S
H379 C392 0.960 . S
C380 H372 0.929 . S
C380 C381 1.377 . S
C380 C382 1.384 . S
C381 C380 1.377 . S
C381 C387 1.390 . S
C382 H373 0.930 . S
C382 C380 1.384 . S
C382 C383 1.372 . S
C383 C382 1.372 . S
C383 C384 1.400 . S
C383 C388 1.490 . S
C384 H374 0.930 . S
C384 C383 1.400 . S
C384 C387 1.386 . S
H385 C401 0.930 . S
H386 C402 0.931 . S
C387 H375 0.929 . S
C387 C381 1.390 . S
C387 C384 1.386 . S
C388 C383 1.490 . S
C388 C390 1.395 . S
C388 C391 1.403 . S
H389 C395 0.930 . S
C390 H376 0.930 . S
C390 C388 1.395 . S
C390 C393 1.403 . S
C391 C388 1.403 . S
C391 C392 1.524 . S
C391 C395 1.400 . S
C392 H377 0.960 . S
C392 H378 0.960 . S
C392 H379 0.960 . S
C392 C391 1.524 . S
C393 C390 1.403 . S
C393 C394 1.392 . S
C393 C397 1.495 . S
C394 C393 1.392 . S
C394 C395 1.385 . S
C394 C396 1.478 . S
C395 H389 0.930 . S
C395 C391 1.400 . S
C395 C394 1.385 . S
C396 C394 1.478 . S
C396 C398 1.381 . S
C396 C402 1.383 . S
C397 C393 1.495 . S
C397 H403 0.959 . S
C397 H404 0.961 . S
C397 H405 0.960 . S
C398 C396 1.381 . S
C398 C399 1.394 . S
C398 H406 0.930 . S
C399 C398 1.394 . S
C399 C400 1.383 . S
C399 H407 0.929 . S
C400 C399 1.383 . S
C400 C401 1.377 . S
C401 H385 0.930 . S
C401 C400 1.377 . S
C401 C402 1.379 . S
C402 H386 0.931 . S
C402 C396 1.383 . S
C402 C401 1.379 . S
H403 C397 0.959 . S
H404 C397 0.961 . S
H405 C397 0.960 . S
H406 C398 0.930 . S
H407 C399 0.929 . S
H408 C416 0.929 . S
H409 C418 0.930 . S
H410 C420 0.930 . S
H411 C423 0.929 . S
H412 C426 0.930 . S
H413 C428 0.960 . S
H414 C428 0.960 . S
H415 C428 0.960 . S
C416 H408 0.929 . S
C416 C417 1.377 . S
C416 C418 1.384 . S
C417 C416 1.377 . S
C417 C423 1.390 . S
C418 H409 0.930 . S
C418 C416 1.384 . S
C418 C419 1.372 . S
C419 C418 1.372 . S
C419 C420 1.400 . S
C419 C424 1.490 . S
C420 H410 0.930 . S
C420 C419 1.400 . S
C420 C423 1.386 . S
H421 C437 0.930 . S
H422 C438 0.931 . S
C423 H411 0.929 . S
C423 C417 1.390 . S
C423 C420 1.386 . S
C424 C419 1.490 . S
C424 C426 1.395 . S
C424 C427 1.403 . S
H425 C431 0.930 . S
C426 H412 0.930 . S
C426 C424 1.395 . S
C426 C429 1.403 . S
C427 C424 1.403 . S
C427 C428 1.524 . S
C427 C431 1.400 . S
C428 H413 0.960 . S
C428 H414 0.960 . S
C428 H415 0.960 . S
C428 C427 1.524 . S
C429 C426 1.403 . S
C429 C430 1.392 . S
C429 C433 1.495 . S
C430 C429 1.392 . S
C430 C431 1.385 . S
C430 C432 1.478 . S
C431 H425 0.930 . S
C431 C427 1.400 . S
C431 C430 1.385 . S
C432 C430 1.478 . S
C432 C434 1.381 . S
C432 C438 1.383 . S
C433 C429 1.495 . S
C433 H439 0.959 . S
C433 H440 0.961 . S
C433 H441 0.960 . S
C434 C432 1.381 . S
C434 C435 1.394 . S
C434 H442 0.930 . S
C435 C434 1.394 . S
C435 C436 1.383 . S
C435 H443 0.929 . S
C436 C435 1.383 . S
C436 C437 1.377 . S
C437 H421 0.930 . S
C437 C436 1.377 . S
C437 C438 1.379 . S
C438 H422 0.931 . S
C438 C432 1.383 . S
C438 C437 1.379 . S
H439 C433 0.959 . S
H440 C433 0.961 . S
H441 C433 0.960 . S
H442 C434 0.930 . S
H443 C435 0.929 . S
H444 C452 0.929 . S
H445 C454 0.930 . S
H446 C456 0.930 . S
H447 C459 0.929 . S
H448 C462 0.930 . S
H449 C464 0.960 . S
H450 C464 0.960 . S
H451 C464 0.960 . S
C452 H444 0.929 . S
C452 C453 1.377 . S
C452 C454 1.384 . S
C453 C452 1.377 . S
C453 C459 1.390 . S
C454 H445 0.930 . S
C454 C452 1.384 . S
C454 C455 1.372 . S
C455 C454 1.372 . S
C455 C456 1.400 . S
C455 C460 1.490 . S
C456 H446 0.930 . S
C456 C455 1.400 . S
C456 C459 1.386 . S
H457 C473 0.930 . S
H458 C474 0.931 . S
C459 H447 0.929 . S
C459 C453 1.390 . S
C459 C456 1.386 . S
C460 C455 1.490 . S
C460 C462 1.395 . S
C460 C463 1.403 . S
H461 C467 0.930 . S
C462 H448 0.930 . S
C462 C460 1.395 . S
C462 C465 1.403 . S
C463 C460 1.403 . S
C463 C464 1.524 . S
C463 C467 1.400 . S
C464 H449 0.960 . S
C464 H450 0.960 . S
C464 H451 0.960 . S
C464 C463 1.524 . S
C465 C462 1.403 . S
C465 C466 1.392 . S
C465 C469 1.495 . S
C466 C465 1.392 . S
C466 C467 1.385 . S
C466 C468 1.478 . S
C467 H461 0.930 . S
C467 C463 1.400 . S
C467 C466 1.385 . S
C468 C466 1.478 . S
C468 C470 1.381 . S
C468 C474 1.383 . S
C469 C465 1.495 . S
C469 H475 0.959 . S
C469 H476 0.961 . S
C469 H477 0.960 . S
C470 C468 1.381 . S
C470 C471 1.394 . S
C470 H478 0.930 . S
C471 C470 1.394 . S
C471 C472 1.383 . S
C471 H479 0.929 . S
C472 C471 1.383 . S
C472 C473 1.377 . S
C473 H457 0.930 . S
C473 C472 1.377 . S
C473 C474 1.379 . S
C474 H458 0.931 . S
C474 C468 1.383 . S
C474 C473 1.379 . S
H475 C469 0.959 . S
H476 C469 0.961 . S
H477 C469 0.960 . S
H478 C470 0.930 . S
H479 C471 0.929 . S
H480 C488 0.929 . S
H481 C490 0.930 . S
H482 C492 0.930 . S
H483 C495 0.929 . S
H484 C498 0.930 . S
H485 C500 0.960 . S
H486 C500 0.960 . S
H487 C500 0.960 . S
C488 H480 0.929 . S
C488 C489 1.377 . S
C488 C490 1.384 . S
C489 C488 1.377 . S
C489 C495 1.390 . S
C490 H481 0.930 . S
C490 C488 1.384 . S
C490 C491 1.372 . S
C491 C490 1.372 . S
C491 C492 1.400 . S
C491 C496 1.490 . S
C492 H482 0.930 . S
C492 C491 1.400 . S
C492 C495 1.386 . S
H493 C509 0.930 . S
H494 C510 0.931 . S
C495 H483 0.929 . S
C495 C489 1.390 . S
C495 C492 1.386 . S
C496 C491 1.490 . S
C496 C498 1.395 . S
C496 C499 1.403 . S
H497 C503 0.930 . S
C498 H484 0.930 . S
C498 C496 1.395 . S
C498 C501 1.403 . S
C499 C496 1.403 . S
C499 C500 1.524 . S
C499 C503 1.400 . S
C500 H485 0.960 . S
C500 H486 0.960 . S
C500 H487 0.960 . S
C500 C499 1.524 . S
C501 C498 1.403 . S
C501 C502 1.392 . S
C501 C505 1.495 . S
C502 C501 1.392 . S
C502 C503 1.385 . S
C502 C504 1.478 . S
C503 H497 0.930 . S
C503 C499 1.400 . S
C503 C502 1.385 . S
C504 C502 1.478 . S
C504 C506 1.381 . S
C504 C510 1.383 . S
C505 C501 1.495 . S
C505 H511 0.959 . S
C505 H512 0.961 . S
C505 H513 0.960 . S
C506 C504 1.381 . S
C506 C507 1.394 . S
C506 H514 0.930 . S
C507 C506 1.394 . S
C507 C508 1.383 . S
C507 H515 0.929 . S
C508 C507 1.383 . S
C508 C509 1.377 . S
C509 H493 0.930 . S
C509 C508 1.377 . S
C509 C510 1.379 . S
C510 H494 0.931 . S
C510 C504 1.383 . S
C510 C509 1.379 . S
H511 C505 0.959 . S
H512 C505 0.961 . S
H513 C505 0.960 . S
H514 C506 0.930 . S
H515 C507 0.929 . S
H516 C524 0.929 . S
H517 C526 0.930 . S
H518 C528 0.930 . S
H519 C531 0.929 . S
H520 C534 0.930 . S
H521 C536 0.960 . S
H522 C536 0.960 . S
H523 C536 0.960 . S
C524 H516 0.929 . S
C524 C525 1.377 1_665 S
C524 C526 1.384 . S
C525 C524 1.377 1_445 S
C525 C531 1.390 . S
C526 H517 0.930 . S
C526 C524 1.384 . S
C526 C527 1.372 1_665 S
C527 C526 1.372 1_445 S
C527 C528 1.400 . S
C527 C532 1.490 . S
C528 H518 0.930 . S
C528 C527 1.400 . S
C528 C531 1.386 . S
H529 C545 0.930 . S
H530 C546 0.931 . S
C531 H519 0.929 . S
C531 C525 1.390 . S
C531 C528 1.386 . S
C532 C527 1.490 . S
C532 C534 1.395 1_545 S
C532 C535 1.403 1_455 S
H533 C539 0.930 . S
C534 H520 0.930 . S
C534 C532 1.395 1_565 S
C534 C537 1.403 . S
C535 C532 1.403 1_655 S
C535 C536 1.524 . S
C535 C539 1.400 . S
C536 H521 0.960 . S
C536 H522 0.960 . S
C536 H523 0.960 . S
C536 C535 1.524 . S
C537 C534 1.403 . S
C537 C538 1.392 . S
C537 C541 1.495 . S
C538 C537 1.392 . S
C538 C539 1.385 1_465 S
C538 C540 1.478 . S
C539 H533 0.930 . S
C539 C535 1.400 . S
C539 C538 1.385 1_645 S
C540 C538 1.478 . S
C540 C542 1.381 1_455 S
C540 C546 1.383 1_565 S
C541 C537 1.495 . S
C541 H547 0.959 . S
C541 H548 0.961 . S
C541 H549 0.960 . S
C542 C540 1.381 1_655 S
C542 C543 1.394 . S
C542 H550 0.930 . S
C543 C542 1.394 . S
C543 C544 1.379 1_665 S
C543 H551 0.929 . S
C544 C543 1.379 1_445 S
C544 C545 1.382 . S
C545 H529 0.930 . S
C545 C544 1.382 . S
C545 C546 1.379 . S
C546 H530 0.931 . S
C546 C540 1.383 1_545 S
C546 C545 1.379 . S
H547 C541 0.959 . S
H548 C541 0.961 . S
H549 C541 0.960 . S
H550 C542 0.930 . S
H551 C543 0.929 . S
H552 C560 0.929 . S
H553 C562 0.930 . S
H554 C564 0.930 . S
H555 C567 0.929 . S
H556 C570 0.930 . S
H557 C572 0.960 . S
H558 C572 0.960 1_455 S
H559 C572 0.960 . S
C560 H552 0.929 . S
C560 C561 1.377 . S
C560 C562 1.384 . S
C561 C560 1.377 . S
C561 C567 1.390 1_455 S
C562 H553 0.930 . S
C562 C560 1.384 . S
C562 C563 1.372 . S
C563 C562 1.372 . S
C563 C564 1.400 1_455 S
C563 C568 1.490 . S
C564 H554 0.930 . S
C564 C563 1.400 1_655 S
C564 C567 1.386 . S
H565 C581 0.930 . S
H566 C582 0.931 . S
C567 H555 0.929 . S
C567 C561 1.390 1_655 S
C567 C564 1.386 . S
C568 C563 1.490 . S
C568 C570 1.395 1_545 S
C568 C571 1.403 . S
H569 C575 0.930 1_655 S
C570 H556 0.930 . S
C570 C568 1.395 1_565 S
C570 C573 1.403 . S
C571 C568 1.403 . S
C571 C572 1.524 1_455 S
C571 C575 1.400 . S
C572 H557 0.960 . S
C572 H558 0.960 1_655 S
C572 H559 0.960 . S
C572 C571 1.524 1_655 S
C573 C570 1.403 . S
C573 C574 1.388 1_565 S
C573 C577 1.495 . S
C574 C573 1.388 1_545 S
C574 C575 1.389 . S
C574 C576 1.478 1_545 S
C575 H569 0.930 1_455 S
C575 C571 1.400 . S
C575 C574 1.389 . S
C576 C574 1.478 1_565 S
C576 C578 1.380 1_565 S
C576 C582 1.383 1_455 S
C577 C573 1.495 . S
C577 H583 0.959 . S
C577 H584 0.961 . S
C577 H585 0.960 . S
C578 C576 1.380 1_545 S
C578 C579 1.394 . S
C578 H586 0.930 . S
C579 C578 1.394 . S
C579 C580 1.383 . S
C579 H587 0.929 . S
C580 C579 1.383 . S
C580 C581 1.379 1_455 S
C581 H565 0.930 . S
C581 C580 1.379 1_655 S
C581 C582 1.378 1_545 S
C582 H566 0.931 . S
C582 C576 1.383 1_655 S
C582 C581 1.378 1_565 S
H583 C577 0.959 . S
H584 C577 0.961 . S
H585 C577 0.960 . S
H586 C578 0.930 . S
H587 C579 0.929 . S
H588 C596 0.929 . S
H589 C598 0.930 . S
H590 C600 0.930 . S
H591 C603 0.929 . S
H592 C606 0.930 . S
H593 C608 0.960 . S
H594 C608 0.960 . S
H595 C608 0.960 . S
C596 H588 0.929 . S
C596 C597 1.377 . S
C596 C598 1.384 . S
C597 C596 1.377 . S
C597 C603 1.390 . S
C598 H589 0.930 . S
C598 C596 1.384 . S
C598 C599 1.372 . S
C599 C598 1.372 . S
C599 C600 1.400 . S
C599 C604 1.490 . S
C600 H590 0.930 . S
C600 C599 1.400 . S
C600 C603 1.386 . S
H601 C617 0.930 . S
H602 C618 0.931 . S
C603 H591 0.929 . S
C603 C597 1.390 . S
C603 C600 1.386 . S
C604 C599 1.490 . S
C604 C606 1.395 . S
C604 C607 1.403 . S
H605 C611 0.930 . S
C606 H592 0.930 . S
C606 C604 1.395 . S
C606 C609 1.403 . S
C607 C604 1.403 . S
C607 C608 1.524 . S
C607 C611 1.400 . S
C608 H593 0.960 . S
C608 H594 0.960 . S
C608 H595 0.960 . S
C608 C607 1.524 . S
C609 C606 1.403 . S
C609 C610 1.392 . S
C609 C613 1.495 . S
C610 C609 1.392 . S
C610 C611 1.385 . S
C610 C612 1.478 . S
C611 H605 0.930 . S
C611 C607 1.400 . S
C611 C610 1.385 . S
C612 C610 1.478 . S
C612 C614 1.381 . S
C612 C618 1.383 . S
C613 C609 1.495 . S
C613 H619 0.959 . S
C613 H620 0.961 . S
C613 H621 0.960 . S
C614 C612 1.381 . S
C614 C615 1.394 . S
C614 H622 0.930 . S
C615 C614 1.394 . S
C615 C616 1.383 . S
C615 H623 0.929 . S
C616 C615 1.383 . S
C616 C617 1.377 . S
C617 H601 0.930 . S
C617 C616 1.377 . S
C617 C618 1.379 . S
C618 H602 0.931 . S
C618 C612 1.383 . S
C618 C617 1.379 . S
H619 C613 0.959 . S
H620 C613 0.961 . S
H621 C613 0.960 . S
H622 C614 0.930 . S
H623 C615 0.929 . S
H624 C632 0.929 . S
H625 C634 0.930 . S
H626 C636 0.930 . S
H627 C639 0.929 . S
H628 C642 0.930 . S
H629 C644 0.960 . S
H630 C644 0.960 . S
H631 C644 0.960 . S
C632 H624 0.929 . S
C632 C633 1.377 . S
C632 C634 1.384 . S
C633 C632 1.377 . S
C633 C639 1.390 . S
C634 H625 0.930 . S
C634 C632 1.384 . S
C634 C635 1.372 . S
C635 C634 1.372 . S
C635 C636 1.400 . S
C635 C640 1.490 . S
C636 H626 0.930 . S
C636 C635 1.400 . S
C636 C639 1.386 . S
H637 C653 0.930 . S
H638 C654 0.931 . S
C639 H627 0.929 . S
C639 C633 1.390 . S
C639 C636 1.386 . S
C640 C635 1.490 . S
C640 C642 1.395 . S
C640 C643 1.403 . S
H641 C647 0.930 . S
C642 H628 0.930 . S
C642 C640 1.395 . S
C642 C645 1.403 . S
C643 C640 1.403 . S
C643 C644 1.524 . S
C643 C647 1.400 . S
C644 H629 0.960 . S
C644 H630 0.960 . S
C644 H631 0.960 . S
C644 C643 1.524 . S
C645 C642 1.403 . S
C645 C646 1.392 . S
C645 C649 1.495 . S
C646 C645 1.392 . S
C646 C647 1.385 . S
C646 C648 1.478 . S
C647 H641 0.930 . S
C647 C643 1.400 . S
C647 C646 1.385 . S
C648 C646 1.478 . S
C648 C650 1.381 . S
C648 C654 1.383 . S
C649 C645 1.495 . S
C649 H655 0.959 . S
C649 H656 0.961 . S
C649 H657 0.960 . S
C650 C648 1.381 . S
C650 C651 1.394 . S
C650 H658 0.930 . S
C651 C650 1.394 . S
C651 C652 1.383 . S
C651 H659 0.929 . S
C652 C651 1.383 . S
C652 C653 1.377 . S
C653 H637 0.930 . S
C653 C652 1.377 . S
C653 C654 1.379 . S
C654 H638 0.931 . S
C654 C648 1.383 . S
C654 C653 1.379 . S
H655 C649 0.959 . S
H656 C649 0.961 . S
H657 C649 0.960 . S
H658 C650 0.930 . S
H659 C651 0.929 . S
C256 C190 1.415 . S
C237 C29 1.461 . S
C273 C8 1.443 . S
C292 C150 1.413 . S
C309 C0 1.438 . S
C328 C203 1.382 . S
C345 C17 1.456 . S
C364 C163 1.414 . S
C381 C63 1.461 . S
C400 C110 1.449 . S
C417 C42 1.443 . S
C436 C70 1.423 . S
C472 C123 1.404 . S
C453 C34 1.438 . S
C508 C83 1.423 . S
C489 C51 1.456 . S
C525 C4 1.481 . S
C544 C89 1.467 . S
C561 C13 1.479 . S
C580 C129 1.454 . S
C616 C169 1.474 . S
C597 C38 1.480 . S
C633 C47 1.478 . S
C652 C209 1.460 . S
