# Generated by pormake.
# Topology pyr, (3,6)-cn, num edge types: 1
# Building blocks:
#     Node 0, Type 0, BuildingBlock: WUSLED_clean_sbu_0, # of connection points: 3
#     Node 1, Type 0, BuildingBlock: WUSLED_clean_sbu_0, # of connection points: 3
#     Node 2, Type 0, BuildingBlock: WUSLED_clean_sbu_0, # of connection points: 3
#     Node 3, Type 0, BuildingBlock: WUSLED_clean_sbu_0, # of connection points: 3
#     Node 4, Type 0, BuildingBlock: WUSLED_clean_sbu_0, # of connection points: 3
#     Node 5, Type 0, BuildingBlock: WUSLED_clean_sbu_0, # of connection points: 3
#     Node 6, Type 0, BuildingBlock: WUSLED_clean_sbu_0, # of connection points: 3
#     Node 7, Type 0, BuildingBlock: WUSLED_clean_sbu_0, # of connection points: 3
#     Node 8, Type 1, BuildingBlock: LEVNOQ01_clean_sbu_1, # of connection points: 6
#     Node 9, Type 1, BuildingBlock: LEVNOQ01_clean_sbu_1, # of connection points: 6
#     Node 10, Type 1, BuildingBlock: LEVNOQ01_clean_sbu_1, # of connection points: 6
#     Node 11, Type 1, BuildingBlock: LEVNOQ01_clean_sbu_1, # of connection points: 6
#     Edge 12, Type (0, 1), BuildingBlock: AJUNOK_clean_linker_0, # of connection points: 2
#     Edge 13, Type (0, 1), BuildingBlock: AJUNOK_clean_linker_0, # of connection points: 2
#     Edge 14, Type (0, 1), BuildingBlock: AJUNOK_clean_linker_0, # of connection points: 2
#     Edge 15, Type (0, 1), BuildingBlock: AJUNOK_clean_linker_0, # of connection points: 2
#     Edge 16, Type (0, 1), BuildingBlock: AJUNOK_clean_linker_0, # of connection points: 2
#     Edge 17, Type (0, 1), BuildingBlock: AJUNOK_clean_linker_0, # of connection points: 2
#     Edge 18, Type (0, 1), BuildingBlock: AJUNOK_clean_linker_0, # of connection points: 2
#     Edge 19, Type (0, 1), BuildingBlock: AJUNOK_clean_linker_0, # of connection points: 2
#     Edge 20, Type (0, 1), BuildingBlock: AJUNOK_clean_linker_0, # of connection points: 2
#     Edge 21, Type (0, 1), BuildingBlock: AJUNOK_clean_linker_0, # of connection points: 2
#     Edge 22, Type (0, 1), BuildingBlock: AJUNOK_clean_linker_0, # of connection points: 2
#     Edge 23, Type (0, 1), BuildingBlock: AJUNOK_clean_linker_0, # of connection points: 2
#     Edge 24, Type (0, 1), BuildingBlock: AJUNOK_clean_linker_0, # of connection points: 2
#     Edge 25, Type (0, 1), BuildingBlock: AJUNOK_clean_linker_0, # of connection points: 2
#     Edge 26, Type (0, 1), BuildingBlock: AJUNOK_clean_linker_0, # of connection points: 2
#     Edge 27, Type (0, 1), BuildingBlock: AJUNOK_clean_linker_0, # of connection points: 2
#     Edge 28, Type (0, 1), BuildingBlock: AJUNOK_clean_linker_0, # of connection points: 2
#     Edge 29, Type (0, 1), BuildingBlock: AJUNOK_clean_linker_0, # of connection points: 2
#     Edge 30, Type (0, 1), BuildingBlock: AJUNOK_clean_linker_0, # of connection points: 2
#     Edge 31, Type (0, 1), BuildingBlock: AJUNOK_clean_linker_0, # of connection points: 2
#     Edge 32, Type (0, 1), BuildingBlock: AJUNOK_clean_linker_0, # of connection points: 2
#     Edge 33, Type (0, 1), BuildingBlock: AJUNOK_clean_linker_0, # of connection points: 2
#     Edge 34, Type (0, 1), BuildingBlock: AJUNOK_clean_linker_0, # of connection points: 2
#     Edge 35, Type (0, 1), BuildingBlock: AJUNOK_clean_linker_0, # of connection points: 2
# Relax obj value: 0.034
# Max RMSD: 0.109
# Mean RMSD: 0.044
data_MOF--net-pry--node1-WUSLED_clean_sbu_0--node2-LEVNOQ01_clean_sbu_1--edge1-AJUNOK_clean_linker_0
_symmetry_space_group_name_H-M    P1
_symmetry_Int_Tables_number       1
_symmetry_cell_setting            triclinic
loop_
_symmetry_equiv_pos_as_xyz
'x, y, z'
_cell_length_a     38.060497
_cell_length_b     37.118973
_cell_length_c     36.703802
_cell_angle_alpha  92.217891
_cell_angle_beta   90.869838
_cell_angle_gamma 93.162759
loop_
_atom_site_label
_atom_site_type_symbol
_atom_site_fract_x
_atom_site_fract_y
_atom_site_fract_z
_atom_type_partial_charge
C0 C 0.15265 0.25889 0.10303 0.0
C1 C 0.13041 0.27669 0.12703 0.0
C2 C 0.11356 0.31661 0.07894 0.0
C3 C 0.11103 0.30524 0.11509 0.0
C4 C 0.13561 0.29834 0.05496 0.0
C5 C 0.15497 0.26985 0.06692 0.0
U6 U 0.17959 0.18699 0.17068 0.0
O7 O 0.1945 0.13136 0.15849 0.0
O8 O 0.2327 0.17065 0.18515 0.0
C9 C 0.22709 0.13797 0.17038 0.0
C10 C 0.17392 0.22914 0.1149 0.0
C11 C 0.25574 0.12395 0.14773 0.0
C12 C 0.2771 0.09454 0.09235 0.0
C13 C 0.24974 0.10964 0.11196 0.0
C14 C 0.31688 0.10799 0.1437 0.0
C15 C 0.31095 0.09321 0.10812 0.0
C16 C 0.28959 0.12294 0.16328 0.0
C17 C 0.13267 0.17564 0.26217 0.0
C18 C 0.14993 0.13381 0.30784 0.0
C19 C 0.09551 0.16403 0.31437 0.0
C20 C 0.1023 0.18194 0.28208 0.0
C21 C 0.11909 0.13949 0.32757 0.0
C22 C 0.15665 0.15169 0.27545 0.0
C23 C 0.13816 0.19338 0.22717 0.0
O24 O 0.19555 0.23663 0.14277 0.0
O25 O 0.1573 0.19726 0.11647 0.0
O26 O 0.12951 0.17346 0.19768 0.0
O27 O 0.16804 0.21244 0.22408 0.0
H28 H 0.12817 0.26865 0.155 0.0
H29 H 0.09437 0.31876 0.13431 0.0
H30 H 0.13763 0.30579 0.0268 0.0
H31 H 0.17184 0.25633 0.04789 0.0
H32 H 0.2717 0.08358 0.06494 0.0
H33 H 0.22392 0.10984 0.0992 0.0
H34 H 0.34281 0.10849 0.15632 0.0
H35 H 0.29495 0.13365 0.19081 0.0
H36 H 0.16861 0.11505 0.31715 0.0
H37 H 0.07106 0.16835 0.32817 0.0
H38 H 0.08335 0.20017 0.2722 0.0
H39 H 0.18025 0.14637 0.26047 0.0
C40 C 0.29466 0.89865 0.58609 0.0
C41 C 0.282 0.92241 0.6128 0.0
C42 C 0.23485 0.9377 0.57151 0.0
C43 C 0.25228 0.9416 0.60565 0.0
C44 C 0.24751 0.91368 0.54487 0.0
C45 C 0.27727 0.89435 0.55211 0.0
U46 U 0.3709 0.87874 0.64862 0.0
O47 O 0.38985 0.82695 0.66565 0.0
O48 O 0.42493 0.86443 0.63636 0.0
C49 C 0.42067 0.83255 0.65058 0.0
C50 C 0.32551 0.87788 0.59393 0.0
C51 C 0.43388 0.8017 0.62959 0.0
C52 C 0.4391 0.7648 0.57375 0.0
C53 C 0.42577 0.79478 0.59239 0.0
C54 C 0.4684 0.74875 0.62941 0.0
C55 C 0.46061 0.74146 0.59217 0.0
C56 C 0.45524 0.7785 0.64782 0.0
C57 C 0.38491 0.93269 0.73936 0.0
C58 C 0.40675 0.9128 0.79751 0.0
C59 C 0.41494 0.97568 0.78285 0.0
C60 C 0.39765 0.96803 0.74921 0.0
C61 C 0.41952 0.94815 0.80751 0.0
C62 C 0.38979 0.90511 0.76383 0.0
C63 C 0.36618 0.92521 0.70395 0.0
O64 O 0.35604 0.89629 0.5941 0.0
O65 O 0.32204 0.85661 0.62161 0.0
O66 O 0.34717 0.89456 0.70058 0.0
O67 O 0.38419 0.93255 0.6746 0.0
H68 H 0.29496 0.92586 0.6393 0.0
H69 H 0.24264 0.95917 0.62707 0.0
H70 H 0.23458 0.9101 0.51839 0.0
H71 H 0.28666 0.876 0.53123 0.0
H72 H 0.43282 0.76004 0.54504 0.0
H73 H 0.40923 0.81246 0.57787 0.0
H74 H 0.48434 0.73102 0.64459 0.0
H75 H 0.46165 0.78331 0.67653 0.0
H76 H 0.40967 0.89099 0.8159 0.0
H77 H 0.42516 1.00302 0.78928 0.0
H78 H 0.39431 0.98974 0.73078 0.0
H79 H 0.3804 0.87755 0.75709 0.0
C80 C 0.65447 0.34353 0.73125 0.0
C81 C 0.67951 0.36753 0.71607 0.0
C82 C 0.63382 0.39177 0.67827 0.0
C83 C 0.6693 0.39127 0.68958 0.0
C84 C 0.60922 0.36658 0.69251 0.0
C85 C 0.61947 0.34274 0.71872 0.0
U86 U 0.71148 0.32424 0.8143 0.0
O87 O 0.69635 0.30723 0.86866 0.0
O88 O 0.72775 0.2721 0.83421 0.0
C89 C 0.70955 0.2754 0.86423 0.0
C90 C 0.66363 0.32089 0.76173 0.0
C91 C 0.68613 0.24402 0.8735 0.0
C92 C 0.62834 0.2186 0.88925 0.0
C93 C 0.64964 0.24706 0.87643 0.0
C94 C 0.67911 0.18253 0.89438 0.0
C95 C 0.64284 0.18622 0.89911 0.0
C96 C 0.70057 0.21128 0.88193 0.0
C97 C 0.78817 0.39278 0.84208 0.0
C98 C 0.81435 0.40549 0.90251 0.0
C99 C 0.84238 0.43017 0.84943 0.0
C100 C 0.81589 0.41331 0.82701 0.0
C101 C 0.84171 0.4269 0.88746 0.0
C102 C 0.7878 0.3885 0.87997 0.0
C103 C 0.75896 0.37842 0.81793 0.0
O104 O 0.6935 0.30482 0.75931 0.0
O105 O 0.65849 0.33525 0.79435 0.0
O106 O 0.72722 0.38021 0.83124 0.0
O107 O 0.76366 0.34787 0.79976 0.0
H108 H 0.70671 0.36858 0.72537 0.0
H109 H 0.68899 0.4099 0.6787 0.0
H110 H 0.58165 0.36646 0.68469 0.0
H111 H 0.59976 0.32447 0.73016 0.0
H112 H 0.60059 0.22256 0.89275 0.0
H113 H 0.63761 0.27184 0.86992 0.0
H114 H 0.69102 0.15768 0.90083 0.0
H115 H 0.7286 0.20821 0.87967 0.0
H116 H 0.81287 0.40282 0.93173 0.0
H117 H 0.86328 0.44618 0.837 0.0
H118 H 0.81664 0.41697 0.79788 0.0
H119 H 0.76656 0.37279 0.89219 0.0
C120 C 0.78011 0.60961 0.3922 0.0
C121 C 0.7484 0.62739 0.39166 0.0
C122 C 0.72045 0.58143 0.42867 0.0
C123 C 0.71896 0.61352 0.40984 0.0
C124 C 0.7524 0.56428 0.43032 0.0
C125 C 0.78189 0.57812 0.4121 0.0
U126 U 0.86353 0.6701 0.3773 0.0
O127 O 0.91277 0.65835 0.34968 0.0
O128 O 0.87919 0.69919 0.32849 0.0
C129 C 0.90662 0.67979 0.3229 0.0
C130 C 0.81026 0.6223 0.37003 0.0
C131 C 0.90924 0.66319 0.28601 0.0
C132 C 0.8848 0.62402 0.23617 0.0
C133 C 0.88089 0.64223 0.26988 0.0
C134 C 0.94506 0.64838 0.23391 0.0
C135 C 0.91725 0.62614 0.21828 0.0
C136 C 0.94108 0.66669 0.26749 0.0
C137 C 0.89636 0.73838 0.45377 0.0
C138 C 0.95414 0.76204 0.47587 0.0
C139 C 0.90616 0.80193 0.47164 0.0
C140 C 0.88368 0.77293 0.45923 0.0
C141 C 0.94184 0.79703 0.47929 0.0
C142 C 0.93165 0.73298 0.46311 0.0
C143 C 0.87223 0.70866 0.43865 0.0
O144 O 0.80948 0.65533 0.35845 0.0
O145 O 0.84179 0.61416 0.38114 0.0
O146 O 0.88534 0.67686 0.43322 0.0
O147 O 0.85115 0.71717 0.41198 0.0
H148 H 0.74592 0.65151 0.37636 0.0
H149 H 0.69457 0.62711 0.4079 0.0
H150 H 0.75435 0.53971 0.44503 0.0
H151 H 0.80582 0.56366 0.41291 0.0
H152 H 0.86276 0.60751 0.22458 0.0
H153 H 0.85605 0.63924 0.28377 0.0
H154 H 0.97046 0.6503 0.22098 0.0
H155 H 0.96325 0.68271 0.27955 0.0
H156 H 0.98132 0.75728 0.48226 0.0
H157 H 0.89586 0.82855 0.47372 0.0
H158 H 0.85648 0.77777 0.45294 0.0
H159 H 0.94211 0.70651 0.45997 0.0
C160 C 0.89031 0.79841 0.94358 0.0
C161 C 0.92426 0.80466 0.95911 0.0
C162 C 0.9276 0.74057 0.97101 0.0
C163 C 0.94268 0.7761 0.97249 0.0
C164 C 0.89365 0.73435 0.95555 0.0
C165 C 0.87519 0.76291 0.94224 0.0
U166 U 0.86499 0.87254 0.87686 0.0
O167 O 0.81227 0.88901 0.86105 0.0
O168 O 0.84945 0.92779 0.88993 0.0
C169 C 0.81729 0.92134 0.87675 0.0
C170 C 0.86938 0.82873 0.93144 0.0
C171 C 0.7881 0.93407 0.89923 0.0
C172 C 0.7615 0.94782 0.95779 0.0
C173 C 0.78981 0.93556 0.93754 0.0
C174 C 0.72954 0.95734 0.9018 0.0
C175 C 0.73095 0.95884 0.94016 0.0
C176 C 0.75782 0.94526 0.88164 0.0
C177 C 0.91544 0.88485 0.78699 0.0
C178 C 0.90312 0.92936 0.74211 0.0
C179 C 0.95253 0.89169 0.73391 0.0
C180 C 0.94414 0.87456 0.76625 0.0
C181 C 0.93225 0.91944 0.72143 0.0
C182 C 0.89476 0.9122 0.77456 0.0
C183 C 0.90825 0.8672 0.82174 0.0
O184 O 0.88541 0.86105 0.93143 0.0
O185 O 0.84818 0.82205 0.90305 0.0
O186 O 0.87819 0.8482 0.82343 0.0
O187 O 0.91579 0.88691 0.85165 0.0
H188 H 0.93662 0.83166 0.96121 0.0
H189 H 0.96876 0.78189 0.98424 0.0
H190 H 0.88151 0.70727 0.95312 0.0
H191 H 0.84893 0.75717 0.93093 0.0
H192 H 0.7634 0.94844 0.98728 0.0
H193 H 0.81285 0.92704 0.95181 0.0
H194 H 0.70611 0.96445 0.88725 0.0
H195 H 0.75586 0.94425 0.85213 0.0
H196 H 0.88703 0.95071 0.73338 0.0
H197 H 0.97569 0.88402 0.71939 0.0
H198 H 0.96055 0.85365 0.77546 0.0
H199 H 0.87249 0.92057 0.79018 0.0
C200 C 0.60549 0.14263 0.31433 0.0
C201 C 0.62839 0.14216 0.28457 0.0
C202 C 0.58241 0.11163 0.24591 0.0
C203 C 0.61693 0.12677 0.25069 0.0
C204 C 0.5603 0.11033 0.27624 0.0
C205 C 0.57166 0.12585 0.31001 0.0
U206 U 0.66646 0.16627 0.39792 0.0
O207 O 0.68231 0.21949 0.42319 0.0
O208 O 0.65284 0.1794 0.45486 0.0
C209 C 0.66509 0.21315 0.45327 0.0
C210 C 0.6151 0.16263 0.34908 0.0
C211 C 0.64159 0.24169 0.46545 0.0
C212 C 0.58503 0.26124 0.48672 0.0
C213 C 0.60694 0.23352 0.47666 0.0
C214 C 0.63215 0.30563 0.47534 0.0
C215 C 0.5972 0.29765 0.48552 0.0
C216 C 0.65409 0.278 0.46559 0.0
C217 C 0.75302 0.11608 0.40555 0.0
C218 C 0.79181 0.10959 0.45806 0.0
C219 C 0.81031 0.09169 0.39746 0.0
C220 C 0.77867 0.10228 0.38283 0.0
C221 C 0.81705 0.09461 0.43525 0.0
C222 C 0.75991 0.12027 0.44328 0.0
C223 C 0.71907 0.12413 0.38883 0.0
O224 O 0.6142 0.14386 0.37873 0.0
O225 O 0.64217 0.18618 0.34848 0.0
O226 O 0.71777 0.1557 0.37402 0.0
O227 O 0.6905 0.1147 0.40666 0.0
H228 H 0.65474 0.15468 0.28709 0.0
H229 H 0.63455 0.12812 0.22782 0.0
H230 H 0.53382 0.09814 0.27359 0.0
H231 H 0.55359 0.12568 0.33254 0.0
H232 H 0.55851 0.25415 0.49525 0.0
H233 H 0.59657 0.2058 0.47731 0.0
H234 H 0.64232 0.33337 0.47393 0.0
H235 H 0.68075 0.28509 0.45745 0.0
H236 H 0.79622 0.11188 0.4873 0.0
H237 H 0.8294 0.0806 0.37917 0.0
H238 H 0.77391 0.09897 0.35367 0.0
H239 H 0.7404 0.13099 0.46129 0.0
C240 C 0.26107 0.64923 0.20126 0.0
C241 C 0.23286 0.66971 0.19079 0.0
C242 C 0.20656 0.61805 0.15505 0.0
C243 C 0.20579 0.6542 0.16795 0.0
C244 C 0.23537 0.5981 0.16474 0.0
C245 C 0.26226 0.61351 0.18761 0.0
U246 U 0.33262 0.72027 0.23728 0.0
O247 O 0.34772 0.7366 0.29395 0.0
O248 O 0.38568 0.71104 0.25836 0.0
C249 C 0.3784 0.72205 0.29171 0.0
C250 C 0.28872 0.66348 0.22755 0.0
C251 C 0.38658 0.69664 0.32018 0.0
C252 C 0.37102 0.64324 0.35418 0.0
C253 C 0.36172 0.66948 0.32993 0.0
C254 C 0.4298 0.67153 0.36003 0.0
C255 C 0.40548 0.64334 0.36868 0.0
C256 C 0.42043 0.69788 0.33595 0.0
C257 C 0.35189 0.80558 0.18193 0.0
C258 C 0.40003 0.85041 0.1945 0.0
C259 C 0.36876 0.84879 0.13645 0.0
C260 C 0.34678 0.82012 0.14773 0.0
C261 C 0.3964 0.86356 0.15919 0.0
C262 C 0.3781 0.82141 0.2057 0.0
C263 C 0.33182 0.77197 0.19031 0.0
O264 O 0.321 0.66479 0.21533 0.0
O265 O 0.28179 0.69188 0.24823 0.0
O266 O 0.31336 0.77217 0.22032 0.0
O267 O 0.34877 0.74238 0.18512 0.0
H268 H 0.23127 0.69737 0.20088 0.0
H269 H 0.18365 0.67008 0.16152 0.0
H270 H 0.2368 0.57026 0.15511 0.0
H271 H 0.28374 0.5972 0.19527 0.0
H272 H 0.35151 0.62226 0.3608 0.0
H273 H 0.33543 0.66798 0.31804 0.0
H274 H 0.45659 0.67224 0.37054 0.0
H275 H 0.44001 0.71855 0.32868 0.0
H276 H 0.42063 0.86164 0.21294 0.0
H277 H 0.36537 0.85794 0.10902 0.0
H278 H 0.32674 0.80818 0.12899 0.0
H279 H 0.38239 0.81054 0.23227 0.0
C280 C 0.07924 0.31895 0.6333 0.0
C281 C 0.08849 0.31734 0.59639 0.0
C282 C 0.05372 0.26044 0.58713 0.0
C283 C 0.07552 0.28845 0.57335 0.0
C284 C 0.04288 0.26364 0.62358 0.0
C285 C 0.05549 0.2926 0.64636 0.0
U286 U 0.15736 0.38295 0.66214 0.0
O287 O 0.16073 0.43437 0.69417 0.0
O288 O 0.18642 0.38745 0.7146 0.0
C289 C 0.17815 0.42092 0.72124 0.0
C290 C 0.0971 0.34497 0.65962 0.0
C291 C 0.16544 0.42922 0.75812 0.0
C292 C 0.11805 0.43485 0.80124 0.0
C293 C 0.1298 0.42385 0.7668 0.0
C294 C 0.17767 0.45502 0.81915 0.0
C295 C 0.14175 0.45142 0.82742 0.0
C296 C 0.18937 0.44407 0.78476 0.0
C297 C 0.23426 0.39939 0.6001 0.0
C298 C 0.28096 0.44373 0.61873 0.0
C299 C 0.28927 0.4023 0.56731 0.0
C300 C 0.25532 0.38676 0.57186 0.0
C301 C 0.3026 0.43057 0.59109 0.0
C302 C 0.2472 0.42811 0.62336 0.0
C303 C 0.19939 0.38188 0.60617 0.0
O304 O 0.12596 0.33365 0.67434 0.0
O305 O 0.10031 0.3788 0.65013 0.0
O306 O 0.17364 0.40392 0.60942 0.0
O307 O 0.19876 0.3572 0.63091 0.0
H308 H 0.10689 0.33749 0.58581 0.0
H309 H 0.08382 0.28722 0.54526 0.0
H310 H 0.02649 0.24248 0.63535 0.0
H311 H 0.04819 0.29331 0.67479 0.0
H312 H 0.09019 0.43195 0.80683 0.0
H313 H 0.11098 0.41218 0.74663 0.0
H314 H 0.19654 0.46729 0.83894 0.0
H315 H 0.21704 0.4481 0.77862 0.0
H316 H 0.29023 0.46602 0.63694 0.0
H317 H 0.3054 0.39166 0.5458 0.0
H318 H 0.24572 0.36454 0.55371 0.0
H319 H 0.23129 0.43824 0.64532 0.0
O320 O 1.01429 0.03066 0.62156 0.0
Mg321 Mg 0.05148 0.05685 0.58941 0.0
O322 O 0.99713 0.9975 0.57277 0.0
Mg323 Mg 0.0247 0.02417 0.52061 0.0
O324 O 0.03373 0.08377 0.54541 0.0
O325 O 0.05357 0.11039 0.59858 0.0
O326 O 0.05282 0.05371 0.47007 0.0
O327 O 0.96854 0.04222 0.50343 0.0
Mg328 Mg 1.01073 0.99413 0.45217 0.0
O329 O 1.01446 0.96343 0.49696 0.0
O330 O 0.05452 0.01394 0.42487 0.0
O331 O 0.96272 0.01909 0.44723 0.0
O332 O 1.0049 0.94136 0.43939 0.0
C333 C 0.10584 0.01321 0.55903 0.0
C334 C 0.99563 1.00461 0.6072 0.0
C335 C 0.04117 0.11275 0.56593 0.0
C336 C 0.06381 0.04466 0.43839 0.0
C337 C 0.95071 0.03723 0.47371 0.0
C338 C 1.0087 0.93615 0.47369 0.0
O339 O 0.10127 0.03612 0.58461 0.0
O340 O 0.08123 1.00497 0.53563 0.0
O341 O 0.44744 0.08094 1.01045 0.0
Mg342 Mg 0.50053 0.0905 0.02524 0.0
O343 O 0.46021 0.03507 0.04245 0.0
Mg344 Mg 0.51845 0.0199 0.02446 0.0
O345 O 0.53871 0.07145 0.99261 0.0
O346 O 0.52327 0.12918 0.99492 0.0
O347 O 0.577 1.00436 1.00809 0.0
O348 O 0.49366 0.9986 0.9679 0.0
Mg349 Mg 0.52773 0.94391 1.01427 0.0
O350 O 0.50054 0.96746 0.05628 0.0
O351 O 0.58238 0.94669 1.01631 0.0
O352 O 0.50294 0.94063 0.9624 0.0
O353 O 0.50812 0.90788 0.049 0.0
C354 C 0.53299 0.07254 0.09754 0.0
C355 C 0.43743 0.05641 0.03126 0.0
C356 C 0.54239 0.10442 0.98165 0.0
C357 C 0.59613 0.97704 1.00864 0.0
C358 C 0.49072 0.9686 0.94956 0.0
C359 C 0.49543 0.93449 0.06713 0.0
O360 O 0.51473 0.09503 0.08162 0.0
O361 O 0.54111 0.0435 0.0806 0.0
O362 O 0.51589 0.59225 0.59338 0.0
Mg363 Mg 0.50994 0.53774 0.60471 0.0
O364 O 0.50305 0.57685 0.5359 0.0
Mg365 Mg 0.51458 0.51493 0.52528 0.0
O366 O 0.54463 0.50482 0.58021 0.0
O367 O 0.54639 0.52067 0.63985 0.0
O368 O 0.52785 0.4534 0.51581 0.0
O369 O 0.56884 0.53354 0.50199 0.0
Mg370 Mg 0.514 0.48486 0.45316 0.0
O371 O 0.48432 0.52638 0.47041 0.0
O372 O 0.50024 0.43164 0.46654 0.0
O373 O 0.56838 0.50071 0.45035 0.0
O374 O 0.48309 0.50283 0.41318 0.0
C375 C 0.44427 0.49607 0.578 0.0
C376 C 0.50752 0.60092 0.56165 0.0
C377 C 0.55859 0.50247 0.61265 0.0
C378 C 0.51782 0.42631 0.49498 0.0
C379 C 0.58435 0.52236 0.47344 0.0
C380 C 0.47219 0.526 0.43695 0.0
O381 O 0.45887 0.51222 0.60581 0.0
O382 O 0.45997 0.49495 0.54749 0.0
O383 O 1.00637 0.44474 0.06588 0.0
Mg384 Mg 0.01715 0.49932 0.08216 0.0
O385 O 0.04627 0.47022 0.0326 0.0
Mg386 Mg 0.01994 0.52782 0.02414 0.0
O387 O 0.98251 0.53861 0.07605 0.0
O388 O 0.988 0.50697 0.12657 0.0
O389 O 0.99376 0.58576 1.01595 0.0
O390 O 0.97215 0.49669 0.99484 0.0
Mg391 Mg 0.02091 0.55503 0.96558 0.0
O392 O 0.05767 0.51774 0.97219 0.0
O393 O 0.03176 0.60988 0.97964 0.0
O394 O 0.96847 0.53528 0.9515 0.0
O395 O 0.04906 0.54726 0.92067 0.0
C396 C 0.08335 0.54602 0.08147 0.0
C397 C 0.0333 0.44167 0.04685 0.0
C398 C 0.9734 0.53187 0.10934 0.0
C399 C 1.00617 0.6138 1.00034 0.0
C400 C 0.95597 0.50765 0.9671 0.0
C401 C 0.06572 0.52425 0.93856 0.0
O402 O 0.06981 0.51845 0.09649 0.0
O403 O 0.06781 0.55809 0.05385 0.0
C404 C 0.11266 0.07946 0.3564 0.0
C405 C 0.10967 0.11704 0.35938 0.0
C406 C 0.09975 0.05676 0.38334 0.0
C407 C 0.08322 0.07047 0.41468 0.0
H408 H 0.12351 0.06714 0.33213 0.0
H409 H 0.10153 0.02792 0.37874 0.0
S410 S 0.07288 0.16741 0.43814 0.0
N411 N 0.09221 0.16744 0.39813 0.0
N412 N 0.06752 0.12461 0.44867 0.0
C413 C 0.08199 0.10821 0.41923 0.0
C414 C 0.09514 0.13146 0.39158 0.0
C415 C 0.46346 0.93184 0.85474 0.0
C416 C 0.43834 0.95558 0.84322 0.0
C417 C 0.48043 0.93671 0.88883 0.0
C418 C 0.4733 0.96575 0.91293 0.0
H419 H 0.4701 0.90912 0.83725 0.0
H420 H 0.49933 0.9174 0.89632 0.0
S421 S 0.40954 0.03565 0.89623 0.0
N422 N 0.40686 1.00918 0.85895 0.0
N423 N 0.43943 0.01881 0.9228 0.0
C424 C 0.44876 0.9902 0.90158 0.0
C425 C 0.43117 0.98504 0.86683 0.0
C426 C 0.59623 0.41229 0.62678 0.0
C427 C 0.62128 0.42069 0.65501 0.0
C428 C 0.57833 0.43952 0.60997 0.0
C429 C 0.5849 0.476 0.62079 0.0
H430 H 0.58896 0.38437 0.6191 0.0
H431 H 0.55708 0.43174 0.59082 0.0
S432 S 0.65022 0.51281 0.69037 0.0
N433 N 0.65344 0.46866 0.69078 0.0
N434 N 0.62018 0.51949 0.65879 0.0
C435 C 0.61166 0.48492 0.64688 0.0
C436 C 0.62983 0.45737 0.66403 0.0
C437 C 0.94172 0.61628 0.15551 0.0
C438 C 0.92378 0.60238 0.18572 0.0
C439 C 0.95454 0.59321 0.12808 0.0
C440 C 0.95026 0.55549 0.13029 0.0
H441 H 0.94746 0.64509 0.15407 0.0
H442 H 0.97037 0.60491 0.10679 0.0
S443 S 0.90146 0.50559 0.20099 0.0
N444 N 0.89949 0.5485 0.21397 0.0
N445 N 0.92343 0.50543 0.16256 0.0
C446 C 0.92993 0.54145 0.15866 0.0
C447 C 0.91674 0.56481 0.18637 0.0
C448 C 0.34669 0.08928 0.05123 0.0
C449 C 0.34058 0.07839 0.08698 0.0
C450 C 0.37693 0.0798 0.03248 0.0
C451 C 0.40237 0.05888 0.04855 0.0
H452 H 0.3289 0.10684 0.03825 0.0
H453 H 0.38113 0.09035 1.00568 0.0
S454 S 0.39649 0.01949 0.13987 0.0
N455 N 0.36055 0.04216 0.13625 0.0
N456 N 0.41769 0.02503 0.1014 0.0
C457 C 0.39546 0.04587 0.0834 0.0
C458 C 0.3646 0.05555 0.10253 0.0
C459 C 0.17202 0.94049 0.54983 0.0
C460 C 0.20315 0.95824 0.56429 0.0
C461 C 0.14082 0.95881 0.54644 0.0
C462 C 0.1397 0.99539 0.55765 0.0
H463 H 0.17138 0.91192 0.54245 0.0
H464 H 0.11712 0.94382 0.53657 0.0
S465 S 0.21536 0.05549 0.59144 0.0
N466 N 0.23186 0.01554 0.58537 0.0
N467 N 0.1733 0.04966 0.5798 0.0
C468 C 0.1711 0.01385 0.57021 0.0
C469 C 0.20279 0.99536 0.57334 0.0
C470 C 0.87692 0.48398 0.90485 0.0
C471 C 0.8688 0.44731 0.91097 0.0
C472 C 0.90413 0.50348 0.92427 0.0
C473 C 0.92446 0.48723 0.95079 0.0
H474 H 0.8624 0.49767 0.88442 0.0
H475 H 0.9097 0.53143 0.91781 0.0
S476 S 0.91303 0.39209 0.97817 0.0
N477 N 0.88256 0.39563 0.94618 0.0
N478 N 0.93362 0.43237 0.98308 0.0
C479 C 0.91578 0.45089 0.95823 0.0
C480 C 0.88799 0.43093 0.93826 0.0
C481 C 0.66588 0.58512 0.46593 0.0
C482 C 0.68783 0.56458 0.44378 0.0
C483 C 0.63306 0.57072 0.47708 0.0
C484 C 0.62082 0.53552 0.46585 0.0
H485 H 0.67386 0.61276 0.47408 0.0
H486 H 0.61656 0.58779 0.49324 0.0
S487 S 0.66918 0.46997 0.40966 0.0
N488 N 0.69568 0.50674 0.41249 0.0
N489 N 0.63419 0.47969 0.43336 0.0
C490 C 0.6431 0.51431 0.44483 0.0
C491 C 0.67655 0.52882 0.43382 0.0
C492 C 0.05712 0.34848 0.07524 0.0
C493 C 0.09291 0.3472 0.06654 0.0
C494 C 0.03763 0.37809 0.06656 0.0
C495 C 0.05301 0.40803 0.04895 0.0
H496 H 0.04413 0.32658 0.08946 0.0
H497 H 1.01046 0.37796 0.07497 0.0
S498 S 0.14547 0.41728 0.01825 0.0
N499 N 0.14266 0.37787 0.03772 0.0
N500 N 0.106 0.43342 0.02124 0.0
C501 C 0.08839 0.4064 0.03855 0.0
C502 C 0.10831 0.37611 0.04741 0.0
C503 C 0.5855 0.14986 0.90302 0.0
C504 C 0.62007 0.15788 0.91643 0.0
C505 C 0.56096 0.12944 0.92293 0.0
C506 C 0.5703 0.11549 0.95649 0.0
H507 H 0.57675 0.1611 0.87787 0.0
H508 H 0.53397 0.12625 0.91299 0.0
S509 S 0.65759 0.12578 1.00263 0.0
N510 N 0.6626 0.14823 0.9649 0.0
N511 N 0.61652 0.10886 1.00145 0.0
C512 C 0.60522 0.12089 0.96903 0.0
C513 C 0.63018 0.14221 0.94912 0.0
C514 C 0.95619 0.85786 0.5099 0.0
C515 C 0.96628 0.82929 0.48658 0.0
C516 C 0.97339 0.89228 0.50932 0.0
C517 C 1.00125 0.89911 0.48549 0.0
H518 H 0.93316 0.85432 0.52667 0.0
H519 H 0.96248 0.91437 0.52472 0.0
S520 S 0.04152 0.83267 0.4234 0.0
N521 N 1.00883 0.80946 0.44229 0.0
N522 N 0.04125 0.87395 0.44178 0.0
C523 C 1.01393 0.87003 0.465 0.0
C524 C 0.99646 0.83508 0.46545 0.0
C525 C 0.50973 0.70073 0.58091 0.0
C526 C 0.47459 0.70877 0.57396 0.0
C527 C 0.52149 0.66628 0.57297 0.0
C528 C 0.4988 0.63874 0.55708 0.0
H529 H 0.52764 0.72047 0.59501 0.0
H530 H 0.54781 0.66041 0.58175 0.0
S531 S 0.40607 0.64715 0.5281 0.0
N532 N 0.41835 0.68736 0.54636 0.0
N533 N 0.44095 0.62271 0.53065 0.0
C534 C 0.46479 0.64736 0.54638 0.0
C535 C 0.45255 0.68243 0.55495 0.0
C536 C 0.94599 0.97819 0.69176 0.0
C537 C 0.94352 0.94023 0.68905 0.0
C538 C 0.96097 0.99861 0.66401 0.0
C539 C 0.97388 0.98213 0.63204 0.0
H540 H 0.93794 0.9923 0.71636 0.0
H541 H 0.96361 0.02769 0.66827 0.0
S542 S 0.9706 0.88373 0.6097 0.0
N543 N 0.95268 0.88697 0.65034 0.0
N544 N 0.98119 0.92554 0.59835 0.0
C545 C 0.96985 0.94431 0.62797 0.0
C546 C 0.95472 0.92336 0.65644 0.0
C547 C 0.58745 0.07685 0.18594 0.0
C548 C 0.56864 0.09996 0.20886 0.0
C549 C 0.57535 0.06708 0.15028 0.0
C550 C 0.54436 0.08063 0.13607 0.0
H551 H 0.61174 0.06635 0.19562 0.0
H552 H 0.59085 0.0496 0.13344 0.0
S553 S 0.4852 0.14152 0.18531 0.0
N554 N 0.51732 0.13574 0.21484 0.0
N555 N 0.49451 0.11738 0.14837 0.0
C556 C 0.52512 0.10333 0.15899 0.0
C557 C 0.53726 0.11298 0.19521 0.0
C558 C 0.43774 0.61846 0.42192 0.0
C559 C 0.41733 0.61245 0.38964 0.0
C560 C 0.45333 0.58985 0.43899 0.0
C561 C 0.4494 0.5543 0.42412 0.0
H562 H 0.44265 0.64564 0.43338 0.0
H563 H 0.4703 0.59598 0.46263 0.0
S564 S 0.39634 0.52372 0.34185 0.0
N565 N 0.39248 0.56779 0.34486 0.0
N566 N 0.42128 0.5143 0.37702 0.0
C567 C 0.42749 0.54772 0.39307 0.0
C568 C 0.41158 0.57669 0.37582 0.0
C569 C 0.10457 0.4492 0.88356 0.0
C570 C 0.12829 0.46849 0.86136 0.0
C571 C 0.087 0.4668 0.912 0.0
C572 C 0.09226 0.50427 0.91865 0.0
H573 H 0.09838 0.4207 0.8778 0.0
H574 H 0.06717 0.45158 0.92683 0.0
S575 S 0.15338 0.56649 0.87048 0.0
N576 N 0.1578 0.52666 0.84996 0.0
N577 N 0.12447 0.55952 0.90291 0.0
C578 C 0.11743 0.52331 0.89822 0.0
C579 C 0.13555 0.50548 0.86967 0.0
C580 C 0.68752 0.94618 0.98938 0.0
C581 C 0.69937 0.96851 0.96148 0.0
C582 C 0.6552 0.95099 1.00622 0.0
C583 C 0.63323 0.97843 0.9961 0.0
H584 H 0.70236 0.92347 0.99695 0.0
H585 H 0.64665 0.93188 0.02629 0.0
S586 S 0.65417 0.0473 0.92791 0.0
N587 N 0.68833 0.02171 0.92725 0.0
N588 N 0.62725 0.03034 0.95855 0.0
C589 C 0.64579 1.00254 0.97001 0.0
C590 C 0.67883 0.99759 0.95271 0.0
C591 C 0.85795 0.04471 0.43819 0.0
C592 C 0.8495 0.07958 0.45009 0.0
C593 C 0.89019 0.03095 0.44742 0.0
C594 C 0.91531 0.05127 0.46928 0.0
H595 H 0.83981 0.0282 0.42069 0.0
H596 H 0.8958 1.00434 0.43659 0.0
S597 S 0.90546 0.14327 0.50939 0.0
N598 N 0.86827 0.1337 0.48628 0.0
N599 N 0.92899 0.10736 0.50423 0.0
C600 C 0.90661 0.08545 0.48307 0.0
C601 C 0.87366 0.09971 0.47335 0.0
C602 C 0.16213 0.56638 0.14516 0.0
C603 C 0.17619 0.6 0.13421 0.0
C604 C 0.13274 0.54906 0.12737 0.0
C605 C 0.11597 0.56448 0.09774 0.0
H606 H 0.17344 0.55365 0.16828 0.0
H607 H 0.12283 0.52342 0.13746 0.0
S608 S 0.14385 0.65128 0.05688 0.0
N609 N 0.17229 0.64744 0.09076 0.0
N610 N 0.1167 0.61501 0.05732 0.0
C611 C 0.13022 0.5978 0.08591 0.0
C612 C 0.16029 0.61554 0.1042 0.0
C613 C 0.35203 0.45663 0.55386 0.0
C614 C 0.33926 0.44588 0.58779 0.0
C615 C 0.38621 0.47239 0.5507 0.0
C616 C 0.40875 0.47811 0.5814 0.0
H617 H 0.33524 0.45349 0.52972 0.0
H618 H 0.39474 0.48083 0.52417 0.0
S619 S 0.38927 0.45058 0.67554 0.0
N620 N 0.35287 0.43899 0.65195 0.0
N621 N 0.41669 0.46904 0.64628 0.0
C622 C 0.39657 0.46645 0.61526 0.0
C623 C 0.36196 0.45025 0.61838 0.0
C624 C 0.9832 0.70725 0.97221 0.0
C625 C 0.94819 0.70985 0.98326 0.0
C626 C 1.00227 0.67711 0.97997 0.0
C627 C 0.98727 0.64799 0.99914 0.0
H628 H 0.99562 0.72799 0.95601 0.0
H629 H 0.02865 0.6761 0.96947 0.0
S630 S 0.89809 0.6438 0.03887 0.0
N631 N 0.9005 0.68248 0.018 0.0
N632 N 0.93619 0.62555 0.03218 0.0
C633 C 0.95296 0.65117 1.01229 0.0
C634 C 0.93345 0.68202 1.00433 0.0
C635 C 0.41358 0.9168 0.12138 0.0
C636 C 0.42361 0.88886 0.14373 0.0
C637 C 0.43805 0.93486 0.09913 0.0
C638 C 0.47331 0.92557 0.09857 0.0
H639 H 0.3862 0.92314 0.11931 0.0
H640 H 0.42868 0.95378 0.07998 0.0
S641 S 0.51414 0.85794 0.1549 0.0
N642 N 0.47226 0.85547 0.16609 0.0
N643 N 0.51795 0.88975 0.12479 0.0
C644 C 0.48425 0.90004 0.12297 0.0
C645 C 0.4595 0.88165 0.14552 0.0
C646 C 1.01357 0.20641 0.56975 0.0
C647 C 0.04647 0.22534 0.56645 0.0
C648 C 1.00986 0.16887 0.56325 0.0
C649 C 0.03874 0.14927 0.55261 0.0
H650 H 0.99152 0.22005 0.58104 0.0
H651 H 0.9855 0.15472 0.57066 0.0
S652 S 0.12806 0.18645 0.53201 0.0
N653 N 0.10678 0.22195 0.54577 0.0
N654 N 0.09917 0.15166 0.53288 0.0
C655 C 0.0701 0.16839 0.54406 0.0
C656 C 0.07415 0.20649 0.55108 0.0
C657 C 0.5857 0.35825 0.51436 0.0
C658 C 0.57348 0.32764 0.493 0.0
C659 C 0.56625 0.38924 0.51709 0.0
C660 C 0.53368 0.39087 0.49868 0.0
H661 H 0.61121 0.35882 0.52793 0.0
H662 H 0.57802 0.41283 0.53177 0.0
S663 S 0.48832 0.31685 0.442 0.0
N664 N 0.52563 0.30016 0.45495 0.0
N665 N 0.48869 0.35796 0.46088 0.0
C666 C 0.52012 0.35964 0.47913 0.0
C667 C 0.54004 0.32814 0.47616 0.0
loop_
_geom_bond_atom_site_label_1
_geom_bond_atom_site_label_2
_geom_bond_distance
_geom_bond_site_symmetry_2
_ccdc_geom_bond_type
C0 C1 1.264 . S
C0 C5 1.479 . S
C0 C10 1.465 . S
C1 C0 1.264 . S
C1 C3 1.339 . S
C1 H28 0.931 . S
C2 C3 1.395 . S
C2 C4 1.320 . S
C3 C1 1.339 . S
C3 C2 1.395 . S
C3 H29 0.929 . S
C4 C2 1.320 . S
C4 C5 1.405 . S
C4 H30 0.930 . S
C5 C0 1.479 . S
C5 C4 1.405 . S
C5 H31 0.931 . S
U6 O7 2.454 . S
U6 O8 2.458 . S
U6 C9 2.984 . S
U6 C10 2.847 . S
U6 C23 2.882 . S
U6 O24 2.441 . S
U6 O25 2.420 . S
U6 O26 2.455 . S
U6 O27 2.449 . S
O7 U6 2.454 . S
O7 C9 1.353 . S
O8 U6 2.458 . S
O8 C9 1.286 . S
C9 U6 2.984 . S
C9 O7 1.353 . S
C9 O8 1.286 . S
C9 C11 1.363 . S
C10 C0 1.465 . S
C10 U6 2.847 . S
C10 O24 1.249 . S
C10 O25 1.202 . S
C11 C9 1.363 . S
C11 C13 1.408 . S
C11 C16 1.342 . S
C12 C13 1.310 . S
C12 C15 1.461 . S
C12 H32 0.932 . S
C13 C11 1.408 . S
C13 C12 1.310 . S
C13 H33 0.930 . S
C14 C15 1.474 . S
C14 C16 1.285 . S
C14 H34 0.929 . S
C15 C12 1.461 . S
C15 C14 1.474 . S
C16 C11 1.342 . S
C16 C14 1.285 . S
C16 H35 0.930 . S
C17 C20 1.424 . S
C17 C22 1.245 . S
C17 C23 1.428 . S
C18 C21 1.260 . S
C18 C22 1.477 . S
C18 H36 0.932 . S
C19 C20 1.384 . S
C19 C21 1.479 . S
C19 H37 0.929 . S
C20 C17 1.424 . S
C20 C19 1.384 . S
C20 H38 0.928 . S
C21 C18 1.260 . S
C21 C19 1.479 . S
C22 C17 1.245 . S
C22 C18 1.477 . S
C22 H39 0.932 . S
C23 U6 2.882 . S
C23 C17 1.428 . S
C23 O26 1.301 . S
C23 O27 1.282 . S
O24 U6 2.441 . S
O24 C10 1.249 . S
O25 U6 2.420 . S
O25 C10 1.202 . S
O26 U6 2.455 . S
O26 C23 1.301 . S
O27 U6 2.449 . S
O27 C23 1.282 . S
H28 C1 0.931 . S
H29 C3 0.929 . S
H30 C4 0.930 . S
H31 C5 0.931 . S
H32 C12 0.932 . S
H33 C13 0.930 . S
H34 C14 0.929 . S
H35 C16 0.930 . S
H36 C18 0.932 . S
H37 C19 0.929 . S
H38 C20 0.928 . S
H39 C22 0.932 . S
C40 C41 1.264 . S
C40 C45 1.479 . S
C40 C50 1.465 . S
C41 C40 1.264 . S
C41 C43 1.339 . S
C41 H68 0.931 . S
C42 C43 1.395 . S
C42 C44 1.320 . S
C43 C41 1.339 . S
C43 C42 1.395 . S
C43 H69 0.929 . S
C44 C42 1.320 . S
C44 C45 1.405 . S
C44 H70 0.930 . S
C45 C40 1.479 . S
C45 C44 1.405 . S
C45 H71 0.931 . S
U46 O47 2.454 . S
U46 O48 2.458 . S
U46 C49 2.984 . S
U46 C50 2.847 . S
U46 C63 2.882 . S
U46 O64 2.441 . S
U46 O65 2.420 . S
U46 O66 2.455 . S
U46 O67 2.449 . S
O47 U46 2.454 . S
O47 C49 1.353 . S
O48 U46 2.458 . S
O48 C49 1.286 . S
C49 U46 2.984 . S
C49 O47 1.353 . S
C49 O48 1.286 . S
C49 C51 1.363 . S
C50 C40 1.465 . S
C50 U46 2.847 . S
C50 O64 1.249 . S
C50 O65 1.202 . S
C51 C49 1.363 . S
C51 C53 1.408 . S
C51 C56 1.342 . S
C52 C53 1.310 . S
C52 C55 1.461 . S
C52 H72 0.932 . S
C53 C51 1.408 . S
C53 C52 1.310 . S
C53 H73 0.930 . S
C54 C55 1.474 . S
C54 C56 1.285 . S
C54 H74 0.929 . S
C55 C52 1.461 . S
C55 C54 1.474 . S
C56 C51 1.342 . S
C56 C54 1.285 . S
C56 H75 0.930 . S
C57 C60 1.424 . S
C57 C62 1.245 . S
C57 C63 1.428 . S
C58 C61 1.260 . S
C58 C62 1.477 . S
C58 H76 0.932 . S
C59 C60 1.384 . S
C59 C61 1.479 . S
C59 H77 0.929 . S
C60 C57 1.424 . S
C60 C59 1.384 . S
C60 H78 0.928 . S
C61 C58 1.260 . S
C61 C59 1.479 . S
C62 C57 1.245 . S
C62 C58 1.477 . S
C62 H79 0.932 . S
C63 U46 2.882 . S
C63 C57 1.428 . S
C63 O66 1.301 . S
C63 O67 1.282 . S
O64 U46 2.441 . S
O64 C50 1.249 . S
O65 U46 2.420 . S
O65 C50 1.202 . S
O66 U46 2.455 . S
O66 C63 1.301 . S
O67 U46 2.449 . S
O67 C63 1.282 . S
H68 C41 0.931 . S
H69 C43 0.929 . S
H70 C44 0.930 . S
H71 C45 0.931 . S
H72 C52 0.932 . S
H73 C53 0.930 . S
H74 C54 0.929 . S
H75 C56 0.930 . S
H76 C58 0.932 . S
H77 C59 0.929 . S
H78 C60 0.928 . S
H79 C62 0.932 . S
C80 C81 1.264 . S
C80 C85 1.479 . S
C80 C90 1.465 . S
C81 C80 1.264 . S
C81 C83 1.339 . S
C81 H108 0.931 . S
C82 C83 1.395 . S
C82 C84 1.320 . S
C83 C81 1.339 . S
C83 C82 1.395 . S
C83 H109 0.929 . S
C84 C82 1.320 . S
C84 C85 1.405 . S
C84 H110 0.930 . S
C85 C80 1.479 . S
C85 C84 1.405 . S
C85 H111 0.931 . S
U86 O87 2.454 . S
U86 O88 2.458 . S
U86 C89 2.984 . S
U86 C90 2.847 . S
U86 C103 2.882 . S
U86 O104 2.441 . S
U86 O105 2.420 . S
U86 O106 2.455 . S
U86 O107 2.449 . S
O87 U86 2.454 . S
O87 C89 1.353 . S
O88 U86 2.458 . S
O88 C89 1.286 . S
C89 U86 2.984 . S
C89 O87 1.353 . S
C89 O88 1.286 . S
C89 C91 1.363 . S
C90 C80 1.465 . S
C90 U86 2.847 . S
C90 O104 1.249 . S
C90 O105 1.202 . S
C91 C89 1.363 . S
C91 C93 1.408 . S
C91 C96 1.342 . S
C92 C93 1.310 . S
C92 C95 1.461 . S
C92 H112 0.932 . S
C93 C91 1.408 . S
C93 C92 1.310 . S
C93 H113 0.930 . S
C94 C95 1.474 . S
C94 C96 1.285 . S
C94 H114 0.929 . S
C95 C92 1.461 . S
C95 C94 1.474 . S
C96 C91 1.342 . S
C96 C94 1.285 . S
C96 H115 0.930 . S
C97 C100 1.424 . S
C97 C102 1.245 . S
C97 C103 1.428 . S
C98 C101 1.260 . S
C98 C102 1.477 . S
C98 H116 0.932 . S
C99 C100 1.384 . S
C99 C101 1.479 . S
C99 H117 0.929 . S
C100 C97 1.424 . S
C100 C99 1.384 . S
C100 H118 0.928 . S
C101 C98 1.260 . S
C101 C99 1.479 . S
C102 C97 1.245 . S
C102 C98 1.477 . S
C102 H119 0.932 . S
C103 U86 2.882 . S
C103 C97 1.428 . S
C103 O106 1.301 . S
C103 O107 1.282 . S
O104 U86 2.441 . S
O104 C90 1.249 . S
O105 U86 2.420 . S
O105 C90 1.202 . S
O106 U86 2.455 . S
O106 C103 1.301 . S
O107 U86 2.449 . S
O107 C103 1.282 . S
H108 C81 0.931 . S
H109 C83 0.929 . S
H110 C84 0.930 . S
H111 C85 0.931 . S
H112 C92 0.932 . S
H113 C93 0.930 . S
H114 C94 0.929 . S
H115 C96 0.930 . S
H116 C98 0.932 . S
H117 C99 0.929 . S
H118 C100 0.928 . S
H119 C102 0.932 . S
C120 C121 1.264 . S
C120 C125 1.479 . S
C120 C130 1.465 . S
C121 C120 1.264 . S
C121 C123 1.339 . S
C121 H148 0.931 . S
C122 C123 1.395 . S
C122 C124 1.320 . S
C123 C121 1.339 . S
C123 C122 1.395 . S
C123 H149 0.929 . S
C124 C122 1.320 . S
C124 C125 1.405 . S
C124 H150 0.930 . S
C125 C120 1.479 . S
C125 C124 1.405 . S
C125 H151 0.931 . S
U126 O127 2.454 . S
U126 O128 2.458 . S
U126 C129 2.984 . S
U126 C130 2.847 . S
U126 C143 2.882 . S
U126 O144 2.441 . S
U126 O145 2.420 . S
U126 O146 2.455 . S
U126 O147 2.449 . S
O127 U126 2.454 . S
O127 C129 1.353 . S
O128 U126 2.458 . S
O128 C129 1.286 . S
C129 U126 2.984 . S
C129 O127 1.353 . S
C129 O128 1.286 . S
C129 C131 1.363 . S
C130 C120 1.465 . S
C130 U126 2.847 . S
C130 O144 1.249 . S
C130 O145 1.202 . S
C131 C129 1.363 . S
C131 C133 1.408 . S
C131 C136 1.342 . S
C132 C133 1.310 . S
C132 C135 1.461 . S
C132 H152 0.932 . S
C133 C131 1.408 . S
C133 C132 1.310 . S
C133 H153 0.930 . S
C134 C135 1.474 . S
C134 C136 1.285 . S
C134 H154 0.929 . S
C135 C132 1.461 . S
C135 C134 1.474 . S
C136 C131 1.342 . S
C136 C134 1.285 . S
C136 H155 0.930 . S
C137 C140 1.424 . S
C137 C142 1.245 . S
C137 C143 1.428 . S
C138 C141 1.260 . S
C138 C142 1.477 . S
C138 H156 0.932 . S
C139 C140 1.384 . S
C139 C141 1.479 . S
C139 H157 0.929 . S
C140 C137 1.424 . S
C140 C139 1.384 . S
C140 H158 0.928 . S
C141 C138 1.260 . S
C141 C139 1.479 . S
C142 C137 1.245 . S
C142 C138 1.477 . S
C142 H159 0.932 . S
C143 U126 2.882 . S
C143 C137 1.428 . S
C143 O146 1.301 . S
C143 O147 1.282 . S
O144 U126 2.441 . S
O144 C130 1.249 . S
O145 U126 2.420 . S
O145 C130 1.202 . S
O146 U126 2.455 . S
O146 C143 1.301 . S
O147 U126 2.449 . S
O147 C143 1.282 . S
H148 C121 0.931 . S
H149 C123 0.929 . S
H150 C124 0.930 . S
H151 C125 0.931 . S
H152 C132 0.932 . S
H153 C133 0.930 . S
H154 C134 0.929 . S
H155 C136 0.930 . S
H156 C138 0.932 . S
H157 C139 0.929 . S
H158 C140 0.928 . S
H159 C142 0.932 . S
C160 C161 1.264 . S
C160 C165 1.479 . S
C160 C170 1.465 . S
C161 C160 1.264 . S
C161 C163 1.339 . S
C161 H188 0.931 . S
C162 C163 1.395 . S
C162 C164 1.320 . S
C163 C161 1.339 . S
C163 C162 1.395 . S
C163 H189 0.929 . S
C164 C162 1.320 . S
C164 C165 1.405 . S
C164 H190 0.930 . S
C165 C160 1.479 . S
C165 C164 1.405 . S
C165 H191 0.931 . S
U166 O167 2.454 . S
U166 O168 2.458 . S
U166 C169 2.984 . S
U166 C170 2.847 . S
U166 C183 2.882 . S
U166 O184 2.441 . S
U166 O185 2.420 . S
U166 O186 2.455 . S
U166 O187 2.449 . S
O167 U166 2.454 . S
O167 C169 1.353 . S
O168 U166 2.458 . S
O168 C169 1.286 . S
C169 U166 2.984 . S
C169 O167 1.353 . S
C169 O168 1.286 . S
C169 C171 1.363 . S
C170 C160 1.465 . S
C170 U166 2.847 . S
C170 O184 1.249 . S
C170 O185 1.202 . S
C171 C169 1.363 . S
C171 C173 1.408 . S
C171 C176 1.342 . S
C172 C173 1.310 . S
C172 C175 1.461 . S
C172 H192 0.932 . S
C173 C171 1.408 . S
C173 C172 1.310 . S
C173 H193 0.930 . S
C174 C175 1.474 . S
C174 C176 1.285 . S
C174 H194 0.929 . S
C175 C172 1.461 . S
C175 C174 1.474 . S
C176 C171 1.342 . S
C176 C174 1.285 . S
C176 H195 0.930 . S
C177 C180 1.424 . S
C177 C182 1.245 . S
C177 C183 1.428 . S
C178 C181 1.260 . S
C178 C182 1.477 . S
C178 H196 0.932 . S
C179 C180 1.384 . S
C179 C181 1.479 . S
C179 H197 0.929 . S
C180 C177 1.424 . S
C180 C179 1.384 . S
C180 H198 0.928 . S
C181 C178 1.260 . S
C181 C179 1.479 . S
C182 C177 1.245 . S
C182 C178 1.477 . S
C182 H199 0.932 . S
C183 U166 2.882 . S
C183 C177 1.428 . S
C183 O186 1.301 . S
C183 O187 1.282 . S
O184 U166 2.441 . S
O184 C170 1.249 . S
O185 U166 2.420 . S
O185 C170 1.202 . S
O186 U166 2.455 . S
O186 C183 1.301 . S
O187 U166 2.449 . S
O187 C183 1.282 . S
H188 C161 0.931 . S
H189 C163 0.929 . S
H190 C164 0.930 . S
H191 C165 0.931 . S
H192 C172 0.932 . S
H193 C173 0.930 . S
H194 C174 0.929 . S
H195 C176 0.930 . S
H196 C178 0.932 . S
H197 C179 0.929 . S
H198 C180 0.928 . S
H199 C182 0.932 . S
C200 C201 1.264 . S
C200 C205 1.479 . S
C200 C210 1.465 . S
C201 C200 1.264 . S
C201 C203 1.339 . S
C201 H228 0.931 . S
C202 C203 1.395 . S
C202 C204 1.320 . S
C203 C201 1.339 . S
C203 C202 1.395 . S
C203 H229 0.929 . S
C204 C202 1.320 . S
C204 C205 1.405 . S
C204 H230 0.930 . S
C205 C200 1.479 . S
C205 C204 1.405 . S
C205 H231 0.931 . S
U206 O207 2.454 . S
U206 O208 2.458 . S
U206 C209 2.984 . S
U206 C210 2.847 . S
U206 C223 2.882 . S
U206 O224 2.441 . S
U206 O225 2.420 . S
U206 O226 2.455 . S
U206 O227 2.449 . S
O207 U206 2.454 . S
O207 C209 1.353 . S
O208 U206 2.458 . S
O208 C209 1.286 . S
C209 U206 2.984 . S
C209 O207 1.353 . S
C209 O208 1.286 . S
C209 C211 1.363 . S
C210 C200 1.465 . S
C210 U206 2.847 . S
C210 O224 1.249 . S
C210 O225 1.202 . S
C211 C209 1.363 . S
C211 C213 1.408 . S
C211 C216 1.342 . S
C212 C213 1.310 . S
C212 C215 1.461 . S
C212 H232 0.932 . S
C213 C211 1.408 . S
C213 C212 1.310 . S
C213 H233 0.930 . S
C214 C215 1.474 . S
C214 C216 1.285 . S
C214 H234 0.929 . S
C215 C212 1.461 . S
C215 C214 1.474 . S
C216 C211 1.342 . S
C216 C214 1.285 . S
C216 H235 0.930 . S
C217 C220 1.424 . S
C217 C222 1.245 . S
C217 C223 1.428 . S
C218 C221 1.260 . S
C218 C222 1.477 . S
C218 H236 0.932 . S
C219 C220 1.384 . S
C219 C221 1.479 . S
C219 H237 0.929 . S
C220 C217 1.424 . S
C220 C219 1.384 . S
C220 H238 0.928 . S
C221 C218 1.260 . S
C221 C219 1.479 . S
C222 C217 1.245 . S
C222 C218 1.477 . S
C222 H239 0.932 . S
C223 U206 2.882 . S
C223 C217 1.428 . S
C223 O226 1.301 . S
C223 O227 1.282 . S
O224 U206 2.441 . S
O224 C210 1.249 . S
O225 U206 2.420 . S
O225 C210 1.202 . S
O226 U206 2.455 . S
O226 C223 1.301 . S
O227 U206 2.449 . S
O227 C223 1.282 . S
H228 C201 0.931 . S
H229 C203 0.929 . S
H230 C204 0.930 . S
H231 C205 0.931 . S
H232 C212 0.932 . S
H233 C213 0.930 . S
H234 C214 0.929 . S
H235 C216 0.930 . S
H236 C218 0.932 . S
H237 C219 0.929 . S
H238 C220 0.928 . S
H239 C222 0.932 . S
C240 C241 1.264 . S
C240 C245 1.479 . S
C240 C250 1.465 . S
C241 C240 1.264 . S
C241 C243 1.339 . S
C241 H268 0.931 . S
C242 C243 1.395 . S
C242 C244 1.320 . S
C243 C241 1.339 . S
C243 C242 1.395 . S
C243 H269 0.929 . S
C244 C242 1.320 . S
C244 C245 1.405 . S
C244 H270 0.930 . S
C245 C240 1.479 . S
C245 C244 1.405 . S
C245 H271 0.931 . S
U246 O247 2.454 . S
U246 O248 2.458 . S
U246 C249 2.984 . S
U246 C250 2.847 . S
U246 C263 2.882 . S
U246 O264 2.441 . S
U246 O265 2.420 . S
U246 O266 2.455 . S
U246 O267 2.449 . S
O247 U246 2.454 . S
O247 C249 1.353 . S
O248 U246 2.458 . S
O248 C249 1.286 . S
C249 U246 2.984 . S
C249 O247 1.353 . S
C249 O248 1.286 . S
C249 C251 1.363 . S
C250 C240 1.465 . S
C250 U246 2.847 . S
C250 O264 1.249 . S
C250 O265 1.202 . S
C251 C249 1.363 . S
C251 C253 1.408 . S
C251 C256 1.342 . S
C252 C253 1.310 . S
C252 C255 1.461 . S
C252 H272 0.932 . S
C253 C251 1.408 . S
C253 C252 1.310 . S
C253 H273 0.930 . S
C254 C255 1.474 . S
C254 C256 1.285 . S
C254 H274 0.929 . S
C255 C252 1.461 . S
C255 C254 1.474 . S
C256 C251 1.342 . S
C256 C254 1.285 . S
C256 H275 0.930 . S
C257 C260 1.424 . S
C257 C262 1.245 . S
C257 C263 1.428 . S
C258 C261 1.260 . S
C258 C262 1.477 . S
C258 H276 0.932 . S
C259 C260 1.384 . S
C259 C261 1.479 . S
C259 H277 0.929 . S
C260 C257 1.424 . S
C260 C259 1.384 . S
C260 H278 0.928 . S
C261 C258 1.260 . S
C261 C259 1.479 . S
C262 C257 1.245 . S
C262 C258 1.477 . S
C262 H279 0.932 . S
C263 U246 2.882 . S
C263 C257 1.428 . S
C263 O266 1.301 . S
C263 O267 1.282 . S
O264 U246 2.441 . S
O264 C250 1.249 . S
O265 U246 2.420 . S
O265 C250 1.202 . S
O266 U246 2.455 . S
O266 C263 1.301 . S
O267 U246 2.449 . S
O267 C263 1.282 . S
H268 C241 0.931 . S
H269 C243 0.929 . S
H270 C244 0.930 . S
H271 C245 0.931 . S
H272 C252 0.932 . S
H273 C253 0.930 . S
H274 C254 0.929 . S
H275 C256 0.930 . S
H276 C258 0.932 . S
H277 C259 0.929 . S
H278 C260 0.928 . S
H279 C262 0.932 . S
C280 C281 1.264 . S
C280 C285 1.479 . S
C280 C290 1.465 . S
C281 C280 1.264 . S
C281 C283 1.339 . S
C281 H308 0.931 . S
C282 C283 1.395 . S
C282 C284 1.320 . S
C283 C281 1.339 . S
C283 C282 1.395 . S
C283 H309 0.929 . S
C284 C282 1.320 . S
C284 C285 1.405 . S
C284 H310 0.930 . S
C285 C280 1.479 . S
C285 C284 1.405 . S
C285 H311 0.931 . S
U286 O287 2.454 . S
U286 O288 2.458 . S
U286 C289 2.984 . S
U286 C290 2.847 . S
U286 C303 2.882 . S
U286 O304 2.441 . S
U286 O305 2.420 . S
U286 O306 2.455 . S
U286 O307 2.449 . S
O287 U286 2.454 . S
O287 C289 1.353 . S
O288 U286 2.458 . S
O288 C289 1.286 . S
C289 U286 2.984 . S
C289 O287 1.353 . S
C289 O288 1.286 . S
C289 C291 1.363 . S
C290 C280 1.465 . S
C290 U286 2.847 . S
C290 O304 1.249 . S
C290 O305 1.202 . S
C291 C289 1.363 . S
C291 C293 1.408 . S
C291 C296 1.342 . S
C292 C293 1.310 . S
C292 C295 1.461 . S
C292 H312 0.932 . S
C293 C291 1.408 . S
C293 C292 1.310 . S
C293 H313 0.930 . S
C294 C295 1.474 . S
C294 C296 1.285 . S
C294 H314 0.929 . S
C295 C292 1.461 . S
C295 C294 1.474 . S
C296 C291 1.342 . S
C296 C294 1.285 . S
C296 H315 0.930 . S
C297 C300 1.424 . S
C297 C302 1.245 . S
C297 C303 1.428 . S
C298 C301 1.260 . S
C298 C302 1.477 . S
C298 H316 0.932 . S
C299 C300 1.384 . S
C299 C301 1.479 . S
C299 H317 0.929 . S
C300 C297 1.424 . S
C300 C299 1.384 . S
C300 H318 0.928 . S
C301 C298 1.260 . S
C301 C299 1.479 . S
C302 C297 1.245 . S
C302 C298 1.477 . S
C302 H319 0.932 . S
C303 U286 2.882 . S
C303 C297 1.428 . S
C303 O306 1.301 . S
C303 O307 1.282 . S
O304 U286 2.441 . S
O304 C290 1.249 . S
O305 U286 2.420 . S
O305 C290 1.202 . S
O306 U286 2.455 . S
O306 C303 1.301 . S
O307 U286 2.449 . S
O307 C303 1.282 . S
H308 C281 0.931 . S
H309 C283 0.929 . S
H310 C284 0.930 . S
H311 C285 0.931 . S
H312 C292 0.932 . S
H313 C293 0.930 . S
H314 C294 0.929 . S
H315 C296 0.930 . S
H316 C298 0.932 . S
H317 C299 0.929 . S
H318 C300 0.928 . S
H319 C302 0.932 . S
O320 Mg321 1.990 . S
O320 C334 1.253 1_445 S
Mg321 O320 1.990 . S
Mg321 O324 2.180 . S
Mg321 O325 2.117 . S
Mg321 O339 2.030 1_545 S
O322 Mg323 2.072 1_665 S
O322 C334 1.260 . S
Mg323 O322 2.072 1_445 S
Mg323 O324 2.099 . S
Mg323 O326 2.079 . S
Mg323 O327 2.072 1_455 S
Mg323 O329 2.099 1_445 S
Mg323 O340 2.079 1_545 S
O324 Mg321 2.180 . S
O324 Mg323 2.099 . S
O324 C335 1.279 . S
O325 Mg321 2.117 . S
O325 C335 1.250 . S
O326 Mg323 2.079 . S
O326 C336 1.264 . S
O327 Mg323 2.072 1_655 S
O327 C337 1.260 . S
Mg328 O329 2.180 . S
Mg328 O330 2.030 1_565 S
Mg328 O331 1.990 1_565 S
Mg328 O332 2.117 . S
O329 Mg323 2.099 1_665 S
O329 Mg328 2.180 . S
O329 C338 1.279 . S
O330 Mg328 2.030 1_545 S
O330 C336 1.248 1_655 S
O331 Mg328 1.990 1_545 S
O331 C337 1.253 . S
O332 Mg328 2.117 . S
O332 C338 1.250 . S
C333 O339 1.248 . S
C333 O340 1.264 . S
C334 O320 1.253 1_665 S
C334 O322 1.260 . S
C335 O324 1.279 . S
C335 O325 1.250 . S
C336 O326 1.264 . S
C336 O330 1.248 1_455 S
C337 O327 1.260 . S
C337 O331 1.253 . S
C338 O329 1.279 . S
C338 O332 1.250 . S
O339 Mg321 2.030 1_565 S
O339 C333 1.248 . S
O340 Mg323 2.079 1_565 S
O340 C333 1.264 . S
O341 Mg342 1.990 . S
O341 C355 1.253 . S
Mg342 O341 1.990 . S
Mg342 O345 2.180 . S
Mg342 O346 2.117 1_554 S
Mg342 O360 2.030 . S
O343 Mg344 2.072 . S
O343 C355 1.260 . S
Mg344 O343 2.072 . S
Mg344 O345 2.099 . S
Mg344 O347 2.083 1_554 S
Mg344 O348 2.072 1_554 S
Mg344 O350 2.099 1_545 S
Mg344 O361 2.079 . S
O345 Mg342 2.180 . S
O345 Mg344 2.099 . S
O345 C356 1.279 1_554 S
O346 Mg342 2.117 1_556 S
O346 C356 1.250 . S
O347 Mg344 2.083 1_556 S
O347 C357 1.253 1_545 S
O348 Mg344 2.072 1_556 S
O348 C358 1.260 1_545 S
Mg349 O350 2.180 1_556 S
Mg349 O351 2.030 . S
Mg349 O352 1.990 . S
Mg349 O353 2.117 1_556 S
O350 Mg344 2.099 1_565 S
O350 Mg349 2.180 1_554 S
O350 C359 1.279 . S
O351 Mg349 2.030 . S
O351 C357 1.248 . S
O352 Mg349 1.990 . S
O352 C358 1.253 . S
O353 Mg349 2.117 1_554 S
O353 C359 1.250 . S
C354 O360 1.248 . S
C354 O361 1.264 . S
C355 O341 1.253 . S
C355 O343 1.260 . S
C356 O345 1.279 1_556 S
C356 O346 1.250 . S
C357 O347 1.253 1_565 S
C357 O351 1.248 . S
C358 O348 1.260 1_565 S
C358 O352 1.253 . S
C359 O350 1.279 . S
C359 O353 1.250 . S
O360 Mg342 2.030 . S
O360 C354 1.248 . S
O361 Mg344 2.079 . S
O361 C354 1.264 . S
O362 Mg363 1.990 . S
O362 C376 1.253 . S
Mg363 O362 1.990 . S
Mg363 O366 2.180 . S
Mg363 O367 2.117 . S
Mg363 O381 2.030 . S
O364 Mg365 2.072 . S
O364 C376 1.260 . S
Mg365 O364 2.072 . S
Mg365 O366 2.099 . S
Mg365 O368 2.079 . S
Mg365 O369 2.072 . S
Mg365 O371 2.099 . S
Mg365 O382 2.079 . S
O366 Mg363 2.180 . S
O366 Mg365 2.099 . S
O366 C377 1.279 . S
O367 Mg363 2.117 . S
O367 C377 1.250 . S
O368 Mg365 2.079 . S
O368 C378 1.264 . S
O369 Mg365 2.072 . S
O369 C379 1.260 . S
Mg370 O371 2.180 . S
Mg370 O372 2.030 . S
Mg370 O373 1.990 . S
Mg370 O374 2.117 . S
O371 Mg365 2.099 . S
O371 Mg370 2.180 . S
O371 C380 1.279 . S
O372 Mg370 2.030 . S
O372 C378 1.248 . S
O373 Mg370 1.990 . S
O373 C379 1.253 . S
O374 Mg370 2.117 . S
O374 C380 1.250 . S
C375 O381 1.248 . S
C375 O382 1.264 . S
C376 O362 1.253 . S
C376 O364 1.260 . S
C377 O366 1.279 . S
C377 O367 1.250 . S
C378 O368 1.264 . S
C378 O372 1.248 . S
C379 O369 1.260 . S
C379 O373 1.253 . S
C380 O371 1.279 . S
C380 O374 1.250 . S
O381 Mg363 2.030 . S
O381 C375 1.248 . S
O382 Mg365 2.079 . S
O382 C375 1.264 . S
O383 Mg384 1.990 . S
O383 C397 1.253 . S
Mg384 O383 1.990 . S
Mg384 O387 2.156 1_455 S
Mg384 O388 2.117 1_455 S
Mg384 O402 2.030 . S
O385 Mg386 2.072 . S
O385 C397 1.260 . S
Mg386 O385 2.072 . S
Mg386 O387 2.093 1_455 S
Mg386 O389 2.079 1_454 S
Mg386 O390 2.072 1_455 S
Mg386 O392 2.099 1_554 S
Mg386 O403 2.079 . S
O387 Mg384 2.156 1_655 S
O387 Mg386 2.093 1_655 S
O387 C398 1.302 . S
O388 Mg384 2.117 1_655 S
O388 C398 1.250 . S
O389 Mg386 2.079 1_656 S
O389 C399 1.264 . S
O390 Mg386 2.072 1_655 S
O390 C400 1.260 1_554 S
Mg391 O392 2.180 1_655 S
Mg391 O393 2.030 . S
Mg391 O394 1.990 . S
Mg391 O395 2.116 . S
O392 Mg386 2.099 1_556 S
O392 Mg391 2.180 1_455 S
O392 C401 1.279 . S
O393 Mg391 2.030 . S
O393 C399 1.248 . S
O394 Mg391 1.990 . S
O394 C400 1.253 . S
O395 Mg391 2.116 . S
O395 C401 1.251 1_655 S
C396 O402 1.248 . S
C396 O403 1.264 . S
C397 O383 1.253 . S
C397 O385 1.260 . S
C398 O387 1.302 . S
C398 O388 1.250 . S
C399 O389 1.264 . S
C399 O393 1.248 . S
C400 O390 1.260 1_556 S
C400 O394 1.253 . S
C401 O392 1.279 . S
C401 O395 1.251 1_455 S
O402 Mg384 2.030 . S
O402 C396 1.248 . S
O403 Mg386 2.079 . S
O403 C396 1.264 . S
C404 C405 1.369 . S
C404 C406 1.419 . S
C404 H408 0.930 . S
C405 C404 1.369 . S
C405 C414 1.429 . S
C406 C404 1.419 . S
C406 C407 1.363 . S
C406 H409 0.929 . S
C407 C406 1.363 . S
C407 C413 1.428 . S
H408 C404 0.930 . S
H409 C406 0.929 . S
S410 N411 1.613 . S
S410 N412 1.610 . S
N411 S410 1.613 . S
N411 C414 1.350 . S
N412 S410 1.610 . S
N412 C413 1.351 . S
C413 C407 1.428 . S
C413 N412 1.351 . S
C413 C414 1.434 . S
C414 C405 1.429 . S
C414 N411 1.350 . S
C414 C413 1.434 . S
C415 C416 1.369 . S
C415 C417 1.419 . S
C415 H419 0.930 . S
C416 C415 1.369 . S
C416 C425 1.429 . S
C417 C415 1.419 . S
C417 C418 1.363 . S
C417 H420 0.929 . S
C418 C417 1.363 . S
C418 C424 1.428 . S
H419 C415 0.930 . S
H420 C417 0.929 . S
S421 N422 1.613 1_545 S
S421 N423 1.610 . S
N422 S421 1.613 1_565 S
N422 C425 1.350 . S
N423 S421 1.610 . S
N423 C424 1.351 1_545 S
C424 C418 1.428 . S
C424 N423 1.351 1_565 S
C424 C425 1.434 . S
C425 C416 1.429 . S
C425 N422 1.350 . S
C425 C424 1.434 . S
C426 C427 1.369 . S
C426 C428 1.419 . S
C426 H430 0.930 . S
C427 C426 1.369 . S
C427 C436 1.429 . S
C428 C426 1.419 . S
C428 C429 1.363 . S
C428 H431 0.929 . S
C429 C428 1.363 . S
C429 C435 1.428 . S
H430 C426 0.930 . S
H431 C428 0.929 . S
S432 N433 1.613 . S
S432 N434 1.610 . S
N433 S432 1.613 . S
N433 C436 1.350 . S
N434 S432 1.610 . S
N434 C435 1.351 . S
C435 C429 1.428 . S
C435 N434 1.351 . S
C435 C436 1.434 . S
C436 C427 1.429 . S
C436 N433 1.350 . S
C436 C435 1.434 . S
C437 C438 1.369 . S
C437 C439 1.419 . S
C437 H441 0.930 . S
C438 C437 1.369 . S
C438 C447 1.429 . S
C439 C437 1.419 . S
C439 C440 1.363 . S
C439 H442 0.929 . S
C440 C439 1.363 . S
C440 C446 1.428 . S
H441 C437 0.930 . S
H442 C439 0.929 . S
S443 N444 1.613 . S
S443 N445 1.610 . S
N444 S443 1.613 . S
N444 C447 1.350 . S
N445 S443 1.610 . S
N445 C446 1.351 . S
C446 C440 1.428 . S
C446 N445 1.351 . S
C446 C447 1.434 . S
C447 C438 1.429 . S
C447 N444 1.350 . S
C447 C446 1.434 . S
C448 C449 1.369 . S
C448 C450 1.419 . S
C448 H452 0.930 . S
C449 C448 1.369 . S
C449 C458 1.429 . S
C450 C448 1.419 . S
C450 C451 1.363 . S
C450 H453 0.929 . S
C451 C450 1.363 . S
C451 C457 1.428 . S
H452 C448 0.930 . S
H453 C450 0.929 . S
S454 N455 1.613 . S
S454 N456 1.610 . S
N455 S454 1.613 . S
N455 C458 1.350 1_565 S
N456 S454 1.610 . S
N456 C457 1.351 1_565 S
C457 C451 1.428 . S
C457 N456 1.351 1_545 S
C457 C458 1.434 . S
C458 C449 1.429 . S
C458 N455 1.350 1_545 S
C458 C457 1.434 . S
C459 C460 1.369 . S
C459 C461 1.419 . S
C459 H463 0.930 . S
C460 C459 1.369 . S
C460 C469 1.429 . S
C461 C459 1.419 . S
C461 C462 1.363 . S
C461 H464 0.929 . S
C462 C461 1.363 . S
C462 C468 1.428 . S
H463 C459 0.930 . S
H464 C461 0.929 . S
S465 N466 1.613 . S
S465 N467 1.610 . S
N466 S465 1.613 . S
N466 C469 1.350 1_545 S
N467 S465 1.610 . S
N467 C468 1.351 1_545 S
C468 C462 1.428 . S
C468 N467 1.351 1_565 S
C468 C469 1.434 . S
C469 C460 1.429 . S
C469 N466 1.350 1_565 S
C469 C468 1.434 . S
C470 C471 1.369 . S
C470 C472 1.419 . S
C470 H474 0.930 . S
C471 C470 1.369 . S
C471 C480 1.429 . S
C472 C470 1.419 . S
C472 C473 1.363 . S
C472 H475 0.929 1_556 S
C473 C472 1.363 . S
C473 C479 1.428 . S
H474 C470 0.930 . S
H475 C472 0.929 1_554 S
S476 N477 1.613 . S
S476 N478 1.610 . S
N477 S476 1.613 . S
N477 C480 1.350 . S
N478 S476 1.610 . S
N478 C479 1.351 . S
C479 C473 1.428 . S
C479 N478 1.351 . S
C479 C480 1.434 . S
C480 C471 1.429 . S
C480 N477 1.350 . S
C480 C479 1.434 . S
C481 C482 1.369 . S
C481 C483 1.419 . S
C481 H485 0.930 . S
C482 C481 1.369 . S
C482 C491 1.429 . S
C483 C481 1.419 . S
C483 C484 1.363 . S
C483 H486 0.929 . S
C484 C483 1.363 . S
C484 C490 1.428 . S
H485 C481 0.930 . S
H486 C483 0.929 . S
S487 N488 1.613 . S
S487 N489 1.610 . S
N488 S487 1.613 . S
N488 C491 1.350 . S
N489 S487 1.610 . S
N489 C490 1.351 . S
C490 C484 1.428 . S
C490 N489 1.351 . S
C490 C491 1.434 . S
C491 C482 1.429 . S
C491 N488 1.350 . S
C491 C490 1.434 . S
C492 C493 1.369 . S
C492 C494 1.419 . S
C492 H496 0.930 . S
C493 C492 1.369 . S
C493 C502 1.429 . S
C494 C492 1.419 . S
C494 C495 1.363 . S
C494 H497 0.929 1_455 S
C495 C494 1.363 . S
C495 C501 1.428 . S
H496 C492 0.930 . S
H497 C494 0.929 1_655 S
S498 N499 1.613 . S
S498 N500 1.610 . S
N499 S498 1.613 . S
N499 C502 1.350 . S
N500 S498 1.610 . S
N500 C501 1.351 . S
C501 C495 1.428 . S
C501 N500 1.351 . S
C501 C502 1.434 . S
C502 C493 1.429 . S
C502 N499 1.350 . S
C502 C501 1.434 . S
C503 C504 1.369 . S
C503 C505 1.419 . S
C503 H507 0.930 . S
C504 C503 1.369 . S
C504 C513 1.429 . S
C505 C503 1.419 . S
C505 C506 1.363 . S
C505 H508 0.929 . S
C506 C505 1.363 . S
C506 C512 1.428 . S
H507 C503 0.930 . S
H508 C505 0.929 . S
S509 N510 1.613 . S
S509 N511 1.610 . S
N510 S509 1.613 . S
N510 C513 1.350 1_554 S
N511 S509 1.610 . S
N511 C512 1.351 1_554 S
C512 C506 1.428 . S
C512 N511 1.351 1_556 S
C512 C513 1.434 . S
C513 C504 1.429 . S
C513 N510 1.350 1_556 S
C513 C512 1.434 . S
C514 C515 1.369 . S
C514 C516 1.419 . S
C514 H518 0.930 . S
C515 C514 1.369 . S
C515 C524 1.429 . S
C516 C514 1.419 . S
C516 C517 1.363 . S
C516 H519 0.929 . S
C517 C516 1.363 . S
C517 C523 1.428 . S
H518 C514 0.930 . S
H519 C516 0.929 . S
S520 N521 1.613 . S
S520 N522 1.610 . S
N521 S520 1.613 . S
N521 C524 1.350 . S
N522 S520 1.610 . S
N522 C523 1.351 . S
C523 C517 1.428 . S
C523 N522 1.351 . S
C523 C524 1.434 . S
C524 C515 1.429 . S
C524 N521 1.350 . S
C524 C523 1.434 . S
C525 C526 1.369 . S
C525 C527 1.419 . S
C525 H529 0.930 . S
C526 C525 1.369 . S
C526 C535 1.429 . S
C527 C525 1.419 . S
C527 C528 1.363 . S
C527 H530 0.929 . S
C528 C527 1.363 . S
C528 C534 1.428 . S
H529 C525 0.930 . S
H530 C527 0.929 . S
S531 N532 1.613 . S
S531 N533 1.610 . S
N532 S531 1.613 . S
N532 C535 1.350 . S
N533 S531 1.610 . S
N533 C534 1.351 . S
C534 C528 1.428 . S
C534 N533 1.351 . S
C534 C535 1.434 . S
C535 C526 1.429 . S
C535 N532 1.350 . S
C535 C534 1.434 . S
C536 C537 1.369 . S
C536 C538 1.419 . S
C536 H540 0.930 1_565 S
C537 C536 1.369 . S
C537 C546 1.429 . S
C538 C536 1.419 . S
C538 C539 1.363 . S
C538 H541 0.929 1_565 S
C539 C538 1.363 . S
C539 C545 1.428 . S
H540 C536 0.930 1_545 S
H541 C538 0.929 1_545 S
S542 N543 1.613 . S
S542 N544 1.610 . S
N543 S542 1.613 . S
N543 C546 1.350 . S
N544 S542 1.610 . S
N544 C545 1.351 . S
C545 C539 1.428 . S
C545 N544 1.351 . S
C545 C546 1.434 . S
C546 C537 1.429 . S
C546 N543 1.350 . S
C546 C545 1.434 . S
C547 C548 1.369 . S
C547 C549 1.419 . S
C547 H551 0.930 . S
C548 C547 1.369 . S
C548 C557 1.429 . S
C549 C547 1.419 . S
C549 C550 1.363 . S
C549 H552 0.929 . S
C550 C549 1.363 . S
C550 C556 1.428 . S
H551 C547 0.930 . S
H552 C549 0.929 . S
S553 N554 1.613 . S
S553 N555 1.610 . S
N554 S553 1.613 . S
N554 C557 1.350 . S
N555 S553 1.610 . S
N555 C556 1.351 . S
C556 C550 1.428 . S
C556 N555 1.351 . S
C556 C557 1.434 . S
C557 C548 1.429 . S
C557 N554 1.350 . S
C557 C556 1.434 . S
C558 C559 1.369 . S
C558 C560 1.419 . S
C558 H562 0.930 . S
C559 C558 1.369 . S
C559 C568 1.429 . S
C560 C558 1.419 . S
C560 C561 1.363 . S
C560 H563 0.929 . S
C561 C560 1.363 . S
C561 C567 1.428 . S
H562 C558 0.930 . S
H563 C560 0.929 . S
S564 N565 1.613 . S
S564 N566 1.610 . S
N565 S564 1.613 . S
N565 C568 1.350 . S
N566 S564 1.610 . S
N566 C567 1.351 . S
C567 C561 1.428 . S
C567 N566 1.351 . S
C567 C568 1.434 . S
C568 C559 1.429 . S
C568 N565 1.350 . S
C568 C567 1.434 . S
C569 C570 1.369 . S
C569 C571 1.419 . S
C569 H573 0.930 . S
C570 C569 1.369 . S
C570 C579 1.429 . S
C571 C569 1.419 . S
C571 C572 1.363 . S
C571 H574 0.929 . S
C572 C571 1.363 . S
C572 C578 1.428 . S
H573 C569 0.930 . S
H574 C571 0.929 . S
S575 N576 1.613 . S
S575 N577 1.610 . S
N576 S575 1.613 . S
N576 C579 1.350 . S
N577 S575 1.610 . S
N577 C578 1.351 . S
C578 C572 1.428 . S
C578 N577 1.351 . S
C578 C579 1.434 . S
C579 C570 1.429 . S
C579 N576 1.350 . S
C579 C578 1.434 . S
C580 C581 1.369 . S
C580 C582 1.419 . S
C580 H584 0.930 . S
C581 C580 1.369 . S
C581 C590 1.429 . S
C582 C580 1.419 . S
C582 C583 1.363 . S
C582 H585 0.929 . S
C583 C582 1.363 . S
C583 C589 1.428 1_565 S
H584 C580 0.930 . S
H585 C582 0.929 . S
S586 N587 1.613 . S
S586 N588 1.610 . S
N587 S586 1.613 . S
N587 C590 1.350 1_545 S
N588 S586 1.610 . S
N588 C589 1.351 . S
C589 C583 1.428 1_545 S
C589 N588 1.351 . S
C589 C590 1.434 1_545 S
C590 C581 1.429 . S
C590 N587 1.350 1_565 S
C590 C589 1.434 1_565 S
C591 C592 1.369 . S
C591 C593 1.419 . S
C591 H595 0.930 . S
C592 C591 1.369 . S
C592 C601 1.429 . S
C593 C591 1.419 . S
C593 C594 1.363 . S
C593 H596 0.929 . S
C594 C593 1.363 . S
C594 C600 1.428 . S
H595 C591 0.930 . S
H596 C593 0.929 . S
S597 N598 1.613 . S
S597 N599 1.610 . S
N598 S597 1.613 . S
N598 C601 1.350 . S
N599 S597 1.610 . S
N599 C600 1.351 . S
C600 C594 1.428 . S
C600 N599 1.351 . S
C600 C601 1.434 . S
C601 C592 1.429 . S
C601 N598 1.350 . S
C601 C600 1.434 . S
C602 C603 1.369 . S
C602 C604 1.419 . S
C602 H606 0.930 . S
C603 C602 1.369 . S
C603 C612 1.429 . S
C604 C602 1.419 . S
C604 C605 1.363 . S
C604 H607 0.929 . S
C605 C604 1.363 . S
C605 C611 1.428 . S
H606 C602 0.930 . S
H607 C604 0.929 . S
S608 N609 1.613 . S
S608 N610 1.610 . S
N609 S608 1.613 . S
N609 C612 1.350 1_556 S
N610 S608 1.610 . S
N610 C611 1.351 1_556 S
C611 C605 1.428 . S
C611 N610 1.351 1_554 S
C611 C612 1.434 . S
C612 C603 1.429 . S
C612 N609 1.350 1_554 S
C612 C611 1.434 . S
C613 C614 1.369 . S
C613 C615 1.419 . S
C613 H617 0.930 . S
C614 C613 1.369 . S
C614 C623 1.429 . S
C615 C613 1.419 . S
C615 C616 1.363 . S
C615 H618 0.929 . S
C616 C615 1.363 . S
C616 C622 1.428 . S
H617 C613 0.930 . S
H618 C615 0.929 . S
S619 N620 1.613 . S
S619 N621 1.610 . S
N620 S619 1.613 . S
N620 C623 1.350 . S
N621 S619 1.610 . S
N621 C622 1.351 . S
C622 C616 1.428 . S
C622 N621 1.351 . S
C622 C623 1.434 . S
C623 C614 1.429 . S
C623 N620 1.350 . S
C623 C622 1.434 . S
C624 C625 1.369 . S
C624 C626 1.419 . S
C624 H628 0.930 . S
C625 C624 1.369 . S
C625 C634 1.429 . S
C626 C624 1.419 . S
C626 C627 1.363 . S
C626 H629 0.929 . S
C627 C626 1.363 . S
C627 C633 1.416 1_556 S
H628 C624 0.930 . S
H629 C626 0.929 . S
S630 N631 1.613 . S
S630 N632 1.610 . S
N631 S630 1.613 . S
N631 C634 1.350 1_554 S
N632 S630 1.610 . S
N632 C633 1.369 . S
C633 C627 1.416 1_554 S
C633 N632 1.369 . S
C633 C634 1.430 1_554 S
C634 C625 1.429 . S
C634 N631 1.350 1_556 S
C634 C633 1.430 1_556 S
C635 C636 1.369 . S
C635 C637 1.419 . S
C635 H639 0.930 . S
C636 C635 1.369 . S
C636 C645 1.429 . S
C637 C635 1.419 . S
C637 C638 1.363 . S
C637 H640 0.929 . S
C638 C637 1.363 . S
C638 C644 1.428 . S
H639 C635 0.930 . S
H640 C637 0.929 . S
S641 N642 1.613 . S
S641 N643 1.610 . S
N642 S641 1.613 . S
N642 C645 1.350 . S
N643 S641 1.610 . S
N643 C644 1.351 . S
C644 C638 1.428 . S
C644 N643 1.351 . S
C644 C645 1.434 . S
C645 C636 1.429 . S
C645 N642 1.350 . S
C645 C644 1.434 . S
C646 C647 1.369 . S
C646 C648 1.419 . S
C646 H650 0.930 1_455 S
C647 C646 1.369 . S
C647 C656 1.429 . S
C648 C646 1.419 . S
C648 C649 1.363 . S
C648 H651 0.929 1_455 S
C649 C648 1.363 . S
C649 C655 1.428 . S
H650 C646 0.930 1_655 S
H651 C648 0.929 1_655 S
S652 N653 1.613 . S
S652 N654 1.610 . S
N653 S652 1.613 . S
N653 C656 1.350 . S
N654 S652 1.610 . S
N654 C655 1.351 . S
C655 C649 1.428 . S
C655 N654 1.351 . S
C655 C656 1.434 . S
C656 C647 1.429 . S
C656 N653 1.350 . S
C656 C655 1.434 . S
C657 C658 1.369 . S
C657 C659 1.419 . S
C657 H661 0.930 . S
C658 C657 1.369 . S
C658 C667 1.429 . S
C659 C657 1.419 . S
C659 C660 1.363 . S
C659 H662 0.929 . S
C660 C659 1.363 . S
C660 C666 1.428 . S
H661 C657 0.930 . S
H662 C659 0.929 . S
S663 N664 1.613 . S
S663 N665 1.610 . S
N664 S663 1.613 . S
N664 C667 1.350 . S
N665 S663 1.610 . S
N665 C666 1.351 . S
C666 C660 1.428 . S
C666 N665 1.351 . S
C666 C667 1.434 . S
C667 C658 1.429 . S
C667 N664 1.350 . S
C667 C666 1.434 . S
C405 C21 1.654 . S
C407 C336 1.581 . S
C416 C61 1.505 . S
C418 C358 1.533 . S
C429 C377 1.161 . S
C427 C82 1.495 . S
C438 C135 1.913 . S
C440 C398 1.478 . S
C451 C355 1.781 . S
C449 C15 1.818 . S
C462 C333 1.726 . S
C460 C42 1.705 . S
C473 C400 1.371 . S
C471 C101 1.440 . S
C484 C379 1.549 . S
C482 C122 1.591 . S
C493 C2 1.785 . S
C495 C397 1.743 . S
C506 C356 1.247 . S
C504 C95 1.623 . S
C515 C141 1.798 . S
C517 C338 1.687 . S
C526 C55 1.565 . S
C528 C376 1.600 . S
C539 C334 1.591 . S
C537 C181 1.627 . S
C548 C202 1.339 . S
C550 C354 1.368 . S
C559 C255 1.527 . S
C561 C380 1.223 . S
C570 C295 1.819 . S
C572 C401 1.397 . S
C581 C175 1.732 . S
C583 C357 1.736 . S
C594 C337 1.794 . S
C592 C221 1.783 . S
C605 C396 1.217 . S
C603 C242 1.235 . S
C616 C375 1.647 . S
C614 C301 1.697 . S
C625 C162 1.529 . S
C627 C399 1.568 . S
C638 C359 1.247 . S
C636 C261 1.497 . S
C649 C335 1.513 . S
C647 C282 1.608 . S
C658 C215 1.540 . S
C660 C378 1.572 . S
