# Generated by pormake.
# Topology ibd, (4,6)-cn, num edge types: 1
# Building blocks:
#     Node 0, Type 0, BuildingBlock: GALJAG_clean_sbu_0, # of connection points: 4
#     Node 1, Type 0, BuildingBlock: GALJAG_clean_sbu_0, # of connection points: 4
#     Node 2, Type 0, BuildingBlock: GALJAG_clean_sbu_0, # of connection points: 4
#     Node 3, Type 0, BuildingBlock: GALJAG_clean_sbu_0, # of connection points: 4
#     Node 4, Type 0, BuildingBlock: GALJAG_clean_sbu_0, # of connection points: 4
#     Node 5, Type 0, BuildingBlock: GALJAG_clean_sbu_0, # of connection points: 4
#     Node 6, Type 0, BuildingBlock: GALJAG_clean_sbu_0, # of connection points: 4
#     Node 7, Type 0, BuildingBlock: GALJAG_clean_sbu_0, # of connection points: 4
#     Node 8, Type 0, BuildingBlock: GALJAG_clean_sbu_0, # of connection points: 4
#     Node 9, Type 0, BuildingBlock: GALJAG_clean_sbu_0, # of connection points: 4
#     Node 10, Type 0, BuildingBlock: GALJAG_clean_sbu_0, # of connection points: 4
#     Node 11, Type 0, BuildingBlock: GALJAG_clean_sbu_0, # of connection points: 4
#     Node 12, Type 0, BuildingBlock: GALJAG_clean_sbu_0, # of connection points: 4
#     Node 13, Type 0, BuildingBlock: GALJAG_clean_sbu_0, # of connection points: 4
#     Node 14, Type 0, BuildingBlock: GALJAG_clean_sbu_0, # of connection points: 4
#     Node 15, Type 0, BuildingBlock: GALJAG_clean_sbu_0, # of connection points: 4
#     Node 16, Type 0, BuildingBlock: GALJAG_clean_sbu_0, # of connection points: 4
#     Node 17, Type 0, BuildingBlock: GALJAG_clean_sbu_0, # of connection points: 4
#     Node 18, Type 0, BuildingBlock: GALJAG_clean_sbu_0, # of connection points: 4
#     Node 19, Type 0, BuildingBlock: GALJAG_clean_sbu_0, # of connection points: 4
#     Node 20, Type 0, BuildingBlock: GALJAG_clean_sbu_0, # of connection points: 4
#     Node 21, Type 0, BuildingBlock: GALJAG_clean_sbu_0, # of connection points: 4
#     Node 22, Type 0, BuildingBlock: GALJAG_clean_sbu_0, # of connection points: 4
#     Node 23, Type 0, BuildingBlock: GALJAG_clean_sbu_0, # of connection points: 4
#     Node 24, Type 1, BuildingBlock: OJICUG_clean_sbu_0, # of connection points: 6
#     Node 25, Type 1, BuildingBlock: OJICUG_clean_sbu_0, # of connection points: 6
#     Node 26, Type 1, BuildingBlock: OJICUG_clean_sbu_0, # of connection points: 6
#     Node 27, Type 1, BuildingBlock: OJICUG_clean_sbu_0, # of connection points: 6
#     Node 28, Type 1, BuildingBlock: OJICUG_clean_sbu_0, # of connection points: 6
#     Node 29, Type 1, BuildingBlock: OJICUG_clean_sbu_0, # of connection points: 6
#     Node 30, Type 1, BuildingBlock: OJICUG_clean_sbu_0, # of connection points: 6
#     Node 31, Type 1, BuildingBlock: OJICUG_clean_sbu_0, # of connection points: 6
#     Node 32, Type 1, BuildingBlock: OJICUG_clean_sbu_0, # of connection points: 6
#     Node 33, Type 1, BuildingBlock: OJICUG_clean_sbu_0, # of connection points: 6
#     Node 34, Type 1, BuildingBlock: OJICUG_clean_sbu_0, # of connection points: 6
#     Node 35, Type 1, BuildingBlock: OJICUG_clean_sbu_0, # of connection points: 6
#     Node 36, Type 1, BuildingBlock: OJICUG_clean_sbu_0, # of connection points: 6
#     Node 37, Type 1, BuildingBlock: OJICUG_clean_sbu_0, # of connection points: 6
#     Node 38, Type 1, BuildingBlock: OJICUG_clean_sbu_0, # of connection points: 6
#     Node 39, Type 1, BuildingBlock: OJICUG_clean_sbu_0, # of connection points: 6
#     Edge 40, Type (0, 1), BuildingBlock: UVAHIK_clean_linker_0, # of connection points: 2
#     Edge 41, Type (0, 1), BuildingBlock: UVAHIK_clean_linker_0, # of connection points: 2
#     Edge 42, Type (0, 1), BuildingBlock: UVAHIK_clean_linker_0, # of connection points: 2
#     Edge 43, Type (0, 1), BuildingBlock: UVAHIK_clean_linker_0, # of connection points: 2
#     Edge 44, Type (0, 1), BuildingBlock: UVAHIK_clean_linker_0, # of connection points: 2
#     Edge 45, Type (0, 1), BuildingBlock: UVAHIK_clean_linker_0, # of connection points: 2
#     Edge 46, Type (0, 1), BuildingBlock: UVAHIK_clean_linker_0, # of connection points: 2
#     Edge 47, Type (0, 1), BuildingBlock: UVAHIK_clean_linker_0, # of connection points: 2
#     Edge 48, Type (0, 1), BuildingBlock: UVAHIK_clean_linker_0, # of connection points: 2
#     Edge 49, Type (0, 1), BuildingBlock: UVAHIK_clean_linker_0, # of connection points: 2
#     Edge 50, Type (0, 1), BuildingBlock: UVAHIK_clean_linker_0, # of connection points: 2
#     Edge 51, Type (0, 1), BuildingBlock: UVAHIK_clean_linker_0, # of connection points: 2
#     Edge 52, Type (0, 1), BuildingBlock: UVAHIK_clean_linker_0, # of connection points: 2
#     Edge 53, Type (0, 1), BuildingBlock: UVAHIK_clean_linker_0, # of connection points: 2
#     Edge 54, Type (0, 1), BuildingBlock: UVAHIK_clean_linker_0, # of connection points: 2
#     Edge 55, Type (0, 1), BuildingBlock: UVAHIK_clean_linker_0, # of connection points: 2
#     Edge 56, Type (0, 1), BuildingBlock: UVAHIK_clean_linker_0, # of connection points: 2
#     Edge 57, Type (0, 1), BuildingBlock: UVAHIK_clean_linker_0, # of connection points: 2
#     Edge 58, Type (0, 1), BuildingBlock: UVAHIK_clean_linker_0, # of connection points: 2
#     Edge 59, Type (0, 1), BuildingBlock: UVAHIK_clean_linker_0, # of connection points: 2
#     Edge 60, Type (0, 1), BuildingBlock: UVAHIK_clean_linker_0, # of connection points: 2
#     Edge 61, Type (0, 1), BuildingBlock: UVAHIK_clean_linker_0, # of connection points: 2
#     Edge 62, Type (0, 1), BuildingBlock: UVAHIK_clean_linker_0, # of connection points: 2
#     Edge 63, Type (0, 1), BuildingBlock: UVAHIK_clean_linker_0, # of connection points: 2
#     Edge 64, Type (0, 1), BuildingBlock: UVAHIK_clean_linker_0, # of connection points: 2
#     Edge 65, Type (0, 1), BuildingBlock: UVAHIK_clean_linker_0, # of connection points: 2
#     Edge 66, Type (0, 1), BuildingBlock: UVAHIK_clean_linker_0, # of connection points: 2
#     Edge 67, Type (0, 1), BuildingBlock: UVAHIK_clean_linker_0, # of connection points: 2
#     Edge 68, Type (0, 1), BuildingBlock: UVAHIK_clean_linker_0, # of connection points: 2
#     Edge 69, Type (0, 1), BuildingBlock: UVAHIK_clean_linker_0, # of connection points: 2
#     Edge 70, Type (0, 1), BuildingBlock: UVAHIK_clean_linker_0, # of connection points: 2
#     Edge 71, Type (0, 1), BuildingBlock: UVAHIK_clean_linker_0, # of connection points: 2
#     Edge 72, Type (0, 1), BuildingBlock: UVAHIK_clean_linker_0, # of connection points: 2
#     Edge 73, Type (0, 1), BuildingBlock: UVAHIK_clean_linker_0, # of connection points: 2
#     Edge 74, Type (0, 1), BuildingBlock: UVAHIK_clean_linker_0, # of connection points: 2
#     Edge 75, Type (0, 1), BuildingBlock: UVAHIK_clean_linker_0, # of connection points: 2
#     Edge 76, Type (0, 1), BuildingBlock: UVAHIK_clean_linker_0, # of connection points: 2
#     Edge 77, Type (0, 1), BuildingBlock: UVAHIK_clean_linker_0, # of connection points: 2
#     Edge 78, Type (0, 1), BuildingBlock: UVAHIK_clean_linker_0, # of connection points: 2
#     Edge 79, Type (0, 1), BuildingBlock: UVAHIK_clean_linker_0, # of connection points: 2
#     Edge 80, Type (0, 1), BuildingBlock: UVAHIK_clean_linker_0, # of connection points: 2
#     Edge 81, Type (0, 1), BuildingBlock: UVAHIK_clean_linker_0, # of connection points: 2
#     Edge 82, Type (0, 1), BuildingBlock: UVAHIK_clean_linker_0, # of connection points: 2
#     Edge 83, Type (0, 1), BuildingBlock: UVAHIK_clean_linker_0, # of connection points: 2
#     Edge 84, Type (0, 1), BuildingBlock: UVAHIK_clean_linker_0, # of connection points: 2
#     Edge 85, Type (0, 1), BuildingBlock: UVAHIK_clean_linker_0, # of connection points: 2
#     Edge 86, Type (0, 1), BuildingBlock: UVAHIK_clean_linker_0, # of connection points: 2
#     Edge 87, Type (0, 1), BuildingBlock: UVAHIK_clean_linker_0, # of connection points: 2
#     Edge 88, Type (0, 1), BuildingBlock: UVAHIK_clean_linker_0, # of connection points: 2
#     Edge 89, Type (0, 1), BuildingBlock: UVAHIK_clean_linker_0, # of connection points: 2
#     Edge 90, Type (0, 1), BuildingBlock: UVAHIK_clean_linker_0, # of connection points: 2
#     Edge 91, Type (0, 1), BuildingBlock: UVAHIK_clean_linker_0, # of connection points: 2
#     Edge 92, Type (0, 1), BuildingBlock: UVAHIK_clean_linker_0, # of connection points: 2
#     Edge 93, Type (0, 1), BuildingBlock: UVAHIK_clean_linker_0, # of connection points: 2
#     Edge 94, Type (0, 1), BuildingBlock: UVAHIK_clean_linker_0, # of connection points: 2
#     Edge 95, Type (0, 1), BuildingBlock: UVAHIK_clean_linker_0, # of connection points: 2
#     Edge 96, Type (0, 1), BuildingBlock: UVAHIK_clean_linker_0, # of connection points: 2
#     Edge 97, Type (0, 1), BuildingBlock: UVAHIK_clean_linker_0, # of connection points: 2
#     Edge 98, Type (0, 1), BuildingBlock: UVAHIK_clean_linker_0, # of connection points: 2
#     Edge 99, Type (0, 1), BuildingBlock: UVAHIK_clean_linker_0, # of connection points: 2
#     Edge 100, Type (0, 1), BuildingBlock: UVAHIK_clean_linker_0, # of connection points: 2
#     Edge 101, Type (0, 1), BuildingBlock: UVAHIK_clean_linker_0, # of connection points: 2
#     Edge 102, Type (0, 1), BuildingBlock: UVAHIK_clean_linker_0, # of connection points: 2
#     Edge 103, Type (0, 1), BuildingBlock: UVAHIK_clean_linker_0, # of connection points: 2
#     Edge 104, Type (0, 1), BuildingBlock: UVAHIK_clean_linker_0, # of connection points: 2
#     Edge 105, Type (0, 1), BuildingBlock: UVAHIK_clean_linker_0, # of connection points: 2
#     Edge 106, Type (0, 1), BuildingBlock: UVAHIK_clean_linker_0, # of connection points: 2
#     Edge 107, Type (0, 1), BuildingBlock: UVAHIK_clean_linker_0, # of connection points: 2
#     Edge 108, Type (0, 1), BuildingBlock: UVAHIK_clean_linker_0, # of connection points: 2
#     Edge 109, Type (0, 1), BuildingBlock: UVAHIK_clean_linker_0, # of connection points: 2
#     Edge 110, Type (0, 1), BuildingBlock: UVAHIK_clean_linker_0, # of connection points: 2
#     Edge 111, Type (0, 1), BuildingBlock: UVAHIK_clean_linker_0, # of connection points: 2
#     Edge 112, Type (0, 1), BuildingBlock: UVAHIK_clean_linker_0, # of connection points: 2
#     Edge 113, Type (0, 1), BuildingBlock: UVAHIK_clean_linker_0, # of connection points: 2
#     Edge 114, Type (0, 1), BuildingBlock: UVAHIK_clean_linker_0, # of connection points: 2
#     Edge 115, Type (0, 1), BuildingBlock: UVAHIK_clean_linker_0, # of connection points: 2
#     Edge 116, Type (0, 1), BuildingBlock: UVAHIK_clean_linker_0, # of connection points: 2
#     Edge 117, Type (0, 1), BuildingBlock: UVAHIK_clean_linker_0, # of connection points: 2
#     Edge 118, Type (0, 1), BuildingBlock: UVAHIK_clean_linker_0, # of connection points: 2
#     Edge 119, Type (0, 1), BuildingBlock: UVAHIK_clean_linker_0, # of connection points: 2
#     Edge 120, Type (0, 1), BuildingBlock: UVAHIK_clean_linker_0, # of connection points: 2
#     Edge 121, Type (0, 1), BuildingBlock: UVAHIK_clean_linker_0, # of connection points: 2
#     Edge 122, Type (0, 1), BuildingBlock: UVAHIK_clean_linker_0, # of connection points: 2
#     Edge 123, Type (0, 1), BuildingBlock: UVAHIK_clean_linker_0, # of connection points: 2
#     Edge 124, Type (0, 1), BuildingBlock: UVAHIK_clean_linker_0, # of connection points: 2
#     Edge 125, Type (0, 1), BuildingBlock: UVAHIK_clean_linker_0, # of connection points: 2
#     Edge 126, Type (0, 1), BuildingBlock: UVAHIK_clean_linker_0, # of connection points: 2
#     Edge 127, Type (0, 1), BuildingBlock: UVAHIK_clean_linker_0, # of connection points: 2
#     Edge 128, Type (0, 1), BuildingBlock: UVAHIK_clean_linker_0, # of connection points: 2
#     Edge 129, Type (0, 1), BuildingBlock: UVAHIK_clean_linker_0, # of connection points: 2
#     Edge 130, Type (0, 1), BuildingBlock: UVAHIK_clean_linker_0, # of connection points: 2
#     Edge 131, Type (0, 1), BuildingBlock: UVAHIK_clean_linker_0, # of connection points: 2
#     Edge 132, Type (0, 1), BuildingBlock: UVAHIK_clean_linker_0, # of connection points: 2
#     Edge 133, Type (0, 1), BuildingBlock: UVAHIK_clean_linker_0, # of connection points: 2
#     Edge 134, Type (0, 1), BuildingBlock: UVAHIK_clean_linker_0, # of connection points: 2
#     Edge 135, Type (0, 1), BuildingBlock: UVAHIK_clean_linker_0, # of connection points: 2
# Relax obj value: 0.277
# Max RMSD: 0.280
# Mean RMSD: 0.234
data_MOF--net-ibd--node1-GALJAG_clean_sbu_0--node2-OJICUG_clean_sbu_0--edge1-UVAHIK_clean_linker_0
_symmetry_space_group_name_H-M    P1
_symmetry_Int_Tables_number       1
_symmetry_cell_setting            triclinic
loop_
_symmetry_equiv_pos_as_xyz
'x, y, z'
_cell_length_a     63.274026
_cell_length_b     63.274194
_cell_length_c     63.252907
_cell_angle_alpha  90.033811
_cell_angle_beta   90.043738
_cell_angle_gamma 90.034612
loop_
_atom_site_label
_atom_site_type_symbol
_atom_site_fract_x
_atom_site_fract_y
_atom_site_fract_z
_atom_type_partial_charge
In0 In 0.00409 0.238 0.3693 0.0
O1 O 0.03299 0.24082 0.34823 0.0
O2 O 0.02221 0.20994 0.35621 0.0
C3 C 0.01942 0.2725 0.38889 0.0
C4 C 0.97334 0.25091 0.34291 0.0
C5 C 0.98969 0.20964 0.39765 0.0
O6 O 0.03054 0.25641 0.38514 0.0
O7 O 0.0004 0.27107 0.38311 0.0
O8 O 0.98231 0.21113 0.37923 0.0
O9 O 0.00436 0.22244 0.40181 0.0
C10 C 0.03576 0.22113 0.34678 0.0
O11 O 0.98931 0.24082 0.33655 0.0
O12 O 0.97293 0.25448 0.3625 0.0
In13 In 0.9948 0.73357 0.62091 0.0
O14 O 0.96945 0.7576 0.62901 0.0
O15 O 0.9753 0.73315 0.65124 0.0
C16 C 0.01377 0.75806 0.59179 0.0
C17 C 0.02865 0.72335 0.64459 0.0
C18 C 0.97238 0.70363 0.60063 0.0
O19 O 0.00351 0.76555 0.6071 0.0
O20 O 0.0145 0.73816 0.59113 0.0
O21 O 0.98619 0.69922 0.61429 0.0
O22 O 0.9699 0.7231 0.59724 0.0
C23 C 0.96484 0.74947 0.64658 0.0
O24 O 0.01949 0.7103 0.63263 0.0
O25 O 0.02067 0.74162 0.64472 0.0
In26 In 0.49506 0.75067 0.86637 0.0
O27 O 0.51386 0.75174 0.83575 0.0
O28 O 0.5248 0.73145 0.86019 0.0
C29 C 0.50717 0.78652 0.8859 0.0
C30 C 0.45894 0.7599 0.84595 0.0
C31 C 0.48646 0.71794 0.89214 0.0
O32 O 0.51431 0.78112 0.86811 0.0
O33 O 0.49395 0.77386 0.89378 0.0
O34 O 0.47561 0.72188 0.8759 0.0
O35 O 0.50169 0.73041 0.89529 0.0
C36 C 0.52763 0.73866 0.84184 0.0
O37 O 0.47168 0.74602 0.83939 0.0
O38 O 0.46446 0.76907 0.86277 0.0
In39 In 0.48874 0.23956 0.12222 0.0
O40 O 0.51433 0.22096 0.13947 0.0
O41 O 0.50406 0.24989 0.153 0.0
C42 C 0.48216 0.20707 0.09524 0.0
C43 C 0.45144 0.25003 0.13969 0.0
C44 C 0.50485 0.27122 0.09931 0.0
O45 O 0.4737 0.20795 0.11321 0.0
O46 O 0.49402 0.22243 0.09097 0.0
O47 O 0.48519 0.26781 0.10038 0.0
O48 O 0.51626 0.25855 0.10968 0.0
C49 C 0.51618 0.23418 0.15428 0.0
O50 O 0.46143 0.26233 0.1276 0.0
O51 O 0.46015 0.23237 0.1427 0.0
In52 In -0.00389 0.75208 0.12649 0.0
O53 O 0.96786 0.77371 0.12099 0.0
O54 O -0.00308 0.78197 0.10644 0.0
C55 C 0.96765 0.73605 0.15341 0.0
C56 C 0.00647 0.72237 0.09776 0.0
C57 C 0.0315 0.76433 0.14663 0.0
O58 O 0.97827 0.75243 0.15768 0.0
O59 O 0.97166 0.72769 0.13575 0.0
O60 O 0.0199 0.74958 0.1534 0.0
O61 O 0.0251 0.77299 0.12988 0.0
C62 C 0.97776 0.7865 0.10941 0.0
O63 O 0.01646 0.72476 0.11481 0.0
O64 O 0.99137 0.73505 0.0951 0.0
In65 In 0.49603 0.74757 0.37073 0.0
O66 O 0.49216 0.71826 0.39107 0.0
O67 O 0.52266 0.73215 0.38957 0.0
C68 C 0.46403 0.73509 0.34577 0.0
C69 C 0.48232 0.77691 0.39837 0.0
C70 C 0.52421 0.75952 0.34116 0.0
O71 O 0.4759 0.7223 0.35538 0.0
O72 O 0.46855 0.75436 0.3484 0.0
O73 O 0.51454 0.77253 0.35274 0.0
O74 O 0.51963 0.74041 0.34443 0.0
C75 C 0.51121 0.71751 0.39673 0.0
O76 O 0.50148 0.77536 0.39318 0.0
O77 O 0.47026 0.76356 0.38984 0.0
In78 In 0.50222 0.24536 0.62098 0.0
O79 O 0.52127 0.21488 0.6224 0.0
O80 O 0.50362 0.22123 0.59449 0.0
C81 C 0.5359 0.26032 0.642 0.0
C82 C 0.49077 0.27824 0.59679 0.0
C83 C 0.46627 0.23454 0.64079 0.0
O84 O 0.52258 0.24805 0.65039 0.0
O85 O 0.53223 0.26504 0.623 0.0
O86 O 0.47966 0.24694 0.6489 0.0
O87 O 0.4711 0.22757 0.62277 0.0
C88 C 0.51573 0.20876 0.60426 0.0
O89 O 0.48409 0.2758 0.6154 0.0
O90 O 0.50318 0.26401 0.59034 0.0
In91 In 0.98898 0.24535 0.87108 0.0
O92 O -0.00204 0.21207 0.88133 0.0
O93 O 0.01628 0.23783 0.89292 0.0
C94 C 0.95295 0.23097 0.85355 0.0
C95 C 0.97444 0.27472 0.89815 0.0
C96 C 0.01761 0.25626 0.84174 0.0
O97 O 0.96065 0.22316 0.87016 0.0
O98 O 0.96336 0.24614 0.84587 0.0
O99 O 0.01173 0.26869 0.85616 0.0
O100 O 0.00881 0.23837 0.84191 0.0
C101 C 0.01322 0.21812 0.89268 0.0
O102 O 0.97721 0.27863 0.87882 0.0
O103 O 0.97873 0.25607 0.90361 0.0
In104 In 0.37989 0.98937 0.256 0.0
O105 O 0.37588 0.95369 0.25924 0.0
O106 O 0.36287 0.97326 0.28321 0.0
C107 C 0.40158 0.98021 0.22055 0.0
C108 C 0.34845 0.01326 0.24019 0.0
C109 C 0.40285 0.008 0.28649 0.0
O110 O 0.38356 0.97275 0.22445 0.0
O111 O 0.40888 0.99232 0.23465 0.0
O112 O 0.38559 0.0155 0.2799 0.0
O113 O 0.4087 0.99116 0.27748 0.0
C114 C 0.36559 0.95479 0.27625 0.0
O115 O 0.36724 0.0198 0.24125 0.0
O116 O 0.34553 0.99498 0.2475 0.0
In117 In 0.25126 0.12055 0.48834 0.0
O118 O 0.2288 0.13305 0.51334 0.0
O119 O 0.25827 0.14877 0.50958 0.0
C120 C 0.21682 0.0971 0.48011 0.0
C121 C 0.26313 0.14126 0.45313 0.0
C122 C 0.28313 0.09598 0.50217 0.0
O123 O 0.22712 0.09549 0.49712 0.0
O124 O 0.22399 0.11046 0.46717 0.0
O125 O 0.27078 0.09033 0.48757 0.0
O126 O 0.2794 0.114 0.50976 0.0
C127 C 0.24095 0.14764 0.51939 0.0
O128 O 0.27172 0.12427 0.45897 0.0
O129 O 0.24854 0.14776 0.46503 0.0
In130 In 0.11704 0.98683 0.75423 0.0
O131 O 0.11591 0.9649 0.78288 0.0
O132 O 0.09222 0.98846 0.78015 0.0
C133 C 0.13879 0.95476 0.73676 0.0
C134 C 0.08812 -0.00286 0.72488 0.0
C135 C 0.14124 0.02091 0.76273 0.0
O136 O 0.14495 0.96415 0.75328 0.0
O137 O 0.12169 0.96154 0.72914 0.0
O138 O 0.12439 0.01696 0.77256 0.0
O139 O 0.14588 0.0077 0.74854 0.0
C140 C 0.09968 0.97334 0.79073 0.0
O141 O 0.10443 0.00815 0.72813 0.0
O142 O 0.08627 0.98115 0.73664 0.0
In143 In 0.24623 0.87935 0.99143 0.0
O144 O 0.22076 0.90478 0.99037 0.0
O145 O 0.21756 0.88014 0.01297 0.0
C146 C 0.23865 0.85744 0.95571 0.0
C147 C 0.27535 0.90927 0.98405 0.0
C148 C 0.26074 0.85392 0.02222 0.0
O149 O 0.22634 0.87154 0.96245 0.0
O150 O 0.25479 0.85437 0.96699 0.0
O151 O 0.27082 0.86995 0.01606 0.0
O152 O 0.24358 0.85058 0.01265 0.0
C153 C 0.20993 0.89673 0.00505 0.0
O154 O 0.26393 0.90938 0.0004 0.0
O155 O 0.27186 0.89425 0.97141 0.0
In156 In 0.24155 0.37037 0.9895 0.0
O157 O 0.24785 0.36455 0.95452 0.0
O158 O 0.26761 0.34919 0.97692 0.0
C159 C 0.20644 0.3938 0.98414 0.0
C160 C 0.22774 0.33788 0.01318 0.0
C161 C 0.2703 0.39872 0.00268 0.0
O162 O 0.21352 0.38161 0.97007 0.0
O163 O 0.21697 0.39403 0.00108 0.0
O164 O 0.26255 0.38491 0.01476 0.0
O165 O 0.26332 0.39843 0.98401 0.0
C166 C 0.26339 0.35252 0.95772 0.0
O167 O 0.24191 0.35042 0.01939 0.0
O168 O 0.22066 0.3416 0.99492 0.0
In169 In 0.74373 0.1263 0.98815 0.0
O170 O 0.71842 0.11648 0.01154 0.0
O171 O 0.71919 0.10071 0.98185 0.0
C172 C 0.76264 0.15377 0.0146 0.0
C173 C 0.77542 0.09873 0.9812 0.0
C174 C 0.72517 0.14935 0.95766 0.0
O175 O 0.74913 0.1405 0.02074 0.0
O176 O 0.76648 0.15334 0.99505 0.0
O177 O 0.73905 0.13564 0.95367 0.0
O178 O 0.72092 0.15162 0.977 0.0
C179 C 0.71034 0.1027 -0.00038 0.0
O180 O 0.77033 0.1128 0.96807 0.0
O181 O 0.76446 0.09848 -0.00217 0.0
In182 In 0.12781 0.49348 0.23622 0.0
O183 O 0.13798 0.46865 0.25987 0.0
O184 O 0.15869 0.47506 0.23414 0.0
C185 C 0.09625 0.50441 0.2626 0.0
C186 C 0.14648 0.53078 0.22754 0.0
C187 C 0.11237 0.47194 0.20294 0.0
O188 O 0.11512 0.50282 0.26875 0.0
O189 O 0.09345 0.50085 0.24322 0.0
O190 O 0.12205 0.48923 0.20082 0.0
O191 O 0.11087 0.46546 0.22171 0.0
C192 C 0.15512 0.46441 0.25064 0.0
O193 O 0.12971 0.52477 0.21864 0.0
O194 O 0.15378 0.51805 0.24104 0.0
In195 In 0.74509 0.87024 0.47929 0.0
O196 O 0.75255 0.85686 0.44665 0.0
O197 O 0.77491 0.85207 0.47121 0.0
C198 C 0.70991 0.89179 0.4693 0.0
C199 C 0.72957 0.83918 0.50382 0.0
C200 C 0.77006 0.90187 0.49286 0.0
O201 O 0.72167 0.88349 0.45551 0.0
O202 O 0.71589 0.88917 0.48814 0.0
O203 O 0.76505 0.8864 0.50436 0.0
O204 O 0.76252 0.9014 0.4744 0.0
C205 C 0.77005 0.8491 0.45212 0.0
O206 O 0.74223 0.85294 0.51072 0.0
O207 O 0.72487 0.841 0.48454 0.0
In208 In 0.86283 0.99148 0.2475 0.0
O209 O 0.87689 0.98256 0.27973 0.0
O210 O 0.89549 0.97786 0.25224 0.0
C211 C 0.83555 0.02109 0.26078 0.0
C212 C 0.88214 0.01549 0.21833 0.0
C213 C 0.841 0.95645 0.23677 0.0
O214 O 0.84985 0.01367 0.27256 0.0
O215 O 0.83476 0.01324 0.24245 0.0
O216 O 0.85659 0.96308 0.22635 0.0
O217 O 0.83648 0.96738 0.2528 0.0
C218 C 0.89429 0.97662 0.27205 0.0
O219 O 0.87091 -0.00025 0.21338 0.0
O220 O 0.8834 0.01913 0.23791 0.0
In221 In 0.24882 0.61551 0.49866 0.0
O222 O 0.27722 0.60718 0.47846 0.0
O223 O 0.26688 0.58436 0.50079 0.0
C224 C 0.23154 0.64266 0.47089 0.0
C225 C 0.21527 0.59192 0.50948 0.0
C226 C 0.2675 0.63863 0.52907 0.0
O227 O 0.24107 0.62615 0.46517 0.0
O228 O 0.23091 0.64558 0.49059 0.0
O229 O 0.24982 0.62986 0.53163 0.0
O230 O 0.27564 0.63595 0.51109 0.0
C231 C 0.27997 0.58922 0.48656 0.0
O232 O 0.22768 0.59991 0.52289 0.0
O233 O 0.22013 0.59527 0.49043 0.0
In234 In 0.36706 0.498 0.7558 0.0
O235 O 0.39541 0.4959 0.77776 0.0
O236 O 0.36902 0.47616 0.78432 0.0
C237 C 0.35053 0.53513 0.76833 0.0
C238 C 0.39064 0.50689 0.72164 0.0
C239 C 0.33979 0.46771 0.74396 0.0
O240 O 0.36755 0.52797 0.77576 0.0
O241 O 0.34178 0.5235 0.75471 0.0
O242 O 0.35728 0.47047 0.73481 0.0
O243 O 0.33607 0.48025 0.75902 0.0
C244 C 0.38726 0.48213 0.78965 0.0
O245 O 0.39597 0.49307 0.73501 0.0
O246 O 0.37339 0.51606 0.72547 0.0
In247 In 0.62401 0.00355 0.75158 0.0
O248 O 0.64093 0.97999 0.77267 0.0
O249 O 0.65162 0.98304 0.74097 0.0
C250 C 0.5977 0.02023 0.78044 0.0
C251 C 0.6475 0.03757 0.74211 0.0
C252 C 0.59715 0.98397 0.72505 0.0
O253 O 0.60957 0.0048 0.78467 0.0
O254 O 0.59902 0.02696 0.76175 0.0
O255 O 0.60725 0.00031 0.71985 0.0
O256 O 0.6006 0.97755 0.74358 0.0
C257 C 0.6537 0.97399 0.7586 0.0
O258 O 0.63609 0.02824 0.72866 0.0
O259 O 0.64735 0.0295 0.76036 0.0
In260 In 0.75142 0.61816 0.98247 0.0
O261 O 0.72566 0.63124 0.00377 0.0
O262 O 0.75495 0.6477 0.00264 0.0
C263 C 0.72114 0.58976 0.97362 0.0
C264 C 0.76115 0.64079 0.94773 0.0
C265 C 0.78407 0.59698 -0.00012 0.0
O266 O 0.72604 0.59465 0.99233 0.0
O267 O 0.73191 0.59876 0.95946 0.0
O268 O 0.77464 0.59052 0.98354 0.0
O269 O 0.777 0.61396 0.0074 0.0
C270 C 0.7366 0.64655 0.01034 0.0
O271 O 0.7742 0.62863 0.95659 0.0
O272 O 0.74323 0.64149 0.95638 0.0
In273 In 0.87475 0.50006 0.74732 0.0
O274 O 0.84789 0.47637 0.74361 0.0
O275 O 0.85806 0.48421 0.77472 0.0
C276 C 0.89747 0.48149 0.71663 0.0
C277 C 0.85143 0.53182 0.73115 0.0
C278 C 0.90292 0.51245 0.77678 0.0
O279 O 0.88544 0.47114 0.72869 0.0
O280 O 0.89829 0.50106 0.72032 0.0
O281 O 0.89019 0.52505 0.76811 0.0
O282 O 0.90165 0.49363 0.7704 0.0
C283 C 0.8456 0.47369 0.76325 0.0
O284 O 0.8483 0.52441 0.74936 0.0
O285 O 0.86634 0.52327 0.72114 0.0
In286 In 0.7547 0.36941 0.52599 0.0
O287 O 0.71945 0.37271 0.53275 0.0
O288 O 0.74027 0.39587 0.54537 0.0
C289 C 0.74117 0.34705 0.49264 0.0
C290 C 0.78376 0.39281 0.50593 0.0
C291 C 0.7717 0.34974 0.55969 0.0
O292 O 0.73605 0.36611 0.49554 0.0
O293 O 0.75308 0.33923 0.50667 0.0
O294 O 0.7798 0.3659 0.55144 0.0
O295 O 0.75518 0.34315 0.55069 0.0
C296 C 0.72154 0.38928 0.54359 0.0
O297 O 0.76865 0.40089 0.51613 0.0
O298 O 0.78419 0.3729 0.50576 0.0
In299 In 0.62123 0.50425 0.2514 0.0
O300 O 0.61784 0.48454 0.28134 0.0
O301 O 0.59279 0.50539 0.27341 0.0
C302 C 0.64808 0.47302 0.24085 0.0
C303 C 0.59607 0.51194 0.21795 0.0
C304 C 0.64177 0.54036 0.26038 0.0
O305 O 0.65226 0.48652 0.25492 0.0
O306 O 0.63038 0.47533 0.232 0.0
O307 O 0.64746 0.52804 0.24576 0.0
O308 O 0.62561 0.53449 0.27047 0.0
C309 C 0.59991 0.49176 0.28609 0.0
O310 O 0.61077 0.52423 0.22341 0.0
O311 O 0.59409 0.4957 0.22933 0.0
Sc312 Sc 0.09792 0.13338 0.12222 0.0
Sc313 Sc 0.11651 0.08631 0.14526 0.0
Sc314 Sc 0.13925 0.10522 0.09798 0.0
O315 O 0.11791 0.1083 0.12182 0.0
C316 C 0.09857 0.12158 0.07327 0.0
C317 C 0.06767 0.09615 0.13734 0.0
C318 C 0.12294 0.05788 0.10424 0.0
C319 C 0.11092 0.12933 0.17073 0.0
C320 C 0.14091 0.15475 0.10683 0.0
C321 C 0.16618 0.09074 0.13798 0.0
O322 O 0.09001 0.12981 0.08945 0.0
O323 O 0.08254 0.08448 0.14413 0.0
O324 O 0.13142 0.07255 0.09346 0.0
O325 O 0.10377 0.13961 0.15504 0.0
O326 O 0.14905 0.13773 0.09994 0.0
O327 O 0.15022 0.08577 0.14908 0.0
O328 O 0.12263 0.1555 0.1151 0.0
O329 O 0.11604 0.10995 0.16969 0.0
O330 O 0.16469 0.09771 0.11922 0.0
O331 O 0.07087 0.11418 0.12918 0.0
O332 O 0.11643 0.11244 0.07385 0.0
O333 O 0.11701 0.06032 0.12327 0.0
Sc334 Sc 0.15061 0.8682 0.39149 0.0
Sc335 Sc 0.10627 0.8488 0.36421 0.0
Sc336 Sc 0.13258 0.89433 0.3459 0.0
O337 O 0.12979 0.87044 0.36719 0.0
C338 C 0.14153 0.91736 0.39 0.0
C339 C 0.1074 0.8548 0.41392 0.0
C340 C 0.08283 0.89195 0.35261 0.0
C341 C 0.1459 0.82036 0.37735 0.0
C342 C 0.18053 0.88215 0.35342 0.0
C343 C 0.12056 0.85523 0.31642 0.0
O344 O 0.1458 0.90055 0.40009 0.0
O345 O 0.09743 0.85086 0.39694 0.0
O346 O 0.09961 0.90207 0.3482 0.0
O347 O 0.15675 0.83551 0.38489 0.0
O348 O 0.16575 0.88861 0.3415 0.0
O349 O 0.11275 0.84425 0.33128 0.0
O350 O 0.17752 0.87577 0.37219 0.0
O351 O 0.1272 0.82269 0.37034 0.0
O352 O 0.12747 0.8739 0.31912 0.0
O353 O 0.12669 0.86029 0.41417 0.0
O354 O 0.13795 0.91767 0.37021 0.0
O355 O 0.08277 0.87253 0.35777 0.0
Sc356 Sc 0.38967 0.84878 0.62825 0.0
Sc357 Sc 0.34647 0.86997 0.60037 0.0
Sc358 Sc 0.36327 0.89353 0.64809 0.0
O359 O 0.36646 0.87078 0.62557 0.0
C360 C 0.37356 0.85298 0.6759 0.0
C361 C 0.35107 0.82108 0.61199 0.0
C362 C 0.31527 0.88142 0.63805 0.0
C363 C 0.39055 0.85878 0.57888 0.0
C364 C 0.41333 0.89063 0.64298 0.0
C365 C 0.35514 0.91937 0.60564 0.0
O366 O 0.38308 0.8434 0.66105 0.0
O367 O 0.34158 0.8364 0.6031 0.0
O368 O 0.32963 0.88925 0.64972 0.0
O369 O 0.3988 0.85152 0.59568 0.0
O370 O 0.39664 0.90012 0.64888 0.0
O371 O 0.3493 0.90333 0.59503 0.0
O372 O 0.4132 0.87213 0.6352 0.0
O373 O 0.37186 0.86605 0.57815 0.0
O374 O 0.36055 0.91831 0.62496 0.0
O375 O 0.36854 0.82319 0.62162 0.0
O376 O 0.36561 0.87127 0.67371 0.0
O377 O 0.31886 0.87398 0.61975 0.0
Sc378 Sc 0.36572 0.10826 0.84225 0.0
Sc379 Sc 0.39094 0.15479 0.8597 0.0
Sc380 Sc 0.34364 0.1383 0.88367 0.0
O381 O 0.36673 0.13379 0.86183 0.0
C382 C 0.31703 0.12158 0.84439 0.0
C383 C 0.37971 0.1454 0.81139 0.0
C384 C 0.35171 0.1853 0.86755 0.0
C385 C 0.41492 0.11113 0.85268 0.0
C386 C 0.35202 0.08868 0.88647 0.0
C387 C 0.38539 0.15022 0.90941 0.0
O388 O 0.33259 0.11206 0.83602 0.0
O389 O 0.38776 0.15661 0.82601 0.0
O390 O 0.34018 0.17116 0.87593 0.0
O391 O 0.39873 0.10121 0.84614 0.0
O392 O 0.34499 0.10602 0.89374 0.0
O393 O 0.3963 0.15474 0.89319 0.0
O394 O 0.35986 0.08685 0.86806 0.0
O395 O 0.41443 0.13046 0.85797 0.0
O396 O 0.36611 0.14468 0.90839 0.0
O397 O 0.37142 0.12738 0.81467 0.0
O398 O 0.31855 0.1319 0.86156 0.0
O399 O 0.37046 0.18178 0.86137 0.0
Sc400 Sc 0.63419 0.36785 0.88916 0.0
Sc401 Sc 0.58863 0.34575 0.86612 0.0
Sc402 Sc 0.6062 0.39619 0.85044 0.0
O403 O 0.60968 0.36992 0.86857 0.0
C404 C 0.62003 0.41614 0.8942 0.0
C405 C 0.59589 0.34932 0.91587 0.0
C406 C 0.55837 0.38562 0.86252 0.0
C407 C 0.63171 0.3206 0.87155 0.0
C408 C 0.65628 0.38933 0.84978 0.0
C409 C 0.59641 0.35902 0.81806 0.0
O410 O 0.63036 0.39986 0.89983 0.0
O411 O 0.58552 0.34302 0.89983 0.0
O412 O 0.57274 0.39783 0.85567 0.0
O413 O 0.64112 0.3356 0.88102 0.0
O414 O 0.63935 0.39797 0.84329 0.0
O415 O 0.5901 0.34626 0.83224 0.0
O416 O 0.65691 0.37714 0.86572 0.0
O417 O 0.61281 0.32204 0.86503 0.0
O418 O 0.60265 0.37769 0.82211 0.0
O419 O 0.61361 0.35868 0.91455 0.0
O420 O 0.60967 0.41707 0.87702 0.0
O421 O 0.56171 0.36639 0.86704 0.0
Sc422 Sc 0.89692 0.35579 0.12135 0.0
Sc423 Sc 0.87743 0.40047 0.14817 0.0
Sc424 Sc 0.85055 0.38035 0.10342 0.0
O425 O 0.87493 0.37887 0.12436 0.0
C426 C 0.88951 0.36953 0.0736 0.0
C427 C 0.92546 0.39528 0.13402 0.0
C428 C 0.86311 0.4289 0.10919 0.0
C429 C 0.88981 0.35728 0.17115 0.0
C430 C 0.85455 0.33077 0.11022 0.0
C431 C 0.82782 0.39138 0.14702 0.0
O432 O 0.90084 0.36196 0.08832 0.0
O433 O 0.91068 0.40573 0.14271 0.0
O434 O 0.85478 0.41365 0.0991 0.0
O435 O 0.8952 0.34789 0.15423 0.0
O436 O 0.84396 0.34712 0.10545 0.0
O437 O 0.8445 0.39775 0.15625 0.0
O438 O 0.87382 0.33154 0.11578 0.0
O439 O 0.88351 0.37637 0.17153 0.0
O440 O 0.82764 0.38487 0.12802 0.0
O441 O 0.92273 0.37702 0.12623 0.0
O442 O 0.87069 0.37595 0.07632 0.0
O443 O 0.87157 0.42677 0.1273 0.0
Sc444 Sc 0.86617 0.58841 0.34954 0.0
Sc445 Sc 0.89472 0.62885 0.37527 0.0
Sc446 Sc 0.84611 0.61162 0.39599 0.0
O447 O 0.86903 0.60961 0.3736 0.0
C448 C 0.81885 0.6052 0.35418 0.0
C449 C 0.88393 0.62916 0.326 0.0
C450 C 0.8574 0.66003 0.38836 0.0
C451 C 0.91539 0.58558 0.3601 0.0
C452 C 0.85066 0.56185 0.38927 0.0
C453 C 0.88799 0.61653 0.42362 0.0
O454 O 0.83363 0.59643 0.3438 0.0
O455 O 0.89233 0.63706 0.34246 0.0
O456 O 0.84484 0.64549 0.39419 0.0
O457 O 0.8984 0.57807 0.35246 0.0
O458 O 0.84531 0.57798 0.4 0.0
O459 O 0.89957 0.62267 0.4084 0.0
O460 O 0.85805 0.56308 0.37065 0.0
O461 O 0.9165 0.6037 0.36866 0.0
O462 O 0.86848 0.61239 0.42146 0.0
O463 O 0.8742 0.61158 0.32602 0.0
O464 O 0.82101 0.61119 0.3732 0.0
O465 O 0.87596 0.65637 0.38168 0.0
Sc466 Sc 0.89824 0.84499 0.87725 0.0
Sc467 Sc 0.85155 0.86997 0.8942 0.0
Sc468 Sc 0.88314 0.89386 0.85511 0.0
O469 O 0.87766 0.86962 0.87553 0.0
C470 C 0.92936 0.88445 0.87278 0.0
C471 C 0.88691 0.85259 0.92563 0.0
C472 C 0.8662 0.91805 0.89599 0.0
C473 C 0.85367 0.82164 0.88047 0.0
C474 C 0.89609 0.85347 0.82774 0.0
C475 C 0.8335 0.88735 0.85041 0.0
O476 O 0.92556 0.86533 0.87759 0.0
O477 O 0.86911 0.86114 0.92201 0.0
O478 O 0.87586 0.91779 0.87837 0.0
O479 O 0.87346 0.82166 0.87709 0.0
O480 O 0.8908 0.87278 0.82943 0.0
O481 O 0.83111 0.87913 0.86858 0.0
O482 O 0.89933 0.84163 0.84361 0.0
O483 O 0.84364 0.83787 0.88667 0.0
O484 O 0.85131 0.89345 0.84345 0.0
O485 O 0.89901 0.84594 0.91107 0.0
O486 O 0.91558 0.89659 0.86467 0.0
O487 O 0.85681 0.90203 0.90356 0.0
Sc488 Sc 0.8473 0.13142 0.60729 0.0
Sc489 Sc 0.8966 0.14084 0.63155 0.0
Sc490 Sc 0.86563 0.09748 0.64737 0.0
O491 O 0.86988 0.1232 0.62866 0.0
C492 C 0.81994 0.11838 0.64739 0.0
C493 C 0.86131 0.17619 0.62547 0.0
C494 C 0.88526 0.13102 0.67949 0.0
C495 C 0.89021 0.13938 0.58177 0.0
C496 C 0.84757 0.08143 0.60293 0.0
C497 C 0.91435 0.09376 0.63629 0.0
O498 O 0.82172 0.1272 0.62944 0.0
O499 O 0.87983 0.17041 0.63058 0.0
O500 O 0.87581 0.11375 0.67553 0.0
O501 O 0.87032 0.13659 0.58272 0.0
O502 O 0.85461 0.07822 0.62149 0.0
O503 O 0.91676 0.11347 0.6332 0.0
O504 O 0.84433 0.09979 0.59554 0.0
O505 O 0.90183 0.14101 0.59808 0.0
O506 O 0.89668 0.08555 0.64109 0.0
O507 O 0.84792 0.16382 0.61706 0.0
O508 O 0.83442 0.1073 0.65573 0.0
O509 O 0.89343 0.1425 0.66521 0.0
Sc510 Sc 0.61747 0.11136 0.3599 0.0
Sc511 Sc 0.64562 0.12837 0.40472 0.0
Sc512 Sc 0.59796 0.15345 0.3906 0.0
O513 O 0.62037 0.1311 0.38504 0.0
C514 C 0.60285 0.15574 0.34072 0.0
C515 C 0.66678 0.12049 0.35957 0.0
C516 C 0.64097 0.17812 0.40085 0.0
C517 C 0.63326 0.08044 0.3964 0.0
C518 C 0.56994 0.11411 0.376 0.0
C519 C 0.60782 0.13682 0.43694 0.0
O520 O 0.60924 0.13679 0.33887 0.0
O521 O 0.66792 0.12449 0.37923 0.0
O522 O 0.62123 0.17754 0.39711 0.0
O523 O 0.62529 0.0837 0.37824 0.0
O524 O 0.57192 0.13216 0.38461 0.0
O525 O 0.6267 0.13146 0.43277 0.0
O526 O 0.58508 0.10469 0.36684 0.0
O527 O 0.641 0.09502 0.40783 0.0
O528 O 0.59544 0.14468 0.42324 0.0
O529 O 0.64956 0.11595 0.35033 0.0
O530 O 0.59833 0.16408 0.35842 0.0
O531 O 0.65206 0.16159 0.40352 0.0
Sc532 Sc 0.64194 0.87518 0.08763 0.0
Sc533 Sc 0.59557 0.85101 0.10636 0.0
Sc534 Sc 0.61686 0.89524 0.13297 0.0
O535 O 0.61812 0.87379 0.10903 0.0
C536 C 0.66605 0.88551 0.13084 0.0
C537 C 0.63786 0.82583 0.09507 0.0
C538 C 0.60357 0.85224 0.15597 0.0
C539 C 0.60221 0.86432 0.05843 0.0
C540 C 0.63019 0.92358 0.09348 0.0
C541 C 0.56846 0.89141 0.11992 0.0
O542 O 0.66575 0.88017 0.11147 0.0
O543 O 0.61838 0.82636 0.09998 0.0
O544 O 0.6099 0.87133 0.15629 0.0
O545 O 0.62118 0.87036 0.06107 0.0
O546 O 0.6234 0.9217 0.11231 0.0
O547 O 0.57001 0.87284 0.11238 0.0
O548 O 0.63722 0.90818 0.08274 0.0
O549 O 0.59087 0.85724 0.07339 0.0
O550 O 0.58407 0.90139 0.12762 0.0
O551 O 0.64848 0.84224 0.0906 0.0
O552 O 0.64958 0.89116 0.14079 0.0
O553 O 0.59815 0.84275 0.13911 0.0
Sc554 Sc 0.34767 0.62796 0.09647 0.0
Sc555 Sc 0.39268 0.647 0.12285 0.0
Sc556 Sc 0.36594 0.6022 0.14218 0.0
O557 O 0.36879 0.62568 0.12048 0.0
C558 C 0.31814 0.61568 0.13562 0.0
C559 C 0.35371 0.67592 0.10928 0.0
C560 C 0.37829 0.64211 0.17052 0.0
C561 C 0.39154 0.63865 0.07357 0.0
C562 C 0.35498 0.57855 0.09882 0.0
C563 C 0.41545 0.60356 0.13521 0.0
O564 O 0.3208 0.62203 0.11673 0.0
O565 O 0.37266 0.67372 0.11559 0.0
O566 O 0.37209 0.62309 0.16859 0.0
O567 O 0.3719 0.6343 0.07318 0.0
O568 O 0.35938 0.57848 0.11845 0.0
O569 O 0.41588 0.62307 0.13039 0.0
O570 O 0.35098 0.59531 0.08857 0.0
O571 O 0.40145 0.6429 0.0905 0.0
O572 O 0.39848 0.5937 0.13931 0.0
O573 O 0.34253 0.6607 0.10254 0.0
O574 O 0.33312 0.6086 0.14692 0.0
O575 O 0.3856 0.65291 0.15529 0.0
Sc576 Sc 0.1349 0.60292 0.85243 0.0
Sc577 Sc 0.15155 0.62906 0.89862 0.0
Sc578 Sc 0.1088 0.64903 0.8693 0.0
O579 O 0.13172 0.62699 0.87345 0.0
C580 C 0.12425 0.6419 0.82218 0.0
C581 C 0.18258 0.61551 0.8612 0.0
C582 C 0.14842 0.67675 0.88354 0.0
C583 C 0.14268 0.57991 0.89686 0.0
C584 C 0.08521 0.60582 0.85767 0.0
C585 C 0.10728 0.64227 0.91892 0.0
O586 O 0.13027 0.62295 0.82507 0.0
O587 O 0.17911 0.62186 0.87994 0.0
O588 O 0.12989 0.67509 0.87592 0.0
O589 O 0.13963 0.57965 0.87698 0.0
O590 O 0.08515 0.62545 0.86207 0.0
O591 O 0.12652 0.6367 0.92047 0.0
O592 O 0.10201 0.59541 0.85419 0.0
O593 O 0.14659 0.59673 0.90708 0.0
O594 O 0.09864 0.64685 0.90142 0.0
O595 O 0.16807 0.60869 0.84909 0.0
O596 O 0.11676 0.65336 0.83681 0.0
O597 O 0.15823 0.66147 0.89202 0.0
Sc598 Sc 0.14304 0.3733 0.59408 0.0
Sc599 Sc 0.09813 0.34528 0.61044 0.0
Sc600 Sc 0.11346 0.39129 0.63729 0.0
O601 O 0.11825 0.36992 0.61401 0.0
C602 C 0.163 0.38641 0.63871 0.0
C603 C 0.14338 0.32427 0.60167 0.0
C604 C 0.10319 0.3471 0.65989 0.0
C605 C 0.10579 0.35905 0.56326 0.0
C606 C 0.12657 0.42017 0.59814 0.0
C607 C 0.06679 0.38302 0.62191 0.0
O608 O 0.16457 0.38245 0.61905 0.0
O609 O 0.12339 0.32317 0.60372 0.0
O610 O 0.10588 0.36705 0.66022 0.0
O611 O 0.12485 0.36457 0.56647 0.0
O612 O 0.12036 0.41806 0.61715 0.0
O613 O 0.07012 0.36386 0.61688 0.0
O614 O 0.13436 0.40517 0.58736 0.0
O615 O 0.09353 0.35278 0.57783 0.0
O616 O 0.08119 0.39536 0.6284 0.0
O617 O 0.15315 0.34161 0.5993 0.0
O618 O 0.14539 0.38902 0.64789 0.0
O619 O 0.10127 0.33659 0.64289 0.0
Sc620 Sc 0.59617 0.63916 0.62263 0.0
Sc621 Sc 0.61845 0.59519 0.64833 0.0
Sc622 Sc 0.63729 0.61059 0.59828 0.0
O623 O 0.61733 0.615 0.62307 0.0
C624 C 0.59483 0.62346 0.57467 0.0
C625 C 0.56889 0.60127 0.64133 0.0
C626 C 0.62448 0.56326 0.60983 0.0
C627 C 0.61096 0.63948 0.67089 0.0
C628 C 0.63724 0.66085 0.60336 0.0
C629 C 0.66726 0.6017 0.63783 0.0
O630 O 0.58722 0.63328 0.59043 0.0
O631 O 0.58476 0.59131 0.64859 0.0
O632 O 0.63133 0.57714 0.59704 0.0
O633 O 0.60267 0.6481 0.65477 0.0
O634 O 0.64525 0.64363 0.5968 0.0
O635 O 0.65228 0.59708 0.65037 0.0
O636 O 0.61971 0.66172 0.61312 0.0
O637 O 0.61736 0.62048 0.67092 0.0
O638 O 0.66428 0.60653 0.61856 0.0
O639 O 0.57047 0.61886 0.63179 0.0
O640 O 0.61266 0.61427 0.57516 0.0
O641 O 0.6196 0.56746 0.62883 0.0
Sc642 Sc 0.3561 0.36447 0.39128 0.0
Sc643 Sc 0.38047 0.38857 0.3474 0.0
Sc644 Sc 0.403 0.34315 0.37036 0.0
O645 O 0.37985 0.36542 0.36969 0.0
C646 C 0.39664 0.35325 0.41917 0.0
C647 C 0.36627 0.41377 0.38863 0.0
C648 C 0.42922 0.38476 0.35941 0.0
C649 C 0.33133 0.37755 0.34943 0.0
C650 C 0.3619 0.31573 0.38034 0.0
C651 C 0.39313 0.34748 0.32121 0.0
O652 O 0.37762 0.35939 0.41718 0.0
O653 O 0.37445 0.41308 0.37029 0.0
O654 O 0.42796 0.36589 0.36613 0.0
O655 O 0.33191 0.36966 0.36789 0.0
O656 O 0.38104 0.31757 0.37464 0.0
O657 O 0.38634 0.36636 0.32222 0.0
O658 O 0.35093 0.33126 0.38676 0.0
O659 O 0.34752 0.38512 0.34032 0.0
O660 O 0.39994 0.33736 0.33716 0.0
O661 O 0.3588 0.39758 0.39786 0.0
O662 O 0.40773 0.3469 0.4037 0.0
O663 O 0.41344 0.39473 0.35207 0.0
C664 C 0.05246 0.19057 0.3286 0.0
C665 C 0.05316 0.2119 0.33448 0.0
C666 C 0.06782 0.18225 0.31522 0.0
C667 C 0.10353 0.20059 0.27349 0.0
H668 H 0.1122 0.14018 0.26854 0.0
C669 C 0.12513 0.13174 0.20769 0.0
C670 C 0.11312 0.14045 0.19113 0.0
C671 C 0.1263 0.14197 0.22725 0.0
C672 C 0.11053 0.15716 0.26979 0.0
H673 H 0.07128 0.24091 0.33258 0.0
H674 H 0.0986 0.22622 0.30969 0.0
H675 H 0.09996 0.15486 0.30177 0.0
H676 H 0.09354 0.16703 0.18188 0.0
H677 H 0.09481 0.18428 0.21593 0.0
H678 H 0.11418 0.2029 0.24156 0.0
C679 C 0.08583 0.21605 0.3148 0.0
C680 C 0.10317 0.16556 0.2888 0.0
C681 C 0.07021 0.22447 0.32791 0.0
C682 C 0.10293 0.15988 0.19429 0.0
C683 C 0.1039 0.16994 0.21382 0.0
C684 C 0.11133 0.19225 0.25465 0.0
C685 C 0.08443 0.19501 0.3077 0.0
C686 C 0.09819 0.18716 0.29037 0.0
C687 C 0.11533 0.16098 0.23067 0.0
C688 C 0.11349 0.1703 0.25212 0.0
H689 H 0.03949 0.18053 0.33353 0.0
H690 H 0.06588 0.16611 0.30986 0.0
H691 H 0.10008 0.21733 0.27403 0.0
H692 H 0.13345 0.11693 0.20562 0.0
H693 H 0.13545 0.13477 0.23979 0.0
C694 C 0.02008 0.79342 0.57548 0.0
C695 C 0.02395 0.77156 0.57584 0.0
C696 C 0.02938 0.80613 0.56003 0.0
C697 C 0.07375 0.80807 0.52293 0.0
H698 H 0.03796 0.84496 0.48948 0.0
C699 C 0.07567 0.84415 0.4351 0.0
C700 C 0.09657 0.85166 0.43439 0.0
C701 C 0.06641 0.83879 0.45439 0.0
C702 C 0.04814 0.83483 0.49881 0.0
H703 H 0.04071 0.74584 0.56063 0.0
H704 H 0.05707 0.76807 0.53372 0.0
H705 H 0.02307 0.82617 0.51984 0.0
H706 H 0.12358 0.86086 0.45357 0.0
H707 H 0.10736 0.85143 0.48713 0.0
H708 H 0.09863 0.81604 0.50157 0.0
C709 C 0.04692 0.77538 0.54541 0.0
C710 C 0.03968 0.82422 0.51621 0.0
C711 C 0.03747 0.76265 0.5607 0.0
C712 C 0.10754 0.85485 0.45348 0.0
C713 C 0.0983 0.84944 0.47273 0.0
C714 C 0.08224 0.81878 0.50567 0.0
C715 C 0.04288 0.7972 0.54488 0.0
C716 C 0.05231 0.81035 0.52808 0.0
C717 C 0.07787 0.84081 0.4733 0.0
C718 C 0.0694 0.83189 0.49316 0.0
H719 H 0.0097 0.80067 0.587 0.0
H720 H 0.0261 0.82293 0.55998 0.0
H721 H 0.08385 0.79762 0.53199 0.0
H722 H 0.06671 0.84163 0.42072 0.0
H723 H 0.05067 0.83203 0.45436 0.0
C724 C 0.43522 0.75644 0.81465 0.0
C725 C 0.43986 0.76603 0.83411 0.0
C726 C 0.41894 0.76423 0.80201 0.0
C727 C 0.3948 0.81478 0.79084 0.0
H728 H 0.36394 0.78175 0.74942 0.0
C729 C 0.36474 0.85313 0.71463 0.0
C730 C 0.37192 0.84227 0.69661 0.0
C731 C 0.36483 0.84325 0.7344 0.0
C732 C 0.37229 0.79121 0.76101 0.0
H733 H 0.4301 0.79013 0.85645 0.0
H734 H 0.40158 0.80377 0.83431 0.0
H735 H 0.37906 0.76429 0.78036 0.0
H736 H 0.38346 0.81208 0.68502 0.0
H737 H 0.38399 0.79515 0.71932 0.0
H738 H 0.38931 0.84143 0.77092 0.0
C739 C 0.4107 0.79041 0.82873 0.0
C740 C 0.38092 0.78122 0.77869 0.0
C741 C 0.42701 0.7826 0.84138 0.0
C742 C 0.37808 0.82103 0.69859 0.0
C743 C 0.37809 0.81118 0.71827 0.0
C744 C 0.3862 0.82474 0.77317 0.0
C745 C 0.40698 0.78177 0.8086 0.0
C746 C 0.39316 0.79276 0.79322 0.0
C747 C 0.37195 0.82232 0.73647 0.0
C748 C 0.37579 0.81287 0.75754 0.0
H749 H 0.4448 0.74355 0.80872 0.0
H750 H 0.41666 0.75736 0.78649 0.0
H751 H 0.40426 0.82412 0.80165 0.0
H752 H 0.35968 0.86944 0.71361 0.0
H753 H 0.35988 0.85217 0.74816 0.0
C754 C 0.46057 0.17612 0.08367 0.0
C755 C 0.47669 0.19081 0.07952 0.0
C756 C 0.45259 0.16348 0.06741 0.0
C757 C 0.46009 0.1482 0.01104 0.0
H758 H 0.39971 0.15811 0.00757 0.0
C759 C 0.41682 0.15751 0.93232 0.0
C760 C 0.396 0.15004 0.93024 0.0
C761 C 0.4272 0.15646 0.95173 0.0
C762 C 0.41646 0.1547 0.00841 0.0
H763 H 0.49852 0.20241 0.05581 0.0
H764 H 0.48449 0.18063 0.02743 0.0
H765 H 0.41818 0.16508 0.04046 0.0
H766 H 0.36993 0.13517 0.94692 0.0
H767 H 0.38813 0.13335 0.98081 0.0
H768 H 0.45843 0.13875 0.97859 0.0
C769 C 0.47802 0.17871 0.04316 0.0
C770 C 0.42707 0.15864 0.02732 0.0
C771 C 0.48595 0.19135 0.05938 0.0
C772 C 0.38586 0.14134 0.94802 0.0
C773 C 0.3963 0.14022 0.96743 0.0
C774 C 0.44946 0.14421 0.99211 0.0
C775 C 0.46067 0.16532 0.0468 0.0
C776 C 0.44911 0.15624 0.02858 0.0
C777 C 0.41706 0.14783 0.96951 0.0
C778 C 0.42768 0.14824 0.99038 0.0
H779 H 0.4533 0.17524 0.09914 0.0
H780 H 0.4394 0.15308 0.0707 0.0
H781 H 0.47705 0.14592 0.01168 0.0
H782 H 0.42512 0.16427 0.91896 0.0
H783 H 0.44304 0.16287 0.95291 0.0
C784 C 0.0618 0.78929 0.15071 0.0
C785 C 0.05045 0.77165 0.15799 0.0
C786 C 0.07822 0.79775 0.1628 0.0
C787 C 0.11155 0.78852 0.21041 0.0
H788 H 0.09982 0.84757 0.22183 0.0
C789 C 0.11647 0.82433 0.29221 0.0
C790 C 0.12148 0.84578 0.29506 0.0
C791 C 0.11591 0.81555 0.27204 0.0
C792 C 0.10385 0.83127 0.21851 0.0
H793 H 0.04826 0.7481 0.18276 0.0
H794 H 0.07664 0.763 0.20402 0.0
H795 H 0.08413 0.83075 0.19114 0.0
H796 H 0.13102 0.87455 0.27898 0.0
H797 H 0.12982 0.85913 0.24356 0.0
H798 H 0.13025 0.78881 0.23862 0.0
C799 C 0.07308 0.77022 0.18891 0.0
C800 C 0.09483 0.82159 0.20087 0.0
C801 C 0.05665 0.7618 0.17685 0.0
C802 C 0.12689 0.85802 0.27731 0.0
C803 C 0.12624 0.84921 0.25704 0.0
C804 C 0.12062 0.79822 0.22805 0.0
C805 C 0.0836 0.78866 0.18233 0.0
C806 C 0.0977 0.79986 0.19729 0.0
C807 C 0.12032 0.82799 0.25419 0.0
C808 C 0.11592 0.81939 0.23286 0.0
H809 H 0.05748 0.79706 0.13607 0.0
H810 H 0.08619 0.81186 0.15727 0.0
H811 H 0.11436 0.77184 0.20776 0.0
H812 H 0.11245 0.81435 0.30553 0.0
H813 H 0.11095 0.79924 0.27039 0.0
C814 C 0.45341 0.79223 0.42008 0.0
C815 C 0.47456 0.79275 0.41354 0.0
C816 C 0.44614 0.80632 0.43534 0.0
C817 C 0.46552 0.83752 0.48004 0.0
H818 H 0.40648 0.8537 0.48218 0.0
C819 C 0.39729 0.87069 0.54173 0.0
C820 C 0.40314 0.85835 0.55924 0.0
C821 C 0.40855 0.86928 0.52279 0.0
C822 C 0.42314 0.84983 0.48177 0.0
H823 H 0.50455 0.80899 0.41702 0.0
H824 H 0.49174 0.83395 0.44361 0.0
H825 H 0.42117 0.84013 0.44948 0.0
H826 H 0.42583 0.83545 0.5709 0.0
H827 H 0.44483 0.83231 0.53782 0.0
H828 H 0.46749 0.84725 0.51235 0.0
C829 C 0.48086 0.82239 0.43719 0.0
C830 C 0.43149 0.84174 0.46305 0.0
C831 C 0.48818 0.80814 0.42196 0.0
C832 C 0.4209 0.84516 0.55769 0.0
C833 C 0.43197 0.84355 0.53872 0.0
C834 C 0.45724 0.8459 0.49869 0.0
C835 C 0.45982 0.8214 0.44429 0.0
C836 C 0.45247 0.83448 0.46231 0.0
C837 C 0.42572 0.8553 0.52092 0.0
C838 C 0.43569 0.85115 0.50008 0.0
H839 H 0.44255 0.78053 0.41385 0.0
H840 H 0.42997 0.80476 0.44072 0.0
H841 H 0.48176 0.83215 0.48005 0.0
H842 H 0.38387 0.88129 0.54256 0.0
H843 H 0.40353 0.87883 0.50951 0.0
C844 C 0.43483 0.21095 0.64417 0.0
C845 C 0.44713 0.2277 0.65204 0.0
C846 C 0.41836 0.20261 0.65626 0.0
C847 C 0.38652 0.21102 0.70484 0.0
H848 H 0.3983 0.15179 0.71525 0.0
C849 C 0.38516 0.17542 0.78647 0.0
C850 C 0.37942 0.15422 0.78976 0.0
C851 C 0.38526 0.18393 0.76621 0.0
C852 C 0.39424 0.16814 0.71221 0.0
H853 H 0.45092 0.24997 0.67782 0.0
H854 H 0.42233 0.23539 0.69896 0.0
H855 H 0.41288 0.16881 0.6841 0.0
H856 H 0.36855 0.12553 0.77435 0.0
H857 H 0.36909 0.14047 0.73868 0.0
H858 H 0.369 0.21061 0.73375 0.0
C859 C 0.42525 0.22872 0.68346 0.0
C860 C 0.40261 0.17791 0.69432 0.0
C861 C 0.44179 0.23694 0.67147 0.0
C862 C 0.37322 0.14187 0.77232 0.0
C863 C 0.37346 0.15041 0.75193 0.0
C864 C 0.37809 0.20122 0.72269 0.0
C865 C 0.41383 0.21104 0.67629 0.0
C866 C 0.39982 0.19971 0.69115 0.0
C867 C 0.37969 0.17148 0.74869 0.0
C868 C 0.38294 0.18001 0.72716 0.0
H869 H 0.43853 0.20365 0.62913 0.0
H870 H 0.40973 0.18904 0.65035 0.0
H871 H 0.38383 0.22777 0.70252 0.0
H872 H 0.38982 0.18548 0.79952 0.0
H873 H 0.39057 0.20009 0.76422 0.0
C874 C 0.0191 0.18239 0.90846 0.0
C875 C 0.02516 0.20367 0.90641 0.0
C876 C 0.02817 0.16973 0.92412 0.0
C877 C 0.04876 0.17684 0.97667 0.0
H878 H 0.06867 0.11895 0.97342 0.0
C879 C 0.0672 0.13214 0.05182 0.0
C880 C 0.08787 0.1241 0.05267 0.0
C881 C 0.0582 0.13767 0.03251 0.0
C882 C 0.06306 0.13509 0.97447 0.0
H883 H 0.04664 0.22789 0.91774 0.0
H884 H 0.06243 0.20581 0.94502 0.0
H885 H 0.0577 0.13741 0.94099 0.0
H886 H 0.1146 0.11378 0.03377 0.0
H887 H 0.09888 0.12381 -0.0 0.0
H888 H 0.05414 0.17486 0.00987 0.0
C889 C 0.05049 0.19902 0.93476 0.0
C890 C 0.0568 0.14558 0.95602 0.0
C891 C 0.04148 0.21162 0.91915 0.0
C892 C 0.0987 0.12013 0.03367 0.0
C893 C 0.08968 0.12573 0.0143 0.0
C894 C 0.05476 0.16637 0.995 0.0
C895 C 0.04334 0.17825 0.9379 0.0
C896 C 0.04987 0.16664 0.95701 0.0
C897 C 0.06969 0.13532 0.01369 0.0
C898 C 0.06206 0.14545 0.9941 0.0
H899 H 0.00661 0.17585 0.89872 0.0
H900 H 0.02241 0.15375 0.92629 0.0
H901 H 0.04315 0.19298 0.97789 0.0
H902 H 0.05824 0.135 0.06613 0.0
H903 H 0.04258 0.14469 0.03238 0.0
C904 C 0.3128 0.01491 0.22386 0.0
C905 C 0.33148 0.02528 0.22982 0.0
C906 C 0.29723 0.02564 0.21264 0.0
C907 C 0.2733 0.07586 0.20336 0.0
H908 H 0.25327 0.04996 0.15142 0.0
C909 C 0.20548 0.0876 0.13446 0.0
C910 C 0.1874 0.08824 0.14736 0.0
C911 C 0.22537 0.084 0.14333 0.0
C912 C 0.25891 0.05759 0.16569 0.0
H913 H 0.34837 0.05512 0.22936 0.0
H914 H 0.32054 0.0742 0.21012 0.0
H915 H 0.28406 0.0353 0.16948 0.0
H916 H 0.17615 0.08679 0.17975 0.0
H917 H 0.21088 0.08054 0.19515 0.0
H918 H 0.24743 0.09751 0.20011 0.0
C919 C 0.31826 0.05767 0.21395 0.0
C920 C 0.27639 0.04913 0.17606 0.0
C921 C 0.33408 0.04678 0.22489 0.0
C922 C 0.18974 0.08613 0.16936 0.0
C923 C 0.20964 0.08281 0.17822 0.0
C924 C 0.25558 0.08417 0.19313 0.0
C925 C 0.2999 0.04703 0.20746 0.0
C926 C 0.28339 0.05789 0.1952 0.0
C927 C 0.22756 0.0813 0.16525 0.0
C928 C 0.24799 0.07479 0.17445 0.0
H929 H 0.31041 -0.00167 0.22743 0.0
H930 H 0.28305 0.01723 0.20798 0.0
H931 H 0.27847 0.08279 0.21815 0.0
H932 H 0.20421 0.08926 0.11747 0.0
H933 H 0.239 0.08295 0.13303 0.0
C934 C 0.19057 0.06966 0.49056 0.0
C935 C 0.19881 0.08327 0.47512 0.0
C936 C 0.17581 0.05424 0.48502 0.0
C937 C 0.16493 0.01289 0.4646 0.0
H938 H 0.12554 0.01533 0.41768 0.0
C939 C 0.14148 0.95691 0.39153 0.0
C940 C 0.14043 0.93735 0.40197 0.0
C941 C 0.14168 0.97571 0.40309 0.0
C942 C 0.13644 0.01443 0.43087 0.0
H943 H 0.19684 0.09277 0.44225 0.0
H944 H 0.17168 0.06542 0.43239 0.0
H945 H 0.13757 0.0481 0.43432 0.0
H946 H 0.13711 0.9222 0.43258 0.0
H947 H 0.13717 0.95497 0.45267 0.0
H948 H 0.16483 0.97949 0.46056 0.0
C949 C 0.17625 0.06677 0.44884 0.0
C950 C 0.14327 0.03316 0.44041 0.0
C951 C 0.19085 0.08233 0.45443 0.0
C952 C 0.13843 0.937 0.42409 0.0
C953 C 0.1384 0.95578 0.43561 0.0
C954 C 0.15813 0.99426 0.45511 0.0
C955 C 0.16925 0.05201 0.4639 0.0
C956 C 0.1582 0.03258 0.45687 0.0
C957 C 0.14062 0.9753 0.4253 0.0
C958 C 0.14441 0.99484 0.43765 0.0
H959 H 0.19618 0.07033 0.50673 0.0
H960 H 0.17037 0.04335 0.49706 0.0
H961 H 0.17669 0.01183 0.47701 0.0
H962 H 0.14291 0.95769 0.37448 0.0
H963 H 0.14369 0.99047 0.39467 0.0
C964 C 0.16995 0.93074 0.73575 0.0
C965 C 0.15128 0.93812 0.72637 0.0
C966 C 0.18309 0.91683 0.72484 0.0
C967 C 0.19841 0.90566 0.67093 0.0
H968 H 0.2348 0.86474 0.69841 0.0
C969 C 0.27612 0.87765 0.63276 0.0
C970 C 0.29347 0.88077 0.64634 0.0
C971 C 0.25551 0.87805 0.64072 0.0
C972 C 0.22462 0.87596 0.69045 0.0
H973 H 0.13097 0.93582 0.69881 0.0
H974 H 0.1541 0.91156 0.67964 0.0
H975 H 0.20297 0.87707 0.71641 0.0
H976 H 0.30285 0.88569 0.679 0.0
H977 H 0.26707 0.88651 0.69275 0.0
H978 H 0.22067 0.90549 0.64551 0.0
C979 C 0.15859 0.91663 0.69537 0.0
C980 C 0.20645 0.88301 0.70073 0.0
C981 C 0.14538 0.93048 0.70635 0.0
C982 C 0.28984 0.88346 0.66807 0.0
C983 C 0.26933 0.88364 0.67601 0.0
C984 C 0.21658 0.89858 0.66063 0.0
C985 C 0.17784 0.9101 0.7043 0.0
C986 C 0.19374 0.89869 0.6915 0.0
C987 C 0.25194 0.88127 0.6624 0.0
C988 C 0.23036 0.88446 0.67076 0.0
H989 H 0.17482 0.93631 0.7512 0.0
H990 H 0.19795 0.91233 0.73205 0.0
H991 H 0.18901 0.91785 0.66344 0.0
H992 H 0.27842 0.87544 0.61594 0.0
H993 H 0.24236 0.87618 0.6299 0.0
C994 C 0.29436 0.94243 0.9939 0.0
C995 C 0.29096 0.92588 0.97951 0.0
C996 C 0.30749 0.95931 0.98852 0.0
C997 C 0.31798 -0.00089 0.96465 0.0
H998 H 0.36649 0.9955 0.92737 0.0
C999 C 0.35333 0.04951 0.89208 0.0
C1000 C 0.3513 0.06999 0.90038 0.0
C1001 C 0.3514 0.03193 0.90526 0.0
C1002 C 0.353 -0.00327 0.93782 0.0
H1003 H 0.29963 0.9132 0.94886 0.0
H1004 H 0.32206 0.94285 0.93923 0.0
H1005 H 0.35377 0.96374 0.94533 0.0
H1006 H 0.34722 0.08817 0.92924 0.0
H1007 H 0.34408 0.05753 0.95219 0.0
H1008 H 0.31647 0.03174 0.95649 0.0
C1009 C 0.3149 0.94274 0.95478 0.0
C1010 C 0.34575 0.9786 0.94811 0.0
C1011 C 0.30185 0.92585 0.96019 0.0
C1012 C 0.34838 0.07257 0.92227 0.0
C1013 C 0.34664 0.05504 0.93544 0.0
C1014 C 0.32521 0.01717 0.9544 0.0
C1015 C 0.31736 0.95995 0.96862 0.0
C1016 C 0.32774 0.9795 0.96108 0.0
C1017 C 0.34758 0.03453 0.92701 0.0
C1018 C 0.34236 0.01606 0.94037 0.0
H1019 H 0.28635 0.94268 0.00903 0.0
H1020 H 0.30934 0.97222 -0.00038 0.0
H1021 H 0.30387 0.00031 0.97426 0.0
H1022 H 0.3557 0.04704 0.8753 0.0
H1023 H 0.35196 0.01632 0.89825 0.0
C1024 C 0.34716 0.93753 0.30633 0.0
C1025 C 0.35474 0.93648 0.28553 0.0
C1026 C 0.33276 0.92254 0.31364 0.0
C1027 C 0.30344 0.8855 0.3253 0.0
H1028 H 0.25475 0.89555 0.28948 0.0
C1029 C 0.20579 0.87697 0.32363 0.0
C1030 C 0.20219 0.88158 0.34501 0.0
C1031 C 0.22636 0.87641 0.31567 0.0
C1032 C 0.26813 0.89186 0.29948 0.0
H1033 H 0.35479 0.91807 0.2566 0.0
H1034 H 0.3289 0.89222 0.2692 0.0
H1035 H 0.28958 0.90532 0.27716 0.0
H1036 H 0.21706 0.88893 0.37497 0.0
H1037 H 0.25277 0.88947 0.36094 0.0
H1038 H 0.28203 0.87224 0.34778 0.0
C1039 C 0.33437 0.90445 0.27989 0.0
C1040 C 0.28817 0.89754 0.29235 0.0
C1041 C 0.34913 0.91921 0.27272 0.0
C1042 C 0.21946 0.88533 0.35839 0.0
C1043 C 0.23998 0.88534 0.35035 0.0
C1044 C 0.28342 0.87933 0.33228 0.0
C1045 C 0.32546 0.90653 0.3001 0.0
C1046 C 0.30583 0.89524 0.30555 0.0
C1047 C 0.24373 0.88106 0.32881 0.0
C1048 C 0.26536 0.88339 0.31986 0.0
H1049 H 0.35137 0.95065 0.31652 0.0
H1050 H 0.32596 0.92456 0.32923 0.0
H1051 H 0.31692 0.88353 0.3357 0.0
H1052 H 0.1927 0.8736 0.31309 0.0
H1053 H 0.22856 0.87255 0.29915 0.0
C1054 C 0.31133 0.08809 0.52861 0.0
C1055 C 0.29967 0.08204 0.51069 0.0
C1056 C 0.32506 0.0738 0.5383 0.0
C1057 C 0.35098 0.02153 0.53206 0.0
H1058 H 0.33672 0.01472 0.59128 0.0
C1059 C 0.35062 0.94161 0.57331 0.0
C1060 C 0.35572 0.9401 0.59488 0.0
C1061 C 0.35037 0.96116 0.56321 0.0
C1062 C 0.34138 0.01665 0.57492 0.0
H1063 H 0.29424 0.05696 0.48797 0.0
H1064 H 0.31801 0.03195 0.50496 0.0
H1065 H 0.32501 0.04604 0.57247 0.0
H1066 H 0.36546 0.95798 0.62255 0.0
H1067 H 0.36497 0.99222 0.60483 0.0
H1068 H 0.36649 0.99157 0.53434 0.0
C1069 C 0.31672 0.04773 0.51148 0.0
C1070 C 0.33466 0.03463 0.56412 0.0
C1071 C 0.30295 0.06198 0.50185 0.0
C1072 C 0.36125 0.95858 0.60597 0.0
C1073 C 0.36099 0.9782 0.59584 0.0
C1074 C 0.35775 0.00355 0.54289 0.0
C1075 C 0.32743 0.05328 0.53015 0.0
C1076 C 0.33865 0.03682 0.54238 0.0
C1077 C 0.35526 0.9797 0.57443 0.0
C1078 C 0.35223 0.00053 0.5642 0.0
H1079 H 0.30922 0.10356 0.53565 0.0
H1080 H 0.33328 0.07855 0.55257 0.0
H1081 H 0.35457 0.02301 0.51538 0.0
H1082 H 0.3464 0.92771 0.56421 0.0
H1083 H 0.34552 0.9618 0.5468 0.0
C1084 C 0.14959 0.05259 0.78481 0.0
C1085 C 0.15502 0.03888 0.7682 0.0
C1086 C 0.16366 0.06828 0.7914 0.0
C1087 C 0.20322 0.08534 0.81237 0.0
H1088 H 0.2419 0.11425 0.77466 0.0
C1089 C 0.29451 0.11058 0.81383 0.0
C1090 C 0.29616 0.11981 0.83398 0.0
C1091 C 0.27477 0.107 0.80471 0.0
C1092 C 0.23114 0.10637 0.78539 0.0
H1093 H 0.17887 0.03147 0.74476 0.0
H1094 H 0.20356 0.05858 0.75644 0.0
H1095 H 0.21094 0.09629 0.76015 0.0
H1096 H 0.27834 0.13364 0.85983 0.0
H1097 H 0.24376 0.12727 0.84384 0.0
H1098 H 0.22387 0.09451 0.83749 0.0
C1099 C 0.18836 0.05745 0.76423 0.0
C1100 C 0.21345 0.09609 0.77709 0.0
C1101 C 0.1743 0.04178 0.75765 0.0
C1102 C 0.27762 0.12634 0.84436 0.0
C1103 C 0.25782 0.12267 0.83524 0.0
C1104 C 0.22089 0.09562 0.82066 0.0
C1105 C 0.18341 0.07055 0.78151 0.0
C1106 C 0.19973 0.08482 0.79043 0.0
C1107 C 0.2562 0.11254 0.81552 0.0
C1108 C 0.23544 0.10557 0.80718 0.0
H1109 H 0.13473 0.05081 0.79312 0.0
H1110 H 0.15931 0.07829 0.8046 0.0
H1111 H 0.19309 0.07663 0.82307 0.0
H1112 H 0.30845 0.10552 0.80528 0.0
H1113 H 0.27408 0.09892 0.78963 0.0
C1114 C 0.1829 0.92536 0.0043 0.0
C1115 C 0.19043 0.90649 0.01314 0.0
C1116 C 0.16595 0.93595 0.01355 0.0
C1117 C 0.14525 0.94425 0.06592 0.0
H1118 H 0.10758 0.9821 0.0359 0.0
C1119 C 0.11506 0.01901 0.10611 0.0
C1120 C 0.12025 0.03699 0.09412 0.0
C1121 C 0.11462 -0.00096 0.09666 0.0
C1122 C 0.1178 0.97145 0.04456 0.0
H1123 H 0.18521 0.88297 0.03753 0.0
H1124 H 0.1556 0.90161 0.05382 0.0
H1125 H 0.12373 0.95246 0.01717 0.0
H1126 H 0.12739 0.0483 0.06251 0.0
H1127 H 0.12705 0.01368 0.04625 0.0
H1128 H 0.1407 0.96403 0.09285 0.0
C1129 C 0.16291 0.90828 0.03985 0.0
C1130 C 0.12702 0.95451 0.03385 0.0
C1131 C 0.17986 0.89766 0.03055 0.0
C1132 C 0.12364 0.03476 0.07229 0.0
C1133 C 0.12312 0.01489 0.06287 0.0
C1134 C 0.13608 0.96119 0.0766 0.0
C1135 C 0.15623 0.92786 0.03184 0.0
C1136 C 0.14176 0.94149 0.04415 0.0
C1137 C 0.11921 -0.00326 0.07504 0.0
C1138 C 0.12326 0.97566 0.0657 0.0
H1139 H 0.19066 0.93242 0.99078 0.0
H1140 H 0.16138 0.95115 0.00716 0.0
H1141 H 0.1566 0.93456 0.0743 0.0
H1142 H 0.11213 0.02023 0.12294 0.0
H1143 H 0.11143 0.98532 0.10639 0.0
C1144 C 0.22878 0.31643 0.04631 0.0
C1145 C 0.21982 0.32045 0.02638 0.0
C1146 C 0.22109 0.29998 0.05886 0.0
C1147 C 0.17425 0.26649 0.06657 0.0
H1148 H 0.21343 0.22638 0.09135 0.0
C1149 C 0.17185 0.17515 0.09288 0.0
C1150 C 0.15258 0.1748 0.10394 0.0
C1151 C 0.18151 0.19434 0.0879 0.0
C1152 C 0.20233 0.23753 0.08461 0.0
H1153 H 0.19588 0.31055 0.00391 0.0
H1154 H 0.18251 0.28181 0.02576 0.0
H1155 H 0.22703 0.25759 0.07305 0.0
H1156 H 0.12921 0.19431 0.11982 0.0
H1157 H 0.14616 0.22773 0.11115 0.0
H1158 H 0.14958 0.24612 0.07725 0.0
C1159 C 0.19531 0.29148 0.03179 0.0
C1160 C 0.21009 0.25544 0.0743 0.0
C1161 C 0.20305 0.30782 0.01922 0.0
C1162 C 0.14388 0.19399 0.11102 0.0
C1163 C 0.15356 0.21316 0.10603 0.0
C1164 C 0.1665 0.24868 0.07692 0.0
C1165 C 0.20422 0.28742 0.05173 0.0
C1166 C 0.19611 0.26979 0.06473 0.0
C1167 C 0.17213 0.21355 0.09391 0.0
C1168 C 0.18046 0.23377 0.08562 0.0
H1169 H 0.24172 0.32597 0.05221 0.0
H1170 H 0.22816 0.29723 0.07421 0.0
H1171 H 0.16313 0.27747 0.05957 0.0
H1172 H 0.17906 0.16067 0.08731 0.0
H1173 H 0.19573 0.19414 0.07839 0.0
C1174 C 0.69708 0.17426 0.94617 0.0
C1175 C 0.71469 0.16183 0.94107 0.0
C1176 C 0.68751 0.18676 0.93081 0.0
C1177 C 0.70013 0.21643 0.88395 0.0
H1178 H 0.63967 0.22638 0.88462 0.0
C1179 C 0.63251 0.28261 0.8602 0.0
C1180 C 0.64284 0.30019 0.86909 0.0
C1181 C 0.64202 0.2627 0.86054 0.0
C1182 C 0.65653 0.22355 0.88369 0.0
H1183 H 0.73585 0.15222 0.91588 0.0
H1184 H 0.71923 0.1746 0.88895 0.0
H1185 H 0.65393 0.19505 0.90166 0.0
H1186 H 0.67203 0.31095 0.88363 0.0
H1187 H 0.68833 0.27632 0.88465 0.0
H1188 H 0.7028 0.24549 0.86683 0.0
C1189 C 0.71283 0.17449 0.90483 0.0
C1190 C 0.66469 0.2057 0.89365 0.0
C1191 C 0.7223 0.16174 0.9202 0.0
C1192 C 0.6635 0.29772 0.87688 0.0
C1193 C 0.67297 0.27785 0.87722 0.0
C1194 C 0.69195 0.23432 0.87395 0.0
C1195 C 0.69543 0.18722 0.91007 0.0
C1196 C 0.68662 0.20259 0.89484 0.0
C1197 C 0.66204 0.26 0.86975 0.0
C1198 C 0.67017 0.23861 0.87471 0.0
H1199 H 0.69084 0.17455 0.96211 0.0
H1200 H 0.67437 0.19672 0.93542 0.0
H1201 H 0.71711 0.21438 0.88458 0.0
H1202 H 0.6167 0.284 0.85375 0.0
H1203 H 0.63333 0.24926 0.85442 0.0
C1204 C 0.09669 0.47263 0.16671 0.0
C1205 C 0.10099 0.4616 0.18549 0.0
C1206 C 0.08184 0.46474 0.15236 0.0
C1207 C 0.03628 0.45511 0.14098 0.0
H1208 H 0.02339 0.39569 0.1335 0.0
C1209 C 0.95222 0.42257 0.14453 0.0
C1210 C 0.94683 0.4046 0.13266 0.0
C1211 C 0.97279 0.43054 0.14398 0.0
C1212 C 0.02683 0.41239 0.13497 0.0
H1213 H 0.09502 0.43278 0.20299 0.0
H1214 H 0.06919 0.41908 0.17816 0.0
H1215 H 0.05904 0.40632 0.14327 0.0
H1216 H 0.95851 0.38167 0.1099 0.0
H1217 H 0.99428 0.39569 0.10888 0.0
H1218 H 0.00389 0.46114 0.13338 0.0
C1219 C 0.07715 0.43375 0.17435 0.0
C1220 C 0.04724 0.41845 0.14071 0.0
C1221 C 0.09183 0.44168 0.18871 0.0
C1222 C 0.96222 0.39532 0.11955 0.0
C1223 C 0.98273 0.40336 0.11892 0.0
C1224 C 0.01588 0.44906 0.13517 0.0
C1225 C 0.07127 0.44565 0.15653 0.0
C1226 C 0.05189 0.43977 0.14477 0.0
C1227 C 0.98835 0.42079 0.13144 0.0
C1228 C 0.01072 0.42757 0.13308 0.0
H1229 H 0.10365 0.488 0.16381 0.0
H1230 H 0.07778 0.47411 0.13862 0.0
H1231 H 0.03932 0.47168 0.14407 0.0
H1232 H 0.94073 0.43012 0.15473 0.0
H1233 H 0.97669 0.44381 0.15408 0.0
C1234 C 0.77601 0.83125 0.41739 0.0
C1235 C 0.78297 0.83596 0.43794 0.0
C1236 C 0.78668 0.81625 0.4052 0.0
C1237 C 0.83488 0.78227 0.40371 0.0
H1238 H 0.79567 0.73988 0.38309 0.0
C1239 C 0.83009 0.68708 0.39751 0.0
C1240 C 0.84991 0.68215 0.38883 0.0
C1241 C 0.82295 0.7079 0.39789 0.0
C1242 C 0.80684 0.75161 0.38868 0.0
H1243 H 0.80737 0.83003 0.46128 0.0
H1244 H 0.82566 0.80365 0.44035 0.0
H1245 H 0.78249 0.7744 0.39349 0.0
H1246 H 0.87758 0.69525 0.37327 0.0
H1247 H 0.86499 0.73165 0.37391 0.0
H1248 H 0.85898 0.75884 0.40042 0.0
C1249 C 0.81218 0.8116 0.43341 0.0
C1250 C 0.79934 0.77152 0.39435 0.0
C1251 C 0.80157 0.82659 0.44553 0.0
C1252 C 0.86231 0.69852 0.38027 0.0
C1253 C 0.85512 0.71937 0.38061 0.0
C1254 C 0.84237 0.76228 0.39815 0.0
C1255 C 0.80445 0.80573 0.4134 0.0
C1256 C 0.81315 0.78677 0.40276 0.0
C1257 C 0.8354 0.72428 0.38951 0.0
C1258 C 0.82826 0.74648 0.39143 0.0
H1259 H 0.76181 0.83844 0.41108 0.0
H1260 H 0.78053 0.81228 0.38971 0.0
H1261 H 0.84596 0.79383 0.4098 0.0
H1262 H 0.82013 0.6749 0.40425 0.0
H1263 H 0.80787 0.71121 0.40528 0.0
C1264 C 0.90581 0.04549 0.20927 0.0
C1265 C 0.89455 0.02752 0.20279 0.0
C1266 C 0.9202 0.0551 0.19567 0.0
C1267 C 0.95596 0.03988 0.15377 0.0
H1268 H 0.9708 0.0993 0.1561 0.0
C1269 C 0.02882 0.10049 0.13079 0.0
C1270 C 0.04565 0.08845 0.13895 0.0
C1271 C 0.00799 0.09353 0.13289 0.0
C1272 C 0.96671 0.08272 0.15487 0.0
H1273 H 0.88827 0.00635 0.17655 0.0
H1274 H 0.9136 0.02318 0.15267 0.0
H1275 H 0.93647 0.08773 0.16913 0.0
H1276 H 0.05373 0.05932 0.15518 0.0
H1277 H 0.01745 0.04743 0.15917 0.0
H1278 H 0.98644 0.03479 0.14007 0.0
C1279 C 0.91139 0.0297 0.16835 0.0
C1280 C 0.94712 0.07609 0.16249 0.0
C1281 C 0.89687 0.02013 0.18197 0.0
C1282 C 0.04119 0.06903 0.14876 0.0
C1283 C 0.02037 0.0621 0.15085 0.0
C1284 C 0.97554 0.04652 0.14612 0.0
C1285 C 0.92366 0.04688 0.17532 0.0
C1286 C 0.94191 0.0545 0.16282 0.0
C1287 C 0.00354 0.07437 0.14315 0.0
C1288 C 0.98145 0.06789 0.14739 0.0
H1289 H 0.90423 0.05159 0.2252 0.0
H1290 H 0.92956 0.06815 0.20162 0.0
H1291 H 0.95248 0.02312 0.15389 0.0
H1292 H 0.03168 0.11544 0.12295 0.0
H1293 H 0.99535 0.10323 0.12664 0.0
C1294 C 0.26693 0.65586 0.56459 0.0
C1295 C 0.27741 0.65184 0.54544 0.0
C1296 C 0.2754 0.67016 0.57913 0.0
C1297 C 0.28726 0.71398 0.59448 0.0
H1298 H 0.34746 0.72365 0.60066 0.0
C1299 C 0.32297 0.79633 0.59925 0.0
C1300 C 0.3414 0.79984 0.61113 0.0
C1301 C 0.31435 0.77611 0.59775 0.0
C1302 C 0.33058 0.72102 0.59956 0.0
H1303 H 0.30549 0.6585 0.52698 0.0
H1304 H 0.32008 0.68366 0.55207 0.0
H1305 H 0.33491 0.68992 0.58701 0.0
H1306 H 0.36467 0.785 0.63159 0.0
H1307 H 0.34953 0.7497 0.62893 0.0
H1308 H 0.28295 0.74529 0.60646 0.0
C1309 C 0.30548 0.67566 0.55608 0.0
C1310 C 0.32342 0.70177 0.59155 0.0
C1311 C 0.29702 0.66141 0.54157 0.0
C1312 C 0.3506 0.78281 0.62207 0.0
C1313 C 0.34194 0.76258 0.62059 0.0
C1314 C 0.29442 0.73319 0.60257 0.0
C1315 C 0.2945 0.68059 0.57476 0.0
C1316 C 0.30175 0.69846 0.588 0.0
C1317 C 0.32391 0.75897 0.60816 0.0
C1318 C 0.31618 0.73725 0.60424 0.0
H1319 H 0.25185 0.64851 0.56803 0.0
H1320 H 0.2667 0.67353 0.59349 0.0
H1321 H 0.27046 0.71194 0.59191 0.0
H1322 H 0.31543 0.80908 0.59068 0.0
H1323 H 0.30066 0.77379 0.58773 0.0
C1324 C 0.08159 0.50999 0.29891 0.0
C1325 C 0.07863 0.50945 0.27691 0.0
C1326 C 0.06457 0.51428 0.31233 0.0
C1327 C 0.00585 0.5165 0.31275 0.0
H1328 H 0.01389 0.55594 0.35896 0.0
C1329 C 0.95465 0.58339 0.35744 0.0
C1330 C 0.93497 0.57317 0.35785 0.0
C1331 C 0.97296 0.57211 0.35265 0.0
C1332 C 0.01137 0.54491 0.34611 0.0
H1333 H 0.05578 0.51314 0.25162 0.0
H1334 H 0.02638 0.52127 0.27482 0.0
H1335 H 0.04445 0.54307 0.33947 0.0
H1336 H 0.91916 0.54285 0.35543 0.0
H1337 H 0.95124 0.52296 0.34783 0.0
H1338 H 0.97279 0.51954 0.31812 0.0
C1339 C 0.04158 0.51778 0.28188 0.0
C1340 C 0.02893 0.53731 0.33511 0.0
C1341 C 0.05849 0.51335 0.26854 0.0
C1342 C 0.9341 0.5512 0.35482 0.0
C1343 C 0.95248 0.53983 0.35041 0.0
C1344 C 0.98832 0.5243 0.32352 0.0
C1345 C 0.04436 0.5182 0.30394 0.0
C1346 C 0.02628 0.5236 0.31782 0.0
C1347 C 0.97202 0.55028 0.34852 0.0
C1348 C 0.9908 0.53915 0.33988 0.0
H1349 H 0.09698 0.50691 0.30576 0.0
H1350 H 0.0672 0.51436 0.32925 0.0
H1351 H 0.00331 0.50551 0.29986 0.0
H1352 H 0.95581 0.60033 0.35971 0.0
H1353 H 0.98761 0.58081 0.35106 0.0
C1354 C 0.39081 0.45502 0.81813 0.0
C1355 C 0.3986 0.47308 0.80782 0.0
C1356 C 0.40289 0.44503 0.83368 0.0
C1357 C 0.45126 0.45043 0.86663 0.0
H1358 H 0.46244 0.39305 0.84829 0.0
C1359 C 0.53337 0.41612 0.86302 0.0
C1360 C 0.5369 0.39434 0.86544 0.0
C1361 C 0.51306 0.42437 0.86468 0.0
C1362 C 0.4592 0.40879 0.85418 0.0
H1363 H 0.42421 0.49581 0.80669 0.0
H1364 H 0.44532 0.47838 0.83364 0.0
H1365 H 0.43103 0.4111 0.83574 0.0
H1366 H 0.52196 0.36429 0.87267 0.0
H1367 H 0.48629 0.37881 0.87533 0.0
H1368 H 0.48024 0.44853 0.88397 0.0
C1369 C 0.42989 0.47194 0.82989 0.0
C1370 C 0.44115 0.41916 0.84697 0.0
C1371 C 0.41793 0.48179 0.81426 0.0
C1372 C 0.51974 0.38112 0.87048 0.0
C1373 C 0.49933 0.38941 0.87207 0.0
C1374 C 0.46928 0.44003 0.87391 0.0
C1375 C 0.42281 0.4531 0.83929 0.0
C1376 C 0.43771 0.44048 0.85212 0.0
C1377 C 0.49575 0.41108 0.86879 0.0
C1378 C 0.47406 0.41957 0.8667 0.0
H1379 H 0.37584 0.44808 0.81355 0.0
H1380 H 0.39706 0.43056 0.84073 0.0
H1381 H 0.44873 0.46676 0.87115 0.0
H1382 H 0.54623 0.42681 0.85936 0.0
H1383 H 0.51082 0.44108 0.86167 0.0
C1384 C 0.94022 0.77875 0.65608 0.0
C1385 C 0.94963 0.7593 0.66117 0.0
C1386 C 0.92795 0.78943 0.67097 0.0
C1387 C 0.90141 0.78391 0.72292 0.0
H1388 H 0.92143 0.84114 0.73217 0.0
C1389 C 0.90221 0.82231 0.80429 0.0
C1390 C 0.89777 0.84398 0.80643 0.0
C1391 C 0.90338 0.81304 0.78436 0.0
C1392 C 0.91525 0.82538 0.72956 0.0
H1393 H 0.95255 0.73509 0.68523 0.0
H1394 H 0.93129 0.75378 0.7113 0.0
H1395 H 0.93182 0.82227 0.7003 0.0
H1396 H 0.89082 0.87284 0.7892 0.0
H1397 H 0.89307 0.8565 0.75424 0.0
H1398 H 0.8856 0.78675 0.75266 0.0
C1399 C 0.93323 0.76075 0.69579 0.0
C1400 C 0.9212 0.81456 0.71128 0.0
C1401 C 0.94556 0.75011 0.68093 0.0
C1402 C 0.8944 0.85612 0.78811 0.0
C1403 C 0.89565 0.84681 0.7681 0.0
C1404 C 0.89544 0.79475 0.74117 0.0
C1405 C 0.92481 0.78078 0.69116 0.0
C1406 C 0.91498 0.79345 0.70819 0.0
C1407 C 0.90016 0.82516 0.76607 0.0
C1408 C 0.903 0.81528 0.74504 0.0
H1409 H 0.94299 0.78612 0.64087 0.0
H1410 H 0.92147 0.80474 0.66693 0.0
H1411 H 0.8961 0.76778 0.72073 0.0
H1412 H 0.90485 0.81242 0.81799 0.0
H1413 H 0.90733 0.79641 0.78331 0.0
C1414 C 0.9627 0.1832 0.40895 0.0
C1415 C 0.98102 0.19493 0.41343 0.0
C1416 C 0.9532 0.17099 0.42468 0.0
C1417 C 0.96121 0.1481 0.47787 0.0
H1418 H 0.90228 0.16266 0.48628 0.0
C1419 C 0.92186 0.14594 0.55906 0.0
C1420 C 0.90037 0.14059 0.56076 0.0
C1421 C 0.93145 0.14747 0.5393 0.0
C1422 C 0.91857 0.15797 0.48396 0.0
H1423 H 0.0045 0.20219 0.43734 0.0
H1424 H 0.98788 0.18094 0.46482 0.0
H1425 H 0.92013 0.17371 0.45412 0.0
H1426 H 0.87228 0.13193 0.543 0.0
H1427 H 0.88915 0.13449 0.50845 0.0
H1428 H 0.95981 0.13292 0.50804 0.0
C1429 C 0.9809 0.18107 0.44918 0.0
C1430 C 0.92881 0.16431 0.4655 0.0
C1431 C 0.99031 0.19338 0.43351 0.0
C1432 C 0.88881 0.13633 0.54224 0.0
C1433 C 0.89846 0.13779 0.52244 0.0
C1434 C 0.95094 0.14164 0.49628 0.0
C1435 C 0.96198 0.17019 0.44506 0.0
C1436 C 0.95039 0.16005 0.46262 0.0
C1437 C 0.91984 0.14358 0.52076 0.0
C1438 C 0.92971 0.14716 0.49984 0.0
H1439 H 0.95528 0.18402 0.39354 0.0
H1440 H 0.9387 0.16261 0.42107 0.0
H1441 H 0.97779 0.14435 0.47586 0.0
H1442 H 0.93126 0.14933 0.57297 0.0
H1443 H 0.94784 0.15238 0.53856 0.0
C1444 C 0.54331 0.21297 0.17342 0.0
C1445 C 0.53097 0.23132 0.17199 0.0
C1446 C 0.55612 0.20956 0.19105 0.0
C1447 C 0.55773 0.22291 0.24691 0.0
H1448 H 0.61092 0.19252 0.24534 0.0
C1449 C 0.59444 0.18999 0.32275 0.0
C1450 C 0.60018 0.16856 0.32138 0.0
C1451 C 0.59058 0.2017 0.30447 0.0
C1452 C 0.5961 0.20107 0.24601 0.0
H1453 H 0.52316 0.26106 0.18716 0.0
H1454 H 0.54563 0.25512 0.21795 0.0
H1455 H 0.59576 0.20621 0.21255 0.0
H1456 H 0.60733 0.14293 0.29968 0.0
H1457 H 0.60013 0.16321 0.26791 0.0
H1458 H 0.55748 0.21701 0.28011 0.0
C1459 C 0.54519 0.24326 0.2056 0.0
C1460 C 0.58745 0.20889 0.22727 0.0
C1461 C 0.53236 0.24665 0.18799 0.0
C1462 C 0.60283 0.15936 0.30133 0.0
C1463 C 0.59891 0.17106 0.28308 0.0
C1464 C 0.56635 0.21509 0.26559 0.0
C1465 C 0.55683 0.22446 0.20752 0.0
C1466 C 0.56786 0.21932 0.22748 0.0
C1467 C 0.59234 0.19221 0.28447 0.0
C1468 C 0.58529 0.20352 0.26525 0.0
H1469 H 0.5426 0.20094 0.16125 0.0
H1470 H 0.5647 0.19479 0.1922 0.0
H1471 H 0.54248 0.23065 0.24756 0.0
H1472 H 0.59254 0.19766 0.33794 0.0
H1473 H 0.5858 0.21806 0.306 0.0
C1474 C 0.5055 0.81096 0.91666 0.0
C1475 C 0.51483 0.80525 0.89739 0.0
C1476 C 0.51456 0.82665 0.92918 0.0
C1477 C 0.56683 0.84549 0.94139 0.0
H1478 H 0.53601 0.87967 0.98184 0.0
C1479 C 0.6051 0.87153 0.01948 0.0
C1480 C 0.59277 0.86578 0.03708 0.0
C1481 C 0.59619 0.87203 -0.00074 0.0
C1482 C 0.54488 0.87037 0.97053 0.0
H1483 H 0.53993 0.81251 0.87522 0.0
H1484 H 0.55598 0.83991 0.89732 0.0
H1485 H 0.51812 0.86683 0.95011 0.0
H1486 H 0.56118 0.85707 0.0473 0.0
H1487 H 0.54587 0.85758 0.01219 0.0
H1488 H 0.59314 0.84776 0.96242 0.0
C1489 C 0.54171 0.83216 0.90275 0.0
C1490 C 0.53467 0.86307 0.95238 0.0
C1491 C 0.53254 0.8165 0.89013 0.0
C1492 C 0.57121 0.86137 0.03411 0.0
C1493 C 0.56233 0.86196 0.01398 0.0
C1494 C 0.57703 0.85277 0.95954 0.0
C1495 C 0.5332 0.83688 0.92271 0.0
C1496 C 0.54524 0.84963 0.93823 0.0
C1497 C 0.57477 0.86695 -0.00371 0.0
C1498 C 0.56582 0.86432 0.97482 0.0
H1499 H 0.49173 0.80265 0.92254 0.0
H1500 H 0.50775 0.82971 0.94459 0.0
H1501 H 0.57538 0.83505 0.93086 0.0
H1502 H 0.62172 0.87522 0.02123 0.0
H1503 H 0.60613 0.876 0.9859 0.0
C1504 C 0.92593 0.20245 0.84965 0.0
C1505 C 0.93467 0.22161 0.84261 0.0
C1506 C 0.9114 0.19155 0.83707 0.0
C1507 C 0.88018 0.19508 0.78708 0.0
H1508 H 0.90314 0.13915 0.77691 0.0
C1509 C 0.88956 0.16052 0.70523 0.0
C1510 C 0.88522 0.13908 0.70141 0.0
C1511 C 0.88838 0.1687 0.72561 0.0
C1512 C 0.8961 0.15448 0.77984 0.0
H1513 H 0.93365 0.24543 0.81803 0.0
H1514 H 0.90866 0.22641 0.79598 0.0
H1515 H 0.91269 0.15805 0.80901 0.0
H1516 H 0.8762 0.10939 0.71604 0.0
H1517 H 0.87481 0.12374 0.75202 0.0
H1518 H 0.86497 0.19205 0.75699 0.0
C1519 C 0.91278 0.21975 0.81121 0.0
C1520 C 0.9015 0.16532 0.79829 0.0
C1521 C 0.9273 0.23059 0.82374 0.0
C1522 C 0.87972 0.12596 0.7185 0.0
C1523 C 0.87882 0.13414 0.73903 0.0
C1524 C 0.87489 0.18428 0.76859 0.0
C1525 C 0.90537 0.1997 0.8173 0.0
C1526 C 0.89454 0.18619 0.80151 0.0
C1527 C 0.88302 0.15563 0.7427 0.0
C1528 C 0.88373 0.16437 0.76433 0.0
H1529 H 0.9312 0.19528 0.86428 0.0
H1530 H 0.90574 0.17626 0.84228 0.0
H1531 H 0.87422 0.21096 0.78937 0.0
H1532 H 0.89365 0.17114 0.69244 0.0
H1533 H 0.89214 0.18523 0.72806 0.0
C1534 C 0.5149 0.18181 0.5757 0.0
C1535 C 0.5237 0.18915 0.59467 0.0
C1536 C 0.52422 0.16505 0.56491 0.0
C1537 C 0.5767 0.14703 0.5552 0.0
H1538 H 0.54701 0.11109 0.51537 0.0
C1539 C 0.61327 0.127 0.47502 0.0
C1540 C 0.59968 0.13319 0.45853 0.0
C1541 C 0.60548 0.12423 0.49551 0.0
C1542 C 0.55563 0.12077 0.52658 0.0
H1543 H 0.548 0.18375 0.61825 0.0
H1544 H 0.56465 0.15459 0.59904 0.0
H1545 H 0.529 0.12318 0.54729 0.0
H1546 H 0.56708 0.14021 0.45043 0.0
H1547 H 0.55366 0.13581 0.48599 0.0
H1548 H 0.60266 0.1462 0.53369 0.0
C1549 C 0.55053 0.16179 0.59258 0.0
C1550 C 0.54535 0.12763 0.54484 0.0
C1551 C 0.54105 0.17848 0.6035 0.0
C1552 C 0.57804 0.13569 0.46277 0.0
C1553 C 0.57027 0.1328 0.48314 0.0
C1554 C 0.58696 0.14021 0.53693 0.0
C1555 C 0.54262 0.15542 0.57282 0.0
C1556 C 0.55533 0.142 0.55853 0.0
C1557 C 0.58394 0.12741 0.49981 0.0
C1558 C 0.57599 0.12823 0.52178 0.0
H1559 H 0.50138 0.18962 0.56867 0.0
H1560 H 0.51789 0.16074 0.54959 0.0
H1561 H 0.58482 0.15812 0.56543 0.0
H1562 H 0.63002 0.12473 0.47224 0.0
H1563 H 0.61634 0.12008 0.50807 0.0
C1564 C 0.54689 0.75163 0.30982 0.0
C1565 C 0.53895 0.76629 0.32448 0.0
C1566 C 0.55926 0.75845 0.29287 0.0
C1567 C 0.59004 0.8036 0.27202 0.0
H1568 H 0.56847 0.78496 0.21774 0.0
C1569 C 0.60093 0.85134 0.19547 0.0
C1570 C 0.60203 0.84053 0.1761 0.0
C1571 C 0.59778 0.84024 0.21428 0.0
C1572 C 0.5751 0.79001 0.2327 0.0
H1573 H 0.53861 0.79932 0.33364 0.0
H1574 H 0.56014 0.81122 0.30402 0.0
H1575 H 0.55535 0.76871 0.24989 0.0
H1576 H 0.60215 0.80953 0.1614 0.0
H1577 H 0.59716 0.79016 0.19423 0.0
H1578 H 0.60948 0.82525 0.25479 0.0
C1579 C 0.55691 0.79448 0.30565 0.0
C1580 C 0.56754 0.78068 0.25115 0.0
C1581 C 0.54443 0.7877 0.32249 0.0
C1582 C 0.60097 0.81835 0.17604 0.0
C1583 C 0.59807 0.80724 0.19485 0.0
C1584 C 0.59775 0.81285 0.25351 0.0
C1585 C 0.56404 0.78 0.29041 0.0
C1586 C 0.57452 0.78774 0.271 0.0
C1587 C 0.59591 0.81808 0.21413 0.0
C1588 C 0.58996 0.80653 0.23366 0.0
H1589 H 0.54299 0.73501 0.31107 0.0
H1590 H 0.56471 0.74694 0.28142 0.0
H1591 H 0.59586 0.80916 0.28714 0.0
H1592 H 0.60171 0.86844 0.19602 0.0
H1593 H 0.59591 0.84912 0.22879 0.0
C1594 C 0.97914 0.81994 0.08869 0.0
C1595 C 0.96722 0.8038 0.09808 0.0
C1596 C 0.96963 0.83396 0.07456 0.0
C1597 C 0.9524 0.84399 0.03182 0.0
H1598 H 0.89196 0.85276 0.02705 0.0
C1599 C 0.9115 0.83789 0.95261 0.0
C1600 C 0.89459 0.85132 0.94762 0.0
C1601 C 0.92005 0.83777 0.97287 0.0
C1602 C 0.90892 0.85083 0.02821 0.0
H1603 H 0.9358 0.7907 0.10173 0.0
H1604 H 0.91944 0.81415 0.0763 0.0
H1605 H 0.9075 0.8456 0.06158 0.0
H1606 H 0.87312 0.875 0.96008 0.0
H1607 H 0.88829 0.87489 0.99566 0.0
H1608 H 0.95387 0.84927 -0.00145 0.0
C1609 C 0.93594 0.81662 0.08007 0.0
C1610 C 0.91782 0.8465 0.04797 0.0
C1611 C 0.94536 0.80296 0.09456 0.0
C1612 C 0.88609 0.86436 0.96351 0.0
C1613 C 0.89479 0.86435 0.98384 0.0
C1614 C 0.94358 0.84863 0.01222 0.0
C1615 C 0.94817 0.83165 0.06912 0.0
C1616 C 0.93952 0.8419 0.04981 0.0
C1617 C 0.91206 0.85124 0.98863 0.0
C1618 C 0.92163 0.85093 0.01001 0.0
H1619 H -0.00401 0.82114 0.09152 0.0
H1620 H 0.9794 0.84579 0.06699 0.0
H1621 H 0.96914 0.84051 0.0324 0.0
H1622 H 0.91827 0.82749 0.9408 0.0
H1623 H 0.93291 0.82698 0.9762 0.0
C1624 C 0.68611 0.95427 0.74771 0.0
C1625 C 0.67034 0.9583 0.7628 0.0
C1626 C 0.70304 0.94099 0.75261 0.0
C1627 C 0.72265 0.9018 0.79151 0.0
H1628 H 0.77652 0.92966 0.78278 0.0
C1629 C 0.7943 0.88817 0.84513 0.0
C1630 C 0.81476 0.89001 0.83672 0.0
C1631 C 0.77665 0.8918 0.83242 0.0
C1632 C 0.76173 0.92131 0.78493 0.0
H1633 H 0.65913 0.95068 0.79427 0.0
H1634 H 0.68871 0.92766 0.80288 0.0
H1635 H 0.74496 0.94392 0.76631 0.0
H1636 H 0.83272 0.89586 0.80807 0.0
H1637 H 0.80188 0.90189 0.78585 0.0
H1638 H 0.73939 0.87958 0.81074 0.0
C1639 C 0.68799 0.9346 0.78724 0.0
C1640 C 0.74361 0.92952 0.77547 0.0
C1641 C 0.67116 0.94795 0.7824 0.0
C1642 C 0.81717 0.89468 0.81513 0.0
C1643 C 0.7995 0.89813 0.80239 0.0
C1644 C 0.74082 0.8935 0.80089 0.0
C1645 C 0.70437 0.93142 0.77261 0.0
C1646 C 0.7238 0.92026 0.77925 0.0
C1647 C 0.77906 0.89717 0.81099 0.0
C1648 C 0.76044 0.90361 0.79829 0.0
H1649 H 0.68576 0.96193 0.73241 0.0
H1650 H 0.71539 0.93867 0.74099 0.0
H1651 H 0.70758 0.8942 0.79443 0.0
H1652 H 0.7919 0.88455 0.86169 0.0
H1653 H 0.76115 0.89124 0.83965 0.0
C1654 C 0.79141 0.91887 0.52129 0.0
C1655 C 0.78288 0.91961 0.50081 0.0
C1656 C 0.8021 0.93629 0.52956 0.0
C1657 C 0.8033 0.99357 0.52496 0.0
H1658 H 0.85224 0.98883 0.56161 0.0
C1659 C 0.838 0.06593 0.56777 0.0
C1660 C 0.84312 0.06302 0.58922 0.0
C1661 C 0.83351 0.04862 0.55485 0.0
C1662 C 0.83851 0.99037 0.55149 0.0
H1663 H 0.77953 0.93873 0.47257 0.0
H1664 H 0.79823 0.96929 0.4871 0.0
H1665 H 0.83975 0.95783 0.54226 0.0
H1666 H 0.84783 0.03956 0.6138 0.0
H1667 H 0.83954 0.00942 0.59137 0.0
H1668 H 0.80155 0.02585 0.53467 0.0
C1669 C 0.79649 0.95528 0.49677 0.0
C1670 C 0.83142 0.97266 0.54038 0.0
C1671 C 0.78587 0.93779 0.48845 0.0
C1672 C 0.84395 0.04238 0.59736 0.0
C1673 C 0.83937 0.02508 0.58445 0.0
C1674 C 0.81034 0.01124 0.53611 0.0
C1675 C 0.80439 0.95481 0.51754 0.0
C1676 C 0.81351 0.97401 0.52732 0.0
C1677 C 0.83395 0.02802 0.5631 0.0
C1678 C 0.82778 0.00974 0.5498 0.0
H1679 H 0.78938 0.90502 0.53114 0.0
H1680 H 0.8078 0.93555 0.5457 0.0
H1681 H 0.78927 0.99501 0.51524 0.0
H1682 H 0.83745 0.0816 0.5609 0.0
H1683 H 0.82968 0.05139 0.53839 0.0
C1684 C 0.8214 0.04484 0.2889 0.0
C1685 C 0.82082 0.03761 0.26793 0.0
C1686 C 0.80675 0.05973 0.29595 0.0
C1687 C 0.75311 0.07728 0.28443 0.0
H1688 H 0.76519 0.11949 0.32727 0.0
C1689 C 0.68541 0.12024 0.3248 0.0
C1690 C 0.6864 0.11969 0.34699 0.0
C1691 C 0.70341 0.11632 0.31274 0.0
C1692 C 0.7616 0.10781 0.31527 0.0
H1693 H 0.80521 0.04096 0.23758 0.0
H1694 H 0.77968 0.0671 0.24987 0.0
H1695 H 0.79431 0.10076 0.31013 0.0
H1696 H 0.70733 0.11622 0.37394 0.0
H1697 H 0.73865 0.10877 0.35289 0.0
H1698 H 0.72051 0.0835 0.29008 0.0
C1699 C 0.79124 0.06103 0.26094 0.0
C1700 C 0.77825 0.09709 0.30548 0.0
C1701 C 0.80585 0.04609 0.25391 0.0
C1702 C 0.70605 0.11665 0.35687 0.0
C1703 C 0.72404 0.11252 0.34478 0.0
C1704 C 0.73653 0.08794 0.29419 0.0
C1705 C 0.79129 0.06771 0.28214 0.0
C1706 C 0.77412 0.08133 0.29035 0.0
C1707 C 0.72272 0.11155 0.3226 0.0
C1708 C 0.74055 0.10294 0.3101 0.0
H1709 H 0.83284 0.03863 0.30002 0.0
H1710 H 0.80702 0.06433 0.31245 0.0
H1711 H 0.74936 0.06501 0.27308 0.0
H1712 H 0.67056 0.12298 0.31672 0.0
H1713 H 0.70201 0.11617 0.29567 0.0
C1714 C 0.68356 0.07467 0.9924 0.0
C1715 C 0.69301 0.08886 0.00659 0.0
C1716 C 0.66927 0.05955 -0.00032 0.0
C1717 C 0.63946 0.04094 0.04714 0.0
H1718 H 0.65642 0.98595 0.02616 0.0
C1719 C 0.63219 0.96315 0.09444 0.0
C1720 C 0.62942 0.94433 0.08302 0.0
C1721 C 0.6338 0.98244 0.08375 0.0
C1722 C 0.65104 0.00114 0.03193 0.0
H1723 H 0.6938 0.09953 0.03917 0.0
H1724 H 0.66946 0.0727 0.05203 0.0
H1725 H 0.66962 0.0174 0.00911 0.0
H1726 H 0.62398 0.931 0.05188 0.0
H1727 H 0.6262 0.96456 0.03338 0.0
H1728 H 0.62159 0.02432 0.07066 0.0
C1729 C 0.67273 0.07339 0.03524 0.0
C1730 C 0.65861 0.01925 0.02207 0.0
C1731 C 0.68685 0.08865 0.02791 0.0
C1732 C 0.62669 0.94524 0.06101 0.0
C1733 C 0.62794 0.96446 0.05042 0.0
C1734 C 0.63186 0.0227 0.05707 0.0
C1735 C 0.66439 0.05818 0.02134 0.0
C1736 C 0.65333 0.03936 0.02983 0.0
C1737 C 0.63235 0.98315 0.06155 0.0
C1738 C 0.63795 0.00262 0.0498 0.0
H1739 H 0.68779 0.07474 0.9758 0.0
H1740 H 0.66275 0.04832 0.98851 0.0
H1741 H 0.63494 0.05624 0.05334 0.0
H1742 H 0.63419 0.96283 0.11145 0.0
H1743 H 0.63732 -0.00343 0.09276 0.0
C1744 C 0.66133 0.06322 0.71566 0.0
C1745 C 0.66082 0.05581 0.73656 0.0
C1746 C 0.67582 0.0787 0.70971 0.0
C1747 C 0.70629 0.11459 0.70096 0.0
H1748 H 0.76183 0.09659 0.71939 0.0
C1749 C 0.80161 0.12322 0.68166 0.0
C1750 C 0.80043 0.12131 0.65959 0.0
C1751 C 0.78326 0.12346 0.69379 0.0
C1752 C 0.74652 0.1024 0.71442 0.0
H1753 H 0.67373 0.05997 0.76806 0.0
H1754 H 0.6991 0.08713 0.75765 0.0
H1755 H 0.73092 0.08252 0.73663 0.0
H1756 H 0.77939 0.11967 0.63266 0.0
H1757 H 0.74718 0.11885 0.65389 0.0
H1758 H 0.72212 0.13378 0.67799 0.0
C1759 C 0.68849 0.08074 0.74581 0.0
C1760 C 0.7287 0.09426 0.72438 0.0
C1761 C 0.67401 0.0652 0.75176 0.0
C1762 C 0.78061 0.12102 0.64969 0.0
C1763 C 0.76219 0.12076 0.66188 0.0
C1764 C 0.7242 0.12286 0.69101 0.0
C1765 C 0.69006 0.08709 0.72457 0.0
C1766 C 0.7084 0.09961 0.71722 0.0
C1767 C 0.76338 0.12121 0.68413 0.0
C1768 C 0.74451 0.1162 0.69711 0.0
H1769 H 0.65119 0.05638 0.70366 0.0
H1770 H 0.67677 0.08306 0.69318 0.0
H1771 H 0.6908 0.1192 0.69532 0.0
H1772 H 0.81678 0.124 0.6896 0.0
H1773 H 0.78472 0.12445 0.71082 0.0
C1774 C 0.68706 0.90935 0.44242 0.0
C1775 C 0.69189 0.9054 0.46372 0.0
C1776 C 0.67267 0.92515 0.43704 0.0
C1777 C 0.658 0.9759 0.45789 0.0
H1778 H 0.62201 0.97884 0.40834 0.0
C1779 C 0.63121 0.05602 0.42706 0.0
C1780 C 0.6329 0.05891 0.40513 0.0
C1781 C 0.63181 0.03579 0.43571 0.0
C1782 C 0.63205 0.97827 0.4222 0.0
H1783 H 0.684 0.9133 0.49614 0.0
H1784 H 0.65885 0.94097 0.48671 0.0
H1785 H 0.63406 0.94444 0.42122 0.0
H1786 H 0.6356 0.04303 0.37492 0.0
H1787 H 0.63785 0.00763 0.39007 0.0
H1788 H 0.65738 0.0095 0.45826 0.0
C1789 C 0.66639 0.93204 0.4742 0.0
C1790 C 0.63881 0.95859 0.42963 0.0
C1791 C 0.68077 0.91622 0.47957 0.0
C1792 C 0.63438 0.04117 0.3919 0.0
C1793 C 0.63544 0.0209 0.4006 0.0
C1794 C 0.65145 0.99549 0.45039 0.0
C1795 C 0.66292 0.93727 0.45289 0.0
C1796 C 0.65229 0.9573 0.44723 0.0
C1797 C 0.63462 0.01803 0.42266 0.0
C1798 C 0.63885 -0.00301 0.43214 0.0
H1799 H 0.69528 0.90109 0.42988 0.0
H1800 H 0.67042 0.92891 0.42049 0.0
H1801 H 0.66872 0.97547 0.47125 0.0
H1802 H 0.62952 0.06943 0.43758 0.0
H1803 H 0.63055 0.03415 0.4527 0.0
C1804 C 0.80803 0.93494 0.23878 0.0
C1805 C 0.8277 0.93883 0.22933 0.0
C1806 C 0.79372 0.92104 0.22934 0.0
C1807 C 0.78045 0.90404 0.17606 0.0
H1808 H 0.73559 0.874 0.20501 0.0
C1809 C 0.70511 0.87874 0.13216 0.0
C1810 C 0.68638 0.8849 0.14241 0.0
C1811 C 0.72434 0.87877 0.14303 0.0
C1812 C 0.74808 0.88224 0.1967 0.0
H1813 H 0.84876 0.92974 0.20388 0.0
H1814 H 0.82388 0.90519 0.18756 0.0
H1815 H 0.76709 0.8848 0.22462 0.0
H1816 H 0.67311 0.89517 0.17237 0.0
H1817 H 0.7066 0.89562 0.19109 0.0
H1818 H 0.76112 0.90243 0.14844 0.0
C1819 C 0.8193 0.91324 0.20195 0.0
C1820 C 0.7661 0.8884 0.20791 0.0
C1821 C 0.83355 0.92725 0.21132 0.0
C1822 C 0.68722 0.89045 0.16392 0.0
C1823 C 0.70641 0.89046 0.17475 0.0
C1824 C 0.76249 0.89786 0.16488 0.0
C1825 C 0.79889 0.9107 0.21034 0.0
C1826 C 0.78211 0.90007 0.19787 0.0
C1827 C 0.72522 0.88492 0.16436 0.0
C1828 C 0.74577 0.88762 0.17526 0.0
H1829 H 0.80315 0.94359 0.25273 0.0
H1830 H 0.77808 0.9196 0.23615 0.0
H1831 H 0.79232 0.91325 0.16787 0.0
H1832 H 0.70502 0.87414 0.11566 0.0
H1833 H 0.73857 0.87426 0.13466 0.0
C1834 C 0.79683 0.06738 0.99186 0.0
C1835 C 0.79201 0.08301 0.97688 0.0
C1836 C 0.81085 0.05112 0.98684 0.0
C1837 C 0.85 0.03264 0.94705 0.0
H1838 H 0.82558 0.97782 0.95933 0.0
C1839 C 0.8665 0.95759 0.8981 0.0
C1840 C 0.86521 0.93788 0.90821 0.0
C1841 C 0.86279 0.97617 0.90947 0.0
C1842 C 0.83299 0.99292 0.95615 0.0
H1843 H 0.79899 0.09471 0.94543 0.0
H1844 H 0.82312 0.0661 0.9365 0.0
H1845 H 0.80987 0.00923 0.97443 0.0
H1846 H 0.86105 0.9222 0.93841 0.0
H1847 H 0.85513 0.95456 0.9583 0.0
H1848 H 0.87271 0.01616 0.92809 0.0
C1849 C 0.81631 0.06649 0.9522 0.0
C1850 C 0.82394 0.01098 0.96484 0.0
C1851 C 0.80234 0.08278 0.95724 0.0
C1852 C 0.86167 0.93716 0.93011 0.0
C1853 C 0.85826 0.9557 0.9415 0.0
C1854 C 0.85913 0.01448 0.93836 0.0
C1855 C 0.82025 0.05016 0.96673 0.0
C1856 C 0.83202 0.03108 0.96 0.0
C1857 C 0.85799 0.97535 0.93118 0.0
C1858 C 0.8504 0.99446 0.94245 0.0
H1859 H 0.78927 0.06732 0.00722 0.0
H1860 H 0.81383 0.03891 -0.00153 0.0
H1861 H 0.8567 0.04792 0.94324 0.0
H1862 H 0.86927 0.95859 0.88123 0.0
H1863 H 0.86254 0.99103 0.901 0.0
C1864 C 0.75178 0.66809 0.92091 0.0
C1865 C 0.76694 0.65468 0.92999 0.0
C1866 C 0.75792 0.6838 0.90671 0.0
C1867 C 0.77854 0.72561 0.89773 0.0
H1868 H 0.82675 0.72404 0.85998 0.0
C1869 C 0.85219 0.78221 0.87771 0.0
C1870 C 0.84177 0.8018 0.87743 0.0
C1871 C 0.84063 0.76343 0.87686 0.0
C1872 C 0.81323 0.72472 0.87043 0.0
H1873 H 0.80003 0.64583 0.92998 0.0
H1874 H 0.81086 0.67356 0.90563 0.0
H1875 H 0.81006 0.691 0.87106 0.0
H1876 H 0.81127 0.81713 0.87418 0.0
H1877 H 0.79117 0.78438 0.87222 0.0
H1878 H 0.78232 0.75904 0.89831 0.0
C1879 C 0.79421 0.67187 0.90922 0.0
C1880 C 0.80364 0.70583 0.87671 0.0
C1881 C 0.78805 0.65609 0.92333 0.0
C1882 C 0.81971 0.80226 0.87491 0.0
C1883 C 0.80819 0.78349 0.87377 0.0
C1884 C 0.78812 0.74442 0.89155 0.0
C1885 C 0.77934 0.68644 0.90146 0.0
C1886 C 0.78666 0.70608 0.89102 0.0
C1887 C 0.81845 0.76386 0.87545 0.0
C1888 C 0.80604 0.74418 0.87844 0.0
H1889 H 0.73533 0.66713 0.92553 0.0
H1890 H 0.74606 0.69458 0.90069 0.0
H1891 H 0.7657 0.7264 0.90903 0.0
H1892 H 0.86919 0.78136 0.87955 0.0
H1893 H 0.84905 0.74861 0.87845 0.0
C1894 C 0.2549 0.82515 0.0483 0.0
C1895 C 0.26861 0.83974 0.03883 0.0
C1896 C 0.26267 0.81028 0.06255 0.0
C1897 C 0.28547 0.77081 0.07461 0.0
H1898 H 0.3333 0.77782 0.11238 0.0
C1899 C 0.35591 0.71528 0.10579 0.0
C1900 C 0.34394 0.69699 0.10959 0.0
C1901 C 0.3458 0.73474 0.10304 0.0
C1902 C 0.3199 0.77569 0.10192 0.0
H1903 H 0.30088 0.85118 0.0376 0.0
H1904 H 0.3147 0.82457 0.06184 0.0
H1905 H 0.31647 0.809 0.09677 0.0
H1906 H 0.31248 0.68491 0.11586 0.0
H1907 H 0.29497 0.71883 0.11161 0.0
H1908 H 0.28916 0.73769 0.07902 0.0
C1909 C 0.29788 0.82487 0.05867 0.0
C1910 C 0.31029 0.79349 0.09298 0.0
C1911 C 0.29002 0.83998 0.04465 0.0
C1912 C 0.32201 0.69872 0.1124 0.0
C1913 C 0.312 0.71812 0.10999 0.0
C1914 C 0.29496 0.75315 0.08354 0.0
C1915 C 0.28437 0.80945 0.06728 0.0
C1916 C 0.29317 0.79117 0.07896 0.0
C1917 C 0.32365 0.73614 0.10433 0.0
C1918 C 0.31247 0.75533 0.09703 0.0
H1919 H 0.23824 0.82491 0.04436 0.0
H1920 H 0.25177 0.79893 0.06931 0.0
H1921 H 0.27269 0.76835 0.06348 0.0
H1922 H 0.37288 0.71433 0.1037 0.0
H1923 H 0.35519 0.74835 0.09861 0.0
C1924 C 0.93274 0.50476 0.80143 0.0
C1925 C 0.9186 0.51935 0.79253 0.0
C1926 C 0.94885 0.51165 0.81485 0.0
C1927 C 0.99012 0.53334 0.82487 0.0
H1928 H 0.98579 0.58048 0.86384 0.0
C1929 C 0.0458 0.60535 0.85395 0.0
C1930 C 0.06491 0.59439 0.85659 0.0
C1931 C 0.02685 0.59428 0.85151 0.0
C1932 C 0.98722 0.5673 0.85301 0.0
H1933 H 0.90934 0.55233 0.79159 0.0
H1934 H 0.9377 0.56442 0.81466 0.0
H1935 H 0.95365 0.56392 0.85014 0.0
H1936 H 0.07898 0.56332 0.86032 0.0
H1937 H 0.04593 0.54409 0.85643 0.0
H1938 H 0.02352 0.53721 0.8268 0.0
C1939 C 0.93624 0.54765 0.81152 0.0
C1940 C 0.96886 0.55781 0.84522 0.0
C1941 C 0.92013 0.54076 0.79813 0.0
C1942 C 0.06456 0.57222 0.85785 0.0
C1943 C 0.04563 0.56118 0.85564 0.0
C1944 C 0.00842 0.54283 0.83258 0.0
C1945 C 0.9511 0.53324 0.81957 0.0
C1946 C 0.97016 0.54109 0.83064 0.0
C1947 C 0.02665 0.57205 0.85188 0.0
C1948 C 0.00719 0.56027 0.84629 0.0
H1949 H 0.93175 0.48811 0.79756 0.0
H1950 H 0.95992 0.50016 0.82105 0.0
H1951 H 0.99167 0.52071 0.8134 0.0
H1952 H 0.04556 0.62244 0.85301 0.0
H1953 H 0.01254 0.60313 0.8484 0.0
C1954 C 0.24936 0.17798 0.54319 0.0
C1955 C 0.23491 0.16276 0.53598 0.0
C1956 C 0.24292 0.19358 0.55739 0.0
C1957 C 0.19815 0.21087 0.59171 0.0
H1958 H 0.21435 0.26648 0.57175 0.0
C1959 C 0.14611 0.2848 0.59938 0.0
C1960 C 0.15593 0.3046 0.60165 0.0
C1961 C 0.15829 0.26649 0.59754 0.0
C1962 C 0.20999 0.25112 0.57793 0.0
H1963 H 0.20282 0.15105 0.53883 0.0
H1964 H 0.19138 0.17861 0.56301 0.0
H1965 H 0.23189 0.23558 0.55763 0.0
H1966 H 0.18614 0.32051 0.60546 0.0
H1967 H 0.20726 0.28858 0.60236 0.0
H1968 H 0.17537 0.22663 0.61119 0.0
C1969 C 0.20777 0.17836 0.5581 0.0
C1970 C 0.22011 0.23334 0.56984 0.0
C1971 C 0.21426 0.16269 0.54405 0.0
C1972 C 0.17808 0.30556 0.60328 0.0
C1973 C 0.1902 0.28728 0.60156 0.0
C1974 C 0.18794 0.22871 0.59976 0.0
C1975 C 0.22186 0.19433 0.56447 0.0
C1976 C 0.21386 0.21299 0.57613 0.0
C1977 C 0.18047 0.26765 0.59806 0.0
C1978 C 0.19336 0.24896 0.59246 0.0
H1979 H 0.26547 0.17818 0.53743 0.0
H1980 H 0.25424 0.20546 0.5623 0.0
H1981 H 0.19324 0.19539 0.59712 0.0
H1982 H 0.12908 0.28352 0.5982 0.0
H1983 H 0.15034 0.2516 0.59464 0.0
C1984 C 0.09625 0.94649 0.81953 0.0
C1985 C 0.08932 0.96527 0.80995 0.0
C1986 C 0.08456 0.93736 0.83589 0.0
C1987 C 0.03853 0.94611 0.87172 0.0
H1988 H 0.02377 0.88893 0.85532 0.0
C1989 C 0.95495 0.91454 0.87338 0.0
C1990 C 0.95094 0.89286 0.87604 0.0
C1991 C 0.97554 0.92229 0.87416 0.0
C1992 C 0.02802 0.90464 0.86066 0.0
H1993 H 0.06579 0.99014 0.81099 0.0
H1994 H 0.04527 0.97416 0.8392 0.0
H1995 H 0.05505 0.90534 0.84053 0.0
H1996 H 0.96534 0.86254 0.88314 0.0
H1997 H 0.00145 0.87615 0.88431 0.0
H1998 H 0.01055 0.94581 0.89074 0.0
C1999 C 0.05977 0.96649 0.83433 0.0
C2000 C 0.04602 0.91408 0.85215 0.0
C2001 C 0.0714 0.97555 0.81797 0.0
C2002 C 0.9679 0.8793 0.8808 0.0
C2003 C 0.98858 0.88707 0.88149 0.0
C2004 C 0.0205 0.93665 0.88024 0.0
C2005 C 0.06581 0.94693 0.84298 0.0
C2006 C 0.05079 0.9353 0.85668 0.0
C2007 C 0.99265 0.90855 0.87758 0.0
C2008 C 0.01445 0.91624 0.87385 0.0
H2009 H 0.11015 0.93834 0.81376 0.0
H2010 H 0.08969 0.92238 0.84239 0.0
H2011 H 0.04209 0.96235 0.87584 0.0
H2012 H 0.94224 0.92549 0.86996 0.0
H2013 H 0.97811 0.93887 0.87081 0.0
C2014 C 0.74118 0.31433 0.47073 0.0
C2015 C 0.73303 0.33454 0.47478 0.0
C2016 C 0.73213 0.3016 0.45517 0.0
C2017 C 0.68099 0.29141 0.43265 0.0
H2018 H 0.71215 0.25144 0.39821 0.0
C2019 C 0.64042 0.21773 0.39833 0.0
C2020 C 0.65159 0.19891 0.40225 0.0
C2021 C 0.65039 0.23733 0.40055 0.0
C2022 C 0.70321 0.26255 0.40768 0.0
H2023 H 0.70981 0.35781 0.46508 0.0
H2024 H 0.69367 0.33528 0.43806 0.0
H2025 H 0.73059 0.28142 0.41413 0.0
H2026 H 0.68223 0.18597 0.41081 0.0
H2027 H 0.69929 0.21995 0.41518 0.0
H2028 H 0.65394 0.27188 0.42752 0.0
C2029 C 0.70709 0.32937 0.4469 0.0
C2030 C 0.71374 0.27972 0.41669 0.0
C2031 C 0.71631 0.34221 0.46234 0.0
C2032 C 0.67308 0.20013 0.40773 0.0
C2033 C 0.68299 0.21966 0.41 0.0
C2034 C 0.67048 0.27416 0.42378 0.0
C2035 C 0.71464 0.30879 0.44351 0.0
C2036 C 0.70289 0.29378 0.42998 0.0
C2037 C 0.67169 0.2385 0.40674 0.0
C2038 C 0.68169 0.25905 0.41197 0.0
H2039 H 0.75415 0.30809 0.48001 0.0
H2040 H 0.73811 0.2857 0.45308 0.0
H2041 H 0.67226 0.30193 0.44296 0.0
H2042 H 0.62393 0.21737 0.39383 0.0
H2043 H 0.64132 0.25157 0.39774 0.0
C2044 C 0.9114 0.44941 0.69832 0.0
C2045 C 0.91002 0.47151 0.69978 0.0
C2046 C 0.92473 0.44006 0.68342 0.0
C2047 C 0.95021 0.42364 0.64597 0.0
H2048 H 0.00564 0.44972 0.64607 0.0
C2049 C 0.04207 0.41253 0.61493 0.0
C2050 C 0.04521 0.39148 0.62109 0.0
C2051 C 0.0225 0.42213 0.61781 0.0
C2052 C 0.99017 0.44244 0.64531 0.0
H2053 H 0.92025 0.50116 0.68598 0.0
H2054 H 0.94329 0.48486 0.6598 0.0
H2055 H 0.97672 0.46716 0.66375 0.0
H2056 H 0.0302 0.36336 0.6335 0.0
H2057 H -0.00393 0.38042 0.63951 0.0
H2058 H 0.96415 0.39842 0.62812 0.0
C2059 C 0.93446 0.47474 0.67043 0.0
C2060 C 0.97352 0.45248 0.65554 0.0
C2061 C 0.92128 0.48407 0.6854 0.0
C2062 C 0.02808 0.37965 0.62867 0.0
C2063 C 0.00853 0.38941 0.63199 0.0
C2064 C 0.96696 0.41355 0.63564 0.0
C2065 C 0.9368 0.45267 0.66968 0.0
C2066 C 0.95347 0.44303 0.65637 0.0
C2067 C 0.00586 0.41103 0.62745 0.0
C2068 C 0.98722 0.42268 0.63557 0.0
H2069 H 0.90278 0.43936 0.70916 0.0
H2070 H 0.92635 0.42302 0.68339 0.0
H2071 H 0.93485 0.41609 0.64619 0.0
H2072 H 0.05503 0.42183 0.60867 0.0
H2073 H 0.02077 0.43863 0.61358 0.0
C2074 C 0.58122 0.53733 0.19177 0.0
C2075 C 0.5812 0.51708 0.20081 0.0
C2076 C 0.5651 0.54337 0.178 0.0
C2077 C 0.50949 0.53094 0.16972 0.0
H2078 H 0.5137 0.5738 0.12612 0.0
C2079 C 0.43512 0.5694 0.13653 0.0
C2080 C 0.43548 0.59162 0.13616 0.0
C2081 C 0.45378 0.55796 0.13879 0.0
C2082 C 0.51232 0.5618 0.13825 0.0
H2083 H 0.56557 0.48659 0.20109 0.0
H2084 H 0.53761 0.49697 0.17665 0.0
H2085 H 0.5458 0.55687 0.13947 0.0
H2086 H 0.45584 0.61921 0.13677 0.0
H2087 H 0.48847 0.59917 0.14134 0.0
H2088 H 0.47626 0.53631 0.1692 0.0
C2089 C 0.54973 0.50839 0.18065 0.0
C2090 C 0.53065 0.5521 0.14586 0.0
C2091 C 0.56575 0.50242 0.19458 0.0
C2092 C 0.45503 0.60211 0.13713 0.0
C2093 C 0.47374 0.59062 0.13955 0.0
C2094 C 0.49125 0.54056 0.16211 0.0
C2095 C 0.54875 0.5292 0.1729 0.0
C2096 C 0.52946 0.53695 0.16208 0.0
C2097 C 0.47322 0.56845 0.1409 0.0
C2098 C 0.49248 0.55646 0.14667 0.0
H2099 H 0.59303 0.54891 0.19623 0.0
H2100 H 0.56475 0.55956 0.17248 0.0
H2101 H 0.50797 0.51966 0.1825 0.0
H2102 H 0.42035 0.56079 0.13538 0.0
H2103 H 0.45292 0.54087 0.13937 0.0
C2104 C 0.54759 0.74025 0.80794 0.0
C2105 C 0.54525 0.73181 0.8283 0.0
C2106 C 0.56307 0.73242 0.79436 0.0
C2107 C 0.58989 0.68304 0.78386 0.0
H2108 H 0.61666 0.71606 0.73972 0.0
C2109 C 0.62074 0.64274 0.7092 0.0
C2110 C 0.61257 0.65188 0.69066 0.0
C2111 C 0.62032 0.65382 0.72829 0.0
C2112 C 0.60942 0.70663 0.75204 0.0
H2113 H 0.55804 0.70952 0.85099 0.0
H2114 H 0.58511 0.69573 0.82716 0.0
H2115 H 0.60147 0.73393 0.7704 0.0
H2116 H 0.59887 0.6804 0.67741 0.0
H2117 H 0.5977 0.69947 0.71063 0.0
H2118 H 0.59659 0.65588 0.76503 0.0
C2119 C 0.57485 0.70828 0.82166 0.0
C2120 C 0.60076 0.71685 0.76957 0.0
C2121 C 0.55937 0.71615 0.83526 0.0
C2122 C 0.6051 0.67279 0.69138 0.0
C2123 C 0.60468 0.68383 0.71045 0.0
C2124 C 0.59851 0.67284 0.76634 0.0
C2125 C 0.5765 0.71597 0.80089 0.0
C2126 C 0.59007 0.7052 0.78517 0.0
C2127 C 0.61175 0.67428 0.72921 0.0
C2128 C 0.6075 0.68461 0.74979 0.0
H2129 H 0.537 0.75242 0.80221 0.0
H2130 H 0.56372 0.73848 0.77837 0.0
H2131 H 0.58162 0.67362 0.79552 0.0
H2132 H 0.62689 0.62674 0.70916 0.0
H2133 H 0.6261 0.64615 0.74246 0.0
C2134 C 0.50096 0.30283 0.07603 0.0
C2135 C 0.51395 0.28769 0.08571 0.0
C2136 C 0.50933 0.31673 0.06108 0.0
C2137 C 0.56003 0.33346 0.03539 0.0
H2138 H 0.52485 0.33532 0.98524 0.0
C2139 C 0.56984 0.33199 0.93982 0.0
C2140 C 0.58633 0.34653 0.93694 0.0
C2141 C 0.56017 0.32991 0.95948 0.0
C2142 C 0.5349 0.3349 -0.0009 0.0
H2143 H 0.54603 0.276 0.08846 0.0
H2144 H 0.56044 0.29942 0.06185 0.0
H2145 H 0.50983 0.32337 0.01834 0.0
H2146 H 0.60547 0.37053 0.95231 0.0
H2147 H 0.58827 0.36714 0.98662 0.0
H2148 H 0.58557 0.34324 0.0156 0.0
C2149 C 0.54394 0.30111 0.06602 0.0
C2150 C 0.52618 0.32841 0.01824 0.0
C2151 C 0.53564 0.28747 0.08116 0.0
C2152 C 0.59294 0.359 0.95412 0.0
C2153 C 0.58308 0.35708 0.97377 0.0
C2154 C 0.56885 0.33964 0.01614 0.0
C2155 C 0.53077 0.31547 0.05531 0.0
C2156 C 0.53884 0.3268 0.03644 0.0
C2157 C 0.56655 0.34252 0.97665 0.0
C2158 C 0.55655 0.3396 -0.00237 0.0
H2159 H 0.48422 0.30352 0.07954 0.0
H2160 H 0.49884 0.3279 0.05347 0.0
H2161 H 0.57011 0.3329 0.04922 0.0
H2162 H 0.56447 0.32207 0.92693 0.0
H2163 H 0.54788 0.31811 0.96126 0.0
C2164 C 0.95674 0.25251 0.30721 0.0
C2165 C 0.95696 0.25889 0.32845 0.0
C2166 C 0.94241 0.26147 0.29307 0.0
C2167 C 0.91617 0.311 0.28382 0.0
H2168 H 0.88955 0.28035 0.23786 0.0
C2169 C 0.88437 0.35432 0.2104 0.0
C2170 C 0.89099 0.3453 0.19119 0.0
C2171 C 0.8862 0.34302 0.2293 0.0
C2172 C 0.89684 0.28913 0.25063 0.0
H2173 H 0.94186 0.27889 0.35185 0.0
H2174 H 0.917 0.29488 0.32692 0.0
H2175 H 0.90417 0.26092 0.26784 0.0
H2176 H 0.90414 0.31704 0.17676 0.0
H2177 H 0.9078 0.29773 0.20954 0.0
H2178 H 0.9102 0.33908 0.2661 0.0
C2179 C 0.92787 0.2829 0.3213 0.0
C2180 C 0.90512 0.27802 0.26778 0.0
C2181 C 0.94206 0.27376 0.33551 0.0
C2182 C 0.89893 0.32456 0.19124 0.0
C2183 C 0.9008 0.31333 0.21006 0.0
C2184 C 0.90807 0.32211 0.26659 0.0
C2185 C 0.92818 0.2771 0.29988 0.0
C2186 C 0.91555 0.28882 0.28413 0.0
C2187 C 0.89469 0.32249 0.22935 0.0
C2188 C 0.89909 0.31122 0.24941 0.0
H2189 H 0.968 0.24101 0.30139 0.0
H2190 H 0.94317 0.2569 0.27658 0.0
H2191 H 0.92428 0.3197 0.29616 0.0
H2192 H 0.87798 0.37019 0.21091 0.0
H2193 H 0.8812 0.35043 0.24391 0.0
C2194 C 0.9441 0.69322 0.57538 0.0
C2195 C 0.96086 0.68736 0.58865 0.0
C2196 C 0.93446 0.67829 0.56238 0.0
C2197 C 0.94761 0.63108 0.53336 0.0
H2198 H 0.88839 0.63428 0.51793 0.0
C2199 C 0.88516 0.60758 0.46209 0.0
C2200 C 0.89726 0.61518 0.44505 0.0
C2201 C 0.8929 0.60875 0.48272 0.0
C2202 C 0.90487 0.63269 0.52227 0.0
H2203 H 0.9801 0.66117 0.59955 0.0
H2204 H 0.96333 0.63499 0.57646 0.0
H2205 H 0.90049 0.65088 0.55045 0.0
H2206 H 0.92762 0.62847 0.4362 0.0
H2207 H 0.9409 0.63093 0.47213 0.0
H2208 H 0.95214 0.61367 0.50469 0.0
C2209 C 0.95769 0.65115 0.57619 0.0
C2210 C 0.91182 0.64238 0.54081 0.0
C2211 C 0.96723 0.6661 0.58938 0.0
C2212 C 0.91781 0.62264 0.44895 0.0
C2213 C 0.92552 0.62384 0.46958 0.0
C2214 C 0.94066 0.62137 0.51479 0.0
C2215 C 0.94147 0.65721 0.5623 0.0
C2216 C 0.93339 0.64253 0.54598 0.0
C2217 C 0.91288 0.61754 0.48673 0.0
C2218 C 0.9194 0.62295 0.50857 0.0
H2219 H 0.93883 0.70948 0.57458 0.0
H2220 H 0.92222 0.68351 0.55161 0.0
H2221 H 0.96435 0.63095 0.53695 0.0
H2222 H 0.86938 0.60138 0.45961 0.0
H2223 H 0.88293 0.60349 0.4956 0.0
C2224 C 0.56391 0.28777 0.64653 0.0
C2225 C 0.55346 0.26966 0.65403 0.0
C2226 C 0.57816 0.29856 0.65951 0.0
C2227 C 0.60701 0.29568 0.71056 0.0
H2228 H 0.58436 0.35189 0.71971 0.0
C2229 C 0.59497 0.32949 0.79199 0.0
C2230 C 0.59796 0.35111 0.79612 0.0
C2231 C 0.59735 0.32157 0.77162 0.0
C2232 C 0.5914 0.33651 0.71708 0.0
H2233 H 0.551 0.24753 0.68003 0.0
H2234 H 0.57583 0.26623 0.70264 0.0
H2235 H 0.57583 0.33301 0.6873 0.0
H2236 H 0.60598 0.38135 0.78202 0.0
H2237 H 0.60969 0.3674 0.7461 0.0
H2238 H 0.62134 0.29865 0.74105 0.0
C2239 C 0.57312 0.27216 0.68681 0.0
C2240 C 0.58654 0.32569 0.69847 0.0
C2241 C 0.55871 0.26156 0.67397 0.0
C2242 C 0.60345 0.36463 0.77934 0.0
C2243 C 0.60568 0.35668 0.75883 0.0
C2244 C 0.6119 0.30652 0.72912 0.0
C2245 C 0.58238 0.29118 0.68002 0.0
C2246 C 0.59325 0.3047 0.69568 0.0
C2247 C 0.6027 0.33504 0.75483 0.0
C2248 C 0.60304 0.32649 0.73308 0.0
H2249 H 0.56019 0.29425 0.63112 0.0
H2250 H 0.58514 0.31316 0.65392 0.0
H2251 H 0.61266 0.27964 0.70858 0.0
H2252 H 0.59086 0.31856 0.8045 0.0
H2253 H 0.59443 0.30491 0.76895 0.0
C2254 C 0.96615 0.28541 0.93495 0.0
C2255 C 0.96737 0.29071 0.91347 0.0
C2256 C 0.95995 0.3004 0.94977 0.0
C2257 C 0.92931 0.34832 0.95666 0.0
H2258 H 0.95733 0.34721 0.01115 0.0
C2259 C 0.88688 0.36497 0.03454 0.0
C2260 C 0.8988 0.37055 0.05237 0.0
C2261 C 0.89677 0.36257 0.01495 0.0
C2262 C 0.94952 0.34832 -0.00404 0.0
H2263 H 0.96297 0.31579 0.89052 0.0
H2264 H 0.95188 0.3422 0.91669 0.0
H2265 H 0.97289 0.32871 0.98159 0.0
H2266 H 0.92961 0.38044 0.06357 0.0
H2267 H 0.94671 0.37732 0.02923 0.0
H2268 H 0.9057 0.36769 0.97121 0.0
C2269 C 0.9558 0.32638 0.92193 0.0
C2270 C 0.95836 0.33741 0.97906 0.0
C2271 C 0.96214 0.31132 0.90702 0.0
C2272 C 0.92024 0.37563 0.05004 0.0
C2273 C 0.93 0.37379 0.0304 0.0
C2274 C 0.92049 0.35944 0.9736 0.0
C2275 C 0.95482 0.32105 0.94346 0.0
C2276 C 0.94783 0.33645 0.95957 0.0
C2277 C 0.91865 0.36616 0.01285 0.0
C2278 C 0.93004 0.35877 0.9937 0.0
H2279 H 0.97002 0.26964 0.94038 0.0
H2280 H 0.95888 0.2957 0.9662 0.0
H2281 H 0.92094 0.34791 0.94172 0.0
H2282 H 0.87027 0.36106 0.03602 0.0
H2283 H 0.88752 0.3565 0.00189 0.0
C2284 C 0.94947 0.73555 0.18836 0.0
C2285 C 0.95194 0.72711 0.16801 0.0
C2286 C 0.93563 0.72611 0.20267 0.0
C2287 C 0.91331 0.67431 0.21422 0.0
H2288 H 0.88384 0.70532 0.2581 0.0
C2289 C 0.87873 0.63216 0.28679 0.0
C2290 C 0.88544 0.64113 0.30601 0.0
C2291 C 0.881 0.6433 0.26788 0.0
C2292 C 0.89189 0.69646 0.24586 0.0
H2293 H 0.94108 0.70298 0.14616 0.0
H2294 H 0.91674 0.68659 0.17114 0.0
H2295 H 0.89837 0.72431 0.2278 0.0
H2296 H 0.89889 0.66922 0.32052 0.0
H2297 H 0.90309 0.68841 0.2876 0.0
H2298 H 0.90764 0.64661 0.23264 0.0
C2299 C 0.92574 0.70027 0.17615 0.0
C2300 C 0.90022 0.70731 0.22857 0.0
C2301 C 0.93966 0.70965 0.16187 0.0
C2302 C 0.89374 0.66174 0.306 0.0
C2303 C 0.8959 0.67287 0.28714 0.0
C2304 C 0.90494 0.66347 0.23146 0.0
C2305 C 0.92393 0.70812 0.19685 0.0
C2306 C 0.91168 0.69643 0.21298 0.0
C2307 C 0.88987 0.66365 0.26787 0.0
C2308 C 0.89484 0.67455 0.24782 0.0
H2309 H 0.95871 0.74904 0.19346 0.0
H2310 H 0.93483 0.73236 0.2186 0.0
H2311 H 0.92223 0.66548 0.20259 0.0
H2312 H 0.87211 0.61637 0.28627 0.0
H2313 H 0.87612 0.63589 0.25322 0.0
C2314 C 0.50651 0.6836 0.41627 0.0
C2315 C 0.5193 0.70091 0.41086 0.0
C2316 C 0.51375 0.66841 0.43053 0.0
C2317 C 0.56195 0.65009 0.45904 0.0
H2318 H 0.52194 0.63583 0.50319 0.0
C2319 C 0.56459 0.63625 0.55273 0.0
C2320 C 0.58298 0.62394 0.55451 0.0
C2321 C 0.55484 0.63899 0.53318 0.0
C2322 C 0.53329 0.63956 0.49093 0.0
H2323 H 0.54986 0.71567 0.41552 0.0
H2324 H 0.56227 0.68965 0.44092 0.0
H2325 H 0.50968 0.65405 0.47168 0.0
H2326 H 0.60456 0.60344 0.53741 0.0
H2327 H 0.58727 0.60806 0.50325 0.0
H2328 H 0.58583 0.6372 0.47907 0.0
C2329 C 0.54685 0.68741 0.43383 0.0
C2330 C 0.52622 0.64979 0.47272 0.0
C2331 C 0.53968 0.70248 0.41944 0.0
C2332 C 0.59057 0.6133 0.53654 0.0
C2333 C 0.58072 0.61596 0.51695 0.0
C2334 C 0.56905 0.64005 0.47735 0.0
C2335 C 0.53386 0.67036 0.43978 0.0
C2336 C 0.54063 0.65593 0.45696 0.0
C2337 C 0.56312 0.62936 0.51496 0.0
C2338 C 0.55492 0.63547 0.49386 0.0
H2339 H 0.49079 0.6819 0.40968 0.0
H2340 H 0.50348 0.65533 0.43455 0.0
H2341 H 0.57336 0.65416 0.44696 0.0
H2342 H 0.55821 0.64458 0.56624 0.0
H2343 H 0.5415 0.64967 0.53223 0.0
C2344 C 0.81971 0.55509 0.7325 0.0
C2345 C 0.83765 0.54795 0.72162 0.0
C2346 C 0.80501 0.56801 0.72239 0.0
C2347 C 0.78503 0.57674 0.6692 0.0
H2348 H 0.74836 0.61651 0.69797 0.0
C2349 C 0.70648 0.60403 0.63245 0.0
C2350 C 0.68912 0.60159 0.64612 0.0
C2351 C 0.7271 0.60323 0.64032 0.0
C2352 C 0.75856 0.60553 0.6897 0.0
H2353 H 0.85522 0.55 0.69226 0.0
H2354 H 0.82957 0.57279 0.67463 0.0
H2355 H 0.78144 0.6056 0.71463 0.0
H2356 H 0.67985 0.59719 0.67889 0.0
H2357 H 0.71572 0.59555 0.69246 0.0
H2358 H 0.76178 0.57594 0.64471 0.0
C2359 C 0.82669 0.56809 0.69083 0.0
C2360 C 0.77746 0.59929 0.69922 0.0
C2361 C 0.84137 0.55509 0.70094 0.0
C2362 C 0.69283 0.59898 0.66787 0.0
C2363 C 0.7134 0.59829 0.67572 0.0
C2364 C 0.76619 0.58303 0.65967 0.0
C2365 C 0.80801 0.5741 0.70122 0.0
C2366 C 0.79048 0.58421 0.68943 0.0
C2367 C 0.73074 0.60014 0.662 0.0
C2368 C 0.7524 0.59685 0.67019 0.0
H2369 H 0.8165 0.54989 0.74849 0.0
H2370 H 0.79068 0.57215 0.73079 0.0
H2371 H 0.79456 0.56491 0.66132 0.0
H2372 H 0.70419 0.6062 0.61563 0.0
H2373 H 0.7402 0.60479 0.62941 0.0
C2374 C 0.70089 0.56815 0.94773 0.0
C2375 C 0.70385 0.57504 0.96859 0.0
C2376 C 0.68478 0.55396 0.94286 0.0
C2377 C 0.65247 0.51262 0.96737 0.0
H2378 H 0.62858 0.51129 0.91094 0.0
C2379 C 0.60851 0.45292 0.90359 0.0
C2380 C 0.62114 0.43513 0.90777 0.0
C2381 C 0.6114 0.4716 0.91505 0.0
C2382 C 0.63455 0.51155 0.92699 0.0
H2383 H 0.69187 0.57318 0.00064 0.0
H2384 H 0.66337 0.54855 0.99207 0.0
H2385 H 0.64674 0.54279 0.92307 0.0
H2386 H 0.64573 0.42259 0.92818 0.0
H2387 H 0.65129 0.45508 0.94742 0.0
H2388 H 0.64029 0.48136 0.97127 0.0
C2389 C 0.67376 0.55382 0.97954 0.0
C2390 C 0.64531 0.52954 0.93382 0.0
C2391 C 0.69006 0.56791 0.98444 0.0
C2392 C 0.6358 0.43601 0.92444 0.0
C2393 C 0.63882 0.45468 0.9357 0.0
C2394 C 0.64141 0.49475 0.96066 0.0
C2395 C 0.67108 0.54651 0.95871 0.0
C2396 C 0.65542 0.5298 0.9536 0.0
C2397 C 0.62709 0.47289 0.93075 0.0
C2398 C 0.63341 0.49355 0.93995 0.0
H2399 H 0.71131 0.5734 0.93519 0.0
H2400 H 0.68356 0.54831 0.92674 0.0
H2401 H 0.65994 0.51229 0.98277 0.0
H2402 H 0.59681 0.45264 0.89108 0.0
H2403 H 0.60183 0.48522 0.9111 0.0
C2404 C 0.6832 0.45553 0.24406 0.0
C2405 C 0.66321 0.45653 0.23452 0.0
C2406 C 0.69839 0.44144 0.23658 0.0
C2407 C 0.71325 0.41629 0.18715 0.0
H2408 H 0.75743 0.3916 0.22173 0.0
C2409 C 0.78895 0.38411 0.14946 0.0
C2410 C 0.80761 0.39187 0.15876 0.0
C2411 C 0.76965 0.38582 0.15999 0.0
C2412 C 0.74516 0.39834 0.21188 0.0
H2413 H 0.64285 0.44267 0.21063 0.0
H2414 H 0.66943 0.41793 0.19759 0.0
H2415 H 0.72553 0.40543 0.23852 0.0
H2416 H 0.82071 0.40658 0.1869 0.0
H2417 H 0.78703 0.40996 0.20501 0.0
H2418 H 0.73316 0.41018 0.16063 0.0
C2419 C 0.67345 0.42825 0.21065 0.0
C2420 C 0.72692 0.40623 0.22147 0.0
C2421 C 0.65825 0.44238 0.21813 0.0
C2422 C 0.80666 0.40056 0.1792 0.0
C2423 C 0.78735 0.40229 0.18969 0.0
C2424 C 0.73145 0.40842 0.17758 0.0
C2425 C 0.69386 0.42805 0.21943 0.0
C2426 C 0.71112 0.41595 0.20925 0.0
C2427 C 0.76859 0.39533 0.18002 0.0
C2428 C 0.7479 0.40003 0.1899 0.0
H2429 H 0.68741 0.46619 0.2568 0.0
H2430 H 0.71404 0.44188 0.24352 0.0
H2431 H 0.70151 0.42391 0.17729 0.0
H2432 H 0.78914 0.37706 0.13385 0.0
H2433 H 0.75549 0.38008 0.15225 0.0
C2434 C 0.81123 0.39709 0.47793 0.0
C2435 C 0.79931 0.40573 0.49456 0.0
C2436 C 0.82445 0.41003 0.46587 0.0
C2437 C 0.85043 0.46212 0.46482 0.0
H2438 H 0.83209 0.46502 0.40636 0.0
C2439 C 0.84424 0.53951 0.42109 0.0
C2440 C 0.84964 0.54094 0.3996 0.0
C2441 C 0.84449 0.52011 0.43139 0.0
C2442 C 0.83788 0.46411 0.42245 0.0
H2443 H 0.79269 0.43414 0.51252 0.0
H2444 H 0.81594 0.45663 0.49172 0.0
H2445 H 0.82211 0.4347 0.42798 0.0
H2446 H 0.85946 0.52295 0.37205 0.0
H2447 H 0.85951 0.4888 0.39015 0.0
H2448 H 0.86517 0.49208 0.45968 0.0
C2449 C 0.81509 0.43995 0.48793 0.0
C2450 C 0.8322 0.44675 0.43481 0.0
C2451 C 0.80163 0.42715 0.49969 0.0
C2452 C 0.85514 0.52239 0.38859 0.0
C2453 C 0.85525 0.50287 0.39893 0.0
C2454 C 0.8562 0.47939 0.45247 0.0
C2455 C 0.82625 0.43162 0.47064 0.0
C2456 C 0.83746 0.44623 0.45638 0.0
C2457 C 0.85008 0.50161 0.42047 0.0
C2458 C 0.84894 0.48109 0.43154 0.0
H2459 H 0.80968 0.38057 0.47372 0.0
H2460 H 0.83287 0.40332 0.45255 0.0
H2461 H 0.85491 0.46187 0.48136 0.0
H2462 H 0.83996 0.55343 0.43011 0.0
H2463 H 0.8399 0.51956 0.44787 0.0
C2464 C 0.81622 0.4476 0.75908 0.0
C2465 C 0.8287 0.46048 0.7722 0.0
C2466 C 0.79889 0.43675 0.7674 0.0
C2467 C 0.75962 0.44344 0.80771 0.0
H2468 H 0.74544 0.38436 0.79919 0.0
C2469 C 0.69481 0.383 0.84294 0.0
C2470 C 0.6762 0.39444 0.83876 0.0
C2471 C 0.71389 0.3889 0.83354 0.0
C2472 C 0.7493 0.40086 0.80165 0.0
H2473 H 0.83354 0.4714 0.80437 0.0
H2474 H 0.80301 0.45275 0.81876 0.0
H2475 H 0.7792 0.39823 0.7858 0.0
H2476 H 0.66293 0.42054 0.82082 0.0
H2477 H 0.6963 0.43095 0.80477 0.0
H2478 H 0.72975 0.4463 0.82318 0.0
C2479 C 0.80668 0.45104 0.80211 0.0
C2480 C 0.76847 0.40876 0.79398 0.0
C2481 C 0.82412 0.46165 0.79388 0.0
C2482 C 0.67696 0.41143 0.82447 0.0
C2483 C 0.69603 0.41745 0.81531 0.0
C2484 C 0.74041 0.43567 0.81503 0.0
C2485 C 0.7937 0.43887 0.78886 0.0
C2486 C 0.77376 0.43009 0.79707 0.0
C2487 C 0.71469 0.40646 0.82004 0.0
C2488 C 0.73508 0.41435 0.81206 0.0
H2489 H 0.81951 0.44636 0.74232 0.0
H2490 H 0.78899 0.42751 0.7569 0.0
H2491 H 0.7633 0.46 0.81007 0.0
H2492 H 0.69471 0.36972 0.85374 0.0
H2493 H 0.72815 0.38026 0.83744 0.0
C2494 C 0.80773 0.56554 0.00189 0.0
C2495 C 0.80118 0.58502 0.01017 0.0
C2496 C 0.8222 0.5531 0.01292 0.0
C2497 C 0.83721 0.54247 0.0672 0.0
H2498 H 0.87561 0.50302 0.04033 0.0
C2499 C 0.86742 0.46838 0.11059 0.0
C2500 C 0.86327 0.44989 0.09896 0.0
C2501 C 0.86659 0.48816 0.10074 0.0
C2502 C 0.86511 0.51408 0.0481 0.0
H2503 H 0.80559 0.60749 0.03572 0.0
H2504 H 0.83091 0.58569 0.05504 0.0
H2505 H 0.86205 0.53308 0.02028 0.0
H2506 H 0.85606 0.43758 0.0677 0.0
H2507 H 0.85445 0.47184 0.05075 0.0
H2508 H 0.83929 0.52284 0.09462 0.0
C2509 C 0.82469 0.57995 0.04014 0.0
C2510 C 0.85734 0.53124 0.03664 0.0
C2511 C 0.81022 0.59241 0.02908 0.0
C2512 C 0.85911 0.45151 0.0772 0.0
C2513 C 0.85848 0.47116 0.06738 0.0
C2514 C 0.84499 0.52532 0.07867 0.0
C2515 C 0.83038 0.55992 0.03245 0.0
C2516 C 0.84255 0.54502 0.04578 0.0
C2517 C 0.86189 0.48971 0.07908 0.0
C2518 C 0.8582 0.51043 0.06889 0.0
H2519 H 0.80107 0.55951 0.9873 0.0
H2520 H 0.82604 0.53762 0.0067 0.0
H2521 H 0.82573 0.55273 0.07467 0.0
H2522 H 0.87079 0.46763 0.12736 0.0
H2523 H 0.8693 0.50225 0.1101 0.0
C2524 C 0.67343 0.56331 0.2562 0.0
C2525 C 0.6543 0.55899 0.26652 0.0
C2526 C 0.6873 0.57837 0.26434 0.0
C2527 C 0.7017 0.59761 0.31628 0.0
H2528 H 0.74609 0.62519 0.2843 0.0
C2529 C 0.78109 0.6172 0.35494 0.0
C2530 C 0.79825 0.60867 0.34367 0.0
C2531 C 0.76138 0.6195 0.34528 0.0
C2532 C 0.73369 0.61775 0.29347 0.0
H2533 H 0.63356 0.56851 0.29207 0.0
H2534 H 0.65775 0.59507 0.30624 0.0
H2535 H 0.71316 0.6153 0.26666 0.0
H2536 H 0.80839 0.59695 0.31304 0.0
H2537 H 0.77399 0.60059 0.29637 0.0
H2538 H 0.72257 0.59894 0.34275 0.0
C2539 C 0.66223 0.5865 0.29211 0.0
C2540 C 0.71487 0.6121 0.2834 0.0
C2541 C 0.64838 0.57133 0.28399 0.0
C2542 C 0.79549 0.60337 0.32226 0.0
C2543 C 0.77582 0.60574 0.31261 0.0
C2544 C 0.72045 0.60333 0.32634 0.0
C2545 C 0.68225 0.58947 0.28293 0.0
C2546 C 0.69915 0.60096 0.29445 0.0
C2547 C 0.75846 0.61342 0.32413 0.0
C2548 C 0.73703 0.61247 0.31478 0.0
H2549 H 0.67831 0.55415 0.24257 0.0
H2550 H 0.70263 0.58007 0.25695 0.0
H2551 H 0.69005 0.58889 0.32528 0.0
H2552 H 0.78271 0.62168 0.3714 0.0
H2553 H 0.7483 0.62558 0.35449 0.0
C2554 C 0.68274 0.39628 0.54651 0.0
C2555 C 0.70355 0.40044 0.55312 0.0
C2556 C 0.66595 0.40824 0.55447 0.0
C2557 C 0.6409 0.44949 0.56045 0.0
H2558 H 0.64148 0.46973 0.61832 0.0
C2559 C 0.63024 0.53531 0.58244 0.0
C2560 C 0.62292 0.54108 0.60259 0.0
C2561 C 0.63119 0.51409 0.57658 0.0
C2562 C 0.64052 0.46397 0.60222 0.0
H2563 H 0.72309 0.41946 0.57388 0.0
H2564 H 0.69394 0.44018 0.58782 0.0
H2565 H 0.66053 0.43767 0.60925 0.0
H2566 H 0.60896 0.5292 0.63163 0.0
H2567 H 0.61066 0.49214 0.62131 0.0
H2568 H 0.62185 0.47648 0.55319 0.0
C2569 C 0.69048 0.4277 0.5766 0.0
C2570 C 0.65161 0.44568 0.59702 0.0
C2571 C 0.70722 0.41601 0.56845 0.0
C2572 C 0.61509 0.52528 0.61613 0.0
C2573 C 0.61599 0.50403 0.61023 0.0
C2574 C 0.62976 0.46782 0.56566 0.0
C2575 C 0.66975 0.42421 0.56943 0.0
C2576 C 0.65293 0.43903 0.57589 0.0
C2577 C 0.62476 0.49818 0.59069 0.0
C2578 C 0.63055 0.47591 0.58635 0.0
H2579 H 0.67954 0.3843 0.53468 0.0
H2580 H 0.65011 0.40532 0.54866 0.0
H2581 H 0.64161 0.44466 0.54404 0.0
H2582 H 0.63618 0.54706 0.57152 0.0
H2583 H 0.63828 0.51015 0.5615 0.0
C2584 C 0.72784 0.8197 0.53815 0.0
C2585 C 0.72064 0.82247 0.51732 0.0
C2586 C 0.71924 0.80386 0.5509 0.0
C2587 C 0.67216 0.77042 0.55668 0.0
H2588 H 0.70945 0.73164 0.58607 0.0
C2589 C 0.66801 0.68061 0.5882 0.0
C2590 C 0.64843 0.68085 0.5987 0.0
C2591 C 0.67772 0.69947 0.58221 0.0
C2592 C 0.69887 0.74243 0.57803 0.0
H2593 H 0.69882 0.81101 0.49347 0.0
H2594 H 0.68378 0.78341 0.51571 0.0
H2595 H 0.72435 0.76198 0.5673 0.0
H2596 H 0.62429 0.70121 0.61215 0.0
H2597 H 0.6413 0.73412 0.60164 0.0
H2598 H 0.64676 0.75055 0.56666 0.0
C2599 C 0.69595 0.79354 0.52225 0.0
C2600 C 0.70736 0.75984 0.56745 0.0
C2601 C 0.70466 0.80923 0.50947 0.0
C2602 C 0.63926 0.70042 0.6039 0.0
C2603 C 0.64896 0.71928 0.59785 0.0
C2604 C 0.66367 0.75312 0.56734 0.0
C2605 C 0.70315 0.7907 0.54306 0.0
C2606 C 0.6941 0.77368 0.55625 0.0
C2607 C 0.66806 0.71897 0.58658 0.0
C2608 C 0.67697 0.73869 0.57772 0.0
H2609 H 0.74016 0.82972 0.54458 0.0
H2610 H 0.725 0.80202 0.56692 0.0
H2611 H 0.66159 0.78101 0.54837 0.0
H2612 H 0.67561 0.66584 0.58406 0.0
H2613 H 0.69235 0.69874 0.57336 0.0
C2614 C 0.22548 0.65539 0.43399 0.0
C2615 C 0.22159 0.65724 0.45579 0.0
C2616 C 0.21619 0.66951 0.41978 0.0
C2617 C 0.17221 0.70695 0.41444 0.0
H2618 H 0.2096 0.739 0.37795 0.0
C2619 C 0.17606 0.79578 0.38428 0.0
C2620 C 0.15505 0.79887 0.37775 0.0
C2621 C 0.18394 0.77543 0.38717 0.0
C2622 C 0.19893 0.72998 0.38784 0.0
H2623 H 0.20473 0.67488 0.47983 0.0
H2624 H 0.18842 0.69941 0.45506 0.0
H2625 H 0.22317 0.70817 0.39691 0.0
H2626 H 0.12637 0.78295 0.36753 0.0
H2627 H 0.1402 0.74738 0.37276 0.0
H2628 H 0.1483 0.72936 0.40647 0.0
C2629 C 0.19855 0.68704 0.44893 0.0
C2630 C 0.20664 0.71231 0.39856 0.0
C2631 C 0.20802 0.67314 0.46312 0.0
C2632 C 0.14255 0.78115 0.37284 0.0
C2633 C 0.15044 0.76077 0.37581 0.0
C2634 C 0.16447 0.72451 0.40365 0.0
C2635 C 0.20262 0.68542 0.42717 0.0
C2636 C 0.19354 0.7012 0.41261 0.0
C2637 C 0.17099 0.75775 0.38362 0.0
C2638 C 0.17798 0.73669 0.39092 0.0
H2639 H 0.2359 0.64323 0.42795 0.0
H2640 H 0.21956 0.66801 0.40306 0.0
H2641 H 0.16176 0.69846 0.42501 0.0
H2642 H 0.18621 0.80908 0.38797 0.0
H2643 H 0.19979 0.77361 0.39341 0.0
C2644 C 0.57648 0.98269 0.6914 0.0
C2645 C 0.58185 0.9736 0.71093 0.0
C2646 C 0.56078 0.97358 0.67881 0.0
C2647 C 0.51626 0.96012 0.66615 0.0
H2648 H 0.50898 0.89935 0.66279 0.0
C2649 C 0.43539 0.92045 0.65681 0.0
C2650 C 0.43388 0.90148 0.64536 0.0
C2651 C 0.45499 0.93007 0.65993 0.0
C2652 C 0.51092 0.91636 0.66319 0.0
H2653 H 0.57571 0.94753 0.7323 0.0
H2654 H 0.54828 0.93173 0.71047 0.0
H2655 H 0.54182 0.91384 0.67664 0.0
H2656 H 0.45163 0.87831 0.62727 0.0
H2657 H 0.48576 0.89523 0.63263 0.0
H2658 H 0.48516 0.96262 0.65305 0.0
C2659 C 0.55626 0.94575 0.70473 0.0
C2660 C 0.52965 0.92463 0.67132 0.0
C2661 C 0.57184 0.95489 0.71733 0.0
C2662 C 0.45227 0.89276 0.63644 0.0
C2663 C 0.47184 0.90244 0.63949 0.0
C2664 C 0.49751 0.95184 0.65798 0.0
C2665 C 0.55035 0.95516 0.68551 0.0
C2666 C 0.53221 0.94656 0.67352 0.0
C2667 C 0.47345 0.92098 0.65159 0.0
C2668 C 0.4944 0.92987 0.65704 0.0
H2669 H 0.58403 -0.0029 0.68608 0.0
H2670 H 0.5566 0.98107 0.66399 0.0
H2671 H 0.51777 0.9771 0.66773 0.0
H2672 H 0.42154 0.92762 0.66385 0.0
H2673 H 0.45575 0.94419 0.66959 0.0
C2674 C 0.26904 0.34505 0.9193 0.0
C2675 C 0.27552 0.34279 0.94044 0.0
C2676 C 0.2797 0.33435 0.90318 0.0
C2677 C 0.32787 0.30237 0.89207 0.0
H2678 H 0.2893 0.26699 0.86015 0.0
C2679 C 0.32235 0.21131 0.87187 0.0
C2680 C 0.34319 0.20696 0.86564 0.0
C2681 C 0.31492 0.23202 0.87224 0.0
C2682 C 0.30032 0.27693 0.8687 0.0
H2683 H 0.29882 0.32868 0.96121 0.0
H2684 H 0.31713 0.30981 0.93332 0.0
H2685 H 0.27585 0.29795 0.87855 0.0
H2686 H 0.37209 0.22085 0.85332 0.0
H2687 H 0.35903 0.25712 0.85408 0.0
H2688 H 0.35196 0.28024 0.88397 0.0
C2689 C 0.30406 0.31999 0.92901 0.0
C2690 C 0.29266 0.29482 0.87907 0.0
C2691 C 0.2934 0.33058 0.94507 0.0
C2692 C 0.35602 0.22368 0.8585 0.0
C2693 C 0.34856 0.24446 0.85889 0.0
C2694 C 0.3355 0.28442 0.88182 0.0
C2695 C 0.29706 0.32135 0.90795 0.0
C2696 C 0.30614 0.30693 0.89193 0.0
C2697 C 0.32813 0.24889 0.86635 0.0
C2698 C 0.32153 0.27083 0.87114 0.0
H2699 H 0.25538 0.35455 0.9153 0.0
H2700 H 0.27401 0.33575 0.88708 0.0
H2701 H 0.3387 0.31174 0.90149 0.0
H2702 H 0.31195 0.19883 0.87725 0.0
H2703 H 0.2992 0.23486 0.87839 0.0
C2704 C 0.39857 0.53001 0.69071 0.0
C2705 C 0.40439 0.5132 0.70398 0.0
C2706 C 0.41298 0.53821 0.67616 0.0
C2707 C 0.46592 0.52967 0.65203 0.0
H2708 H 0.47237 0.58991 0.66145 0.0
C2709 C 0.54593 0.57076 0.65139 0.0
C2710 C 0.54783 0.5913 0.64319 0.0
C2711 C 0.52625 0.56098 0.65265 0.0
C2712 C 0.47056 0.5732 0.65818 0.0
H2713 H 0.42909 0.49065 0.71135 0.0
H2714 H 0.45434 0.5051 0.68626 0.0
H2715 H 0.4406 0.57212 0.67359 0.0
H2716 H 0.53046 0.61758 0.6296 0.0
H2717 H 0.49593 0.6005 0.63206 0.0
H2718 H 0.4965 0.53066 0.63763 0.0
C2719 C 0.43865 0.51189 0.68688 0.0
C2720 C 0.45231 0.56299 0.6651 0.0
C2721 C 0.42425 0.50371 0.7014 0.0
C2722 C 0.52954 0.60182 0.63612 0.0
C2723 C 0.50979 0.59203 0.63748 0.0
C2724 C 0.48419 0.5399 0.64512 0.0
C2725 C 0.43342 0.5297 0.67465 0.0
C2726 C 0.45021 0.54097 0.66289 0.0
C2727 C 0.50797 0.57153 0.64578 0.0
C2728 C 0.48705 0.56159 0.64895 0.0
H2729 H 0.38324 0.53747 0.69222 0.0
H2730 H 0.40845 0.55176 0.66675 0.0
H2731 H 0.46453 0.51275 0.64978 0.0
H2732 H 0.55967 0.56211 0.6569 0.0
H2733 H 0.5253 0.54535 0.65953 0.0
C2734 C 0.78883 0.1823 0.02168 0.0
C2735 C 0.77308 0.16862 0.02916 0.0
C2736 C 0.79846 0.19668 0.03533 0.0
C2737 C 0.78871 0.2265 0.08353 0.0
H2738 H 0.84828 0.23981 0.07803 0.0
C2739 C 0.85571 0.29125 0.11263 0.0
C2740 C 0.84436 0.30983 0.10817 0.0
C2741 C 0.84687 0.27147 0.10846 0.0
C2742 C 0.83172 0.23605 0.08014 0.0
H2743 H 0.75523 0.1589 0.05677 0.0
H2744 H 0.77206 0.18422 0.08067 0.0
H2745 H 0.83393 0.20902 0.05996 0.0
H2746 H 0.81427 0.3221 0.09713 0.0
H2747 H 0.79905 0.2877 0.08952 0.0
H2748 H 0.78642 0.25387 0.10331 0.0
C2749 C 0.77688 0.18383 0.06424 0.0
C2750 C 0.82346 0.21856 0.06957 0.0
C2751 C 0.7673 0.16935 0.05059 0.0
C2752 C 0.82353 0.30815 0.1006 0.0
C2753 C 0.81471 0.28838 0.09643 0.0
C2754 C 0.79697 0.24403 0.09409 0.0
C2755 C 0.79249 0.19768 0.0567 0.0
C2756 C 0.80177 0.21404 0.0706 0.0
C2757 C 0.8265 0.26988 0.09977 0.0
C2758 C 0.81842 0.24935 0.09194 0.0
H2759 H 0.79359 0.18205 0.00523 0.0
H2760 H 0.81019 0.20741 0.02899 0.0
H2761 H 0.77191 0.22339 0.08457 0.0
H2762 H 0.87171 0.29195 0.11874 0.0
H2763 H 0.8562 0.25745 0.11146 0.0
C2764 C 0.57299 0.04873 0.79106 0.0
C2765 C 0.5831 0.02962 0.79588 0.0
C2766 C 0.55811 0.0572 0.80483 0.0
C2767 C 0.51885 0.04079 0.84275 0.0
H2768 H 0.51158 0.10141 0.84795 0.0
C2769 C 0.43801 0.08029 0.84383 0.0
C2770 C 0.43527 0.09979 0.85408 0.0
C2771 C 0.45767 0.07034 0.84393 0.0
C2772 C 0.51348 0.08442 0.84719 0.0
H2773 H 0.5862 0.00465 0.81914 0.0
H2774 H 0.5597 0.01944 0.84328 0.0
H2775 H 0.54503 0.08735 0.8355 0.0
H2776 H 0.45058 0.12339 0.87378 0.0
H2777 H 0.48483 0.10586 0.87415 0.0
H2778 H 0.48704 0.03789 0.85384 0.0
C2779 C 0.56343 0.02782 0.82882 0.0
C2780 C 0.53261 0.07639 0.83985 0.0
C2781 C 0.57854 0.01941 0.81506 0.0
C2782 C 0.45229 0.10857 0.86537 0.0
C2783 C 0.47191 0.09852 0.86563 0.0
C2784 C 0.4997 0.04882 0.8502 0.0
C2785 C 0.55292 0.04669 0.82368 0.0
C2786 C 0.53509 0.05459 0.83655 0.0
C2787 C 0.47497 0.07957 0.85445 0.0
C2788 C 0.49648 0.07077 0.8515 0.0
H2789 H 0.57626 0.05697 0.77642 0.0
H2790 H 0.55001 0.07156 0.80023 0.0
H2791 H 0.52033 0.0239 0.84039 0.0
H2792 H 0.42519 0.07307 0.83506 0.0
H2793 H 0.45953 0.05594 0.83487 0.0
C2794 C 0.91095 0.96865 0.30717 0.0
C2795 C 0.91234 0.96972 0.28502 0.0
C2796 C 0.92862 0.96288 0.31919 0.0
C2797 C 0.98669 0.96046 0.3158 0.0
H2798 H 0.98289 0.91608 0.35784 0.0
C2799 C 0.04339 0.89189 0.34975 0.0
C2800 C 0.06243 0.90321 0.35137 0.0
C2801 C 0.02429 0.90253 0.34689 0.0
C2802 C 0.98418 0.92855 0.3462 0.0
H2803 H 0.93306 0.96536 0.25806 0.0
H2804 H 0.96362 0.95521 0.27887 0.0
H2805 H 0.9506 0.93013 0.34191 0.0
H2806 H 0.0762 0.93459 0.35288 0.0
H2807 H 0.04281 0.95316 0.34832 0.0
H2808 H 0.02012 0.95812 0.31889 0.0
C2809 C 0.94909 0.95912 0.28704 0.0
C2810 C 0.9657 0.93673 0.33726 0.0
C2811 C 0.93153 0.96476 0.2751 0.0
C2812 C 0.06184 0.92541 0.35125 0.0
C2813 C 0.0427 0.93605 0.34865 0.0
C2814 C 0.0051 0.95228 0.32463 0.0
C2815 C 0.94791 0.95831 0.30919 0.0
C2816 C 0.96688 0.95222 0.32142 0.0
C2817 C 0.02379 0.92472 0.34583 0.0
C2818 C 0.00411 0.93575 0.33943 0.0
H2819 H 0.89631 0.97243 0.31519 0.0
H2820 H 0.92731 0.96232 0.33625 0.0
H2821 H 0.98801 0.97268 0.30387 0.0
H2822 H 0.04331 0.87477 0.34984 0.0
H2823 H 0.01008 0.89327 0.34449 0.0
C2824 C 0.42279 0.24273 0.16564 0.0
C2825 C 0.43299 0.25695 0.15202 0.0
C2826 C 0.4092 0.25022 0.18129 0.0
C2827 C 0.38501 0.29873 0.20455 0.0
H2828 H 0.40941 0.27631 0.2561 0.0
C2829 C 0.39192 0.34688 0.28161 0.0
C2830 C 0.39162 0.33606 0.30097 0.0
C2831 C 0.39073 0.33568 0.26258 0.0
C2832 C 0.40191 0.28251 0.24201 0.0
H2833 H 0.435 0.28971 0.1422 0.0
H2834 H 0.41178 0.30286 0.16985 0.0
H2835 H 0.41586 0.25855 0.22301 0.0
H2836 H 0.38831 0.30528 0.31573 0.0
H2837 H 0.3856 0.2859 0.28272 0.0
H2838 H 0.37171 0.32325 0.22376 0.0
C2839 C 0.41406 0.28595 0.16845 0.0
C2840 C 0.40559 0.27223 0.22295 0.0
C2841 C 0.42752 0.27844 0.15268 0.0
C2842 C 0.38916 0.314 0.30101 0.0
C2843 C 0.38757 0.30289 0.28208 0.0
C2844 C 0.38118 0.309 0.22376 0.0
C2845 C 0.40581 0.27204 0.18367 0.0
C2846 C 0.39774 0.28055 0.20392 0.0
C2847 C 0.38884 0.31351 0.26262 0.0
C2848 C 0.39014 0.30132 0.24262 0.0
H2849 H 0.42645 0.22601 0.16519 0.0
H2850 H 0.40265 0.2391 0.19254 0.0
H2851 H 0.37865 0.30541 0.19013 0.0
H2852 H 0.39365 0.36391 0.28116 0.0
H2853 H 0.39204 0.34435 0.24789 0.0
C2854 C 0.46052 0.69213 0.90675 0.0
C2855 C 0.48071 0.70131 0.90734 0.0
C2856 C 0.45381 0.679 0.92316 0.0
C2857 C 0.44378 0.64813 0.95847 0.0
H2858 H 0.45829 0.67267 0.01276 0.0
C2859 C 0.42573 0.63962 0.05393 0.0
C2860 C 0.40352 0.63916 0.05353 0.0
C2861 C 0.4372 0.64183 0.03527 0.0
C2862 C 0.45438 0.66528 -0.0022 0.0
H2863 H 0.51045 0.70247 0.9243 0.0
H2864 H 0.49899 0.67906 0.95266 0.0
H2865 H 0.47538 0.68558 0.98113 0.0
H2866 H 0.37597 0.63945 0.03309 0.0
H2867 H 0.39606 0.64384 0.00045 0.0
H2868 H 0.42195 0.62848 0.97539 0.0
C2869 C 0.48807 0.68251 0.93993 0.0
C2870 C 0.46426 0.67266 0.9796 0.0
C2871 C 0.49467 0.69585 0.92367 0.0
C2872 C 0.39306 0.63988 0.03393 0.0
C2873 C 0.40457 0.64223 0.01522 0.0
C2874 C 0.43379 0.64077 0.97677 0.0
C2875 C 0.46727 0.67467 0.94032 0.0
C2876 C 0.45881 0.66448 0.95967 0.0
C2877 C 0.42674 0.64377 0.01579 0.0
C2878 C 0.43875 0.64957 -0.00343 0.0
H2879 H 0.44947 0.69604 0.89426 0.0
H2880 H 0.43764 0.67338 0.92301 0.0
H2881 H 0.43942 0.64134 0.94337 0.0
H2882 H 0.43432 0.63868 0.06872 0.0
H2883 H 0.45428 0.64257 0.03616 0.0
C2884 C 0.05279 0.69609 0.65967 0.0
C2885 C 0.04651 0.71733 0.65826 0.0
C2886 C 0.06805 0.68994 0.67436 0.0
C2887 C 0.08747 0.70684 0.72593 0.0
H2888 H 0.12539 0.6591 0.71964 0.0
C2889 C 0.12747 0.67303 0.79849 0.0
C2890 C 0.125 0.6511 0.80082 0.0
C2891 C 0.12461 0.68253 0.77885 0.0
C2892 C 0.11491 0.67249 0.7216 0.0
H2893 H 0.05232 0.74903 0.66991 0.0
H2894 H 0.07925 0.73835 0.69538 0.0
H2895 H 0.10788 0.67389 0.68848 0.0
H2896 H 0.11926 0.62168 0.78427 0.0
H2897 H 0.11346 0.63837 0.74992 0.0
H2898 H 0.09359 0.70502 0.75897 0.0
C2899 C 0.07204 0.72638 0.68547 0.0
C2900 C 0.1049 0.68095 0.70379 0.0
C2901 C 0.05667 0.7325 0.67087 0.0
C2902 C 0.12119 0.63863 0.78286 0.0
C2903 C 0.11798 0.64821 0.76319 0.0
C2904 C 0.09743 0.69843 0.74364 0.0
C2905 C 0.07742 0.70494 0.68784 0.0
C2906 C 0.09067 0.69791 0.70586 0.0
C2907 C 0.11883 0.67035 0.76119 0.0
C2908 C 0.1109 0.68087 0.74179 0.0
H2909 H 0.04528 0.68407 0.65006 0.0
H2910 H 0.07164 0.67328 0.67591 0.0
H2911 H 0.0763 0.71961 0.72821 0.0
H2912 H 0.13084 0.68295 0.81205 0.0
H2913 H 0.12593 0.69956 0.77771 0.0
C2914 C 0.01415 0.30699 0.40732 0.0
C2915 C 0.02781 0.29105 0.40013 0.0
C2916 C 0.02178 0.32309 0.42036 0.0
C2917 C 0.03884 0.33746 0.46266 0.0
H2918 H 0.09466 0.36269 0.46067 0.0
C2919 C 0.10946 0.35459 0.52423 0.0
C2920 C 0.09719 0.36035 0.54174 0.0
C2921 C 0.10035 0.35375 0.50413 0.0
C2922 C 0.07903 0.35578 0.46147 0.0
H2923 H 0.06035 0.28036 0.3993 0.0
H2924 H 0.07362 0.30832 0.42219 0.0
H2925 H 0.07942 0.34729 0.42864 0.0
H2926 H 0.06662 0.37184 0.55198 0.0
H2927 H 0.05096 0.37138 0.51682 0.0
H2928 H 0.03886 0.34412 0.49558 0.0
C2929 C 0.05709 0.30849 0.41774 0.0
C2930 C 0.07027 0.34712 0.44312 0.0
C2931 C 0.04944 0.29233 0.40485 0.0
C2932 C 0.07622 0.36682 0.53871 0.0
C2933 C 0.06727 0.36652 0.51858 0.0
C2934 C 0.04764 0.34584 0.481 0.0
C2935 C 0.04319 0.32357 0.42623 0.0
C2936 C 0.05042 0.3372 0.44377 0.0
C2937 C 0.07894 0.35913 0.50117 0.0
C2938 C 0.06818 0.35437 0.48084 0.0
H2939 H -0.00258 0.30647 0.40372 0.0
H2940 H 0.01078 0.33462 0.42662 0.0
H2941 H 0.02362 0.32966 0.46372 0.0
H2942 H 0.12573 0.34966 0.52625 0.0
H2943 H 0.1098 0.34775 0.4912 0.0
C2944 C 0.43463 0.74244 0.32042 0.0
C2945 C 0.44661 0.7279 0.33212 0.0
C2946 C 0.41944 0.73531 0.30605 0.0
C2947 C 0.3903 0.68765 0.28746 0.0
H2948 H 0.4008 0.71162 0.2321 0.0
C2949 C 0.38083 0.64131 0.20997 0.0
C2950 C 0.37694 0.65252 0.19125 0.0
C2951 C 0.38235 0.65209 0.22922 0.0
C2952 C 0.3971 0.70502 0.24745 0.0
H2953 H 0.45125 0.69466 0.33908 0.0
H2954 H 0.42509 0.68223 0.31379 0.0
H2955 H 0.41578 0.72839 0.26299 0.0
H2956 H 0.36935 0.68321 0.17806 0.0
H2957 H 0.37123 0.70187 0.21164 0.0
H2958 H 0.37229 0.66371 0.27163 0.0
C2959 C 0.42718 0.6991 0.3158 0.0
C2960 C 0.40575 0.71469 0.26523 0.0
C2961 C 0.44235 0.70622 0.33011 0.0
C2962 C 0.37289 0.67431 0.19226 0.0
C2963 C 0.37398 0.68498 0.21148 0.0
C2964 C 0.38152 0.67799 0.26962 0.0
C2965 C 0.41598 0.71354 0.3032 0.0
C2966 C 0.40308 0.70571 0.28532 0.0
C2967 C 0.37964 0.67417 0.23003 0.0
C2968 C 0.38544 0.68618 0.24934 0.0
H2969 H 0.43744 0.75927 0.32185 0.0
H2970 H 0.41088 0.74679 0.29668 0.0
H2971 H 0.38776 0.68056 0.30283 0.0
H2972 H 0.3839 0.62448 0.20956 0.0
H2973 H 0.3869 0.64328 0.24316 0.0
C2974 C -0.00062 0.7027 0.06438 0.0
C2975 C 0.01263 0.70675 0.0817 0.0
C2976 C 0.0062 0.68968 0.04796 0.0
C2977 C 0.03155 0.67934 0.00935 0.0
H2978 H 0.07066 0.63247 0.01477 0.0
C2979 C 0.10357 0.64336 0.95839 0.0
C2980 C 0.09423 0.64355 0.93822 0.0
C2981 C 0.09115 0.64608 0.97644 0.0
C2982 C 0.05972 0.64552 0.01306 0.0
H2983 H 0.04282 0.69946 0.09618 0.0
H2984 H 0.0551 0.67736 0.06717 0.0
H2985 H 0.05228 0.64577 0.04609 0.0
H2986 H 0.06439 0.64516 0.92128 0.0
H2987 H 0.04284 0.64974 0.95271 0.0
H2988 H 0.03936 0.67963 0.97658 0.0
C2989 C 0.03928 0.68383 0.06638 0.0
C2990 C 0.04922 0.65312 0.03095 0.0
C2991 C 0.03234 0.69666 0.08292 0.0
C2992 C 0.07215 0.64539 0.93655 0.0
C2993 C 0.05978 0.64797 0.95455 0.0
C2994 C 0.04194 0.67171 0.99154 0.0
C2995 C 0.02653 0.68072 0.04843 0.0
C2996 C 0.03538 0.67044 0.02933 0.0
C2997 C 0.06919 0.64892 0.97463 0.0
C2998 C 0.05646 0.65503 0.99326 0.0
H2999 H 0.98395 0.71004 0.06324 0.0
H3000 H -0.00417 0.68721 0.03456 0.0
H3001 H 0.02137 0.69297 0.00755 0.0
H3002 H 0.12052 0.64185 0.96021 0.0
H3003 H 0.09886 0.64694 0.99171 0.0
C3004 C 0.04061 0.2833 0.82471 0.0
C3005 C 0.03311 0.26244 0.82556 0.0
C3006 C 0.05399 0.28965 0.8084 0.0
C3007 C 0.06535 0.27598 0.7536 0.0
H3008 H 0.10791 0.3198 0.75908 0.0
C3009 C 0.10219 0.31331 0.68028 0.0
C3010 C 0.10177 0.33553 0.68011 0.0
C3011 C 0.09915 0.30222 0.69905 0.0
C3012 C 0.09609 0.30752 0.75735 0.0
H3013 H 0.03466 0.23151 0.81088 0.0
H3014 H 0.05827 0.24254 0.78246 0.0
H3015 H 0.09301 0.30356 0.79082 0.0
H3016 H 0.09901 0.36353 0.69975 0.0
H3017 H 0.0932 0.34411 0.73249 0.0
H3018 H 0.06778 0.28037 0.72027 0.0
C3019 C 0.05349 0.25408 0.79416 0.0
C3020 C 0.08758 0.29824 0.77547 0.0
C3021 C 0.04001 0.24777 0.81042 0.0
C3022 C 0.0993 0.34642 0.69932 0.0
C3023 C 0.09615 0.33529 0.71811 0.0
C3024 C 0.07388 0.28519 0.73553 0.0
C3025 C 0.0602 0.27522 0.79269 0.0
C3026 C 0.07171 0.28277 0.77377 0.0
C3027 C 0.09553 0.31308 0.71805 0.0
C3028 C 0.08893 0.30143 0.73722 0.0
H3029 H 0.03559 0.29492 0.83624 0.0
H3030 H 0.05863 0.3061 0.80757 0.0
H3031 H 0.05292 0.26436 0.75171 0.0
H3032 H 0.10446 0.30441 0.66582 0.0
H3033 H 0.09911 0.2851 0.6986 0.0
C3034 C 0.49262 0.29847 0.56311 0.0
C3035 C 0.48369 0.29571 0.58321 0.0
C3036 C 0.48426 0.31336 0.54921 0.0
C3037 C 0.43349 0.3353 0.5364 0.0
H3038 H 0.46577 0.36459 0.49335 0.0
C3039 C 0.39512 0.36081 0.45813 0.0
C3040 C 0.40655 0.35395 0.44034 0.0
C3041 C 0.40456 0.36106 0.47811 0.0
C3042 C 0.45652 0.35662 0.50535 0.0
H3043 H 0.46002 0.30724 0.60516 0.0
H3044 H 0.44519 0.33316 0.58064 0.0
H3045 H 0.48348 0.35217 0.52533 0.0
H3046 H 0.43713 0.34268 0.42955 0.0
H3047 H 0.45331 0.34266 0.46424 0.0
H3048 H 0.40686 0.33839 0.51589 0.0
C3049 C 0.45861 0.32377 0.57568 0.0
C3050 C 0.46663 0.34959 0.52363 0.0
C3051 C 0.46708 0.30895 0.58966 0.0
C3052 C 0.42778 0.34793 0.44288 0.0
C3053 C 0.43718 0.34821 0.46278 0.0
C3054 C 0.4234 0.34225 0.51808 0.0
C3055 C 0.46676 0.32569 0.55512 0.0
C3056 C 0.4554 0.33798 0.53884 0.0
C3057 C 0.42563 0.35453 0.48065 0.0
C3058 C 0.43504 0.35205 0.50193 0.0
H3059 H 0.50554 0.28857 0.55781 0.0
H3060 H 0.49071 0.31428 0.53338 0.0
H3061 H 0.42445 0.32626 0.54779 0.0
H3062 H 0.37878 0.36576 0.4567 0.0
H3063 H 0.39531 0.36609 0.49159 0.0
C3064 C 0.16478 0.43674 0.27698 0.0
C3065 C 0.16999 0.44855 0.25892 0.0
C3066 C 0.17939 0.42276 0.28576 0.0
C3067 C 0.21875 0.4098 0.3095 0.0
H3068 H 0.2592 0.3778 0.27642 0.0
C3069 C 0.31008 0.38569 0.31713 0.0
C3070 C 0.31088 0.37851 0.33815 0.0
C3071 C 0.29075 0.38829 0.30691 0.0
C3072 C 0.24794 0.38658 0.28586 0.0
H3073 H 0.19412 0.4544 0.23533 0.0
H3074 H 0.21983 0.43031 0.2509 0.0
H3075 H 0.22852 0.39352 0.25902 0.0
H3076 H 0.29198 0.36728 0.3645 0.0
H3077 H 0.25813 0.3719 0.34655 0.0
H3078 H 0.23856 0.4037 0.33615 0.0
C3079 C 0.20437 0.43159 0.25812 0.0
C3080 C 0.23043 0.39559 0.27591 0.0
C3081 C 0.18973 0.44554 0.24931 0.0
C3082 C 0.29192 0.37304 0.34837 0.0
C3083 C 0.27253 0.3757 0.33813 0.0
C3084 C 0.23623 0.40079 0.31943 0.0
C3085 C 0.19949 0.42037 0.27667 0.0
C3086 C 0.21604 0.40786 0.28753 0.0
C3087 C 0.27176 0.38377 0.31745 0.0
C3088 C 0.25137 0.3897 0.3076 0.0
H3089 H 0.14957 0.4386 0.2846 0.0
H3090 H 0.1751 0.41413 0.2999 0.0
H3091 H 0.20808 0.41935 0.31887 0.0
H3092 H 0.32436 0.38987 0.30869 0.0
H3093 H 0.29069 0.3948 0.29108 0.0
C3094 C 0.29413 0.42939 -0.0041 0.0
C3095 C 0.28581 0.41444 0.01001 0.0
C3096 C 0.30753 0.44532 0.0032 0.0
C3097 C 0.33924 0.46318 0.04935 0.0
H3098 H 0.32141 0.51879 0.03088 0.0
C3099 C 0.3513 0.53913 0.0981 0.0
C3100 C 0.35402 0.55831 0.08728 0.0
C3101 C 0.34821 0.52036 0.08687 0.0
C3102 C 0.32699 0.50341 0.0359 0.0
H3103 H 0.28576 0.40368 0.04255 0.0
H3104 H 0.30878 0.43175 0.05541 0.0
H3105 H 0.3067 0.48772 0.01401 0.0
H3106 H 0.35746 0.57263 0.05628 0.0
H3107 H 0.35244 0.5399 0.03678 0.0
H3108 H 0.35899 0.47907 0.07184 0.0
C3109 C 0.30522 0.43105 0.03867 0.0
C3110 C 0.31854 0.48556 0.0262 0.0
C3111 C 0.29187 0.41509 0.03135 0.0
C3112 C 0.35494 0.55816 0.06508 0.0
C3113 C 0.35207 0.53942 0.05389 0.0
C3114 C 0.34775 0.4811 0.05908 0.0
C3115 C 0.31279 0.44661 0.02476 0.0
C3116 C 0.32419 0.46526 0.03313 0.0
C3117 C 0.348 0.52044 0.06464 0.0
C3118 C 0.34134 0.50139 0.05275 0.0
H3119 H 0.2899 0.4291 0.9793 0.0
H3120 H 0.31336 0.45694 0.99207 0.0
H3121 H 0.34407 0.4477 0.05483 0.0
H3122 H 0.35061 0.53874 0.11521 0.0
H3123 H 0.34493 0.50602 0.09561 0.0
C3124 C 0.34899 0.56515 0.79395 0.0
C3125 C 0.34077 0.55474 0.77611 0.0
C3126 C 0.33778 0.5817 0.8033 0.0
C3127 C 0.29028 0.616 0.79714 0.0
H3128 H 0.27877 0.5986 0.85476 0.0
C3129 C 0.20803 0.61313 0.83116 0.0
C3130 C 0.20432 0.61681 0.85275 0.0
C3131 C 0.22843 0.61415 0.82302 0.0
C3132 C 0.28211 0.60421 0.83894 0.0
H3133 H 0.31557 0.55464 0.75289 0.0
H3134 H 0.29592 0.58323 0.76926 0.0
H3135 H 0.31011 0.58555 0.83699 0.0
H3136 H 0.21912 0.62524 0.88258 0.0
H3137 H 0.25498 0.62664 0.86828 0.0
H3138 H 0.26134 0.63341 0.79867 0.0
C3139 C 0.31101 0.57883 0.77603 0.0
C3140 C 0.30014 0.59675 0.82872 0.0
C3141 C 0.32214 0.56225 0.76677 0.0
C3142 C 0.22146 0.62212 0.86591 0.0
C3143 C 0.24197 0.62302 0.85774 0.0
C3144 C 0.27225 0.62347 0.80736 0.0
C3145 C 0.31828 0.58815 0.79487 0.0
C3146 C 0.30368 0.60152 0.80732 0.0
C3147 C 0.24565 0.61882 0.83625 0.0
C3148 C 0.26736 0.61657 0.8279 0.0
H3149 H 0.36347 0.55979 0.80133 0.0
H3150 H 0.34381 0.58873 0.81772 0.0
H3151 H 0.29289 0.62027 0.78076 0.0
H3152 H 0.1952 0.60921 0.82051 0.0
H3153 H 0.23078 0.6104 0.80648 0.0
C3154 C 0.19186 0.57691 0.53726 0.0
C3155 C 0.19677 0.57932 0.51576 0.0
C3156 C 0.17553 0.56352 0.54349 0.0
C3157 C 0.15194 0.51488 0.5258 0.0
H3158 H 0.11864 0.52119 0.57686 0.0
C3159 C 0.12004 0.44173 0.56607 0.0
C3160 C 0.12456 0.44083 0.58777 0.0
C3161 C 0.12045 0.46097 0.55541 0.0
C3162 C 0.12777 0.5192 0.56253 0.0
H3163 H 0.18761 0.57087 0.48382 0.0
H3164 H 0.15907 0.54721 0.49476 0.0
H3165 H 0.13488 0.55227 0.56065 0.0
H3166 H 0.13158 0.45926 0.61574 0.0
H3167 H 0.1335 0.49289 0.59696 0.0
H3168 H 0.14632 0.48185 0.52828 0.0
C3169 C 0.16797 0.55559 0.50676 0.0
C3170 C 0.13698 0.53699 0.55322 0.0
C3171 C 0.1843 0.56906 0.50052 0.0
C3172 C 0.12818 0.45961 0.59895 0.0
C3173 C 0.12905 0.47887 0.58819 0.0
C3174 C 0.14289 0.49715 0.53513 0.0
C3175 C 0.16383 0.55224 0.52834 0.0
C3176 C 0.14986 0.53483 0.53525 0.0
C3177 C 0.12592 0.47963 0.56614 0.0
C3178 C 0.13141 0.49897 0.55408 0.0
H3179 H 0.20109 0.5848 0.54934 0.0
H3180 H 0.17294 0.56106 0.56023 0.0
H3181 H 0.16199 0.51263 0.51212 0.0
H3182 H 0.11668 0.42744 0.55721 0.0
H3183 H 0.11739 0.46107 0.53856 0.0
C3184 C 0.15071 0.56185 0.2036 0.0
C3185 C 0.15783 0.55003 0.221 0.0
C3186 C 0.16331 0.57785 0.19509 0.0
C3187 C 0.21253 0.60899 0.20343 0.0
H3188 H 0.22268 0.59605 0.14437 0.0
C3189 C 0.29405 0.61178 0.16661 0.0
C3190 C 0.29677 0.61653 0.14508 0.0
C3191 C 0.27396 0.61143 0.17555 0.0
C3192 C 0.21976 0.60041 0.16067 0.0
H3193 H 0.18277 0.5468 0.24428 0.0
H3194 H 0.20484 0.57454 0.22939 0.0
H3195 H 0.1916 0.58186 0.16175 0.0
H3196 H 0.2805 0.62569 0.11629 0.0
H3197 H 0.2452 0.62492 0.13199 0.0
H3198 H 0.24141 0.6266 0.20256 0.0
C3199 C 0.18951 0.57161 0.22233 0.0
C3200 C 0.20189 0.59225 0.17067 0.0
C3201 C 0.17696 0.55557 0.23076 0.0
C3202 C 0.27893 0.62176 0.13287 0.0
C3203 C 0.25873 0.62135 0.14185 0.0
C3204 C 0.23037 0.61723 0.1934 0.0
C3205 C 0.18318 0.58236 0.20393 0.0
C3206 C 0.19867 0.59559 0.1924 0.0
C3207 C 0.25603 0.61583 0.16321 0.0
C3208 C 0.23472 0.61209 0.17221 0.0
H3209 H 0.13591 0.55803 0.19586 0.0
H3210 H 0.15796 0.58603 0.18104 0.0
H3211 H 0.21022 0.61213 0.22011 0.0
H3212 H 0.30741 0.60786 0.17657 0.0
H3213 H 0.27245 0.60674 0.19194 0.0
C3214 C 0.18038 0.41026 0.95967 0.0
C3215 C 0.18895 0.40859 0.98008 0.0
C3216 C 0.1671 0.42707 0.95455 0.0
C3217 C 0.13759 0.46385 0.94689 0.0
H3218 H 0.16498 0.51513 0.96634 0.0
C3219 C 0.1403 0.56015 0.931 0.0
C3220 C 0.14128 0.55987 0.90879 0.0
C3221 C 0.13964 0.54132 0.9424 0.0
C3222 C 0.15672 0.50108 0.96108 0.0
H3223 H 0.18854 0.42168 0.01175 0.0
H3224 H 0.16501 0.45092 0.00289 0.0
H3225 H 0.17395 0.48174 0.98256 0.0
H3226 H 0.14148 0.53958 0.88112 0.0
H3227 H 0.14101 0.50667 0.90108 0.0
H3228 H 0.12118 0.48335 0.92458 0.0
C3229 C 0.16898 0.43956 0.99071 0.0
C3230 C 0.16183 0.48185 0.97046 0.0
C3231 C 0.1824 0.4228 0.9958 0.0
C3232 C 0.14085 0.54034 0.89822 0.0
C3233 C 0.14034 0.52148 0.90966 0.0
C3234 C 0.13247 0.48316 0.93746 0.0
C3235 C 0.16206 0.44246 0.96978 0.0
C3236 C 0.15291 0.46293 0.96298 0.0
C3237 C 0.14011 0.52177 0.93189 0.0
C3238 C 0.14254 0.50187 0.944 0.0
H3239 H 0.18503 0.3994 0.94728 0.0
H3240 H 0.16218 0.42886 0.93824 0.0
H3241 H 0.13022 0.44956 0.941 0.0
H3242 H 0.14021 0.57493 0.93965 0.0
H3243 H 0.13914 0.54207 0.95951 0.0
C3244 C 0.30682 0.44697 0.74953 0.0
C3245 C 0.32429 0.45193 0.73683 0.0
C3246 C 0.29078 0.434 0.74177 0.0
C3247 C 0.27507 0.3993 0.69667 0.0
H3248 H 0.22001 0.42392 0.70743 0.0
C3249 C 0.20243 0.3894 0.64206 0.0
C3250 C 0.18241 0.38819 0.6516 0.0
C3251 C 0.2205 0.39245 0.65441 0.0
C3252 C 0.23519 0.41654 0.70455 0.0
H3253 H 0.33946 0.44628 0.70664 0.0
H3254 H 0.31107 0.42428 0.69272 0.0
H3255 H 0.25057 0.43725 0.72618 0.0
H3256 H 0.16583 0.38778 0.68168 0.0
H3257 H 0.19729 0.393 0.70307 0.0
H3258 H 0.25947 0.37922 0.6742 0.0
C3259 C 0.30988 0.43 0.70882 0.0
C3260 C 0.25276 0.42415 0.71538 0.0
C3261 C 0.32608 0.44274 0.71671 0.0
C3262 C 0.18096 0.38906 0.67376 0.0
C3263 C 0.19898 0.39202 0.68606 0.0
C3264 C 0.25741 0.39173 0.6857 0.0
C3265 C 0.29174 0.42603 0.72103 0.0
C3266 C 0.27296 0.41588 0.71134 0.0
C3267 C 0.21885 0.39427 0.67649 0.0
C3268 C 0.23737 0.40053 0.68934 0.0
H3269 H 0.30526 0.45359 0.76525 0.0
H3270 H 0.27725 0.43082 0.75176 0.0
H3271 H 0.29039 0.39243 0.69338 0.0
H3272 H 0.2041 0.38865 0.62504 0.0
H3273 H 0.23562 0.39431 0.6466 0.0
C3274 C 0.30999 0.58066 0.46252 0.0
C3275 C 0.29658 0.57472 0.47918 0.0
C3276 C 0.32439 0.56624 0.45412 0.0
C3277 C 0.33723 0.52737 0.42928 0.0
H3278 H 0.36619 0.48466 0.46232 0.0
C3279 C 0.35733 0.43512 0.42062 0.0
C3280 C 0.36519 0.43425 0.39986 0.0
C3281 C 0.35518 0.45442 0.43097 0.0
C3282 C 0.35826 0.49654 0.45288 0.0
H3283 H 0.28845 0.54952 0.50092 0.0
H3284 H 0.3134 0.52422 0.48609 0.0
H3285 H 0.35099 0.51541 0.48003 0.0
H3286 H 0.3779 0.45297 0.37406 0.0
H3287 H 0.37406 0.4868 0.39225 0.0
H3288 H 0.34343 0.50806 0.4023 0.0
C3289 C 0.31296 0.54007 0.47963 0.0
C3290 C 0.34959 0.51411 0.46301 0.0
C3291 C 0.29854 0.55448 0.48801 0.0
C3292 C 0.3716 0.4531 0.38997 0.0
C3293 C 0.3694 0.47247 0.40037 0.0
C3294 C 0.34583 0.50979 0.41917 0.0
C3295 C 0.32566 0.54564 0.46228 0.0
C3296 C 0.33834 0.5293 0.45139 0.0
C3297 C 0.36085 0.47333 0.42085 0.0
C3298 C 0.35574 0.49381 0.43096 0.0
H3299 H 0.30894 0.59625 0.45554 0.0
H3300 H 0.33414 0.57101 0.44088 0.0
H3301 H 0.32847 0.53871 0.41991 0.0
H3302 H 0.35238 0.42092 0.42881 0.0
H3303 H 0.34821 0.45455 0.44661 0.0
C3304 C 0.2613 0.17291 0.42985 0.0
C3305 C 0.27078 0.15353 0.43491 0.0
C3306 C 0.27052 0.18621 0.41491 0.0
C3307 C 0.32326 0.19914 0.39734 0.0
H3308 H 0.29317 0.24159 0.365 0.0
C3309 C 0.36347 0.27676 0.37302 0.0
C3310 C 0.35179 0.29468 0.37911 0.0
C3311 C 0.35391 0.25686 0.37238 0.0
C3312 C 0.30182 0.22974 0.37382 0.0
H3313 H 0.29619 0.13192 0.42706 0.0
H3314 H 0.31235 0.15524 0.40088 0.0
H3315 H 0.27469 0.20967 0.37641 0.0
H3316 H 0.32069 0.30581 0.38846 0.0
H3317 H 0.30426 0.27117 0.38772 0.0
H3318 H 0.35 0.21968 0.39588 0.0
C3319 C 0.29796 0.16025 0.40866 0.0
C3320 C 0.29127 0.21149 0.38031 0.0
C3321 C 0.28871 0.14692 0.42362 0.0
C3322 C 0.33022 0.29235 0.38386 0.0
C3323 C 0.3207 0.2725 0.38316 0.0
C3324 C 0.3338 0.21736 0.39084 0.0
C3325 C 0.2894 0.18037 0.40476 0.0
C3326 C 0.30162 0.19651 0.39302 0.0
C3327 C 0.3325 0.25451 0.37771 0.0
C3328 C 0.32289 0.2333 0.37991 0.0
H3329 H 0.24738 0.17831 0.4382 0.0
H3330 H 0.26364 0.20168 0.41247 0.0
H3331 H 0.33166 0.18801 0.40726 0.0
H3332 H 0.38006 0.27802 0.36904 0.0
H3333 H 0.36336 0.24326 0.36804 0.0
C3334 C 0.80084 0.34585 0.58602 0.0
C3335 C 0.78141 0.33887 0.57781 0.0
C3336 C 0.81128 0.33406 0.60147 0.0
C3337 C 0.80583 0.28745 0.63701 0.0
H3338 H 0.86054 0.27221 0.61405 0.0
C3339 C 0.83323 0.20352 0.62919 0.0
C3340 C 0.85475 0.19816 0.62984 0.0
C3341 C 0.82684 0.22433 0.63224 0.0
C3342 C 0.84564 0.27661 0.62123 0.0
H3343 H 0.75684 0.31513 0.58038 0.0
H3344 H 0.77515 0.29437 0.607 0.0
H3345 H 0.84351 0.30447 0.6024 0.0
H3346 H 0.8864 0.21024 0.63534 0.0
H3347 H 0.87514 0.24692 0.64023 0.0
H3348 H 0.80734 0.25861 0.6546 0.0
C3349 C 0.78229 0.30902 0.60177 0.0
C3350 C 0.83583 0.29515 0.61454 0.0
C3351 C 0.7719 0.32076 0.5863 0.0
C3352 C 0.8697 0.21393 0.63454 0.0
C3353 C 0.86329 0.23489 0.63742 0.0
C3354 C 0.81565 0.2689 0.64373 0.0
C3355 C 0.80241 0.31516 0.60899 0.0
C3356 C 0.81525 0.30001 0.62132 0.0
C3357 C 0.84181 0.24032 0.6359 0.0
C3358 C 0.835 0.26265 0.63481 0.0
H3359 H 0.80839 0.35994 0.57991 0.0
H3360 H 0.8267 0.33922 0.60687 0.0
H3361 H 0.79015 0.2911 0.64284 0.0
H3362 H 0.82126 0.19171 0.62591 0.0
H3363 H 0.81021 0.22802 0.63057 0.0
C3364 C 0.43468 0.00966 0.30975 0.0
C3365 C 0.41541 0.01841 0.30313 0.0
C3366 C 0.4472 0.02019 0.32455 0.0
C3367 C 0.45863 0.07366 0.34237 0.0
H3368 H 0.49485 0.04434 0.38218 0.0
C3369 C 0.5304 0.11506 0.37954 0.0
C3370 C 0.5491 0.10358 0.37609 0.0
C3371 C 0.51071 0.10523 0.37727 0.0
C3372 C 0.48471 0.05278 0.37127 0.0
H3373 H 0.39362 0.04451 0.30745 0.0
H3374 H 0.41557 0.06295 0.33334 0.0
H3375 H 0.46563 0.02544 0.36542 0.0
H3376 H 0.56186 0.0725 0.36911 0.0
H3377 H 0.52776 0.05555 0.36501 0.0
H3378 H 0.47833 0.10066 0.34732 0.0
C3379 C 0.42106 0.04805 0.32695 0.0
C3380 C 0.46804 0.04197 0.36165 0.0
C3381 C 0.40851 0.03749 0.31215 0.0
C3382 C 0.54775 0.08187 0.3716 0.0
C3383 C 0.52817 0.07206 0.36952 0.0
C3384 C 0.47529 0.08447 0.35198 0.0
C3385 C 0.4407 0.03969 0.33303 0.0
C3386 C 0.45539 0.05206 0.34645 0.0
C3387 C 0.50944 0.08373 0.37179 0.0
C3388 C 0.48904 0.07388 0.36583 0.0
H3389 H 0.44035 0.99494 0.30311 0.0
H3390 H 0.4624 0.01348 0.32866 0.0
H3391 H 0.44925 0.08186 0.33062 0.0
H3392 H 0.53095 0.13179 0.38313 0.0
H3393 H 0.4965 0.11456 0.37922 0.0
C3394 C 0.70691 0.66209 0.03105 0.0
C3395 C 0.72835 0.66223 0.02539 0.0
C3396 C 0.69873 0.67797 0.04398 0.0
C3397 C 0.68616 0.71017 0.07732 0.0
H3398 H 0.70444 0.76622 0.06067 0.0
C3399 C 0.67101 0.8047 0.09546 0.0
C3400 C 0.64886 0.80533 0.09405 0.0
C3401 C 0.68185 0.78585 0.09221 0.0
C3402 C 0.69943 0.75071 0.06589 0.0
H3403 H 0.75837 0.67818 0.02979 0.0
H3404 H 0.74417 0.70575 0.05266 0.0
H3405 H 0.72175 0.73557 0.04573 0.0
H3406 H 0.62058 0.78648 0.08951 0.0
H3407 H 0.63964 0.75349 0.08319 0.0
H3408 H 0.66323 0.7256 0.09694 0.0
C3409 C 0.73357 0.69367 0.04674 0.0
C3410 C 0.70939 0.73309 0.05731 0.0
C3411 C 0.74171 0.67789 0.03369 0.0
C3412 C 0.63767 0.78646 0.09057 0.0
C3413 C 0.64858 0.76756 0.0871 0.0
C3414 C 0.67612 0.72788 0.08591 0.0
C3415 C 0.71189 0.69419 0.05157 0.0
C3416 C 0.70268 0.71263 0.06266 0.0
C3417 C 0.6708 0.76725 0.08725 0.0
C3418 C 0.68249 0.74832 0.08003 0.0
H3419 H 0.69629 0.65013 0.02492 0.0
H3420 H 0.68192 0.67805 0.04721 0.0
H3421 H 0.6808 0.69458 0.08191 0.0
H3422 H 0.68005 0.81891 0.0986 0.0
H3423 H 0.69895 0.78598 0.09291 0.0
C3424 C 0.59476 0.46621 0.31572 0.0
C3425 C 0.58745 0.48354 0.30393 0.0
C3426 C 0.58154 0.45634 0.33037 0.0
C3427 C 0.52964 0.46063 0.35773 0.0
H3428 H 0.52476 0.40121 0.34345 0.0
C3429 C 0.45104 0.41741 0.35529 0.0
C3430 C 0.44978 0.39585 0.36047 0.0
C3431 C 0.47038 0.42791 0.3557 0.0
C3432 C 0.52617 0.41762 0.34814 0.0
H3433 H 0.56132 0.50521 0.29936 0.0
H3434 H 0.53819 0.48791 0.32467 0.0
H3435 H 0.55543 0.42106 0.33173 0.0
H3436 H 0.46784 0.36861 0.37094 0.0
H3437 H 0.50178 0.38705 0.37144 0.0
H3438 H 0.4997 0.45738 0.37311 0.0
C3439 C 0.55413 0.48197 0.3228 0.0
C3440 C 0.54379 0.42902 0.34143 0.0
C3441 C 0.56731 0.49178 0.30813 0.0
C3442 C 0.46828 0.38518 0.36667 0.0
C3443 C 0.48771 0.39572 0.367 0.0
C3444 C 0.51201 0.44921 0.36447 0.0
C3445 C 0.56083 0.4637 0.33352 0.0
C3446 C 0.54521 0.45086 0.34529 0.0
C3447 C 0.48896 0.41714 0.36127 0.0
C3448 C 0.50964 0.42784 0.35885 0.0
H3449 H 0.61032 0.45965 0.31292 0.0
H3450 H 0.58718 0.44242 0.33858 0.0
H3451 H 0.53053 0.47736 0.36126 0.0
H3452 H 0.43712 0.42619 0.35059 0.0
H3453 H 0.47085 0.44431 0.35081 0.0
C3454 C 0.24857 0.82996 0.92932 0.0
C3455 C 0.2335 0.84404 0.93742 0.0
C3456 C 0.24262 0.81453 0.91474 0.0
C3457 C 0.22126 0.7735 0.90532 0.0
H3458 H 0.1743 0.77534 0.86593 0.0
C3459 C 0.14874 0.71632 0.88189 0.0
C3460 C 0.15966 0.69703 0.88173 0.0
C3461 C 0.15992 0.73539 0.88188 0.0
C3462 C 0.18747 0.77461 0.87686 0.0
H3463 H 0.20095 0.85449 0.93523 0.0
H3464 H 0.19033 0.82708 0.91044 0.0
H3465 H 0.19126 0.80828 0.87713 0.0
H3466 H 0.19058 0.6824 0.87937 0.0
H3467 H 0.20999 0.71554 0.87876 0.0
H3468 H 0.21695 0.74018 0.9061 0.0
C3469 C 0.20681 0.82806 0.91497 0.0
C3470 C 0.1972 0.79343 0.88321 0.0
C3471 C 0.21284 0.84367 0.92934 0.0
C3472 C 0.18179 0.69708 0.8801 0.0
C3473 C 0.1929 0.71606 0.87971 0.0
C3474 C 0.21158 0.75481 0.89902 0.0
C3475 C 0.22141 0.81271 0.9083 0.0
C3476 C 0.21381 0.79308 0.898 0.0
C3477 C 0.18217 0.73541 0.88137 0.0
C3478 C 0.1942 0.75515 0.8852 0.0
H3479 H 0.26472 0.83019 0.93502 0.0
H3480 H 0.25435 0.80323 0.90948 0.0
H3481 H 0.23367 0.77259 0.91708 0.0
H3482 H 0.13166 0.71665 0.88297 0.0
H3483 H 0.15118 0.75002 0.88335 0.0
C3484 C 0.40571 0.95859 0.18782 0.0
C3485 C 0.41356 0.97424 0.20151 0.0
C3486 C 0.418 0.95124 0.17104 0.0
C3487 C 0.46636 0.96164 0.13978 0.0
H3488 H 0.47487 0.90112 0.1443 0.0
C3489 C 0.54597 0.92299 0.12709 0.0
C3490 C 0.54757 0.90189 0.12032 0.0
C3491 C 0.52631 0.93254 0.12941 0.0
C3492 C 0.47236 0.91792 0.14226 0.0
H3493 H 0.43977 0.99544 0.20768 0.0
H3494 H 0.46131 0.98255 0.17845 0.0
H3495 H 0.44533 0.9175 0.16246 0.0
H3496 H 0.52972 0.87473 0.10928 0.0
H3497 H 0.49518 0.89154 0.11335 0.0
H3498 H 0.49399 0.96216 0.12031 0.0
C3499 C 0.44562 0.97603 0.18058 0.0
C3500 C 0.45541 0.92733 0.15274 0.0
C3501 C 0.43339 0.98327 0.19744 0.0
C3502 C 0.52903 0.89093 0.11477 0.0
C3503 C 0.50926 0.90054 0.11711 0.0
C3504 C 0.48323 0.95221 0.12914 0.0
C3505 C 0.43828 0.95955 0.16758 0.0
C3506 C 0.45287 0.94938 0.15242 0.0
C3507 C 0.50769 0.92128 0.12495 0.0
C3508 C 0.48702 0.9304 0.13118 0.0
H3509 H 0.39038 0.95146 0.19051 0.0
H3510 H 0.41194 0.93861 0.16118 0.0
H3511 H 0.46451 0.97864 0.13899 0.0
H3512 H 0.55991 0.93203 0.13129 0.0
H3513 H 0.52574 0.9484 0.13581 0.0
C3514 C 0.0732 0.02213 0.69828 0.0
C3515 C 0.07231 0.00258 0.7087 0.0
C3516 C 0.05735 0.02788 0.68406 0.0
C3517 C 0.00145 0.01718 0.67448 0.0
H3518 H 0.00992 0.05476 0.62682 0.0
C3519 C 0.93084 0.05784 0.63677 0.0
C3520 C 0.93314 0.07991 0.63565 0.0
C3521 C 0.9485 0.0449 0.63921 0.0
C3522 C 0.00734 0.04417 0.64001 0.0
H3523 H 0.05501 0.97312 0.7115 0.0
H3524 H 0.02749 0.983 0.6864 0.0
H3525 H 0.04041 0.03789 0.64353 0.0
H3526 H 0.95592 0.10555 0.63449 0.0
H3527 H 0.98665 0.08303 0.63929 0.0
H3528 H 0.9686 0.02404 0.67167 0.0
C3529 C 0.04014 0.9941 0.68955 0.0
C3530 C 0.02476 0.03456 0.6496 0.0
C3531 C 0.0559 0.98844 0.7039 0.0
C3532 C 0.95357 0.08863 0.63547 0.0
C3533 C 0.97123 0.07568 0.63804 0.0
C3534 C 0.98409 0.02671 0.6649 0.0
C3535 C 0.0404 0.0141 0.67988 0.0
C3536 C 0.02202 0.02148 0.66736 0.0
C3537 C 0.9688 0.05377 0.64071 0.0
C3538 C 0.98688 0.04081 0.64799 0.0
H3539 H 0.08575 0.03329 0.70164 0.0
H3540 H 0.05788 0.04351 0.67711 0.0
H3541 H -0.00124 0.00746 0.68831 0.0
H3542 H 0.91533 0.05056 0.63653 0.0
H3543 H 0.9462 0.02801 0.64083 0.0
loop_
_geom_bond_atom_site_label_1
_geom_bond_atom_site_label_2
_geom_bond_distance
_geom_bond_site_symmetry_2
_ccdc_geom_bond_type
In0 O1 2.307 . S
In0 O2 2.325 1_455 S
In0 O6 2.279 . S
In0 O7 2.324 1_455 S
In0 O8 2.253 1_455 S
In0 O9 2.328 . S
In0 O11 2.281 1_455 S
In0 O12 2.328 . S
O1 In0 2.307 . S
O1 C10 1.240 . S
O2 In0 2.325 1_655 S
O2 C10 1.252 1_655 S
C3 O6 1.252 . S
C3 O7 1.260 1_455 S
C4 O11 1.240 . S
C4 O12 1.252 1_655 S
C5 O8 1.252 . S
C5 O9 1.260 1_655 S
O6 In0 2.279 . S
O6 C3 1.252 . S
O7 In0 2.324 1_655 S
O7 C3 1.260 1_655 S
O8 In0 2.253 1_655 S
O8 C5 1.252 . S
O9 In0 2.328 . S
O9 C5 1.260 1_455 S
C10 O1 1.240 . S
C10 O2 1.252 1_455 S
O11 In0 2.281 1_655 S
O11 C4 1.240 . S
O12 In0 2.328 . S
O12 C4 1.252 1_455 S
In13 O14 2.283 1_455 S
In13 O15 2.308 1_455 S
In13 O19 2.277 . S
In13 O20 2.344 . S
In13 O21 2.256 1_455 S
In13 O22 2.307 1_455 S
In13 O24 2.305 . S
In13 O25 2.345 . S
O14 In13 2.283 1_655 S
O14 C23 1.240 . S
O15 In13 2.308 1_655 S
O15 C23 1.252 . S
C16 O19 1.252 . S
C16 O20 1.260 . S
C17 O24 1.240 . S
C17 O25 1.252 . S
C18 O21 1.252 . S
C18 O22 1.260 . S
O19 In13 2.277 . S
O19 C16 1.252 . S
O20 In13 2.344 . S
O20 C16 1.260 . S
O21 In13 2.256 1_655 S
O21 C18 1.252 . S
O22 In13 2.307 1_655 S
O22 C18 1.260 . S
C23 O14 1.240 . S
C23 O15 1.252 . S
O24 In13 2.305 . S
O24 C17 1.240 . S
O25 In13 2.345 . S
O25 C17 1.252 . S
In26 O27 2.294 . S
In26 O28 2.326 . S
In26 O32 2.266 . S
In26 O33 2.326 . S
In26 O34 2.266 . S
In26 O35 2.326 . S
In26 O37 2.294 . S
In26 O38 2.326 . S
O27 In26 2.294 . S
O27 C36 1.240 . S
O28 In26 2.326 . S
O28 C36 1.252 . S
C29 O32 1.252 . S
C29 O33 1.260 . S
C30 O37 1.240 . S
C30 O38 1.252 . S
C31 O34 1.252 . S
C31 O35 1.260 . S
O32 In26 2.266 . S
O32 C29 1.252 . S
O33 In26 2.326 . S
O33 C29 1.260 . S
O34 In26 2.266 . S
O34 C31 1.252 . S
O35 In26 2.326 . S
O35 C31 1.260 . S
C36 O27 1.240 . S
C36 O28 1.252 . S
O37 In26 2.294 . S
O37 C30 1.240 . S
O38 In26 2.326 . S
O38 C30 1.252 . S
In39 O40 2.294 . S
In39 O41 2.326 . S
In39 O45 2.266 . S
In39 O46 2.326 . S
In39 O47 2.266 . S
In39 O48 2.326 . S
In39 O50 2.294 . S
In39 O51 2.326 . S
O40 In39 2.294 . S
O40 C49 1.240 . S
O41 In39 2.326 . S
O41 C49 1.252 . S
C42 O45 1.252 . S
C42 O46 1.260 . S
C43 O50 1.240 . S
C43 O51 1.252 . S
C44 O47 1.252 . S
C44 O48 1.260 . S
O45 In39 2.266 . S
O45 C42 1.252 . S
O46 In39 2.326 . S
O46 C42 1.260 . S
O47 In39 2.266 . S
O47 C44 1.252 . S
O48 In39 2.326 . S
O48 C44 1.260 . S
C49 O40 1.240 . S
C49 O41 1.252 . S
O50 In39 2.294 . S
O50 C43 1.240 . S
O51 In39 2.326 . S
O51 C43 1.252 . S
In52 O53 2.267 1_455 S
In52 O54 2.330 . S
In52 O58 2.240 1_455 S
In52 O59 2.330 . S
In52 O60 2.293 . S
In52 O61 2.321 1_455 S
In52 O63 2.321 . S
In52 O64 2.323 1_455 S
O53 In52 2.267 1_655 S
O53 C62 1.240 . S
O54 In52 2.330 . S
O54 C62 1.252 1_455 S
C55 O58 1.252 . S
C55 O59 1.260 1_655 S
C56 O63 1.240 . S
C56 O64 1.252 1_455 S
C57 O60 1.252 . S
C57 O61 1.260 1_455 S
O58 In52 2.240 1_655 S
O58 C55 1.252 . S
O59 In52 2.330 . S
O59 C55 1.260 1_455 S
O60 In52 2.293 . S
O60 C57 1.252 . S
O61 In52 2.321 1_655 S
O61 C57 1.260 1_655 S
C62 O53 1.240 . S
C62 O54 1.252 1_655 S
O63 In52 2.321 . S
O63 C56 1.240 . S
O64 In52 2.323 1_655 S
O64 C56 1.252 1_655 S
In65 O66 2.294 . S
In65 O67 2.326 . S
In65 O71 2.266 . S
In65 O72 2.326 . S
In65 O73 2.266 . S
In65 O74 2.326 . S
In65 O76 2.294 . S
In65 O77 2.326 . S
O66 In65 2.294 . S
O66 C75 1.240 . S
O67 In65 2.326 . S
O67 C75 1.252 . S
C68 O71 1.252 . S
C68 O72 1.260 . S
C69 O76 1.240 . S
C69 O77 1.252 . S
C70 O73 1.252 . S
C70 O74 1.260 . S
O71 In65 2.266 . S
O71 C68 1.252 . S
O72 In65 2.326 . S
O72 C68 1.260 . S
O73 In65 2.266 . S
O73 C70 1.252 . S
O74 In65 2.326 . S
O74 C70 1.260 . S
C75 O66 1.240 . S
C75 O67 1.252 . S
O76 In65 2.294 . S
O76 C69 1.240 . S
O77 In65 2.326 . S
O77 C69 1.252 . S
In78 O79 2.294 . S
In78 O80 2.326 . S
In78 O84 2.266 . S
In78 O85 2.326 . S
In78 O86 2.266 . S
In78 O87 2.326 . S
In78 O89 2.294 . S
In78 O90 2.326 . S
O79 In78 2.294 . S
O79 C88 1.240 . S
O80 In78 2.326 . S
O80 C88 1.252 . S
C81 O84 1.252 . S
C81 O85 1.260 . S
C82 O89 1.240 . S
C82 O90 1.252 . S
C83 O86 1.252 . S
C83 O87 1.260 . S
O84 In78 2.266 . S
O84 C81 1.252 . S
O85 In78 2.326 . S
O85 C81 1.260 . S
O86 In78 2.266 . S
O86 C83 1.252 . S
O87 In78 2.326 . S
O87 C83 1.260 . S
C88 O79 1.240 . S
C88 O80 1.252 . S
O89 In78 2.294 . S
O89 C82 1.240 . S
O90 In78 2.326 . S
O90 C82 1.252 . S
In91 O92 2.297 . S
In91 O93 2.331 . S
In91 O97 2.263 1_455 S
In91 O98 2.321 1_455 S
In91 O99 2.269 . S
In91 O100 2.331 . S
In91 O102 2.291 1_455 S
In91 O103 2.321 1_455 S
O92 In91 2.297 . S
O92 C101 1.240 . S
O93 In91 2.331 . S
O93 C101 1.252 . S
C94 O97 1.252 . S
C94 O98 1.260 . S
C95 O102 1.240 . S
C95 O103 1.252 . S
C96 O99 1.252 . S
C96 O100 1.260 . S
O97 In91 2.263 1_655 S
O97 C94 1.252 . S
O98 In91 2.321 1_655 S
O98 C94 1.260 . S
O99 In91 2.269 . S
O99 C96 1.252 . S
O100 In91 2.331 . S
O100 C96 1.260 . S
C101 O92 1.240 . S
C101 O93 1.252 . S
O102 In91 2.291 1_655 S
O102 C95 1.240 . S
O103 In91 2.321 1_655 S
O103 C95 1.252 . S
In104 O105 2.281 1_545 S
In104 O106 2.328 . S
In104 O110 2.253 1_545 S
In104 O111 2.328 . S
In104 O112 2.279 . S
In104 O113 2.324 1_545 S
In104 O115 2.307 . S
In104 O116 2.325 1_545 S
O105 In104 2.281 1_565 S
O105 C114 1.240 . S
O106 In104 2.328 . S
O106 C114 1.252 1_545 S
C107 O110 1.252 . S
C107 O111 1.260 1_565 S
C108 O115 1.240 . S
C108 O116 1.252 1_545 S
C109 O112 1.252 . S
C109 O113 1.260 1_545 S
O110 In104 2.253 1_565 S
O110 C107 1.252 . S
O111 In104 2.328 . S
O111 C107 1.260 1_545 S
O112 In104 2.279 . S
O112 C109 1.252 . S
O113 In104 2.324 1_565 S
O113 C109 1.260 1_565 S
C114 O105 1.240 . S
C114 O106 1.252 1_565 S
O115 In104 2.307 . S
O115 C108 1.240 . S
O116 In104 2.325 1_565 S
O116 C108 1.252 1_565 S
In117 O118 2.294 . S
In117 O119 2.326 . S
In117 O123 2.266 . S
In117 O124 2.326 . S
In117 O125 2.266 . S
In117 O126 2.326 . S
In117 O128 2.294 . S
In117 O129 2.326 . S
O118 In117 2.294 . S
O118 C127 1.240 . S
O119 In117 2.326 . S
O119 C127 1.252 . S
C120 O123 1.252 . S
C120 O124 1.260 . S
C121 O128 1.240 . S
C121 O129 1.252 . S
C122 O125 1.252 . S
C122 O126 1.260 . S
O123 In117 2.266 . S
O123 C120 1.252 . S
O124 In117 2.326 . S
O124 C120 1.260 . S
O125 In117 2.266 . S
O125 C122 1.252 . S
O126 In117 2.326 . S
O126 C122 1.260 . S
C127 O118 1.240 . S
C127 O119 1.252 . S
O128 In117 2.294 . S
O128 C121 1.240 . S
O129 In117 2.326 . S
O129 C121 1.252 . S
In130 O131 2.267 1_545 S
In130 O132 2.330 . S
In130 O136 2.240 1_545 S
In130 O137 2.330 . S
In130 O138 2.293 . S
In130 O139 2.321 1_545 S
In130 O141 2.321 . S
In130 O142 2.323 1_545 S
O131 In130 2.267 1_565 S
O131 C140 1.240 . S
O132 In130 2.330 . S
O132 C140 1.252 1_545 S
C133 O136 1.252 . S
C133 O137 1.260 1_565 S
C134 O141 1.240 . S
C134 O142 1.252 1_545 S
C135 O138 1.252 . S
C135 O139 1.260 1_545 S
O136 In130 2.240 1_565 S
O136 C133 1.252 . S
O137 In130 2.330 . S
O137 C133 1.260 1_545 S
O138 In130 2.293 . S
O138 C135 1.252 . S
O139 In130 2.321 1_565 S
O139 C135 1.260 1_565 S
C140 O131 1.240 . S
C140 O132 1.252 1_565 S
O141 In130 2.321 . S
O141 C134 1.240 . S
O142 In130 2.323 1_565 S
O142 C134 1.252 1_565 S
In143 O144 2.297 . S
In143 O145 2.331 . S
In143 O149 2.263 1_554 S
In143 O150 2.321 1_554 S
In143 O151 2.269 . S
In143 O152 2.331 . S
In143 O154 2.291 1_554 S
In143 O155 2.321 1_554 S
O144 In143 2.297 . S
O144 C153 1.240 . S
O145 In143 2.331 . S
O145 C153 1.252 . S
C146 O149 1.252 . S
C146 O150 1.260 . S
C147 O154 1.240 . S
C147 O155 1.252 . S
C148 O151 1.252 . S
C148 O152 1.260 . S
O149 In143 2.263 1_556 S
O149 C146 1.252 . S
O150 In143 2.321 1_556 S
O150 C146 1.260 . S
O151 In143 2.269 . S
O151 C148 1.252 . S
O152 In143 2.331 . S
O152 C148 1.260 . S
C153 O144 1.240 . S
C153 O145 1.252 . S
O154 In143 2.291 1_556 S
O154 C147 1.240 . S
O155 In143 2.321 1_556 S
O155 C147 1.252 . S
In156 O157 2.281 1_554 S
In156 O158 2.328 . S
In156 O162 2.253 1_554 S
In156 O163 2.328 . S
In156 O164 2.279 . S
In156 O165 2.324 1_554 S
In156 O167 2.307 . S
In156 O168 2.325 1_554 S
O157 In156 2.281 1_556 S
O157 C166 1.240 . S
O158 In156 2.328 . S
O158 C166 1.252 1_554 S
C159 O162 1.252 . S
C159 O163 1.260 1_556 S
C160 O167 1.240 . S
C160 O168 1.252 1_554 S
C161 O164 1.252 . S
C161 O165 1.260 1_554 S
O162 In156 2.253 1_556 S
O162 C159 1.252 . S
O163 In156 2.328 . S
O163 C159 1.260 1_554 S
O164 In156 2.279 . S
O164 C161 1.252 . S
O165 In156 2.324 1_556 S
O165 C161 1.260 1_556 S
C166 O157 1.240 . S
C166 O158 1.252 1_556 S
O167 In156 2.307 . S
O167 C160 1.240 . S
O168 In156 2.325 1_556 S
O168 C160 1.252 1_556 S
In169 O170 2.321 . S
In169 O171 2.323 1_554 S
In169 O175 2.293 . S
In169 O176 2.321 1_554 S
In169 O177 2.240 1_554 S
In169 O178 2.330 . S
In169 O180 2.267 1_554 S
In169 O181 2.330 . S
O170 In169 2.321 . S
O170 C179 1.240 . S
O171 In169 2.323 1_556 S
O171 C179 1.252 1_556 S
C172 O175 1.252 . S
C172 O176 1.260 1_554 S
C173 O180 1.240 . S
C173 O181 1.252 1_556 S
C174 O177 1.252 . S
C174 O178 1.260 1_556 S
O175 In169 2.293 . S
O175 C172 1.252 . S
O176 In169 2.321 1_556 S
O176 C172 1.260 1_556 S
O177 In169 2.240 1_556 S
O177 C174 1.252 . S
O178 In169 2.330 . S
O178 C174 1.260 1_554 S
C179 O170 1.240 . S
C179 O171 1.252 1_554 S
O180 In169 2.267 1_556 S
O180 C173 1.240 . S
O181 In169 2.330 . S
O181 C173 1.252 1_554 S
In182 O183 2.294 . S
In182 O184 2.326 . S
In182 O188 2.266 . S
In182 O189 2.326 . S
In182 O190 2.266 . S
In182 O191 2.326 . S
In182 O193 2.294 . S
In182 O194 2.326 . S
O183 In182 2.294 . S
O183 C192 1.240 . S
O184 In182 2.326 . S
O184 C192 1.252 . S
C185 O188 1.252 . S
C185 O189 1.260 . S
C186 O193 1.240 . S
C186 O194 1.252 . S
C187 O190 1.252 . S
C187 O191 1.260 . S
O188 In182 2.266 . S
O188 C185 1.252 . S
O189 In182 2.326 . S
O189 C185 1.260 . S
O190 In182 2.266 . S
O190 C187 1.252 . S
O191 In182 2.326 . S
O191 C187 1.260 . S
C192 O183 1.240 . S
C192 O184 1.252 . S
O193 In182 2.294 . S
O193 C186 1.240 . S
O194 In182 2.326 . S
O194 C186 1.252 . S
In195 O196 2.294 . S
In195 O197 2.326 . S
In195 O201 2.266 . S
In195 O202 2.326 . S
In195 O203 2.266 . S
In195 O204 2.326 . S
In195 O206 2.294 . S
In195 O207 2.326 . S
O196 In195 2.294 . S
O196 C205 1.240 . S
O197 In195 2.326 . S
O197 C205 1.252 . S
C198 O201 1.252 . S
C198 O202 1.260 . S
C199 O206 1.240 . S
C199 O207 1.252 . S
C200 O203 1.252 . S
C200 O204 1.260 . S
O201 In195 2.266 . S
O201 C198 1.252 . S
O202 In195 2.326 . S
O202 C198 1.260 . S
O203 In195 2.266 . S
O203 C200 1.252 . S
O204 In195 2.326 . S
O204 C200 1.260 . S
C205 O196 1.240 . S
C205 O197 1.252 . S
O206 In195 2.294 . S
O206 C199 1.240 . S
O207 In195 2.326 . S
O207 C199 1.252 . S
In208 O209 2.291 1_545 S
In208 O210 2.321 1_545 S
In208 O214 2.269 . S
In208 O215 2.331 . S
In208 O216 2.263 1_545 S
In208 O217 2.321 1_545 S
In208 O219 2.297 . S
In208 O220 2.331 . S
O209 In208 2.291 1_565 S
O209 C218 1.240 . S
O210 In208 2.321 1_565 S
O210 C218 1.252 . S
C211 O214 1.252 . S
C211 O215 1.260 . S
C212 O219 1.240 . S
C212 O220 1.252 . S
C213 O216 1.252 . S
C213 O217 1.260 . S
O214 In208 2.269 . S
O214 C211 1.252 . S
O215 In208 2.331 . S
O215 C211 1.260 . S
O216 In208 2.263 1_565 S
O216 C213 1.252 . S
O217 In208 2.321 1_565 S
O217 C213 1.260 . S
C218 O209 1.240 . S
C218 O210 1.252 . S
O219 In208 2.297 . S
O219 C212 1.240 . S
O220 In208 2.331 . S
O220 C212 1.252 . S
In221 O222 2.294 . S
In221 O223 2.326 . S
In221 O227 2.266 . S
In221 O228 2.326 . S
In221 O229 2.266 . S
In221 O230 2.326 . S
In221 O232 2.294 . S
In221 O233 2.326 . S
O222 In221 2.294 . S
O222 C231 1.240 . S
O223 In221 2.326 . S
O223 C231 1.252 . S
C224 O227 1.252 . S
C224 O228 1.260 . S
C225 O232 1.240 . S
C225 O233 1.252 . S
C226 O229 1.252 . S
C226 O230 1.260 . S
O227 In221 2.266 . S
O227 C224 1.252 . S
O228 In221 2.326 . S
O228 C224 1.260 . S
O229 In221 2.266 . S
O229 C226 1.252 . S
O230 In221 2.326 . S
O230 C226 1.260 . S
C231 O222 1.240 . S
C231 O223 1.252 . S
O232 In221 2.294 . S
O232 C225 1.240 . S
O233 In221 2.326 . S
O233 C225 1.252 . S
In234 O235 2.294 . S
In234 O236 2.326 . S
In234 O240 2.266 . S
In234 O241 2.326 . S
In234 O242 2.266 . S
In234 O243 2.326 . S
In234 O245 2.294 . S
In234 O246 2.326 . S
O235 In234 2.294 . S
O235 C244 1.240 . S
O236 In234 2.326 . S
O236 C244 1.252 . S
C237 O240 1.252 . S
C237 O241 1.260 . S
C238 O245 1.240 . S
C238 O246 1.252 . S
C239 O242 1.252 . S
C239 O243 1.260 . S
O240 In234 2.266 . S
O240 C237 1.252 . S
O241 In234 2.326 . S
O241 C237 1.260 . S
O242 In234 2.266 . S
O242 C239 1.252 . S
O243 In234 2.326 . S
O243 C239 1.260 . S
C244 O235 1.240 . S
C244 O236 1.252 . S
O245 In234 2.294 . S
O245 C238 1.240 . S
O246 In234 2.326 . S
O246 C238 1.252 . S
In247 O248 2.283 1_545 S
In247 O249 2.308 1_545 S
In247 O253 2.277 . S
In247 O254 2.344 . S
In247 O255 2.256 1_545 S
In247 O256 2.307 1_545 S
In247 O258 2.305 . S
In247 O259 2.345 . S
O248 In247 2.283 1_565 S
O248 C257 1.240 . S
O249 In247 2.308 1_565 S
O249 C257 1.252 . S
C250 O253 1.252 . S
C250 O254 1.260 . S
C251 O258 1.240 . S
C251 O259 1.252 . S
C252 O255 1.252 . S
C252 O256 1.260 . S
O253 In247 2.277 . S
O253 C250 1.252 . S
O254 In247 2.344 . S
O254 C250 1.260 . S
O255 In247 2.256 1_565 S
O255 C252 1.252 . S
O256 In247 2.307 1_565 S
O256 C252 1.260 . S
C257 O248 1.240 . S
C257 O249 1.252 . S
O258 In247 2.305 . S
O258 C251 1.240 . S
O259 In247 2.345 . S
O259 C251 1.252 . S
In260 O261 2.305 . S
In260 O262 2.345 . S
In260 O266 2.256 1_554 S
In260 O267 2.307 1_554 S
In260 O268 2.277 . S
In260 O269 2.344 . S
In260 O271 2.283 1_554 S
In260 O272 2.308 1_554 S
O261 In260 2.305 . S
O261 C270 1.240 . S
O262 In260 2.345 . S
O262 C270 1.252 . S
C263 O266 1.252 . S
C263 O267 1.260 . S
C264 O271 1.240 . S
C264 O272 1.252 . S
C265 O268 1.252 . S
C265 O269 1.260 . S
O266 In260 2.256 1_556 S
O266 C263 1.252 . S
O267 In260 2.307 1_556 S
O267 C263 1.260 . S
O268 In260 2.277 . S
O268 C265 1.252 . S
O269 In260 2.344 . S
O269 C265 1.260 . S
C270 O261 1.240 . S
C270 O262 1.252 . S
O271 In260 2.283 1_556 S
O271 C264 1.240 . S
O272 In260 2.308 1_556 S
O272 C264 1.252 . S
In273 O274 2.294 . S
In273 O275 2.326 . S
In273 O279 2.266 . S
In273 O280 2.326 . S
In273 O281 2.266 . S
In273 O282 2.326 . S
In273 O284 2.294 . S
In273 O285 2.326 . S
O274 In273 2.294 . S
O274 C283 1.240 . S
O275 In273 2.326 . S
O275 C283 1.252 . S
C276 O279 1.252 . S
C276 O280 1.260 . S
C277 O284 1.240 . S
C277 O285 1.252 . S
C278 O281 1.252 . S
C278 O282 1.260 . S
O279 In273 2.266 . S
O279 C276 1.252 . S
O280 In273 2.326 . S
O280 C276 1.260 . S
O281 In273 2.266 . S
O281 C278 1.252 . S
O282 In273 2.326 . S
O282 C278 1.260 . S
C283 O274 1.240 . S
C283 O275 1.252 . S
O284 In273 2.294 . S
O284 C277 1.240 . S
O285 In273 2.326 . S
O285 C277 1.252 . S
In286 O287 2.294 . S
In286 O288 2.326 . S
In286 O292 2.266 . S
In286 O293 2.326 . S
In286 O294 2.266 . S
In286 O295 2.326 . S
In286 O297 2.294 . S
In286 O298 2.326 . S
O287 In286 2.294 . S
O287 C296 1.240 . S
O288 In286 2.326 . S
O288 C296 1.252 . S
C289 O292 1.252 . S
C289 O293 1.260 . S
C290 O297 1.240 . S
C290 O298 1.252 . S
C291 O294 1.252 . S
C291 O295 1.260 . S
O292 In286 2.266 . S
O292 C289 1.252 . S
O293 In286 2.326 . S
O293 C289 1.260 . S
O294 In286 2.266 . S
O294 C291 1.252 . S
O295 In286 2.326 . S
O295 C291 1.260 . S
C296 O287 1.240 . S
C296 O288 1.252 . S
O297 In286 2.294 . S
O297 C290 1.240 . S
O298 In286 2.326 . S
O298 C290 1.252 . S
In299 O300 2.294 . S
In299 O301 2.326 . S
In299 O305 2.266 . S
In299 O306 2.326 . S
In299 O307 2.266 . S
In299 O308 2.326 . S
In299 O310 2.294 . S
In299 O311 2.326 . S
O300 In299 2.294 . S
O300 C309 1.240 . S
O301 In299 2.326 . S
O301 C309 1.252 . S
C302 O305 1.252 . S
C302 O306 1.260 . S
C303 O310 1.240 . S
C303 O311 1.252 . S
C304 O307 1.252 . S
C304 O308 1.260 . S
O305 In299 2.266 . S
O305 C302 1.252 . S
O306 In299 2.326 . S
O306 C302 1.260 . S
O307 In299 2.266 . S
O307 C304 1.252 . S
O308 In299 2.326 . S
O308 C304 1.260 . S
C309 O300 1.240 . S
C309 O301 1.252 . S
O310 In299 2.294 . S
O310 C303 1.240 . S
O311 In299 2.326 . S
O311 C303 1.252 . S
Sc312 O315 2.025 . S
Sc312 O322 2.105 . S
Sc312 O325 2.105 . S
Sc312 O328 2.105 . S
Sc312 O331 2.105 . S
Sc313 O315 2.025 . S
Sc313 O323 2.105 . S
Sc313 O327 2.105 . S
Sc313 O329 2.105 . S
Sc313 O333 2.105 . S
Sc314 O315 2.025 . S
Sc314 O324 2.105 . S
Sc314 O326 2.105 . S
Sc314 O330 2.105 . S
Sc314 O332 2.105 . S
O315 Sc312 2.025 . S
O315 Sc313 2.025 . S
O315 Sc314 2.025 . S
C316 O322 1.268 . S
C316 O332 1.268 . S
C317 O323 1.268 . S
C317 O331 1.268 . S
C318 O324 1.268 . S
C318 O333 1.268 . S
C319 O325 1.268 . S
C319 O329 1.268 . S
C320 O326 1.268 . S
C320 O328 1.268 . S
C321 O327 1.268 . S
C321 O330 1.268 . S
O322 Sc312 2.105 . S
O322 C316 1.268 . S
O323 Sc313 2.105 . S
O323 C317 1.268 . S
O324 Sc314 2.105 . S
O324 C318 1.268 . S
O325 Sc312 2.105 . S
O325 C319 1.268 . S
O326 Sc314 2.105 . S
O326 C320 1.268 . S
O327 Sc313 2.105 . S
O327 C321 1.268 . S
O328 Sc312 2.105 . S
O328 C320 1.268 . S
O329 Sc313 2.105 . S
O329 C319 1.268 . S
O330 Sc314 2.105 . S
O330 C321 1.268 . S
O331 Sc312 2.105 . S
O331 C317 1.268 . S
O332 Sc314 2.105 . S
O332 C316 1.268 . S
O333 Sc313 2.105 . S
O333 C318 1.268 . S
Sc334 O337 2.025 . S
Sc334 O344 2.105 . S
Sc334 O347 2.105 . S
Sc334 O350 2.105 . S
Sc334 O353 2.105 . S
Sc335 O337 2.025 . S
Sc335 O345 2.105 . S
Sc335 O349 2.105 . S
Sc335 O351 2.105 . S
Sc335 O355 2.105 . S
Sc336 O337 2.025 . S
Sc336 O346 2.105 . S
Sc336 O348 2.105 . S
Sc336 O352 2.105 . S
Sc336 O354 2.105 . S
O337 Sc334 2.025 . S
O337 Sc335 2.025 . S
O337 Sc336 2.025 . S
C338 O344 1.268 . S
C338 O354 1.268 . S
C339 O345 1.268 . S
C339 O353 1.268 . S
C340 O346 1.268 . S
C340 O355 1.268 . S
C341 O347 1.268 . S
C341 O351 1.268 . S
C342 O348 1.268 . S
C342 O350 1.268 . S
C343 O349 1.268 . S
C343 O352 1.268 . S
O344 Sc334 2.105 . S
O344 C338 1.268 . S
O345 Sc335 2.105 . S
O345 C339 1.268 . S
O346 Sc336 2.105 . S
O346 C340 1.268 . S
O347 Sc334 2.105 . S
O347 C341 1.268 . S
O348 Sc336 2.105 . S
O348 C342 1.268 . S
O349 Sc335 2.105 . S
O349 C343 1.268 . S
O350 Sc334 2.105 . S
O350 C342 1.268 . S
O351 Sc335 2.105 . S
O351 C341 1.268 . S
O352 Sc336 2.105 . S
O352 C343 1.268 . S
O353 Sc334 2.105 . S
O353 C339 1.268 . S
O354 Sc336 2.105 . S
O354 C338 1.268 . S
O355 Sc335 2.105 . S
O355 C340 1.268 . S
Sc356 O359 2.025 . S
Sc356 O366 2.105 . S
Sc356 O369 2.105 . S
Sc356 O372 2.105 . S
Sc356 O375 2.105 . S
Sc357 O359 2.025 . S
Sc357 O367 2.105 . S
Sc357 O371 2.105 . S
Sc357 O373 2.105 . S
Sc357 O377 2.105 . S
Sc358 O359 2.025 . S
Sc358 O368 2.105 . S
Sc358 O370 2.105 . S
Sc358 O374 2.105 . S
Sc358 O376 2.105 . S
O359 Sc356 2.025 . S
O359 Sc357 2.025 . S
O359 Sc358 2.025 . S
C360 O366 1.268 . S
C360 O376 1.268 . S
C361 O367 1.268 . S
C361 O375 1.268 . S
C362 O368 1.268 . S
C362 O377 1.268 . S
C363 O369 1.268 . S
C363 O373 1.268 . S
C364 O370 1.268 . S
C364 O372 1.268 . S
C365 O371 1.268 . S
C365 O374 1.268 . S
O366 Sc356 2.105 . S
O366 C360 1.268 . S
O367 Sc357 2.105 . S
O367 C361 1.268 . S
O368 Sc358 2.105 . S
O368 C362 1.268 . S
O369 Sc356 2.105 . S
O369 C363 1.268 . S
O370 Sc358 2.105 . S
O370 C364 1.268 . S
O371 Sc357 2.105 . S
O371 C365 1.268 . S
O372 Sc356 2.105 . S
O372 C364 1.268 . S
O373 Sc357 2.105 . S
O373 C363 1.268 . S
O374 Sc358 2.105 . S
O374 C365 1.268 . S
O375 Sc356 2.105 . S
O375 C361 1.268 . S
O376 Sc358 2.105 . S
O376 C360 1.268 . S
O377 Sc357 2.105 . S
O377 C362 1.268 . S
Sc378 O381 2.025 . S
Sc378 O388 2.105 . S
Sc378 O391 2.105 . S
Sc378 O394 2.105 . S
Sc378 O397 2.105 . S
Sc379 O381 2.025 . S
Sc379 O389 2.105 . S
Sc379 O393 2.105 . S
Sc379 O395 2.105 . S
Sc379 O399 2.105 . S
Sc380 O381 2.025 . S
Sc380 O390 2.105 . S
Sc380 O392 2.105 . S
Sc380 O396 2.105 . S
Sc380 O398 2.105 . S
O381 Sc378 2.025 . S
O381 Sc379 2.025 . S
O381 Sc380 2.025 . S
C382 O388 1.268 . S
C382 O398 1.268 . S
C383 O389 1.268 . S
C383 O397 1.268 . S
C384 O390 1.268 . S
C384 O399 1.268 . S
C385 O391 1.268 . S
C385 O395 1.268 . S
C386 O392 1.268 . S
C386 O394 1.268 . S
C387 O393 1.268 . S
C387 O396 1.268 . S
O388 Sc378 2.105 . S
O388 C382 1.268 . S
O389 Sc379 2.105 . S
O389 C383 1.268 . S
O390 Sc380 2.105 . S
O390 C384 1.268 . S
O391 Sc378 2.105 . S
O391 C385 1.268 . S
O392 Sc380 2.105 . S
O392 C386 1.268 . S
O393 Sc379 2.105 . S
O393 C387 1.268 . S
O394 Sc378 2.105 . S
O394 C386 1.268 . S
O395 Sc379 2.105 . S
O395 C385 1.268 . S
O396 Sc380 2.105 . S
O396 C387 1.268 . S
O397 Sc378 2.105 . S
O397 C383 1.268 . S
O398 Sc380 2.105 . S
O398 C382 1.268 . S
O399 Sc379 2.105 . S
O399 C384 1.268 . S
Sc400 O403 2.025 . S
Sc400 O410 2.105 . S
Sc400 O413 2.105 . S
Sc400 O416 2.105 . S
Sc400 O419 2.105 . S
Sc401 O403 2.025 . S
Sc401 O411 2.105 . S
Sc401 O415 2.105 . S
Sc401 O417 2.105 . S
Sc401 O421 2.105 . S
Sc402 O403 2.025 . S
Sc402 O412 2.105 . S
Sc402 O414 2.105 . S
Sc402 O418 2.105 . S
Sc402 O420 2.105 . S
O403 Sc400 2.025 . S
O403 Sc401 2.025 . S
O403 Sc402 2.025 . S
C404 O410 1.268 . S
C404 O420 1.268 . S
C405 O411 1.268 . S
C405 O419 1.268 . S
C406 O412 1.268 . S
C406 O421 1.268 . S
C407 O413 1.268 . S
C407 O417 1.268 . S
C408 O414 1.268 . S
C408 O416 1.268 . S
C409 O415 1.268 . S
C409 O418 1.268 . S
O410 Sc400 2.105 . S
O410 C404 1.268 . S
O411 Sc401 2.105 . S
O411 C405 1.268 . S
O412 Sc402 2.105 . S
O412 C406 1.268 . S
O413 Sc400 2.105 . S
O413 C407 1.268 . S
O414 Sc402 2.105 . S
O414 C408 1.268 . S
O415 Sc401 2.105 . S
O415 C409 1.268 . S
O416 Sc400 2.105 . S
O416 C408 1.268 . S
O417 Sc401 2.105 . S
O417 C407 1.268 . S
O418 Sc402 2.105 . S
O418 C409 1.268 . S
O419 Sc400 2.105 . S
O419 C405 1.268 . S
O420 Sc402 2.105 . S
O420 C404 1.268 . S
O421 Sc401 2.105 . S
O421 C406 1.268 . S
Sc422 O425 2.025 . S
Sc422 O432 2.105 . S
Sc422 O435 2.105 . S
Sc422 O438 2.105 . S
Sc422 O441 2.105 . S
Sc423 O425 2.025 . S
Sc423 O433 2.105 . S
Sc423 O437 2.105 . S
Sc423 O439 2.105 . S
Sc423 O443 2.105 . S
Sc424 O425 2.025 . S
Sc424 O434 2.105 . S
Sc424 O436 2.105 . S
Sc424 O440 2.105 . S
Sc424 O442 2.105 . S
O425 Sc422 2.025 . S
O425 Sc423 2.025 . S
O425 Sc424 2.025 . S
C426 O432 1.268 . S
C426 O442 1.268 . S
C427 O433 1.268 . S
C427 O441 1.268 . S
C428 O434 1.268 . S
C428 O443 1.268 . S
C429 O435 1.268 . S
C429 O439 1.268 . S
C430 O436 1.268 . S
C430 O438 1.268 . S
C431 O437 1.268 . S
C431 O440 1.268 . S
O432 Sc422 2.105 . S
O432 C426 1.268 . S
O433 Sc423 2.105 . S
O433 C427 1.268 . S
O434 Sc424 2.105 . S
O434 C428 1.268 . S
O435 Sc422 2.105 . S
O435 C429 1.268 . S
O436 Sc424 2.105 . S
O436 C430 1.268 . S
O437 Sc423 2.105 . S
O437 C431 1.268 . S
O438 Sc422 2.105 . S
O438 C430 1.268 . S
O439 Sc423 2.105 . S
O439 C429 1.268 . S
O440 Sc424 2.105 . S
O440 C431 1.268 . S
O441 Sc422 2.105 . S
O441 C427 1.268 . S
O442 Sc424 2.105 . S
O442 C426 1.268 . S
O443 Sc423 2.105 . S
O443 C428 1.268 . S
Sc444 O447 2.025 . S
Sc444 O454 2.105 . S
Sc444 O457 2.105 . S
Sc444 O460 2.105 . S
Sc444 O463 2.105 . S
Sc445 O447 2.025 . S
Sc445 O455 2.105 . S
Sc445 O459 2.105 . S
Sc445 O461 2.105 . S
Sc445 O465 2.105 . S
Sc446 O447 2.025 . S
Sc446 O456 2.105 . S
Sc446 O458 2.105 . S
Sc446 O462 2.105 . S
Sc446 O464 2.105 . S
O447 Sc444 2.025 . S
O447 Sc445 2.025 . S
O447 Sc446 2.025 . S
C448 O454 1.268 . S
C448 O464 1.268 . S
C449 O455 1.268 . S
C449 O463 1.268 . S
C450 O456 1.268 . S
C450 O465 1.268 . S
C451 O457 1.268 . S
C451 O461 1.268 . S
C452 O458 1.268 . S
C452 O460 1.268 . S
C453 O459 1.268 . S
C453 O462 1.268 . S
O454 Sc444 2.105 . S
O454 C448 1.268 . S
O455 Sc445 2.105 . S
O455 C449 1.268 . S
O456 Sc446 2.105 . S
O456 C450 1.268 . S
O457 Sc444 2.105 . S
O457 C451 1.268 . S
O458 Sc446 2.105 . S
O458 C452 1.268 . S
O459 Sc445 2.105 . S
O459 C453 1.268 . S
O460 Sc444 2.105 . S
O460 C452 1.268 . S
O461 Sc445 2.105 . S
O461 C451 1.268 . S
O462 Sc446 2.105 . S
O462 C453 1.268 . S
O463 Sc444 2.105 . S
O463 C449 1.268 . S
O464 Sc446 2.105 . S
O464 C448 1.268 . S
O465 Sc445 2.105 . S
O465 C450 1.268 . S
Sc466 O469 2.025 . S
Sc466 O476 2.105 . S
Sc466 O479 2.105 . S
Sc466 O482 2.105 . S
Sc466 O485 2.105 . S
Sc467 O469 2.025 . S
Sc467 O477 2.105 . S
Sc467 O481 2.105 . S
Sc467 O483 2.105 . S
Sc467 O487 2.105 . S
Sc468 O469 2.025 . S
Sc468 O478 2.105 . S
Sc468 O480 2.105 . S
Sc468 O484 2.105 . S
Sc468 O486 2.105 . S
O469 Sc466 2.025 . S
O469 Sc467 2.025 . S
O469 Sc468 2.025 . S
C470 O476 1.268 . S
C470 O486 1.268 . S
C471 O477 1.268 . S
C471 O485 1.268 . S
C472 O478 1.268 . S
C472 O487 1.268 . S
C473 O479 1.268 . S
C473 O483 1.268 . S
C474 O480 1.268 . S
C474 O482 1.268 . S
C475 O481 1.268 . S
C475 O484 1.268 . S
O476 Sc466 2.105 . S
O476 C470 1.268 . S
O477 Sc467 2.105 . S
O477 C471 1.268 . S
O478 Sc468 2.105 . S
O478 C472 1.268 . S
O479 Sc466 2.105 . S
O479 C473 1.268 . S
O480 Sc468 2.105 . S
O480 C474 1.268 . S
O481 Sc467 2.105 . S
O481 C475 1.268 . S
O482 Sc466 2.105 . S
O482 C474 1.268 . S
O483 Sc467 2.105 . S
O483 C473 1.268 . S
O484 Sc468 2.105 . S
O484 C475 1.268 . S
O485 Sc466 2.105 . S
O485 C471 1.268 . S
O486 Sc468 2.105 . S
O486 C470 1.268 . S
O487 Sc467 2.105 . S
O487 C472 1.268 . S
Sc488 O491 2.025 . S
Sc488 O498 2.105 . S
Sc488 O501 2.105 . S
Sc488 O504 2.105 . S
Sc488 O507 2.105 . S
Sc489 O491 2.025 . S
Sc489 O499 2.105 . S
Sc489 O503 2.105 . S
Sc489 O505 2.105 . S
Sc489 O509 2.105 . S
Sc490 O491 2.025 . S
Sc490 O500 2.105 . S
Sc490 O502 2.105 . S
Sc490 O506 2.105 . S
Sc490 O508 2.105 . S
O491 Sc488 2.025 . S
O491 Sc489 2.025 . S
O491 Sc490 2.025 . S
C492 O498 1.268 . S
C492 O508 1.268 . S
C493 O499 1.268 . S
C493 O507 1.268 . S
C494 O500 1.268 . S
C494 O509 1.268 . S
C495 O501 1.268 . S
C495 O505 1.268 . S
C496 O502 1.268 . S
C496 O504 1.268 . S
C497 O503 1.268 . S
C497 O506 1.268 . S
O498 Sc488 2.105 . S
O498 C492 1.268 . S
O499 Sc489 2.105 . S
O499 C493 1.268 . S
O500 Sc490 2.105 . S
O500 C494 1.268 . S
O501 Sc488 2.105 . S
O501 C495 1.268 . S
O502 Sc490 2.105 . S
O502 C496 1.268 . S
O503 Sc489 2.105 . S
O503 C497 1.268 . S
O504 Sc488 2.105 . S
O504 C496 1.268 . S
O505 Sc489 2.105 . S
O505 C495 1.268 . S
O506 Sc490 2.105 . S
O506 C497 1.268 . S
O507 Sc488 2.105 . S
O507 C493 1.268 . S
O508 Sc490 2.105 . S
O508 C492 1.268 . S
O509 Sc489 2.105 . S
O509 C494 1.268 . S
Sc510 O513 2.025 . S
Sc510 O520 2.105 . S
Sc510 O523 2.105 . S
Sc510 O526 2.105 . S
Sc510 O529 2.105 . S
Sc511 O513 2.025 . S
Sc511 O521 2.105 . S
Sc511 O525 2.105 . S
Sc511 O527 2.105 . S
Sc511 O531 2.105 . S
Sc512 O513 2.025 . S
Sc512 O522 2.105 . S
Sc512 O524 2.105 . S
Sc512 O528 2.105 . S
Sc512 O530 2.105 . S
O513 Sc510 2.025 . S
O513 Sc511 2.025 . S
O513 Sc512 2.025 . S
C514 O520 1.268 . S
C514 O530 1.268 . S
C515 O521 1.268 . S
C515 O529 1.268 . S
C516 O522 1.268 . S
C516 O531 1.268 . S
C517 O523 1.268 . S
C517 O527 1.268 . S
C518 O524 1.268 . S
C518 O526 1.268 . S
C519 O525 1.268 . S
C519 O528 1.268 . S
O520 Sc510 2.105 . S
O520 C514 1.268 . S
O521 Sc511 2.105 . S
O521 C515 1.268 . S
O522 Sc512 2.105 . S
O522 C516 1.268 . S
O523 Sc510 2.105 . S
O523 C517 1.268 . S
O524 Sc512 2.105 . S
O524 C518 1.268 . S
O525 Sc511 2.105 . S
O525 C519 1.268 . S
O526 Sc510 2.105 . S
O526 C518 1.268 . S
O527 Sc511 2.105 . S
O527 C517 1.268 . S
O528 Sc512 2.105 . S
O528 C519 1.268 . S
O529 Sc510 2.105 . S
O529 C515 1.268 . S
O530 Sc512 2.105 . S
O530 C514 1.268 . S
O531 Sc511 2.105 . S
O531 C516 1.268 . S
Sc532 O535 2.025 . S
Sc532 O542 2.105 . S
Sc532 O545 2.105 . S
Sc532 O548 2.105 . S
Sc532 O551 2.105 . S
Sc533 O535 2.025 . S
Sc533 O543 2.105 . S
Sc533 O547 2.105 . S
Sc533 O549 2.105 . S
Sc533 O553 2.105 . S
Sc534 O535 2.025 . S
Sc534 O544 2.105 . S
Sc534 O546 2.105 . S
Sc534 O550 2.105 . S
Sc534 O552 2.105 . S
O535 Sc532 2.025 . S
O535 Sc533 2.025 . S
O535 Sc534 2.025 . S
C536 O542 1.268 . S
C536 O552 1.268 . S
C537 O543 1.268 . S
C537 O551 1.268 . S
C538 O544 1.268 . S
C538 O553 1.268 . S
C539 O545 1.268 . S
C539 O549 1.268 . S
C540 O546 1.268 . S
C540 O548 1.268 . S
C541 O547 1.268 . S
C541 O550 1.268 . S
O542 Sc532 2.105 . S
O542 C536 1.268 . S
O543 Sc533 2.105 . S
O543 C537 1.268 . S
O544 Sc534 2.105 . S
O544 C538 1.268 . S
O545 Sc532 2.105 . S
O545 C539 1.268 . S
O546 Sc534 2.105 . S
O546 C540 1.268 . S
O547 Sc533 2.105 . S
O547 C541 1.268 . S
O548 Sc532 2.105 . S
O548 C540 1.268 . S
O549 Sc533 2.105 . S
O549 C539 1.268 . S
O550 Sc534 2.105 . S
O550 C541 1.268 . S
O551 Sc532 2.105 . S
O551 C537 1.268 . S
O552 Sc534 2.105 . S
O552 C536 1.268 . S
O553 Sc533 2.105 . S
O553 C538 1.268 . S
Sc554 O557 2.025 . S
Sc554 O564 2.105 . S
Sc554 O567 2.105 . S
Sc554 O570 2.105 . S
Sc554 O573 2.105 . S
Sc555 O557 2.025 . S
Sc555 O565 2.105 . S
Sc555 O569 2.105 . S
Sc555 O571 2.105 . S
Sc555 O575 2.105 . S
Sc556 O557 2.025 . S
Sc556 O566 2.105 . S
Sc556 O568 2.105 . S
Sc556 O572 2.105 . S
Sc556 O574 2.105 . S
O557 Sc554 2.025 . S
O557 Sc555 2.025 . S
O557 Sc556 2.025 . S
C558 O564 1.268 . S
C558 O574 1.268 . S
C559 O565 1.268 . S
C559 O573 1.268 . S
C560 O566 1.268 . S
C560 O575 1.268 . S
C561 O567 1.268 . S
C561 O571 1.268 . S
C562 O568 1.268 . S
C562 O570 1.268 . S
C563 O569 1.268 . S
C563 O572 1.268 . S
O564 Sc554 2.105 . S
O564 C558 1.268 . S
O565 Sc555 2.105 . S
O565 C559 1.268 . S
O566 Sc556 2.105 . S
O566 C560 1.268 . S
O567 Sc554 2.105 . S
O567 C561 1.268 . S
O568 Sc556 2.105 . S
O568 C562 1.268 . S
O569 Sc555 2.105 . S
O569 C563 1.268 . S
O570 Sc554 2.105 . S
O570 C562 1.268 . S
O571 Sc555 2.105 . S
O571 C561 1.268 . S
O572 Sc556 2.105 . S
O572 C563 1.268 . S
O573 Sc554 2.105 . S
O573 C559 1.268 . S
O574 Sc556 2.105 . S
O574 C558 1.268 . S
O575 Sc555 2.105 . S
O575 C560 1.268 . S
Sc576 O579 2.025 . S
Sc576 O586 2.105 . S
Sc576 O589 2.105 . S
Sc576 O592 2.105 . S
Sc576 O595 2.105 . S
Sc577 O579 2.025 . S
Sc577 O587 2.105 . S
Sc577 O591 2.105 . S
Sc577 O593 2.105 . S
Sc577 O597 2.105 . S
Sc578 O579 2.025 . S
Sc578 O588 2.105 . S
Sc578 O590 2.105 . S
Sc578 O594 2.105 . S
Sc578 O596 2.105 . S
O579 Sc576 2.025 . S
O579 Sc577 2.025 . S
O579 Sc578 2.025 . S
C580 O586 1.268 . S
C580 O596 1.268 . S
C581 O587 1.268 . S
C581 O595 1.268 . S
C582 O588 1.268 . S
C582 O597 1.268 . S
C583 O589 1.268 . S
C583 O593 1.268 . S
C584 O590 1.268 . S
C584 O592 1.268 . S
C585 O591 1.268 . S
C585 O594 1.268 . S
O586 Sc576 2.105 . S
O586 C580 1.268 . S
O587 Sc577 2.105 . S
O587 C581 1.268 . S
O588 Sc578 2.105 . S
O588 C582 1.268 . S
O589 Sc576 2.105 . S
O589 C583 1.268 . S
O590 Sc578 2.105 . S
O590 C584 1.268 . S
O591 Sc577 2.105 . S
O591 C585 1.268 . S
O592 Sc576 2.105 . S
O592 C584 1.268 . S
O593 Sc577 2.105 . S
O593 C583 1.268 . S
O594 Sc578 2.105 . S
O594 C585 1.268 . S
O595 Sc576 2.105 . S
O595 C581 1.268 . S
O596 Sc578 2.105 . S
O596 C580 1.268 . S
O597 Sc577 2.105 . S
O597 C582 1.268 . S
Sc598 O601 2.025 . S
Sc598 O608 2.105 . S
Sc598 O611 2.105 . S
Sc598 O614 2.105 . S
Sc598 O617 2.105 . S
Sc599 O601 2.025 . S
Sc599 O609 2.105 . S
Sc599 O613 2.105 . S
Sc599 O615 2.105 . S
Sc599 O619 2.105 . S
Sc600 O601 2.025 . S
Sc600 O610 2.105 . S
Sc600 O612 2.105 . S
Sc600 O616 2.105 . S
Sc600 O618 2.105 . S
O601 Sc598 2.025 . S
O601 Sc599 2.025 . S
O601 Sc600 2.025 . S
C602 O608 1.268 . S
C602 O618 1.268 . S
C603 O609 1.268 . S
C603 O617 1.268 . S
C604 O610 1.268 . S
C604 O619 1.268 . S
C605 O611 1.268 . S
C605 O615 1.268 . S
C606 O612 1.268 . S
C606 O614 1.268 . S
C607 O613 1.268 . S
C607 O616 1.268 . S
O608 Sc598 2.105 . S
O608 C602 1.268 . S
O609 Sc599 2.105 . S
O609 C603 1.268 . S
O610 Sc600 2.105 . S
O610 C604 1.268 . S
O611 Sc598 2.105 . S
O611 C605 1.268 . S
O612 Sc600 2.105 . S
O612 C606 1.268 . S
O613 Sc599 2.105 . S
O613 C607 1.268 . S
O614 Sc598 2.105 . S
O614 C606 1.268 . S
O615 Sc599 2.105 . S
O615 C605 1.268 . S
O616 Sc600 2.105 . S
O616 C607 1.268 . S
O617 Sc598 2.105 . S
O617 C603 1.268 . S
O618 Sc600 2.105 . S
O618 C602 1.268 . S
O619 Sc599 2.105 . S
O619 C604 1.268 . S
Sc620 O623 2.025 . S
Sc620 O630 2.105 . S
Sc620 O633 2.105 . S
Sc620 O636 2.105 . S
Sc620 O639 2.105 . S
Sc621 O623 2.025 . S
Sc621 O631 2.105 . S
Sc621 O635 2.105 . S
Sc621 O637 2.105 . S
Sc621 O641 2.105 . S
Sc622 O623 2.025 . S
Sc622 O632 2.105 . S
Sc622 O634 2.105 . S
Sc622 O638 2.105 . S
Sc622 O640 2.105 . S
O623 Sc620 2.025 . S
O623 Sc621 2.025 . S
O623 Sc622 2.025 . S
C624 O630 1.268 . S
C624 O640 1.268 . S
C625 O631 1.268 . S
C625 O639 1.268 . S
C626 O632 1.268 . S
C626 O641 1.268 . S
C627 O633 1.268 . S
C627 O637 1.268 . S
C628 O634 1.268 . S
C628 O636 1.268 . S
C629 O635 1.268 . S
C629 O638 1.268 . S
O630 Sc620 2.105 . S
O630 C624 1.268 . S
O631 Sc621 2.105 . S
O631 C625 1.268 . S
O632 Sc622 2.105 . S
O632 C626 1.268 . S
O633 Sc620 2.105 . S
O633 C627 1.268 . S
O634 Sc622 2.105 . S
O634 C628 1.268 . S
O635 Sc621 2.105 . S
O635 C629 1.268 . S
O636 Sc620 2.105 . S
O636 C628 1.268 . S
O637 Sc621 2.105 . S
O637 C627 1.268 . S
O638 Sc622 2.105 . S
O638 C629 1.268 . S
O639 Sc620 2.105 . S
O639 C625 1.268 . S
O640 Sc622 2.105 . S
O640 C624 1.268 . S
O641 Sc621 2.105 . S
O641 C626 1.268 . S
Sc642 O645 2.025 . S
Sc642 O652 2.105 . S
Sc642 O655 2.105 . S
Sc642 O658 2.105 . S
Sc642 O661 2.105 . S
Sc643 O645 2.025 . S
Sc643 O653 2.105 . S
Sc643 O657 2.105 . S
Sc643 O659 2.105 . S
Sc643 O663 2.105 . S
Sc644 O645 2.025 . S
Sc644 O654 2.105 . S
Sc644 O656 2.105 . S
Sc644 O660 2.105 . S
Sc644 O662 2.105 . S
O645 Sc642 2.025 . S
O645 Sc643 2.025 . S
O645 Sc644 2.025 . S
C646 O652 1.268 . S
C646 O662 1.268 . S
C647 O653 1.268 . S
C647 O661 1.268 . S
C648 O654 1.268 . S
C648 O663 1.268 . S
C649 O655 1.268 . S
C649 O659 1.268 . S
C650 O656 1.268 . S
C650 O658 1.268 . S
C651 O657 1.268 . S
C651 O660 1.268 . S
O652 Sc642 2.105 . S
O652 C646 1.268 . S
O653 Sc643 2.105 . S
O653 C647 1.268 . S
O654 Sc644 2.105 . S
O654 C648 1.268 . S
O655 Sc642 2.105 . S
O655 C649 1.268 . S
O656 Sc644 2.105 . S
O656 C650 1.268 . S
O657 Sc643 2.105 . S
O657 C651 1.268 . S
O658 Sc642 2.105 . S
O658 C650 1.268 . S
O659 Sc643 2.105 . S
O659 C649 1.268 . S
O660 Sc644 2.105 . S
O660 C651 1.268 . S
O661 Sc642 2.105 . S
O661 C647 1.268 . S
O662 Sc644 2.105 . S
O662 C646 1.268 . S
O663 Sc643 2.105 . S
O663 C648 1.268 . S
C664 C665 1.349 . S
C664 C666 1.327 . S
C664 H689 0.934 1_455 S
C665 C664 1.349 . S
C665 C681 1.349 . S
C666 C664 1.327 . S
C666 C685 1.429 . S
C666 H690 0.950 . S
C667 C684 1.574 . S
C667 C686 1.368 . S
C667 H691 0.949 . S
H668 C672 0.949 . S
C669 C670 1.349 . S
C669 C671 1.327 . S
C669 H692 0.950 . S
C670 C669 1.349 . S
C670 C682 1.349 . S
C671 C669 1.327 . S
C671 C687 1.429 . S
C671 H693 0.950 . S
C672 H668 0.949 . S
C672 C680 1.574 . S
C672 C688 1.368 . S
H673 C681 0.950 . S
H674 C679 0.950 . S
H675 C680 0.949 . S
H676 C682 0.950 . S
H677 C683 0.950 . S
H678 C684 0.949 . S
C679 H674 0.950 . S
C679 C681 1.327 . S
C679 C685 1.429 . S
C680 C672 1.574 . S
C680 H675 0.949 . S
C680 C686 1.368 . S
C681 C665 1.349 . S
C681 H673 0.950 . S
C681 C679 1.327 . S
C682 C670 1.349 . S
C682 H676 0.950 . S
C682 C683 1.327 . S
C683 H677 0.950 . S
C683 C682 1.327 . S
C683 C687 1.429 . S
C684 C667 1.574 . S
C684 H678 0.949 . S
C684 C688 1.368 . S
C685 C666 1.429 . S
C685 C679 1.429 . S
C685 C686 1.523 . S
C686 C667 1.368 . S
C686 C680 1.368 . S
C686 C685 1.523 . S
C687 C671 1.429 . S
C687 C683 1.429 . S
C687 C688 1.523 . S
C688 C672 1.368 . S
C688 C684 1.368 . S
C688 C687 1.523 . S
H689 C664 0.934 1_655 S
H690 C666 0.950 . S
H691 C667 0.949 . S
H692 C669 0.950 . S
H693 C671 0.950 . S
C694 C695 1.349 . S
C694 C696 1.327 . S
C694 H719 0.950 . S
C695 C694 1.349 . S
C695 C711 1.349 . S
C696 C694 1.327 . S
C696 C715 1.429 . S
C696 H720 0.950 . S
C697 C714 1.574 . S
C697 C716 1.368 . S
C697 H721 0.949 . S
H698 C702 0.949 . S
C699 C700 1.349 . S
C699 C701 1.327 . S
C699 H722 0.950 . S
C700 C699 1.349 . S
C700 C712 1.349 . S
C701 C699 1.327 . S
C701 C717 1.429 . S
C701 H723 0.950 . S
C702 H698 0.949 . S
C702 C710 1.574 . S
C702 C718 1.368 . S
H703 C711 0.950 . S
H704 C709 0.950 . S
H705 C710 0.949 . S
H706 C712 0.950 . S
H707 C713 0.950 . S
H708 C714 0.949 . S
C709 H704 0.950 . S
C709 C711 1.327 . S
C709 C715 1.429 . S
C710 C702 1.574 . S
C710 H705 0.949 . S
C710 C716 1.368 . S
C711 C695 1.349 . S
C711 H703 0.950 . S
C711 C709 1.327 . S
C712 C700 1.349 . S
C712 H706 0.950 . S
C712 C713 1.327 . S
C713 H707 0.950 . S
C713 C712 1.327 . S
C713 C717 1.429 . S
C714 C697 1.574 . S
C714 H708 0.949 . S
C714 C718 1.368 . S
C715 C696 1.429 . S
C715 C709 1.429 . S
C715 C716 1.523 . S
C716 C697 1.368 . S
C716 C710 1.368 . S
C716 C715 1.523 . S
C717 C701 1.429 . S
C717 C713 1.429 . S
C717 C718 1.523 . S
C718 C702 1.368 . S
C718 C714 1.368 . S
C718 C717 1.523 . S
H719 C694 0.950 . S
H720 C696 0.950 . S
H721 C697 0.949 . S
H722 C699 0.950 . S
H723 C701 0.950 . S
C724 C725 1.349 . S
C724 C726 1.327 . S
C724 H749 0.950 . S
C725 C724 1.349 . S
C725 C741 1.349 . S
C726 C724 1.327 . S
C726 C745 1.429 . S
C726 H750 0.950 . S
C727 C744 1.574 . S
C727 C746 1.368 . S
C727 H751 0.949 . S
H728 C732 0.949 . S
C729 C730 1.349 . S
C729 C731 1.327 . S
C729 H752 0.950 . S
C730 C729 1.349 . S
C730 C742 1.349 . S
C731 C729 1.327 . S
C731 C747 1.429 . S
C731 H753 0.950 . S
C732 H728 0.949 . S
C732 C740 1.574 . S
C732 C748 1.368 . S
H733 C741 0.950 . S
H734 C739 0.950 . S
H735 C740 0.949 . S
H736 C742 0.950 . S
H737 C743 0.950 . S
H738 C744 0.949 . S
C739 H734 0.950 . S
C739 C741 1.327 . S
C739 C745 1.429 . S
C740 C732 1.574 . S
C740 H735 0.949 . S
C740 C746 1.368 . S
C741 C725 1.349 . S
C741 H733 0.950 . S
C741 C739 1.327 . S
C742 C730 1.349 . S
C742 H736 0.950 . S
C742 C743 1.327 . S
C743 H737 0.950 . S
C743 C742 1.327 . S
C743 C747 1.429 . S
C744 C727 1.574 . S
C744 H738 0.949 . S
C744 C748 1.368 . S
C745 C726 1.429 . S
C745 C739 1.429 . S
C745 C746 1.523 . S
C746 C727 1.368 . S
C746 C740 1.368 . S
C746 C745 1.523 . S
C747 C731 1.429 . S
C747 C743 1.429 . S
C747 C748 1.523 . S
C748 C732 1.368 . S
C748 C744 1.368 . S
C748 C747 1.523 . S
H749 C724 0.950 . S
H750 C726 0.950 . S
H751 C727 0.949 . S
H752 C729 0.950 . S
H753 C731 0.950 . S
C754 C755 1.349 . S
C754 C756 1.327 . S
C754 H779 0.950 . S
C755 C754 1.349 . S
C755 C771 1.349 . S
C756 C754 1.327 . S
C756 C775 1.429 . S
C756 H780 0.950 . S
C757 C774 1.574 1_554 S
C757 C776 1.368 . S
C757 H781 0.949 . S
H758 C762 0.949 . S
C759 C760 1.349 . S
C759 C761 1.327 . S
C759 H782 0.950 . S
C760 C759 1.349 . S
C760 C772 1.349 . S
C761 C759 1.327 . S
C761 C777 1.429 . S
C761 H783 0.950 . S
C762 H758 0.949 . S
C762 C770 1.574 . S
C762 C778 1.368 1_554 S
H763 C771 0.950 . S
H764 C769 0.950 . S
H765 C770 0.949 . S
H766 C772 0.950 . S
H767 C773 0.950 . S
H768 C774 0.949 . S
C769 H764 0.950 . S
C769 C771 1.327 . S
C769 C775 1.429 . S
C770 C762 1.574 . S
C770 H765 0.949 . S
C770 C776 1.368 . S
C771 C755 1.349 . S
C771 H763 0.950 . S
C771 C769 1.327 . S
C772 C760 1.349 . S
C772 H766 0.950 . S
C772 C773 1.327 . S
C773 H767 0.950 . S
C773 C772 1.327 . S
C773 C777 1.429 . S
C774 C757 1.574 1_556 S
C774 H768 0.949 . S
C774 C778 1.368 . S
C775 C756 1.429 . S
C775 C769 1.429 . S
C775 C776 1.523 . S
C776 C757 1.368 . S
C776 C770 1.368 . S
C776 C775 1.523 . S
C777 C761 1.429 . S
C777 C773 1.429 . S
C777 C778 1.523 . S
C778 C762 1.368 1_556 S
C778 C774 1.368 . S
C778 C777 1.523 . S
H779 C754 0.950 . S
H780 C756 0.950 . S
H781 C757 0.949 . S
H782 C759 0.950 . S
H783 C761 0.950 . S
C784 C785 1.349 . S
C784 C786 1.327 . S
C784 H809 0.950 . S
C785 C784 1.349 . S
C785 C801 1.349 . S
C786 C784 1.327 . S
C786 C805 1.429 . S
C786 H810 0.950 . S
C787 C804 1.574 . S
C787 C806 1.368 . S
C787 H811 0.949 . S
H788 C792 0.949 . S
C789 C790 1.349 . S
C789 C791 1.327 . S
C789 H812 0.950 . S
C790 C789 1.349 . S
C790 C802 1.349 . S
C791 C789 1.327 . S
C791 C807 1.429 . S
C791 H813 0.950 . S
C792 H788 0.949 . S
C792 C800 1.574 . S
C792 C808 1.368 . S
H793 C801 0.950 . S
H794 C799 0.950 . S
H795 C800 0.949 . S
H796 C802 0.950 . S
H797 C803 0.950 . S
H798 C804 0.949 . S
C799 H794 0.950 . S
C799 C801 1.327 . S
C799 C805 1.429 . S
C800 C792 1.574 . S
C800 H795 0.949 . S
C800 C806 1.368 . S
C801 C785 1.349 . S
C801 H793 0.950 . S
C801 C799 1.327 . S
C802 C790 1.349 . S
C802 H796 0.950 . S
C802 C803 1.327 . S
C803 H797 0.950 . S
C803 C802 1.327 . S
C803 C807 1.429 . S
C804 C787 1.574 . S
C804 H798 0.949 . S
C804 C808 1.368 . S
C805 C786 1.429 . S
C805 C799 1.429 . S
C805 C806 1.523 . S
C806 C787 1.368 . S
C806 C800 1.368 . S
C806 C805 1.523 . S
C807 C791 1.429 . S
C807 C803 1.429 . S
C807 C808 1.523 . S
C808 C792 1.368 . S
C808 C804 1.368 . S
C808 C807 1.523 . S
H809 C784 0.950 . S
H810 C786 0.950 . S
H811 C787 0.949 . S
H812 C789 0.950 . S
H813 C791 0.950 . S
C814 C815 1.349 . S
C814 C816 1.327 . S
C814 H839 0.950 . S
C815 C814 1.349 . S
C815 C831 1.349 . S
C816 C814 1.327 . S
C816 C835 1.429 . S
C816 H840 0.950 . S
C817 C834 1.574 . S
C817 C836 1.368 . S
C817 H841 0.949 . S
H818 C822 0.949 . S
C819 C820 1.349 . S
C819 C821 1.327 . S
C819 H842 0.950 . S
C820 C819 1.349 . S
C820 C832 1.349 . S
C821 C819 1.327 . S
C821 C837 1.429 . S
C821 H843 0.950 . S
C822 H818 0.949 . S
C822 C830 1.574 . S
C822 C838 1.368 . S
H823 C831 0.950 . S
H824 C829 0.950 . S
H825 C830 0.949 . S
H826 C832 0.950 . S
H827 C833 0.950 . S
H828 C834 0.949 . S
C829 H824 0.950 . S
C829 C831 1.327 . S
C829 C835 1.429 . S
C830 C822 1.574 . S
C830 H825 0.949 . S
C830 C836 1.368 . S
C831 C815 1.349 . S
C831 H823 0.950 . S
C831 C829 1.327 . S
C832 C820 1.349 . S
C832 H826 0.950 . S
C832 C833 1.327 . S
C833 H827 0.950 . S
C833 C832 1.327 . S
C833 C837 1.429 . S
C834 C817 1.574 . S
C834 H828 0.949 . S
C834 C838 1.368 . S
C835 C816 1.429 . S
C835 C829 1.429 . S
C835 C836 1.523 . S
C836 C817 1.368 . S
C836 C830 1.368 . S
C836 C835 1.523 . S
C837 C821 1.429 . S
C837 C833 1.429 . S
C837 C838 1.523 . S
C838 C822 1.368 . S
C838 C834 1.368 . S
C838 C837 1.523 . S
H839 C814 0.950 . S
H840 C816 0.950 . S
H841 C817 0.949 . S
H842 C819 0.950 . S
H843 C821 0.950 . S
C844 C845 1.349 . S
C844 C846 1.327 . S
C844 H869 0.950 . S
C845 C844 1.349 . S
C845 C861 1.349 . S
C846 C844 1.327 . S
C846 C865 1.429 . S
C846 H870 0.950 . S
C847 C864 1.574 . S
C847 C866 1.368 . S
C847 H871 0.949 . S
H848 C852 0.949 . S
C849 C850 1.349 . S
C849 C851 1.327 . S
C849 H872 0.950 . S
C850 C849 1.349 . S
C850 C862 1.349 . S
C851 C849 1.327 . S
C851 C867 1.429 . S
C851 H873 0.950 . S
C852 H848 0.949 . S
C852 C860 1.574 . S
C852 C868 1.368 . S
H853 C861 0.950 . S
H854 C859 0.950 . S
H855 C860 0.949 . S
H856 C862 0.950 . S
H857 C863 0.950 . S
H858 C864 0.949 . S
C859 H854 0.950 . S
C859 C861 1.327 . S
C859 C865 1.429 . S
C860 C852 1.574 . S
C860 H855 0.949 . S
C860 C866 1.368 . S
C861 C845 1.349 . S
C861 H853 0.950 . S
C861 C859 1.327 . S
C862 C850 1.349 . S
C862 H856 0.950 . S
C862 C863 1.327 . S
C863 H857 0.950 . S
C863 C862 1.327 . S
C863 C867 1.429 . S
C864 C847 1.574 . S
C864 H858 0.949 . S
C864 C868 1.368 . S
C865 C846 1.429 . S
C865 C859 1.429 . S
C865 C866 1.523 . S
C866 C847 1.368 . S
C866 C860 1.368 . S
C866 C865 1.523 . S
C867 C851 1.429 . S
C867 C863 1.429 . S
C867 C868 1.523 . S
C868 C852 1.368 . S
C868 C864 1.368 . S
C868 C867 1.523 . S
H869 C844 0.950 . S
H870 C846 0.950 . S
H871 C847 0.949 . S
H872 C849 0.950 . S
H873 C851 0.950 . S
C874 C875 1.349 . S
C874 C876 1.327 . S
C874 H899 0.950 . S
C875 C874 1.349 . S
C875 C891 1.349 . S
C876 C874 1.327 . S
C876 C895 1.429 . S
C876 H900 0.950 . S
C877 C894 1.574 1_556 S
C877 C896 1.368 . S
C877 H901 0.949 . S
H878 C882 0.949 . S
C879 C880 1.349 . S
C879 C881 1.327 . S
C879 H902 0.950 . S
C880 C879 1.349 . S
C880 C892 1.349 . S
C881 C879 1.327 . S
C881 C897 1.429 . S
C881 H903 0.950 . S
C882 H878 0.949 . S
C882 C890 1.574 . S
C882 C898 1.368 1_556 S
H883 C891 0.950 . S
H884 C889 0.950 . S
H885 C890 0.949 . S
H886 C892 0.950 . S
H887 C893 0.950 . S
H888 C894 0.949 . S
C889 H884 0.950 . S
C889 C891 1.327 . S
C889 C895 1.429 . S
C890 C882 1.574 . S
C890 H885 0.949 . S
C890 C896 1.368 . S
C891 C875 1.349 . S
C891 H883 0.950 . S
C891 C889 1.327 . S
C892 C880 1.349 . S
C892 H886 0.950 . S
C892 C893 1.327 . S
C893 H887 0.950 . S
C893 C892 1.327 . S
C893 C897 1.429 . S
C894 C877 1.574 1_554 S
C894 H888 0.949 . S
C894 C898 1.368 . S
C895 C876 1.429 . S
C895 C889 1.429 . S
C895 C896 1.523 . S
C896 C877 1.368 . S
C896 C890 1.368 . S
C896 C895 1.523 . S
C897 C881 1.429 . S
C897 C893 1.429 . S
C897 C898 1.523 . S
C898 C882 1.368 1_554 S
C898 C894 1.368 . S
C898 C897 1.523 . S
H899 C874 0.950 . S
H900 C876 0.950 . S
H901 C877 0.949 . S
H902 C879 0.950 . S
H903 C881 0.950 . S
C904 C905 1.349 . S
C904 C906 1.327 . S
C904 H929 0.950 . S
C905 C904 1.349 . S
C905 C921 1.349 . S
C906 C904 1.327 . S
C906 C925 1.429 . S
C906 H930 0.950 . S
C907 C924 1.574 . S
C907 C926 1.368 . S
C907 H931 0.949 . S
H908 C912 0.949 . S
C909 C910 1.349 . S
C909 C911 1.327 . S
C909 H932 0.950 . S
C910 C909 1.349 . S
C910 C922 1.349 . S
C911 C909 1.327 . S
C911 C927 1.429 . S
C911 H933 0.950 . S
C912 H908 0.949 . S
C912 C920 1.574 . S
C912 C928 1.368 . S
H913 C921 0.950 . S
H914 C919 0.950 . S
H915 C920 0.949 . S
H916 C922 0.950 . S
H917 C923 0.950 . S
H918 C924 0.949 . S
C919 H914 0.950 . S
C919 C921 1.327 . S
C919 C925 1.429 . S
C920 C912 1.574 . S
C920 H915 0.949 . S
C920 C926 1.368 . S
C921 C905 1.349 . S
C921 H913 0.950 . S
C921 C919 1.327 . S
C922 C910 1.349 . S
C922 H916 0.950 . S
C922 C923 1.327 . S
C923 H917 0.950 . S
C923 C922 1.327 . S
C923 C927 1.429 . S
C924 C907 1.574 . S
C924 H918 0.949 . S
C924 C928 1.368 . S
C925 C906 1.429 . S
C925 C919 1.429 . S
C925 C926 1.523 . S
C926 C907 1.368 . S
C926 C920 1.368 . S
C926 C925 1.523 . S
C927 C911 1.429 . S
C927 C923 1.429 . S
C927 C928 1.523 . S
C928 C912 1.368 . S
C928 C924 1.368 . S
C928 C927 1.523 . S
H929 C904 0.950 . S
H930 C906 0.950 . S
H931 C907 0.949 . S
H932 C909 0.950 . S
H933 C911 0.950 . S
C934 C935 1.349 . S
C934 C936 1.327 . S
C934 H959 0.950 . S
C935 C934 1.349 . S
C935 C951 1.349 . S
C936 C934 1.327 . S
C936 C955 1.429 . S
C936 H960 0.950 . S
C937 C954 1.574 1_545 S
C937 C956 1.368 . S
C937 H961 0.949 . S
H938 C942 0.962 . S
C939 C940 1.349 . S
C939 C941 1.327 . S
C939 H962 0.950 . S
C940 C939 1.349 . S
C940 C952 1.349 . S
C941 C939 1.327 . S
C941 C957 1.429 . S
C941 H963 0.950 . S
C942 H938 0.962 . S
C942 C950 1.574 . S
C942 C958 1.368 1_545 S
H943 C951 0.950 . S
H944 C949 0.950 . S
H945 C950 0.949 . S
H946 C952 0.950 . S
H947 C953 0.950 . S
H948 C954 0.949 . S
C949 H944 0.950 . S
C949 C951 1.327 . S
C949 C955 1.429 . S
C950 C942 1.574 . S
C950 H945 0.949 . S
C950 C956 1.368 . S
C951 C935 1.349 . S
C951 H943 0.950 . S
C951 C949 1.327 . S
C952 C940 1.349 . S
C952 H946 0.950 . S
C952 C953 1.327 . S
C953 H947 0.950 . S
C953 C952 1.327 . S
C953 C957 1.429 . S
C954 C937 1.574 1_565 S
C954 H948 0.949 . S
C954 C958 1.368 . S
C955 C936 1.429 . S
C955 C949 1.429 . S
C955 C956 1.523 . S
C956 C937 1.368 . S
C956 C950 1.368 . S
C956 C955 1.523 . S
C957 C941 1.429 . S
C957 C953 1.429 . S
C957 C958 1.523 . S
C958 C942 1.368 1_565 S
C958 C954 1.368 . S
C958 C957 1.523 . S
H959 C934 0.950 . S
H960 C936 0.950 . S
H961 C937 0.949 . S
H962 C939 0.950 . S
H963 C941 0.950 . S
C964 C965 1.349 . S
C964 C966 1.327 . S
C964 H989 0.950 . S
C965 C964 1.349 . S
C965 C981 1.349 . S
C966 C964 1.327 . S
C966 C985 1.429 . S
C966 H990 0.950 . S
C967 C984 1.574 . S
C967 C986 1.368 . S
C967 H991 0.949 . S
H968 C972 0.949 . S
C969 C970 1.349 . S
C969 C971 1.327 . S
C969 H992 0.950 . S
C970 C969 1.349 . S
C970 C982 1.349 . S
C971 C969 1.327 . S
C971 C987 1.429 . S
C971 H993 0.950 . S
C972 H968 0.949 . S
C972 C980 1.574 . S
C972 C988 1.368 . S
H973 C981 0.950 . S
H974 C979 0.950 . S
H975 C980 0.949 . S
H976 C982 0.950 . S
H977 C983 0.950 . S
H978 C984 0.949 . S
C979 H974 0.950 . S
C979 C981 1.327 . S
C979 C985 1.429 . S
C980 C972 1.574 . S
C980 H975 0.949 . S
C980 C986 1.368 . S
C981 C965 1.349 . S
C981 H973 0.950 . S
C981 C979 1.327 . S
C982 C970 1.349 . S
C982 H976 0.950 . S
C982 C983 1.327 . S
C983 H977 0.950 . S
C983 C982 1.327 . S
C983 C987 1.429 . S
C984 C967 1.574 . S
C984 H978 0.949 . S
C984 C988 1.368 . S
C985 C966 1.429 . S
C985 C979 1.429 . S
C985 C986 1.523 . S
C986 C967 1.368 . S
C986 C980 1.368 . S
C986 C985 1.523 . S
C987 C971 1.429 . S
C987 C983 1.429 . S
C987 C988 1.523 . S
C988 C972 1.368 . S
C988 C984 1.368 . S
C988 C987 1.523 . S
H989 C964 0.950 . S
H990 C966 0.950 . S
H991 C967 0.949 . S
H992 C969 0.950 . S
H993 C971 0.950 . S
C994 C995 1.349 . S
C994 C996 1.327 . S
C994 H1019 0.950 . S
C995 C994 1.349 . S
C995 C1011 1.349 . S
C996 C994 1.327 . S
C996 C1015 1.429 . S
C996 H1020 0.950 . S
C997 C1014 1.574 1_565 S
C997 C1016 1.368 . S
C997 H1021 0.949 . S
H998 C1002 0.949 . S
C999 C1000 1.349 . S
C999 C1001 1.327 . S
C999 H1022 0.950 . S
C1000 C999 1.349 . S
C1000 C1012 1.349 . S
C1001 C999 1.327 . S
C1001 C1017 1.429 . S
C1001 H1023 0.950 . S
C1002 H998 0.949 . S
C1002 C1010 1.574 . S
C1002 C1018 1.368 1_565 S
H1003 C1011 0.950 . S
H1004 C1009 0.950 . S
H1005 C1010 0.949 . S
H1006 C1012 0.950 . S
H1007 C1013 0.950 . S
H1008 C1014 0.949 . S
C1009 H1004 0.950 . S
C1009 C1011 1.327 . S
C1009 C1015 1.429 . S
C1010 C1002 1.574 . S
C1010 H1005 0.949 . S
C1010 C1016 1.368 . S
C1011 C995 1.349 . S
C1011 H1003 0.950 . S
C1011 C1009 1.327 . S
C1012 C1000 1.349 . S
C1012 H1006 0.950 . S
C1012 C1013 1.327 . S
C1013 H1007 0.950 . S
C1013 C1012 1.327 . S
C1013 C1017 1.429 . S
C1014 C997 1.574 1_545 S
C1014 H1008 0.949 . S
C1014 C1018 1.368 . S
C1015 C996 1.429 . S
C1015 C1009 1.429 . S
C1015 C1016 1.523 . S
C1016 C997 1.368 . S
C1016 C1010 1.368 . S
C1016 C1015 1.523 . S
C1017 C1001 1.429 . S
C1017 C1013 1.429 . S
C1017 C1018 1.523 . S
C1018 C1002 1.368 1_545 S
C1018 C1014 1.368 . S
C1018 C1017 1.523 . S
H1019 C994 0.950 . S
H1020 C996 0.950 . S
H1021 C997 0.949 . S
H1022 C999 0.950 . S
H1023 C1001 0.950 . S
C1024 C1025 1.349 . S
C1024 C1026 1.327 . S
C1024 H1049 0.949 1_565 S
C1025 C1024 1.349 . S
C1025 C1041 1.349 . S
C1026 C1024 1.327 . S
C1026 C1045 1.429 . S
C1026 H1050 0.950 . S
C1027 C1044 1.574 . S
C1027 C1046 1.368 . S
C1027 H1051 0.949 . S
H1028 C1032 0.949 . S
C1029 C1030 1.349 . S
C1029 C1031 1.327 . S
C1029 H1052 0.950 . S
C1030 C1029 1.349 . S
C1030 C1042 1.349 . S
C1031 C1029 1.327 . S
C1031 C1047 1.429 . S
C1031 H1053 0.950 . S
C1032 H1028 0.949 . S
C1032 C1040 1.574 . S
C1032 C1048 1.368 . S
H1033 C1041 0.950 . S
H1034 C1039 0.950 . S
H1035 C1040 0.949 . S
H1036 C1042 0.950 . S
H1037 C1043 0.950 . S
H1038 C1044 0.949 . S
C1039 H1034 0.950 . S
C1039 C1041 1.327 . S
C1039 C1045 1.429 . S
C1040 C1032 1.574 . S
C1040 H1035 0.949 . S
C1040 C1046 1.368 . S
C1041 C1025 1.349 . S
C1041 H1033 0.950 . S
C1041 C1039 1.327 . S
C1042 C1030 1.349 . S
C1042 H1036 0.950 . S
C1042 C1043 1.327 . S
C1043 H1037 0.950 . S
C1043 C1042 1.327 . S
C1043 C1047 1.429 . S
C1044 C1027 1.574 . S
C1044 H1038 0.949 . S
C1044 C1048 1.368 . S
C1045 C1026 1.429 . S
C1045 C1039 1.429 . S
C1045 C1046 1.523 . S
C1046 C1027 1.368 . S
C1046 C1040 1.368 . S
C1046 C1045 1.523 . S
C1047 C1031 1.429 . S
C1047 C1043 1.429 . S
C1047 C1048 1.523 . S
C1048 C1032 1.368 . S
C1048 C1044 1.368 . S
C1048 C1047 1.523 . S
H1049 C1024 0.949 1_545 S
H1050 C1026 0.950 . S
H1051 C1027 0.949 . S
H1052 C1029 0.950 . S
H1053 C1031 0.950 . S
C1054 C1055 1.349 . S
C1054 C1056 1.327 . S
C1054 H1079 0.950 . S
C1055 C1054 1.349 . S
C1055 C1071 1.349 . S
C1056 C1054 1.327 . S
C1056 C1075 1.429 . S
C1056 H1080 0.950 . S
C1057 C1074 1.574 1_545 S
C1057 C1076 1.368 . S
C1057 H1081 0.949 . S
H1058 C1062 0.949 1_565 S
C1059 C1060 1.349 . S
C1059 C1061 1.327 . S
C1059 H1082 0.950 . S
C1060 C1059 1.349 . S
C1060 C1072 1.349 . S
C1061 C1059 1.327 . S
C1061 C1077 1.429 . S
C1061 H1083 0.950 . S
C1062 H1058 0.949 1_545 S
C1062 C1070 1.574 . S
C1062 C1078 1.368 1_545 S
H1063 C1071 0.950 . S
H1064 C1069 0.950 . S
H1065 C1070 0.949 . S
H1066 C1072 0.950 . S
H1067 C1073 0.950 . S
H1068 C1074 0.949 . S
C1069 H1064 0.950 . S
C1069 C1071 1.327 . S
C1069 C1075 1.429 . S
C1070 C1062 1.574 . S
C1070 H1065 0.949 . S
C1070 C1076 1.368 . S
C1071 C1055 1.349 . S
C1071 H1063 0.950 . S
C1071 C1069 1.327 . S
C1072 C1060 1.349 . S
C1072 H1066 0.950 . S
C1072 C1073 1.327 . S
C1073 H1067 0.950 . S
C1073 C1072 1.327 . S
C1073 C1077 1.429 . S
C1074 C1057 1.574 1_565 S
C1074 H1068 0.949 . S
C1074 C1078 1.368 . S
C1075 C1056 1.429 . S
C1075 C1069 1.429 . S
C1075 C1076 1.523 . S
C1076 C1057 1.368 . S
C1076 C1070 1.368 . S
C1076 C1075 1.523 . S
C1077 C1061 1.429 . S
C1077 C1073 1.429 . S
C1077 C1078 1.523 . S
C1078 C1062 1.368 1_565 S
C1078 C1074 1.368 . S
C1078 C1077 1.523 . S
H1079 C1054 0.950 . S
H1080 C1056 0.950 . S
H1081 C1057 0.949 . S
H1082 C1059 0.950 . S
H1083 C1061 0.950 . S
C1084 C1085 1.349 . S
C1084 C1086 1.327 . S
C1084 H1109 0.950 . S
C1085 C1084 1.349 . S
C1085 C1101 1.349 . S
C1086 C1084 1.327 . S
C1086 C1105 1.429 . S
C1086 H1110 0.950 . S
C1087 C1104 1.574 . S
C1087 C1106 1.368 . S
C1087 H1111 0.949 . S
H1088 C1092 0.949 . S
C1089 C1090 1.349 . S
C1089 C1091 1.327 . S
C1089 H1112 0.950 . S
C1090 C1089 1.349 . S
C1090 C1102 1.349 . S
C1091 C1089 1.327 . S
C1091 C1107 1.429 . S
C1091 H1113 0.950 . S
C1092 H1088 0.949 . S
C1092 C1100 1.574 . S
C1092 C1108 1.368 . S
H1093 C1101 0.950 . S
H1094 C1099 0.950 . S
H1095 C1100 0.949 . S
H1096 C1102 0.950 . S
H1097 C1103 0.950 . S
H1098 C1104 0.949 . S
C1099 H1094 0.950 . S
C1099 C1101 1.327 . S
C1099 C1105 1.429 . S
C1100 C1092 1.574 . S
C1100 H1095 0.949 . S
C1100 C1106 1.368 . S
C1101 C1085 1.349 . S
C1101 H1093 0.950 . S
C1101 C1099 1.327 . S
C1102 C1090 1.349 . S
C1102 H1096 0.950 . S
C1102 C1103 1.327 . S
C1103 H1097 0.950 . S
C1103 C1102 1.327 . S
C1103 C1107 1.429 . S
C1104 C1087 1.574 . S
C1104 H1098 0.949 . S
C1104 C1108 1.368 . S
C1105 C1086 1.429 . S
C1105 C1099 1.429 . S
C1105 C1106 1.523 . S
C1106 C1087 1.368 . S
C1106 C1100 1.368 . S
C1106 C1105 1.523 . S
C1107 C1091 1.429 . S
C1107 C1103 1.429 . S
C1107 C1108 1.523 . S
C1108 C1092 1.368 . S
C1108 C1104 1.368 . S
C1108 C1107 1.523 . S
H1109 C1084 0.950 . S
H1110 C1086 0.950 . S
H1111 C1087 0.949 . S
H1112 C1089 0.950 . S
H1113 C1091 0.950 . S
C1114 C1115 1.349 . S
C1114 C1116 1.327 . S
C1114 H1139 0.950 . S
C1115 C1114 1.349 . S
C1115 C1131 1.349 . S
C1116 C1114 1.327 . S
C1116 C1135 1.429 . S
C1116 H1140 0.950 . S
C1117 C1134 1.574 . S
C1117 C1136 1.368 . S
C1117 H1141 0.949 . S
H1118 C1122 0.949 . S
C1119 C1120 1.349 . S
C1119 C1121 1.327 . S
C1119 H1142 0.950 . S
C1120 C1119 1.349 . S
C1120 C1132 1.349 . S
C1121 C1119 1.327 . S
C1121 C1137 1.429 . S
C1121 H1143 0.950 . S
C1122 H1118 0.949 . S
C1122 C1130 1.574 1_545 S
C1122 C1138 1.368 . S
H1123 C1131 0.950 . S
H1124 C1129 0.950 . S
H1125 C1130 0.949 . S
H1126 C1132 0.950 . S
H1127 C1133 0.950 . S
H1128 C1134 0.949 1_545 S
C1129 H1124 0.950 . S
C1129 C1131 1.327 . S
C1129 C1135 1.429 . S
C1130 C1122 1.574 1_565 S
C1130 H1125 0.949 . S
C1130 C1136 1.368 . S
C1131 C1115 1.349 . S
C1131 H1123 0.950 . S
C1131 C1129 1.327 . S
C1132 C1120 1.349 . S
C1132 H1126 0.950 . S
C1132 C1133 1.327 . S
C1133 H1127 0.950 . S
C1133 C1132 1.327 . S
C1133 C1137 1.429 . S
C1134 C1117 1.574 . S
C1134 H1128 0.949 1_565 S
C1134 C1138 1.368 1_565 S
C1135 C1116 1.429 . S
C1135 C1129 1.429 . S
C1135 C1136 1.523 . S
C1136 C1117 1.368 . S
C1136 C1130 1.368 . S
C1136 C1135 1.523 . S
C1137 C1121 1.429 . S
C1137 C1133 1.429 . S
C1137 C1138 1.523 . S
C1138 C1122 1.368 . S
C1138 C1134 1.368 1_545 S
C1138 C1137 1.523 . S
H1139 C1114 0.950 . S
H1140 C1116 0.950 . S
H1141 C1117 0.949 . S
H1142 C1119 0.950 . S
H1143 C1121 0.950 . S
C1144 C1145 1.349 . S
C1144 C1146 1.327 . S
C1144 H1169 0.950 . S
C1145 C1144 1.349 . S
C1145 C1161 1.349 . S
C1146 C1144 1.327 . S
C1146 C1165 1.429 . S
C1146 H1170 0.950 . S
C1147 C1164 1.574 . S
C1147 C1166 1.368 . S
C1147 H1171 0.949 . S
H1148 C1152 0.949 . S
C1149 C1150 1.349 . S
C1149 C1151 1.327 . S
C1149 H1172 0.950 . S
C1150 C1149 1.349 . S
C1150 C1162 1.349 . S
C1151 C1149 1.327 . S
C1151 C1167 1.429 . S
C1151 H1173 0.950 . S
C1152 H1148 0.949 . S
C1152 C1160 1.574 . S
C1152 C1168 1.368 . S
H1153 C1161 0.950 . S
H1154 C1159 0.950 . S
H1155 C1160 0.949 . S
H1156 C1162 0.950 . S
H1157 C1163 0.950 . S
H1158 C1164 0.949 . S
C1159 H1154 0.950 . S
C1159 C1161 1.327 . S
C1159 C1165 1.429 . S
C1160 C1152 1.574 . S
C1160 H1155 0.949 . S
C1160 C1166 1.368 . S
C1161 C1145 1.349 . S
C1161 H1153 0.950 . S
C1161 C1159 1.327 . S
C1162 C1150 1.349 . S
C1162 H1156 0.950 . S
C1162 C1163 1.327 . S
C1163 H1157 0.950 . S
C1163 C1162 1.327 . S
C1163 C1167 1.429 . S
C1164 C1147 1.574 . S
C1164 H1158 0.949 . S
C1164 C1168 1.368 . S
C1165 C1146 1.429 . S
C1165 C1159 1.429 . S
C1165 C1166 1.523 . S
C1166 C1147 1.368 . S
C1166 C1160 1.368 . S
C1166 C1165 1.523 . S
C1167 C1151 1.429 . S
C1167 C1163 1.429 . S
C1167 C1168 1.523 . S
C1168 C1152 1.368 . S
C1168 C1164 1.368 . S
C1168 C1167 1.523 . S
H1169 C1144 0.950 . S
H1170 C1146 0.950 . S
H1171 C1147 0.949 . S
H1172 C1149 0.950 . S
H1173 C1151 0.950 . S
C1174 C1175 1.349 . S
C1174 C1176 1.327 . S
C1174 H1199 0.950 . S
C1175 C1174 1.349 . S
C1175 C1191 1.349 . S
C1176 C1174 1.327 . S
C1176 C1195 1.429 . S
C1176 H1200 0.950 . S
C1177 C1194 1.574 . S
C1177 C1196 1.368 . S
C1177 H1201 0.949 . S
H1178 C1182 0.949 . S
C1179 C1180 1.349 . S
C1179 C1181 1.327 . S
C1179 H1202 0.950 . S
C1180 C1179 1.349 . S
C1180 C1192 1.349 . S
C1181 C1179 1.327 . S
C1181 C1197 1.429 . S
C1181 H1203 0.950 . S
C1182 H1178 0.949 . S
C1182 C1190 1.574 . S
C1182 C1198 1.368 . S
H1183 C1191 0.950 . S
H1184 C1189 0.950 . S
H1185 C1190 0.949 . S
H1186 C1192 0.950 . S
H1187 C1193 0.950 . S
H1188 C1194 0.949 . S
C1189 H1184 0.950 . S
C1189 C1191 1.327 . S
C1189 C1195 1.429 . S
C1190 C1182 1.574 . S
C1190 H1185 0.949 . S
C1190 C1196 1.368 . S
C1191 C1175 1.349 . S
C1191 H1183 0.950 . S
C1191 C1189 1.327 . S
C1192 C1180 1.349 . S
C1192 H1186 0.950 . S
C1192 C1193 1.327 . S
C1193 H1187 0.950 . S
C1193 C1192 1.327 . S
C1193 C1197 1.429 . S
C1194 C1177 1.574 . S
C1194 H1188 0.949 . S
C1194 C1198 1.368 . S
C1195 C1176 1.429 . S
C1195 C1189 1.429 . S
C1195 C1196 1.523 . S
C1196 C1177 1.368 . S
C1196 C1190 1.368 . S
C1196 C1195 1.523 . S
C1197 C1181 1.429 . S
C1197 C1193 1.429 . S
C1197 C1198 1.523 . S
C1198 C1182 1.368 . S
C1198 C1194 1.368 . S
C1198 C1197 1.523 . S
H1199 C1174 0.950 . S
H1200 C1176 0.950 . S
H1201 C1177 0.949 . S
H1202 C1179 0.950 . S
H1203 C1181 0.950 . S
C1204 C1205 1.349 . S
C1204 C1206 1.327 . S
C1204 H1229 0.950 . S
C1205 C1204 1.349 . S
C1205 C1221 1.349 . S
C1206 C1204 1.327 . S
C1206 C1225 1.429 . S
C1206 H1230 0.950 . S
C1207 C1224 1.574 1_455 S
C1207 C1226 1.368 . S
C1207 H1231 0.949 . S
H1208 C1212 0.949 . S
C1209 C1210 1.349 . S
C1209 C1211 1.327 . S
C1209 H1232 0.950 . S
C1210 C1209 1.349 . S
C1210 C1222 1.349 . S
C1211 C1209 1.327 . S
C1211 C1227 1.429 . S
C1211 H1233 0.950 . S
C1212 H1208 0.949 . S
C1212 C1220 1.574 . S
C1212 C1228 1.368 1_455 S
H1213 C1221 0.950 . S
H1214 C1219 0.950 . S
H1215 C1220 0.949 . S
H1216 C1222 0.950 . S
H1217 C1223 0.950 . S
H1218 C1224 0.949 . S
C1219 H1214 0.950 . S
C1219 C1221 1.327 . S
C1219 C1225 1.429 . S
C1220 C1212 1.574 . S
C1220 H1215 0.949 . S
C1220 C1226 1.368 . S
C1221 C1205 1.349 . S
C1221 H1213 0.950 . S
C1221 C1219 1.327 . S
C1222 C1210 1.349 . S
C1222 H1216 0.950 . S
C1222 C1223 1.327 . S
C1223 H1217 0.950 . S
C1223 C1222 1.327 . S
C1223 C1227 1.429 . S
C1224 C1207 1.574 1_655 S
C1224 H1218 0.949 . S
C1224 C1228 1.368 . S
C1225 C1206 1.429 . S
C1225 C1219 1.429 . S
C1225 C1226 1.523 . S
C1226 C1207 1.368 . S
C1226 C1220 1.368 . S
C1226 C1225 1.523 . S
C1227 C1211 1.429 . S
C1227 C1223 1.429 . S
C1227 C1228 1.523 . S
C1228 C1212 1.368 1_655 S
C1228 C1224 1.368 . S
C1228 C1227 1.523 . S
H1229 C1204 0.950 . S
H1230 C1206 0.950 . S
H1231 C1207 0.949 . S
H1232 C1209 0.950 . S
H1233 C1211 0.950 . S
C1234 C1235 1.349 . S
C1234 C1236 1.327 . S
C1234 H1259 0.950 . S
C1235 C1234 1.349 . S
C1235 C1251 1.349 . S
C1236 C1234 1.327 . S
C1236 C1255 1.429 . S
C1236 H1260 0.950 . S
C1237 C1254 1.574 . S
C1237 C1256 1.368 . S
C1237 H1261 0.949 . S
H1238 C1242 0.949 . S
C1239 C1240 1.349 . S
C1239 C1241 1.327 . S
C1239 H1262 0.950 . S
C1240 C1239 1.349 . S
C1240 C1252 1.349 . S
C1241 C1239 1.327 . S
C1241 C1257 1.429 . S
C1241 H1263 0.950 . S
C1242 H1238 0.949 . S
C1242 C1250 1.574 . S
C1242 C1258 1.368 . S
H1243 C1251 0.950 . S
H1244 C1249 0.950 . S
H1245 C1250 0.949 . S
H1246 C1252 0.950 . S
H1247 C1253 0.950 . S
H1248 C1254 0.949 . S
C1249 H1244 0.950 . S
C1249 C1251 1.327 . S
C1249 C1255 1.429 . S
C1250 C1242 1.574 . S
C1250 H1245 0.949 . S
C1250 C1256 1.368 . S
C1251 C1235 1.349 . S
C1251 H1243 0.950 . S
C1251 C1249 1.327 . S
C1252 C1240 1.349 . S
C1252 H1246 0.950 . S
C1252 C1253 1.327 . S
C1253 H1247 0.950 . S
C1253 C1252 1.327 . S
C1253 C1257 1.429 . S
C1254 C1237 1.574 . S
C1254 H1248 0.949 . S
C1254 C1258 1.368 . S
C1255 C1236 1.429 . S
C1255 C1249 1.429 . S
C1255 C1256 1.523 . S
C1256 C1237 1.368 . S
C1256 C1250 1.368 . S
C1256 C1255 1.523 . S
C1257 C1241 1.429 . S
C1257 C1253 1.429 . S
C1257 C1258 1.523 . S
C1258 C1242 1.368 . S
C1258 C1254 1.368 . S
C1258 C1257 1.523 . S
H1259 C1234 0.950 . S
H1260 C1236 0.950 . S
H1261 C1237 0.949 . S
H1262 C1239 0.950 . S
H1263 C1241 0.950 . S
C1264 C1265 1.349 . S
C1264 C1266 1.327 . S
C1264 H1289 0.950 . S
C1265 C1264 1.349 . S
C1265 C1281 1.349 . S
C1266 C1264 1.327 . S
C1266 C1285 1.429 . S
C1266 H1290 0.950 . S
C1267 C1284 1.574 . S
C1267 C1286 1.368 . S
C1267 H1291 0.949 . S
H1268 C1272 0.949 . S
C1269 C1270 1.349 . S
C1269 C1271 1.327 . S
C1269 H1292 0.950 . S
C1270 C1269 1.349 . S
C1270 C1282 1.349 . S
C1271 C1269 1.327 . S
C1271 C1287 1.429 . S
C1271 H1293 0.950 . S
C1272 H1268 0.949 . S
C1272 C1280 1.574 1_455 S
C1272 C1288 1.368 . S
H1273 C1281 0.950 . S
H1274 C1279 0.950 . S
H1275 C1280 0.949 . S
H1276 C1282 0.950 . S
H1277 C1283 0.950 . S
H1278 C1284 0.949 . S
C1279 H1274 0.950 . S
C1279 C1281 1.327 . S
C1279 C1285 1.429 . S
C1280 C1272 1.574 1_655 S
C1280 H1275 0.949 . S
C1280 C1286 1.368 . S
C1281 C1265 1.349 . S
C1281 H1273 0.950 . S
C1281 C1279 1.327 . S
C1282 C1270 1.349 . S
C1282 H1276 0.950 . S
C1282 C1283 1.327 . S
C1283 H1277 0.950 . S
C1283 C1282 1.327 . S
C1283 C1287 1.429 . S
C1284 C1267 1.574 . S
C1284 H1278 0.949 . S
C1284 C1288 1.368 1_655 S
C1285 C1266 1.429 . S
C1285 C1279 1.429 . S
C1285 C1286 1.523 . S
C1286 C1267 1.368 . S
C1286 C1280 1.368 . S
C1286 C1285 1.523 . S
C1287 C1271 1.429 . S
C1287 C1283 1.429 . S
C1287 C1288 1.523 . S
C1288 C1272 1.368 . S
C1288 C1284 1.368 1_455 S
C1288 C1287 1.523 . S
H1289 C1264 0.950 . S
H1290 C1266 0.950 . S
H1291 C1267 0.949 . S
H1292 C1269 0.950 . S
H1293 C1271 0.950 . S
C1294 C1295 1.349 . S
C1294 C1296 1.327 . S
C1294 H1319 0.950 . S
C1295 C1294 1.349 . S
C1295 C1311 1.349 . S
C1296 C1294 1.327 . S
C1296 C1315 1.429 . S
C1296 H1320 0.950 . S
C1297 C1314 1.574 . S
C1297 C1316 1.368 . S
C1297 H1321 0.949 . S
H1298 C1302 0.949 . S
C1299 C1300 1.349 . S
C1299 C1301 1.327 . S
C1299 H1322 0.950 . S
C1300 C1299 1.349 . S
C1300 C1312 1.349 . S
C1301 C1299 1.327 . S
C1301 C1317 1.429 . S
C1301 H1323 0.950 . S
C1302 H1298 0.949 . S
C1302 C1310 1.574 . S
C1302 C1318 1.368 . S
H1303 C1311 0.950 . S
H1304 C1309 0.950 . S
H1305 C1310 0.949 . S
H1306 C1312 0.950 . S
H1307 C1313 0.950 . S
H1308 C1314 0.949 . S
C1309 H1304 0.950 . S
C1309 C1311 1.327 . S
C1309 C1315 1.429 . S
C1310 C1302 1.574 . S
C1310 H1305 0.949 . S
C1310 C1316 1.368 . S
C1311 C1295 1.349 . S
C1311 H1303 0.950 . S
C1311 C1309 1.327 . S
C1312 C1300 1.349 . S
C1312 H1306 0.950 . S
C1312 C1313 1.327 . S
C1313 H1307 0.950 . S
C1313 C1312 1.327 . S
C1313 C1317 1.429 . S
C1314 C1297 1.574 . S
C1314 H1308 0.949 . S
C1314 C1318 1.368 . S
C1315 C1296 1.429 . S
C1315 C1309 1.429 . S
C1315 C1316 1.523 . S
C1316 C1297 1.368 . S
C1316 C1310 1.368 . S
C1316 C1315 1.523 . S
C1317 C1301 1.429 . S
C1317 C1313 1.429 . S
C1317 C1318 1.523 . S
C1318 C1302 1.368 . S
C1318 C1314 1.368 . S
C1318 C1317 1.523 . S
H1319 C1294 0.950 . S
H1320 C1296 0.950 . S
H1321 C1297 0.949 . S
H1322 C1299 0.950 . S
H1323 C1301 0.950 . S
C1324 C1325 1.349 . S
C1324 C1326 1.327 . S
C1324 H1349 0.950 . S
C1325 C1324 1.349 . S
C1325 C1341 1.349 . S
C1326 C1324 1.327 . S
C1326 C1345 1.429 . S
C1326 H1350 0.950 . S
C1327 C1344 1.574 1_455 S
C1327 C1346 1.368 . S
C1327 H1351 0.949 . S
H1328 C1332 0.949 . S
C1329 C1330 1.349 . S
C1329 C1331 1.327 . S
C1329 H1352 0.950 . S
C1330 C1329 1.349 . S
C1330 C1342 1.349 . S
C1331 C1329 1.327 . S
C1331 C1347 1.429 . S
C1331 H1353 0.950 . S
C1332 H1328 0.949 . S
C1332 C1340 1.574 . S
C1332 C1348 1.368 1_455 S
H1333 C1341 0.950 . S
H1334 C1339 0.950 . S
H1335 C1340 0.949 . S
H1336 C1342 0.950 . S
H1337 C1343 0.950 . S
H1338 C1344 0.949 . S
C1339 H1334 0.950 . S
C1339 C1341 1.327 . S
C1339 C1345 1.429 . S
C1340 C1332 1.574 . S
C1340 H1335 0.949 . S
C1340 C1346 1.368 . S
C1341 C1325 1.349 . S
C1341 H1333 0.950 . S
C1341 C1339 1.327 . S
C1342 C1330 1.349 . S
C1342 H1336 0.950 . S
C1342 C1343 1.327 . S
C1343 H1337 0.950 . S
C1343 C1342 1.327 . S
C1343 C1347 1.429 . S
C1344 C1327 1.574 1_655 S
C1344 H1338 0.949 . S
C1344 C1348 1.368 . S
C1345 C1326 1.429 . S
C1345 C1339 1.429 . S
C1345 C1346 1.523 . S
C1346 C1327 1.368 . S
C1346 C1340 1.368 . S
C1346 C1345 1.523 . S
C1347 C1331 1.429 . S
C1347 C1343 1.429 . S
C1347 C1348 1.523 . S
C1348 C1332 1.368 1_655 S
C1348 C1344 1.368 . S
C1348 C1347 1.523 . S
H1349 C1324 0.950 . S
H1350 C1326 0.950 . S
H1351 C1327 0.949 . S
H1352 C1329 0.950 . S
H1353 C1331 0.950 . S
C1354 C1355 1.349 . S
C1354 C1356 1.327 . S
C1354 H1379 0.950 . S
C1355 C1354 1.349 . S
C1355 C1371 1.349 . S
C1356 C1354 1.327 . S
C1356 C1375 1.429 . S
C1356 H1380 0.950 . S
C1357 C1374 1.574 . S
C1357 C1376 1.368 . S
C1357 H1381 0.949 . S
H1358 C1362 0.949 . S
C1359 C1360 1.349 . S
C1359 C1361 1.327 . S
C1359 H1382 0.950 . S
C1360 C1359 1.349 . S
C1360 C1372 1.349 . S
C1361 C1359 1.327 . S
C1361 C1377 1.429 . S
C1361 H1383 0.950 . S
C1362 H1358 0.949 . S
C1362 C1370 1.574 . S
C1362 C1378 1.368 . S
H1363 C1371 0.950 . S
H1364 C1369 0.950 . S
H1365 C1370 0.949 . S
H1366 C1372 0.950 . S
H1367 C1373 0.950 . S
H1368 C1374 0.949 . S
C1369 H1364 0.950 . S
C1369 C1371 1.327 . S
C1369 C1375 1.429 . S
C1370 C1362 1.574 . S
C1370 H1365 0.949 . S
C1370 C1376 1.368 . S
C1371 C1355 1.349 . S
C1371 H1363 0.950 . S
C1371 C1369 1.327 . S
C1372 C1360 1.349 . S
C1372 H1366 0.950 . S
C1372 C1373 1.327 . S
C1373 H1367 0.950 . S
C1373 C1372 1.327 . S
C1373 C1377 1.429 . S
C1374 C1357 1.574 . S
C1374 H1368 0.949 . S
C1374 C1378 1.368 . S
C1375 C1356 1.429 . S
C1375 C1369 1.429 . S
C1375 C1376 1.523 . S
C1376 C1357 1.368 . S
C1376 C1370 1.368 . S
C1376 C1375 1.523 . S
C1377 C1361 1.429 . S
C1377 C1373 1.429 . S
C1377 C1378 1.523 . S
C1378 C1362 1.368 . S
C1378 C1374 1.368 . S
C1378 C1377 1.523 . S
H1379 C1354 0.950 . S
H1380 C1356 0.950 . S
H1381 C1357 0.949 . S
H1382 C1359 0.950 . S
H1383 C1361 0.950 . S
C1384 C1385 1.349 . S
C1384 C1386 1.327 . S
C1384 H1409 0.950 . S
C1385 C1384 1.349 . S
C1385 C1401 1.349 . S
C1386 C1384 1.327 . S
C1386 C1405 1.429 . S
C1386 H1410 0.950 . S
C1387 C1404 1.574 . S
C1387 C1406 1.368 . S
C1387 H1411 0.949 . S
H1388 C1392 0.949 . S
C1389 C1390 1.349 . S
C1389 C1391 1.327 . S
C1389 H1412 0.950 . S
C1390 C1389 1.349 . S
C1390 C1402 1.349 . S
C1391 C1389 1.327 . S
C1391 C1407 1.429 . S
C1391 H1413 0.950 . S
C1392 H1388 0.949 . S
C1392 C1400 1.574 . S
C1392 C1408 1.368 . S
H1393 C1401 0.950 . S
H1394 C1399 0.950 . S
H1395 C1400 0.949 . S
H1396 C1402 0.950 . S
H1397 C1403 0.950 . S
H1398 C1404 0.949 . S
C1399 H1394 0.950 . S
C1399 C1401 1.327 . S
C1399 C1405 1.429 . S
C1400 C1392 1.574 . S
C1400 H1395 0.949 . S
C1400 C1406 1.368 . S
C1401 C1385 1.349 . S
C1401 H1393 0.950 . S
C1401 C1399 1.327 . S
C1402 C1390 1.349 . S
C1402 H1396 0.950 . S
C1402 C1403 1.327 . S
C1403 H1397 0.950 . S
C1403 C1402 1.327 . S
C1403 C1407 1.429 . S
C1404 C1387 1.574 . S
C1404 H1398 0.949 . S
C1404 C1408 1.368 . S
C1405 C1386 1.429 . S
C1405 C1399 1.429 . S
C1405 C1406 1.523 . S
C1406 C1387 1.368 . S
C1406 C1400 1.368 . S
C1406 C1405 1.523 . S
C1407 C1391 1.429 . S
C1407 C1403 1.429 . S
C1407 C1408 1.523 . S
C1408 C1392 1.368 . S
C1408 C1404 1.368 . S
C1408 C1407 1.523 . S
H1409 C1384 0.950 . S
H1410 C1386 0.950 . S
H1411 C1387 0.949 . S
H1412 C1389 0.950 . S
H1413 C1391 0.950 . S
C1414 C1415 1.349 . S
C1414 C1416 1.327 . S
C1414 H1439 0.950 . S
C1415 C1414 1.349 . S
C1415 C1431 1.349 . S
C1416 C1414 1.327 . S
C1416 C1435 1.429 . S
C1416 H1440 0.950 . S
C1417 C1434 1.574 . S
C1417 C1436 1.368 . S
C1417 H1441 0.949 . S
H1418 C1422 0.949 . S
C1419 C1420 1.349 . S
C1419 C1421 1.327 . S
C1419 H1442 0.950 . S
C1420 C1419 1.349 . S
C1420 C1432 1.349 . S
C1421 C1419 1.327 . S
C1421 C1437 1.429 . S
C1421 H1443 0.950 . S
C1422 H1418 0.949 . S
C1422 C1430 1.574 . S
C1422 C1438 1.368 . S
H1423 C1431 0.950 . S
H1424 C1429 0.950 . S
H1425 C1430 0.949 . S
H1426 C1432 0.950 . S
H1427 C1433 0.950 . S
H1428 C1434 0.949 . S
C1429 H1424 0.950 . S
C1429 C1431 1.327 . S
C1429 C1435 1.429 . S
C1430 C1422 1.574 . S
C1430 H1425 0.949 . S
C1430 C1436 1.368 . S
C1431 C1415 1.349 . S
C1431 H1423 0.950 . S
C1431 C1429 1.327 . S
C1432 C1420 1.349 . S
C1432 H1426 0.950 . S
C1432 C1433 1.327 . S
C1433 H1427 0.950 . S
C1433 C1432 1.327 . S
C1433 C1437 1.429 . S
C1434 C1417 1.574 . S
C1434 H1428 0.949 . S
C1434 C1438 1.368 . S
C1435 C1416 1.429 . S
C1435 C1429 1.429 . S
C1435 C1436 1.523 . S
C1436 C1417 1.368 . S
C1436 C1430 1.368 . S
C1436 C1435 1.523 . S
C1437 C1421 1.429 . S
C1437 C1433 1.429 . S
C1437 C1438 1.523 . S
C1438 C1422 1.368 . S
C1438 C1434 1.368 . S
C1438 C1437 1.523 . S
H1439 C1414 0.950 . S
H1440 C1416 0.950 . S
H1441 C1417 0.949 . S
H1442 C1419 0.950 . S
H1443 C1421 0.950 . S
C1444 C1445 1.349 . S
C1444 C1446 1.327 . S
C1444 H1469 0.950 . S
C1445 C1444 1.349 . S
C1445 C1461 1.349 . S
C1446 C1444 1.327 . S
C1446 C1465 1.429 . S
C1446 H1470 0.950 . S
C1447 C1464 1.574 . S
C1447 C1466 1.368 . S
C1447 H1471 0.949 . S
H1448 C1452 0.949 . S
C1449 C1450 1.349 . S
C1449 C1451 1.327 . S
C1449 H1472 0.950 . S
C1450 C1449 1.349 . S
C1450 C1462 1.349 . S
C1451 C1449 1.327 . S
C1451 C1467 1.429 . S
C1451 H1473 0.950 . S
C1452 H1448 0.949 . S
C1452 C1460 1.574 . S
C1452 C1468 1.368 . S
H1453 C1461 0.950 . S
H1454 C1459 0.950 . S
H1455 C1460 0.949 . S
H1456 C1462 0.950 . S
H1457 C1463 0.950 . S
H1458 C1464 0.949 . S
C1459 H1454 0.950 . S
C1459 C1461 1.327 . S
C1459 C1465 1.429 . S
C1460 C1452 1.574 . S
C1460 H1455 0.949 . S
C1460 C1466 1.368 . S
C1461 C1445 1.349 . S
C1461 H1453 0.950 . S
C1461 C1459 1.327 . S
C1462 C1450 1.349 . S
C1462 H1456 0.950 . S
C1462 C1463 1.327 . S
C1463 H1457 0.950 . S
C1463 C1462 1.327 . S
C1463 C1467 1.429 . S
C1464 C1447 1.574 . S
C1464 H1458 0.949 . S
C1464 C1468 1.368 . S
C1465 C1446 1.429 . S
C1465 C1459 1.429 . S
C1465 C1466 1.523 . S
C1466 C1447 1.368 . S
C1466 C1460 1.368 . S
C1466 C1465 1.523 . S
C1467 C1451 1.429 . S
C1467 C1463 1.429 . S
C1467 C1468 1.523 . S
C1468 C1452 1.368 . S
C1468 C1464 1.368 . S
C1468 C1467 1.523 . S
H1469 C1444 0.950 . S
H1470 C1446 0.950 . S
H1471 C1447 0.949 . S
H1472 C1449 0.950 . S
H1473 C1451 0.950 . S
C1474 C1475 1.349 . S
C1474 C1476 1.327 . S
C1474 H1499 0.950 . S
C1475 C1474 1.349 . S
C1475 C1491 1.349 . S
C1476 C1474 1.327 . S
C1476 C1495 1.429 . S
C1476 H1500 0.950 . S
C1477 C1494 1.574 1_556 S
C1477 C1496 1.368 . S
C1477 H1501 0.949 . S
H1478 C1482 0.939 1_554 S
C1479 C1480 1.349 . S
C1479 C1481 1.327 . S
C1479 H1502 0.950 . S
C1480 C1479 1.349 . S
C1480 C1492 1.349 . S
C1481 C1479 1.327 . S
C1481 C1497 1.429 . S
C1481 H1503 0.950 . S
C1482 H1478 0.939 1_556 S
C1482 C1490 1.596 . S
C1482 C1498 1.358 1_556 S
H1483 C1491 0.950 . S
H1484 C1489 0.950 . S
H1485 C1490 0.949 . S
H1486 C1492 0.950 . S
H1487 C1493 0.950 . S
H1488 C1494 0.949 . S
C1489 H1484 0.950 . S
C1489 C1491 1.327 . S
C1489 C1495 1.429 . S
C1490 C1482 1.596 . S
C1490 H1485 0.949 . S
C1490 C1496 1.368 . S
C1491 C1475 1.349 . S
C1491 H1483 0.950 . S
C1491 C1489 1.327 . S
C1492 C1480 1.349 . S
C1492 H1486 0.950 . S
C1492 C1493 1.327 . S
C1493 H1487 0.950 . S
C1493 C1492 1.327 . S
C1493 C1497 1.429 . S
C1494 C1477 1.574 1_554 S
C1494 H1488 0.949 . S
C1494 C1498 1.368 . S
C1495 C1476 1.429 . S
C1495 C1489 1.429 . S
C1495 C1496 1.523 . S
C1496 C1477 1.368 . S
C1496 C1490 1.368 . S
C1496 C1495 1.523 . S
C1497 C1481 1.429 . S
C1497 C1493 1.429 . S
C1497 C1498 1.523 . S
C1498 C1482 1.358 1_554 S
C1498 C1494 1.368 . S
C1498 C1497 1.523 . S
H1499 C1474 0.950 . S
H1500 C1476 0.950 . S
H1501 C1477 0.949 . S
H1502 C1479 0.950 . S
H1503 C1481 0.950 . S
C1504 C1505 1.349 . S
C1504 C1506 1.327 . S
C1504 H1529 0.950 . S
C1505 C1504 1.349 . S
C1505 C1521 1.349 . S
C1506 C1504 1.327 . S
C1506 C1525 1.429 . S
C1506 H1530 0.950 . S
C1507 C1524 1.574 . S
C1507 C1526 1.368 . S
C1507 H1531 0.949 . S
H1508 C1512 0.949 . S
C1509 C1510 1.349 . S
C1509 C1511 1.327 . S
C1509 H1532 0.950 . S
C1510 C1509 1.349 . S
C1510 C1522 1.349 . S
C1511 C1509 1.327 . S
C1511 C1527 1.429 . S
C1511 H1533 0.950 . S
C1512 H1508 0.949 . S
C1512 C1520 1.574 . S
C1512 C1528 1.368 . S
H1513 C1521 0.950 . S
H1514 C1519 0.950 . S
H1515 C1520 0.949 . S
H1516 C1522 0.950 . S
H1517 C1523 0.950 . S
H1518 C1524 0.949 . S
C1519 H1514 0.950 . S
C1519 C1521 1.327 . S
C1519 C1525 1.429 . S
C1520 C1512 1.574 . S
C1520 H1515 0.949 . S
C1520 C1526 1.368 . S
C1521 C1505 1.349 . S
C1521 H1513 0.950 . S
C1521 C1519 1.327 . S
C1522 C1510 1.349 . S
C1522 H1516 0.950 . S
C1522 C1523 1.327 . S
C1523 H1517 0.950 . S
C1523 C1522 1.327 . S
C1523 C1527 1.429 . S
C1524 C1507 1.574 . S
C1524 H1518 0.949 . S
C1524 C1528 1.368 . S
C1525 C1506 1.429 . S
C1525 C1519 1.429 . S
C1525 C1526 1.523 . S
C1526 C1507 1.368 . S
C1526 C1520 1.368 . S
C1526 C1525 1.523 . S
C1527 C1511 1.429 . S
C1527 C1523 1.429 . S
C1527 C1528 1.523 . S
C1528 C1512 1.368 . S
C1528 C1524 1.368 . S
C1528 C1527 1.523 . S
H1529 C1504 0.950 . S
H1530 C1506 0.950 . S
H1531 C1507 0.949 . S
H1532 C1509 0.950 . S
H1533 C1511 0.950 . S
C1534 C1535 1.349 . S
C1534 C1536 1.327 . S
C1534 H1559 0.950 . S
C1535 C1534 1.349 . S
C1535 C1551 1.349 . S
C1536 C1534 1.327 . S
C1536 C1555 1.429 . S
C1536 H1560 0.950 . S
C1537 C1554 1.574 . S
C1537 C1556 1.368 . S
C1537 H1561 0.949 . S
H1538 C1542 0.949 . S
C1539 C1540 1.349 . S
C1539 C1541 1.327 . S
C1539 H1562 0.950 . S
C1540 C1539 1.349 . S
C1540 C1552 1.349 . S
C1541 C1539 1.327 . S
C1541 C1557 1.429 . S
C1541 H1563 0.950 . S
C1542 H1538 0.949 . S
C1542 C1550 1.574 . S
C1542 C1558 1.368 . S
H1543 C1551 0.950 . S
H1544 C1549 0.950 . S
H1545 C1550 0.949 . S
H1546 C1552 0.950 . S
H1547 C1553 0.950 . S
H1548 C1554 0.949 . S
C1549 H1544 0.950 . S
C1549 C1551 1.327 . S
C1549 C1555 1.429 . S
C1550 C1542 1.574 . S
C1550 H1545 0.949 . S
C1550 C1556 1.368 . S
C1551 C1535 1.349 . S
C1551 H1543 0.950 . S
C1551 C1549 1.327 . S
C1552 C1540 1.349 . S
C1552 H1546 0.950 . S
C1552 C1553 1.327 . S
C1553 H1547 0.950 . S
C1553 C1552 1.327 . S
C1553 C1557 1.429 . S
C1554 C1537 1.574 . S
C1554 H1548 0.949 . S
C1554 C1558 1.368 . S
C1555 C1536 1.429 . S
C1555 C1549 1.429 . S
C1555 C1556 1.523 . S
C1556 C1537 1.368 . S
C1556 C1550 1.368 . S
C1556 C1555 1.523 . S
C1557 C1541 1.429 . S
C1557 C1553 1.429 . S
C1557 C1558 1.523 . S
C1558 C1542 1.368 . S
C1558 C1554 1.368 . S
C1558 C1557 1.523 . S
H1559 C1534 0.950 . S
H1560 C1536 0.950 . S
H1561 C1537 0.949 . S
H1562 C1539 0.950 . S
H1563 C1541 0.950 . S
C1564 C1565 1.349 . S
C1564 C1566 1.327 . S
C1564 H1589 0.950 . S
C1565 C1564 1.349 . S
C1565 C1581 1.349 . S
C1566 C1564 1.327 . S
C1566 C1585 1.429 . S
C1566 H1590 0.950 . S
C1567 C1584 1.574 . S
C1567 C1586 1.368 . S
C1567 H1591 0.949 . S
H1568 C1572 0.949 . S
C1569 C1570 1.349 . S
C1569 C1571 1.327 . S
C1569 H1592 0.950 . S
C1570 C1569 1.349 . S
C1570 C1582 1.349 . S
C1571 C1569 1.327 . S
C1571 C1587 1.429 . S
C1571 H1593 0.950 . S
C1572 H1568 0.949 . S
C1572 C1580 1.574 . S
C1572 C1588 1.368 . S
H1573 C1581 0.950 . S
H1574 C1579 0.950 . S
H1575 C1580 0.949 . S
H1576 C1582 0.950 . S
H1577 C1583 0.950 . S
H1578 C1584 0.949 . S
C1579 H1574 0.950 . S
C1579 C1581 1.327 . S
C1579 C1585 1.429 . S
C1580 C1572 1.574 . S
C1580 H1575 0.949 . S
C1580 C1586 1.368 . S
C1581 C1565 1.349 . S
C1581 H1573 0.950 . S
C1581 C1579 1.327 . S
C1582 C1570 1.349 . S
C1582 H1576 0.950 . S
C1582 C1583 1.327 . S
C1583 H1577 0.950 . S
C1583 C1582 1.327 . S
C1583 C1587 1.429 . S
C1584 C1567 1.574 . S
C1584 H1578 0.949 . S
C1584 C1588 1.368 . S
C1585 C1566 1.429 . S
C1585 C1579 1.429 . S
C1585 C1586 1.523 . S
C1586 C1567 1.368 . S
C1586 C1580 1.368 . S
C1586 C1585 1.523 . S
C1587 C1571 1.429 . S
C1587 C1583 1.429 . S
C1587 C1588 1.523 . S
C1588 C1572 1.368 . S
C1588 C1584 1.368 . S
C1588 C1587 1.523 . S
H1589 C1564 0.950 . S
H1590 C1566 0.950 . S
H1591 C1567 0.949 . S
H1592 C1569 0.950 . S
H1593 C1571 0.950 . S
C1594 C1595 1.349 . S
C1594 C1596 1.327 . S
C1594 H1619 0.950 . S
C1595 C1594 1.349 . S
C1595 C1611 1.349 . S
C1596 C1594 1.327 . S
C1596 C1615 1.429 . S
C1596 H1620 0.950 . S
C1597 C1614 1.574 1_554 S
C1597 C1616 1.368 . S
C1597 H1621 0.949 . S
H1598 C1602 0.949 . S
C1599 C1600 1.349 . S
C1599 C1601 1.327 . S
C1599 H1622 0.950 . S
C1600 C1599 1.349 . S
C1600 C1612 1.349 . S
C1601 C1599 1.327 . S
C1601 C1617 1.429 . S
C1601 H1623 0.950 . S
C1602 H1598 0.949 . S
C1602 C1610 1.574 . S
C1602 C1618 1.368 1_554 S
H1603 C1611 0.950 . S
H1604 C1609 0.950 . S
H1605 C1610 0.949 . S
H1606 C1612 0.950 . S
H1607 C1613 0.950 . S
H1608 C1614 0.949 . S
C1609 H1604 0.950 . S
C1609 C1611 1.327 . S
C1609 C1615 1.429 . S
C1610 C1602 1.574 . S
C1610 H1605 0.949 . S
C1610 C1616 1.368 . S
C1611 C1595 1.349 . S
C1611 H1603 0.950 . S
C1611 C1609 1.327 . S
C1612 C1600 1.349 . S
C1612 H1606 0.950 . S
C1612 C1613 1.327 . S
C1613 H1607 0.950 . S
C1613 C1612 1.327 . S
C1613 C1617 1.429 . S
C1614 C1597 1.574 1_556 S
C1614 H1608 0.949 . S
C1614 C1618 1.368 . S
C1615 C1596 1.429 . S
C1615 C1609 1.429 . S
C1615 C1616 1.523 . S
C1616 C1597 1.368 . S
C1616 C1610 1.368 . S
C1616 C1615 1.523 . S
C1617 C1601 1.429 . S
C1617 C1613 1.429 . S
C1617 C1618 1.523 . S
C1618 C1602 1.368 1_556 S
C1618 C1614 1.368 . S
C1618 C1617 1.523 . S
H1619 C1594 0.950 . S
H1620 C1596 0.950 . S
H1621 C1597 0.949 . S
H1622 C1599 0.950 . S
H1623 C1601 0.950 . S
C1624 C1625 1.349 . S
C1624 C1626 1.327 . S
C1624 H1649 0.950 . S
C1625 C1624 1.349 . S
C1625 C1641 1.349 . S
C1626 C1624 1.327 . S
C1626 C1645 1.429 . S
C1626 H1650 0.950 . S
C1627 C1644 1.574 . S
C1627 C1646 1.368 . S
C1627 H1651 0.949 . S
H1628 C1632 0.949 . S
C1629 C1630 1.349 . S
C1629 C1631 1.327 . S
C1629 H1652 0.950 . S
C1630 C1629 1.349 . S
C1630 C1642 1.349 . S
C1631 C1629 1.327 . S
C1631 C1647 1.429 . S
C1631 H1653 0.950 . S
C1632 H1628 0.949 . S
C1632 C1640 1.574 . S
C1632 C1648 1.368 . S
H1633 C1641 0.950 . S
H1634 C1639 0.950 . S
H1635 C1640 0.949 . S
H1636 C1642 0.950 . S
H1637 C1643 0.950 . S
H1638 C1644 0.949 . S
C1639 H1634 0.950 . S
C1639 C1641 1.327 . S
C1639 C1645 1.429 . S
C1640 C1632 1.574 . S
C1640 H1635 0.949 . S
C1640 C1646 1.368 . S
C1641 C1625 1.349 . S
C1641 H1633 0.950 . S
C1641 C1639 1.327 . S
C1642 C1630 1.349 . S
C1642 H1636 0.950 . S
C1642 C1643 1.327 . S
C1643 H1637 0.950 . S
C1643 C1642 1.327 . S
C1643 C1647 1.429 . S
C1644 C1627 1.574 . S
C1644 H1638 0.949 . S
C1644 C1648 1.368 . S
C1645 C1626 1.429 . S
C1645 C1639 1.429 . S
C1645 C1646 1.523 . S
C1646 C1627 1.368 . S
C1646 C1640 1.368 . S
C1646 C1645 1.523 . S
C1647 C1631 1.429 . S
C1647 C1643 1.429 . S
C1647 C1648 1.523 . S
C1648 C1632 1.368 . S
C1648 C1644 1.368 . S
C1648 C1647 1.523 . S
H1649 C1624 0.950 . S
H1650 C1626 0.950 . S
H1651 C1627 0.949 . S
H1652 C1629 0.950 . S
H1653 C1631 0.950 . S
C1654 C1655 1.349 . S
C1654 C1656 1.327 . S
C1654 H1679 0.950 . S
C1655 C1654 1.349 . S
C1655 C1671 1.349 . S
C1656 C1654 1.327 . S
C1656 C1675 1.429 . S
C1656 H1680 0.950 . S
C1657 C1674 1.574 1_565 S
C1657 C1676 1.368 . S
C1657 H1681 0.949 . S
H1658 C1662 0.949 . S
C1659 C1660 1.349 . S
C1659 C1661 1.327 . S
C1659 H1682 0.950 . S
C1660 C1659 1.349 . S
C1660 C1672 1.349 . S
C1661 C1659 1.327 . S
C1661 C1677 1.429 . S
C1661 H1683 0.950 . S
C1662 H1658 0.949 . S
C1662 C1670 1.574 . S
C1662 C1678 1.368 1_565 S
H1663 C1671 0.950 . S
H1664 C1669 0.950 . S
H1665 C1670 0.949 . S
H1666 C1672 0.950 . S
H1667 C1673 0.950 . S
H1668 C1674 0.949 . S
C1669 H1664 0.950 . S
C1669 C1671 1.327 . S
C1669 C1675 1.429 . S
C1670 C1662 1.574 . S
C1670 H1665 0.949 . S
C1670 C1676 1.368 . S
C1671 C1655 1.349 . S
C1671 H1663 0.950 . S
C1671 C1669 1.327 . S
C1672 C1660 1.349 . S
C1672 H1666 0.950 . S
C1672 C1673 1.327 . S
C1673 H1667 0.950 . S
C1673 C1672 1.327 . S
C1673 C1677 1.429 . S
C1674 C1657 1.574 1_545 S
C1674 H1668 0.949 . S
C1674 C1678 1.368 . S
C1675 C1656 1.429 . S
C1675 C1669 1.429 . S
C1675 C1676 1.523 . S
C1676 C1657 1.368 . S
C1676 C1670 1.368 . S
C1676 C1675 1.523 . S
C1677 C1661 1.429 . S
C1677 C1673 1.429 . S
C1677 C1678 1.523 . S
C1678 C1662 1.368 1_545 S
C1678 C1674 1.368 . S
C1678 C1677 1.523 . S
H1679 C1654 0.950 . S
H1680 C1656 0.950 . S
H1681 C1657 0.949 . S
H1682 C1659 0.950 . S
H1683 C1661 0.950 . S
C1684 C1685 1.349 . S
C1684 C1686 1.327 . S
C1684 H1709 0.950 . S
C1685 C1684 1.349 . S
C1685 C1701 1.349 . S
C1686 C1684 1.327 . S
C1686 C1705 1.429 . S
C1686 H1710 0.950 . S
C1687 C1704 1.574 . S
C1687 C1706 1.368 . S
C1687 H1711 0.949 . S
H1688 C1692 0.949 . S
C1689 C1690 1.349 . S
C1689 C1691 1.327 . S
C1689 H1712 0.950 . S
C1690 C1689 1.349 . S
C1690 C1702 1.349 . S
C1691 C1689 1.327 . S
C1691 C1707 1.429 . S
C1691 H1713 0.950 . S
C1692 H1688 0.949 . S
C1692 C1700 1.574 . S
C1692 C1708 1.368 . S
H1693 C1701 0.950 . S
H1694 C1699 0.950 . S
H1695 C1700 0.949 . S
H1696 C1702 0.950 . S
H1697 C1703 0.950 . S
H1698 C1704 0.949 . S
C1699 H1694 0.950 . S
C1699 C1701 1.327 . S
C1699 C1705 1.429 . S
C1700 C1692 1.574 . S
C1700 H1695 0.949 . S
C1700 C1706 1.368 . S
C1701 C1685 1.349 . S
C1701 H1693 0.950 . S
C1701 C1699 1.327 . S
C1702 C1690 1.349 . S
C1702 H1696 0.950 . S
C1702 C1703 1.327 . S
C1703 H1697 0.950 . S
C1703 C1702 1.327 . S
C1703 C1707 1.429 . S
C1704 C1687 1.574 . S
C1704 H1698 0.949 . S
C1704 C1708 1.368 . S
C1705 C1686 1.429 . S
C1705 C1699 1.429 . S
C1705 C1706 1.523 . S
C1706 C1687 1.368 . S
C1706 C1700 1.368 . S
C1706 C1705 1.523 . S
C1707 C1691 1.429 . S
C1707 C1703 1.429 . S
C1707 C1708 1.523 . S
C1708 C1692 1.368 . S
C1708 C1704 1.368 . S
C1708 C1707 1.523 . S
H1709 C1684 0.950 . S
H1710 C1686 0.950 . S
H1711 C1687 0.949 . S
H1712 C1689 0.950 . S
H1713 C1691 0.950 . S
C1714 C1715 1.349 . S
C1714 C1716 1.327 . S
C1714 H1739 0.950 . S
C1715 C1714 1.349 . S
C1715 C1731 1.349 . S
C1716 C1714 1.327 . S
C1716 C1735 1.429 . S
C1716 H1740 0.950 . S
C1717 C1734 1.574 . S
C1717 C1736 1.368 . S
C1717 H1741 0.949 . S
H1718 C1722 0.949 . S
C1719 C1720 1.349 . S
C1719 C1721 1.327 . S
C1719 H1742 0.950 . S
C1720 C1719 1.349 . S
C1720 C1732 1.349 . S
C1721 C1719 1.327 . S
C1721 C1737 1.429 . S
C1721 H1743 0.950 . S
C1722 H1718 0.949 . S
C1722 C1730 1.574 1_565 S
C1722 C1738 1.368 . S
H1723 C1731 0.950 . S
H1724 C1729 0.950 . S
H1725 C1730 0.949 . S
H1726 C1732 0.950 . S
H1727 C1733 0.950 . S
H1728 C1734 0.949 . S
C1729 H1724 0.950 . S
C1729 C1731 1.327 . S
C1729 C1735 1.429 . S
C1730 C1722 1.574 1_545 S
C1730 H1725 0.949 . S
C1730 C1736 1.368 . S
C1731 C1715 1.349 . S
C1731 H1723 0.950 . S
C1731 C1729 1.327 . S
C1732 C1720 1.349 . S
C1732 H1726 0.950 . S
C1732 C1733 1.327 . S
C1733 H1727 0.950 . S
C1733 C1732 1.327 . S
C1733 C1737 1.429 . S
C1734 C1717 1.574 . S
C1734 H1728 0.949 . S
C1734 C1738 1.368 1_545 S
C1735 C1716 1.429 . S
C1735 C1729 1.429 . S
C1735 C1736 1.523 . S
C1736 C1717 1.368 . S
C1736 C1730 1.368 . S
C1736 C1735 1.523 . S
C1737 C1721 1.429 . S
C1737 C1733 1.429 . S
C1737 C1738 1.523 . S
C1738 C1722 1.368 . S
C1738 C1734 1.368 1_565 S
C1738 C1737 1.523 . S
H1739 C1714 0.950 . S
H1740 C1716 0.950 . S
H1741 C1717 0.949 . S
H1742 C1719 0.950 . S
H1743 C1721 0.950 . S
C1744 C1745 1.349 . S
C1744 C1746 1.327 . S
C1744 H1769 0.950 . S
C1745 C1744 1.349 . S
C1745 C1761 1.349 . S
C1746 C1744 1.327 . S
C1746 C1765 1.429 . S
C1746 H1770 0.950 . S
C1747 C1764 1.574 . S
C1747 C1766 1.368 . S
C1747 H1771 0.949 . S
H1748 C1752 0.949 . S
C1749 C1750 1.349 . S
C1749 C1751 1.327 . S
C1749 H1772 0.950 . S
C1750 C1749 1.349 . S
C1750 C1762 1.349 . S
C1751 C1749 1.327 . S
C1751 C1767 1.429 . S
C1751 H1773 0.950 . S
C1752 H1748 0.949 . S
C1752 C1760 1.574 . S
C1752 C1768 1.368 . S
H1753 C1761 0.950 . S
H1754 C1759 0.950 . S
H1755 C1760 0.949 . S
H1756 C1762 0.950 . S
H1757 C1763 0.950 . S
H1758 C1764 0.949 . S
C1759 H1754 0.950 . S
C1759 C1761 1.327 . S
C1759 C1765 1.429 . S
C1760 C1752 1.574 . S
C1760 H1755 0.949 . S
C1760 C1766 1.368 . S
C1761 C1745 1.349 . S
C1761 H1753 0.950 . S
C1761 C1759 1.327 . S
C1762 C1750 1.349 . S
C1762 H1756 0.950 . S
C1762 C1763 1.327 . S
C1763 H1757 0.950 . S
C1763 C1762 1.327 . S
C1763 C1767 1.429 . S
C1764 C1747 1.574 . S
C1764 H1758 0.949 . S
C1764 C1768 1.368 . S
C1765 C1746 1.429 . S
C1765 C1759 1.429 . S
C1765 C1766 1.523 . S
C1766 C1747 1.368 . S
C1766 C1760 1.368 . S
C1766 C1765 1.523 . S
C1767 C1751 1.429 . S
C1767 C1763 1.429 . S
C1767 C1768 1.523 . S
C1768 C1752 1.368 . S
C1768 C1764 1.368 . S
C1768 C1767 1.523 . S
H1769 C1744 0.950 . S
H1770 C1746 0.950 . S
H1771 C1747 0.949 . S
H1772 C1749 0.950 . S
H1773 C1751 0.950 . S
C1774 C1775 1.349 . S
C1774 C1776 1.327 . S
C1774 H1799 0.950 . S
C1775 C1774 1.349 . S
C1775 C1791 1.349 . S
C1776 C1774 1.327 . S
C1776 C1795 1.429 . S
C1776 H1800 0.950 . S
C1777 C1794 1.574 1_565 S
C1777 C1796 1.368 . S
C1777 H1801 0.949 . S
H1778 C1782 0.949 . S
C1779 C1780 1.349 . S
C1779 C1781 1.327 . S
C1779 H1802 0.950 . S
C1780 C1779 1.349 . S
C1780 C1792 1.349 . S
C1781 C1779 1.327 . S
C1781 C1797 1.429 . S
C1781 H1803 0.950 . S
C1782 H1778 0.949 . S
C1782 C1790 1.574 . S
C1782 C1798 1.368 1_565 S
H1783 C1791 0.950 . S
H1784 C1789 0.950 . S
H1785 C1790 0.949 . S
H1786 C1792 0.950 . S
H1787 C1793 0.950 . S
H1788 C1794 0.949 . S
C1789 H1784 0.950 . S
C1789 C1791 1.327 . S
C1789 C1795 1.429 . S
C1790 C1782 1.574 . S
C1790 H1785 0.949 . S
C1790 C1796 1.368 . S
C1791 C1775 1.349 . S
C1791 H1783 0.950 . S
C1791 C1789 1.327 . S
C1792 C1780 1.349 . S
C1792 H1786 0.950 . S
C1792 C1793 1.327 . S
C1793 H1787 0.950 . S
C1793 C1792 1.327 . S
C1793 C1797 1.429 . S
C1794 C1777 1.574 1_545 S
C1794 H1788 0.949 . S
C1794 C1798 1.368 . S
C1795 C1776 1.429 . S
C1795 C1789 1.429 . S
C1795 C1796 1.523 . S
C1796 C1777 1.368 . S
C1796 C1790 1.368 . S
C1796 C1795 1.523 . S
C1797 C1781 1.429 . S
C1797 C1793 1.429 . S
C1797 C1798 1.523 . S
C1798 C1782 1.368 1_545 S
C1798 C1794 1.368 . S
C1798 C1797 1.523 . S
H1799 C1774 0.950 . S
H1800 C1776 0.950 . S
H1801 C1777 0.949 . S
H1802 C1779 0.950 . S
H1803 C1781 0.950 . S
C1804 C1805 1.349 . S
C1804 C1806 1.327 . S
C1804 H1829 0.950 . S
C1805 C1804 1.349 . S
C1805 C1821 1.349 . S
C1806 C1804 1.327 . S
C1806 C1825 1.429 . S
C1806 H1830 0.950 . S
C1807 C1824 1.574 . S
C1807 C1826 1.368 . S
C1807 H1831 0.949 . S
H1808 C1812 0.949 . S
C1809 C1810 1.349 . S
C1809 C1811 1.327 . S
C1809 H1832 0.950 . S
C1810 C1809 1.349 . S
C1810 C1822 1.349 . S
C1811 C1809 1.327 . S
C1811 C1827 1.429 . S
C1811 H1833 0.950 . S
C1812 H1808 0.949 . S
C1812 C1820 1.574 . S
C1812 C1828 1.368 . S
H1813 C1821 0.950 . S
H1814 C1819 0.950 . S
H1815 C1820 0.949 . S
H1816 C1822 0.950 . S
H1817 C1823 0.950 . S
H1818 C1824 0.949 . S
C1819 H1814 0.950 . S
C1819 C1821 1.327 . S
C1819 C1825 1.429 . S
C1820 C1812 1.574 . S
C1820 H1815 0.949 . S
C1820 C1826 1.368 . S
C1821 C1805 1.349 . S
C1821 H1813 0.950 . S
C1821 C1819 1.327 . S
C1822 C1810 1.349 . S
C1822 H1816 0.950 . S
C1822 C1823 1.327 . S
C1823 H1817 0.950 . S
C1823 C1822 1.327 . S
C1823 C1827 1.429 . S
C1824 C1807 1.574 . S
C1824 H1818 0.949 . S
C1824 C1828 1.368 . S
C1825 C1806 1.429 . S
C1825 C1819 1.429 . S
C1825 C1826 1.523 . S
C1826 C1807 1.368 . S
C1826 C1820 1.368 . S
C1826 C1825 1.523 . S
C1827 C1811 1.429 . S
C1827 C1823 1.429 . S
C1827 C1828 1.523 . S
C1828 C1812 1.368 . S
C1828 C1824 1.368 . S
C1828 C1827 1.523 . S
H1829 C1804 0.950 . S
H1830 C1806 0.950 . S
H1831 C1807 0.949 . S
H1832 C1809 0.950 . S
H1833 C1811 0.950 . S
C1834 C1835 1.349 . S
C1834 C1836 1.327 . S
C1834 H1859 0.950 . S
C1835 C1834 1.349 . S
C1835 C1851 1.349 . S
C1836 C1834 1.327 . S
C1836 C1855 1.429 . S
C1836 H1860 0.950 . S
C1837 C1854 1.574 . S
C1837 C1856 1.368 . S
C1837 H1861 0.949 . S
H1838 C1842 0.949 . S
C1839 C1840 1.349 . S
C1839 C1841 1.327 . S
C1839 H1862 0.950 . S
C1840 C1839 1.349 . S
C1840 C1852 1.349 . S
C1841 C1839 1.327 . S
C1841 C1857 1.429 . S
C1841 H1863 0.950 . S
C1842 H1838 0.949 . S
C1842 C1850 1.574 1_565 S
C1842 C1858 1.368 . S
H1843 C1851 0.950 . S
H1844 C1849 0.950 . S
H1845 C1850 0.949 . S
H1846 C1852 0.950 . S
H1847 C1853 0.950 . S
H1848 C1854 0.949 . S
C1849 H1844 0.950 . S
C1849 C1851 1.327 . S
C1849 C1855 1.429 . S
C1850 C1842 1.574 1_545 S
C1850 H1845 0.949 . S
C1850 C1856 1.368 . S
C1851 C1835 1.349 . S
C1851 H1843 0.950 . S
C1851 C1849 1.327 . S
C1852 C1840 1.349 . S
C1852 H1846 0.950 . S
C1852 C1853 1.327 . S
C1853 H1847 0.950 . S
C1853 C1852 1.327 . S
C1853 C1857 1.429 . S
C1854 C1837 1.574 . S
C1854 H1848 0.949 . S
C1854 C1858 1.368 1_545 S
C1855 C1836 1.429 . S
C1855 C1849 1.429 . S
C1855 C1856 1.523 . S
C1856 C1837 1.368 . S
C1856 C1850 1.368 . S
C1856 C1855 1.523 . S
C1857 C1841 1.429 . S
C1857 C1853 1.429 . S
C1857 C1858 1.523 . S
C1858 C1842 1.368 . S
C1858 C1854 1.368 1_565 S
C1858 C1857 1.523 . S
H1859 C1834 0.950 . S
H1860 C1836 0.950 . S
H1861 C1837 0.949 . S
H1862 C1839 0.950 . S
H1863 C1841 0.950 . S
C1864 C1865 1.349 . S
C1864 C1866 1.327 . S
C1864 H1889 0.950 . S
C1865 C1864 1.349 . S
C1865 C1881 1.349 . S
C1866 C1864 1.327 . S
C1866 C1885 1.429 . S
C1866 H1890 0.950 . S
C1867 C1884 1.574 . S
C1867 C1886 1.368 . S
C1867 H1891 0.949 . S
H1868 C1872 0.949 . S
C1869 C1870 1.349 . S
C1869 C1871 1.327 . S
C1869 H1892 0.950 . S
C1870 C1869 1.349 . S
C1870 C1882 1.349 . S
C1871 C1869 1.327 . S
C1871 C1887 1.429 . S
C1871 H1893 0.950 . S
C1872 H1868 0.949 . S
C1872 C1880 1.574 . S
C1872 C1888 1.368 . S
H1873 C1881 0.950 . S
H1874 C1879 0.950 . S
H1875 C1880 0.949 . S
H1876 C1882 0.950 . S
H1877 C1883 0.950 . S
H1878 C1884 0.949 . S
C1879 H1874 0.950 . S
C1879 C1881 1.327 . S
C1879 C1885 1.429 . S
C1880 C1872 1.574 . S
C1880 H1875 0.949 . S
C1880 C1886 1.368 . S
C1881 C1865 1.349 . S
C1881 H1873 0.950 . S
C1881 C1879 1.327 . S
C1882 C1870 1.349 . S
C1882 H1876 0.950 . S
C1882 C1883 1.327 . S
C1883 H1877 0.950 . S
C1883 C1882 1.327 . S
C1883 C1887 1.429 . S
C1884 C1867 1.574 . S
C1884 H1878 0.949 . S
C1884 C1888 1.368 . S
C1885 C1866 1.429 . S
C1885 C1879 1.429 . S
C1885 C1886 1.523 . S
C1886 C1867 1.368 . S
C1886 C1880 1.368 . S
C1886 C1885 1.523 . S
C1887 C1871 1.429 . S
C1887 C1883 1.429 . S
C1887 C1888 1.523 . S
C1888 C1872 1.368 . S
C1888 C1884 1.368 . S
C1888 C1887 1.523 . S
H1889 C1864 0.950 . S
H1890 C1866 0.950 . S
H1891 C1867 0.949 . S
H1892 C1869 0.950 . S
H1893 C1871 0.950 . S
C1894 C1895 1.349 . S
C1894 C1896 1.327 . S
C1894 H1919 0.950 . S
C1895 C1894 1.349 . S
C1895 C1911 1.349 . S
C1896 C1894 1.327 . S
C1896 C1915 1.429 . S
C1896 H1920 0.950 . S
C1897 C1914 1.574 . S
C1897 C1916 1.368 . S
C1897 H1921 0.949 . S
H1898 C1902 0.949 . S
C1899 C1900 1.349 . S
C1899 C1901 1.327 . S
C1899 H1922 0.950 . S
C1900 C1899 1.349 . S
C1900 C1912 1.349 . S
C1901 C1899 1.327 . S
C1901 C1917 1.429 . S
C1901 H1923 0.950 . S
C1902 H1898 0.949 . S
C1902 C1910 1.574 . S
C1902 C1918 1.368 . S
H1903 C1911 0.950 . S
H1904 C1909 0.950 . S
H1905 C1910 0.949 . S
H1906 C1912 0.950 . S
H1907 C1913 0.950 . S
H1908 C1914 0.949 . S
C1909 H1904 0.950 . S
C1909 C1911 1.327 . S
C1909 C1915 1.429 . S
C1910 C1902 1.574 . S
C1910 H1905 0.949 . S
C1910 C1916 1.368 . S
C1911 C1895 1.349 . S
C1911 H1903 0.950 . S
C1911 C1909 1.327 . S
C1912 C1900 1.349 . S
C1912 H1906 0.950 . S
C1912 C1913 1.327 . S
C1913 H1907 0.950 . S
C1913 C1912 1.327 . S
C1913 C1917 1.429 . S
C1914 C1897 1.574 . S
C1914 H1908 0.949 . S
C1914 C1918 1.368 . S
C1915 C1896 1.429 . S
C1915 C1909 1.429 . S
C1915 C1916 1.523 . S
C1916 C1897 1.368 . S
C1916 C1910 1.368 . S
C1916 C1915 1.523 . S
C1917 C1901 1.429 . S
C1917 C1913 1.429 . S
C1917 C1918 1.523 . S
C1918 C1902 1.368 . S
C1918 C1914 1.368 . S
C1918 C1917 1.523 . S
H1919 C1894 0.950 . S
H1920 C1896 0.950 . S
H1921 C1897 0.949 . S
H1922 C1899 0.950 . S
H1923 C1901 0.950 . S
C1924 C1925 1.349 . S
C1924 C1926 1.327 . S
C1924 H1949 0.950 . S
C1925 C1924 1.349 . S
C1925 C1941 1.349 . S
C1926 C1924 1.327 . S
C1926 C1945 1.429 . S
C1926 H1950 0.950 . S
C1927 C1944 1.574 1_655 S
C1927 C1946 1.368 . S
C1927 H1951 0.949 . S
H1928 C1932 0.956 . S
C1929 C1930 1.349 . S
C1929 C1931 1.327 . S
C1929 H1952 0.950 . S
C1930 C1929 1.349 . S
C1930 C1942 1.349 . S
C1931 C1929 1.327 . S
C1931 C1947 1.429 . S
C1931 H1953 0.950 . S
C1932 H1928 0.956 . S
C1932 C1940 1.574 . S
C1932 C1948 1.368 1_655 S
H1933 C1941 0.950 . S
H1934 C1939 0.950 . S
H1935 C1940 0.949 . S
H1936 C1942 0.950 . S
H1937 C1943 0.950 . S
H1938 C1944 0.949 . S
C1939 H1934 0.950 . S
C1939 C1941 1.327 . S
C1939 C1945 1.429 . S
C1940 C1932 1.574 . S
C1940 H1935 0.949 . S
C1940 C1946 1.368 . S
C1941 C1925 1.349 . S
C1941 H1933 0.950 . S
C1941 C1939 1.327 . S
C1942 C1930 1.349 . S
C1942 H1936 0.950 . S
C1942 C1943 1.327 . S
C1943 H1937 0.950 . S
C1943 C1942 1.327 . S
C1943 C1947 1.429 . S
C1944 C1927 1.574 1_455 S
C1944 H1938 0.949 . S
C1944 C1948 1.368 . S
C1945 C1926 1.429 . S
C1945 C1939 1.429 . S
C1945 C1946 1.523 . S
C1946 C1927 1.368 . S
C1946 C1940 1.368 . S
C1946 C1945 1.523 . S
C1947 C1931 1.429 . S
C1947 C1943 1.429 . S
C1947 C1948 1.523 . S
C1948 C1932 1.368 1_455 S
C1948 C1944 1.368 . S
C1948 C1947 1.523 . S
H1949 C1924 0.950 . S
H1950 C1926 0.950 . S
H1951 C1927 0.949 . S
H1952 C1929 0.950 . S
H1953 C1931 0.950 . S
C1954 C1955 1.349 . S
C1954 C1956 1.327 . S
C1954 H1979 0.950 . S
C1955 C1954 1.349 . S
C1955 C1971 1.349 . S
C1956 C1954 1.327 . S
C1956 C1975 1.429 . S
C1956 H1980 0.950 . S
C1957 C1974 1.574 . S
C1957 C1976 1.368 . S
C1957 H1981 0.949 . S
H1958 C1962 0.949 . S
C1959 C1960 1.349 . S
C1959 C1961 1.327 . S
C1959 H1982 0.950 . S
C1960 C1959 1.349 . S
C1960 C1972 1.349 . S
C1961 C1959 1.327 . S
C1961 C1977 1.429 . S
C1961 H1983 0.950 . S
C1962 H1958 0.949 . S
C1962 C1970 1.574 . S
C1962 C1978 1.368 . S
H1963 C1971 0.950 . S
H1964 C1969 0.950 . S
H1965 C1970 0.949 . S
H1966 C1972 0.950 . S
H1967 C1973 0.950 . S
H1968 C1974 0.949 . S
C1969 H1964 0.950 . S
C1969 C1971 1.327 . S
C1969 C1975 1.429 . S
C1970 C1962 1.574 . S
C1970 H1965 0.949 . S
C1970 C1976 1.368 . S
C1971 C1955 1.349 . S
C1971 H1963 0.950 . S
C1971 C1969 1.327 . S
C1972 C1960 1.349 . S
C1972 H1966 0.950 . S
C1972 C1973 1.327 . S
C1973 H1967 0.950 . S
C1973 C1972 1.327 . S
C1973 C1977 1.429 . S
C1974 C1957 1.574 . S
C1974 H1968 0.949 . S
C1974 C1978 1.368 . S
C1975 C1956 1.429 . S
C1975 C1969 1.429 . S
C1975 C1976 1.523 . S
C1976 C1957 1.368 . S
C1976 C1970 1.368 . S
C1976 C1975 1.523 . S
C1977 C1961 1.429 . S
C1977 C1973 1.429 . S
C1977 C1978 1.523 . S
C1978 C1962 1.368 . S
C1978 C1974 1.368 . S
C1978 C1977 1.523 . S
H1979 C1954 0.950 . S
H1980 C1956 0.950 . S
H1981 C1957 0.949 . S
H1982 C1959 0.950 . S
H1983 C1961 0.950 . S
C1984 C1985 1.349 . S
C1984 C1986 1.327 . S
C1984 H2009 0.950 . S
C1985 C1984 1.349 . S
C1985 C2001 1.349 . S
C1986 C1984 1.327 . S
C1986 C2005 1.429 . S
C1986 H2010 0.950 . S
C1987 C2004 1.574 1_455 S
C1987 C2006 1.368 . S
C1987 H2011 0.949 . S
H1988 C1992 0.935 1_655 S
C1989 C1990 1.349 . S
C1989 C1991 1.327 . S
C1989 H2012 0.950 . S
C1990 C1989 1.349 . S
C1990 C2002 1.349 . S
C1991 C1989 1.327 . S
C1991 C2007 1.429 . S
C1991 H2013 0.950 . S
C1992 H1988 0.935 1_455 S
C1992 C2000 1.574 . S
C1992 C2008 1.368 1_455 S
H1993 C2001 0.950 1_545 S
H1994 C1999 0.950 . S
H1995 C2000 0.949 . S
H1996 C2002 0.950 . S
H1997 C2003 0.950 . S
H1998 C2004 0.949 . S
C1999 H1994 0.950 . S
C1999 C2001 1.327 . S
C1999 C2005 1.429 . S
C2000 C1992 1.574 . S
C2000 H1995 0.949 . S
C2000 C2006 1.368 . S
C2001 C1985 1.349 . S
C2001 H1993 0.950 1_565 S
C2001 C1999 1.327 . S
C2002 C1990 1.349 . S
C2002 H1996 0.950 . S
C2002 C2003 1.327 . S
C2003 H1997 0.950 . S
C2003 C2002 1.327 . S
C2003 C2007 1.429 . S
C2004 C1987 1.574 1_655 S
C2004 H1998 0.949 . S
C2004 C2008 1.368 . S
C2005 C1986 1.429 . S
C2005 C1999 1.429 . S
C2005 C2006 1.523 . S
C2006 C1987 1.368 . S
C2006 C2000 1.368 . S
C2006 C2005 1.523 . S
C2007 C1991 1.429 . S
C2007 C2003 1.429 . S
C2007 C2008 1.523 . S
C2008 C1992 1.368 1_655 S
C2008 C2004 1.368 . S
C2008 C2007 1.523 . S
H2009 C1984 0.950 . S
H2010 C1986 0.950 . S
H2011 C1987 0.949 . S
H2012 C1989 0.950 . S
H2013 C1991 0.950 . S
C2014 C2015 1.349 . S
C2014 C2016 1.327 . S
C2014 H2039 0.950 . S
C2015 C2014 1.349 . S
C2015 C2031 1.349 . S
C2016 C2014 1.327 . S
C2016 C2035 1.429 . S
C2016 H2040 0.950 . S
C2017 C2034 1.574 . S
C2017 C2036 1.368 . S
C2017 H2041 0.949 . S
H2018 C2022 0.949 . S
C2019 C2020 1.349 . S
C2019 C2021 1.327 . S
C2019 H2042 0.950 . S
C2020 C2019 1.349 . S
C2020 C2032 1.349 . S
C2021 C2019 1.327 . S
C2021 C2037 1.429 . S
C2021 H2043 0.950 . S
C2022 H2018 0.949 . S
C2022 C2030 1.574 . S
C2022 C2038 1.368 . S
H2023 C2031 0.950 . S
H2024 C2029 0.950 . S
H2025 C2030 0.949 . S
H2026 C2032 0.950 . S
H2027 C2033 0.950 . S
H2028 C2034 0.949 . S
C2029 H2024 0.950 . S
C2029 C2031 1.327 . S
C2029 C2035 1.429 . S
C2030 C2022 1.574 . S
C2030 H2025 0.949 . S
C2030 C2036 1.368 . S
C2031 C2015 1.349 . S
C2031 H2023 0.950 . S
C2031 C2029 1.327 . S
C2032 C2020 1.349 . S
C2032 H2026 0.950 . S
C2032 C2033 1.327 . S
C2033 H2027 0.950 . S
C2033 C2032 1.327 . S
C2033 C2037 1.429 . S
C2034 C2017 1.574 . S
C2034 H2028 0.949 . S
C2034 C2038 1.368 . S
C2035 C2016 1.429 . S
C2035 C2029 1.429 . S
C2035 C2036 1.523 . S
C2036 C2017 1.368 . S
C2036 C2030 1.368 . S
C2036 C2035 1.523 . S
C2037 C2021 1.429 . S
C2037 C2033 1.429 . S
C2037 C2038 1.523 . S
C2038 C2022 1.368 . S
C2038 C2034 1.368 . S
C2038 C2037 1.523 . S
H2039 C2014 0.950 . S
H2040 C2016 0.950 . S
H2041 C2017 0.949 . S
H2042 C2019 0.950 . S
H2043 C2021 0.950 . S
C2044 C2045 1.349 . S
C2044 C2046 1.327 . S
C2044 H2069 0.950 . S
C2045 C2044 1.349 . S
C2045 C2061 1.349 . S
C2046 C2044 1.327 . S
C2046 C2065 1.429 . S
C2046 H2070 0.950 . S
C2047 C2064 1.574 . S
C2047 C2066 1.368 . S
C2047 H2071 0.949 . S
H2048 C2052 0.949 . S
C2049 C2050 1.349 . S
C2049 C2051 1.327 . S
C2049 H2072 0.950 . S
C2050 C2049 1.349 . S
C2050 C2062 1.349 . S
C2051 C2049 1.327 . S
C2051 C2067 1.429 . S
C2051 H2073 0.950 . S
C2052 H2048 0.949 . S
C2052 C2060 1.574 1_455 S
C2052 C2068 1.368 . S
H2053 C2061 0.950 . S
H2054 C2059 0.950 . S
H2055 C2060 0.949 . S
H2056 C2062 0.950 . S
H2057 C2063 0.950 . S
H2058 C2064 0.949 . S
C2059 H2054 0.950 . S
C2059 C2061 1.327 . S
C2059 C2065 1.429 . S
C2060 C2052 1.574 1_655 S
C2060 H2055 0.949 . S
C2060 C2066 1.368 . S
C2061 C2045 1.349 . S
C2061 H2053 0.950 . S
C2061 C2059 1.327 . S
C2062 C2050 1.349 . S
C2062 H2056 0.950 . S
C2062 C2063 1.327 . S
C2063 H2057 0.950 . S
C2063 C2062 1.327 . S
C2063 C2067 1.429 . S
C2064 C2047 1.574 . S
C2064 H2058 0.949 . S
C2064 C2068 1.368 1_655 S
C2065 C2046 1.429 . S
C2065 C2059 1.429 . S
C2065 C2066 1.523 . S
C2066 C2047 1.368 . S
C2066 C2060 1.368 . S
C2066 C2065 1.523 . S
C2067 C2051 1.429 . S
C2067 C2063 1.429 . S
C2067 C2068 1.523 . S
C2068 C2052 1.368 . S
C2068 C2064 1.368 1_455 S
C2068 C2067 1.523 . S
H2069 C2044 0.950 . S
H2070 C2046 0.950 . S
H2071 C2047 0.949 . S
H2072 C2049 0.950 . S
H2073 C2051 0.950 . S
C2074 C2075 1.349 . S
C2074 C2076 1.327 . S
C2074 H2099 0.950 . S
C2075 C2074 1.349 . S
C2075 C2091 1.349 . S
C2076 C2074 1.327 . S
C2076 C2095 1.429 . S
C2076 H2100 0.950 . S
C2077 C2094 1.574 . S
C2077 C2096 1.368 . S
C2077 H2101 0.949 . S
H2078 C2082 0.949 . S
C2079 C2080 1.349 . S
C2079 C2081 1.327 . S
C2079 H2102 0.950 . S
C2080 C2079 1.349 . S
C2080 C2092 1.349 . S
C2081 C2079 1.327 . S
C2081 C2097 1.429 . S
C2081 H2103 0.950 . S
C2082 H2078 0.949 . S
C2082 C2090 1.574 . S
C2082 C2098 1.368 . S
H2083 C2091 0.950 . S
H2084 C2089 0.950 . S
H2085 C2090 0.949 . S
H2086 C2092 0.950 . S
H2087 C2093 0.950 . S
H2088 C2094 0.949 . S
C2089 H2084 0.950 . S
C2089 C2091 1.327 . S
C2089 C2095 1.429 . S
C2090 C2082 1.574 . S
C2090 H2085 0.949 . S
C2090 C2096 1.368 . S
C2091 C2075 1.349 . S
C2091 H2083 0.950 . S
C2091 C2089 1.327 . S
C2092 C2080 1.349 . S
C2092 H2086 0.950 . S
C2092 C2093 1.327 . S
C2093 H2087 0.950 . S
C2093 C2092 1.327 . S
C2093 C2097 1.429 . S
C2094 C2077 1.574 . S
C2094 H2088 0.949 . S
C2094 C2098 1.368 . S
C2095 C2076 1.429 . S
C2095 C2089 1.429 . S
C2095 C2096 1.523 . S
C2096 C2077 1.368 . S
C2096 C2090 1.368 . S
C2096 C2095 1.523 . S
C2097 C2081 1.429 . S
C2097 C2093 1.429 . S
C2097 C2098 1.523 . S
C2098 C2082 1.368 . S
C2098 C2094 1.368 . S
C2098 C2097 1.523 . S
H2099 C2074 0.950 . S
H2100 C2076 0.950 . S
H2101 C2077 0.949 . S
H2102 C2079 0.950 . S
H2103 C2081 0.950 . S
C2104 C2105 1.349 . S
C2104 C2106 1.327 . S
C2104 H2129 0.950 . S
C2105 C2104 1.349 . S
C2105 C2121 1.349 . S
C2106 C2104 1.327 . S
C2106 C2125 1.429 . S
C2106 H2130 0.950 . S
C2107 C2124 1.574 . S
C2107 C2126 1.368 . S
C2107 H2131 0.949 . S
H2108 C2112 0.949 . S
C2109 C2110 1.349 . S
C2109 C2111 1.327 . S
C2109 H2132 0.950 . S
C2110 C2109 1.349 . S
C2110 C2122 1.349 . S
C2111 C2109 1.327 . S
C2111 C2127 1.429 . S
C2111 H2133 0.950 . S
C2112 H2108 0.949 . S
C2112 C2120 1.574 . S
C2112 C2128 1.368 . S
H2113 C2121 0.950 . S
H2114 C2119 0.950 . S
H2115 C2120 0.949 . S
H2116 C2122 0.950 . S
H2117 C2123 0.950 . S
H2118 C2124 0.949 . S
C2119 H2114 0.950 . S
C2119 C2121 1.327 . S
C2119 C2125 1.429 . S
C2120 C2112 1.574 . S
C2120 H2115 0.949 . S
C2120 C2126 1.368 . S
C2121 C2105 1.349 . S
C2121 H2113 0.950 . S
C2121 C2119 1.327 . S
C2122 C2110 1.349 . S
C2122 H2116 0.950 . S
C2122 C2123 1.327 . S
C2123 H2117 0.950 . S
C2123 C2122 1.327 . S
C2123 C2127 1.429 . S
C2124 C2107 1.574 . S
C2124 H2118 0.949 . S
C2124 C2128 1.368 . S
C2125 C2106 1.429 . S
C2125 C2119 1.429 . S
C2125 C2126 1.523 . S
C2126 C2107 1.368 . S
C2126 C2120 1.368 . S
C2126 C2125 1.523 . S
C2127 C2111 1.429 . S
C2127 C2123 1.429 . S
C2127 C2128 1.523 . S
C2128 C2112 1.368 . S
C2128 C2124 1.368 . S
C2128 C2127 1.523 . S
H2129 C2104 0.950 . S
H2130 C2106 0.950 . S
H2131 C2107 0.949 . S
H2132 C2109 0.950 . S
H2133 C2111 0.950 . S
C2134 C2135 1.349 . S
C2134 C2136 1.327 . S
C2134 H2159 0.950 . S
C2135 C2134 1.349 . S
C2135 C2151 1.349 . S
C2136 C2134 1.327 . S
C2136 C2155 1.429 . S
C2136 H2160 0.950 . S
C2137 C2154 1.574 1_554 S
C2137 C2156 1.368 . S
C2137 H2161 0.949 . S
H2138 C2142 0.949 . S
C2139 C2140 1.349 . S
C2139 C2141 1.327 . S
C2139 H2162 0.950 . S
C2140 C2139 1.349 . S
C2140 C2152 1.349 . S
C2141 C2139 1.327 . S
C2141 C2157 1.429 . S
C2141 H2163 0.950 . S
C2142 H2138 0.949 . S
C2142 C2150 1.574 . S
C2142 C2158 1.368 1_554 S
H2143 C2151 0.950 . S
H2144 C2149 0.950 . S
H2145 C2150 0.949 . S
H2146 C2152 0.950 . S
H2147 C2153 0.950 . S
H2148 C2154 0.949 . S
C2149 H2144 0.950 . S
C2149 C2151 1.327 . S
C2149 C2155 1.429 . S
C2150 C2142 1.574 . S
C2150 H2145 0.949 . S
C2150 C2156 1.368 . S
C2151 C2135 1.349 . S
C2151 H2143 0.950 . S
C2151 C2149 1.327 . S
C2152 C2140 1.349 . S
C2152 H2146 0.950 . S
C2152 C2153 1.327 . S
C2153 H2147 0.950 . S
C2153 C2152 1.327 . S
C2153 C2157 1.429 . S
C2154 C2137 1.574 1_556 S
C2154 H2148 0.949 . S
C2154 C2158 1.368 . S
C2155 C2136 1.429 . S
C2155 C2149 1.429 . S
C2155 C2156 1.523 . S
C2156 C2137 1.368 . S
C2156 C2150 1.368 . S
C2156 C2155 1.523 . S
C2157 C2141 1.429 . S
C2157 C2153 1.429 . S
C2157 C2158 1.523 . S
C2158 C2142 1.368 1_556 S
C2158 C2154 1.368 . S
C2158 C2157 1.523 . S
H2159 C2134 0.950 . S
H2160 C2136 0.950 . S
H2161 C2137 0.949 . S
H2162 C2139 0.950 . S
H2163 C2141 0.950 . S
C2164 C2165 1.349 . S
C2164 C2166 1.327 . S
C2164 H2189 0.950 . S
C2165 C2164 1.349 . S
C2165 C2181 1.349 . S
C2166 C2164 1.327 . S
C2166 C2185 1.429 . S
C2166 H2190 0.950 . S
C2167 C2184 1.574 . S
C2167 C2186 1.368 . S
C2167 H2191 0.949 . S
H2168 C2172 0.949 . S
C2169 C2170 1.349 . S
C2169 C2171 1.327 . S
C2169 H2192 0.950 . S
C2170 C2169 1.349 . S
C2170 C2182 1.349 . S
C2171 C2169 1.327 . S
C2171 C2187 1.429 . S
C2171 H2193 0.950 . S
C2172 H2168 0.949 . S
C2172 C2180 1.574 . S
C2172 C2188 1.368 . S
H2173 C2181 0.950 . S
H2174 C2179 0.950 . S
H2175 C2180 0.949 . S
H2176 C2182 0.950 . S
H2177 C2183 0.950 . S
H2178 C2184 0.949 . S
C2179 H2174 0.950 . S
C2179 C2181 1.327 . S
C2179 C2185 1.429 . S
C2180 C2172 1.574 . S
C2180 H2175 0.949 . S
C2180 C2186 1.368 . S
C2181 C2165 1.349 . S
C2181 H2173 0.950 . S
C2181 C2179 1.327 . S
C2182 C2170 1.349 . S
C2182 H2176 0.950 . S
C2182 C2183 1.327 . S
C2183 H2177 0.950 . S
C2183 C2182 1.327 . S
C2183 C2187 1.429 . S
C2184 C2167 1.574 . S
C2184 H2178 0.949 . S
C2184 C2188 1.368 . S
C2185 C2166 1.429 . S
C2185 C2179 1.429 . S
C2185 C2186 1.523 . S
C2186 C2167 1.368 . S
C2186 C2180 1.368 . S
C2186 C2185 1.523 . S
C2187 C2171 1.429 . S
C2187 C2183 1.429 . S
C2187 C2188 1.523 . S
C2188 C2172 1.368 . S
C2188 C2184 1.368 . S
C2188 C2187 1.523 . S
H2189 C2164 0.950 . S
H2190 C2166 0.950 . S
H2191 C2167 0.949 . S
H2192 C2169 0.950 . S
H2193 C2171 0.950 . S
C2194 C2195 1.349 . S
C2194 C2196 1.327 . S
C2194 H2219 0.950 . S
C2195 C2194 1.349 . S
C2195 C2211 1.349 . S
C2196 C2194 1.327 . S
C2196 C2215 1.429 . S
C2196 H2220 0.950 . S
C2197 C2214 1.574 . S
C2197 C2216 1.368 . S
C2197 H2221 0.949 . S
H2198 C2202 0.949 . S
C2199 C2200 1.349 . S
C2199 C2201 1.327 . S
C2199 H2222 0.950 . S
C2200 C2199 1.349 . S
C2200 C2212 1.349 . S
C2201 C2199 1.327 . S
C2201 C2217 1.429 . S
C2201 H2223 0.950 . S
C2202 H2198 0.949 . S
C2202 C2210 1.574 . S
C2202 C2218 1.368 . S
H2203 C2211 0.950 . S
H2204 C2209 0.950 . S
H2205 C2210 0.949 . S
H2206 C2212 0.950 . S
H2207 C2213 0.950 . S
H2208 C2214 0.949 . S
C2209 H2204 0.950 . S
C2209 C2211 1.327 . S
C2209 C2215 1.429 . S
C2210 C2202 1.574 . S
C2210 H2205 0.949 . S
C2210 C2216 1.368 . S
C2211 C2195 1.349 . S
C2211 H2203 0.950 . S
C2211 C2209 1.327 . S
C2212 C2200 1.349 . S
C2212 H2206 0.950 . S
C2212 C2213 1.327 . S
C2213 H2207 0.950 . S
C2213 C2212 1.327 . S
C2213 C2217 1.429 . S
C2214 C2197 1.574 . S
C2214 H2208 0.949 . S
C2214 C2218 1.368 . S
C2215 C2196 1.429 . S
C2215 C2209 1.429 . S
C2215 C2216 1.523 . S
C2216 C2197 1.368 . S
C2216 C2210 1.368 . S
C2216 C2215 1.523 . S
C2217 C2201 1.429 . S
C2217 C2213 1.429 . S
C2217 C2218 1.523 . S
C2218 C2202 1.368 . S
C2218 C2214 1.368 . S
C2218 C2217 1.523 . S
H2219 C2194 0.950 . S
H2220 C2196 0.950 . S
H2221 C2197 0.949 . S
H2222 C2199 0.950 . S
H2223 C2201 0.950 . S
C2224 C2225 1.349 . S
C2224 C2226 1.327 . S
C2224 H2249 0.950 . S
C2225 C2224 1.349 . S
C2225 C2241 1.349 . S
C2226 C2224 1.327 . S
C2226 C2245 1.429 . S
C2226 H2250 0.950 . S
C2227 C2244 1.574 . S
C2227 C2246 1.368 . S
C2227 H2251 0.949 . S
H2228 C2232 0.949 . S
C2229 C2230 1.349 . S
C2229 C2231 1.327 . S
C2229 H2252 0.950 . S
C2230 C2229 1.349 . S
C2230 C2242 1.349 . S
C2231 C2229 1.327 . S
C2231 C2247 1.429 . S
C2231 H2253 0.950 . S
C2232 H2228 0.949 . S
C2232 C2240 1.574 . S
C2232 C2248 1.368 . S
H2233 C2241 0.950 . S
H2234 C2239 0.950 . S
H2235 C2240 0.949 . S
H2236 C2242 0.950 . S
H2237 C2243 0.950 . S
H2238 C2244 0.949 . S
C2239 H2234 0.950 . S
C2239 C2241 1.327 . S
C2239 C2245 1.429 . S
C2240 C2232 1.574 . S
C2240 H2235 0.949 . S
C2240 C2246 1.368 . S
C2241 C2225 1.349 . S
C2241 H2233 0.950 . S
C2241 C2239 1.327 . S
C2242 C2230 1.349 . S
C2242 H2236 0.950 . S
C2242 C2243 1.327 . S
C2243 H2237 0.950 . S
C2243 C2242 1.327 . S
C2243 C2247 1.429 . S
C2244 C2227 1.574 . S
C2244 H2238 0.949 . S
C2244 C2248 1.368 . S
C2245 C2226 1.429 . S
C2245 C2239 1.429 . S
C2245 C2246 1.523 . S
C2246 C2227 1.368 . S
C2246 C2240 1.368 . S
C2246 C2245 1.523 . S
C2247 C2231 1.429 . S
C2247 C2243 1.429 . S
C2247 C2248 1.523 . S
C2248 C2232 1.368 . S
C2248 C2244 1.368 . S
C2248 C2247 1.523 . S
H2249 C2224 0.950 . S
H2250 C2226 0.950 . S
H2251 C2227 0.949 . S
H2252 C2229 0.950 . S
H2253 C2231 0.950 . S
C2254 C2255 1.349 . S
C2254 C2256 1.327 . S
C2254 H2279 0.950 . S
C2255 C2254 1.349 . S
C2255 C2271 1.349 . S
C2256 C2254 1.327 . S
C2256 C2275 1.429 . S
C2256 H2280 0.950 . S
C2257 C2274 1.574 . S
C2257 C2276 1.368 . S
C2257 H2281 0.949 . S
H2258 C2262 0.949 . S
C2259 C2260 1.349 . S
C2259 C2261 1.327 . S
C2259 H2282 0.950 . S
C2260 C2259 1.349 . S
C2260 C2272 1.349 . S
C2261 C2259 1.327 . S
C2261 C2277 1.429 . S
C2261 H2283 0.950 . S
C2262 H2258 0.949 . S
C2262 C2270 1.574 1_554 S
C2262 C2278 1.368 . S
H2263 C2271 0.950 . S
H2264 C2269 0.950 . S
H2265 C2270 0.949 . S
H2266 C2272 0.950 . S
H2267 C2273 0.950 . S
H2268 C2274 0.949 . S
C2269 H2264 0.950 . S
C2269 C2271 1.327 . S
C2269 C2275 1.429 . S
C2270 C2262 1.574 1_556 S
C2270 H2265 0.949 . S
C2270 C2276 1.368 . S
C2271 C2255 1.349 . S
C2271 H2263 0.950 . S
C2271 C2269 1.327 . S
C2272 C2260 1.349 . S
C2272 H2266 0.950 . S
C2272 C2273 1.327 . S
C2273 H2267 0.950 . S
C2273 C2272 1.327 . S
C2273 C2277 1.429 . S
C2274 C2257 1.574 . S
C2274 H2268 0.949 . S
C2274 C2278 1.368 1_556 S
C2275 C2256 1.429 . S
C2275 C2269 1.429 . S
C2275 C2276 1.523 . S
C2276 C2257 1.368 . S
C2276 C2270 1.368 . S
C2276 C2275 1.523 . S
C2277 C2261 1.429 . S
C2277 C2273 1.429 . S
C2277 C2278 1.523 . S
C2278 C2262 1.368 . S
C2278 C2274 1.368 1_554 S
C2278 C2277 1.523 . S
H2279 C2254 0.950 . S
H2280 C2256 0.950 . S
H2281 C2257 0.949 . S
H2282 C2259 0.950 . S
H2283 C2261 0.950 . S
C2284 C2285 1.349 . S
C2284 C2286 1.327 . S
C2284 H2309 0.950 . S
C2285 C2284 1.349 . S
C2285 C2301 1.349 . S
C2286 C2284 1.327 . S
C2286 C2305 1.429 . S
C2286 H2310 0.950 . S
C2287 C2304 1.574 . S
C2287 C2306 1.368 . S
C2287 H2311 0.949 . S
H2288 C2292 0.949 . S
C2289 C2290 1.349 . S
C2289 C2291 1.327 . S
C2289 H2312 0.950 . S
C2290 C2289 1.349 . S
C2290 C2302 1.349 . S
C2291 C2289 1.327 . S
C2291 C2307 1.429 . S
C2291 H2313 0.950 . S
C2292 H2288 0.949 . S
C2292 C2300 1.574 . S
C2292 C2308 1.368 . S
H2293 C2301 0.950 . S
H2294 C2299 0.950 . S
H2295 C2300 0.949 . S
H2296 C2302 0.950 . S
H2297 C2303 0.950 . S
H2298 C2304 0.949 . S
C2299 H2294 0.950 . S
C2299 C2301 1.327 . S
C2299 C2305 1.429 . S
C2300 C2292 1.574 . S
C2300 H2295 0.949 . S
C2300 C2306 1.368 . S
C2301 C2285 1.349 . S
C2301 H2293 0.950 . S
C2301 C2299 1.327 . S
C2302 C2290 1.349 . S
C2302 H2296 0.950 . S
C2302 C2303 1.327 . S
C2303 H2297 0.950 . S
C2303 C2302 1.327 . S
C2303 C2307 1.429 . S
C2304 C2287 1.574 . S
C2304 H2298 0.949 . S
C2304 C2308 1.368 . S
C2305 C2286 1.429 . S
C2305 C2299 1.429 . S
C2305 C2306 1.523 . S
C2306 C2287 1.368 . S
C2306 C2300 1.368 . S
C2306 C2305 1.523 . S
C2307 C2291 1.429 . S
C2307 C2303 1.429 . S
C2307 C2308 1.523 . S
C2308 C2292 1.368 . S
C2308 C2304 1.368 . S
C2308 C2307 1.523 . S
H2309 C2284 0.950 . S
H2310 C2286 0.950 . S
H2311 C2287 0.949 . S
H2312 C2289 0.950 . S
H2313 C2291 0.950 . S
C2314 C2315 1.349 . S
C2314 C2316 1.327 . S
C2314 H2339 0.950 . S
C2315 C2314 1.349 . S
C2315 C2331 1.349 . S
C2316 C2314 1.327 . S
C2316 C2335 1.429 . S
C2316 H2340 0.950 . S
C2317 C2334 1.574 . S
C2317 C2336 1.368 . S
C2317 H2341 0.949 . S
H2318 C2322 0.949 . S
C2319 C2320 1.349 . S
C2319 C2321 1.327 . S
C2319 H2342 0.950 . S
C2320 C2319 1.349 . S
C2320 C2332 1.349 . S
C2321 C2319 1.327 . S
C2321 C2337 1.429 . S
C2321 H2343 0.950 . S
C2322 H2318 0.949 . S
C2322 C2330 1.574 . S
C2322 C2338 1.368 . S
H2323 C2331 0.950 . S
H2324 C2329 0.950 . S
H2325 C2330 0.949 . S
H2326 C2332 0.950 . S
H2327 C2333 0.950 . S
H2328 C2334 0.949 . S
C2329 H2324 0.950 . S
C2329 C2331 1.327 . S
C2329 C2335 1.429 . S
C2330 C2322 1.574 . S
C2330 H2325 0.949 . S
C2330 C2336 1.368 . S
C2331 C2315 1.349 . S
C2331 H2323 0.950 . S
C2331 C2329 1.327 . S
C2332 C2320 1.349 . S
C2332 H2326 0.950 . S
C2332 C2333 1.327 . S
C2333 H2327 0.950 . S
C2333 C2332 1.327 . S
C2333 C2337 1.429 . S
C2334 C2317 1.574 . S
C2334 H2328 0.949 . S
C2334 C2338 1.368 . S
C2335 C2316 1.429 . S
C2335 C2329 1.429 . S
C2335 C2336 1.523 . S
C2336 C2317 1.368 . S
C2336 C2330 1.368 . S
C2336 C2335 1.523 . S
C2337 C2321 1.429 . S
C2337 C2333 1.429 . S
C2337 C2338 1.523 . S
C2338 C2322 1.368 . S
C2338 C2334 1.368 . S
C2338 C2337 1.523 . S
H2339 C2314 0.950 . S
H2340 C2316 0.950 . S
H2341 C2317 0.949 . S
H2342 C2319 0.950 . S
H2343 C2321 0.950 . S
C2344 C2345 1.349 . S
C2344 C2346 1.327 . S
C2344 H2369 0.950 . S
C2345 C2344 1.349 . S
C2345 C2361 1.349 . S
C2346 C2344 1.327 . S
C2346 C2365 1.429 . S
C2346 H2370 0.950 . S
C2347 C2364 1.574 . S
C2347 C2366 1.368 . S
C2347 H2371 0.949 . S
H2348 C2352 0.949 . S
C2349 C2350 1.349 . S
C2349 C2351 1.327 . S
C2349 H2372 0.950 . S
C2350 C2349 1.349 . S
C2350 C2362 1.349 . S
C2351 C2349 1.327 . S
C2351 C2367 1.429 . S
C2351 H2373 0.950 . S
C2352 H2348 0.949 . S
C2352 C2360 1.574 . S
C2352 C2368 1.368 . S
H2353 C2361 0.950 . S
H2354 C2359 0.950 . S
H2355 C2360 0.949 . S
H2356 C2362 0.950 . S
H2357 C2363 0.950 . S
H2358 C2364 0.949 . S
C2359 H2354 0.950 . S
C2359 C2361 1.327 . S
C2359 C2365 1.429 . S
C2360 C2352 1.574 . S
C2360 H2355 0.949 . S
C2360 C2366 1.368 . S
C2361 C2345 1.349 . S
C2361 H2353 0.950 . S
C2361 C2359 1.327 . S
C2362 C2350 1.349 . S
C2362 H2356 0.950 . S
C2362 C2363 1.327 . S
C2363 H2357 0.950 . S
C2363 C2362 1.327 . S
C2363 C2367 1.429 . S
C2364 C2347 1.574 . S
C2364 H2358 0.949 . S
C2364 C2368 1.368 . S
C2365 C2346 1.429 . S
C2365 C2359 1.429 . S
C2365 C2366 1.523 . S
C2366 C2347 1.368 . S
C2366 C2360 1.368 . S
C2366 C2365 1.523 . S
C2367 C2351 1.429 . S
C2367 C2363 1.429 . S
C2367 C2368 1.523 . S
C2368 C2352 1.368 . S
C2368 C2364 1.368 . S
C2368 C2367 1.523 . S
H2369 C2344 0.950 . S
H2370 C2346 0.950 . S
H2371 C2347 0.949 . S
H2372 C2349 0.950 . S
H2373 C2351 0.950 . S
C2374 C2375 1.349 . S
C2374 C2376 1.327 . S
C2374 H2399 0.950 . S
C2375 C2374 1.349 . S
C2375 C2391 1.349 . S
C2376 C2374 1.327 . S
C2376 C2395 1.429 . S
C2376 H2400 0.950 . S
C2377 C2394 1.574 . S
C2377 C2396 1.368 . S
C2377 H2401 0.949 . S
H2378 C2382 0.949 . S
C2379 C2380 1.349 . S
C2379 C2381 1.327 . S
C2379 H2402 0.950 . S
C2380 C2379 1.349 . S
C2380 C2392 1.349 . S
C2381 C2379 1.327 . S
C2381 C2397 1.429 . S
C2381 H2403 0.950 . S
C2382 H2378 0.949 . S
C2382 C2390 1.574 . S
C2382 C2398 1.368 . S
H2383 C2391 0.950 . S
H2384 C2389 0.950 . S
H2385 C2390 0.949 . S
H2386 C2392 0.950 . S
H2387 C2393 0.950 . S
H2388 C2394 0.949 . S
C2389 H2384 0.950 . S
C2389 C2391 1.327 . S
C2389 C2395 1.429 . S
C2390 C2382 1.574 . S
C2390 H2385 0.949 . S
C2390 C2396 1.368 . S
C2391 C2375 1.349 . S
C2391 H2383 0.950 . S
C2391 C2389 1.327 . S
C2392 C2380 1.349 . S
C2392 H2386 0.950 . S
C2392 C2393 1.327 . S
C2393 H2387 0.950 . S
C2393 C2392 1.327 . S
C2393 C2397 1.429 . S
C2394 C2377 1.574 . S
C2394 H2388 0.949 . S
C2394 C2398 1.368 . S
C2395 C2376 1.429 . S
C2395 C2389 1.429 . S
C2395 C2396 1.523 . S
C2396 C2377 1.368 . S
C2396 C2390 1.368 . S
C2396 C2395 1.523 . S
C2397 C2381 1.429 . S
C2397 C2393 1.429 . S
C2397 C2398 1.523 . S
C2398 C2382 1.368 . S
C2398 C2394 1.368 . S
C2398 C2397 1.523 . S
H2399 C2374 0.950 . S
H2400 C2376 0.950 . S
H2401 C2377 0.949 . S
H2402 C2379 0.950 . S
H2403 C2381 0.950 . S
C2404 C2405 1.349 . S
C2404 C2406 1.327 . S
C2404 H2429 0.950 . S
C2405 C2404 1.349 . S
C2405 C2421 1.349 . S
C2406 C2404 1.327 . S
C2406 C2425 1.429 . S
C2406 H2430 0.950 . S
C2407 C2424 1.574 . S
C2407 C2426 1.368 . S
C2407 H2431 0.949 . S
H2408 C2412 0.949 . S
C2409 C2410 1.349 . S
C2409 C2411 1.327 . S
C2409 H2432 0.950 . S
C2410 C2409 1.349 . S
C2410 C2422 1.349 . S
C2411 C2409 1.327 . S
C2411 C2427 1.429 . S
C2411 H2433 0.950 . S
C2412 H2408 0.949 . S
C2412 C2420 1.574 . S
C2412 C2428 1.368 . S
H2413 C2421 0.950 . S
H2414 C2419 0.950 . S
H2415 C2420 0.949 . S
H2416 C2422 0.950 . S
H2417 C2423 0.950 . S
H2418 C2424 0.949 . S
C2419 H2414 0.950 . S
C2419 C2421 1.327 . S
C2419 C2425 1.429 . S
C2420 C2412 1.574 . S
C2420 H2415 0.949 . S
C2420 C2426 1.368 . S
C2421 C2405 1.349 . S
C2421 H2413 0.950 . S
C2421 C2419 1.327 . S
C2422 C2410 1.349 . S
C2422 H2416 0.950 . S
C2422 C2423 1.327 . S
C2423 H2417 0.950 . S
C2423 C2422 1.327 . S
C2423 C2427 1.429 . S
C2424 C2407 1.574 . S
C2424 H2418 0.949 . S
C2424 C2428 1.368 . S
C2425 C2406 1.429 . S
C2425 C2419 1.429 . S
C2425 C2426 1.523 . S
C2426 C2407 1.368 . S
C2426 C2420 1.368 . S
C2426 C2425 1.523 . S
C2427 C2411 1.429 . S
C2427 C2423 1.429 . S
C2427 C2428 1.523 . S
C2428 C2412 1.368 . S
C2428 C2424 1.368 . S
C2428 C2427 1.523 . S
H2429 C2404 0.950 . S
H2430 C2406 0.950 . S
H2431 C2407 0.949 . S
H2432 C2409 0.950 . S
H2433 C2411 0.950 . S
C2434 C2435 1.349 . S
C2434 C2436 1.327 . S
C2434 H2459 0.950 . S
C2435 C2434 1.349 . S
C2435 C2451 1.349 . S
C2436 C2434 1.327 . S
C2436 C2455 1.429 . S
C2436 H2460 0.950 . S
C2437 C2454 1.574 . S
C2437 C2456 1.368 . S
C2437 H2461 0.949 . S
H2438 C2442 0.949 . S
C2439 C2440 1.349 . S
C2439 C2441 1.327 . S
C2439 H2462 0.950 . S
C2440 C2439 1.349 . S
C2440 C2452 1.349 . S
C2441 C2439 1.327 . S
C2441 C2457 1.429 . S
C2441 H2463 0.950 . S
C2442 H2438 0.949 . S
C2442 C2450 1.574 . S
C2442 C2458 1.368 . S
H2443 C2451 0.950 . S
H2444 C2449 0.950 . S
H2445 C2450 0.949 . S
H2446 C2452 0.950 . S
H2447 C2453 0.950 . S
H2448 C2454 0.949 . S
C2449 H2444 0.950 . S
C2449 C2451 1.327 . S
C2449 C2455 1.429 . S
C2450 C2442 1.574 . S
C2450 H2445 0.949 . S
C2450 C2456 1.368 . S
C2451 C2435 1.349 . S
C2451 H2443 0.950 . S
C2451 C2449 1.327 . S
C2452 C2440 1.349 . S
C2452 H2446 0.950 . S
C2452 C2453 1.327 . S
C2453 H2447 0.950 . S
C2453 C2452 1.327 . S
C2453 C2457 1.429 . S
C2454 C2437 1.574 . S
C2454 H2448 0.949 . S
C2454 C2458 1.368 . S
C2455 C2436 1.429 . S
C2455 C2449 1.429 . S
C2455 C2456 1.523 . S
C2456 C2437 1.368 . S
C2456 C2450 1.368 . S
C2456 C2455 1.523 . S
C2457 C2441 1.429 . S
C2457 C2453 1.429 . S
C2457 C2458 1.523 . S
C2458 C2442 1.368 . S
C2458 C2454 1.368 . S
C2458 C2457 1.523 . S
H2459 C2434 0.950 . S
H2460 C2436 0.950 . S
H2461 C2437 0.949 . S
H2462 C2439 0.950 . S
H2463 C2441 0.950 . S
C2464 C2465 1.349 . S
C2464 C2466 1.327 . S
C2464 H2489 0.950 . S
C2465 C2464 1.349 . S
C2465 C2481 1.349 . S
C2466 C2464 1.327 . S
C2466 C2485 1.429 . S
C2466 H2490 0.950 . S
C2467 C2484 1.574 . S
C2467 C2486 1.368 . S
C2467 H2491 0.949 . S
H2468 C2472 0.949 . S
C2469 C2470 1.349 . S
C2469 C2471 1.327 . S
C2469 H2492 0.950 . S
C2470 C2469 1.349 . S
C2470 C2482 1.349 . S
C2471 C2469 1.327 . S
C2471 C2487 1.429 . S
C2471 H2493 0.950 . S
C2472 H2468 0.949 . S
C2472 C2480 1.574 . S
C2472 C2488 1.368 . S
H2473 C2481 0.950 . S
H2474 C2479 0.950 . S
H2475 C2480 0.949 . S
H2476 C2482 0.950 . S
H2477 C2483 0.950 . S
H2478 C2484 0.949 . S
C2479 H2474 0.950 . S
C2479 C2481 1.327 . S
C2479 C2485 1.429 . S
C2480 C2472 1.574 . S
C2480 H2475 0.949 . S
C2480 C2486 1.368 . S
C2481 C2465 1.349 . S
C2481 H2473 0.950 . S
C2481 C2479 1.327 . S
C2482 C2470 1.349 . S
C2482 H2476 0.950 . S
C2482 C2483 1.327 . S
C2483 H2477 0.950 . S
C2483 C2482 1.327 . S
C2483 C2487 1.429 . S
C2484 C2467 1.574 . S
C2484 H2478 0.949 . S
C2484 C2488 1.368 . S
C2485 C2466 1.429 . S
C2485 C2479 1.429 . S
C2485 C2486 1.523 . S
C2486 C2467 1.368 . S
C2486 C2480 1.368 . S
C2486 C2485 1.523 . S
C2487 C2471 1.429 . S
C2487 C2483 1.429 . S
C2487 C2488 1.523 . S
C2488 C2472 1.368 . S
C2488 C2484 1.368 . S
C2488 C2487 1.523 . S
H2489 C2464 0.950 . S
H2490 C2466 0.950 . S
H2491 C2467 0.949 . S
H2492 C2469 0.950 . S
H2493 C2471 0.950 . S
C2494 C2495 1.349 . S
C2494 C2496 1.327 . S
C2494 H2519 0.950 . S
C2495 C2494 1.349 . S
C2495 C2511 1.349 . S
C2496 C2494 1.327 . S
C2496 C2515 1.429 . S
C2496 H2520 0.950 . S
C2497 C2514 1.574 . S
C2497 C2516 1.368 . S
C2497 H2521 0.949 . S
H2498 C2502 0.949 . S
C2499 C2500 1.349 . S
C2499 C2501 1.327 . S
C2499 H2522 0.950 . S
C2500 C2499 1.349 . S
C2500 C2512 1.349 . S
C2501 C2499 1.327 . S
C2501 C2517 1.429 . S
C2501 H2523 0.950 . S
C2502 H2498 0.949 . S
C2502 C2510 1.574 . S
C2502 C2518 1.368 . S
H2503 C2511 0.950 . S
H2504 C2509 0.950 . S
H2505 C2510 0.949 . S
H2506 C2512 0.950 . S
H2507 C2513 0.950 . S
H2508 C2514 0.949 . S
C2509 H2504 0.950 . S
C2509 C2511 1.327 . S
C2509 C2515 1.429 . S
C2510 C2502 1.574 . S
C2510 H2505 0.949 . S
C2510 C2516 1.368 . S
C2511 C2495 1.349 . S
C2511 H2503 0.950 . S
C2511 C2509 1.327 . S
C2512 C2500 1.349 . S
C2512 H2506 0.950 . S
C2512 C2513 1.327 . S
C2513 H2507 0.950 . S
C2513 C2512 1.327 . S
C2513 C2517 1.429 . S
C2514 C2497 1.574 . S
C2514 H2508 0.949 . S
C2514 C2518 1.368 . S
C2515 C2496 1.429 . S
C2515 C2509 1.429 . S
C2515 C2516 1.523 . S
C2516 C2497 1.368 . S
C2516 C2510 1.368 . S
C2516 C2515 1.523 . S
C2517 C2501 1.429 . S
C2517 C2513 1.429 . S
C2517 C2518 1.523 . S
C2518 C2502 1.368 . S
C2518 C2514 1.368 . S
C2518 C2517 1.523 . S
H2519 C2494 0.950 . S
H2520 C2496 0.950 . S
H2521 C2497 0.949 . S
H2522 C2499 0.950 . S
H2523 C2501 0.950 . S
C2524 C2525 1.349 . S
C2524 C2526 1.327 . S
C2524 H2549 0.950 . S
C2525 C2524 1.349 . S
C2525 C2541 1.349 . S
C2526 C2524 1.327 . S
C2526 C2545 1.429 . S
C2526 H2550 0.950 . S
C2527 C2544 1.574 . S
C2527 C2546 1.368 . S
C2527 H2551 0.949 . S
H2528 C2532 0.949 . S
C2529 C2530 1.349 . S
C2529 C2531 1.327 . S
C2529 H2552 0.950 . S
C2530 C2529 1.349 . S
C2530 C2542 1.349 . S
C2531 C2529 1.327 . S
C2531 C2547 1.429 . S
C2531 H2553 0.950 . S
C2532 H2528 0.949 . S
C2532 C2540 1.574 . S
C2532 C2548 1.368 . S
H2533 C2541 0.950 . S
H2534 C2539 0.950 . S
H2535 C2540 0.949 . S
H2536 C2542 0.950 . S
H2537 C2543 0.950 . S
H2538 C2544 0.949 . S
C2539 H2534 0.950 . S
C2539 C2541 1.327 . S
C2539 C2545 1.429 . S
C2540 C2532 1.574 . S
C2540 H2535 0.949 . S
C2540 C2546 1.368 . S
C2541 C2525 1.349 . S
C2541 H2533 0.950 . S
C2541 C2539 1.327 . S
C2542 C2530 1.349 . S
C2542 H2536 0.950 . S
C2542 C2543 1.327 . S
C2543 H2537 0.950 . S
C2543 C2542 1.327 . S
C2543 C2547 1.429 . S
C2544 C2527 1.574 . S
C2544 H2538 0.949 . S
C2544 C2548 1.368 . S
C2545 C2526 1.429 . S
C2545 C2539 1.429 . S
C2545 C2546 1.523 . S
C2546 C2527 1.368 . S
C2546 C2540 1.368 . S
C2546 C2545 1.523 . S
C2547 C2531 1.429 . S
C2547 C2543 1.429 . S
C2547 C2548 1.523 . S
C2548 C2532 1.368 . S
C2548 C2544 1.368 . S
C2548 C2547 1.523 . S
H2549 C2524 0.950 . S
H2550 C2526 0.950 . S
H2551 C2527 0.949 . S
H2552 C2529 0.950 . S
H2553 C2531 0.950 . S
C2554 C2555 1.349 . S
C2554 C2556 1.327 . S
C2554 H2579 0.950 . S
C2555 C2554 1.349 . S
C2555 C2571 1.349 . S
C2556 C2554 1.327 . S
C2556 C2575 1.429 . S
C2556 H2580 0.950 . S
C2557 C2574 1.574 . S
C2557 C2576 1.368 . S
C2557 H2581 0.949 . S
H2558 C2562 0.949 . S
C2559 C2560 1.349 . S
C2559 C2561 1.327 . S
C2559 H2582 0.950 . S
C2560 C2559 1.349 . S
C2560 C2572 1.349 . S
C2561 C2559 1.327 . S
C2561 C2577 1.429 . S
C2561 H2583 0.950 . S
C2562 H2558 0.949 . S
C2562 C2570 1.574 . S
C2562 C2578 1.368 . S
H2563 C2571 0.950 . S
H2564 C2569 0.950 . S
H2565 C2570 0.949 . S
H2566 C2572 0.950 . S
H2567 C2573 0.950 . S
H2568 C2574 0.949 . S
C2569 H2564 0.950 . S
C2569 C2571 1.327 . S
C2569 C2575 1.429 . S
C2570 C2562 1.574 . S
C2570 H2565 0.949 . S
C2570 C2576 1.368 . S
C2571 C2555 1.349 . S
C2571 H2563 0.950 . S
C2571 C2569 1.327 . S
C2572 C2560 1.349 . S
C2572 H2566 0.950 . S
C2572 C2573 1.327 . S
C2573 H2567 0.950 . S
C2573 C2572 1.327 . S
C2573 C2577 1.429 . S
C2574 C2557 1.574 . S
C2574 H2568 0.949 . S
C2574 C2578 1.368 . S
C2575 C2556 1.429 . S
C2575 C2569 1.429 . S
C2575 C2576 1.523 . S
C2576 C2557 1.368 . S
C2576 C2570 1.368 . S
C2576 C2575 1.523 . S
C2577 C2561 1.429 . S
C2577 C2573 1.429 . S
C2577 C2578 1.523 . S
C2578 C2562 1.368 . S
C2578 C2574 1.368 . S
C2578 C2577 1.523 . S
H2579 C2554 0.950 . S
H2580 C2556 0.950 . S
H2581 C2557 0.949 . S
H2582 C2559 0.950 . S
H2583 C2561 0.950 . S
C2584 C2585 1.349 . S
C2584 C2586 1.327 . S
C2584 H2609 0.950 . S
C2585 C2584 1.349 . S
C2585 C2601 1.349 . S
C2586 C2584 1.327 . S
C2586 C2605 1.429 . S
C2586 H2610 0.950 . S
C2587 C2604 1.574 . S
C2587 C2606 1.368 . S
C2587 H2611 0.949 . S
H2588 C2592 0.949 . S
C2589 C2590 1.349 . S
C2589 C2591 1.327 . S
C2589 H2612 0.950 . S
C2590 C2589 1.349 . S
C2590 C2602 1.349 . S
C2591 C2589 1.327 . S
C2591 C2607 1.429 . S
C2591 H2613 0.950 . S
C2592 H2588 0.949 . S
C2592 C2600 1.574 . S
C2592 C2608 1.368 . S
H2593 C2601 0.950 . S
H2594 C2599 0.950 . S
H2595 C2600 0.949 . S
H2596 C2602 0.950 . S
H2597 C2603 0.950 . S
H2598 C2604 0.949 . S
C2599 H2594 0.950 . S
C2599 C2601 1.327 . S
C2599 C2605 1.429 . S
C2600 C2592 1.574 . S
C2600 H2595 0.949 . S
C2600 C2606 1.368 . S
C2601 C2585 1.349 . S
C2601 H2593 0.950 . S
C2601 C2599 1.327 . S
C2602 C2590 1.349 . S
C2602 H2596 0.950 . S
C2602 C2603 1.327 . S
C2603 H2597 0.950 . S
C2603 C2602 1.327 . S
C2603 C2607 1.429 . S
C2604 C2587 1.574 . S
C2604 H2598 0.949 . S
C2604 C2608 1.368 . S
C2605 C2586 1.429 . S
C2605 C2599 1.429 . S
C2605 C2606 1.523 . S
C2606 C2587 1.368 . S
C2606 C2600 1.368 . S
C2606 C2605 1.523 . S
C2607 C2591 1.429 . S
C2607 C2603 1.429 . S
C2607 C2608 1.523 . S
C2608 C2592 1.368 . S
C2608 C2604 1.368 . S
C2608 C2607 1.523 . S
H2609 C2584 0.950 . S
H2610 C2586 0.950 . S
H2611 C2587 0.949 . S
H2612 C2589 0.950 . S
H2613 C2591 0.950 . S
C2614 C2615 1.349 . S
C2614 C2616 1.327 . S
C2614 H2639 0.950 . S
C2615 C2614 1.349 . S
C2615 C2631 1.349 . S
C2616 C2614 1.327 . S
C2616 C2635 1.429 . S
C2616 H2640 0.950 . S
C2617 C2634 1.574 . S
C2617 C2636 1.368 . S
C2617 H2641 0.949 . S
H2618 C2622 0.949 . S
C2619 C2620 1.349 . S
C2619 C2621 1.327 . S
C2619 H2642 0.950 . S
C2620 C2619 1.349 . S
C2620 C2632 1.349 . S
C2621 C2619 1.327 . S
C2621 C2637 1.429 . S
C2621 H2643 0.950 . S
C2622 H2618 0.949 . S
C2622 C2630 1.574 . S
C2622 C2638 1.368 . S
H2623 C2631 0.950 . S
H2624 C2629 0.950 . S
H2625 C2630 0.949 . S
H2626 C2632 0.950 . S
H2627 C2633 0.950 . S
H2628 C2634 0.949 . S
C2629 H2624 0.950 . S
C2629 C2631 1.327 . S
C2629 C2635 1.429 . S
C2630 C2622 1.574 . S
C2630 H2625 0.949 . S
C2630 C2636 1.368 . S
C2631 C2615 1.349 . S
C2631 H2623 0.950 . S
C2631 C2629 1.327 . S
C2632 C2620 1.349 . S
C2632 H2626 0.950 . S
C2632 C2633 1.327 . S
C2633 H2627 0.950 . S
C2633 C2632 1.327 . S
C2633 C2637 1.429 . S
C2634 C2617 1.574 . S
C2634 H2628 0.949 . S
C2634 C2638 1.368 . S
C2635 C2616 1.429 . S
C2635 C2629 1.429 . S
C2635 C2636 1.523 . S
C2636 C2617 1.368 . S
C2636 C2630 1.368 . S
C2636 C2635 1.523 . S
C2637 C2621 1.429 . S
C2637 C2633 1.429 . S
C2637 C2638 1.523 . S
C2638 C2622 1.368 . S
C2638 C2634 1.368 . S
C2638 C2637 1.523 . S
H2639 C2614 0.950 . S
H2640 C2616 0.950 . S
H2641 C2617 0.949 . S
H2642 C2619 0.950 . S
H2643 C2621 0.950 . S
C2644 C2645 1.349 . S
C2644 C2646 1.327 . S
C2644 H2669 0.950 . S
C2645 C2644 1.349 . S
C2645 C2661 1.349 . S
C2646 C2644 1.327 . S
C2646 C2665 1.429 . S
C2646 H2670 0.950 . S
C2647 C2664 1.574 . S
C2647 C2666 1.368 . S
C2647 H2671 0.949 . S
H2648 C2652 0.949 . S
C2649 C2650 1.349 . S
C2649 C2651 1.327 . S
C2649 H2672 0.950 . S
C2650 C2649 1.349 . S
C2650 C2662 1.349 . S
C2651 C2649 1.327 . S
C2651 C2667 1.429 . S
C2651 H2673 0.950 . S
C2652 H2648 0.949 . S
C2652 C2660 1.574 . S
C2652 C2668 1.368 . S
H2653 C2661 0.950 . S
H2654 C2659 0.950 . S
H2655 C2660 0.949 . S
H2656 C2662 0.950 . S
H2657 C2663 0.950 . S
H2658 C2664 0.949 . S
C2659 H2654 0.950 . S
C2659 C2661 1.327 . S
C2659 C2665 1.429 . S
C2660 C2652 1.574 . S
C2660 H2655 0.949 . S
C2660 C2666 1.368 . S
C2661 C2645 1.349 . S
C2661 H2653 0.950 . S
C2661 C2659 1.327 . S
C2662 C2650 1.349 . S
C2662 H2656 0.950 . S
C2662 C2663 1.327 . S
C2663 H2657 0.950 . S
C2663 C2662 1.327 . S
C2663 C2667 1.429 . S
C2664 C2647 1.574 . S
C2664 H2658 0.949 . S
C2664 C2668 1.368 . S
C2665 C2646 1.429 . S
C2665 C2659 1.429 . S
C2665 C2666 1.523 . S
C2666 C2647 1.368 . S
C2666 C2660 1.368 . S
C2666 C2665 1.523 . S
C2667 C2651 1.429 . S
C2667 C2663 1.429 . S
C2667 C2668 1.523 . S
C2668 C2652 1.368 . S
C2668 C2664 1.368 . S
C2668 C2667 1.523 . S
H2669 C2644 0.950 . S
H2670 C2646 0.950 . S
H2671 C2647 0.949 . S
H2672 C2649 0.950 . S
H2673 C2651 0.950 . S
C2674 C2675 1.349 . S
C2674 C2676 1.327 . S
C2674 H2699 0.950 . S
C2675 C2674 1.349 . S
C2675 C2691 1.349 . S
C2676 C2674 1.327 . S
C2676 C2695 1.429 . S
C2676 H2700 0.950 . S
C2677 C2694 1.574 . S
C2677 C2696 1.368 . S
C2677 H2701 0.949 . S
H2678 C2682 0.949 . S
C2679 C2680 1.349 . S
C2679 C2681 1.327 . S
C2679 H2702 0.950 . S
C2680 C2679 1.349 . S
C2680 C2692 1.349 . S
C2681 C2679 1.327 . S
C2681 C2697 1.429 . S
C2681 H2703 0.950 . S
C2682 H2678 0.949 . S
C2682 C2690 1.574 . S
C2682 C2698 1.368 . S
H2683 C2691 0.950 . S
H2684 C2689 0.950 . S
H2685 C2690 0.949 . S
H2686 C2692 0.950 . S
H2687 C2693 0.950 . S
H2688 C2694 0.949 . S
C2689 H2684 0.950 . S
C2689 C2691 1.327 . S
C2689 C2695 1.429 . S
C2690 C2682 1.574 . S
C2690 H2685 0.949 . S
C2690 C2696 1.368 . S
C2691 C2675 1.349 . S
C2691 H2683 0.950 . S
C2691 C2689 1.327 . S
C2692 C2680 1.349 . S
C2692 H2686 0.950 . S
C2692 C2693 1.327 . S
C2693 H2687 0.950 . S
C2693 C2692 1.327 . S
C2693 C2697 1.429 . S
C2694 C2677 1.574 . S
C2694 H2688 0.949 . S
C2694 C2698 1.368 . S
C2695 C2676 1.429 . S
C2695 C2689 1.429 . S
C2695 C2696 1.523 . S
C2696 C2677 1.368 . S
C2696 C2690 1.368 . S
C2696 C2695 1.523 . S
C2697 C2681 1.429 . S
C2697 C2693 1.429 . S
C2697 C2698 1.523 . S
C2698 C2682 1.368 . S
C2698 C2694 1.368 . S
C2698 C2697 1.523 . S
H2699 C2674 0.950 . S
H2700 C2676 0.950 . S
H2701 C2677 0.949 . S
H2702 C2679 0.950 . S
H2703 C2681 0.950 . S
C2704 C2705 1.349 . S
C2704 C2706 1.327 . S
C2704 H2729 0.950 . S
C2705 C2704 1.349 . S
C2705 C2721 1.349 . S
C2706 C2704 1.327 . S
C2706 C2725 1.429 . S
C2706 H2730 0.950 . S
C2707 C2724 1.574 . S
C2707 C2726 1.368 . S
C2707 H2731 0.949 . S
H2708 C2712 0.949 . S
C2709 C2710 1.349 . S
C2709 C2711 1.327 . S
C2709 H2732 0.950 . S
C2710 C2709 1.349 . S
C2710 C2722 1.349 . S
C2711 C2709 1.327 . S
C2711 C2727 1.429 . S
C2711 H2733 0.950 . S
C2712 H2708 0.949 . S
C2712 C2720 1.574 . S
C2712 C2728 1.368 . S
H2713 C2721 0.950 . S
H2714 C2719 0.950 . S
H2715 C2720 0.949 . S
H2716 C2722 0.950 . S
H2717 C2723 0.950 . S
H2718 C2724 0.949 . S
C2719 H2714 0.950 . S
C2719 C2721 1.327 . S
C2719 C2725 1.429 . S
C2720 C2712 1.574 . S
C2720 H2715 0.949 . S
C2720 C2726 1.368 . S
C2721 C2705 1.349 . S
C2721 H2713 0.950 . S
C2721 C2719 1.327 . S
C2722 C2710 1.349 . S
C2722 H2716 0.950 . S
C2722 C2723 1.327 . S
C2723 H2717 0.950 . S
C2723 C2722 1.327 . S
C2723 C2727 1.429 . S
C2724 C2707 1.574 . S
C2724 H2718 0.949 . S
C2724 C2728 1.368 . S
C2725 C2706 1.429 . S
C2725 C2719 1.429 . S
C2725 C2726 1.523 . S
C2726 C2707 1.368 . S
C2726 C2720 1.368 . S
C2726 C2725 1.523 . S
C2727 C2711 1.429 . S
C2727 C2723 1.429 . S
C2727 C2728 1.523 . S
C2728 C2712 1.368 . S
C2728 C2724 1.368 . S
C2728 C2727 1.523 . S
H2729 C2704 0.950 . S
H2730 C2706 0.950 . S
H2731 C2707 0.949 . S
H2732 C2709 0.950 . S
H2733 C2711 0.950 . S
C2734 C2735 1.349 . S
C2734 C2736 1.327 . S
C2734 H2759 0.950 . S
C2735 C2734 1.349 . S
C2735 C2751 1.349 . S
C2736 C2734 1.327 . S
C2736 C2755 1.429 . S
C2736 H2760 0.950 . S
C2737 C2754 1.574 . S
C2737 C2756 1.368 . S
C2737 H2761 0.949 . S
H2738 C2742 0.949 . S
C2739 C2740 1.349 . S
C2739 C2741 1.327 . S
C2739 H2762 0.950 . S
C2740 C2739 1.349 . S
C2740 C2752 1.349 . S
C2741 C2739 1.327 . S
C2741 C2757 1.429 . S
C2741 H2763 0.950 . S
C2742 H2738 0.949 . S
C2742 C2750 1.574 . S
C2742 C2758 1.368 . S
H2743 C2751 0.950 . S
H2744 C2749 0.950 . S
H2745 C2750 0.949 . S
H2746 C2752 0.950 . S
H2747 C2753 0.950 . S
H2748 C2754 0.949 . S
C2749 H2744 0.950 . S
C2749 C2751 1.327 . S
C2749 C2755 1.429 . S
C2750 C2742 1.574 . S
C2750 H2745 0.949 . S
C2750 C2756 1.368 . S
C2751 C2735 1.349 . S
C2751 H2743 0.950 . S
C2751 C2749 1.327 . S
C2752 C2740 1.349 . S
C2752 H2746 0.950 . S
C2752 C2753 1.327 . S
C2753 H2747 0.950 . S
C2753 C2752 1.327 . S
C2753 C2757 1.429 . S
C2754 C2737 1.574 . S
C2754 H2748 0.949 . S
C2754 C2758 1.368 . S
C2755 C2736 1.429 . S
C2755 C2749 1.429 . S
C2755 C2756 1.523 . S
C2756 C2737 1.368 . S
C2756 C2750 1.368 . S
C2756 C2755 1.523 . S
C2757 C2741 1.429 . S
C2757 C2753 1.429 . S
C2757 C2758 1.523 . S
C2758 C2742 1.368 . S
C2758 C2754 1.368 . S
C2758 C2757 1.523 . S
H2759 C2734 0.950 . S
H2760 C2736 0.950 . S
H2761 C2737 0.949 . S
H2762 C2739 0.950 . S
H2763 C2741 0.950 . S
C2764 C2765 1.349 . S
C2764 C2766 1.327 . S
C2764 H2789 0.950 . S
C2765 C2764 1.349 . S
C2765 C2781 1.349 . S
C2766 C2764 1.327 . S
C2766 C2785 1.429 . S
C2766 H2790 0.950 . S
C2767 C2784 1.574 . S
C2767 C2786 1.368 . S
C2767 H2791 0.949 . S
H2768 C2772 0.949 . S
C2769 C2770 1.349 . S
C2769 C2771 1.327 . S
C2769 H2792 0.950 . S
C2770 C2769 1.349 . S
C2770 C2782 1.349 . S
C2771 C2769 1.327 . S
C2771 C2787 1.429 . S
C2771 H2793 0.950 . S
C2772 H2768 0.949 . S
C2772 C2780 1.574 . S
C2772 C2788 1.368 . S
H2773 C2781 0.950 . S
H2774 C2779 0.950 . S
H2775 C2780 0.949 . S
H2776 C2782 0.950 . S
H2777 C2783 0.950 . S
H2778 C2784 0.949 . S
C2779 H2774 0.950 . S
C2779 C2781 1.327 . S
C2779 C2785 1.429 . S
C2780 C2772 1.574 . S
C2780 H2775 0.949 . S
C2780 C2786 1.368 . S
C2781 C2765 1.349 . S
C2781 H2773 0.950 . S
C2781 C2779 1.327 . S
C2782 C2770 1.349 . S
C2782 H2776 0.950 . S
C2782 C2783 1.327 . S
C2783 H2777 0.950 . S
C2783 C2782 1.327 . S
C2783 C2787 1.429 . S
C2784 C2767 1.574 . S
C2784 H2778 0.949 . S
C2784 C2788 1.368 . S
C2785 C2766 1.429 . S
C2785 C2779 1.429 . S
C2785 C2786 1.523 . S
C2786 C2767 1.368 . S
C2786 C2780 1.368 . S
C2786 C2785 1.523 . S
C2787 C2771 1.429 . S
C2787 C2783 1.429 . S
C2787 C2788 1.523 . S
C2788 C2772 1.368 . S
C2788 C2784 1.368 . S
C2788 C2787 1.523 . S
H2789 C2764 0.950 . S
H2790 C2766 0.950 . S
H2791 C2767 0.949 . S
H2792 C2769 0.950 . S
H2793 C2771 0.950 . S
C2794 C2795 1.349 . S
C2794 C2796 1.327 . S
C2794 H2819 0.950 . S
C2795 C2794 1.349 . S
C2795 C2811 1.349 . S
C2796 C2794 1.327 . S
C2796 C2815 1.429 . S
C2796 H2820 0.950 . S
C2797 C2814 1.574 1_655 S
C2797 C2816 1.368 . S
C2797 H2821 0.949 . S
H2798 C2802 0.949 . S
C2799 C2800 1.349 . S
C2799 C2801 1.327 . S
C2799 H2822 0.950 . S
C2800 C2799 1.349 . S
C2800 C2812 1.349 . S
C2801 C2799 1.327 . S
C2801 C2817 1.429 . S
C2801 H2823 0.950 . S
C2802 H2798 0.949 . S
C2802 C2810 1.574 . S
C2802 C2818 1.368 1_655 S
H2803 C2811 0.950 . S
H2804 C2809 0.950 . S
H2805 C2810 0.949 . S
H2806 C2812 0.950 . S
H2807 C2813 0.950 . S
H2808 C2814 0.949 . S
C2809 H2804 0.950 . S
C2809 C2811 1.327 . S
C2809 C2815 1.429 . S
C2810 C2802 1.574 . S
C2810 H2805 0.949 . S
C2810 C2816 1.368 . S
C2811 C2795 1.349 . S
C2811 H2803 0.950 . S
C2811 C2809 1.327 . S
C2812 C2800 1.349 . S
C2812 H2806 0.950 . S
C2812 C2813 1.327 . S
C2813 H2807 0.950 . S
C2813 C2812 1.327 . S
C2813 C2817 1.429 . S
C2814 C2797 1.574 1_455 S
C2814 H2808 0.949 . S
C2814 C2818 1.368 . S
C2815 C2796 1.429 . S
C2815 C2809 1.429 . S
C2815 C2816 1.523 . S
C2816 C2797 1.368 . S
C2816 C2810 1.368 . S
C2816 C2815 1.523 . S
C2817 C2801 1.429 . S
C2817 C2813 1.429 . S
C2817 C2818 1.523 . S
C2818 C2802 1.368 1_455 S
C2818 C2814 1.368 . S
C2818 C2817 1.523 . S
H2819 C2794 0.950 . S
H2820 C2796 0.950 . S
H2821 C2797 0.949 . S
H2822 C2799 0.950 . S
H2823 C2801 0.950 . S
C2824 C2825 1.349 . S
C2824 C2826 1.327 . S
C2824 H2849 0.950 . S
C2825 C2824 1.349 . S
C2825 C2841 1.349 . S
C2826 C2824 1.327 . S
C2826 C2845 1.429 . S
C2826 H2850 0.950 . S
C2827 C2844 1.574 . S
C2827 C2846 1.368 . S
C2827 H2851 0.949 . S
H2828 C2832 0.949 . S
C2829 C2830 1.349 . S
C2829 C2831 1.327 . S
C2829 H2852 0.950 . S
C2830 C2829 1.349 . S
C2830 C2842 1.349 . S
C2831 C2829 1.327 . S
C2831 C2847 1.429 . S
C2831 H2853 0.950 . S
C2832 H2828 0.949 . S
C2832 C2840 1.574 . S
C2832 C2848 1.368 . S
H2833 C2841 0.950 . S
H2834 C2839 0.950 . S
H2835 C2840 0.949 . S
H2836 C2842 0.950 . S
H2837 C2843 0.950 . S
H2838 C2844 0.949 . S
C2839 H2834 0.950 . S
C2839 C2841 1.327 . S
C2839 C2845 1.429 . S
C2840 C2832 1.574 . S
C2840 H2835 0.949 . S
C2840 C2846 1.368 . S
C2841 C2825 1.349 . S
C2841 H2833 0.950 . S
C2841 C2839 1.327 . S
C2842 C2830 1.349 . S
C2842 H2836 0.950 . S
C2842 C2843 1.327 . S
C2843 H2837 0.950 . S
C2843 C2842 1.327 . S
C2843 C2847 1.429 . S
C2844 C2827 1.574 . S
C2844 H2838 0.949 . S
C2844 C2848 1.368 . S
C2845 C2826 1.429 . S
C2845 C2839 1.429 . S
C2845 C2846 1.523 . S
C2846 C2827 1.368 . S
C2846 C2840 1.368 . S
C2846 C2845 1.523 . S
C2847 C2831 1.429 . S
C2847 C2843 1.429 . S
C2847 C2848 1.523 . S
C2848 C2832 1.368 . S
C2848 C2844 1.368 . S
C2848 C2847 1.523 . S
H2849 C2824 0.950 . S
H2850 C2826 0.950 . S
H2851 C2827 0.949 . S
H2852 C2829 0.950 . S
H2853 C2831 0.950 . S
C2854 C2855 1.349 . S
C2854 C2856 1.327 . S
C2854 H2879 0.950 . S
C2855 C2854 1.349 . S
C2855 C2871 1.349 . S
C2856 C2854 1.327 . S
C2856 C2875 1.429 . S
C2856 H2880 0.950 . S
C2857 C2874 1.574 . S
C2857 C2876 1.368 . S
C2857 H2881 0.949 . S
H2858 C2862 0.949 . S
C2859 C2860 1.349 . S
C2859 C2861 1.327 . S
C2859 H2882 0.950 . S
C2860 C2859 1.349 . S
C2860 C2872 1.349 . S
C2861 C2859 1.327 . S
C2861 C2877 1.429 . S
C2861 H2883 0.950 . S
C2862 H2858 0.949 . S
C2862 C2870 1.574 1_554 S
C2862 C2878 1.368 . S
H2863 C2871 0.950 . S
H2864 C2869 0.950 . S
H2865 C2870 0.949 . S
H2866 C2872 0.950 . S
H2867 C2873 0.950 . S
H2868 C2874 0.949 . S
C2869 H2864 0.950 . S
C2869 C2871 1.327 . S
C2869 C2875 1.429 . S
C2870 C2862 1.574 1_556 S
C2870 H2865 0.949 . S
C2870 C2876 1.368 . S
C2871 C2855 1.349 . S
C2871 H2863 0.950 . S
C2871 C2869 1.327 . S
C2872 C2860 1.349 . S
C2872 H2866 0.950 . S
C2872 C2873 1.327 . S
C2873 H2867 0.950 . S
C2873 C2872 1.327 . S
C2873 C2877 1.429 . S
C2874 C2857 1.574 . S
C2874 H2868 0.949 . S
C2874 C2878 1.368 1_556 S
C2875 C2856 1.429 . S
C2875 C2869 1.429 . S
C2875 C2876 1.523 . S
C2876 C2857 1.368 . S
C2876 C2870 1.368 . S
C2876 C2875 1.523 . S
C2877 C2861 1.429 . S
C2877 C2873 1.429 . S
C2877 C2878 1.523 . S
C2878 C2862 1.368 . S
C2878 C2874 1.368 1_554 S
C2878 C2877 1.523 . S
H2879 C2854 0.950 . S
H2880 C2856 0.950 . S
H2881 C2857 0.949 . S
H2882 C2859 0.950 . S
H2883 C2861 0.950 . S
C2884 C2885 1.349 . S
C2884 C2886 1.327 . S
C2884 H2909 0.950 . S
C2885 C2884 1.349 . S
C2885 C2901 1.349 . S
C2886 C2884 1.327 . S
C2886 C2905 1.429 . S
C2886 H2910 0.950 . S
C2887 C2904 1.574 . S
C2887 C2906 1.368 . S
C2887 H2911 0.949 . S
H2888 C2892 0.949 . S
C2889 C2890 1.349 . S
C2889 C2891 1.327 . S
C2889 H2912 0.950 . S
C2890 C2889 1.349 . S
C2890 C2902 1.349 . S
C2891 C2889 1.327 . S
C2891 C2907 1.429 . S
C2891 H2913 0.950 . S
C2892 H2888 0.949 . S
C2892 C2900 1.574 . S
C2892 C2908 1.368 . S
H2893 C2901 0.950 . S
H2894 C2899 0.950 . S
H2895 C2900 0.949 . S
H2896 C2902 0.950 . S
H2897 C2903 0.950 . S
H2898 C2904 0.949 . S
C2899 H2894 0.950 . S
C2899 C2901 1.327 . S
C2899 C2905 1.429 . S
C2900 C2892 1.574 . S
C2900 H2895 0.949 . S
C2900 C2906 1.368 . S
C2901 C2885 1.349 . S
C2901 H2893 0.950 . S
C2901 C2899 1.327 . S
C2902 C2890 1.349 . S
C2902 H2896 0.950 . S
C2902 C2903 1.327 . S
C2903 H2897 0.950 . S
C2903 C2902 1.327 . S
C2903 C2907 1.429 . S
C2904 C2887 1.574 . S
C2904 H2898 0.949 . S
C2904 C2908 1.368 . S
C2905 C2886 1.429 . S
C2905 C2899 1.429 . S
C2905 C2906 1.523 . S
C2906 C2887 1.368 . S
C2906 C2900 1.368 . S
C2906 C2905 1.523 . S
C2907 C2891 1.429 . S
C2907 C2903 1.429 . S
C2907 C2908 1.523 . S
C2908 C2892 1.368 . S
C2908 C2904 1.368 . S
C2908 C2907 1.523 . S
H2909 C2884 0.950 . S
H2910 C2886 0.950 . S
H2911 C2887 0.949 . S
H2912 C2889 0.950 . S
H2913 C2891 0.950 . S
C2914 C2915 1.349 . S
C2914 C2916 1.327 . S
C2914 H2939 0.950 . S
C2915 C2914 1.349 . S
C2915 C2931 1.349 . S
C2916 C2914 1.327 . S
C2916 C2935 1.429 . S
C2916 H2940 0.950 . S
C2917 C2934 1.574 . S
C2917 C2936 1.368 . S
C2917 H2941 0.949 . S
H2918 C2922 0.949 . S
C2919 C2920 1.349 . S
C2919 C2921 1.327 . S
C2919 H2942 0.950 . S
C2920 C2919 1.349 . S
C2920 C2932 1.349 . S
C2921 C2919 1.327 . S
C2921 C2937 1.429 . S
C2921 H2943 0.950 . S
C2922 H2918 0.949 . S
C2922 C2930 1.574 . S
C2922 C2938 1.368 . S
H2923 C2931 0.950 . S
H2924 C2929 0.950 . S
H2925 C2930 0.949 . S
H2926 C2932 0.950 . S
H2927 C2933 0.950 . S
H2928 C2934 0.949 . S
C2929 H2924 0.950 . S
C2929 C2931 1.327 . S
C2929 C2935 1.429 . S
C2930 C2922 1.574 . S
C2930 H2925 0.949 . S
C2930 C2936 1.368 . S
C2931 C2915 1.349 . S
C2931 H2923 0.950 . S
C2931 C2929 1.327 . S
C2932 C2920 1.349 . S
C2932 H2926 0.950 . S
C2932 C2933 1.327 . S
C2933 H2927 0.950 . S
C2933 C2932 1.327 . S
C2933 C2937 1.429 . S
C2934 C2917 1.574 . S
C2934 H2928 0.949 . S
C2934 C2938 1.368 . S
C2935 C2916 1.429 . S
C2935 C2929 1.429 . S
C2935 C2936 1.523 . S
C2936 C2917 1.368 . S
C2936 C2930 1.368 . S
C2936 C2935 1.523 . S
C2937 C2921 1.429 . S
C2937 C2933 1.429 . S
C2937 C2938 1.523 . S
C2938 C2922 1.368 . S
C2938 C2934 1.368 . S
C2938 C2937 1.523 . S
H2939 C2914 0.950 . S
H2940 C2916 0.950 . S
H2941 C2917 0.949 . S
H2942 C2919 0.950 . S
H2943 C2921 0.950 . S
C2944 C2945 1.349 . S
C2944 C2946 1.327 . S
C2944 H2969 0.950 . S
C2945 C2944 1.349 . S
C2945 C2961 1.349 . S
C2946 C2944 1.327 . S
C2946 C2965 1.429 . S
C2946 H2970 0.950 . S
C2947 C2964 1.574 . S
C2947 C2966 1.368 . S
C2947 H2971 0.949 . S
H2948 C2952 0.949 . S
C2949 C2950 1.349 . S
C2949 C2951 1.327 . S
C2949 H2972 0.950 . S
C2950 C2949 1.349 . S
C2950 C2962 1.349 . S
C2951 C2949 1.327 . S
C2951 C2967 1.429 . S
C2951 H2973 0.950 . S
C2952 H2948 0.949 . S
C2952 C2960 1.574 . S
C2952 C2968 1.368 . S
H2953 C2961 0.950 . S
H2954 C2959 0.950 . S
H2955 C2960 0.949 . S
H2956 C2962 0.950 . S
H2957 C2963 0.950 . S
H2958 C2964 0.949 . S
C2959 H2954 0.950 . S
C2959 C2961 1.327 . S
C2959 C2965 1.429 . S
C2960 C2952 1.574 . S
C2960 H2955 0.949 . S
C2960 C2966 1.368 . S
C2961 C2945 1.349 . S
C2961 H2953 0.950 . S
C2961 C2959 1.327 . S
C2962 C2950 1.349 . S
C2962 H2956 0.950 . S
C2962 C2963 1.327 . S
C2963 H2957 0.950 . S
C2963 C2962 1.327 . S
C2963 C2967 1.429 . S
C2964 C2947 1.574 . S
C2964 H2958 0.949 . S
C2964 C2968 1.368 . S
C2965 C2946 1.429 . S
C2965 C2959 1.429 . S
C2965 C2966 1.523 . S
C2966 C2947 1.368 . S
C2966 C2960 1.368 . S
C2966 C2965 1.523 . S
C2967 C2951 1.429 . S
C2967 C2963 1.429 . S
C2967 C2968 1.523 . S
C2968 C2952 1.368 . S
C2968 C2964 1.368 . S
C2968 C2967 1.523 . S
H2969 C2944 0.950 . S
H2970 C2946 0.950 . S
H2971 C2947 0.949 . S
H2972 C2949 0.950 . S
H2973 C2951 0.950 . S
C2974 C2975 1.349 . S
C2974 C2976 1.327 . S
C2974 H2999 0.950 . S
C2975 C2974 1.349 . S
C2975 C2991 1.349 . S
C2976 C2974 1.327 . S
C2976 C2995 1.429 . S
C2976 H3000 0.950 . S
C2977 C2994 1.574 1_554 S
C2977 C2996 1.368 . S
C2977 H3001 0.949 . S
H2978 C2982 0.949 . S
C2979 C2980 1.349 . S
C2979 C2981 1.327 . S
C2979 H3002 0.950 . S
C2980 C2979 1.349 . S
C2980 C2992 1.349 . S
C2981 C2979 1.327 . S
C2981 C2997 1.429 . S
C2981 H3003 0.950 . S
C2982 H2978 0.949 . S
C2982 C2990 1.574 . S
C2982 C2998 1.368 1_554 S
H2983 C2991 0.950 . S
H2984 C2989 0.950 . S
H2985 C2990 0.949 . S
H2986 C2992 0.950 . S
H2987 C2993 0.950 . S
H2988 C2994 0.949 . S
C2989 H2984 0.950 . S
C2989 C2991 1.327 . S
C2989 C2995 1.429 . S
C2990 C2982 1.574 . S
C2990 H2985 0.949 . S
C2990 C2996 1.368 . S
C2991 C2975 1.349 . S
C2991 H2983 0.950 . S
C2991 C2989 1.327 . S
C2992 C2980 1.349 . S
C2992 H2986 0.950 . S
C2992 C2993 1.327 . S
C2993 H2987 0.950 . S
C2993 C2992 1.327 . S
C2993 C2997 1.429 . S
C2994 C2977 1.574 1_556 S
C2994 H2988 0.949 . S
C2994 C2998 1.368 . S
C2995 C2976 1.429 . S
C2995 C2989 1.429 . S
C2995 C2996 1.523 . S
C2996 C2977 1.368 . S
C2996 C2990 1.368 . S
C2996 C2995 1.523 . S
C2997 C2981 1.429 . S
C2997 C2993 1.429 . S
C2997 C2998 1.523 . S
C2998 C2982 1.368 1_556 S
C2998 C2994 1.368 . S
C2998 C2997 1.523 . S
H2999 C2974 0.950 . S
H3000 C2976 0.950 . S
H3001 C2977 0.949 . S
H3002 C2979 0.950 . S
H3003 C2981 0.950 . S
C3004 C3005 1.349 . S
C3004 C3006 1.327 . S
C3004 H3029 0.950 . S
C3005 C3004 1.349 . S
C3005 C3021 1.349 . S
C3006 C3004 1.327 . S
C3006 C3025 1.429 . S
C3006 H3030 0.950 . S
C3007 C3024 1.574 . S
C3007 C3026 1.368 . S
C3007 H3031 0.949 . S
H3008 C3012 0.949 . S
C3009 C3010 1.349 . S
C3009 C3011 1.327 . S
C3009 H3032 0.950 . S
C3010 C3009 1.349 . S
C3010 C3022 1.349 . S
C3011 C3009 1.327 . S
C3011 C3027 1.429 . S
C3011 H3033 0.950 . S
C3012 H3008 0.949 . S
C3012 C3020 1.574 . S
C3012 C3028 1.368 . S
H3013 C3021 0.950 . S
H3014 C3019 0.950 . S
H3015 C3020 0.949 . S
H3016 C3022 0.950 . S
H3017 C3023 0.950 . S
H3018 C3024 0.949 . S
C3019 H3014 0.950 . S
C3019 C3021 1.327 . S
C3019 C3025 1.429 . S
C3020 C3012 1.574 . S
C3020 H3015 0.949 . S
C3020 C3026 1.368 . S
C3021 C3005 1.349 . S
C3021 H3013 0.950 . S
C3021 C3019 1.327 . S
C3022 C3010 1.349 . S
C3022 H3016 0.950 . S
C3022 C3023 1.327 . S
C3023 H3017 0.950 . S
C3023 C3022 1.327 . S
C3023 C3027 1.429 . S
C3024 C3007 1.574 . S
C3024 H3018 0.949 . S
C3024 C3028 1.368 . S
C3025 C3006 1.429 . S
C3025 C3019 1.429 . S
C3025 C3026 1.523 . S
C3026 C3007 1.368 . S
C3026 C3020 1.368 . S
C3026 C3025 1.523 . S
C3027 C3011 1.429 . S
C3027 C3023 1.429 . S
C3027 C3028 1.523 . S
C3028 C3012 1.368 . S
C3028 C3024 1.368 . S
C3028 C3027 1.523 . S
H3029 C3004 0.950 . S
H3030 C3006 0.950 . S
H3031 C3007 0.949 . S
H3032 C3009 0.950 . S
H3033 C3011 0.950 . S
C3034 C3035 1.349 . S
C3034 C3036 1.327 . S
C3034 H3059 0.950 . S
C3035 C3034 1.349 . S
C3035 C3051 1.349 . S
C3036 C3034 1.327 . S
C3036 C3055 1.429 . S
C3036 H3060 0.950 . S
C3037 C3054 1.574 . S
C3037 C3056 1.368 . S
C3037 H3061 0.949 . S
H3038 C3042 0.949 . S
C3039 C3040 1.349 . S
C3039 C3041 1.327 . S
C3039 H3062 0.950 . S
C3040 C3039 1.349 . S
C3040 C3052 1.349 . S
C3041 C3039 1.327 . S
C3041 C3057 1.429 . S
C3041 H3063 0.950 . S
C3042 H3038 0.949 . S
C3042 C3050 1.574 . S
C3042 C3058 1.368 . S
H3043 C3051 0.950 . S
H3044 C3049 0.950 . S
H3045 C3050 0.949 . S
H3046 C3052 0.950 . S
H3047 C3053 0.950 . S
H3048 C3054 0.949 . S
C3049 H3044 0.950 . S
C3049 C3051 1.327 . S
C3049 C3055 1.429 . S
C3050 C3042 1.574 . S
C3050 H3045 0.949 . S
C3050 C3056 1.368 . S
C3051 C3035 1.349 . S
C3051 H3043 0.950 . S
C3051 C3049 1.327 . S
C3052 C3040 1.349 . S
C3052 H3046 0.950 . S
C3052 C3053 1.327 . S
C3053 H3047 0.950 . S
C3053 C3052 1.327 . S
C3053 C3057 1.429 . S
C3054 C3037 1.574 . S
C3054 H3048 0.949 . S
C3054 C3058 1.368 . S
C3055 C3036 1.429 . S
C3055 C3049 1.429 . S
C3055 C3056 1.523 . S
C3056 C3037 1.368 . S
C3056 C3050 1.368 . S
C3056 C3055 1.523 . S
C3057 C3041 1.429 . S
C3057 C3053 1.429 . S
C3057 C3058 1.523 . S
C3058 C3042 1.368 . S
C3058 C3054 1.368 . S
C3058 C3057 1.523 . S
H3059 C3034 0.950 . S
H3060 C3036 0.950 . S
H3061 C3037 0.949 . S
H3062 C3039 0.950 . S
H3063 C3041 0.950 . S
C3064 C3065 1.349 . S
C3064 C3066 1.327 . S
C3064 H3089 0.950 . S
C3065 C3064 1.349 . S
C3065 C3081 1.349 . S
C3066 C3064 1.327 . S
C3066 C3085 1.429 . S
C3066 H3090 0.950 . S
C3067 C3084 1.574 . S
C3067 C3086 1.368 . S
C3067 H3091 0.949 . S
H3068 C3072 0.949 . S
C3069 C3070 1.349 . S
C3069 C3071 1.327 . S
C3069 H3092 0.950 . S
C3070 C3069 1.349 . S
C3070 C3082 1.349 . S
C3071 C3069 1.327 . S
C3071 C3087 1.429 . S
C3071 H3093 0.950 . S
C3072 H3068 0.949 . S
C3072 C3080 1.574 . S
C3072 C3088 1.368 . S
H3073 C3081 0.950 . S
H3074 C3079 0.950 . S
H3075 C3080 0.949 . S
H3076 C3082 0.950 . S
H3077 C3083 0.950 . S
H3078 C3084 0.949 . S
C3079 H3074 0.950 . S
C3079 C3081 1.327 . S
C3079 C3085 1.429 . S
C3080 C3072 1.574 . S
C3080 H3075 0.949 . S
C3080 C3086 1.368 . S
C3081 C3065 1.349 . S
C3081 H3073 0.950 . S
C3081 C3079 1.327 . S
C3082 C3070 1.349 . S
C3082 H3076 0.950 . S
C3082 C3083 1.327 . S
C3083 H3077 0.950 . S
C3083 C3082 1.327 . S
C3083 C3087 1.429 . S
C3084 C3067 1.574 . S
C3084 H3078 0.949 . S
C3084 C3088 1.368 . S
C3085 C3066 1.429 . S
C3085 C3079 1.429 . S
C3085 C3086 1.523 . S
C3086 C3067 1.368 . S
C3086 C3080 1.368 . S
C3086 C3085 1.523 . S
C3087 C3071 1.429 . S
C3087 C3083 1.429 . S
C3087 C3088 1.523 . S
C3088 C3072 1.368 . S
C3088 C3084 1.368 . S
C3088 C3087 1.523 . S
H3089 C3064 0.950 . S
H3090 C3066 0.950 . S
H3091 C3067 0.949 . S
H3092 C3069 0.950 . S
H3093 C3071 0.950 . S
C3094 C3095 1.349 . S
C3094 C3096 1.327 . S
C3094 H3119 0.950 . S
C3095 C3094 1.349 . S
C3095 C3111 1.349 . S
C3096 C3094 1.327 . S
C3096 C3115 1.429 . S
C3096 H3120 0.950 . S
C3097 C3114 1.574 . S
C3097 C3116 1.368 . S
C3097 H3121 0.949 . S
H3098 C3102 0.949 . S
C3099 C3100 1.349 . S
C3099 C3101 1.327 . S
C3099 H3122 0.950 . S
C3100 C3099 1.349 . S
C3100 C3112 1.349 . S
C3101 C3099 1.327 . S
C3101 C3117 1.429 . S
C3101 H3123 0.950 . S
C3102 H3098 0.949 . S
C3102 C3110 1.574 . S
C3102 C3118 1.368 . S
H3103 C3111 0.950 . S
H3104 C3109 0.950 . S
H3105 C3110 0.949 . S
H3106 C3112 0.950 . S
H3107 C3113 0.950 . S
H3108 C3114 0.949 . S
C3109 H3104 0.950 . S
C3109 C3111 1.327 . S
C3109 C3115 1.429 . S
C3110 C3102 1.574 . S
C3110 H3105 0.949 . S
C3110 C3116 1.368 . S
C3111 C3095 1.349 . S
C3111 H3103 0.950 . S
C3111 C3109 1.327 . S
C3112 C3100 1.349 . S
C3112 H3106 0.950 . S
C3112 C3113 1.327 . S
C3113 H3107 0.950 . S
C3113 C3112 1.327 . S
C3113 C3117 1.429 . S
C3114 C3097 1.574 . S
C3114 H3108 0.949 . S
C3114 C3118 1.368 . S
C3115 C3096 1.429 . S
C3115 C3109 1.429 . S
C3115 C3116 1.523 . S
C3116 C3097 1.368 . S
C3116 C3110 1.368 . S
C3116 C3115 1.523 . S
C3117 C3101 1.429 . S
C3117 C3113 1.429 . S
C3117 C3118 1.523 . S
C3118 C3102 1.368 . S
C3118 C3114 1.368 . S
C3118 C3117 1.523 . S
H3119 C3094 0.950 . S
H3120 C3096 0.950 . S
H3121 C3097 0.949 . S
H3122 C3099 0.950 . S
H3123 C3101 0.950 . S
C3124 C3125 1.349 . S
C3124 C3126 1.327 . S
C3124 H3149 0.950 . S
C3125 C3124 1.349 . S
C3125 C3141 1.349 . S
C3126 C3124 1.327 . S
C3126 C3145 1.429 . S
C3126 H3150 0.950 . S
C3127 C3144 1.574 . S
C3127 C3146 1.368 . S
C3127 H3151 0.949 . S
H3128 C3132 0.949 . S
C3129 C3130 1.349 . S
C3129 C3131 1.327 . S
C3129 H3152 0.950 . S
C3130 C3129 1.349 . S
C3130 C3142 1.349 . S
C3131 C3129 1.327 . S
C3131 C3147 1.429 . S
C3131 H3153 0.950 . S
C3132 H3128 0.949 . S
C3132 C3140 1.574 . S
C3132 C3148 1.368 . S
H3133 C3141 0.950 . S
H3134 C3139 0.950 . S
H3135 C3140 0.949 . S
H3136 C3142 0.950 . S
H3137 C3143 0.950 . S
H3138 C3144 0.949 . S
C3139 H3134 0.950 . S
C3139 C3141 1.327 . S
C3139 C3145 1.429 . S
C3140 C3132 1.574 . S
C3140 H3135 0.949 . S
C3140 C3146 1.368 . S
C3141 C3125 1.349 . S
C3141 H3133 0.950 . S
C3141 C3139 1.327 . S
C3142 C3130 1.349 . S
C3142 H3136 0.950 . S
C3142 C3143 1.327 . S
C3143 H3137 0.950 . S
C3143 C3142 1.327 . S
C3143 C3147 1.429 . S
C3144 C3127 1.574 . S
C3144 H3138 0.949 . S
C3144 C3148 1.368 . S
C3145 C3126 1.429 . S
C3145 C3139 1.429 . S
C3145 C3146 1.523 . S
C3146 C3127 1.368 . S
C3146 C3140 1.368 . S
C3146 C3145 1.523 . S
C3147 C3131 1.429 . S
C3147 C3143 1.429 . S
C3147 C3148 1.523 . S
C3148 C3132 1.368 . S
C3148 C3144 1.368 . S
C3148 C3147 1.523 . S
H3149 C3124 0.950 . S
H3150 C3126 0.950 . S
H3151 C3127 0.949 . S
H3152 C3129 0.950 . S
H3153 C3131 0.950 . S
C3154 C3155 1.349 . S
C3154 C3156 1.327 . S
C3154 H3179 0.950 . S
C3155 C3154 1.349 . S
C3155 C3171 1.349 . S
C3156 C3154 1.327 . S
C3156 C3175 1.429 . S
C3156 H3180 0.950 . S
C3157 C3174 1.574 . S
C3157 C3176 1.368 . S
C3157 H3181 0.949 . S
H3158 C3162 0.949 . S
C3159 C3160 1.349 . S
C3159 C3161 1.327 . S
C3159 H3182 0.950 . S
C3160 C3159 1.349 . S
C3160 C3172 1.349 . S
C3161 C3159 1.327 . S
C3161 C3177 1.429 . S
C3161 H3183 0.950 . S
C3162 H3158 0.949 . S
C3162 C3170 1.574 . S
C3162 C3178 1.368 . S
H3163 C3171 0.950 . S
H3164 C3169 0.950 . S
H3165 C3170 0.949 . S
H3166 C3172 0.950 . S
H3167 C3173 0.950 . S
H3168 C3174 0.949 . S
C3169 H3164 0.950 . S
C3169 C3171 1.327 . S
C3169 C3175 1.429 . S
C3170 C3162 1.574 . S
C3170 H3165 0.949 . S
C3170 C3176 1.368 . S
C3171 C3155 1.349 . S
C3171 H3163 0.950 . S
C3171 C3169 1.327 . S
C3172 C3160 1.349 . S
C3172 H3166 0.950 . S
C3172 C3173 1.327 . S
C3173 H3167 0.950 . S
C3173 C3172 1.327 . S
C3173 C3177 1.429 . S
C3174 C3157 1.574 . S
C3174 H3168 0.949 . S
C3174 C3178 1.368 . S
C3175 C3156 1.429 . S
C3175 C3169 1.429 . S
C3175 C3176 1.523 . S
C3176 C3157 1.368 . S
C3176 C3170 1.368 . S
C3176 C3175 1.523 . S
C3177 C3161 1.429 . S
C3177 C3173 1.429 . S
C3177 C3178 1.523 . S
C3178 C3162 1.368 . S
C3178 C3174 1.368 . S
C3178 C3177 1.523 . S
H3179 C3154 0.950 . S
H3180 C3156 0.950 . S
H3181 C3157 0.949 . S
H3182 C3159 0.950 . S
H3183 C3161 0.950 . S
C3184 C3185 1.349 . S
C3184 C3186 1.327 . S
C3184 H3209 0.950 . S
C3185 C3184 1.349 . S
C3185 C3201 1.349 . S
C3186 C3184 1.327 . S
C3186 C3205 1.429 . S
C3186 H3210 0.950 . S
C3187 C3204 1.574 . S
C3187 C3206 1.368 . S
C3187 H3211 0.949 . S
H3188 C3192 0.949 . S
C3189 C3190 1.349 . S
C3189 C3191 1.327 . S
C3189 H3212 0.950 . S
C3190 C3189 1.349 . S
C3190 C3202 1.349 . S
C3191 C3189 1.327 . S
C3191 C3207 1.429 . S
C3191 H3213 0.950 . S
C3192 H3188 0.949 . S
C3192 C3200 1.574 . S
C3192 C3208 1.368 . S
H3193 C3201 0.950 . S
H3194 C3199 0.950 . S
H3195 C3200 0.949 . S
H3196 C3202 0.950 . S
H3197 C3203 0.950 . S
H3198 C3204 0.949 . S
C3199 H3194 0.950 . S
C3199 C3201 1.327 . S
C3199 C3205 1.429 . S
C3200 C3192 1.574 . S
C3200 H3195 0.949 . S
C3200 C3206 1.368 . S
C3201 C3185 1.349 . S
C3201 H3193 0.950 . S
C3201 C3199 1.327 . S
C3202 C3190 1.349 . S
C3202 H3196 0.950 . S
C3202 C3203 1.327 . S
C3203 H3197 0.950 . S
C3203 C3202 1.327 . S
C3203 C3207 1.429 . S
C3204 C3187 1.574 . S
C3204 H3198 0.949 . S
C3204 C3208 1.368 . S
C3205 C3186 1.429 . S
C3205 C3199 1.429 . S
C3205 C3206 1.523 . S
C3206 C3187 1.368 . S
C3206 C3200 1.368 . S
C3206 C3205 1.523 . S
C3207 C3191 1.429 . S
C3207 C3203 1.429 . S
C3207 C3208 1.523 . S
C3208 C3192 1.368 . S
C3208 C3204 1.368 . S
C3208 C3207 1.523 . S
H3209 C3184 0.950 . S
H3210 C3186 0.950 . S
H3211 C3187 0.949 . S
H3212 C3189 0.950 . S
H3213 C3191 0.950 . S
C3214 C3215 1.349 . S
C3214 C3216 1.327 . S
C3214 H3239 0.950 . S
C3215 C3214 1.349 . S
C3215 C3231 1.349 . S
C3216 C3214 1.327 . S
C3216 C3235 1.429 . S
C3216 H3240 0.950 . S
C3217 C3234 1.574 . S
C3217 C3236 1.368 . S
C3217 H3241 0.949 . S
H3218 C3222 0.949 . S
C3219 C3220 1.349 . S
C3219 C3221 1.327 . S
C3219 H3242 0.950 . S
C3220 C3219 1.349 . S
C3220 C3232 1.349 . S
C3221 C3219 1.327 . S
C3221 C3237 1.429 . S
C3221 H3243 0.950 . S
C3222 H3218 0.949 . S
C3222 C3230 1.574 . S
C3222 C3238 1.368 . S
H3223 C3231 0.950 . S
H3224 C3229 0.950 . S
H3225 C3230 0.949 . S
H3226 C3232 0.950 . S
H3227 C3233 0.950 . S
H3228 C3234 0.949 . S
C3229 H3224 0.950 . S
C3229 C3231 1.327 . S
C3229 C3235 1.429 . S
C3230 C3222 1.574 . S
C3230 H3225 0.949 . S
C3230 C3236 1.368 . S
C3231 C3215 1.349 . S
C3231 H3223 0.950 . S
C3231 C3229 1.327 . S
C3232 C3220 1.349 . S
C3232 H3226 0.950 . S
C3232 C3233 1.327 . S
C3233 H3227 0.950 . S
C3233 C3232 1.327 . S
C3233 C3237 1.429 . S
C3234 C3217 1.574 . S
C3234 H3228 0.949 . S
C3234 C3238 1.368 . S
C3235 C3216 1.429 . S
C3235 C3229 1.429 . S
C3235 C3236 1.523 . S
C3236 C3217 1.368 . S
C3236 C3230 1.368 . S
C3236 C3235 1.523 . S
C3237 C3221 1.429 . S
C3237 C3233 1.429 . S
C3237 C3238 1.523 . S
C3238 C3222 1.368 . S
C3238 C3234 1.368 . S
C3238 C3237 1.523 . S
H3239 C3214 0.950 . S
H3240 C3216 0.950 . S
H3241 C3217 0.949 . S
H3242 C3219 0.950 . S
H3243 C3221 0.950 . S
C3244 C3245 1.349 . S
C3244 C3246 1.327 . S
C3244 H3269 0.950 . S
C3245 C3244 1.349 . S
C3245 C3261 1.349 . S
C3246 C3244 1.327 . S
C3246 C3265 1.429 . S
C3246 H3270 0.950 . S
C3247 C3264 1.574 . S
C3247 C3266 1.368 . S
C3247 H3271 0.949 . S
H3248 C3252 0.949 . S
C3249 C3250 1.349 . S
C3249 C3251 1.327 . S
C3249 H3272 0.950 . S
C3250 C3249 1.349 . S
C3250 C3262 1.349 . S
C3251 C3249 1.327 . S
C3251 C3267 1.429 . S
C3251 H3273 0.950 . S
C3252 H3248 0.949 . S
C3252 C3260 1.574 . S
C3252 C3268 1.368 . S
H3253 C3261 0.950 . S
H3254 C3259 0.950 . S
H3255 C3260 0.949 . S
H3256 C3262 0.950 . S
H3257 C3263 0.950 . S
H3258 C3264 0.949 . S
C3259 H3254 0.950 . S
C3259 C3261 1.327 . S
C3259 C3265 1.429 . S
C3260 C3252 1.574 . S
C3260 H3255 0.949 . S
C3260 C3266 1.368 . S
C3261 C3245 1.349 . S
C3261 H3253 0.950 . S
C3261 C3259 1.327 . S
C3262 C3250 1.349 . S
C3262 H3256 0.950 . S
C3262 C3263 1.327 . S
C3263 H3257 0.950 . S
C3263 C3262 1.327 . S
C3263 C3267 1.429 . S
C3264 C3247 1.574 . S
C3264 H3258 0.949 . S
C3264 C3268 1.368 . S
C3265 C3246 1.429 . S
C3265 C3259 1.429 . S
C3265 C3266 1.523 . S
C3266 C3247 1.368 . S
C3266 C3260 1.368 . S
C3266 C3265 1.523 . S
C3267 C3251 1.429 . S
C3267 C3263 1.429 . S
C3267 C3268 1.523 . S
C3268 C3252 1.368 . S
C3268 C3264 1.368 . S
C3268 C3267 1.523 . S
H3269 C3244 0.950 . S
H3270 C3246 0.950 . S
H3271 C3247 0.949 . S
H3272 C3249 0.950 . S
H3273 C3251 0.950 . S
C3274 C3275 1.349 . S
C3274 C3276 1.327 . S
C3274 H3299 0.950 . S
C3275 C3274 1.349 . S
C3275 C3291 1.349 . S
C3276 C3274 1.327 . S
C3276 C3295 1.429 . S
C3276 H3300 0.950 . S
C3277 C3294 1.574 . S
C3277 C3296 1.368 . S
C3277 H3301 0.949 . S
H3278 C3282 0.949 . S
C3279 C3280 1.349 . S
C3279 C3281 1.327 . S
C3279 H3302 0.950 . S
C3280 C3279 1.349 . S
C3280 C3292 1.349 . S
C3281 C3279 1.327 . S
C3281 C3297 1.429 . S
C3281 H3303 0.950 . S
C3282 H3278 0.949 . S
C3282 C3290 1.574 . S
C3282 C3298 1.368 . S
H3283 C3291 0.950 . S
H3284 C3289 0.950 . S
H3285 C3290 0.949 . S
H3286 C3292 0.950 . S
H3287 C3293 0.950 . S
H3288 C3294 0.949 . S
C3289 H3284 0.950 . S
C3289 C3291 1.327 . S
C3289 C3295 1.429 . S
C3290 C3282 1.574 . S
C3290 H3285 0.949 . S
C3290 C3296 1.368 . S
C3291 C3275 1.349 . S
C3291 H3283 0.950 . S
C3291 C3289 1.327 . S
C3292 C3280 1.349 . S
C3292 H3286 0.950 . S
C3292 C3293 1.327 . S
C3293 H3287 0.950 . S
C3293 C3292 1.327 . S
C3293 C3297 1.429 . S
C3294 C3277 1.574 . S
C3294 H3288 0.949 . S
C3294 C3298 1.368 . S
C3295 C3276 1.429 . S
C3295 C3289 1.429 . S
C3295 C3296 1.523 . S
C3296 C3277 1.368 . S
C3296 C3290 1.368 . S
C3296 C3295 1.523 . S
C3297 C3281 1.429 . S
C3297 C3293 1.429 . S
C3297 C3298 1.523 . S
C3298 C3282 1.368 . S
C3298 C3294 1.368 . S
C3298 C3297 1.523 . S
H3299 C3274 0.950 . S
H3300 C3276 0.950 . S
H3301 C3277 0.949 . S
H3302 C3279 0.950 . S
H3303 C3281 0.950 . S
C3304 C3305 1.349 . S
C3304 C3306 1.327 . S
C3304 H3329 0.950 . S
C3305 C3304 1.349 . S
C3305 C3321 1.349 . S
C3306 C3304 1.327 . S
C3306 C3325 1.429 . S
C3306 H3330 0.950 . S
C3307 C3324 1.574 . S
C3307 C3326 1.368 . S
C3307 H3331 0.949 . S
H3308 C3312 0.949 . S
C3309 C3310 1.349 . S
C3309 C3311 1.327 . S
C3309 H3332 0.950 . S
C3310 C3309 1.349 . S
C3310 C3322 1.349 . S
C3311 C3309 1.327 . S
C3311 C3327 1.429 . S
C3311 H3333 0.950 . S
C3312 H3308 0.949 . S
C3312 C3320 1.574 . S
C3312 C3328 1.368 . S
H3313 C3321 0.950 . S
H3314 C3319 0.950 . S
H3315 C3320 0.949 . S
H3316 C3322 0.950 . S
H3317 C3323 0.950 . S
H3318 C3324 0.949 . S
C3319 H3314 0.950 . S
C3319 C3321 1.327 . S
C3319 C3325 1.429 . S
C3320 C3312 1.574 . S
C3320 H3315 0.949 . S
C3320 C3326 1.368 . S
C3321 C3305 1.349 . S
C3321 H3313 0.950 . S
C3321 C3319 1.327 . S
C3322 C3310 1.349 . S
C3322 H3316 0.950 . S
C3322 C3323 1.327 . S
C3323 H3317 0.950 . S
C3323 C3322 1.327 . S
C3323 C3327 1.429 . S
C3324 C3307 1.574 . S
C3324 H3318 0.949 . S
C3324 C3328 1.368 . S
C3325 C3306 1.429 . S
C3325 C3319 1.429 . S
C3325 C3326 1.523 . S
C3326 C3307 1.368 . S
C3326 C3320 1.368 . S
C3326 C3325 1.523 . S
C3327 C3311 1.429 . S
C3327 C3323 1.429 . S
C3327 C3328 1.523 . S
C3328 C3312 1.368 . S
C3328 C3324 1.368 . S
C3328 C3327 1.523 . S
H3329 C3304 0.950 . S
H3330 C3306 0.950 . S
H3331 C3307 0.949 . S
H3332 C3309 0.950 . S
H3333 C3311 0.950 . S
C3334 C3335 1.349 . S
C3334 C3336 1.327 . S
C3334 H3359 0.950 . S
C3335 C3334 1.349 . S
C3335 C3351 1.349 . S
C3336 C3334 1.327 . S
C3336 C3355 1.429 . S
C3336 H3360 0.950 . S
C3337 C3354 1.574 . S
C3337 C3356 1.368 . S
C3337 H3361 0.949 . S
H3338 C3342 0.949 . S
C3339 C3340 1.349 . S
C3339 C3341 1.327 . S
C3339 H3362 0.950 . S
C3340 C3339 1.349 . S
C3340 C3352 1.349 . S
C3341 C3339 1.327 . S
C3341 C3357 1.429 . S
C3341 H3363 0.950 . S
C3342 H3338 0.949 . S
C3342 C3350 1.574 . S
C3342 C3358 1.368 . S
H3343 C3351 0.950 . S
H3344 C3349 0.950 . S
H3345 C3350 0.949 . S
H3346 C3352 0.950 . S
H3347 C3353 0.950 . S
H3348 C3354 0.949 . S
C3349 H3344 0.950 . S
C3349 C3351 1.327 . S
C3349 C3355 1.429 . S
C3350 C3342 1.574 . S
C3350 H3345 0.949 . S
C3350 C3356 1.368 . S
C3351 C3335 1.349 . S
C3351 H3343 0.950 . S
C3351 C3349 1.327 . S
C3352 C3340 1.349 . S
C3352 H3346 0.950 . S
C3352 C3353 1.327 . S
C3353 H3347 0.950 . S
C3353 C3352 1.327 . S
C3353 C3357 1.429 . S
C3354 C3337 1.574 . S
C3354 H3348 0.949 . S
C3354 C3358 1.368 . S
C3355 C3336 1.429 . S
C3355 C3349 1.429 . S
C3355 C3356 1.523 . S
C3356 C3337 1.368 . S
C3356 C3350 1.368 . S
C3356 C3355 1.523 . S
C3357 C3341 1.429 . S
C3357 C3353 1.429 . S
C3357 C3358 1.523 . S
C3358 C3342 1.368 . S
C3358 C3354 1.368 . S
C3358 C3357 1.523 . S
H3359 C3334 0.950 . S
H3360 C3336 0.950 . S
H3361 C3337 0.949 . S
H3362 C3339 0.950 . S
H3363 C3341 0.950 . S
C3364 C3365 1.349 . S
C3364 C3366 1.327 . S
C3364 H3389 0.950 1_545 S
C3365 C3364 1.349 . S
C3365 C3381 1.349 . S
C3366 C3364 1.327 . S
C3366 C3385 1.429 . S
C3366 H3390 0.950 . S
C3367 C3384 1.574 . S
C3367 C3386 1.368 . S
C3367 H3391 0.949 . S
H3368 C3372 0.949 . S
C3369 C3370 1.349 . S
C3369 C3371 1.327 . S
C3369 H3392 0.950 . S
C3370 C3369 1.349 . S
C3370 C3382 1.349 . S
C3371 C3369 1.327 . S
C3371 C3387 1.429 . S
C3371 H3393 0.950 . S
C3372 H3368 0.949 . S
C3372 C3380 1.574 . S
C3372 C3388 1.368 . S
H3373 C3381 0.950 . S
H3374 C3379 0.950 . S
H3375 C3380 0.949 . S
H3376 C3382 0.950 . S
H3377 C3383 0.950 . S
H3378 C3384 0.949 . S
C3379 H3374 0.950 . S
C3379 C3381 1.327 . S
C3379 C3385 1.429 . S
C3380 C3372 1.574 . S
C3380 H3375 0.949 . S
C3380 C3386 1.368 . S
C3381 C3365 1.349 . S
C3381 H3373 0.950 . S
C3381 C3379 1.327 . S
C3382 C3370 1.349 . S
C3382 H3376 0.950 . S
C3382 C3383 1.327 . S
C3383 H3377 0.950 . S
C3383 C3382 1.327 . S
C3383 C3387 1.429 . S
C3384 C3367 1.574 . S
C3384 H3378 0.949 . S
C3384 C3388 1.368 . S
C3385 C3366 1.429 . S
C3385 C3379 1.429 . S
C3385 C3386 1.523 . S
C3386 C3367 1.368 . S
C3386 C3380 1.368 . S
C3386 C3385 1.523 . S
C3387 C3371 1.429 . S
C3387 C3383 1.429 . S
C3387 C3388 1.523 . S
C3388 C3372 1.368 . S
C3388 C3384 1.368 . S
C3388 C3387 1.523 . S
H3389 C3364 0.950 1_565 S
H3390 C3366 0.950 . S
H3391 C3367 0.949 . S
H3392 C3369 0.950 . S
H3393 C3371 0.950 . S
C3394 C3395 1.349 . S
C3394 C3396 1.327 . S
C3394 H3419 0.950 . S
C3395 C3394 1.349 . S
C3395 C3411 1.349 . S
C3396 C3394 1.327 . S
C3396 C3415 1.429 . S
C3396 H3420 0.950 . S
C3397 C3414 1.574 . S
C3397 C3416 1.368 . S
C3397 H3421 0.949 . S
H3398 C3402 0.949 . S
C3399 C3400 1.349 . S
C3399 C3401 1.327 . S
C3399 H3422 0.950 . S
C3400 C3399 1.349 . S
C3400 C3412 1.349 . S
C3401 C3399 1.327 . S
C3401 C3417 1.429 . S
C3401 H3423 0.950 . S
C3402 H3398 0.949 . S
C3402 C3410 1.574 . S
C3402 C3418 1.368 . S
H3403 C3411 0.950 . S
H3404 C3409 0.950 . S
H3405 C3410 0.949 . S
H3406 C3412 0.950 . S
H3407 C3413 0.950 . S
H3408 C3414 0.949 . S
C3409 H3404 0.950 . S
C3409 C3411 1.327 . S
C3409 C3415 1.429 . S
C3410 C3402 1.574 . S
C3410 H3405 0.949 . S
C3410 C3416 1.368 . S
C3411 C3395 1.349 . S
C3411 H3403 0.950 . S
C3411 C3409 1.327 . S
C3412 C3400 1.349 . S
C3412 H3406 0.950 . S
C3412 C3413 1.327 . S
C3413 H3407 0.950 . S
C3413 C3412 1.327 . S
C3413 C3417 1.429 . S
C3414 C3397 1.574 . S
C3414 H3408 0.949 . S
C3414 C3418 1.368 . S
C3415 C3396 1.429 . S
C3415 C3409 1.429 . S
C3415 C3416 1.523 . S
C3416 C3397 1.368 . S
C3416 C3410 1.368 . S
C3416 C3415 1.523 . S
C3417 C3401 1.429 . S
C3417 C3413 1.429 . S
C3417 C3418 1.523 . S
C3418 C3402 1.368 . S
C3418 C3414 1.368 . S
C3418 C3417 1.523 . S
H3419 C3394 0.950 . S
H3420 C3396 0.950 . S
H3421 C3397 0.949 . S
H3422 C3399 0.950 . S
H3423 C3401 0.950 . S
C3424 C3425 1.349 . S
C3424 C3426 1.327 . S
C3424 H3449 0.950 . S
C3425 C3424 1.349 . S
C3425 C3441 1.349 . S
C3426 C3424 1.327 . S
C3426 C3445 1.429 . S
C3426 H3450 0.950 . S
C3427 C3444 1.574 . S
C3427 C3446 1.368 . S
C3427 H3451 0.949 . S
H3428 C3432 0.949 . S
C3429 C3430 1.349 . S
C3429 C3431 1.327 . S
C3429 H3452 0.950 . S
C3430 C3429 1.349 . S
C3430 C3442 1.349 . S
C3431 C3429 1.327 . S
C3431 C3447 1.429 . S
C3431 H3453 0.950 . S
C3432 H3428 0.949 . S
C3432 C3440 1.574 . S
C3432 C3448 1.368 . S
H3433 C3441 0.950 . S
H3434 C3439 0.950 . S
H3435 C3440 0.949 . S
H3436 C3442 0.950 . S
H3437 C3443 0.950 . S
H3438 C3444 0.949 . S
C3439 H3434 0.950 . S
C3439 C3441 1.327 . S
C3439 C3445 1.429 . S
C3440 C3432 1.574 . S
C3440 H3435 0.949 . S
C3440 C3446 1.368 . S
C3441 C3425 1.349 . S
C3441 H3433 0.950 . S
C3441 C3439 1.327 . S
C3442 C3430 1.349 . S
C3442 H3436 0.950 . S
C3442 C3443 1.327 . S
C3443 H3437 0.950 . S
C3443 C3442 1.327 . S
C3443 C3447 1.429 . S
C3444 C3427 1.574 . S
C3444 H3438 0.949 . S
C3444 C3448 1.368 . S
C3445 C3426 1.429 . S
C3445 C3439 1.429 . S
C3445 C3446 1.523 . S
C3446 C3427 1.368 . S
C3446 C3440 1.368 . S
C3446 C3445 1.523 . S
C3447 C3431 1.429 . S
C3447 C3443 1.429 . S
C3447 C3448 1.523 . S
C3448 C3432 1.368 . S
C3448 C3444 1.368 . S
C3448 C3447 1.523 . S
H3449 C3424 0.950 . S
H3450 C3426 0.950 . S
H3451 C3427 0.949 . S
H3452 C3429 0.950 . S
H3453 C3431 0.950 . S
C3454 C3455 1.349 . S
C3454 C3456 1.327 . S
C3454 H3479 0.950 . S
C3455 C3454 1.349 . S
C3455 C3471 1.349 . S
C3456 C3454 1.327 . S
C3456 C3475 1.429 . S
C3456 H3480 0.950 . S
C3457 C3474 1.574 . S
C3457 C3476 1.368 . S
C3457 H3481 0.949 . S
H3458 C3462 0.949 . S
C3459 C3460 1.349 . S
C3459 C3461 1.327 . S
C3459 H3482 0.950 . S
C3460 C3459 1.349 . S
C3460 C3472 1.349 . S
C3461 C3459 1.327 . S
C3461 C3477 1.429 . S
C3461 H3483 0.950 . S
C3462 H3458 0.949 . S
C3462 C3470 1.574 . S
C3462 C3478 1.368 . S
H3463 C3471 0.950 . S
H3464 C3469 0.950 . S
H3465 C3470 0.949 . S
H3466 C3472 0.950 . S
H3467 C3473 0.950 . S
H3468 C3474 0.949 . S
C3469 H3464 0.950 . S
C3469 C3471 1.327 . S
C3469 C3475 1.429 . S
C3470 C3462 1.574 . S
C3470 H3465 0.949 . S
C3470 C3476 1.368 . S
C3471 C3455 1.349 . S
C3471 H3463 0.950 . S
C3471 C3469 1.327 . S
C3472 C3460 1.349 . S
C3472 H3466 0.950 . S
C3472 C3473 1.327 . S
C3473 H3467 0.950 . S
C3473 C3472 1.327 . S
C3473 C3477 1.429 . S
C3474 C3457 1.574 . S
C3474 H3468 0.949 . S
C3474 C3478 1.368 . S
C3475 C3456 1.429 . S
C3475 C3469 1.429 . S
C3475 C3476 1.523 . S
C3476 C3457 1.368 . S
C3476 C3470 1.368 . S
C3476 C3475 1.523 . S
C3477 C3461 1.429 . S
C3477 C3473 1.429 . S
C3477 C3478 1.523 . S
C3478 C3462 1.368 . S
C3478 C3474 1.368 . S
C3478 C3477 1.523 . S
H3479 C3454 0.950 . S
H3480 C3456 0.950 . S
H3481 C3457 0.949 . S
H3482 C3459 0.950 . S
H3483 C3461 0.950 . S
C3484 C3485 1.349 . S
C3484 C3486 1.327 . S
C3484 H3509 0.950 . S
C3485 C3484 1.349 . S
C3485 C3501 1.349 . S
C3486 C3484 1.327 . S
C3486 C3505 1.429 . S
C3486 H3510 0.950 . S
C3487 C3504 1.574 . S
C3487 C3506 1.368 . S
C3487 H3511 0.949 . S
H3488 C3492 0.949 . S
C3489 C3490 1.349 . S
C3489 C3491 1.327 . S
C3489 H3512 0.950 . S
C3490 C3489 1.349 . S
C3490 C3502 1.349 . S
C3491 C3489 1.327 . S
C3491 C3507 1.429 . S
C3491 H3513 0.950 . S
C3492 H3488 0.949 . S
C3492 C3500 1.574 . S
C3492 C3508 1.368 . S
H3493 C3501 0.950 1_545 S
H3494 C3499 0.950 . S
H3495 C3500 0.949 . S
H3496 C3502 0.950 . S
H3497 C3503 0.950 . S
H3498 C3504 0.949 . S
C3499 H3494 0.950 . S
C3499 C3501 1.327 . S
C3499 C3505 1.429 . S
C3500 C3492 1.574 . S
C3500 H3495 0.949 . S
C3500 C3506 1.368 . S
C3501 C3485 1.349 . S
C3501 H3493 0.950 1_565 S
C3501 C3499 1.327 . S
C3502 C3490 1.349 . S
C3502 H3496 0.950 . S
C3502 C3503 1.327 . S
C3503 H3497 0.950 . S
C3503 C3502 1.327 . S
C3503 C3507 1.429 . S
C3504 C3487 1.574 . S
C3504 H3498 0.949 . S
C3504 C3508 1.368 . S
C3505 C3486 1.429 . S
C3505 C3499 1.429 . S
C3505 C3506 1.523 . S
C3506 C3487 1.368 . S
C3506 C3500 1.368 . S
C3506 C3505 1.523 . S
C3507 C3491 1.429 . S
C3507 C3503 1.429 . S
C3507 C3508 1.523 . S
C3508 C3492 1.368 . S
C3508 C3504 1.368 . S
C3508 C3507 1.523 . S
H3509 C3484 0.950 . S
H3510 C3486 0.950 . S
H3511 C3487 0.949 . S
H3512 C3489 0.950 . S
H3513 C3491 0.950 . S
C3514 C3515 1.349 . S
C3514 C3516 1.327 . S
C3514 H3539 0.950 . S
C3515 C3514 1.349 . S
C3515 C3531 1.349 . S
C3516 C3514 1.327 . S
C3516 C3535 1.429 . S
C3516 H3540 0.950 . S
C3517 C3534 1.574 1_455 S
C3517 C3536 1.368 . S
C3517 H3541 0.949 . S
H3518 C3522 0.949 . S
C3519 C3520 1.349 . S
C3519 C3521 1.327 . S
C3519 H3542 0.950 . S
C3520 C3519 1.349 . S
C3520 C3532 1.349 . S
C3521 C3519 1.327 . S
C3521 C3537 1.429 . S
C3521 H3543 0.950 . S
C3522 H3518 0.949 . S
C3522 C3530 1.574 . S
C3522 C3538 1.368 1_455 S
H3523 C3531 0.950 1_565 S
H3524 C3529 0.950 . S
H3525 C3530 0.949 . S
H3526 C3532 0.950 . S
H3527 C3533 0.950 . S
H3528 C3534 0.949 . S
C3529 H3524 0.950 . S
C3529 C3531 1.327 . S
C3529 C3535 1.429 . S
C3530 C3522 1.574 . S
C3530 H3525 0.949 . S
C3530 C3536 1.368 . S
C3531 C3515 1.349 . S
C3531 H3523 0.950 1_545 S
C3531 C3529 1.327 . S
C3532 C3520 1.349 . S
C3532 H3526 0.950 . S
C3532 C3533 1.327 . S
C3533 H3527 0.950 . S
C3533 C3532 1.327 . S
C3533 C3537 1.429 . S
C3534 C3517 1.574 1_655 S
C3534 H3528 0.949 . S
C3534 C3538 1.368 . S
C3535 C3516 1.429 . S
C3535 C3529 1.429 . S
C3535 C3536 1.523 . S
C3536 C3517 1.368 . S
C3536 C3530 1.368 . S
C3536 C3535 1.523 . S
C3537 C3521 1.429 . S
C3537 C3533 1.429 . S
C3537 C3538 1.523 . S
C3538 C3522 1.368 1_655 S
C3538 C3534 1.368 . S
C3538 C3537 1.523 . S
H3539 C3514 0.950 . S
H3540 C3516 0.950 . S
H3541 C3517 0.949 . S
H3542 C3519 0.950 . S
H3543 C3521 0.950 . S
C670 C319 1.111 . S
C665 C10 1.159 . S
C695 C16 1.164 . S
C700 C339 1.112 . S
C730 C360 1.111 . S
C725 C30 1.160 . S
C760 C387 1.114 . S
C755 C42 1.166 . S
C790 C343 1.115 . S
C785 C57 1.167 . S
C815 C69 1.159 . S
C820 C363 1.111 . S
C850 C383 1.112 . S
C845 C83 1.164 . S
C875 C101 1.159 . S
C880 C316 1.111 . S
C905 C108 1.159 . S
C910 C321 1.111 . S
C940 C338 1.114 . S
C935 C120 1.166 . S
C970 C362 1.112 . S
C965 C133 1.164 . S
C1000 C386 1.111 . S
C995 C147 1.159 . S
C1030 C342 1.111 . S
C1025 C114 1.160 . S
C1060 C365 1.112 . S
C1055 C122 1.164 . S
C1085 C135 1.167 . S
C1090 C382 1.115 . S
C1120 C318 1.111 . S
C1115 C153 1.159 . S
C1145 C160 1.159 . S
C1150 C320 1.111 . S
C1175 C174 1.164 . S
C1180 C407 1.112 . S
C1210 C427 1.114 . S
C1205 C187 1.166 . S
C1240 C450 1.111 . S
C1235 C205 1.160 . S
C1265 C212 1.159 . S
C1270 C317 1.111 . S
C1295 C226 1.166 . S
C1300 C361 1.115 . S
C1330 C451 1.112 . S
C1325 C185 1.164 . S
C1360 C406 1.111 . S
C1355 C244 1.159 . S
C1390 C474 1.097 . S
C1385 C23 1.138 . S
C1420 C495 1.098 . S
C1415 C5 1.141 . S
C1445 C49 1.137 . S
C1450 C514 1.097 . S
C1475 C29 1.143 . S
C1480 C539 1.101 . S
C1505 C94 1.143 . S
C1510 C494 1.101 . S
C1535 C88 1.138 . S
C1540 C519 1.097 . S
C1570 C538 1.098 . S
C1565 C70 1.141 . S
C1595 C62 1.137 . S
C1600 C471 1.097 . S
C1625 C257 1.138 . S
C1630 C475 1.097 . S
C1660 C496 1.101 . S
C1655 C200 1.143 . S
C1690 C515 1.098 . S
C1685 C211 1.141 . S
C1720 C540 1.097 . S
C1715 C179 1.138 . S
C1750 C492 1.097 . S
C1745 C251 1.137 . S
C1780 C517 1.098 . S
C1775 C198 1.141 . S
C1810 C536 1.101 . S
C1805 C213 1.143 . S
C1835 C173 1.137 . S
C1840 C472 1.097 . S
C1870 C473 1.097 . S
C1865 C264 1.138 . S
C1895 C148 1.141 . S
C1900 C559 1.098 . S
C1930 C584 1.101 . S
C1925 C278 1.143 . S
C1955 C127 1.137 . S
C1960 C603 1.097 . S
C1990 C470 1.097 . S
C1985 C140 1.137 . S
C2020 C516 1.101 . S
C2015 C289 1.143 . S
C2050 C607 1.098 . S
C2045 C276 1.141 . S
C2075 C303 1.138 . S
C2080 C563 1.097 . S
C2105 C36 1.159 . S
C2110 C627 1.111 . S
C2135 C44 1.164 . S
C2140 C405 1.112 . S
C2170 C429 1.111 . S
C2165 C4 1.160 . S
C2195 C18 1.166 . S
C2200 C453 1.114 . S
C2225 C81 1.166 . S
C2230 C409 1.115 . S
C2255 C95 1.159 . S
C2260 C426 1.111 . S
C2290 C449 1.112 . S
C2285 C55 1.164 . S
C2320 C624 1.111 . S
C2315 C75 1.159 . S
C2350 C629 1.111 . S
C2345 C277 1.159 . S
C2380 C404 1.114 . S
C2375 C263 1.166 . S
C2410 C431 1.112 . S
C2405 C302 1.164 . S
C2435 C290 1.159 . S
C2440 C452 1.111 . S
C2470 C408 1.111 . S
C2465 C283 1.160 . S
C2495 C265 1.164 . S
C2500 C428 1.112 . S
C2530 C448 1.115 . S
C2525 C304 1.166 . S
C2555 C296 1.159 . S
C2560 C626 1.111 . S
C2590 C628 1.111 . S
C2585 C199 1.159 . S
C2615 C224 1.164 . S
C2620 C341 1.112 . S
C2650 C364 1.114 . S
C2645 C252 1.166 . S
C2675 C166 1.160 . S
C2680 C384 1.111 . S
C2710 C625 1.111 . S
C2705 C238 1.159 . S
C2740 C430 1.115 . S
C2735 C172 1.167 . S
C2770 C385 1.112 . S
C2765 C250 1.164 . S
C2800 C340 1.111 . S
C2795 C218 1.159 . S
C2825 C43 1.137 . S
C2830 C651 1.097 . S
C2855 C31 1.141 . S
C2860 C561 1.098 . S
C2885 C17 1.137 . S
C2890 C580 1.097 . S
C2920 C605 1.101 . S
C2915 C3 1.143 . S
C2950 C560 1.101 . S
C2945 C68 1.143 . S
C2975 C56 1.138 . S
C2980 C585 1.097 . S
C3010 C604 1.098 . S
C3005 C96 1.141 . S
C3035 C82 1.137 . S
C3040 C646 1.097 . S
C3070 C649 1.097 . S
C3065 C192 1.137 . S
C3095 C161 1.143 . S
C3100 C562 1.101 . S
C3125 C237 1.141 . S
C3130 C581 1.098 . S
C3160 C606 1.097 . S
C3155 C225 1.138 . S
C3190 C558 1.097 . S
C3185 C186 1.137 . S
C3215 C159 1.141 . S
C3220 C583 1.098 . S
C3250 C602 1.101 . S
C3245 C239 1.143 . S
C3280 C647 1.097 . S
C3275 C231 1.137 . S
C3310 C650 1.097 . S
C3305 C121 1.137 . S
C3340 C493 1.098 . S
C3335 C291 1.141 . S
C3365 C109 1.143 . S
C3370 C518 1.101 . S
C3395 C270 1.137 . S
C3400 C537 1.097 . S
C3430 C648 1.097 . S
C3425 C309 1.137 . S
C3460 C582 1.101 . S
C3455 C146 1.143 . S
C3490 C541 1.098 . S
C3485 C107 1.141 . S
C3520 C497 1.097 . S
C3515 C134 1.138 . S
