# Generated by pormake.
# Topology nia, (6,6)-cn, num edge types: 1
# Building blocks:
#     Node 0, Type 0, BuildingBlock: PAMTOO_clean_sbu_0, # of connection points: 6
#     Node 1, Type 0, BuildingBlock: PAMTOO_clean_sbu_0, # of connection points: 6
#     Node 2, Type 1, BuildingBlock: MIDCAF_clean_sbu_0, # of connection points: 6
#     Node 3, Type 1, BuildingBlock: MIDCAF_clean_sbu_0, # of connection points: 6
#     Edge 4, Type (0, 1), BuildingBlock: TEMPAE_clean_linker_10, # of connection points: 2
#     Edge 5, Type (0, 1), BuildingBlock: TEMPAE_clean_linker_10, # of connection points: 2
#     Edge 6, Type (0, 1), BuildingBlock: TEMPAE_clean_linker_10, # of connection points: 2
#     Edge 7, Type (0, 1), BuildingBlock: TEMPAE_clean_linker_10, # of connection points: 2
#     Edge 8, Type (0, 1), BuildingBlock: TEMPAE_clean_linker_10, # of connection points: 2
#     Edge 9, Type (0, 1), BuildingBlock: TEMPAE_clean_linker_10, # of connection points: 2
#     Edge 10, Type (0, 1), BuildingBlock: TEMPAE_clean_linker_10, # of connection points: 2
#     Edge 11, Type (0, 1), BuildingBlock: TEMPAE_clean_linker_10, # of connection points: 2
#     Edge 12, Type (0, 1), BuildingBlock: TEMPAE_clean_linker_10, # of connection points: 2
#     Edge 13, Type (0, 1), BuildingBlock: TEMPAE_clean_linker_10, # of connection points: 2
#     Edge 14, Type (0, 1), BuildingBlock: TEMPAE_clean_linker_10, # of connection points: 2
#     Edge 15, Type (0, 1), BuildingBlock: TEMPAE_clean_linker_10, # of connection points: 2
# Relax obj value: 0.175
# Max RMSD: 0.276
# Mean RMSD: 0.196
data_MOF--net-nia--node1-PAMTOO_clean_sbu_0--node2-MIDCAF_clean_sbu_0--edge1-TEMPAE_clean_linker_10
_symmetry_space_group_name_H-M    P1
_symmetry_Int_Tables_number       1
_symmetry_cell_setting            triclinic
loop_
_symmetry_equiv_pos_as_xyz
'x, y, z'
_cell_length_a     29.044368
_cell_length_b     29.025075
_cell_length_c     34.052372
_cell_angle_alpha  90.785144
_cell_angle_beta   90.46796
_cell_angle_gamma 137.00253
loop_
_atom_site_label
_atom_site_type_symbol
_atom_site_fract_x
_atom_site_fract_y
_atom_site_fract_z
_atom_type_partial_charge
Dy0 Dy 0.01047 0.97202 0.05091 0.0
Dy1 Dy 0.96616 0.02204 0.98954 0.0
C2 C 0.10593 0.06955 0.98129 0.0
O3 O 0.06293 0.07461 0.07117 0.0
O4 O -0.00726 0.07885 0.0455 0.0
O5 O 0.08596 -0.00702 0.08687 0.0
O6 O 0.97988 0.89645 0.09025 0.0
O7 O 0.87453 0.94044 0.02479 0.0
O8 O 0.93061 0.95488 0.07949 0.0
O9 O 0.96644 0.9566 0.95555 0.0
O10 O 0.94386 0.88983 1.00456 0.0
O11 O 0.89817 -0.00594 0.94283 0.0
O12 O -0.01516 0.09978 0.96048 0.0
C13 C 0.03827 0.09854 0.07158 0.0
O14 O 0.08336 0.01882 1.00222 0.0
O15 O 0.07561 0.08766 0.98061 0.0
C16 C 0.06072 0.90161 0.1131 0.0
C17 C 0.09431 0.83612 0.13539 0.0
C18 C 0.07704 0.83304 0.09595 0.0
C19 C 0.06006 0.86554 0.08485 0.0
C20 C 0.07885 0.90553 0.15216 0.0
C21 C 0.09552 0.87313 0.16325 0.0
C22 C 0.04137 0.93462 0.10362 0.0
C23 C 0.87694 0.93362 0.0626 0.0
C24 C 0.94519 0.90097 0.96709 0.0
C25 C 0.89341 0.06969 0.92772 0.0
C26 C 0.82866 0.10489 0.90729 0.0
C27 C 0.83381 0.09545 0.94687 0.0
C28 C 0.86632 0.0781 0.95709 0.0
C29 C 0.88599 0.07653 0.88825 0.0
C30 C 0.85393 0.09401 0.87807 0.0
C31 C 0.93217 0.05658 0.93688 0.0
H32 H 0.07559 0.80467 0.07395 0.0
H33 H 0.04601 0.86214 0.05453 0.0
H34 H 0.07975 0.93346 0.17423 0.0
H35 H 0.10984 0.87744 0.19365 0.0
H36 H 0.81501 0.10395 0.96991 0.0
H37 H 0.87167 0.0728 0.98773 0.0
H38 H 0.90642 0.06979 0.86527 0.0
H39 H 0.84988 0.1002 0.84735 0.0
Dy40 Dy 0.03196 -0.00852 0.48736 0.0
Dy41 Dy 0.96374 0.01501 0.54917 0.0
C42 C 0.93432 0.88546 0.55324 0.0
O43 O 0.92738 0.92922 0.46468 0.0
O44 O 0.9076 0.98574 0.49273 0.0
O45 O 0.02389 0.92563 0.44948 0.0
O46 O 0.11532 0.03415 0.45065 0.0
O47 O 0.04057 0.11134 0.51621 0.0
O48 O 0.03731 0.06439 0.46021 0.0
O49 O 0.03582 0.02421 0.58283 0.0
O50 O 0.11037 0.06371 0.53457 0.0
O51 O -0.01899 0.06993 0.6009 0.0
O52 O 0.87965 -0.01098 0.57517 0.0
C53 C 0.89474 0.94472 0.46557 0.0
O54 O -0.00934 0.91802 0.53495 0.0
O55 O 0.90742 0.90722 0.55356 0.0
C56 C 0.1235 0.96306 0.42757 0.0
C57 C 0.19409 0.93353 0.4093 0.0
C58 C 0.18722 0.94272 0.44873 0.0
C59 C 0.15203 0.95742 0.45784 0.0
C60 C 0.13092 0.95475 0.38841 0.0
C61 C 0.16573 0.94001 0.37931 0.0
C62 C 0.08378 0.97538 0.43534 0.0
C63 C 0.0506 0.11316 0.47841 0.0
C64 C 0.09651 0.05771 0.57197 0.0
C65 C 0.90468 0.07412 0.61493 0.0
C66 C 0.87089 0.13715 0.64452 0.0
C67 C 0.84939 0.10764 0.6064 0.0
C68 C 0.86606 0.07614 0.59169 0.0
C69 C 0.92811 0.10571 0.65231 0.0
C70 C 0.91152 0.13701 0.66696 0.0
C71 C 0.91785 0.03592 0.6028 0.0
H72 H 0.20888 0.93842 0.47244 0.0
H73 H 0.14652 0.96372 0.48828 0.0
H74 H 0.10873 0.95858 0.36476 0.0
H75 H 0.16881 0.93187 0.34873 0.0
H76 H 0.81759 0.10664 0.58858 0.0
H77 H 0.84741 0.05204 0.56273 0.0
H78 H 0.95799 0.10466 0.67067 0.0
H79 H 0.92951 0.16011 0.69619 0.0
Zn80 Zn 0.34379 0.63909 0.20286 0.0
Zn81 Zn 0.35608 0.64793 0.34233 0.0
Zn82 Zn 0.35028 0.64194 0.27238 0.0
C83 C 0.47414 0.6945 0.31987 0.0
C84 C 0.25052 0.51591 0.32917 0.0
O85 O 0.30539 0.67589 0.25376 0.0
O86 O 0.27017 0.62968 0.19404 0.0
C87 C 0.47585 0.73697 0.2146 0.0
O88 O 0.45494 0.70034 0.28798 0.0
O89 O 0.43442 0.66335 0.34814 0.0
O90 O 0.26671 0.55713 0.35537 0.0
O91 O 0.28084 0.53819 0.29612 0.0
O92 O 0.4363 0.72574 0.18944 0.0
O93 O 0.45234 0.70548 0.24724 0.0
O94 O 0.28442 0.53577 0.2551 0.0
O95 O 0.32127 0.55683 0.1948 0.0
C96 C 0.28791 0.51597 0.22236 0.0
O97 O 0.3251 0.69412 0.29367 0.0
O98 O 0.3722 0.72578 0.35304 0.0
C99 C 0.27105 0.65925 0.22196 0.0
C100 C 0.34447 0.72855 0.326 0.0
Zn101 Zn 0.66399 0.39394 0.84249 0.0
Zn102 Zn 0.6081 0.32042 0.70052 0.0
Zn103 Zn 0.63544 0.36186 0.77185 0.0
C104 C 0.69611 0.4605 0.69876 0.0
C105 C 0.48681 0.25599 0.73115 0.0
O106 O 0.67011 0.32099 0.79886 0.0
O107 O 0.67594 0.34088 0.86257 0.0
C108 C 0.75147 0.51371 0.80644 0.0
O109 O 0.69459 0.45456 0.73638 0.0
O110 O 0.66138 0.40858 0.67655 0.0
O111 O 0.51016 0.25527 0.70045 0.0
O112 O 0.52603 0.29437 0.76091 0.0
O113 O 0.74696 0.49009 0.83866 0.0
O114 O 0.71052 0.47366 0.77753 0.0
O115 O 0.54066 0.31388 0.80106 0.0
O116 O 0.5821 0.36691 0.85889 0.0
C117 C 0.53225 0.32613 0.83529 0.0
O118 O 0.66921 0.31423 0.75807 0.0
O119 O 0.64161 0.28235 0.69531 0.0
C120 C 0.67996 0.31513 0.8347 0.0
C121 C 0.6678 0.2872 0.72692 0.0
C122 C 0.08548 0.76521 0.1827 0.0
C123 C 0.11167 0.8016 0.14799 0.0
C124 C 0.10552 0.73691 0.19707 0.0
C125 C 0.15363 0.74595 0.17637 0.0
C126 C 0.17831 0.78044 0.14047 0.0
C127 C 0.15697 0.8079 0.12668 0.0
C128 C 0.07628 0.69974 0.23509 0.0
C129 C 0.22822 0.78942 0.11698 0.0
C130 C 0.26803 0.74266 0.22681 0.0
C131 C 0.23647 0.67813 0.21576 0.0
C132 C 0.23975 0.76431 0.21576 0.0
C133 C 0.17961 0.72088 0.19232 0.0
C134 C 0.14649 0.65484 0.18218 0.0
C135 C 0.17545 0.63428 0.19399 0.0
C136 C 0.27561 0.83453 0.22785 0.0
C137 C 0.08164 0.60677 0.15786 0.0
H138 H 0.04953 0.7593 0.19897 0.0
H139 H 0.17743 0.83619 0.09989 0.0
H140 H 0.08107 0.66562 0.23951 0.0
H141 H 0.10268 0.73735 0.25983 0.0
H142 H 0.022 0.66942 0.2363 0.0
H143 H 0.23975 0.8144 0.0887 0.0
H144 H 0.27603 0.82043 0.13431 0.0
H145 H 0.20805 0.73958 0.11068 0.0
H146 H 0.31618 0.77714 0.2427 0.0
H147 H 0.1513 0.58438 0.18529 0.0
H148 H 0.23909 0.83317 0.23954 0.0
H149 H 0.29879 0.86696 0.20182 0.0
H150 H 0.31597 0.85804 0.25047 0.0
H151 H 0.04299 0.59996 0.1724 0.0
H152 H 0.06123 0.55643 0.15342 0.0
H153 H 0.09042 0.62833 0.12868 0.0
C154 C 0.12992 0.0714 0.64254 0.0
C155 C 0.14821 0.08591 0.60291 0.0
C156 C 0.17754 0.09632 0.67242 0.0
C157 C 0.24503 0.13671 0.66244 0.0
C158 C 0.26418 0.15281 0.62264 0.0
C159 C 0.21544 0.12699 0.59333 0.0
C160 C 0.15513 0.07763 0.71441 0.0
C161 C 0.33602 0.19628 0.61089 0.0
C162 C 0.39951 0.25268 0.72948 0.0
C163 C 0.41577 0.21771 0.72942 0.0
C164 C 0.33948 0.22393 0.71102 0.0
C165 C 0.2954 0.1589 0.69277 0.0
C166 C 0.30742 0.12008 0.69789 0.0
C167 C 0.36808 0.15038 0.71591 0.0
C168 C 0.32772 0.26639 0.70689 0.0
C169 C 0.26064 0.04974 0.68002 0.0
H170 H 0.07798 0.03962 0.65032 0.0
H171 H 0.22999 0.13875 0.56289 0.0
H172 H 0.155 0.04112 0.72389 0.0
H173 H 0.19074 0.12274 0.73441 0.0
H174 H 0.1036 0.05422 0.71797 0.0
H175 H 0.34333 0.20701 0.57904 0.0
H176 H 0.37122 0.24502 0.62781 0.0
H177 H 0.35005 0.1705 0.61788 0.0
H178 H 0.43686 0.30498 0.73988 0.0
H179 H 0.38109 0.12359 0.71607 0.0
H180 H 0.27349 0.2353 0.70965 0.0
H181 H 0.34323 0.28849 0.6773 0.0
H182 H 0.35755 0.30842 0.72921 0.0
H183 H 0.20708 0.01982 0.68459 0.0
H184 H 0.27041 0.02234 0.69261 0.0
H185 H 0.26819 0.05307 0.64787 0.0
C186 C 0.08989 0.15059 0.13811 0.0
C187 C 0.06191 0.1477 0.10309 0.0
C188 C 0.11818 0.20069 0.16707 0.0
C189 C 0.11983 0.24977 0.16031 0.0
C190 C 0.08692 0.24385 0.12643 0.0
C191 C 0.05785 0.19243 0.09825 0.0
C192 C 0.15043 0.20382 0.20351 0.0
C193 C 0.08711 0.29502 0.1184 0.0
C194 C 0.18662 0.39165 0.23026 0.0
C195 C 0.25043 0.44553 0.21468 0.0
C196 C 0.14455 0.32547 0.21516 0.0
C197 C 0.1671 0.31412 0.18362 0.0
C198 C 0.23399 0.36763 0.17061 0.0
C199 C 0.27486 0.43261 0.18647 0.0
C200 C 0.07458 0.26926 0.23099 0.0
C201 C 0.26072 0.35767 0.13755 0.0
H202 H 0.09114 0.11459 0.14257 0.0
H203 H 0.03519 0.18954 0.07154 0.0
H204 H 0.20599 0.24315 0.20032 0.0
H205 H 0.14012 0.21786 0.22983 0.0
H206 H 0.13211 0.15484 0.20851 0.0
H207 H 0.05311 0.27914 0.09319 0.0
H208 H 0.07126 0.30313 0.14472 0.0
H209 H 0.13914 0.34421 0.11172 0.0
H210 H 0.16773 0.40165 0.25215 0.0
H211 H 0.32485 0.47428 0.175 0.0
H212 H 0.05733 0.22027 0.22973 0.0
H213 H 0.0387 0.26369 0.21293 0.0
H214 H 0.07261 0.28063 0.26185 0.0
H215 H 0.25295 0.31496 0.14359 0.0
H216 H 0.31538 0.4035 0.133 0.0
H217 H 0.23268 0.34506 0.1098 0.0
C218 C 0.84792 0.20504 0.64026 0.0
C219 C 0.8476 0.16416 0.66194 0.0
C220 C 0.82241 0.22757 0.65599 0.0
C221 C 0.79555 0.20827 0.69416 0.0
C222 C 0.79699 0.16862 0.71655 0.0
C223 C 0.82286 0.14697 0.70014 0.0
C224 C 0.82208 0.27009 0.63123 0.0
C225 C 0.76812 0.14558 0.757 0.0
C226 C 0.76394 0.3037 0.73898 0.0
C227 C 0.69698 0.26206 0.72657 0.0
C228 C 0.79653 0.28583 0.72994 0.0
C229 C 0.76051 0.22448 0.7088 0.0
C230 C 0.69133 0.18015 0.69898 0.0
C231 C 0.66066 0.19992 0.70758 0.0
C232 C 0.8706 0.33499 0.74041 0.0
C233 C 0.65052 0.11328 0.67768 0.0
H234 H 0.86771 0.21899 0.61088 0.0
H235 H 0.82154 0.11449 0.71686 0.0
H236 H 0.7692 0.24162 0.62414 0.0
H237 H 0.84625 0.3168 0.64783 0.0
H238 H 0.8489 0.28448 0.60328 0.0
H239 H 0.79469 0.13898 0.77536 0.0
H240 H 0.77115 0.1816 0.77231 0.0
H241 H 0.71418 0.09594 0.75426 0.0
H242 H 0.79207 0.35212 0.7533 0.0
H243 H 0.60864 0.16773 0.69821 0.0
H244 H 0.90059 0.36554 0.71445 0.0
H245 H 0.88312 0.30826 0.74867 0.0
H246 H 0.88625 0.37008 0.76493 0.0
H247 H 0.6709 0.12211 0.64802 0.0
H248 H 0.59629 0.08293 0.67438 0.0
H249 H 0.65452 0.08333 0.69382 0.0
C250 C 0.75425 0.85714 0.07458 0.0
C251 C 0.82156 0.90801 0.088 0.0
C252 C 0.70179 0.83184 0.09939 0.0
C253 C 0.71741 0.85978 0.13801 0.0
C254 C 0.7855 0.91195 0.15142 0.0
C255 C 0.83667 0.93475 0.12643 0.0
C256 C 0.6296 0.77508 0.08434 0.0
C257 C 0.80439 0.94449 0.19185 0.0
C258 C 0.5791 0.83353 0.17926 0.0
C259 C 0.54547 0.77784 0.20303 0.0
C260 C 0.6379 0.86359 0.15995 0.0
C261 C 0.6624 0.83593 0.16365 0.0
C262 C 0.63091 0.78223 0.18956 0.0
C263 C 0.57293 0.75411 0.20927 0.0
C264 C 0.67145 0.92244 0.13382 0.0
C265 C 0.65511 0.75096 0.19415 0.0
H266 H 0.74259 0.83623 0.04499 0.0
H267 H 0.88891 0.97476 0.13673 0.0
H268 H 0.59978 0.7324 0.10475 0.0
H269 H 0.6062 0.79265 0.0831 0.0
H270 H 0.62578 0.75619 0.05457 0.0
H271 H 0.85984 0.98491 0.19768 0.0
H272 H 0.78572 0.96671 0.19502 0.0
H273 H 0.77994 0.90597 0.21467 0.0
H274 H 0.55772 0.8518 0.17447 0.0
H275 H 0.54632 0.7104 0.22724 0.0
H276 H 0.6627 0.90582 0.10258 0.0
H277 H 0.72685 0.96337 0.13958 0.0
H278 H 0.6516 0.94337 0.13814 0.0
H279 H 0.64376 0.72301 0.16657 0.0
H280 H 0.63037 0.71528 0.21873 0.0
H281 H 0.71057 0.79051 0.19937 0.0
C282 C 0.94016 0.81498 0.58902 0.0
C283 C 0.90229 0.82523 0.57602 0.0
C284 C 0.91089 0.75925 0.6118 0.0
C285 C 0.84179 0.71194 0.62112 0.0
C286 C 0.80343 0.72222 0.60819 0.0
C287 C 0.8343 0.77903 0.5861 0.0
C288 C 0.95376 0.75073 0.6257 0.0
C289 C 0.72934 0.67236 0.61692 0.0
C290 C 0.74488 0.53099 0.6391 0.0
C291 C 0.73713 0.5267 0.68002 0.0
C292 C 0.77952 0.59111 0.6198 0.0
C293 C 0.80823 0.64915 0.64189 0.0
C294 C 0.80239 0.646 0.68329 0.0
C295 C 0.76618 0.58452 0.70172 0.0
C296 C 0.78397 0.59197 0.57558 0.0
C297 C 0.83286 0.70694 0.70803 0.0
H298 H -0.00696 0.85108 0.58187 0.0
H299 H 0.80477 0.78669 0.57618 0.0
H300 H 0.95048 0.74492 0.65801 0.0
H301 H 0.93455 0.70409 0.61214 0.0
H302 H 0.00766 0.79425 0.61819 0.0
H303 H 0.70706 0.68857 0.60562 0.0
H304 H 0.7011 0.62224 0.60339 0.0
H305 H 0.72203 0.66579 0.64907 0.0
H306 H 0.72292 0.48682 0.6218 0.0
H307 H 0.75921 0.58134 0.73288 0.0
H308 H 0.83757 0.63175 0.56698 0.0
H309 H 0.75906 0.60433 0.56244 0.0
H310 H 0.75973 0.54273 0.56278 0.0
H311 H 0.88567 0.75223 0.69959 0.0
H312 H 0.83254 0.69909 0.73991 0.0
H313 H 0.80376 0.71775 0.70292 0.0
C314 C 0.2688 0.94133 0.36615 0.0
C315 C 0.22758 0.91396 0.39896 0.0
C316 C 0.29411 0.91748 0.35296 0.0
C317 C 0.27778 0.8649 0.37316 0.0
C318 C 0.23933 0.83966 0.4076 0.0
C319 C 0.21439 0.86428 0.41999 0.0
C320 C 0.33549 0.94728 0.31637 0.0
C321 C 0.22283 0.7852 0.43073 0.0
C322 C 0.26936 0.74219 0.32159 0.0
C323 C 0.33084 0.76765 0.33364 0.0
C324 C 0.25274 0.77518 0.33286 0.0
C325 C 0.29796 0.83379 0.35765 0.0
C326 C 0.3608 0.86049 0.3692 0.0
C327 C 0.3765 0.82701 0.35706 0.0
C328 C 0.18588 0.74607 0.31932 0.0
C329 C 0.41061 0.92341 0.39513 0.0
H330 H 0.28034 0.98073 0.35015 0.0
H331 H 0.18232 0.84266 0.44526 0.0
H332 H 0.36498 0.93676 0.31247 0.0
H333 H 0.30105 0.92626 0.29045 0.0
H334 H 0.37092 0.0029 0.31686 0.0
H335 H 0.19712 0.77499 0.45849 0.0
H336 H 0.18945 0.73763 0.41274 0.0
H337 H 0.26968 0.80004 0.43794 0.0
H338 H 0.2332 0.69513 0.30457 0.0
H339 H 0.42401 0.84645 0.36657 0.0
H340 H 0.19317 0.78657 0.30779 0.0
H341 H 0.15183 0.72409 0.34457 0.0
H342 H 0.1608 0.70593 0.29617 0.0
H343 H 0.42378 0.96599 0.38103 0.0
H344 H 0.45779 0.93823 0.40103 0.0
H345 H 0.38735 0.91509 0.42359 0.0
C346 C 0.20762 0.09863 0.96173 0.0
C347 C 0.16483 0.10523 0.95602 0.0
C348 C 0.26366 0.13254 0.93797 0.0
C349 C 0.27669 0.17328 0.90742 0.0
C350 C 0.23241 0.17834 0.90069 0.0
C351 C 0.17735 0.14472 0.92525 0.0
C352 C 0.3101 0.12638 0.94632 0.0
C353 C 0.24395 0.2203 0.868 0.0
C354 C 0.46068 0.3177 0.88152 0.0
C355 C 0.46483 0.29048 0.84918 0.0
C356 C 0.39928 0.28088 0.89981 0.0
C357 C 0.34005 0.21537 0.88511 0.0
C358 C 0.34295 0.18913 0.85097 0.0
C359 C 0.40563 0.22671 0.8337 0.0
C360 C 0.39857 0.3109 0.93611 0.0
C361 C 0.28066 0.12015 0.83378 0.0
H362 H 0.1981 0.06797 0.98528 0.0
H363 H 0.14388 0.1492 0.92016 0.0
H364 H 0.3159 0.10928 0.91935 0.0
H365 H 0.36099 0.1766 0.9553 0.0
H366 H 0.2913 0.09037 0.96996 0.0
H367 H 0.20171 0.21429 0.86445 0.0
H368 H 0.29121 0.27449 0.87418 0.0
H369 H 0.25023 0.20602 0.83977 0.0
H370 H 0.50618 0.36718 0.89355 0.0
H371 H 0.40862 0.20461 0.80946 0.0
H372 H 0.3848 0.2801 0.96185 0.0
H373 H 0.35995 0.31004 0.93263 0.0
H374 H 0.44831 0.36383 0.94254 0.0
H375 H 0.26631 0.08078 0.85288 0.0
H376 H 0.28906 0.11229 0.80376 0.0
H377 H 0.23747 0.11286 0.83244 0.0
C378 C 0.04167 0.15208 0.41724 0.0
C379 C 0.07206 0.16786 0.45445 0.0
C380 C 0.06311 0.203 0.39268 0.0
C381 C 0.11778 0.27144 0.40515 0.0
C382 C 0.14868 0.28759 0.44278 0.0
C383 C 0.12457 0.23539 0.46733 0.0
C384 C 0.0272 0.18361 0.3535 0.0
C385 C 0.20811 0.36007 0.45679 0.0
C386 C 0.22404 0.41296 0.33217 0.0
C387 C 0.20554 0.4451 0.34003 0.0
C388 C 0.19357 0.35416 0.35181 0.0
C389 C 0.14259 0.32648 0.37921 0.0
C390 C 0.11953 0.35539 0.3843 0.0
C391 C 0.15205 0.41503 0.36509 0.0
C392 C 0.22002 0.32525 0.34571 0.0
C393 C 0.06345 0.32591 0.41195 0.0
H394 H 0.00053 0.09957 0.40747 0.0
H395 H 0.14831 0.2474 0.49596 0.0
H396 H 0.00833 0.20571 0.35147 0.0
H397 H 0.06285 0.2044 0.32929 0.0
H398 H -0.01612 0.12795 0.34886 0.0
H399 H 0.22815 0.36409 0.48607 0.0
H400 H 0.24929 0.38756 0.43539 0.0
H401 H 0.1931 0.38583 0.45864 0.0
H402 H 0.26601 0.43674 0.31315 0.0
H403 H 0.13778 0.44 0.37111 0.0
H404 H 0.17785 0.26966 0.34095 0.0
H405 H 0.2487 0.3355 0.37249 0.0
H406 H 0.25391 0.3476 0.32028 0.0
H407 H 0.02047 0.27029 0.40731 0.0
H408 H 0.04479 0.34805 0.40809 0.0
H409 H 0.08207 0.33588 0.44276 0.0
C410 C 0.74014 0.10161 0.9109 0.0
C411 C 0.80149 0.1306 0.89634 0.0
C412 C 0.71511 0.12689 0.90065 0.0
C413 C 0.75262 0.18247 0.87547 0.0
C414 C 0.81472 0.21188 0.86084 0.0
C415 C 0.83822 0.18546 0.87141 0.0
C416 C 0.64923 0.09501 0.91717 0.0
C417 C 0.85855 0.27311 0.83538 0.0
C418 C 0.66892 0.22206 0.82336 0.0
C419 C 0.69771 0.2803 0.84427 0.0
C420 C 0.6841 0.18767 0.83392 0.0
C421 C 0.72932 0.21265 0.86613 0.0
C422 C 0.75642 0.27011 0.88815 0.0
C423 C 0.74054 0.30338 0.87682 0.0
C424 C 0.64956 0.12393 0.81089 0.0
C425 C 0.80229 0.29661 0.92372 0.0
H426 H 0.71169 0.05905 0.93012 0.0
H427 H 0.88645 0.2089 0.86078 0.0
H428 H 0.65688 0.13393 0.93306 0.0
H429 H 0.61207 0.07379 0.89282 0.0
H430 H 0.62757 0.05394 0.93761 0.0
H431 H 0.88708 0.2721 0.81457 0.0
H432 H 0.82899 0.27722 0.81843 0.0
H433 H 0.89611 0.31934 0.85432 0.0
H434 H 0.63321 0.2023 0.79939 0.0
H435 H 0.76201 0.34793 0.89344 0.0
H436 H 0.59489 0.08434 0.81727 0.0
H437 H 0.66967 0.10399 0.81776 0.0
H438 H 0.65374 0.13294 0.77894 0.0
H439 H 0.78025 0.25471 0.94348 0.0
H440 H 0.81132 0.33572 0.94068 0.0
H441 H 0.85174 0.31929 0.9143 0.0
C442 C 0.79677 0.91806 0.43929 0.0
C443 C 0.84286 0.9157 0.4347 0.0
C444 C 0.74424 0.88634 0.41164 0.0
C445 C 0.7382 0.85209 0.37843 0.0
C446 C 0.78752 0.85391 0.37211 0.0
C447 C 0.83901 0.88517 0.40058 0.0
C448 C 0.69269 0.8858 0.41935 0.0
C449 C 0.78394 0.81979 0.33648 0.0
C450 C 0.55446 0.70098 0.35326 0.0
C451 C 0.54327 0.72769 0.3259 0.0
C452 C 0.61937 0.73914 0.36799 0.0
C453 C 0.6744 0.8055 0.35471 0.0
C454 C 0.66444 0.82961 0.32359 0.0
C455 C 0.59843 0.79042 0.3097 0.0
C456 C 0.62777 0.71088 0.40068 0.0
C457 C 0.72225 0.89889 0.30738 0.0
H458 H 0.80002 0.94237 0.4653 0.0
H459 H 0.87557 0.88464 0.39633 0.0
H460 H 0.68529 0.90208 0.39303 0.0
H461 H 0.64334 0.83359 0.42558 0.0
H462 H 0.70771 0.91939 0.44469 0.0
H463 H 0.83334 0.83918 0.33109 0.0
H464 H 0.7461 0.76465 0.34109 0.0
H465 H 0.76781 0.8271 0.30983 0.0
H466 H 0.51174 0.65177 0.3652 0.0
H467 H 0.58982 0.81114 0.28849 0.0
H468 H 0.63969 0.73818 0.42873 0.0
H469 H 0.6703 0.71829 0.39485 0.0
H470 H 0.5814 0.65613 0.40452 0.0
H471 H 0.73221 0.93693 0.32636 0.0
H472 H 0.71017 0.90203 0.27713 0.0
H473 H 0.76916 0.91234 0.30691 0.0
C474 C 0.88823 0.78574 0.94612 0.0
C475 C 0.92504 0.85188 0.93656 0.0
C476 C 0.86667 0.73844 0.91681 0.0
C477 C 0.88313 0.75817 0.87712 0.0
C478 C 0.92168 0.8253 0.86741 0.0
C479 C 0.94191 0.8713 0.89722 0.0
C480 C 0.8253 0.66698 0.92828 0.0
C481 C 0.94098 0.84828 0.82556 0.0
C482 C 0.86119 0.63153 0.81949 0.0
C483 C 0.79348 0.58586 0.80724 0.0
C484 C 0.8944 0.69275 0.83862 0.0
C485 C 0.85818 0.70733 0.84609 0.0
C486 C 0.79257 0.66517 0.82938 0.0
C487 C 0.76084 0.60457 0.8101 0.0
C488 C 0.96508 0.73731 0.85504 0.0
C489 C 0.75249 0.67929 0.83622 0.0
H490 H 0.8751 0.77052 0.97638 0.0
H491 H 0.97108 0.92268 0.88961 0.0
H492 H 0.77538 0.63112 0.91271 0.0
H493 H 0.85102 0.6535 0.91937 0.0
H494 H 0.81701 0.65993 0.9604 0.0
H495 H 0.97383 0.90313 0.82319 0.0
H496 H 0.96782 0.83761 0.81338 0.0
H497 H 0.89487 0.81967 0.80693 0.0
H498 H 0.88588 0.6163 0.81772 0.0
H499 H 0.70799 0.56848 0.8012 0.0
H500 H 0.96271 0.72742 0.88672 0.0
H501 H -0.00408 0.79153 0.85242 0.0
H502 H -0.00916 0.72722 0.8399 0.0
H503 H 0.73353 0.66555 0.86661 0.0
H504 H 0.70844 0.64952 0.81546 0.0
H505 H 0.78448 0.73373 0.83319 0.0
loop_
_geom_bond_atom_site_label_1
_geom_bond_atom_site_label_2
_geom_bond_distance
_geom_bond_site_symmetry_2
_ccdc_geom_bond_type
Dy0 O3 2.307 1_565 S
Dy0 O5 2.395 . S
Dy0 O6 2.379 . S
Dy0 O8 2.339 1_455 S
Dy0 O10 2.309 1_455 S
Dy0 O14 2.275 1_564 S
Dy0 C22 2.738 . S
Dy1 O4 2.298 1_656 S
Dy1 O7 2.275 1_546 S
Dy1 O9 2.307 1_545 S
Dy1 O11 2.395 . S
Dy1 O12 2.379 . S
Dy1 O15 2.339 1_655 S
Dy1 C31 2.738 . S
C2 O14 1.254 . S
C2 O15 1.257 . S
O3 Dy0 2.307 1_545 S
O3 C13 1.266 . S
O4 Dy1 2.298 1_454 S
O4 C13 1.236 . S
O5 Dy0 2.395 . S
O5 C22 1.255 . S
O6 Dy0 2.379 . S
O6 C22 1.249 . S
O7 Dy1 2.275 1_564 S
O7 C23 1.254 . S
O8 Dy0 2.339 1_655 S
O8 C23 1.257 . S
O9 Dy1 2.307 1_565 S
O9 C24 1.266 . S
O10 Dy0 2.309 1_655 S
O10 C24 1.219 1_554 S
O11 Dy1 2.395 . S
O11 C31 1.255 . S
O12 Dy1 2.379 . S
O12 C31 1.249 . S
C13 O3 1.266 . S
C13 O4 1.236 . S
O14 Dy0 2.275 1_546 S
O14 C2 1.254 . S
O15 Dy1 2.339 1_455 S
O15 C2 1.257 . S
C16 C19 1.344 . S
C16 C20 1.328 . S
C16 C22 1.516 . S
C17 C18 1.304 . S
C17 C21 1.323 . S
C18 C17 1.304 . S
C18 C19 1.371 . S
C18 H32 0.930 . S
C19 C16 1.344 . S
C19 C18 1.371 . S
C19 H33 0.931 . S
C20 C16 1.328 . S
C20 C21 1.433 . S
C20 H34 0.931 . S
C21 C17 1.323 . S
C21 C20 1.433 . S
C21 H35 0.933 . S
C22 Dy0 2.738 . S
C22 O5 1.255 . S
C22 O6 1.249 . S
C22 C16 1.516 . S
C23 O7 1.254 . S
C23 O8 1.257 . S
C24 O9 1.266 . S
C24 O10 1.219 1_556 S
C25 C28 1.344 . S
C25 C29 1.328 . S
C25 C31 1.516 . S
C26 C27 1.304 . S
C26 C30 1.323 . S
C27 C26 1.304 . S
C27 C28 1.371 . S
C27 H36 0.930 . S
C28 C25 1.344 . S
C28 C27 1.371 . S
C28 H37 0.931 . S
C29 C25 1.328 . S
C29 C30 1.433 . S
C29 H38 0.931 . S
C30 C26 1.323 . S
C30 C29 1.433 . S
C30 H39 0.933 . S
C31 Dy1 2.738 . S
C31 O11 1.255 . S
C31 O12 1.249 . S
C31 C25 1.516 . S
H32 C18 0.930 . S
H33 C19 0.931 . S
H34 C20 0.931 . S
H35 C21 0.933 . S
H36 C27 0.930 . S
H37 C28 0.931 . S
H38 C29 0.931 . S
H39 C30 0.933 . S
Dy40 O43 2.307 1_455 S
Dy40 O45 2.395 . S
Dy40 O46 2.379 1_565 S
Dy40 O48 2.339 1_565 S
Dy40 O50 2.298 1_565 S
Dy40 O54 2.275 1_455 S
Dy40 C62 2.738 . S
Dy41 O44 2.298 1_445 S
Dy41 O47 2.275 . S
Dy41 O49 2.307 . S
Dy41 O51 2.395 1_455 S
Dy41 O52 2.379 1_455 S
Dy41 O55 2.339 1_445 S
Dy41 C71 2.738 1_455 S
C42 O54 1.254 . S
C42 O55 1.257 . S
O43 Dy40 2.307 1_655 S
O43 C53 1.266 . S
O44 Dy41 2.298 1_665 S
O44 C53 1.236 . S
O45 Dy40 2.395 . S
O45 C62 1.255 . S
O46 Dy40 2.379 1_545 S
O46 C62 1.249 1_545 S
O47 Dy41 2.275 . S
O47 C63 1.254 . S
O48 Dy40 2.339 1_545 S
O48 C63 1.257 . S
O49 Dy41 2.307 . S
O49 C64 1.266 . S
O50 Dy40 2.298 1_545 S
O50 C64 1.236 . S
O51 Dy41 2.395 1_655 S
O51 C71 1.255 . S
O52 Dy41 2.379 1_655 S
O52 C71 1.249 . S
C53 O43 1.266 . S
C53 O44 1.236 . S
O54 Dy40 2.275 1_655 S
O54 C42 1.254 . S
O55 Dy41 2.339 1_665 S
O55 C42 1.257 . S
C56 C59 1.344 . S
C56 C60 1.328 . S
C56 C62 1.516 . S
C57 C58 1.304 . S
C57 C61 1.323 . S
C58 C57 1.304 . S
C58 C59 1.371 . S
C58 H72 0.930 . S
C59 C56 1.344 . S
C59 C58 1.371 . S
C59 H73 0.931 . S
C60 C56 1.328 . S
C60 C61 1.433 . S
C60 H74 0.931 . S
C61 C57 1.323 . S
C61 C60 1.433 . S
C61 H75 0.933 . S
C62 Dy40 2.738 . S
C62 O45 1.255 . S
C62 O46 1.249 1_565 S
C62 C56 1.516 . S
C63 O47 1.254 . S
C63 O48 1.257 . S
C64 O49 1.266 . S
C64 O50 1.236 . S
C65 C68 1.344 . S
C65 C69 1.328 . S
C65 C71 1.516 . S
C66 C67 1.304 . S
C66 C70 1.323 . S
C67 C66 1.304 . S
C67 C68 1.371 . S
C67 H76 0.930 . S
C68 C65 1.344 . S
C68 C67 1.371 . S
C68 H77 0.931 . S
C69 C65 1.328 . S
C69 C70 1.433 . S
C69 H78 0.931 . S
C70 C66 1.323 . S
C70 C69 1.433 . S
C70 H79 0.933 . S
C71 Dy41 2.738 1_655 S
C71 O51 1.255 . S
C71 O52 1.249 . S
C71 C65 1.516 . S
H72 C58 0.930 . S
H73 C59 0.931 . S
H74 C60 0.931 . S
H75 C61 0.933 . S
H76 C67 0.930 . S
H77 C68 0.931 . S
H78 C69 0.931 . S
H79 C70 0.933 . S
Zn80 O86 1.920 . S
Zn80 O92 1.898 . S
Zn80 O95 1.905 . S
Zn81 O89 1.905 . S
Zn81 O90 1.898 . S
Zn81 O98 1.920 . S
Zn82 O85 2.080 . S
Zn82 O88 2.114 . S
Zn82 O91 2.120 . S
Zn82 O93 2.120 . S
Zn82 O94 2.114 . S
Zn82 O97 2.080 . S
C83 O88 1.166 . S
C83 O89 1.182 . S
C84 O90 1.167 . S
C84 O91 1.299 . S
O85 Zn82 2.080 . S
O85 C99 1.305 . S
O86 Zn80 1.920 . S
O86 C99 1.234 . S
C87 O92 1.167 . S
C87 O93 1.299 . S
O88 Zn82 2.114 . S
O88 C83 1.166 . S
O89 Zn81 1.905 . S
O89 C83 1.182 . S
O90 Zn81 1.898 . S
O90 C84 1.167 . S
O91 Zn82 2.120 . S
O91 C84 1.299 . S
O92 Zn80 1.898 . S
O92 C87 1.167 . S
O93 Zn82 2.120 . S
O93 C87 1.299 . S
O94 Zn82 2.114 . S
O94 C96 1.166 . S
O95 Zn80 1.905 . S
O95 C96 1.182 . S
C96 O94 1.166 . S
C96 O95 1.182 . S
O97 Zn82 2.080 . S
O97 C100 1.305 . S
O98 Zn81 1.920 . S
O98 C100 1.234 . S
C99 O85 1.305 . S
C99 O86 1.234 . S
C100 O97 1.305 . S
C100 O98 1.234 . S
Zn101 O107 1.920 . S
Zn101 O113 1.898 . S
Zn101 O116 1.905 . S
Zn102 O110 1.905 . S
Zn102 O111 1.898 . S
Zn102 O119 1.920 . S
Zn103 O106 2.080 . S
Zn103 O109 2.114 . S
Zn103 O112 2.120 . S
Zn103 O114 2.120 . S
Zn103 O115 2.114 . S
Zn103 O118 2.080 . S
C104 O109 1.166 . S
C104 O110 1.182 . S
C105 O111 1.167 . S
C105 O112 1.299 . S
O106 Zn103 2.080 . S
O106 C120 1.305 . S
O107 Zn101 1.920 . S
O107 C120 1.234 . S
C108 O113 1.167 . S
C108 O114 1.299 . S
O109 Zn103 2.114 . S
O109 C104 1.166 . S
O110 Zn102 1.905 . S
O110 C104 1.182 . S
O111 Zn102 1.898 . S
O111 C105 1.167 . S
O112 Zn103 2.120 . S
O112 C105 1.299 . S
O113 Zn101 1.898 . S
O113 C108 1.167 . S
O114 Zn103 2.120 . S
O114 C108 1.299 . S
O115 Zn103 2.114 . S
O115 C117 1.166 . S
O116 Zn101 1.905 . S
O116 C117 1.182 . S
C117 O115 1.166 . S
C117 O116 1.182 . S
O118 Zn103 2.080 . S
O118 C121 1.305 . S
O119 Zn102 1.920 . S
O119 C121 1.234 . S
C120 O106 1.305 . S
C120 O107 1.234 . S
C121 O118 1.305 . S
C121 O119 1.234 . S
C122 C123 1.391 . S
C122 C124 1.394 . S
C122 H138 0.931 . S
C123 C122 1.391 . S
C123 C127 1.376 . S
C124 C122 1.394 . S
C124 C125 1.369 . S
C124 C128 1.531 . S
C125 C124 1.369 . S
C125 C126 1.410 . S
C125 C133 1.503 . S
C126 C125 1.410 . S
C126 C127 1.392 . S
C126 C129 1.511 . S
C127 C123 1.376 . S
C127 C126 1.392 . S
C127 H139 0.929 . S
C128 C124 1.531 . S
C128 H140 0.960 . S
C128 H141 0.962 . S
C128 H142 0.960 . S
C129 C126 1.511 . S
C129 H143 0.961 . S
C129 H144 0.961 . S
C129 H145 0.961 . S
C130 C131 1.370 . S
C130 C132 1.363 . S
C130 H146 0.931 . S
C131 C130 1.370 . S
C131 C135 1.408 . S
C132 C130 1.363 . S
C132 C133 1.370 . S
C132 C136 1.524 . S
C133 C125 1.503 . S
C133 C132 1.370 . S
C133 C134 1.403 . S
C134 C133 1.403 . S
C134 C135 1.404 . S
C134 C137 1.539 . S
C135 C131 1.408 . S
C135 C134 1.404 . S
C135 H147 0.930 . S
C136 C132 1.524 . S
C136 H148 0.956 . S
C136 H149 0.961 . S
C136 H150 0.961 . S
C137 C134 1.539 . S
C137 H151 0.958 . S
C137 H152 0.961 . S
C137 H153 0.960 . S
H138 C122 0.931 . S
H139 C127 0.929 . S
H140 C128 0.960 . S
H141 C128 0.962 . S
H142 C128 0.960 . S
H143 C129 0.961 . S
H144 C129 0.961 . S
H145 C129 0.961 . S
H146 C130 0.931 . S
H147 C135 0.930 . S
H148 C136 0.956 . S
H149 C136 0.961 . S
H150 C136 0.961 . S
H151 C137 0.958 . S
H152 C137 0.961 . S
H153 C137 0.960 . S
C154 C155 1.391 . S
C154 C156 1.394 . S
C154 H170 0.931 . S
C155 C154 1.391 . S
C155 C159 1.376 . S
C156 C154 1.394 . S
C156 C157 1.369 . S
C156 C160 1.531 . S
C157 C156 1.369 . S
C157 C158 1.410 . S
C157 C165 1.503 . S
C158 C157 1.410 . S
C158 C159 1.392 . S
C158 C161 1.511 . S
C159 C155 1.376 . S
C159 C158 1.392 . S
C159 H171 0.929 . S
C160 C156 1.531 . S
C160 H172 0.960 . S
C160 H173 0.962 . S
C160 H174 0.960 . S
C161 C158 1.511 . S
C161 H175 0.961 . S
C161 H176 0.961 . S
C161 H177 0.961 . S
C162 C163 1.370 . S
C162 C164 1.363 . S
C162 H178 0.931 . S
C163 C162 1.370 . S
C163 C167 1.408 . S
C164 C162 1.363 . S
C164 C165 1.370 . S
C164 C168 1.524 . S
C165 C157 1.503 . S
C165 C164 1.370 . S
C165 C166 1.403 . S
C166 C165 1.403 . S
C166 C167 1.404 . S
C166 C169 1.539 . S
C167 C163 1.408 . S
C167 C166 1.404 . S
C167 H179 0.930 . S
C168 C164 1.524 . S
C168 H180 0.956 . S
C168 H181 0.961 . S
C168 H182 0.961 . S
C169 C166 1.539 . S
C169 H183 0.958 . S
C169 H184 0.961 . S
C169 H185 0.960 . S
H170 C154 0.931 . S
H171 C159 0.929 . S
H172 C160 0.960 . S
H173 C160 0.962 . S
H174 C160 0.960 . S
H175 C161 0.961 . S
H176 C161 0.961 . S
H177 C161 0.961 . S
H178 C162 0.931 . S
H179 C167 0.930 . S
H180 C168 0.956 . S
H181 C168 0.961 . S
H182 C168 0.961 . S
H183 C169 0.958 . S
H184 C169 0.961 . S
H185 C169 0.960 . S
C186 C187 1.391 . S
C186 C188 1.394 . S
C186 H202 0.931 . S
C187 C186 1.391 . S
C187 C191 1.376 . S
C188 C186 1.394 . S
C188 C189 1.369 . S
C188 C192 1.531 . S
C189 C188 1.369 . S
C189 C190 1.410 . S
C189 C197 1.503 . S
C190 C189 1.410 . S
C190 C191 1.392 . S
C190 C193 1.511 . S
C191 C187 1.376 . S
C191 C190 1.392 . S
C191 H203 0.929 . S
C192 C188 1.531 . S
C192 H204 0.960 . S
C192 H205 0.962 . S
C192 H206 0.960 . S
C193 C190 1.511 . S
C193 H207 0.961 . S
C193 H208 0.961 . S
C193 H209 0.961 . S
C194 C195 1.370 . S
C194 C196 1.363 . S
C194 H210 0.931 . S
C195 C194 1.370 . S
C195 C199 1.408 . S
C196 C194 1.363 . S
C196 C197 1.370 . S
C196 C200 1.524 . S
C197 C189 1.503 . S
C197 C196 1.370 . S
C197 C198 1.403 . S
C198 C197 1.403 . S
C198 C199 1.404 . S
C198 C201 1.539 . S
C199 C195 1.408 . S
C199 C198 1.404 . S
C199 H211 0.930 . S
C200 C196 1.524 . S
C200 H212 0.956 . S
C200 H213 0.961 . S
C200 H214 0.961 . S
C201 C198 1.539 . S
C201 H215 0.958 . S
C201 H216 0.961 . S
C201 H217 0.960 . S
H202 C186 0.931 . S
H203 C191 0.929 . S
H204 C192 0.960 . S
H205 C192 0.962 . S
H206 C192 0.960 . S
H207 C193 0.961 . S
H208 C193 0.961 . S
H209 C193 0.961 . S
H210 C194 0.931 . S
H211 C199 0.930 . S
H212 C200 0.956 . S
H213 C200 0.961 . S
H214 C200 0.961 . S
H215 C201 0.958 . S
H216 C201 0.961 . S
H217 C201 0.960 . S
C218 C219 1.391 . S
C218 C220 1.394 . S
C218 H234 0.931 . S
C219 C218 1.391 . S
C219 C223 1.376 . S
C220 C218 1.394 . S
C220 C221 1.369 . S
C220 C224 1.531 . S
C221 C220 1.369 . S
C221 C222 1.410 . S
C221 C229 1.503 . S
C222 C221 1.410 . S
C222 C223 1.392 . S
C222 C225 1.511 . S
C223 C219 1.376 . S
C223 C222 1.392 . S
C223 H235 0.929 . S
C224 C220 1.531 . S
C224 H236 0.960 . S
C224 H237 0.962 . S
C224 H238 0.960 . S
C225 C222 1.511 . S
C225 H239 0.961 . S
C225 H240 0.961 . S
C225 H241 0.961 . S
C226 C227 1.370 . S
C226 C228 1.363 . S
C226 H242 0.931 . S
C227 C226 1.370 . S
C227 C231 1.408 . S
C228 C226 1.363 . S
C228 C229 1.370 . S
C228 C232 1.524 . S
C229 C221 1.503 . S
C229 C228 1.370 . S
C229 C230 1.403 . S
C230 C229 1.403 . S
C230 C231 1.404 . S
C230 C233 1.539 . S
C231 C227 1.408 . S
C231 C230 1.404 . S
C231 H243 0.930 . S
C232 C228 1.524 . S
C232 H244 0.956 . S
C232 H245 0.961 . S
C232 H246 0.961 . S
C233 C230 1.539 . S
C233 H247 0.958 . S
C233 H248 0.961 . S
C233 H249 0.960 . S
H234 C218 0.931 . S
H235 C223 0.929 . S
H236 C224 0.960 . S
H237 C224 0.962 . S
H238 C224 0.960 . S
H239 C225 0.961 . S
H240 C225 0.961 . S
H241 C225 0.961 . S
H242 C226 0.931 . S
H243 C231 0.930 . S
H244 C232 0.956 . S
H245 C232 0.961 . S
H246 C232 0.961 . S
H247 C233 0.958 . S
H248 C233 0.961 . S
H249 C233 0.960 . S
C250 C251 1.391 . S
C250 C252 1.394 . S
C250 H266 0.931 . S
C251 C250 1.391 . S
C251 C255 1.376 . S
C252 C250 1.394 . S
C252 C253 1.369 . S
C252 C256 1.531 . S
C253 C252 1.369 . S
C253 C254 1.410 . S
C253 C261 1.503 . S
C254 C253 1.410 . S
C254 C255 1.392 . S
C254 C257 1.511 . S
C255 C251 1.376 . S
C255 C254 1.392 . S
C255 H267 0.929 . S
C256 C252 1.531 . S
C256 H268 0.960 . S
C256 H269 0.962 . S
C256 H270 0.960 . S
C257 C254 1.511 . S
C257 H271 0.961 . S
C257 H272 0.961 . S
C257 H273 0.961 . S
C258 C259 1.370 . S
C258 C260 1.363 . S
C258 H274 0.931 . S
C259 C258 1.370 . S
C259 C263 1.408 . S
C260 C258 1.363 . S
C260 C261 1.370 . S
C260 C264 1.524 . S
C261 C253 1.503 . S
C261 C260 1.370 . S
C261 C262 1.403 . S
C262 C261 1.403 . S
C262 C263 1.404 . S
C262 C265 1.539 . S
C263 C259 1.408 . S
C263 C262 1.404 . S
C263 H275 0.930 . S
C264 C260 1.524 . S
C264 H276 0.956 . S
C264 H277 0.961 . S
C264 H278 0.961 . S
C265 C262 1.539 . S
C265 H279 0.958 . S
C265 H280 0.961 . S
C265 H281 0.960 . S
H266 C250 0.931 . S
H267 C255 0.929 . S
H268 C256 0.960 . S
H269 C256 0.962 . S
H270 C256 0.960 . S
H271 C257 0.961 . S
H272 C257 0.961 . S
H273 C257 0.961 . S
H274 C258 0.931 . S
H275 C263 0.930 . S
H276 C264 0.956 . S
H277 C264 0.961 . S
H278 C264 0.961 . S
H279 C265 0.958 . S
H280 C265 0.961 . S
H281 C265 0.960 . S
C282 C283 1.391 . S
C282 C284 1.394 . S
C282 H298 0.919 1_655 S
C283 C282 1.391 . S
C283 C287 1.376 . S
C284 C282 1.394 . S
C284 C285 1.369 . S
C284 C288 1.531 . S
C285 C284 1.369 . S
C285 C286 1.410 . S
C285 C293 1.503 . S
C286 C285 1.410 . S
C286 C287 1.392 . S
C286 C289 1.511 . S
C287 C283 1.376 . S
C287 C286 1.392 . S
C287 H299 0.929 . S
C288 C284 1.531 . S
C288 H300 0.960 . S
C288 H301 0.962 . S
C288 H302 0.960 . S
C289 C286 1.511 . S
C289 H303 0.961 . S
C289 H304 0.961 . S
C289 H305 0.961 . S
C290 C291 1.370 . S
C290 C292 1.363 . S
C290 H306 0.931 . S
C291 C290 1.370 . S
C291 C295 1.408 . S
C292 C290 1.363 . S
C292 C293 1.370 . S
C292 C296 1.524 . S
C293 C285 1.503 . S
C293 C292 1.370 . S
C293 C294 1.403 . S
C294 C293 1.403 . S
C294 C295 1.404 . S
C294 C297 1.539 . S
C295 C291 1.408 . S
C295 C294 1.404 . S
C295 H307 0.930 . S
C296 C292 1.524 . S
C296 H308 0.956 . S
C296 H309 0.961 . S
C296 H310 0.961 . S
C297 C294 1.539 . S
C297 H311 0.958 . S
C297 H312 0.961 . S
C297 H313 0.960 . S
H298 C282 0.919 1_455 S
H299 C287 0.929 . S
H300 C288 0.960 . S
H301 C288 0.962 . S
H302 C288 0.960 . S
H303 C289 0.961 . S
H304 C289 0.961 . S
H305 C289 0.961 . S
H306 C290 0.931 . S
H307 C295 0.930 . S
H308 C296 0.956 . S
H309 C296 0.961 . S
H310 C296 0.961 . S
H311 C297 0.958 . S
H312 C297 0.961 . S
H313 C297 0.960 . S
C314 C315 1.391 . S
C314 C316 1.394 . S
C314 H330 0.931 . S
C315 C314 1.391 . S
C315 C319 1.376 . S
C316 C314 1.394 . S
C316 C317 1.369 . S
C316 C320 1.531 . S
C317 C316 1.369 . S
C317 C318 1.410 . S
C317 C325 1.503 . S
C318 C317 1.410 . S
C318 C319 1.392 . S
C318 C321 1.511 . S
C319 C315 1.376 . S
C319 C318 1.392 . S
C319 H331 0.929 . S
C320 C316 1.531 . S
C320 H332 0.960 . S
C320 H333 0.962 . S
C320 H334 0.960 1_565 S
C321 C318 1.511 . S
C321 H335 0.961 . S
C321 H336 0.961 . S
C321 H337 0.961 . S
C322 C323 1.370 . S
C322 C324 1.363 . S
C322 H338 0.931 . S
C323 C322 1.370 . S
C323 C327 1.408 . S
C324 C322 1.363 . S
C324 C325 1.370 . S
C324 C328 1.524 . S
C325 C317 1.503 . S
C325 C324 1.370 . S
C325 C326 1.403 . S
C326 C325 1.403 . S
C326 C327 1.404 . S
C326 C329 1.539 . S
C327 C323 1.408 . S
C327 C326 1.404 . S
C327 H339 0.930 . S
C328 C324 1.524 . S
C328 H340 0.956 . S
C328 H341 0.961 . S
C328 H342 0.961 . S
C329 C326 1.539 . S
C329 H343 0.958 . S
C329 H344 0.961 . S
C329 H345 0.960 . S
H330 C314 0.931 . S
H331 C319 0.929 . S
H332 C320 0.960 . S
H333 C320 0.962 . S
H334 C320 0.960 1_545 S
H335 C321 0.961 . S
H336 C321 0.961 . S
H337 C321 0.961 . S
H338 C322 0.931 . S
H339 C327 0.930 . S
H340 C328 0.956 . S
H341 C328 0.961 . S
H342 C328 0.961 . S
H343 C329 0.958 . S
H344 C329 0.961 . S
H345 C329 0.960 . S
C346 C347 1.391 . S
C346 C348 1.394 . S
C346 H362 0.931 . S
C347 C346 1.391 . S
C347 C351 1.376 . S
C348 C346 1.394 . S
C348 C349 1.369 . S
C348 C352 1.531 . S
C349 C348 1.369 . S
C349 C350 1.410 . S
C349 C357 1.503 . S
C350 C349 1.410 . S
C350 C351 1.392 . S
C350 C353 1.511 . S
C351 C347 1.376 . S
C351 C350 1.392 . S
C351 H363 0.929 . S
C352 C348 1.531 . S
C352 H364 0.960 . S
C352 H365 0.962 . S
C352 H366 0.960 . S
C353 C350 1.511 . S
C353 H367 0.961 . S
C353 H368 0.961 . S
C353 H369 0.961 . S
C354 C355 1.370 . S
C354 C356 1.363 . S
C354 H370 0.931 . S
C355 C354 1.370 . S
C355 C359 1.408 . S
C356 C354 1.363 . S
C356 C357 1.370 . S
C356 C360 1.524 . S
C357 C349 1.503 . S
C357 C356 1.370 . S
C357 C358 1.403 . S
C358 C357 1.403 . S
C358 C359 1.404 . S
C358 C361 1.539 . S
C359 C355 1.408 . S
C359 C358 1.404 . S
C359 H371 0.930 . S
C360 C356 1.524 . S
C360 H372 0.956 . S
C360 H373 0.961 . S
C360 H374 0.961 . S
C361 C358 1.539 . S
C361 H375 0.958 . S
C361 H376 0.961 . S
C361 H377 0.960 . S
H362 C346 0.931 . S
H363 C351 0.929 . S
H364 C352 0.960 . S
H365 C352 0.962 . S
H366 C352 0.960 . S
H367 C353 0.961 . S
H368 C353 0.961 . S
H369 C353 0.961 . S
H370 C354 0.931 . S
H371 C359 0.930 . S
H372 C360 0.956 . S
H373 C360 0.961 . S
H374 C360 0.961 . S
H375 C361 0.958 . S
H376 C361 0.961 . S
H377 C361 0.960 . S
C378 C379 1.391 . S
C378 C380 1.394 . S
C378 H394 0.931 . S
C379 C378 1.391 . S
C379 C383 1.376 . S
C380 C378 1.394 . S
C380 C381 1.369 . S
C380 C384 1.531 . S
C381 C380 1.369 . S
C381 C382 1.410 . S
C381 C389 1.503 . S
C382 C381 1.410 . S
C382 C383 1.392 . S
C382 C385 1.511 . S
C383 C379 1.376 . S
C383 C382 1.392 . S
C383 H395 0.929 . S
C384 C380 1.531 . S
C384 H396 0.960 . S
C384 H397 0.962 . S
C384 H398 0.960 . S
C385 C382 1.511 . S
C385 H399 0.961 . S
C385 H400 0.961 . S
C385 H401 0.961 . S
C386 C387 1.370 . S
C386 C388 1.363 . S
C386 H402 0.931 . S
C387 C386 1.370 . S
C387 C391 1.408 . S
C388 C386 1.363 . S
C388 C389 1.370 . S
C388 C392 1.524 . S
C389 C381 1.503 . S
C389 C388 1.370 . S
C389 C390 1.403 . S
C390 C389 1.403 . S
C390 C391 1.404 . S
C390 C393 1.539 . S
C391 C387 1.408 . S
C391 C390 1.404 . S
C391 H403 0.930 . S
C392 C388 1.524 . S
C392 H404 0.956 . S
C392 H405 0.961 . S
C392 H406 0.961 . S
C393 C390 1.539 . S
C393 H407 0.958 . S
C393 H408 0.961 . S
C393 H409 0.960 . S
H394 C378 0.931 . S
H395 C383 0.929 . S
H396 C384 0.960 . S
H397 C384 0.962 . S
H398 C384 0.960 . S
H399 C385 0.961 . S
H400 C385 0.961 . S
H401 C385 0.961 . S
H402 C386 0.931 . S
H403 C391 0.930 . S
H404 C392 0.956 . S
H405 C392 0.961 . S
H406 C392 0.961 . S
H407 C393 0.958 . S
H408 C393 0.961 . S
H409 C393 0.960 . S
C410 C411 1.391 . S
C410 C412 1.394 . S
C410 H426 0.931 . S
C411 C410 1.391 . S
C411 C415 1.376 . S
C412 C410 1.394 . S
C412 C413 1.369 . S
C412 C416 1.531 . S
C413 C412 1.369 . S
C413 C414 1.410 . S
C413 C421 1.503 . S
C414 C413 1.410 . S
C414 C415 1.392 . S
C414 C417 1.511 . S
C415 C411 1.376 . S
C415 C414 1.392 . S
C415 H427 0.929 . S
C416 C412 1.531 . S
C416 H428 0.960 . S
C416 H429 0.962 . S
C416 H430 0.960 . S
C417 C414 1.511 . S
C417 H431 0.961 . S
C417 H432 0.961 . S
C417 H433 0.961 . S
C418 C419 1.370 . S
C418 C420 1.363 . S
C418 H434 0.931 . S
C419 C418 1.370 . S
C419 C423 1.408 . S
C420 C418 1.363 . S
C420 C421 1.370 . S
C420 C424 1.524 . S
C421 C413 1.503 . S
C421 C420 1.370 . S
C421 C422 1.403 . S
C422 C421 1.403 . S
C422 C423 1.404 . S
C422 C425 1.539 . S
C423 C419 1.408 . S
C423 C422 1.404 . S
C423 H435 0.930 . S
C424 C420 1.524 . S
C424 H436 0.956 . S
C424 H437 0.961 . S
C424 H438 0.961 . S
C425 C422 1.539 . S
C425 H439 0.958 . S
C425 H440 0.961 . S
C425 H441 0.960 . S
H426 C410 0.931 . S
H427 C415 0.929 . S
H428 C416 0.960 . S
H429 C416 0.962 . S
H430 C416 0.960 . S
H431 C417 0.961 . S
H432 C417 0.961 . S
H433 C417 0.961 . S
H434 C418 0.931 . S
H435 C423 0.930 . S
H436 C424 0.956 . S
H437 C424 0.961 . S
H438 C424 0.961 . S
H439 C425 0.958 . S
H440 C425 0.961 . S
H441 C425 0.960 . S
C442 C443 1.391 . S
C442 C444 1.394 . S
C442 H458 0.931 . S
C443 C442 1.391 . S
C443 C447 1.376 . S
C444 C442 1.394 . S
C444 C445 1.369 . S
C444 C448 1.531 . S
C445 C444 1.369 . S
C445 C446 1.410 . S
C445 C453 1.503 . S
C446 C445 1.410 . S
C446 C447 1.392 . S
C446 C449 1.511 . S
C447 C443 1.376 . S
C447 C446 1.392 . S
C447 H459 0.929 . S
C448 C444 1.531 . S
C448 H460 0.960 . S
C448 H461 0.962 . S
C448 H462 0.960 . S
C449 C446 1.511 . S
C449 H463 0.961 . S
C449 H464 0.961 . S
C449 H465 0.961 . S
C450 C451 1.370 . S
C450 C452 1.363 . S
C450 H466 0.931 . S
C451 C450 1.370 . S
C451 C455 1.408 . S
C452 C450 1.363 . S
C452 C453 1.370 . S
C452 C456 1.524 . S
C453 C445 1.503 . S
C453 C452 1.370 . S
C453 C454 1.403 . S
C454 C453 1.403 . S
C454 C455 1.404 . S
C454 C457 1.539 . S
C455 C451 1.408 . S
C455 C454 1.404 . S
C455 H467 0.930 . S
C456 C452 1.524 . S
C456 H468 0.956 . S
C456 H469 0.961 . S
C456 H470 0.961 . S
C457 C454 1.539 . S
C457 H471 0.958 . S
C457 H472 0.961 . S
C457 H473 0.960 . S
H458 C442 0.931 . S
H459 C447 0.929 . S
H460 C448 0.960 . S
H461 C448 0.962 . S
H462 C448 0.960 . S
H463 C449 0.961 . S
H464 C449 0.961 . S
H465 C449 0.961 . S
H466 C450 0.931 . S
H467 C455 0.930 . S
H468 C456 0.956 . S
H469 C456 0.961 . S
H470 C456 0.961 . S
H471 C457 0.958 . S
H472 C457 0.961 . S
H473 C457 0.960 . S
C474 C475 1.391 . S
C474 C476 1.394 . S
C474 H490 0.931 . S
C475 C474 1.391 . S
C475 C479 1.376 . S
C476 C474 1.394 . S
C476 C477 1.369 . S
C476 C480 1.531 . S
C477 C476 1.369 . S
C477 C478 1.410 . S
C477 C485 1.503 . S
C478 C477 1.410 . S
C478 C479 1.392 . S
C478 C481 1.511 . S
C479 C475 1.376 . S
C479 C478 1.392 . S
C479 H491 0.929 1_655 S
C480 C476 1.531 . S
C480 H492 0.960 . S
C480 H493 0.962 . S
C480 H494 0.960 . S
C481 C478 1.511 . S
C481 H495 0.961 1_655 S
C481 H496 0.961 . S
C481 H497 0.961 . S
C482 C483 1.370 . S
C482 C484 1.363 . S
C482 H498 0.931 . S
C483 C482 1.370 . S
C483 C487 1.408 . S
C484 C482 1.363 . S
C484 C485 1.370 . S
C484 C488 1.524 . S
C485 C477 1.503 . S
C485 C484 1.370 . S
C485 C486 1.403 . S
C486 C485 1.403 . S
C486 C487 1.404 . S
C486 C489 1.539 . S
C487 C483 1.408 . S
C487 C486 1.404 . S
C487 H499 0.930 . S
C488 C484 1.524 . S
C488 H500 0.956 . S
C488 H501 0.961 . S
C488 H502 0.961 . S
C489 C486 1.539 . S
C489 H503 0.958 . S
C489 H504 0.961 . S
C489 H505 0.960 . S
H490 C474 0.931 . S
H491 C479 0.929 1_455 S
H492 C480 0.960 . S
H493 C480 0.962 . S
H494 C480 0.960 . S
H495 C481 0.961 1_455 S
H496 C481 0.961 . S
H497 C481 0.961 . S
H498 C482 0.931 . S
H499 C487 0.930 . S
H500 C488 0.956 . S
H501 C488 0.961 . S
H502 C488 0.961 . S
H503 C489 0.958 . S
H504 C489 0.961 . S
H505 C489 0.960 . S
C123 C17 1.338 . S
C131 C99 1.227 . S
C155 C64 1.355 . S
C163 C105 1.230 . S
C187 C13 1.419 . S
C195 C96 1.316 . S
C219 C66 1.397 . S
C227 C121 1.263 . S
C251 C23 1.775 . S
C259 C87 1.609 . S
C291 C104 1.725 . S
C283 C42 1.815 . S
C315 C57 1.337 . S
C323 C100 1.225 . S
C355 C117 1.726 . S
C347 C2 1.830 . S
C387 C84 1.615 . S
C379 C63 1.796 . S
C419 C120 1.265 . S
C411 C26 1.385 . S
C451 C83 1.307 . S
C443 C53 1.458 . S
C483 C108 1.222 . S
C475 C24 1.347 . S
