# Generated by pormake.
# Topology pth, (4,4)-cn, num edge types: 1
# Building blocks:
#     Node 0, Type 0, BuildingBlock: TATPOV_clean_sbu_0, # of connection points: 4
#     Node 1, Type 0, BuildingBlock: TATPOV_clean_sbu_0, # of connection points: 4
#     Node 2, Type 0, BuildingBlock: TATPOV_clean_sbu_0, # of connection points: 4
#     Node 3, Type 1, BuildingBlock: NAWXER_clean_sbu_0, # of connection points: 4
#     Node 4, Type 1, BuildingBlock: NAWXER_clean_sbu_0, # of connection points: 4
#     Node 5, Type 1, BuildingBlock: NAWXER_clean_sbu_0, # of connection points: 4
#     Edge 6, Type (0, 1), BuildingBlock: CIFDUS_clean_linker_0, # of connection points: 2
#     Edge 7, Type (0, 1), BuildingBlock: CIFDUS_clean_linker_0, # of connection points: 2
#     Edge 8, Type (0, 1), BuildingBlock: CIFDUS_clean_linker_0, # of connection points: 2
#     Edge 9, Type (0, 1), BuildingBlock: CIFDUS_clean_linker_0, # of connection points: 2
#     Edge 10, Type (0, 1), BuildingBlock: CIFDUS_clean_linker_0, # of connection points: 2
#     Edge 11, Type (0, 1), BuildingBlock: CIFDUS_clean_linker_0, # of connection points: 2
#     Edge 12, Type (0, 1), BuildingBlock: CIFDUS_clean_linker_0, # of connection points: 2
#     Edge 13, Type (0, 1), BuildingBlock: CIFDUS_clean_linker_0, # of connection points: 2
#     Edge 14, Type (0, 1), BuildingBlock: CIFDUS_clean_linker_0, # of connection points: 2
#     Edge 15, Type (0, 1), BuildingBlock: CIFDUS_clean_linker_0, # of connection points: 2
#     Edge 16, Type (0, 1), BuildingBlock: CIFDUS_clean_linker_0, # of connection points: 2
#     Edge 17, Type (0, 1), BuildingBlock: CIFDUS_clean_linker_0, # of connection points: 2
# Relax obj value: 0.049
# Max RMSD: 0.172
# Mean RMSD: 0.098
data_MOF--net-pth--node1-TATPOV_clean_sbu_0--node2-NAWXER_clean_sbu_0--edge1-CIFDUS_clean_linker_0
_symmetry_space_group_name_H-M    P1
_symmetry_Int_Tables_number       1
_symmetry_cell_setting            triclinic
loop_
_symmetry_equiv_pos_as_xyz
'x, y, z'
_cell_length_a     20.092364
_cell_length_b     19.952799
_cell_length_c     50.184595
_cell_angle_alpha  92.7613
_cell_angle_beta   91.9838
_cell_angle_gamma 120.91821
loop_
_atom_site_label
_atom_site_type_symbol
_atom_site_fract_x
_atom_site_fract_y
_atom_site_fract_z
_atom_type_partial_charge
Zn0 Zn 0.19467 0.04104 0.02736 0.0
Zn1 Zn 0.11734 0.0965 0.05017 0.0
O2 O 0.12751 0.02437 0.07657 0.0
O3 O 0.2058 0.99048 0.05911 0.0
O4 O 0.09031 0.16037 0.07487 0.0
O5 O 0.28227 0.14374 0.01754 0.0
O6 O 0.20978 0.188 0.03277 0.0
C7 C 0.1639 0.98768 0.07774 0.0
C8 C 0.03331 0.9804 0.00448 0.0
O9 O 0.02911 0.02632 0.02204 0.0
O10 O 0.09553 0.97889 0.00316 0.0
C11 C 0.03914 0.1793 0.07231 0.0
O12 O 0.98898 0.15084 0.05135 0.0
C13 C 0.27009 0.19945 0.0214 0.0
Zn14 Zn 0.21905 0.21249 0.36407 0.0
Zn15 Zn 0.08227 0.12683 0.38294 0.0
O16 O 0.16616 0.14118 0.4117 0.0
O17 O 0.2801 0.22911 0.39865 0.0
O18 O 0.98738 0.08961 0.40436 0.0
O19 O 0.19773 0.29424 0.3517 0.0
O20 O 0.08032 0.21688 0.36453 0.0
C21 C 0.23992 0.18263 0.41569 0.0
C22 C 0.12226 0.04764 0.34062 0.0
O23 O 0.06927 0.04148 0.35545 0.0
O24 O 0.18664 0.11205 0.34092 0.0
C25 C 0.99185 0.14331 0.42055 0.0
O26 O 0.05553 0.21287 0.4221 0.0
C27 C 0.12864 0.27831 0.35369 0.0
Zn28 Zn 0.09044 0.90131 0.7333 0.0
Zn29 Zn 0.03376 0.97934 0.71084 0.0
O30 O 0.1054 0.96996 0.68389 0.0
O31 O 0.1397 0.89117 0.70053 0.0
O32 O 0.97269 0.01315 0.68816 0.0
O33 O 0.98715 0.81369 0.74305 0.0
O34 O 0.94287 0.88568 0.72774 0.0
C35 C 0.14205 0.93353 0.68222 0.0
C36 C 0.14909 0.06306 0.75695 0.0
O37 O 0.10303 0.06611 0.73957 0.0
O38 O 0.15232 0.0013 0.75796 0.0
C39 C 0.92028 0.95946 0.67181 0.0
O40 O 0.91269 0.8899 0.67038 0.0
C41 C 0.93156 0.82538 0.73912 0.0
C42 C 0.14011 0.71742 0.25048 0.0
C43 C 0.11628 0.51433 0.18464 0.0
O44 O 0.19686 0.71248 0.24219 0.0
Zn45 Zn 0.13483 0.61791 0.21841 0.0
O46 O 0.07043 0.66599 0.24183 0.0
Zn47 Zn 0.00795 0.56405 0.21491 0.0
O48 O 0.94765 0.48241 0.23968 0.0
O49 O 0.07473 0.5352 0.24587 0.0
O50 O 0.05155 0.50834 0.18986 0.0
O51 O 0.17919 0.56874 0.19682 0.0
O52 O 0.09193 0.66158 0.18973 0.0
O53 O 0.96422 0.6046 0.18855 0.0
C54 C 1.00619 0.48797 0.25267 0.0
C55 C 0.02913 0.65507 0.17999 0.0
C56 C 0.60749 0.97253 0.57268 0.0
C57 C 0.45233 0.02753 0.50886 0.0
O58 O 0.55298 0.92117 0.5563 0.0
Zn59 Zn 0.52612 0.99208 0.53961 0.0
O60 O 0.62433 0.04376 0.5732 0.0
Zn61 Zn 0.59206 0.11614 0.55427 0.0
O62 O 0.5505 0.15003 0.58352 0.0
O63 O 0.47896 0.02354 0.57135 0.0
O64 O 0.50543 0.08635 0.52354 0.0
O65 O 0.44321 0.95994 0.51112 0.0
O66 O 0.62833 0.06256 0.51992 0.0
O67 O 0.68759 0.18523 0.53689 0.0
C68 C 0.49082 0.08298 0.58627 0.0
C69 C 0.68512 0.13336 0.52031 0.0
C70 C 0.47383 0.51773 0.91992 0.0
C71 C 0.60229 0.63292 0.83841 0.0
O72 O 0.46122 0.56314 0.90646 0.0
Zn73 Zn 0.53483 0.57842 0.87907 0.0
O74 O 0.52173 0.49813 0.91202 0.0
Zn75 Zn 0.59607 0.5161 0.88108 0.0
O76 O 0.69607 0.56385 0.9002 0.0
O77 O 0.64494 0.63891 0.90207 0.0
O78 O 0.61986 0.58589 0.84849 0.0
O79 O 0.55518 0.6478 0.84986 0.0
O80 O 0.47735 0.46426 0.85794 0.0
O81 O 0.55069 0.41261 0.86376 0.0
C82 C 0.70051 0.6274 0.90842 0.0
C83 C 0.48894 0.40722 0.85376 0.0
H84 H 0.15807 0.27933 0.10816 0.0
H85 H 0.92459 0.21212 0.08052 0.0
H86 H 0.92854 0.31018 0.1128 0.0
H87 H 0.99802 0.41437 0.14877 0.0
H88 H 0.23325 0.4852 0.17538 0.0
H89 H 0.22904 0.38636 0.14335 0.0
C90 C 0.10781 0.28578 0.10927 0.0
C91 C 0.04077 0.23792 0.09207 0.0
C92 C 0.111 0.34309 0.12756 0.0
C93 C 0.97674 0.24798 0.09352 0.0
C94 C 0.97901 0.30406 0.11197 0.0
C95 C 0.0485 0.40831 0.14762 0.0
C96 C 0.11581 0.45696 0.16459 0.0
C97 C 0.04581 0.35188 0.12906 0.0
C98 C 0.18082 0.4487 0.16257 0.0
C99 C 0.17832 0.39201 0.14431 0.0
H100 H 0.98435 0.24876 0.45496 0.0
H101 H 0.8526 0.00695 0.42329 0.0
H102 H 0.74574 0.98451 0.45061 0.0
H103 H 0.69095 0.03235 0.4838 0.0
H104 H 0.82181 0.27341 0.51621 0.0
H105 H 0.92792 0.29751 0.48794 0.0
C106 C 0.93229 0.19105 0.454 0.0
C107 C 0.92674 0.12946 0.43711 0.0
C108 C 0.87097 0.17856 0.46979 0.0
C109 C 0.85864 0.05529 0.4361 0.0
C110 C 0.79745 0.04246 0.45171 0.0
C111 C 0.74243 0.09049 0.48471 0.0
C112 C 0.74827 0.15106 0.50222 0.0
C113 C 0.80316 0.10356 0.46865 0.0
C114 C 0.81559 0.22579 0.50295 0.0
C115 C 0.87635 0.23947 0.48684 0.0
H116 H 0.83044 0.86431 0.7592 0.0
H117 H 0.86603 0.67026 0.74504 0.0
H118 H 0.75594 0.58889 0.77106 0.0
H119 H 0.6635 0.57906 0.80282 0.0
H120 H 0.63345 0.7749 0.82112 0.0
H121 H 0.72602 0.84902 0.78797 0.0
C122 C 0.81272 0.80362 0.76132 0.0
C123 C 0.8565 0.77329 0.75041 0.0
C124 C 0.75097 0.75795 0.77723 0.0
C125 C 0.83356 0.69491 0.75344 0.0
C126 C 0.77076 0.64848 0.76835 0.0
C127 C 0.6762 0.63762 0.79931 0.0
C128 C 0.64274 0.67203 0.8147 0.0
C129 C 0.73119 0.68036 0.78114 0.0
C130 C 0.65861 0.74723 0.80955 0.0
C131 C 0.71205 0.78977 0.79078 0.0
H132 H 0.03139 0.90036 0.10343 0.0
H133 H 0.26756 0.95345 0.09861 0.0
H134 H 0.24423 0.85287 0.12888 0.0
H135 H 0.15736 0.74816 0.15501 0.0
H136 H 0.91983 0.68973 0.16078 0.0
H137 H 0.94239 0.79304 0.13106 0.0
C138 C 0.07794 0.89067 0.10947 0.0
C139 C 0.15143 0.93471 0.09903 0.0
C140 C 0.06342 0.83093 0.12643 0.0
C141 C 0.21081 0.92058 0.10649 0.0
C142 C 0.19735 0.86279 0.12364 0.0
C143 C 0.11 0.75754 0.1499 0.0
C144 C 0.03687 0.71113 0.16019 0.0
C145 C 0.12377 0.81708 0.13337 0.0
C146 C 0.97648 0.72417 0.153 0.0
C147 C 0.98966 0.78367 0.13622 0.0
H148 H 0.20272 0.04091 0.43216 0.0
H149 H 0.37024 0.28823 0.44591 0.0
H150 H 0.45008 0.26077 0.47605 0.0
H151 H 0.47587 0.16733 0.49607 0.0
H152 H 0.31392 0.9188 0.481 0.0
H153 H 0.2286 0.94573 0.45314 0.0
C154 C 0.25583 0.08868 0.44231 0.0
C155 C 0.2802 0.16664 0.43728 0.0
C156 C 0.30302 0.07213 0.45872 0.0
C157 C 0.35013 0.22801 0.4498 0.0
C158 C 0.39596 0.21224 0.46681 0.0
C159 C 0.42186 0.11864 0.48678 0.0
C160 C 0.40138 0.04098 0.49061 0.0
C161 C 0.37368 0.13459 0.47095 0.0
C162 C 0.33136 0.97902 0.47822 0.0
C163 C 0.28239 0.99448 0.46247 0.0
H164 H 0.27057 0.08254 0.7886 0.0
H165 H 0.14994 0.20038 0.7657 0.0
H166 H 0.24394 0.31686 0.79416 0.0
H167 H 0.36199 0.38581 0.82459 0.0
H168 H 0.48418 0.26832 0.84605 0.0
H169 H 0.38756 0.15076 0.8189 0.0
C170 C 0.26427 0.1334 0.78992 0.0
C171 C 0.20305 0.13259 0.77508 0.0
C172 C 0.31901 0.20028 0.80592 0.0
C173 C 0.19643 0.1994 0.77691 0.0
C174 C 0.25022 0.26601 0.79315 0.0
C175 C 0.36745 0.33444 0.8234 0.0
C176 C 0.43032 0.33591 0.83735 0.0
C177 C 0.31203 0.26724 0.80758 0.0
C178 C 0.43659 0.26892 0.83547 0.0
C179 C 0.38128 0.20161 0.81999 0.0
H180 H 0.79942 0.85443 0.63712 0.0
H181 H 0.92049 0.09596 0.66918 0.0
H182 H 0.8322 0.11916 0.64207 0.0
H183 H 0.72294 0.07221 0.60915 0.0
H184 H 0.60107 0.83168 0.57616 0.0
H185 H 0.68735 0.80653 0.60413 0.0
C186 C 0.80661 0.91222 0.63818 0.0
C187 C 0.86687 0.97352 0.65515 0.0
C188 C 0.75544 0.92519 0.62251 0.0
C189 C 0.87495 0.04783 0.6563 0.0
C190 C 0.82438 0.06112 0.64082 0.0
C191 C 0.71467 0.01395 0.60801 0.0
C192 C 0.65543 0.95385 0.59046 0.0
C193 C 0.76468 0.00034 0.62386 0.0
C194 C 0.64596 0.87893 0.58947 0.0
C195 C 0.69548 0.86468 0.60541 0.0
H196 H 0.01737 0.85682 0.97424 0.0
H197 H 0.895 0.97541 -0.00506 0.0
H198 H 0.78122 0.87685 0.9665 0.0
H199 H 0.71642 0.75565 0.9365 0.0
H200 H 0.83923 0.63604 0.91779 0.0
H201 H 0.9534 0.73688 0.94496 0.0
C202 C 0.96615 0.86179 0.97246 0.0
C203 C 0.9649 0.92379 0.9866 0.0
C204 C 0.90102 0.80452 0.95657 0.0
C205 C 0.89753 0.92842 0.98423 0.0
C206 C 0.83252 0.87204 0.96801 0.0
C207 C 0.76824 0.75174 0.93832 0.0
C208 C 0.76932 0.68837 0.9251 0.0
C209 C 0.83355 0.8096 0.95422 0.0
C210 C 0.83671 0.68393 0.92781 0.0
C211 C 0.90209 0.74167 0.94329 0.0
H212 H 0.23485 0.03246 0.31787 0.0
H213 H 0.98766 0.90759 0.32723 0.0
H214 H 0.97286 0.7934 0.30117 0.0
H215 H 0.02961 0.73039 0.27541 0.0
H216 H 0.27688 0.85401 0.2663 0.0
H217 H 0.29236 0.96759 0.29315 0.0
C218 C 0.17755 0.98047 0.3141 0.0
C219 C 0.1122 0.97887 0.32427 0.0
C220 C 0.1697 0.91485 0.29942 0.0
C221 C 0.03873 0.91054 0.31954 0.0
C222 C 0.03032 0.84522 0.3047 0.0
C223 C 0.08713 0.78199 0.27934 0.0
C224 C 0.15207 0.78382 0.26872 0.0
C225 C 0.09537 0.84688 0.29455 0.0
C226 C 0.22606 0.85096 0.27426 0.0
C227 C 0.2348 0.91601 0.28947 0.0
H228 H 0.24352 0.07356 0.66356 0.0
H229 H 0.16486 0.82729 0.65512 0.0
H230 H 0.26699 0.85302 0.62496 0.0
H231 H 0.38083 0.94501 0.60276 0.0
H232 H 0.46665 0.19293 0.6124 0.0
H233 H 0.36043 0.16745 0.64098 0.0
C234 C 0.24803 0.02559 0.65462 0.0
C235 C 0.19609 0.94839 0.66107 0.0
C236 C 0.30898 0.04134 0.63812 0.0
C237 C 0.20368 0.88687 0.65011 0.0
C238 C 0.26234 0.90168 0.63307 0.0
C239 C 0.37663 0.99383 0.61106 0.0
C240 C 0.43167 0.07088 0.6054 0.0
C241 C 0.31586 0.97868 0.62729 0.0
C242 C 0.42545 0.13318 0.61659 0.0
C243 C 0.36436 0.11849 0.63274 0.0
H244 H 0.23095 0.29492 -0.00285 0.0
H245 H 0.42611 0.27087 0.02012 0.0
H246 H 0.51054 0.38033 -0.00573 0.0
H247 H 0.5239 0.46725 0.95996 0.0
H248 H 0.32783 0.48446 0.9326 0.0
H249 H 0.24897 0.39498 0.96583 0.0
C250 C 0.29242 0.31524 -0.003 0.0
C251 C 0.32248 0.27489 0.01035 0.0
C252 C 0.34003 0.37632 0.9811 0.0
C253 C 0.40185 0.30087 0.00984 0.0
C254 C 0.45 0.36325 -0.00498 0.0
C255 C 0.46421 0.45256 0.96155 0.0
C256 C 0.43123 0.48125 0.94359 0.0
C257 C 0.41896 0.39904 0.97975 0.0
C258 C 0.35443 0.46297 0.94619 0.0
C259 C 0.30923 0.41122 0.96501 0.0
H260 H 0.99207 0.23483 0.32544 0.0
H261 H 0.2118 0.43608 0.35536 0.0
H262 H 0.18345 0.52126 0.33031 0.0
H263 H 0.10681 0.53573 0.29525 0.0
H264 H 0.89368 0.33527 0.26065 0.0
H265 H 0.90711 0.25256 0.29268 0.0
C266 C 0.03266 0.29759 0.32686 0.0
C267 C 0.10417 0.32942 0.34206 0.0
C268 C 0.01725 0.34597 0.31145 0.0
C269 C 0.15682 0.41049 0.34362 0.0
C270 C 0.14063 0.45911 0.32931 0.0
C271 C 0.06237 0.4741 0.29502 0.0
C272 C 0.9999 0.44124 0.27546 0.0
C273 C 0.07259 0.42706 0.31244 0.0
C274 C 0.94217 0.36182 0.2756 0.0
C275 C 0.95047 0.31452 0.29369 0.0
loop_
_geom_bond_atom_site_label_1
_geom_bond_atom_site_label_2
_geom_bond_distance
_geom_bond_site_symmetry_2
_ccdc_geom_bond_type
Zn0 O3 2.031 1_545 S
Zn0 O5 2.049 . S
Zn0 O10 2.067 1_545 S
Zn1 O2 1.962 . S
Zn1 O4 1.986 . S
Zn1 O6 1.996 . S
Zn1 O9 1.943 . S
O2 Zn1 1.962 . S
O2 C7 1.254 1_545 S
O3 Zn0 2.031 1_565 S
O3 C7 1.269 . S
O4 Zn1 1.986 . S
O4 C11 1.262 . S
O5 Zn0 2.049 . S
O5 C13 1.260 . S
O6 Zn1 1.996 . S
O6 C13 1.257 . S
C7 O2 1.254 1_565 S
C7 O3 1.269 . S
C8 O9 1.249 1_565 S
C8 O10 1.270 . S
O9 Zn1 1.943 . S
O9 C8 1.249 1_545 S
O10 Zn0 2.067 1_565 S
O10 C8 1.270 . S
C11 O4 1.262 . S
C11 O12 1.232 . S
O12 C11 1.232 . S
C13 O5 1.260 . S
C13 O6 1.257 . S
Zn14 O17 2.031 . S
Zn14 O19 2.049 . S
Zn14 O24 2.067 . S
Zn15 O16 1.962 . S
Zn15 O18 1.986 1_455 S
Zn15 O20 1.996 . S
Zn15 O23 1.943 . S
O16 Zn15 1.962 . S
O16 C21 1.254 . S
O17 Zn14 2.031 . S
O17 C21 1.269 . S
O18 Zn15 1.986 1_655 S
O18 C25 1.262 . S
O19 Zn14 2.049 . S
O19 C27 1.260 . S
O20 Zn15 1.996 . S
O20 C27 1.257 . S
C21 O16 1.254 . S
C21 O17 1.269 . S
C22 O23 1.249 1_565 S
C22 O24 1.270 1_565 S
O23 Zn15 1.943 . S
O23 C22 1.249 1_545 S
O24 Zn14 2.067 . S
O24 C22 1.270 1_545 S
C25 O18 1.262 . S
C25 O26 1.232 . S
O26 C25 1.232 . S
C27 O19 1.260 . S
C27 O20 1.257 . S
Zn28 O31 2.031 1_565 S
Zn28 O33 2.049 . S
Zn28 O38 2.067 1_565 S
Zn29 O30 1.962 1_545 S
Zn29 O32 1.986 1_455 S
Zn29 O34 1.996 1_445 S
Zn29 O37 1.943 . S
O30 Zn29 1.962 1_565 S
O30 C35 1.254 1_565 S
O31 Zn28 2.031 1_545 S
O31 C35 1.269 . S
O32 Zn29 1.986 1_655 S
O32 C39 1.262 . S
O33 Zn28 2.049 . S
O33 C41 1.260 1_455 S
O34 Zn29 1.996 1_665 S
O34 C41 1.257 . S
C35 O30 1.254 1_545 S
C35 O31 1.269 . S
C36 O37 1.249 . S
C36 O38 1.270 . S
O37 Zn29 1.943 . S
O37 C36 1.249 . S
O38 Zn28 2.067 1_545 S
O38 C36 1.270 . S
C39 O32 1.262 . S
C39 O40 1.232 1_655 S
O40 C39 1.232 1_455 S
C41 O33 1.260 1_655 S
C41 O34 1.257 . S
C42 O44 1.247 . S
C42 O46 1.258 . S
C43 O50 1.247 . S
C43 O51 1.258 . S
O44 C42 1.247 . S
O44 Zn45 2.028 . S
Zn45 O44 2.028 . S
Zn45 O49 2.035 . S
Zn45 O51 2.035 . S
Zn45 O52 2.028 . S
O46 C42 1.258 . S
O46 Zn47 2.035 1_455 S
Zn47 O46 2.035 1_655 S
Zn47 O48 2.028 1_655 S
Zn47 O50 2.028 1_655 S
Zn47 O53 2.035 1_655 S
O48 Zn47 2.028 1_455 S
O48 C54 1.247 . S
O49 Zn45 2.035 . S
O49 C54 1.258 . S
O50 C43 1.247 . S
O50 Zn47 2.028 1_455 S
O51 C43 1.258 . S
O51 Zn45 2.035 . S
O52 Zn45 2.028 . S
O52 C55 1.247 . S
O53 Zn47 2.035 1_455 S
O53 C55 1.258 . S
C54 O48 1.247 . S
C54 O49 1.258 . S
C55 O52 1.247 . S
C55 O53 1.258 . S
C56 O58 1.247 1_545 S
C56 O60 1.258 . S
C57 O64 1.247 . S
C57 O65 1.258 . S
O58 C56 1.247 1_565 S
O58 Zn59 2.028 . S
Zn59 O58 2.028 . S
Zn59 O63 2.035 . S
Zn59 O65 2.035 1_565 S
Zn59 O66 2.028 1_565 S
O60 C56 1.258 . S
O60 Zn61 2.035 . S
Zn61 O60 2.035 . S
Zn61 O62 2.028 . S
Zn61 O64 2.028 . S
Zn61 O67 2.035 . S
O62 Zn61 2.028 . S
O62 C68 1.247 . S
O63 Zn59 2.035 . S
O63 C68 1.258 1_565 S
O64 C57 1.247 . S
O64 Zn61 2.028 . S
O65 C57 1.258 . S
O65 Zn59 2.035 1_545 S
O66 Zn59 2.028 1_545 S
O66 C69 1.247 . S
O67 Zn61 2.035 . S
O67 C69 1.258 . S
C68 O62 1.247 . S
C68 O63 1.258 1_545 S
C69 O66 1.247 . S
C69 O67 1.258 . S
C70 O72 1.247 . S
C70 O74 1.258 . S
C71 O78 1.247 . S
C71 O79 1.258 . S
O72 C70 1.247 . S
O72 Zn73 2.028 . S
Zn73 O72 2.028 . S
Zn73 O77 2.035 . S
Zn73 O79 2.035 . S
Zn73 O80 2.028 . S
O74 C70 1.258 . S
O74 Zn75 2.035 . S
Zn75 O74 2.035 . S
Zn75 O76 2.028 . S
Zn75 O78 2.028 . S
Zn75 O81 2.035 . S
O76 Zn75 2.028 . S
O76 C82 1.247 . S
O77 Zn73 2.035 . S
O77 C82 1.258 . S
O78 C71 1.247 . S
O78 Zn75 2.028 . S
O79 C71 1.258 . S
O79 Zn73 2.035 . S
O80 Zn73 2.028 . S
O80 C83 1.247 . S
O81 Zn75 2.035 . S
O81 C83 1.258 . S
C82 O76 1.247 . S
C82 O77 1.258 . S
C83 O80 1.247 . S
C83 O81 1.258 . S
H84 C90 0.930 . S
H85 C93 0.930 . S
H86 C94 0.930 . S
H87 C95 0.930 1_655 S
H88 C98 0.930 . S
H89 C99 0.930 . S
C90 H84 0.930 . S
C90 C91 1.355 . S
C90 C92 1.415 . S
C91 C90 1.355 . S
C91 C93 1.419 1_455 S
C92 C90 1.415 . S
C92 C97 1.425 . S
C92 C99 1.409 . S
C93 H85 0.930 . S
C93 C91 1.419 1_655 S
C93 C94 1.362 . S
C94 H86 0.930 . S
C94 C93 1.362 . S
C94 C97 1.409 1_655 S
C95 H87 0.930 1_455 S
C95 C96 1.355 . S
C95 C97 1.415 . S
C96 C95 1.355 . S
C96 C98 1.419 . S
C97 C92 1.425 . S
C97 C94 1.409 1_455 S
C97 C95 1.415 . S
C98 H88 0.930 . S
C98 C96 1.419 . S
C98 C99 1.362 . S
C99 H89 0.930 . S
C99 C92 1.409 . S
C99 C98 1.362 . S
H100 C106 0.930 . S
H101 C109 0.930 . S
H102 C110 0.930 . S
H103 C111 0.930 . S
H104 C114 0.930 . S
H105 C115 0.930 1_565 S
C106 H100 0.930 . S
C106 C107 1.355 . S
C106 C108 1.415 . S
C107 C106 1.355 . S
C107 C109 1.419 . S
C108 C106 1.415 . S
C108 C113 1.425 . S
C108 C115 1.409 . S
C109 H101 0.930 . S
C109 C107 1.419 . S
C109 C110 1.362 . S
C110 H102 0.930 . S
C110 C109 1.362 . S
C110 C113 1.409 . S
C111 H103 0.930 . S
C111 C112 1.355 . S
C111 C113 1.415 . S
C112 C111 1.355 . S
C112 C114 1.419 . S
C113 C108 1.425 . S
C113 C110 1.409 . S
C113 C111 1.415 . S
C114 H104 0.930 . S
C114 C112 1.419 . S
C114 C115 1.362 . S
C115 H105 0.930 1_545 S
C115 C108 1.409 . S
C115 C114 1.362 . S
H116 C122 0.930 . S
H117 C125 0.930 . S
H118 C126 0.930 . S
H119 C127 0.930 . S
H120 C130 0.930 . S
H121 C131 0.930 . S
C122 H116 0.930 . S
C122 C123 1.355 . S
C122 C124 1.415 . S
C123 C122 1.355 . S
C123 C125 1.419 . S
C124 C122 1.415 . S
C124 C129 1.425 . S
C124 C131 1.409 . S
C125 H117 0.930 . S
C125 C123 1.419 . S
C125 C126 1.362 . S
C126 H118 0.930 . S
C126 C125 1.362 . S
C126 C129 1.409 . S
C127 H119 0.930 . S
C127 C128 1.355 . S
C127 C129 1.415 . S
C128 C127 1.355 . S
C128 C130 1.419 . S
C129 C124 1.425 . S
C129 C126 1.409 . S
C129 C127 1.415 . S
C130 H120 0.930 . S
C130 C128 1.419 . S
C130 C131 1.362 . S
C131 H121 0.930 . S
C131 C124 1.409 . S
C131 C130 1.362 . S
H132 C138 0.930 . S
H133 C141 0.930 . S
H134 C142 0.930 . S
H135 C143 0.930 . S
H136 C146 0.930 1_655 S
H137 C147 0.930 1_655 S
C138 H132 0.930 . S
C138 C139 1.355 . S
C138 C140 1.415 . S
C139 C138 1.355 . S
C139 C141 1.419 . S
C140 C138 1.415 . S
C140 C145 1.425 . S
C140 C147 1.409 . S
C141 H133 0.930 . S
C141 C139 1.419 . S
C141 C142 1.362 . S
C142 H134 0.930 . S
C142 C141 1.362 . S
C142 C145 1.409 . S
C143 H135 0.930 . S
C143 C144 1.355 . S
C143 C145 1.415 . S
C144 C143 1.355 . S
C144 C146 1.419 . S
C145 C140 1.425 . S
C145 C142 1.409 . S
C145 C143 1.415 . S
C146 H136 0.930 1_455 S
C146 C144 1.419 . S
C146 C147 1.362 . S
C147 H137 0.930 1_455 S
C147 C140 1.409 . S
C147 C146 1.362 . S
H148 C154 0.930 . S
H149 C157 0.930 . S
H150 C158 0.930 . S
H151 C159 0.930 . S
H152 C162 0.930 . S
H153 C163 0.930 . S
C154 H148 0.930 . S
C154 C155 1.355 . S
C154 C156 1.415 . S
C155 C154 1.355 . S
C155 C157 1.419 . S
C156 C154 1.415 . S
C156 C161 1.425 . S
C156 C163 1.409 . S
C157 H149 0.930 . S
C157 C155 1.419 . S
C157 C158 1.362 . S
C158 H150 0.930 . S
C158 C157 1.362 . S
C158 C161 1.409 . S
C159 H151 0.930 . S
C159 C160 1.355 . S
C159 C161 1.415 . S
C160 C159 1.355 . S
C160 C162 1.419 . S
C161 C156 1.425 . S
C161 C158 1.409 . S
C161 C159 1.415 . S
C162 H152 0.930 . S
C162 C160 1.419 . S
C162 C163 1.362 . S
C163 H153 0.930 . S
C163 C156 1.409 . S
C163 C162 1.362 . S
H164 C170 0.930 . S
H165 C173 0.930 . S
H166 C174 0.930 . S
H167 C175 0.930 . S
H168 C178 0.930 . S
H169 C179 0.930 . S
C170 H164 0.930 . S
C170 C171 1.355 . S
C170 C172 1.415 . S
C171 C170 1.355 . S
C171 C173 1.419 . S
C172 C170 1.415 . S
C172 C177 1.425 . S
C172 C179 1.409 . S
C173 H165 0.930 . S
C173 C171 1.419 . S
C173 C174 1.362 . S
C174 H166 0.930 . S
C174 C173 1.362 . S
C174 C177 1.409 . S
C175 H167 0.930 . S
C175 C176 1.355 . S
C175 C177 1.415 . S
C176 C175 1.355 . S
C176 C178 1.419 . S
C177 C172 1.425 . S
C177 C174 1.409 . S
C177 C175 1.415 . S
C178 H168 0.930 . S
C178 C176 1.419 . S
C178 C179 1.362 . S
C179 H169 0.930 . S
C179 C172 1.409 . S
C179 C178 1.362 . S
H180 C186 0.930 . S
H181 C189 0.930 . S
H182 C190 0.930 . S
H183 C191 0.930 . S
H184 C194 0.930 . S
H185 C195 0.930 . S
C186 H180 0.930 . S
C186 C187 1.355 . S
C186 C188 1.415 . S
C187 C186 1.355 . S
C187 C189 1.419 . S
C188 C186 1.415 . S
C188 C193 1.425 . S
C188 C195 1.409 . S
C189 H181 0.930 . S
C189 C187 1.419 . S
C189 C190 1.362 . S
C190 H182 0.930 . S
C190 C189 1.362 . S
C190 C193 1.409 . S
C191 H183 0.930 . S
C191 C192 1.355 . S
C191 C193 1.415 . S
C192 C191 1.355 . S
C192 C194 1.419 . S
C193 C188 1.425 . S
C193 C190 1.409 . S
C193 C191 1.415 . S
C194 H184 0.930 . S
C194 C192 1.419 . S
C194 C195 1.362 . S
C195 H185 0.930 . S
C195 C188 1.409 . S
C195 C194 1.362 . S
H196 C202 0.930 . S
H197 C205 0.930 1_545 S
H198 C206 0.930 . S
H199 C207 0.930 . S
H200 C210 0.930 . S
H201 C211 0.930 1_554 S
C202 H196 0.930 . S
C202 C203 1.355 . S
C202 C204 1.415 1_554 S
C203 C202 1.355 . S
C203 C205 1.419 1_554 S
C204 C202 1.415 1_556 S
C204 C209 1.425 . S
C204 C211 1.409 . S
C205 H197 0.930 1_565 S
C205 C203 1.419 1_556 S
C205 C206 1.362 . S
C206 H198 0.930 . S
C206 C205 1.362 . S
C206 C209 1.409 . S
C207 H199 0.930 . S
C207 C208 1.355 . S
C207 C209 1.415 . S
C208 C207 1.355 . S
C208 C210 1.419 . S
C209 C204 1.425 . S
C209 C206 1.409 . S
C209 C207 1.415 . S
C210 H200 0.930 . S
C210 C208 1.419 . S
C210 C211 1.362 . S
C211 H201 0.930 1_556 S
C211 C204 1.409 . S
C211 C210 1.362 . S
H212 C218 0.930 . S
H213 C221 0.930 . S
H214 C222 0.930 . S
H215 C223 0.930 1_655 S
H216 C226 0.930 . S
H217 C227 0.930 . S
C218 H212 0.930 . S
C218 C219 1.355 . S
C218 C220 1.415 . S
C219 C218 1.355 . S
C219 C221 1.419 1_455 S
C220 C218 1.415 . S
C220 C225 1.425 . S
C220 C227 1.409 . S
C221 H213 0.930 . S
C221 C219 1.419 1_655 S
C221 C222 1.362 . S
C222 H214 0.930 . S
C222 C221 1.362 . S
C222 C225 1.409 1_655 S
C223 H215 0.930 1_455 S
C223 C224 1.355 . S
C223 C225 1.415 . S
C224 C223 1.355 . S
C224 C226 1.419 . S
C225 C220 1.425 . S
C225 C222 1.409 1_455 S
C225 C223 1.415 . S
C226 H216 0.930 . S
C226 C224 1.419 . S
C226 C227 1.362 . S
C227 H217 0.930 . S
C227 C220 1.409 . S
C227 C226 1.362 . S
H228 C234 0.930 . S
H229 C237 0.930 . S
H230 C238 0.930 . S
H231 C239 0.930 . S
H232 C242 0.930 . S
H233 C243 0.930 . S
C234 H228 0.930 . S
C234 C235 1.355 . S
C234 C236 1.415 . S
C235 C234 1.355 . S
C235 C237 1.419 1_545 S
C236 C234 1.415 . S
C236 C241 1.425 . S
C236 C243 1.409 . S
C237 H229 0.930 . S
C237 C235 1.419 1_565 S
C237 C238 1.362 . S
C238 H230 0.930 . S
C238 C237 1.362 . S
C238 C241 1.409 1_565 S
C239 H231 0.930 . S
C239 C240 1.355 . S
C239 C241 1.415 . S
C240 C239 1.355 . S
C240 C242 1.419 . S
C241 C236 1.425 . S
C241 C238 1.409 1_545 S
C241 C239 1.415 . S
C242 H232 0.930 . S
C242 C240 1.419 . S
C242 C243 1.362 . S
C243 H233 0.930 . S
C243 C236 1.409 . S
C243 C242 1.362 . S
H244 C250 0.930 . S
H245 C253 0.930 . S
H246 C254 0.930 . S
H247 C255 0.930 . S
H248 C258 0.930 . S
H249 C259 0.930 . S
C250 H244 0.930 . S
C250 C251 1.355 1_556 S
C250 C252 1.415 . S
C251 C250 1.355 1_554 S
C251 C253 1.419 . S
C252 C250 1.415 . S
C252 C257 1.425 . S
C252 C259 1.409 . S
C253 H245 0.930 . S
C253 C251 1.419 . S
C253 C254 1.362 . S
C254 H246 0.930 . S
C254 C253 1.362 . S
C254 C257 1.409 1_554 S
C255 H247 0.930 . S
C255 C256 1.355 . S
C255 C257 1.415 . S
C256 C255 1.355 . S
C256 C258 1.419 . S
C257 C252 1.425 . S
C257 C254 1.409 1_556 S
C257 C255 1.415 . S
C258 H248 0.930 . S
C258 C256 1.419 . S
C258 C259 1.362 . S
C259 H249 0.930 . S
C259 C252 1.409 . S
C259 C258 1.362 . S
H260 C266 0.930 . S
H261 C269 0.930 . S
H262 C270 0.930 . S
H263 C271 0.930 . S
H264 C274 0.930 1_655 S
H265 C275 0.930 1_655 S
C266 H260 0.930 . S
C266 C267 1.355 . S
C266 C268 1.415 . S
C267 C266 1.355 . S
C267 C269 1.419 . S
C268 C266 1.415 . S
C268 C273 1.425 . S
C268 C275 1.409 . S
C269 H261 0.930 . S
C269 C267 1.419 . S
C269 C270 1.362 . S
C270 H262 0.930 . S
C270 C269 1.362 . S
C270 C273 1.409 . S
C271 H263 0.930 . S
C271 C272 1.355 . S
C271 C273 1.415 . S
C272 C271 1.355 . S
C272 C274 1.419 . S
C273 C268 1.425 . S
C273 C270 1.409 . S
C273 C271 1.415 . S
C274 H264 0.930 1_455 S
C274 C272 1.419 . S
C274 C275 1.362 . S
C275 H265 0.930 1_455 S
C275 C268 1.409 . S
C275 C274 1.362 . S
C96 C43 1.358 . S
C91 C11 1.349 . S
C107 C25 1.362 . S
C112 C69 1.402 . S
C123 C41 1.329 . S
C128 C71 1.427 . S
C139 C7 1.399 . S
C144 C55 1.397 . S
C160 C57 1.452 . S
C155 C21 1.441 . S
C171 C36 1.429 . S
C176 C83 1.466 . S
C192 C56 1.410 . S
C187 C39 1.408 . S
C203 C8 1.359 1_655 S
C208 C82 1.445 . S
C224 C42 1.504 . S
C219 C22 1.437 . S
C240 C68 1.446 . S
C235 C35 1.439 . S
C256 C70 1.426 . S
C251 C13 1.344 . S
C267 C27 1.398 . S
C272 C54 1.471 . S
