# Generated by pormake.
# Topology csq, (4,8)-cn, num edge types: 1
# Building blocks:
#     Node 0, Type 0, BuildingBlock: NAWXER_clean_sbu_0, # of connection points: 4
#     Node 1, Type 0, BuildingBlock: NAWXER_clean_sbu_0, # of connection points: 4
#     Node 2, Type 0, BuildingBlock: NAWXER_clean_sbu_0, # of connection points: 4
#     Node 3, Type 0, BuildingBlock: NAWXER_clean_sbu_0, # of connection points: 4
#     Node 4, Type 0, BuildingBlock: NAWXER_clean_sbu_0, # of connection points: 4
#     Node 5, Type 0, BuildingBlock: NAWXER_clean_sbu_0, # of connection points: 4
#     Node 6, Type 1, BuildingBlock: TAGTUT_clean_sbu_3, # of connection points: 8
#     Node 7, Type 1, BuildingBlock: TAGTUT_clean_sbu_3, # of connection points: 8
#     Node 8, Type 1, BuildingBlock: TAGTUT_clean_sbu_3, # of connection points: 8
#     Edge 9, Type (0, 1), BuildingBlock: XIVTED_clean_linker_0, # of connection points: 2
#     Edge 10, Type (0, 1), BuildingBlock: XIVTED_clean_linker_0, # of connection points: 2
#     Edge 11, Type (0, 1), BuildingBlock: XIVTED_clean_linker_0, # of connection points: 2
#     Edge 12, Type (0, 1), BuildingBlock: XIVTED_clean_linker_0, # of connection points: 2
#     Edge 13, Type (0, 1), BuildingBlock: XIVTED_clean_linker_0, # of connection points: 2
#     Edge 14, Type (0, 1), BuildingBlock: XIVTED_clean_linker_0, # of connection points: 2
#     Edge 15, Type (0, 1), BuildingBlock: XIVTED_clean_linker_0, # of connection points: 2
#     Edge 16, Type (0, 1), BuildingBlock: XIVTED_clean_linker_0, # of connection points: 2
#     Edge 17, Type (0, 1), BuildingBlock: XIVTED_clean_linker_0, # of connection points: 2
#     Edge 18, Type (0, 1), BuildingBlock: XIVTED_clean_linker_0, # of connection points: 2
#     Edge 19, Type (0, 1), BuildingBlock: XIVTED_clean_linker_0, # of connection points: 2
#     Edge 20, Type (0, 1), BuildingBlock: XIVTED_clean_linker_0, # of connection points: 2
#     Edge 21, Type (0, 1), BuildingBlock: XIVTED_clean_linker_0, # of connection points: 2
#     Edge 22, Type (0, 1), BuildingBlock: XIVTED_clean_linker_0, # of connection points: 2
#     Edge 23, Type (0, 1), BuildingBlock: XIVTED_clean_linker_0, # of connection points: 2
#     Edge 24, Type (0, 1), BuildingBlock: XIVTED_clean_linker_0, # of connection points: 2
#     Edge 25, Type (0, 1), BuildingBlock: XIVTED_clean_linker_0, # of connection points: 2
#     Edge 26, Type (0, 1), BuildingBlock: XIVTED_clean_linker_0, # of connection points: 2
#     Edge 27, Type (0, 1), BuildingBlock: XIVTED_clean_linker_0, # of connection points: 2
#     Edge 28, Type (0, 1), BuildingBlock: XIVTED_clean_linker_0, # of connection points: 2
#     Edge 29, Type (0, 1), BuildingBlock: XIVTED_clean_linker_0, # of connection points: 2
#     Edge 30, Type (0, 1), BuildingBlock: XIVTED_clean_linker_0, # of connection points: 2
#     Edge 31, Type (0, 1), BuildingBlock: XIVTED_clean_linker_0, # of connection points: 2
#     Edge 32, Type (0, 1), BuildingBlock: XIVTED_clean_linker_0, # of connection points: 2
# Relax obj value: 0.043
# Max RMSD: 0.117
# Mean RMSD: 0.077
data_MOF--net-csq--node1-NAWXER_clean_sbu_0--node2-TAGTUT_clean_sbu_3--edge1-XIVTED_clean_linker_0
_symmetry_space_group_name_H-M    P1
_symmetry_Int_Tables_number       1
_symmetry_cell_setting            triclinic
loop_
_symmetry_equiv_pos_as_xyz
'x, y, z'
_cell_length_a     50.611306
_cell_length_b     49.830884
_cell_length_c     19.33219
_cell_angle_alpha  92.638235
_cell_angle_beta   91.881381
_cell_angle_gamma 119.72925
loop_
_atom_site_label
_atom_site_type_symbol
_atom_site_fract_x
_atom_site_fract_y
_atom_site_fract_z
_atom_type_partial_charge
C0 C 0.293 0.4951 0.09106 0.0
C1 C 0.20912 0.49493 0.20915 0.0
O2 O 0.28893 0.51817 0.10126 0.0
Zn3 Zn 0.25074 0.49601 0.14622 0.0
O4 O 0.27253 0.46821 0.1068 0.0
Zn5 Zn 0.23016 0.44708 0.15486 0.0
O6 O 0.20052 0.41858 0.08414 0.0
O7 O 0.21795 0.46755 0.06288 0.0
O8 O 0.20658 0.46813 0.19971 0.0
O9 O 0.23211 0.51849 0.18818 0.0
O10 O 0.26623 0.48196 0.23508 0.0
O11 O 0.2408 0.43088 0.23339 0.0
C12 C 0.20028 0.43857 0.04603 0.0
C13 C 0.26124 0.45689 0.26179 0.0
C14 C 0.71061 0.21453 0.05238 0.0
C15 C 0.79361 0.28306 0.2218 0.0
O16 O 0.73344 0.21013 0.05507 0.0
Zn17 Zn 0.77692 0.22788 0.10665 0.0
O18 O 0.71158 0.23725 0.08778 0.0
Zn19 Zn 0.75167 0.25117 0.13496 0.0
O20 O 0.78222 0.27131 0.05548 0.0
O21 O 0.80431 0.24356 0.03215 0.0
O22 O 0.76894 0.28356 0.21043 0.0
O23 O 0.7983 0.26363 0.18648 0.0
O24 O 0.76998 0.19107 0.15323 0.0
O25 O 0.74119 0.21058 0.18663 0.0
C26 C 0.80084 0.26661 0.02071 0.0
C27 C 0.74856 0.18947 0.18884 0.0
C28 C 0.53772 0.78834 0.18463 0.0
C29 C 0.54626 0.7349 0.97446 0.0
O30 O 0.56207 0.79032 0.16291 0.0
Zn31 Zn 0.54323 0.76221 0.08082 0.0
O32 O 0.51226 0.77132 0.14935 0.0
Zn33 Zn 0.49511 0.74099 0.05559 0.0
O34 O 0.46727 0.70109 0.0911 0.0
O35 O 0.51546 0.72007 0.12799 0.0
O36 O 0.51906 0.72922 0.98325 0.0
O37 O 0.56756 0.75234 0.01956 0.0
O38 O 0.5297 0.78826 0.01889 0.0
O39 O 0.4797 0.76172 -0.00214 0.0
C40 C 0.48735 0.69916 0.12842 0.0
C41 C 0.50527 0.78574 0.99046 0.0
C42 C 0.80022 0.52057 0.95649 0.0
C43 C 0.73086 0.52113 0.12808 0.0
O44 O 0.80508 0.54754 0.97734 0.0
Zn45 Zn 0.7881 0.56886 0.04811 0.0
O46 O 0.7782 0.49659 0.97931 0.0
Zn47 Zn 0.76464 0.51883 0.04137 0.0
O48 O 0.74757 0.53897 0.97106 0.0
O49 O 0.77421 0.59012 0.9889 0.0
O50 O 0.73018 0.49728 0.09935 0.0
O51 O 0.75143 0.5481 0.11343 0.0
O52 O 0.82341 0.59228 0.11221 0.0
O53 O 0.8037 0.54152 0.11201 0.0
C54 C 0.75273 0.56589 0.95655 0.0
C55 C 0.82446 0.569 0.13331 0.0
C56 C 0.20995 0.76196 0.21656 0.0
C57 C 0.25592 0.83472 0.0363 0.0
O58 O 0.20655 0.785 0.20447 0.0
Zn59 Zn 0.23244 0.79868 0.12723 0.0
O60 O 0.22676 0.75571 0.17825 0.0
Zn61 Zn 0.25471 0.77443 0.09102 0.0
O62 O 0.29509 0.78541 0.12791 0.0
O63 O 0.27556 0.81188 0.17824 0.0
O64 O 0.26274 0.81318 0.03445 0.0
O65 O 0.23951 0.83598 0.08327 0.0
O66 O 0.2069 0.76172 0.04898 0.0
O67 O 0.23565 0.74148 0.02042 0.0
C68 C 0.29697 0.80534 0.17406 0.0
C69 C 0.2109 0.74201 0.01254 0.0
C70 C 0.43773 0.2514 0.29681 0.0
C71 C 0.45156 0.19572 0.10078 0.0
O72 O 0.4657 0.26185 0.28388 0.0
Zn73 Zn 0.49171 0.25331 0.21069 0.0
O74 O 0.41668 0.22949 0.25768 0.0
Zn75 Zn 0.44319 0.223 0.19733 0.0
O76 O 0.4666 0.20839 0.26667 0.0
O77 O 0.51599 0.24177 0.26934 0.0
O78 O 0.42632 0.18893 0.12635 0.0
O79 O 0.47648 0.21859 0.12759 0.0
O80 O 0.51057 0.29077 0.1603 0.0
O81 O 0.46096 0.26234 0.13595 0.0
C82 C 0.49392 0.21708 0.28943 0.0
C83 C 0.48665 0.28614 0.12574 0.0
C84 C 0.05319 0.488 0.51816 0.0
C85 C 0.03902 0.43698 0.75688 0.0
C86 C 0.95114 0.4307 0.74291 0.0
Mg87 Mg 0.02603 0.52942 0.46125 0.0
Mg88 Mg 0.01253 0.57305 0.57058 0.0
O89 O 0.00337 0.53263 0.5417 0.0
Mg90 Mg 0.01278 0.50896 0.60921 0.0
O91 O 0.02299 0.48398 0.67108 0.0
Mg92 Mg 0.0007 0.44248 0.61769 0.0
Mg93 Mg 0.01558 0.48449 0.76532 0.0
C94 C 0.9731 0.53457 0.69316 0.0
O95 O 0.04752 0.55183 0.67578 0.0
O96 O 0.0011 0.55043 0.39971 0.0
O97 O 0.03932 0.53483 0.78381 0.0
O98 O 0.06688 0.57859 0.483 0.0
O99 O 0.99219 0.57934 0.47858 0.0
O100 O 0.06067 0.60602 0.56848 0.0
O101 O 0.97786 0.46392 0.54976 0.0
O102 O 0.98571 0.47989 0.44221 0.0
C103 C 0.97168 0.45879 0.48416 0.0
C104 C 0.9904 0.56838 0.41623 0.0
O105 O 0.97734 0.51155 0.67831 0.0
O106 O 0.02782 0.42826 0.69379 0.0
O107 O 0.98686 0.56026 0.66356 0.0
O108 O 0.96066 0.42305 0.68928 0.0
O109 O 0.03669 0.45776 0.79348 0.0
O110 O 0.96759 0.45656 0.7777 0.0
O111 O 0.04737 0.50949 0.5354 0.0
O112 O 0.03968 0.46182 0.54494 0.0
C113 C 0.0769 0.60334 0.5225 0.0
C114 C 0.05161 0.55658 0.74212 0.0
C115 C 0.50326 0.04478 0.50777 0.0
C116 C 0.59253 0.02448 0.44875 0.0
C117 C 0.53745 0.93671 0.5316 0.0
Mg118 Mg 0.45417 0.01646 0.62915 0.0
Mg119 Mg 0.4761 -0.00121 0.77291 0.0
O120 O 0.46912 0.99107 0.67675 0.0
Mg121 Mg 0.50544 0.00066 0.62331 0.0
O122 O 0.54051 0.01035 0.56502 0.0
Mg123 Mg 0.51719 0.98798 0.47584 0.0
Mg124 Mg 0.57215 0.00337 0.59615 0.0
C125 C 0.50723 0.95809 0.74719 0.0
O126 O 0.54009 0.03563 0.70538 0.0
O127 O 0.41135 0.99174 0.69592 0.0
O128 O 0.5814 0.02967 0.6972 0.0
O129 O 0.4752 0.05694 0.71431 0.0
O130 O 0.42951 0.98224 0.79457 0.0
O131 O 0.49938 0.04725 0.79932 0.0
O132 O 0.47353 0.96665 0.53708 0.0
O133 O 0.43489 0.97608 0.54664 0.0
C134 C 0.44681 0.96126 0.51781 0.0
C135 C 0.40781 0.98154 0.75701 0.0
O136 O 0.50955 0.96329 0.68243 0.0
O137 O 0.56432 0.01232 0.42717 0.0
O138 O 0.49792 0.97148 0.79036 0.0
O139 O 0.52336 0.94614 0.49246 0.0
O140 O 0.60081 0.02437 0.51211 0.0
O141 O 0.55661 0.95426 0.58085 0.0
O142 O 0.49903 0.03751 0.57086 0.0
O143 O 0.51118 0.03022 0.46442 0.0
C144 C 0.49155 0.06514 0.77148 0.0
C145 C 0.56694 0.04185 0.7266 0.0
C146 C 0.53448 0.56976 0.68888 0.0
C147 C 0.4621 0.49459 0.86735 0.0
C148 C 0.48789 0.4308 0.78211 0.0
Mg149 Mg 0.54782 0.55211 0.53476 0.0
Mg150 Mg 0.49796 0.48913 0.44108 0.0
O151 O 0.52075 0.50609 0.52628 0.0
Mg152 Mg 0.50096 0.49985 0.6161 0.0
O153 O 0.48367 0.49571 0.70845 0.0
Mg154 Mg 0.52119 0.50894 0.77136 0.0
Mg155 Mg 0.44979 0.45732 0.72439 0.0
C156 C 0.46661 0.43097 0.53341 0.0
O157 O 0.45486 0.49102 0.56845 0.0
O158 O 0.57083 0.54433 0.43871 0.0
O159 O 0.42138 0.45352 0.63259 0.0
O160 O 0.51526 0.56036 0.46432 0.0
O161 O 0.53687 0.49881 0.38237 0.0
O162 O 0.47868 0.51694 0.40847 0.0
O163 O 0.54499 0.50719 0.67207 0.0
O164 O 0.57844 0.54318 0.60704 0.0
C165 C 0.57249 0.52593 0.65788 0.0
C166 C 0.56368 0.52261 0.39072 0.0
O167 O 0.48 0.447 0.59082 0.0
O168 O 0.49102 0.50981 0.86007 0.0
O169 O 0.4687 0.44312 0.47513 0.0
O170 O 0.50857 0.45909 0.79496 0.0
O171 O 0.44288 0.47375 0.82231 0.0
O172 O 0.46326 0.42358 0.74667 0.0
O173 O 0.52205 0.55292 0.63217 0.0
O174 O 0.53478 0.55782 0.74586 0.0
C175 C 0.49128 0.54603 0.42342 0.0
C176 C 0.42749 0.47056 0.58082 0.0
H177 H 0.15094 0.44913 0.21556 0.0
H178 H 0.10001 0.54237 0.47498 0.0
H179 H 0.21118 0.54562 0.28003 0.0
H180 H 0.05465 0.44291 0.43753 0.0
H181 H 0.13717 0.54707 0.39014 0.0
H182 H 0.11135 0.44992 0.28106 0.0
C183 C 0.15583 0.4706 0.24356 0.0
C184 C 0.1846 0.49721 0.24345 0.0
C185 C 0.11891 0.52432 0.4004 0.0
C186 C 0.13913 0.49822 0.31964 0.0
C187 C 0.0977 0.52162 0.44846 0.0
C188 C 0.07447 0.49218 0.46382 0.0
C189 C 0.11638 0.49739 0.36714 0.0
C190 C 0.07243 0.46605 0.42814 0.0
C191 C 0.13314 0.47105 0.28102 0.0
C192 C 0.18934 0.52455 0.27936 0.0
N193 N 0.09309 0.4693 0.38178 0.0
N194 N 0.16688 0.52428 0.31698 0.0
H195 H 0.76086 0.1477 0.25321 0.0
H196 H 0.58494 0.03862 0.31726 0.0
H197 H 0.68856 0.16666 0.19917 0.0
H198 H 0.65464 0.04954 0.46953 0.0
H199 H 0.62467 0.07399 0.246 0.0
H200 H 0.72339 0.10124 0.30947 0.0
C201 C 0.73724 0.14201 0.25285 0.0
C202 C 0.72783 0.16119 0.22251 0.0
C203 C 0.63121 0.06823 0.29461 0.0
C204 C 0.68531 0.10828 0.2834 0.0
C205 C 0.60856 0.048 0.33531 0.0
C206 C 0.6164 0.04162 0.40029 0.0
C207 C 0.66194 0.08208 0.31867 0.0
C208 C 0.64755 0.0543 0.42037 0.0
C209 C 0.71601 0.11567 0.28464 0.0
C210 C 0.69697 0.15283 0.22287 0.0
N211 N 0.66928 0.0743 0.38002 0.0
N212 N 0.67689 0.12701 0.25244 0.0
H213 H 0.50895 0.70756 0.26091 0.0
H214 H 0.45495 0.53069 0.30227 0.0
H215 H 0.44761 0.63608 0.1075 0.0
H216 H 0.50255 0.60397 0.46387 0.0
H217 H 0.44613 0.56639 0.23464 0.0
H218 H 0.50152 0.66824 0.33991 0.0
C219 C 0.49363 0.68342 0.24423 0.0
C220 C 0.47908 0.67494 0.17761 0.0
C221 C 0.45799 0.57441 0.28547 0.0
C222 C 0.47083 0.62943 0.26744 0.0
C223 C 0.46296 0.55404 0.3242 0.0
C224 C 0.4801 0.56459 0.38818 0.0
C225 C 0.47028 0.60541 0.31114 0.0
C226 C 0.48981 0.59499 0.41417 0.0
C227 C 0.4893 0.6609 0.28941 0.0
C228 C 0.45923 0.64342 0.15863 0.0
N229 N 0.4851 0.61436 0.37525 0.0
N230 N 0.45609 0.62164 0.203 0.0
H231 H 0.86957 0.62087 0.20943 0.0
H232 H 0.96565 0.53685 0.29004 0.0
H233 H 0.84126 0.52565 0.14623 0.0
H234 H 0.97435 0.61335 0.42269 0.0
H235 H 0.92845 0.54102 0.21441 0.0
H236 H 0.91545 0.62553 0.26998 0.0
C237 C 0.87293 0.60102 0.20852 0.0
C238 C 0.8514 0.57274 0.17371 0.0
C239 C 0.93883 0.55712 0.2597 0.0
C240 C 0.90377 0.57818 0.24013 0.0
C241 C 0.9602 0.55489 0.30258 0.0
C242 C 0.97263 0.57436 0.36344 0.0
C243 C 0.93002 0.57906 0.27765 0.0
C244 C 0.96482 0.59746 0.37691 0.0
C245 C 0.89907 0.60373 0.2426 0.0
C246 C 0.85695 0.54778 0.17334 0.0
N247 N 0.94371 0.59898 0.33469 0.0
N248 N 0.8826 0.55114 0.20578 0.0
H249 H 0.35859 0.8355 0.1563 0.0
H250 H 0.38598 0.92533 0.51957 0.0
H251 H 0.29229 0.80868 0.31107 0.0
H252 H 0.46279 0.93544 0.409 0.0
H253 H 0.35226 0.88126 0.44135 0.0
H254 H 0.3987 0.86979 0.24587 0.0
C255 C 0.35275 0.8362 0.20951 0.0
C256 C 0.32231 0.81991 0.22681 0.0
C257 C 0.37647 0.89283 0.43399 0.0
C258 C 0.36725 0.85864 0.32786 0.0
C259 C 0.39574 0.91828 0.47833 0.0
C260 C 0.4271 0.9343 0.46985 0.0
C261 C 0.38843 0.88349 0.3795 0.0
C262 C 0.43859 0.92372 0.41657 0.0
C263 C 0.37549 0.85573 0.26032 0.0
C264 C 0.31555 0.82142 0.29585 0.0
N265 N 0.4191 0.89911 0.37228 0.0
N266 N 0.33778 0.84075 0.34367 0.0
H267 H 0.38812 0.25932 0.30934 0.0
H268 H 0.4814 0.39345 0.60444 0.0
H269 H 0.47204 0.27778 0.41715 0.0
H270 H 0.4151 0.3913 0.45504 0.0
H271 H 0.46373 0.3389 0.56979 0.0
H272 H 0.38428 0.29505 0.39483 0.0
C273 C 0.40523 0.2702 0.35211 0.0
C274 C 0.43085 0.26639 0.35539 0.0
C275 C 0.45245 0.35014 0.54612 0.0
C276 C 0.42665 0.30694 0.45277 0.0
C277 C 0.46241 0.38117 0.56617 0.0
C278 C 0.45025 0.39692 0.53089 0.0
C279 C 0.43022 0.33508 0.49084 0.0
C280 C 0.42558 0.38002 0.48202 0.0
C281 C 0.40309 0.29059 0.40073 0.0
C282 C 0.45233 0.28081 0.41192 0.0
N283 N 0.41675 0.35014 0.46237 0.0
N284 N 0.45001 0.30085 0.45781 0.0
H285 H 0.54976 0.84613 0.00483 0.0
H286 H 0.49136 0.90145 0.68367 0.0
H287 H 0.46638 0.78327 0.8842 0.0
H288 H 0.53468 0.95972 0.87139 0.0
H289 H 0.49232 0.8583 0.73883 0.0
H290 H 0.5541 0.88854 0.93846 0.0
C291 C 0.53242 0.84123 0.96411 0.0
C292 C 0.50752 0.8112 0.95027 0.0
C293 C 0.50194 0.8807 0.7673 0.0
C294 C 0.51277 0.85952 0.87343 0.0
C295 C 0.50171 0.90531 0.73578 0.0
C296 C 0.51288 0.93401 0.77338 0.0
C297 C 0.51411 0.88527 0.83594 0.0
C298 C 0.52574 0.93785 0.84094 0.0
C299 C 0.53494 0.86543 0.92638 0.0
C300 C 0.48573 0.80617 0.89693 0.0
N301 N 0.52604 0.91375 0.87009 0.0
N302 N 0.48892 0.83014 0.86006 0.0
H303 H 0.74353 0.54878 0.8194 0.0
H304 H 0.57669 0.52405 0.79943 0.0
H305 H 0.71129 0.58328 0.98557 0.0
H306 H 0.62768 0.53842 0.61693 0.0
H307 H 0.62322 0.53804 0.87164 0.0
H308 H 0.69903 0.53905 0.74495 0.0
C309 C 0.72744 0.55513 0.83923 0.0
C310 C 0.73114 0.56749 0.90756 0.0
C311 C 0.62405 0.53802 0.81573 0.0
C312 C 0.67977 0.55492 0.82501 0.0
C313 C 0.59751 0.52966 0.77466 0.0
C314 C 0.5985 0.53011 0.70238 0.0
C315 C 0.65132 0.54615 0.78382 0.0
C316 C 0.6261 0.53793 0.67264 0.0
C317 C 0.70202 0.54932 0.79726 0.0
C318 C 0.70937 0.57444 0.9323 0.0
N319 N 0.65143 0.54551 0.71348 0.0
N320 N 0.68422 0.56762 0.89122 0.0
H321 H 0.15018 0.72165 0.01623 0.0
H322 H 0.10142 0.60208 0.68533 0.0
H323 H 0.21566 0.71077 0.89823 0.0
H324 H 0.04911 0.58254 0.86684 0.0
H325 H 0.13951 0.65214 0.74325 0.0
H326 H 0.10895 0.68023 0.94068 0.0
C327 C 0.15587 0.71084 0.97382 0.0
C328 C 0.18625 0.71923 0.96377 0.0
C329 C 0.11943 0.63697 0.76972 0.0
C330 C 0.1395 0.67256 0.87727 0.0
C331 C 0.09772 0.60859 0.73682 0.0
C332 C 0.07246 0.58813 0.77207 0.0
C333 C 0.11533 0.64498 0.83737 0.0
C334 C 0.0686 0.59754 0.83857 0.0
C335 C 0.1324 0.68728 0.93102 0.0
C336 C 0.19245 0.70458 0.90815 0.0
N337 N 0.08993 0.62535 0.86931 0.0
N338 N 0.16919 0.68181 0.86685 0.0
H339 H 0.4284 0.13338 0.09017 0.0
H340 H 0.48504 0.1138 0.73067 0.0
H341 H 0.48097 0.21608 0.98348 0.0
H342 H 0.5016 0.07529 0.91183 0.0
H343 H 0.47416 0.14747 0.80729 0.0
H344 H 0.44226 0.10462 0.00592 0.0
C345 C 0.44205 0.14515 0.04773 0.0
C346 C 0.45349 0.17689 0.04297 0.0
C347 C 0.48067 0.1319 0.82973 0.0
C348 C 0.46942 0.14464 0.94792 0.0
C349 C 0.48713 0.11295 0.78638 0.0
C350 C 0.494 0.09152 0.81485 0.0
C351 C 0.48025 0.12857 0.90133 0.0
C352 C 0.49632 0.09134 0.88743 0.0
C353 C 0.45028 0.12898 0.00058 0.0
C354 C 0.4717 0.19149 0.98818 0.0
N355 N 0.48869 0.10901 0.92812 0.0
N356 N 0.4791 0.17519 0.94228 0.0
H357 H 0.31301 0.45407 0.10164 0.0
H358 H 0.4621 0.54849 0.89727 0.0
H359 H 0.34042 0.54514 0.03402 0.0
H360 H 0.42995 0.45687 0.9652 0.0
H361 H 0.42435 0.55306 0.96621 0.0
H362 H 0.36093 0.4594 0.06862 0.0
C363 C 0.32906 0.4752 0.0792 0.0
C364 C 0.32233 0.49894 0.06917 0.0
C365 C 0.4262 0.53235 0.96771 0.0
C366 C 0.37789 0.50527 0.03114 0.0
C367 C 0.448 0.52995 0.9293 0.0
C368 C 0.44904 0.50232 0.92624 0.0
C369 C 0.40544 0.50683 0.00261 0.0
C370 C 0.42987 0.47859 0.9668 0.0
C371 C 0.35668 0.47835 0.06088 0.0
C372 C 0.34451 0.52608 0.04163 0.0
N373 N 0.40861 0.48123 0.0026 0.0
N374 N 0.37124 0.52838 0.02266 0.0
H375 H 0.83544 0.26091 0.9204 0.0
H376 H 0.91894 0.43833 0.84638 0.0
H377 H 0.80792 0.32398 0.00724 0.0
H378 H 0.91932 0.3686 0.70587 0.0
H379 H 0.87839 0.39714 0.90689 0.0
H380 H 0.86746 0.3004 0.84285 0.0
C381 C 0.836 0.28294 0.9229 0.0
C382 C 0.81909 0.28918 0.97054 0.0
C383 C 0.88707 0.39093 0.86214 0.0
C384 C 0.85573 0.33443 0.88264 0.0
C385 C 0.91018 0.41443 0.82754 0.0
C386 C 0.9228 0.40694 0.77142 0.0
C387 C 0.87696 0.35977 0.84123 0.0
C388 C 0.91042 0.37552 0.74907 0.0
C389 C 0.85413 0.3054 0.87847 0.0
C390 C 0.82057 0.31813 0.97136 0.0
N391 N 0.88857 0.35309 0.78477 0.0
N392 N 0.83883 0.33979 0.92868 0.0
H393 H 0.80943 0.47092 0.92693 0.0
H394 H 0.966 0.58033 0.75608 0.0
H395 H 0.84296 0.56661 0.88627 0.0
H396 H 0.92585 0.4808 0.73837 0.0
H397 H 0.92305 0.57478 0.81873 0.0
H398 H 0.85248 0.47264 0.86699 0.0
C399 C 0.82549 0.49207 0.90461 0.0
C400 C 0.82265 0.51871 0.91203 0.0
C401 C 0.92353 0.55405 0.80142 0.0
C402 C 0.872 0.52099 0.84529 0.0
C403 C 0.94824 0.55723 0.76586 0.0
C404 C 0.94943 0.53099 0.74103 0.0
C405 C 0.89956 0.52439 0.81258 0.0
C406 C 0.92583 0.50168 0.75641 0.0
C407 C 0.85012 0.49309 0.87096 0.0
C408 C 0.84425 0.54555 0.88254 0.0
N409 N 0.90165 0.49911 0.79081 0.0
N410 N 0.86798 0.54602 0.85114 0.0
H411 H 0.2648 0.82576 0.90164 0.0
H412 H 0.39376 0.99496 0.88296 0.0
H413 H 0.2764 0.89709 0.0547 0.0
H414 H 0.35429 0.93356 0.69835 0.0
H415 H 0.34829 0.96173 0.94339 0.0
H416 H 0.29413 0.8655 0.82273 0.0
C417 C 0.27312 0.84985 0.91807 0.0
C418 C 0.26851 0.85826 0.98491 0.0
C419 C 0.34908 0.95592 0.88911 0.0
C420 C 0.30265 0.90391 0.89549 0.0
C421 C 0.37499 0.97491 0.85463 0.0
C422 C 0.37762 0.96686 0.78579 0.0
C423 C 0.32612 0.92814 0.85512 0.0
C424 C 0.35294 0.94058 0.75136 0.0
C425 C 0.28974 0.87252 0.87291 0.0
C426 C 0.27954 0.88971 0.00357 0.0
N427 N 0.32846 0.92166 0.78696 0.0
N428 N 0.29677 0.91152 0.95964 0.0
H429 H 0.44027 0.27828 0.03574 0.0
H430 H 0.53776 0.43708 0.85755 0.0
H431 H 0.53602 0.34041 0.08944 0.0
H432 H 0.4443 0.36997 0.79339 0.0
H433 H 0.53888 0.40085 0.93685 0.0
H434 H 0.44229 0.31088 0.94389 0.0
C435 C 0.46178 0.29887 0.02846 0.0
C436 C 0.488 0.30667 0.07097 0.0
C437 C 0.51825 0.39389 0.90483 0.0
C438 C 0.49046 0.34425 0.96476 0.0
C439 C 0.5176 0.41452 0.85916 0.0
C440 C 0.49076 0.40676 0.81901 0.0
C441 C 0.49183 0.36527 0.91091 0.0
C442 C 0.46546 0.3771 0.82334 0.0
C443 C 0.46292 0.31743 0.97552 0.0
C444 C 0.51521 0.33355 0.05828 0.0
N445 N 0.46651 0.35764 0.86908 0.0
N446 N 0.51569 0.35145 0.00654 0.0
H447 H 0.20503 0.4667 0.92559 0.0
H448 H 0.03552 0.41441 0.88362 0.0
H449 H 0.14204 0.38994 0.03751 0.0
H450 H 0.08674 0.43508 0.70074 0.0
H451 H 0.07401 0.4059 0.94319 0.0
H452 H 0.16298 0.45696 0.84259 0.0
C453 C 0.18246 0.44738 0.9317 0.0
C454 C 0.17691 0.42911 0.98837 0.0
C455 C 0.07641 0.41151 0.88945 0.0
C456 C 0.1288 0.41851 0.89531 0.0
C457 C 0.05453 0.41637 0.8556 0.0
C458 C 0.05804 0.42527 0.78731 0.0
C459 C 0.1025 0.41681 0.85555 0.0
C460 C 0.08319 0.42792 0.75328 0.0
C461 C 0.15856 0.4418 0.88435 0.0
C462 C 0.14726 0.40444 0.99425 0.0
N463 N 0.10496 0.4245 0.78838 0.0
N464 N 0.1241 0.40034 0.94929 0.0
H465 H 0.6883 0.15445 0.06897 0.0
H466 H 0.5595 0.09141 0.76069 0.0
H467 H 0.66906 0.2167 0.95852 0.0
H468 H 0.61045 0.04707 0.82192 0.0
H469 H 0.5889 0.13336 0.85078 0.0
H470 H 0.64774 0.11076 -0.00068 0.0
C471 C 0.67505 0.15882 0.0306 0.0
C472 C 0.68216 0.18914 0.01867 0.0
C473 C 0.59333 0.11426 0.84475 0.0
C474 C 0.63612 0.13917 0.9375 0.0
C475 C 0.5765 0.09024 0.79391 0.0
C476 C 0.58263 0.06575 0.78409 0.0
C477 C 0.616 0.1134 0.8865 0.0
C478 C 0.60516 0.06558 0.82755 0.0
C479 C 0.65204 0.13388 0.99064 0.0
C480 C 0.66421 0.19358 0.96885 0.0
N481 N 0.62101 0.08905 0.87691 0.0
N482 N 0.64212 0.1687 0.92891 0.0
H483 H 0.59681 0.72956 0.94951 0.0
H484 H 0.5054 0.6001 0.64332 0.0
H485 H 0.50832 0.70637 0.85879 0.0
H486 H 0.58773 0.61463 0.75151 0.0
H487 H 0.51475 0.6501 0.69554 0.0
H488 H 0.60153 0.69821 0.85445 0.0
C489 C 0.5786 0.71829 0.90912 0.0
C490 C 0.55183 0.71997 0.91302 0.0
C491 C 0.5313 0.64282 0.70615 0.0
C492 C 0.55705 0.68417 0.80416 0.0
C493 C 0.52617 0.6145 0.67549 0.0
C494 C 0.54566 0.60325 0.69401 0.0
C495 C 0.55599 0.65965 0.75556 0.0
C496 C 0.57204 0.62253 0.73665 0.0
C497 C 0.5813 0.70042 0.8548 0.0
C498 C 0.52909 0.70514 0.85879 0.0
N499 N 0.57613 0.6495 0.7672 0.0
N500 N 0.53204 0.68756 0.80723 0.0
H501 H 0.54482 0.21121 0.30594 0.0
H502 H 0.47145 0.07249 0.55836 0.0
H503 H 0.45427 0.17665 0.37627 0.0
H504 H 0.5356 0.08116 0.40704 0.0
H505 H 0.4718 0.11857 0.51571 0.0
H506 H 0.5492 0.1718 0.36905 0.0
C507 C 0.52614 0.19575 0.33572 0.0
C508 C 0.49905 0.19695 0.33534 0.0
C509 C 0.48586 0.11032 0.49236 0.0
C510 C 0.50391 0.15206 0.40756 0.0
C511 C 0.48565 0.08412 0.51657 0.0
C512 C 0.50314 0.07273 0.48546 0.0
C513 C 0.50428 0.12553 0.43811 0.0
C514 C 0.52134 0.0888 0.43176 0.0
C515 C 0.52855 0.17318 0.37129 0.0
C516 C 0.47544 0.17624 0.3746 0.0
N517 N 0.52149 0.11436 0.40998 0.0
N518 N 0.47835 0.15456 0.40897 0.0
H519 H 0.3101 0.50888 0.3236 0.0
H520 H 0.369 0.42158 0.56545 0.0
H521 H 0.26132 0.40924 0.32873 0.0
H522 H 0.42744 0.51204 0.4931 0.0
H523 H 0.32632 0.41777 0.4935 0.0
H524 H 0.34966 0.5117 0.40351 0.0
C525 C 0.30743 0.48756 0.34225 0.0
C526 C 0.28238 0.45871 0.31887 0.0
C527 C 0.34853 0.43837 0.49342 0.0
C528 C 0.32794 0.46191 0.41032 0.0
C529 C 0.37287 0.44062 0.53444 0.0
C530 C 0.40184 0.46719 0.53527 0.0
C531 C 0.35311 0.46308 0.45394 0.0
C532 C 0.40558 0.49106 0.49381 0.0
C533 C 0.33021 0.48922 0.38753 0.0
C534 C 0.28026 0.43195 0.34519 0.0
N535 N 0.38144 0.48851 0.4552 0.0
N536 N 0.30287 0.43417 0.3894 0.0
H537 H 0.79207 0.32408 0.3208 0.0
H538 H 0.96955 0.42682 0.36514 0.0
H539 H 0.85167 0.29398 0.23527 0.0
H540 H 0.91617 0.42391 0.53698 0.0
H541 H 0.92505 0.38089 0.30931 0.0
H542 H 0.83572 0.36408 0.39513 0.0
C543 C 0.81414 0.32569 0.31803 0.0
C544 C 0.81827 0.30583 0.27142 0.0
C545 C 0.92317 0.39007 0.35966 0.0
C546 C 0.86782 0.3513 0.35493 0.0
C547 C 0.94848 0.41618 0.39137 0.0
C548 C 0.94636 0.42889 0.45557 0.0
C549 C 0.89534 0.37716 0.39146 0.0
C550 C 0.9186 0.41446 0.48758 0.0
C551 C 0.83889 0.34832 0.36056 0.0
C552 C 0.84734 0.3088 0.27011 0.0
N553 N 0.89384 0.38953 0.45452 0.0
N554 N 0.87104 0.33137 0.31044 0.0
H555 H 0.58716 0.83048 0.27057 0.0
H556 H 0.48698 0.88383 0.48024 0.0
H557 H 0.4889 0.78479 0.24818 0.0
H558 H 0.58355 0.92325 0.52639 0.0
H559 H 0.48662 0.84215 0.40826 0.0
H560 H 0.58632 0.86052 0.37388 0.0
C561 C 0.56543 0.82658 0.28759 0.0
C562 C 0.5381 0.80543 0.24988 0.0
C563 C 0.50785 0.85946 0.43525 0.0
C564 C 0.53696 0.83954 0.3681 0.0
C565 C 0.50795 0.88309 0.47692 0.0
C566 C 0.53533 0.907 0.50902 0.0
C567 C 0.53548 0.86014 0.42413 0.0
C568 C 0.56192 0.90511 0.50273 0.0
C569 C 0.56495 0.84364 0.34673 0.0
C570 C 0.51061 0.80115 0.27478 0.0
N571 N 0.5615 0.88248 0.4596 0.0
N572 N 0.51078 0.81821 0.33173 0.0
H573 H 0.67368 0.47105 0.1413 0.0
H574 H 0.62326 0.56908 0.38955 0.0
H575 H 0.73301 0.56645 0.21603 0.0
H576 H 0.56007 0.47738 0.29755 0.0
H577 H 0.66415 0.56746 0.32964 0.0
H578 H 0.63241 0.4712 0.20453 0.0
C579 C 0.67816 0.49183 0.1718 0.0
C580 C 0.70681 0.51879 0.17319 0.0
C581 C 0.64131 0.54772 0.32227 0.0
C582 C 0.65974 0.51928 0.2447 0.0
C583 C 0.61787 0.5487 0.35629 0.0
C584 C 0.58807 0.52336 0.34869 0.0
C585 C 0.63508 0.52114 0.28048 0.0
C586 C 0.58263 0.49754 0.30491 0.0
C587 C 0.65455 0.49201 0.20734 0.0
C588 C 0.71126 0.54517 0.21308 0.0
N589 N 0.60591 0.49704 0.27277 0.0
N590 N 0.68802 0.54477 0.24692 0.0
H591 H 0.17273 0.7676 0.31014 0.0
H592 H 0.12531 0.60488 0.4611 0.0
H593 H 0.21296 0.7114 0.25518 0.0
H594 H 0.09116 0.66416 0.53517 0.0
H595 H 0.16265 0.64705 0.3976 0.0
H596 H 0.14658 0.73302 0.40149 0.0
C597 C 0.1762 0.74811 0.31741 0.0
C598 C 0.19482 0.74223 0.27422 0.0
C599 C 0.14744 0.65115 0.42876 0.0
C600 C 0.16506 0.70265 0.37896 0.0
C601 C 0.12625 0.6271 0.46555 0.0
C602 C 0.10493 0.63092 0.50307 0.0
C603 C 0.14701 0.67913 0.42836 0.0
C604 C 0.1072 0.66022 0.50698 0.0
C605 C 0.16136 0.72846 0.36982 0.0
C606 C 0.19862 0.71675 0.28658 0.0
N607 N 0.12742 0.68302 0.46882 0.0
N608 N 0.18372 0.69784 0.33727 0.0
loop_
_geom_bond_atom_site_label_1
_geom_bond_atom_site_label_2
_geom_bond_distance
_geom_bond_site_symmetry_2
_ccdc_geom_bond_type
C0 O2 1.247 . S
C0 O4 1.258 . S
C1 O8 1.247 . S
C1 O9 1.258 . S
O2 C0 1.247 . S
O2 Zn3 2.028 . S
Zn3 O2 2.028 . S
Zn3 O7 2.035 . S
Zn3 O9 2.035 . S
Zn3 O10 2.028 . S
O4 C0 1.258 . S
O4 Zn5 2.035 . S
Zn5 O4 2.035 . S
Zn5 O6 2.028 . S
Zn5 O8 2.028 . S
Zn5 O11 2.035 . S
O6 Zn5 2.028 . S
O6 C12 1.247 . S
O7 Zn3 2.035 . S
O7 C12 1.258 . S
O8 C1 1.247 . S
O8 Zn5 2.028 . S
O9 C1 1.258 . S
O9 Zn3 2.035 . S
O10 Zn3 2.028 . S
O10 C13 1.247 . S
O11 Zn5 2.035 . S
O11 C13 1.258 . S
C12 O6 1.247 . S
C12 O7 1.258 . S
C13 O10 1.247 . S
C13 O11 1.258 . S
C14 O16 1.247 . S
C14 O18 1.258 . S
C15 O22 1.247 . S
C15 O23 1.258 . S
O16 C14 1.247 . S
O16 Zn17 2.028 . S
Zn17 O16 2.028 . S
Zn17 O21 2.035 . S
Zn17 O23 2.035 . S
Zn17 O24 2.028 . S
O18 C14 1.258 . S
O18 Zn19 2.035 . S
Zn19 O18 2.035 . S
Zn19 O20 2.028 . S
Zn19 O22 2.028 . S
Zn19 O25 2.035 . S
O20 Zn19 2.028 . S
O20 C26 1.247 . S
O21 Zn17 2.035 . S
O21 C26 1.258 . S
O22 C15 1.247 . S
O22 Zn19 2.028 . S
O23 C15 1.258 . S
O23 Zn17 2.035 . S
O24 Zn17 2.028 . S
O24 C27 1.247 . S
O25 Zn19 2.035 . S
O25 C27 1.258 . S
C26 O20 1.247 . S
C26 O21 1.258 . S
C27 O24 1.247 . S
C27 O25 1.258 . S
C28 O30 1.247 . S
C28 O32 1.258 . S
C29 O36 1.247 . S
C29 O37 1.258 . S
O30 C28 1.247 . S
O30 Zn31 2.028 . S
Zn31 O30 2.028 . S
Zn31 O35 2.035 . S
Zn31 O37 2.035 1_554 S
Zn31 O38 2.028 1_554 S
O32 C28 1.258 . S
O32 Zn33 2.035 . S
Zn33 O32 2.035 . S
Zn33 O34 2.028 . S
Zn33 O36 2.028 1_554 S
Zn33 O39 2.035 1_554 S
O34 Zn33 2.028 . S
O34 C40 1.247 . S
O35 Zn31 2.035 . S
O35 C40 1.258 . S
O36 C29 1.247 . S
O36 Zn33 2.028 1_556 S
O37 C29 1.258 . S
O37 Zn31 2.035 1_556 S
O38 Zn31 2.028 1_556 S
O38 C41 1.247 . S
O39 Zn33 2.035 1_556 S
O39 C41 1.258 . S
C40 O34 1.247 . S
C40 O35 1.258 . S
C41 O38 1.247 . S
C41 O39 1.258 . S
C42 O44 1.247 . S
C42 O46 1.258 . S
C43 O50 1.247 . S
C43 O51 1.258 . S
O44 C42 1.247 . S
O44 Zn45 2.028 1_556 S
Zn45 O44 2.028 1_554 S
Zn45 O49 2.035 1_554 S
Zn45 O51 2.035 . S
Zn45 O52 2.028 . S
O46 C42 1.258 . S
O46 Zn47 2.035 1_556 S
Zn47 O46 2.035 1_554 S
Zn47 O48 2.028 1_554 S
Zn47 O50 2.028 . S
Zn47 O53 2.035 . S
O48 Zn47 2.028 1_556 S
O48 C54 1.247 . S
O49 Zn45 2.035 1_556 S
O49 C54 1.258 . S
O50 C43 1.247 . S
O50 Zn47 2.028 . S
O51 C43 1.258 . S
O51 Zn45 2.035 . S
O52 Zn45 2.028 . S
O52 C55 1.247 . S
O53 Zn47 2.035 . S
O53 C55 1.258 . S
C54 O48 1.247 . S
C54 O49 1.258 . S
C55 O52 1.247 . S
C55 O53 1.258 . S
C56 O58 1.247 . S
C56 O60 1.258 . S
C57 O64 1.247 . S
C57 O65 1.258 . S
O58 C56 1.247 . S
O58 Zn59 2.028 . S
Zn59 O58 2.028 . S
Zn59 O63 2.035 . S
Zn59 O65 2.035 . S
Zn59 O66 2.028 . S
O60 C56 1.258 . S
O60 Zn61 2.035 . S
Zn61 O60 2.035 . S
Zn61 O62 2.028 . S
Zn61 O64 2.028 . S
Zn61 O67 2.035 . S
O62 Zn61 2.028 . S
O62 C68 1.247 . S
O63 Zn59 2.035 . S
O63 C68 1.258 . S
O64 C57 1.247 . S
O64 Zn61 2.028 . S
O65 C57 1.258 . S
O65 Zn59 2.035 . S
O66 Zn59 2.028 . S
O66 C69 1.247 . S
O67 Zn61 2.035 . S
O67 C69 1.258 . S
C68 O62 1.247 . S
C68 O63 1.258 . S
C69 O66 1.247 . S
C69 O67 1.258 . S
C70 O72 1.247 . S
C70 O74 1.258 . S
C71 O78 1.247 . S
C71 O79 1.258 . S
O72 C70 1.247 . S
O72 Zn73 2.028 . S
Zn73 O72 2.028 . S
Zn73 O77 2.035 . S
Zn73 O79 2.035 . S
Zn73 O80 2.028 . S
O74 C70 1.258 . S
O74 Zn75 2.035 . S
Zn75 O74 2.035 . S
Zn75 O76 2.028 . S
Zn75 O78 2.028 . S
Zn75 O81 2.035 . S
O76 Zn75 2.028 . S
O76 C82 1.247 . S
O77 Zn73 2.035 . S
O77 C82 1.258 . S
O78 C71 1.247 . S
O78 Zn75 2.028 . S
O79 C71 1.258 . S
O79 Zn73 2.035 . S
O80 Zn73 2.028 . S
O80 C83 1.247 . S
O81 Zn75 2.035 . S
O81 C83 1.258 . S
C82 O76 1.247 . S
C82 O77 1.258 . S
C83 O80 1.247 . S
C83 O81 1.258 . S
C84 O111 1.312 . S
C84 O112 1.208 . S
C85 O106 1.331 . S
C85 O109 1.244 . S
C86 O108 1.264 . S
C86 O110 1.273 . S
Mg87 O89 1.936 1_455 S
Mg87 O96 2.081 1_455 S
Mg87 O98 2.023 . S
Mg87 O102 2.031 1_455 S
Mg87 O111 2.291 . S
Mg88 O89 1.963 . S
Mg88 O99 1.942 . S
Mg88 O100 1.955 1_655 S
Mg88 O107 1.986 . S
O89 Mg87 1.936 1_655 S
O89 Mg88 1.963 . S
O89 Mg90 1.915 1_655 S
Mg90 O89 1.915 1_455 S
Mg90 O91 1.915 . S
Mg90 O95 2.013 . S
Mg90 O101 2.114 1_455 S
Mg90 O105 2.013 1_455 S
Mg90 O111 2.114 . S
O91 Mg90 1.915 . S
O91 Mg92 1.936 . S
O91 Mg93 1.963 . S
Mg92 O91 1.936 . S
Mg92 O101 2.291 1_455 S
Mg92 O106 2.081 . S
Mg92 O108 2.023 1_455 S
Mg92 O112 2.031 . S
Mg93 O91 1.963 . S
Mg93 O97 1.986 . S
Mg93 O109 1.942 . S
Mg93 O110 1.955 1_455 S
C94 O105 1.191 . S
C94 O107 1.307 . S
O95 Mg90 2.013 . S
O95 C114 1.191 . S
O96 Mg87 2.081 1_655 S
O96 C104 1.331 . S
O97 Mg93 1.986 . S
O97 C114 1.307 . S
O98 Mg87 2.023 . S
O98 C113 1.264 . S
O99 Mg88 1.942 . S
O99 C104 1.244 . S
O100 Mg88 1.955 1_455 S
O100 C113 1.273 . S
O101 Mg90 2.114 1_655 S
O101 Mg92 2.291 1_655 S
O101 C103 1.312 . S
O102 Mg87 2.031 1_655 S
O102 C103 1.208 . S
C103 O101 1.312 . S
C103 O102 1.208 . S
C104 O96 1.331 . S
C104 O99 1.244 . S
O105 Mg90 2.013 1_655 S
O105 C94 1.191 . S
O106 C85 1.331 . S
O106 Mg92 2.081 . S
O107 Mg88 1.986 . S
O107 C94 1.307 . S
O108 C86 1.264 . S
O108 Mg92 2.023 1_655 S
O109 C85 1.244 . S
O109 Mg93 1.942 . S
O110 C86 1.273 . S
O110 Mg93 1.955 1_655 S
O111 C84 1.312 . S
O111 Mg87 2.291 . S
O111 Mg90 2.114 . S
O112 C84 1.208 . S
O112 Mg92 2.031 . S
C113 O98 1.264 . S
C113 O100 1.273 . S
C114 O95 1.191 . S
C114 O97 1.307 . S
C115 O142 1.312 . S
C115 O143 1.208 . S
C116 O137 1.331 . S
C116 O140 1.244 . S
C117 O139 1.264 . S
C117 O141 1.273 . S
Mg118 O120 1.936 1_545 S
Mg118 O127 2.081 1_545 S
Mg118 O129 2.023 . S
Mg118 O133 2.031 1_545 S
Mg118 O142 2.291 . S
Mg119 O120 1.963 . S
Mg119 O130 1.942 . S
Mg119 O131 1.955 1_565 S
Mg119 O138 1.986 . S
O120 Mg118 1.936 1_565 S
O120 Mg119 1.963 . S
O120 Mg121 1.915 1_565 S
Mg121 O120 1.915 1_545 S
Mg121 O122 1.915 . S
Mg121 O126 2.013 . S
Mg121 O132 2.114 1_545 S
Mg121 O136 2.013 1_545 S
Mg121 O142 2.114 . S
O122 Mg121 1.915 . S
O122 Mg123 1.936 . S
O122 Mg124 1.963 . S
Mg123 O122 1.936 . S
Mg123 O132 2.291 1_545 S
Mg123 O137 2.081 . S
Mg123 O139 2.023 1_545 S
Mg123 O143 2.031 . S
Mg124 O122 1.963 . S
Mg124 O128 1.986 . S
Mg124 O140 1.942 . S
Mg124 O141 1.955 1_545 S
C125 O136 1.191 . S
C125 O138 1.307 . S
O126 Mg121 2.013 . S
O126 C145 1.191 . S
O127 Mg118 2.081 1_565 S
O127 C135 1.331 . S
O128 Mg124 1.986 . S
O128 C145 1.307 . S
O129 Mg118 2.023 . S
O129 C144 1.264 . S
O130 Mg119 1.942 . S
O130 C135 1.244 . S
O131 Mg119 1.955 1_545 S
O131 C144 1.273 . S
O132 Mg121 2.114 1_565 S
O132 Mg123 2.291 1_565 S
O132 C134 1.312 . S
O133 Mg118 2.031 1_565 S
O133 C134 1.208 . S
C134 O132 1.312 . S
C134 O133 1.208 . S
C135 O127 1.331 . S
C135 O130 1.244 . S
O136 Mg121 2.013 1_565 S
O136 C125 1.191 . S
O137 C116 1.331 . S
O137 Mg123 2.081 . S
O138 Mg119 1.986 . S
O138 C125 1.307 . S
O139 C117 1.264 . S
O139 Mg123 2.023 1_565 S
O140 C116 1.244 . S
O140 Mg124 1.942 . S
O141 C117 1.273 . S
O141 Mg124 1.955 1_565 S
O142 C115 1.312 . S
O142 Mg118 2.291 . S
O142 Mg121 2.114 . S
O143 C115 1.208 . S
O143 Mg123 2.031 . S
C144 O129 1.264 . S
C144 O131 1.273 . S
C145 O126 1.191 . S
C145 O128 1.307 . S
C146 O173 1.312 . S
C146 O174 1.208 . S
C147 O168 1.331 . S
C147 O171 1.244 . S
C148 O170 1.264 . S
C148 O172 1.273 . S
Mg149 O151 1.936 . S
Mg149 O158 2.081 . S
Mg149 O160 2.023 . S
Mg149 O164 2.031 . S
Mg149 O173 2.291 . S
Mg150 O151 1.963 . S
Mg150 O161 1.942 . S
Mg150 O162 1.955 . S
Mg150 O169 1.986 . S
O151 Mg149 1.936 . S
O151 Mg150 1.963 . S
O151 Mg152 1.915 . S
Mg152 O151 1.915 . S
Mg152 O153 1.915 . S
Mg152 O157 2.013 . S
Mg152 O163 2.114 . S
Mg152 O167 2.013 . S
Mg152 O173 2.114 . S
O153 Mg152 1.915 . S
O153 Mg154 1.936 . S
O153 Mg155 1.963 . S
Mg154 O153 1.936 . S
Mg154 O163 2.291 . S
Mg154 O168 2.081 . S
Mg154 O170 2.023 . S
Mg154 O174 2.031 . S
Mg155 O153 1.963 . S
Mg155 O159 1.986 . S
Mg155 O171 1.942 . S
Mg155 O172 1.955 . S
C156 O167 1.191 . S
C156 O169 1.307 . S
O157 Mg152 2.013 . S
O157 C176 1.191 . S
O158 Mg149 2.081 . S
O158 C166 1.331 . S
O159 Mg155 1.986 . S
O159 C176 1.307 . S
O160 Mg149 2.023 . S
O160 C175 1.264 . S
O161 Mg150 1.942 . S
O161 C166 1.244 . S
O162 Mg150 1.955 . S
O162 C175 1.273 . S
O163 Mg152 2.114 . S
O163 Mg154 2.291 . S
O163 C165 1.312 . S
O164 Mg149 2.031 . S
O164 C165 1.208 . S
C165 O163 1.312 . S
C165 O164 1.208 . S
C166 O158 1.331 . S
C166 O161 1.244 . S
O167 Mg152 2.013 . S
O167 C156 1.191 . S
O168 C147 1.331 . S
O168 Mg154 2.081 . S
O169 Mg150 1.986 . S
O169 C156 1.307 . S
O170 C148 1.264 . S
O170 Mg154 2.023 . S
O171 C147 1.244 . S
O171 Mg155 1.942 . S
O172 C148 1.273 . S
O172 Mg155 1.955 . S
O173 C146 1.312 . S
O173 Mg149 2.291 . S
O173 Mg152 2.114 . S
O174 C146 1.208 . S
O174 Mg154 2.031 . S
C175 O160 1.264 . S
C175 O162 1.273 . S
C176 O157 1.191 . S
C176 O159 1.307 . S
H177 C183 0.930 . S
H178 C187 0.930 . S
H179 C192 0.929 . S
H180 C190 0.929 . S
H181 C185 0.929 . S
H182 C191 0.929 . S
C183 H177 0.930 . S
C183 C184 1.367 . S
C183 C191 1.378 . S
C184 C183 1.367 . S
C184 C192 1.433 . S
C185 H181 0.929 . S
C185 C187 1.378 . S
C185 C189 1.350 . S
C186 C189 1.463 . S
C186 C191 1.350 . S
C186 N194 1.427 . S
C187 H178 0.930 . S
C187 C185 1.378 . S
C187 C188 1.367 . S
C188 C187 1.367 . S
C188 C190 1.433 . S
C189 C185 1.350 . S
C189 C186 1.463 . S
C189 N193 1.427 . S
C190 H180 0.929 . S
C190 C188 1.433 . S
C190 N193 1.384 . S
C191 H182 0.929 . S
C191 C183 1.378 . S
C191 C186 1.350 . S
C192 H179 0.929 . S
C192 C184 1.433 . S
C192 N194 1.384 . S
N193 C189 1.427 . S
N193 C190 1.384 . S
N194 C186 1.427 . S
N194 C192 1.384 . S
H195 C201 0.930 . S
H196 C205 0.930 . S
H197 C210 0.929 . S
H198 C208 0.929 . S
H199 C203 0.929 . S
H200 C209 0.929 . S
C201 H195 0.930 . S
C201 C202 1.367 . S
C201 C209 1.378 . S
C202 C201 1.367 . S
C202 C210 1.433 . S
C203 H199 0.929 . S
C203 C205 1.378 . S
C203 C207 1.350 . S
C204 C207 1.463 . S
C204 C209 1.350 . S
C204 N212 1.427 . S
C205 H196 0.930 . S
C205 C203 1.378 . S
C205 C206 1.367 . S
C206 C205 1.367 . S
C206 C208 1.433 . S
C207 C203 1.350 . S
C207 C204 1.463 . S
C207 N211 1.427 . S
C208 H198 0.929 . S
C208 C206 1.433 . S
C208 N211 1.384 . S
C209 H200 0.929 . S
C209 C201 1.378 . S
C209 C204 1.350 . S
C210 H197 0.929 . S
C210 C202 1.433 . S
C210 N212 1.384 . S
N211 C207 1.427 . S
N211 C208 1.384 . S
N212 C204 1.427 . S
N212 C210 1.384 . S
H213 C219 0.930 . S
H214 C223 0.930 . S
H215 C228 0.929 . S
H216 C226 0.929 . S
H217 C221 0.929 . S
H218 C227 0.929 . S
C219 H213 0.930 . S
C219 C220 1.367 . S
C219 C227 1.378 . S
C220 C219 1.367 . S
C220 C228 1.433 . S
C221 H217 0.929 . S
C221 C223 1.378 . S
C221 C225 1.350 . S
C222 C225 1.463 . S
C222 C227 1.350 . S
C222 N230 1.427 . S
C223 H214 0.930 . S
C223 C221 1.378 . S
C223 C224 1.367 . S
C224 C223 1.367 . S
C224 C226 1.433 . S
C225 C221 1.350 . S
C225 C222 1.463 . S
C225 N229 1.427 . S
C226 H216 0.929 . S
C226 C224 1.433 . S
C226 N229 1.384 . S
C227 H218 0.929 . S
C227 C219 1.378 . S
C227 C222 1.350 . S
C228 H215 0.929 . S
C228 C220 1.433 . S
C228 N230 1.384 . S
N229 C225 1.427 . S
N229 C226 1.384 . S
N230 C222 1.427 . S
N230 C228 1.384 . S
H231 C237 0.930 . S
H232 C241 0.930 . S
H233 C246 0.929 . S
H234 C244 0.929 . S
H235 C239 0.929 . S
H236 C245 0.929 . S
C237 H231 0.930 . S
C237 C238 1.367 . S
C237 C245 1.378 . S
C238 C237 1.367 . S
C238 C246 1.433 . S
C239 H235 0.929 . S
C239 C241 1.378 . S
C239 C243 1.350 . S
C240 C243 1.463 . S
C240 C245 1.350 . S
C240 N248 1.427 . S
C241 H232 0.930 . S
C241 C239 1.378 . S
C241 C242 1.367 . S
C242 C241 1.367 . S
C242 C244 1.433 . S
C243 C239 1.350 . S
C243 C240 1.463 . S
C243 N247 1.427 . S
C244 H234 0.929 . S
C244 C242 1.433 . S
C244 N247 1.384 . S
C245 H236 0.929 . S
C245 C237 1.378 . S
C245 C240 1.350 . S
C246 H233 0.929 . S
C246 C238 1.433 . S
C246 N248 1.384 . S
N247 C243 1.427 . S
N247 C244 1.384 . S
N248 C240 1.427 . S
N248 C246 1.384 . S
H249 C255 0.930 . S
H250 C259 0.930 . S
H251 C264 0.929 . S
H252 C262 0.929 . S
H253 C257 0.929 . S
H254 C263 0.929 . S
C255 H249 0.930 . S
C255 C256 1.367 . S
C255 C263 1.378 . S
C256 C255 1.367 . S
C256 C264 1.433 . S
C257 H253 0.929 . S
C257 C259 1.378 . S
C257 C261 1.350 . S
C258 C261 1.463 . S
C258 C263 1.350 . S
C258 N266 1.427 . S
C259 H250 0.930 . S
C259 C257 1.378 . S
C259 C260 1.367 . S
C260 C259 1.367 . S
C260 C262 1.433 . S
C261 C257 1.350 . S
C261 C258 1.463 . S
C261 N265 1.427 . S
C262 H252 0.929 . S
C262 C260 1.433 . S
C262 N265 1.384 . S
C263 H254 0.929 . S
C263 C255 1.378 . S
C263 C258 1.350 . S
C264 H251 0.929 . S
C264 C256 1.433 . S
C264 N266 1.384 . S
N265 C261 1.427 . S
N265 C262 1.384 . S
N266 C258 1.427 . S
N266 C264 1.384 . S
H267 C273 0.930 . S
H268 C277 0.930 . S
H269 C282 0.929 . S
H270 C280 0.929 . S
H271 C275 0.929 . S
H272 C281 0.929 . S
C273 H267 0.930 . S
C273 C274 1.367 . S
C273 C281 1.378 . S
C274 C273 1.367 . S
C274 C282 1.433 . S
C275 H271 0.929 . S
C275 C277 1.378 . S
C275 C279 1.350 . S
C276 C279 1.463 . S
C276 C281 1.350 . S
C276 N284 1.427 . S
C277 H268 0.930 . S
C277 C275 1.378 . S
C277 C278 1.367 . S
C278 C277 1.367 . S
C278 C280 1.433 . S
C279 C275 1.350 . S
C279 C276 1.463 . S
C279 N283 1.427 . S
C280 H270 0.929 . S
C280 C278 1.433 . S
C280 N283 1.384 . S
C281 H272 0.929 . S
C281 C273 1.378 . S
C281 C276 1.350 . S
C282 H269 0.929 . S
C282 C274 1.433 . S
C282 N284 1.384 . S
N283 C279 1.427 . S
N283 C280 1.384 . S
N284 C276 1.427 . S
N284 C282 1.384 . S
H285 C291 0.930 . S
H286 C295 0.930 . S
H287 C300 0.929 . S
H288 C298 0.929 . S
H289 C293 0.929 . S
H290 C299 0.929 . S
C291 H285 0.930 . S
C291 C292 1.367 . S
C291 C299 1.378 . S
C292 C291 1.367 . S
C292 C300 1.433 . S
C293 H289 0.929 . S
C293 C295 1.378 . S
C293 C297 1.350 . S
C294 C297 1.463 . S
C294 C299 1.350 . S
C294 N302 1.427 . S
C295 H286 0.930 . S
C295 C293 1.378 . S
C295 C296 1.367 . S
C296 C295 1.367 . S
C296 C298 1.433 . S
C297 C293 1.350 . S
C297 C294 1.463 . S
C297 N301 1.427 . S
C298 H288 0.929 . S
C298 C296 1.433 . S
C298 N301 1.384 . S
C299 H290 0.929 . S
C299 C291 1.378 . S
C299 C294 1.350 . S
C300 H287 0.929 . S
C300 C292 1.433 . S
C300 N302 1.384 . S
N301 C297 1.427 . S
N301 C298 1.384 . S
N302 C294 1.427 . S
N302 C300 1.384 . S
H303 C309 0.930 . S
H304 C313 0.930 . S
H305 C318 0.929 . S
H306 C316 0.929 . S
H307 C311 0.929 . S
H308 C317 0.929 . S
C309 H303 0.930 . S
C309 C310 1.367 . S
C309 C317 1.378 . S
C310 C309 1.367 . S
C310 C318 1.433 . S
C311 H307 0.929 . S
C311 C313 1.378 . S
C311 C315 1.350 . S
C312 C315 1.463 . S
C312 C317 1.350 . S
C312 N320 1.427 . S
C313 H304 0.930 . S
C313 C311 1.378 . S
C313 C314 1.367 . S
C314 C313 1.367 . S
C314 C316 1.433 . S
C315 C311 1.350 . S
C315 C312 1.463 . S
C315 N319 1.427 . S
C316 H306 0.929 . S
C316 C314 1.433 . S
C316 N319 1.384 . S
C317 H308 0.929 . S
C317 C309 1.378 . S
C317 C312 1.350 . S
C318 H305 0.929 . S
C318 C310 1.433 . S
C318 N320 1.384 . S
N319 C315 1.427 . S
N319 C316 1.384 . S
N320 C312 1.427 . S
N320 C318 1.384 . S
H321 C327 0.941 . S
H322 C331 0.930 . S
H323 C336 0.929 . S
H324 C334 0.929 . S
H325 C329 0.929 . S
H326 C335 0.929 . S
C327 H321 0.941 . S
C327 C328 1.363 1_554 S
C327 C335 1.371 1_554 S
C328 C327 1.363 1_556 S
C328 C336 1.433 . S
C329 H325 0.929 . S
C329 C331 1.378 . S
C329 C333 1.350 . S
C330 C333 1.463 . S
C330 C335 1.350 . S
C330 N338 1.427 . S
C331 H322 0.930 . S
C331 C329 1.378 . S
C331 C332 1.367 . S
C332 C331 1.367 . S
C332 C334 1.433 . S
C333 C329 1.350 . S
C333 C330 1.463 . S
C333 N337 1.427 . S
C334 H324 0.929 . S
C334 C332 1.433 . S
C334 N337 1.384 . S
C335 H326 0.929 . S
C335 C327 1.371 1_556 S
C335 C330 1.350 . S
C336 H323 0.929 . S
C336 C328 1.433 . S
C336 N338 1.384 . S
N337 C333 1.427 . S
N337 C334 1.384 . S
N338 C330 1.427 . S
N338 C336 1.384 . S
H339 C345 0.930 . S
H340 C349 0.930 . S
H341 C354 0.929 . S
H342 C352 0.929 . S
H343 C347 0.929 . S
H344 C353 0.929 . S
C345 H339 0.930 . S
C345 C346 1.367 . S
C345 C353 1.378 . S
C346 C345 1.367 . S
C346 C354 1.433 . S
C347 H343 0.929 . S
C347 C349 1.378 . S
C347 C351 1.350 . S
C348 C351 1.463 . S
C348 C353 1.350 1_556 S
C348 N356 1.427 . S
C349 H340 0.930 . S
C349 C347 1.378 . S
C349 C350 1.367 . S
C350 C349 1.367 . S
C350 C352 1.433 . S
C351 C347 1.350 . S
C351 C348 1.463 . S
C351 N355 1.427 . S
C352 H342 0.929 . S
C352 C350 1.433 . S
C352 N355 1.384 . S
C353 H344 0.929 . S
C353 C345 1.378 . S
C353 C348 1.350 1_554 S
C354 H341 0.929 . S
C354 C346 1.433 . S
C354 N356 1.384 1_554 S
N355 C351 1.427 . S
N355 C352 1.384 . S
N356 C348 1.427 . S
N356 C354 1.384 1_556 S
H357 C363 0.930 1_556 S
H358 C367 0.930 . S
H359 C372 0.929 . S
H360 C370 0.929 . S
H361 C365 0.929 . S
H362 C371 0.929 . S
C363 H357 0.930 1_554 S
C363 C364 1.367 . S
C363 C371 1.378 1_554 S
C364 C363 1.367 . S
C364 C372 1.433 . S
C365 H361 0.929 . S
C365 C367 1.378 . S
C365 C369 1.350 . S
C366 C369 1.463 . S
C366 C371 1.350 . S
C366 N374 1.427 1_556 S
C367 H358 0.930 . S
C367 C365 1.378 . S
C367 C368 1.367 . S
C368 C367 1.367 . S
C368 C370 1.433 . S
C369 C365 1.350 . S
C369 C366 1.463 . S
C369 N373 1.427 . S
C370 H360 0.929 . S
C370 C368 1.433 . S
C370 N373 1.384 . S
C371 H362 0.929 . S
C371 C363 1.378 1_556 S
C371 C366 1.350 . S
C372 H359 0.929 . S
C372 C364 1.433 . S
C372 N374 1.384 . S
N373 C369 1.427 . S
N373 C370 1.384 . S
N374 C366 1.427 1_554 S
N374 C372 1.384 . S
H375 C381 0.930 . S
H376 C385 0.930 . S
H377 C390 0.929 . S
H378 C388 0.929 . S
H379 C383 0.929 . S
H380 C389 0.929 . S
C381 H375 0.930 . S
C381 C382 1.367 . S
C381 C389 1.378 . S
C382 C381 1.367 . S
C382 C390 1.433 1_556 S
C383 H379 0.929 . S
C383 C385 1.378 . S
C383 C387 1.350 . S
C384 C387 1.463 . S
C384 C389 1.350 . S
C384 N392 1.427 . S
C385 H376 0.930 . S
C385 C383 1.378 . S
C385 C386 1.367 . S
C386 C385 1.367 . S
C386 C388 1.433 . S
C387 C383 1.350 . S
C387 C384 1.463 . S
C387 N391 1.427 . S
C388 H378 0.929 . S
C388 C386 1.433 . S
C388 N391 1.384 . S
C389 H380 0.929 . S
C389 C381 1.378 . S
C389 C384 1.350 . S
C390 H377 0.929 . S
C390 C382 1.433 1_554 S
C390 N392 1.384 1_554 S
N391 C387 1.427 . S
N391 C388 1.384 . S
N392 C384 1.427 . S
N392 C390 1.384 1_556 S
H393 C399 0.930 . S
H394 C403 0.930 . S
H395 C408 0.929 . S
H396 C406 0.929 . S
H397 C401 0.929 . S
H398 C407 0.929 . S
C399 H393 0.930 . S
C399 C400 1.367 . S
C399 C407 1.378 . S
C400 C399 1.367 . S
C400 C408 1.433 . S
C401 H397 0.929 . S
C401 C403 1.378 . S
C401 C405 1.350 . S
C402 C405 1.463 . S
C402 C407 1.350 . S
C402 N410 1.427 . S
C403 H394 0.930 . S
C403 C401 1.378 . S
C403 C404 1.367 . S
C404 C403 1.367 . S
C404 C406 1.433 . S
C405 C401 1.350 . S
C405 C402 1.463 . S
C405 N409 1.427 . S
C406 H396 0.929 . S
C406 C404 1.433 . S
C406 N409 1.384 . S
C407 H398 0.929 . S
C407 C399 1.378 . S
C407 C402 1.350 . S
C408 H395 0.929 . S
C408 C400 1.433 . S
C408 N410 1.384 . S
N409 C405 1.427 . S
N409 C406 1.384 . S
N410 C402 1.427 . S
N410 C408 1.384 . S
H411 C417 0.930 . S
H412 C421 0.930 . S
H413 C426 0.929 . S
H414 C424 0.929 . S
H415 C419 0.929 . S
H416 C425 0.929 . S
C417 H411 0.930 . S
C417 C418 1.367 . S
C417 C425 1.378 . S
C418 C417 1.367 . S
C418 C426 1.433 1_556 S
C419 H415 0.929 . S
C419 C421 1.378 . S
C419 C423 1.350 . S
C420 C423 1.463 . S
C420 C425 1.350 . S
C420 N428 1.427 . S
C421 H412 0.930 . S
C421 C419 1.378 . S
C421 C422 1.367 . S
C422 C421 1.367 . S
C422 C424 1.433 . S
C423 C419 1.350 . S
C423 C420 1.463 . S
C423 N427 1.427 . S
C424 H414 0.929 . S
C424 C422 1.433 . S
C424 N427 1.384 . S
C425 H416 0.929 . S
C425 C417 1.378 . S
C425 C420 1.350 . S
C426 H413 0.929 . S
C426 C418 1.433 1_554 S
C426 N428 1.384 1_554 S
N427 C423 1.427 . S
N427 C424 1.384 . S
N428 C420 1.427 . S
N428 C426 1.384 1_556 S
H429 C435 0.930 . S
H430 C439 0.930 . S
H431 C444 0.929 . S
H432 C442 0.929 . S
H433 C437 0.929 . S
H434 C443 0.929 . S
C435 H429 0.930 . S
C435 C436 1.367 1_556 S
C435 C443 1.378 . S
C436 C435 1.367 1_554 S
C436 C444 1.433 . S
C437 H433 0.929 . S
C437 C439 1.378 . S
C437 C441 1.350 . S
C438 C441 1.463 . S
C438 C443 1.350 . S
C438 N446 1.427 1_556 S
C439 H430 0.930 . S
C439 C437 1.378 . S
C439 C440 1.367 . S
C440 C439 1.367 . S
C440 C442 1.433 . S
C441 C437 1.350 . S
C441 C438 1.463 . S
C441 N445 1.427 . S
C442 H432 0.929 . S
C442 C440 1.433 . S
C442 N445 1.384 . S
C443 H434 0.929 . S
C443 C435 1.378 . S
C443 C438 1.350 . S
C444 H431 0.929 . S
C444 C436 1.433 . S
C444 N446 1.384 . S
N445 C441 1.427 . S
N445 C442 1.384 . S
N446 C438 1.427 1_554 S
N446 C444 1.384 . S
H447 C453 0.930 . S
H448 C457 0.930 . S
H449 C462 0.929 . S
H450 C460 0.929 . S
H451 C455 0.929 . S
H452 C461 0.929 . S
C453 H447 0.930 . S
C453 C454 1.367 . S
C453 C461 1.378 1_554 S
C454 C453 1.367 . S
C454 C462 1.433 . S
C455 H451 0.929 . S
C455 C457 1.378 . S
C455 C459 1.350 . S
C456 C459 1.463 . S
C456 C461 1.350 . S
C456 N464 1.427 . S
C457 H448 0.930 . S
C457 C455 1.378 . S
C457 C458 1.367 . S
C458 C457 1.367 . S
C458 C460 1.433 . S
C459 C455 1.350 . S
C459 C456 1.463 . S
C459 N463 1.427 . S
C460 H450 0.929 . S
C460 C458 1.433 . S
C460 N463 1.384 . S
C461 H452 0.929 . S
C461 C453 1.378 1_556 S
C461 C456 1.350 . S
C462 H449 0.929 . S
C462 C454 1.433 . S
C462 N464 1.384 1_554 S
N463 C459 1.427 . S
N463 C460 1.384 . S
N464 C456 1.427 . S
N464 C462 1.384 1_556 S
H465 C471 0.930 1_554 S
H466 C475 0.930 . S
H467 C480 0.929 . S
H468 C478 0.929 . S
H469 C473 0.929 . S
H470 C479 0.929 . S
C471 H465 0.930 1_556 S
C471 C472 1.367 . S
C471 C479 1.378 . S
C472 C471 1.367 . S
C472 C480 1.433 . S
C473 H469 0.929 . S
C473 C475 1.378 . S
C473 C477 1.350 . S
C474 C477 1.463 . S
C474 C479 1.350 . S
C474 N482 1.427 . S
C475 H466 0.930 . S
C475 C473 1.378 . S
C475 C476 1.367 . S
C476 C475 1.367 . S
C476 C478 1.433 . S
C477 C473 1.350 . S
C477 C474 1.463 . S
C477 N481 1.427 . S
C478 H468 0.929 . S
C478 C476 1.433 . S
C478 N481 1.384 . S
C479 H470 0.929 . S
C479 C471 1.378 . S
C479 C474 1.350 . S
C480 H467 0.929 . S
C480 C472 1.433 . S
C480 N482 1.384 . S
N481 C477 1.427 . S
N481 C478 1.384 . S
N482 C474 1.427 . S
N482 C480 1.384 . S
H483 C489 0.930 1_554 S
H484 C493 0.930 . S
H485 C498 0.929 . S
H486 C496 0.929 . S
H487 C491 0.929 . S
H488 C497 0.929 . S
C489 H483 0.930 1_556 S
C489 C490 1.367 . S
C489 C497 1.378 . S
C490 C489 1.367 . S
C490 C498 1.433 . S
C491 H487 0.929 . S
C491 C493 1.378 . S
C491 C495 1.350 . S
C492 C495 1.463 . S
C492 C497 1.350 . S
C492 N500 1.427 . S
C493 H484 0.930 . S
C493 C491 1.378 . S
C493 C494 1.367 . S
C494 C493 1.367 . S
C494 C496 1.433 . S
C495 C491 1.350 . S
C495 C492 1.463 . S
C495 N499 1.427 . S
C496 H486 0.929 . S
C496 C494 1.433 . S
C496 N499 1.384 . S
C497 H488 0.929 . S
C497 C489 1.378 . S
C497 C492 1.350 . S
C498 H485 0.929 . S
C498 C490 1.433 . S
C498 N500 1.384 . S
N499 C495 1.427 . S
N499 C496 1.384 . S
N500 C492 1.427 . S
N500 C498 1.384 . S
H501 C507 0.930 . S
H502 C511 0.930 . S
H503 C516 0.929 . S
H504 C514 0.929 . S
H505 C509 0.929 . S
H506 C515 0.929 . S
C507 H501 0.930 . S
C507 C508 1.367 . S
C507 C515 1.378 . S
C508 C507 1.367 . S
C508 C516 1.433 . S
C509 H505 0.929 . S
C509 C511 1.378 . S
C509 C513 1.350 . S
C510 C513 1.463 . S
C510 C515 1.350 . S
C510 N518 1.427 . S
C511 H502 0.930 . S
C511 C509 1.378 . S
C511 C512 1.367 . S
C512 C511 1.367 . S
C512 C514 1.433 . S
C513 C509 1.350 . S
C513 C510 1.463 . S
C513 N517 1.427 . S
C514 H504 0.929 . S
C514 C512 1.433 . S
C514 N517 1.384 . S
C515 H506 0.929 . S
C515 C507 1.378 . S
C515 C510 1.350 . S
C516 H503 0.929 . S
C516 C508 1.433 . S
C516 N518 1.384 . S
N517 C513 1.427 . S
N517 C514 1.384 . S
N518 C510 1.427 . S
N518 C516 1.384 . S
H519 C525 0.930 . S
H520 C529 0.930 . S
H521 C534 0.929 . S
H522 C532 0.929 . S
H523 C527 0.929 . S
H524 C533 0.929 . S
C525 H519 0.930 . S
C525 C526 1.367 . S
C525 C533 1.378 . S
C526 C525 1.367 . S
C526 C534 1.433 . S
C527 H523 0.929 . S
C527 C529 1.378 . S
C527 C531 1.350 . S
C528 C531 1.463 . S
C528 C533 1.350 . S
C528 N536 1.427 . S
C529 H520 0.930 . S
C529 C527 1.378 . S
C529 C530 1.367 . S
C530 C529 1.367 . S
C530 C532 1.433 . S
C531 C527 1.350 . S
C531 C528 1.463 . S
C531 N535 1.427 . S
C532 H522 0.929 . S
C532 C530 1.433 . S
C532 N535 1.384 . S
C533 H524 0.929 . S
C533 C525 1.378 . S
C533 C528 1.350 . S
C534 H521 0.929 . S
C534 C526 1.433 . S
C534 N536 1.384 . S
N535 C531 1.427 . S
N535 C532 1.384 . S
N536 C528 1.427 . S
N536 C534 1.384 . S
H537 C543 0.930 . S
H538 C547 0.930 . S
H539 C552 0.929 . S
H540 C550 0.929 . S
H541 C545 0.929 . S
H542 C551 0.929 . S
C543 H537 0.930 . S
C543 C544 1.367 . S
C543 C551 1.378 . S
C544 C543 1.367 . S
C544 C552 1.433 . S
C545 H541 0.929 . S
C545 C547 1.378 . S
C545 C549 1.350 . S
C546 C549 1.463 . S
C546 C551 1.350 . S
C546 N554 1.427 . S
C547 H538 0.930 . S
C547 C545 1.378 . S
C547 C548 1.367 . S
C548 C547 1.367 . S
C548 C550 1.433 . S
C549 C545 1.350 . S
C549 C546 1.463 . S
C549 N553 1.427 . S
C550 H540 0.929 . S
C550 C548 1.433 . S
C550 N553 1.384 . S
C551 H542 0.929 . S
C551 C543 1.378 . S
C551 C546 1.350 . S
C552 H539 0.929 . S
C552 C544 1.433 . S
C552 N554 1.384 . S
N553 C549 1.427 . S
N553 C550 1.384 . S
N554 C546 1.427 . S
N554 C552 1.384 . S
H555 C561 0.930 . S
H556 C565 0.930 . S
H557 C570 0.929 . S
H558 C568 0.929 . S
H559 C563 0.929 . S
H560 C569 0.929 . S
C561 H555 0.930 . S
C561 C562 1.367 . S
C561 C569 1.378 . S
C562 C561 1.367 . S
C562 C570 1.433 . S
C563 H559 0.929 . S
C563 C565 1.378 . S
C563 C567 1.350 . S
C564 C567 1.463 . S
C564 C569 1.350 . S
C564 N572 1.427 . S
C565 H556 0.930 . S
C565 C563 1.378 . S
C565 C566 1.367 . S
C566 C565 1.367 . S
C566 C568 1.433 . S
C567 C563 1.350 . S
C567 C564 1.463 . S
C567 N571 1.427 . S
C568 H558 0.929 . S
C568 C566 1.433 . S
C568 N571 1.384 . S
C569 H560 0.929 . S
C569 C561 1.378 . S
C569 C564 1.350 . S
C570 H557 0.929 . S
C570 C562 1.433 . S
C570 N572 1.384 . S
N571 C567 1.427 . S
N571 C568 1.384 . S
N572 C564 1.427 . S
N572 C570 1.384 . S
H573 C579 0.930 . S
H574 C583 0.930 . S
H575 C588 0.929 . S
H576 C586 0.929 . S
H577 C581 0.929 . S
H578 C587 0.929 . S
C579 H573 0.930 . S
C579 C580 1.367 . S
C579 C587 1.378 . S
C580 C579 1.367 . S
C580 C588 1.433 . S
C581 H577 0.929 . S
C581 C583 1.378 . S
C581 C585 1.350 . S
C582 C585 1.463 . S
C582 C587 1.350 . S
C582 N590 1.427 . S
C583 H574 0.930 . S
C583 C581 1.378 . S
C583 C584 1.367 . S
C584 C583 1.367 . S
C584 C586 1.433 . S
C585 C581 1.350 . S
C585 C582 1.463 . S
C585 N589 1.427 . S
C586 H576 0.929 . S
C586 C584 1.433 . S
C586 N589 1.384 . S
C587 H578 0.929 . S
C587 C579 1.378 . S
C587 C582 1.350 . S
C588 H575 0.929 . S
C588 C580 1.433 . S
C588 N590 1.384 . S
N589 C585 1.427 . S
N589 C586 1.384 . S
N590 C582 1.427 . S
N590 C588 1.384 . S
H591 C597 0.930 . S
H592 C601 0.930 . S
H593 C606 0.929 . S
H594 C604 0.929 . S
H595 C599 0.929 . S
H596 C605 0.929 . S
C597 H591 0.930 . S
C597 C598 1.367 . S
C597 C605 1.378 . S
C598 C597 1.367 . S
C598 C606 1.433 . S
C599 H595 0.929 . S
C599 C601 1.378 . S
C599 C603 1.350 . S
C600 C603 1.463 . S
C600 C605 1.350 . S
C600 N608 1.427 . S
C601 H592 0.930 . S
C601 C599 1.378 . S
C601 C602 1.367 . S
C602 C601 1.367 . S
C602 C604 1.433 . S
C603 C599 1.350 . S
C603 C600 1.463 . S
C603 N607 1.427 . S
C604 H594 0.929 . S
C604 C602 1.433 . S
C604 N607 1.384 . S
C605 H596 0.929 . S
C605 C597 1.378 . S
C605 C600 1.350 . S
C606 H593 0.929 . S
C606 C598 1.433 . S
C606 N608 1.384 . S
N607 C603 1.427 . S
N607 C604 1.384 . S
N608 C600 1.427 . S
N608 C606 1.384 . S
C184 C1 1.691 . S
C188 C84 1.615 . S
C202 C27 1.475 . S
C206 C116 1.453 . S
C224 C175 1.780 . S
C220 C40 1.826 . S
C242 C104 1.366 . S
C238 C55 1.391 . S
C256 C68 1.606 . S
C260 C134 1.521 . S
C278 C156 1.183 . S
C274 C70 1.194 . S
C296 C125 1.598 . S
C292 C41 1.636 . S
C310 C54 1.259 . S
C314 C165 1.212 . S
C332 C114 1.527 . S
C328 C69 1.561 1_556 S
C346 C71 1.456 . S
C350 C144 1.427 . S
C364 C0 1.754 . S
C368 C147 1.717 . S
C386 C86 1.504 . S
C382 C26 1.535 1_556 S
C404 C94 1.561 . S
C400 C42 1.608 . S
C422 C135 1.437 . S
C418 C57 1.471 1_556 S
C440 C148 1.800 . S
C436 C83 1.850 . S
C458 C85 1.387 . S
C454 C12 1.420 . S
C476 C145 1.504 . S
C472 C14 1.546 1_556 S
C490 C29 1.217 . S
C494 C146 1.184 . S
C512 C115 1.557 . S
C508 C82 1.625 . S
C530 C176 1.178 . S
C526 C13 1.206 . S
C548 C103 1.491 . S
C544 C15 1.572 . S
C566 C117 1.461 . S
C562 C28 1.498 . S
C580 C43 1.766 . S
C584 C166 1.722 . S
C598 C56 1.558 . S
C602 C113 1.522 . S
