# Generated by pormake.
# Topology gar, (4,6)-cn, num edge types: 1
# Building blocks:
#     Node 0, Type 0, BuildingBlock: TATPOV_clean_sbu_0, # of connection points: 4
#     Node 1, Type 0, BuildingBlock: TATPOV_clean_sbu_0, # of connection points: 4
#     Node 2, Type 0, BuildingBlock: TATPOV_clean_sbu_0, # of connection points: 4
#     Node 3, Type 0, BuildingBlock: TATPOV_clean_sbu_0, # of connection points: 4
#     Node 4, Type 0, BuildingBlock: TATPOV_clean_sbu_0, # of connection points: 4
#     Node 5, Type 0, BuildingBlock: TATPOV_clean_sbu_0, # of connection points: 4
#     Node 6, Type 0, BuildingBlock: TATPOV_clean_sbu_0, # of connection points: 4
#     Node 7, Type 0, BuildingBlock: TATPOV_clean_sbu_0, # of connection points: 4
#     Node 8, Type 0, BuildingBlock: TATPOV_clean_sbu_0, # of connection points: 4
#     Node 9, Type 0, BuildingBlock: TATPOV_clean_sbu_0, # of connection points: 4
#     Node 10, Type 0, BuildingBlock: TATPOV_clean_sbu_0, # of connection points: 4
#     Node 11, Type 0, BuildingBlock: TATPOV_clean_sbu_0, # of connection points: 4
#     Node 12, Type 0, BuildingBlock: TATPOV_clean_sbu_0, # of connection points: 4
#     Node 13, Type 0, BuildingBlock: TATPOV_clean_sbu_0, # of connection points: 4
#     Node 14, Type 0, BuildingBlock: TATPOV_clean_sbu_0, # of connection points: 4
#     Node 15, Type 0, BuildingBlock: TATPOV_clean_sbu_0, # of connection points: 4
#     Node 16, Type 0, BuildingBlock: TATPOV_clean_sbu_0, # of connection points: 4
#     Node 17, Type 0, BuildingBlock: TATPOV_clean_sbu_0, # of connection points: 4
#     Node 18, Type 0, BuildingBlock: TATPOV_clean_sbu_0, # of connection points: 4
#     Node 19, Type 0, BuildingBlock: TATPOV_clean_sbu_0, # of connection points: 4
#     Node 20, Type 0, BuildingBlock: TATPOV_clean_sbu_0, # of connection points: 4
#     Node 21, Type 0, BuildingBlock: TATPOV_clean_sbu_0, # of connection points: 4
#     Node 22, Type 0, BuildingBlock: TATPOV_clean_sbu_0, # of connection points: 4
#     Node 23, Type 0, BuildingBlock: TATPOV_clean_sbu_0, # of connection points: 4
#     Node 24, Type 1, BuildingBlock: KUMBOL_clean_sbu_1, # of connection points: 6
#     Node 25, Type 1, BuildingBlock: KUMBOL_clean_sbu_1, # of connection points: 6
#     Node 26, Type 1, BuildingBlock: KUMBOL_clean_sbu_1, # of connection points: 6
#     Node 27, Type 1, BuildingBlock: KUMBOL_clean_sbu_1, # of connection points: 6
#     Node 28, Type 1, BuildingBlock: KUMBOL_clean_sbu_1, # of connection points: 6
#     Node 29, Type 1, BuildingBlock: KUMBOL_clean_sbu_1, # of connection points: 6
#     Node 30, Type 1, BuildingBlock: KUMBOL_clean_sbu_1, # of connection points: 6
#     Node 31, Type 1, BuildingBlock: KUMBOL_clean_sbu_1, # of connection points: 6
#     Node 32, Type 1, BuildingBlock: KUMBOL_clean_sbu_1, # of connection points: 6
#     Node 33, Type 1, BuildingBlock: KUMBOL_clean_sbu_1, # of connection points: 6
#     Node 34, Type 1, BuildingBlock: KUMBOL_clean_sbu_1, # of connection points: 6
#     Node 35, Type 1, BuildingBlock: KUMBOL_clean_sbu_1, # of connection points: 6
#     Node 36, Type 1, BuildingBlock: KUMBOL_clean_sbu_1, # of connection points: 6
#     Node 37, Type 1, BuildingBlock: KUMBOL_clean_sbu_1, # of connection points: 6
#     Node 38, Type 1, BuildingBlock: KUMBOL_clean_sbu_1, # of connection points: 6
#     Node 39, Type 1, BuildingBlock: KUMBOL_clean_sbu_1, # of connection points: 6
#     Edge 40, Type (0, 1), BuildingBlock: ZUJKAS_clean_linker_0, # of connection points: 2
#     Edge 41, Type (0, 1), BuildingBlock: ZUJKAS_clean_linker_0, # of connection points: 2
#     Edge 42, Type (0, 1), BuildingBlock: ZUJKAS_clean_linker_0, # of connection points: 2
#     Edge 43, Type (0, 1), BuildingBlock: ZUJKAS_clean_linker_0, # of connection points: 2
#     Edge 44, Type (0, 1), BuildingBlock: ZUJKAS_clean_linker_0, # of connection points: 2
#     Edge 45, Type (0, 1), BuildingBlock: ZUJKAS_clean_linker_0, # of connection points: 2
#     Edge 46, Type (0, 1), BuildingBlock: ZUJKAS_clean_linker_0, # of connection points: 2
#     Edge 47, Type (0, 1), BuildingBlock: ZUJKAS_clean_linker_0, # of connection points: 2
#     Edge 48, Type (0, 1), BuildingBlock: ZUJKAS_clean_linker_0, # of connection points: 2
#     Edge 49, Type (0, 1), BuildingBlock: ZUJKAS_clean_linker_0, # of connection points: 2
#     Edge 50, Type (0, 1), BuildingBlock: ZUJKAS_clean_linker_0, # of connection points: 2
#     Edge 51, Type (0, 1), BuildingBlock: ZUJKAS_clean_linker_0, # of connection points: 2
#     Edge 52, Type (0, 1), BuildingBlock: ZUJKAS_clean_linker_0, # of connection points: 2
#     Edge 53, Type (0, 1), BuildingBlock: ZUJKAS_clean_linker_0, # of connection points: 2
#     Edge 54, Type (0, 1), BuildingBlock: ZUJKAS_clean_linker_0, # of connection points: 2
#     Edge 55, Type (0, 1), BuildingBlock: ZUJKAS_clean_linker_0, # of connection points: 2
#     Edge 56, Type (0, 1), BuildingBlock: ZUJKAS_clean_linker_0, # of connection points: 2
#     Edge 57, Type (0, 1), BuildingBlock: ZUJKAS_clean_linker_0, # of connection points: 2
#     Edge 58, Type (0, 1), BuildingBlock: ZUJKAS_clean_linker_0, # of connection points: 2
#     Edge 59, Type (0, 1), BuildingBlock: ZUJKAS_clean_linker_0, # of connection points: 2
#     Edge 60, Type (0, 1), BuildingBlock: ZUJKAS_clean_linker_0, # of connection points: 2
#     Edge 61, Type (0, 1), BuildingBlock: ZUJKAS_clean_linker_0, # of connection points: 2
#     Edge 62, Type (0, 1), BuildingBlock: ZUJKAS_clean_linker_0, # of connection points: 2
#     Edge 63, Type (0, 1), BuildingBlock: ZUJKAS_clean_linker_0, # of connection points: 2
#     Edge 64, Type (0, 1), BuildingBlock: ZUJKAS_clean_linker_0, # of connection points: 2
#     Edge 65, Type (0, 1), BuildingBlock: ZUJKAS_clean_linker_0, # of connection points: 2
#     Edge 66, Type (0, 1), BuildingBlock: ZUJKAS_clean_linker_0, # of connection points: 2
#     Edge 67, Type (0, 1), BuildingBlock: ZUJKAS_clean_linker_0, # of connection points: 2
#     Edge 68, Type (0, 1), BuildingBlock: ZUJKAS_clean_linker_0, # of connection points: 2
#     Edge 69, Type (0, 1), BuildingBlock: ZUJKAS_clean_linker_0, # of connection points: 2
#     Edge 70, Type (0, 1), BuildingBlock: ZUJKAS_clean_linker_0, # of connection points: 2
#     Edge 71, Type (0, 1), BuildingBlock: ZUJKAS_clean_linker_0, # of connection points: 2
#     Edge 72, Type (0, 1), BuildingBlock: ZUJKAS_clean_linker_0, # of connection points: 2
#     Edge 73, Type (0, 1), BuildingBlock: ZUJKAS_clean_linker_0, # of connection points: 2
#     Edge 74, Type (0, 1), BuildingBlock: ZUJKAS_clean_linker_0, # of connection points: 2
#     Edge 75, Type (0, 1), BuildingBlock: ZUJKAS_clean_linker_0, # of connection points: 2
#     Edge 76, Type (0, 1), BuildingBlock: ZUJKAS_clean_linker_0, # of connection points: 2
#     Edge 77, Type (0, 1), BuildingBlock: ZUJKAS_clean_linker_0, # of connection points: 2
#     Edge 78, Type (0, 1), BuildingBlock: ZUJKAS_clean_linker_0, # of connection points: 2
#     Edge 79, Type (0, 1), BuildingBlock: ZUJKAS_clean_linker_0, # of connection points: 2
#     Edge 80, Type (0, 1), BuildingBlock: ZUJKAS_clean_linker_0, # of connection points: 2
#     Edge 81, Type (0, 1), BuildingBlock: ZUJKAS_clean_linker_0, # of connection points: 2
#     Edge 82, Type (0, 1), BuildingBlock: ZUJKAS_clean_linker_0, # of connection points: 2
#     Edge 83, Type (0, 1), BuildingBlock: ZUJKAS_clean_linker_0, # of connection points: 2
#     Edge 84, Type (0, 1), BuildingBlock: ZUJKAS_clean_linker_0, # of connection points: 2
#     Edge 85, Type (0, 1), BuildingBlock: ZUJKAS_clean_linker_0, # of connection points: 2
#     Edge 86, Type (0, 1), BuildingBlock: ZUJKAS_clean_linker_0, # of connection points: 2
#     Edge 87, Type (0, 1), BuildingBlock: ZUJKAS_clean_linker_0, # of connection points: 2
#     Edge 88, Type (0, 1), BuildingBlock: ZUJKAS_clean_linker_0, # of connection points: 2
#     Edge 89, Type (0, 1), BuildingBlock: ZUJKAS_clean_linker_0, # of connection points: 2
#     Edge 90, Type (0, 1), BuildingBlock: ZUJKAS_clean_linker_0, # of connection points: 2
#     Edge 91, Type (0, 1), BuildingBlock: ZUJKAS_clean_linker_0, # of connection points: 2
#     Edge 92, Type (0, 1), BuildingBlock: ZUJKAS_clean_linker_0, # of connection points: 2
#     Edge 93, Type (0, 1), BuildingBlock: ZUJKAS_clean_linker_0, # of connection points: 2
#     Edge 94, Type (0, 1), BuildingBlock: ZUJKAS_clean_linker_0, # of connection points: 2
#     Edge 95, Type (0, 1), BuildingBlock: ZUJKAS_clean_linker_0, # of connection points: 2
#     Edge 96, Type (0, 1), BuildingBlock: ZUJKAS_clean_linker_0, # of connection points: 2
#     Edge 97, Type (0, 1), BuildingBlock: ZUJKAS_clean_linker_0, # of connection points: 2
#     Edge 98, Type (0, 1), BuildingBlock: ZUJKAS_clean_linker_0, # of connection points: 2
#     Edge 99, Type (0, 1), BuildingBlock: ZUJKAS_clean_linker_0, # of connection points: 2
#     Edge 100, Type (0, 1), BuildingBlock: ZUJKAS_clean_linker_0, # of connection points: 2
#     Edge 101, Type (0, 1), BuildingBlock: ZUJKAS_clean_linker_0, # of connection points: 2
#     Edge 102, Type (0, 1), BuildingBlock: ZUJKAS_clean_linker_0, # of connection points: 2
#     Edge 103, Type (0, 1), BuildingBlock: ZUJKAS_clean_linker_0, # of connection points: 2
#     Edge 104, Type (0, 1), BuildingBlock: ZUJKAS_clean_linker_0, # of connection points: 2
#     Edge 105, Type (0, 1), BuildingBlock: ZUJKAS_clean_linker_0, # of connection points: 2
#     Edge 106, Type (0, 1), BuildingBlock: ZUJKAS_clean_linker_0, # of connection points: 2
#     Edge 107, Type (0, 1), BuildingBlock: ZUJKAS_clean_linker_0, # of connection points: 2
#     Edge 108, Type (0, 1), BuildingBlock: ZUJKAS_clean_linker_0, # of connection points: 2
#     Edge 109, Type (0, 1), BuildingBlock: ZUJKAS_clean_linker_0, # of connection points: 2
#     Edge 110, Type (0, 1), BuildingBlock: ZUJKAS_clean_linker_0, # of connection points: 2
#     Edge 111, Type (0, 1), BuildingBlock: ZUJKAS_clean_linker_0, # of connection points: 2
#     Edge 112, Type (0, 1), BuildingBlock: ZUJKAS_clean_linker_0, # of connection points: 2
#     Edge 113, Type (0, 1), BuildingBlock: ZUJKAS_clean_linker_0, # of connection points: 2
#     Edge 114, Type (0, 1), BuildingBlock: ZUJKAS_clean_linker_0, # of connection points: 2
#     Edge 115, Type (0, 1), BuildingBlock: ZUJKAS_clean_linker_0, # of connection points: 2
#     Edge 116, Type (0, 1), BuildingBlock: ZUJKAS_clean_linker_0, # of connection points: 2
#     Edge 117, Type (0, 1), BuildingBlock: ZUJKAS_clean_linker_0, # of connection points: 2
#     Edge 118, Type (0, 1), BuildingBlock: ZUJKAS_clean_linker_0, # of connection points: 2
#     Edge 119, Type (0, 1), BuildingBlock: ZUJKAS_clean_linker_0, # of connection points: 2
#     Edge 120, Type (0, 1), BuildingBlock: ZUJKAS_clean_linker_0, # of connection points: 2
#     Edge 121, Type (0, 1), BuildingBlock: ZUJKAS_clean_linker_0, # of connection points: 2
#     Edge 122, Type (0, 1), BuildingBlock: ZUJKAS_clean_linker_0, # of connection points: 2
#     Edge 123, Type (0, 1), BuildingBlock: ZUJKAS_clean_linker_0, # of connection points: 2
#     Edge 124, Type (0, 1), BuildingBlock: ZUJKAS_clean_linker_0, # of connection points: 2
#     Edge 125, Type (0, 1), BuildingBlock: ZUJKAS_clean_linker_0, # of connection points: 2
#     Edge 126, Type (0, 1), BuildingBlock: ZUJKAS_clean_linker_0, # of connection points: 2
#     Edge 127, Type (0, 1), BuildingBlock: ZUJKAS_clean_linker_0, # of connection points: 2
#     Edge 128, Type (0, 1), BuildingBlock: ZUJKAS_clean_linker_0, # of connection points: 2
#     Edge 129, Type (0, 1), BuildingBlock: ZUJKAS_clean_linker_0, # of connection points: 2
#     Edge 130, Type (0, 1), BuildingBlock: ZUJKAS_clean_linker_0, # of connection points: 2
#     Edge 131, Type (0, 1), BuildingBlock: ZUJKAS_clean_linker_0, # of connection points: 2
#     Edge 132, Type (0, 1), BuildingBlock: ZUJKAS_clean_linker_0, # of connection points: 2
#     Edge 133, Type (0, 1), BuildingBlock: ZUJKAS_clean_linker_0, # of connection points: 2
#     Edge 134, Type (0, 1), BuildingBlock: ZUJKAS_clean_linker_0, # of connection points: 2
#     Edge 135, Type (0, 1), BuildingBlock: ZUJKAS_clean_linker_0, # of connection points: 2
# Relax obj value: 0.073
# Max RMSD: 0.177
# Mean RMSD: 0.128
data_MOF--net-gar--node1-TATPOV_clean_sbu_0--node2-KUMBOL_clean_sbu_1--edge1-ZUJKAS_clean_linker_0
_symmetry_space_group_name_H-M    P1
_symmetry_Int_Tables_number       1
_symmetry_cell_setting            triclinic
loop_
_symmetry_equiv_pos_as_xyz
'x, y, z'
_cell_length_a     76.041347
_cell_length_b     76.082277
_cell_length_c     72.241336
_cell_angle_alpha  95.897021
_cell_angle_beta   96.286205
_cell_angle_gamma 102.3296
loop_
_atom_site_label
_atom_site_type_symbol
_atom_site_fract_x
_atom_site_fract_y
_atom_site_fract_z
_atom_type_partial_charge
Zn0 Zn 0.02266 0.29802 0.38381 0.0
Zn1 Zn 0.0429 0.29885 0.3575 0.0
O2 O 0.04954 0.32582 0.3726 0.0
O3 O 0.03231 0.32341 0.39528 0.0
O4 O 0.06351 0.29756 0.34011 0.0
O5 O 0.03018 0.2788 0.39685 0.0
O6 O 0.04519 0.27653 0.37266 0.0
C7 C 0.04404 0.33295 0.38716 0.0
C8 C 1.00114 0.29156 0.34713 0.0
O9 O 0.01667 0.29445 0.34108 0.0
O10 O 1.00043 0.29177 0.36458 0.0
C11 C 0.08017 0.30516 0.3462 0.0
O12 O 0.08383 0.31499 0.36279 0.0
C13 C 0.04004 0.27081 0.38772 0.0
Zn14 Zn 0.014 0.726 0.70145 0.0
Zn15 Zn 0.01517 0.74908 0.67704 0.0
O16 O 0.99189 0.75125 0.6906 0.0
O17 O 0.99044 0.73077 0.71001 0.0
O18 O 0.01811 0.77058 0.66176 0.0
O19 O 0.03925 0.73768 0.71583 0.0
O20 O 0.04161 0.75346 0.69203 0.0
C21 C 0.98373 0.7428 0.70282 0.0
C22 C 0.01181 0.70971 0.66191 0.0
O23 O 0.01121 0.72559 0.65793 0.0
O24 O 0.01313 0.70682 0.67896 0.0
C25 C 0.0061 0.7734 0.64937 0.0
O26 O 0.99047 0.76152 0.64526 0.0
C27 C 0.04895 0.74857 0.70686 0.0
Zn28 Zn 0.52097 0.80086 0.87959 0.0
Zn29 Zn 0.54301 0.80001 0.85565 0.0
O30 O 0.55028 0.82725 0.87047 0.0
O31 O 0.53099 0.82599 0.89126 0.0
O32 O 0.56432 0.79702 0.83937 0.0
O33 O 0.52601 0.78146 0.89368 0.0
O34 O 0.54385 0.77829 0.87222 0.0
C35 C 0.54401 0.83489 0.88423 0.0
C36 C 0.50113 0.79382 0.84285 0.0
O37 O 0.51711 0.7956 0.83786 0.0
O38 O 0.49936 0.79518 0.86009 0.0
C39 C 0.5801 0.80779 0.84145 0.0
O40 O 0.5831 0.82275 0.8533 0.0
C41 C 0.53677 0.77304 0.88661 0.0
Zn42 Zn 0.51275 0.22656 0.19948 0.0
Zn43 Zn 0.51527 0.251 0.17672 0.0
O44 O 0.49153 0.25276 0.18978 0.0
O45 O 0.48973 0.23195 0.20882 0.0
O46 O 0.51839 0.27294 0.16193 0.0
O47 O 0.53831 0.23628 0.21345 0.0
O48 O 0.54159 0.25538 0.19261 0.0
C49 C 0.48317 0.24417 0.20181 0.0
C50 C 0.51093 0.21146 0.16016 0.0
O51 O 0.51157 0.2278 0.15692 0.0
O52 O 0.51112 0.20769 0.17686 0.0
C53 C 0.50871 0.27402 0.1467 0.0
O54 O 0.49567 0.26001 0.13917 0.0
C55 C 0.54852 0.24844 0.20629 0.0
Zn56 Zn 0.07555 0.78756 0.08251 0.0
Zn57 Zn 0.05227 0.78562 0.10675 0.0
O58 O 0.04954 0.8089 0.09322 0.0
O59 O 0.06972 0.81072 0.07358 0.0
O60 O 0.03161 0.78245 0.12313 0.0
O61 O 0.06453 0.76204 0.06883 0.0
O62 O 0.04745 0.75924 0.09144 0.0
C63 C 0.05764 0.8172 0.08085 0.0
C64 C 0.09227 0.78989 0.12165 0.0
O65 O 0.07624 0.7898 0.12552 0.0
O66 O 0.09525 0.78895 0.10467 0.0
C67 C 0.02439 0.79522 0.1291 0.0
O68 O 0.03074 0.81168 0.12518 0.0
C69 C 0.05315 0.75207 0.0771 0.0
Zn70 Zn 0.48206 0.75768 0.45278 0.0
Zn71 Zn 0.50531 0.76045 0.42877 0.0
O72 O 0.51102 0.78708 0.44391 0.0
O73 O 0.49174 0.78408 0.46453 0.0
O74 O 0.52535 0.76092 0.41167 0.0
O75 O 0.48916 0.73607 0.4637 0.0
O76 O 0.5078 0.73714 0.44253 0.0
C77 C 0.50395 0.79417 0.4573 0.0
C78 C 0.46462 0.75422 0.41421 0.0
O79 O 0.481 0.75697 0.41054 0.0
O80 O 0.46153 0.75319 0.43101 0.0
C81 C 0.53355 0.77478 0.40498 0.0
O82 O 0.52886 0.79029 0.40866 0.0
C83 C 0.50069 0.72933 0.45573 0.0
Zn84 Zn 0.57646 0.28948 0.58686 0.0
Zn85 Zn 0.5517 0.28577 0.60985 0.0
O86 O 0.54906 0.30932 0.59641 0.0
O87 O 0.57023 0.31233 0.57778 0.0
O88 O 0.53108 0.28238 0.62645 0.0
O89 O 0.5664 0.26341 0.5736 0.0
O90 O 0.54698 0.2598 0.59403 0.0
C91 C 0.55755 0.31811 0.58458 0.0
C92 C 0.59223 0.29166 0.62581 0.0
O93 O 0.57564 0.28929 0.62874 0.0
O94 O 0.59609 0.29264 0.60926 0.0
C95 C 0.52313 0.29483 0.6317 0.0
O96 O 0.52843 0.31102 0.62665 0.0
C97 C 0.55408 0.25309 0.58049 0.0
Zn98 Zn 0.98167 0.25592 0.95284 0.0
Zn99 Zn 0.00567 0.25955 0.92963 0.0
O100 O 0.01014 0.28574 0.94535 0.0
O101 O 0.99032 0.28208 0.96538 0.0
O102 O 0.02757 0.26205 0.91468 0.0
O103 O 0.98889 0.23455 0.96393 0.0
O104 O 0.00767 0.23579 0.94286 0.0
C105 C 1.00266 0.29246 0.95861 0.0
C106 C 0.96542 0.25273 0.91368 0.0
O107 O 0.98195 0.25607 0.91046 0.0
O108 O 0.96192 0.25121 0.93029 0.0
C109 C 0.02745 0.26147 0.89696 0.0
O110 O 0.01187 0.25925 0.88616 0.0
C111 C 1.00046 0.22787 0.95596 0.0
Zn112 Zn 0.39835 0.98628 0.27872 0.0
Zn113 Zn 0.38546 0.01616 0.28245 0.0
O114 O 0.39703 0.01555 0.30873 0.0
O115 O 0.40655 0.99018 0.30667 0.0
O116 O 0.37678 0.03854 0.28526 0.0
O117 O 0.41431 0.99712 0.26054 0.0
O118 O 0.40205 0.02084 0.26245 0.0
C119 C 0.40442 0.00419 0.31642 0.0
C120 C 0.3596 0.98056 0.26844 0.0
O121 O 0.362 0.99731 0.27418 0.0
O122 O 0.37282 0.9729 0.26857 0.0
C123 C 0.36603 0.04085 0.29703 0.0
O124 O 0.36092 0.0282 0.30768 0.0
C125 C 0.41274 0.01216 0.25532 0.0
Zn126 Zn 0.25038 0.19147 0.50522 0.0
Zn127 Zn 0.27274 0.16999 0.50664 0.0
O128 O 0.27757 0.18273 0.48267 0.0
O129 O 0.25868 0.20092 0.48204 0.0
O130 O 0.29185 0.15524 0.50905 0.0
O131 O 0.26029 0.20499 0.53074 0.0
O132 O 0.27783 0.1856 0.53307 0.0
C133 C 0.27079 0.19454 0.47483 0.0
C134 C 0.23224 0.15362 0.50262 0.0
O135 O 0.24831 0.15103 0.50326 0.0
O136 O 0.2297 0.16958 0.50324 0.0
C137 C 0.29876 0.14895 0.4953 0.0
O138 O 0.29303 0.15156 0.4782 0.0
C139 C 0.27195 0.19885 0.5404 0.0
Zn140 Zn 0.11388 0.05285 0.77827 0.0
Zn141 Zn 0.13303 0.02826 0.77724 0.0
O142 O 0.12045 0.02508 0.80158 0.0
O143 O 0.10584 0.04708 0.80284 0.0
O144 O 0.14759 0.00877 0.77548 0.0
O145 O 0.09839 0.04195 0.75396 0.0
O146 O 0.11661 0.02325 0.751 0.0
C147 C 0.11048 0.03397 0.80996 0.0
C148 C 0.15169 0.06812 0.77872 0.0
O149 O 0.15303 0.05182 0.77962 0.0
O150 O 0.13632 0.07209 0.77743 0.0
C151 C 0.14913 0.99791 0.78752 0.0
O152 O 0.14066 0.99879 0.80236 0.0
C153 C 0.10339 0.02961 0.74418 0.0
Zn154 Zn 0.31013 0.89636 0.00719 0.0
Zn155 Zn 0.28484 0.91447 0.00524 0.0
O156 O 0.28349 0.90432 0.97808 0.0
O157 O 0.30811 0.89351 0.97893 0.0
O158 O 0.26493 0.92714 0.00429 0.0
O159 O 0.29555 0.87783 0.0209 0.0
O160 O 0.27755 0.8967 0.02364 0.0
C161 C 0.29469 0.89745 0.96966 0.0
C162 C 0.32279 0.93375 0.02178 0.0
O163 O 0.30705 0.93458 0.01454 0.0
O164 O 0.32709 0.91858 0.02196 0.0
C165 C 0.26275 0.93761 0.9921 0.0
O166 O 0.27436 0.94058 0.97995 0.0
C167 C 0.28236 0.88244 0.02779 0.0
Zn168 Zn 0.31032 0.36316 0.03334 0.0
Zn169 Zn 0.2846 0.38075 0.03002 0.0
O170 O 0.28015 0.3646 0.00402 0.0
O171 O 0.30275 0.3508 0.00693 0.0
O172 O 0.26425 0.39409 0.02989 0.0
O173 O 0.30153 0.35097 0.0547 0.0
O174 O 0.28097 0.36733 0.05368 0.0
C175 C 0.28905 0.35365 -0.0029 0.0
C176 C 0.32447 0.40133 0.03665 0.0
O177 O 0.30776 0.40147 0.03258 0.0
O178 O 0.32912 0.38657 0.03866 0.0
C179 C 0.25421 0.39591 0.01528 0.0
O180 O 0.25705 0.38904 -0.00126 0.0
C181 C 0.28842 0.35589 0.06141 0.0
Zn182 Zn 0.74689 0.13728 0.03051 0.0
Zn183 Zn 0.77284 0.12174 0.03451 0.0
O184 O 0.77801 0.13453 0.0114 0.0
O185 O 0.7514 0.14091 0.00426 0.0
O186 O 0.79353 0.11017 0.03892 0.0
O187 O 0.75768 0.15644 0.05202 0.0
O188 O 0.77598 0.13861 0.05897 0.0
C189 C 0.76698 0.1401 0.00017 0.0
C190 C 0.73456 0.10038 0.03294 0.0
O191 O 0.75077 0.10018 0.03031 0.0
O192 O 0.72968 0.11521 0.03534 0.0
C193 C 0.79732 0.10034 0.0254 0.0
O194 O 0.78724 0.09786 0.00896 0.0
C195 C 0.76971 0.15246 0.0633 0.0
Zn196 Zn 0.15523 0.56813 0.26457 0.0
Zn197 Zn 0.18212 0.52938 0.25363 0.0
O198 O 0.17171 0.52154 0.27758 0.0
O199 O 0.16477 0.54642 0.27195 0.0
O200 O 0.19011 0.50829 0.2419 0.0
O201 O 0.14436 0.55605 0.23814 0.0
O202 O 0.16119 0.53499 0.23472 0.0
C203 C 0.1628 0.53332 0.28156 0.0
C204 C 0.19547 0.56447 0.26292 0.0
O205 O 0.20369 0.55193 0.25969 0.0
O206 O 0.17866 0.55941 0.26378 0.0
C207 C 0.20624 0.50898 0.23853 0.0
O208 O 0.2182 0.52458 0.24183 0.0
C209 C 0.14867 0.54282 0.22851 0.0
Zn210 Zn 0.81083 0.86279 0.53286 0.0
Zn211 Zn 0.78559 0.8801 0.52941 0.0
O212 O 0.7814 0.86467 0.50297 0.0
O213 O 0.80571 0.85326 0.50542 0.0
O214 O 0.76531 0.89344 0.52909 0.0
O215 O 0.80058 0.84832 0.55228 0.0
O216 O 0.78158 0.86635 0.55279 0.0
C217 C 0.79175 0.85556 0.4956 0.0
C218 C 0.82539 0.90059 0.53816 0.0
O219 O 0.80893 0.90072 0.53256 0.0
O220 O 0.82967 0.88583 0.54105 0.0
C221 C 0.76188 0.90314 0.51646 0.0
O222 O 0.77178 0.90458 0.50265 0.0
C223 C 0.78808 0.85387 0.5596 0.0
Zn224 Zn 0.94006 0.99326 0.2517 0.0
Zn225 Zn 0.92052 0.01669 0.25389 0.0
O226 O 0.93568 0.02163 0.28072 0.0
O227 O 0.95053 0.99981 0.27872 0.0
O228 O 0.90671 0.03667 0.2536 0.0
O229 O 0.95348 0.00325 0.23153 0.0
O230 O 0.9343 0.0211 0.23057 0.0
C231 C 0.9465 0.01288 0.28835 0.0
C232 C 0.90235 0.97624 0.24665 0.0
O233 O 0.9008 0.99254 0.25066 0.0
O234 O 0.91783 0.97309 0.24505 0.0
C235 C 0.89449 0.03857 0.26382 0.0
O236 O 0.89003 0.02681 0.27558 0.0
C237 C 0.94715 0.01523 0.22393 0.0
Zn238 Zn 0.24626 0.64297 0.53371 0.0
Zn239 Zn 0.27177 0.62581 0.53828 0.0
O240 O 0.2768 0.63607 0.51389 0.0
O241 O 0.25134 0.64491 0.50724 0.0
O242 O 0.29135 0.61302 0.54348 0.0
O243 O 0.25834 0.66237 0.55454 0.0
O244 O 0.27692 0.64472 0.56125 0.0
C245 C 0.26625 0.64223 0.5027 0.0
C246 C 0.23278 0.6069 0.53894 0.0
O247 O 0.2488 0.60582 0.53655 0.0
O248 O 0.22833 0.622 0.53976 0.0
C249 C 0.28961 0.59615 0.53884 0.0
O250 O 0.27424 0.58633 0.52958 0.0
C251 C 0.27105 0.65886 0.5653 0.0
Zn252 Zn 0.44225 0.49244 0.75412 0.0
Zn253 Zn 0.42346 0.51789 0.75533 0.0
O254 O 0.43981 0.52284 0.78134 0.0
O255 O 0.45674 0.50279 0.77913 0.0
O256 O 0.41069 0.53878 0.7565 0.0
O257 O 0.4518 0.49963 0.7307 0.0
O258 O 0.43636 0.521 0.73133 0.0
C259 C 0.45242 0.51586 0.78845 0.0
C260 C 0.40397 0.47787 0.75242 0.0
O261 O 0.40314 0.49448 0.75308 0.0
O262 O 0.41908 0.4734 0.75279 0.0
C263 C 0.39358 0.53716 0.75343 0.0
O264 O 0.38287 0.5209 0.74914 0.0
C265 C 0.44711 0.51269 0.72355 0.0
Zn266 Zn 0.66401 0.05667 0.75765 0.0
Zn267 Zn 0.67973 0.03055 0.75076 0.0
O268 O 0.66896 0.02363 0.77432 0.0
O269 O 0.64941 0.04119 0.7738 0.0
O270 O 0.69046 0.00989 0.74352 0.0
O271 O 0.65388 0.05532 0.73053 0.0
O272 O 0.66096 0.0287 0.72818 0.0
C273 C 0.65526 0.02831 0.78009 0.0
C274 C 0.70209 0.06819 0.76308 0.0
O275 O 0.70077 0.05263 0.75416 0.0
O276 O 0.68821 0.07281 0.76828 0.0
C277 C 0.70668 0.0108 0.74034 0.0
O278 O 0.71822 0.0266 0.74217 0.0
C279 C 0.65281 0.03998 0.72134 0.0
Zn280 Zn 0.75243 0.69066 0.00475 0.0
Zn281 Zn 0.77408 0.66838 0.00687 0.0
O282 O 0.77936 0.6809 0.98284 0.0
O283 O 0.76188 0.70053 0.9823 0.0
O284 O 0.79273 0.65292 0.00927 0.0
O285 O 0.76192 0.70387 0.03027 0.0
O286 O 0.77943 0.6845 0.0332 0.0
C287 C 0.77361 0.69342 0.97526 0.0
C288 C 0.73328 0.65318 0.00245 0.0
O289 O 0.74917 0.65009 0.00365 0.0
O290 O 0.73119 0.66925 0.00239 0.0
C291 C 0.79894 0.64607 0.99526 0.0
O292 O 0.79276 0.64857 0.97826 0.0
C293 C 0.77351 0.69789 0.04019 0.0
Zn294 Zn 0.90389 0.49126 0.78367 0.0
Zn295 Zn 0.88786 0.519 0.78313 0.0
O296 O 0.89904 0.52274 0.81005 0.0
O297 O 0.90876 0.49763 0.81184 0.0
O298 O 0.87694 0.53998 0.78288 0.0
O299 O 0.92067 0.50207 0.76595 0.0
O300 O 0.90441 0.52255 0.76313 0.0
C301 C 0.90573 0.51216 0.81964 0.0
C302 C 0.86545 0.481 0.77245 0.0
O303 O 0.86615 0.4977 0.77698 0.0
O304 O 0.87975 0.47497 0.77296 0.0
C305 C 0.86483 0.54119 0.79336 0.0
O306 O 0.8593 0.52807 0.80331 0.0
C307 C 0.91698 0.51525 0.75814 0.0
Zn308 Zn 0.81202 0.39879 0.51064 0.0
Zn309 Zn 0.78612 0.41688 0.5045 0.0
O310 O 0.78774 0.40493 0.47879 0.0
O311 O 0.81077 0.39185 0.48277 0.0
O312 O 0.76589 0.42868 0.49876 0.0
O313 O 0.79593 0.38274 0.52538 0.0
O314 O 0.77668 0.40056 0.52357 0.0
C315 C 0.79844 0.39605 0.47204 0.0
C316 C 0.82357 0.43749 0.52174 0.0
O317 O 0.80768 0.43753 0.51423 0.0
O318 O 0.82837 0.42266 0.52306 0.0
C319 C 0.7673 0.44329 0.49145 0.0
O320 O 0.78321 0.45203 0.48799 0.0
C321 C 0.7816 0.38706 0.52972 0.0
Zn322 Zn 0.61119 0.55106 0.28085 0.0
Zn323 Zn 0.63245 0.52876 0.27852 0.0
O324 O 0.61926 0.5229 0.30191 0.0
O325 O 0.59985 0.54055 0.30206 0.0
O326 O 0.64747 0.50988 0.27613 0.0
O327 O 0.59955 0.54378 0.25428 0.0
O328 O 0.61716 0.52444 0.25187 0.0
C329 C 0.60663 0.5286 0.30922 0.0
C330 C 0.64884 0.56943 0.28606 0.0
O331 O 0.65128 0.55336 0.28303 0.0
O332 O 0.63292 0.57191 0.28633 0.0
C333 C 0.65558 0.50461 0.29014 0.0
O334 O 0.65464 0.51194 0.30718 0.0
C335 C 0.60498 0.53179 0.24445 0.0
C336 C 0.99709 0.96902 0.99219 0.0
C337 C 0.98124 0.95532 0.01636 0.0
C338 C 0.99004 0.97088 0.0091 0.0
C339 C 0.97979 0.93803 0.00656 0.0
C340 C 0.99529 0.95171 0.98211 0.0
C341 C 0.98669 0.93624 0.98943 0.0
N342 N 0.00612 0.98415 0.98581 0.0
C343 C 0.01244 0.98311 0.96888 0.0
C344 C 1.00234 0.95047 0.96502 0.0
C345 C 0.01081 0.96626 0.95831 0.0
Gd346 Gd 0.05529 0.03409 0.03235 0.0
Gd347 Gd 0.00698 0.01175 0.00368 0.0
N348 N 0.99159 0.98784 0.01829 0.0
C349 C 0.97394 0.95759 0.03316 0.0
C350 C 0.98335 0.99009 0.03396 0.0
C351 C 0.97481 0.97506 0.04186 0.0
H352 H 0.98275 0.00334 0.04017 0.0
H353 H 0.9686 0.97696 0.05448 0.0
H354 H 0.08121 0.04215 -0.00155 0.0
H355 H 0.01846 0.99527 0.96332 0.0
H356 H 0.09996 0.06837 0.98701 0.0
H357 H 0.96716 0.94598 0.03924 0.0
H358 H 0.97314 0.92595 0.01199 0.0
H359 H 0.04332 0.05055 0.07356 0.0
H360 H 1.00116 0.93742 0.95683 0.0
H361 H 0.01596 0.96547 0.94493 0.0
H362 H 0.09605 0.11942 0.03002 0.0
H363 H 0.98531 0.92281 0.98197 0.0
H364 H 0.06181 0.10811 0.08106 0.0
H365 H 0.04537 0.0801 0.09173 0.0
N366 N 0.05639 0.06151 0.05134 0.0
C367 C 0.06642 0.07667 0.04581 0.0
C368 C 0.04947 0.06257 0.06797 0.0
C369 C 0.06043 0.09514 0.07264 0.0
C370 C 0.05106 0.07937 0.07865 0.0
C371 C 0.06856 0.0939 0.05624 0.0
H372 H 0.08081 0.1226 0.05808 0.0
N373 N 0.07292 0.05817 0.02025 0.0
C374 C 0.07517 0.07491 0.03003 0.0
C375 C 0.09483 0.08785 0.0084 0.0
C376 C 0.08606 0.09026 0.02422 0.0
C377 C 0.08204 0.05562 0.00532 0.0
C378 C 0.09292 0.07043 -0.001 0.0
O379 O 0.02686 0.99375 0.01071 0.0
O380 O 0.0406 0.00705 0.03976 0.0
O381 O 0.07894 0.02256 0.0313 0.0
O382 O 0.07576 0.03932 0.05688 0.0
O383 O 0.00584 0.02691 0.03211 0.0
O384 O 0.03268 0.02521 0.0495 0.0
O385 O 0.04285 0.05153 0.01309 0.0
O386 O 0.01232 0.04201 0.01399 0.0
O387 O 0.9779 0.00706 0.99599 0.0
O388 O 0.99605 0.01738 0.9765 0.0
O389 O 0.05454 0.01819 0.00378 0.0
O390 O 0.02906 0.02356 0.98727 0.0
C391 C 0.03431 0.99236 0.02766 0.0
C392 C 0.01591 0.02742 0.0483 0.0
C393 C 0.10281 0.02732 0.05774 0.0
C394 C 0.13117 0.01805 0.05536 0.0
C395 C 0.12409 0.02897 0.08581 0.0
C396 C 0.10763 0.03161 0.07727 0.0
C397 C 0.13584 0.02218 0.07493 0.0
C398 C 0.11459 0.02055 0.04691 0.0
C399 C 0.08557 0.02977 0.0485 0.0
C400 C 0.08783 0.10745 0.03433 0.0
C401 C 0.0791 0.10927 0.05028 0.0
H402 H 0.1033 0.09931 0.00349 0.0
C403 C 0.02637 0.05454 0.01127 0.0
C404 C 0.04542 0.02047 0.98798 0.0
C405 C 0.96921 0.02788 0.97665 0.0
C406 C 0.9501 0.04802 0.98676 0.0
C407 C 0.95785 0.04638 0.9549 0.0
C408 C 0.96783 0.03351 0.95878 0.0
C409 C 0.94886 0.05347 0.96869 0.0
C410 C 0.96069 0.03549 0.99071 0.0
C411 C 0.97942 0.01398 0.98031 0.0
H412 H 0.12775 0.03221 0.10087 0.0
H413 H 0.09866 0.03685 0.08591 0.0
H414 H 0.14863 0.02037 0.08174 0.0
H415 H 0.11081 0.01706 0.03185 0.0
H416 H 0.95673 0.05059 0.94104 0.0
H417 H 0.97441 0.02786 0.94779 0.0
H418 H 0.94051 0.06277 0.96494 0.0
H419 H 0.96216 0.03153 0.00467 0.0
C420 C 0.29943 0.73399 0.22668 0.0
C421 C 0.27447 0.72 0.20204 0.0
C422 C 0.28281 0.73417 0.21652 0.0
C423 C 0.28311 0.70581 0.19777 0.0
C424 C 0.30806 0.71969 0.22245 0.0
C425 C 0.29984 0.70566 0.20793 0.0
N426 N 0.3069 0.74753 0.241 0.0
C427 C 0.32331 0.74798 0.25102 0.0
C428 C 0.32469 0.71986 0.23301 0.0
C429 C 0.33237 0.73411 0.24729 0.0
Gd430 Gd 0.26392 0.77759 0.29486 0.0
Gd431 Gd 0.29102 0.77058 0.24526 0.0
N432 N 0.27444 0.74779 0.22141 0.0
C433 C 0.25761 0.72043 0.19238 0.0
C434 C 0.25827 0.74855 0.21161 0.0
C435 C 0.24954 0.73481 0.19712 0.0
H436 H 0.2521 0.75981 0.21456 0.0
H437 H 0.23664 0.73541 0.18952 0.0
H438 H 0.30174 0.78867 0.32761 0.0
H439 H 0.32976 0.75921 0.26156 0.0
H440 H 0.31726 0.8142 0.35124 0.0
H441 H 0.25077 0.7098 0.18117 0.0
H442 H 0.2769 0.69481 0.18668 0.0
H443 H 0.22427 0.7864 0.27985 0.0
H444 H 0.33175 0.70913 0.23017 0.0
H445 H 0.34536 0.73452 0.25532 0.0
H446 H 0.27755 0.8554 0.35026 0.0
H447 H 0.30629 0.69456 0.2045 0.0
H448 H 0.22164 0.83783 0.30822 0.0
H449 H 0.20784 0.8108 0.28499 0.0
N450 N 0.24721 0.79968 0.29966 0.0
C451 C 0.25484 0.81413 0.31279 0.0
C452 C 0.23047 0.7982 0.28989 0.0
C453 C 0.22891 0.82717 0.30598 0.0
C454 C 0.22109 0.81195 0.29284 0.0
C455 C 0.24597 0.82838 0.31621 0.0
H456 H 0.24777 0.85442 0.33249 0.0
N457 N 0.2797 0.80059 0.31906 0.0
C458 C 0.27163 0.81465 0.32274 0.0
C459 C 0.29671 0.82941 0.34661 0.0
C460 C 0.27997 0.82949 0.3365 0.0
C461 C 0.2957 0.80015 0.32946 0.0
C462 C 0.30451 0.81459 0.3432 0.0
O463 O 0.27639 0.74335 0.25151 0.0
O464 O 0.27345 0.76353 0.2726 0.0
O465 O 0.26146 0.76232 0.31842 0.0
O466 O 0.23795 0.75948 0.29682 0.0
O467 O 0.26427 0.78033 0.24271 0.0
O468 O 0.24633 0.7706 0.26614 0.0
O469 O 0.27163 0.80261 0.28154 0.0
O470 O 0.2951 0.79404 0.26878 0.0
O471 O 0.29099 0.7853 0.22119 0.0
O472 O 0.3162 0.78044 0.23435 0.0
O473 O 0.29147 0.76956 0.29922 0.0
O474 O 0.30882 0.77537 0.27415 0.0
C475 C 0.26976 0.74651 0.26658 0.0
C476 C 0.24856 0.7767 0.24974 0.0
C477 C 0.23371 0.74153 0.32267 0.0
C478 C 0.23237 0.72344 0.34849 0.0
C479 C 0.20567 0.72038 0.32565 0.0
C480 C 0.21544 0.73338 0.31603 0.0
C481 C 0.21411 0.71531 0.34178 0.0
C482 C 0.24203 0.7366 0.33897 0.0
C483 C 0.24449 0.75461 0.3124 0.0
C484 C 0.2713 0.84386 0.33981 0.0
C485 C 0.25434 0.8433 0.3297 0.0
H486 H 0.30356 0.84056 0.35729 0.0
C487 C 0.28454 0.80554 0.27087 0.0
C488 C 0.30694 0.7716 0.29162 0.0
C489 C 0.3177 0.80696 0.21958 0.0
C490 C 0.3201 0.83165 0.20059 0.0
C491 C 0.33997 0.83521 0.23002 0.0
C492 C 0.33168 0.81765 0.233 0.0
C493 C 0.33425 0.8422 0.21381 0.0
C494 C 0.31203 0.81404 0.20349 0.0
C495 C 0.30857 0.78843 0.22172 0.0
H496 H 0.19161 0.71405 0.32045 0.0
H497 H 0.20877 0.7369 0.30337 0.0
H498 H 0.20645 0.70504 0.34895 0.0
H499 H 0.25623 0.74259 0.34404 0.0
H500 H 0.3508 0.84342 0.2403 0.0
H501 H 0.33618 0.8125 0.24569 0.0
H502 H 0.34085 0.85574 0.21154 0.0
H503 H 0.30105 0.80585 0.19326 0.0
C504 C 0.57223 0.06649 0.49123 0.0
C505 C 0.59188 0.08543 0.51805 0.0
C506 C 0.57978 0.06898 0.51013 0.0
C507 C 0.59666 0.09918 0.50674 0.0
C508 C 0.5769 0.0804 0.47996 0.0
C509 C 0.5892 0.09668 0.48779 0.0
N510 N 0.56002 0.05074 0.48404 0.0
C511 C 0.55253 0.0478 0.46561 0.0
C512 C 0.56897 0.07761 0.46116 0.0
C513 C 0.55679 0.06123 0.45396 0.0
Gd514 Gd 0.50707 0.02266 0.52764 0.0
Gd515 Gd 0.55548 0.02914 0.5049 0.0
N516 N 0.57432 0.05579 0.52103 0.0
C517 C 0.59852 0.08772 0.53722 0.0
C518 C 0.58083 0.05782 0.53964 0.0
C519 C 0.59296 0.07386 0.54805 0.0
H520 H 0.57653 0.04717 0.548 0.0
H521 H 0.59802 0.07554 0.56287 0.0
H522 H 0.48228 0.99973 0.4879 0.0
H523 H 0.54362 0.03499 0.45963 0.0
H524 H 0.45974 0.97082 0.47766 0.0
H525 H 0.60783 0.10018 0.54382 0.0
H526 H 0.60595 0.11191 0.51259 0.0
H527 H 0.51063 0.02945 0.57432 0.0
H528 H 0.57223 0.08798 0.45206 0.0
H529 H 0.55081 0.05888 0.43937 0.0
H530 H 0.45041 0.94555 0.53501 0.0
H531 H 0.59293 0.10749 0.47932 0.0
H532 H 0.47961 0.98203 0.59273 0.0
H533 H 0.49972 0.01276 0.60009 0.0
N534 N 0.49739 0.00802 0.55288 0.0
C535 C 0.48585 0.99146 0.54847 0.0
C536 C 0.50195 0.01597 0.57107 0.0
C537 C 0.48449 0.98921 0.58142 0.0
C538 C 0.49578 0.00658 0.58564 0.0
C539 C 0.47909 0.98157 0.56264 0.0
H540 H 0.46141 0.9569 0.56831 0.0
N541 N 0.48561 0.9955 0.51648 0.0
C542 C 0.47956 0.98511 0.52971 0.0
C543 C 0.45961 0.96329 0.50561 0.0
C544 C 0.46648 0.96863 0.52462 0.0
C545 C 0.47817 0.9909 0.49809 0.0
C546 C 0.46532 0.97459 0.49232 0.0
O547 O 0.54535 0.05434 0.51565 0.0
O548 O 0.52967 0.04678 0.54025 0.0
O549 O 0.48566 0.03336 0.51332 0.0
O550 O 0.4927 0.03931 0.54347 0.0
O551 O 0.55424 0.01667 0.53173 0.0
O552 O 0.53157 0.02401 0.54851 0.0
O553 O 0.51322 0.99577 0.51606 0.0
O554 O 0.53849 1.00015 0.49968 0.0
O555 O 0.58066 0.02095 0.51296 0.0
O556 O 0.57247 0.02343 0.48391 0.0
O557 O 0.51574 0.03387 0.502 0.0
O558 O 0.53076 0.01885 0.48356 0.0
C559 C 0.53788 0.05903 0.53055 0.0
C560 C 0.54597 0.01721 0.54679 0.0
C561 C 0.46227 0.03697 0.53151 0.0
C562 C 0.43402 0.04711 0.53167 0.0
C563 C 0.43668 0.01897 0.54357 0.0
C564 C 0.45448 0.02161 0.53952 0.0
C565 C 0.42651 0.0317 0.5398 0.0
C566 C 0.45189 0.04961 0.52733 0.0
C567 C 0.48156 0.04062 0.52895 0.0
C568 C 0.46035 0.95831 0.53865 0.0
C569 C 0.46664 0.96477 0.55762 0.0
H570 H 0.44955 0.95072 0.50112 0.0
C571 C 0.52455 0.98968 0.50569 0.0
C572 C 0.51583 0.02389 0.48635 0.0
C573 C 0.58759 1.0001 0.49001 0.0
C574 C 0.60627 0.97807 0.49425 0.0
C575 C 0.57894 0.97036 0.47146 0.0
C576 C 0.57576 0.98754 0.47606 0.0
C577 C 0.59405 0.96559 0.48052 0.0
C578 C 0.60297 0.99537 0.49895 0.0
C579 C 0.58372 0.01792 0.49566 0.0
H580 H 0.43084 0.00714 0.54987 0.0
H581 H 0.46222 0.01186 0.54305 0.0
H582 H 0.41273 0.02949 0.54315 0.0
H583 H 0.45788 0.06162 0.52134 0.0
H584 H 0.5697 0.96071 0.46079 0.0
H585 H 0.56398 0.99095 0.46876 0.0
H586 H 0.59639 0.95225 0.4765 0.0
H587 H 0.61221 0.00503 0.50966 0.0
C588 C 0.23999 0.28624 0.72558 0.0
C589 C 0.22094 0.25826 0.70845 0.0
C590 C 0.23242 0.26779 0.72463 0.0
C591 C 0.21783 0.26733 0.69287 0.0
C592 C 0.23634 0.29551 0.71017 0.0
C593 C 0.22557 0.28589 0.6937 0.0
N594 N 0.24994 0.29529 0.74191 0.0
C595 C 0.25522 0.31381 0.74422 0.0
C596 C 0.24307 0.3143 0.71201 0.0
C597 C 0.25231 0.32351 0.7292 0.0
Gd598 Gd 0.30579 0.26786 0.77337 0.0
Gd599 Gd 0.25437 0.27721 0.7658 0.0
N600 N 0.23593 0.25924 0.73976 0.0
C601 C 0.21267 0.23995 0.70857 0.0
C602 C 0.22724 0.2417 0.74038 0.0
C603 C 0.21568 0.2317 0.72469 0.0
H604 H 0.22944 0.23545 0.75296 0.0
H605 H 0.20906 0.21767 0.72505 0.0
H606 H 0.32962 0.3116 0.77956 0.0
H607 H 0.26137 0.32129 0.7577 0.0
H608 H 0.34899 0.3334 0.80502 0.0
H609 H 0.20371 0.23217 0.69643 0.0
H610 H 0.20919 0.26019 0.68023 0.0
H611 H 0.29734 0.22802 0.79013 0.0
H612 H 0.2406 0.32191 0.70048 0.0
H613 H 0.25689 0.33814 0.73101 0.0
H614 H 0.35482 0.29852 0.85609 0.0
H615 H 0.22273 0.29278 0.6817 0.0
H616 H 0.32461 0.23555 0.84634 0.0
H617 H 0.30487 0.21559 0.81941 0.0
N618 N 0.31177 0.25495 0.80071 0.0
C619 C 0.32325 0.26601 0.815 0.0
C620 C 0.30553 0.23697 0.80194 0.0
C621 C 0.32121 0.24113 0.83356 0.0
C622 C 0.30998 0.22983 0.81843 0.0
C623 C 0.32807 0.25943 0.83194 0.0
H624 H 0.34323 0.26652 0.85987 0.0
N625 N 0.32495 0.28998 0.7962 0.0
C626 C 0.32977 0.28409 0.8128 0.0
C627 C 0.34797 0.31401 0.82482 0.0
C628 C 0.34132 0.296 0.82759 0.0
C629 C 0.33214 0.30729 0.79313 0.0
C630 C 0.34349 0.31962 0.80746 0.0
O631 O 0.26314 0.25946 0.74275 0.0
O632 O 0.29321 0.27309 0.74541 0.0
O633 O 0.33347 0.27207 0.76607 0.0
O634 O 0.3161 0.24517 0.76218 0.0
O635 O 0.2593 0.2532 0.77973 0.0
O636 O 0.28227 0.24337 0.76614 0.0
O637 O 0.29084 0.27168 0.79879 0.0
O638 O 0.27457 0.29237 0.79029 0.0
O639 O 0.235 0.26764 0.78484 0.0
O640 O 0.23123 0.28923 0.7689 0.0
O641 O 0.30278 0.29298 0.75993 0.0
O642 O 0.27816 0.30194 0.77146 0.0
C643 C 0.27849 0.2628 0.73557 0.0
C644 C 0.26708 0.24025 0.7737 0.0
C645 C 0.33793 0.251 0.74101 0.0
C646 C 0.3624 0.25292 0.72126 0.0
C647 C 0.33262 0.23349 0.70995 0.0
C648 C 0.32638 0.23856 0.72669 0.0
C649 C 0.3505 0.24051 0.70728 0.0
C650 C 0.35602 0.25832 0.73811 0.0
C651 C 0.33157 0.25511 0.75939 0.0
C652 C 0.34601 0.28954 0.84457 0.0
C653 C 0.33943 0.27131 0.84672 0.0
H654 H 0.35686 0.32358 0.83585 0.0
C655 C 0.28244 0.28465 0.80327 0.0
C656 C 0.29333 0.30527 0.76375 0.0
C657 C 0.21918 0.28873 0.79772 0.0
C658 C 0.19698 0.29014 0.81977 0.0
C659 C 0.22365 0.31484 0.82146 0.0
C660 C 0.22922 0.30587 0.80612 0.0
C661 C 0.20772 0.30705 0.82829 0.0
C662 C 0.20288 0.28096 0.80443 0.0
C663 C 0.22517 0.2793 0.78145 0.0
H664 H 0.32357 0.22394 0.69905 0.0
H665 H 0.31249 0.23259 0.72841 0.0
H666 H 0.35509 0.23622 0.69424 0.0
H667 H 0.36521 0.2677 0.74907 0.0
H668 H 0.23156 0.32804 0.8279 0.0
H669 H 0.24123 0.31244 0.80058 0.0
H670 H 0.2035 0.31452 0.83994 0.0
H671 H 0.19481 0.26789 0.79773 0.0
C672 C 0.01978 0.06491 0.55655 0.0
C673 C 0.04917 0.0827 0.57157 0.0
C674 C 0.03826 0.07127 0.55606 0.0
C675 C 0.04134 0.08739 0.58757 0.0
C676 C 0.01179 0.06987 0.57243 0.0
C677 C 0.0227 0.08102 0.58798 0.0
N678 N 0.00962 0.05375 0.54151 0.0
C679 C 0.99125 0.04817 0.54081 0.0
C680 C 0.99306 0.0635 0.57217 0.0
C681 C 0.98272 0.05276 0.55619 0.0
Gd682 Gd 0.03397 0.99525 0.51091 0.0
Gd683 Gd 0.0251 0.04666 0.51655 0.0
N684 N 0.04549 0.06644 0.54039 0.0
C685 C 0.06762 0.08925 0.57046 0.0
C686 C 0.06328 0.07346 0.53892 0.0
C687 C 0.07465 0.08475 0.554 0.0
H688 H 0.06875 0.07073 0.52609 0.0
H689 H 0.08881 0.09013 0.55285 0.0
H690 H 0.99188 0.97052 0.49888 0.0
H691 H 0.98305 0.0404 0.52832 0.0
H692 H 0.97313 0.95108 0.47094 0.0
H693 H 0.07647 0.09806 0.58208 0.0
H694 H 0.04954 0.0961 0.59964 0.0
H695 H 0.07773 1.00194 0.50152 0.0
H696 H 0.98641 0.06702 0.58408 0.0
H697 H 0.96817 0.04812 0.55567 0.0
H698 H 0.01404 0.95201 0.42466 0.0
H699 H 0.01683 0.08489 0.60036 0.0
H700 H 0.07634 0.9825 0.44369 0.0
H701 H 0.09358 0.998 0.4741 0.0
N702 N 0.05127 0.99092 0.48638 0.0
C703 C 0.0417 0.98129 0.47011 0.0
C704 C 0.06979 0.99609 0.48816 0.0
C705 C 0.06917 0.98468 0.45557 0.0
C706 C 0.07894 0.99348 0.4727 0.0
C707 C 0.05038 0.97803 0.45424 0.0
H708 H 0.04663 0.96527 0.4254 0.0
N709 N 0.01527 0.97702 0.48513 0.0
C710 C 0.02327 0.97378 0.4696 0.0
C711 C 0.99483 0.95486 0.45383 0.0
C712 C 0.01314 0.9629 0.45336 0.0
C713 C 0.99772 0.96854 0.48606 0.0
C714 C 0.98715 0.95752 0.47033 0.0
O715 O 0.0278 0.03234 0.54269 0.0
O716 O 0.04839 0.01536 0.53582 0.0
O717 O 0.02459 0.97589 0.53004 0.0
O718 O 0.04594 0.97208 0.51385 0.0
O719 O 0.05149 0.04381 0.50587 0.0
O720 O 0.05936 0.01838 0.51712 0.0
O721 O 0.01641 0.00418 0.48775 0.0
O722 O 0.03223 0.03314 0.49029 0.0
O723 O 0.02906 0.07443 0.50877 0.0
O724 O 1.00343 0.05427 0.49973 0.0
O725 O 0.00974 1.00006 0.52431 0.0
O726 O 1.0005 0.02313 0.51011 0.0
C727 C 0.04043 0.02374 0.54807 0.0
C728 C 0.06342 0.03412 0.51048 0.0
C729 C 0.04634 0.96084 0.54312 0.0
C730 C 0.04859 0.93913 0.56572 0.0
C731 C 0.07369 0.96508 0.5653 0.0
C732 C 0.06387 0.97077 0.55054 0.0
C733 C 0.06624 0.94937 0.57274 0.0
C734 C 0.03868 0.9451 0.55082 0.0
C735 C 0.03638 0.96623 0.52674 0.0
C736 C 0.02163 0.96019 0.43734 0.0
C737 C 0.04019 0.96778 0.43776 0.0
H738 H 0.9866 0.94636 0.44165 0.0
C739 C 0.02084 0.01928 0.48039 0.0
C740 C 0.99708 0.00829 0.51827 0.0
C741 C 0.00443 0.08385 0.4899 0.0
C742 C 0.00598 0.10941 0.47155 0.0
C743 C 0.97684 0.09279 0.47832 0.0
C744 C 0.98546 0.08143 0.48807 0.0
C745 C 0.98697 0.10658 0.47004 0.0
C746 C 0.01478 0.09812 0.48183 0.0
C747 C 0.01275 0.07071 0.49943 0.0
H748 H 0.0873 0.97271 0.57081 0.0
H749 H 0.07008 0.98275 0.54468 0.0
H750 H 0.07454 0.94507 0.58376 0.0
H751 H 0.02508 0.93754 0.54511 0.0
H752 H 0.96222 0.09079 0.47706 0.0
H753 H 0.97721 0.07067 0.49418 0.0
H754 H 0.9799 0.11519 0.4625 0.0
H755 H 0.02942 0.10003 0.48296 0.0
C756 C 0.23621 0.73426 0.78932 0.0
C757 C 0.21692 0.71466 0.76279 0.0
C758 C 0.23357 0.72646 0.77067 0.0
C759 C 0.20264 0.71143 0.77367 0.0
C760 C 0.22213 0.73038 0.80051 0.0
C761 C 0.20522 0.7193 0.79247 0.0
N762 N 0.25283 0.74467 0.79681 0.0
C763 C 0.25675 0.75003 0.81573 0.0
C764 C 0.22567 0.73721 0.81961 0.0
C765 C 0.24314 0.74681 0.82731 0.0
Gd766 Gd 0.28015 0.79948 0.75914 0.0
Gd767 Gd 0.27429 0.74952 0.77569 0.0
N768 N 0.24748 0.7301 0.76032 0.0
C769 C 0.21528 0.70616 0.74432 0.0
C770 C 0.2464 0.7211 0.74272 0.0
C771 C 0.23017 0.7092 0.73434 0.0
H772 H 0.25798 0.72351 0.7351 0.0
H773 H 0.22914 0.70241 0.72022 0.0
H774 H 0.28876 0.8236 0.80259 0.0
H775 H 0.27042 0.75654 0.82208 0.0
H776 H 0.31429 0.84538 0.82208 0.0
H777 H 0.20271 0.69697 0.73778 0.0
H778 H 0.18966 0.70255 0.76781 0.0
H779 H 0.29219 0.79418 0.71627 0.0
H780 H 0.21522 0.73453 0.82868 0.0
H781 H 0.24623 0.75145 0.84222 0.0
H782 H 0.35941 0.85762 0.78075 0.0
H783 H 0.19421 0.71631 0.80082 0.0
H784 H 0.34525 0.82779 0.71743 0.0
H785 H 0.31848 0.80548 0.70008 0.0
N786 N 0.30447 0.80899 0.74273 0.0
C787 C 0.31862 0.82186 0.75235 0.0
C788 C 0.30403 0.80344 0.7241 0.0
C789 C 0.33382 0.82271 0.72466 0.0
C790 C 0.31878 0.81004 0.71483 0.0
C791 C 0.33383 0.82887 0.74361 0.0
H792 H 0.36039 0.84719 0.74759 0.0
N793 N 0.30296 0.82096 0.77908 0.0
C794 C 0.31798 0.82777 0.77111 0.0
C795 C 0.33144 0.84685 0.8002 0.0
C796 C 0.33268 0.84083 0.78152 0.0
C797 C 0.30127 0.8276 0.7969 0.0
C798 C 0.3156 0.84035 0.80785 0.0
O799 O 0.25139 0.75655 0.75647 0.0
O800 O 0.25303 0.78614 0.76725 0.0
O801 O 0.27393 0.82627 0.7604 0.0
O802 O 0.26553 0.80677 0.73465 0.0
O803 O 0.28744 0.75473 0.75009 0.0
O804 O 0.27322 0.77525 0.73681 0.0
O805 O 0.30583 0.78835 0.76412 0.0
O806 O 0.30061 0.77004 0.78744 0.0
O807 O 0.28873 0.7294 0.76568 0.0
O808 O 0.27819 0.72807 0.79217 0.0
O809 O 0.26885 0.79504 0.78618 0.0
O810 O 0.28251 0.77355 0.79832 0.0
C811 C 0.24339 0.77002 0.75995 0.0
C812 C 0.28237 0.76246 0.73568 0.0
C813 C 0.25771 0.83606 0.73373 0.0
C814 C 0.24466 0.86281 0.7349 0.0
C815 C 0.24756 0.8468 0.70485 0.0
C816 C 0.25519 0.83444 0.71405 0.0
C817 C 0.2423 0.86086 0.71514 0.0
C818 C 0.25241 0.85029 0.74416 0.0
C819 C 0.26585 0.82285 0.74314 0.0
C820 C 0.34799 0.84763 0.77294 0.0
C821 C 0.34854 0.84171 0.75403 0.0
H822 H 0.34245 0.85684 0.80867 0.0
C823 C 0.31185 0.78017 0.77796 0.0
C824 C 0.27432 0.78702 0.80027 0.0
C825 C 0.30465 0.71714 0.78904 0.0
C826 C 0.32632 0.69765 0.7889 0.0
C827 C 0.33117 0.7239 0.81271 0.0
C828 C 0.31511 0.72796 0.80501 0.0
C829 C 0.33676 0.70885 0.80476 0.0
C830 C 0.31026 0.70199 0.78104 0.0
C831 C 0.28777 0.72132 0.78067 0.0
H832 H 0.24564 0.84543 0.68966 0.0
H833 H 0.25922 0.82365 0.70574 0.0
H834 H 0.23609 0.87006 0.70759 0.0
H835 H 0.25432 0.85162 0.75937 0.0
H836 H 0.33921 0.73232 0.82502 0.0
H837 H 0.31077 0.73946 0.81159 0.0
H838 H 0.34905 0.70574 0.8113 0.0
H839 H 0.30213 0.69363 0.7687 0.0
C840 C 0.55209 1.00026 0.0624 0.0
C841 C 0.56289 0.02421 0.08859 0.0
C842 C 0.5517 0.01718 0.07139 0.0
C843 C 0.57464 0.01416 0.09641 0.0
C844 C 0.56356 0.98994 0.07043 0.0
C845 C 0.57497 0.99707 0.08736 0.0
N846 N 0.54102 0.99376 0.04595 0.0
C847 C 0.53983 0.9766 0.03754 0.0
C848 C 0.56305 0.97265 0.06134 0.0
C849 C 0.55096 0.96587 0.04494 0.0
Gd850 Gd 0.52841 0.04421 0.98728 0.0
Gd851 Gd 0.52314 0.01276 0.03424 0.0
N852 N 0.54038 0.02673 0.06328 0.0
C853 C 0.56181 0.04107 0.09754 0.0
C854 C 0.53864 0.04274 0.07251 0.0
C855 C 0.54947 0.05025 0.08957 0.0
H856 H 0.52872 0.0497 0.06717 0.0
H857 H 0.54814 0.06305 0.09666 0.0
H858 H 0.50845 0.00456 0.95914 0.0
H859 H 0.52984 0.97097 0.02545 0.0
H860 H 0.48525 0.99413 0.93173 0.0
H861 H 0.57016 0.04693 0.11077 0.0
H862 H 0.58339 0.0194 0.10955 0.0
H863 H 0.5252 0.08602 0.00268 0.0
H864 H 0.57163 0.96429 0.06707 0.0
H865 H 0.55004 0.9523 0.0381 0.0
H866 H 0.46103 0.04618 0.92202 0.0
H867 H 0.58395 0.98938 0.09367 0.0
H868 H 0.48367 0.10003 0.96602 0.0
H869 H 0.50726 0.10808 0.99386 0.0
N870 N 0.51154 0.06557 0.98043 0.0
C871 C 0.49879 0.06091 0.96501 0.0
C872 C 0.5147 0.08225 0.99075 0.0
C873 C 0.49144 0.09027 0.9699 0.0
C874 C 0.50469 0.09483 0.98567 0.0
C875 C 0.4883 0.07312 0.95937 0.0
H876 H 0.4667 0.07696 0.93909 0.0
N877 N 0.50551 0.03189 0.96171 0.0
C878 C 0.49572 0.04358 0.9553 0.0
C879 C 0.47837 0.02009 0.93107 0.0
C880 C 0.48188 0.03799 0.93983 0.0
C881 C 0.50162 0.01423 0.95361 0.0
C882 C 0.48818 0.00813 0.93811 0.0
O883 O 0.55284 0.02597 0.03561 0.0
O884 O 0.5387 0.03358 0.01178 0.0
O885 O 0.54767 0.04377 0.96756 0.0
O886 O 0.54833 0.06884 0.98523 0.0
O887 O 0.51546 0.04067 0.0355 0.0
O888 O 0.53273 0.05944 0.0169 0.0
O889 O 0.49992 0.03622 0.99326 0.0
O890 O 0.50792 0.0129 0.0057 0.0
O891 O 0.50073 0.01224 0.05044 0.0
O892 O 0.50581 0.98708 0.03784 0.0
O893 O 0.53403 0.01582 0.98202 0.0
O894 O 0.52912 0.99759 0.00677 0.0
C895 C 0.55437 0.03452 0.02126 0.0
C896 C 0.52265 0.0569 0.03073 0.0
C897 C 0.55448 0.07041 0.95389 0.0
C898 C 0.56293 0.07075 0.92246 0.0
C899 C 0.54408 0.0906 0.93342 0.0
C900 C 0.54473 0.08382 0.95071 0.0
C901 C 0.55303 0.084 0.91924 0.0
C902 C 0.56362 0.06414 0.93982 0.0
C903 C 0.55406 0.06127 0.97077 0.0
C904 C 0.47166 0.05023 0.93391 0.0
C905 C 0.47487 0.06776 0.94365 0.0
H906 H 0.46784 0.01526 0.91917 0.0
C907 C 0.49566 0.0223 0.0023 0.0
C908 C 0.5336 1.00047 0.98965 0.0
C909 C 0.49706 0.98779 0.06828 0.0
C910 C 0.4901 0.99125 0.10034 0.0
C911 C 0.50515 0.96758 0.09006 0.0
C912 C 0.50481 0.97313 0.07222 0.0
C913 C 0.49785 0.97659 0.1041 0.0
C914 C 0.48958 0.99662 0.08236 0.0
C915 C 0.49736 0.99465 0.04996 0.0
H916 H 0.53648 0.10084 0.93095 0.0
H917 H 0.5374 0.08882 0.96134 0.0
H918 H 0.55233 0.0893 0.90589 0.0
H919 H 0.57077 0.05348 0.94219 0.0
H920 H 0.51121 0.95637 0.09306 0.0
H921 H 0.51073 0.96605 0.06165 0.0
H922 H 0.49848 0.97226 0.11793 0.0
H923 H 0.48337 0.00777 0.07932 0.0
C924 C 0.33218 0.30132 0.291 0.0
C925 C 0.34728 0.31293 0.26533 0.0
C926 C 0.3312 0.30629 0.27291 0.0
C927 C 0.36423 0.31438 0.27601 0.0
C928 C 0.3492 0.30283 0.30175 0.0
C929 C 0.36518 0.30939 0.29416 0.0
N930 N 0.31652 0.2944 0.29781 0.0
C931 C 0.31684 0.28942 0.31543 0.0
C932 C 0.34964 0.29748 0.31975 0.0
C933 C 0.33339 0.29082 0.32663 0.0
Gd934 Gd 0.26456 0.246 0.25019 0.0
Gd935 Gd 0.28969 0.2935 0.27821 0.0
N936 N 0.31458 0.30435 0.26266 0.0
C937 C 0.34586 0.31799 0.24724 0.0
C938 C 0.31318 0.31042 0.24557 0.0
C939 C 0.32873 0.31694 0.23742 0.0
H940 H 0.30022 0.31091 0.23841 0.0
H941 H 0.32749 0.32148 0.22372 0.0
H942 H 0.24936 0.23004 0.28862 0.0
H943 H 0.30435 0.2848 0.32106 0.0
H944 H 0.22039 0.21543 0.29833 0.0
H945 H 0.35789 0.32312 0.24091 0.0
H946 H 0.3767 0.31938 0.27035 0.0
H947 H 0.25513 0.25193 0.20497 0.0
H948 H 0.36245 0.29848 0.32845 0.0
H949 H 0.33359 0.28686 0.34061 0.0
H950 H 0.17681 0.21007 0.24357 0.0
H951 H 0.37837 0.31058 0.30219 0.0
H952 H 0.19794 0.2326 0.18853 0.0
H953 H 0.22827 0.24683 0.18099 0.0
N954 N 0.24004 0.24215 0.22634 0.0
C955 C 0.22358 0.23388 0.23065 0.0
C956 C 0.2419 0.24654 0.2087 0.0
C957 C 0.20965 0.23519 0.19925 0.0
C958 C 0.22673 0.24331 0.19496 0.0
C959 C 0.20791 0.23023 0.21721 0.0
H960 H 0.17892 0.21874 0.21188 0.0
N961 N 0.23762 0.23316 0.26144 0.0
C962 C 0.22237 0.22899 0.24859 0.0
C963 C 0.2048 0.21562 0.27162 0.0
C964 C 0.2055 0.22031 0.25344 0.0
C965 C 0.23713 0.22797 0.27893 0.0
C966 C 0.22071 0.21937 0.28437 0.0
O967 O 0.30636 0.27239 0.27124 0.0
O968 O 0.29232 0.25826 0.24247 0.0
O969 O 0.27155 0.22093 0.25629 0.0
O970 O 0.26169 0.22406 0.2277 0.0
O971 O 0.27241 0.29342 0.25041 0.0
O972 O 0.27597 0.26771 0.23334 0.0
O973 O 0.24507 0.26328 0.2595 0.0
O974 O 0.26063 0.28464 0.28431 0.0
O975 O 0.28891 0.32142 0.27572 0.0
O976 O 0.29403 0.31312 0.30318 0.0
O977 O 0.27929 0.2467 0.27956 0.0
O978 O 0.27708 0.2734 0.29619 0.0
C979 C 0.3072 0.26415 0.25452 0.0
C980 C 0.27202 0.28366 0.23421 0.0
C981 C 0.28398 0.20711 0.2321 0.0
C982 C 0.30286 0.18534 0.23523 0.0
C983 C 0.30891 0.20778 0.21372 0.0
C984 C 0.29432 0.21482 0.21878 0.0
C985 C 0.31319 0.19306 0.22187 0.0
C986 C 0.2884 0.1926 0.24031 0.0
C987 C 0.26905 0.21427 0.23858 0.0
C988 C 0.18989 0.21669 0.24008 0.0
C989 C 0.19109 0.22165 0.22203 0.0
H990 H 0.1921 0.20894 0.27589 0.0
C991 C 0.24538 0.27543 0.27404 0.0
C992 C 0.27862 0.25653 0.29546 0.0
C993 C 0.27582 0.3345 0.30009 0.0
C994 C 0.25576 0.35492 0.29432 0.0
C995 C 0.25346 0.33793 0.32096 0.0
C996 C 0.26762 0.33013 0.31606 0.0
C997 C 0.24749 0.35024 0.31014 0.0
C998 C 0.26986 0.34694 0.28939 0.0
C999 C 0.29002 0.32576 0.29382 0.0
H1000 H 0.31693 0.21375 0.20351 0.0
H1001 H 0.29124 0.22629 0.21243 0.0
H1002 H 0.32444 0.18768 0.21764 0.0
H1003 H 0.28071 0.18726 0.2511 0.0
H1004 H 0.24709 0.33442 0.33317 0.0
H1005 H 0.2719 0.32051 0.32459 0.0
H1006 H 0.23669 0.35636 0.31437 0.0
H1007 H 0.27606 0.35023 0.27698 0.0
C1008 C 0.51457 0.56356 0.05938 0.0
C1009 C 0.54235 0.58148 0.078 0.0
C1010 C 0.5331 0.57091 0.0612 0.0
C1011 C 0.53282 0.58386 0.09331 0.0
C1012 C 0.50481 0.56658 0.07447 0.0
C1013 C 0.5141 0.57638 0.09157 0.0
N1014 N 0.50594 0.55445 0.04253 0.0
C1015 C 0.4874 0.54961 0.03935 0.0
C1016 C 0.48592 0.5602 0.07171 0.0
C1017 C 0.47716 0.55197 0.05397 0.0
Gd1018 Gd 0.53362 0.49853 0.01369 0.0
Gd1019 Gd 0.52482 0.54996 0.01951 0.0
N1020 N 0.54202 0.56804 0.04629 0.0
C1021 C 0.56082 0.58962 0.07874 0.0
C1022 C 0.55976 0.57667 0.04652 0.0
C1023 C 0.56949 0.5874 0.06284 0.0
H1024 H 0.56641 0.57489 0.0342 0.0
H1025 H 0.58367 0.59391 0.06317 0.0
H1026 H 0.48987 0.4744 0.00639 0.0
H1027 H 0.48033 0.54417 0.0255 0.0
H1028 H 0.46823 0.45612 0.9801 0.0
H1029 H 0.5684 0.59788 0.09138 0.0
H1030 H 0.53972 0.59176 0.10643 0.0
H1031 H 0.57432 0.50516 -0.00104 0.0
H1032 H 0.47793 0.56221 0.08295 0.0
H1033 H 0.46249 0.5477 0.05146 0.0
H1034 H 0.50396 0.45199 0.9297 0.0
H1035 H 0.50685 0.57868 0.10336 0.0
H1036 H 0.56749 0.48036 0.94195 0.0
H1037 H 0.58735 0.49831 0.96997 0.0
N1038 N 0.54728 0.49199 0.98715 0.0
C1039 C 0.53628 0.48134 0.97229 0.0
C1040 C 0.56548 0.49763 0.98671 0.0
C1041 C 0.56169 0.4834 0.95461 0.0
C1042 C 0.57294 0.4936 0.97037 0.0
C1043 C 0.54314 0.47701 0.95547 0.0
H1044 H 0.5363 0.46314 0.92702 0.0
N1045 N 0.51189 0.47942 0.99039 0.0
C1046 C 0.51801 0.47509 0.97386 0.0
C1047 C 0.48799 0.45773 0.96077 0.0
C1048 C 0.50618 0.46428 0.95855 0.0
C1049 C 0.49441 0.47226 0.99291 0.0
C1050 C 0.48215 0.46156 0.97809 0.0
O1051 O 0.54187 0.54096 0.04312 0.0
O1052 O 0.52667 0.51162 0.04028 0.0
O1053 O 0.52957 0.47045 0.02062 0.0
O1054 O 0.55555 0.49014 0.02927 0.0
O1055 O 0.54942 0.54507 0.00677 0.0
O1056 O 0.55846 0.52179 0.02089 0.0
O1057 O 0.53197 0.51391 0.98832 0.0
O1058 O 0.51052 0.52994 0.99448 0.0
O1059 O 0.53657 0.56984 0.00208 0.0
O1060 O 0.51233 0.57242 0.01388 0.0
O1061 O 0.5078 0.50197 0.02522 0.0
O1062 O 0.49966 0.52662 0.01284 0.0
C1063 C 0.5377 0.52569 0.05029 0.0
C1064 C 0.56197 0.53684 0.01308 0.0
C1065 C 0.55447 0.46011 0.03793 0.0
C1066 C 0.55344 0.4343 0.05583 0.0
C1067 C 0.58196 0.44978 0.04664 0.0
C1068 C 0.57321 0.46169 0.03799 0.0
C1069 C 0.57221 0.43628 0.05558 0.0
C1070 C 0.54445 0.44613 0.04666 0.0
C1071 C 0.54608 0.47372 0.02937 0.0
C1072 C 0.51288 0.46019 0.94164 0.0
C1073 C 0.53131 0.46652 0.94011 0.0
H1074 H 0.47846 0.44939 0.94934 0.0
C1075 C 0.5185 0.52121 0.98257 0.0
C1076 C 0.49563 0.51127 0.02017 0.0
C1077 C 0.51589 0.58269 0.98443 0.0
C1078 C 0.51523 0.60326 0.96052 0.0
C1079 C 0.49535 0.57301 0.95529 0.0
C1080 C 0.50233 0.56952 0.97286 0.0
C1081 C 0.50174 0.58971 0.94913 0.0
C1082 C 0.52226 0.5996 0.97828 0.0
C1083 C 0.52373 0.57867 0.00266 0.0
H1084 H 0.59641 0.45113 0.04656 0.0
H1085 H 0.58116 0.47221 0.03132 0.0
H1086 H 0.57939 0.42727 0.06231 0.0
H1087 H 0.53001 0.44488 0.0469 0.0
H1088 H 0.48488 0.56277 0.94644 0.0
H1089 H 0.49715 0.55657 0.97749 0.0
H1090 H 0.49585 0.59214 0.93555 0.0
H1091 H 0.53281 0.60976 0.98718 0.0
C1092 C 0.74167 0.23243 0.2932 0.0
C1093 C 0.72438 0.21046 0.26727 0.0
C1094 C 0.73954 0.22464 0.27454 0.0
C1095 C 0.71141 0.20425 0.27894 0.0
C1096 C 0.72866 0.22621 0.30493 0.0
C1097 C 0.71353 0.21211 0.29769 0.0
N1098 N 0.75642 0.24608 0.29985 0.0
C1099 C 0.75924 0.25378 0.31815 0.0
C1100 C 0.73127 0.2343 0.32363 0.0
C1101 C 0.74666 0.2481 0.33027 0.0
Gd1102 Gd 0.78199 0.29973 0.25455 0.0
Gd1103 Gd 0.77691 0.25366 0.27852 0.0
N1104 N 0.75203 0.23128 0.26338 0.0
C1105 C 0.72268 0.20299 0.24844 0.0
C1106 C 0.75082 0.2236 0.24526 0.0
C1107 C 0.73602 0.20952 0.23744 0.0
H1108 H 0.76138 0.22799 0.23693 0.0
H1109 H 0.73503 0.20356 0.22299 0.0
H1110 H 0.79696 0.32409 0.29714 0.0
H1111 H 0.77142 0.26398 0.32357 0.0
H1112 H 0.82445 0.34592 0.31308 0.0
H1113 H 0.71123 0.19207 0.24233 0.0
H1114 H 0.69966 0.19339 0.27358 0.0
H1115 H 0.78961 0.28933 0.21018 0.0
H1116 H 0.72159 0.22989 0.33308 0.0
H1117 H 0.74894 0.25424 0.34477 0.0
H1118 H 0.86343 0.35408 0.26524 0.0
H1119 H 0.70339 0.20717 0.30651 0.0
H1120 H 0.84227 0.32024 0.20431 0.0
H1121 H 0.81402 0.29781 0.19072 0.0
N1122 N 0.80424 0.30614 0.23477 0.0
C1123 C 0.81949 0.31883 0.24244 0.0
C1124 C 0.80207 0.29874 0.21641 0.0
C1125 C 0.83167 0.31644 0.21298 0.0
C1126 C 0.81578 0.30371 0.20528 0.0
C1127 C 0.83368 0.3242 0.23175 0.0
H1128 H 0.86051 0.34124 0.23211 0.0
N1129 N 0.80751 0.32021 0.2715 0.0
C1130 C 0.82115 0.32611 0.26127 0.0
C1131 C 0.83828 0.34585 0.2886 0.0
C1132 C 0.83702 0.3389 0.26967 0.0
C1133 C 0.80833 0.32757 0.28965 0.0
C1134 C 0.8238 0.34027 0.29858 0.0
O1135 O 0.74991 0.26073 0.26799 0.0
O1136 O 0.75491 0.2799 0.24509 0.0
O1137 O 0.77129 0.32402 0.26101 0.0
O1138 O 0.77461 0.31448 0.23214 0.0
O1139 O 0.78902 0.25645 0.25176 0.0
O1140 O 0.77413 0.27399 0.23459 0.0
O1141 O 0.80786 0.28987 0.26315 0.0
O1142 O 0.8019 0.27591 0.28912 0.0
O1143 O 0.79162 0.23247 0.27117 0.0
O1144 O 0.78608 0.23884 0.3 0.0
O1145 O 0.76817 0.29724 0.28051 0.0
O1146 O 0.78309 0.27979 0.29768 0.0
C1147 C 0.74394 0.26933 0.25441 0.0
C1148 C 0.78206 0.26037 0.23575 0.0
C1149 C 0.76346 0.34188 0.23608 0.0
C1150 C 0.74764 0.36652 0.23906 0.0
C1151 C 0.76011 0.35965 0.21036 0.0
C1152 C 0.76641 0.34566 0.21788 0.0
C1153 C 0.75068 0.36996 0.22081 0.0
C1154 C 0.75427 0.35259 0.24683 0.0
C1155 C 0.76994 0.32665 0.24338 0.0
C1156 C 0.85113 0.34429 0.259 0.0
C1157 C 0.84947 0.33697 0.24011 0.0
H1158 H 0.85025 0.3557 0.29556 0.0
C1159 C 0.8135 0.28341 0.27842 0.0
C1160 C 0.77387 0.29244 0.29659 0.0
C1161 C 0.80272 0.21538 0.2954 0.0
C1162 C 0.81803 0.19056 0.29027 0.0
C1163 C 0.8153 0.20262 0.32195 0.0
C1164 C 0.8061 0.21498 0.31487 0.0
C1165 C 0.82127 0.19049 0.30975 0.0
C1166 C 0.80871 0.20301 0.28301 0.0
C1167 C 0.79334 0.22905 0.28855 0.0
H1168 H 0.76246 0.36245 0.19634 0.0
H1169 H 0.77363 0.33778 0.2094 0.0
H1170 H 0.7458 0.38073 0.21468 0.0
H1171 H 0.75188 0.34984 0.26089 0.0
H1172 H 0.81787 0.20248 0.33697 0.0
H1173 H 0.80175 0.22435 0.32474 0.0
H1174 H 0.82844 0.18098 0.31551 0.0
H1175 H 0.80627 0.20311 0.26796 0.0
C1176 C 0.05213 0.4994 0.55791 0.0
C1177 C 0.06201 0.5218 0.5856 0.0
C1178 C 0.05106 0.51556 0.56812 0.0
C1179 C 0.07418 0.51173 0.59251 0.0
C1180 C 0.06415 0.48912 0.56495 0.0
C1181 C 0.07524 0.49544 0.58221 0.0
N1182 N 0.0414 0.49371 0.54111 0.0
C1183 C 0.04128 0.4774 0.5312 0.0
C1184 C 0.06459 0.47274 0.55447 0.0
C1185 C 0.05298 0.46678 0.53761 0.0
Gd1186 Gd 0.0293 0.54604 0.48507 0.0
Gd1187 Gd 0.02265 0.51275 0.53129 0.0
N1188 N 0.03944 0.52525 0.56085 0.0
C1189 C 0.06035 0.53794 0.59568 0.0
C1190 C 0.03719 0.54055 0.57107 0.0
C1191 C 0.04775 0.54724 0.58846 0.0
H1192 H 0.02707 0.54756 0.56619 0.0
H1193 H 0.04603 0.55949 0.59638 0.0
H1194 H 0.03338 0.5195 0.44588 0.0
H1195 H 0.03195 0.47236 0.51847 0.0
H1196 H 0.01543 0.50715 0.41502 0.0
H1197 H 0.06851 0.54317 0.60916 0.0
H1198 H 0.08276 0.51636 0.60586 0.0
H1199 H 0.01286 0.58082 0.5015 0.0
H1200 H 0.07364 0.46446 0.5594 0.0
H1201 H 0.05295 0.45395 0.52959 0.0
H1202 H 0.96613 0.5375 0.41215 0.0
H1203 H 0.08462 0.48777 0.58778 0.0
H1204 H 0.9668 0.58361 0.46301 0.0
H1205 H 0.98734 0.5951 0.49281 0.0
N1206 N 0.00663 0.56146 0.47699 0.0
C1207 C 0.99596 0.55538 0.46028 0.0
C1208 C 1.004 0.57581 0.48846 0.0
C1209 C 0.978 0.57736 0.46673 0.0
C1210 C 0.98957 0.5839 0.48357 0.0
C1211 C 0.98121 0.56303 0.45476 0.0
H1212 H 0.95877 0.56181 0.43304 0.0
N1213 N 0.01463 0.53489 0.45438 0.0
C1214 C 0.99998 0.54153 0.4487 0.0
C1215 C 0.99488 0.52224 0.41901 0.0
C1216 C 0.98954 0.5352 0.43098 0.0
C1217 C 0.02075 0.52341 0.44216 0.0
C1218 C 0.01077 0.51661 0.42448 0.0
O1219 O 0.05225 0.52608 0.53286 0.0
O1220 O 0.03814 0.53398 0.50908 0.0
O1221 O 0.0544 0.55066 0.47315 0.0
O1222 O 0.04469 0.57359 0.48468 0.0
O1223 O 0.01571 0.541 0.53365 0.0
O1224 O 0.03261 0.56044 0.51508 0.0
O1225 O 1.00084 0.53816 0.49163 0.0
O1226 O 0.00729 0.51367 0.50307 0.0
O1227 O 0.99981 0.51135 0.54699 0.0
O1228 O 0.00601 0.48662 0.53457 0.0
O1229 O 0.03303 0.51687 0.47862 0.0
O1230 O 0.02782 0.4985 0.50326 0.0
C1231 C 0.0537 0.53481 0.51864 0.0
C1232 C 0.0232 0.55734 0.52937 0.0
C1233 C 0.05931 0.57674 0.45756 0.0
C1234 C 0.0658 0.57443 0.42514 0.0
C1235 C 0.06525 0.6037 0.44189 0.0
C1236 C 0.06134 0.59553 0.45787 0.0
C1237 C 0.0677 0.59329 0.42568 0.0
C1238 C 0.06098 0.56626 0.44097 0.0
C1239 C 0.0562 0.56817 0.47466 0.0
C1240 C 0.97444 0.54235 0.42561 0.0
C1241 C 0.97028 0.55623 0.43748 0.0
H1242 H 0.98722 0.517 0.40529 0.0
C1243 C 0.99581 0.52394 0.50008 0.0
C1244 C 0.03202 0.50138 0.48613 0.0
C1245 C 0.99611 0.48677 0.56446 0.0
C1246 C 0.9851 0.48791 0.59478 0.0
C1247 C 0.00661 0.46945 0.58809 0.0
C1248 C 0.00689 0.4749 0.57024 0.0
C1249 C 0.99579 0.47593 0.60036 0.0
C1250 C 0.98514 0.49304 0.57673 0.0
C1251 C 0.99688 0.49376 0.5463 0.0
H1252 H 0.06689 0.61822 0.44224 0.0
H1253 H 0.06007 0.6039 0.4705 0.0
H1254 H 0.07167 0.60015 0.41387 0.0
H1255 H 0.05891 0.55168 0.44048 0.0
H1256 H 0.01501 0.46042 0.59254 0.0
H1257 H 0.01567 0.46998 0.56111 0.0
H1258 H 0.99613 0.47194 0.61435 0.0
H1259 H 0.97684 0.50221 0.5723 0.0
C1260 C 0.73431 0.78533 0.22316 0.0
C1261 C 0.71564 0.7566 0.20743 0.0
C1262 C 0.72727 0.76685 0.2232 0.0
C1263 C 0.71116 0.7651 0.19178 0.0
C1264 C 0.72985 0.79388 0.20744 0.0
C1265 C 0.71824 0.78368 0.19179 0.0
N1266 N 0.74589 0.79483 0.23831 0.0
C1267 C 0.75258 0.81306 0.23911 0.0
C1268 C 0.73722 0.81245 0.2079 0.0
C1269 C 0.74854 0.8221 0.22386 0.0
Gd1270 Gd 0.80295 0.76836 0.26969 0.0
Gd1271 Gd 0.75097 0.77861 0.26346 0.0
N1272 N 0.73207 0.75887 0.23846 0.0
C1273 C 0.70884 0.73807 0.20783 0.0
C1274 C 0.72512 0.74087 0.23904 0.0
C1275 C 0.71354 0.73021 0.22372 0.0
H1276 H 0.7281 0.73461 0.25133 0.0
H1277 H 0.70813 0.71593 0.22425 0.0
H1278 H 0.82697 0.81087 0.28168 0.0
H1279 H 0.76066 0.82083 0.25163 0.0
H1280 H 0.84764 0.82956 0.30879 0.0
H1281 H 0.69984 0.72975 0.196 0.0
H1282 H 0.70224 0.75742 0.17956 0.0
H1283 H 0.80354 0.7253 0.27516 0.0
H1284 H 0.7341 0.81951 0.19611 0.0
H1285 H 0.75401 0.83654 0.22452 0.0
H1286 H 0.85471 0.78701 0.35229 0.0
H1287 H 0.71466 0.79002 0.17959 0.0
H1288 H 0.82912 0.72408 0.33063 0.0
H1289 H 0.81257 0.70785 0.30016 0.0
N1290 N 0.81265 0.7508 0.29207 0.0
C1291 C 0.82282 0.75997 0.30816 0.0
C1292 C 0.80974 0.73236 0.28877 0.0
C1293 C 0.82462 0.73172 0.31992 0.0
C1294 C 0.81525 0.72251 0.30276 0.0
C1295 C 0.82899 0.75071 0.32259 0.0
H1296 H 0.84475 0.75379 0.35009 0.0
N1297 N 0.82317 0.78681 0.29463 0.0
C1298 C 0.82849 0.77859 0.30938 0.0
C1299 C 0.84703 0.80721 0.32498 0.0
C1300 C 0.84041 0.78858 0.32507 0.0
C1301 C 0.83043 0.80473 0.29395 0.0
C1302 C 0.84222 0.81526 0.30922 0.0
O1303 O 0.76459 0.77386 0.23744 0.0
O1304 O 0.78026 0.75361 0.2474 0.0
O1305 O 0.82356 0.78035 0.25289 0.0
O1306 O 0.81934 0.75211 0.25631 0.0
O1307 O 0.75232 0.75184 0.27398 0.0
O1308 O 0.78011 0.74365 0.27078 0.0
O1309 O 0.79512 0.78504 0.29416 0.0
O1310 O 0.76432 0.77354 0.29139 0.0
O1311 O 0.7237 0.77234 0.27184 0.0
O1312 O 0.73887 0.80006 0.27436 0.0
O1313 O 0.79597 0.79184 0.256 0.0
O1314 O 0.77494 0.80245 0.27182 0.0
C1315 C 0.77378 0.76143 0.23381 0.0
C1316 C 0.76298 0.74015 0.27424 0.0
C1317 C 0.84913 0.76699 0.25354 0.0
C1318 C 0.8784 0.76797 0.24212 0.0
C1319 C 0.87535 0.76468 0.2748 0.0
C1320 C 0.85707 0.7652 0.27153 0.0
C1321 C 0.88592 0.7659 0.26019 0.0
C1322 C 0.85994 0.76865 0.23885 0.0
C1323 C 0.82935 0.76555 0.24987 0.0
C1324 C 0.84574 0.77956 0.34 0.0
C1325 C 0.84003 0.76065 0.33877 0.0
H1326 H 0.85622 0.81537 0.33676 0.0
C1327 C 0.77965 0.7828 0.30121 0.0
C1328 C 0.79009 0.80528 0.2642 0.0
C1329 C 0.71868 0.79313 0.29678 0.0
C1330 C 0.69581 0.78949 0.31847 0.0
C1331 C 0.72467 0.81129 0.32741 0.0
C1332 C 0.73025 0.80636 0.31033 0.0
C1333 C 0.70774 0.80284 0.33159 0.0
C1334 C 0.70126 0.78479 0.30087 0.0
C1335 C 0.72434 0.78917 0.27804 0.0
H1336 H 0.88128 0.7631 0.28868 0.0
H1337 H 0.84905 0.76378 0.28296 0.0
H1338 H 0.90007 0.76532 0.263 0.0
H1339 H 0.85391 0.7699 0.22487 0.0
H1340 H 0.73342 0.82202 0.33727 0.0
H1341 H 0.74357 0.81322 0.30767 0.0
H1342 H 0.70375 0.80709 0.34498 0.0
H1343 H 0.69205 0.77479 0.29046 0.0
C1344 C 0.80677 0.25118 0.72473 0.0
C1345 C 0.78634 0.24421 0.69531 0.0
C1346 C 0.79185 0.25398 0.71345 0.0
C1347 C 0.7959 0.23147 0.68877 0.0
C1348 C 0.8165 0.23853 0.71809 0.0
C1349 C 0.81093 0.22864 0.70012 0.0
N1350 N 0.81162 0.26066 0.74225 0.0
C1351 C 0.82671 0.25888 0.75332 0.0
C1352 C 0.83158 0.23619 0.72971 0.0
C1353 C 0.83678 0.24653 0.74732 0.0
Gd1354 Gd 0.76129 0.27245 0.79742 0.0
Gd1355 Gd 0.79356 0.2809 0.75091 0.0
N1356 N 0.78257 0.26607 0.72034 0.0
C1357 C 0.77142 0.24756 0.68426 0.0
C1358 C 0.76855 0.26998 0.70928 0.0
C1359 C 0.76261 0.26065 0.69122 0.0
H1360 H 0.76207 0.28051 0.71412 0.0
H1361 H 0.75133 0.26366 0.6826 0.0
H1362 H 0.79717 0.27915 0.8324 0.0
H1363 H 0.83133 0.26713 0.76665 0.0
H1364 H 0.80994 0.30015 0.86089 0.0
H1365 H 0.76677 0.24034 0.67026 0.0
H1366 H 0.79181 0.22379 0.67492 0.0
H1367 H 0.72228 0.28262 0.78273 0.0
H1368 H 0.83941 0.22662 0.72512 0.0
H1369 H 0.84865 0.2451 0.75625 0.0
H1370 H 0.76728 0.33779 0.8674 0.0
H1371 H 0.8182 0.21882 0.69485 0.0
H1372 H 0.7145 0.32613 0.82117 0.0
H1373 H 0.70383 0.30419 0.79231 0.0
N1374 N 0.74323 0.29252 0.80569 0.0
C1375 C 0.74916 0.30414 0.82178 0.0
C1376 C 0.72711 0.29227 0.79522 0.0
C1377 C 0.72264 0.31671 0.817 0.0
C1378 C 0.71659 0.30439 0.80068 0.0
C1379 C 0.7391 0.3167 0.82779 0.0
H1380 H 0.73829 0.33863 0.84911 0.0
N1381 N 0.77488 0.29136 0.82567 0.0
C1382 C 0.76557 0.30369 0.83196 0.0
C1383 C 0.78856 0.31467 0.85891 0.0
C1384 C 0.77223 0.31576 0.84865 0.0
C1385 C 0.79037 0.2897 0.83622 0.0
C1386 C 0.79756 0.30146 0.85276 0.0
O1387 O 0.77979 0.25133 0.7479 0.0
O1388 O 0.77342 0.26346 0.77347 0.0
O1389 O 0.75899 0.25162 0.81574 0.0
O1390 O 0.73532 0.25356 0.79723 0.0
O1391 O 0.76422 0.28521 0.74774 0.0
O1392 O 0.74577 0.26908 0.7678 0.0
O1393 O 0.76669 0.30099 0.79072 0.0
O1394 O 0.79095 0.29515 0.77889 0.0
O1395 O 0.79524 0.30458 0.73629 0.0
O1396 O 0.8198 0.29713 0.74758 0.0
O1397 O 0.78976 0.26615 0.80115 0.0
O1398 O 0.80875 0.27954 0.77995 0.0
C1399 C 0.77147 0.24867 0.76221 0.0
C1400 C 0.74816 0.27793 0.7529 0.0
C1401 C 0.73169 0.24698 0.82822 0.0
C1402 C 0.73086 0.24046 0.86039 0.0
C1403 C 0.71321 0.26076 0.84815 0.0
C1404 C 0.71959 0.25837 0.83084 0.0
C1405 C 0.71903 0.25206 0.86301 0.0
C1406 C 0.73685 0.23773 0.84291 0.0
C1407 C 0.7414 0.24667 0.81172 0.0
C1408 C 0.76233 0.32839 0.85466 0.0
C1409 C 0.7458 0.32885 0.84427 0.0
H1410 H 0.79414 0.32369 0.87179 0.0
C1411 C 0.78004 0.30598 0.78124 0.0
C1412 C 0.80593 0.27148 0.79531 0.0
C1413 C 0.81948 0.30784 0.71806 0.0
C1414 C 0.81575 0.31536 0.68609 0.0
C1415 C 0.84056 0.30169 0.6966 0.0
C1416 C 0.83483 0.30124 0.71429 0.0
C1417 C 0.83112 0.30871 0.68255 0.0
C1418 C 0.81006 0.31486 0.70389 0.0
C1419 C 0.81276 0.30692 0.73641 0.0
H1420 H 0.70409 0.26973 0.85018 0.0
H1421 H 0.71548 0.26582 0.81979 0.0
H1422 H 0.71436 0.25438 0.87649 0.0
H1423 H 0.7465 0.22924 0.84109 0.0
H1424 H 0.85237 0.29658 0.69379 0.0
H1425 H 0.84235 0.29563 0.7249 0.0
H1426 H 0.83598 0.30914 0.66903 0.0
H1427 H 0.79802 0.31959 0.70665 0.0
C1428 C 0.83334 0.81006 0.79344 0.0
C1429 C 0.84729 0.8256 0.76913 0.0
C1430 C 0.83179 0.8161 0.77594 0.0
C1431 C 0.86441 0.8285 0.77989 0.0
C1432 C 0.85043 0.81378 0.80467 0.0
C1433 C 0.86598 0.82264 0.79763 0.0
N1434 N 0.81805 0.80158 0.79997 0.0
C1435 C 0.81874 0.79825 0.81826 0.0
C1436 C 0.85133 0.80906 0.82291 0.0
C1437 C 0.83537 0.80157 0.82984 0.0
Gd1438 Gd 0.7665 0.74787 0.75136 0.0
Gd1439 Gd 0.79091 0.79668 0.77906 0.0
N1440 N 0.81504 0.81313 0.76578 0.0
C1441 C 0.84506 0.83221 0.75184 0.0
C1442 C 0.81268 0.82046 0.74946 0.0
C1443 C 0.82765 0.82982 0.74208 0.0
H1444 H 0.79925 0.81923 0.74224 0.0
H1445 H 0.82573 0.83532 0.72896 0.0
H1446 H 0.75534 0.71791 0.78214 0.0
H1447 H 0.8064 0.79304 0.82399 0.0
H1448 H 0.72766 0.69885 0.79047 0.0
H1449 H 0.85664 0.83955 0.74612 0.0
H1450 H 0.87649 0.83564 0.77482 0.0
H1451 H 0.75401 0.75965 0.70879 0.0
H1452 H 0.86419 0.81175 0.83198 0.0
H1453 H 0.83583 0.79852 0.84417 0.0
H1454 H 0.68011 0.70571 0.74441 0.0
H1455 H 0.87922 0.82544 0.806 0.0
H1456 H 0.69658 0.74102 0.69529 0.0
H1457 H 0.72596 0.75771 0.68764 0.0
N1458 N 0.74071 0.74606 0.72947 0.0
C1459 C 0.72489 0.73583 0.73335 0.0
C1460 C 0.74129 0.75329 0.71294 0.0
C1461 C 0.70886 0.74228 0.70494 0.0
C1462 C 0.72539 0.75179 0.70062 0.0
C1463 C 0.70849 0.73388 0.72128 0.0
H1464 H 0.67963 0.7217 0.71656 0.0
N1465 N 0.74126 0.72834 0.76016 0.0
C1466 C 0.72518 0.72675 0.74911 0.0
C1467 C 0.70995 0.70581 0.76844 0.0
C1468 C 0.70905 0.71555 0.75309 0.0
C1469 C 0.74236 0.71789 0.77436 0.0
C1470 C 0.72672 0.7068 0.77895 0.0
O1471 O 0.80718 0.78448 0.75885 0.0
O1472 O 0.79728 0.75427 0.76108 0.0
O1473 O 0.77243 0.7214 0.7517 0.0
O1474 O 0.76814 0.73218 0.72485 0.0
O1475 O 0.77254 0.79482 0.75167 0.0
O1476 O 0.77849 0.76998 0.73511 0.0
O1477 O 0.74687 0.76554 0.75835 0.0
O1478 O 0.76213 0.78457 0.78498 0.0
O1479 O 0.78808 0.82426 0.77838 0.0
O1480 O 0.78875 0.81307 0.80471 0.0
O1481 O 0.7686 0.7499 0.78292 0.0
O1482 O 0.79381 0.77275 0.79441 0.0
C1483 C 0.80982 0.76792 0.75741 0.0
C1484 C 0.77462 0.78599 0.73574 0.0
C1485 C 0.77406 0.70195 0.7236 0.0
C1486 C 0.78196 0.67285 0.72516 0.0
C1487 C 0.77285 0.68184 0.69495 0.0
C1488 C 0.77068 0.69824 0.70394 0.0
C1489 C 0.77843 0.66913 0.70549 0.0
C1490 C 0.77969 0.68923 0.73409 0.0
C1491 C 0.77125 0.7187 0.73345 0.0
C1492 C 0.69263 0.71413 0.74147 0.0
C1493 C 0.69235 0.72325 0.72561 0.0
H1494 H 0.69786 0.69711 0.77196 0.0
C1495 C 0.74698 0.77633 0.77388 0.0
C1496 C 0.78175 0.7581 0.79628 0.0
C1497 C 0.76997 0.83372 0.80009 0.0
C1498 C 0.74943 0.85307 0.79202 0.0
C1499 C 0.74514 0.83561 0.81814 0.0
C1500 C 0.76033 0.82871 0.81499 0.0
C1501 C 0.73966 0.84773 0.8067 0.0
C1502 C 0.76441 0.84585 0.78874 0.0
C1503 C 0.78578 0.82649 0.79601 0.0
H1504 H 0.7702 0.67896 0.67979 0.0
H1505 H 0.76621 0.70789 0.69557 0.0
H1506 H 0.78022 0.65655 0.69831 0.0
H1507 H 0.78212 0.69194 0.7493 0.0
H1508 H 0.73767 0.83163 0.82952 0.0
H1509 H 0.76434 0.81935 0.82404 0.0
H1510 H 0.72811 0.85325 0.80964 0.0
H1511 H 0.77179 0.84969 0.77721 0.0
C1512 C 0.49646 0.47095 0.48613 0.0
C1513 C 0.48561 0.45272 0.51004 0.0
C1514 C 0.49284 0.46973 0.5045 0.0
C1515 C 0.48206 0.43702 0.49693 0.0
C1516 C 0.49287 0.4552 0.47294 0.0
C1517 C 0.48566 0.43825 0.47844 0.0
N1518 N 0.50357 0.48751 0.4812 0.0
C1519 C 0.5069 0.48934 0.46324 0.0
C1520 C 0.49662 0.45695 0.45458 0.0
C1521 C 0.5036 0.47411 0.4497 0.0
Gd1522 Gd 0.55569 0.53687 0.53216 0.0
Gd1523 Gd 0.50795 0.5121 0.50483 0.0
N1524 N 0.49685 0.48512 0.51704 0.0
C1525 C 0.48221 0.45199 0.52864 0.0
C1526 C 0.49278 0.48457 0.53492 0.0
C1527 C 0.48568 0.46801 0.54108 0.0
H1528 H 0.49463 0.49681 0.54441 0.0
H1529 H 0.4827 0.46764 0.55536 0.0
H1530 H 0.57111 0.54927 0.4921 0.0
H1531 H 0.51154 0.50261 0.45918 0.0
H1532 H 0.58128 0.57733 0.47847 0.0
H1533 H 0.47671 0.43918 0.53346 0.0
H1534 H 0.47652 0.42383 0.50096 0.0
H1535 H 0.5494 0.54973 0.57637 0.0
H1536 H 0.49401 0.44517 0.44403 0.0
H1537 H 0.50626 0.47564 0.43546 0.0
H1538 H 0.58172 0.62466 0.52786 0.0
H1539 H 0.48282 0.426 0.4685 0.0
H1540 H 0.56338 0.60772 0.58612 0.0
H1541 H 0.55235 0.5782 0.59733 0.0
N1542 N 0.55787 0.56297 0.55328 0.0
C1543 C 0.56446 0.57902 0.54698 0.0
C1544 C 0.55373 0.56251 0.57116 0.0
C1545 C 0.56197 0.59525 0.5768 0.0
C1546 C 0.55565 0.57862 0.58315 0.0
C1547 C 0.56648 0.59562 0.55854 0.0
H1548 H 0.57431 0.62489 0.56016 0.0
N1549 N 0.56616 0.56264 0.51763 0.0
C1550 C 0.56868 0.57886 0.52867 0.0
C1551 C 0.57918 0.59472 0.50321 0.0
C1552 C 0.57501 0.59534 0.52162 0.0
C1553 C 0.57128 0.56198 0.50011 0.0
C1554 C 0.57751 0.57796 0.4925 0.0
O1555 O 0.52678 0.4934 0.51269 0.0
O1556 O 0.54565 0.50824 0.53938 0.0
O1557 O 0.58264 0.53383 0.52774 0.0
O1558 O 0.57693 0.54138 0.55582 0.0
O1559 O 0.50917 0.52749 0.53382 0.0
O1560 O 0.5357 0.52464 0.5504 0.0
O1561 O 0.53522 0.55426 0.52512 0.0
O1562 O 0.51943 0.54005 0.49694 0.0
O1563 O 0.48262 0.51781 0.51175 0.0
O1564 O 0.48539 0.50921 0.48283 0.0
O1565 O 0.55493 0.52047 0.50371 0.0
O1566 O 0.52869 0.52384 0.48712 0.0
C1567 C 0.53745 0.49316 0.52829 0.0
C1568 C 0.5191 0.52701 0.54977 0.0
C1569 C 0.59661 0.52158 0.55223 0.0
C1570 C 0.61809 0.50254 0.54794 0.0
C1571 C 0.5976 0.49728 0.57135 0.0
C1572 C 0.5901 0.51164 0.56642 0.0
C1573 C 0.61152 0.49269 0.56215 0.0
C1574 C 0.6106 0.51701 0.54315 0.0
C1575 C 0.58832 0.53593 0.54569 0.0
C1576 C 0.57696 0.61188 0.5331 0.0
C1577 C 0.57275 0.61201 0.5515 0.0
H1578 H 0.58401 0.60708 0.49726 0.0
C1579 C 0.52606 0.55495 0.50875 0.0
C1580 C 0.54491 0.52051 0.48768 0.0
C1581 C 0.46891 0.53162 0.48855 0.0
C1582 C 0.44895 0.55203 0.49386 0.0
C1583 C 0.47062 0.55779 0.47166 0.0
C1584 C 0.47666 0.54227 0.47545 0.0
C1585 C 0.45682 0.56272 0.48085 0.0
C1586 C 0.45517 0.53659 0.49768 0.0
C1587 C 0.47575 0.51612 0.49413 0.0
H1588 H 0.59252 0.48961 0.58223 0.0
H1589 H 0.5791 0.51478 0.57351 0.0
H1590 H 0.61721 0.48154 0.56622 0.0
H1591 H 0.61528 0.52442 0.5319 0.0
H1592 H 0.47665 0.56603 0.46163 0.0
H1593 H 0.48749 0.53875 0.46834 0.0
H1594 H 0.45215 0.57467 0.47758 0.0
H1595 H 0.44959 0.52856 0.50814 0.0
C1596 C 0.06801 0.56401 0.99577 0.0
C1597 C 0.08695 0.58293 0.02295 0.0
C1598 C 0.07523 0.56635 0.01473 0.0
C1599 C 0.09137 0.59703 0.01196 0.0
C1600 C 0.07237 0.5782 0.98477 0.0
C1601 C 0.08415 0.59466 0.99294 0.0
N1602 N 0.05611 0.54818 0.98833 0.0
C1603 C 0.04849 0.54543 0.96997 0.0
C1604 C 0.06453 0.57553 0.96593 0.0
C1605 C 0.05256 0.55907 0.95851 0.0
Gd1606 Gd 0.00511 0.51951 0.03219 0.0
Gd1607 Gd 0.05127 0.52615 0.0086 0.0
N1608 N 0.07023 0.55269 0.02526 0.0
C1609 C 0.09377 0.58491 0.04203 0.0
C1610 C 0.07747 0.55426 0.04362 0.0
C1611 C 0.08913 0.57045 0.05236 0.0
H1612 H 0.07464 0.543 0.05148 0.0
H1613 H 0.09468 0.57171 0.06701 0.0
H1614 H 0.97571 0.50686 0.99271 0.0
H1615 H 0.03956 0.5326 0.96402 0.0
H1616 H 0.9524 0.47992 0.97768 0.0
H1617 H 0.10278 0.59745 0.04887 0.0
H1618 H 0.10032 0.60987 0.01807 0.0
H1619 H 0.01674 0.51232 0.07653 0.0
H1620 H 0.06758 0.58609 0.95702 0.0
H1621 H 0.04653 0.55686 0.94394 0.0
H1622 H 0.94884 0.43936 0.02456 0.0
H1623 H 0.08763 0.60572 0.98471 0.0
H1624 H 0.98668 0.45971 0.08372 0.0
H1625 H 0.0095 0.48796 0.0964 0.0
N1626 N 0.99914 0.49756 0.05252 0.0
C1627 C 0.98608 0.48243 0.04546 0.0
C1628 C 0.00726 0.49982 0.07066 0.0
C1629 C 0.99001 0.47026 0.07485 0.0
C1630 C 1.00295 0.48615 0.08204 0.0
C1631 C 0.98127 0.4683 0.05641 0.0
H1632 H 0.9641 0.44169 0.05685 0.0
N1633 N 0.98263 0.49481 0.01682 0.0
C1634 C 0.97755 0.48104 0.02712 0.0
C1635 C 0.95513 0.46501 0.00123 0.0
C1636 C 0.96389 0.46559 0.01945 0.0
C1637 C 0.97323 0.49494 -0.0003 0.0
C1638 C 0.95963 0.47989 0.99144 0.0
O1639 O 0.03897 0.55085 0.01494 0.0
O1640 O 0.02605 0.54581 0.04163 0.0
O1641 O 0.98306 0.53356 0.02592 0.0
O1642 O 0.99018 0.52693 0.05423 0.0
O1643 O 0.05017 0.51353 0.0354 0.0
O1644 O 0.03142 0.52763 0.05136 0.0
O1645 O 0.0138 0.49306 0.02308 0.0
O1646 O 0.03306 0.49807 0.00034 0.0
O1647 O 0.07669 0.51723 0.01548 0.0
O1648 O 0.06645 0.51969 0.98644 0.0
O1649 O 0.00686 0.52968 0.00414 0.0
O1650 O 0.02586 0.51543 0.98855 0.0
C1651 C 0.03303 0.55699 0.03025 0.0
C1652 C 0.04436 0.51872 0.05102 0.0
C1653 C 0.96534 0.54206 0.05062 0.0
C1654 C 0.94125 0.55867 0.04709 0.0
C1655 C 0.94987 0.54915 0.07719 0.0
C1656 C 0.96289 0.54137 0.06957 0.0
C1657 C 0.93917 0.55781 0.06608 0.0
C1658 C 0.95426 0.55058 0.03926 0.0
C1659 C 0.97966 0.53403 0.04328 0.0
C1660 C 0.95924 0.45138 0.03025 0.0
C1661 C 0.96792 0.45273 0.04866 0.0
H1662 H 0.94453 0.4534 0.99484 0.0
C1663 C 0.02243 0.48712 0.00963 0.0
C1664 C 0.01104 0.52151 0.98894 0.0
C1665 C 0.09506 0.51099 0.99064 0.0
C1666 C 0.11905 0.49425 0.99168 0.0
C1667 C 0.11514 0.51267 0.96665 0.0
C1668 C 0.10054 0.51758 0.97422 0.0
C1669 C 0.12428 0.50101 0.97523 0.0
C1670 C 0.10455 0.49952 -0.00042 0.0
C1671 C 0.07917 0.51592 -0.00215 0.0
H1672 H 0.94811 0.54852 0.09179 0.0
H1673 H 0.97109 0.53484 0.07862 0.0
H1674 H 0.92912 0.56376 0.07231 0.0
H1675 H 0.95596 0.55124 0.02463 0.0
H1676 H 0.11929 0.51782 0.95401 0.0
H1677 H 0.09353 0.52655 0.96721 0.0
H1678 H 0.13554 0.49728 0.96904 0.0
H1679 H 0.10034 0.49427 0.01218 0.0
H1680 H 0.01996 0.20531 0.93878 0.0
H1681 H 0.02484 0.17608 0.94744 0.0
H1682 H 0.99512 0.18155 0.99435 0.0
H1683 H 0.99021 0.21055 0.98586 0.0
H1684 H 0.02777 0.17005 0.00371 0.0
H1685 H 0.98632 0.12741 0.94027 0.0
H1686 H 1.00363 0.14617 0.93607 0.0
H1687 H 0.98467 0.15045 0.94712 0.0
C1688 C 0.01453 0.20035 0.95099 0.0
C1689 C 0.00464 0.21047 0.96154 0.0
C1690 C 0.01721 0.1835 0.95587 0.0
C1691 C 0.01016 0.17631 0.97148 0.0
C1692 C 1.00068 0.1866 0.98223 0.0
H1693 H 0.9945 0.06663 0.0057 0.0
H1694 H 0.99055 0.09573 0.99596 0.0
C1695 C 0.99787 0.2033 0.9773 0.0
C1696 C 0.01261 0.15821 0.97679 0.0
H1697 H 1.00136 0.11239 0.96186 0.0
C1698 C 0.02203 0.15749 0.99449 0.0
C1699 C 0.00498 0.14162 0.96497 0.0
C1700 C 0.9942 0.14129 0.94609 0.0
C1701 C 0.02423 0.14087 0.00051 0.0
C1702 C 0.01675 0.12432 0.98862 0.0
C1703 C 0.00715 0.12499 0.97102 0.0
C1704 C 0.019 0.10629 0.99421 0.0
C1705 C 0.03436 0.14109 0.01972 0.0
C1706 C 0.03621 0.10217 0.99613 0.0
C1707 C 0.03844 0.0854 0.00136 0.0
C1708 C 0.02364 0.0723 0.00529 0.0
C1709 C 0.00632 0.07635 0.0031 0.0
C1710 C 1.00403 0.09306 -0.0025 0.0
H1711 H 0.03612 0.15431 0.02862 0.0
H1712 H 0.02713 0.13014 0.02703 0.0
H1713 H 0.04804 0.13863 0.0182 0.0
H1714 H 0.04797 0.11188 0.99335 0.0
H1715 H 0.05183 0.08268 0.00208 0.0
H1716 H 0.1174 0.76981 0.11885 0.0
H1717 H 0.14242 0.76808 0.14213 0.0
H1718 H 0.12737 0.8078 0.18069 0.0
H1719 H 0.1012 0.80833 0.1577 0.0
H1720 H 0.17084 0.78939 0.15557 0.0
H1721 H 0.13539 0.77503 0.21709 0.0
H1722 H 0.12317 0.77483 0.19424 0.0
H1723 H 0.13249 0.79595 0.20931 0.0
C1724 C 0.11929 0.77804 0.13239 0.0
C1725 C 0.10728 0.78918 0.13643 0.0
C1726 C 0.1337 0.77709 0.14576 0.0
C1727 C 0.13694 0.78763 0.16349 0.0
C1728 C 0.12502 0.79901 0.16749 0.0
H1729 H 0.24649 0.80224 0.22617 0.0
H1730 H 0.21974 0.80615 0.2064 0.0
C1731 C 0.11012 0.79949 0.15424 0.0
C1732 C 0.15325 0.78705 0.17709 0.0
H1733 H 0.16766 0.78275 0.22269 0.0
C1734 C 0.16999 0.78777 0.17021 0.0
C1735 C 0.15244 0.78478 0.19628 0.0
C1736 C 0.13486 0.78241 0.20461 0.0
C1737 C 0.18559 0.78597 0.1816 0.0
C1738 C 0.185 0.78453 0.20097 0.0
C1739 C 0.16834 0.78402 0.20795 0.0
C1740 C 0.20126 0.78297 0.21403 0.0
C1741 C 0.20226 0.7848 0.17235 0.0
C1742 C 0.19984 0.76937 0.22599 0.0
C1743 C 0.21506 0.76756 0.23789 0.0
C1744 C 0.23217 0.77912 0.2379 0.0
C1745 C 0.23356 0.79291 0.22624 0.0
C1746 C 0.21825 0.79504 0.21475 0.0
H1747 H 0.19862 0.77979 0.15712 0.0
H1748 H 0.21129 0.79853 0.17367 0.0
H1749 H 0.20992 0.77562 0.1789 0.0
H1750 H 0.18698 0.75989 0.22592 0.0
H1751 H 0.21354 0.75681 0.24673 0.0
H1752 H 0.48963 0.81291 0.48408 0.0
H1753 H 0.49353 0.84558 0.49161 0.0
H1754 H 0.53194 0.85453 0.45197 0.0
H1755 H 0.52759 0.8216 0.44383 0.0
H1756 H 0.52057 0.87257 0.50635 0.0
H1757 H 0.49942 0.88578 0.43423 0.0
H1758 H 0.497 0.8631 0.4404 0.0
H1759 H 0.51867 0.87565 0.43588 0.0
C1760 C 0.49901 0.82174 0.47694 0.0
C1761 C 0.50824 0.81437 0.46323 0.0
C1762 C 0.50121 0.84058 0.4813 0.0
C1763 C 0.51272 0.85282 0.47213 0.0
C1764 C 0.52252 0.84556 0.45892 0.0
H1765 H 0.53975 0.97151 0.47916 0.0
H1766 H 0.53716 0.93897 0.4719 0.0
C1767 C 0.52021 0.82662 0.45443 0.0
C1768 C 0.51438 0.87302 0.47663 0.0
H1769 H 0.5106 0.91152 0.45708 0.0
C1770 C 0.51832 0.88103 0.49552 0.0
C1771 C 0.51145 0.88432 0.46266 0.0
C1772 C 0.50622 0.87678 0.44218 0.0
C1773 C 0.51974 0.89977 0.50076 0.0
C1774 C 0.51677 0.91105 0.4868 0.0
C1775 C 0.51288 0.90306 0.4679 0.0
C1776 C 0.51808 0.93117 0.49136 0.0
C1777 C 0.52493 0.90731 0.52125 0.0
C1778 C 0.50804 0.93807 0.50452 0.0
C1779 C 0.5099 0.95692 0.50905 0.0
C1780 C 0.52158 0.96948 0.50028 0.0
C1781 C 0.53101 0.96247 0.48659 0.0
C1782 C 0.52937 0.9437 0.48227 0.0
H1783 H 0.53191 0.89841 0.52917 0.0
H1784 H 0.53398 0.92108 0.52305 0.0
H1785 H 0.51245 0.90822 0.52759 0.0
H1786 H 0.49875 0.92889 0.5114 0.0
H1787 H 0.5024 0.96159 0.51968 0.0
H1788 H 0.50929 0.26354 0.64648 0.0
H1789 H 0.48337 0.25774 0.66429 0.0
H1790 H 0.47632 0.31201 0.66037 0.0
H1791 H 0.50199 0.3179 0.64257 0.0
H1792 H 0.47724 0.27633 0.69879 0.0
H1793 H 0.4259 0.28003 0.63935 0.0
H1794 H 0.44847 0.27749 0.63611 0.0
H1795 H 0.44477 0.29935 0.6443 0.0
C1796 C 0.50222 0.27425 0.6494 0.0
C1797 C 0.50772 0.29117 0.64296 0.0
C1798 C 0.48743 0.27092 0.65963 0.0
C1799 C 0.4777 0.28435 0.66346 0.0
C1800 C 0.48337 0.30132 0.65733 0.0
H1801 H 0.37909 0.28699 0.71512 0.0
H1802 H 0.40832 0.29585 0.70301 0.0
C1803 C 0.49816 0.30468 0.6472 0.0
C1804 C 0.46156 0.28067 0.67371 0.0
H1805 H 0.41584 0.27843 0.66913 0.0
C1806 C 0.46381 0.27673 0.69229 0.0
C1807 C 0.444 0.28125 0.66528 0.0
C1808 C 0.44052 0.28459 0.64511 0.0
C1809 C 0.44906 0.2736 0.7027 0.0
C1810 C 0.43152 0.27417 0.69424 0.0
C1811 C 0.4293 0.27817 0.67569 0.0
C1812 C 0.41507 0.26968 0.70392 0.0
C1813 C 0.4524 0.26999 0.72278 0.0
C1814 C 0.40926 0.25216 0.70875 0.0
C1815 C 0.3926 0.24712 0.71557 0.0
C1816 C 0.38146 0.25952 0.71785 0.0
C1817 C 0.38759 0.27729 0.71381 0.0
C1818 C 0.4042 0.2823 0.70677 0.0
H1819 H 0.46695 0.27485 0.72874 0.0
H1820 H 0.44409 0.27665 0.73174 0.0
H1821 H 0.44849 0.25516 0.72331 0.0
H1822 H 0.41718 0.24208 0.70638 0.0
H1823 H 0.38804 0.23326 0.71833 0.0
H1824 H 0.98503 0.7819 0.61978 0.0
H1825 H 0.99072 0.80934 0.60432 0.0
H1826 H 0.04011 0.8306 0.64264 0.0
H1827 H 0.0348 0.80301 0.6578 0.0
H1828 H 0.99353 0.84438 0.61675 0.0
H1829 H 0.05881 0.83692 0.59341 0.0
H1830 H 0.04414 0.81893 0.60259 0.0
H1831 H 0.05928 0.83715 0.6183 0.0
C1832 C 0.99719 0.79235 0.62485 0.0
C1833 C 0.00955 0.79011 0.63994 0.0
C1834 C 1.0004 0.80808 0.616 0.0
C1835 C 0.01604 0.82196 0.62201 0.0
C1836 C 0.02821 0.81991 0.63733 0.0
H1837 H 0.05346 0.93241 0.60239 0.0
H1838 H 0.04422 0.90371 0.61483 0.0
C1839 C 0.02509 0.80413 0.64608 0.0
C1840 C 0.01947 0.83867 0.61249 0.0
H1841 H 0.0514 0.86575 0.59161 0.0
C1842 C 0.00612 0.84893 0.6111 0.0
C1843 C 0.03583 0.84461 0.6049 0.0
C1844 C 0.05024 0.83373 0.60468 0.0
C1845 C 0.00896 0.86517 0.60293 0.0
C1846 C 0.02554 0.87135 0.59603 0.0
C1847 C 0.03872 0.86099 0.59703 0.0
C1848 C 0.02985 0.88897 0.58846 0.0
C1849 C 0.99441 0.87588 0.60198 0.0
C1850 C 0.02468 0.89025 0.56948 0.0
C1851 C 0.03022 0.90664 0.56215 0.0
C1852 C 0.04105 0.92208 0.57369 0.0
C1853 C 0.04555 0.92079 0.5929 0.0
C1854 C 0.04014 0.90441 0.60013 0.0
H1855 H 0.9823 0.8694 0.60818 0.0
H1856 H 0.99996 0.88977 0.60953 0.0
H1857 H 0.99012 0.87726 0.5871 0.0
H1858 H 0.01675 0.87844 0.56024 0.0
H1859 H 0.02658 0.90696 0.5473 0.0
H1860 H 0.47141 0.7674 0.84322 0.0
H1861 H 0.44045 0.7657 0.82878 0.0
H1862 H 0.45994 0.81092 0.79935 0.0
H1863 H 0.4913 0.8126 0.8139 0.0
H1864 H 0.4239 0.79538 0.83551 0.0
H1865 H 0.42171 0.77537 0.7589 0.0
H1866 H 0.43894 0.77108 0.77605 0.0
H1867 H 0.44005 0.79363 0.7703 0.0
C1868 C 0.46925 0.77657 0.83311 0.0
C1869 C 0.48393 0.78993 0.82948 0.0
C1870 C 0.45145 0.77568 0.82497 0.0
C1871 C 0.44768 0.78813 0.81291 0.0
C1872 C 0.46242 0.80094 0.80837 0.0
H1873 H 0.34007 0.7981 0.76087 0.0
H1874 H 0.37272 0.80165 0.76963 0.0
C1875 C 0.48041 0.80182 0.81657 0.0
C1876 C 0.42824 0.78866 0.80698 0.0
H1877 H 0.39482 0.78081 0.76927 0.0
C1878 C 0.41757 0.79225 0.82099 0.0
C1879 C 0.41992 0.78485 0.78805 0.0
C1880 C 0.43063 0.7809 0.77238 0.0
C1881 C 0.39898 0.79206 0.81673 0.0
C1882 C 0.39034 0.78738 0.79787 0.0
C1883 C 0.40116 0.78422 0.78376 0.0
C1884 C 0.37018 0.78547 0.79259 0.0
C1885 C 0.38903 0.79737 0.83262 0.0
C1886 C 0.35747 0.77509 0.80228 0.0
C1887 C 0.33875 0.7738 0.79782 0.0
C1888 C 0.33196 0.78211 0.78293 0.0
C1889 C 0.34462 0.7919 0.77273 0.0
C1890 C 0.36343 0.79371 0.7776 0.0
H1891 H 0.39846 0.80667 0.8441 0.0
H1892 H 0.37813 0.80417 0.8278 0.0
H1893 H 0.38288 0.78504 0.83867 0.0
H1894 H 0.36196 0.76788 0.81338 0.0
H1895 H 0.3296 0.76621 0.8061 0.0
H1896 H 0.49414 0.20453 0.12324 0.0
H1897 H 0.49427 0.17848 0.09997 0.0
H1898 H 0.53108 0.16049 0.13964 0.0
H1899 H 0.52993 0.18546 0.16303 0.0
H1900 H 0.51732 0.16639 0.08175 0.0
H1901 H 0.4949 0.11458 0.12741 0.0
H1902 H 0.49511 0.13814 0.13387 0.0
H1903 H 0.51547 0.12981 0.13859 0.0
C1904 C 0.50214 0.19491 0.12694 0.0
C1905 C 0.51171 0.19684 0.1451 0.0
C1906 C 0.50224 0.18001 0.11365 0.0
C1907 C 0.51216 0.16696 0.11816 0.0
C1908 C 0.52258 0.16967 0.13595 0.0
H1909 H 0.54524 0.09084 0.0373 0.0
H1910 H 0.54206 0.11732 0.05771 0.0
C1911 C 0.52206 0.18414 0.14931 0.0
C1912 C 0.5119 0.15061 0.10444 0.0
H1913 H 0.50872 0.1048 0.10111 0.0
C1914 C 0.51522 0.15291 0.08596 0.0
C1915 C 0.50875 0.13278 0.10957 0.0
C1916 C 0.50315 0.12867 0.12837 0.0
C1917 C 0.51605 0.13813 0.07281 0.0
C1918 C 0.51427 0.12056 0.07843 0.0
C1919 C 0.51042 0.11821 0.09673 0.0
C1920 C 0.51621 0.10439 0.06566 0.0
C1921 C 0.51839 0.14156 0.05293 0.0
C1922 C 0.50322 0.08784 0.06375 0.0
C1923 C 0.50528 0.07248 0.05242 0.0
C1924 C 0.52031 0.07329 0.04254 0.0
C1925 C 0.53332 0.08981 0.04443 0.0
C1926 C 0.53142 0.10507 0.05604 0.0
H1927 H 0.51303 0.15345 0.04932 0.0
H1928 H 0.53307 0.14461 0.0515 0.0
H1929 H 0.51135 0.12961 0.04263 0.0
H1930 H 0.4914 0.08676 0.07104 0.0
H1931 H 0.49503 0.05998 0.05132 0.0
H1932 H 0.081 0.27861 0.31682 0.0
H1933 H 0.10783 0.27284 0.30302 0.0
H1934 H 0.14147 0.31972 0.33824 0.0
H1935 H 0.1151 0.32527 0.35223 0.0
H1936 H 0.13378 0.29282 0.28382 0.0
H1937 H 0.16804 0.28129 0.35163 0.0
H1938 H 0.14444 0.28234 0.34835 0.0
H1939 H 0.16203 0.30287 0.35264 0.0
C1940 C 0.09409 0.28776 0.32152 0.0
C1941 C 0.09575 0.30232 0.33586 0.0
C1942 C 0.10949 0.28442 0.31363 0.0
C1943 C 0.12697 0.29553 0.31987 0.0
C1944 C 0.12841 0.31053 0.3335 0.0
H1945 H 0.23984 0.29848 0.3037 0.0
H1946 H 0.21124 0.30331 0.31321 0.0
C1947 C 0.11315 0.31378 0.34144 0.0
C1948 C 0.14377 0.2915 0.31254 0.0
H1949 H 0.18594 0.28444 0.32681 0.0
C1950 C 0.14514 0.29086 0.29322 0.0
C1951 C 0.15879 0.28898 0.32465 0.0
C1952 C 0.15824 0.28872 0.34544 0.0
C1953 C 0.16115 0.28851 0.28586 0.0
C1954 C 0.17626 0.28608 0.29803 0.0
C1955 C 0.17466 0.28639 0.31731 0.0
C1956 C 0.19391 0.28352 0.29139 0.0
C1957 C 0.16183 0.28945 0.26518 0.0
C1958 C 0.19423 0.27083 0.27584 0.0
C1959 C 0.21075 0.2686 0.26991 0.0
C1960 C 0.22761 0.27831 0.27982 0.0
C1961 C 0.22729 0.29076 0.29557 0.0
C1962 C 0.21078 0.29343 0.30115 0.0
H1963 H 0.15222 0.29727 0.25937 0.0
H1964 H 0.17567 0.29585 0.26242 0.0
H1965 H 0.15777 0.27551 0.25747 0.0
H1966 H 0.1817 0.26243 0.26827 0.0
H1967 H 0.21021 0.25919 0.25752 0.0
H1968 H 0.97893 0.01178 0.21174 0.0
H1969 H 0.98864 0.01728 0.18142 0.0
H1970 H 0.94061 0.03697 0.1661 0.0
H1971 H 0.93083 0.03169 0.19678 0.0
H1972 H 0.96785 0.99946 0.14769 0.0
H1973 H 0.98164 0.07448 0.14912 0.0
H1974 H 0.98044 0.06371 0.17024 0.0
H1975 H 0.96 0.06359 0.15519 0.0
C1976 C 0.97053 0.01757 0.20209 0.0
C1977 C 0.95404 0.02119 0.20664 0.0
C1978 C 0.97613 0.02071 0.18474 0.0
C1979 C 0.96538 0.02754 0.17149 0.0
C1980 C 0.94925 0.03192 0.17622 0.0
H1981 H 0.98484 0.0389 0.05458 0.0
H1982 H 0.97095 0.03934 0.08376 0.0
C1983 C 0.94366 0.02887 0.19373 0.0
C1984 C 0.97047 0.02838 0.15229 0.0
H1985 H 0.98538 0.05735 0.12122 0.0
C1986 C 0.97158 0.01212 0.14187 0.0
C1987 C 0.97514 0.04487 0.14464 0.0
C1988 C 0.9744 0.06272 0.15536 0.0
C1989 C 0.97764 0.01193 0.12423 0.0
C1990 C 0.98305 0.02848 0.1169 0.0
C1991 C 0.98129 0.0447 0.12694 0.0
C1992 C 0.99169 0.02918 0.09946 0.0
C1993 C 0.97835 0.99396 0.11366 0.0
C1994 C 0.00807 0.02366 0.09877 0.0
C1995 C 0.01589 0.02323 0.0822 0.0
C1996 C 0.00763 0.02855 0.06595 0.0
C1997 C 0.99146 0.0346 0.06681 0.0
C1998 C 0.98356 0.03494 0.08346 0.0
H1999 H 0.9689 0.98249 0.11829 0.0
H2000 H 0.97489 0.99374 0.09829 0.0
H2001 H 0.9923 0.99174 0.11641 0.0
H2002 H 0.01475 0.01948 0.11104 0.0
H2003 H 0.02835 0.0185 0.08211 0.0
H2004 H 0.29788 0.66505 0.49861 0.0
H2005 H 0.30239 0.68306 0.4724 0.0
H2006 H 0.25143 0.65175 0.44214 0.0
H2007 H 0.24663 0.63423 0.46839 0.0
H2008 H 0.29567 0.67264 0.42611 0.0
H2009 H 0.24948 0.70814 0.46183 0.0
H2010 H 0.26378 0.69562 0.474 0.0
H2011 H 0.24308 0.68378 0.45949 0.0
C2012 C 0.2881 0.66155 0.48597 0.0
C2013 C 0.27188 0.64842 0.48535 0.0
C2014 C 0.29066 0.67183 0.47111 0.0
C2015 C 0.27715 0.66872 0.45556 0.0
C2016 C 0.26196 0.65426 0.45412 0.0
H2017 H 0.2347 0.68928 0.35406 0.0
H2018 H 0.2511 0.67998 0.3811 0.0
C2019 C 0.25923 0.64428 0.46903 0.0
C2020 C 0.27679 0.68221 0.44249 0.0
H2021 H 0.25073 0.71121 0.42935 0.0
C2022 C 0.28625 0.68148 0.42697 0.0
C2023 C 0.26477 0.69397 0.44398 0.0
C2024 C 0.25479 0.6956 0.46081 0.0
C2025 C 0.28267 0.6911 0.41197 0.0
C2026 C 0.26911 0.7012 0.41257 0.0
C2027 C 0.261 0.70329 0.4289 0.0
C2028 C 0.26106 0.70727 0.39561 0.0
C2029 C 0.29277 0.68976 0.39525 0.0
C2030 C 0.26097 0.72561 0.39514 0.0
C2031 C 0.25154 0.7309 0.37979 0.0
C2032 C 0.24182 0.71784 0.36497 0.0
C2033 C 0.24192 0.6995 0.36549 0.0
C2034 C 0.25151 0.69426 0.38071 0.0
H2035 H 0.30621 0.68668 0.39923 0.0
H2036 H 0.28474 0.67862 0.38453 0.0
H2037 H 0.2948 0.70257 0.38881 0.0
H2038 H 0.26802 0.73576 0.40671 0.0
H2039 H 0.25162 0.74514 0.37959 0.0
H2040 H 0.64474 0.0618 0.69567 0.0
H2041 H 0.62445 0.05254 0.66593 0.0
H2042 H 0.61366 0.99694 0.67743 0.0
H2043 H 0.63463 0.00599 0.70664 0.0
H2044 H 0.61883 0.99869 0.64219 0.0
H2045 H 0.5702 0.04044 0.65999 0.0
H2046 H 0.59277 0.05408 0.66149 0.0
H2047 H 0.58792 0.03725 0.67719 0.0
C2048 C 0.63803 0.04763 0.69176 0.0
C2049 C 0.64112 0.03458 0.70332 0.0
C2050 C 0.62637 0.04238 0.67492 0.0
C2051 C 0.61724 0.02414 0.66979 0.0
C2052 C 0.62052 0.01109 0.68124 0.0
H2053 H 0.53066 0.00277 0.57584 0.0
H2054 H 0.54643 0.99969 0.60622 0.0
C2055 C 0.6325 0.01626 0.69784 0.0
C2056 C 0.60454 0.01861 0.65227 0.0
H2057 H 0.56843 0.02914 0.62738 0.0
C2058 C 0.60762 0.00513 0.63904 0.0
C2059 C 0.58969 0.02673 0.64843 0.0
C2060 C 0.58483 0.04028 0.66263 0.0
C2061 C 0.59678 1.00025 0.62156 0.0
C2062 C 0.58289 0.00943 0.6172 0.0
C2063 C 0.5792 0.0222 0.63079 0.0
C2064 C 0.57328 0.00763 0.5981 0.0
C2065 C 0.60047 0.98555 0.60787 0.0
C2066 C 0.58316 0.01255 0.58343 0.0
C2067 C 0.57414 0.01455 0.56624 0.0
C2068 C 0.55517 0.01216 0.5637 0.0
C2069 C 0.54527 0.00582 0.57789 0.0
C2070 C 0.55426 0.00369 0.59506 0.0
H2071 H 0.60661 0.97579 0.61532 0.0
H2072 H 0.58783 0.97799 0.59877 0.0
H2073 H 0.61025 0.9918 0.59877 0.0
H2074 H 0.59787 0.01589 0.58559 0.0
H2075 H 0.58215 0.01897 0.55536 0.0
H2076 H 0.26449 0.36013 0.96895 0.0
H2077 H 0.25954 0.34709 0.93568 0.0
H2078 H 0.29848 0.31465 0.94746 0.0
H2079 H 0.30337 0.3273 0.98038 0.0
H2080 H 0.28778 0.34973 0.91217 0.0
H2081 H 0.2556 0.27784 0.91591 0.0
H2082 H 0.25618 0.29584 0.9345 0.0
H2083 H 0.27585 0.28661 0.93233 0.0
C2084 C 0.27174 0.34998 0.96448 0.0
C2085 C 0.28434 0.34478 0.97736 0.0
C2086 C 0.26893 0.34258 0.94549 0.0
C2087 C 0.27846 0.32971 0.93916 0.0
C2088 C 0.29068 0.32425 0.95207 0.0
H2089 H 0.29503 0.27154 0.83524 0.0
H2090 H 0.2941 0.28317 0.86792 0.0
C2091 C 0.29355 0.33164 0.97092 0.0
C2092 C 0.27702 0.323 0.91889 0.0
H2093 H 0.26797 0.28425 0.88773 0.0
C2094 C 0.28322 0.33545 0.90672 0.0
C2095 C 0.27134 0.30433 0.91192 0.0
C2096 C 0.26421 0.29038 0.9243 0.0
C2097 C 0.28462 0.32971 0.88793 0.0
C2098 C 0.27899 0.31097 0.88089 0.0
C2099 C 0.27238 0.29857 0.89304 0.0
C2100 C 0.27984 0.30396 0.86102 0.0
C2101 C 0.29294 0.34379 0.8762 0.0
C2102 C 0.27213 0.3116 0.84619 0.0
C2103 C 0.27361 0.30564 0.82764 0.0
C2104 C 0.2818 0.29112 0.82325 0.0
C2105 C 0.28893 0.28295 0.83805 0.0
C2106 C 0.28816 0.28946 0.85676 0.0
H2107 H 0.30192 0.35582 0.88511 0.0
H2108 H 0.30103 0.33821 0.86614 0.0
H2109 H 0.28197 0.34857 0.86819 0.0
H2110 H 0.26502 0.3223 0.84889 0.0
H2111 H 0.26834 0.31254 0.81672 0.0
H2112 H 0.95968 0.99019 0.30972 0.0
H2113 H 0.97158 0.99547 0.34284 0.0
H2114 H 0.96215 0.04958 0.34653 0.0
H2115 H 0.94944 0.04408 0.31303 0.0
H2116 H 1.00076 0.01956 0.36058 0.0
H2117 H 0.93937 0.03112 0.39095 0.0
H2118 H 0.93848 0.02235 0.3666 0.0
H2119 H 0.94738 0.0461 0.37447 0.0
C2120 C 0.96008 0.00326 0.31748 0.0
C2121 C 0.95367 0.01676 0.30866 0.0
C2122 C 0.96691 0.00625 0.3365 0.0
C2123 C 0.9677 0.02286 0.34729 0.0
C2124 C 0.96136 0.0365 0.3386 0.0
H2125 H 0.02757 0.04876 0.4614 0.0
H2126 H 0.01448 0.05151 0.42962 0.0
C2127 C 0.95422 0.03341 0.31944 0.0
C2128 C 0.97561 0.02557 0.36745 0.0
H2129 H 0.96543 0.03187 0.41229 0.0
C2130 C 0.99307 0.02244 0.37186 0.0
C2131 C 0.96556 0.02923 0.38222 0.0
C2132 C 0.9466 0.03226 0.37841 0.0
C2133 C 1.00049 0.02234 0.3905 0.0
C2134 C 0.99033 0.02565 0.40516 0.0
C2135 C 0.97313 0.02933 0.40092 0.0
C2136 C 0.99719 0.0245 0.42487 0.0
C2137 C 0.0189 0.01803 0.39446 0.0
C2138 C 0.99161 0.00846 0.43275 0.0
C2139 C 0.99907 0.00681 0.4509 0.0
C2140 C 0.01232 0.02115 0.46144 0.0
C2141 C 0.01752 0.03738 0.45362 0.0
C2142 C 0.01003 0.03902 0.43549 0.0
H2143 H 0.02487 0.01519 0.38142 0.0
H2144 H 0.02834 0.02961 0.40357 0.0
H2145 H 0.01775 0.00602 0.40218 0.0
H2146 H 0.98171 0.9971 0.42471 0.0
H2147 H 0.99452 0.99429 0.45659 0.0
H2148 H 0.30123 0.65857 0.58961 0.0
H2149 H 0.31163 0.67726 0.62027 0.0
H2150 H 0.26718 0.70377 0.61161 0.0
H2151 H 0.25673 0.68544 0.5812 0.0
H2152 H 0.31009 0.72543 0.62537 0.0
H2153 H 0.27437 0.67273 0.66515 0.0
H2154 H 0.28554 0.6669 0.64533 0.0
H2155 H 0.26455 0.67398 0.64158 0.0
C2156 C 0.29379 0.6685 0.59422 0.0
C2157 C 0.2782 0.67062 0.58306 0.0
C2158 C 0.29976 0.6791 0.61162 0.0
C2159 C 0.29012 0.69176 0.61789 0.0
C2160 C 0.27478 0.69407 0.60672 0.0
H2161 H 0.26288 0.75879 0.70105 0.0
H2162 H 0.26943 0.74299 0.67209 0.0
C2163 C 0.26886 0.68362 0.5894 0.0
C2164 C 0.29523 0.70235 0.63643 0.0
H2165 H 0.28226 0.70308 0.68002 0.0
C2166 C 0.30455 0.7205 0.63757 0.0
C2167 C 0.28775 0.69568 0.65204 0.0
C2168 C 0.27752 0.67623 0.65114 0.0
C2169 C 0.30555 0.73259 0.65379 0.0
C2170 C 0.29695 0.72618 0.66886 0.0
C2171 C 0.28872 0.70778 0.6682 0.0
C2172 C 0.29494 0.73853 0.68488 0.0
C2173 C 0.31479 0.7523 0.65447 0.0
C2174 C 0.30743 0.74143 0.70116 0.0
C2175 C 0.3037 0.75028 0.71755 0.0
C2176 C 0.28744 0.75619 0.71773 0.0
C2177 C 0.27551 0.75435 0.7011 0.0
C2178 C 0.27921 0.74539 0.68468 0.0
H2179 H 0.32206 0.75484 0.64214 0.0
H2180 H 0.30449 0.76066 0.65486 0.0
H2181 H 0.32463 0.75678 0.6675 0.0
H2182 H 0.31957 0.73611 0.70139 0.0
H2183 H 0.31319 0.75186 0.73028 0.0
H2184 H 0.61969 0.01393 0.77888 0.0
H2185 H 0.6037 0.01209 0.80633 0.0
H2186 H 0.65498 0.02328 0.84237 0.0
H2187 H 0.67108 0.02511 0.81476 0.0
H2188 H 0.60254 0.9983 0.84309 0.0
H2189 H 0.6355 0.07131 0.84397 0.0
H2190 H 0.63531 0.05438 0.82454 0.0
H2191 H 0.65065 0.05619 0.84578 0.0
C2192 C 0.62746 0.01501 0.79261 0.0
C2193 C 0.64648 0.01991 0.79494 0.0
C2194 C 0.61834 0.01388 0.80825 0.0
C2195 C 0.62824 0.01791 0.82625 0.0
C2196 C 0.64721 0.02018 0.82848 0.0
H2197 H 0.5972 0.06555 0.92677 0.0
H2198 H 0.61204 0.05036 0.90372 0.0
C2199 C 0.65637 0.02119 0.81276 0.0
C2200 C 0.61934 0.02463 0.84164 0.0
H2201 H 0.61559 0.06419 0.86597 0.0
C2202 C 0.60549 0.01264 0.84833 0.0
C2203 C 0.62293 0.04348 0.84784 0.0
C2204 C 0.63678 0.05716 0.84009 0.0
C2205 C 0.59527 0.01908 0.86142 0.0
C2206 C 0.59908 0.03785 0.86769 0.0
C2207 C 0.61289 0.04979 0.86103 0.0
C2208 C 0.58932 0.0456 0.88162 0.0
C2209 C 0.58054 0.00595 0.86854 0.0
C2210 C 0.57183 0.04819 0.87649 0.0
C2211 C 0.56332 0.05695 0.8896 0.0
C2212 C 0.57231 0.06317 0.90789 0.0
C2213 C 0.58995 0.06075 0.91278 0.0
C2214 C 0.59839 0.05202 0.89974 0.0
H2215 H 0.58027 0.99161 0.86341 0.0
H2216 H 0.58252 0.00784 0.88414 0.0
H2217 H 0.56713 0.00875 0.86381 0.0
H2218 H 0.56488 0.04356 0.86235 0.0
H2219 H 0.54964 0.05851 0.8856 0.0
H2220 H 0.30022 0.32974 0.07886 0.0
H2221 H 0.29323 0.31966 0.10862 0.0
H2222 H 0.25685 0.35578 0.11342 0.0
H2223 H 0.26379 0.36609 0.08329 0.0
H2224 H 0.29947 0.34438 0.14338 0.0
H2225 H 0.22787 0.30485 0.12462 0.0
H2226 H 0.24295 0.30932 0.10714 0.0
H2227 H 0.23376 0.32717 0.11757 0.0
C2228 C 0.29059 0.33549 0.08607 0.0
C2229 C 0.28264 0.34882 0.0787 0.0
C2230 C 0.28662 0.32968 0.10312 0.0
C2231 C 0.27454 0.33695 0.11319 0.0
C2232 C 0.26611 0.3499 0.10573 0.0
H2233 H 0.25691 0.31252 0.22769 0.0
H2234 H 0.25576 0.32708 0.19882 0.0
C2235 C 0.27011 0.35578 0.08856 0.0
C2236 C 0.27181 0.33153 0.13196 0.0
H2237 H 0.24193 0.30509 0.15543 0.0
C2238 C 0.2868 0.33604 0.14612 0.0
C2239 C 0.25529 0.32058 0.13541 0.0
C2240 C 0.239 0.31504 0.12042 0.0
C2241 C 0.28587 0.32944 0.16349 0.0
C2242 C 0.26957 0.31801 0.16671 0.0
C2243 C 0.25435 0.31399 0.15286 0.0
C2244 C 0.2689 0.3087 0.18366 0.0
C2245 C 0.30249 0.33417 0.1781 0.0
C2246 C 0.27656 0.29357 0.1845 0.0
C2247 C 0.27727 0.28532 0.20084 0.0
C2248 C 0.27025 0.292 0.21666 0.0
C2249 C 0.26236 0.30706 0.2157 0.0
C2250 C 0.26163 0.31532 0.19925 0.0
H2251 H 0.31312 0.34535 0.17464 0.0
H2252 H 0.29879 0.33818 0.19212 0.0
H2253 H 0.30832 0.32204 0.17906 0.0
H2254 H 0.28234 0.28838 0.17261 0.0
H2255 H 0.28372 0.27394 0.20118 0.0
H2256 H 0.23601 0.93215 0.01417 0.0
H2257 H 0.2107 0.94679 0.01488 0.0
H2258 H 0.22849 0.97693 0.97029 0.0
H2259 H 0.25431 0.96232 0.96952 0.0
H2260 H 0.22225 0.99788 0.00245 0.0
H2261 H 0.16392 0.93991 0.97847 0.0
H2262 H 0.17995 0.93436 0.99575 0.0
H2263 H 0.18668 0.93971 0.97346 0.0
C2264 C 0.23451 0.94174 0.00433 0.0
C2265 C 0.24714 0.94611 0.99177 0.0
C2266 C 0.21991 0.94993 0.00463 0.0
C2267 C 0.21755 0.96252 0.99229 0.0
C2268 C 0.23003 0.96696 0.97965 0.0
H2269 H 0.14052 0.02858 0.02215 0.0
H2270 H 0.1599 0.01592 0.00201 0.0
C2271 C 0.24473 0.95868 0.9793 0.0
C2272 C 0.20305 0.97225 0.99437 0.0
H2273 H 0.15849 0.96401 0.00072 0.0
C2274 C 0.20814 0.99073 0.00144 0.0
C2275 C 0.18475 0.96275 0.99298 0.0
C2276 C 0.17848 0.94311 0.98456 0.0
C2277 C 0.19567 0.99953 0.00899 0.0
C2278 C 0.1778 0.98951 0.0092 0.0
C2279 C 0.17231 0.97151 0.00061 0.0
C2280 C 0.16549 0.99666 0.02057 0.0
C2281 C 0.20199 0.01896 0.01811 0.0
C2282 C 0.16225 0.98976 0.03744 0.0
C2283 C 0.15124 0.99687 0.04891 0.0
C2284 C 0.14332 0.01093 0.04357 0.0
C2285 C 0.14648 0.0177 0.02653 0.0
C2286 C 0.15751 0.01056 0.01506 0.0
H2287 H 0.21673 0.02439 0.0179 0.0
H2288 H 0.19433 0.02759 0.01062 0.0
H2289 H 0.19922 0.02006 0.03292 0.0
H2290 H 0.16839 0.97897 0.04179 0.0
H2291 H 0.14873 0.99123 0.0618 0.0
H2292 H 0.70285 0.65642 0.01709 0.0
H2293 H 0.6755 0.63318 0.01731 0.0
H2294 H 0.69898 0.59367 0.98758 0.0
H2295 H 0.7271 0.61699 0.98827 0.0
H2296 H 0.65246 0.61572 0.98941 0.0
H2297 H 0.67973 0.56544 0.02752 0.0
H2298 H 0.69321 0.58773 0.02617 0.0
H2299 H 0.68973 0.57008 0.00665 0.0
C2300 C 0.70228 0.64276 0.01069 0.0
C2301 C 0.71707 0.63852 0.00259 0.0
C2302 C 0.68661 0.62945 0.01083 0.0
C2303 C 0.68513 0.6116 0.00257 0.0
C2304 C 0.69991 0.60724 0.99443 0.0
H2305 H 0.57373 0.54564 0.9806 0.0
H2306 H 0.60433 0.56134 0.9762 0.0
C2307 C 0.7159 0.62057 0.99469 0.0
C2308 C 0.66769 0.59811 0.00197 0.0
H2309 H 0.64846 0.55746 0.01555 0.0
C2310 C 0.65162 0.60296 0.99512 0.0
C2311 C 0.66655 0.58153 0.00955 0.0
C2312 C 0.6832 0.57592 0.01806 0.0
C2313 C 0.63448 0.59213 0.99625 0.0
C2314 C 0.63331 0.57537 0.00348 0.0
C2315 C 0.64937 0.57023 0.00987 0.0
C2316 C 0.61555 0.56352 0.00546 0.0
C2317 C 0.61791 0.59933 0.99056 0.0
C2318 C 0.61201 0.55832 0.02306 0.0
C2319 C 0.5947 0.54873 0.0254 0.0
C2320 C 0.5807 0.54455 0.01025 0.0
C2321 C 0.58438 0.54902 0.99251 0.0
C2322 C 0.60178 0.55809 0.99004 0.0
H2323 H 0.62138 0.61432 0.99089 0.0
H2324 H 0.61201 0.59336 0.97596 0.0
H2325 H 0.6074 0.59582 -8e-05 0.0
H2326 H 0.62243 0.56226 0.03515 0.0
H2327 H 0.59203 0.54541 0.03921 0.0
H2328 H 0.65949 0.48619 0.25683 0.0
H2329 H 0.67547 0.46177 0.25211 0.0
H2330 H 0.69049 0.46571 0.31196 0.0
H2331 H 0.6743 0.49001 0.31688 0.0
H2332 H 0.71205 0.46268 0.26257 0.0
H2333 H 0.66773 0.41147 0.29698 0.0
H2334 H 0.66108 0.4316 0.29033 0.0
H2335 H 0.67691 0.43303 0.31109 0.0
C2336 C 0.66614 0.48186 0.26902 0.0
C2337 C 0.66555 0.49002 0.28725 0.0
C2338 C 0.67528 0.46789 0.26629 0.0
C2339 C 0.68394 0.46176 0.2817 0.0
C2340 C 0.68358 0.47 0.2999 0.0
H2341 H 0.75909 0.38908 0.27213 0.0
H2342 H 0.74389 0.4121 0.28534 0.0
C2343 C 0.67442 0.48397 0.30267 0.0
C2344 C 0.69366 0.44702 0.27857 0.0
H2345 H 0.69351 0.40335 0.28612 0.0
C2346 C 0.70809 0.44976 0.26784 0.0
C2347 C 0.68838 0.43014 0.2854 0.0
C2348 C 0.67259 0.42624 0.29646 0.0
C2349 C 0.71729 0.43603 0.26362 0.0
C2350 C 0.71194 0.41918 0.27036 0.0
C2351 C 0.69767 0.41643 0.28124 0.0
C2352 C 0.71996 0.4038 0.26456 0.0
C2353 C 0.73233 0.43934 0.25152 0.0
C2354 C 0.71121 0.39132 0.24896 0.0
C2355 C 0.71984 0.37837 0.24141 0.0
C2356 C 0.73728 0.37761 0.24946 0.0
C2357 C 0.74557 0.38935 0.26582 0.0
C2358 C 0.73697 0.40249 0.27329 0.0
H2359 H 0.73453 0.45307 0.24697 0.0
H2360 H 0.74518 0.43787 0.25943 0.0
H2361 H 0.72906 0.42904 0.23885 0.0
H2362 H 0.69809 0.3922 0.24206 0.0
H2363 H 0.71324 0.36944 0.22877 0.0
H2364 H 0.85423 0.4452 0.54702 0.0
H2365 H 0.88138 0.4688 0.54598 0.0
H2366 H 0.85216 0.49073 0.50279 0.0
H2367 H 0.82478 0.46746 0.50408 0.0
H2368 H 0.88327 0.47224 0.49442 0.0
H2369 H 0.90003 0.52769 0.55441 0.0
H2370 H 0.89018 0.50524 0.55945 0.0
H2371 H 0.87693 0.5165 0.54462 0.0
C2372 C 0.85338 0.45556 0.53794 0.0
C2373 C 0.83755 0.45447 0.52551 0.0
C2374 C 0.86883 0.46905 0.53742 0.0
C2375 C 0.86862 0.4814 0.52434 0.0
C2376 C 0.85239 0.48138 0.51313 0.0
H2377 H 0.97185 0.54571 0.50165 0.0
H2378 H 0.94003 0.53701 0.50672 0.0
C2379 C 0.8368 0.4681 0.5139 0.0
C2380 C 0.88599 0.49108 0.51953 0.0
H2381 H 0.92429 0.52301 0.53758 0.0
C2382 C 0.89215 0.48361 0.5036 0.0
C2383 C 0.89734 0.50581 0.53158 0.0
C2384 C 0.89083 0.51444 0.54845 0.0
C2385 C 0.9099 0.48992 0.49994 0.0
C2386 C 0.92169 0.50388 0.51272 0.0
C2387 C 0.91519 0.51211 0.52802 0.0
C2388 C 0.94103 0.50946 0.51083 0.0
C2389 C 0.916 0.48125 0.48275 0.0
C2390 C 0.95205 0.4969 0.51195 0.0
C2391 C 0.97008 0.50172 0.50885 0.0
C2392 C 0.97737 0.51928 0.50499 0.0
C2393 C 0.9665 0.53206 0.50459 0.0
C2394 C 0.9484 0.52717 0.50752 0.0
H2395 H 0.90429 0.47473 0.47187 0.0
H2396 H 0.92562 0.49136 0.47652 0.0
H2397 H 0.92302 0.47056 0.4868 0.0
H2398 H 0.94657 0.48324 0.5148 0.0
H2399 H 0.97811 0.49156 0.5089 0.0
H2400 H 0.33908 0.04849 0.31663 0.0
H2401 H 0.32367 0.07352 0.31322 0.0
H2402 H 0.35955 0.09372 0.27409 0.0
H2403 H 0.37496 0.06911 0.27731 0.0
H2404 H 0.34717 0.11884 0.31103 0.0
H2405 H 0.29746 0.0759 0.25288 0.0
H2406 H 0.30641 0.06673 0.27305 0.0
H2407 H 0.32037 0.07268 0.25516 0.0
C2408 C 0.34383 0.05845 0.30756 0.0
C2409 C 0.35808 0.05679 0.29711 0.0
C2410 C 0.33506 0.07266 0.30567 0.0
C2411 C 0.34059 0.08521 0.29341 0.0
C2412 C 0.35526 0.08405 0.28364 0.0
H2413 H 0.33641 0.17983 0.24725 0.0
H2414 H 0.34309 0.15541 0.26427 0.0
C2415 C 0.36397 0.06996 0.28548 0.0
C2416 C 0.33047 0.09892 0.28928 0.0
H2417 H 0.30205 0.10776 0.2536 0.0
C2418 C 0.33685 0.11646 0.29886 0.0
C2419 C 0.31706 0.09551 0.27346 0.0
C2420 C 0.30978 0.07667 0.26302 0.0
C2421 C 0.33095 0.1311 0.29215 0.0
C2422 C 0.31887 0.12795 0.27519 0.0
C2423 C 0.31145 0.11015 0.26651 0.0
C2424 C 0.31486 0.14287 0.2653 0.0
C2425 C 0.33814 0.14978 0.30295 0.0
C2426 C 0.29682 0.14319 0.2593 0.0
C2427 C 0.29299 0.15657 0.24884 0.0
C2428 C 0.30715 0.17009 0.24452 0.0
C2429 C 0.32523 0.16955 0.25026 0.0
C2430 C 0.32906 0.15588 0.26039 0.0
H2431 H 0.34134 0.14902 0.31819 0.0
H2432 H 0.35093 0.15628 0.29793 0.0
H2433 H 0.32826 0.15851 0.30106 0.0
H2434 H 0.2857 0.13304 0.26265 0.0
H2435 H 0.2789 0.15636 0.24423 0.0
H2436 H 0.31374 0.14134 0.52888 0.0
H2437 H 0.33833 0.12562 0.5344 0.0
H2438 H 0.34158 0.11858 0.47498 0.0
H2439 H 0.31713 0.13448 0.4693 0.0
H2440 H 0.33866 0.09016 0.51962 0.0
H2441 H 0.39454 0.14054 0.49805 0.0
H2442 H 0.37339 0.14593 0.50303 0.0
H2443 H 0.37452 0.13314 0.48103 0.0
C2444 C 0.31971 0.13652 0.51697 0.0
C2445 C 0.3135 0.13922 0.49864 0.0
C2446 C 0.33377 0.12756 0.52017 0.0
C2447 C 0.34194 0.12122 0.50513 0.0
C2448 C 0.3357 0.12373 0.48681 0.0
H2449 H 0.42604 0.05989 0.49857 0.0
H2450 H 0.40404 0.0786 0.49188 0.0
C2451 C 0.32163 0.1327 0.48359 0.0
C2452 C 0.3565 0.11133 0.50862 0.0
H2453 H 0.40115 0.1127 0.505 0.0
C2454 C 0.35235 0.0951 0.51649 0.0
C2455 C 0.37427 0.11777 0.50435 0.0
C2456 C 0.37956 0.13538 0.49629 0.0
C2457 C 0.36545 0.085 0.52007 0.0
C2458 C 0.38334 0.0916 0.51613 0.0
C2459 C 0.38746 0.10775 0.50808 0.0
C2460 C 0.39793 0.08193 0.52044 0.0
C2461 C 0.35986 0.06715 0.52765 0.0
C2462 C 0.40233 0.07833 0.53883 0.0
C2463 C 0.41463 0.06754 0.54258 0.0
C2464 C 0.42303 0.0605 0.52807 0.0
C2465 C 0.41965 0.06516 0.50993 0.0
C2466 C 0.4071 0.07578 0.50612 0.0
H2467 H 0.34496 0.06156 0.52452 0.0
H2468 H 0.36686 0.05692 0.52168 0.0
H2469 H 0.36351 0.06929 0.54314 0.0
H2470 H 0.39587 0.08347 0.5502 0.0
H2471 H 0.41731 0.06434 0.55674 0.0
H2472 H 0.68506 0.57071 0.28366 0.0
H2473 H 0.70951 0.59806 0.28522 0.0
H2474 H 0.67136 0.63159 0.29438 0.0
H2475 H 0.6472 0.60475 0.29317 0.0
H2476 H 0.70964 0.62523 0.26121 0.0
H2477 H 0.71365 0.65456 0.3353 0.0
H2478 H 0.70302 0.63109 0.32689 0.0
H2479 H 0.69084 0.64859 0.32335 0.0
C2480 C 0.68199 0.58392 0.28631 0.0
C2481 C 0.66418 0.58552 0.28835 0.0
C2482 C 0.69594 0.5995 0.28717 0.0
C2483 C 0.69227 0.61681 0.29027 0.0
C2484 C 0.67459 0.61838 0.29248 0.0
H2485 H 0.73093 0.7289 0.28792 0.0
H2486 H 0.71614 0.69815 0.29203 0.0
C2487 C 0.66074 0.60295 0.29164 0.0
C2488 C 0.70635 0.63343 0.28978 0.0
H2489 H 0.72513 0.67527 0.31414 0.0
C2490 C 0.71338 0.63608 0.27287 0.0
C2491 C 0.71106 0.64754 0.30501 0.0
C2492 C 0.70437 0.64525 0.32372 0.0
C2493 C 0.72401 0.65294 0.27032 0.0
C2494 C 0.72813 0.66733 0.28535 0.0
C2495 C 0.72189 0.6643 0.30259 0.0
C2496 C 0.73763 0.686 0.28314 0.0
C2497 C 0.72972 0.65542 0.25121 0.0
C2498 C 0.75471 0.68949 0.27688 0.0
C2499 C 0.76293 0.70702 0.27388 0.0
C2500 C 0.75464 0.72157 0.27784 0.0
C2501 C 0.73778 0.71808 0.2847 0.0
C2502 C 0.72933 0.70049 0.28718 0.0
H2503 H 0.72152 0.6447 0.24012 0.0
H2504 H 0.72841 0.66884 0.24721 0.0
H2505 H 0.74414 0.6546 0.25151 0.0
H2506 H 0.76159 0.67863 0.27407 0.0
H2507 H 0.77552 0.70898 0.26798 0.0
H2508 H 0.84475 0.46951 0.7985 0.0
H2509 H 0.82229 0.44063 0.79479 0.0
H2510 H 0.82555 0.43387 0.73533 0.0
H2511 H 0.84851 0.46251 0.73916 0.0
H2512 H 0.78832 0.42014 0.76922 0.0
H2513 H 0.85246 0.39753 0.76091 0.0
H2514 H 0.85235 0.42047 0.76999 0.0
H2515 H 0.84645 0.41287 0.74528 0.0
C2516 C 0.83994 0.46225 0.78453 0.0
C2517 C 0.8481 0.46797 0.76905 0.0
C2518 C 0.82714 0.44584 0.78242 0.0
C2519 C 0.82247 0.43523 0.76481 0.0
C2520 C 0.82908 0.44201 0.74898 0.0
H2521 H 0.7634 0.32128 0.75419 0.0
H2522 H 0.77228 0.35284 0.74774 0.0
C2523 C 0.8421 0.45827 0.75114 0.0
C2524 C 0.81448 0.41581 0.76397 0.0
H2525 H 0.82645 0.37509 0.76178 0.0
C2526 C 0.79647 0.41017 0.76732 0.0
C2527 C 0.82547 0.4031 0.7619 0.0
C2528 C 0.8453 0.40871 0.75946 0.0
C2529 C 0.78918 0.39195 0.769 0.0
C2530 C 0.80024 0.37931 0.76702 0.0
C2531 C 0.81806 0.38492 0.76314 0.0
C2532 C 0.7944 0.3605 0.77071 0.0
C2533 C 0.7701 0.38651 0.77375 0.0
C2534 C 0.80426 0.35445 0.78536 0.0
C2535 C 0.79962 0.33647 0.78856 0.0
C2536 C 0.78494 0.32452 0.77732 0.0
C2537 C 0.77484 0.33049 0.76286 0.0
C2538 C 0.77975 0.34844 0.75935 0.0
H2539 H 0.76459 0.39848 0.77806 0.0
H2540 H 0.76108 0.37852 0.76123 0.0
H2541 H 0.76967 0.37785 0.78524 0.0
H2542 H 0.8156 0.36365 0.79426 0.0
H2543 H 0.80733 0.33194 0.79992 0.0
H2544 H 0.03197 0.8357 0.09217 0.0
H2545 H 0.02693 0.8649 0.08368 0.0
H2546 H 0.06968 0.86805 0.04882 0.0
H2547 H 0.07482 0.83911 0.05723 0.0
H2548 H 0.07277 0.90044 0.07068 0.0
H2549 H 1.00203 0.87641 0.03484 0.0
H2550 H 0.0055 0.87093 0.05837 0.0
H2551 H 0.01635 0.86104 0.04041 0.0
C2552 C 0.04022 0.84251 0.08258 0.0
C2553 C 0.05376 0.83477 0.07537 0.0
C2554 C 0.03726 0.85926 0.07763 0.0
C2555 C 0.04775 0.8688 0.06534 0.0
C2556 C 0.0613 0.86111 0.05824 0.0
H2557 H 0.02962 0.95957 0.00515 0.0
H2558 H 0.032 0.93003 0.01457 0.0
C2559 C 0.06419 0.8444 0.06307 0.0
C2560 C 0.0451 0.88693 0.06015 0.0
H2561 H 0.01418 0.90816 0.03902 0.0
C2562 C 0.05991 0.90207 0.06381 0.0
C2563 C 0.02844 0.88927 0.0509 0.0
C2564 C 0.01219 0.87355 0.04571 0.0
C2565 C 0.05853 0.91926 0.05875 0.0
C2566 C 0.04178 0.92169 0.04985 0.0
C2567 C 0.02701 0.90652 0.04597 0.0
C2568 C 0.03948 0.93975 0.0442 0.0
C2569 C 0.07523 0.93461 0.0626 0.0
C2570 C 0.0425 0.95527 0.0576 0.0
C2571 C 0.04078 0.97218 0.05224 0.0
C2572 C 0.03595 0.97417 0.03328 0.0
C2573 C 0.03287 0.95861 0.0199 0.0
C2574 C 0.03441 0.94164 0.02529 0.0
H2575 H 0.08787 0.92955 0.06482 0.0
H2576 H 0.07614 0.94295 0.05085 0.0
H2577 H 0.0745 0.9435 0.07553 0.0
H2578 H 0.04613 0.9543 0.07232 0.0
H2579 H 0.04323 0.98373 0.06304 0.0
H2580 H 0.93006 0.23538 0.91273 0.0
H2581 H 0.90383 0.23739 0.89109 0.0
H2582 H 0.93913 0.27171 0.85998 0.0
H2583 H 0.96563 0.26909 0.88131 0.0
H2584 H 0.89122 0.26586 0.8862 0.0
H2585 H 0.90705 0.23947 0.81709 0.0
H2586 H 0.91985 0.23713 0.83889 0.0
H2587 H 0.92445 0.25818 0.82903 0.0
C2588 C 0.93232 0.24304 0.90104 0.0
C2589 C 0.95001 0.25198 0.89872 0.0
C2590 C 0.91725 0.24425 0.88868 0.0
C2591 C 0.91932 0.25459 0.87369 0.0
C2592 C 0.93705 0.26324 0.87107 0.0
H2593 H 0.84143 0.28913 0.79566 0.0
H2594 H 0.86846 0.2849 0.81463 0.0
C2595 C 0.95224 0.26179 0.88332 0.0
C2596 C 0.90281 0.2572 0.86188 0.0
H2597 H 0.8821 0.25376 0.81668 0.0
C2598 C 0.88923 0.26307 0.871 0.0
C2599 C 0.90008 0.25371 0.84198 0.0
C2600 C 0.91354 0.24661 0.83117 0.0
C2601 C 0.87324 0.26563 0.86091 0.0
C2602 C 0.87054 0.26212 0.84107 0.0
C2603 C 0.88413 0.25642 0.83189 0.0
C2604 C 0.85384 0.26452 0.82956 0.0
C2605 C 0.85955 0.27247 0.87162 0.0
C2606 C 0.83651 0.25437 0.83147 0.0
C2607 C 0.82094 0.25665 0.82047 0.0
C2608 C 0.82235 0.26909 0.80726 0.0
C2609 C 0.83975 0.27925 0.80547 0.0
C2610 C 0.85528 0.2769 0.81637 0.0
H2611 H 0.86562 0.27886 0.88608 0.0
H2612 H 0.85381 0.28251 0.86425 0.0
H2613 H 0.84822 0.26089 0.87276 0.0
H2614 H 0.83502 0.24451 0.84131 0.0
H2615 H 0.80781 0.24852 0.8222 0.0
H2616 H 0.53223 0.22543 0.59526 0.0
H2617 H 0.52857 0.19256 0.5873 0.0
H2618 H 0.56243 0.20206 0.54362 0.0
H2619 H 0.5664 0.23476 0.55165 0.0
H2620 H 0.51517 0.16789 0.55602 0.0
H2621 H 0.58858 0.17089 0.57285 0.0
H2622 H 0.57885 0.19001 0.57886 0.0
H2623 H 0.58405 0.18508 0.55542 0.0
C2624 C 0.53877 0.22055 0.58383 0.0
C2625 C 0.54972 0.23295 0.57421 0.0
C2626 C 0.5367 0.20166 0.57931 0.0
C2627 C 0.54559 0.19462 0.56513 0.0
C2628 C 0.55583 0.20697 0.55498 0.0
H2629 H 0.55252 0.08823 0.51314 0.0
H2630 H 0.55426 0.12036 0.52231 0.0
C2631 C 0.55794 0.22579 0.5595 0.0
C2632 C 0.5444 0.17452 0.56104 0.0
H2633 H 0.57035 0.1429 0.55683 0.0
C2634 C 0.52726 0.16246 0.55637 0.0
C2635 C 0.5601 0.16716 0.56152 0.0
C2636 C 0.57892 0.17892 0.56762 0.0
C2637 C 0.52545 0.14357 0.55166 0.0
C2638 C 0.54116 0.13634 0.55179 0.0
C2639 C 0.55827 0.14834 0.55663 0.0
C2640 C 0.54021 0.11646 0.54653 0.0
C2641 C 0.50671 0.13153 0.54601 0.0
C2642 C 0.53196 0.1033 0.55718 0.0
C2643 C 0.5313 0.08474 0.55217 0.0
C2644 C 0.53883 0.07882 0.53632 0.0
C2645 C 0.54697 0.09208 0.52567 0.0
C2646 C 0.54784 0.1106 0.53082 0.0
H2647 H 0.49634 0.13948 0.54273 0.0
H2648 H 0.50649 0.12159 0.53356 0.0
H2649 H 0.50282 0.12382 0.55773 0.0
H2650 H 0.52615 0.10738 0.5695 0.0
H2651 H 0.52483 0.07503 0.56071 0.0
H2652 H 0.54735 0.74505 0.39482 0.0
H2653 H 0.57357 0.74408 0.37802 0.0
H2654 H 0.58045 0.80103 0.37305 0.0
H2655 H 0.55446 0.80219 0.38987 0.0
H2656 H 0.58138 0.7534 0.34165 0.0
H2657 H 0.63004 0.79714 0.39955 0.0
H2658 H 0.60714 0.78643 0.40255 0.0
H2659 H 0.61145 0.80678 0.39152 0.0
C2660 C 0.5544 0.75736 0.3901 0.0
C2661 C 0.54883 0.77374 0.39389 0.0
C2662 C 0.56937 0.75677 0.38044 0.0
C2663 C 0.57916 0.77254 0.37448 0.0
C2664 C 0.57331 0.78875 0.37776 0.0
H2665 H 0.66229 0.78885 0.29955 0.0
H2666 H 0.63308 0.78237 0.31193 0.0
C2667 C 0.55837 0.78936 0.38736 0.0
C2668 C 0.59585 0.77233 0.36542 0.0
H2669 H 0.64132 0.79145 0.37075 0.0
C2670 C 0.59452 0.76163 0.34803 0.0
C2671 C 0.61306 0.78285 0.37385 0.0
C2672 C 0.61562 0.79383 0.39298 0.0
C2673 C 0.60987 0.76155 0.33867 0.0
C2674 C 0.62696 0.77264 0.34681 0.0
C2675 C 0.62826 0.78301 0.36438 0.0
C2676 C 0.64381 0.77378 0.33766 0.0
C2677 C 0.60767 0.74941 0.32032 0.0
C2678 C 0.65959 0.77087 0.34775 0.0
C2679 C 0.67624 0.77472 0.34077 0.0
C2680 C 0.67757 0.78151 0.32347 0.0
C2681 C 0.66162 0.78337 0.31277 0.0
C2682 C 0.64491 0.77966 0.31987 0.0
H2683 H 0.59538 0.73815 0.31878 0.0
H2684 H 0.60614 0.75748 0.30855 0.0
H2685 H 0.61973 0.74354 0.31909 0.0
H2686 H 0.65917 0.76632 0.36145 0.0
H2687 H 0.68831 0.77318 0.34932 0.0
H2688 H 0.05468 0.26758 0.42263 0.0
H2689 H 0.05523 0.23954 0.4362 0.0
H2690 H 0.03272 0.20849 0.38221 0.0
H2691 H 0.03329 0.23672 0.36844 0.0
H2692 H 0.02755 0.21591 0.44056 0.0
H2693 H 0.0674 0.17925 0.39748 0.0
H2694 H 0.0673 0.20276 0.39606 0.0
H2695 H 0.04918 0.18499 0.38324 0.0
C2696 C 0.05058 0.25476 0.41353 0.0
C2697 C 0.0443 0.25429 0.39443 0.0
C2698 C 0.05072 0.2387 0.42131 0.0
C2699 C 0.04417 0.22172 0.41029 0.0
C2700 C 0.0384 0.22129 0.39099 0.0
H2701 H 0.99967 0.11458 0.43498 0.0
H2702 H 0.01151 0.14169 0.42064 0.0
C2703 C 0.0387 0.23745 0.38308 0.0
C2704 C 0.04158 0.20476 0.4195 0.0
H2705 H 0.0481 0.16144 0.41625 0.0
C2706 C 0.03236 0.20415 0.43538 0.0
C2707 C 0.0477 0.18924 0.4128 0.0
C2708 C 0.0586 0.18914 0.39658 0.0
C2709 C 0.02874 0.1885 0.44438 0.0
C2710 C 0.03447 0.17289 0.43741 0.0
C2711 C 0.0438 0.17345 0.42165 0.0
C2712 C 0.02959 0.15553 0.44548 0.0
C2713 C 0.01821 0.18856 0.46092 0.0
C2714 C 0.03635 0.15398 0.46403 0.0
C2715 C 0.02965 0.13837 0.47226 0.0
C2716 C 0.01601 0.12416 0.46207 0.0
C2717 C 0.01011 0.12536 0.44318 0.0
C2718 C 0.01688 0.14083 0.43496 0.0
H2719 H 0.01215 0.20059 0.46261 0.0
H2720 H 0.00716 0.1761 0.45937 0.0
H2721 H 0.02746 0.18874 0.47397 0.0
H2722 H 0.0463 0.1651 0.47235 0.0
H2723 H 0.03436 0.13786 0.48685 0.0
H2724 H 0.56749 0.23131 0.23032 0.0
H2725 H 0.60032 0.23573 0.23818 0.0
H2726 H 0.60876 0.27915 0.20398 0.0
H2727 H 0.57569 0.27467 0.19579 0.0
H2728 H 0.62617 0.23304 0.21236 0.0
H2729 H 0.64168 0.30094 0.25488 0.0
H2730 H 0.61909 0.2865 0.25037 0.0
H2731 H 0.62814 0.29888 0.23238 0.0
C2732 C 0.57622 0.24201 0.2246 0.0
C2733 C 0.56871 0.25271 0.21247 0.0
C2734 C 0.59511 0.24444 0.22908 0.0
C2735 C 0.60718 0.25785 0.22184 0.0
C2736 C 0.59982 0.26884 0.20999 0.0
H2737 H 0.72624 0.28875 0.23161 0.0
H2738 H 0.69353 0.28579 0.22361 0.0
C2739 C 0.58084 0.26626 0.20529 0.0
C2740 C 0.62737 0.25977 0.22622 0.0
H2741 H 0.66671 0.2886 0.24848 0.0
C2742 C 0.635 0.24519 0.22028 0.0
C2743 C 0.63905 0.27558 0.2366 0.0
C2744 C 0.63166 0.29136 0.2441 0.0
C2745 C 0.65383 0.2461 0.22416 0.0
C2746 C 0.66549 0.26189 0.23459 0.0
C2747 C 0.65788 0.27649 0.24048 0.0
C2748 C 0.68557 0.2635 0.23948 0.0
C2749 C 0.66118 0.23026 0.21672 0.0
C2750 C 0.69223 0.25214 0.25133 0.0
C2751 C 0.71104 0.25398 0.2562 0.0
C2752 C 0.72379 0.26699 0.24908 0.0
C2753 C 0.71701 0.27834 0.2372 0.0
C2754 C 0.69821 0.27673 0.23263 0.0
H2755 H 0.65139 0.22104 0.20546 0.0
H2756 H 0.67414 0.23504 0.21108 0.0
H2757 H 0.66397 0.22234 0.22833 0.0
H2758 H 0.68287 0.24201 0.25712 0.0
H2759 H 0.71551 0.24528 0.26569 0.0
H2760 H 0.55602 0.84786 0.92057 0.0
H2761 H 0.55784 0.8785 0.93586 0.0
H2762 H 0.5471 0.89611 0.88174 0.0
H2763 H 0.54521 0.8652 0.86635 0.0
H2764 H 0.57788 0.91338 0.93416 0.0
H2765 H 0.50472 0.90624 0.90856 0.0
H2766 H 0.51555 0.88733 0.90688 0.0
H2767 H 0.51891 0.9037 0.89061 0.0
C2768 C 0.55473 0.85844 0.91188 0.0
C2769 C 0.55079 0.8542 0.89224 0.0
C2770 C 0.55562 0.87594 0.92065 0.0
C2771 C 0.55226 0.88961 0.91003 0.0
C2772 C 0.54947 0.88575 0.89029 0.0
H2773 H 0.5347 0.99666 0.95135 0.0
H2774 H 0.53976 0.97079 0.9314 0.0
C2775 C 0.54873 0.86817 0.88145 0.0
C2776 C 0.5505 0.90731 0.91989 0.0
H2777 H 0.51977 0.93334 0.92773 0.0
C2778 C 0.56522 0.9178 0.93262 0.0
C2779 C 0.53391 0.91307 0.91808 0.0
C2780 C 0.51729 0.90198 0.90544 0.0
C2781 C 0.56379 0.93376 0.94354 0.0
C2782 C 0.54714 0.93933 0.94194 0.0
C2783 C 0.53255 0.9291 0.92893 0.0
C2784 C 0.54437 0.95529 0.95418 0.0
C2785 C 0.58016 0.94459 0.95671 0.0
C2786 C 0.54527 0.95531 0.9737 0.0
C2787 C 0.54209 0.97001 0.98517 0.0
C2788 C 0.53775 0.98506 0.9775 0.0
C2789 C 0.53742 0.9852 0.95793 0.0
C2790 C 0.54042 0.9704 0.94641 0.0
H2791 H 0.59294 0.94121 0.95296 0.0
H2792 H 0.5813 0.95938 0.95662 0.0
H2793 H 0.5787 0.9415 0.97122 0.0
H2794 H 0.54827 0.94382 0.98009 0.0
H2795 H 0.54332 0.96959 7e-05 0.0
H2796 H 0.95987 0.72213 0.72221 0.0
H2797 H 0.93082 0.72667 0.7306 0.0
H2798 H 0.93842 0.77622 0.70535 0.0
H2799 H 0.96723 0.7712 0.69604 0.0
H2800 H 0.92079 0.7498 0.75252 0.0
H2801 H 0.88828 0.75544 0.6817 0.0
H2802 H 0.90964 0.74881 0.68529 0.0
H2803 H 0.90886 0.77243 0.68877 0.0
C2804 C 0.95538 0.73399 0.71829 0.0
C2805 C 0.96604 0.74622 0.70828 0.0
C2806 C 0.93863 0.7366 0.72318 0.0
C2807 C 0.93188 0.75162 0.71838 0.0
C2808 C 0.94273 0.76414 0.70875 0.0
H2809 H 0.83538 0.79133 0.74228 0.0
H2810 H 0.86456 0.78735 0.73365 0.0
C2811 C 0.95942 0.76136 0.70357 0.0
C2812 C 0.91381 0.75415 0.72389 0.0
H2813 H 0.87271 0.76253 0.70723 0.0
C2814 C 0.9103 0.75246 0.74249 0.0
C2815 C 0.8998 0.75764 0.71102 0.0
C2816 C 0.90173 0.7585 0.69055 0.0
C2817 C 0.89363 0.75436 0.74853 0.0
C2818 C 0.87975 0.75796 0.7357 0.0
C2819 C 0.88323 0.75978 0.71717 0.0
C2820 C 0.86169 0.76022 0.74126 0.0
C2821 C 0.89122 0.7529 0.76881 0.0
C2822 C 0.84992 0.74628 0.74832 0.0
C2823 C 0.83309 0.74861 0.75346 0.0
C2824 C 0.82753 0.76495 0.75169 0.0
C2825 C 0.83923 0.77871 0.74431 0.0
C2826 C 0.85597 0.77638 0.73917 0.0
H2827 H 0.90445 0.75472 0.77783 0.0
H2828 H 0.88403 0.76315 0.77435 0.0
H2829 H 0.88295 0.73923 0.76989 0.0
H2830 H 0.85367 0.73348 0.74972 0.0
H2831 H 0.82448 0.73762 0.7589 0.0
H2832 H 0.11863 0.00798 0.83155 0.0
H2833 H 0.10856 1.00184 0.86199 0.0
H2834 H 0.07898 0.04418 0.86001 0.0
H2835 H 0.08871 0.0503 0.82993 0.0
H2836 H 0.11367 0.02764 0.89645 0.0
H2837 H 0.04093 0.99948 0.86935 0.0
H2838 H 0.05858 1.00101 0.85437 0.0
H2839 H 0.05024 0.02072 0.86148 0.0
C2840 C 0.10989 0.01589 0.83756 0.0
C2841 C 0.10441 0.02956 0.82818 0.0
C2842 C 0.10419 0.0124 0.85496 0.0
C2843 C 0.09281 0.02239 0.86312 0.0
C2844 C 0.08748 0.03607 0.85383 0.0
H2845 H 0.03822 0.03789 0.95807 0.0
H2846 H 0.05085 0.03687 0.92848 0.0
C2847 C 0.09314 0.03959 0.8366 0.0
C2848 C 0.0866 0.01905 0.8815 0.0
H2849 H 0.04812 0.00903 0.90234 0.0
C2850 C 0.09938 0.02327 0.89779 0.0
C2851 C 0.06794 0.01345 0.88318 0.0
C2852 C 0.05362 0.00824 0.86616 0.0
C2853 C 0.09391 0.02302 0.91579 0.0
C2854 C 0.07516 0.01795 0.91748 0.0
C2855 C 0.06248 0.013 0.9011 0.0
C2856 C 0.06819 0.01881 0.93597 0.0
C2857 C 0.1082 0.02913 0.93278 0.0
C2858 C 0.07373 0.00906 0.9502 0.0
C2859 C 0.06672 0.00989 0.96736 0.0
C2860 C 0.05373 0.02014 0.97039 0.0
C2861 C 0.04814 0.02978 0.95612 0.0
C2862 C 0.05535 0.0292 0.93917 0.0
H2863 H 0.12119 0.03687 0.92911 0.0
H2864 H 0.10352 0.03776 0.94368 0.0
H2865 H 0.11096 0.01704 0.9389 0.0
H2866 H 0.08325 1.00057 0.94794 0.0
H2867 H 0.0711 1.00216 0.97804 0.0
H2868 H 0.7795 0.35223 0.5359 0.0
H2869 H 0.77179 0.33953 0.5643 0.0
H2870 H 0.75509 0.3881 0.58401 0.0
H2871 H 0.76271 0.4009 0.55537 0.0
H2872 H 0.78579 0.3822 0.60468 0.0
H2873 H 0.73128 0.31978 0.5946 0.0
H2874 H 0.74572 0.31997 0.57654 0.0
H2875 H 0.73235 0.33677 0.57872 0.0
C2876 C 0.77349 0.35989 0.54593 0.0
C2877 C 0.77202 0.37763 0.54371 0.0
C2878 C 0.76886 0.35253 0.56206 0.0
C2879 C 0.76281 0.36287 0.5762 0.0
C2880 C 0.75956 0.37988 0.57312 0.0
H2881 H 0.8005 0.34478 0.69021 0.0
H2882 H 0.78324 0.3567 0.66596 0.0
C2883 C 0.76398 0.38718 0.55682 0.0
C2884 C 0.76486 0.35798 0.59539 0.0
H2885 H 0.75651 0.32138 0.61923 0.0
C2886 C 0.77898 0.36917 0.60823 0.0
C2887 C 0.75607 0.34093 0.59975 0.0
C2888 C 0.74038 0.32875 0.58671 0.0
C2889 C 0.78581 0.36301 0.62449 0.0
C2890 C 0.7778 0.34541 0.62826 0.0
C2891 C 0.76267 0.33482 0.6162 0.0
C2892 C 0.78626 0.33706 0.64335 0.0
C2893 C 0.80253 0.37474 0.63655 0.0
C2894 C 0.79308 0.32167 0.63871 0.0
C2895 C 0.80258 0.31454 0.65259 0.0
C2896 C 0.80551 0.32276 0.67132 0.0
C2897 C 0.79834 0.338 0.67594 0.0
C2898 C 0.78862 0.34495 0.66209 0.0
H2899 H 0.8091 0.38627 0.62954 0.0
H2900 H 0.79865 0.38044 0.64986 0.0
H2901 H 0.81268 0.36665 0.64008 0.0
H2902 H 0.79137 0.31541 0.62427 0.0
H2903 H 0.80759 0.30258 0.64864 0.0
H2904 H 0.41775 0.98138 0.33787 0.0
H2905 H 0.43045 0.98773 0.3709 0.0
H2906 H 0.41782 0.04052 0.37407 0.0
H2907 H 0.40512 0.03436 0.34082 0.0
H2908 H 0.45383 0.04132 0.38503 0.0
H2909 H 0.41033 0.99162 0.42088 0.0
H2910 H 0.41589 0.98094 0.39968 0.0
H2911 H 0.40262 0.99788 0.39844 0.0
C2912 C 0.41741 0.99424 0.34562 0.0
C2913 C 0.41065 0.00745 0.33672 0.0
C2914 C 0.42444 0.99774 0.36456 0.0
C2915 C 0.42474 0.01445 0.37491 0.0
C2916 C 0.41745 0.02747 0.36628 0.0
H2917 H 0.49448 0.04803 0.48269 0.0
H2918 H 0.47051 0.04732 0.45712 0.0
C2919 C 0.41033 0.02395 0.3473 0.0
C2920 C 0.43523 0.0191 0.39373 0.0
H2921 H 0.44214 1.00147 0.43468 0.0
C2922 C 0.45105 0.03298 0.39614 0.0
C2923 C 0.43144 0.00819 0.40814 0.0
C2924 C 0.41402 0.99395 0.40673 0.0
C2925 C 0.464 0.03523 0.41199 0.0
C2926 C 0.46086 0.02331 0.42559 0.0
C2927 C 0.44449 0.01031 0.4239 0.0
C2928 C 0.47499 0.02348 0.44107 0.0
C2929 C 0.48143 0.04952 0.41363 0.0
C2930 C 0.48532 0.01028 0.44023 0.0
C2931 C 0.49904 0.01059 0.45481 0.0
C2932 C 0.5023 0.02401 0.47037 0.0
C2933 C 0.492 0.03732 0.47099 0.0
C2934 C 0.47838 0.03702 0.45644 0.0
H2935 H 0.48214 0.05708 0.40127 0.0
H2936 H 0.48261 0.05936 0.42642 0.0
H2937 H 0.49326 0.04313 0.41514 0.0
H2938 H 0.48278 0.9998 0.42828 0.0
H2939 H 0.5068 1.00019 0.45413 0.0
H2940 H 0.7938 0.68594 0.06839 0.0
H2941 H 0.79832 0.69703 0.10213 0.0
H2942 H 0.76839 0.73786 0.09108 0.0
H2943 H 0.76432 0.72737 0.05767 0.0
H2944 H 0.79744 0.75139 0.11727 0.0
H2945 H 0.7585 0.68612 0.13503 0.0
H2946 H 0.7781 0.68455 0.12373 0.0
H2947 H 0.75915 0.69084 0.11113 0.0
C2948 C 0.78843 0.69745 0.07315 0.0
C2949 C 0.77854 0.70563 0.0603 0.0
C2950 C 0.79086 0.70366 0.09246 0.0
C2951 C 0.78331 0.71803 0.09921 0.0
C2952 C 0.77424 0.7267 0.08628 0.0
H2953 H 0.75917 0.77166 0.20123 0.0
H2954 H 0.76273 0.76115 0.169 0.0
C2955 C 0.7719 0.72061 0.06711 0.0
C2956 C 0.78414 0.72388 0.11965 0.0
H2957 H 0.7696 0.70975 0.15995 0.0
C2958 C 0.79146 0.74224 0.12662 0.0
C2959 C 0.77624 0.71198 0.13187 0.0
C2960 C 0.76741 0.69231 0.1251 0.0
C2961 C 0.79089 0.74905 0.14533 0.0
C2962 C 0.78268 0.73723 0.15739 0.0
C2963 C 0.77584 0.71878 0.15063 0.0
C2964 C 0.78068 0.74381 0.17695 0.0
C2965 C 0.79907 0.76885 0.15206 0.0
C2966 C 0.78928 0.73729 0.19211 0.0
C2967 C 0.7871 0.74313 0.21054 0.0
C2968 C 0.77621 0.75556 0.2142 0.0
C2969 C 0.76763 0.76209 0.19896 0.0
C2970 C 0.76976 0.75619 0.18051 0.0
H2971 H 0.80845 0.77508 0.14256 0.0
H2972 H 0.78803 0.77629 0.15254 0.0
H2973 H 0.8066 0.77063 0.16644 0.0
H2974 H 0.79773 0.72771 0.18967 0.0
H2975 H 0.79397 0.73784 0.22191 0.0
H2976 H 0.11609 0.01177 0.71504 0.0
H2977 H 0.1046 0.00862 0.68139 0.0
H2978 H 0.06058 0.03305 0.69467 0.0
H2979 H 0.07186 0.03629 0.72802 0.0
H2980 H 0.06866 0.99216 0.65922 0.0
H2981 H 0.0888 0.06693 0.66072 0.0
H2982 H 0.09734 0.05525 0.67903 0.0
H2983 H 0.07494 0.05953 0.67831 0.0
C2984 C 0.10376 0.01612 0.7108 0.0
C2985 C 0.09501 0.02446 0.72424 0.0
C2986 C 0.09725 0.01438 0.69157 0.0
C2987 C 0.08195 0.02096 0.68553 0.0
C2988 C 0.0726 0.0282 0.69899 0.0
H2989 H 0.02601 0.03682 0.57866 0.0
H2990 H 0.03587 0.03579 0.61195 0.0
C2991 C 0.07906 0.02997 0.71809 0.0
C2992 C 0.07618 0.02127 0.66524 0.0
H2993 H 0.07094 0.05028 0.63296 0.0
C2994 C 0.06925 0.00484 0.65342 0.0
C2995 C 0.07696 0.03785 0.65771 0.0
C2996 C 0.08505 0.05591 0.66952 0.0
C2997 C 0.06268 0.00457 0.63437 0.0
C2998 C 0.06328 0.02117 0.62692 0.0
C2999 C 0.07033 0.03758 0.63872 0.0
C3000 C 0.05721 0.02183 0.60677 0.0
C3001 C 0.05478 0.98652 0.62246 0.0
C3002 C 0.06617 0.01475 0.59284 0.0
C3003 C 0.06079 0.01562 0.5739 0.0
C3004 C 0.04621 0.02349 0.56837 0.0
C3005 C 0.03733 0.03076 0.58237 0.0
C3006 C 0.04289 0.03007 0.60141 0.0
H3007 H 0.05097 0.97547 0.63119 0.0
H3008 H 0.04259 0.98714 0.61279 0.0
H3009 H 0.06504 0.98299 0.61383 0.0
H3010 H 0.07752 0.00871 0.59662 0.0
H3011 H 0.0682 0.01018 0.56361 0.0
H3012 H 0.77566 0.40557 0.4449 0.0
H3013 H 0.76991 0.39379 0.41148 0.0
H3014 H 0.80995 0.36185 0.41996 0.0
H3015 H 0.81603 0.3737 0.45326 0.0
H3016 H 0.81027 0.37899 0.38622 0.0
H3017 H 0.74159 0.34043 0.39646 0.0
H3018 H 0.74698 0.36461 0.40297 0.0
H3019 H 0.75879 0.3508 0.41601 0.0
C3020 C 0.78337 0.39616 0.43961 0.0
C3021 C 0.79608 0.39028 0.45172 0.0
C3022 C 0.78007 0.38951 0.42056 0.0
C3023 C 0.78935 0.37683 0.41348 0.0
C3024 C 0.80268 0.37165 0.4253 0.0
H3025 H 0.79377 0.29503 0.33084 0.0
H3026 H 0.79586 0.31797 0.35765 0.0
C3027 C 0.80606 0.37835 0.44431 0.0
C3028 C 0.78419 0.36755 0.39422 0.0
H3029 H 0.75178 0.33368 0.36775 0.0
C3030 C 0.79736 0.36934 0.38198 0.0
C3031 C 0.76727 0.35505 0.38887 0.0
C3032 C 0.75283 0.35244 0.40174 0.0
C3033 C 0.7944 0.35816 0.36482 0.0
C3034 C 0.778 0.34487 0.3601 0.0
C3035 C 0.76434 0.34392 0.37167 0.0
C3036 C 0.77569 0.33054 0.34434 0.0
C3037 C 0.80906 0.36008 0.35219 0.0
C3038 C 0.76302 0.32968 0.32853 0.0
C3039 C 0.76165 0.3165 0.31325 0.0
C3040 C 0.77289 0.30404 0.31376 0.0
C3041 C 0.78486 0.30438 0.33009 0.0
C3042 C 0.78625 0.31758 0.34529 0.0
H3043 H 0.81859 0.37361 0.35536 0.0
H3044 H 0.81699 0.3496 0.3543 0.0
H3045 H 0.80306 0.35801 0.33718 0.0
H3046 H 0.75464 0.33952 0.32781 0.0
H3047 H 0.75227 0.31647 0.30082 0.0
H3048 H 0.41872 0.04634 0.24467 0.0
H3049 H 0.43221 0.05588 0.21679 0.0
H3050 H 0.44021 1.00194 0.20268 0.0
H3051 H 0.42712 0.99238 0.23025 0.0
H3052 H 0.4719 0.04197 0.20529 0.0
H3053 H 0.40675 0.02584 0.15727 0.0
H3054 H 0.40867 0.03504 0.18172 0.0
H3055 H 0.40827 0.01148 0.17544 0.0
C3056 C 0.42352 0.03661 0.23567 0.0
C3057 C 0.42199 0.01865 0.23965 0.0
C3058 C 0.43115 0.04207 0.21983 0.0
C3059 C 0.43705 0.02954 0.20785 0.0
C3060 C 0.43571 0.01174 0.21192 0.0
H3061 H 0.4677 0.9766 0.12433 0.0
H3062 H 0.45505 0.99274 0.14872 0.0
C3063 C 0.42832 0.00635 0.22771 0.0
C3064 C 0.44464 0.03429 0.19076 0.0
H3065 H 0.43329 0.02143 0.14372 0.0
C3066 C 0.46358 0.0384 0.19167 0.0
C3067 C 0.43359 0.02954 0.1732 0.0
C3068 C 0.41316 0.02534 0.17174 0.0
C3069 C 0.47178 0.03558 0.17553 0.0
C3070 C 0.4606 0.02864 0.15828 0.0
C3071 C 0.44175 0.02671 0.15705 0.0
C3072 C 0.46771 0.0195 0.14282 0.0
C3073 C 0.49213 0.03796 0.17734 0.0
C3074 C 0.47897 0.02933 0.13156 0.0
C3075 C 0.48633 0.02013 0.11772 0.0
C3076 C 0.48249 1.00103 0.11505 0.0
C3077 C 0.47106 0.9913 0.12628 0.0
C3078 C 0.4637 1.00048 0.14004 0.0
H3079 H 0.49885 0.04358 0.19181 0.0
H3080 H 0.49552 0.02467 0.17353 0.0
H3081 H 0.49776 0.04724 0.16748 0.0
H3082 H 0.48218 0.04403 0.13361 0.0
H3083 H 0.49521 0.02793 0.10927 0.0
H3084 H 0.78368 0.72802 0.9681 0.0
H3085 H 0.7885 0.7385 0.93779 0.0
H3086 H 0.78069 0.68306 0.91236 0.0
H3087 H 0.77687 0.6726 0.9431 0.0
H3088 H 0.80558 0.70521 0.89653 0.0
H3089 H 0.74531 0.73477 0.89958 0.0
H3090 H 0.76269 0.74436 0.91895 0.0
H3091 H 0.7517 0.72062 0.91646 0.0
C3092 C 0.78341 0.71812 0.95611 0.0
C3093 C 0.77981 0.69953 0.95785 0.0
C3094 C 0.78596 0.72409 0.93876 0.0
C3095 C 0.78429 0.71155 0.92263 0.0
C3096 C 0.78185 0.69299 0.92456 0.0
H3097 H 0.75395 0.73815 0.81138 0.0
H3098 H 0.75531 0.72571 0.84116 0.0
C3099 C 0.77973 0.68702 0.94211 0.0
C3100 C 0.784 0.71778 0.90374 0.0
H3101 H 0.76291 0.74234 0.87516 0.0
C3102 C 0.79621 0.71326 0.8918 0.0
C3103 C 0.77149 0.72797 0.89736 0.0
C3104 C 0.75693 0.73205 0.90867 0.0
C3105 C 0.79646 0.71892 0.87386 0.0
C3106 C 0.78455 0.72986 0.8679 0.0
C3107 C 0.77221 0.73415 0.87975 0.0
C3108 C 0.78418 0.73664 0.84926 0.0
C3109 C 0.80918 0.71271 0.86133 0.0
C3110 C 0.79993 0.74697 0.84375 0.0
C3111 C 0.79925 0.75368 0.82641 0.0
C3112 C 0.78273 0.75061 0.81443 0.0
C3113 C 0.76697 0.74046 0.82006 0.0
C3114 C 0.7677 0.73349 0.83722 0.0
H3115 H 0.81304 0.70022 0.86542 0.0
H3116 H 0.80295 0.70998 0.84638 0.0
H3117 H 0.82181 0.72347 0.86263 0.0
H3118 H 0.81273 0.75002 0.85294 0.0
H3119 H 0.81169 0.76119 0.82238 0.0
H3120 H 0.81233 0.08328 -0.00162 0.0
H3121 H 0.8403 0.07255 0.00233 0.0
H3122 H 0.84691 0.08941 0.06206 0.0
H3123 H 0.81911 0.10071 0.05817 0.0
H3124 H 0.87786 0.10031 0.04796 0.0
H3125 H 0.85002 0.0279 0.02264 0.0
H3126 H 0.84244 0.04126 0.00574 0.0
H3127 H 0.83572 0.04309 0.02891 0.0
C3128 C 0.81959 0.08451 0.01239 0.0
C3129 C 0.81351 0.09274 0.02796 0.0
C3130 C 0.8355 0.07825 0.01465 0.0
C3131 C 0.84539 0.0798 0.03256 0.0
C3132 C 0.83932 0.08792 0.04818 0.0
H3133 H 0.93338 0.02868 0.0126 0.0
H3134 H 0.91163 0.0371 0.032 0.0
C3135 C 0.82346 0.09435 0.0459 0.0
C3136 C 0.8627 0.074 0.03447 0.0
H3137 H 0.88133 0.03996 0.01746 0.0
C3138 C 0.87868 0.08695 0.04178 0.0
C3139 C 0.86372 0.0564 0.02708 0.0
C3140 C 0.847 0.04133 0.02088 0.0
C3141 C 0.89577 0.0833 0.04006 0.0
C3142 C 0.89672 0.06654 0.03022 0.0
C3143 C 0.88072 0.05298 0.02472 0.0
C3144 C 0.91343 0.0636 0.02293 0.0
C3145 C 0.91251 0.09767 0.04826 0.0
C3146 C 0.92239 0.07604 0.01205 0.0
C3147 C 0.93537 0.07153 0.00141 0.0
C3148 C 0.93918 0.05422 0.00088 0.0
C3149 C 0.931 0.04221 0.01271 0.0
C3150 C 0.9184 0.04695 0.02376 0.0
H3151 H 0.91029 0.105 0.0616 0.0
H3152 H 0.92458 0.09181 0.05102 0.0
H3153 H 0.91535 0.10781 0.03834 0.0
H3154 H 0.91852 0.08879 0.01073 0.0
H3155 H 0.94174 0.08129 0.99288 0.0
H3156 H 0.35561 0.41087 0.06081 0.0
H3157 H 0.38258 0.43409 0.05835 0.0
H3158 H 0.35358 0.45136 0.01138 0.0
H3159 H 0.32622 0.4284 0.01426 0.0
H3160 H 0.39853 0.43187 0.02627 0.0
H3161 H 0.38276 0.49973 0.04026 0.0
H3162 H 0.36924 0.47954 0.0472 0.0
H3163 H 0.36688 0.48359 0.0231 0.0
C3164 C 0.35483 0.42001 0.05035 0.0
C3165 C 0.33892 0.41787 0.0377 0.0
C3166 C 0.37023 0.43324 0.04893 0.0
C3167 C 0.3701 0.44444 0.03468 0.0
C3168 C 0.35389 0.44308 0.02269 0.0
H3169 H 0.46466 0.5142 -0.00125 0.0
H3170 H 0.43331 0.49868 0.0013 0.0
C3171 C 0.33829 0.42997 0.02432 0.0
C3172 C 0.38757 0.45558 0.03103 0.0
H3173 H 0.41132 0.49897 0.03038 0.0
C3174 C 0.4013 0.44655 0.02717 0.0
C3175 C 0.39104 0.47468 0.03184 0.0
C3176 C 0.37677 0.48503 0.03595 0.0
C3177 C 0.41854 0.45608 0.02456 0.0
C3178 C 0.42229 0.47524 0.0262 0.0
C3179 C 0.4084 0.48429 0.02932 0.0
C3180 C 0.44083 0.48597 0.02551 0.0
C3181 C 0.43258 0.4455 0.02006 0.0
C3182 C 0.45525 0.48437 0.03862 0.0
C3183 C 0.47302 0.493 0.03706 0.0
C3184 C 0.47666 0.50366 0.02259 0.0
C3185 C 0.46215 0.50607 0.01005 0.0
C3186 C 0.44431 0.49722 0.01148 0.0
H3187 H 0.42613 0.43134 0.01369 0.0
H3188 H 0.44142 0.45206 0.01028 0.0
H3189 H 0.44127 0.44484 0.03324 0.0
H3190 H 0.45278 0.47611 0.04982 0.0
H3191 H 0.48395 0.49114 0.04708 0.0
H3192 H 0.41182 0.57286 0.7598 0.0
H3193 H 0.39884 0.59964 0.76308 0.0
H3194 H 0.34488 0.56523 0.75349 0.0
H3195 H 0.35768 0.53837 0.75036 0.0
H3196 H 0.37386 0.61118 0.73734 0.0
H3197 H 0.34608 0.59683 0.80364 0.0
H3198 H 0.36265 0.58564 0.79466 0.0
H3199 H 0.33917 0.57859 0.78462 0.0
C3200 C 0.39719 0.57097 0.75841 0.0
C3201 C 0.38579 0.55345 0.75496 0.0
C3202 C 0.38981 0.58629 0.76024 0.0
C3203 C 0.37093 0.58438 0.75878 0.0
C3204 C 0.3595 0.56697 0.75498 0.0
H3205 H 0.30492 0.66364 0.77719 0.0
H3206 H 0.31481 0.63595 0.7673 0.0
C3207 C 0.36686 0.55164 0.75311 0.0
C3208 C 0.36321 0.60063 0.76139 0.0
H3209 H 0.3389 0.6217 0.78989 0.0
C3210 C 0.3662 0.6135 0.74881 0.0
C3211 C 0.3532 0.60356 0.77635 0.0
C3212 C 0.35018 0.59053 0.79071 0.0
C3213 C 0.35934 0.62924 0.75074 0.0
C3214 C 0.34952 0.63226 0.76584 0.0
C3215 C 0.34635 0.61928 0.77827 0.0
C3216 C 0.34326 0.64926 0.7697 0.0
C3217 C 0.3625 0.64239 0.73653 0.0
C3218 C 0.35596 0.66592 0.77413 0.0
C3219 C 0.35035 0.68174 0.77969 0.0
C3220 C 0.33194 0.68118 0.78109 0.0
C3221 C 0.31917 0.66455 0.7761 0.0
C3222 C 0.3248 0.64871 0.77054 0.0
H3223 H 0.36552 0.63578 0.72317 0.0
H3224 H 0.35051 0.64828 0.73345 0.0
H3225 H 0.37434 0.65365 0.74226 0.0
H3226 H 0.3703 0.66661 0.7739 0.0
H3227 H 0.36048 0.69437 0.78324 0.0
H3228 H 0.20804 0.60053 0.56272 0.0
H3229 H 0.17767 0.58103 0.55394 0.0
H3230 H 0.19402 0.55869 0.50299 0.0
H3231 H 0.2247 0.5779 0.51202 0.0
H3232 H 0.16538 0.58977 0.51134 0.0
H3233 H 0.15206 0.51846 0.52777 0.0
H3234 H 0.16765 0.5361 0.54391 0.0
H3235 H 0.17366 0.5295 0.52136 0.0
C3236 C 0.20542 0.59066 0.55023 0.0
C3237 C 0.21841 0.59066 0.53791 0.0
C3238 C 0.18814 0.57959 0.54523 0.0
C3239 C 0.18379 0.56868 0.5278 0.0
C3240 C 0.19736 0.56699 0.51656 0.0
H3241 H 0.06943 0.52265 0.48996 0.0
H3242 H 0.10146 0.53226 0.48593 0.0
C3243 C 0.21482 0.57788 0.52175 0.0
C3244 C 0.16471 0.56322 0.51964 0.0
H3245 H 0.12657 0.5301 0.51795 0.0
C3246 C 0.15686 0.57659 0.51233 0.0
C3247 C 0.15395 0.54606 0.52102 0.0
C3248 C 0.16215 0.53158 0.52889 0.0
C3249 C 0.1381 0.57353 0.50738 0.0
C3250 C 0.12717 0.55674 0.50988 0.0
C3251 C 0.13516 0.54294 0.51599 0.0
C3252 C 0.10746 0.55403 0.50902 0.0
C3253 C 0.13002 0.5885 0.50042 0.0
C3254 C 0.10038 0.56354 0.523 0.0
C3255 C 0.08218 0.55808 0.52529 0.0
C3256 C 0.07104 0.54328 0.51349 0.0
C3257 C 0.07784 0.53444 0.49884 0.0
C3258 C 0.09604 0.53984 0.49657 0.0
H3259 H 0.14008 0.59826 0.49426 0.0
H3260 H 0.11791 0.5829 0.48973 0.0
H3261 H 0.12567 0.59607 0.5124 0.0
H3262 H 0.10919 0.57426 0.53298 0.0
H3263 H 0.07707 0.5647 0.5369 0.0
H3264 H 0.6856 0.97726 0.7281 0.0
H3265 H 0.69453 0.94847 0.72983 0.0
H3266 H 0.75018 0.97712 0.74755 0.0
H3267 H 0.74138 0.00614 0.74593 0.0
H3268 H 0.72447 0.93155 0.71597 0.0
H3269 H 0.72872 0.95179 0.79305 0.0
H3270 H 0.71719 0.96257 0.77589 0.0
H3271 H 0.74155 0.96786 0.78017 0.0
C3272 C 0.69983 0.97743 0.73189 0.0
C3273 C 0.71279 0.99387 0.73723 0.0
C3274 C 0.70489 0.961 0.73272 0.0
C3275 C 0.72291 0.96087 0.73894 0.0
C3276 C 0.73619 0.97715 0.7427 0.0
H3277 H 0.77305 0.88109 0.78124 0.0
H3278 H 0.76586 0.90522 0.76425 0.0
C3279 C 0.73116 0.99364 0.74179 0.0
C3280 C 0.72705 0.94412 0.74454 0.0
H3281 H 0.73516 0.9237 0.78336 0.0
C3282 C 0.72691 0.92977 0.73066 0.0
C3283 C 0.7298 0.94195 0.76376 0.0
C3284 C 0.72921 0.95677 0.77914 0.0
C3285 C 0.72987 0.91322 0.73564 0.0
C3286 C 0.73284 0.91123 0.75482 0.0
C3287 C 0.73282 0.92549 0.76865 0.0
C3288 C 0.73682 0.89474 0.7612 0.0
C3289 C 0.72996 0.898 0.72059 0.0
C3290 C 0.72272 0.88092 0.76485 0.0
C3291 C 0.72674 0.867 0.7745 0.0
C3292 C 0.74489 0.86694 0.78069 0.0
C3293 C 0.75894 0.8806 0.77641 0.0
C3294 C 0.75491 0.89437 0.76669 0.0
H3295 H 0.72725 0.90169 0.70624 0.0
H3296 H 0.74336 0.89431 0.72223 0.0
H3297 H 0.71951 0.88581 0.72221 0.0
H3298 H 0.70866 0.88133 0.76088 0.0
H3299 H 0.7157 0.8565 0.77742 0.0
H3300 H 0.74085 0.90561 0.54468 0.0
H3301 H 0.7149 0.91992 0.54513 0.0
H3302 H 0.72246 0.9359 0.49049 0.0
H3303 H 0.74841 0.92169 0.48986 0.0
H3304 H 0.71289 0.95817 0.53945 0.0
H3305 H 0.66886 0.90421 0.48624 0.0
H3306 H 0.68908 0.90101 0.49979 0.0
H3307 H 0.69092 0.9138 0.48026 0.0
C3308 C 0.73705 0.91222 0.53277 0.0
C3309 C 0.74663 0.91239 0.51715 0.0
C3310 C 0.72228 0.92045 0.53312 0.0
C3311 C 0.71676 0.92882 0.5178 0.0
C3312 C 0.72649 0.92937 0.50239 0.0
H3313 H 0.64151 0.99722 0.49813 0.0
H3314 H 0.66878 0.98611 0.50718 0.0
C3315 C 0.74131 0.92125 0.50206 0.0
C3316 C 0.70037 0.93635 0.51748 0.0
H3317 H 0.65764 0.93026 0.49419 0.0
C3318 C 0.70073 0.95206 0.52967 0.0
C3319 C 0.6845 0.92814 0.5049 0.0
C3320 C 0.68315 0.91077 0.49213 0.0
C3321 C 0.68569 0.9601 0.5292 0.0
C3322 C 0.67007 0.95227 0.51606 0.0
C3323 C 0.66963 0.93629 0.50423 0.0
C3324 C 0.65403 0.9604 0.51384 0.0
C3325 C 0.68662 0.97679 0.54282 0.0
C3326 C 0.63672 0.94975 0.51481 0.0
C3327 C 0.62119 0.95597 0.50943 0.0
C3328 C 0.62268 0.97296 0.50301 0.0
C3329 C 0.64001 0.98412 0.50317 0.0
C3330 C 0.65559 0.97781 0.5084 0.0
H3331 H 0.69687 0.97783 0.55532 0.0
H3332 H 0.69065 0.98903 0.53575 0.0
H3333 H 0.67323 0.9768 0.54758 0.0
H3334 H 0.6352 0.93629 0.51898 0.0
H3335 H 0.60797 0.9472 0.50962 0.0
H3336 H 0.38072 0.45912 0.72217 0.0
H3337 H 0.35766 0.43089 0.72188 0.0
H3338 H 0.36872 0.43557 0.78224 0.0
H3339 H 0.39177 0.46365 0.7825 0.0
H3340 H 0.36911 0.40012 0.73975 0.0
H3341 H 0.31121 0.42202 0.76864 0.0
H3342 H 0.32694 0.43658 0.75662 0.0
H3343 H 0.33371 0.43277 0.78017 0.0
C3344 C 0.37773 0.45437 0.73536 0.0
C3345 C 0.38765 0.46357 0.75239 0.0
C3346 C 0.36469 0.43826 0.73519 0.0
C3347 C 0.3614 0.4313 0.75206 0.0
C3348 C 0.37084 0.44092 0.76913 0.0
H3349 H 0.30091 0.3354 0.78938 0.0
H3350 H 0.31712 0.36598 0.7853 0.0
C3351 C 0.38393 0.45693 0.76928 0.0
C3352 C 0.34972 0.41303 0.75181 0.0
H3353 H 0.31054 0.39064 0.76569 0.0
C3354 C 0.35619 0.39796 0.74521 0.0
C3355 C 0.33309 0.4104 0.75924 0.0
C3356 C 0.32568 0.42626 0.7665 0.0
C3357 C 0.34676 0.38022 0.74645 0.0
C3358 C 0.32996 0.37749 0.75379 0.0
C3359 C 0.32335 0.39266 0.76002 0.0
C3360 C 0.31942 0.3591 0.75591 0.0
C3361 C 0.35545 0.36476 0.74075 0.0
C3362 C 0.31492 0.34513 0.7407 0.0
C3363 C 0.30623 0.32758 0.74323 0.0
C3364 C 0.30116 0.32395 0.76077 0.0
C3365 C 0.30465 0.33804 0.7757 0.0
C3366 C 0.3139 0.35545 0.77335 0.0
H3367 H 0.37038 0.36946 0.7412 0.0
H3368 H 0.35284 0.35397 0.75001 0.0
H3369 H 0.34978 0.35878 0.72609 0.0
H3370 H 0.31834 0.3477 0.72693 0.0
H3371 H 0.30344 0.31685 0.7315 0.0
H3372 H 0.17909 0.59145 0.25519 0.0
H3373 H 0.19224 0.62393 0.26076 0.0
H3374 H 0.24431 0.61368 0.28052 0.0
H3375 H 0.23119 0.58084 0.27453 0.0
H3376 H 0.20738 0.6436 0.2949 0.0
H3377 H 0.25647 0.64934 0.24287 0.0
H3378 H 0.23867 0.62932 0.24243 0.0
H3379 H 0.25897 0.63331 0.25901 0.0
C3380 C 0.19337 0.5961 0.26064 0.0
C3381 C 0.20415 0.58376 0.26464 0.0
C3382 C 0.20083 0.61462 0.2638 0.0
C3383 C 0.21917 0.6211 0.2711 0.0
C3384 C 0.23015 0.60883 0.27469 0.0
H3385 H 0.28065 0.73155 0.29667 0.0
H3386 H 0.26625 0.70143 0.30383 0.0
C3387 C 0.22269 0.59017 0.27129 0.0
C3388 C 0.22645 0.64078 0.27536 0.0
H3389 H 0.25657 0.67595 0.26276 0.0
C3390 C 0.21823 0.65069 0.28799 0.0
C3391 C 0.24049 0.64988 0.26617 0.0
C3392 C 0.24908 0.63998 0.25173 0.0
C3393 C 0.22356 0.66963 0.29144 0.0
C3394 C 0.23748 0.67862 0.28221 0.0
C3395 C 0.24601 0.66875 0.26996 0.0
C3396 C 0.24245 0.69838 0.28339 0.0
C3397 C 0.21425 0.68005 0.30461 0.0
C3398 C 0.23324 0.70672 0.27023 0.0
C3399 C 0.24151 0.72369 0.26598 0.0
C3400 C 0.25882 0.7324 0.27513 0.0
C3401 C 0.26713 0.72499 0.28973 0.0
C3402 C 0.25895 0.7079 0.29383 0.0
H3403 H 0.20439 0.67098 0.31167 0.0
H3404 H 0.2246 0.68916 0.31544 0.0
H3405 H 0.20697 0.68869 0.29666 0.0
H3406 H 0.22059 0.69933 0.26192 0.0
H3407 H 0.23512 0.72929 0.25453 0.0
H3408 H 0.52438 0.7095 0.44197 0.0
H3409 H 0.52944 0.68024 0.45038 0.0
H3410 H 0.49151 0.68025 0.49049 0.0
H3411 H 0.48636 0.7092 0.48221 0.0
H3412 H 0.54177 0.66918 0.48499 0.0
H3413 H 0.47137 0.63084 0.45895 0.0
H3414 H 0.48031 0.65324 0.45311 0.0
H3415 H 0.47267 0.65047 0.47556 0.0
C3416 C 0.51715 0.70332 0.45263 0.0
C3417 C 0.50487 0.71189 0.46129 0.0
C3418 C 0.52006 0.68652 0.45745 0.0
C3419 C 0.51064 0.67767 0.47089 0.0
C3420 C 0.49871 0.68642 0.47981 0.0
H3421 H 0.53161 0.58784 0.53113 0.0
H3422 H 0.52898 0.61731 0.52178 0.0
C3423 C 0.49586 0.70317 0.47509 0.0
C3424 C 0.51315 0.6594 0.47567 0.0
H3425 H 0.49 0.61561 0.47693 0.0
C3426 C 0.53044 0.65748 0.48314 0.0
C3427 C 0.49848 0.64389 0.47321 0.0
C3428 C 0.47969 0.64459 0.46461 0.0
C3429 C 0.53333 0.64082 0.48853 0.0
C3430 C 0.51855 0.62548 0.48652 0.0
C3431 C 0.50136 0.62729 0.47867 0.0
C3432 C 0.52064 0.60744 0.49227 0.0
C3433 C 0.55227 0.63968 0.49617 0.0
C3434 C 0.51668 0.59177 0.47898 0.0
C3435 C 0.51852 0.57487 0.48428 0.0
C3436 C 0.52402 0.57301 0.50312 0.0
C3437 C 0.52768 0.58867 0.51645 0.0
C3438 C 0.52613 0.60563 0.5111 0.0
H3439 H 0.56273 0.65106 0.49276 0.0
H3440 H 0.55342 0.64033 0.51168 0.0
H3441 H 0.55525 0.62666 0.4905 0.0
H3442 H 0.51234 0.59265 0.46438 0.0
H3443 H 0.51573 0.56327 0.47352 0.0
H3444 H 0.59 0.27916 0.66026 0.0
H3445 H 0.61535 0.27709 0.68366 0.0
H3446 H 0.65362 0.30279 0.64941 0.0
H3447 H 0.62858 0.30471 0.62599 0.0
H3448 H 0.64862 0.25959 0.67127 0.0
H3449 H 0.66616 0.33041 0.70771 0.0
H3450 H 0.64327 0.31937 0.69718 0.0
H3451 H 0.6602 0.32684 0.68253 0.0
C3452 C 0.6038 0.28461 0.65785 0.0
C3453 C 0.6072 0.29213 0.64121 0.0
C3454 C 0.61828 0.28333 0.67119 0.0
C3455 C 0.63639 0.28981 0.66829 0.0
C3456 C 0.63978 0.29775 0.65198 0.0
H3457 H 0.745 0.30107 0.72642 0.0
H3458 H 0.71771 0.3031 0.70629 0.0
C3459 C 0.6254 0.29884 0.63859 0.0
C3460 C 0.6519 0.28773 0.68178 0.0
H3461 H 0.68618 0.31167 0.71544 0.0
C3462 C 0.65673 0.2709 0.6811 0.0
C3463 C 0.66262 0.30256 0.69436 0.0
C3464 C 0.65788 0.32086 0.69568 0.0
C3465 C 0.67221 0.26859 0.6924 0.0
C3466 C 0.68297 0.28344 0.70507 0.0
C3467 C 0.67799 0.30025 0.70581 0.0
C3468 C 0.69963 0.28194 0.71736 0.0
C3469 C 0.67728 0.25045 0.69013 0.0
C3470 C 0.69868 0.2695 0.73053 0.0
C3471 C 0.71437 0.26818 0.74199 0.0
C3472 C 0.73143 0.27935 0.74069 0.0
C3473 C 0.73225 0.29201 0.72769 0.0
C3474 C 0.71657 0.29328 0.71621 0.0
H3475 H 0.67062 0.24215 0.67663 0.0
H3476 H 0.69222 0.25217 0.69075 0.0
H3477 H 0.67282 0.2428 0.70171 0.0
H3478 H 0.68576 0.26087 0.73206 0.0
H3479 H 0.71309 0.25832 0.75185 0.0
H3480 H 0.02442 0.32049 0.9442 0.0
H3481 H 0.02839 0.35331 0.9531 0.0
H3482 H 0.9932 0.34283 0.9955 0.0
H3483 H 0.98948 0.31029 0.98702 0.0
H3484 H 1.00338 0.37427 0.95199 0.0
H3485 H 0.03465 0.37978 0.02584 0.0
H3486 H 0.03251 0.35975 0.00929 0.0
H3487 H 0.01342 0.36337 0.02066 0.0
C3488 C 0.01781 0.32516 0.95567 0.0
C3489 C 0.00679 0.31255 0.96499 0.0
C3490 C 0.02 0.344 0.96069 0.0
C3491 C 0.01137 0.35077 0.97526 0.0
C3492 C 1.00045 0.33818 0.98459 0.0
H3493 H 1.00356 0.45855 0.02576 0.0
H3494 H 1.00002 0.42599 0.01668 0.0
C3495 C 0.99827 0.31943 0.97961 0.0
C3496 C 0.01308 0.37087 0.98022 0.0
H3497 H 0.02423 0.4054 0.01688 0.0
C3498 C 0.00809 0.38107 0.96617 0.0
C3499 C 0.01905 0.37993 -0.00126 0.0
C3500 C 0.02538 0.37019 0.01446 0.0
C3501 C 0.00853 0.39977 0.97013 0.0
C3502 C 0.01455 0.40884 0.98866 0.0
C3503 C 0.01955 0.39863 0.0027 0.0
C3504 C 0.01608 0.4289 0.99374 0.0
C3505 C 1.00195 0.40943 0.95446 0.0
C3506 C 0.02637 0.44171 0.98411 0.0
C3507 C 0.02815 0.46041 0.98911 0.0
C3508 C 0.01991 0.46702 0.00412 0.0
C3509 C 0.0098 0.45418 0.01393 0.0
C3510 C 0.0079 0.43543 0.0088 0.0
H3511 H 0.99254 0.39979 0.94323 0.0
H3512 H 0.99488 0.41989 0.95972 0.0
H3513 H 0.01377 0.41619 0.94803 0.0
H3514 H 0.03335 0.43728 0.97285 0.0
H3515 H 0.03622 0.4697 0.98125 0.0
H3516 H 0.00765 0.76293 0.14015 0.0
H3517 H 0.98137 0.75726 0.15739 0.0
H3518 H 0.9793 0.81361 0.15982 0.0
H3519 H 0.00537 0.81938 0.14252 0.0
H3520 H 0.97767 0.77338 0.1933 0.0
H3521 H 0.92692 0.78744 0.13892 0.0
H3522 H 0.94861 0.78355 0.13384 0.0
H3523 H 0.94707 0.80526 0.14512 0.0
C3524 C 1.00158 0.77412 0.1443 0.0
C3525 C 0.00863 0.79161 0.13985 0.0
C3526 C 0.98654 0.77084 0.15416 0.0
C3527 C 0.97813 0.78494 0.15963 0.0
C3528 C 0.98527 0.80243 0.1554 0.0
H3529 H 0.88928 0.79672 0.22304 0.0
H3530 H 0.91302 0.80027 0.20229 0.0
C3531 C 1.0003 0.80572 0.1456 0.0
C3532 C 0.96225 0.78153 0.17025 0.0
H3533 H 0.91776 0.78406 0.169 0.0
C3534 C 0.96453 0.77557 0.18793 0.0
C3535 C 0.94513 0.78454 0.16332 0.0
C3536 C 0.94167 0.7904 0.14419 0.0
C3537 C 0.95034 0.77299 0.19906 0.0
C3538 C 0.93314 0.7759 0.1921 0.0
C3539 C 0.93086 0.78178 0.17436 0.0
C3540 C 0.91751 0.77317 0.20317 0.0
C3541 C 0.9542 0.76778 0.21845 0.0
C3542 C 0.91153 0.75655 0.20995 0.0
C3543 C 0.89818 0.75464 0.22195 0.0
C3544 C 0.89015 0.76912 0.227 0.0
C3545 C 0.8952 0.78534 0.21924 0.0
C3546 C 0.9088 0.78737 0.20746 0.0
H3547 H 0.96897 0.77145 0.2237 0.0
H3548 H 0.94701 0.77448 0.22866 0.0
H3549 H 0.94951 0.75287 0.21794 0.0
H3550 H 0.91752 0.74518 0.20636 0.0
H3551 H 0.89444 0.74197 0.2277 0.0
H3552 H 0.49267 0.27972 0.11261 0.0
H3553 H 0.49823 0.30737 0.0975 0.0
H3554 H 0.53708 0.33459 0.14521 0.0
H3555 H 0.53196 0.30686 0.1602 0.0
H3556 H 0.4938 0.34132 0.10745 0.0
H3557 H 0.56666 0.34445 0.10304 0.0
H3558 H 0.55172 0.32476 0.10919 0.0
H3559 H 0.56128 0.34414 0.12657 0.0
C3560 C 0.50247 0.29155 0.11988 0.0
C3561 C 0.51199 0.29095 0.13758 0.0
C3562 C 0.5056 0.30741 0.11122 0.0
C3563 C 0.51833 0.32305 0.12001 0.0
C3564 C 0.52755 0.32261 0.13787 0.0
H3565 H 0.56158 0.43027 0.09239 0.0
H3566 H 0.55098 0.40369 0.10796 0.0
C3567 C 0.52453 0.30672 0.14649 0.0
C3568 C 0.52191 0.33978 0.1105 0.0
H3569 H 0.55577 0.37025 0.0958 0.0
C3570 C 0.50734 0.3476 0.10482 0.0
C3571 C 0.53955 0.34798 0.10692 0.0
C3572 C 0.55566 0.33981 0.11157 0.0
C3573 C 0.51002 0.3636 0.09619 0.0
C3574 C 0.52772 0.37194 0.09293 0.0
C3575 C 0.54221 0.36399 0.09841 0.0
C3576 C 0.53181 0.38906 0.08417 0.0
C3577 C 0.49397 0.37169 0.09108 0.0
C3578 C 0.52418 0.39006 0.06574 0.0
C3579 C 0.53014 0.40544 0.05685 0.0
C3580 C 0.54397 0.41996 0.06617 0.0
C3581 C 0.55089 0.41928 0.08488 0.0
C3582 C 0.54489 0.40405 0.09376 0.0
H3583 H 0.48243 0.36644 0.09871 0.0
H3584 H 0.49775 0.38672 0.09421 0.0
H3585 H 0.48926 0.36808 0.0758 0.0
H3586 H 0.51431 0.37859 0.05789 0.0
H3587 H 0.52477 0.40549 0.04234 0.0
H3588 H 0.99197 0.308 0.31592 0.0
H3589 H 0.96084 0.30724 0.30121 0.0
H3590 H 0.93914 0.26785 0.33645 0.0
H3591 H 0.96978 0.26866 0.35111 0.0
H3592 H 0.92924 0.27754 0.28304 0.0
H3593 H 0.91637 0.31158 0.35019 0.0
H3594 H 0.93899 0.31118 0.34501 0.0
H3595 H 0.92509 0.29165 0.35246 0.0
C3596 C 0.98057 0.29881 0.3201 0.0
C3597 C 0.9834 0.28842 0.33474 0.0
C3598 C 0.96276 0.29849 0.3118 0.0
C3599 C 0.94754 0.28778 0.31801 0.0
C3600 C 0.95053 0.2765 0.33165 0.0
H3601 H 0.83026 0.27062 0.30822 0.0
H3602 H 0.86264 0.27212 0.3165 0.0
C3603 C 0.96814 0.2769 0.33994 0.0
C3604 C 0.92848 0.28893 0.31134 0.0
H3605 H 0.89065 0.29923 0.32734 0.0
C3606 C 0.92084 0.28247 0.29264 0.0
C3607 C 0.91741 0.29528 0.32386 0.0
C3608 C 0.92488 0.30297 0.34396 0.0
C3609 C 0.90232 0.2815 0.28636 0.0
C3610 C 0.89115 0.28759 0.299 0.0
C3611 C 0.899 0.29445 0.31758 0.0
C3612 C 0.87124 0.28659 0.29356 0.0
C3613 C 0.89479 0.2732 0.26644 0.0
C3614 C 0.86499 0.29434 0.27798 0.0
C3615 C 0.84635 0.29322 0.27301 0.0
C3616 C 0.83341 0.28478 0.28378 0.0
C3617 C 0.83972 0.27732 0.29958 0.0
C3618 C 0.85833 0.27819 0.30436 0.0
H3619 H 0.90333 0.26444 0.26054 0.0
H3620 H 0.88073 0.26494 0.26558 0.0
H3621 H 0.89457 0.28418 0.2575 0.0
H3622 H 0.87451 0.30139 0.26964 0.0
H3623 H 0.84215 0.29894 0.26065 0.0
H3624 H 1.00042 0.70579 0.6236 0.0
H3625 H 1.00111 0.68026 0.6 0.0
H3626 H 0.02626 0.65485 0.64308 0.0
H3627 H 0.02482 0.67961 0.66658 0.0
H3628 H 0.02734 0.66648 0.58715 0.0
H3629 H 0.98604 0.61327 0.62105 0.0
H3630 H 0.98835 0.63709 0.62855 0.0
H3631 H 0.00565 0.6257 0.6367 0.0
C3632 C 0.00592 0.69466 0.62802 0.0
C3633 C 0.01222 0.69463 0.64708 0.0
C3634 C 0.00636 0.68006 0.61451 0.0
C3635 C 0.01325 0.66523 0.61974 0.0
C3636 C 0.02018 0.66563 0.63866 0.0
H3637 H 0.05033 0.58551 0.54678 0.0
H3638 H 0.04765 0.61174 0.56822 0.0
C3639 C 0.01944 0.67995 0.65214 0.0
C3640 C 0.01353 0.64943 0.60558 0.0
H3641 H 1.00257 0.60299 0.59747 0.0
C3642 C 0.02178 0.65262 0.58936 0.0
C3643 C 0.00607 0.63123 0.60817 0.0
C3644 C 0.99587 0.62662 0.62446 0.0
C3645 C 0.02322 0.63821 0.57607 0.0
C3646 C 0.01656 0.62003 0.57918 0.0
C3647 C 0.0079 0.61686 0.59512 0.0
C3648 C 0.0183 0.60407 0.56608 0.0
C3649 C 0.03157 0.64264 0.55862 0.0
C3650 C 1.00284 0.59053 0.55824 0.0
C3651 C 0.00443 0.57529 0.5464 0.0
C3652 C 0.0215 0.57339 0.54193 0.0
C3653 C 0.03698 0.58686 0.54974 0.0
C3654 C 0.03543 0.6019 0.5619 0.0
H3655 H 0.0315 0.65673 0.55589 0.0
H3656 H 0.0459 0.64138 0.56044 0.0
H3657 H 0.02421 0.63313 0.54613 0.0
H3658 H 0.98948 0.59178 0.56125 0.0
H3659 H 0.9923 0.56511 0.54049 0.0
H3660 H 0.6113 0.83124 0.83616 0.0
H3661 H 0.63785 0.82469 0.82323 0.0
H3662 H 0.61188 0.76775 0.81327 0.0
H3663 H 0.58479 0.77443 0.82554 0.0
H3664 H 0.66137 0.80761 0.8347 0.0
H3665 H 0.6305 0.77083 0.76467 0.0
H3666 H 0.6179 0.78246 0.77954 0.0
H3667 H 0.6209 0.7602 0.78341 0.0
C3668 C 0.61102 0.81731 0.83095 0.0
C3669 C 0.59563 0.80343 0.83184 0.0
C3670 C 0.62639 0.81353 0.82356 0.0
C3671 C 0.62716 0.79569 0.81689 0.0
C3672 C 0.61174 0.78173 0.81769 0.0
H3673 H 0.71644 0.75035 0.77692 0.0
H3674 H 0.68769 0.75473 0.78701 0.0
C3675 C 0.59616 0.78556 0.82485 0.0
C3676 C 0.64443 0.79195 0.81013 0.0
H3677 H 0.66143 0.77087 0.77397 0.0
C3678 C 0.66125 0.79964 0.82133 0.0
C3679 C 0.6447 0.78145 0.79273 0.0
C3680 C 0.62756 0.77341 0.7793 0.0
C3681 C 0.67796 0.79716 0.81586 0.0
C3682 C 0.67823 0.78678 0.79843 0.0
C3683 C 0.66144 0.77884 0.78731 0.0
C3684 C 0.69572 0.78408 0.79155 0.0
C3685 C 0.69518 0.80544 0.82912 0.0
C3686 C 0.70994 0.79897 0.79011 0.0
C3687 C 0.72642 0.7964 0.78431 0.0
C3688 C 0.72918 0.77891 0.77953 0.0
C3689 C 0.71479 0.76401 0.78034 0.0
C3690 C 0.69831 0.76654 0.78624 0.0
H3691 H 0.69238 0.80795 0.84382 0.0
H3692 H 0.70505 0.7966 0.82875 0.0
H3693 H 0.70158 0.81871 0.82495 0.0
H3694 H 0.70829 0.81268 0.79335 0.0
H3695 H 0.73693 0.80814 0.78316 0.0
H3696 H 0.43483 0.53404 0.69859 0.0
H3697 H 0.44513 0.53937 0.66805 0.0
H3698 H 0.48541 0.50811 0.67857 0.0
H3699 H 0.47522 0.50259 0.70863 0.0
H3700 H 0.48084 0.55452 0.65786 0.0
H3701 H 0.45504 0.48215 0.62869 0.0
H3702 H 0.44807 0.49202 0.64969 0.0
H3703 H 0.46942 0.48531 0.65075 0.0
C3704 C 0.44596 0.52845 0.69441 0.0
C3705 C 0.45402 0.51767 0.70592 0.0
C3706 C 0.45182 0.53149 0.67699 0.0
C3707 C 0.46577 0.52379 0.67091 0.0
C3708 C 0.47435 0.51382 0.6828 0.0
H3709 H 0.53103 0.51724 0.58339 0.0
H3710 H 0.51706 0.51823 0.61229 0.0
C3711 C 0.4685 0.51071 0.70003 0.0
C3712 C 0.47125 0.52551 0.65198 0.0
H3713 H 0.47644 0.49991 0.61211 0.0
C3714 C 0.4796 0.54266 0.64769 0.0
C3715 C 0.46957 0.50999 0.63872 0.0
C3716 C 0.45988 0.49135 0.64208 0.0
C3717 C 0.48713 0.54452 0.63085 0.0
C3718 C 0.48617 0.52887 0.61808 0.0
C3719 C 0.47724 0.51186 0.62205 0.0
C3720 C 0.49512 0.52963 0.60091 0.0
C3721 C 0.4967 0.56302 0.62705 0.0
C3722 C 0.48735 0.53571 0.58497 0.0
C3723 C 0.49523 0.53506 0.56836 0.0
C3724 C 0.51107 0.52841 0.56749 0.0
C3725 C 0.51892 0.52258 0.58362 0.0
C3726 C 0.51097 0.52311 0.60014 0.0
H3727 H 0.49736 0.5737 0.63897 0.0
H3728 H 0.51073 0.56283 0.62424 0.0
H3729 H 0.48944 0.56662 0.61431 0.0
H3730 H 0.47501 0.54062 0.58529 0.0
H3731 H 0.48887 0.53966 0.55618 0.0
H3732 H 0.74851 0.13265 0.96527 0.0
H3733 H 0.75247 0.15213 0.94046 0.0
H3734 H 0.80089 0.18568 0.97355 0.0
H3735 H 0.79733 0.16572 -0.00177 0.0
H3736 H 0.76037 0.19651 0.9631 0.0
H3737 H 0.79798 0.17498 0.90619 0.0
H3738 H 0.78397 0.15756 0.91675 0.0
H3739 H 0.80385 0.172 0.93046 0.0
C3740 C 0.76049 0.14364 0.96678 0.0
C3741 C 0.77263 0.14781 0.98349 0.0
C3742 C 0.76275 0.15471 0.95266 0.0
C3743 C 0.77697 0.17023 0.95529 0.0
C3744 C 0.79001 0.17357 0.97128 0.0
H3745 H 0.74962 0.25723 0.89402 0.0
H3746 H 0.7646 0.24313 0.91843 0.0
C3747 C 0.78798 0.16219 0.98528 0.0
C3748 C 0.77533 0.18461 0.9436 0.0
H3749 H 0.77892 0.1952 0.89937 0.0
C3750 C 0.76478 0.19666 0.94931 0.0
C3751 C 0.78103 0.18442 0.92573 0.0
C3752 C 0.79243 0.17163 0.91932 0.0
C3753 C 0.75848 0.20763 0.93694 0.0
C3754 C 0.76344 0.20686 0.91861 0.0
C3755 C 0.77511 0.19571 0.91342 0.0
C3756 C 0.75497 0.21578 0.90398 0.0
C3757 C 0.74544 0.2188 0.94312 0.0
C3758 C 0.7449 0.2051 0.88771 0.0
C3759 C 0.7366 0.21312 0.87377 0.0
C3760 C 0.73808 0.23192 0.87598 0.0
C3761 C 0.74801 0.24264 0.8923 0.0
C3762 C 0.75658 0.23462 0.90616 0.0
H3763 H 0.74 0.21475 0.9561 0.0
H3764 H 0.75262 0.2333 0.94608 0.0
H3765 H 0.73381 0.21746 0.93194 0.0
H3766 H 0.74344 0.19052 0.88581 0.0
H3767 H 0.72913 0.20467 0.86118 0.0
H3768 H 0.12035 0.55454 0.21156 0.0
H3769 H 0.10503 0.54538 0.1796 0.0
H3770 H 0.13936 0.50792 0.16997 0.0
H3771 H 0.15497 0.51696 0.2022 0.0
H3772 H 0.12611 0.54739 0.14612 0.0
H3773 H 0.08339 0.47952 0.15298 0.0
H3774 H 0.09117 0.49674 0.17308 0.0
H3775 H 0.10702 0.4856 0.16296 0.0
C3776 C 0.12467 0.54429 0.20277 0.0
C3777 C 0.13896 0.53655 0.2094 0.0
C3778 C 0.11587 0.53908 0.18453 0.0
C3779 C 0.12113 0.52601 0.17263 0.0
C3780 C 0.13513 0.51796 0.17914 0.0
H3781 H 0.0667 0.49566 0.05675 0.0
H3782 H 0.0869 0.49539 0.08552 0.0
C3783 C 0.14401 0.52318 0.19749 0.0
C3784 C 0.11225 0.52167 0.15316 0.0
H3785 H 0.0774 0.49188 0.125 0.0
C3786 C 0.11571 0.5351 0.1413 0.0
C3787 C 0.0988 0.5056 0.14711 0.0
C3788 C 0.09473 0.49096 0.15962 0.0
C3789 C 0.10532 0.53328 0.12375 0.0
C3790 C 0.09107 0.51775 0.11821 0.0
C3791 C 0.08833 0.50378 0.12953 0.0
C3792 C 0.07796 0.51667 0.10149 0.0
C3793 C 0.10914 0.54826 0.11156 0.0
C3794 C 0.06605 0.52841 0.10138 0.0
C3795 C 0.05456 0.52861 0.0851 0.0
C3796 C 0.05486 0.51704 0.06876 0.0
C3797 C 0.06631 0.50479 0.06916 0.0
C3798 C 0.07778 0.50457 0.0855 0.0
H3799 H 0.12308 0.55689 0.11559 0.0
H3800 H 0.10751 0.54261 0.09651 0.0
H3801 H 0.09933 0.55703 0.11319 0.0
H3802 H 0.06601 0.53772 0.11377 0.0
H3803 H 0.04595 0.53827 0.08514 0.0
H3804 H 0.75916 0.84232 0.47249 0.0
H3805 H 0.75499 0.82846 0.43947 0.0
H3806 H 0.81315 0.84022 0.44013 0.0
H3807 H 0.81731 0.85306 0.47299 0.0
H3808 H 0.76369 0.84059 0.40799 0.0
H3809 H 0.80178 0.78786 0.42064 0.0
H3810 H 0.79548 0.80155 0.43959 0.0
H3811 H 0.81563 0.80996 0.42918 0.0
C3812 C 0.77099 0.84184 0.46552 0.0
C3813 C 0.78855 0.84842 0.47538 0.0
C3814 C 0.76863 0.83391 0.4467 0.0
C3815 C 0.78379 0.83268 0.43745 0.0
C3816 C 0.80125 0.84021 0.4471 0.0
H3817 H 0.80798 0.80396 0.32606 0.0
H3818 H 0.80786 0.81539 0.3589 0.0
C3819 C 0.8036 0.8477 0.46588 0.0
C3820 C 0.78161 0.82404 0.41762 0.0
H3821 H 0.79717 0.79398 0.38869 0.0
C3822 C 0.77087 0.83026 0.40382 0.0
C3823 C 0.7908 0.81037 0.41209 0.0
C3824 C 0.80139 0.80192 0.42621 0.0
C3825 C 0.7697 0.82382 0.38467 0.0
C3826 C 0.77947 0.81073 0.37911 0.0
C3827 C 0.78986 0.80418 0.39292 0.0
C3828 C 0.77932 0.80379 0.35906 0.0
C3829 C 0.75807 0.83123 0.37064 0.0
C3830 C 0.76336 0.79332 0.34824 0.0
C3831 C 0.7635 0.78644 0.32951 0.0
C3832 C 0.77957 0.79001 0.32115 0.0
C3833 C 0.79547 0.80065 0.33204 0.0
C3834 C 0.79539 0.80732 0.35082 0.0
H3835 H 0.7566 0.84498 0.37605 0.0
H3836 H 0.76363 0.83192 0.35709 0.0
H3837 H 0.74433 0.8221 0.36816 0.0
H3838 H 0.75083 0.79031 0.35434 0.0
H3839 H 0.75097 0.77829 0.32161 0.0
H3840 H 0.48551 0.51217 0.80371 0.0
H3841 H 0.49756 0.51602 0.83701 0.0
H3842 H 0.45091 0.53551 0.85127 0.0
H3843 H 0.43873 0.53182 0.81779 0.0
H3844 H 0.50355 0.54818 0.86829 0.0
H3845 H 0.45159 0.48631 0.87549 0.0
H3846 H 0.45804 0.4915 0.85299 0.0
H3847 H 0.44392 0.50402 0.86446 0.0
C3848 C 0.47797 0.51763 0.81389 0.0
C3849 C 0.46109 0.52155 0.80815 0.0
C3850 C 0.48491 0.51986 0.8329 0.0
C3851 C 0.47503 0.52585 0.84656 0.0
C3852 C 0.45868 0.53078 0.84089 0.0
H3853 H 0.48525 0.52352 0.96654 0.0
H3854 H 0.47538 0.52502 0.93358 0.0
C3855 C 0.45179 0.52875 0.82178 0.0
C3856 C 0.48108 0.5252 0.86663 0.0
H3857 H 0.47198 0.50011 0.90244 0.0
C3858 C 0.49666 0.53774 0.87583 0.0
C3859 C 0.47207 0.51149 0.87632 0.0
C3860 C 0.45553 0.49744 0.86688 0.0
C3861 C 0.50332 0.53705 0.89463 0.0
C3862 C 0.49446 0.52314 0.90424 0.0
C3863 C 0.47884 0.51067 0.89501 0.0
C3864 C 0.50064 0.52171 0.92414 0.0
C3865 C 0.51949 0.55148 0.90421 0.0
C3866 C 0.518 0.51883 0.92976 0.0
C3867 C 0.52376 0.51809 0.94872 0.0
C3868 C 0.51221 0.5202 0.9623 0.0
C3869 C 0.4946 0.52225 0.95646 0.0
C3870 C 0.48889 0.52302 0.93761 0.0
H3871 H 0.52206 0.56343 0.89643 0.0
H3872 H 0.51749 0.5561 0.91876 0.0
H3873 H 0.53177 0.54576 0.90499 0.0
H3874 H 0.52712 0.51729 0.91951 0.0
H3875 H 0.53737 0.51638 0.9528 0.0
H3876 H 0.79417 0.14717 0.09181 0.0
H3877 H 0.80088 0.1634 0.12386 0.0
H3878 H 0.7645 0.19757 0.10879 0.0
H3879 H 0.75775 0.18171 0.07696 0.0
H3880 H 0.81197 0.20648 0.1348 0.0
H3881 H 0.7475 0.16899 0.15543 0.0
H3882 H 0.7586 0.15971 0.13711 0.0
H3883 H 0.74559 0.17629 0.13253 0.0
C3884 C 0.78777 0.15828 0.0953 0.0
C3885 C 0.77533 0.16311 0.08194 0.0
C3886 C 0.79161 0.16745 0.11353 0.0
C3887 C 0.78297 0.1814 0.11848 0.0
C3888 C 0.77111 0.18666 0.10507 0.0
H3889 H 0.76368 0.25771 0.2006 0.0
H3890 H 0.76625 0.23748 0.17285 0.0
C3891 C 0.76732 0.17761 0.08692 0.0
C3892 C 0.78569 0.19045 0.13774 0.0
H3893 H 0.76179 0.19737 0.1739 0.0
C3894 C 0.80128 0.20429 0.14366 0.0
C3895 C 0.77161 0.18736 0.14902 0.0
C3896 C 0.75491 0.17218 0.14333 0.0
C3897 C 0.80257 0.21607 0.1602 0.0
C3898 C 0.78791 0.2137 0.17079 0.0
C3899 C 0.77284 0.19917 0.16545 0.0
C3900 C 0.78745 0.22671 0.18697 0.0
C3901 C 0.81902 0.23154 0.16573 0.0
C3902 C 0.79866 0.22725 0.20377 0.0
C3903 C 0.79728 0.23874 0.21949 0.0
C3904 C 0.78459 0.24974 0.21859 0.0
C3905 C 0.77365 0.24947 0.20158 0.0
C3906 C 0.77504 0.23792 0.18583 0.0
H3907 H 0.82828 0.23264 0.15482 0.0
H3908 H 0.81476 0.24457 0.16831 0.0
H3909 H 0.82668 0.22947 0.179 0.0
H3910 H 0.80815 0.2185 0.20481 0.0
H3911 H 0.80592 0.23871 0.23244 0.0
H3912 H 0.13962 0.55498 0.28844 0.0
H3913 H 0.11888 0.55316 0.31181 0.0
H3914 H 0.13551 0.50589 0.32904 0.0
H3915 H 0.15657 0.50758 0.30542 0.0
H3916 H 0.08955 0.5218 0.31846 0.0
H3917 H 0.14759 0.54708 0.37601 0.0
H3918 H 0.15003 0.55 0.35188 0.0
H3919 H 0.14811 0.52798 0.35932 0.0
C3920 C 0.13884 0.54409 0.29706 0.0
C3921 C 0.14983 0.5315 0.29525 0.0
C3922 C 0.12687 0.54301 0.31029 0.0
C3923 C 0.12574 0.52939 0.322 0.0
C3924 C 0.13629 0.51646 0.32 0.0
H3925 H 0.08241 0.54588 0.42604 0.0
H3926 H 0.09271 0.52971 0.40028 0.0
C3927 C 0.14829 0.51749 0.30662 0.0
C3928 C 0.11465 0.53006 0.33733 0.0
H3929 H 0.11844 0.54634 0.38353 0.0
C3930 C 0.09573 0.52676 0.33283 0.0
C3931 C 0.12291 0.53662 0.3559 0.0
C3932 C 0.14328 0.54073 0.3612 0.0
C3933 C 0.08479 0.53046 0.34646 0.0
C3934 C 0.09316 0.53803 0.36482 0.0
C3935 C 0.11203 0.54048 0.36944 0.0
C3936 C 0.08314 0.54499 0.37923 0.0
C3937 C 0.0645 0.52655 0.34095 0.0
C3938 C 0.07379 0.55863 0.37584 0.0
C3939 C 0.0673 0.56764 0.39054 0.0
C3940 C 0.07045 0.56345 0.40895 0.0
C3941 C 0.07929 0.5493 0.41206 0.0
C3942 C 0.08537 0.54007 0.39734 0.0
H3943 H 0.05993 0.51515 0.32933 0.0
H3944 H 0.05711 0.52314 0.353 0.0
H3945 H 0.06075 0.53871 0.33586 0.0
H3946 H 0.0723 0.56296 0.36206 0.0
H3947 H 0.06034 0.57825 0.38756 0.0
H3948 H 0.7669 0.86682 0.58399 0.0
H3949 H 0.7615 0.8572 0.61477 0.0
H3950 H 0.79119 0.81555 0.60512 0.0
H3951 H 0.79665 0.82493 0.57463 0.0
H3952 H 0.74615 0.82001 0.62588 0.0
H3953 H 0.81853 0.84963 0.65414 0.0
H3954 H 0.80758 0.85598 0.63319 0.0
H3955 H 0.81497 0.83503 0.63223 0.0
C3956 C 0.77202 0.85543 0.58831 0.0
C3957 C 0.7824 0.84679 0.57693 0.0
C3958 C 0.76894 0.84998 0.60589 0.0
C3959 C 0.77622 0.83587 0.61229 0.0
C3960 C 0.7857 0.82664 0.60053 0.0
H3961 H 0.78985 0.77781 0.70458 0.0
H3962 H 0.78877 0.79136 0.67544 0.0
C3963 C 0.78878 0.83203 0.58308 0.0
C3964 C 0.77496 0.83125 0.63161 0.0
H3965 H 0.80151 0.82973 0.67244 0.0
C3966 C 0.75816 0.82239 0.63622 0.0
C3967 C 0.79068 0.83439 0.64501 0.0
C3968 C 0.80896 0.84442 0.64102 0.0
C3969 C 0.75686 0.81579 0.65364 0.0
C3970 C 0.77272 0.81835 0.66674 0.0
C3971 C 0.78937 0.82779 0.66235 0.0
C3972 C 0.77272 0.81011 0.68445 0.0
C3973 C 0.73875 0.80535 0.65761 0.0
C3974 C 0.76415 0.81629 0.69928 0.0
C3975 C 0.7648 0.80858 0.7161 0.0
C3976 C 0.77395 0.79455 0.71823 0.0
C3977 C 0.78256 0.7885 0.70334 0.0
C3978 C 0.78198 0.79624 0.68667 0.0
H3979 H 0.72825 0.80252 0.64506 0.0
H3980 H 0.74013 0.79228 0.66251 0.0
H3981 H 0.73399 0.81332 0.669 0.0
H3982 H 0.75714 0.82716 0.69791 0.0
H3983 H 0.75807 0.81351 0.72735 0.0
H3984 H 0.76632 0.47905 0.49224 0.0
H3985 H 0.73953 0.49166 0.49576 0.0
H3986 H 0.70569 0.43752 0.48865 0.0
H3987 H 0.73223 0.42486 0.48541 0.0
H3988 H 0.69969 0.48382 0.47442 0.0
H3989 H 0.70948 0.46243 0.54553 0.0
H3990 H 0.72714 0.46511 0.53058 0.0
H3991 H 0.70879 0.44531 0.5262 0.0
C3992 C 0.75306 0.4699 0.49082 0.0
C3993 C 0.75128 0.45103 0.48895 0.0
C3994 C 0.73784 0.4771 0.49278 0.0
C3995 C 0.72086 0.46542 0.49264 0.0
C3996 C 0.7188 0.44664 0.48885 0.0
H3997 H 0.62121 0.4687 0.53461 0.0
H3998 H 0.64576 0.46073 0.51871 0.0
C3999 C 0.73395 0.43947 0.48711 0.0
C4000 C 0.70602 0.4724 0.49969 0.0
H4001 H 0.68267 0.47236 0.53726 0.0
C4002 C 0.69595 0.48149 0.48817 0.0
C4003 C 0.70147 0.46934 0.51771 0.0
C4004 C 0.71235 0.46015 0.53083 0.0
C4005 C 0.68084 0.48711 0.4941 0.0
C4006 C 0.67602 0.48353 0.5119 0.0
C4007 C 0.6864 0.47484 0.52352 0.0
C4008 C 0.66023 0.48855 0.51902 0.0
C4009 C 0.66989 0.49639 0.48123 0.0
C4010 C 0.66047 0.5068 0.52439 0.0
C4011 C 0.64667 0.51137 0.53372 0.0
C4012 C 0.63252 0.49771 0.53779 0.0
C4013 C 0.63214 0.47945 0.53195 0.0
C4014 C 0.64596 0.47491 0.52267 0.0
H4015 H 0.67346 0.49521 0.46672 0.0
H4016 H 0.65513 0.49055 0.48075 0.0
H4017 H 0.67253 0.51101 0.48673 0.0
H4018 H 0.67165 0.51744 0.52202 0.0
H4019 H 0.64736 0.52556 0.53821 0.0
H4020 H 0.22942 0.11704 0.49238 0.0
H4021 H 0.20206 0.09245 0.4904 0.0
H4022 H 0.17236 0.13134 0.51029 0.0
H4023 H 0.19907 0.15572 0.51167 0.0
H4024 H 0.18099 0.07981 0.51626 0.0
H4025 H 0.13962 0.10668 0.46337 0.0
H4026 H 0.16387 0.11519 0.46891 0.0
H4027 H 0.14865 0.1237 0.48311 0.0
C4028 C 0.21699 0.12028 0.49622 0.0
C4029 C 0.21631 0.13836 0.50185 0.0
C4030 C 0.20141 0.10626 0.4951 0.0
C4031 C 0.18503 0.11015 0.49969 0.0
C4032 C 0.18463 0.12808 0.50602 0.0
H4033 H 0.09218 0.04643 0.53769 0.0
H4034 H 0.12268 0.06282 0.53369 0.0
C4035 C 0.19999 0.14202 0.50689 0.0
C4036 C 0.16824 0.09569 0.49826 0.0
H4037 H 0.12294 0.08663 0.48248 0.0
C4038 C 0.16833 0.08106 0.5086 0.0
C4039 C 0.1518 0.09706 0.48788 0.0
C4040 C 0.15102 0.1114 0.47503 0.0
C4041 C 0.1522 0.06834 0.50968 0.0
C4042 C 0.13549 0.07074 0.50075 0.0
C4043 C 0.13563 0.08484 0.4896 0.0
C4044 C 0.11759 0.05938 0.50323 0.0
C4045 C 0.15336 0.0525 0.52036 0.0
C4046 C 0.10432 0.05242 0.48757 0.0
C4047 C 0.08674 0.04379 0.48996 0.0
C4048 C 0.08229 0.04151 0.50799 0.0
C4049 C 0.09557 0.04779 0.52365 0.0
C4050 C 0.11302 0.05699 0.52131 0.0
H4051 H 0.16666 0.04877 0.51984 0.0
H4052 H 0.15222 0.05638 0.53534 0.0
H4053 H 0.14238 0.04039 0.51468 0.0
H4054 H 0.10742 0.05412 0.47348 0.0
H4055 H 0.07654 0.03907 0.47775 0.0
H4056 H 0.17109 0.99449 0.76035 0.0
H4057 H 0.18914 0.97171 0.7557 0.0
H4058 H 0.17067 0.94794 0.80376 0.0
H4059 H 0.15258 0.97064 0.80859 0.0
H4060 H 0.21722 0.96327 0.78401 0.0
H4061 H 0.15787 0.90575 0.75825 0.0
H4062 H 0.15657 0.92914 0.75785 0.0
H4063 H 0.15696 0.91973 0.77962 0.0
C4064 C 0.17084 0.98442 0.76994 0.0
C4065 C 0.1603 0.98433 0.78478 0.0
C4066 C 0.18121 0.97147 0.76729 0.0
C4067 C 0.18108 0.9581 0.77931 0.0
C4068 C 0.17078 0.95807 0.79425 0.0
H4069 H 0.22521 0.86104 0.7648 0.0
H4070 H 0.21159 0.88473 0.77899 0.0
C4071 C 0.16049 0.97107 0.79699 0.0
C4072 C 0.19159 0.94407 0.77603 0.0
H4073 H 0.18681 0.89923 0.76038 0.0
C4074 C 0.21062 0.94924 0.77895 0.0
C4075 C 0.18288 0.92578 0.76961 0.0
C4076 C 0.16245 0.91966 0.76601 0.0
C4077 C 0.22123 0.93657 0.77543 0.0
C4078 C 0.21254 0.91837 0.76833 0.0
C4079 C 0.19348 0.91315 0.76589 0.0
C4080 C 0.22278 0.90489 0.76179 0.0
C4081 C 0.24164 0.94281 0.77945 0.0
C4082 C 0.23382 0.90845 0.74766 0.0
C4083 C 0.24172 0.89506 0.7397 0.0
C4084 C 0.23851 0.87769 0.74546 0.0
C4085 C 0.22804 0.87432 0.76015 0.0
C4086 C 0.22017 0.8878 0.76818 0.0
H4087 H 0.24578 0.95461 0.79066 0.0
H4088 H 0.24801 0.93177 0.78379 0.0
H4089 H 0.247 0.9472 0.76657 0.0
H4090 H 0.23574 0.92135 0.74219 0.0
H4091 H 0.24989 0.89813 0.72857 0.0
H4092 H 0.35347 0.93872 0.04654 0.0
H4093 H 0.38127 0.9618 0.04662 0.0
H4094 H 0.35281 0.98851 0.00734 0.0
H4095 H 0.32478 0.96567 0.00744 0.0
H4096 H 0.38513 0.96421 -0.00013 0.0
H4097 H 0.39828 0.02585 0.0527 0.0
H4098 H 0.38695 0.0043 0.05893 0.0
H4099 H 0.37567 0.01464 0.04143 0.0
C4100 C 0.35294 0.94998 0.03861 0.0
C4101 C 0.33715 0.95033 0.02676 0.0
C4102 C 0.36876 0.96316 0.03874 0.0
C4103 C 0.3689 0.97669 0.02697 0.0
C4104 C 0.35274 0.97821 0.01666 0.0
H4105 H 0.47005 0.04222 0.00194 0.0
H4106 H 0.43835 0.03212 0.00678 0.0
C4107 C 0.33679 0.96516 0.01673 0.0
C4108 C 0.38635 0.98585 0.02201 0.0
H4109 H 0.42278 0.02097 0.03669 0.0
C4110 C 0.39334 0.97677 0.00769 0.0
C4111 C 0.39666 1.00224 0.03216 0.0
C4112 C 0.38909 0.01249 0.04716 0.0
C4113 C 0.41092 0.98332 0.00375 0.0
C4114 C 0.4218 0.99909 0.01481 0.0
C4115 C 0.41442 0.00871 0.02848 0.0
C4116 C 0.44104 0.00545 0.01276 0.0
C4117 C 0.41766 0.97316 0.98792 0.0
C4118 C 0.45298 0.99385 0.01491 0.0
C4119 C 0.47091 0.9994 0.01171 0.0
C4120 C 0.47726 0.01684 0.00705 0.0
C4121 C 0.46546 0.02869 0.00562 0.0
C4122 C 0.44742 0.023 0.00841 0.0
H4123 H 0.40622 0.96541 0.9773 0.0
H4124 H 0.42719 0.9825 0.9808 0.0
H4125 H 0.42487 0.96325 0.99367 0.0
H4126 H 0.44834 0.98037 0.01865 0.0
H4127 H 0.47959 0.98986 0.01231 0.0
H4128 H 0.83115 0.543 0.80183 0.0
H4129 H 0.81545 0.56728 0.79584 0.0
H4130 H 0.86397 0.59847 0.7788 0.0
H4131 H 0.8796 0.57426 0.78436 0.0
H4132 H 0.82413 0.60774 0.80675 0.0
H4133 H 0.82431 0.58406 0.73128 0.0
H4134 H 0.82922 0.57081 0.74971 0.0
H4135 H 0.84621 0.58975 0.74536 0.0
C4136 C 0.83855 0.55524 0.79723 0.0
C4137 C 0.85639 0.55672 0.79317 0.0
C4138 C 0.82962 0.56904 0.7939 0.0
C4139 C 0.8386 0.58438 0.7867 0.0
C4140 C 0.85689 0.58656 0.7842 0.0
H4141 H 0.80992 0.68005 0.75377 0.0
H4142 H 0.82124 0.65824 0.77164 0.0
C4143 C 0.86572 0.57272 0.78729 0.0
C4144 C 0.82831 0.59688 0.77929 0.0
H4145 H 0.81385 0.61072 0.7382 0.0
C4146 C 0.8217 0.60839 0.79179 0.0
C4147 C 0.82513 0.59735 0.75974 0.0
C4148 C 0.83144 0.58474 0.7457 0.0
C4149 C 0.81221 0.62086 0.78513 0.0
C4150 C 0.80952 0.62167 0.76561 0.0
C4151 C 0.81589 0.6099 0.75317 0.0
C4152 C 0.80081 0.63505 0.75747 0.0
C4153 C 0.80515 0.63298 0.79895 0.0
C4154 C 0.78567 0.6291 0.74359 0.0
C4155 C 0.77938 0.64143 0.73318 0.0
C4156 C 0.78814 0.65986 0.73657 0.0
C4157 C 0.80289 0.66588 0.75098 0.0
C4158 C 0.80924 0.65352 0.76132 0.0
H4159 H 0.8041 0.62744 0.81253 0.0
H4160 H 0.81466 0.64651 0.80176 0.0
H4161 H 0.79161 0.63482 0.79319 0.0
H4162 H 0.77916 0.61481 0.74038 0.0
H4163 H 0.76781 0.63657 0.72235 0.0
H4164 H 0.81397 0.63732 0.02833 0.0
H4165 H 0.83879 0.6217 0.03303 0.0
H4166 H 0.84176 0.61644 0.97353 0.0
H4167 H 0.81703 0.63212 0.96866 0.0
H4168 H 0.84084 0.58642 0.01673 0.0
H4169 H 0.89434 0.6412 -0.00217 0.0
H4170 H 0.87278 0.64493 0.00354 0.0
H4171 H 0.87424 0.63354 0.98092 0.0
C4172 C 0.81987 0.63284 0.01622 0.0
C4173 C 0.81355 0.63605 -0.00188 0.0
C4174 C 0.83404 0.6239 0.01894 0.0
C4175 C 0.84225 0.61813 0.00365 0.0
C4176 C 0.83579 0.62104 0.98554 0.0
H4177 H 0.91734 0.54504 0.0151 0.0
H4178 H 0.89346 0.55904 0.00135 0.0
C4179 C 0.82159 0.62993 0.98279 0.0
C4180 C 0.85755 0.60906 0.00673 0.0
H4181 H 0.90303 0.61438 0.00475 0.0
C4182 C 0.85441 0.59243 0.01399 0.0
C4183 C 0.87525 0.61706 0.00325 0.0
C4184 C 0.87949 0.63524 0.99609 0.0
C4185 C 0.86858 0.58365 0.01807 0.0
C4186 C 0.88629 0.59163 0.01457 0.0
C4187 C 0.88938 0.60818 0.00713 0.0
C4188 C 0.90209 0.58403 0.02051 0.0
C4189 C 0.86462 0.56626 0.02679 0.0
C4190 C 0.91535 0.59383 0.03507 0.0
C4191 C 0.92894 0.58595 0.04279 0.0
C4192 C 0.92959 0.56816 0.036 0.0
C4193 C 0.91714 0.5588 0.0205 0.0
C4194 C 0.90342 0.5667 0.0128 0.0
H4195 H 0.85106 0.5637 0.03168 0.0
H4196 H 0.8649 0.5547 0.01622 0.0
H4197 H 0.8751 0.56663 0.03889 0.0
H4198 H 0.91464 0.60725 0.04115 0.0
H4199 H 0.93844 0.59343 0.0547 0.0
H4200 H 0.1809 0.0816 0.80575 0.0
H4201 H 0.20398 0.10992 0.80628 0.0
H4202 H 0.18127 0.11499 0.75019 0.0
H4203 H 0.15788 0.08735 0.75003 0.0
H4204 H 0.23047 0.12369 0.78453 0.0
H4205 H 0.17505 0.16057 0.78042 0.0
H4206 H 0.17138 0.1372 0.78464 0.0
H4207 H 0.17204 0.14294 0.76111 0.0
C4208 C 0.18118 0.08865 0.79345 0.0
C4209 C 0.1677 0.08254 0.77789 0.0
C4210 C 0.19427 0.10477 0.79376 0.0
C4211 C 0.19401 0.11475 0.77844 0.0
C4212 C 0.18141 0.10774 0.76233 0.0
H4213 H 0.27086 0.20868 0.75441 0.0
H4214 H 0.25443 0.1778 0.757 0.0
C4215 C 0.16817 0.09193 0.76218 0.0
C4216 C 0.20582 0.13313 0.77968 0.0
H4217 H 0.2041 0.17698 0.77547 0.0
C4218 C 0.22476 0.13539 0.78269 0.0
C4219 C 0.1983 0.14844 0.77772 0.0
C4220 C 0.17809 0.14723 0.776 0.0
C4221 C 0.23641 0.15253 0.78317 0.0
C4222 C 0.22884 0.16761 0.7801 0.0
C4223 C 0.20991 0.16537 0.7776 0.0
C4224 C 0.24011 0.18596 0.77955 0.0
C4225 C 0.25665 0.15436 0.78722 0.0
C4226 C 0.23734 0.2008 0.79116 0.0
C4227 C 0.24637 0.21839 0.78943 0.0
C4228 C 0.25849 0.2215 0.77614 0.0
C4229 C 0.26169 0.20664 0.76487 0.0
C4230 C 0.25242 0.18899 0.76644 0.0
H4231 H 0.25992 0.14322 0.79478 0.0
H4232 H 0.26239 0.15368 0.77376 0.0
H4233 H 0.26341 0.16754 0.79577 0.0
H4234 H 0.22788 0.19879 0.80134 0.0
H4235 H 0.24373 0.22957 0.79841 0.0
H4236 H 0.34432 0.96417 0.23391 0.0
H4237 H 0.32121 0.93578 0.22805 0.0
H4238 H 0.31275 0.94174 0.28626 0.0
H4239 H 0.33526 0.9705 0.29185 0.0
H4240 H 0.33583 0.91357 0.24978 0.0
H4241 H 0.26415 0.90941 0.26115 0.0
H4242 H 0.27828 0.92954 0.25467 0.0
H4243 H 0.28043 0.92478 0.27858 0.0
C4244 C 0.33656 0.95999 0.24505 0.0
C4245 C 0.34139 0.96924 0.26328 0.0
C4246 C 0.32337 0.94383 0.24172 0.0
C4247 C 0.31539 0.93665 0.25675 0.0
C4248 C 0.31848 0.9472 0.2744 0.0
H4249 H 0.29211 0.83486 0.29702 0.0
H4250 H 0.29878 0.86665 0.29164 0.0
C4251 C 0.33142 0.96358 0.27763 0.0
C4252 C 0.30942 0.91686 0.25575 0.0
H4253 H 0.27588 0.88279 0.26513 0.0
C4254 C 0.32253 0.90678 0.25268 0.0
C4255 C 0.29234 0.90821 0.26012 0.0
C4256 C 0.27793 0.91853 0.26369 0.0
C4257 C 0.31922 0.88834 0.25441 0.0
C4258 C 0.30216 0.87967 0.25872 0.0
C4259 C 0.28887 0.88958 0.26152 0.0
C4260 C 0.29839 0.86055 0.26166 0.0
C4261 C 0.33416 0.87842 0.25214 0.0
C4262 C 0.29636 0.84682 0.24654 0.0
C4263 C 0.29251 0.82868 0.2496 0.0
C4264 C 0.2909 0.82428 0.26776 0.0
C4265 C 0.29335 0.83807 0.28289 0.0
C4266 C 0.29705 0.85613 0.27985 0.0
H4267 H 0.34771 0.88785 0.25344 0.0
H4268 H 0.33464 0.86872 0.26256 0.0
H4269 H 0.3313 0.87067 0.23794 0.0
H4270 H 0.29737 0.85015 0.23241 0.0
H4271 H 0.29001 0.81815 0.23776 0.0
H4272 H 0.52597 0.32634 0.56838 0.0
H4273 H 0.52231 0.35546 0.55824 0.0
H4274 H 0.57789 0.37988 0.58159 0.0
H4275 H 0.58183 0.35062 0.59026 0.0
H4276 H 0.52247 0.38722 0.57245 0.0
H4277 H 0.5815 0.39751 0.53341 0.0
H4278 H 0.57383 0.37664 0.54284 0.0
H4279 H 0.5887 0.39595 0.55747 0.0
C4280 C 0.53738 0.33795 0.57128 0.0
C4281 C 0.55424 0.33606 0.58001 0.0
C4282 C 0.53533 0.3547 0.56545 0.0
C4283 C 0.54999 0.37012 0.56844 0.0
C4284 C 0.56652 0.3683 0.57811 0.0
H4285 H 0.55277 0.48571 0.5623 0.0
H4286 H 0.55537 0.45615 0.5717 0.0
C4287 C 0.56871 0.35151 0.58339 0.0
C4288 C 0.548 0.38804 0.5618 0.0
H4289 H 0.56911 0.42344 0.5401 0.0
C4290 C 0.53269 0.39496 0.56527 0.0
C4291 C 0.56106 0.39845 0.55209 0.0
C4292 C 0.57706 0.39164 0.54606 0.0
C4293 C 0.5304 0.41182 0.55988 0.0
C4294 C 0.54382 0.42243 0.55099 0.0
C4295 C 0.55893 0.41551 0.5472 0.0
C4296 C 0.5422 0.44057 0.54523 0.0
C4297 C 0.51357 0.4183 0.56361 0.0
C4298 C 0.53415 0.44189 0.52711 0.0
C4299 C 0.53287 0.45886 0.52158 0.0
C4300 C 0.53942 0.47507 0.53406 0.0
C4301 C 0.54758 0.47368 0.55221 0.0
C4302 C 0.549 0.45669 0.55767 0.0
H4303 H 0.50419 0.4085 0.57046 0.0
H4304 H 0.51746 0.43155 0.57276 0.0
H4305 H 0.50624 0.42048 0.55018 0.0
H4306 H 0.52887 0.42975 0.51716 0.0
H4307 H 0.52681 0.45922 0.50741 0.0
H4308 H 0.46514 0.76588 0.37921 0.0
H4309 H 0.43892 0.76859 0.35741 0.0
H4310 H 0.40265 0.74388 0.3941 0.0
H4311 H 0.42856 0.74156 0.41599 0.0
H4312 H 0.40878 0.74467 0.33756 0.0
H4313 H 0.38668 0.79065 0.39009 0.0
H4314 H 0.40847 0.7848 0.3936 0.0
H4315 H 0.38833 0.76952 0.39828 0.0
C4316 C 0.45157 0.76085 0.38252 0.0
C4317 C 0.44902 0.75368 0.39949 0.0
C4318 C 0.43657 0.76246 0.37007 0.0
C4319 C 0.41874 0.75693 0.37432 0.0
C4320 C 0.41621 0.74882 0.39072 0.0
H4321 H 0.30895 0.75552 0.32393 0.0
H4322 H 0.33619 0.75214 0.34338 0.0
C4323 C 0.43111 0.74736 0.4032 0.0
C4324 C 0.40276 0.75985 0.36195 0.0
H4325 H 0.3657 0.77869 0.36245 0.0
C4326 C 0.39946 0.75223 0.34297 0.0
C4327 C 0.39052 0.76977 0.36892 0.0
C4328 C 0.39375 0.77931 0.38878 0.0
C4329 C 0.38405 0.75379 0.33102 0.0
C4330 C 0.37167 0.76343 0.33811 0.0
C4331 C 0.37508 0.77119 0.35701 0.0
C4332 C 0.35511 0.76562 0.32621 0.0
C4333 C 0.38087 0.74465 0.31101 0.0
C4334 C 0.35658 0.77466 0.31024 0.0
C4335 C 0.34102 0.77672 0.29914 0.0
C4336 C 0.32354 0.76979 0.3037 0.0
C4337 C 0.32213 0.76102 0.31991 0.0
C4338 C 0.33772 0.75903 0.33105 0.0
H4339 H 0.38885 0.7341 0.3091 0.0
H4340 H 0.36625 0.73826 0.30657 0.0
H4341 H 0.38511 0.75495 0.30159 0.0
H4342 H 0.36982 0.78029 0.30645 0.0
H4343 H 0.34272 0.78391 0.28704 0.0
H4344 H 0.06019 0.73313 0.04533 0.0
H4345 H 0.05549 0.70033 0.03732 0.0
H4346 H 0.03186 0.6921 0.08822 0.0
H4347 H 0.03601 0.72496 0.09601 0.0
H4348 H 0.06957 0.67663 0.05381 0.0
H4349 H 0.99521 0.65527 0.05295 0.0
H4350 H 0.00667 0.67876 0.054 0.0
H4351 H 0.00638 0.66783 0.07498 0.0
C4352 C 0.05365 0.72438 0.05469 0.0
C4353 C 0.04831 0.73188 0.07127 0.0
C4354 C 0.05105 0.7055 0.05011 0.0
C4355 C 0.04306 0.69342 0.06194 0.0
C4356 C 0.03758 0.70087 0.07846 0.0
H4357 H 0.02574 0.57544 0.06235 0.0
H4358 H 0.02849 0.60815 0.06991 0.0
C4359 C 0.04003 0.71979 0.08298 0.0
C4360 C 0.04134 0.67325 0.05736 0.0
H4361 H 0.01144 0.63176 0.05222 0.0
C4362 C 0.05679 0.66688 0.05336 0.0
C4363 C 0.02473 0.66026 0.05673 0.0
C4364 C 0.00727 0.66587 0.0597 0.0
C4365 C 0.0562 0.64819 0.04912 0.0
C4366 C 0.03963 0.63525 0.04862 0.0
C4367 C 0.02419 0.64156 0.05265 0.0
C4368 C 0.03801 0.61518 0.0439 0.0
C4369 C 0.07349 0.64247 0.04562 0.0
C4370 C 0.04212 0.60794 0.0266 0.0
C4371 C 0.04044 0.58917 0.02218 0.0
C4372 C 0.03469 0.57702 0.03495 0.0
C4373 C 0.03035 0.58427 0.05217 0.0
C4374 C 0.03191 0.60305 0.05653 0.0
H4375 H 0.08573 0.65323 0.05153 0.0
H4376 H 0.07442 0.62986 0.0518 0.0
H4377 H 0.07366 0.63976 0.03026 0.0
H4378 H 0.04639 0.61679 0.01632 0.0
H4379 H 0.04344 0.58419 0.00859 0.0
H4380 H 0.06212 0.26472 0.91478 0.0
H4381 H 0.09032 0.26759 0.90069 0.0
H4382 H 0.06016 0.26441 0.84587 0.0
H4383 H 0.03199 0.26178 0.85982 0.0
H4384 H 0.10083 0.24459 0.87405 0.0
H4385 H 0.09949 0.31017 0.84745 0.0
H4386 H 0.0849 0.30127 0.864 0.0
H4387 H 0.07924 0.29289 0.83938 0.0
C4388 C 0.06147 0.26472 0.89973 0.0
C4389 C 0.04471 0.26315 0.88849 0.0
C4390 C 0.07764 0.26632 0.89167 0.0
C4391 C 0.07749 0.26653 0.87222 0.0
C4392 C 0.06076 0.2647 0.86095 0.0
H4393 H 0.16326 0.2773 0.79918 0.0
H4394 H 0.13388 0.26966 0.81117 0.0
C4395 C 0.0446 0.26309 0.86897 0.0
C4396 C 0.09476 0.26848 0.8637 0.0
H4397 H 0.12173 0.29504 0.83755 0.0
C4398 C 0.1054 0.25565 0.86611 0.0
C4399 C 0.10082 0.28291 0.8533 0.0
C4400 C 0.09063 0.2977 0.851 0.0
C4401 C 0.12173 0.25677 0.85829 0.0
C4402 C 0.12772 0.27116 0.8479 0.0
C4403 C 0.11706 0.28391 0.84536 0.0
C4404 C 0.14551 0.27389 0.84043 0.0
C4405 C 0.13239 0.24242 0.86102 0.0
C4406 C 0.16182 0.2786 0.85283 0.0
C4407 C 0.17855 0.28306 0.84603 0.0
C4408 C 0.17939 0.28283 0.82664 0.0
C4409 C 0.16308 0.27741 0.81416 0.0
C4410 C 0.14629 0.27316 0.82101 0.0
H4411 H 0.12405 0.23014 0.8655 0.0
H4412 H 0.13767 0.23841 0.84786 0.0
H4413 H 0.1442 0.24798 0.87204 0.0
H4414 H 0.16158 0.27948 0.86786 0.0
H4415 H 0.19086 0.28714 0.856 0.0
H4416 H 0.53063 0.76456 0.92122 0.0
H4417 H 0.5308 0.73611 0.93365 0.0
H4418 H 0.54915 0.71526 0.88324 0.0
H4419 H 0.54917 0.74412 0.8706 0.0
H4420 H 0.50924 0.70329 0.9173 0.0
H4421 H 0.5821 0.70054 0.92521 0.0
H4422 H 0.57467 0.72125 0.92247 0.0
H4423 H 0.57287 0.70458 0.90245 0.0
C4424 C 0.535 0.75408 0.9128 0.0
C4425 C 0.53981 0.75662 0.89482 0.0
C4426 C 0.53506 0.73777 0.91998 0.0
C4427 C 0.53999 0.72352 0.90944 0.0
C4428 C 0.54552 0.72616 0.89176 0.0
H4429 H 0.52334 0.60976 0.9255 0.0
H4430 H 0.53053 0.63905 0.91349 0.0
C4431 C 0.54553 0.74265 0.88453 0.0
C4432 C 0.53789 0.70562 0.91661 0.0
H4433 H 0.56108 0.67452 0.93121 0.0
C4434 C 0.5206 0.69703 0.92036 0.0
C4435 C 0.55271 0.69747 0.92066 0.0
C4436 C 0.57169 0.70645 0.91766 0.0
C4437 C 0.51773 0.68056 0.92796 0.0
C4438 C 0.53252 0.67243 0.93201 0.0
C4439 C 0.54979 0.68085 0.92813 0.0
C4440 C 0.52999 0.65495 0.9399 0.0
C4441 C 0.49885 0.67178 0.9315 0.0
C4442 C 0.52762 0.65423 0.95884 0.0
C4443 C 0.52351 0.63749 0.96577 0.0
C4444 C 0.52153 0.62116 0.95383 0.0
C4445 C 0.52453 0.62205 0.93501 0.0
C4446 C 0.52876 0.63877 0.92814 0.0
H4447 H 0.48848 0.67884 0.9258 0.0
H4448 H 0.49511 0.65737 0.92505 0.0
H4449 H 0.49856 0.67199 0.94684 0.0
H4450 H 0.52851 0.6666 0.96812 0.0
H4451 H 0.52117 0.63729 0.98028 0.0
H4452 H 0.06964 0.76625 0.73983 0.0
H4453 H 0.10266 0.77103 0.74837 0.0
H4454 H 0.10612 0.74251 0.69455 0.0
H4455 H 0.07358 0.73936 0.68553 0.0
H4456 H 0.12385 0.75124 0.7549 0.0
H4457 H 0.14759 0.78139 0.69325 0.0
H4458 H 0.12417 0.7779 0.69707 0.0
H4459 H 0.13266 0.75964 0.68588 0.0
C4460 C 0.07762 0.76152 0.72967 0.0
C4461 C 0.0691 0.75291 0.71181 0.0
C4462 C 0.09653 0.76409 0.73459 0.0
C4463 C 0.10738 0.75763 0.72199 0.0
C4464 C 0.0986 0.74854 0.70432 0.0
H4465 H 0.21998 0.74429 0.73375 0.0
H4466 H 0.18712 0.74079 0.7253 0.0
C4467 C 0.07985 0.74658 0.69917 0.0
C4468 C 0.12754 0.75959 0.72767 0.0
H4469 H 0.16925 0.76999 0.71226 0.0
C4470 C 0.13369 0.75556 0.74556 0.0
C4471 C 0.14079 0.76525 0.7157 0.0
C4472 C 0.13596 0.77147 0.69702 0.0
C4473 C 0.15227 0.75671 0.75156 0.0
C4474 C 0.16528 0.76181 0.73936 0.0
C4475 C 0.15928 0.76584 0.72154 0.0
C4476 C 0.1852 0.76348 0.74501 0.0
C4477 C 0.15791 0.75225 0.77087 0.0
C4478 C 0.1952 0.7774 0.75889 0.0
C4479 C 0.21399 0.77939 0.76376 0.0
C4480 C 0.22329 0.76745 0.75496 0.0
C4481 C 0.21325 0.75349 0.74109 0.0
C4482 C 0.19445 0.75157 0.73613 0.0
H4483 H 0.1461 0.74551 0.77736 0.0
H4484 H 0.16768 0.74331 0.77026 0.0
H4485 H 0.16483 0.76497 0.78011 0.0
H4486 H 0.1885 0.78692 0.76581 0.0
H4487 H 0.22124 0.79033 0.77447 0.0
H4488 H 0.05815 0.34775 0.42272 0.0
H4489 H 0.05903 0.37855 0.43724 0.0
H4490 H 0.04121 0.39268 0.3832 0.0
H4491 H 0.04069 0.36184 0.3685 0.0
H4492 H 0.07639 0.41733 0.42537 0.0
H4493 H 1.00116 0.39665 0.42226 0.0
H4494 H 0.0152 0.38026 0.42226 0.0
H4495 H 0.01132 0.39096 0.4017 0.0
C4496 C 0.05517 0.35766 0.41382 0.0
C4497 C 0.04976 0.35252 0.39441 0.0
C4498 C 0.05552 0.37521 0.42216 0.0
C4499 C 0.0501 0.38789 0.41134 0.0
C4500 C 0.04553 0.38312 0.39179 0.0
H4501 H 0.01714 0.48755 0.44995 0.0
H4502 H 0.02255 0.46112 0.43089 0.0
C4503 C 0.04545 0.36558 0.38337 0.0
C4504 C 0.04772 0.40541 0.42084 0.0
H4505 H 0.01544 0.42606 0.43669 0.0
C4506 C 0.06307 0.41933 0.42774 0.0
C4507 C 0.03035 0.40795 0.424 0.0
C4508 C 0.01348 0.39321 0.41729 0.0
C4509 C 0.06149 0.43578 0.43762 0.0
C4510 C 0.04411 0.43821 0.44114 0.0
C4511 C 0.02876 0.4243 0.43402 0.0
C4512 C 0.04154 0.45487 0.45244 0.0
C4513 C 0.07847 0.45049 0.44394 0.0
C4514 C 0.0503 0.46025 0.47097 0.0
C4515 C 0.0474 0.47552 0.48174 0.0
C4516 C 0.03553 0.48567 0.47433 0.0
C4517 C 0.02671 0.4803 0.45586 0.0
C4518 C 0.02965 0.46504 0.44504 0.0
H4519 H 0.08943 0.44888 0.43536 0.0
H4520 H 0.07573 0.46416 0.44307 0.0
H4521 H 0.08353 0.44966 0.45875 0.0
H4522 H 0.0592 0.45248 0.47725 0.0
H4523 H 0.05455 0.47947 0.49585 0.0
H4524 H 0.46454 0.27016 0.1914 0.0
H4525 H 0.43507 0.27444 0.19976 0.0
H4526 H 0.4318 0.22994 0.23255 0.0
H4527 H 0.46101 0.22561 0.22433 0.0
H4528 H 0.39932 0.22773 0.20966 0.0
H4529 H 0.42311 0.29648 0.24999 0.0
H4530 H 0.42941 0.29431 0.22674 0.0
H4531 H 0.43848 0.28228 0.24423 0.0
C4532 C 0.45763 0.26136 0.2005 0.0
C4533 C 0.46542 0.24758 0.20721 0.0
C4534 C 0.44073 0.26387 0.20536 0.0
C4535 C 0.43108 0.25264 0.21702 0.0
C4536 C 0.43881 0.23886 0.22361 0.0
H4537 H 0.33984 0.26772 0.27704 0.0
H4538 H 0.36936 0.26552 0.26761 0.0
C4539 C 0.45568 0.23644 0.21889 0.0
C4540 C 0.41282 0.25484 0.22211 0.0
H4541 H 0.39138 0.2843 0.24495 0.0
C4542 C 0.39763 0.24015 0.21731 0.0
C4543 C 0.41042 0.27089 0.23239 0.0
C4544 C 0.42621 0.28687 0.23883 0.0
C4545 C 0.38031 0.24111 0.22226 0.0
C4546 C 0.37783 0.2573 0.2322 0.0
C4547 C 0.39306 0.27192 0.23719 0.0
C4548 C 0.35968 0.25916 0.23786 0.0
C4549 C 0.36492 0.22451 0.2172 0.0
C4550 C 0.34418 0.25667 0.22441 0.0
C4551 C 0.32726 0.25821 0.2298 0.0
C4552 C 0.32526 0.26231 0.24883 0.0
C4553 C 0.34079 0.26484 0.26226 0.0
C4554 C 0.35776 0.26348 0.25685 0.0
H4555 H 0.36999 0.21197 0.21439 0.0
H4556 H 0.35623 0.22281 0.22858 0.0
H4557 H 0.35634 0.22601 0.20427 0.0
H4558 H 0.34518 0.2537 0.20963 0.0
H4559 H 0.31575 0.25635 0.21897 0.0
H4560 H 0.5764 0.53349 0.32398 0.0
H4561 H 0.56809 0.52747 0.35469 0.0
H4562 H 0.61462 0.50427 0.3655 0.0
H4563 H 0.62325 0.51047 0.33457 0.0
H4564 H 0.56054 0.49505 0.37097 0.0
H4565 H 0.621 0.54494 0.41011 0.0
H4566 H 0.6142 0.54442 0.38529 0.0
H4567 H 0.62528 0.52755 0.39353 0.0
C4568 C 0.58484 0.52696 0.33277 0.0
C4569 C 0.60058 0.52259 0.32685 0.0
C4570 C 0.58003 0.52351 0.35034 0.0
C4571 C 0.59087 0.51569 0.3625 0.0
C4572 C 0.60622 0.51059 0.35642 0.0
H4573 H 0.57447 0.50668 0.48073 0.0
H4574 H 0.58661 0.50335 0.4507 0.0
C4575 C 0.61104 0.51399 0.3387 0.0
C4576 C 0.58611 0.51353 0.38166 0.0
H4577 H 0.59919 0.53099 0.42786 0.0
C4578 C 0.56911 0.5027 0.38344 0.0
C4579 C 0.59729 0.52358 0.39792 0.0
C4580 C 0.61542 0.5359 0.39675 0.0
C4581 C 0.56276 0.50202 0.40094 0.0
C4582 C 0.57361 0.51264 0.41706 0.0
C4583 C 0.59094 0.52286 0.41546 0.0
C4584 C 0.5665 0.51456 0.4353 0.0
C4585 C 0.54433 0.4902 0.40197 0.0
C4586 C 0.55149 0.52236 0.43667 0.0
C4587 C 0.54465 0.52435 0.4537 0.0
C4588 C 0.55261 0.51853 0.46979 0.0
C4589 C 0.56793 0.51112 0.46854 0.0
C4590 C 0.57486 0.50919 0.45142 0.0
H4591 H 0.54025 0.4791 0.39001 0.0
H4592 H 0.54415 0.48414 0.41531 0.0
H4593 H 0.53405 0.49858 0.40134 0.0
H4594 H 0.54514 0.52705 0.42454 0.0
H4595 H 0.53313 0.53058 0.45425 0.0
H4596 H 0.28754 0.85045 0.03874 0.0
H4597 H 0.28373 0.84089 0.06952 0.0
H4598 H 0.25751 0.88463 0.08299 0.0
H4599 H 0.26104 0.89423 0.05213 0.0
H4600 H 0.29339 0.88568 0.10399 0.0
H4601 H 0.24374 0.8203 0.10283 0.0
H4602 H 0.25721 0.8215 0.08381 0.0
H4603 H 0.24137 0.83581 0.08581 0.0
C4604 C 0.28029 0.8576 0.04793 0.0
C4605 C 0.27498 0.87333 0.04322 0.0
C4606 C 0.27801 0.85204 0.06546 0.0
C4607 C 0.27039 0.86213 0.07844 0.0
C4608 C 0.26333 0.87667 0.07305 0.0
H4609 H 0.3068 0.86204 0.19877 0.0
H4610 H 0.29175 0.87118 0.17062 0.0
C4611 C 0.26542 0.88213 0.05542 0.0
C4612 C 0.27382 0.8601 0.09843 0.0
H4613 H 0.26751 0.82882 0.12894 0.0
C4614 C 0.28742 0.87349 0.10972 0.0
C4615 C 0.26607 0.84411 0.10557 0.0
C4616 C 0.25117 0.82962 0.09396 0.0
C4617 C 0.29455 0.87068 0.12759 0.0
C4618 C 0.28742 0.85426 0.13443 0.0
C4619 C 0.27293 0.8414 0.1236 0.0
C4620 C 0.29628 0.84915 0.1516 0.0
C4621 C 0.31053 0.88466 0.13831 0.0
C4622 C 0.30368 0.83377 0.15014 0.0
C4623 C 0.31209 0.82855 0.16606 0.0
C4624 C 0.31332 0.83867 0.18369 0.0
C4625 C 0.30625 0.85428 0.18519 0.0
C4626 C 0.29762 0.85942 0.16921 0.0
H4627 H 0.3165 0.89489 0.12947 0.0
H4628 H 0.30603 0.89191 0.15039 0.0
H4629 H 0.32133 0.87806 0.14389 0.0
H4630 H 0.30288 0.82576 0.13665 0.0
H4631 H 0.3174 0.81641 0.16467 0.0
H4632 H 0.89704 0.4889 0.84453 0.0
H4633 H 0.90819 0.49378 0.87808 0.0
H4634 H 0.93351 0.54937 0.87385 0.0
H4635 H 0.92181 0.5447 0.84025 0.0
H4636 H 0.94939 0.50696 0.87761 0.0
H4637 H 0.91924 0.54508 0.93115 0.0
H4638 H 0.90534 0.53101 0.91081 0.0
H4639 H 0.92008 0.55206 0.90806 0.0
C4640 C 0.90447 0.50231 0.85095 0.0
C4641 C 0.90921 0.5163 0.84 0.0
C4642 C 0.91049 0.50516 0.87009 0.0
C4643 C 0.9216 0.52189 0.87824 0.0
C4644 C 0.92466 0.53648 0.86772 0.0
H4645 H 1.00273 0.55072 0.97539 0.0
H4646 H 0.98116 0.55065 0.94759 0.0
C4647 C 0.91828 0.53373 0.84857 0.0
C4648 C 0.93463 0.52197 0.89465 0.0
H4649 H 0.94641 0.53642 0.9413 0.0
C4650 C 0.94878 0.51334 0.89161 0.0
C4651 C 0.93372 0.53059 0.91256 0.0
C4652 C 0.91878 0.54022 0.91603 0.0
C4653 C 0.96236 0.51319 0.90611 0.0
C4654 C 0.96131 0.52141 0.92426 0.0
C4655 C 0.94707 0.53007 0.92732 0.0
C4656 C 0.97503 0.52145 0.9402 0.0
C4657 C 0.97788 0.5047 0.90158 0.0
C4658 C 0.97894 0.50509 0.94487 0.0
C4659 C 0.99187 0.50527 0.96008 0.0
C4660 C 1.00016 0.52167 0.97128 0.0
C4661 C 0.99633 0.53799 0.96671 0.0
C4662 C 0.98397 0.53792 0.95105 0.0
H4663 H 0.97964 0.50456 0.8865 0.0
H4664 H 0.99089 0.51203 0.91014 0.0
H4665 H 0.97489 0.4904 0.90448 0.0
H4666 H 0.97174 0.4922 0.93701 0.0
H4667 H 0.99453 0.49255 0.96382 0.0
H4668 H 0.26428 0.22886 0.55863 0.0
H4669 H 0.26884 0.23878 0.59222 0.0
H4670 H 0.29565 0.19539 0.60201 0.0
H4671 H 0.29074 0.18501 0.56811 0.0
H4672 H 0.27022 0.19722 0.62528 0.0
H4673 H 0.3134 0.26575 0.62712 0.0
H4674 H 0.29319 0.26247 0.61066 0.0
H4675 H 0.30944 0.24882 0.60679 0.0
C4676 C 0.2714 0.22152 0.56783 0.0
C4677 C 0.27716 0.20613 0.56061 0.0
C4678 C 0.2741 0.22731 0.5871 0.0
C4679 C 0.28282 0.21802 0.59968 0.0
C4680 C 0.28898 0.20285 0.59256 0.0
H4681 H 0.30801 0.26759 0.71671 0.0
H4682 H 0.30999 0.25499 0.68488 0.0
C4683 C 0.28626 0.197 0.57317 0.0
C4684 C 0.28436 0.22362 0.62027 0.0
H4685 H 0.29711 0.26079 0.65354 0.0
C4686 C 0.27635 0.21105 0.63156 0.0
C4687 C 0.29261 0.24157 0.62857 0.0
C4688 C 0.30282 0.25536 0.61768 0.0
C4689 C 0.27577 0.2161 0.65074 0.0
C4690 C 0.28281 0.23444 0.65873 0.0
C4691 C 0.29142 0.2468 0.64752 0.0
C4692 C 0.28157 0.2412 0.6786 0.0
C4693 C 0.26781 0.2016 0.66217 0.0
C4694 C 0.26496 0.23776 0.68594 0.0
C4695 C 0.26397 0.2444 0.70452 0.0
C4696 C 0.27935 0.25534 0.71594 0.0
C4697 C 0.29584 0.25917 0.70841 0.0
C4698 C 0.29698 0.25202 0.69008 0.0
H4699 H 0.26917 0.18801 0.65611 0.0
H4700 H 0.27448 0.20437 0.67696 0.0
H4701 H 0.25309 0.20101 0.66203 0.0
H4702 H 0.25266 0.23005 0.67729 0.0
H4703 H 0.25114 0.24099 0.70986 0.0
H4704 H 0.6098 0.50441 0.21852 0.0
H4705 H 0.59895 0.49922 0.1846 0.0
H4706 H 0.57434 0.54522 0.19059 0.0
H4707 H 0.58462 0.55021 0.22412 0.0
H4708 H 0.55156 0.51516 0.16921 0.0
H4709 H 0.6196 0.53002 0.14493 0.0
H4710 H 0.61564 0.51294 0.16041 0.0
H4711 H 0.61644 0.53613 0.16896 0.0
C4712 C 0.60201 0.51334 0.21258 0.0
C4713 C 0.59804 0.52768 0.22408 0.0
C4714 C 0.59593 0.51044 0.19319 0.0
C4715 C 0.586 0.52197 0.18504 0.0
C4716 C 0.58194 0.53612 0.19656 0.0
H4717 H 0.56287 0.55112 0.07492 0.0
H4718 H 0.57466 0.54849 0.10717 0.0
C4719 C 0.58783 0.53893 0.2158 0.0
C4720 C 0.57956 0.51958 0.16457 0.0
H4721 H 0.59404 0.52398 0.12177 0.0
C4722 C 0.56083 0.51687 0.15879 0.0
C4723 C 0.59171 0.52204 0.15105 0.0
C4724 C 0.61199 0.52557 0.15655 0.0
C4725 C 0.55393 0.51702 0.13999 0.0
C4726 C 0.56607 0.51963 0.12649 0.0
C4727 C 0.58478 0.52193 0.13215 0.0
C4728 C 0.5596 0.52083 0.10661 0.0
C4729 C 0.53377 0.5152 0.13491 0.0
C4730 C 0.54747 0.50608 0.09548 0.0
C4731 C 0.54049 0.50767 0.07716 0.0
C4732 C 0.54563 0.52401 0.06953 0.0
C4733 C 0.55831 0.53853 0.08048 0.0
C4734 C 0.5652 0.53697 0.09887 0.0
H4735 H 0.52696 0.51741 0.14751 0.0
H4736 H 0.53109 0.52503 0.12521 0.0
H4737 H 0.52753 0.50132 0.12769 0.0
H4738 H 0.54326 0.49338 0.10102 0.0
H4739 H 0.53095 0.49609 0.06905 0.0
H4740 H 0.26235 0.89125 0.94693 0.0
H4741 H 0.25583 0.8757 0.91471 0.0
H4742 H 0.31284 0.87755 0.91416 0.0
H4743 H 0.31948 0.8928 0.94639 0.0
H4744 H 0.28014 0.87949 0.87589 0.0
H4745 H 0.2761 0.82267 0.91961 0.0
H4746 H 0.26913 0.84314 0.92737 0.0
H4747 H 0.29277 0.8436 0.92716 0.0
C4748 C 0.27355 0.88889 0.9397 0.0
C4749 C 0.29134 0.89262 0.94922 0.0
C4750 C 0.26981 0.88018 0.9213 0.0
C4751 C 0.28388 0.87545 0.91236 0.0
C4752 C 0.30189 0.88118 0.92101 0.0
H4753 H 0.29908 0.79281 0.8316 0.0
H4754 H 0.29942 0.81373 0.85993 0.0
C4755 C 0.30561 0.88966 0.93944 0.0
C4756 C 0.27961 0.86099 0.89652 0.0
H4757 H 0.27425 0.81522 0.88704 0.0
C4758 C 0.2786 0.86541 0.87819 0.0
C4759 C 0.27782 0.84276 0.89987 0.0
C4760 C 0.27895 0.83761 0.91954 0.0
C4761 C 0.27621 0.85184 0.86289 0.0
C4762 C 0.27465 0.83361 0.86631 0.0
C4763 C 0.27538 0.82924 0.88464 0.0
C4764 C 0.27311 0.81898 0.85098 0.0
C4765 C 0.27601 0.8571 0.84329 0.0
C4766 C 0.25776 0.81442 0.83738 0.0
C4767 C 0.25757 0.8026 0.82135 0.0
C4768 C 0.27265 0.79515 0.81894 0.0
C4769 C 0.28729 0.79837 0.83335 0.0
C4770 C 0.28754 0.81037 0.84936 0.0
H4771 H 0.28097 0.87195 0.8434 0.0
H4772 H 0.28452 0.84993 0.83513 0.0
H4773 H 0.26189 0.85311 0.8359 0.0
H4774 H 0.24637 0.8207 0.83873 0.0
H4775 H 0.24608 0.80006 0.81036 0.0
H4776 H 0.94104 0.49967 0.74096 0.0
H4777 H 0.95087 0.50483 0.71058 0.0
H4778 H 0.92155 0.54727 0.70695 0.0
H4779 H 0.91166 0.54236 0.73755 0.0
H4780 H 0.91373 0.51333 0.6756 0.0
H4781 H 0.98535 0.55217 0.6936 0.0
H4782 H 0.97814 0.53475 0.70802 0.0
H4783 H 0.96808 0.55407 0.70857 0.0
C4784 C 0.93704 0.51042 0.73399 0.0
C4785 C 0.92551 0.52054 0.74161 0.0
C4786 C 0.94265 0.51333 0.71665 0.0
C4787 C 0.9369 0.52642 0.70672 0.0
C4788 C 0.92609 0.53714 0.71456 0.0
H4789 H 0.98368 0.52341 0.60192 0.0
H4790 H 0.96824 0.53691 0.62576 0.0
C4791 C 0.92051 0.53431 0.732 0.0
C4792 C 0.94097 0.5274 0.68744 0.0
H4793 H 0.9773 0.5342 0.66339 0.0
C4794 C 0.92748 0.51839 0.67271 0.0
C4795 C 0.95882 0.53421 0.68386 0.0
C4796 C 0.97346 0.54449 0.6993 0.0
C4797 C 0.9319 0.51444 0.65468 0.0
C4798 C 0.95021 0.51952 0.6516 0.0
C4799 C 0.96327 0.5302 0.66588 0.0
C4800 C 0.95675 0.51134 0.63512 0.0
C4801 C 0.91721 0.50392 0.63939 0.0
C4802 C 0.95528 0.49252 0.63255 0.0
C4803 C 0.96412 0.48481 0.61908 0.0
C4804 C 0.97458 0.49582 0.60802 0.0
C4805 C 0.97554 0.5146 0.61017 0.0
C4806 C 0.96675 0.52233 0.62372 0.0
H4807 H 0.90375 0.50659 0.64171 0.0
H4808 H 0.92019 0.50739 0.62532 0.0
H4809 H 0.9163 0.48918 0.63953 0.0
H4810 H 0.94798 0.4839 0.64156 0.0
H4811 H 0.96308 0.47029 0.61756 0.0
H4812 H 0.28956 0.17869 0.4497 0.0
H4813 H 0.29559 0.18757 0.41875 0.0
H4814 H 0.26971 0.23225 0.42845 0.0
H4815 H 0.26375 0.22364 0.45905 0.0
H4816 H 0.26825 0.19064 0.38864 0.0
H4817 H 0.31811 0.25593 0.41126 0.0
H4818 H 0.31326 0.23869 0.4266 0.0
H4819 H 0.29826 0.25375 0.42296 0.0
C4820 C 0.28543 0.19056 0.44532 0.0
C4821 C 0.27619 0.20046 0.45688 0.0
C4822 C 0.28881 0.19557 0.42763 0.0
C4823 C 0.28328 0.2107 0.42139 0.0
C4824 C 0.27439 0.22072 0.43307 0.0
H4825 H 0.2696 0.26902 0.32907 0.0
H4826 H 0.2723 0.25642 0.3587 0.0
C4827 C 0.2709 0.21569 0.45057 0.0
C4828 C 0.28573 0.21572 0.40234 0.0
H4829 H 0.30259 0.25171 0.37983 0.0
C4830 C 0.27604 0.20384 0.38661 0.0
C4831 C 0.29585 0.23297 0.39976 0.0
C4832 C 0.30711 0.24602 0.41602 0.0
C4833 C 0.27531 0.20918 0.36851 0.0
C4834 C 0.28483 0.22676 0.36606 0.0
C4835 C 0.2952 0.23829 0.3817 0.0
C4836 C 0.28319 0.23403 0.34774 0.0
C4837 C 0.26355 0.19635 0.35236 0.0
C4838 C 0.28845 0.22568 0.33164 0.0
C4839 C 0.28678 0.2328 0.31455 0.0
C4840 C 0.28008 0.24857 0.31334 0.0
C4841 C 0.27492 0.25692 0.32951 0.0
C4842 C 0.27646 0.24974 0.34649 0.0
H4843 H 0.25405 0.18511 0.35729 0.0
H4844 H 0.25551 0.20366 0.34342 0.0
H4845 H 0.27234 0.19029 0.34353 0.0
H4846 H 0.29403 0.21377 0.33231 0.0
H4847 H 0.29099 0.22613 0.30238 0.0
H4848 H 0.32127 0.61132 0.56151 0.0
H4849 H 0.35003 0.60208 0.56075 0.0
H4850 H 0.32319 0.55481 0.52166 0.0
H4851 H 0.29424 0.56388 0.52227 0.0
H4852 H 0.35989 0.56021 0.55999 0.0
H4853 H 0.36174 0.599 0.49835 0.0
H4854 H 0.35023 0.60474 0.51789 0.0
H4855 H 0.34063 0.5845 0.50188 0.0
C4856 C 0.32138 0.59868 0.55314 0.0
C4857 C 0.30566 0.58848 0.54162 0.0
C4858 C 0.33775 0.59339 0.55288 0.0
C4859 C 0.33851 0.57788 0.54113 0.0
C4860 C 0.32262 0.56678 0.53089 0.0
H4861 H 0.41829 0.5288 0.49998 0.0
H4862 H 0.39344 0.53615 0.51549 0.0
C4863 C 0.30618 0.57202 0.5312 0.0
C4864 C 0.35614 0.57528 0.5368 0.0
H4865 H 0.38558 0.58461 0.50506 0.0
C4866 C 0.36565 0.56557 0.54808 0.0
C4867 C 0.36347 0.58262 0.52141 0.0
C4868 C 0.3536 0.59336 0.50914 0.0
C4869 C 0.38242 0.56257 0.54395 0.0
C4870 C 0.38945 0.56941 0.52815 0.0
C4871 C 0.3801 0.57955 0.51724 0.0
C4872 C 0.40563 0.56489 0.52146 0.0
C4873 C 0.39238 0.55206 0.55635 0.0
C4874 C 0.4205 0.57875 0.51952 0.0
C4875 C 0.43473 0.57462 0.51062 0.0
C4876 C 0.43411 0.55661 0.50345 0.0
C4877 C 0.41924 0.54278 0.50564 0.0
C4878 C 0.40511 0.5469 0.5146 0.0
H4879 H 0.38796 0.55233 0.57051 0.0
H4880 H 0.38946 0.53769 0.54987 0.0
H4881 H 0.40729 0.55756 0.55789 0.0
H4882 H 0.42088 0.59276 0.52456 0.0
H4883 H 0.44616 0.58547 0.50931 0.0
H4884 H 0.82764 0.92769 0.51578 0.0
H4885 H 0.85549 0.94972 0.51229 0.0
H4886 H 0.88425 0.93185 0.55897 0.0
H4887 H 0.85675 0.90962 0.5622 0.0
H4888 H 0.88224 0.97821 0.53675 0.0
H4889 H 0.90961 0.91886 0.51338 0.0
H4890 H 0.88586 0.91703 0.51542 0.0
H4891 H 0.90193 0.91813 0.53596 0.0
C4892 C 0.83977 0.92889 0.52564 0.0
C4893 C 0.84016 0.91687 0.53913 0.0
C4894 C 0.85566 0.94138 0.52357 0.0
C4895 C 0.87197 0.94204 0.53509 0.0
C4896 C 0.87187 0.93125 0.5497 0.0
H4897 H 0.98575 0.98546 0.5433 0.0
H4898 H 0.95464 0.97081 0.54651 0.0
C4899 C 0.85615 0.91864 0.55159 0.0
C4900 C 0.88945 0.95256 0.53088 0.0
H4901 H 0.93059 0.94744 0.51948 0.0
C4902 C 0.8928 0.97156 0.53282 0.0
C4903 C 0.90307 0.94374 0.52554 0.0
C4904 C 0.89992 0.92331 0.52226 0.0
C4905 C 0.90984 0.98204 0.53048 0.0
C4906 C 0.92364 0.97319 0.52581 0.0
C4907 C 0.92002 0.95418 0.52323 0.0
C4908 C 0.94229 0.98321 0.52438 0.0
C4909 C 0.91314 1.00245 0.53371 0.0
C4910 C 0.94566 0.99509 0.51089 0.0
C4911 C 0.96349 0.00363 0.50911 0.0
C4912 C 0.97818 1.00017 0.52063 0.0
C4913 C 0.97472 0.98833 0.53416 0.0
C4914 C 0.95695 0.97998 0.53604 0.0
H4915 H 0.90268 0.00704 0.54136 0.0
H4916 H 0.92675 0.00852 0.5418 0.0
H4917 H 0.91265 0.00772 0.51994 0.0
H4918 H 0.93455 0.99744 0.50146 0.0
H4919 H 0.9658 0.01256 0.49843 0.0
H4920 H 0.90033 0.06504 0.2407 0.0
H4921 H 0.88716 0.09172 0.24029 0.0
H4922 H 0.85595 0.07432 0.28413 0.0
H4923 H 0.86908 0.04767 0.28476 0.0
H4924 H 0.84939 0.09451 0.2348 0.0
H4925 H 0.88585 0.12627 0.3051 0.0
H4926 H 0.89235 0.10795 0.29159 0.0
H4927 H 0.87321 0.10331 0.30432 0.0
C4928 C 0.89062 0.06684 0.25023 0.0
C4929 C 0.88588 0.05428 0.26289 0.0
C4930 C 0.88307 0.08207 0.24991 0.0
C4931 C 0.87076 0.08507 0.26232 0.0
C4932 C 0.86563 0.07234 0.27461 0.0
H4933 H 0.79915 0.15756 0.27291 0.0
H4934 H 0.81242 0.13227 0.26216 0.0
C4935 C 0.87312 0.0571 0.27492 0.0
C4936 C 0.86369 0.10179 0.2629 0.0
H4937 H 0.86302 0.13989 0.29187 0.0
C4938 C 0.85244 0.10453 0.2472 0.0
C4939 C 0.86793 0.11493 0.27899 0.0
C4940 C 0.88062 0.11312 0.29592 0.0
C4941 C 0.84484 0.11985 0.24744 0.0
C4942 C 0.84853 0.13262 0.26383 0.0
C4943 C 0.86019 0.13008 0.2793 0.0
C4944 C 0.84001 0.14841 0.26581 0.0
C4945 C 0.83296 0.12227 0.23019 0.0
C4946 C 0.85101 0.16596 0.2709 0.0
C4947 C 0.84343 0.18034 0.27704 0.0
C4948 C 0.82475 0.17739 0.27813 0.0
C4949 C 0.81353 0.16017 0.27173 0.0
C4950 C 0.82112 0.14575 0.26563 0.0
H4951 H 0.83551 0.1143 0.21739 0.0
H4952 H 0.8185 0.11746 0.23201 0.0
H4953 H 0.83523 0.13679 0.22803 0.0
H4954 H 0.86561 0.16829 0.27126 0.0
H4955 H 0.85233 0.19345 0.28228 0.0
H4956 H 0.72405 0.07587 0.0018 0.0
H4957 H 0.69283 0.05787 0.99302 0.0
H4958 H 0.68148 0.07095 0.04934 0.0
H4959 H 0.71242 0.0892 0.058 0.0
H4960 H 0.66173 0.03253 0.02367 0.0
H4961 H 0.65897 0.09874 -0.00224 0.0
H4962 H 0.6769 0.0876 0.99266 0.0
H4963 H 0.67643 0.09732 0.01622 0.0
C4964 C 0.71519 0.07392 0.01255 0.0
C4965 C 0.7204 0.08379 0.03052 0.0
C4966 C 0.69739 0.06377 0.00749 0.0
C4967 C 0.68501 0.06334 0.02053 0.0
C4968 C 0.69099 0.07114 0.03919 0.0
H4969 H 0.58096 0.05921 0.04323 0.0
H4970 H 0.61292 0.06708 0.03819 0.0
C4971 C 0.70863 0.08146 0.04414 0.0
C4972 C 0.66543 0.05878 0.01417 0.0
H4973 H 0.63124 0.07922 0.00042 0.0
C4974 C 0.65499 0.04243 0.01805 0.0
C4975 C 0.6569 0.07201 0.00714 0.0
C4976 C 0.66777 0.08996 0.00317 0.0
C4977 C 0.63602 0.03927 0.0158 0.0
C4978 C 0.62758 0.05288 0.00968 0.0
C4979 C 0.63795 0.06886 0.00497 0.0
C4980 C 0.60824 0.05158 0.01056 0.0
C4981 C 0.62509 0.02192 0.02102 0.0
C4982 C 0.59525 0.04096 0.99631 0.0
C4983 C 0.57709 0.0366 -0.00087 0.0
C4984 C 0.57188 0.04294 0.01615 0.0
C4985 C 0.58476 0.0545 0.02989 0.0
C4986 C 0.60289 0.05894 0.02704 0.0
H4987 H 0.63377 0.01267 0.0255 0.0
H4988 H 0.61738 0.02511 0.03264 0.0
H4989 H 0.61505 0.01474 0.00883 0.0
H4990 H 0.59933 0.03505 0.98363 0.0
H4991 H 0.56758 0.02706 0.98869 0.0
H4992 H 0.24094 0.5042 0.2409 0.0
H4993 H 0.25007 0.47547 0.24289 0.0
H4994 H 0.19393 0.44653 0.23114 0.0
H4995 H 0.18465 0.47507 0.22891 0.0
H4996 H 0.23573 0.4559 0.27159 0.0
H4997 H 0.22115 0.41319 0.202 0.0
H4998 H 0.22478 0.43764 0.20451 0.0
H4999 H 0.20347 0.42403 0.20842 0.0
C5000 C 0.23059 0.49168 0.23804 0.0
C5001 C 0.21208 0.49187 0.235 0.0
C5002 C 0.23583 0.47531 0.23918 0.0
C5003 C 0.22265 0.45899 0.23706 0.0
C5004 C 0.20428 0.459 0.23248 0.0
H5005 H 0.22129 0.3586 0.28312 0.0
H5006 H 0.21272 0.3829 0.2668 0.0
C5007 C 0.19902 0.47534 0.23138 0.0
C5008 C 0.22766 0.44268 0.24315 0.0
H5009 H 0.22739 0.39848 0.22882 0.0
C5010 C 0.23411 0.4434 0.2622 0.0
C5011 C 0.22513 0.42641 0.23086 0.0
C5012 C 0.21837 0.42521 0.21026 0.0
C5013 C 0.23806 0.42815 0.26939 0.0
C5014 C 0.23564 0.41191 0.25712 0.0
C5015 C 0.22916 0.41108 0.23806 0.0
C5016 C 0.24037 0.39592 0.26414 0.0
C5017 C 0.24465 0.42936 0.29008 0.0
C5018 C 0.25866 0.39534 0.2677 0.0
C5019 C 0.2636 0.38179 0.27722 0.0
C5020 C 0.25026 0.36857 0.28323 0.0
C5021 C 0.23184 0.36879 0.27892 0.0
C5022 C 0.22691 0.38244 0.26941 0.0
H5023 H 0.24377 0.44236 0.29806 0.0
H5024 H 0.23655 0.41796 0.29616 0.0
H5025 H 0.25902 0.42821 0.29198 0.0
H5026 H 0.26915 0.40582 0.26381 0.0
H5027 H 0.27791 0.38209 0.28051 0.0
H5028 H 0.22917 0.40059 0.98718 0.0
H5029 H 0.20445 0.41623 0.98996 0.0
H5030 H 0.22051 0.42838 0.0498 0.0
H5031 H 0.24533 0.41272 0.04724 0.0
H5032 H 0.17538 0.4082 0.01652 0.0
H5033 H 0.21895 0.47841 0.02774 0.0
H5034 H 0.22625 0.45964 0.01595 0.0
H5035 H 0.22559 0.46136 0.04077 0.0
C5036 C 0.22749 0.40658 0.00095 0.0
C5037 C 0.23927 0.40545 0.01697 0.0
C5038 C 0.21333 0.41546 0.00251 0.0
C5039 C 0.21077 0.42347 0.02007 0.0
C5040 C 0.22239 0.42235 0.03613 0.0
H5041 H 0.13627 0.49704 0.02757 0.0
H5042 H 0.15693 0.4784 0.03897 0.0
C5043 C 0.23654 0.41339 0.0346 0.0
C5044 C 0.19593 0.4331 0.02134 0.0
H5045 H 0.18738 0.47541 0.02347 0.0
C5046 C 0.17795 0.4229 0.01833 0.0
C5047 C 0.19941 0.45224 0.02397 0.0
C5048 C 0.21856 0.46368 0.02725 0.0
C5049 C 0.16328 0.43139 0.01711 0.0
C5050 C 0.16674 0.45053 0.01841 0.0
C5051 C 0.18474 0.46074 0.02248 0.0
C5052 C 0.15225 0.46005 0.01303 0.0
C5053 C 0.14422 0.41974 0.01403 0.0
C5054 C 0.1426 0.45572 0.99486 0.0
C5055 C 0.13091 0.46625 0.98842 0.0
C5056 C 0.12874 0.48143 -4e-05 0.0
C5057 C 0.13765 0.4853 0.01849 0.0
C5058 C 0.14947 0.47474 0.02495 0.0
H5059 H 0.14369 0.40693 0.0203 0.0
H5060 H 0.13456 0.42698 0.02016 0.0
H5061 H 0.1397 0.41604 -0.00128 0.0
H5062 H 0.14482 0.44476 0.98525 0.0
H5063 H 0.12414 0.46301 0.97409 0.0
H5064 H 0.86989 0.97511 0.26064 0.0
H5065 H 0.84727 0.94763 0.26414 0.0
H5066 H 0.87748 0.9146 0.23465 0.0
H5067 H 0.89993 0.94168 0.23102 0.0
H5068 H 0.8268 0.91425 0.23386 0.0
H5069 H 0.87547 0.90057 0.29092 0.0
H5070 H 0.87656 0.92297 0.2842 0.0
H5071 H 0.88466 0.90648 0.2699 0.0
C5072 C 0.87144 0.96202 0.2545 0.0
C5073 C 0.88679 0.96055 0.24573 0.0
C5074 C 0.85858 0.94637 0.25658 0.0
C5075 C 0.86094 0.92916 0.24988 0.0
C5076 C 0.87557 0.92778 0.24007 0.0
H5077 H 0.81666 0.81632 0.24262 0.0
H5078 H 0.83252 0.84736 0.24033 0.0
C5079 C 0.88837 0.94329 0.23802 0.0
C5080 C 0.84907 0.91243 0.25414 0.0
H5081 H 0.84997 0.87657 0.27877 0.0
C5082 C 0.83168 0.90614 0.24391 0.0
C5083 C 0.85559 0.90191 0.26722 0.0
C5084 C 0.87404 0.90832 0.27883 0.0
C5085 C 0.8209 0.88916 0.24594 0.0
C5086 C 0.82772 0.87841 0.25851 0.0
C5087 C 0.84485 0.88494 0.26916 0.0
C5088 C 0.81778 0.85981 0.25987 0.0
C5089 C 0.80258 0.88238 0.23417 0.0
C5090 C 0.80437 0.85667 0.27175 0.0
C5091 C 0.79531 0.83893 0.2732 0.0
C5092 C 0.79954 0.82411 0.26273 0.0
C5093 C 0.81304 0.82741 0.25086 0.0
C5094 C 0.82211 0.84511 0.2495 0.0
H5095 H 0.79912 0.89244 0.22511 0.0
H5096 H 0.80244 0.86962 0.22512 0.0
H5097 H 0.79192 0.87919 0.24344 0.0
H5098 H 0.801 0.86794 0.27994 0.0
H5099 H 0.78507 0.83682 0.28255 0.0
H5100 H 0.71855 0.07947 0.73395 0.0
H5101 H 0.73588 0.11053 0.7339 0.0
H5102 H 0.73894 0.12009 0.79416 0.0
H5103 H 0.72104 0.08931 0.79418 0.0
H5104 H 0.71292 0.13519 0.75743 0.0
H5105 H 0.78856 0.15139 0.77241 0.0
H5106 H 0.77586 0.13026 0.75893 0.0
H5107 H 0.7754 0.13398 0.78375 0.0
C5108 C 0.72391 0.08787 0.74725 0.0
C5109 C 0.71854 0.0823 0.76408 0.0
C5110 C 0.73374 0.10555 0.74719 0.0
C5111 C 0.73855 0.11738 0.76403 0.0
C5112 C 0.73542 0.11095 0.78111 0.0
H5113 H 0.77276 0.23217 0.79345 0.0
H5114 H 0.76111 0.19998 0.79508 0.0
C5115 C 0.72524 0.09344 0.78113 0.0
C5116 C 0.74169 0.13692 0.76346 0.0
H5117 H 0.77428 0.17605 0.77153 0.0
C5118 C 0.72632 0.14421 0.76037 0.0
C5119 C 0.75914 0.14833 0.76756 0.0
C5120 C 0.77579 0.14072 0.77083 0.0
C5121 C 0.72798 0.16294 0.76161 0.0
C5122 C 0.74548 0.17442 0.76571 0.0
C5123 C 0.76087 0.16708 0.7686 0.0
C5124 C 0.74837 0.19411 0.76615 0.0
C5125 C 0.71106 0.17028 0.75894 0.0
C5126 C 0.7443 0.2014 0.74959 0.0
C5127 C 0.75057 0.21982 0.74884 0.0
C5128 C 0.76091 0.231 0.76461 0.0
C5129 C 0.76404 0.22393 0.78148 0.0
C5130 C 0.75769 0.20553 0.78229 0.0
H5131 H 0.69879 0.16018 0.76108 0.0
H5132 H 0.71235 0.18285 0.76877 0.0
H5133 H 0.709 0.17364 0.74439 0.0
H5134 H 0.73743 0.19268 0.73692 0.0
H5135 H 0.74835 0.22512 0.73562 0.0
loop_
_geom_bond_atom_site_label_1
_geom_bond_atom_site_label_2
_geom_bond_distance
_geom_bond_site_symmetry_2
_ccdc_geom_bond_type
Zn0 O3 2.031 . S
Zn0 O5 2.049 . S
Zn0 O10 2.055 1_455 S
Zn1 O2 1.962 . S
Zn1 O4 1.986 . S
Zn1 O6 1.996 . S
Zn1 O9 1.943 . S
O2 Zn1 1.962 . S
O2 C7 1.254 . S
O3 Zn0 2.031 . S
O3 C7 1.269 . S
O4 Zn1 1.986 . S
O4 C11 1.262 . S
O5 Zn0 2.049 . S
O5 C13 1.260 . S
O6 Zn1 1.996 . S
O6 C13 1.257 . S
C7 O2 1.254 . S
C7 O3 1.269 . S
C8 O9 1.249 . S
C8 O10 1.251 1_455 S
O9 Zn1 1.943 . S
O9 C8 1.249 . S
O10 Zn0 2.055 1_655 S
O10 C8 1.251 1_655 S
C11 O4 1.262 . S
C11 O12 1.232 . S
O12 C11 1.232 . S
C13 O5 1.260 . S
C13 O6 1.257 . S
Zn14 O17 2.031 1_455 S
Zn14 O19 2.049 . S
Zn14 O24 2.067 . S
Zn15 O16 1.962 1_455 S
Zn15 O18 1.986 . S
Zn15 O20 1.996 . S
Zn15 O23 1.943 . S
O16 Zn15 1.962 1_655 S
O16 C21 1.254 . S
O17 Zn14 2.031 1_655 S
O17 C21 1.269 . S
O18 Zn15 1.986 . S
O18 C25 1.262 . S
O19 Zn14 2.049 . S
O19 C27 1.260 . S
O20 Zn15 1.996 . S
O20 C27 1.257 . S
C21 O16 1.254 . S
C21 O17 1.269 . S
C22 O23 1.249 . S
C22 O24 1.270 . S
O23 Zn15 1.943 . S
O23 C22 1.249 . S
O24 Zn14 2.067 . S
O24 C22 1.270 . S
C25 O18 1.262 . S
C25 O26 1.232 . S
O26 C25 1.232 . S
C27 O19 1.260 . S
C27 O20 1.257 . S
Zn28 O31 2.031 . S
Zn28 O33 2.049 . S
Zn28 O38 2.067 . S
Zn29 O30 1.962 . S
Zn29 O32 1.986 . S
Zn29 O34 1.996 . S
Zn29 O37 1.943 . S
O30 Zn29 1.962 . S
O30 C35 1.254 . S
O31 Zn28 2.031 . S
O31 C35 1.269 . S
O32 Zn29 1.986 . S
O32 C39 1.262 . S
O33 Zn28 2.049 . S
O33 C41 1.260 . S
O34 Zn29 1.996 . S
O34 C41 1.257 . S
C35 O30 1.254 . S
C35 O31 1.269 . S
C36 O37 1.249 . S
C36 O38 1.270 . S
O37 Zn29 1.943 . S
O37 C36 1.249 . S
O38 Zn28 2.067 . S
O38 C36 1.270 . S
C39 O32 1.262 . S
C39 O40 1.232 . S
O40 C39 1.232 . S
C41 O33 1.260 . S
C41 O34 1.257 . S
Zn42 O45 2.031 . S
Zn42 O47 2.049 . S
Zn42 O52 2.067 . S
Zn43 O44 1.962 . S
Zn43 O46 1.986 . S
Zn43 O48 1.996 . S
Zn43 O51 1.943 . S
O44 Zn43 1.962 . S
O44 C49 1.254 . S
O45 Zn42 2.031 . S
O45 C49 1.269 . S
O46 Zn43 1.986 . S
O46 C53 1.262 . S
O47 Zn42 2.049 . S
O47 C55 1.260 . S
O48 Zn43 1.996 . S
O48 C55 1.257 . S
C49 O44 1.254 . S
C49 O45 1.269 . S
C50 O51 1.249 . S
C50 O52 1.270 . S
O51 Zn43 1.943 . S
O51 C50 1.249 . S
O52 Zn42 2.067 . S
O52 C50 1.270 . S
C53 O46 1.262 . S
C53 O54 1.232 . S
O54 C53 1.232 . S
C55 O47 1.260 . S
C55 O48 1.257 . S
Zn56 O59 2.031 . S
Zn56 O61 2.049 . S
Zn56 O66 2.067 . S
Zn57 O58 1.962 . S
Zn57 O60 1.986 . S
Zn57 O62 1.996 . S
Zn57 O65 1.943 . S
O58 Zn57 1.962 . S
O58 C63 1.254 . S
O59 Zn56 2.031 . S
O59 C63 1.269 . S
O60 Zn57 1.986 . S
O60 C67 1.262 . S
O61 Zn56 2.049 . S
O61 C69 1.260 . S
O62 Zn57 1.996 . S
O62 C69 1.257 . S
C63 O58 1.254 . S
C63 O59 1.269 . S
C64 O65 1.249 . S
C64 O66 1.270 . S
O65 Zn57 1.943 . S
O65 C64 1.249 . S
O66 Zn56 2.067 . S
O66 C64 1.270 . S
C67 O60 1.262 . S
C67 O68 1.232 . S
O68 C67 1.232 . S
C69 O61 1.260 . S
C69 O62 1.257 . S
Zn70 O73 2.031 . S
Zn70 O75 2.049 . S
Zn70 O80 2.067 . S
Zn71 O72 1.962 . S
Zn71 O74 1.986 . S
Zn71 O76 1.996 . S
Zn71 O79 1.943 . S
O72 Zn71 1.962 . S
O72 C77 1.254 . S
O73 Zn70 2.031 . S
O73 C77 1.269 . S
O74 Zn71 1.986 . S
O74 C81 1.262 . S
O75 Zn70 2.049 . S
O75 C83 1.260 . S
O76 Zn71 1.996 . S
O76 C83 1.257 . S
C77 O72 1.254 . S
C77 O73 1.269 . S
C78 O79 1.249 . S
C78 O80 1.270 . S
O79 Zn71 1.943 . S
O79 C78 1.249 . S
O80 Zn70 2.067 . S
O80 C78 1.270 . S
C81 O74 1.262 . S
C81 O82 1.232 . S
O82 C81 1.232 . S
C83 O75 1.260 . S
C83 O76 1.257 . S
Zn84 O87 2.031 . S
Zn84 O89 2.049 . S
Zn84 O94 2.067 . S
Zn85 O86 1.962 . S
Zn85 O88 1.986 . S
Zn85 O90 1.996 . S
Zn85 O93 1.943 . S
O86 Zn85 1.962 . S
O86 C91 1.254 . S
O87 Zn84 2.031 . S
O87 C91 1.269 . S
O88 Zn85 1.986 . S
O88 C95 1.262 . S
O89 Zn84 2.049 . S
O89 C97 1.260 . S
O90 Zn85 1.996 . S
O90 C97 1.257 . S
C91 O86 1.254 . S
C91 O87 1.269 . S
C92 O93 1.249 . S
C92 O94 1.270 . S
O93 Zn85 1.943 . S
O93 C92 1.249 . S
O94 Zn84 2.067 . S
O94 C92 1.270 . S
C95 O88 1.262 . S
C95 O96 1.232 . S
O96 C95 1.232 . S
C97 O89 1.260 . S
C97 O90 1.257 . S
Zn98 O101 2.031 . S
Zn98 O103 2.049 . S
Zn98 O108 2.067 . S
Zn99 O100 1.962 . S
Zn99 O102 1.986 . S
Zn99 O104 1.996 . S
Zn99 O107 1.943 1_455 S
O100 Zn99 1.962 . S
O100 C105 1.281 . S
O101 Zn98 2.031 . S
O101 C105 1.244 1_655 S
O102 Zn99 1.986 . S
O102 C109 1.262 . S
O103 Zn98 2.049 . S
O103 C111 1.260 . S
O104 Zn99 1.996 . S
O104 C111 1.257 1_455 S
C105 O100 1.281 . S
C105 O101 1.244 1_455 S
C106 O107 1.249 . S
C106 O108 1.270 . S
O107 Zn99 1.943 1_655 S
O107 C106 1.249 . S
O108 Zn98 2.067 . S
O108 C106 1.270 . S
C109 O102 1.262 . S
C109 O110 1.232 . S
O110 C109 1.232 . S
C111 O103 1.260 . S
C111 O104 1.257 1_655 S
Zn112 O115 2.031 . S
Zn112 O117 2.049 . S
Zn112 O122 2.067 . S
Zn113 O114 1.962 . S
Zn113 O116 1.986 . S
Zn113 O118 1.996 . S
Zn113 O121 1.943 1_545 S
O114 Zn113 1.962 . S
O114 C119 1.254 . S
O115 Zn112 2.031 . S
O115 C119 1.269 1_565 S
O116 Zn113 1.986 . S
O116 C123 1.262 . S
O117 Zn112 2.049 . S
O117 C125 1.260 1_565 S
O118 Zn113 1.996 . S
O118 C125 1.257 . S
C119 O114 1.254 . S
C119 O115 1.269 1_545 S
C120 O121 1.249 . S
C120 O122 1.270 . S
O121 Zn113 1.943 1_565 S
O121 C120 1.249 . S
O122 Zn112 2.067 . S
O122 C120 1.270 . S
C123 O116 1.262 . S
C123 O124 1.232 . S
O124 C123 1.232 . S
C125 O117 1.260 1_545 S
C125 O118 1.257 . S
Zn126 O129 2.031 . S
Zn126 O131 2.049 . S
Zn126 O136 2.067 . S
Zn127 O128 1.962 . S
Zn127 O130 1.986 . S
Zn127 O132 1.996 . S
Zn127 O135 1.943 . S
O128 Zn127 1.962 . S
O128 C133 1.254 . S
O129 Zn126 2.031 . S
O129 C133 1.269 . S
O130 Zn127 1.986 . S
O130 C137 1.262 . S
O131 Zn126 2.049 . S
O131 C139 1.260 . S
O132 Zn127 1.996 . S
O132 C139 1.257 . S
C133 O128 1.254 . S
C133 O129 1.269 . S
C134 O135 1.249 . S
C134 O136 1.270 . S
O135 Zn127 1.943 . S
O135 C134 1.249 . S
O136 Zn126 2.067 . S
O136 C134 1.270 . S
C137 O130 1.262 . S
C137 O138 1.232 . S
O138 C137 1.232 . S
C139 O131 1.260 . S
C139 O132 1.257 . S
Zn140 O143 2.031 . S
Zn140 O145 2.049 . S
Zn140 O150 2.067 . S
Zn141 O142 1.962 . S
Zn141 O144 1.990 1_545 S
Zn141 O146 1.996 . S
Zn141 O149 1.943 . S
O142 Zn141 1.962 . S
O142 C147 1.254 . S
O143 Zn140 2.031 . S
O143 C147 1.269 . S
O144 Zn141 1.990 1_565 S
O144 C151 1.260 . S
O145 Zn140 2.049 . S
O145 C153 1.260 . S
O146 Zn141 1.996 . S
O146 C153 1.257 . S
C147 O142 1.254 . S
C147 O143 1.269 . S
C148 O149 1.249 . S
C148 O150 1.270 . S
O149 Zn141 1.943 . S
O149 C148 1.249 . S
O150 Zn140 2.067 . S
O150 C148 1.270 . S
C151 O144 1.260 . S
C151 O152 1.232 1_565 S
O152 C151 1.232 1_545 S
C153 O145 1.260 . S
C153 O146 1.257 . S
Zn154 O157 2.031 1_554 S
Zn154 O159 2.049 . S
Zn154 O164 2.067 . S
Zn155 O156 1.962 . S
Zn155 O158 1.986 1_556 S
Zn155 O160 1.996 1_556 S
Zn155 O163 1.943 1_556 S
O156 Zn155 1.962 . S
O156 C161 1.254 . S
O157 Zn154 2.031 1_556 S
O157 C161 1.269 . S
O158 Zn155 1.986 1_554 S
O158 C165 1.262 1_554 S
O159 Zn154 2.049 . S
O159 C167 1.260 . S
O160 Zn155 1.996 1_554 S
O160 C167 1.257 . S
C161 O156 1.254 . S
C161 O157 1.269 . S
C162 O163 1.249 . S
C162 O164 1.270 . S
O163 Zn155 1.943 1_554 S
O163 C162 1.249 . S
O164 Zn154 2.067 . S
O164 C162 1.270 . S
C165 O158 1.262 1_556 S
C165 O166 1.232 . S
O166 C165 1.232 . S
C167 O159 1.260 . S
C167 O160 1.257 . S
Zn168 O171 2.031 . S
Zn168 O173 2.049 . S
Zn168 O178 2.067 . S
Zn169 O170 1.962 . S
Zn169 O172 1.986 . S
Zn169 O174 1.996 . S
Zn169 O177 1.943 . S
O170 Zn169 1.962 . S
O170 C175 1.254 . S
O171 Zn168 2.031 . S
O171 C175 1.269 . S
O172 Zn169 1.986 . S
O172 C179 1.262 . S
O173 Zn168 2.049 . S
O173 C181 1.260 . S
O174 Zn169 1.996 . S
O174 C181 1.257 . S
C175 O170 1.254 . S
C175 O171 1.269 . S
C176 O177 1.249 . S
C176 O178 1.270 . S
O177 Zn169 1.943 . S
O177 C176 1.249 . S
O178 Zn168 2.067 . S
O178 C176 1.270 . S
C179 O172 1.262 . S
C179 O180 1.232 . S
O180 C179 1.232 . S
C181 O173 1.260 . S
C181 O174 1.257 . S
Zn182 O185 2.031 . S
Zn182 O187 2.049 . S
Zn182 O192 2.067 . S
Zn183 O184 1.962 . S
Zn183 O186 1.986 . S
Zn183 O188 1.996 . S
Zn183 O191 1.943 . S
O184 Zn183 1.962 . S
O184 C189 1.254 . S
O185 Zn182 2.031 . S
O185 C189 1.269 . S
O186 Zn183 1.986 . S
O186 C193 1.262 . S
O187 Zn182 2.049 . S
O187 C195 1.260 . S
O188 Zn183 1.996 . S
O188 C195 1.257 . S
C189 O184 1.254 . S
C189 O185 1.269 . S
C190 O191 1.249 . S
C190 O192 1.270 . S
O191 Zn183 1.943 . S
O191 C190 1.249 . S
O192 Zn182 2.067 . S
O192 C190 1.270 . S
C193 O186 1.262 . S
C193 O194 1.232 . S
O194 C193 1.232 . S
C195 O187 1.260 . S
C195 O188 1.257 . S
Zn196 O199 2.031 . S
Zn196 O201 2.049 . S
Zn196 O206 2.067 . S
Zn197 O198 1.962 . S
Zn197 O200 1.986 . S
Zn197 O202 1.996 . S
Zn197 O205 1.943 . S
O198 Zn197 1.962 . S
O198 C203 1.254 . S
O199 Zn196 2.031 . S
O199 C203 1.269 . S
O200 Zn197 1.986 . S
O200 C207 1.262 . S
O201 Zn196 2.049 . S
O201 C209 1.260 . S
O202 Zn197 1.996 . S
O202 C209 1.257 . S
C203 O198 1.254 . S
C203 O199 1.269 . S
C204 O205 1.249 . S
C204 O206 1.270 . S
O205 Zn197 1.943 . S
O205 C204 1.249 . S
O206 Zn196 2.067 . S
O206 C204 1.270 . S
C207 O200 1.262 . S
C207 O208 1.232 . S
O208 C207 1.232 . S
C209 O201 1.260 . S
C209 O202 1.257 . S
Zn210 O213 2.031 . S
Zn210 O215 2.049 . S
Zn210 O220 2.067 . S
Zn211 O212 1.962 . S
Zn211 O214 1.986 . S
Zn211 O216 1.996 . S
Zn211 O219 1.943 . S
O212 Zn211 1.962 . S
O212 C217 1.254 . S
O213 Zn210 2.031 . S
O213 C217 1.269 . S
O214 Zn211 1.986 . S
O214 C221 1.262 . S
O215 Zn210 2.049 . S
O215 C223 1.260 . S
O216 Zn211 1.996 . S
O216 C223 1.257 . S
C217 O212 1.254 . S
C217 O213 1.269 . S
C218 O219 1.249 . S
C218 O220 1.270 . S
O219 Zn211 1.943 . S
O219 C218 1.249 . S
O220 Zn210 2.067 . S
O220 C218 1.270 . S
C221 O214 1.262 . S
C221 O222 1.232 . S
O222 C221 1.232 . S
C223 O215 1.260 . S
C223 O216 1.257 . S
Zn224 O227 2.031 . S
Zn224 O229 2.049 . S
Zn224 O234 2.067 . S
Zn225 O226 1.962 . S
Zn225 O228 1.986 . S
Zn225 O230 1.996 . S
Zn225 O233 1.895 1_545 S
O226 Zn225 1.962 . S
O226 C231 1.254 . S
O227 Zn224 2.031 . S
O227 C231 1.269 1_565 S
O228 Zn225 1.986 . S
O228 C235 1.262 . S
O229 Zn224 2.049 . S
O229 C237 1.260 1_565 S
O230 Zn225 1.996 . S
O230 C237 1.257 . S
C231 O226 1.254 . S
C231 O227 1.269 1_545 S
C232 O233 1.314 . S
C232 O234 1.270 . S
O233 Zn225 1.895 1_565 S
O233 C232 1.314 . S
O234 Zn224 2.067 . S
O234 C232 1.270 . S
C235 O228 1.262 . S
C235 O236 1.232 . S
O236 C235 1.232 . S
C237 O229 1.260 1_545 S
C237 O230 1.257 . S
Zn238 O241 2.031 . S
Zn238 O243 2.049 . S
Zn238 O248 2.067 . S
Zn239 O240 1.962 . S
Zn239 O242 1.986 . S
Zn239 O244 1.996 . S
Zn239 O247 1.943 . S
O240 Zn239 1.962 . S
O240 C245 1.254 . S
O241 Zn238 2.031 . S
O241 C245 1.269 . S
O242 Zn239 1.986 . S
O242 C249 1.262 . S
O243 Zn238 2.049 . S
O243 C251 1.260 . S
O244 Zn239 1.996 . S
O244 C251 1.257 . S
C245 O240 1.254 . S
C245 O241 1.269 . S
C246 O247 1.249 . S
C246 O248 1.270 . S
O247 Zn239 1.943 . S
O247 C246 1.249 . S
O248 Zn238 2.067 . S
O248 C246 1.270 . S
C249 O242 1.262 . S
C249 O250 1.232 . S
O250 C249 1.232 . S
C251 O243 1.260 . S
C251 O244 1.257 . S
Zn252 O255 2.031 . S
Zn252 O257 2.049 . S
Zn252 O262 2.067 . S
Zn253 O254 1.962 . S
Zn253 O256 1.986 . S
Zn253 O258 1.996 . S
Zn253 O261 1.943 . S
O254 Zn253 1.962 . S
O254 C259 1.254 . S
O255 Zn252 2.031 . S
O255 C259 1.269 . S
O256 Zn253 1.986 . S
O256 C263 1.262 . S
O257 Zn252 2.049 . S
O257 C265 1.260 . S
O258 Zn253 1.996 . S
O258 C265 1.257 . S
C259 O254 1.254 . S
C259 O255 1.269 . S
C260 O261 1.249 . S
C260 O262 1.270 . S
O261 Zn253 1.943 . S
O261 C260 1.249 . S
O262 Zn252 2.067 . S
O262 C260 1.270 . S
C263 O256 1.262 . S
C263 O264 1.232 . S
O264 C263 1.232 . S
C265 O257 1.260 . S
C265 O258 1.257 . S
Zn266 O269 2.031 . S
Zn266 O271 2.049 . S
Zn266 O276 2.067 . S
Zn267 O268 1.962 . S
Zn267 O270 1.986 . S
Zn267 O272 1.996 . S
Zn267 O275 1.943 . S
O268 Zn267 1.962 . S
O268 C273 1.254 . S
O269 Zn266 2.031 . S
O269 C273 1.269 . S
O270 Zn267 1.986 . S
O270 C277 1.262 . S
O271 Zn266 2.049 . S
O271 C279 1.260 . S
O272 Zn267 1.996 . S
O272 C279 1.257 . S
C273 O268 1.254 . S
C273 O269 1.269 . S
C274 O275 1.249 . S
C274 O276 1.270 . S
O275 Zn267 1.943 . S
O275 C274 1.249 . S
O276 Zn266 2.067 . S
O276 C274 1.270 . S
C277 O270 1.262 . S
C277 O278 1.232 . S
O278 C277 1.232 . S
C279 O271 1.260 . S
C279 O272 1.257 . S
Zn280 O283 2.031 1_554 S
Zn280 O285 2.049 . S
Zn280 O290 2.067 . S
Zn281 O282 1.962 1_554 S
Zn281 O284 1.986 . S
Zn281 O286 1.996 . S
Zn281 O289 1.943 . S
O282 Zn281 1.962 1_556 S
O282 C287 1.254 . S
O283 Zn280 2.031 1_556 S
O283 C287 1.269 . S
O284 Zn281 1.986 . S
O284 C291 1.262 . S
O285 Zn280 2.049 . S
O285 C293 1.260 . S
O286 Zn281 1.996 . S
O286 C293 1.257 . S
C287 O282 1.254 . S
C287 O283 1.269 . S
C288 O289 1.249 . S
C288 O290 1.270 . S
O289 Zn281 1.943 . S
O289 C288 1.249 . S
O290 Zn280 2.067 . S
O290 C288 1.270 . S
C291 O284 1.262 . S
C291 O292 1.232 1_554 S
O292 C291 1.232 1_556 S
C293 O285 1.260 . S
C293 O286 1.257 . S
Zn294 O297 2.031 . S
Zn294 O299 2.049 . S
Zn294 O304 2.067 . S
Zn295 O296 1.962 . S
Zn295 O298 1.986 . S
Zn295 O300 1.996 . S
Zn295 O303 1.943 . S
O296 Zn295 1.962 . S
O296 C301 1.254 . S
O297 Zn294 2.031 . S
O297 C301 1.269 . S
O298 Zn295 1.986 . S
O298 C305 1.262 . S
O299 Zn294 2.049 . S
O299 C307 1.260 . S
O300 Zn295 1.996 . S
O300 C307 1.257 . S
C301 O296 1.254 . S
C301 O297 1.269 . S
C302 O303 1.249 . S
C302 O304 1.270 . S
O303 Zn295 1.943 . S
O303 C302 1.249 . S
O304 Zn294 2.067 . S
O304 C302 1.270 . S
C305 O298 1.262 . S
C305 O306 1.232 . S
O306 C305 1.232 . S
C307 O299 1.260 . S
C307 O300 1.257 . S
Zn308 O311 2.031 . S
Zn308 O313 2.049 . S
Zn308 O318 2.067 . S
Zn309 O310 1.962 . S
Zn309 O312 1.986 . S
Zn309 O314 1.996 . S
Zn309 O317 1.943 . S
O310 Zn309 1.962 . S
O310 C315 1.254 . S
O311 Zn308 2.031 . S
O311 C315 1.269 . S
O312 Zn309 1.986 . S
O312 C319 1.262 . S
O313 Zn308 2.049 . S
O313 C321 1.260 . S
O314 Zn309 1.996 . S
O314 C321 1.257 . S
C315 O310 1.254 . S
C315 O311 1.269 . S
C316 O317 1.249 . S
C316 O318 1.270 . S
O317 Zn309 1.943 . S
O317 C316 1.249 . S
O318 Zn308 2.067 . S
O318 C316 1.270 . S
C319 O312 1.262 . S
C319 O320 1.232 . S
O320 C319 1.232 . S
C321 O313 1.260 . S
C321 O314 1.257 . S
Zn322 O325 2.031 . S
Zn322 O327 2.049 . S
Zn322 O332 2.067 . S
Zn323 O324 1.962 . S
Zn323 O326 1.986 . S
Zn323 O328 1.996 . S
Zn323 O331 1.943 . S
O324 Zn323 1.962 . S
O324 C329 1.254 . S
O325 Zn322 2.031 . S
O325 C329 1.269 . S
O326 Zn323 1.986 . S
O326 C333 1.262 . S
O327 Zn322 2.049 . S
O327 C335 1.260 . S
O328 Zn323 1.996 . S
O328 C335 1.257 . S
C329 O324 1.254 . S
C329 O325 1.269 . S
C330 O331 1.249 . S
C330 O332 1.270 . S
O331 Zn323 1.943 . S
O331 C330 1.249 . S
O332 Zn322 2.067 . S
O332 C330 1.270 . S
C333 O326 1.262 . S
C333 O334 1.232 . S
O334 C333 1.232 . S
C335 O327 1.260 . S
C335 O328 1.257 . S
C336 C338 1.422 1_556 S
C336 C340 1.415 . S
C336 N342 1.369 . S
C337 C338 1.421 . S
C337 C339 1.417 1_554 S
C337 C349 1.422 . S
C338 C336 1.422 1_554 S
C338 C337 1.421 . S
C338 N348 1.359 . S
C339 C337 1.417 1_556 S
C339 C341 1.329 . S
C339 H358 0.930 1_556 S
C340 C336 1.415 . S
C340 C341 1.437 . S
C340 C344 1.413 . S
C341 C339 1.329 . S
C341 C340 1.437 . S
C341 H363 0.929 . S
N342 C336 1.369 . S
N342 C343 1.338 . S
N342 Gd347 2.618 1_666 S
C343 N342 1.338 . S
C343 C345 1.378 . S
C343 H355 0.929 . S
C344 C340 1.413 . S
C344 C345 1.348 . S
C344 H360 0.931 . S
C345 C343 1.378 . S
C345 C344 1.348 . S
C345 H361 0.930 . S
Gd346 N366 2.622 . S
Gd346 N373 2.570 . S
Gd346 O380 2.353 . S
Gd346 O381 2.468 . S
Gd346 O382 2.427 . S
Gd346 O384 2.388 . S
Gd346 O385 2.386 . S
Gd346 O389 2.307 . S
Gd346 C399 2.805 . S
Gd347 N342 2.618 1_444 S
Gd347 N348 2.558 1_445 S
Gd347 O379 2.401 1_545 S
Gd347 O383 2.311 . S
Gd347 O386 2.357 . S
Gd347 O387 2.446 1_455 S
Gd347 O388 2.410 1_454 S
Gd347 O390 2.404 1_554 S
Gd347 C411 2.783 1_455 S
N348 C338 1.359 . S
N348 Gd347 2.558 1_665 S
N348 C350 1.343 . S
C349 C337 1.422 . S
C349 C351 1.321 . S
C349 H357 0.931 . S
C350 N348 1.343 . S
C350 C351 1.390 . S
C350 H352 0.931 . S
C351 C349 1.321 . S
C351 C350 1.390 . S
C351 H353 0.930 . S
H352 C350 0.931 . S
H353 C351 0.930 . S
H354 C377 0.931 . S
H355 C343 0.929 . S
H356 C378 0.930 1_556 S
H357 C349 0.931 . S
H358 C339 0.930 1_554 S
H359 C368 0.929 . S
H360 C344 0.931 . S
H361 C345 0.930 . S
H362 C400 0.930 . S
H363 C341 0.929 . S
H364 C369 0.931 . S
H365 C370 0.930 . S
N366 Gd346 2.622 . S
N366 C367 1.369 . S
N366 C368 1.338 . S
C367 N366 1.369 . S
C367 C371 1.415 . S
C367 C374 1.422 . S
C368 H359 0.929 . S
C368 N366 1.338 . S
C368 C370 1.378 . S
C369 H364 0.931 . S
C369 C370 1.348 . S
C369 C371 1.413 . S
C370 H365 0.930 . S
C370 C368 1.378 . S
C370 C369 1.348 . S
C371 C367 1.415 . S
C371 C369 1.413 . S
C371 C401 1.437 . S
H372 C401 0.929 . S
N373 Gd346 2.570 . S
N373 C374 1.359 . S
N373 C377 1.343 . S
C374 C367 1.422 . S
C374 N373 1.359 . S
C374 C376 1.421 . S
C375 C376 1.422 . S
C375 C378 1.321 . S
C375 H402 0.931 . S
C376 C374 1.421 . S
C376 C375 1.422 . S
C376 C400 1.417 . S
C377 H354 0.931 . S
C377 N373 1.343 . S
C377 C378 1.390 . S
C378 H356 0.930 1_554 S
C378 C375 1.321 . S
C378 C377 1.390 . S
O379 Gd347 2.401 1_565 S
O379 C391 1.265 . S
O380 Gd346 2.353 . S
O380 C391 1.242 1_545 S
O381 Gd346 2.468 . S
O381 C399 1.263 . S
O382 Gd346 2.427 . S
O382 C399 1.252 . S
O383 Gd347 2.311 . S
O383 C392 1.261 . S
O384 Gd346 2.388 . S
O384 C392 1.252 . S
O385 Gd346 2.386 . S
O385 C403 1.265 . S
O386 Gd347 2.357 . S
O386 C403 1.242 . S
O387 Gd347 2.446 1_655 S
O387 C411 1.263 . S
O388 Gd347 2.410 1_656 S
O388 C411 1.252 1_556 S
O389 Gd346 2.307 . S
O389 C404 1.261 1_554 S
O390 Gd347 2.404 1_556 S
O390 C404 1.252 . S
C391 O379 1.265 . S
C391 O380 1.242 1_565 S
C392 O383 1.261 . S
C392 O384 1.252 . S
C393 C396 1.394 . S
C393 C398 1.370 . S
C393 C399 1.500 . S
C394 C397 1.383 . S
C394 C398 1.395 . S
C395 C396 1.396 . S
C395 C397 1.365 . S
C395 H412 0.929 . S
C396 C393 1.394 . S
C396 C395 1.396 . S
C396 H413 0.930 . S
C397 C394 1.383 . S
C397 C395 1.365 . S
C397 H414 0.924 1_545 S
C398 C393 1.370 . S
C398 C394 1.395 . S
C398 H415 0.930 . S
C399 Gd346 2.805 . S
C399 O381 1.263 . S
C399 O382 1.252 . S
C399 C393 1.500 . S
C400 H362 0.930 . S
C400 C376 1.417 . S
C400 C401 1.329 . S
C401 C371 1.437 . S
C401 H372 0.929 . S
C401 C400 1.329 . S
H402 C375 0.931 . S
C403 O385 1.265 . S
C403 O386 1.242 . S
C404 O389 1.261 1_556 S
C404 O390 1.252 . S
C405 C408 1.405 . S
C405 C410 1.361 1_556 S
C405 C411 1.499 1_556 S
C406 C409 1.383 1_554 S
C406 C410 1.395 . S
C407 C408 1.396 . S
C407 C409 1.365 . S
C407 H416 0.929 . S
C408 C405 1.405 . S
C408 C407 1.396 . S
C408 H417 0.930 . S
C409 C406 1.383 1_556 S
C409 C407 1.365 . S
C409 H418 0.931 . S
C410 C405 1.361 1_554 S
C410 C406 1.395 . S
C410 H419 0.930 . S
C411 Gd347 2.783 1_655 S
C411 O387 1.263 . S
C411 O388 1.252 1_554 S
C411 C405 1.499 1_554 S
H412 C395 0.929 . S
H413 C396 0.930 . S
H414 C397 0.924 1_565 S
H415 C398 0.930 . S
H416 C407 0.929 . S
H417 C408 0.930 . S
H418 C409 0.931 . S
H419 C410 0.930 . S
C420 C422 1.422 . S
C420 C424 1.415 . S
C420 N426 1.369 . S
C421 C422 1.421 . S
C421 C423 1.417 . S
C421 C433 1.422 . S
C422 C420 1.422 . S
C422 C421 1.421 . S
C422 N432 1.359 . S
C423 C421 1.417 . S
C423 C425 1.329 . S
C423 H442 0.930 . S
C424 C420 1.415 . S
C424 C425 1.437 . S
C424 C428 1.413 . S
C425 C423 1.329 . S
C425 C424 1.437 . S
C425 H447 0.929 . S
N426 C420 1.369 . S
N426 C427 1.338 . S
N426 Gd431 2.622 . S
C427 N426 1.338 . S
C427 C429 1.378 . S
C427 H439 0.929 . S
C428 C424 1.413 . S
C428 C429 1.348 . S
C428 H444 0.931 . S
C429 C427 1.378 . S
C429 C428 1.348 . S
C429 H445 0.930 . S
Gd430 N450 2.622 . S
Gd430 N457 2.570 . S
Gd430 O464 2.353 . S
Gd430 O465 2.468 . S
Gd430 O466 2.427 . S
Gd430 O468 2.388 . S
Gd430 O469 2.386 . S
Gd430 O473 2.307 . S
Gd430 C483 2.805 . S
Gd431 N426 2.622 . S
Gd431 N432 2.570 . S
Gd431 O463 2.386 . S
Gd431 O467 2.307 . S
Gd431 O470 2.353 . S
Gd431 O471 2.468 . S
Gd431 O472 2.427 . S
Gd431 O474 2.388 . S
Gd431 C495 2.805 . S
N432 C422 1.359 . S
N432 Gd431 2.570 . S
N432 C434 1.343 . S
C433 C421 1.422 . S
C433 C435 1.321 . S
C433 H441 0.931 . S
C434 N432 1.343 . S
C434 C435 1.390 . S
C434 H436 0.931 . S
C435 C433 1.321 . S
C435 C434 1.390 . S
C435 H437 0.930 . S
H436 C434 0.931 . S
H437 C435 0.930 . S
H438 C461 0.931 . S
H439 C427 0.929 . S
H440 C462 0.930 . S
H441 C433 0.931 . S
H442 C423 0.930 . S
H443 C452 0.929 . S
H444 C428 0.931 . S
H445 C429 0.930 . S
H446 C484 0.930 . S
H447 C425 0.929 . S
H448 C453 0.931 . S
H449 C454 0.930 . S
N450 Gd430 2.622 . S
N450 C451 1.369 . S
N450 C452 1.338 . S
C451 N450 1.369 . S
C451 C455 1.415 . S
C451 C458 1.422 . S
C452 H443 0.929 . S
C452 N450 1.338 . S
C452 C454 1.378 . S
C453 H448 0.931 . S
C453 C454 1.348 . S
C453 C455 1.413 . S
C454 H449 0.930 . S
C454 C452 1.378 . S
C454 C453 1.348 . S
C455 C451 1.415 . S
C455 C453 1.413 . S
C455 C485 1.437 . S
H456 C485 0.929 . S
N457 Gd430 2.570 . S
N457 C458 1.359 . S
N457 C461 1.343 . S
C458 C451 1.422 . S
C458 N457 1.359 . S
C458 C460 1.421 . S
C459 C460 1.422 . S
C459 C462 1.321 . S
C459 H486 0.931 . S
C460 C458 1.421 . S
C460 C459 1.422 . S
C460 C484 1.417 . S
C461 H438 0.931 . S
C461 N457 1.343 . S
C461 C462 1.390 . S
C462 H440 0.930 . S
C462 C459 1.321 . S
C462 C461 1.390 . S
O463 Gd431 2.386 . S
O463 C475 1.265 . S
O464 Gd430 2.353 . S
O464 C475 1.242 . S
O465 Gd430 2.468 . S
O465 C483 1.263 . S
O466 Gd430 2.427 . S
O466 C483 1.252 . S
O467 Gd431 2.307 . S
O467 C476 1.261 . S
O468 Gd430 2.388 . S
O468 C476 1.252 . S
O469 Gd430 2.386 . S
O469 C487 1.265 . S
O470 Gd431 2.353 . S
O470 C487 1.242 . S
O471 Gd431 2.468 . S
O471 C495 1.263 . S
O472 Gd431 2.427 . S
O472 C495 1.252 . S
O473 Gd430 2.307 . S
O473 C488 1.261 . S
O474 Gd431 2.388 . S
O474 C488 1.252 . S
C475 O463 1.265 . S
C475 O464 1.242 . S
C476 O467 1.261 . S
C476 O468 1.252 . S
C477 C480 1.394 . S
C477 C482 1.370 . S
C477 C483 1.500 . S
C478 C481 1.383 . S
C478 C482 1.395 . S
C479 C480 1.396 . S
C479 C481 1.365 . S
C479 H496 0.929 . S
C480 C477 1.394 . S
C480 C479 1.396 . S
C480 H497 0.930 . S
C481 C478 1.383 . S
C481 C479 1.365 . S
C481 H498 0.931 . S
C482 C477 1.370 . S
C482 C478 1.395 . S
C482 H499 0.930 . S
C483 Gd430 2.805 . S
C483 O465 1.263 . S
C483 O466 1.252 . S
C483 C477 1.500 . S
C484 H446 0.930 . S
C484 C460 1.417 . S
C484 C485 1.329 . S
C485 C455 1.437 . S
C485 H456 0.929 . S
C485 C484 1.329 . S
H486 C459 0.931 . S
C487 O469 1.265 . S
C487 O470 1.242 . S
C488 O473 1.261 . S
C488 O474 1.252 . S
C489 C492 1.394 . S
C489 C494 1.370 . S
C489 C495 1.500 . S
C490 C493 1.383 . S
C490 C494 1.395 . S
C491 C492 1.396 . S
C491 C493 1.365 . S
C491 H500 0.929 . S
C492 C489 1.394 . S
C492 C491 1.396 . S
C492 H501 0.930 . S
C493 C490 1.383 . S
C493 C491 1.365 . S
C493 H502 0.931 . S
C494 C489 1.370 . S
C494 C490 1.395 . S
C494 H503 0.930 . S
C495 Gd431 2.805 . S
C495 O471 1.263 . S
C495 O472 1.252 . S
C495 C489 1.500 . S
H496 C479 0.929 . S
H497 C480 0.930 . S
H498 C481 0.931 . S
H499 C482 0.930 . S
H500 C491 0.929 . S
H501 C492 0.930 . S
H502 C493 0.931 . S
H503 C494 0.930 . S
C504 C506 1.422 . S
C504 C508 1.415 . S
C504 N510 1.369 . S
C505 C506 1.421 . S
C505 C507 1.417 . S
C505 C517 1.422 . S
C506 C504 1.422 . S
C506 C505 1.421 . S
C506 N516 1.359 . S
C507 C505 1.417 . S
C507 C509 1.329 . S
C507 H526 0.930 . S
C508 C504 1.415 . S
C508 C509 1.437 . S
C508 C512 1.413 . S
C509 C507 1.329 . S
C509 C508 1.437 . S
C509 H531 0.929 . S
N510 C504 1.369 . S
N510 C511 1.338 . S
N510 Gd515 2.622 . S
C511 N510 1.338 . S
C511 C513 1.378 . S
C511 H523 0.929 . S
C512 C508 1.413 . S
C512 C513 1.348 . S
C512 H528 0.931 . S
C513 C511 1.378 . S
C513 C512 1.348 . S
C513 H529 0.930 . S
Gd514 N534 2.622 1_545 S
Gd514 N541 2.570 1_545 S
Gd514 O548 2.353 . S
Gd514 O549 2.468 . S
Gd514 O550 2.427 . S
Gd514 O552 2.388 . S
Gd514 O553 2.386 1_545 S
Gd514 O557 2.307 . S
Gd514 C567 2.805 . S
Gd515 N510 2.622 . S
Gd515 N516 2.570 . S
Gd515 O547 2.386 . S
Gd515 O551 2.307 . S
Gd515 O554 2.353 1_545 S
Gd515 O555 2.468 . S
Gd515 O556 2.427 . S
Gd515 O558 2.388 . S
Gd515 C579 2.805 . S
N516 C506 1.359 . S
N516 Gd515 2.570 . S
N516 C518 1.343 . S
C517 C505 1.422 . S
C517 C519 1.321 . S
C517 H525 0.931 . S
C518 N516 1.343 . S
C518 C519 1.390 . S
C518 H520 0.931 . S
C519 C517 1.321 . S
C519 C518 1.390 . S
C519 H521 0.930 . S
H520 C518 0.931 . S
H521 C519 0.930 . S
H522 C545 0.931 . S
H523 C511 0.929 . S
H524 C546 0.930 . S
H525 C517 0.931 . S
H526 C507 0.930 . S
H527 C536 0.929 1_545 S
H528 C512 0.931 . S
H529 C513 0.930 . S
H530 C568 0.930 . S
H531 C509 0.929 . S
H532 C537 0.931 . S
H533 C538 0.930 . S
N534 Gd514 2.622 1_565 S
N534 C535 1.369 . S
N534 C536 1.338 . S
C535 N534 1.369 . S
C535 C539 1.415 . S
C535 C542 1.422 . S
C536 H527 0.929 1_565 S
C536 N534 1.338 . S
C536 C538 1.378 . S
C537 H532 0.931 . S
C537 C538 1.348 . S
C537 C539 1.413 . S
C538 H533 0.930 . S
C538 C536 1.378 . S
C538 C537 1.348 . S
C539 C535 1.415 . S
C539 C537 1.413 . S
C539 C569 1.437 . S
H540 C569 0.929 . S
N541 Gd514 2.570 1_565 S
N541 C542 1.359 . S
N541 C545 1.343 . S
C542 C535 1.422 . S
C542 N541 1.359 . S
C542 C544 1.421 . S
C543 C544 1.422 . S
C543 C546 1.321 . S
C543 H570 0.931 . S
C544 C542 1.421 . S
C544 C543 1.422 . S
C544 C568 1.417 . S
C545 H522 0.931 . S
C545 N541 1.343 . S
C545 C546 1.390 . S
C546 H524 0.930 . S
C546 C543 1.321 . S
C546 C545 1.390 . S
O547 Gd515 2.386 . S
O547 C559 1.265 . S
O548 Gd514 2.353 . S
O548 C559 1.242 . S
O549 Gd514 2.468 . S
O549 C567 1.263 . S
O550 Gd514 2.427 . S
O550 C567 1.252 . S
O551 Gd515 2.307 . S
O551 C560 1.261 . S
O552 Gd514 2.388 . S
O552 C560 1.252 . S
O553 Gd514 2.386 1_565 S
O553 C571 1.265 . S
O554 Gd515 2.353 1_565 S
O554 C571 1.242 . S
O555 Gd515 2.468 . S
O555 C579 1.263 . S
O556 Gd515 2.427 . S
O556 C579 1.252 . S
O557 Gd514 2.307 . S
O557 C572 1.261 . S
O558 Gd515 2.388 . S
O558 C572 1.252 . S
C559 O547 1.265 . S
C559 O548 1.242 . S
C560 O551 1.261 . S
C560 O552 1.252 . S
C561 C564 1.394 . S
C561 C566 1.370 . S
C561 C567 1.500 . S
C562 C565 1.383 . S
C562 C566 1.395 . S
C563 C564 1.396 . S
C563 C565 1.365 . S
C563 H580 0.929 . S
C564 C561 1.394 . S
C564 C563 1.396 . S
C564 H581 0.930 . S
C565 C562 1.383 . S
C565 C563 1.365 . S
C565 H582 0.931 . S
C566 C561 1.370 . S
C566 C562 1.395 . S
C566 H583 0.930 . S
C567 Gd514 2.805 . S
C567 O549 1.263 . S
C567 O550 1.252 . S
C567 C561 1.500 . S
C568 H530 0.930 . S
C568 C544 1.417 . S
C568 C569 1.329 . S
C569 C539 1.437 . S
C569 H540 0.929 . S
C569 C568 1.329 . S
H570 C543 0.931 . S
C571 O553 1.265 . S
C571 O554 1.242 . S
C572 O557 1.261 . S
C572 O558 1.252 . S
C573 C576 1.394 . S
C573 C578 1.370 . S
C573 C579 1.500 1_565 S
C574 C577 1.383 . S
C574 C578 1.395 . S
C575 C576 1.396 . S
C575 C577 1.365 . S
C575 H584 0.929 . S
C576 C573 1.394 . S
C576 C575 1.396 . S
C576 H585 0.930 . S
C577 C574 1.383 . S
C577 C575 1.365 . S
C577 H586 0.931 . S
C578 C573 1.370 . S
C578 C574 1.395 . S
C578 H587 0.930 . S
C579 Gd515 2.805 . S
C579 O555 1.263 . S
C579 O556 1.252 . S
C579 C573 1.500 1_545 S
H580 C563 0.929 . S
H581 C564 0.930 . S
H582 C565 0.931 . S
H583 C566 0.930 . S
H584 C575 0.929 . S
H585 C576 0.930 . S
H586 C577 0.931 . S
H587 C578 0.930 . S
C588 C590 1.422 . S
C588 C592 1.415 . S
C588 N594 1.369 . S
C589 C590 1.421 . S
C589 C591 1.417 . S
C589 C601 1.422 . S
C590 C588 1.422 . S
C590 C589 1.421 . S
C590 N600 1.359 . S
C591 C589 1.417 . S
C591 C593 1.329 . S
C591 H610 0.930 . S
C592 C588 1.415 . S
C592 C593 1.437 . S
C592 C596 1.413 . S
C593 C591 1.329 . S
C593 C592 1.437 . S
C593 H615 0.929 . S
N594 C588 1.369 . S
N594 C595 1.338 . S
N594 Gd599 2.622 . S
C595 N594 1.338 . S
C595 C597 1.378 . S
C595 H607 0.929 . S
C596 C592 1.413 . S
C596 C597 1.348 . S
C596 H612 0.931 . S
C597 C595 1.378 . S
C597 C596 1.348 . S
C597 H613 0.930 . S
Gd598 N618 2.622 . S
Gd598 N625 2.570 . S
Gd598 O632 2.353 . S
Gd598 O633 2.468 . S
Gd598 O634 2.427 . S
Gd598 O636 2.388 . S
Gd598 O637 2.386 . S
Gd598 O641 2.307 . S
Gd598 C651 2.805 . S
Gd599 N594 2.622 . S
Gd599 N600 2.570 . S
Gd599 O631 2.386 . S
Gd599 O635 2.307 . S
Gd599 O638 2.353 . S
Gd599 O639 2.468 . S
Gd599 O640 2.427 . S
Gd599 O642 2.388 . S
Gd599 C663 2.805 . S
N600 C590 1.359 . S
N600 Gd599 2.570 . S
N600 C602 1.343 . S
C601 C589 1.422 . S
C601 C603 1.321 . S
C601 H609 0.931 . S
C602 N600 1.343 . S
C602 C603 1.390 . S
C602 H604 0.931 . S
C603 C601 1.321 . S
C603 C602 1.390 . S
C603 H605 0.930 . S
H604 C602 0.931 . S
H605 C603 0.930 . S
H606 C629 0.931 . S
H607 C595 0.929 . S
H608 C630 0.930 . S
H609 C601 0.931 . S
H610 C591 0.930 . S
H611 C620 0.929 . S
H612 C596 0.931 . S
H613 C597 0.930 . S
H614 C652 0.930 . S
H615 C593 0.929 . S
H616 C621 0.931 . S
H617 C622 0.930 . S
N618 Gd598 2.622 . S
N618 C619 1.369 . S
N618 C620 1.338 . S
C619 N618 1.369 . S
C619 C623 1.415 . S
C619 C626 1.422 . S
C620 H611 0.929 . S
C620 N618 1.338 . S
C620 C622 1.378 . S
C621 H616 0.931 . S
C621 C622 1.348 . S
C621 C623 1.413 . S
C622 H617 0.930 . S
C622 C620 1.378 . S
C622 C621 1.348 . S
C623 C619 1.415 . S
C623 C621 1.413 . S
C623 C653 1.437 . S
H624 C653 0.929 . S
N625 Gd598 2.570 . S
N625 C626 1.359 . S
N625 C629 1.343 . S
C626 C619 1.422 . S
C626 N625 1.359 . S
C626 C628 1.421 . S
C627 C628 1.422 . S
C627 C630 1.321 . S
C627 H654 0.931 . S
C628 C626 1.421 . S
C628 C627 1.422 . S
C628 C652 1.417 . S
C629 H606 0.931 . S
C629 N625 1.343 . S
C629 C630 1.390 . S
C630 H608 0.930 . S
C630 C627 1.321 . S
C630 C629 1.390 . S
O631 Gd599 2.386 . S
O631 C643 1.265 . S
O632 Gd598 2.353 . S
O632 C643 1.242 . S
O633 Gd598 2.468 . S
O633 C651 1.263 . S
O634 Gd598 2.427 . S
O634 C651 1.252 . S
O635 Gd599 2.307 . S
O635 C644 1.261 . S
O636 Gd598 2.388 . S
O636 C644 1.252 . S
O637 Gd598 2.386 . S
O637 C655 1.265 . S
O638 Gd599 2.353 . S
O638 C655 1.242 . S
O639 Gd599 2.468 . S
O639 C663 1.263 . S
O640 Gd599 2.427 . S
O640 C663 1.252 . S
O641 Gd598 2.307 . S
O641 C656 1.261 . S
O642 Gd599 2.388 . S
O642 C656 1.252 . S
C643 O631 1.265 . S
C643 O632 1.242 . S
C644 O635 1.261 . S
C644 O636 1.252 . S
C645 C648 1.394 . S
C645 C650 1.370 . S
C645 C651 1.500 . S
C646 C649 1.383 . S
C646 C650 1.395 . S
C647 C648 1.396 . S
C647 C649 1.365 . S
C647 H664 0.929 . S
C648 C645 1.394 . S
C648 C647 1.396 . S
C648 H665 0.930 . S
C649 C646 1.383 . S
C649 C647 1.365 . S
C649 H666 0.931 . S
C650 C645 1.370 . S
C650 C646 1.395 . S
C650 H667 0.930 . S
C651 Gd598 2.805 . S
C651 O633 1.263 . S
C651 O634 1.252 . S
C651 C645 1.500 . S
C652 H614 0.930 . S
C652 C628 1.417 . S
C652 C653 1.329 . S
C653 C623 1.437 . S
C653 H624 0.929 . S
C653 C652 1.329 . S
H654 C627 0.931 . S
C655 O637 1.265 . S
C655 O638 1.242 . S
C656 O641 1.261 . S
C656 O642 1.252 . S
C657 C660 1.394 . S
C657 C662 1.370 . S
C657 C663 1.500 . S
C658 C661 1.383 . S
C658 C662 1.395 . S
C659 C660 1.396 . S
C659 C661 1.365 . S
C659 H668 0.929 . S
C660 C657 1.394 . S
C660 C659 1.396 . S
C660 H669 0.930 . S
C661 C658 1.383 . S
C661 C659 1.365 . S
C661 H670 0.931 . S
C662 C657 1.370 . S
C662 C658 1.395 . S
C662 H671 0.930 . S
C663 Gd599 2.805 . S
C663 O639 1.263 . S
C663 O640 1.252 . S
C663 C657 1.500 . S
H664 C647 0.929 . S
H665 C648 0.930 . S
H666 C649 0.931 . S
H667 C650 0.930 . S
H668 C659 0.929 . S
H669 C660 0.930 . S
H670 C661 0.931 . S
H671 C662 0.930 . S
C672 C674 1.422 . S
C672 C676 1.415 1_455 S
C672 N678 1.369 1_455 S
C673 C674 1.421 . S
C673 C675 1.417 . S
C673 C685 1.422 . S
C674 C672 1.422 . S
C674 C673 1.421 . S
C674 N684 1.359 . S
C675 C673 1.417 . S
C675 C677 1.329 . S
C675 H694 0.930 . S
C676 C672 1.415 1_655 S
C676 C677 1.437 1_655 S
C676 C680 1.413 . S
C677 C675 1.329 . S
C677 C676 1.437 1_455 S
C677 H699 0.949 . S
N678 C672 1.369 1_655 S
N678 C679 1.338 . S
N678 Gd683 2.622 1_655 S
C679 N678 1.338 . S
C679 C681 1.378 . S
C679 H691 0.929 . S
C680 C676 1.413 . S
C680 C681 1.348 . S
C680 H696 0.931 . S
C681 C679 1.378 . S
C681 C680 1.348 . S
C681 H697 0.930 . S
Gd682 N702 2.622 . S
Gd682 N709 2.570 . S
Gd682 O716 2.353 1_565 S
Gd682 O717 2.468 . S
Gd682 O718 2.427 . S
Gd682 O720 2.388 1_565 S
Gd682 O721 2.386 1_565 S
Gd682 O725 2.317 . S
Gd682 C735 2.805 . S
Gd683 N678 2.622 1_455 S
Gd683 N684 2.570 . S
Gd683 O715 2.386 . S
Gd683 O719 2.307 . S
Gd683 O722 2.353 . S
Gd683 O723 2.468 . S
Gd683 O724 2.427 1_455 S
Gd683 O726 2.388 1_455 S
Gd683 C747 2.805 . S
N684 C674 1.359 . S
N684 Gd683 2.570 . S
N684 C686 1.343 . S
C685 C673 1.422 . S
C685 C687 1.321 . S
C685 H693 0.931 . S
C686 N684 1.343 . S
C686 C687 1.390 . S
C686 H688 0.931 . S
C687 C685 1.321 . S
C687 C686 1.390 . S
C687 H689 0.930 . S
H688 C686 0.931 . S
H689 C687 0.930 . S
H690 C713 0.962 . S
H691 C679 0.929 . S
H692 C714 0.930 . S
H693 C685 0.931 . S
H694 C675 0.930 . S
H695 C704 0.929 1_545 S
H696 C680 0.931 . S
H697 C681 0.930 . S
H698 C736 0.930 . S
H699 C677 0.949 . S
H700 C705 0.931 . S
H701 C706 0.930 . S
N702 Gd682 2.622 . S
N702 C703 1.369 . S
N702 C704 1.338 . S
C703 N702 1.369 . S
C703 C707 1.415 . S
C703 C710 1.422 . S
C704 H695 0.929 1_565 S
C704 N702 1.338 . S
C704 C706 1.378 . S
C705 H700 0.931 . S
C705 C706 1.348 . S
C705 C707 1.413 . S
C706 H701 0.930 . S
C706 C704 1.378 . S
C706 C705 1.348 . S
C707 C703 1.415 . S
C707 C705 1.413 . S
C707 C737 1.437 . S
H708 C737 0.929 . S
N709 Gd682 2.570 . S
N709 C710 1.359 . S
N709 C713 1.299 1_455 S
C710 C703 1.422 . S
C710 N709 1.359 . S
C710 C712 1.421 . S
C711 C712 1.422 1_655 S
C711 C714 1.321 . S
C711 H738 0.931 . S
C712 C710 1.421 . S
C712 C711 1.422 1_455 S
C712 C736 1.417 . S
C713 H690 0.962 . S
C713 N709 1.299 1_655 S
C713 C714 1.406 . S
C714 H692 0.930 . S
C714 C711 1.321 . S
C714 C713 1.406 . S
O715 Gd683 2.386 . S
O715 C727 1.265 . S
O716 Gd682 2.353 1_545 S
O716 C727 1.242 . S
O717 Gd682 2.468 . S
O717 C735 1.263 . S
O718 Gd682 2.427 . S
O718 C735 1.252 . S
O719 Gd683 2.307 . S
O719 C728 1.261 . S
O720 Gd682 2.388 1_545 S
O720 C728 1.252 . S
O721 Gd682 2.386 1_545 S
O721 C739 1.265 . S
O722 Gd683 2.353 . S
O722 C739 1.242 . S
O723 Gd683 2.468 . S
O723 C747 1.263 . S
O724 Gd683 2.427 1_655 S
O724 C747 1.252 1_655 S
O725 Gd682 2.317 . S
O725 C740 1.246 1_465 S
O726 Gd683 2.388 1_655 S
O726 C740 1.252 . S
C727 O715 1.265 . S
C727 O716 1.242 . S
C728 O719 1.261 . S
C728 O720 1.252 . S
C729 C732 1.394 . S
C729 C734 1.370 . S
C729 C735 1.500 . S
C730 C733 1.383 . S
C730 C734 1.395 . S
C731 C732 1.396 . S
C731 C733 1.365 . S
C731 H748 0.929 . S
C732 C729 1.394 . S
C732 C731 1.396 . S
C732 H749 0.930 . S
C733 C730 1.383 . S
C733 C731 1.365 . S
C733 H750 0.931 . S
C734 C729 1.370 . S
C734 C730 1.395 . S
C734 H751 0.930 . S
C735 Gd682 2.805 . S
C735 O717 1.263 . S
C735 O718 1.252 . S
C735 C729 1.500 . S
C736 H698 0.930 . S
C736 C712 1.417 . S
C736 C737 1.329 . S
C737 C707 1.437 . S
C737 H708 0.929 . S
C737 C736 1.329 . S
H738 C711 0.931 . S
C739 O721 1.265 . S
C739 O722 1.242 . S
C740 O725 1.246 1_645 S
C740 O726 1.252 . S
C741 C744 1.394 1_455 S
C741 C746 1.370 . S
C741 C747 1.500 . S
C742 C745 1.383 . S
C742 C746 1.395 . S
C743 C744 1.396 . S
C743 C745 1.365 1_655 S
C743 H752 0.929 . S
C744 C741 1.394 1_655 S
C744 C743 1.396 . S
C744 H753 0.930 . S
C745 C742 1.383 . S
C745 C743 1.365 1_455 S
C745 H754 0.931 1_455 S
C746 C741 1.370 . S
C746 C742 1.395 . S
C746 H755 0.930 . S
C747 Gd683 2.805 . S
C747 O723 1.263 . S
C747 O724 1.252 1_455 S
C747 C741 1.500 . S
H748 C731 0.929 . S
H749 C732 0.930 . S
H750 C733 0.931 . S
H751 C734 0.930 . S
H752 C743 0.929 . S
H753 C744 0.930 . S
H754 C745 0.931 1_655 S
H755 C746 0.930 . S
C756 C758 1.422 . S
C756 C760 1.415 . S
C756 N762 1.369 . S
C757 C758 1.421 . S
C757 C759 1.417 . S
C757 C769 1.422 . S
C758 C756 1.422 . S
C758 C757 1.421 . S
C758 N768 1.359 . S
C759 C757 1.417 . S
C759 C761 1.329 . S
C759 H778 0.930 . S
C760 C756 1.415 . S
C760 C761 1.437 . S
C760 C764 1.413 . S
C761 C759 1.329 . S
C761 C760 1.437 . S
C761 H783 0.929 . S
N762 C756 1.369 . S
N762 C763 1.338 . S
N762 Gd767 2.622 . S
C763 N762 1.338 . S
C763 C765 1.378 . S
C763 H775 0.929 . S
C764 C760 1.413 . S
C764 C765 1.348 . S
C764 H780 0.931 . S
C765 C763 1.378 . S
C765 C764 1.348 . S
C765 H781 0.930 . S
Gd766 N786 2.622 . S
Gd766 N793 2.570 . S
Gd766 O800 2.353 . S
Gd766 O801 2.468 . S
Gd766 O802 2.427 . S
Gd766 O804 2.388 . S
Gd766 O805 2.386 . S
Gd766 O809 2.307 . S
Gd766 C819 2.805 . S
Gd767 N762 2.622 . S
Gd767 N768 2.570 . S
Gd767 O799 2.386 . S
Gd767 O803 2.307 . S
Gd767 O806 2.353 . S
Gd767 O807 2.468 . S
Gd767 O808 2.427 . S
Gd767 O810 2.388 . S
Gd767 C831 2.805 . S
N768 C758 1.359 . S
N768 Gd767 2.570 . S
N768 C770 1.343 . S
C769 C757 1.422 . S
C769 C771 1.321 . S
C769 H777 0.931 . S
C770 N768 1.343 . S
C770 C771 1.390 . S
C770 H772 0.931 . S
C771 C769 1.321 . S
C771 C770 1.390 . S
C771 H773 0.930 . S
H772 C770 0.931 . S
H773 C771 0.930 . S
H774 C797 0.931 . S
H775 C763 0.929 . S
H776 C798 0.930 . S
H777 C769 0.931 . S
H778 C759 0.930 . S
H779 C788 0.929 . S
H780 C764 0.931 . S
H781 C765 0.930 . S
H782 C820 0.930 . S
H783 C761 0.929 . S
H784 C789 0.931 . S
H785 C790 0.930 . S
N786 Gd766 2.622 . S
N786 C787 1.369 . S
N786 C788 1.338 . S
C787 N786 1.369 . S
C787 C791 1.415 . S
C787 C794 1.422 . S
C788 H779 0.929 . S
C788 N786 1.338 . S
C788 C790 1.378 . S
C789 H784 0.931 . S
C789 C790 1.348 . S
C789 C791 1.413 . S
C790 H785 0.930 . S
C790 C788 1.378 . S
C790 C789 1.348 . S
C791 C787 1.415 . S
C791 C789 1.413 . S
C791 C821 1.437 . S
H792 C821 0.929 . S
N793 Gd766 2.570 . S
N793 C794 1.359 . S
N793 C797 1.343 . S
C794 C787 1.422 . S
C794 N793 1.359 . S
C794 C796 1.421 . S
C795 C796 1.422 . S
C795 C798 1.321 . S
C795 H822 0.931 . S
C796 C794 1.421 . S
C796 C795 1.422 . S
C796 C820 1.417 . S
C797 H774 0.931 . S
C797 N793 1.343 . S
C797 C798 1.390 . S
C798 H776 0.930 . S
C798 C795 1.321 . S
C798 C797 1.390 . S
O799 Gd767 2.386 . S
O799 C811 1.265 . S
O800 Gd766 2.353 . S
O800 C811 1.242 . S
O801 Gd766 2.468 . S
O801 C819 1.263 . S
O802 Gd766 2.427 . S
O802 C819 1.252 . S
O803 Gd767 2.307 . S
O803 C812 1.261 . S
O804 Gd766 2.388 . S
O804 C812 1.252 . S
O805 Gd766 2.386 . S
O805 C823 1.265 . S
O806 Gd767 2.353 . S
O806 C823 1.242 . S
O807 Gd767 2.468 . S
O807 C831 1.263 . S
O808 Gd767 2.427 . S
O808 C831 1.252 . S
O809 Gd766 2.307 . S
O809 C824 1.261 . S
O810 Gd767 2.388 . S
O810 C824 1.252 . S
C811 O799 1.265 . S
C811 O800 1.242 . S
C812 O803 1.261 . S
C812 O804 1.252 . S
C813 C816 1.394 . S
C813 C818 1.370 . S
C813 C819 1.500 . S
C814 C817 1.383 . S
C814 C818 1.395 . S
C815 C816 1.396 . S
C815 C817 1.365 . S
C815 H832 0.929 . S
C816 C813 1.394 . S
C816 C815 1.396 . S
C816 H833 0.930 . S
C817 C814 1.383 . S
C817 C815 1.365 . S
C817 H834 0.931 . S
C818 C813 1.370 . S
C818 C814 1.395 . S
C818 H835 0.930 . S
C819 Gd766 2.805 . S
C819 O801 1.263 . S
C819 O802 1.252 . S
C819 C813 1.500 . S
C820 H782 0.930 . S
C820 C796 1.417 . S
C820 C821 1.329 . S
C821 C791 1.437 . S
C821 H792 0.929 . S
C821 C820 1.329 . S
H822 C795 0.931 . S
C823 O805 1.265 . S
C823 O806 1.242 . S
C824 O809 1.261 . S
C824 O810 1.252 . S
C825 C828 1.394 . S
C825 C830 1.370 . S
C825 C831 1.500 . S
C826 C829 1.383 . S
C826 C830 1.395 . S
C827 C828 1.396 . S
C827 C829 1.365 . S
C827 H836 0.929 . S
C828 C825 1.394 . S
C828 C827 1.396 . S
C828 H837 0.930 . S
C829 C826 1.383 . S
C829 C827 1.365 . S
C829 H838 0.931 . S
C830 C825 1.370 . S
C830 C826 1.395 . S
C830 H839 0.930 . S
C831 Gd767 2.805 . S
C831 O807 1.263 . S
C831 O808 1.252 . S
C831 C825 1.500 . S
H832 C815 0.929 . S
H833 C816 0.930 . S
H834 C817 0.931 . S
H835 C818 0.930 . S
H836 C827 0.929 . S
H837 C828 0.930 . S
H838 C829 0.931 . S
H839 C830 0.930 . S
C840 C842 1.422 . S
C840 C844 1.415 1_545 S
C840 N846 1.369 1_545 S
C841 C842 1.421 . S
C841 C843 1.417 . S
C841 C853 1.422 . S
C842 C840 1.422 . S
C842 C841 1.421 . S
C842 N852 1.359 . S
C843 C841 1.417 . S
C843 C845 1.329 . S
C843 H862 0.930 . S
C844 C840 1.415 1_565 S
C844 C845 1.437 1_565 S
C844 C848 1.413 . S
C845 C843 1.329 . S
C845 C844 1.437 1_545 S
C845 H867 0.929 1_545 S
N846 C840 1.369 1_565 S
N846 C847 1.338 . S
N846 Gd851 2.622 1_565 S
C847 N846 1.338 . S
C847 C849 1.378 . S
C847 H859 0.929 . S
C848 C844 1.413 . S
C848 C849 1.348 . S
C848 H864 0.931 . S
C849 C847 1.378 . S
C849 C848 1.348 . S
C849 H865 0.930 . S
Gd850 N870 2.622 . S
Gd850 N877 2.570 . S
Gd850 O884 2.353 1_556 S
Gd850 O885 2.468 . S
Gd850 O886 2.427 . S
Gd850 O888 2.388 1_556 S
Gd850 O889 2.386 1_556 S
Gd850 O893 2.307 . S
Gd850 C903 2.805 . S
Gd851 N846 2.622 1_545 S
Gd851 N852 2.570 . S
Gd851 O883 2.386 . S
Gd851 O887 2.307 . S
Gd851 O890 2.353 . S
Gd851 O891 2.468 . S
Gd851 O892 2.427 1_545 S
Gd851 O894 2.388 1_545 S
Gd851 C915 2.805 . S
N852 C842 1.359 . S
N852 Gd851 2.570 . S
N852 C854 1.343 . S
C853 C841 1.422 . S
C853 C855 1.321 . S
C853 H861 0.931 . S
C854 N852 1.343 . S
C854 C855 1.390 . S
C854 H856 0.931 . S
C855 C853 1.321 . S
C855 C854 1.390 . S
C855 H857 0.930 . S
H856 C854 0.931 . S
H857 C855 0.930 . S
H858 C881 0.960 . S
H859 C847 0.929 . S
H860 C882 0.930 . S
H861 C853 0.931 . S
H862 C843 0.930 . S
H863 C872 0.929 . S
H864 C848 0.931 . S
H865 C849 0.930 . S
H866 C904 0.930 . S
H867 C845 0.929 1_565 S
H868 C873 0.931 . S
H869 C874 0.930 . S
N870 Gd850 2.622 . S
N870 C871 1.369 . S
N870 C872 1.338 . S
C871 N870 1.369 . S
C871 C875 1.415 . S
C871 C878 1.422 . S
C872 H863 0.929 . S
C872 N870 1.338 . S
C872 C874 1.378 . S
C873 H868 0.931 . S
C873 C874 1.348 . S
C873 C875 1.413 . S
C874 H869 0.930 . S
C874 C872 1.378 . S
C874 C873 1.348 . S
C875 C871 1.415 . S
C875 C873 1.413 . S
C875 C905 1.437 . S
H876 C905 0.929 . S
N877 Gd850 2.570 . S
N877 C878 1.359 . S
N877 C881 1.343 . S
C878 C871 1.422 . S
C878 N877 1.359 . S
C878 C880 1.421 . S
C879 C880 1.422 . S
C879 C882 1.321 1_545 S
C879 H906 0.931 1_545 S
C880 C878 1.421 . S
C880 C879 1.422 . S
C880 C904 1.417 . S
C881 H858 0.960 . S
C881 N877 1.343 . S
C881 C882 1.390 1_545 S
C882 H860 0.930 . S
C882 C879 1.321 1_565 S
C882 C881 1.390 1_565 S
O883 Gd851 2.386 . S
O883 C895 1.265 . S
O884 Gd850 2.353 1_554 S
O884 C895 1.242 . S
O885 Gd850 2.468 . S
O885 C903 1.263 . S
O886 Gd850 2.427 . S
O886 C903 1.252 . S
O887 Gd851 2.307 . S
O887 C896 1.261 . S
O888 Gd850 2.388 1_554 S
O888 C896 1.252 . S
O889 Gd850 2.386 1_554 S
O889 C907 1.265 . S
O890 Gd851 2.353 . S
O890 C907 1.242 . S
O891 Gd851 2.468 . S
O891 C915 1.263 . S
O892 Gd851 2.427 1_565 S
O892 C915 1.252 1_565 S
O893 Gd850 2.307 . S
O893 C908 1.279 1_545 S
O894 Gd851 2.388 1_565 S
O894 C908 1.208 1_554 S
C895 O883 1.265 . S
C895 O884 1.242 . S
C896 O887 1.261 . S
C896 O888 1.252 . S
C897 C900 1.394 . S
C897 C902 1.370 . S
C897 C903 1.500 . S
C898 C901 1.383 . S
C898 C902 1.395 . S
C899 C900 1.396 . S
C899 C901 1.365 . S
C899 H916 0.929 . S
C900 C897 1.394 . S
C900 C899 1.396 . S
C900 H917 0.930 . S
C901 C898 1.383 . S
C901 C899 1.365 . S
C901 H918 0.931 . S
C902 C897 1.370 . S
C902 C898 1.395 . S
C902 H919 0.930 . S
C903 Gd850 2.805 . S
C903 O885 1.263 . S
C903 O886 1.252 . S
C903 C897 1.500 . S
C904 H866 0.930 . S
C904 C880 1.417 . S
C904 C905 1.329 . S
C905 C875 1.437 . S
C905 H876 0.929 . S
C905 C904 1.329 . S
H906 C879 0.931 1_565 S
C907 O889 1.265 . S
C907 O890 1.242 . S
C908 O893 1.279 1_565 S
C908 O894 1.208 1_556 S
C909 C912 1.427 . S
C909 C914 1.346 1_565 S
C909 C915 1.493 1_565 S
C910 C913 1.383 1_545 S
C910 C914 1.395 . S
C911 C912 1.396 . S
C911 C913 1.365 . S
C911 H920 0.929 . S
C912 C909 1.427 . S
C912 C911 1.396 . S
C912 H921 0.930 . S
C913 C910 1.383 1_565 S
C913 C911 1.365 . S
C913 H922 0.931 . S
C914 C909 1.346 1_545 S
C914 C910 1.395 . S
C914 H923 0.930 . S
C915 Gd851 2.805 . S
C915 O891 1.263 . S
C915 O892 1.252 1_545 S
C915 C909 1.493 1_545 S
H916 C899 0.929 . S
H917 C900 0.930 . S
H918 C901 0.931 . S
H919 C902 0.930 . S
H920 C911 0.929 . S
H921 C912 0.930 . S
H922 C913 0.931 . S
H923 C914 0.930 . S
C924 C926 1.422 . S
C924 C928 1.415 . S
C924 N930 1.369 . S
C925 C926 1.421 . S
C925 C927 1.417 . S
C925 C937 1.422 . S
C926 C924 1.422 . S
C926 C925 1.421 . S
C926 N936 1.359 . S
C927 C925 1.417 . S
C927 C929 1.329 . S
C927 H946 0.930 . S
C928 C924 1.415 . S
C928 C929 1.437 . S
C928 C932 1.413 . S
C929 C927 1.329 . S
C929 C928 1.437 . S
C929 H951 0.929 . S
N930 C924 1.369 . S
N930 C931 1.338 . S
N930 Gd935 2.622 . S
C931 N930 1.338 . S
C931 C933 1.378 . S
C931 H943 0.929 . S
C932 C928 1.413 . S
C932 C933 1.348 . S
C932 H948 0.931 . S
C933 C931 1.378 . S
C933 C932 1.348 . S
C933 H949 0.930 . S
Gd934 N954 2.622 . S
Gd934 N961 2.570 . S
Gd934 O968 2.353 . S
Gd934 O969 2.468 . S
Gd934 O970 2.427 . S
Gd934 O972 2.388 . S
Gd934 O973 2.386 . S
Gd934 O977 2.307 . S
Gd934 C987 2.805 . S
Gd935 N930 2.622 . S
Gd935 N936 2.570 . S
Gd935 O967 2.386 . S
Gd935 O971 2.307 . S
Gd935 O974 2.353 . S
Gd935 O975 2.468 . S
Gd935 O976 2.427 . S
Gd935 O978 2.388 . S
Gd935 C999 2.805 . S
N936 C926 1.359 . S
N936 Gd935 2.570 . S
N936 C938 1.343 . S
C937 C925 1.422 . S
C937 C939 1.321 . S
C937 H945 0.931 . S
C938 N936 1.343 . S
C938 C939 1.390 . S
C938 H940 0.931 . S
C939 C937 1.321 . S
C939 C938 1.390 . S
C939 H941 0.930 . S
H940 C938 0.931 . S
H941 C939 0.930 . S
H942 C965 0.931 . S
H943 C931 0.929 . S
H944 C966 0.930 . S
H945 C937 0.931 . S
H946 C927 0.930 . S
H947 C956 0.929 . S
H948 C932 0.931 . S
H949 C933 0.930 . S
H950 C988 0.930 . S
H951 C929 0.929 . S
H952 C957 0.931 . S
H953 C958 0.930 . S
N954 Gd934 2.622 . S
N954 C955 1.369 . S
N954 C956 1.338 . S
C955 N954 1.369 . S
C955 C959 1.415 . S
C955 C962 1.422 . S
C956 H947 0.929 . S
C956 N954 1.338 . S
C956 C958 1.378 . S
C957 H952 0.931 . S
C957 C958 1.348 . S
C957 C959 1.413 . S
C958 H953 0.930 . S
C958 C956 1.378 . S
C958 C957 1.348 . S
C959 C955 1.415 . S
C959 C957 1.413 . S
C959 C989 1.437 . S
H960 C989 0.929 . S
N961 Gd934 2.570 . S
N961 C962 1.359 . S
N961 C965 1.343 . S
C962 C955 1.422 . S
C962 N961 1.359 . S
C962 C964 1.421 . S
C963 C964 1.422 . S
C963 C966 1.321 . S
C963 H990 0.931 . S
C964 C962 1.421 . S
C964 C963 1.422 . S
C964 C988 1.417 . S
C965 H942 0.931 . S
C965 N961 1.343 . S
C965 C966 1.390 . S
C966 H944 0.930 . S
C966 C963 1.321 . S
C966 C965 1.390 . S
O967 Gd935 2.386 . S
O967 C979 1.265 . S
O968 Gd934 2.353 . S
O968 C979 1.242 . S
O969 Gd934 2.468 . S
O969 C987 1.263 . S
O970 Gd934 2.427 . S
O970 C987 1.252 . S
O971 Gd935 2.307 . S
O971 C980 1.261 . S
O972 Gd934 2.388 . S
O972 C980 1.252 . S
O973 Gd934 2.386 . S
O973 C991 1.265 . S
O974 Gd935 2.353 . S
O974 C991 1.242 . S
O975 Gd935 2.468 . S
O975 C999 1.263 . S
O976 Gd935 2.427 . S
O976 C999 1.252 . S
O977 Gd934 2.307 . S
O977 C992 1.261 . S
O978 Gd935 2.388 . S
O978 C992 1.252 . S
C979 O967 1.265 . S
C979 O968 1.242 . S
C980 O971 1.261 . S
C980 O972 1.252 . S
C981 C984 1.394 . S
C981 C986 1.370 . S
C981 C987 1.500 . S
C982 C985 1.383 . S
C982 C986 1.395 . S
C983 C984 1.396 . S
C983 C985 1.365 . S
C983 H1000 0.929 . S
C984 C981 1.394 . S
C984 C983 1.396 . S
C984 H1001 0.930 . S
C985 C982 1.383 . S
C985 C983 1.365 . S
C985 H1002 0.931 . S
C986 C981 1.370 . S
C986 C982 1.395 . S
C986 H1003 0.930 . S
C987 Gd934 2.805 . S
C987 O969 1.263 . S
C987 O970 1.252 . S
C987 C981 1.500 . S
C988 H950 0.930 . S
C988 C964 1.417 . S
C988 C989 1.329 . S
C989 C959 1.437 . S
C989 H960 0.929 . S
C989 C988 1.329 . S
H990 C963 0.931 . S
C991 O973 1.265 . S
C991 O974 1.242 . S
C992 O977 1.261 . S
C992 O978 1.252 . S
C993 C996 1.394 . S
C993 C998 1.370 . S
C993 C999 1.500 . S
C994 C997 1.383 . S
C994 C998 1.395 . S
C995 C996 1.396 . S
C995 C997 1.365 . S
C995 H1004 0.929 . S
C996 C993 1.394 . S
C996 C995 1.396 . S
C996 H1005 0.930 . S
C997 C994 1.383 . S
C997 C995 1.365 . S
C997 H1006 0.931 . S
C998 C993 1.370 . S
C998 C994 1.395 . S
C998 H1007 0.930 . S
C999 Gd935 2.805 . S
C999 O975 1.263 . S
C999 O976 1.252 . S
C999 C993 1.500 . S
H1000 C983 0.929 . S
H1001 C984 0.930 . S
H1002 C985 0.931 . S
H1003 C986 0.930 . S
H1004 C995 0.929 . S
H1005 C996 0.930 . S
H1006 C997 0.931 . S
H1007 C998 0.930 . S
C1008 C1010 1.422 . S
C1008 C1012 1.415 . S
C1008 N1014 1.369 . S
C1009 C1010 1.421 . S
C1009 C1011 1.417 . S
C1009 C1021 1.422 . S
C1010 C1008 1.422 . S
C1010 C1009 1.421 . S
C1010 N1020 1.359 . S
C1011 C1009 1.417 . S
C1011 C1013 1.329 . S
C1011 H1030 0.930 . S
C1012 C1008 1.415 . S
C1012 C1013 1.437 . S
C1012 C1016 1.413 . S
C1013 C1011 1.329 . S
C1013 C1012 1.437 . S
C1013 H1035 0.929 . S
N1014 C1008 1.369 . S
N1014 C1015 1.338 . S
N1014 Gd1019 2.622 . S
C1015 N1014 1.338 . S
C1015 C1017 1.378 . S
C1015 H1027 0.929 . S
C1016 C1012 1.413 . S
C1016 C1017 1.348 . S
C1016 H1032 0.931 . S
C1017 C1015 1.378 . S
C1017 C1016 1.348 . S
C1017 H1033 0.930 . S
Gd1018 N1038 2.622 1_554 S
Gd1018 N1045 2.570 1_554 S
Gd1018 O1052 2.353 . S
Gd1018 O1053 2.468 . S
Gd1018 O1054 2.427 . S
Gd1018 O1056 2.388 . S
Gd1018 O1057 2.386 1_554 S
Gd1018 O1061 2.307 . S
Gd1018 C1071 2.805 . S
Gd1019 N1014 2.622 . S
Gd1019 N1020 2.570 . S
Gd1019 O1051 2.386 . S
Gd1019 O1055 2.307 . S
Gd1019 O1058 2.353 1_554 S
Gd1019 O1059 2.468 . S
Gd1019 O1060 2.427 . S
Gd1019 O1062 2.388 . S
Gd1019 C1083 2.805 . S
N1020 C1010 1.359 . S
N1020 Gd1019 2.570 . S
N1020 C1022 1.343 . S
C1021 C1009 1.422 . S
C1021 C1023 1.321 . S
C1021 H1029 0.931 . S
C1022 N1020 1.343 . S
C1022 C1023 1.390 . S
C1022 H1024 0.931 . S
C1023 C1021 1.321 . S
C1023 C1022 1.390 . S
C1023 H1025 0.930 . S
H1024 C1022 0.931 . S
H1025 C1023 0.930 . S
H1026 C1049 0.931 . S
H1027 C1015 0.929 . S
H1028 C1050 0.930 . S
H1029 C1021 0.931 . S
H1030 C1011 0.930 . S
H1031 C1040 0.929 . S
H1032 C1016 0.931 . S
H1033 C1017 0.930 . S
H1034 C1072 0.930 . S
H1035 C1013 0.929 . S
H1036 C1041 0.931 . S
H1037 C1042 0.930 . S
N1038 Gd1018 2.622 1_556 S
N1038 C1039 1.369 . S
N1038 C1040 1.338 . S
C1039 N1038 1.369 . S
C1039 C1043 1.415 . S
C1039 C1046 1.422 . S
C1040 H1031 0.929 . S
C1040 N1038 1.338 . S
C1040 C1042 1.378 . S
C1041 H1036 0.931 . S
C1041 C1042 1.348 . S
C1041 C1043 1.413 . S
C1042 H1037 0.930 . S
C1042 C1040 1.378 . S
C1042 C1041 1.348 . S
C1043 C1039 1.415 . S
C1043 C1041 1.413 . S
C1043 C1073 1.437 . S
H1044 C1073 0.929 . S
N1045 Gd1018 2.570 1_556 S
N1045 C1046 1.359 . S
N1045 C1049 1.343 . S
C1046 C1039 1.422 . S
C1046 N1045 1.359 . S
C1046 C1048 1.421 . S
C1047 C1048 1.422 . S
C1047 C1050 1.321 . S
C1047 H1074 0.931 . S
C1048 C1046 1.421 . S
C1048 C1047 1.422 . S
C1048 C1072 1.417 . S
C1049 H1026 0.931 . S
C1049 N1045 1.343 . S
C1049 C1050 1.390 . S
C1050 H1028 0.930 . S
C1050 C1047 1.321 . S
C1050 C1049 1.390 . S
O1051 Gd1019 2.386 . S
O1051 C1063 1.265 . S
O1052 Gd1018 2.353 . S
O1052 C1063 1.242 . S
O1053 Gd1018 2.468 . S
O1053 C1071 1.263 . S
O1054 Gd1018 2.427 . S
O1054 C1071 1.252 . S
O1055 Gd1019 2.307 . S
O1055 C1064 1.261 . S
O1056 Gd1018 2.388 . S
O1056 C1064 1.252 . S
O1057 Gd1018 2.386 1_556 S
O1057 C1075 1.265 . S
O1058 Gd1019 2.353 1_556 S
O1058 C1075 1.242 . S
O1059 Gd1019 2.468 . S
O1059 C1083 1.263 . S
O1060 Gd1019 2.427 . S
O1060 C1083 1.252 . S
O1061 Gd1018 2.307 . S
O1061 C1076 1.261 . S
O1062 Gd1019 2.388 . S
O1062 C1076 1.252 . S
C1063 O1051 1.265 . S
C1063 O1052 1.242 . S
C1064 O1055 1.261 . S
C1064 O1056 1.252 . S
C1065 C1068 1.394 . S
C1065 C1070 1.370 . S
C1065 C1071 1.500 . S
C1066 C1069 1.383 . S
C1066 C1070 1.395 . S
C1067 C1068 1.396 . S
C1067 C1069 1.365 . S
C1067 H1084 0.929 . S
C1068 C1065 1.394 . S
C1068 C1067 1.396 . S
C1068 H1085 0.930 . S
C1069 C1066 1.383 . S
C1069 C1067 1.365 . S
C1069 H1086 0.931 . S
C1070 C1065 1.370 . S
C1070 C1066 1.395 . S
C1070 H1087 0.930 . S
C1071 Gd1018 2.805 . S
C1071 O1053 1.263 . S
C1071 O1054 1.252 . S
C1071 C1065 1.500 . S
C1072 H1034 0.930 . S
C1072 C1048 1.417 . S
C1072 C1073 1.329 . S
C1073 C1043 1.437 . S
C1073 H1044 0.929 . S
C1073 C1072 1.329 . S
H1074 C1047 0.931 . S
C1075 O1057 1.265 . S
C1075 O1058 1.242 . S
C1076 O1061 1.261 . S
C1076 O1062 1.252 . S
C1077 C1080 1.394 . S
C1077 C1082 1.370 . S
C1077 C1083 1.500 1_556 S
C1078 C1081 1.383 . S
C1078 C1082 1.395 . S
C1079 C1080 1.396 . S
C1079 C1081 1.365 . S
C1079 H1088 0.929 . S
C1080 C1077 1.394 . S
C1080 C1079 1.396 . S
C1080 H1089 0.930 . S
C1081 C1078 1.383 . S
C1081 C1079 1.365 . S
C1081 H1090 0.931 . S
C1082 C1077 1.370 . S
C1082 C1078 1.395 . S
C1082 H1091 0.930 . S
C1083 Gd1019 2.805 . S
C1083 O1059 1.263 . S
C1083 O1060 1.252 . S
C1083 C1077 1.500 1_554 S
H1084 C1067 0.929 . S
H1085 C1068 0.930 . S
H1086 C1069 0.931 . S
H1087 C1070 0.930 . S
H1088 C1079 0.929 . S
H1089 C1080 0.930 . S
H1090 C1081 0.931 . S
H1091 C1082 0.930 . S
C1092 C1094 1.422 . S
C1092 C1096 1.415 . S
C1092 N1098 1.369 . S
C1093 C1094 1.421 . S
C1093 C1095 1.417 . S
C1093 C1105 1.422 . S
C1094 C1092 1.422 . S
C1094 C1093 1.421 . S
C1094 N1104 1.359 . S
C1095 C1093 1.417 . S
C1095 C1097 1.329 . S
C1095 H1114 0.930 . S
C1096 C1092 1.415 . S
C1096 C1097 1.437 . S
C1096 C1100 1.413 . S
C1097 C1095 1.329 . S
C1097 C1096 1.437 . S
C1097 H1119 0.929 . S
N1098 C1092 1.369 . S
N1098 C1099 1.338 . S
N1098 Gd1103 2.622 . S
C1099 N1098 1.338 . S
C1099 C1101 1.378 . S
C1099 H1111 0.929 . S
C1100 C1096 1.413 . S
C1100 C1101 1.348 . S
C1100 H1116 0.931 . S
C1101 C1099 1.378 . S
C1101 C1100 1.348 . S
C1101 H1117 0.930 . S
Gd1102 N1122 2.622 . S
Gd1102 N1129 2.570 . S
Gd1102 O1136 2.353 . S
Gd1102 O1137 2.468 . S
Gd1102 O1138 2.427 . S
Gd1102 O1140 2.388 . S
Gd1102 O1141 2.386 . S
Gd1102 O1145 2.307 . S
Gd1102 C1155 2.805 . S
Gd1103 N1098 2.622 . S
Gd1103 N1104 2.570 . S
Gd1103 O1135 2.386 . S
Gd1103 O1139 2.307 . S
Gd1103 O1142 2.353 . S
Gd1103 O1143 2.468 . S
Gd1103 O1144 2.427 . S
Gd1103 O1146 2.388 . S
Gd1103 C1167 2.805 . S
N1104 C1094 1.359 . S
N1104 Gd1103 2.570 . S
N1104 C1106 1.343 . S
C1105 C1093 1.422 . S
C1105 C1107 1.321 . S
C1105 H1113 0.931 . S
C1106 N1104 1.343 . S
C1106 C1107 1.390 . S
C1106 H1108 0.931 . S
C1107 C1105 1.321 . S
C1107 C1106 1.390 . S
C1107 H1109 0.930 . S
H1108 C1106 0.931 . S
H1109 C1107 0.930 . S
H1110 C1133 0.931 . S
H1111 C1099 0.929 . S
H1112 C1134 0.930 . S
H1113 C1105 0.931 . S
H1114 C1095 0.930 . S
H1115 C1124 0.929 . S
H1116 C1100 0.931 . S
H1117 C1101 0.930 . S
H1118 C1156 0.930 . S
H1119 C1097 0.929 . S
H1120 C1125 0.931 . S
H1121 C1126 0.930 . S
N1122 Gd1102 2.622 . S
N1122 C1123 1.369 . S
N1122 C1124 1.338 . S
C1123 N1122 1.369 . S
C1123 C1127 1.415 . S
C1123 C1130 1.422 . S
C1124 H1115 0.929 . S
C1124 N1122 1.338 . S
C1124 C1126 1.378 . S
C1125 H1120 0.931 . S
C1125 C1126 1.348 . S
C1125 C1127 1.413 . S
C1126 H1121 0.930 . S
C1126 C1124 1.378 . S
C1126 C1125 1.348 . S
C1127 C1123 1.415 . S
C1127 C1125 1.413 . S
C1127 C1157 1.437 . S
H1128 C1157 0.929 . S
N1129 Gd1102 2.570 . S
N1129 C1130 1.359 . S
N1129 C1133 1.343 . S
C1130 C1123 1.422 . S
C1130 N1129 1.359 . S
C1130 C1132 1.421 . S
C1131 C1132 1.422 . S
C1131 C1134 1.321 . S
C1131 H1158 0.931 . S
C1132 C1130 1.421 . S
C1132 C1131 1.422 . S
C1132 C1156 1.417 . S
C1133 H1110 0.931 . S
C1133 N1129 1.343 . S
C1133 C1134 1.390 . S
C1134 H1112 0.930 . S
C1134 C1131 1.321 . S
C1134 C1133 1.390 . S
O1135 Gd1103 2.386 . S
O1135 C1147 1.265 . S
O1136 Gd1102 2.353 . S
O1136 C1147 1.242 . S
O1137 Gd1102 2.468 . S
O1137 C1155 1.263 . S
O1138 Gd1102 2.427 . S
O1138 C1155 1.252 . S
O1139 Gd1103 2.307 . S
O1139 C1148 1.261 . S
O1140 Gd1102 2.388 . S
O1140 C1148 1.252 . S
O1141 Gd1102 2.386 . S
O1141 C1159 1.265 . S
O1142 Gd1103 2.353 . S
O1142 C1159 1.242 . S
O1143 Gd1103 2.468 . S
O1143 C1167 1.263 . S
O1144 Gd1103 2.427 . S
O1144 C1167 1.252 . S
O1145 Gd1102 2.307 . S
O1145 C1160 1.261 . S
O1146 Gd1103 2.388 . S
O1146 C1160 1.252 . S
C1147 O1135 1.265 . S
C1147 O1136 1.242 . S
C1148 O1139 1.261 . S
C1148 O1140 1.252 . S
C1149 C1152 1.394 . S
C1149 C1154 1.370 . S
C1149 C1155 1.500 . S
C1150 C1153 1.383 . S
C1150 C1154 1.395 . S
C1151 C1152 1.396 . S
C1151 C1153 1.365 . S
C1151 H1168 0.929 . S
C1152 C1149 1.394 . S
C1152 C1151 1.396 . S
C1152 H1169 0.930 . S
C1153 C1150 1.383 . S
C1153 C1151 1.365 . S
C1153 H1170 0.931 . S
C1154 C1149 1.370 . S
C1154 C1150 1.395 . S
C1154 H1171 0.930 . S
C1155 Gd1102 2.805 . S
C1155 O1137 1.263 . S
C1155 O1138 1.252 . S
C1155 C1149 1.500 . S
C1156 H1118 0.930 . S
C1156 C1132 1.417 . S
C1156 C1157 1.329 . S
C1157 C1127 1.437 . S
C1157 H1128 0.929 . S
C1157 C1156 1.329 . S
H1158 C1131 0.931 . S
C1159 O1141 1.265 . S
C1159 O1142 1.242 . S
C1160 O1145 1.261 . S
C1160 O1146 1.252 . S
C1161 C1164 1.394 . S
C1161 C1166 1.370 . S
C1161 C1167 1.500 . S
C1162 C1165 1.383 . S
C1162 C1166 1.395 . S
C1163 C1164 1.396 . S
C1163 C1165 1.365 . S
C1163 H1172 0.929 . S
C1164 C1161 1.394 . S
C1164 C1163 1.396 . S
C1164 H1173 0.930 . S
C1165 C1162 1.383 . S
C1165 C1163 1.365 . S
C1165 H1174 0.931 . S
C1166 C1161 1.370 . S
C1166 C1162 1.395 . S
C1166 H1175 0.930 . S
C1167 Gd1103 2.805 . S
C1167 O1143 1.263 . S
C1167 O1144 1.252 . S
C1167 C1161 1.500 . S
H1168 C1151 0.929 . S
H1169 C1152 0.930 . S
H1170 C1153 0.931 . S
H1171 C1154 0.930 . S
H1172 C1163 0.929 . S
H1173 C1164 0.930 . S
H1174 C1165 0.931 . S
H1175 C1166 0.930 . S
C1176 C1178 1.422 . S
C1176 C1180 1.415 . S
C1176 N1182 1.369 . S
C1177 C1178 1.421 . S
C1177 C1179 1.417 . S
C1177 C1189 1.422 . S
C1178 C1176 1.422 . S
C1178 C1177 1.421 . S
C1178 N1188 1.359 . S
C1179 C1177 1.417 . S
C1179 C1181 1.329 . S
C1179 H1198 0.930 . S
C1180 C1176 1.415 . S
C1180 C1181 1.437 . S
C1180 C1184 1.413 . S
C1181 C1179 1.329 . S
C1181 C1180 1.437 . S
C1181 H1203 0.929 . S
N1182 C1176 1.369 . S
N1182 C1183 1.338 . S
N1182 Gd1187 2.622 . S
C1183 N1182 1.338 . S
C1183 C1185 1.378 . S
C1183 H1195 0.929 . S
C1184 C1180 1.413 . S
C1184 C1185 1.348 . S
C1184 H1200 0.931 . S
C1185 C1183 1.378 . S
C1185 C1184 1.348 . S
C1185 H1201 0.930 . S
Gd1186 N1206 2.622 1_455 S
Gd1186 N1213 2.570 1_455 S
Gd1186 O1220 2.353 . S
Gd1186 O1221 2.468 . S
Gd1186 O1222 2.427 . S
Gd1186 O1224 2.388 . S
Gd1186 O1225 2.386 1_455 S
Gd1186 O1229 2.307 . S
Gd1186 C1239 2.805 . S
Gd1187 N1182 2.622 . S
Gd1187 N1188 2.570 . S
Gd1187 O1219 2.386 . S
Gd1187 O1223 2.307 . S
Gd1187 O1226 2.353 1_455 S
Gd1187 O1227 2.468 . S
Gd1187 O1228 2.427 . S
Gd1187 O1230 2.388 . S
Gd1187 C1251 2.805 . S
N1188 C1178 1.359 . S
N1188 Gd1187 2.570 . S
N1188 C1190 1.343 . S
C1189 C1177 1.422 . S
C1189 C1191 1.321 . S
C1189 H1197 0.931 . S
C1190 N1188 1.343 . S
C1190 C1191 1.390 . S
C1190 H1192 0.931 . S
C1191 C1189 1.321 . S
C1191 C1190 1.390 . S
C1191 H1193 0.930 . S
H1192 C1190 0.931 . S
H1193 C1191 0.930 . S
H1194 C1217 0.889 1_455 S
H1195 C1183 0.929 . S
H1196 C1218 0.930 . S
H1197 C1189 0.931 . S
H1198 C1179 0.930 . S
H1199 C1208 0.929 1_455 S
H1200 C1184 0.931 . S
H1201 C1185 0.930 . S
H1202 C1240 0.930 . S
H1203 C1181 0.929 . S
H1204 C1209 0.931 . S
H1205 C1210 0.930 . S
N1206 Gd1186 2.622 1_655 S
N1206 C1207 1.369 . S
N1206 C1208 1.338 . S
C1207 N1206 1.369 . S
C1207 C1211 1.415 . S
C1207 C1214 1.422 . S
C1208 H1199 0.929 1_655 S
C1208 N1206 1.338 . S
C1208 C1210 1.378 . S
C1209 H1204 0.931 . S
C1209 C1210 1.348 . S
C1209 C1211 1.413 . S
C1210 H1205 0.930 . S
C1210 C1208 1.378 . S
C1210 C1209 1.348 . S
C1211 C1207 1.415 . S
C1211 C1209 1.413 . S
C1211 C1241 1.437 . S
H1212 C1241 0.929 . S
N1213 Gd1186 2.570 1_655 S
N1213 C1214 1.359 . S
N1213 C1217 1.343 . S
C1214 C1207 1.422 . S
C1214 N1213 1.359 . S
C1214 C1216 1.421 . S
C1215 C1216 1.422 . S
C1215 C1218 1.321 . S
C1215 H1242 0.931 . S
C1216 C1214 1.421 . S
C1216 C1215 1.422 . S
C1216 C1240 1.417 . S
C1217 H1194 0.889 1_655 S
C1217 N1213 1.343 . S
C1217 C1218 1.390 . S
C1218 H1196 0.930 . S
C1218 C1215 1.321 . S
C1218 C1217 1.390 . S
O1219 Gd1187 2.386 . S
O1219 C1231 1.265 . S
O1220 Gd1186 2.353 . S
O1220 C1231 1.242 . S
O1221 Gd1186 2.468 . S
O1221 C1239 1.263 . S
O1222 Gd1186 2.427 . S
O1222 C1239 1.252 . S
O1223 Gd1187 2.307 . S
O1223 C1232 1.261 . S
O1224 Gd1186 2.388 . S
O1224 C1232 1.252 . S
O1225 Gd1186 2.386 1_655 S
O1225 C1243 1.265 . S
O1226 Gd1187 2.353 1_655 S
O1226 C1243 1.242 . S
O1227 Gd1187 2.468 . S
O1227 C1251 1.263 . S
O1228 Gd1187 2.427 . S
O1228 C1251 1.252 . S
O1229 Gd1186 2.307 . S
O1229 C1244 1.261 . S
O1230 Gd1187 2.388 . S
O1230 C1244 1.252 . S
C1231 O1219 1.265 . S
C1231 O1220 1.242 . S
C1232 O1223 1.261 . S
C1232 O1224 1.252 . S
C1233 C1236 1.394 . S
C1233 C1238 1.370 . S
C1233 C1239 1.500 . S
C1234 C1237 1.383 . S
C1234 C1238 1.395 . S
C1235 C1236 1.396 . S
C1235 C1237 1.365 . S
C1235 H1252 0.929 . S
C1236 C1233 1.394 . S
C1236 C1235 1.396 . S
C1236 H1253 0.930 . S
C1237 C1234 1.383 . S
C1237 C1235 1.365 . S
C1237 H1254 0.931 . S
C1238 C1233 1.370 . S
C1238 C1234 1.395 . S
C1238 H1255 0.930 . S
C1239 Gd1186 2.805 . S
C1239 O1221 1.263 . S
C1239 O1222 1.252 . S
C1239 C1233 1.500 . S
C1240 H1202 0.930 . S
C1240 C1216 1.417 . S
C1240 C1241 1.329 . S
C1241 C1211 1.437 . S
C1241 H1212 0.929 . S
C1241 C1240 1.329 . S
H1242 C1215 0.931 . S
C1243 O1225 1.265 . S
C1243 O1226 1.242 . S
C1244 O1229 1.261 . S
C1244 O1230 1.252 . S
C1245 C1248 1.394 . S
C1245 C1250 1.370 . S
C1245 C1251 1.500 1_655 S
C1246 C1249 1.383 . S
C1246 C1250 1.395 . S
C1247 C1248 1.396 . S
C1247 C1249 1.365 . S
C1247 H1256 0.929 . S
C1248 C1245 1.394 . S
C1248 C1247 1.396 . S
C1248 H1257 0.930 . S
C1249 C1246 1.383 . S
C1249 C1247 1.365 . S
C1249 H1258 0.931 . S
C1250 C1245 1.370 . S
C1250 C1246 1.395 . S
C1250 H1259 0.930 . S
C1251 Gd1187 2.805 . S
C1251 O1227 1.263 . S
C1251 O1228 1.252 . S
C1251 C1245 1.500 1_455 S
H1252 C1235 0.929 . S
H1253 C1236 0.930 . S
H1254 C1237 0.931 . S
H1255 C1238 0.930 . S
H1256 C1247 0.929 . S
H1257 C1248 0.930 . S
H1258 C1249 0.931 . S
H1259 C1250 0.930 . S
C1260 C1262 1.422 . S
C1260 C1264 1.415 . S
C1260 N1266 1.369 . S
C1261 C1262 1.421 . S
C1261 C1263 1.417 . S
C1261 C1273 1.422 . S
C1262 C1260 1.422 . S
C1262 C1261 1.421 . S
C1262 N1272 1.359 . S
C1263 C1261 1.417 . S
C1263 C1265 1.329 . S
C1263 H1282 0.930 . S
C1264 C1260 1.415 . S
C1264 C1265 1.437 . S
C1264 C1268 1.413 . S
C1265 C1263 1.329 . S
C1265 C1264 1.437 . S
C1265 H1287 0.929 . S
N1266 C1260 1.369 . S
N1266 C1267 1.338 . S
N1266 Gd1271 2.622 . S
C1267 N1266 1.338 . S
C1267 C1269 1.378 . S
C1267 H1279 0.929 . S
C1268 C1264 1.413 . S
C1268 C1269 1.348 . S
C1268 H1284 0.931 . S
C1269 C1267 1.378 . S
C1269 C1268 1.348 . S
C1269 H1285 0.930 . S
Gd1270 N1290 2.622 . S
Gd1270 N1297 2.570 . S
Gd1270 O1304 2.353 . S
Gd1270 O1305 2.468 . S
Gd1270 O1306 2.427 . S
Gd1270 O1308 2.388 . S
Gd1270 O1309 2.386 . S
Gd1270 O1313 2.307 . S
Gd1270 C1323 2.805 . S
Gd1271 N1266 2.622 . S
Gd1271 N1272 2.570 . S
Gd1271 O1303 2.386 . S
Gd1271 O1307 2.307 . S
Gd1271 O1310 2.353 . S
Gd1271 O1311 2.468 . S
Gd1271 O1312 2.427 . S
Gd1271 O1314 2.388 . S
Gd1271 C1335 2.805 . S
N1272 C1262 1.359 . S
N1272 Gd1271 2.570 . S
N1272 C1274 1.343 . S
C1273 C1261 1.422 . S
C1273 C1275 1.321 . S
C1273 H1281 0.931 . S
C1274 N1272 1.343 . S
C1274 C1275 1.390 . S
C1274 H1276 0.931 . S
C1275 C1273 1.321 . S
C1275 C1274 1.390 . S
C1275 H1277 0.930 . S
H1276 C1274 0.931 . S
H1277 C1275 0.930 . S
H1278 C1301 0.931 . S
H1279 C1267 0.929 . S
H1280 C1302 0.930 . S
H1281 C1273 0.931 . S
H1282 C1263 0.930 . S
H1283 C1292 0.929 . S
H1284 C1268 0.931 . S
H1285 C1269 0.930 . S
H1286 C1324 0.930 . S
H1287 C1265 0.929 . S
H1288 C1293 0.931 . S
H1289 C1294 0.930 . S
N1290 Gd1270 2.622 . S
N1290 C1291 1.369 . S
N1290 C1292 1.338 . S
C1291 N1290 1.369 . S
C1291 C1295 1.415 . S
C1291 C1298 1.422 . S
C1292 H1283 0.929 . S
C1292 N1290 1.338 . S
C1292 C1294 1.378 . S
C1293 H1288 0.931 . S
C1293 C1294 1.348 . S
C1293 C1295 1.413 . S
C1294 H1289 0.930 . S
C1294 C1292 1.378 . S
C1294 C1293 1.348 . S
C1295 C1291 1.415 . S
C1295 C1293 1.413 . S
C1295 C1325 1.437 . S
H1296 C1325 0.929 . S
N1297 Gd1270 2.570 . S
N1297 C1298 1.359 . S
N1297 C1301 1.343 . S
C1298 C1291 1.422 . S
C1298 N1297 1.359 . S
C1298 C1300 1.421 . S
C1299 C1300 1.422 . S
C1299 C1302 1.321 . S
C1299 H1326 0.931 . S
C1300 C1298 1.421 . S
C1300 C1299 1.422 . S
C1300 C1324 1.417 . S
C1301 H1278 0.931 . S
C1301 N1297 1.343 . S
C1301 C1302 1.390 . S
C1302 H1280 0.930 . S
C1302 C1299 1.321 . S
C1302 C1301 1.390 . S
O1303 Gd1271 2.386 . S
O1303 C1315 1.265 . S
O1304 Gd1270 2.353 . S
O1304 C1315 1.242 . S
O1305 Gd1270 2.468 . S
O1305 C1323 1.263 . S
O1306 Gd1270 2.427 . S
O1306 C1323 1.252 . S
O1307 Gd1271 2.307 . S
O1307 C1316 1.261 . S
O1308 Gd1270 2.388 . S
O1308 C1316 1.252 . S
O1309 Gd1270 2.386 . S
O1309 C1327 1.265 . S
O1310 Gd1271 2.353 . S
O1310 C1327 1.242 . S
O1311 Gd1271 2.468 . S
O1311 C1335 1.263 . S
O1312 Gd1271 2.427 . S
O1312 C1335 1.252 . S
O1313 Gd1270 2.307 . S
O1313 C1328 1.261 . S
O1314 Gd1271 2.388 . S
O1314 C1328 1.252 . S
C1315 O1303 1.265 . S
C1315 O1304 1.242 . S
C1316 O1307 1.261 . S
C1316 O1308 1.252 . S
C1317 C1320 1.394 . S
C1317 C1322 1.370 . S
C1317 C1323 1.500 . S
C1318 C1321 1.383 . S
C1318 C1322 1.395 . S
C1319 C1320 1.396 . S
C1319 C1321 1.365 . S
C1319 H1336 0.929 . S
C1320 C1317 1.394 . S
C1320 C1319 1.396 . S
C1320 H1337 0.930 . S
C1321 C1318 1.383 . S
C1321 C1319 1.365 . S
C1321 H1338 0.931 . S
C1322 C1317 1.370 . S
C1322 C1318 1.395 . S
C1322 H1339 0.930 . S
C1323 Gd1270 2.805 . S
C1323 O1305 1.263 . S
C1323 O1306 1.252 . S
C1323 C1317 1.500 . S
C1324 H1286 0.930 . S
C1324 C1300 1.417 . S
C1324 C1325 1.329 . S
C1325 C1295 1.437 . S
C1325 H1296 0.929 . S
C1325 C1324 1.329 . S
H1326 C1299 0.931 . S
C1327 O1309 1.265 . S
C1327 O1310 1.242 . S
C1328 O1313 1.261 . S
C1328 O1314 1.252 . S
C1329 C1332 1.394 . S
C1329 C1334 1.370 . S
C1329 C1335 1.500 . S
C1330 C1333 1.383 . S
C1330 C1334 1.395 . S
C1331 C1332 1.396 . S
C1331 C1333 1.365 . S
C1331 H1340 0.929 . S
C1332 C1329 1.394 . S
C1332 C1331 1.396 . S
C1332 H1341 0.930 . S
C1333 C1330 1.383 . S
C1333 C1331 1.365 . S
C1333 H1342 0.931 . S
C1334 C1329 1.370 . S
C1334 C1330 1.395 . S
C1334 H1343 0.930 . S
C1335 Gd1271 2.805 . S
C1335 O1311 1.263 . S
C1335 O1312 1.252 . S
C1335 C1329 1.500 . S
H1336 C1319 0.929 . S
H1337 C1320 0.930 . S
H1338 C1321 0.931 . S
H1339 C1322 0.930 . S
H1340 C1331 0.929 . S
H1341 C1332 0.930 . S
H1342 C1333 0.931 . S
H1343 C1334 0.930 . S
C1344 C1346 1.422 . S
C1344 C1348 1.415 . S
C1344 N1350 1.369 . S
C1345 C1346 1.421 . S
C1345 C1347 1.417 . S
C1345 C1357 1.422 . S
C1346 C1344 1.422 . S
C1346 C1345 1.421 . S
C1346 N1356 1.359 . S
C1347 C1345 1.417 . S
C1347 C1349 1.329 . S
C1347 H1366 0.930 . S
C1348 C1344 1.415 . S
C1348 C1349 1.437 . S
C1348 C1352 1.413 . S
C1349 C1347 1.329 . S
C1349 C1348 1.437 . S
C1349 H1371 0.929 . S
N1350 C1344 1.369 . S
N1350 C1351 1.338 . S
N1350 Gd1355 2.622 . S
C1351 N1350 1.338 . S
C1351 C1353 1.378 . S
C1351 H1363 0.929 . S
C1352 C1348 1.413 . S
C1352 C1353 1.348 . S
C1352 H1368 0.931 . S
C1353 C1351 1.378 . S
C1353 C1352 1.348 . S
C1353 H1369 0.930 . S
Gd1354 N1374 2.622 . S
Gd1354 N1381 2.570 . S
Gd1354 O1388 2.353 . S
Gd1354 O1389 2.468 . S
Gd1354 O1390 2.427 . S
Gd1354 O1392 2.388 . S
Gd1354 O1393 2.386 . S
Gd1354 O1397 2.307 . S
Gd1354 C1407 2.805 . S
Gd1355 N1350 2.622 . S
Gd1355 N1356 2.570 . S
Gd1355 O1387 2.386 . S
Gd1355 O1391 2.307 . S
Gd1355 O1394 2.353 . S
Gd1355 O1395 2.468 . S
Gd1355 O1396 2.427 . S
Gd1355 O1398 2.388 . S
Gd1355 C1419 2.805 . S
N1356 C1346 1.359 . S
N1356 Gd1355 2.570 . S
N1356 C1358 1.343 . S
C1357 C1345 1.422 . S
C1357 C1359 1.321 . S
C1357 H1365 0.931 . S
C1358 N1356 1.343 . S
C1358 C1359 1.390 . S
C1358 H1360 0.931 . S
C1359 C1357 1.321 . S
C1359 C1358 1.390 . S
C1359 H1361 0.930 . S
H1360 C1358 0.931 . S
H1361 C1359 0.930 . S
H1362 C1385 0.931 . S
H1363 C1351 0.929 . S
H1364 C1386 0.930 . S
H1365 C1357 0.931 . S
H1366 C1347 0.930 . S
H1367 C1376 0.929 . S
H1368 C1352 0.931 . S
H1369 C1353 0.930 . S
H1370 C1408 0.930 . S
H1371 C1349 0.929 . S
H1372 C1377 0.931 . S
H1373 C1378 0.930 . S
N1374 Gd1354 2.622 . S
N1374 C1375 1.369 . S
N1374 C1376 1.338 . S
C1375 N1374 1.369 . S
C1375 C1379 1.415 . S
C1375 C1382 1.422 . S
C1376 H1367 0.929 . S
C1376 N1374 1.338 . S
C1376 C1378 1.378 . S
C1377 H1372 0.931 . S
C1377 C1378 1.348 . S
C1377 C1379 1.413 . S
C1378 H1373 0.930 . S
C1378 C1376 1.378 . S
C1378 C1377 1.348 . S
C1379 C1375 1.415 . S
C1379 C1377 1.413 . S
C1379 C1409 1.437 . S
H1380 C1409 0.929 . S
N1381 Gd1354 2.570 . S
N1381 C1382 1.359 . S
N1381 C1385 1.343 . S
C1382 C1375 1.422 . S
C1382 N1381 1.359 . S
C1382 C1384 1.421 . S
C1383 C1384 1.422 . S
C1383 C1386 1.321 . S
C1383 H1410 0.931 . S
C1384 C1382 1.421 . S
C1384 C1383 1.422 . S
C1384 C1408 1.417 . S
C1385 H1362 0.931 . S
C1385 N1381 1.343 . S
C1385 C1386 1.390 . S
C1386 H1364 0.930 . S
C1386 C1383 1.321 . S
C1386 C1385 1.390 . S
O1387 Gd1355 2.386 . S
O1387 C1399 1.265 . S
O1388 Gd1354 2.353 . S
O1388 C1399 1.242 . S
O1389 Gd1354 2.468 . S
O1389 C1407 1.263 . S
O1390 Gd1354 2.427 . S
O1390 C1407 1.252 . S
O1391 Gd1355 2.307 . S
O1391 C1400 1.261 . S
O1392 Gd1354 2.388 . S
O1392 C1400 1.252 . S
O1393 Gd1354 2.386 . S
O1393 C1411 1.265 . S
O1394 Gd1355 2.353 . S
O1394 C1411 1.242 . S
O1395 Gd1355 2.468 . S
O1395 C1419 1.263 . S
O1396 Gd1355 2.427 . S
O1396 C1419 1.252 . S
O1397 Gd1354 2.307 . S
O1397 C1412 1.261 . S
O1398 Gd1355 2.388 . S
O1398 C1412 1.252 . S
C1399 O1387 1.265 . S
C1399 O1388 1.242 . S
C1400 O1391 1.261 . S
C1400 O1392 1.252 . S
C1401 C1404 1.394 . S
C1401 C1406 1.370 . S
C1401 C1407 1.500 . S
C1402 C1405 1.383 . S
C1402 C1406 1.395 . S
C1403 C1404 1.396 . S
C1403 C1405 1.365 . S
C1403 H1420 0.929 . S
C1404 C1401 1.394 . S
C1404 C1403 1.396 . S
C1404 H1421 0.930 . S
C1405 C1402 1.383 . S
C1405 C1403 1.365 . S
C1405 H1422 0.931 . S
C1406 C1401 1.370 . S
C1406 C1402 1.395 . S
C1406 H1423 0.930 . S
C1407 Gd1354 2.805 . S
C1407 O1389 1.263 . S
C1407 O1390 1.252 . S
C1407 C1401 1.500 . S
C1408 H1370 0.930 . S
C1408 C1384 1.417 . S
C1408 C1409 1.329 . S
C1409 C1379 1.437 . S
C1409 H1380 0.929 . S
C1409 C1408 1.329 . S
H1410 C1383 0.931 . S
C1411 O1393 1.265 . S
C1411 O1394 1.242 . S
C1412 O1397 1.261 . S
C1412 O1398 1.252 . S
C1413 C1416 1.394 . S
C1413 C1418 1.370 . S
C1413 C1419 1.500 . S
C1414 C1417 1.383 . S
C1414 C1418 1.395 . S
C1415 C1416 1.396 . S
C1415 C1417 1.365 . S
C1415 H1424 0.929 . S
C1416 C1413 1.394 . S
C1416 C1415 1.396 . S
C1416 H1425 0.930 . S
C1417 C1414 1.383 . S
C1417 C1415 1.365 . S
C1417 H1426 0.931 . S
C1418 C1413 1.370 . S
C1418 C1414 1.395 . S
C1418 H1427 0.930 . S
C1419 Gd1355 2.805 . S
C1419 O1395 1.263 . S
C1419 O1396 1.252 . S
C1419 C1413 1.500 . S
H1420 C1403 0.929 . S
H1421 C1404 0.930 . S
H1422 C1405 0.931 . S
H1423 C1406 0.930 . S
H1424 C1415 0.929 . S
H1425 C1416 0.930 . S
H1426 C1417 0.931 . S
H1427 C1418 0.930 . S
C1428 C1430 1.422 . S
C1428 C1432 1.415 . S
C1428 N1434 1.369 . S
C1429 C1430 1.421 . S
C1429 C1431 1.417 . S
C1429 C1441 1.422 . S
C1430 C1428 1.422 . S
C1430 C1429 1.421 . S
C1430 N1440 1.359 . S
C1431 C1429 1.417 . S
C1431 C1433 1.329 . S
C1431 H1450 0.930 . S
C1432 C1428 1.415 . S
C1432 C1433 1.437 . S
C1432 C1436 1.413 . S
C1433 C1431 1.329 . S
C1433 C1432 1.437 . S
C1433 H1455 0.929 . S
N1434 C1428 1.369 . S
N1434 C1435 1.338 . S
N1434 Gd1439 2.622 . S
C1435 N1434 1.338 . S
C1435 C1437 1.378 . S
C1435 H1447 0.929 . S
C1436 C1432 1.413 . S
C1436 C1437 1.348 . S
C1436 H1452 0.931 . S
C1437 C1435 1.378 . S
C1437 C1436 1.348 . S
C1437 H1453 0.930 . S
Gd1438 N1458 2.622 . S
Gd1438 N1465 2.570 . S
Gd1438 O1472 2.353 . S
Gd1438 O1473 2.468 . S
Gd1438 O1474 2.427 . S
Gd1438 O1476 2.388 . S
Gd1438 O1477 2.386 . S
Gd1438 O1481 2.307 . S
Gd1438 C1491 2.805 . S
Gd1439 N1434 2.622 . S
Gd1439 N1440 2.570 . S
Gd1439 O1471 2.386 . S
Gd1439 O1475 2.307 . S
Gd1439 O1478 2.353 . S
Gd1439 O1479 2.468 . S
Gd1439 O1480 2.427 . S
Gd1439 O1482 2.388 . S
Gd1439 C1503 2.805 . S
N1440 C1430 1.359 . S
N1440 Gd1439 2.570 . S
N1440 C1442 1.343 . S
C1441 C1429 1.422 . S
C1441 C1443 1.321 . S
C1441 H1449 0.931 . S
C1442 N1440 1.343 . S
C1442 C1443 1.390 . S
C1442 H1444 0.931 . S
C1443 C1441 1.321 . S
C1443 C1442 1.390 . S
C1443 H1445 0.930 . S
H1444 C1442 0.931 . S
H1445 C1443 0.930 . S
H1446 C1469 0.931 . S
H1447 C1435 0.929 . S
H1448 C1470 0.930 . S
H1449 C1441 0.931 . S
H1450 C1431 0.930 . S
H1451 C1460 0.929 . S
H1452 C1436 0.931 . S
H1453 C1437 0.930 . S
H1454 C1492 0.930 . S
H1455 C1433 0.929 . S
H1456 C1461 0.931 . S
H1457 C1462 0.930 . S
N1458 Gd1438 2.622 . S
N1458 C1459 1.369 . S
N1458 C1460 1.338 . S
C1459 N1458 1.369 . S
C1459 C1463 1.415 . S
C1459 C1466 1.422 . S
C1460 H1451 0.929 . S
C1460 N1458 1.338 . S
C1460 C1462 1.378 . S
C1461 H1456 0.931 . S
C1461 C1462 1.348 . S
C1461 C1463 1.413 . S
C1462 H1457 0.930 . S
C1462 C1460 1.378 . S
C1462 C1461 1.348 . S
C1463 C1459 1.415 . S
C1463 C1461 1.413 . S
C1463 C1493 1.437 . S
H1464 C1493 0.929 . S
N1465 Gd1438 2.570 . S
N1465 C1466 1.359 . S
N1465 C1469 1.343 . S
C1466 C1459 1.422 . S
C1466 N1465 1.359 . S
C1466 C1468 1.421 . S
C1467 C1468 1.422 . S
C1467 C1470 1.321 . S
C1467 H1494 0.931 . S
C1468 C1466 1.421 . S
C1468 C1467 1.422 . S
C1468 C1492 1.417 . S
C1469 H1446 0.931 . S
C1469 N1465 1.343 . S
C1469 C1470 1.390 . S
C1470 H1448 0.930 . S
C1470 C1467 1.321 . S
C1470 C1469 1.390 . S
O1471 Gd1439 2.386 . S
O1471 C1483 1.265 . S
O1472 Gd1438 2.353 . S
O1472 C1483 1.242 . S
O1473 Gd1438 2.468 . S
O1473 C1491 1.263 . S
O1474 Gd1438 2.427 . S
O1474 C1491 1.252 . S
O1475 Gd1439 2.307 . S
O1475 C1484 1.261 . S
O1476 Gd1438 2.388 . S
O1476 C1484 1.252 . S
O1477 Gd1438 2.386 . S
O1477 C1495 1.265 . S
O1478 Gd1439 2.353 . S
O1478 C1495 1.242 . S
O1479 Gd1439 2.468 . S
O1479 C1503 1.263 . S
O1480 Gd1439 2.427 . S
O1480 C1503 1.252 . S
O1481 Gd1438 2.307 . S
O1481 C1496 1.261 . S
O1482 Gd1439 2.388 . S
O1482 C1496 1.252 . S
C1483 O1471 1.265 . S
C1483 O1472 1.242 . S
C1484 O1475 1.261 . S
C1484 O1476 1.252 . S
C1485 C1488 1.394 . S
C1485 C1490 1.370 . S
C1485 C1491 1.500 . S
C1486 C1489 1.383 . S
C1486 C1490 1.395 . S
C1487 C1488 1.396 . S
C1487 C1489 1.365 . S
C1487 H1504 0.929 . S
C1488 C1485 1.394 . S
C1488 C1487 1.396 . S
C1488 H1505 0.930 . S
C1489 C1486 1.383 . S
C1489 C1487 1.365 . S
C1489 H1506 0.931 . S
C1490 C1485 1.370 . S
C1490 C1486 1.395 . S
C1490 H1507 0.930 . S
C1491 Gd1438 2.805 . S
C1491 O1473 1.263 . S
C1491 O1474 1.252 . S
C1491 C1485 1.500 . S
C1492 H1454 0.930 . S
C1492 C1468 1.417 . S
C1492 C1493 1.329 . S
C1493 C1463 1.437 . S
C1493 H1464 0.929 . S
C1493 C1492 1.329 . S
H1494 C1467 0.931 . S
C1495 O1477 1.265 . S
C1495 O1478 1.242 . S
C1496 O1481 1.261 . S
C1496 O1482 1.252 . S
C1497 C1500 1.394 . S
C1497 C1502 1.370 . S
C1497 C1503 1.500 . S
C1498 C1501 1.383 . S
C1498 C1502 1.395 . S
C1499 C1500 1.396 . S
C1499 C1501 1.365 . S
C1499 H1508 0.929 . S
C1500 C1497 1.394 . S
C1500 C1499 1.396 . S
C1500 H1509 0.930 . S
C1501 C1498 1.383 . S
C1501 C1499 1.365 . S
C1501 H1510 0.931 . S
C1502 C1497 1.370 . S
C1502 C1498 1.395 . S
C1502 H1511 0.930 . S
C1503 Gd1439 2.805 . S
C1503 O1479 1.263 . S
C1503 O1480 1.252 . S
C1503 C1497 1.500 . S
H1504 C1487 0.929 . S
H1505 C1488 0.930 . S
H1506 C1489 0.931 . S
H1507 C1490 0.930 . S
H1508 C1499 0.929 . S
H1509 C1500 0.930 . S
H1510 C1501 0.931 . S
H1511 C1502 0.930 . S
C1512 C1514 1.422 . S
C1512 C1516 1.415 . S
C1512 N1518 1.369 . S
C1513 C1514 1.421 . S
C1513 C1515 1.417 . S
C1513 C1525 1.422 . S
C1514 C1512 1.422 . S
C1514 C1513 1.421 . S
C1514 N1524 1.359 . S
C1515 C1513 1.417 . S
C1515 C1517 1.329 . S
C1515 H1534 0.930 . S
C1516 C1512 1.415 . S
C1516 C1517 1.437 . S
C1516 C1520 1.413 . S
C1517 C1515 1.329 . S
C1517 C1516 1.437 . S
C1517 H1539 0.929 . S
N1518 C1512 1.369 . S
N1518 C1519 1.338 . S
N1518 Gd1523 2.622 . S
C1519 N1518 1.338 . S
C1519 C1521 1.378 . S
C1519 H1531 0.929 . S
C1520 C1516 1.413 . S
C1520 C1521 1.348 . S
C1520 H1536 0.931 . S
C1521 C1519 1.378 . S
C1521 C1520 1.348 . S
C1521 H1537 0.930 . S
Gd1522 N1542 2.622 . S
Gd1522 N1549 2.570 . S
Gd1522 O1556 2.353 . S
Gd1522 O1557 2.468 . S
Gd1522 O1558 2.427 . S
Gd1522 O1560 2.388 . S
Gd1522 O1561 2.386 . S
Gd1522 O1565 2.307 . S
Gd1522 C1575 2.805 . S
Gd1523 N1518 2.622 . S
Gd1523 N1524 2.570 . S
Gd1523 O1555 2.386 . S
Gd1523 O1559 2.307 . S
Gd1523 O1562 2.353 . S
Gd1523 O1563 2.468 . S
Gd1523 O1564 2.427 . S
Gd1523 O1566 2.388 . S
Gd1523 C1587 2.805 . S
N1524 C1514 1.359 . S
N1524 Gd1523 2.570 . S
N1524 C1526 1.343 . S
C1525 C1513 1.422 . S
C1525 C1527 1.321 . S
C1525 H1533 0.931 . S
C1526 N1524 1.343 . S
C1526 C1527 1.390 . S
C1526 H1528 0.931 . S
C1527 C1525 1.321 . S
C1527 C1526 1.390 . S
C1527 H1529 0.930 . S
H1528 C1526 0.931 . S
H1529 C1527 0.930 . S
H1530 C1553 0.931 . S
H1531 C1519 0.929 . S
H1532 C1554 0.930 . S
H1533 C1525 0.931 . S
H1534 C1515 0.930 . S
H1535 C1544 0.929 . S
H1536 C1520 0.931 . S
H1537 C1521 0.930 . S
H1538 C1576 0.930 . S
H1539 C1517 0.929 . S
H1540 C1545 0.931 . S
H1541 C1546 0.930 . S
N1542 Gd1522 2.622 . S
N1542 C1543 1.369 . S
N1542 C1544 1.338 . S
C1543 N1542 1.369 . S
C1543 C1547 1.415 . S
C1543 C1550 1.422 . S
C1544 H1535 0.929 . S
C1544 N1542 1.338 . S
C1544 C1546 1.378 . S
C1545 H1540 0.931 . S
C1545 C1546 1.348 . S
C1545 C1547 1.413 . S
C1546 H1541 0.930 . S
C1546 C1544 1.378 . S
C1546 C1545 1.348 . S
C1547 C1543 1.415 . S
C1547 C1545 1.413 . S
C1547 C1577 1.437 . S
H1548 C1577 0.929 . S
N1549 Gd1522 2.570 . S
N1549 C1550 1.359 . S
N1549 C1553 1.343 . S
C1550 C1543 1.422 . S
C1550 N1549 1.359 . S
C1550 C1552 1.421 . S
C1551 C1552 1.422 . S
C1551 C1554 1.321 . S
C1551 H1578 0.931 . S
C1552 C1550 1.421 . S
C1552 C1551 1.422 . S
C1552 C1576 1.417 . S
C1553 H1530 0.931 . S
C1553 N1549 1.343 . S
C1553 C1554 1.390 . S
C1554 H1532 0.930 . S
C1554 C1551 1.321 . S
C1554 C1553 1.390 . S
O1555 Gd1523 2.386 . S
O1555 C1567 1.265 . S
O1556 Gd1522 2.353 . S
O1556 C1567 1.242 . S
O1557 Gd1522 2.468 . S
O1557 C1575 1.263 . S
O1558 Gd1522 2.427 . S
O1558 C1575 1.252 . S
O1559 Gd1523 2.307 . S
O1559 C1568 1.261 . S
O1560 Gd1522 2.388 . S
O1560 C1568 1.252 . S
O1561 Gd1522 2.386 . S
O1561 C1579 1.265 . S
O1562 Gd1523 2.353 . S
O1562 C1579 1.242 . S
O1563 Gd1523 2.468 . S
O1563 C1587 1.263 . S
O1564 Gd1523 2.427 . S
O1564 C1587 1.252 . S
O1565 Gd1522 2.307 . S
O1565 C1580 1.261 . S
O1566 Gd1523 2.388 . S
O1566 C1580 1.252 . S
C1567 O1555 1.265 . S
C1567 O1556 1.242 . S
C1568 O1559 1.261 . S
C1568 O1560 1.252 . S
C1569 C1572 1.394 . S
C1569 C1574 1.370 . S
C1569 C1575 1.500 . S
C1570 C1573 1.383 . S
C1570 C1574 1.395 . S
C1571 C1572 1.396 . S
C1571 C1573 1.365 . S
C1571 H1588 0.929 . S
C1572 C1569 1.394 . S
C1572 C1571 1.396 . S
C1572 H1589 0.930 . S
C1573 C1570 1.383 . S
C1573 C1571 1.365 . S
C1573 H1590 0.931 . S
C1574 C1569 1.370 . S
C1574 C1570 1.395 . S
C1574 H1591 0.930 . S
C1575 Gd1522 2.805 . S
C1575 O1557 1.263 . S
C1575 O1558 1.252 . S
C1575 C1569 1.500 . S
C1576 H1538 0.930 . S
C1576 C1552 1.417 . S
C1576 C1577 1.329 . S
C1577 C1547 1.437 . S
C1577 H1548 0.929 . S
C1577 C1576 1.329 . S
H1578 C1551 0.931 . S
C1579 O1561 1.265 . S
C1579 O1562 1.242 . S
C1580 O1565 1.261 . S
C1580 O1566 1.252 . S
C1581 C1584 1.394 . S
C1581 C1586 1.370 . S
C1581 C1587 1.500 . S
C1582 C1585 1.383 . S
C1582 C1586 1.395 . S
C1583 C1584 1.396 . S
C1583 C1585 1.365 . S
C1583 H1592 0.929 . S
C1584 C1581 1.394 . S
C1584 C1583 1.396 . S
C1584 H1593 0.930 . S
C1585 C1582 1.383 . S
C1585 C1583 1.365 . S
C1585 H1594 0.931 . S
C1586 C1581 1.370 . S
C1586 C1582 1.395 . S
C1586 H1595 0.930 . S
C1587 Gd1523 2.805 . S
C1587 O1563 1.263 . S
C1587 O1564 1.252 . S
C1587 C1581 1.500 . S
H1588 C1571 0.929 . S
H1589 C1572 0.930 . S
H1590 C1573 0.931 . S
H1591 C1574 0.930 . S
H1592 C1583 0.929 . S
H1593 C1584 0.930 . S
H1594 C1585 0.931 . S
H1595 C1586 0.930 . S
C1596 C1598 1.422 1_556 S
C1596 C1600 1.415 . S
C1596 N1602 1.369 . S
C1597 C1598 1.421 . S
C1597 C1599 1.417 . S
C1597 C1609 1.422 . S
C1598 C1596 1.422 1_554 S
C1598 C1597 1.421 . S
C1598 N1608 1.359 . S
C1599 C1597 1.417 . S
C1599 C1601 1.329 1_554 S
C1599 H1618 0.930 . S
C1600 C1596 1.415 . S
C1600 C1601 1.437 . S
C1600 C1604 1.413 . S
C1601 C1599 1.329 1_556 S
C1601 C1600 1.437 . S
C1601 H1623 0.929 . S
N1602 C1596 1.369 . S
N1602 C1603 1.338 . S
N1602 Gd1607 2.622 1_556 S
C1603 N1602 1.338 . S
C1603 C1605 1.378 . S
C1603 H1615 0.929 . S
C1604 C1600 1.413 . S
C1604 C1605 1.348 . S
C1604 H1620 0.931 . S
C1605 C1603 1.378 . S
C1605 C1604 1.348 . S
C1605 H1621 0.930 . S
Gd1606 N1626 2.622 . S
Gd1606 N1633 2.570 . S
Gd1606 O1640 2.353 1_655 S
Gd1606 O1641 2.468 . S
Gd1606 O1642 2.427 . S
Gd1606 O1644 2.388 1_655 S
Gd1606 O1645 2.386 1_655 S
Gd1606 O1649 2.308 1_655 S
Gd1606 C1659 2.805 . S
Gd1607 N1602 2.622 1_554 S
Gd1607 N1608 2.570 . S
Gd1607 O1639 2.386 . S
Gd1607 O1643 2.307 . S
Gd1607 O1646 2.353 . S
Gd1607 O1647 2.468 . S
Gd1607 O1648 2.427 1_554 S
Gd1607 O1650 2.388 1_554 S
Gd1607 C1671 2.805 . S
N1608 C1598 1.359 . S
N1608 Gd1607 2.570 . S
N1608 C1610 1.343 . S
C1609 C1597 1.422 . S
C1609 C1611 1.321 . S
C1609 H1617 0.931 . S
C1610 N1608 1.343 . S
C1610 C1611 1.390 . S
C1610 H1612 0.931 . S
C1611 C1609 1.321 . S
C1611 C1610 1.390 . S
C1611 H1613 0.930 . S
H1612 C1610 0.931 . S
H1613 C1611 0.930 . S
H1614 C1637 0.931 1_556 S
H1615 C1603 0.929 . S
H1616 C1638 0.930 . S
H1617 C1609 0.931 . S
H1618 C1599 0.930 . S
H1619 C1628 0.929 1_455 S
H1620 C1604 0.931 . S
H1621 C1605 0.930 . S
H1622 C1660 0.930 . S
H1623 C1601 0.929 . S
H1624 C1629 0.931 . S
H1625 C1630 0.930 . S
N1626 Gd1606 2.622 . S
N1626 C1627 1.369 . S
N1626 C1628 1.338 . S
C1627 N1626 1.369 . S
C1627 C1631 1.415 . S
C1627 C1634 1.422 . S
C1628 H1619 0.929 1_655 S
C1628 N1626 1.338 . S
C1628 C1630 1.378 . S
C1629 H1624 0.931 . S
C1629 C1630 1.348 . S
C1629 C1631 1.413 . S
C1630 H1625 0.930 . S
C1630 C1628 1.378 . S
C1630 C1629 1.348 . S
C1631 C1627 1.415 . S
C1631 C1629 1.413 . S
C1631 C1661 1.437 . S
H1632 C1661 0.929 . S
N1633 Gd1606 2.570 . S
N1633 C1634 1.359 . S
N1633 C1637 1.343 . S
C1634 C1627 1.422 . S
C1634 N1633 1.359 . S
C1634 C1636 1.421 . S
C1635 C1636 1.422 . S
C1635 C1638 1.321 1_554 S
C1635 H1662 0.931 . S
C1636 C1634 1.421 . S
C1636 C1635 1.422 . S
C1636 C1660 1.417 . S
C1637 H1614 0.931 1_554 S
C1637 N1633 1.343 . S
C1637 C1638 1.390 1_554 S
C1638 H1616 0.930 . S
C1638 C1635 1.321 1_556 S
C1638 C1637 1.390 1_556 S
O1639 Gd1607 2.386 . S
O1639 C1651 1.265 . S
O1640 Gd1606 2.353 1_455 S
O1640 C1651 1.242 . S
O1641 Gd1606 2.468 . S
O1641 C1659 1.263 . S
O1642 Gd1606 2.427 . S
O1642 C1659 1.252 . S
O1643 Gd1607 2.307 . S
O1643 C1652 1.261 . S
O1644 Gd1606 2.388 1_455 S
O1644 C1652 1.252 . S
O1645 Gd1606 2.386 1_455 S
O1645 C1663 1.265 . S
O1646 Gd1607 2.353 . S
O1646 C1663 1.242 . S
O1647 Gd1607 2.468 . S
O1647 C1671 1.263 . S
O1648 Gd1607 2.427 1_556 S
O1648 C1671 1.252 1_556 S
O1649 Gd1606 2.308 1_455 S
O1649 C1664 1.259 1_554 S
O1650 Gd1607 2.388 1_556 S
O1650 C1664 1.252 . S
C1651 O1639 1.265 . S
C1651 O1640 1.242 . S
C1652 O1643 1.261 . S
C1652 O1644 1.252 . S
C1653 C1656 1.394 . S
C1653 C1658 1.370 . S
C1653 C1659 1.500 . S
C1654 C1657 1.383 . S
C1654 C1658 1.395 . S
C1655 C1656 1.396 . S
C1655 C1657 1.365 . S
C1655 H1672 0.929 . S
C1656 C1653 1.394 . S
C1656 C1655 1.396 . S
C1656 H1673 0.930 . S
C1657 C1654 1.383 . S
C1657 C1655 1.365 . S
C1657 H1674 0.931 . S
C1658 C1653 1.370 . S
C1658 C1654 1.395 . S
C1658 H1675 0.930 . S
C1659 Gd1606 2.805 . S
C1659 O1641 1.263 . S
C1659 O1642 1.252 . S
C1659 C1653 1.500 . S
C1660 H1622 0.930 . S
C1660 C1636 1.417 . S
C1660 C1661 1.329 . S
C1661 C1631 1.437 . S
C1661 H1632 0.929 . S
C1661 C1660 1.329 . S
H1662 C1635 0.931 . S
C1663 O1645 1.265 . S
C1663 O1646 1.242 . S
C1664 O1649 1.259 1_556 S
C1664 O1650 1.252 . S
C1665 C1668 1.394 . S
C1665 C1670 1.370 1_556 S
C1665 C1671 1.500 1_556 S
C1666 C1669 1.383 1_554 S
C1666 C1670 1.395 . S
C1667 C1668 1.396 . S
C1667 C1669 1.365 . S
C1667 H1676 0.929 . S
C1668 C1665 1.394 . S
C1668 C1667 1.396 . S
C1668 H1677 0.930 . S
C1669 C1666 1.383 1_556 S
C1669 C1667 1.365 . S
C1669 H1678 0.931 . S
C1670 C1665 1.370 1_554 S
C1670 C1666 1.395 . S
C1670 H1679 0.930 . S
C1671 Gd1607 2.805 . S
C1671 O1647 1.263 . S
C1671 O1648 1.252 1_554 S
C1671 C1665 1.500 1_554 S
H1672 C1655 0.929 . S
H1673 C1656 0.930 . S
H1674 C1657 0.931 . S
H1675 C1658 0.930 . S
H1676 C1667 0.929 . S
H1677 C1668 0.930 . S
H1678 C1669 0.931 . S
H1679 C1670 0.930 . S
H1680 C1688 0.929 . S
H1681 C1690 0.930 . S
H1682 C1692 0.930 . S
H1683 C1695 0.929 . S
H1684 C1698 0.930 1_554 S
H1685 C1700 0.960 . S
H1686 C1700 0.960 1_455 S
H1687 C1700 0.960 . S
C1688 H1680 0.929 . S
C1688 C1689 1.377 1_455 S
C1688 C1690 1.384 . S
C1689 C1688 1.377 1_655 S
C1689 C1695 1.390 . S
C1690 H1681 0.930 . S
C1690 C1688 1.384 . S
C1690 C1691 1.372 . S
C1691 C1690 1.372 . S
C1691 C1692 1.400 1_455 S
C1691 C1696 1.490 . S
C1692 H1682 0.930 . S
C1692 C1691 1.400 1_655 S
C1692 C1695 1.386 . S
H1693 C1709 0.930 1_655 S
H1694 C1710 0.931 1_655 S
C1695 H1683 0.929 . S
C1695 C1689 1.390 . S
C1695 C1692 1.386 . S
C1696 C1691 1.490 . S
C1696 C1698 1.395 . S
C1696 C1699 1.403 . S
H1697 C1703 0.930 . S
C1698 H1684 0.930 1_556 S
C1698 C1696 1.395 . S
C1698 C1701 1.403 1_556 S
C1699 C1696 1.403 . S
C1699 C1700 1.524 1_455 S
C1699 C1703 1.400 . S
C1700 H1685 0.960 . S
C1700 H1686 0.960 1_655 S
C1700 H1687 0.960 . S
C1700 C1699 1.524 1_655 S
C1701 C1698 1.403 1_554 S
C1701 C1702 1.392 1_554 S
C1701 C1705 1.495 . S
C1702 C1701 1.392 1_556 S
C1702 C1703 1.385 . S
C1702 C1704 1.478 1_556 S
C1703 H1697 0.930 . S
C1703 C1699 1.400 . S
C1703 C1702 1.385 . S
C1704 C1702 1.478 1_554 S
C1704 C1706 1.381 . S
C1704 C1710 1.383 . S
C1705 C1701 1.495 . S
C1705 H1711 0.959 . S
C1705 H1712 0.961 . S
C1705 H1713 0.960 . S
C1706 C1704 1.381 . S
C1706 C1707 1.394 . S
C1706 H1714 0.930 . S
C1707 C1706 1.394 . S
C1707 C1708 1.383 . S
C1707 H1715 0.929 . S
C1708 C1707 1.383 . S
C1708 C1709 1.377 . S
C1709 H1693 0.930 1_455 S
C1709 C1708 1.377 . S
C1709 C1710 1.379 . S
C1710 H1694 0.931 1_455 S
C1710 C1704 1.383 . S
C1710 C1709 1.379 . S
H1711 C1705 0.959 . S
H1712 C1705 0.961 . S
H1713 C1705 0.960 . S
H1714 C1706 0.930 . S
H1715 C1707 0.929 . S
H1716 C1724 0.929 . S
H1717 C1726 0.930 . S
H1718 C1728 0.930 . S
H1719 C1731 0.929 . S
H1720 C1734 0.930 . S
H1721 C1736 0.960 . S
H1722 C1736 0.960 . S
H1723 C1736 0.960 . S
C1724 H1716 0.929 . S
C1724 C1725 1.377 . S
C1724 C1726 1.384 . S
C1725 C1724 1.377 . S
C1725 C1731 1.390 . S
C1726 H1717 0.930 . S
C1726 C1724 1.384 . S
C1726 C1727 1.372 . S
C1727 C1726 1.372 . S
C1727 C1728 1.400 . S
C1727 C1732 1.490 . S
C1728 H1718 0.930 . S
C1728 C1727 1.400 . S
C1728 C1731 1.386 . S
H1729 C1745 0.930 . S
H1730 C1746 0.931 . S
C1731 H1719 0.929 . S
C1731 C1725 1.390 . S
C1731 C1728 1.386 . S
C1732 C1727 1.490 . S
C1732 C1734 1.395 . S
C1732 C1735 1.403 . S
H1733 C1739 0.930 . S
C1734 H1720 0.930 . S
C1734 C1732 1.395 . S
C1734 C1737 1.403 . S
C1735 C1732 1.403 . S
C1735 C1736 1.524 . S
C1735 C1739 1.400 . S
C1736 H1721 0.960 . S
C1736 H1722 0.960 . S
C1736 H1723 0.960 . S
C1736 C1735 1.524 . S
C1737 C1734 1.403 . S
C1737 C1738 1.392 . S
C1737 C1741 1.495 . S
C1738 C1737 1.392 . S
C1738 C1739 1.385 . S
C1738 C1740 1.478 . S
C1739 H1733 0.930 . S
C1739 C1735 1.400 . S
C1739 C1738 1.385 . S
C1740 C1738 1.478 . S
C1740 C1742 1.381 . S
C1740 C1746 1.383 . S
C1741 C1737 1.495 . S
C1741 H1747 0.959 . S
C1741 H1748 0.961 . S
C1741 H1749 0.960 . S
C1742 C1740 1.381 . S
C1742 C1743 1.394 . S
C1742 H1750 0.930 . S
C1743 C1742 1.394 . S
C1743 C1744 1.383 . S
C1743 H1751 0.929 . S
C1744 C1743 1.383 . S
C1744 C1745 1.377 . S
C1745 H1729 0.930 . S
C1745 C1744 1.377 . S
C1745 C1746 1.379 . S
C1746 H1730 0.931 . S
C1746 C1740 1.383 . S
C1746 C1745 1.379 . S
H1747 C1741 0.959 . S
H1748 C1741 0.961 . S
H1749 C1741 0.960 . S
H1750 C1742 0.930 . S
H1751 C1743 0.929 . S
H1752 C1760 0.929 . S
H1753 C1762 0.930 . S
H1754 C1764 0.930 . S
H1755 C1767 0.929 . S
H1756 C1770 0.930 . S
H1757 C1772 0.960 . S
H1758 C1772 0.960 . S
H1759 C1772 0.960 . S
C1760 H1752 0.929 . S
C1760 C1761 1.377 . S
C1760 C1762 1.384 . S
C1761 C1760 1.377 . S
C1761 C1767 1.390 . S
C1762 H1753 0.930 . S
C1762 C1760 1.384 . S
C1762 C1763 1.372 . S
C1763 C1762 1.372 . S
C1763 C1764 1.400 . S
C1763 C1768 1.490 . S
C1764 H1754 0.930 . S
C1764 C1763 1.400 . S
C1764 C1767 1.386 . S
H1765 C1781 0.930 . S
H1766 C1782 0.931 . S
C1767 H1755 0.929 . S
C1767 C1761 1.390 . S
C1767 C1764 1.386 . S
C1768 C1763 1.490 . S
C1768 C1770 1.395 . S
C1768 C1771 1.403 . S
H1769 C1775 0.930 . S
C1770 H1756 0.930 . S
C1770 C1768 1.395 . S
C1770 C1773 1.403 . S
C1771 C1768 1.403 . S
C1771 C1772 1.524 . S
C1771 C1775 1.400 . S
C1772 H1757 0.960 . S
C1772 H1758 0.960 . S
C1772 H1759 0.960 . S
C1772 C1771 1.524 . S
C1773 C1770 1.403 . S
C1773 C1774 1.392 . S
C1773 C1777 1.495 . S
C1774 C1773 1.392 . S
C1774 C1775 1.385 . S
C1774 C1776 1.478 . S
C1775 H1769 0.930 . S
C1775 C1771 1.400 . S
C1775 C1774 1.385 . S
C1776 C1774 1.478 . S
C1776 C1778 1.381 . S
C1776 C1782 1.383 . S
C1777 C1773 1.495 . S
C1777 H1783 0.959 . S
C1777 H1784 0.961 . S
C1777 H1785 0.960 . S
C1778 C1776 1.381 . S
C1778 C1779 1.394 . S
C1778 H1786 0.930 . S
C1779 C1778 1.394 . S
C1779 C1780 1.383 . S
C1779 H1787 0.929 . S
C1780 C1779 1.383 . S
C1780 C1781 1.377 . S
C1781 H1765 0.930 . S
C1781 C1780 1.377 . S
C1781 C1782 1.379 . S
C1782 H1766 0.931 . S
C1782 C1776 1.383 . S
C1782 C1781 1.379 . S
H1783 C1777 0.959 . S
H1784 C1777 0.961 . S
H1785 C1777 0.960 . S
H1786 C1778 0.930 . S
H1787 C1779 0.929 . S
H1788 C1796 0.929 . S
H1789 C1798 0.930 . S
H1790 C1800 0.930 . S
H1791 C1803 0.929 . S
H1792 C1806 0.930 . S
H1793 C1808 0.960 . S
H1794 C1808 0.960 . S
H1795 C1808 0.960 . S
C1796 H1788 0.929 . S
C1796 C1797 1.377 . S
C1796 C1798 1.384 . S
C1797 C1796 1.377 . S
C1797 C1803 1.390 . S
C1798 H1789 0.930 . S
C1798 C1796 1.384 . S
C1798 C1799 1.372 . S
C1799 C1798 1.372 . S
C1799 C1800 1.400 . S
C1799 C1804 1.490 . S
C1800 H1790 0.930 . S
C1800 C1799 1.400 . S
C1800 C1803 1.386 . S
H1801 C1817 0.930 . S
H1802 C1818 0.931 . S
C1803 H1791 0.929 . S
C1803 C1797 1.390 . S
C1803 C1800 1.386 . S
C1804 C1799 1.490 . S
C1804 C1806 1.395 . S
C1804 C1807 1.403 . S
H1805 C1811 0.930 . S
C1806 H1792 0.930 . S
C1806 C1804 1.395 . S
C1806 C1809 1.403 . S
C1807 C1804 1.403 . S
C1807 C1808 1.524 . S
C1807 C1811 1.400 . S
C1808 H1793 0.960 . S
C1808 H1794 0.960 . S
C1808 H1795 0.960 . S
C1808 C1807 1.524 . S
C1809 C1806 1.403 . S
C1809 C1810 1.392 . S
C1809 C1813 1.495 . S
C1810 C1809 1.392 . S
C1810 C1811 1.385 . S
C1810 C1812 1.478 . S
C1811 H1805 0.930 . S
C1811 C1807 1.400 . S
C1811 C1810 1.385 . S
C1812 C1810 1.478 . S
C1812 C1814 1.381 . S
C1812 C1818 1.383 . S
C1813 C1809 1.495 . S
C1813 H1819 0.959 . S
C1813 H1820 0.961 . S
C1813 H1821 0.960 . S
C1814 C1812 1.381 . S
C1814 C1815 1.394 . S
C1814 H1822 0.930 . S
C1815 C1814 1.394 . S
C1815 C1816 1.383 . S
C1815 H1823 0.929 . S
C1816 C1815 1.383 . S
C1816 C1817 1.377 . S
C1817 H1801 0.930 . S
C1817 C1816 1.377 . S
C1817 C1818 1.379 . S
C1818 H1802 0.931 . S
C1818 C1812 1.383 . S
C1818 C1817 1.379 . S
H1819 C1813 0.959 . S
H1820 C1813 0.961 . S
H1821 C1813 0.960 . S
H1822 C1814 0.930 . S
H1823 C1815 0.929 . S
H1824 C1832 0.929 1_655 S
H1825 C1834 0.930 1_655 S
H1826 C1836 0.930 . S
H1827 C1839 0.929 . S
H1828 C1842 0.930 1_655 S
H1829 C1844 0.960 . S
H1830 C1844 0.960 . S
H1831 C1844 0.960 . S
C1832 H1824 0.929 1_455 S
C1832 C1833 1.377 . S
C1832 C1834 1.384 . S
C1833 C1832 1.377 . S
C1833 C1839 1.390 . S
C1834 H1825 0.930 1_455 S
C1834 C1832 1.384 . S
C1834 C1835 1.372 . S
C1835 C1834 1.372 . S
C1835 C1836 1.400 . S
C1835 C1840 1.490 . S
C1836 H1826 0.930 . S
C1836 C1835 1.400 . S
C1836 C1839 1.386 . S
H1837 C1853 0.930 . S
H1838 C1854 0.931 . S
C1839 H1827 0.929 . S
C1839 C1833 1.390 . S
C1839 C1836 1.386 . S
C1840 C1835 1.490 . S
C1840 C1842 1.395 . S
C1840 C1843 1.403 . S
H1841 C1847 0.930 . S
C1842 H1828 0.930 1_455 S
C1842 C1840 1.395 . S
C1842 C1845 1.403 . S
C1843 C1840 1.403 . S
C1843 C1844 1.524 . S
C1843 C1847 1.400 . S
C1844 H1829 0.960 . S
C1844 H1830 0.960 . S
C1844 H1831 0.960 . S
C1844 C1843 1.524 . S
C1845 C1842 1.403 . S
C1845 C1846 1.392 . S
C1845 C1849 1.495 1_455 S
C1846 C1845 1.392 . S
C1846 C1847 1.385 . S
C1846 C1848 1.478 . S
C1847 H1841 0.930 . S
C1847 C1843 1.400 . S
C1847 C1846 1.385 . S
C1848 C1846 1.478 . S
C1848 C1850 1.381 . S
C1848 C1854 1.383 . S
C1849 C1845 1.495 1_655 S
C1849 H1855 0.959 . S
C1849 H1856 0.961 . S
C1849 H1857 0.960 . S
C1850 C1848 1.381 . S
C1850 C1851 1.394 . S
C1850 H1858 0.930 1_455 S
C1851 C1850 1.394 . S
C1851 C1852 1.383 . S
C1851 H1859 0.916 1_455 S
C1852 C1851 1.383 . S
C1852 C1853 1.377 . S
C1853 H1837 0.930 . S
C1853 C1852 1.377 . S
C1853 C1854 1.379 . S
C1854 H1838 0.931 . S
C1854 C1848 1.383 . S
C1854 C1853 1.379 . S
H1855 C1849 0.959 . S
H1856 C1849 0.961 . S
H1857 C1849 0.960 . S
H1858 C1850 0.930 1_655 S
H1859 C1851 0.916 1_655 S
H1860 C1868 0.929 . S
H1861 C1870 0.930 . S
H1862 C1872 0.930 . S
H1863 C1875 0.929 . S
H1864 C1878 0.930 . S
H1865 C1880 0.960 . S
H1866 C1880 0.960 . S
H1867 C1880 0.960 . S
C1868 H1860 0.929 . S
C1868 C1869 1.377 . S
C1868 C1870 1.384 . S
C1869 C1868 1.377 . S
C1869 C1875 1.390 . S
C1870 H1861 0.930 . S
C1870 C1868 1.384 . S
C1870 C1871 1.372 . S
C1871 C1870 1.372 . S
C1871 C1872 1.400 . S
C1871 C1876 1.490 . S
C1872 H1862 0.930 . S
C1872 C1871 1.400 . S
C1872 C1875 1.386 . S
H1873 C1889 0.930 . S
H1874 C1890 0.931 . S
C1875 H1863 0.929 . S
C1875 C1869 1.390 . S
C1875 C1872 1.386 . S
C1876 C1871 1.490 . S
C1876 C1878 1.395 . S
C1876 C1879 1.403 . S
H1877 C1883 0.930 . S
C1878 H1864 0.930 . S
C1878 C1876 1.395 . S
C1878 C1881 1.403 . S
C1879 C1876 1.403 . S
C1879 C1880 1.524 . S
C1879 C1883 1.400 . S
C1880 H1865 0.960 . S
C1880 H1866 0.960 . S
C1880 H1867 0.960 . S
C1880 C1879 1.524 . S
C1881 C1878 1.403 . S
C1881 C1882 1.392 . S
C1881 C1885 1.495 . S
C1882 C1881 1.392 . S
C1882 C1883 1.385 . S
C1882 C1884 1.478 . S
C1883 H1877 0.930 . S
C1883 C1879 1.400 . S
C1883 C1882 1.385 . S
C1884 C1882 1.478 . S
C1884 C1886 1.381 . S
C1884 C1890 1.383 . S
C1885 C1881 1.495 . S
C1885 H1891 0.959 . S
C1885 H1892 0.961 . S
C1885 H1893 0.960 . S
C1886 C1884 1.381 . S
C1886 C1887 1.394 . S
C1886 H1894 0.930 . S
C1887 C1886 1.394 . S
C1887 C1888 1.383 . S
C1887 H1895 0.929 . S
C1888 C1887 1.383 . S
C1888 C1889 1.377 . S
C1889 H1873 0.930 . S
C1889 C1888 1.377 . S
C1889 C1890 1.379 . S
C1890 H1874 0.931 . S
C1890 C1884 1.383 . S
C1890 C1889 1.379 . S
H1891 C1885 0.959 . S
H1892 C1885 0.961 . S
H1893 C1885 0.960 . S
H1894 C1886 0.930 . S
H1895 C1887 0.929 . S
H1896 C1904 0.929 . S
H1897 C1906 0.930 . S
H1898 C1908 0.930 . S
H1899 C1911 0.929 . S
H1900 C1914 0.930 . S
H1901 C1916 0.960 . S
H1902 C1916 0.960 . S
H1903 C1916 0.960 . S
C1904 H1896 0.929 . S
C1904 C1905 1.377 . S
C1904 C1906 1.384 . S
C1905 C1904 1.377 . S
C1905 C1911 1.390 . S
C1906 H1897 0.930 . S
C1906 C1904 1.384 . S
C1906 C1907 1.372 . S
C1907 C1906 1.372 . S
C1907 C1908 1.400 . S
C1907 C1912 1.490 . S
C1908 H1898 0.930 . S
C1908 C1907 1.400 . S
C1908 C1911 1.386 . S
H1909 C1925 0.930 . S
H1910 C1926 0.931 . S
C1911 H1899 0.929 . S
C1911 C1905 1.390 . S
C1911 C1908 1.386 . S
C1912 C1907 1.490 . S
C1912 C1914 1.395 . S
C1912 C1915 1.403 . S
H1913 C1919 0.930 . S
C1914 H1900 0.930 . S
C1914 C1912 1.395 . S
C1914 C1917 1.403 . S
C1915 C1912 1.403 . S
C1915 C1916 1.524 . S
C1915 C1919 1.400 . S
C1916 H1901 0.960 . S
C1916 H1902 0.960 . S
C1916 H1903 0.960 . S
C1916 C1915 1.524 . S
C1917 C1914 1.403 . S
C1917 C1918 1.392 . S
C1917 C1921 1.495 . S
C1918 C1917 1.392 . S
C1918 C1919 1.385 . S
C1918 C1920 1.478 . S
C1919 H1913 0.930 . S
C1919 C1915 1.400 . S
C1919 C1918 1.385 . S
C1920 C1918 1.478 . S
C1920 C1922 1.381 . S
C1920 C1926 1.383 . S
C1921 C1917 1.495 . S
C1921 H1927 0.959 . S
C1921 H1928 0.961 . S
C1921 H1929 0.960 . S
C1922 C1920 1.381 . S
C1922 C1923 1.394 . S
C1922 H1930 0.930 . S
C1923 C1922 1.394 . S
C1923 C1924 1.383 . S
C1923 H1931 0.929 . S
C1924 C1923 1.383 . S
C1924 C1925 1.377 . S
C1925 H1909 0.930 . S
C1925 C1924 1.377 . S
C1925 C1926 1.379 . S
C1926 H1910 0.931 . S
C1926 C1920 1.383 . S
C1926 C1925 1.379 . S
H1927 C1921 0.959 . S
H1928 C1921 0.961 . S
H1929 C1921 0.960 . S
H1930 C1922 0.930 . S
H1931 C1923 0.929 . S
H1932 C1940 0.929 . S
H1933 C1942 0.930 . S
H1934 C1944 0.930 . S
H1935 C1947 0.929 . S
H1936 C1950 0.930 . S
H1937 C1952 0.960 . S
H1938 C1952 0.960 . S
H1939 C1952 0.960 . S
C1940 H1932 0.929 . S
C1940 C1941 1.377 . S
C1940 C1942 1.384 . S
C1941 C1940 1.377 . S
C1941 C1947 1.390 . S
C1942 H1933 0.930 . S
C1942 C1940 1.384 . S
C1942 C1943 1.372 . S
C1943 C1942 1.372 . S
C1943 C1944 1.400 . S
C1943 C1948 1.490 . S
C1944 H1934 0.930 . S
C1944 C1943 1.400 . S
C1944 C1947 1.386 . S
H1945 C1961 0.930 . S
H1946 C1962 0.931 . S
C1947 H1935 0.929 . S
C1947 C1941 1.390 . S
C1947 C1944 1.386 . S
C1948 C1943 1.490 . S
C1948 C1950 1.395 . S
C1948 C1951 1.403 . S
H1949 C1955 0.930 . S
C1950 H1936 0.930 . S
C1950 C1948 1.395 . S
C1950 C1953 1.403 . S
C1951 C1948 1.403 . S
C1951 C1952 1.524 . S
C1951 C1955 1.400 . S
C1952 H1937 0.960 . S
C1952 H1938 0.960 . S
C1952 H1939 0.960 . S
C1952 C1951 1.524 . S
C1953 C1950 1.403 . S
C1953 C1954 1.392 . S
C1953 C1957 1.495 . S
C1954 C1953 1.392 . S
C1954 C1955 1.385 . S
C1954 C1956 1.478 . S
C1955 H1949 0.930 . S
C1955 C1951 1.400 . S
C1955 C1954 1.385 . S
C1956 C1954 1.478 . S
C1956 C1958 1.381 . S
C1956 C1962 1.383 . S
C1957 C1953 1.495 . S
C1957 H1963 0.959 . S
C1957 H1964 0.961 . S
C1957 H1965 0.960 . S
C1958 C1956 1.381 . S
C1958 C1959 1.394 . S
C1958 H1966 0.930 . S
C1959 C1958 1.394 . S
C1959 C1960 1.383 . S
C1959 H1967 0.929 . S
C1960 C1959 1.383 . S
C1960 C1961 1.377 . S
C1961 H1945 0.930 . S
C1961 C1960 1.377 . S
C1961 C1962 1.379 . S
C1962 H1946 0.931 . S
C1962 C1956 1.383 . S
C1962 C1961 1.379 . S
H1963 C1957 0.959 . S
H1964 C1957 0.961 . S
H1965 C1957 0.960 . S
H1966 C1958 0.930 . S
H1967 C1959 0.929 . S
H1968 C1976 0.929 . S
H1969 C1978 0.930 . S
H1970 C1980 0.930 . S
H1971 C1983 0.929 . S
H1972 C1986 0.930 1_565 S
H1973 C1988 0.960 . S
H1974 C1988 0.960 . S
H1975 C1988 0.960 . S
C1976 H1968 0.929 . S
C1976 C1977 1.377 . S
C1976 C1978 1.384 . S
C1977 C1976 1.377 . S
C1977 C1983 1.390 . S
C1978 H1969 0.930 . S
C1978 C1976 1.384 . S
C1978 C1979 1.372 . S
C1979 C1978 1.372 . S
C1979 C1980 1.400 . S
C1979 C1984 1.490 . S
C1980 H1970 0.930 . S
C1980 C1979 1.400 . S
C1980 C1983 1.386 . S
H1981 C1997 0.930 . S
H1982 C1998 0.931 . S
C1983 H1971 0.929 . S
C1983 C1977 1.390 . S
C1983 C1980 1.386 . S
C1984 C1979 1.490 . S
C1984 C1986 1.395 . S
C1984 C1987 1.403 . S
H1985 C1991 0.930 . S
C1986 H1972 0.930 1_545 S
C1986 C1984 1.395 . S
C1986 C1989 1.403 . S
C1987 C1984 1.403 . S
C1987 C1988 1.524 . S
C1987 C1991 1.400 . S
C1988 H1973 0.960 . S
C1988 H1974 0.960 . S
C1988 H1975 0.960 . S
C1988 C1987 1.524 . S
C1989 C1986 1.403 . S
C1989 C1990 1.392 . S
C1989 C1993 1.495 1_545 S
C1990 C1989 1.392 . S
C1990 C1991 1.385 . S
C1990 C1992 1.478 . S
C1991 H1985 0.930 . S
C1991 C1987 1.400 . S
C1991 C1990 1.385 . S
C1992 C1990 1.478 . S
C1992 C1994 1.381 1_655 S
C1992 C1998 1.383 . S
C1993 C1989 1.495 1_565 S
C1993 H1999 0.959 . S
C1993 H2000 0.961 . S
C1993 H2001 0.960 1_655 S
C1994 C1992 1.381 1_455 S
C1994 C1995 1.394 . S
C1994 H2002 0.930 . S
C1995 C1994 1.394 . S
C1995 C1996 1.383 . S
C1995 H2003 0.929 . S
C1996 C1995 1.383 . S
C1996 C1997 1.377 1_455 S
C1997 H1981 0.930 . S
C1997 C1996 1.377 1_655 S
C1997 C1998 1.379 . S
C1998 H1982 0.931 . S
C1998 C1992 1.383 . S
C1998 C1997 1.379 . S
H1999 C1993 0.959 . S
H2000 C1993 0.961 . S
H2001 C1993 0.960 1_455 S
H2002 C1994 0.930 . S
H2003 C1995 0.929 . S
H2004 C2012 0.929 . S
H2005 C2014 0.930 . S
H2006 C2016 0.930 . S
H2007 C2019 0.929 . S
H2008 C2022 0.930 . S
H2009 C2024 0.960 . S
H2010 C2024 0.960 . S
H2011 C2024 0.960 . S
C2012 H2004 0.929 . S
C2012 C2013 1.377 . S
C2012 C2014 1.384 . S
C2013 C2012 1.377 . S
C2013 C2019 1.390 . S
C2014 H2005 0.930 . S
C2014 C2012 1.384 . S
C2014 C2015 1.372 . S
C2015 C2014 1.372 . S
C2015 C2016 1.400 . S
C2015 C2020 1.490 . S
C2016 H2006 0.930 . S
C2016 C2015 1.400 . S
C2016 C2019 1.386 . S
H2017 C2033 0.930 . S
H2018 C2034 0.931 . S
C2019 H2007 0.929 . S
C2019 C2013 1.390 . S
C2019 C2016 1.386 . S
C2020 C2015 1.490 . S
C2020 C2022 1.395 . S
C2020 C2023 1.403 . S
H2021 C2027 0.930 . S
C2022 H2008 0.930 . S
C2022 C2020 1.395 . S
C2022 C2025 1.403 . S
C2023 C2020 1.403 . S
C2023 C2024 1.524 . S
C2023 C2027 1.400 . S
C2024 H2009 0.960 . S
C2024 H2010 0.960 . S
C2024 H2011 0.960 . S
C2024 C2023 1.524 . S
C2025 C2022 1.403 . S
C2025 C2026 1.392 . S
C2025 C2029 1.495 . S
C2026 C2025 1.392 . S
C2026 C2027 1.385 . S
C2026 C2028 1.478 . S
C2027 H2021 0.930 . S
C2027 C2023 1.400 . S
C2027 C2026 1.385 . S
C2028 C2026 1.478 . S
C2028 C2030 1.381 . S
C2028 C2034 1.383 . S
C2029 C2025 1.495 . S
C2029 H2035 0.959 . S
C2029 H2036 0.961 . S
C2029 H2037 0.960 . S
C2030 C2028 1.381 . S
C2030 C2031 1.394 . S
C2030 H2038 0.930 . S
C2031 C2030 1.394 . S
C2031 C2032 1.383 . S
C2031 H2039 0.929 . S
C2032 C2031 1.383 . S
C2032 C2033 1.377 . S
C2033 H2017 0.930 . S
C2033 C2032 1.377 . S
C2033 C2034 1.379 . S
C2034 H2018 0.931 . S
C2034 C2028 1.383 . S
C2034 C2033 1.379 . S
H2035 C2029 0.959 . S
H2036 C2029 0.961 . S
H2037 C2029 0.960 . S
H2038 C2030 0.930 . S
H2039 C2031 0.929 . S
H2040 C2048 0.929 . S
H2041 C2050 0.930 . S
H2042 C2052 0.930 . S
H2043 C2055 0.929 . S
H2044 C2058 0.930 . S
H2045 C2060 0.960 . S
H2046 C2060 0.960 . S
H2047 C2060 0.960 . S
C2048 H2040 0.929 . S
C2048 C2049 1.377 . S
C2048 C2050 1.384 . S
C2049 C2048 1.377 . S
C2049 C2055 1.390 . S
C2050 H2041 0.930 . S
C2050 C2048 1.384 . S
C2050 C2051 1.372 . S
C2051 C2050 1.372 . S
C2051 C2052 1.400 . S
C2051 C2056 1.490 . S
C2052 H2042 0.930 . S
C2052 C2051 1.400 . S
C2052 C2055 1.386 . S
H2053 C2069 0.930 . S
H2054 C2070 0.931 . S
C2055 H2043 0.929 . S
C2055 C2049 1.390 . S
C2055 C2052 1.386 . S
C2056 C2051 1.490 . S
C2056 C2058 1.395 . S
C2056 C2059 1.403 . S
H2057 C2063 0.930 . S
C2058 H2044 0.930 . S
C2058 C2056 1.395 . S
C2058 C2061 1.403 . S
C2059 C2056 1.403 . S
C2059 C2060 1.524 . S
C2059 C2063 1.400 . S
C2060 H2045 0.960 . S
C2060 H2046 0.960 . S
C2060 H2047 0.960 . S
C2060 C2059 1.524 . S
C2061 C2058 1.403 . S
C2061 C2062 1.392 . S
C2061 C2065 1.477 1_545 S
C2062 C2061 1.392 . S
C2062 C2063 1.385 . S
C2062 C2064 1.478 . S
C2063 H2057 0.930 . S
C2063 C2059 1.400 . S
C2063 C2062 1.385 . S
C2064 C2062 1.478 . S
C2064 C2066 1.381 . S
C2064 C2070 1.383 . S
C2065 C2061 1.477 1_565 S
C2065 H2071 0.977 . S
C2065 H2072 0.980 . S
C2065 H2073 0.942 1_565 S
C2066 C2064 1.381 . S
C2066 C2067 1.394 . S
C2066 H2074 0.930 . S
C2067 C2066 1.394 . S
C2067 C2068 1.383 . S
C2067 H2075 0.929 . S
C2068 C2067 1.383 . S
C2068 C2069 1.377 . S
C2069 H2053 0.930 . S
C2069 C2068 1.377 . S
C2069 C2070 1.379 . S
C2070 H2054 0.931 . S
C2070 C2064 1.383 . S
C2070 C2069 1.379 . S
H2071 C2065 0.977 . S
H2072 C2065 0.980 . S
H2073 C2065 0.942 1_545 S
H2074 C2066 0.930 . S
H2075 C2067 0.929 . S
H2076 C2084 0.929 . S
H2077 C2086 0.930 . S
H2078 C2088 0.930 . S
H2079 C2091 0.929 . S
H2080 C2094 0.930 . S
H2081 C2096 0.960 . S
H2082 C2096 0.960 . S
H2083 C2096 0.960 . S
C2084 H2076 0.929 . S
C2084 C2085 1.377 . S
C2084 C2086 1.384 . S
C2085 C2084 1.377 . S
C2085 C2091 1.390 . S
C2086 H2077 0.930 . S
C2086 C2084 1.384 . S
C2086 C2087 1.372 . S
C2087 C2086 1.372 . S
C2087 C2088 1.400 . S
C2087 C2092 1.490 . S
C2088 H2078 0.930 . S
C2088 C2087 1.400 . S
C2088 C2091 1.386 . S
H2089 C2105 0.930 . S
H2090 C2106 0.931 . S
C2091 H2079 0.929 . S
C2091 C2085 1.390 . S
C2091 C2088 1.386 . S
C2092 C2087 1.490 . S
C2092 C2094 1.395 . S
C2092 C2095 1.403 . S
H2093 C2099 0.930 . S
C2094 H2080 0.930 . S
C2094 C2092 1.395 . S
C2094 C2097 1.403 . S
C2095 C2092 1.403 . S
C2095 C2096 1.524 . S
C2095 C2099 1.400 . S
C2096 H2081 0.960 . S
C2096 H2082 0.960 . S
C2096 H2083 0.960 . S
C2096 C2095 1.524 . S
C2097 C2094 1.403 . S
C2097 C2098 1.392 . S
C2097 C2101 1.495 . S
C2098 C2097 1.392 . S
C2098 C2099 1.385 . S
C2098 C2100 1.478 . S
C2099 H2093 0.930 . S
C2099 C2095 1.400 . S
C2099 C2098 1.385 . S
C2100 C2098 1.478 . S
C2100 C2102 1.381 . S
C2100 C2106 1.383 . S
C2101 C2097 1.495 . S
C2101 H2107 0.959 . S
C2101 H2108 0.961 . S
C2101 H2109 0.960 . S
C2102 C2100 1.381 . S
C2102 C2103 1.394 . S
C2102 H2110 0.930 . S
C2103 C2102 1.394 . S
C2103 C2104 1.383 . S
C2103 H2111 0.929 . S
C2104 C2103 1.383 . S
C2104 C2105 1.377 . S
C2105 H2089 0.930 . S
C2105 C2104 1.377 . S
C2105 C2106 1.379 . S
C2106 H2090 0.931 . S
C2106 C2100 1.383 . S
C2106 C2105 1.379 . S
H2107 C2101 0.959 . S
H2108 C2101 0.961 . S
H2109 C2101 0.960 . S
H2110 C2102 0.930 . S
H2111 C2103 0.929 . S
H2112 C2120 0.935 . S
H2113 C2122 0.949 . S
H2114 C2124 0.930 . S
H2115 C2127 0.929 . S
H2116 C2130 0.930 . S
H2117 C2132 0.960 . S
H2118 C2132 0.960 . S
H2119 C2132 0.960 . S
C2120 H2112 0.935 . S
C2120 C2121 1.370 1_565 S
C2120 C2122 1.381 . S
C2121 C2120 1.370 1_545 S
C2121 C2127 1.390 . S
C2122 H2113 0.949 . S
C2122 C2120 1.381 . S
C2122 C2123 1.357 1_565 S
C2123 C2122 1.357 1_545 S
C2123 C2124 1.400 . S
C2123 C2128 1.490 . S
C2124 H2114 0.930 . S
C2124 C2123 1.400 . S
C2124 C2127 1.386 . S
H2125 C2141 0.930 . S
H2126 C2142 0.931 . S
C2127 H2115 0.929 . S
C2127 C2121 1.390 . S
C2127 C2124 1.386 . S
C2128 C2123 1.490 . S
C2128 C2130 1.395 . S
C2128 C2131 1.403 . S
H2129 C2135 0.930 . S
C2130 H2116 0.930 . S
C2130 C2128 1.395 . S
C2130 C2133 1.403 . S
C2131 C2128 1.403 . S
C2131 C2132 1.524 . S
C2131 C2135 1.400 . S
C2132 H2117 0.960 . S
C2132 H2118 0.960 . S
C2132 H2119 0.960 . S
C2132 C2131 1.524 . S
C2133 C2130 1.403 . S
C2133 C2134 1.392 . S
C2133 C2137 1.495 1_655 S
C2134 C2133 1.392 . S
C2134 C2135 1.385 . S
C2134 C2136 1.478 . S
C2135 H2129 0.930 . S
C2135 C2131 1.400 . S
C2135 C2134 1.385 . S
C2136 C2134 1.478 . S
C2136 C2138 1.377 . S
C2136 C2142 1.383 1_655 S
C2137 C2133 1.495 1_455 S
C2137 H2143 0.959 1_545 S
C2137 H2144 0.961 . S
C2137 H2145 0.960 1_545 S
C2138 C2136 1.377 . S
C2138 C2139 1.402 1_655 S
C2138 H2146 0.934 1_545 S
C2139 C2138 1.402 1_455 S
C2139 C2140 1.416 . S
C2139 H2147 0.891 1_545 S
C2140 C2139 1.416 . S
C2140 C2141 1.377 . S
C2141 H2125 0.930 . S
C2141 C2140 1.377 . S
C2141 C2142 1.379 . S
C2142 H2126 0.931 . S
C2142 C2136 1.383 1_455 S
C2142 C2141 1.379 . S
H2143 C2137 0.959 1_565 S
H2144 C2137 0.961 . S
H2145 C2137 0.960 1_565 S
H2146 C2138 0.934 1_565 S
H2147 C2139 0.891 1_565 S
H2148 C2156 0.929 . S
H2149 C2158 0.930 . S
H2150 C2160 0.930 . S
H2151 C2163 0.929 . S
H2152 C2166 0.930 . S
H2153 C2168 0.960 . S
H2154 C2168 0.960 . S
H2155 C2168 0.960 . S
C2156 H2148 0.929 . S
C2156 C2157 1.377 . S
C2156 C2158 1.384 . S
C2157 C2156 1.377 . S
C2157 C2163 1.390 . S
C2158 H2149 0.930 . S
C2158 C2156 1.384 . S
C2158 C2159 1.372 . S
C2159 C2158 1.372 . S
C2159 C2160 1.400 . S
C2159 C2164 1.490 . S
C2160 H2150 0.930 . S
C2160 C2159 1.400 . S
C2160 C2163 1.386 . S
H2161 C2177 0.930 . S
H2162 C2178 0.931 . S
C2163 H2151 0.929 . S
C2163 C2157 1.390 . S
C2163 C2160 1.386 . S
C2164 C2159 1.490 . S
C2164 C2166 1.395 . S
C2164 C2167 1.403 . S
H2165 C2171 0.930 . S
C2166 H2152 0.930 . S
C2166 C2164 1.395 . S
C2166 C2169 1.403 . S
C2167 C2164 1.403 . S
C2167 C2168 1.524 . S
C2167 C2171 1.400 . S
C2168 H2153 0.960 . S
C2168 H2154 0.960 . S
C2168 H2155 0.960 . S
C2168 C2167 1.524 . S
C2169 C2166 1.403 . S
C2169 C2170 1.392 . S
C2169 C2173 1.495 . S
C2170 C2169 1.392 . S
C2170 C2171 1.385 . S
C2170 C2172 1.478 . S
C2171 H2165 0.930 . S
C2171 C2167 1.400 . S
C2171 C2170 1.385 . S
C2172 C2170 1.478 . S
C2172 C2174 1.381 . S
C2172 C2178 1.383 . S
C2173 C2169 1.495 . S
C2173 H2179 0.959 . S
C2173 H2180 0.961 . S
C2173 H2181 0.960 . S
C2174 C2172 1.381 . S
C2174 C2175 1.394 . S
C2174 H2182 0.930 . S
C2175 C2174 1.394 . S
C2175 C2176 1.383 . S
C2175 H2183 0.929 . S
C2176 C2175 1.383 . S
C2176 C2177 1.377 . S
C2177 H2161 0.930 . S
C2177 C2176 1.377 . S
C2177 C2178 1.379 . S
C2178 H2162 0.931 . S
C2178 C2172 1.383 . S
C2178 C2177 1.379 . S
H2179 C2173 0.959 . S
H2180 C2173 0.961 . S
H2181 C2173 0.960 . S
H2182 C2174 0.930 . S
H2183 C2175 0.929 . S
H2184 C2192 0.929 . S
H2185 C2194 0.930 . S
H2186 C2196 0.930 . S
H2187 C2199 0.929 . S
H2188 C2202 0.930 . S
H2189 C2204 0.960 . S
H2190 C2204 0.960 . S
H2191 C2204 0.960 . S
C2192 H2184 0.929 . S
C2192 C2193 1.377 . S
C2192 C2194 1.384 . S
C2193 C2192 1.377 . S
C2193 C2199 1.390 . S
C2194 H2185 0.930 . S
C2194 C2192 1.384 . S
C2194 C2195 1.372 . S
C2195 C2194 1.372 . S
C2195 C2196 1.400 . S
C2195 C2200 1.490 . S
C2196 H2186 0.930 . S
C2196 C2195 1.400 . S
C2196 C2199 1.386 . S
H2197 C2213 0.930 . S
H2198 C2214 0.931 . S
C2199 H2187 0.929 . S
C2199 C2193 1.390 . S
C2199 C2196 1.386 . S
C2200 C2195 1.490 . S
C2200 C2202 1.395 . S
C2200 C2203 1.403 . S
H2201 C2207 0.930 . S
C2202 H2188 0.930 . S
C2202 C2200 1.395 . S
C2202 C2205 1.403 . S
C2203 C2200 1.403 . S
C2203 C2204 1.524 . S
C2203 C2207 1.400 . S
C2204 H2189 0.960 . S
C2204 H2190 0.960 . S
C2204 H2191 0.960 . S
C2204 C2203 1.524 . S
C2205 C2202 1.403 . S
C2205 C2206 1.392 . S
C2205 C2209 1.495 . S
C2206 C2205 1.392 . S
C2206 C2207 1.385 . S
C2206 C2208 1.478 . S
C2207 H2201 0.930 . S
C2207 C2203 1.400 . S
C2207 C2206 1.385 . S
C2208 C2206 1.478 . S
C2208 C2210 1.381 . S
C2208 C2214 1.383 . S
C2209 C2205 1.495 . S
C2209 H2215 0.959 1_545 S
C2209 H2216 0.961 1_545 S
C2209 H2217 0.960 . S
C2210 C2208 1.381 . S
C2210 C2211 1.394 . S
C2210 H2218 0.930 . S
C2211 C2210 1.394 . S
C2211 C2212 1.383 . S
C2211 H2219 0.929 . S
C2212 C2211 1.383 . S
C2212 C2213 1.377 . S
C2213 H2197 0.930 . S
C2213 C2212 1.377 . S
C2213 C2214 1.379 . S
C2214 H2198 0.931 . S
C2214 C2208 1.383 . S
C2214 C2213 1.379 . S
H2215 C2209 0.959 1_565 S
H2216 C2209 0.961 1_565 S
H2217 C2209 0.960 . S
H2218 C2210 0.930 . S
H2219 C2211 0.929 . S
H2220 C2228 0.929 . S
H2221 C2230 0.930 . S
H2222 C2232 0.930 . S
H2223 C2235 0.929 . S
H2224 C2238 0.930 . S
H2225 C2240 0.960 . S
H2226 C2240 0.960 . S
H2227 C2240 0.960 . S
C2228 H2220 0.929 . S
C2228 C2229 1.377 . S
C2228 C2230 1.384 . S
C2229 C2228 1.377 . S
C2229 C2235 1.390 . S
C2230 H2221 0.930 . S
C2230 C2228 1.384 . S
C2230 C2231 1.372 . S
C2231 C2230 1.372 . S
C2231 C2232 1.400 . S
C2231 C2236 1.490 . S
C2232 H2222 0.930 . S
C2232 C2231 1.400 . S
C2232 C2235 1.386 . S
H2233 C2249 0.930 . S
H2234 C2250 0.931 . S
C2235 H2223 0.929 . S
C2235 C2229 1.390 . S
C2235 C2232 1.386 . S
C2236 C2231 1.490 . S
C2236 C2238 1.395 . S
C2236 C2239 1.403 . S
H2237 C2243 0.930 . S
C2238 H2224 0.930 . S
C2238 C2236 1.395 . S
C2238 C2241 1.403 . S
C2239 C2236 1.403 . S
C2239 C2240 1.524 . S
C2239 C2243 1.400 . S
C2240 H2225 0.960 . S
C2240 H2226 0.960 . S
C2240 H2227 0.960 . S
C2240 C2239 1.524 . S
C2241 C2238 1.403 . S
C2241 C2242 1.392 . S
C2241 C2245 1.495 . S
C2242 C2241 1.392 . S
C2242 C2243 1.385 . S
C2242 C2244 1.478 . S
C2243 H2237 0.930 . S
C2243 C2239 1.400 . S
C2243 C2242 1.385 . S
C2244 C2242 1.478 . S
C2244 C2246 1.381 . S
C2244 C2250 1.383 . S
C2245 C2241 1.495 . S
C2245 H2251 0.959 . S
C2245 H2252 0.961 . S
C2245 H2253 0.960 . S
C2246 C2244 1.381 . S
C2246 C2247 1.394 . S
C2246 H2254 0.930 . S
C2247 C2246 1.394 . S
C2247 C2248 1.383 . S
C2247 H2255 0.929 . S
C2248 C2247 1.383 . S
C2248 C2249 1.377 . S
C2249 H2233 0.930 . S
C2249 C2248 1.377 . S
C2249 C2250 1.379 . S
C2250 H2234 0.931 . S
C2250 C2244 1.383 . S
C2250 C2249 1.379 . S
H2251 C2245 0.959 . S
H2252 C2245 0.961 . S
H2253 C2245 0.960 . S
H2254 C2246 0.930 . S
H2255 C2247 0.929 . S
H2256 C2264 0.929 . S
H2257 C2266 0.930 . S
H2258 C2268 0.930 . S
H2259 C2271 0.929 . S
H2260 C2274 0.930 . S
H2261 C2276 0.960 . S
H2262 C2276 0.960 1_554 S
H2263 C2276 0.960 . S
C2264 H2256 0.929 . S
C2264 C2265 1.398 . S
C2264 C2266 1.384 . S
C2265 C2264 1.398 . S
C2265 C2271 1.375 1_554 S
C2266 H2257 0.930 . S
C2266 C2264 1.384 . S
C2266 C2267 1.372 . S
C2267 C2266 1.372 . S
C2267 C2268 1.400 1_554 S
C2267 C2272 1.490 . S
C2268 H2258 0.930 . S
C2268 C2267 1.400 1_556 S
C2268 C2271 1.386 . S
H2269 C2285 0.939 . S
H2270 C2286 0.931 1_556 S
C2271 H2259 0.929 . S
C2271 C2265 1.375 1_556 S
C2271 C2268 1.386 . S
C2272 C2267 1.490 . S
C2272 C2274 1.395 . S
C2272 C2275 1.403 . S
H2273 C2279 0.930 . S
C2274 H2260 0.930 . S
C2274 C2272 1.395 . S
C2274 C2277 1.403 . S
C2275 C2272 1.403 . S
C2275 C2276 1.524 1_554 S
C2275 C2279 1.400 . S
C2276 H2261 0.960 . S
C2276 H2262 0.960 1_556 S
C2276 H2263 0.960 . S
C2276 C2275 1.524 1_556 S
C2277 C2274 1.403 . S
C2277 C2278 1.392 . S
C2277 C2281 1.495 1_565 S
C2278 C2277 1.392 . S
C2278 C2279 1.385 . S
C2278 C2280 1.478 . S
C2279 H2273 0.930 . S
C2279 C2275 1.400 . S
C2279 C2278 1.385 . S
C2280 C2278 1.478 . S
C2280 C2282 1.381 . S
C2280 C2286 1.383 . S
C2281 C2277 1.495 1_545 S
C2281 H2287 0.959 . S
C2281 H2288 0.961 . S
C2281 H2289 0.960 . S
C2282 C2280 1.381 . S
C2282 C2283 1.394 . S
C2282 H2290 0.930 . S
C2283 C2282 1.394 . S
C2283 C2284 1.380 1_565 S
C2283 H2291 0.933 . S
C2284 C2283 1.380 1_545 S
C2284 C2285 1.376 1_545 S
C2285 H2269 0.939 . S
C2285 C2284 1.376 1_565 S
C2285 C2286 1.379 . S
C2286 H2270 0.931 1_554 S
C2286 C2280 1.383 . S
C2286 C2285 1.379 . S
H2287 C2281 0.959 . S
H2288 C2281 0.961 . S
H2289 C2281 0.960 . S
H2290 C2282 0.930 . S
H2291 C2283 0.933 . S
H2292 C2300 0.929 . S
H2293 C2302 0.930 . S
H2294 C2304 0.930 . S
H2295 C2307 0.929 . S
H2296 C2310 0.930 . S
H2297 C2312 0.960 . S
H2298 C2312 0.960 . S
H2299 C2312 0.960 . S
C2300 H2292 0.929 . S
C2300 C2301 1.377 . S
C2300 C2302 1.384 . S
C2301 C2300 1.377 . S
C2301 C2307 1.390 1_554 S
C2302 H2293 0.930 . S
C2302 C2300 1.384 . S
C2302 C2303 1.372 . S
C2303 C2302 1.372 . S
C2303 C2304 1.400 1_554 S
C2303 C2308 1.490 . S
C2304 H2294 0.930 . S
C2304 C2303 1.400 1_556 S
C2304 C2307 1.386 . S
H2305 C2321 0.930 . S
H2306 C2322 0.931 . S
C2307 H2295 0.929 . S
C2307 C2301 1.390 1_556 S
C2307 C2304 1.386 . S
C2308 C2303 1.490 . S
C2308 C2310 1.395 1_554 S
C2308 C2311 1.403 . S
H2309 C2315 0.930 . S
C2310 H2296 0.930 . S
C2310 C2308 1.395 1_556 S
C2310 C2313 1.403 . S
C2311 C2308 1.403 . S
C2311 C2312 1.524 . S
C2311 C2315 1.400 . S
C2312 H2297 0.960 . S
C2312 H2298 0.960 . S
C2312 H2299 0.960 . S
C2312 C2311 1.524 . S
C2313 C2310 1.403 . S
C2313 C2314 1.392 1_556 S
C2313 C2317 1.495 . S
C2314 C2313 1.392 1_554 S
C2314 C2315 1.385 . S
C2314 C2316 1.478 . S
C2315 H2309 0.930 . S
C2315 C2311 1.400 . S
C2315 C2314 1.385 . S
C2316 C2314 1.478 . S
C2316 C2318 1.381 . S
C2316 C2322 1.383 1_554 S
C2317 C2313 1.495 . S
C2317 H2323 0.959 . S
C2317 H2324 0.961 . S
C2317 H2325 0.960 1_556 S
C2318 C2316 1.381 . S
C2318 C2319 1.394 . S
C2318 H2326 0.930 . S
C2319 C2318 1.394 . S
C2319 C2320 1.383 . S
C2319 H2327 0.929 . S
C2320 C2319 1.383 . S
C2320 C2321 1.377 1_554 S
C2321 H2305 0.930 . S
C2321 C2320 1.377 1_556 S
C2321 C2322 1.379 . S
C2322 H2306 0.931 . S
C2322 C2316 1.383 1_556 S
C2322 C2321 1.379 . S
H2323 C2317 0.959 . S
H2324 C2317 0.961 . S
H2325 C2317 0.960 1_554 S
H2326 C2318 0.930 . S
H2327 C2319 0.929 . S
H2328 C2336 0.929 . S
H2329 C2338 0.930 . S
H2330 C2340 0.930 . S
H2331 C2343 0.929 . S
H2332 C2346 0.930 . S
H2333 C2348 0.960 . S
H2334 C2348 0.960 . S
H2335 C2348 0.960 . S
C2336 H2328 0.929 . S
C2336 C2337 1.377 . S
C2336 C2338 1.384 . S
C2337 C2336 1.377 . S
C2337 C2343 1.390 . S
C2338 H2329 0.930 . S
C2338 C2336 1.384 . S
C2338 C2339 1.372 . S
C2339 C2338 1.372 . S
C2339 C2340 1.400 . S
C2339 C2344 1.490 . S
C2340 H2330 0.930 . S
C2340 C2339 1.400 . S
C2340 C2343 1.386 . S
H2341 C2357 0.930 . S
H2342 C2358 0.931 . S
C2343 H2331 0.929 . S
C2343 C2337 1.390 . S
C2343 C2340 1.386 . S
C2344 C2339 1.490 . S
C2344 C2346 1.395 . S
C2344 C2347 1.403 . S
H2345 C2351 0.930 . S
C2346 H2332 0.930 . S
C2346 C2344 1.395 . S
C2346 C2349 1.403 . S
C2347 C2344 1.403 . S
C2347 C2348 1.524 . S
C2347 C2351 1.400 . S
C2348 H2333 0.960 . S
C2348 H2334 0.960 . S
C2348 H2335 0.960 . S
C2348 C2347 1.524 . S
C2349 C2346 1.403 . S
C2349 C2350 1.392 . S
C2349 C2353 1.495 . S
C2350 C2349 1.392 . S
C2350 C2351 1.385 . S
C2350 C2352 1.478 . S
C2351 H2345 0.930 . S
C2351 C2347 1.400 . S
C2351 C2350 1.385 . S
C2352 C2350 1.478 . S
C2352 C2354 1.381 . S
C2352 C2358 1.383 . S
C2353 C2349 1.495 . S
C2353 H2359 0.959 . S
C2353 H2360 0.961 . S
C2353 H2361 0.960 . S
C2354 C2352 1.381 . S
C2354 C2355 1.394 . S
C2354 H2362 0.930 . S
C2355 C2354 1.394 . S
C2355 C2356 1.383 . S
C2355 H2363 0.929 . S
C2356 C2355 1.383 . S
C2356 C2357 1.377 . S
C2357 H2341 0.930 . S
C2357 C2356 1.377 . S
C2357 C2358 1.379 . S
C2358 H2342 0.931 . S
C2358 C2352 1.383 . S
C2358 C2357 1.379 . S
H2359 C2353 0.959 . S
H2360 C2353 0.961 . S
H2361 C2353 0.960 . S
H2362 C2354 0.930 . S
H2363 C2355 0.929 . S
H2364 C2372 0.929 . S
H2365 C2374 0.930 . S
H2366 C2376 0.930 . S
H2367 C2379 0.929 . S
H2368 C2382 0.930 . S
H2369 C2384 0.960 . S
H2370 C2384 0.960 . S
H2371 C2384 0.960 . S
C2372 H2364 0.929 . S
C2372 C2373 1.377 . S
C2372 C2374 1.384 . S
C2373 C2372 1.377 . S
C2373 C2379 1.390 . S
C2374 H2365 0.930 . S
C2374 C2372 1.384 . S
C2374 C2375 1.372 . S
C2375 C2374 1.372 . S
C2375 C2376 1.400 . S
C2375 C2380 1.490 . S
C2376 H2366 0.930 . S
C2376 C2375 1.400 . S
C2376 C2379 1.386 . S
H2377 C2393 0.930 . S
H2378 C2394 0.931 . S
C2379 H2367 0.929 . S
C2379 C2373 1.390 . S
C2379 C2376 1.386 . S
C2380 C2375 1.490 . S
C2380 C2382 1.395 . S
C2380 C2383 1.403 . S
H2381 C2387 0.930 . S
C2382 H2368 0.930 . S
C2382 C2380 1.395 . S
C2382 C2385 1.403 . S
C2383 C2380 1.403 . S
C2383 C2384 1.524 . S
C2383 C2387 1.400 . S
C2384 H2369 0.960 . S
C2384 H2370 0.960 . S
C2384 H2371 0.960 . S
C2384 C2383 1.524 . S
C2385 C2382 1.403 . S
C2385 C2386 1.392 . S
C2385 C2389 1.495 . S
C2386 C2385 1.392 . S
C2386 C2387 1.385 . S
C2386 C2388 1.478 . S
C2387 H2381 0.930 . S
C2387 C2383 1.400 . S
C2387 C2386 1.385 . S
C2388 C2386 1.478 . S
C2388 C2390 1.381 . S
C2388 C2394 1.383 . S
C2389 C2385 1.495 . S
C2389 H2395 0.959 . S
C2389 H2396 0.961 . S
C2389 H2397 0.960 . S
C2390 C2388 1.381 . S
C2390 C2391 1.394 . S
C2390 H2398 0.930 . S
C2391 C2390 1.394 . S
C2391 C2392 1.383 . S
C2391 H2399 0.929 . S
C2392 C2391 1.383 . S
C2392 C2393 1.377 . S
C2393 H2377 0.930 . S
C2393 C2392 1.377 . S
C2393 C2394 1.379 . S
C2394 H2378 0.931 . S
C2394 C2388 1.383 . S
C2394 C2393 1.379 . S
H2395 C2389 0.959 . S
H2396 C2389 0.961 . S
H2397 C2389 0.960 . S
H2398 C2390 0.930 . S
H2399 C2391 0.929 . S
H2400 C2408 0.929 . S
H2401 C2410 0.930 . S
H2402 C2412 0.930 . S
H2403 C2415 0.929 . S
H2404 C2418 0.930 . S
H2405 C2420 0.960 . S
H2406 C2420 0.960 . S
H2407 C2420 0.960 . S
C2408 H2400 0.929 . S
C2408 C2409 1.377 . S
C2408 C2410 1.384 . S
C2409 C2408 1.377 . S
C2409 C2415 1.390 . S
C2410 H2401 0.930 . S
C2410 C2408 1.384 . S
C2410 C2411 1.372 . S
C2411 C2410 1.372 . S
C2411 C2412 1.400 . S
C2411 C2416 1.490 . S
C2412 H2402 0.930 . S
C2412 C2411 1.400 . S
C2412 C2415 1.386 . S
H2413 C2429 0.930 . S
H2414 C2430 0.931 . S
C2415 H2403 0.929 . S
C2415 C2409 1.390 . S
C2415 C2412 1.386 . S
C2416 C2411 1.490 . S
C2416 C2418 1.395 . S
C2416 C2419 1.403 . S
H2417 C2423 0.930 . S
C2418 H2404 0.930 . S
C2418 C2416 1.395 . S
C2418 C2421 1.403 . S
C2419 C2416 1.403 . S
C2419 C2420 1.524 . S
C2419 C2423 1.400 . S
C2420 H2405 0.960 . S
C2420 H2406 0.960 . S
C2420 H2407 0.960 . S
C2420 C2419 1.524 . S
C2421 C2418 1.403 . S
C2421 C2422 1.392 . S
C2421 C2425 1.495 . S
C2422 C2421 1.392 . S
C2422 C2423 1.385 . S
C2422 C2424 1.478 . S
C2423 H2417 0.930 . S
C2423 C2419 1.400 . S
C2423 C2422 1.385 . S
C2424 C2422 1.478 . S
C2424 C2426 1.381 . S
C2424 C2430 1.383 . S
C2425 C2421 1.495 . S
C2425 H2431 0.959 . S
C2425 H2432 0.961 . S
C2425 H2433 0.960 . S
C2426 C2424 1.381 . S
C2426 C2427 1.394 . S
C2426 H2434 0.930 . S
C2427 C2426 1.394 . S
C2427 C2428 1.383 . S
C2427 H2435 0.929 . S
C2428 C2427 1.383 . S
C2428 C2429 1.377 . S
C2429 H2413 0.930 . S
C2429 C2428 1.377 . S
C2429 C2430 1.379 . S
C2430 H2414 0.931 . S
C2430 C2424 1.383 . S
C2430 C2429 1.379 . S
H2431 C2425 0.959 . S
H2432 C2425 0.961 . S
H2433 C2425 0.960 . S
H2434 C2426 0.930 . S
H2435 C2427 0.929 . S
H2436 C2444 0.929 . S
H2437 C2446 0.930 . S
H2438 C2448 0.930 . S
H2439 C2451 0.929 . S
H2440 C2454 0.930 . S
H2441 C2456 0.960 . S
H2442 C2456 0.960 . S
H2443 C2456 0.960 . S
C2444 H2436 0.929 . S
C2444 C2445 1.377 . S
C2444 C2446 1.384 . S
C2445 C2444 1.377 . S
C2445 C2451 1.390 . S
C2446 H2437 0.930 . S
C2446 C2444 1.384 . S
C2446 C2447 1.372 . S
C2447 C2446 1.372 . S
C2447 C2448 1.400 . S
C2447 C2452 1.490 . S
C2448 H2438 0.930 . S
C2448 C2447 1.400 . S
C2448 C2451 1.386 . S
H2449 C2465 0.930 . S
H2450 C2466 0.931 . S
C2451 H2439 0.929 . S
C2451 C2445 1.390 . S
C2451 C2448 1.386 . S
C2452 C2447 1.490 . S
C2452 C2454 1.395 . S
C2452 C2455 1.403 . S
H2453 C2459 0.930 . S
C2454 H2440 0.930 . S
C2454 C2452 1.395 . S
C2454 C2457 1.403 . S
C2455 C2452 1.403 . S
C2455 C2456 1.524 . S
C2455 C2459 1.400 . S
C2456 H2441 0.960 . S
C2456 H2442 0.960 . S
C2456 H2443 0.960 . S
C2456 C2455 1.524 . S
C2457 C2454 1.403 . S
C2457 C2458 1.392 . S
C2457 C2461 1.495 . S
C2458 C2457 1.392 . S
C2458 C2459 1.385 . S
C2458 C2460 1.478 . S
C2459 H2453 0.930 . S
C2459 C2455 1.400 . S
C2459 C2458 1.385 . S
C2460 C2458 1.478 . S
C2460 C2462 1.381 . S
C2460 C2466 1.383 . S
C2461 C2457 1.495 . S
C2461 H2467 0.959 . S
C2461 H2468 0.961 . S
C2461 H2469 0.960 . S
C2462 C2460 1.381 . S
C2462 C2463 1.394 . S
C2462 H2470 0.930 . S
C2463 C2462 1.394 . S
C2463 C2464 1.383 . S
C2463 H2471 0.929 . S
C2464 C2463 1.383 . S
C2464 C2465 1.377 . S
C2465 H2449 0.930 . S
C2465 C2464 1.377 . S
C2465 C2466 1.379 . S
C2466 H2450 0.931 . S
C2466 C2460 1.383 . S
C2466 C2465 1.379 . S
H2467 C2461 0.959 . S
H2468 C2461 0.961 . S
H2469 C2461 0.960 . S
H2470 C2462 0.930 . S
H2471 C2463 0.929 . S
H2472 C2480 0.929 . S
H2473 C2482 0.930 . S
H2474 C2484 0.930 . S
H2475 C2487 0.929 . S
H2476 C2490 0.930 . S
H2477 C2492 0.960 . S
H2478 C2492 0.960 . S
H2479 C2492 0.960 . S
C2480 H2472 0.929 . S
C2480 C2481 1.377 . S
C2480 C2482 1.384 . S
C2481 C2480 1.377 . S
C2481 C2487 1.390 . S
C2482 H2473 0.930 . S
C2482 C2480 1.384 . S
C2482 C2483 1.372 . S
C2483 C2482 1.372 . S
C2483 C2484 1.400 . S
C2483 C2488 1.490 . S
C2484 H2474 0.930 . S
C2484 C2483 1.400 . S
C2484 C2487 1.386 . S
H2485 C2501 0.930 . S
H2486 C2502 0.931 . S
C2487 H2475 0.929 . S
C2487 C2481 1.390 . S
C2487 C2484 1.386 . S
C2488 C2483 1.490 . S
C2488 C2490 1.395 . S
C2488 C2491 1.403 . S
H2489 C2495 0.930 . S
C2490 H2476 0.930 . S
C2490 C2488 1.395 . S
C2490 C2493 1.403 . S
C2491 C2488 1.403 . S
C2491 C2492 1.524 . S
C2491 C2495 1.400 . S
C2492 H2477 0.960 . S
C2492 H2478 0.960 . S
C2492 H2479 0.960 . S
C2492 C2491 1.524 . S
C2493 C2490 1.403 . S
C2493 C2494 1.392 . S
C2493 C2497 1.495 . S
C2494 C2493 1.392 . S
C2494 C2495 1.385 . S
C2494 C2496 1.478 . S
C2495 H2489 0.930 . S
C2495 C2491 1.400 . S
C2495 C2494 1.385 . S
C2496 C2494 1.478 . S
C2496 C2498 1.381 . S
C2496 C2502 1.383 . S
C2497 C2493 1.495 . S
C2497 H2503 0.959 . S
C2497 H2504 0.961 . S
C2497 H2505 0.960 . S
C2498 C2496 1.381 . S
C2498 C2499 1.394 . S
C2498 H2506 0.930 . S
C2499 C2498 1.394 . S
C2499 C2500 1.383 . S
C2499 H2507 0.929 . S
C2500 C2499 1.383 . S
C2500 C2501 1.377 . S
C2501 H2485 0.930 . S
C2501 C2500 1.377 . S
C2501 C2502 1.379 . S
C2502 H2486 0.931 . S
C2502 C2496 1.383 . S
C2502 C2501 1.379 . S
H2503 C2497 0.959 . S
H2504 C2497 0.961 . S
H2505 C2497 0.960 . S
H2506 C2498 0.930 . S
H2507 C2499 0.929 . S
H2508 C2516 0.929 . S
H2509 C2518 0.930 . S
H2510 C2520 0.930 . S
H2511 C2523 0.929 . S
H2512 C2526 0.930 . S
H2513 C2528 0.960 . S
H2514 C2528 0.960 . S
H2515 C2528 0.960 . S
C2516 H2508 0.929 . S
C2516 C2517 1.377 . S
C2516 C2518 1.384 . S
C2517 C2516 1.377 . S
C2517 C2523 1.390 . S
C2518 H2509 0.930 . S
C2518 C2516 1.384 . S
C2518 C2519 1.372 . S
C2519 C2518 1.372 . S
C2519 C2520 1.400 . S
C2519 C2524 1.490 . S
C2520 H2510 0.930 . S
C2520 C2519 1.400 . S
C2520 C2523 1.386 . S
H2521 C2537 0.930 . S
H2522 C2538 0.931 . S
C2523 H2511 0.929 . S
C2523 C2517 1.390 . S
C2523 C2520 1.386 . S
C2524 C2519 1.490 . S
C2524 C2526 1.395 . S
C2524 C2527 1.403 . S
H2525 C2531 0.930 . S
C2526 H2512 0.930 . S
C2526 C2524 1.395 . S
C2526 C2529 1.403 . S
C2527 C2524 1.403 . S
C2527 C2528 1.524 . S
C2527 C2531 1.400 . S
C2528 H2513 0.960 . S
C2528 H2514 0.960 . S
C2528 H2515 0.960 . S
C2528 C2527 1.524 . S
C2529 C2526 1.403 . S
C2529 C2530 1.392 . S
C2529 C2533 1.495 . S
C2530 C2529 1.392 . S
C2530 C2531 1.385 . S
C2530 C2532 1.478 . S
C2531 H2525 0.930 . S
C2531 C2527 1.400 . S
C2531 C2530 1.385 . S
C2532 C2530 1.478 . S
C2532 C2534 1.381 . S
C2532 C2538 1.383 . S
C2533 C2529 1.495 . S
C2533 H2539 0.959 . S
C2533 H2540 0.961 . S
C2533 H2541 0.960 . S
C2534 C2532 1.381 . S
C2534 C2535 1.394 . S
C2534 H2542 0.930 . S
C2535 C2534 1.394 . S
C2535 C2536 1.383 . S
C2535 H2543 0.929 . S
C2536 C2535 1.383 . S
C2536 C2537 1.377 . S
C2537 H2521 0.930 . S
C2537 C2536 1.377 . S
C2537 C2538 1.379 . S
C2538 H2522 0.931 . S
C2538 C2532 1.383 . S
C2538 C2537 1.379 . S
H2539 C2533 0.959 . S
H2540 C2533 0.961 . S
H2541 C2533 0.960 . S
H2542 C2534 0.930 . S
H2543 C2535 0.929 . S
H2544 C2552 0.929 . S
H2545 C2554 0.930 . S
H2546 C2556 0.930 . S
H2547 C2559 0.929 . S
H2548 C2562 0.930 . S
H2549 C2564 0.960 . S
H2550 C2564 0.960 . S
H2551 C2564 0.960 . S
C2552 H2544 0.929 . S
C2552 C2553 1.377 . S
C2552 C2554 1.384 . S
C2553 C2552 1.377 . S
C2553 C2559 1.390 . S
C2554 H2545 0.930 . S
C2554 C2552 1.384 . S
C2554 C2555 1.372 . S
C2555 C2554 1.372 . S
C2555 C2556 1.400 . S
C2555 C2560 1.490 . S
C2556 H2546 0.930 . S
C2556 C2555 1.400 . S
C2556 C2559 1.386 . S
H2557 C2573 0.930 . S
H2558 C2574 0.931 . S
C2559 H2547 0.929 . S
C2559 C2553 1.390 . S
C2559 C2556 1.386 . S
C2560 C2555 1.490 . S
C2560 C2562 1.395 . S
C2560 C2563 1.403 . S
H2561 C2567 0.930 . S
C2562 H2548 0.930 . S
C2562 C2560 1.395 . S
C2562 C2565 1.403 . S
C2563 C2560 1.403 . S
C2563 C2564 1.524 . S
C2563 C2567 1.400 . S
C2564 H2549 0.960 . S
C2564 H2550 0.960 . S
C2564 H2551 0.960 . S
C2564 C2563 1.524 . S
C2565 C2562 1.403 . S
C2565 C2566 1.392 . S
C2565 C2569 1.495 . S
C2566 C2565 1.392 . S
C2566 C2567 1.385 . S
C2566 C2568 1.478 . S
C2567 H2561 0.930 . S
C2567 C2563 1.400 . S
C2567 C2566 1.385 . S
C2568 C2566 1.478 . S
C2568 C2570 1.381 . S
C2568 C2574 1.383 . S
C2569 C2565 1.495 . S
C2569 H2575 0.959 . S
C2569 H2576 0.961 . S
C2569 H2577 0.960 . S
C2570 C2568 1.381 . S
C2570 C2571 1.394 . S
C2570 H2578 0.930 . S
C2571 C2570 1.394 . S
C2571 C2572 1.383 . S
C2571 H2579 0.929 . S
C2572 C2571 1.383 . S
C2572 C2573 1.377 . S
C2573 H2557 0.930 . S
C2573 C2572 1.377 . S
C2573 C2574 1.379 . S
C2574 H2558 0.931 . S
C2574 C2568 1.383 . S
C2574 C2573 1.379 . S
H2575 C2569 0.959 . S
H2576 C2569 0.961 . S
H2577 C2569 0.960 . S
H2578 C2570 0.930 . S
H2579 C2571 0.929 . S
H2580 C2588 0.929 . S
H2581 C2590 0.930 . S
H2582 C2592 0.930 . S
H2583 C2595 0.929 . S
H2584 C2598 0.930 . S
H2585 C2600 0.960 . S
H2586 C2600 0.960 . S
H2587 C2600 0.960 . S
C2588 H2580 0.929 . S
C2588 C2589 1.377 . S
C2588 C2590 1.384 . S
C2589 C2588 1.377 . S
C2589 C2595 1.390 . S
C2590 H2581 0.930 . S
C2590 C2588 1.384 . S
C2590 C2591 1.372 . S
C2591 C2590 1.372 . S
C2591 C2592 1.400 . S
C2591 C2596 1.490 . S
C2592 H2582 0.930 . S
C2592 C2591 1.400 . S
C2592 C2595 1.386 . S
H2593 C2609 0.930 . S
H2594 C2610 0.931 . S
C2595 H2583 0.929 . S
C2595 C2589 1.390 . S
C2595 C2592 1.386 . S
C2596 C2591 1.490 . S
C2596 C2598 1.395 . S
C2596 C2599 1.403 . S
H2597 C2603 0.930 . S
C2598 H2584 0.930 . S
C2598 C2596 1.395 . S
C2598 C2601 1.403 . S
C2599 C2596 1.403 . S
C2599 C2600 1.524 . S
C2599 C2603 1.400 . S
C2600 H2585 0.960 . S
C2600 H2586 0.960 . S
C2600 H2587 0.960 . S
C2600 C2599 1.524 . S
C2601 C2598 1.403 . S
C2601 C2602 1.392 . S
C2601 C2605 1.495 . S
C2602 C2601 1.392 . S
C2602 C2603 1.385 . S
C2602 C2604 1.478 . S
C2603 H2597 0.930 . S
C2603 C2599 1.400 . S
C2603 C2602 1.385 . S
C2604 C2602 1.478 . S
C2604 C2606 1.381 . S
C2604 C2610 1.383 . S
C2605 C2601 1.495 . S
C2605 H2611 0.959 . S
C2605 H2612 0.961 . S
C2605 H2613 0.960 . S
C2606 C2604 1.381 . S
C2606 C2607 1.394 . S
C2606 H2614 0.930 . S
C2607 C2606 1.394 . S
C2607 C2608 1.383 . S
C2607 H2615 0.929 . S
C2608 C2607 1.383 . S
C2608 C2609 1.377 . S
C2609 H2593 0.930 . S
C2609 C2608 1.377 . S
C2609 C2610 1.379 . S
C2610 H2594 0.931 . S
C2610 C2604 1.383 . S
C2610 C2609 1.379 . S
H2611 C2605 0.959 . S
H2612 C2605 0.961 . S
H2613 C2605 0.960 . S
H2614 C2606 0.930 . S
H2615 C2607 0.929 . S
H2616 C2624 0.929 . S
H2617 C2626 0.930 . S
H2618 C2628 0.930 . S
H2619 C2631 0.929 . S
H2620 C2634 0.930 . S
H2621 C2636 0.960 . S
H2622 C2636 0.960 . S
H2623 C2636 0.960 . S
C2624 H2616 0.929 . S
C2624 C2625 1.377 . S
C2624 C2626 1.384 . S
C2625 C2624 1.377 . S
C2625 C2631 1.390 . S
C2626 H2617 0.930 . S
C2626 C2624 1.384 . S
C2626 C2627 1.372 . S
C2627 C2626 1.372 . S
C2627 C2628 1.400 . S
C2627 C2632 1.490 . S
C2628 H2618 0.930 . S
C2628 C2627 1.400 . S
C2628 C2631 1.386 . S
H2629 C2645 0.930 . S
H2630 C2646 0.931 . S
C2631 H2619 0.929 . S
C2631 C2625 1.390 . S
C2631 C2628 1.386 . S
C2632 C2627 1.490 . S
C2632 C2634 1.395 . S
C2632 C2635 1.403 . S
H2633 C2639 0.930 . S
C2634 H2620 0.930 . S
C2634 C2632 1.395 . S
C2634 C2637 1.403 . S
C2635 C2632 1.403 . S
C2635 C2636 1.524 . S
C2635 C2639 1.400 . S
C2636 H2621 0.960 . S
C2636 H2622 0.960 . S
C2636 H2623 0.960 . S
C2636 C2635 1.524 . S
C2637 C2634 1.403 . S
C2637 C2638 1.392 . S
C2637 C2641 1.495 . S
C2638 C2637 1.392 . S
C2638 C2639 1.385 . S
C2638 C2640 1.478 . S
C2639 H2633 0.930 . S
C2639 C2635 1.400 . S
C2639 C2638 1.385 . S
C2640 C2638 1.478 . S
C2640 C2642 1.381 . S
C2640 C2646 1.383 . S
C2641 C2637 1.495 . S
C2641 H2647 0.959 . S
C2641 H2648 0.961 . S
C2641 H2649 0.960 . S
C2642 C2640 1.381 . S
C2642 C2643 1.394 . S
C2642 H2650 0.930 . S
C2643 C2642 1.394 . S
C2643 C2644 1.383 . S
C2643 H2651 0.929 . S
C2644 C2643 1.383 . S
C2644 C2645 1.377 . S
C2645 H2629 0.930 . S
C2645 C2644 1.377 . S
C2645 C2646 1.379 . S
C2646 H2630 0.931 . S
C2646 C2640 1.383 . S
C2646 C2645 1.379 . S
H2647 C2641 0.959 . S
H2648 C2641 0.961 . S
H2649 C2641 0.960 . S
H2650 C2642 0.930 . S
H2651 C2643 0.929 . S
H2652 C2660 0.929 . S
H2653 C2662 0.930 . S
H2654 C2664 0.930 . S
H2655 C2667 0.929 . S
H2656 C2670 0.930 . S
H2657 C2672 0.960 . S
H2658 C2672 0.960 . S
H2659 C2672 0.960 . S
C2660 H2652 0.929 . S
C2660 C2661 1.377 . S
C2660 C2662 1.384 . S
C2661 C2660 1.377 . S
C2661 C2667 1.390 . S
C2662 H2653 0.930 . S
C2662 C2660 1.384 . S
C2662 C2663 1.372 . S
C2663 C2662 1.372 . S
C2663 C2664 1.400 . S
C2663 C2668 1.490 . S
C2664 H2654 0.930 . S
C2664 C2663 1.400 . S
C2664 C2667 1.386 . S
H2665 C2681 0.930 . S
H2666 C2682 0.931 . S
C2667 H2655 0.929 . S
C2667 C2661 1.390 . S
C2667 C2664 1.386 . S
C2668 C2663 1.490 . S
C2668 C2670 1.395 . S
C2668 C2671 1.403 . S
H2669 C2675 0.930 . S
C2670 H2656 0.930 . S
C2670 C2668 1.395 . S
C2670 C2673 1.403 . S
C2671 C2668 1.403 . S
C2671 C2672 1.524 . S
C2671 C2675 1.400 . S
C2672 H2657 0.960 . S
C2672 H2658 0.960 . S
C2672 H2659 0.960 . S
C2672 C2671 1.524 . S
C2673 C2670 1.403 . S
C2673 C2674 1.392 . S
C2673 C2677 1.495 . S
C2674 C2673 1.392 . S
C2674 C2675 1.385 . S
C2674 C2676 1.478 . S
C2675 H2669 0.930 . S
C2675 C2671 1.400 . S
C2675 C2674 1.385 . S
C2676 C2674 1.478 . S
C2676 C2678 1.381 . S
C2676 C2682 1.383 . S
C2677 C2673 1.495 . S
C2677 H2683 0.959 . S
C2677 H2684 0.961 . S
C2677 H2685 0.960 . S
C2678 C2676 1.381 . S
C2678 C2679 1.394 . S
C2678 H2686 0.930 . S
C2679 C2678 1.394 . S
C2679 C2680 1.383 . S
C2679 H2687 0.929 . S
C2680 C2679 1.383 . S
C2680 C2681 1.377 . S
C2681 H2665 0.930 . S
C2681 C2680 1.377 . S
C2681 C2682 1.379 . S
C2682 H2666 0.931 . S
C2682 C2676 1.383 . S
C2682 C2681 1.379 . S
H2683 C2677 0.959 . S
H2684 C2677 0.961 . S
H2685 C2677 0.960 . S
H2686 C2678 0.930 . S
H2687 C2679 0.929 . S
H2688 C2696 0.929 . S
H2689 C2698 0.930 . S
H2690 C2700 0.930 . S
H2691 C2703 0.929 . S
H2692 C2706 0.930 . S
H2693 C2708 0.960 . S
H2694 C2708 0.960 . S
H2695 C2708 0.960 . S
C2696 H2688 0.929 . S
C2696 C2697 1.377 . S
C2696 C2698 1.384 . S
C2697 C2696 1.377 . S
C2697 C2703 1.390 . S
C2698 H2689 0.930 . S
C2698 C2696 1.384 . S
C2698 C2699 1.372 . S
C2699 C2698 1.372 . S
C2699 C2700 1.400 . S
C2699 C2704 1.490 . S
C2700 H2690 0.930 . S
C2700 C2699 1.400 . S
C2700 C2703 1.386 . S
H2701 C2717 0.930 . S
H2702 C2718 0.931 . S
C2703 H2691 0.929 . S
C2703 C2697 1.390 . S
C2703 C2700 1.386 . S
C2704 C2699 1.490 . S
C2704 C2706 1.395 . S
C2704 C2707 1.403 . S
H2705 C2711 0.930 . S
C2706 H2692 0.930 . S
C2706 C2704 1.395 . S
C2706 C2709 1.403 . S
C2707 C2704 1.403 . S
C2707 C2708 1.524 . S
C2707 C2711 1.400 . S
C2708 H2693 0.960 . S
C2708 H2694 0.960 . S
C2708 H2695 0.960 . S
C2708 C2707 1.524 . S
C2709 C2706 1.403 . S
C2709 C2710 1.392 . S
C2709 C2713 1.495 . S
C2710 C2709 1.392 . S
C2710 C2711 1.385 . S
C2710 C2712 1.478 . S
C2711 H2705 0.930 . S
C2711 C2707 1.400 . S
C2711 C2710 1.385 . S
C2712 C2710 1.478 . S
C2712 C2714 1.381 . S
C2712 C2718 1.383 . S
C2713 C2709 1.495 . S
C2713 H2719 0.959 . S
C2713 H2720 0.961 . S
C2713 H2721 0.960 . S
C2714 C2712 1.381 . S
C2714 C2715 1.394 . S
C2714 H2722 0.930 . S
C2715 C2714 1.394 . S
C2715 C2716 1.383 . S
C2715 H2723 0.929 . S
C2716 C2715 1.383 . S
C2716 C2717 1.377 . S
C2717 H2701 0.930 . S
C2717 C2716 1.377 . S
C2717 C2718 1.379 . S
C2718 H2702 0.931 . S
C2718 C2712 1.383 . S
C2718 C2717 1.379 . S
H2719 C2713 0.959 . S
H2720 C2713 0.961 . S
H2721 C2713 0.960 . S
H2722 C2714 0.930 . S
H2723 C2715 0.929 . S
H2724 C2732 0.929 . S
H2725 C2734 0.930 . S
H2726 C2736 0.930 . S
H2727 C2739 0.929 . S
H2728 C2742 0.930 . S
H2729 C2744 0.960 . S
H2730 C2744 0.960 . S
H2731 C2744 0.960 . S
C2732 H2724 0.929 . S
C2732 C2733 1.377 . S
C2732 C2734 1.384 . S
C2733 C2732 1.377 . S
C2733 C2739 1.390 . S
C2734 H2725 0.930 . S
C2734 C2732 1.384 . S
C2734 C2735 1.372 . S
C2735 C2734 1.372 . S
C2735 C2736 1.400 . S
C2735 C2740 1.490 . S
C2736 H2726 0.930 . S
C2736 C2735 1.400 . S
C2736 C2739 1.386 . S
H2737 C2753 0.930 . S
H2738 C2754 0.931 . S
C2739 H2727 0.929 . S
C2739 C2733 1.390 . S
C2739 C2736 1.386 . S
C2740 C2735 1.490 . S
C2740 C2742 1.395 . S
C2740 C2743 1.403 . S
H2741 C2747 0.930 . S
C2742 H2728 0.930 . S
C2742 C2740 1.395 . S
C2742 C2745 1.403 . S
C2743 C2740 1.403 . S
C2743 C2744 1.524 . S
C2743 C2747 1.400 . S
C2744 H2729 0.960 . S
C2744 H2730 0.960 . S
C2744 H2731 0.960 . S
C2744 C2743 1.524 . S
C2745 C2742 1.403 . S
C2745 C2746 1.392 . S
C2745 C2749 1.495 . S
C2746 C2745 1.392 . S
C2746 C2747 1.385 . S
C2746 C2748 1.478 . S
C2747 H2741 0.930 . S
C2747 C2743 1.400 . S
C2747 C2746 1.385 . S
C2748 C2746 1.478 . S
C2748 C2750 1.381 . S
C2748 C2754 1.383 . S
C2749 C2745 1.495 . S
C2749 H2755 0.959 . S
C2749 H2756 0.961 . S
C2749 H2757 0.960 . S
C2750 C2748 1.381 . S
C2750 C2751 1.394 . S
C2750 H2758 0.930 . S
C2751 C2750 1.394 . S
C2751 C2752 1.383 . S
C2751 H2759 0.929 . S
C2752 C2751 1.383 . S
C2752 C2753 1.377 . S
C2753 H2737 0.930 . S
C2753 C2752 1.377 . S
C2753 C2754 1.379 . S
C2754 H2738 0.931 . S
C2754 C2748 1.383 . S
C2754 C2753 1.379 . S
H2755 C2749 0.959 . S
H2756 C2749 0.961 . S
H2757 C2749 0.960 . S
H2758 C2750 0.930 . S
H2759 C2751 0.929 . S
H2760 C2768 0.929 . S
H2761 C2770 0.930 . S
H2762 C2772 0.930 . S
H2763 C2775 0.929 . S
H2764 C2778 0.930 . S
H2765 C2780 0.960 . S
H2766 C2780 0.960 . S
H2767 C2780 0.960 . S
C2768 H2760 0.929 . S
C2768 C2769 1.377 . S
C2768 C2770 1.384 . S
C2769 C2768 1.377 . S
C2769 C2775 1.390 . S
C2770 H2761 0.930 . S
C2770 C2768 1.384 . S
C2770 C2771 1.372 . S
C2771 C2770 1.372 . S
C2771 C2772 1.400 . S
C2771 C2776 1.490 . S
C2772 H2762 0.930 . S
C2772 C2771 1.400 . S
C2772 C2775 1.386 . S
H2773 C2789 0.930 . S
H2774 C2790 0.931 . S
C2775 H2763 0.929 . S
C2775 C2769 1.390 . S
C2775 C2772 1.386 . S
C2776 C2771 1.490 . S
C2776 C2778 1.395 . S
C2776 C2779 1.403 . S
H2777 C2783 0.930 . S
C2778 H2764 0.930 . S
C2778 C2776 1.395 . S
C2778 C2781 1.403 . S
C2779 C2776 1.403 . S
C2779 C2780 1.524 . S
C2779 C2783 1.400 . S
C2780 H2765 0.960 . S
C2780 H2766 0.960 . S
C2780 H2767 0.960 . S
C2780 C2779 1.524 . S
C2781 C2778 1.403 . S
C2781 C2782 1.392 . S
C2781 C2785 1.495 . S
C2782 C2781 1.392 . S
C2782 C2783 1.385 . S
C2782 C2784 1.478 . S
C2783 H2777 0.930 . S
C2783 C2779 1.400 . S
C2783 C2782 1.385 . S
C2784 C2782 1.478 . S
C2784 C2786 1.381 . S
C2784 C2790 1.383 . S
C2785 C2781 1.495 . S
C2785 H2791 0.959 . S
C2785 H2792 0.961 . S
C2785 H2793 0.960 . S
C2786 C2784 1.381 . S
C2786 C2787 1.394 . S
C2786 H2794 0.930 . S
C2787 C2786 1.394 . S
C2787 C2788 1.383 . S
C2787 H2795 0.929 1_556 S
C2788 C2787 1.383 . S
C2788 C2789 1.377 . S
C2789 H2773 0.930 . S
C2789 C2788 1.377 . S
C2789 C2790 1.379 . S
C2790 H2774 0.931 . S
C2790 C2784 1.383 . S
C2790 C2789 1.379 . S
H2791 C2785 0.959 . S
H2792 C2785 0.961 . S
H2793 C2785 0.960 . S
H2794 C2786 0.930 . S
H2795 C2787 0.929 1_554 S
H2796 C2804 0.929 . S
H2797 C2806 0.930 . S
H2798 C2808 0.930 . S
H2799 C2811 0.929 . S
H2800 C2814 0.930 . S
H2801 C2816 0.960 . S
H2802 C2816 0.960 . S
H2803 C2816 0.960 . S
C2804 H2796 0.929 . S
C2804 C2805 1.377 . S
C2804 C2806 1.384 . S
C2805 C2804 1.377 . S
C2805 C2811 1.390 . S
C2806 H2797 0.930 . S
C2806 C2804 1.384 . S
C2806 C2807 1.372 . S
C2807 C2806 1.372 . S
C2807 C2808 1.400 . S
C2807 C2812 1.490 . S
C2808 H2798 0.930 . S
C2808 C2807 1.400 . S
C2808 C2811 1.386 . S
H2809 C2825 0.930 . S
H2810 C2826 0.931 . S
C2811 H2799 0.929 . S
C2811 C2805 1.390 . S
C2811 C2808 1.386 . S
C2812 C2807 1.490 . S
C2812 C2814 1.395 . S
C2812 C2815 1.403 . S
H2813 C2819 0.930 . S
C2814 H2800 0.930 . S
C2814 C2812 1.395 . S
C2814 C2817 1.403 . S
C2815 C2812 1.403 . S
C2815 C2816 1.524 . S
C2815 C2819 1.400 . S
C2816 H2801 0.960 . S
C2816 H2802 0.960 . S
C2816 H2803 0.960 . S
C2816 C2815 1.524 . S
C2817 C2814 1.403 . S
C2817 C2818 1.392 . S
C2817 C2821 1.495 . S
C2818 C2817 1.392 . S
C2818 C2819 1.385 . S
C2818 C2820 1.478 . S
C2819 H2813 0.930 . S
C2819 C2815 1.400 . S
C2819 C2818 1.385 . S
C2820 C2818 1.478 . S
C2820 C2822 1.381 . S
C2820 C2826 1.383 . S
C2821 C2817 1.495 . S
C2821 H2827 0.959 . S
C2821 H2828 0.961 . S
C2821 H2829 0.960 . S
C2822 C2820 1.381 . S
C2822 C2823 1.394 . S
C2822 H2830 0.930 . S
C2823 C2822 1.394 . S
C2823 C2824 1.383 . S
C2823 H2831 0.929 . S
C2824 C2823 1.383 . S
C2824 C2825 1.377 . S
C2825 H2809 0.930 . S
C2825 C2824 1.377 . S
C2825 C2826 1.379 . S
C2826 H2810 0.931 . S
C2826 C2820 1.383 . S
C2826 C2825 1.379 . S
H2827 C2821 0.959 . S
H2828 C2821 0.961 . S
H2829 C2821 0.960 . S
H2830 C2822 0.930 . S
H2831 C2823 0.929 . S
H2832 C2840 0.929 . S
H2833 C2842 0.930 . S
H2834 C2844 0.930 . S
H2835 C2847 0.929 . S
H2836 C2850 0.930 . S
H2837 C2852 0.960 . S
H2838 C2852 0.960 . S
H2839 C2852 0.960 . S
C2840 H2832 0.929 . S
C2840 C2841 1.377 . S
C2840 C2842 1.384 . S
C2841 C2840 1.377 . S
C2841 C2847 1.390 . S
C2842 H2833 0.930 . S
C2842 C2840 1.384 . S
C2842 C2843 1.372 . S
C2843 C2842 1.372 . S
C2843 C2844 1.400 . S
C2843 C2848 1.490 . S
C2844 H2834 0.930 . S
C2844 C2843 1.400 . S
C2844 C2847 1.386 . S
H2845 C2861 0.930 . S
H2846 C2862 0.931 . S
C2847 H2835 0.929 . S
C2847 C2841 1.390 . S
C2847 C2844 1.386 . S
C2848 C2843 1.490 . S
C2848 C2850 1.395 . S
C2848 C2851 1.403 . S
H2849 C2855 0.930 . S
C2850 H2836 0.930 . S
C2850 C2848 1.395 . S
C2850 C2853 1.403 . S
C2851 C2848 1.403 . S
C2851 C2852 1.524 . S
C2851 C2855 1.400 . S
C2852 H2837 0.960 . S
C2852 H2838 0.960 . S
C2852 H2839 0.960 . S
C2852 C2851 1.524 . S
C2853 C2850 1.403 . S
C2853 C2854 1.392 . S
C2853 C2857 1.495 . S
C2854 C2853 1.392 . S
C2854 C2855 1.385 . S
C2854 C2856 1.478 . S
C2855 H2849 0.930 . S
C2855 C2851 1.400 . S
C2855 C2854 1.385 . S
C2856 C2854 1.478 . S
C2856 C2858 1.381 . S
C2856 C2862 1.383 . S
C2857 C2853 1.495 . S
C2857 H2863 0.959 . S
C2857 H2864 0.961 . S
C2857 H2865 0.960 . S
C2858 C2856 1.381 . S
C2858 C2859 1.394 . S
C2858 H2866 0.930 1_545 S
C2859 C2858 1.394 . S
C2859 C2860 1.383 . S
C2859 H2867 0.929 1_545 S
C2860 C2859 1.383 . S
C2860 C2861 1.377 . S
C2861 H2845 0.930 . S
C2861 C2860 1.377 . S
C2861 C2862 1.379 . S
C2862 H2846 0.931 . S
C2862 C2856 1.383 . S
C2862 C2861 1.379 . S
H2863 C2857 0.959 . S
H2864 C2857 0.961 . S
H2865 C2857 0.960 . S
H2866 C2858 0.930 1_565 S
H2867 C2859 0.929 1_565 S
H2868 C2876 0.929 . S
H2869 C2878 0.930 . S
H2870 C2880 0.930 . S
H2871 C2883 0.929 . S
H2872 C2886 0.930 . S
H2873 C2888 0.960 . S
H2874 C2888 0.960 . S
H2875 C2888 0.960 . S
C2876 H2868 0.929 . S
C2876 C2877 1.377 . S
C2876 C2878 1.384 . S
C2877 C2876 1.377 . S
C2877 C2883 1.390 . S
C2878 H2869 0.930 . S
C2878 C2876 1.384 . S
C2878 C2879 1.372 . S
C2879 C2878 1.372 . S
C2879 C2880 1.400 . S
C2879 C2884 1.490 . S
C2880 H2870 0.930 . S
C2880 C2879 1.400 . S
C2880 C2883 1.386 . S
H2881 C2897 0.930 . S
H2882 C2898 0.931 . S
C2883 H2871 0.929 . S
C2883 C2877 1.390 . S
C2883 C2880 1.386 . S
C2884 C2879 1.490 . S
C2884 C2886 1.395 . S
C2884 C2887 1.403 . S
H2885 C2891 0.930 . S
C2886 H2872 0.930 . S
C2886 C2884 1.395 . S
C2886 C2889 1.403 . S
C2887 C2884 1.403 . S
C2887 C2888 1.524 . S
C2887 C2891 1.400 . S
C2888 H2873 0.960 . S
C2888 H2874 0.960 . S
C2888 H2875 0.960 . S
C2888 C2887 1.524 . S
C2889 C2886 1.403 . S
C2889 C2890 1.392 . S
C2889 C2893 1.495 . S
C2890 C2889 1.392 . S
C2890 C2891 1.385 . S
C2890 C2892 1.478 . S
C2891 H2885 0.930 . S
C2891 C2887 1.400 . S
C2891 C2890 1.385 . S
C2892 C2890 1.478 . S
C2892 C2894 1.381 . S
C2892 C2898 1.383 . S
C2893 C2889 1.495 . S
C2893 H2899 0.959 . S
C2893 H2900 0.961 . S
C2893 H2901 0.960 . S
C2894 C2892 1.381 . S
C2894 C2895 1.394 . S
C2894 H2902 0.930 . S
C2895 C2894 1.394 . S
C2895 C2896 1.383 . S
C2895 H2903 0.929 . S
C2896 C2895 1.383 . S
C2896 C2897 1.377 . S
C2897 H2881 0.930 . S
C2897 C2896 1.377 . S
C2897 C2898 1.379 . S
C2898 H2882 0.931 . S
C2898 C2892 1.383 . S
C2898 C2897 1.379 . S
H2899 C2893 0.959 . S
H2900 C2893 0.961 . S
H2901 C2893 0.960 . S
H2902 C2894 0.930 . S
H2903 C2895 0.929 . S
H2904 C2912 0.941 . S
H2905 C2914 0.930 . S
H2906 C2916 0.930 . S
H2907 C2919 0.929 . S
H2908 C2922 0.930 . S
H2909 C2924 0.960 . S
H2910 C2924 0.960 . S
H2911 C2924 0.960 . S
C2912 H2904 0.941 . S
C2912 C2913 1.377 . S
C2912 C2914 1.384 . S
C2913 C2912 1.377 . S
C2913 C2919 1.390 . S
C2914 H2905 0.930 . S
C2914 C2912 1.384 . S
C2914 C2915 1.372 . S
C2915 C2914 1.372 . S
C2915 C2916 1.400 . S
C2915 C2920 1.490 . S
C2916 H2906 0.930 . S
C2916 C2915 1.400 . S
C2916 C2919 1.386 . S
H2917 C2933 0.930 . S
H2918 C2934 0.931 . S
C2919 H2907 0.929 . S
C2919 C2913 1.390 . S
C2919 C2916 1.386 . S
C2920 C2915 1.490 . S
C2920 C2922 1.395 . S
C2920 C2923 1.403 . S
H2921 C2927 0.930 1_565 S
C2922 H2908 0.930 . S
C2922 C2920 1.395 . S
C2922 C2925 1.403 . S
C2923 C2920 1.403 . S
C2923 C2924 1.524 1_545 S
C2923 C2927 1.400 . S
C2924 H2909 0.960 . S
C2924 H2910 0.960 . S
C2924 H2911 0.960 . S
C2924 C2923 1.524 1_565 S
C2925 C2922 1.403 . S
C2925 C2926 1.392 . S
C2925 C2929 1.495 . S
C2926 C2925 1.392 . S
C2926 C2927 1.385 . S
C2926 C2928 1.478 . S
C2927 H2921 0.930 1_545 S
C2927 C2923 1.400 . S
C2927 C2926 1.385 . S
C2928 C2926 1.478 . S
C2928 C2930 1.381 . S
C2928 C2934 1.383 . S
C2929 C2925 1.495 . S
C2929 H2935 0.959 . S
C2929 H2936 0.961 . S
C2929 H2937 0.960 . S
C2930 C2928 1.381 . S
C2930 C2931 1.394 . S
C2930 H2938 0.930 . S
C2931 C2930 1.394 . S
C2931 C2932 1.383 . S
C2931 H2939 0.929 . S
C2932 C2931 1.383 . S
C2932 C2933 1.377 . S
C2933 H2917 0.930 . S
C2933 C2932 1.377 . S
C2933 C2934 1.379 . S
C2934 H2918 0.931 . S
C2934 C2928 1.383 . S
C2934 C2933 1.379 . S
H2935 C2929 0.959 . S
H2936 C2929 0.961 . S
H2937 C2929 0.960 . S
H2938 C2930 0.930 . S
H2939 C2931 0.929 . S
H2940 C2948 0.929 . S
H2941 C2950 0.930 . S
H2942 C2952 0.930 . S
H2943 C2955 0.929 . S
H2944 C2958 0.930 . S
H2945 C2960 0.960 . S
H2946 C2960 0.960 . S
H2947 C2960 0.960 . S
C2948 H2940 0.929 . S
C2948 C2949 1.377 . S
C2948 C2950 1.384 . S
C2949 C2948 1.377 . S
C2949 C2955 1.390 . S
C2950 H2941 0.930 . S
C2950 C2948 1.384 . S
C2950 C2951 1.372 . S
C2951 C2950 1.372 . S
C2951 C2952 1.400 . S
C2951 C2956 1.490 . S
C2952 H2942 0.930 . S
C2952 C2951 1.400 . S
C2952 C2955 1.386 . S
H2953 C2969 0.930 . S
H2954 C2970 0.931 . S
C2955 H2943 0.929 . S
C2955 C2949 1.390 . S
C2955 C2952 1.386 . S
C2956 C2951 1.490 . S
C2956 C2958 1.395 . S
C2956 C2959 1.403 . S
H2957 C2963 0.930 . S
C2958 H2944 0.930 . S
C2958 C2956 1.395 . S
C2958 C2961 1.403 . S
C2959 C2956 1.403 . S
C2959 C2960 1.524 . S
C2959 C2963 1.400 . S
C2960 H2945 0.960 . S
C2960 H2946 0.960 . S
C2960 H2947 0.960 . S
C2960 C2959 1.524 . S
C2961 C2958 1.403 . S
C2961 C2962 1.392 . S
C2961 C2965 1.495 . S
C2962 C2961 1.392 . S
C2962 C2963 1.385 . S
C2962 C2964 1.478 . S
C2963 H2957 0.930 . S
C2963 C2959 1.400 . S
C2963 C2962 1.385 . S
C2964 C2962 1.478 . S
C2964 C2966 1.381 . S
C2964 C2970 1.383 . S
C2965 C2961 1.495 . S
C2965 H2971 0.959 . S
C2965 H2972 0.961 . S
C2965 H2973 0.960 . S
C2966 C2964 1.381 . S
C2966 C2967 1.394 . S
C2966 H2974 0.930 . S
C2967 C2966 1.394 . S
C2967 C2968 1.383 . S
C2967 H2975 0.929 . S
C2968 C2967 1.383 . S
C2968 C2969 1.377 . S
C2969 H2953 0.930 . S
C2969 C2968 1.377 . S
C2969 C2970 1.379 . S
C2970 H2954 0.931 . S
C2970 C2964 1.383 . S
C2970 C2969 1.379 . S
H2971 C2965 0.959 . S
H2972 C2965 0.961 . S
H2973 C2965 0.960 . S
H2974 C2966 0.930 . S
H2975 C2967 0.929 . S
H2976 C2984 0.929 . S
H2977 C2986 0.930 . S
H2978 C2988 0.930 . S
H2979 C2991 0.929 . S
H2980 C2994 0.930 1_565 S
H2981 C2996 0.960 . S
H2982 C2996 0.960 . S
H2983 C2996 0.960 . S
C2984 H2976 0.929 . S
C2984 C2985 1.377 . S
C2984 C2986 1.384 . S
C2985 C2984 1.377 . S
C2985 C2991 1.390 . S
C2986 H2977 0.930 . S
C2986 C2984 1.384 . S
C2986 C2987 1.372 . S
C2987 C2986 1.372 . S
C2987 C2988 1.400 . S
C2987 C2992 1.490 . S
C2988 H2978 0.930 . S
C2988 C2987 1.400 . S
C2988 C2991 1.386 . S
H2989 C3005 0.930 . S
H2990 C3006 0.931 . S
C2991 H2979 0.929 . S
C2991 C2985 1.390 . S
C2991 C2988 1.386 . S
C2992 C2987 1.490 . S
C2992 C2994 1.395 . S
C2992 C2995 1.403 . S
H2993 C2999 0.930 . S
C2994 H2980 0.930 1_545 S
C2994 C2992 1.395 . S
C2994 C2997 1.403 . S
C2995 C2992 1.403 . S
C2995 C2996 1.524 . S
C2995 C2999 1.400 . S
C2996 H2981 0.960 . S
C2996 H2982 0.960 . S
C2996 H2983 0.960 . S
C2996 C2995 1.524 . S
C2997 C2994 1.403 . S
C2997 C2998 1.392 . S
C2997 C3001 1.495 1_545 S
C2998 C2997 1.392 . S
C2998 C2999 1.385 . S
C2998 C3000 1.478 . S
C2999 H2993 0.930 . S
C2999 C2995 1.400 . S
C2999 C2998 1.385 . S
C3000 C2998 1.478 . S
C3000 C3002 1.381 . S
C3000 C3006 1.383 . S
C3001 C2997 1.495 1_565 S
C3001 H3007 0.959 . S
C3001 H3008 0.961 . S
C3001 H3009 0.960 . S
C3002 C3000 1.381 . S
C3002 C3003 1.394 . S
C3002 H3010 0.930 . S
C3003 C3002 1.394 . S
C3003 C3004 1.383 . S
C3003 H3011 0.929 . S
C3004 C3003 1.383 . S
C3004 C3005 1.377 . S
C3005 H2989 0.930 . S
C3005 C3004 1.377 . S
C3005 C3006 1.379 . S
C3006 H2990 0.931 . S
C3006 C3000 1.383 . S
C3006 C3005 1.379 . S
H3007 C3001 0.959 . S
H3008 C3001 0.961 . S
H3009 C3001 0.960 . S
H3010 C3002 0.930 . S
H3011 C3003 0.929 . S
H3012 C3020 0.929 . S
H3013 C3022 0.930 . S
H3014 C3024 0.930 . S
H3015 C3027 0.929 . S
H3016 C3030 0.930 . S
H3017 C3032 0.960 . S
H3018 C3032 0.960 . S
H3019 C3032 0.960 . S
C3020 H3012 0.929 . S
C3020 C3021 1.377 . S
C3020 C3022 1.384 . S
C3021 C3020 1.377 . S
C3021 C3027 1.390 . S
C3022 H3013 0.930 . S
C3022 C3020 1.384 . S
C3022 C3023 1.372 . S
C3023 C3022 1.372 . S
C3023 C3024 1.400 . S
C3023 C3028 1.490 . S
C3024 H3014 0.930 . S
C3024 C3023 1.400 . S
C3024 C3027 1.386 . S
H3025 C3041 0.930 . S
H3026 C3042 0.931 . S
C3027 H3015 0.929 . S
C3027 C3021 1.390 . S
C3027 C3024 1.386 . S
C3028 C3023 1.490 . S
C3028 C3030 1.395 . S
C3028 C3031 1.403 . S
H3029 C3035 0.930 . S
C3030 H3016 0.930 . S
C3030 C3028 1.395 . S
C3030 C3033 1.403 . S
C3031 C3028 1.403 . S
C3031 C3032 1.524 . S
C3031 C3035 1.400 . S
C3032 H3017 0.960 . S
C3032 H3018 0.960 . S
C3032 H3019 0.960 . S
C3032 C3031 1.524 . S
C3033 C3030 1.403 . S
C3033 C3034 1.392 . S
C3033 C3037 1.495 . S
C3034 C3033 1.392 . S
C3034 C3035 1.385 . S
C3034 C3036 1.478 . S
C3035 H3029 0.930 . S
C3035 C3031 1.400 . S
C3035 C3034 1.385 . S
C3036 C3034 1.478 . S
C3036 C3038 1.381 . S
C3036 C3042 1.383 . S
C3037 C3033 1.495 . S
C3037 H3043 0.959 . S
C3037 H3044 0.961 . S
C3037 H3045 0.960 . S
C3038 C3036 1.381 . S
C3038 C3039 1.394 . S
C3038 H3046 0.930 . S
C3039 C3038 1.394 . S
C3039 C3040 1.383 . S
C3039 H3047 0.929 . S
C3040 C3039 1.383 . S
C3040 C3041 1.377 . S
C3041 H3025 0.930 . S
C3041 C3040 1.377 . S
C3041 C3042 1.379 . S
C3042 H3026 0.931 . S
C3042 C3036 1.383 . S
C3042 C3041 1.379 . S
H3043 C3037 0.959 . S
H3044 C3037 0.961 . S
H3045 C3037 0.960 . S
H3046 C3038 0.930 . S
H3047 C3039 0.929 . S
H3048 C3056 0.929 . S
H3049 C3058 0.930 . S
H3050 C3060 0.930 . S
H3051 C3063 0.929 . S
H3052 C3066 0.930 . S
H3053 C3068 0.960 . S
H3054 C3068 0.960 . S
H3055 C3068 0.960 . S
C3056 H3048 0.929 . S
C3056 C3057 1.377 . S
C3056 C3058 1.384 . S
C3057 C3056 1.377 . S
C3057 C3063 1.390 1_545 S
C3058 H3049 0.930 . S
C3058 C3056 1.384 . S
C3058 C3059 1.372 . S
C3059 C3058 1.372 . S
C3059 C3060 1.400 1_545 S
C3059 C3064 1.490 . S
C3060 H3050 0.930 . S
C3060 C3059 1.400 1_565 S
C3060 C3063 1.386 . S
H3061 C3077 0.930 . S
H3062 C3078 0.931 . S
C3063 H3051 0.929 . S
C3063 C3057 1.390 1_565 S
C3063 C3060 1.386 . S
C3064 C3059 1.490 . S
C3064 C3066 1.395 . S
C3064 C3067 1.403 . S
H3065 C3071 0.930 . S
C3066 H3052 0.930 . S
C3066 C3064 1.395 . S
C3066 C3069 1.403 . S
C3067 C3064 1.403 . S
C3067 C3068 1.524 . S
C3067 C3071 1.400 . S
C3068 H3053 0.960 . S
C3068 H3054 0.960 . S
C3068 H3055 0.960 . S
C3068 C3067 1.524 . S
C3069 C3066 1.403 . S
C3069 C3070 1.392 . S
C3069 C3073 1.495 . S
C3070 C3069 1.392 . S
C3070 C3071 1.385 . S
C3070 C3072 1.478 . S
C3071 H3065 0.930 . S
C3071 C3067 1.400 . S
C3071 C3070 1.385 . S
C3072 C3070 1.478 . S
C3072 C3074 1.381 . S
C3072 C3078 1.383 1_545 S
C3073 C3069 1.495 . S
C3073 H3079 0.959 . S
C3073 H3080 0.961 1_545 S
C3073 H3081 0.960 . S
C3074 C3072 1.381 . S
C3074 C3075 1.394 . S
C3074 H3082 0.930 . S
C3075 C3074 1.394 . S
C3075 C3076 1.383 . S
C3075 H3083 0.929 . S
C3076 C3075 1.383 . S
C3076 C3077 1.377 1_545 S
C3077 H3061 0.930 . S
C3077 C3076 1.377 1_565 S
C3077 C3078 1.379 . S
C3078 H3062 0.931 . S
C3078 C3072 1.383 1_565 S
C3078 C3077 1.379 . S
H3079 C3073 0.959 . S
H3080 C3073 0.961 1_565 S
H3081 C3073 0.960 . S
H3082 C3074 0.930 . S
H3083 C3075 0.929 . S
H3084 C3092 0.929 . S
H3085 C3094 0.930 . S
H3086 C3096 0.930 . S
H3087 C3099 0.929 . S
H3088 C3102 0.930 . S
H3089 C3104 0.960 . S
H3090 C3104 0.960 . S
H3091 C3104 0.960 . S
C3092 H3084 0.929 . S
C3092 C3093 1.377 . S
C3092 C3094 1.384 . S
C3093 C3092 1.377 . S
C3093 C3099 1.390 . S
C3094 H3085 0.930 . S
C3094 C3092 1.384 . S
C3094 C3095 1.372 . S
C3095 C3094 1.372 . S
C3095 C3096 1.400 . S
C3095 C3100 1.490 . S
C3096 H3086 0.930 . S
C3096 C3095 1.400 . S
C3096 C3099 1.386 . S
H3097 C3113 0.930 . S
H3098 C3114 0.931 . S
C3099 H3087 0.929 . S
C3099 C3093 1.390 . S
C3099 C3096 1.386 . S
C3100 C3095 1.490 . S
C3100 C3102 1.395 . S
C3100 C3103 1.403 . S
H3101 C3107 0.930 . S
C3102 H3088 0.930 . S
C3102 C3100 1.395 . S
C3102 C3105 1.403 . S
C3103 C3100 1.403 . S
C3103 C3104 1.524 . S
C3103 C3107 1.400 . S
C3104 H3089 0.960 . S
C3104 H3090 0.960 . S
C3104 H3091 0.960 . S
C3104 C3103 1.524 . S
C3105 C3102 1.403 . S
C3105 C3106 1.392 . S
C3105 C3109 1.495 . S
C3106 C3105 1.392 . S
C3106 C3107 1.385 . S
C3106 C3108 1.478 . S
C3107 H3101 0.930 . S
C3107 C3103 1.400 . S
C3107 C3106 1.385 . S
C3108 C3106 1.478 . S
C3108 C3110 1.381 . S
C3108 C3114 1.383 . S
C3109 C3105 1.495 . S
C3109 H3115 0.959 . S
C3109 H3116 0.961 . S
C3109 H3117 0.960 . S
C3110 C3108 1.381 . S
C3110 C3111 1.394 . S
C3110 H3118 0.930 . S
C3111 C3110 1.394 . S
C3111 C3112 1.383 . S
C3111 H3119 0.929 . S
C3112 C3111 1.383 . S
C3112 C3113 1.377 . S
C3113 H3097 0.930 . S
C3113 C3112 1.377 . S
C3113 C3114 1.379 . S
C3114 H3098 0.931 . S
C3114 C3108 1.383 . S
C3114 C3113 1.379 . S
H3115 C3109 0.959 . S
H3116 C3109 0.961 . S
H3117 C3109 0.960 . S
H3118 C3110 0.930 . S
H3119 C3111 0.929 . S
H3120 C3128 0.929 . S
H3121 C3130 0.930 . S
H3122 C3132 0.930 . S
H3123 C3135 0.929 . S
H3124 C3138 0.930 . S
H3125 C3140 0.960 . S
H3126 C3140 0.960 . S
H3127 C3140 0.960 . S
C3128 H3120 0.929 . S
C3128 C3129 1.377 . S
C3128 C3130 1.384 . S
C3129 C3128 1.377 . S
C3129 C3135 1.390 . S
C3130 H3121 0.930 . S
C3130 C3128 1.384 . S
C3130 C3131 1.372 . S
C3131 C3130 1.372 . S
C3131 C3132 1.400 . S
C3131 C3136 1.490 . S
C3132 H3122 0.930 . S
C3132 C3131 1.400 . S
C3132 C3135 1.386 . S
H3133 C3149 0.930 . S
H3134 C3150 0.931 . S
C3135 H3123 0.929 . S
C3135 C3129 1.390 . S
C3135 C3132 1.386 . S
C3136 C3131 1.490 . S
C3136 C3138 1.395 . S
C3136 C3139 1.403 . S
H3137 C3143 0.930 . S
C3138 H3124 0.930 . S
C3138 C3136 1.395 . S
C3138 C3141 1.403 . S
C3139 C3136 1.403 . S
C3139 C3140 1.524 . S
C3139 C3143 1.400 . S
C3140 H3125 0.960 . S
C3140 H3126 0.960 . S
C3140 H3127 0.960 . S
C3140 C3139 1.524 . S
C3141 C3138 1.403 . S
C3141 C3142 1.392 . S
C3141 C3145 1.495 . S
C3142 C3141 1.392 . S
C3142 C3143 1.385 . S
C3142 C3144 1.478 . S
C3143 H3137 0.930 . S
C3143 C3139 1.400 . S
C3143 C3142 1.385 . S
C3144 C3142 1.478 . S
C3144 C3146 1.381 . S
C3144 C3150 1.383 . S
C3145 C3141 1.495 . S
C3145 H3151 0.959 . S
C3145 H3152 0.961 . S
C3145 H3153 0.960 . S
C3146 C3144 1.381 . S
C3146 C3147 1.394 . S
C3146 H3154 0.930 . S
C3147 C3146 1.394 . S
C3147 C3148 1.383 . S
C3147 H3155 0.905 1_554 S
C3148 C3147 1.383 . S
C3148 C3149 1.377 . S
C3149 H3133 0.930 . S
C3149 C3148 1.377 . S
C3149 C3150 1.379 . S
C3150 H3134 0.931 . S
C3150 C3144 1.383 . S
C3150 C3149 1.379 . S
H3151 C3145 0.959 . S
H3152 C3145 0.961 . S
H3153 C3145 0.960 . S
H3154 C3146 0.930 . S
H3155 C3147 0.905 1_556 S
H3156 C3164 0.929 . S
H3157 C3166 0.930 . S
H3158 C3168 0.930 . S
H3159 C3171 0.929 . S
H3160 C3174 0.930 . S
H3161 C3176 0.960 . S
H3162 C3176 0.960 . S
H3163 C3176 0.960 . S
C3164 H3156 0.929 . S
C3164 C3165 1.377 . S
C3164 C3166 1.384 . S
C3165 C3164 1.377 . S
C3165 C3171 1.390 . S
C3166 H3157 0.930 . S
C3166 C3164 1.384 . S
C3166 C3167 1.372 . S
C3167 C3166 1.372 . S
C3167 C3168 1.400 . S
C3167 C3172 1.490 . S
C3168 H3158 0.930 . S
C3168 C3167 1.400 . S
C3168 C3171 1.386 . S
H3169 C3185 0.930 1_556 S
H3170 C3186 0.934 . S
C3171 H3159 0.929 . S
C3171 C3165 1.390 . S
C3171 C3168 1.386 . S
C3172 C3167 1.490 . S
C3172 C3174 1.395 . S
C3172 C3175 1.403 . S
H3173 C3179 0.930 . S
C3174 H3160 0.930 . S
C3174 C3172 1.395 . S
C3174 C3177 1.403 . S
C3175 C3172 1.403 . S
C3175 C3176 1.524 . S
C3175 C3179 1.400 . S
C3176 H3161 0.960 . S
C3176 H3162 0.960 . S
C3176 H3163 0.960 . S
C3176 C3175 1.524 . S
C3177 C3174 1.403 . S
C3177 C3178 1.392 . S
C3177 C3181 1.495 . S
C3178 C3177 1.392 . S
C3178 C3179 1.385 . S
C3178 C3180 1.478 . S
C3179 H3173 0.930 . S
C3179 C3175 1.400 . S
C3179 C3178 1.385 . S
C3180 C3178 1.478 . S
C3180 C3182 1.381 . S
C3180 C3186 1.383 . S
C3181 C3177 1.495 . S
C3181 H3187 0.959 . S
C3181 H3188 0.961 . S
C3181 H3189 0.960 . S
C3182 C3180 1.381 . S
C3182 C3183 1.394 . S
C3182 H3190 0.930 . S
C3183 C3182 1.394 . S
C3183 C3184 1.383 . S
C3183 H3191 0.929 . S
C3184 C3183 1.383 . S
C3184 C3185 1.377 . S
C3185 H3169 0.930 1_554 S
C3185 C3184 1.377 . S
C3185 C3186 1.379 . S
C3186 H3170 0.934 . S
C3186 C3180 1.383 . S
C3186 C3185 1.379 . S
H3187 C3181 0.959 . S
H3188 C3181 0.961 . S
H3189 C3181 0.960 . S
H3190 C3182 0.930 . S
H3191 C3183 0.929 . S
H3192 C3200 0.929 . S
H3193 C3202 0.930 . S
H3194 C3204 0.930 . S
H3195 C3207 0.929 . S
H3196 C3210 0.930 . S
H3197 C3212 0.960 . S
H3198 C3212 0.960 . S
H3199 C3212 0.960 . S
C3200 H3192 0.929 . S
C3200 C3201 1.377 . S
C3200 C3202 1.384 . S
C3201 C3200 1.377 . S
C3201 C3207 1.390 . S
C3202 H3193 0.930 . S
C3202 C3200 1.384 . S
C3202 C3203 1.372 . S
C3203 C3202 1.372 . S
C3203 C3204 1.400 . S
C3203 C3208 1.490 . S
C3204 H3194 0.930 . S
C3204 C3203 1.400 . S
C3204 C3207 1.386 . S
H3205 C3221 0.930 . S
H3206 C3222 0.931 . S
C3207 H3195 0.929 . S
C3207 C3201 1.390 . S
C3207 C3204 1.386 . S
C3208 C3203 1.490 . S
C3208 C3210 1.395 . S
C3208 C3211 1.403 . S
H3209 C3215 0.930 . S
C3210 H3196 0.930 . S
C3210 C3208 1.395 . S
C3210 C3213 1.403 . S
C3211 C3208 1.403 . S
C3211 C3212 1.524 . S
C3211 C3215 1.400 . S
C3212 H3197 0.960 . S
C3212 H3198 0.960 . S
C3212 H3199 0.960 . S
C3212 C3211 1.524 . S
C3213 C3210 1.403 . S
C3213 C3214 1.392 . S
C3213 C3217 1.495 . S
C3214 C3213 1.392 . S
C3214 C3215 1.385 . S
C3214 C3216 1.478 . S
C3215 H3209 0.930 . S
C3215 C3211 1.400 . S
C3215 C3214 1.385 . S
C3216 C3214 1.478 . S
C3216 C3218 1.381 . S
C3216 C3222 1.383 . S
C3217 C3213 1.495 . S
C3217 H3223 0.959 . S
C3217 H3224 0.961 . S
C3217 H3225 0.960 . S
C3218 C3216 1.381 . S
C3218 C3219 1.394 . S
C3218 H3226 0.930 . S
C3219 C3218 1.394 . S
C3219 C3220 1.383 . S
C3219 H3227 0.929 . S
C3220 C3219 1.383 . S
C3220 C3221 1.377 . S
C3221 H3205 0.930 . S
C3221 C3220 1.377 . S
C3221 C3222 1.379 . S
C3222 H3206 0.931 . S
C3222 C3216 1.383 . S
C3222 C3221 1.379 . S
H3223 C3217 0.959 . S
H3224 C3217 0.961 . S
H3225 C3217 0.960 . S
H3226 C3218 0.930 . S
H3227 C3219 0.929 . S
H3228 C3236 0.929 . S
H3229 C3238 0.930 . S
H3230 C3240 0.930 . S
H3231 C3243 0.929 . S
H3232 C3246 0.930 . S
H3233 C3248 0.960 . S
H3234 C3248 0.960 . S
H3235 C3248 0.960 . S
C3236 H3228 0.929 . S
C3236 C3237 1.377 . S
C3236 C3238 1.384 . S
C3237 C3236 1.377 . S
C3237 C3243 1.390 . S
C3238 H3229 0.930 . S
C3238 C3236 1.384 . S
C3238 C3239 1.372 . S
C3239 C3238 1.372 . S
C3239 C3240 1.400 . S
C3239 C3244 1.490 . S
C3240 H3230 0.930 . S
C3240 C3239 1.400 . S
C3240 C3243 1.386 . S
H3241 C3257 0.930 . S
H3242 C3258 0.931 . S
C3243 H3231 0.929 . S
C3243 C3237 1.390 . S
C3243 C3240 1.386 . S
C3244 C3239 1.490 . S
C3244 C3246 1.395 . S
C3244 C3247 1.403 . S
H3245 C3251 0.930 . S
C3246 H3232 0.930 . S
C3246 C3244 1.395 . S
C3246 C3249 1.403 . S
C3247 C3244 1.403 . S
C3247 C3248 1.524 . S
C3247 C3251 1.400 . S
C3248 H3233 0.960 . S
C3248 H3234 0.960 . S
C3248 H3235 0.960 . S
C3248 C3247 1.524 . S
C3249 C3246 1.403 . S
C3249 C3250 1.392 . S
C3249 C3253 1.495 . S
C3250 C3249 1.392 . S
C3250 C3251 1.385 . S
C3250 C3252 1.478 . S
C3251 H3245 0.930 . S
C3251 C3247 1.400 . S
C3251 C3250 1.385 . S
C3252 C3250 1.478 . S
C3252 C3254 1.381 . S
C3252 C3258 1.383 . S
C3253 C3249 1.495 . S
C3253 H3259 0.959 . S
C3253 H3260 0.961 . S
C3253 H3261 0.960 . S
C3254 C3252 1.381 . S
C3254 C3255 1.394 . S
C3254 H3262 0.930 . S
C3255 C3254 1.394 . S
C3255 C3256 1.383 . S
C3255 H3263 0.929 . S
C3256 C3255 1.383 . S
C3256 C3257 1.377 . S
C3257 H3241 0.930 . S
C3257 C3256 1.377 . S
C3257 C3258 1.379 . S
C3258 H3242 0.931 . S
C3258 C3252 1.383 . S
C3258 C3257 1.379 . S
H3259 C3253 0.959 . S
H3260 C3253 0.961 . S
H3261 C3253 0.960 . S
H3262 C3254 0.930 . S
H3263 C3255 0.929 . S
H3264 C3272 0.929 . S
H3265 C3274 0.930 . S
H3266 C3276 0.930 . S
H3267 C3279 0.929 1_545 S
H3268 C3282 0.930 . S
H3269 C3284 0.960 . S
H3270 C3284 0.960 . S
H3271 C3284 0.960 . S
C3272 H3264 0.929 . S
C3272 C3273 1.377 . S
C3272 C3274 1.384 . S
C3273 C3272 1.377 . S
C3273 C3279 1.390 . S
C3274 H3265 0.930 . S
C3274 C3272 1.384 . S
C3274 C3275 1.372 . S
C3275 C3274 1.372 . S
C3275 C3276 1.400 . S
C3275 C3280 1.490 . S
C3276 H3266 0.930 . S
C3276 C3275 1.400 . S
C3276 C3279 1.386 . S
H3277 C3293 0.930 . S
H3278 C3294 0.931 . S
C3279 H3267 0.929 1_565 S
C3279 C3273 1.390 . S
C3279 C3276 1.386 . S
C3280 C3275 1.490 . S
C3280 C3282 1.395 . S
C3280 C3283 1.403 . S
H3281 C3287 0.930 . S
C3282 H3268 0.930 . S
C3282 C3280 1.395 . S
C3282 C3285 1.403 . S
C3283 C3280 1.403 . S
C3283 C3284 1.524 . S
C3283 C3287 1.400 . S
C3284 H3269 0.960 . S
C3284 H3270 0.960 . S
C3284 H3271 0.960 . S
C3284 C3283 1.524 . S
C3285 C3282 1.403 . S
C3285 C3286 1.392 . S
C3285 C3289 1.495 . S
C3286 C3285 1.392 . S
C3286 C3287 1.385 . S
C3286 C3288 1.478 . S
C3287 H3281 0.930 . S
C3287 C3283 1.400 . S
C3287 C3286 1.385 . S
C3288 C3286 1.478 . S
C3288 C3290 1.381 . S
C3288 C3294 1.383 . S
C3289 C3285 1.495 . S
C3289 H3295 0.959 . S
C3289 H3296 0.961 . S
C3289 H3297 0.960 . S
C3290 C3288 1.381 . S
C3290 C3291 1.394 . S
C3290 H3298 0.930 . S
C3291 C3290 1.394 . S
C3291 C3292 1.383 . S
C3291 H3299 0.929 . S
C3292 C3291 1.383 . S
C3292 C3293 1.377 . S
C3293 H3277 0.930 . S
C3293 C3292 1.377 . S
C3293 C3294 1.379 . S
C3294 H3278 0.931 . S
C3294 C3288 1.383 . S
C3294 C3293 1.379 . S
H3295 C3289 0.959 . S
H3296 C3289 0.961 . S
H3297 C3289 0.960 . S
H3298 C3290 0.930 . S
H3299 C3291 0.929 . S
H3300 C3308 0.929 . S
H3301 C3310 0.930 . S
H3302 C3312 0.930 . S
H3303 C3315 0.929 . S
H3304 C3318 0.930 . S
H3305 C3320 0.960 . S
H3306 C3320 0.960 . S
H3307 C3320 0.960 . S
C3308 H3300 0.929 . S
C3308 C3309 1.377 . S
C3308 C3310 1.384 . S
C3309 C3308 1.377 . S
C3309 C3315 1.390 . S
C3310 H3301 0.930 . S
C3310 C3308 1.384 . S
C3310 C3311 1.372 . S
C3311 C3310 1.372 . S
C3311 C3312 1.400 . S
C3311 C3316 1.490 . S
C3312 H3302 0.930 . S
C3312 C3311 1.400 . S
C3312 C3315 1.386 . S
H3313 C3329 0.930 . S
H3314 C3330 0.931 . S
C3315 H3303 0.929 . S
C3315 C3309 1.390 . S
C3315 C3312 1.386 . S
C3316 C3311 1.490 . S
C3316 C3318 1.395 . S
C3316 C3319 1.403 . S
H3317 C3323 0.930 . S
C3318 H3304 0.930 . S
C3318 C3316 1.395 . S
C3318 C3321 1.403 . S
C3319 C3316 1.403 . S
C3319 C3320 1.524 . S
C3319 C3323 1.400 . S
C3320 H3305 0.960 . S
C3320 H3306 0.960 . S
C3320 H3307 0.960 . S
C3320 C3319 1.524 . S
C3321 C3318 1.403 . S
C3321 C3322 1.392 . S
C3321 C3325 1.495 . S
C3322 C3321 1.392 . S
C3322 C3323 1.385 . S
C3322 C3324 1.478 . S
C3323 H3317 0.930 . S
C3323 C3319 1.400 . S
C3323 C3322 1.385 . S
C3324 C3322 1.478 . S
C3324 C3326 1.381 . S
C3324 C3330 1.383 . S
C3325 C3321 1.495 . S
C3325 H3331 0.959 . S
C3325 H3332 0.961 . S
C3325 H3333 0.960 . S
C3326 C3324 1.381 . S
C3326 C3327 1.394 . S
C3326 H3334 0.930 . S
C3327 C3326 1.394 . S
C3327 C3328 1.383 . S
C3327 H3335 0.929 . S
C3328 C3327 1.383 . S
C3328 C3329 1.377 . S
C3329 H3313 0.930 . S
C3329 C3328 1.377 . S
C3329 C3330 1.379 . S
C3330 H3314 0.931 . S
C3330 C3324 1.383 . S
C3330 C3329 1.379 . S
H3331 C3325 0.959 . S
H3332 C3325 0.961 . S
H3333 C3325 0.960 . S
H3334 C3326 0.930 . S
H3335 C3327 0.929 . S
H3336 C3344 0.929 . S
H3337 C3346 0.930 . S
H3338 C3348 0.930 . S
H3339 C3351 0.929 . S
H3340 C3354 0.930 . S
H3341 C3356 0.960 . S
H3342 C3356 0.960 . S
H3343 C3356 0.960 . S
C3344 H3336 0.929 . S
C3344 C3345 1.377 . S
C3344 C3346 1.384 . S
C3345 C3344 1.377 . S
C3345 C3351 1.390 . S
C3346 H3337 0.930 . S
C3346 C3344 1.384 . S
C3346 C3347 1.372 . S
C3347 C3346 1.372 . S
C3347 C3348 1.400 . S
C3347 C3352 1.490 . S
C3348 H3338 0.930 . S
C3348 C3347 1.400 . S
C3348 C3351 1.386 . S
H3349 C3365 0.930 . S
H3350 C3366 0.931 . S
C3351 H3339 0.929 . S
C3351 C3345 1.390 . S
C3351 C3348 1.386 . S
C3352 C3347 1.490 . S
C3352 C3354 1.395 . S
C3352 C3355 1.403 . S
H3353 C3359 0.930 . S
C3354 H3340 0.930 . S
C3354 C3352 1.395 . S
C3354 C3357 1.403 . S
C3355 C3352 1.403 . S
C3355 C3356 1.524 . S
C3355 C3359 1.400 . S
C3356 H3341 0.960 . S
C3356 H3342 0.960 . S
C3356 H3343 0.960 . S
C3356 C3355 1.524 . S
C3357 C3354 1.403 . S
C3357 C3358 1.392 . S
C3357 C3361 1.495 . S
C3358 C3357 1.392 . S
C3358 C3359 1.385 . S
C3358 C3360 1.478 . S
C3359 H3353 0.930 . S
C3359 C3355 1.400 . S
C3359 C3358 1.385 . S
C3360 C3358 1.478 . S
C3360 C3362 1.381 . S
C3360 C3366 1.383 . S
C3361 C3357 1.495 . S
C3361 H3367 0.959 . S
C3361 H3368 0.961 . S
C3361 H3369 0.960 . S
C3362 C3360 1.381 . S
C3362 C3363 1.394 . S
C3362 H3370 0.930 . S
C3363 C3362 1.394 . S
C3363 C3364 1.383 . S
C3363 H3371 0.929 . S
C3364 C3363 1.383 . S
C3364 C3365 1.377 . S
C3365 H3349 0.930 . S
C3365 C3364 1.377 . S
C3365 C3366 1.379 . S
C3366 H3350 0.931 . S
C3366 C3360 1.383 . S
C3366 C3365 1.379 . S
H3367 C3361 0.959 . S
H3368 C3361 0.961 . S
H3369 C3361 0.960 . S
H3370 C3362 0.930 . S
H3371 C3363 0.929 . S
H3372 C3380 0.929 . S
H3373 C3382 0.930 . S
H3374 C3384 0.930 . S
H3375 C3387 0.929 . S
H3376 C3390 0.930 . S
H3377 C3392 0.960 . S
H3378 C3392 0.960 . S
H3379 C3392 0.960 . S
C3380 H3372 0.929 . S
C3380 C3381 1.377 . S
C3380 C3382 1.384 . S
C3381 C3380 1.377 . S
C3381 C3387 1.390 . S
C3382 H3373 0.930 . S
C3382 C3380 1.384 . S
C3382 C3383 1.372 . S
C3383 C3382 1.372 . S
C3383 C3384 1.400 . S
C3383 C3388 1.490 . S
C3384 H3374 0.930 . S
C3384 C3383 1.400 . S
C3384 C3387 1.386 . S
H3385 C3401 0.930 . S
H3386 C3402 0.931 . S
C3387 H3375 0.929 . S
C3387 C3381 1.390 . S
C3387 C3384 1.386 . S
C3388 C3383 1.490 . S
C3388 C3390 1.395 . S
C3388 C3391 1.403 . S
H3389 C3395 0.930 . S
C3390 H3376 0.930 . S
C3390 C3388 1.395 . S
C3390 C3393 1.403 . S
C3391 C3388 1.403 . S
C3391 C3392 1.524 . S
C3391 C3395 1.400 . S
C3392 H3377 0.960 . S
C3392 H3378 0.960 . S
C3392 H3379 0.960 . S
C3392 C3391 1.524 . S
C3393 C3390 1.403 . S
C3393 C3394 1.392 . S
C3393 C3397 1.495 . S
C3394 C3393 1.392 . S
C3394 C3395 1.385 . S
C3394 C3396 1.478 . S
C3395 H3389 0.930 . S
C3395 C3391 1.400 . S
C3395 C3394 1.385 . S
C3396 C3394 1.478 . S
C3396 C3398 1.381 . S
C3396 C3402 1.383 . S
C3397 C3393 1.495 . S
C3397 H3403 0.959 . S
C3397 H3404 0.961 . S
C3397 H3405 0.960 . S
C3398 C3396 1.381 . S
C3398 C3399 1.394 . S
C3398 H3406 0.930 . S
C3399 C3398 1.394 . S
C3399 C3400 1.383 . S
C3399 H3407 0.929 . S
C3400 C3399 1.383 . S
C3400 C3401 1.377 . S
C3401 H3385 0.930 . S
C3401 C3400 1.377 . S
C3401 C3402 1.379 . S
C3402 H3386 0.931 . S
C3402 C3396 1.383 . S
C3402 C3401 1.379 . S
H3403 C3397 0.959 . S
H3404 C3397 0.961 . S
H3405 C3397 0.960 . S
H3406 C3398 0.930 . S
H3407 C3399 0.929 . S
H3408 C3416 0.929 . S
H3409 C3418 0.930 . S
H3410 C3420 0.930 . S
H3411 C3423 0.929 . S
H3412 C3426 0.930 . S
H3413 C3428 0.960 . S
H3414 C3428 0.960 . S
H3415 C3428 0.960 . S
C3416 H3408 0.929 . S
C3416 C3417 1.377 . S
C3416 C3418 1.384 . S
C3417 C3416 1.377 . S
C3417 C3423 1.390 . S
C3418 H3409 0.930 . S
C3418 C3416 1.384 . S
C3418 C3419 1.372 . S
C3419 C3418 1.372 . S
C3419 C3420 1.400 . S
C3419 C3424 1.490 . S
C3420 H3410 0.930 . S
C3420 C3419 1.400 . S
C3420 C3423 1.386 . S
H3421 C3437 0.930 . S
H3422 C3438 0.931 . S
C3423 H3411 0.929 . S
C3423 C3417 1.390 . S
C3423 C3420 1.386 . S
C3424 C3419 1.490 . S
C3424 C3426 1.395 . S
C3424 C3427 1.403 . S
H3425 C3431 0.930 . S
C3426 H3412 0.930 . S
C3426 C3424 1.395 . S
C3426 C3429 1.403 . S
C3427 C3424 1.403 . S
C3427 C3428 1.524 . S
C3427 C3431 1.400 . S
C3428 H3413 0.960 . S
C3428 H3414 0.960 . S
C3428 H3415 0.960 . S
C3428 C3427 1.524 . S
C3429 C3426 1.403 . S
C3429 C3430 1.392 . S
C3429 C3433 1.495 . S
C3430 C3429 1.392 . S
C3430 C3431 1.385 . S
C3430 C3432 1.478 . S
C3431 H3425 0.930 . S
C3431 C3427 1.400 . S
C3431 C3430 1.385 . S
C3432 C3430 1.478 . S
C3432 C3434 1.381 . S
C3432 C3438 1.383 . S
C3433 C3429 1.495 . S
C3433 H3439 0.959 . S
C3433 H3440 0.961 . S
C3433 H3441 0.960 . S
C3434 C3432 1.381 . S
C3434 C3435 1.394 . S
C3434 H3442 0.930 . S
C3435 C3434 1.394 . S
C3435 C3436 1.383 . S
C3435 H3443 0.929 . S
C3436 C3435 1.383 . S
C3436 C3437 1.377 . S
C3437 H3421 0.930 . S
C3437 C3436 1.377 . S
C3437 C3438 1.379 . S
C3438 H3422 0.931 . S
C3438 C3432 1.383 . S
C3438 C3437 1.379 . S
H3439 C3433 0.959 . S
H3440 C3433 0.961 . S
H3441 C3433 0.960 . S
H3442 C3434 0.930 . S
H3443 C3435 0.929 . S
H3444 C3452 0.929 . S
H3445 C3454 0.930 . S
H3446 C3456 0.930 . S
H3447 C3459 0.929 . S
H3448 C3462 0.930 . S
H3449 C3464 0.960 . S
H3450 C3464 0.960 . S
H3451 C3464 0.960 . S
C3452 H3444 0.929 . S
C3452 C3453 1.377 . S
C3452 C3454 1.384 . S
C3453 C3452 1.377 . S
C3453 C3459 1.390 . S
C3454 H3445 0.930 . S
C3454 C3452 1.384 . S
C3454 C3455 1.372 . S
C3455 C3454 1.372 . S
C3455 C3456 1.400 . S
C3455 C3460 1.490 . S
C3456 H3446 0.930 . S
C3456 C3455 1.400 . S
C3456 C3459 1.386 . S
H3457 C3473 0.930 . S
H3458 C3474 0.931 . S
C3459 H3447 0.929 . S
C3459 C3453 1.390 . S
C3459 C3456 1.386 . S
C3460 C3455 1.490 . S
C3460 C3462 1.395 . S
C3460 C3463 1.403 . S
H3461 C3467 0.930 . S
C3462 H3448 0.930 . S
C3462 C3460 1.395 . S
C3462 C3465 1.403 . S
C3463 C3460 1.403 . S
C3463 C3464 1.524 . S
C3463 C3467 1.400 . S
C3464 H3449 0.960 . S
C3464 H3450 0.960 . S
C3464 H3451 0.960 . S
C3464 C3463 1.524 . S
C3465 C3462 1.403 . S
C3465 C3466 1.392 . S
C3465 C3469 1.495 . S
C3466 C3465 1.392 . S
C3466 C3467 1.385 . S
C3466 C3468 1.478 . S
C3467 H3461 0.930 . S
C3467 C3463 1.400 . S
C3467 C3466 1.385 . S
C3468 C3466 1.478 . S
C3468 C3470 1.381 . S
C3468 C3474 1.383 . S
C3469 C3465 1.495 . S
C3469 H3475 0.959 . S
C3469 H3476 0.961 . S
C3469 H3477 0.960 . S
C3470 C3468 1.381 . S
C3470 C3471 1.394 . S
C3470 H3478 0.930 . S
C3471 C3470 1.394 . S
C3471 C3472 1.383 . S
C3471 H3479 0.929 . S
C3472 C3471 1.383 . S
C3472 C3473 1.377 . S
C3473 H3457 0.930 . S
C3473 C3472 1.377 . S
C3473 C3474 1.379 . S
C3474 H3458 0.931 . S
C3474 C3468 1.383 . S
C3474 C3473 1.379 . S
H3475 C3469 0.959 . S
H3476 C3469 0.961 . S
H3477 C3469 0.960 . S
H3478 C3470 0.930 . S
H3479 C3471 0.929 . S
H3480 C3488 0.929 . S
H3481 C3490 0.930 . S
H3482 C3492 0.930 . S
H3483 C3495 0.929 . S
H3484 C3498 0.929 1_655 S
H3485 C3500 0.960 . S
H3486 C3500 0.960 . S
H3487 C3500 0.960 . S
C3488 H3480 0.929 . S
C3488 C3489 1.377 . S
C3488 C3490 1.384 . S
C3489 C3488 1.377 . S
C3489 C3495 1.390 1_455 S
C3490 H3481 0.930 . S
C3490 C3488 1.384 . S
C3490 C3491 1.372 . S
C3491 C3490 1.372 . S
C3491 C3492 1.400 1_455 S
C3491 C3496 1.490 . S
C3492 H3482 0.930 . S
C3492 C3491 1.400 1_655 S
C3492 C3495 1.386 . S
H3493 C3509 0.882 1_655 S
H3494 C3510 0.962 . S
C3495 H3483 0.929 . S
C3495 C3489 1.390 1_655 S
C3495 C3492 1.386 . S
C3496 C3491 1.490 . S
C3496 C3498 1.395 . S
C3496 C3499 1.403 . S
H3497 C3503 0.943 . S
C3498 H3484 0.929 1_455 S
C3498 C3496 1.395 . S
C3498 C3501 1.403 . S
C3499 C3496 1.403 . S
C3499 C3500 1.524 1_556 S
C3499 C3503 1.399 1_556 S
C3500 H3485 0.960 . S
C3500 H3486 0.960 . S
C3500 H3487 0.960 . S
C3500 C3499 1.524 1_554 S
C3501 C3498 1.403 . S
C3501 C3502 1.392 . S
C3501 C3505 1.495 1_455 S
C3502 C3501 1.392 . S
C3502 C3503 1.374 1_556 S
C3502 C3504 1.478 . S
C3503 H3497 0.943 . S
C3503 C3499 1.399 1_554 S
C3503 C3502 1.374 1_554 S
C3504 C3502 1.478 . S
C3504 C3506 1.381 . S
C3504 C3510 1.345 1_456 S
C3505 C3501 1.495 1_655 S
C3505 H3511 0.959 . S
C3505 H3512 0.961 . S
C3505 H3513 0.960 1_655 S
C3506 C3504 1.381 . S
C3506 C3507 1.394 . S
C3506 H3514 0.930 . S
C3507 C3506 1.394 . S
C3507 C3508 1.383 1_556 S
C3507 H3515 0.929 . S
C3508 C3507 1.383 1_554 S
C3508 C3509 1.415 . S
C3509 H3493 0.882 1_455 S
C3509 C3508 1.415 . S
C3509 C3510 1.403 1_455 S
C3510 H3494 0.962 . S
C3510 C3504 1.345 1_654 S
C3510 C3509 1.403 1_655 S
H3511 C3505 0.959 . S
H3512 C3505 0.961 . S
H3513 C3505 0.960 1_455 S
H3514 C3506 0.930 . S
H3515 C3507 0.929 . S
H3516 C3524 0.929 . S
H3517 C3526 0.930 . S
H3518 C3528 0.930 . S
H3519 C3531 0.914 1_455 S
H3520 C3534 0.930 . S
H3521 C3536 0.960 . S
H3522 C3536 0.960 . S
H3523 C3536 0.960 . S
C3524 H3516 0.929 . S
C3524 C3525 1.377 1_655 S
C3524 C3526 1.384 . S
C3525 C3524 1.377 1_455 S
C3525 C3531 1.390 1_455 S
C3526 H3517 0.930 . S
C3526 C3524 1.384 . S
C3526 C3527 1.372 . S
C3527 C3526 1.372 . S
C3527 C3528 1.400 . S
C3527 C3532 1.490 . S
C3528 H3518 0.930 . S
C3528 C3527 1.400 . S
C3528 C3531 1.386 . S
H3529 C3545 0.930 . S
H3530 C3546 0.931 . S
C3531 H3519 0.914 1_655 S
C3531 C3525 1.390 1_655 S
C3531 C3528 1.386 . S
C3532 C3527 1.490 . S
C3532 C3534 1.395 . S
C3532 C3535 1.403 . S
H3533 C3539 0.930 . S
C3534 H3520 0.930 . S
C3534 C3532 1.395 . S
C3534 C3537 1.403 . S
C3535 C3532 1.403 . S
C3535 C3536 1.524 . S
C3535 C3539 1.400 . S
C3536 H3521 0.960 . S
C3536 H3522 0.960 . S
C3536 H3523 0.960 . S
C3536 C3535 1.524 . S
C3537 C3534 1.403 . S
C3537 C3538 1.392 . S
C3537 C3541 1.495 . S
C3538 C3537 1.392 . S
C3538 C3539 1.385 . S
C3538 C3540 1.478 . S
C3539 H3533 0.930 . S
C3539 C3535 1.400 . S
C3539 C3538 1.385 . S
C3540 C3538 1.478 . S
C3540 C3542 1.381 . S
C3540 C3546 1.383 . S
C3541 C3537 1.495 . S
C3541 H3547 0.959 . S
C3541 H3548 0.961 . S
C3541 H3549 0.960 . S
C3542 C3540 1.381 . S
C3542 C3543 1.394 . S
C3542 H3550 0.930 . S
C3543 C3542 1.394 . S
C3543 C3544 1.383 . S
C3543 H3551 0.929 . S
C3544 C3543 1.383 . S
C3544 C3545 1.377 . S
C3545 H3529 0.930 . S
C3545 C3544 1.377 . S
C3545 C3546 1.379 . S
C3546 H3530 0.931 . S
C3546 C3540 1.383 . S
C3546 C3545 1.379 . S
H3547 C3541 0.959 . S
H3548 C3541 0.961 . S
H3549 C3541 0.960 . S
H3550 C3542 0.930 . S
H3551 C3543 0.929 . S
H3552 C3560 0.929 . S
H3553 C3562 0.930 . S
H3554 C3564 0.930 . S
H3555 C3567 0.929 . S
H3556 C3570 0.930 . S
H3557 C3572 0.960 . S
H3558 C3572 0.960 . S
H3559 C3572 0.960 . S
C3560 H3552 0.929 . S
C3560 C3561 1.377 . S
C3560 C3562 1.384 . S
C3561 C3560 1.377 . S
C3561 C3567 1.390 . S
C3562 H3553 0.930 . S
C3562 C3560 1.384 . S
C3562 C3563 1.372 . S
C3563 C3562 1.372 . S
C3563 C3564 1.400 . S
C3563 C3568 1.490 . S
C3564 H3554 0.930 . S
C3564 C3563 1.400 . S
C3564 C3567 1.386 . S
H3565 C3581 0.930 . S
H3566 C3582 0.931 . S
C3567 H3555 0.929 . S
C3567 C3561 1.390 . S
C3567 C3564 1.386 . S
C3568 C3563 1.490 . S
C3568 C3570 1.395 . S
C3568 C3571 1.403 . S
H3569 C3575 0.930 . S
C3570 H3556 0.930 . S
C3570 C3568 1.395 . S
C3570 C3573 1.403 . S
C3571 C3568 1.403 . S
C3571 C3572 1.524 . S
C3571 C3575 1.400 . S
C3572 H3557 0.960 . S
C3572 H3558 0.960 . S
C3572 H3559 0.960 . S
C3572 C3571 1.524 . S
C3573 C3570 1.403 . S
C3573 C3574 1.392 . S
C3573 C3577 1.495 . S
C3574 C3573 1.392 . S
C3574 C3575 1.385 . S
C3574 C3576 1.478 . S
C3575 H3569 0.930 . S
C3575 C3571 1.400 . S
C3575 C3574 1.385 . S
C3576 C3574 1.478 . S
C3576 C3578 1.381 . S
C3576 C3582 1.383 . S
C3577 C3573 1.495 . S
C3577 H3583 0.959 . S
C3577 H3584 0.961 . S
C3577 H3585 0.960 . S
C3578 C3576 1.381 . S
C3578 C3579 1.394 . S
C3578 H3586 0.930 . S
C3579 C3578 1.394 . S
C3579 C3580 1.383 . S
C3579 H3587 0.929 . S
C3580 C3579 1.383 . S
C3580 C3581 1.377 . S
C3581 H3565 0.930 . S
C3581 C3580 1.377 . S
C3581 C3582 1.379 . S
C3582 H3566 0.931 . S
C3582 C3576 1.383 . S
C3582 C3581 1.379 . S
H3583 C3577 0.959 . S
H3584 C3577 0.961 . S
H3585 C3577 0.960 . S
H3586 C3578 0.930 . S
H3587 C3579 0.929 . S
H3588 C3596 0.929 . S
H3589 C3598 0.930 . S
H3590 C3600 0.930 . S
H3591 C3603 0.929 . S
H3592 C3606 0.930 . S
H3593 C3608 0.960 . S
H3594 C3608 0.960 . S
H3595 C3608 0.960 . S
C3596 H3588 0.929 . S
C3596 C3597 1.377 . S
C3596 C3598 1.384 . S
C3597 C3596 1.377 . S
C3597 C3603 1.390 . S
C3598 H3589 0.930 . S
C3598 C3596 1.384 . S
C3598 C3599 1.372 . S
C3599 C3598 1.372 . S
C3599 C3600 1.400 . S
C3599 C3604 1.490 . S
C3600 H3590 0.930 . S
C3600 C3599 1.400 . S
C3600 C3603 1.386 . S
H3601 C3617 0.930 . S
H3602 C3618 0.931 . S
C3603 H3591 0.929 . S
C3603 C3597 1.390 . S
C3603 C3600 1.386 . S
C3604 C3599 1.490 . S
C3604 C3606 1.395 . S
C3604 C3607 1.403 . S
H3605 C3611 0.930 . S
C3606 H3592 0.930 . S
C3606 C3604 1.395 . S
C3606 C3609 1.403 . S
C3607 C3604 1.403 . S
C3607 C3608 1.524 . S
C3607 C3611 1.400 . S
C3608 H3593 0.960 . S
C3608 H3594 0.960 . S
C3608 H3595 0.960 . S
C3608 C3607 1.524 . S
C3609 C3606 1.403 . S
C3609 C3610 1.392 . S
C3609 C3613 1.495 . S
C3610 C3609 1.392 . S
C3610 C3611 1.385 . S
C3610 C3612 1.478 . S
C3611 H3605 0.930 . S
C3611 C3607 1.400 . S
C3611 C3610 1.385 . S
C3612 C3610 1.478 . S
C3612 C3614 1.381 . S
C3612 C3618 1.383 . S
C3613 C3609 1.495 . S
C3613 H3619 0.959 . S
C3613 H3620 0.961 . S
C3613 H3621 0.960 . S
C3614 C3612 1.381 . S
C3614 C3615 1.394 . S
C3614 H3622 0.930 . S
C3615 C3614 1.394 . S
C3615 C3616 1.383 . S
C3615 H3623 0.929 . S
C3616 C3615 1.383 . S
C3616 C3617 1.377 . S
C3617 H3601 0.930 . S
C3617 C3616 1.377 . S
C3617 C3618 1.379 . S
C3618 H3602 0.931 . S
C3618 C3612 1.383 . S
C3618 C3617 1.379 . S
H3619 C3613 0.959 . S
H3620 C3613 0.961 . S
H3621 C3613 0.960 . S
H3622 C3614 0.930 . S
H3623 C3615 0.929 . S
H3624 C3632 0.929 . S
H3625 C3634 0.930 . S
H3626 C3636 0.930 . S
H3627 C3639 0.929 . S
H3628 C3642 0.930 . S
H3629 C3644 0.960 . S
H3630 C3644 0.960 1_655 S
H3631 C3644 0.960 . S
C3632 H3624 0.929 . S
C3632 C3633 1.377 1_655 S
C3632 C3634 1.384 . S
C3633 C3632 1.377 1_455 S
C3633 C3639 1.390 . S
C3634 H3625 0.930 . S
C3634 C3632 1.384 . S
C3634 C3635 1.372 1_655 S
C3635 C3634 1.372 1_455 S
C3635 C3636 1.400 . S
C3635 C3640 1.490 . S
C3636 H3626 0.930 . S
C3636 C3635 1.400 . S
C3636 C3639 1.386 . S
H3637 C3653 0.930 . S
H3638 C3654 0.931 . S
C3639 H3627 0.929 . S
C3639 C3633 1.390 . S
C3639 C3636 1.386 . S
C3640 C3635 1.490 . S
C3640 C3642 1.395 . S
C3640 C3643 1.403 . S
H3641 C3647 0.930 . S
C3642 H3628 0.930 . S
C3642 C3640 1.395 . S
C3642 C3645 1.403 . S
C3643 C3640 1.403 . S
C3643 C3644 1.524 . S
C3643 C3647 1.400 . S
C3644 H3629 0.960 . S
C3644 H3630 0.960 1_455 S
C3644 H3631 0.960 . S
C3644 C3643 1.524 . S
C3645 C3642 1.403 . S
C3645 C3646 1.392 . S
C3645 C3649 1.495 . S
C3646 C3645 1.392 . S
C3646 C3647 1.385 . S
C3646 C3648 1.478 . S
C3647 H3641 0.930 . S
C3647 C3643 1.400 . S
C3647 C3646 1.385 . S
C3648 C3646 1.478 . S
C3648 C3650 1.403 . S
C3648 C3654 1.383 . S
C3649 C3645 1.495 . S
C3649 H3655 0.959 . S
C3649 H3656 0.961 . S
C3649 H3657 0.960 . S
C3650 C3648 1.403 . S
C3650 C3651 1.406 . S
C3650 H3658 0.897 1_455 S
C3651 C3650 1.406 . S
C3651 C3652 1.383 . S
C3651 H3659 0.929 1_455 S
C3652 C3651 1.383 . S
C3652 C3653 1.377 . S
C3653 H3637 0.930 . S
C3653 C3652 1.377 . S
C3653 C3654 1.379 . S
C3654 H3638 0.931 . S
C3654 C3648 1.383 . S
C3654 C3653 1.379 . S
H3655 C3649 0.959 . S
H3656 C3649 0.961 . S
H3657 C3649 0.960 . S
H3658 C3650 0.897 1_655 S
H3659 C3651 0.929 1_655 S
H3660 C3668 0.929 . S
H3661 C3670 0.930 . S
H3662 C3672 0.930 . S
H3663 C3675 0.929 . S
H3664 C3678 0.930 . S
H3665 C3680 0.960 . S
H3666 C3680 0.960 . S
H3667 C3680 0.960 . S
C3668 H3660 0.929 . S
C3668 C3669 1.377 . S
C3668 C3670 1.384 . S
C3669 C3668 1.377 . S
C3669 C3675 1.390 . S
C3670 H3661 0.930 . S
C3670 C3668 1.384 . S
C3670 C3671 1.372 . S
C3671 C3670 1.372 . S
C3671 C3672 1.400 . S
C3671 C3676 1.490 . S
C3672 H3662 0.930 . S
C3672 C3671 1.400 . S
C3672 C3675 1.386 . S
H3673 C3689 0.930 . S
H3674 C3690 0.931 . S
C3675 H3663 0.929 . S
C3675 C3669 1.390 . S
C3675 C3672 1.386 . S
C3676 C3671 1.490 . S
C3676 C3678 1.395 . S
C3676 C3679 1.403 . S
H3677 C3683 0.930 . S
C3678 H3664 0.930 . S
C3678 C3676 1.395 . S
C3678 C3681 1.403 . S
C3679 C3676 1.403 . S
C3679 C3680 1.524 . S
C3679 C3683 1.400 . S
C3680 H3665 0.960 . S
C3680 H3666 0.960 . S
C3680 H3667 0.960 . S
C3680 C3679 1.524 . S
C3681 C3678 1.403 . S
C3681 C3682 1.392 . S
C3681 C3685 1.495 . S
C3682 C3681 1.392 . S
C3682 C3683 1.385 . S
C3682 C3684 1.478 . S
C3683 H3677 0.930 . S
C3683 C3679 1.400 . S
C3683 C3682 1.385 . S
C3684 C3682 1.478 . S
C3684 C3686 1.381 . S
C3684 C3690 1.383 . S
C3685 C3681 1.495 . S
C3685 H3691 0.959 . S
C3685 H3692 0.961 . S
C3685 H3693 0.960 . S
C3686 C3684 1.381 . S
C3686 C3687 1.394 . S
C3686 H3694 0.930 . S
C3687 C3686 1.394 . S
C3687 C3688 1.383 . S
C3687 H3695 0.929 . S
C3688 C3687 1.383 . S
C3688 C3689 1.377 . S
C3689 H3673 0.930 . S
C3689 C3688 1.377 . S
C3689 C3690 1.379 . S
C3690 H3674 0.931 . S
C3690 C3684 1.383 . S
C3690 C3689 1.379 . S
H3691 C3685 0.959 . S
H3692 C3685 0.961 . S
H3693 C3685 0.960 . S
H3694 C3686 0.930 . S
H3695 C3687 0.929 . S
H3696 C3704 0.929 . S
H3697 C3706 0.930 . S
H3698 C3708 0.930 . S
H3699 C3711 0.929 . S
H3700 C3714 0.930 . S
H3701 C3716 0.960 . S
H3702 C3716 0.960 . S
H3703 C3716 0.960 . S
C3704 H3696 0.929 . S
C3704 C3705 1.377 . S
C3704 C3706 1.384 . S
C3705 C3704 1.377 . S
C3705 C3711 1.390 . S
C3706 H3697 0.930 . S
C3706 C3704 1.384 . S
C3706 C3707 1.372 . S
C3707 C3706 1.372 . S
C3707 C3708 1.400 . S
C3707 C3712 1.490 . S
C3708 H3698 0.930 . S
C3708 C3707 1.400 . S
C3708 C3711 1.386 . S
H3709 C3725 0.930 . S
H3710 C3726 0.931 . S
C3711 H3699 0.929 . S
C3711 C3705 1.390 . S
C3711 C3708 1.386 . S
C3712 C3707 1.490 . S
C3712 C3714 1.395 . S
C3712 C3715 1.403 . S
H3713 C3719 0.930 . S
C3714 H3700 0.930 . S
C3714 C3712 1.395 . S
C3714 C3717 1.403 . S
C3715 C3712 1.403 . S
C3715 C3716 1.524 . S
C3715 C3719 1.400 . S
C3716 H3701 0.960 . S
C3716 H3702 0.960 . S
C3716 H3703 0.960 . S
C3716 C3715 1.524 . S
C3717 C3714 1.403 . S
C3717 C3718 1.392 . S
C3717 C3721 1.495 . S
C3718 C3717 1.392 . S
C3718 C3719 1.385 . S
C3718 C3720 1.478 . S
C3719 H3713 0.930 . S
C3719 C3715 1.400 . S
C3719 C3718 1.385 . S
C3720 C3718 1.478 . S
C3720 C3722 1.381 . S
C3720 C3726 1.383 . S
C3721 C3717 1.495 . S
C3721 H3727 0.959 . S
C3721 H3728 0.961 . S
C3721 H3729 0.960 . S
C3722 C3720 1.381 . S
C3722 C3723 1.394 . S
C3722 H3730 0.930 . S
C3723 C3722 1.394 . S
C3723 C3724 1.383 . S
C3723 H3731 0.929 . S
C3724 C3723 1.383 . S
C3724 C3725 1.377 . S
C3725 H3709 0.930 . S
C3725 C3724 1.377 . S
C3725 C3726 1.379 . S
C3726 H3710 0.931 . S
C3726 C3720 1.383 . S
C3726 C3725 1.379 . S
H3727 C3721 0.959 . S
H3728 C3721 0.961 . S
H3729 C3721 0.960 . S
H3730 C3722 0.930 . S
H3731 C3723 0.929 . S
H3732 C3740 0.929 . S
H3733 C3742 0.930 . S
H3734 C3744 0.930 . S
H3735 C3747 0.929 . S
H3736 C3750 0.930 . S
H3737 C3752 0.960 . S
H3738 C3752 0.960 . S
H3739 C3752 0.960 . S
C3740 H3732 0.929 . S
C3740 C3741 1.377 1_556 S
C3740 C3742 1.384 . S
C3741 C3740 1.377 1_554 S
C3741 C3747 1.390 . S
C3742 H3733 0.930 . S
C3742 C3740 1.384 . S
C3742 C3743 1.372 . S
C3743 C3742 1.372 . S
C3743 C3744 1.400 . S
C3743 C3748 1.490 . S
C3744 H3734 0.930 . S
C3744 C3743 1.400 . S
C3744 C3747 1.386 1_556 S
H3745 C3761 0.930 . S
H3746 C3762 0.931 . S
C3747 H3735 0.929 . S
C3747 C3741 1.390 . S
C3747 C3744 1.386 1_554 S
C3748 C3743 1.490 . S
C3748 C3750 1.395 . S
C3748 C3751 1.403 . S
H3749 C3755 0.930 . S
C3750 H3736 0.930 . S
C3750 C3748 1.395 . S
C3750 C3753 1.403 . S
C3751 C3748 1.403 . S
C3751 C3752 1.524 . S
C3751 C3755 1.400 . S
C3752 H3737 0.960 . S
C3752 H3738 0.960 . S
C3752 H3739 0.960 . S
C3752 C3751 1.524 . S
C3753 C3750 1.403 . S
C3753 C3754 1.392 . S
C3753 C3757 1.495 . S
C3754 C3753 1.392 . S
C3754 C3755 1.385 . S
C3754 C3756 1.478 . S
C3755 H3749 0.930 . S
C3755 C3751 1.400 . S
C3755 C3754 1.385 . S
C3756 C3754 1.478 . S
C3756 C3758 1.381 . S
C3756 C3762 1.383 . S
C3757 C3753 1.495 . S
C3757 H3763 0.959 . S
C3757 H3764 0.961 . S
C3757 H3765 0.960 . S
C3758 C3756 1.381 . S
C3758 C3759 1.394 . S
C3758 H3766 0.930 . S
C3759 C3758 1.394 . S
C3759 C3760 1.383 . S
C3759 H3767 0.929 . S
C3760 C3759 1.383 . S
C3760 C3761 1.377 . S
C3761 H3745 0.930 . S
C3761 C3760 1.377 . S
C3761 C3762 1.379 . S
C3762 H3746 0.931 . S
C3762 C3756 1.383 . S
C3762 C3761 1.379 . S
H3763 C3757 0.959 . S
H3764 C3757 0.961 . S
H3765 C3757 0.960 . S
H3766 C3758 0.930 . S
H3767 C3759 0.929 . S
H3768 C3776 0.929 . S
H3769 C3778 0.930 . S
H3770 C3780 0.930 . S
H3771 C3783 0.929 . S
H3772 C3786 0.930 . S
H3773 C3788 0.960 . S
H3774 C3788 0.960 . S
H3775 C3788 0.960 . S
C3776 H3768 0.929 . S
C3776 C3777 1.377 . S
C3776 C3778 1.384 . S
C3777 C3776 1.377 . S
C3777 C3783 1.390 . S
C3778 H3769 0.930 . S
C3778 C3776 1.384 . S
C3778 C3779 1.372 . S
C3779 C3778 1.372 . S
C3779 C3780 1.400 . S
C3779 C3784 1.490 . S
C3780 H3770 0.930 . S
C3780 C3779 1.400 . S
C3780 C3783 1.386 . S
H3781 C3797 0.930 . S
H3782 C3798 0.931 . S
C3783 H3771 0.929 . S
C3783 C3777 1.390 . S
C3783 C3780 1.386 . S
C3784 C3779 1.490 . S
C3784 C3786 1.395 . S
C3784 C3787 1.403 . S
H3785 C3791 0.930 . S
C3786 H3772 0.930 . S
C3786 C3784 1.395 . S
C3786 C3789 1.403 . S
C3787 C3784 1.403 . S
C3787 C3788 1.524 . S
C3787 C3791 1.400 . S
C3788 H3773 0.960 . S
C3788 H3774 0.960 . S
C3788 H3775 0.960 . S
C3788 C3787 1.524 . S
C3789 C3786 1.403 . S
C3789 C3790 1.392 . S
C3789 C3793 1.495 . S
C3790 C3789 1.392 . S
C3790 C3791 1.385 . S
C3790 C3792 1.478 . S
C3791 H3785 0.930 . S
C3791 C3787 1.400 . S
C3791 C3790 1.385 . S
C3792 C3790 1.478 . S
C3792 C3794 1.381 . S
C3792 C3798 1.383 . S
C3793 C3789 1.495 . S
C3793 H3799 0.959 . S
C3793 H3800 0.961 . S
C3793 H3801 0.960 . S
C3794 C3792 1.381 . S
C3794 C3795 1.394 . S
C3794 H3802 0.930 . S
C3795 C3794 1.394 . S
C3795 C3796 1.383 . S
C3795 H3803 0.929 . S
C3796 C3795 1.383 . S
C3796 C3797 1.377 . S
C3797 H3781 0.930 . S
C3797 C3796 1.377 . S
C3797 C3798 1.379 . S
C3798 H3782 0.931 . S
C3798 C3792 1.383 . S
C3798 C3797 1.379 . S
H3799 C3793 0.959 . S
H3800 C3793 0.961 . S
H3801 C3793 0.960 . S
H3802 C3794 0.930 . S
H3803 C3795 0.929 . S
H3804 C3812 0.929 . S
H3805 C3814 0.930 . S
H3806 C3816 0.930 . S
H3807 C3819 0.929 . S
H3808 C3822 0.930 . S
H3809 C3824 0.960 . S
H3810 C3824 0.960 . S
H3811 C3824 0.960 . S
C3812 H3804 0.929 . S
C3812 C3813 1.377 . S
C3812 C3814 1.384 . S
C3813 C3812 1.377 . S
C3813 C3819 1.390 . S
C3814 H3805 0.930 . S
C3814 C3812 1.384 . S
C3814 C3815 1.372 . S
C3815 C3814 1.372 . S
C3815 C3816 1.400 . S
C3815 C3820 1.490 . S
C3816 H3806 0.930 . S
C3816 C3815 1.400 . S
C3816 C3819 1.386 . S
H3817 C3833 0.930 . S
H3818 C3834 0.931 . S
C3819 H3807 0.929 . S
C3819 C3813 1.390 . S
C3819 C3816 1.386 . S
C3820 C3815 1.490 . S
C3820 C3822 1.395 . S
C3820 C3823 1.403 . S
H3821 C3827 0.930 . S
C3822 H3808 0.930 . S
C3822 C3820 1.395 . S
C3822 C3825 1.403 . S
C3823 C3820 1.403 . S
C3823 C3824 1.524 . S
C3823 C3827 1.400 . S
C3824 H3809 0.960 . S
C3824 H3810 0.960 . S
C3824 H3811 0.960 . S
C3824 C3823 1.524 . S
C3825 C3822 1.403 . S
C3825 C3826 1.392 . S
C3825 C3829 1.495 . S
C3826 C3825 1.392 . S
C3826 C3827 1.385 . S
C3826 C3828 1.478 . S
C3827 H3821 0.930 . S
C3827 C3823 1.400 . S
C3827 C3826 1.385 . S
C3828 C3826 1.478 . S
C3828 C3830 1.381 . S
C3828 C3834 1.383 . S
C3829 C3825 1.495 . S
C3829 H3835 0.959 . S
C3829 H3836 0.961 . S
C3829 H3837 0.960 . S
C3830 C3828 1.381 . S
C3830 C3831 1.394 . S
C3830 H3838 0.930 . S
C3831 C3830 1.394 . S
C3831 C3832 1.383 . S
C3831 H3839 0.929 . S
C3832 C3831 1.383 . S
C3832 C3833 1.377 . S
C3833 H3817 0.930 . S
C3833 C3832 1.377 . S
C3833 C3834 1.379 . S
C3834 H3818 0.931 . S
C3834 C3828 1.383 . S
C3834 C3833 1.379 . S
H3835 C3829 0.959 . S
H3836 C3829 0.961 . S
H3837 C3829 0.960 . S
H3838 C3830 0.930 . S
H3839 C3831 0.929 . S
H3840 C3848 0.929 . S
H3841 C3850 0.930 . S
H3842 C3852 0.930 . S
H3843 C3855 0.929 . S
H3844 C3858 0.930 . S
H3845 C3860 0.960 . S
H3846 C3860 0.960 . S
H3847 C3860 0.960 . S
C3848 H3840 0.929 . S
C3848 C3849 1.377 . S
C3848 C3850 1.384 . S
C3849 C3848 1.377 . S
C3849 C3855 1.390 . S
C3850 H3841 0.930 . S
C3850 C3848 1.384 . S
C3850 C3851 1.372 . S
C3851 C3850 1.372 . S
C3851 C3852 1.400 . S
C3851 C3856 1.490 . S
C3852 H3842 0.930 . S
C3852 C3851 1.400 . S
C3852 C3855 1.386 . S
H3853 C3869 0.930 . S
H3854 C3870 0.931 . S
C3855 H3843 0.929 . S
C3855 C3849 1.390 . S
C3855 C3852 1.386 . S
C3856 C3851 1.490 . S
C3856 C3858 1.395 . S
C3856 C3859 1.403 . S
H3857 C3863 0.930 . S
C3858 H3844 0.930 . S
C3858 C3856 1.395 . S
C3858 C3861 1.403 . S
C3859 C3856 1.403 . S
C3859 C3860 1.524 . S
C3859 C3863 1.400 . S
C3860 H3845 0.960 . S
C3860 H3846 0.960 . S
C3860 H3847 0.960 . S
C3860 C3859 1.524 . S
C3861 C3858 1.403 . S
C3861 C3862 1.392 . S
C3861 C3865 1.495 . S
C3862 C3861 1.392 . S
C3862 C3863 1.385 . S
C3862 C3864 1.478 . S
C3863 H3857 0.930 . S
C3863 C3859 1.400 . S
C3863 C3862 1.385 . S
C3864 C3862 1.478 . S
C3864 C3866 1.381 . S
C3864 C3870 1.383 . S
C3865 C3861 1.495 . S
C3865 H3871 0.959 . S
C3865 H3872 0.961 . S
C3865 H3873 0.960 . S
C3866 C3864 1.381 . S
C3866 C3867 1.394 . S
C3866 H3874 0.930 . S
C3867 C3866 1.394 . S
C3867 C3868 1.383 . S
C3867 H3875 0.929 . S
C3868 C3867 1.383 . S
C3868 C3869 1.377 . S
C3869 H3853 0.930 . S
C3869 C3868 1.377 . S
C3869 C3870 1.379 . S
C3870 H3854 0.931 . S
C3870 C3864 1.383 . S
C3870 C3869 1.379 . S
H3871 C3865 0.959 . S
H3872 C3865 0.961 . S
H3873 C3865 0.960 . S
H3874 C3866 0.930 . S
H3875 C3867 0.929 . S
H3876 C3884 0.929 . S
H3877 C3886 0.930 . S
H3878 C3888 0.930 . S
H3879 C3891 0.929 . S
H3880 C3894 0.930 . S
H3881 C3896 0.960 . S
H3882 C3896 0.960 . S
H3883 C3896 0.960 . S
C3884 H3876 0.929 . S
C3884 C3885 1.377 . S
C3884 C3886 1.384 . S
C3885 C3884 1.377 . S
C3885 C3891 1.390 . S
C3886 H3877 0.930 . S
C3886 C3884 1.384 . S
C3886 C3887 1.372 . S
C3887 C3886 1.372 . S
C3887 C3888 1.400 . S
C3887 C3892 1.490 . S
C3888 H3878 0.930 . S
C3888 C3887 1.400 . S
C3888 C3891 1.386 . S
H3889 C3905 0.930 . S
H3890 C3906 0.931 . S
C3891 H3879 0.929 . S
C3891 C3885 1.390 . S
C3891 C3888 1.386 . S
C3892 C3887 1.490 . S
C3892 C3894 1.395 . S
C3892 C3895 1.403 . S
H3893 C3899 0.930 . S
C3894 H3880 0.930 . S
C3894 C3892 1.395 . S
C3894 C3897 1.403 . S
C3895 C3892 1.403 . S
C3895 C3896 1.524 . S
C3895 C3899 1.400 . S
C3896 H3881 0.960 . S
C3896 H3882 0.960 . S
C3896 H3883 0.960 . S
C3896 C3895 1.524 . S
C3897 C3894 1.403 . S
C3897 C3898 1.392 . S
C3897 C3901 1.495 . S
C3898 C3897 1.392 . S
C3898 C3899 1.385 . S
C3898 C3900 1.478 . S
C3899 H3893 0.930 . S
C3899 C3895 1.400 . S
C3899 C3898 1.385 . S
C3900 C3898 1.478 . S
C3900 C3902 1.381 . S
C3900 C3906 1.383 . S
C3901 C3897 1.495 . S
C3901 H3907 0.959 . S
C3901 H3908 0.961 . S
C3901 H3909 0.960 . S
C3902 C3900 1.381 . S
C3902 C3903 1.394 . S
C3902 H3910 0.930 . S
C3903 C3902 1.394 . S
C3903 C3904 1.383 . S
C3903 H3911 0.929 . S
C3904 C3903 1.383 . S
C3904 C3905 1.377 . S
C3905 H3889 0.930 . S
C3905 C3904 1.377 . S
C3905 C3906 1.379 . S
C3906 H3890 0.931 . S
C3906 C3900 1.383 . S
C3906 C3905 1.379 . S
H3907 C3901 0.959 . S
H3908 C3901 0.961 . S
H3909 C3901 0.960 . S
H3910 C3902 0.930 . S
H3911 C3903 0.929 . S
H3912 C3920 0.929 . S
H3913 C3922 0.930 . S
H3914 C3924 0.930 . S
H3915 C3927 0.929 . S
H3916 C3930 0.930 . S
H3917 C3932 0.960 . S
H3918 C3932 0.960 . S
H3919 C3932 0.960 . S
C3920 H3912 0.929 . S
C3920 C3921 1.377 . S
C3920 C3922 1.384 . S
C3921 C3920 1.377 . S
C3921 C3927 1.390 . S
C3922 H3913 0.930 . S
C3922 C3920 1.384 . S
C3922 C3923 1.372 . S
C3923 C3922 1.372 . S
C3923 C3924 1.400 . S
C3923 C3928 1.490 . S
C3924 H3914 0.930 . S
C3924 C3923 1.400 . S
C3924 C3927 1.386 . S
H3925 C3941 0.930 . S
H3926 C3942 0.931 . S
C3927 H3915 0.929 . S
C3927 C3921 1.390 . S
C3927 C3924 1.386 . S
C3928 C3923 1.490 . S
C3928 C3930 1.395 . S
C3928 C3931 1.403 . S
H3929 C3935 0.930 . S
C3930 H3916 0.930 . S
C3930 C3928 1.395 . S
C3930 C3933 1.403 . S
C3931 C3928 1.403 . S
C3931 C3932 1.524 . S
C3931 C3935 1.400 . S
C3932 H3917 0.960 . S
C3932 H3918 0.960 . S
C3932 H3919 0.960 . S
C3932 C3931 1.524 . S
C3933 C3930 1.403 . S
C3933 C3934 1.392 . S
C3933 C3937 1.495 . S
C3934 C3933 1.392 . S
C3934 C3935 1.385 . S
C3934 C3936 1.478 . S
C3935 H3929 0.930 . S
C3935 C3931 1.400 . S
C3935 C3934 1.385 . S
C3936 C3934 1.478 . S
C3936 C3938 1.381 . S
C3936 C3942 1.383 . S
C3937 C3933 1.495 . S
C3937 H3943 0.959 . S
C3937 H3944 0.961 . S
C3937 H3945 0.960 . S
C3938 C3936 1.381 . S
C3938 C3939 1.394 . S
C3938 H3946 0.930 . S
C3939 C3938 1.394 . S
C3939 C3940 1.383 . S
C3939 H3947 0.929 . S
C3940 C3939 1.383 . S
C3940 C3941 1.377 . S
C3941 H3925 0.930 . S
C3941 C3940 1.377 . S
C3941 C3942 1.379 . S
C3942 H3926 0.931 . S
C3942 C3936 1.383 . S
C3942 C3941 1.379 . S
H3943 C3937 0.959 . S
H3944 C3937 0.961 . S
H3945 C3937 0.960 . S
H3946 C3938 0.930 . S
H3947 C3939 0.929 . S
H3948 C3956 0.929 . S
H3949 C3958 0.930 . S
H3950 C3960 0.930 . S
H3951 C3963 0.929 . S
H3952 C3966 0.930 . S
H3953 C3968 0.960 . S
H3954 C3968 0.960 . S
H3955 C3968 0.960 . S
C3956 H3948 0.929 . S
C3956 C3957 1.377 . S
C3956 C3958 1.384 . S
C3957 C3956 1.377 . S
C3957 C3963 1.390 . S
C3958 H3949 0.930 . S
C3958 C3956 1.384 . S
C3958 C3959 1.372 . S
C3959 C3958 1.372 . S
C3959 C3960 1.400 . S
C3959 C3964 1.490 . S
C3960 H3950 0.930 . S
C3960 C3959 1.400 . S
C3960 C3963 1.386 . S
H3961 C3977 0.930 . S
H3962 C3978 0.931 . S
C3963 H3951 0.929 . S
C3963 C3957 1.390 . S
C3963 C3960 1.386 . S
C3964 C3959 1.490 . S
C3964 C3966 1.395 . S
C3964 C3967 1.403 . S
H3965 C3971 0.930 . S
C3966 H3952 0.930 . S
C3966 C3964 1.395 . S
C3966 C3969 1.403 . S
C3967 C3964 1.403 . S
C3967 C3968 1.524 . S
C3967 C3971 1.400 . S
C3968 H3953 0.960 . S
C3968 H3954 0.960 . S
C3968 H3955 0.960 . S
C3968 C3967 1.524 . S
C3969 C3966 1.403 . S
C3969 C3970 1.392 . S
C3969 C3973 1.495 . S
C3970 C3969 1.392 . S
C3970 C3971 1.385 . S
C3970 C3972 1.478 . S
C3971 H3965 0.930 . S
C3971 C3967 1.400 . S
C3971 C3970 1.385 . S
C3972 C3970 1.478 . S
C3972 C3974 1.381 . S
C3972 C3978 1.383 . S
C3973 C3969 1.495 . S
C3973 H3979 0.959 . S
C3973 H3980 0.961 . S
C3973 H3981 0.960 . S
C3974 C3972 1.381 . S
C3974 C3975 1.394 . S
C3974 H3982 0.930 . S
C3975 C3974 1.394 . S
C3975 C3976 1.383 . S
C3975 H3983 0.929 . S
C3976 C3975 1.383 . S
C3976 C3977 1.377 . S
C3977 H3961 0.930 . S
C3977 C3976 1.377 . S
C3977 C3978 1.379 . S
C3978 H3962 0.931 . S
C3978 C3972 1.383 . S
C3978 C3977 1.379 . S
H3979 C3973 0.959 . S
H3980 C3973 0.961 . S
H3981 C3973 0.960 . S
H3982 C3974 0.930 . S
H3983 C3975 0.929 . S
H3984 C3992 0.929 . S
H3985 C3994 0.930 . S
H3986 C3996 0.930 . S
H3987 C3999 0.929 . S
H3988 C4002 0.930 . S
H3989 C4004 0.960 . S
H3990 C4004 0.960 . S
H3991 C4004 0.960 . S
C3992 H3984 0.929 . S
C3992 C3993 1.377 . S
C3992 C3994 1.384 . S
C3993 C3992 1.377 . S
C3993 C3999 1.390 . S
C3994 H3985 0.930 . S
C3994 C3992 1.384 . S
C3994 C3995 1.372 . S
C3995 C3994 1.372 . S
C3995 C3996 1.400 . S
C3995 C4000 1.490 . S
C3996 H3986 0.930 . S
C3996 C3995 1.400 . S
C3996 C3999 1.386 . S
H3997 C4013 0.930 . S
H3998 C4014 0.931 . S
C3999 H3987 0.929 . S
C3999 C3993 1.390 . S
C3999 C3996 1.386 . S
C4000 C3995 1.490 . S
C4000 C4002 1.395 . S
C4000 C4003 1.403 . S
H4001 C4007 0.930 . S
C4002 H3988 0.930 . S
C4002 C4000 1.395 . S
C4002 C4005 1.403 . S
C4003 C4000 1.403 . S
C4003 C4004 1.524 . S
C4003 C4007 1.400 . S
C4004 H3989 0.960 . S
C4004 H3990 0.960 . S
C4004 H3991 0.960 . S
C4004 C4003 1.524 . S
C4005 C4002 1.403 . S
C4005 C4006 1.392 . S
C4005 C4009 1.495 . S
C4006 C4005 1.392 . S
C4006 C4007 1.385 . S
C4006 C4008 1.478 . S
C4007 H4001 0.930 . S
C4007 C4003 1.400 . S
C4007 C4006 1.385 . S
C4008 C4006 1.478 . S
C4008 C4010 1.381 . S
C4008 C4014 1.383 . S
C4009 C4005 1.495 . S
C4009 H4015 0.959 . S
C4009 H4016 0.961 . S
C4009 H4017 0.960 . S
C4010 C4008 1.381 . S
C4010 C4011 1.394 . S
C4010 H4018 0.930 . S
C4011 C4010 1.394 . S
C4011 C4012 1.383 . S
C4011 H4019 0.929 . S
C4012 C4011 1.383 . S
C4012 C4013 1.377 . S
C4013 H3997 0.930 . S
C4013 C4012 1.377 . S
C4013 C4014 1.379 . S
C4014 H3998 0.931 . S
C4014 C4008 1.383 . S
C4014 C4013 1.379 . S
H4015 C4009 0.959 . S
H4016 C4009 0.961 . S
H4017 C4009 0.960 . S
H4018 C4010 0.930 . S
H4019 C4011 0.929 . S
H4020 C4028 0.929 . S
H4021 C4030 0.930 . S
H4022 C4032 0.930 . S
H4023 C4035 0.929 . S
H4024 C4038 0.930 . S
H4025 C4040 0.960 . S
H4026 C4040 0.960 . S
H4027 C4040 0.960 . S
C4028 H4020 0.929 . S
C4028 C4029 1.377 . S
C4028 C4030 1.384 . S
C4029 C4028 1.377 . S
C4029 C4035 1.390 . S
C4030 H4021 0.930 . S
C4030 C4028 1.384 . S
C4030 C4031 1.372 . S
C4031 C4030 1.372 . S
C4031 C4032 1.400 . S
C4031 C4036 1.490 . S
C4032 H4022 0.930 . S
C4032 C4031 1.400 . S
C4032 C4035 1.386 . S
H4033 C4049 0.930 . S
H4034 C4050 0.931 . S
C4035 H4023 0.929 . S
C4035 C4029 1.390 . S
C4035 C4032 1.386 . S
C4036 C4031 1.490 . S
C4036 C4038 1.395 . S
C4036 C4039 1.403 . S
H4037 C4043 0.930 . S
C4038 H4024 0.930 . S
C4038 C4036 1.395 . S
C4038 C4041 1.403 . S
C4039 C4036 1.403 . S
C4039 C4040 1.524 . S
C4039 C4043 1.400 . S
C4040 H4025 0.960 . S
C4040 H4026 0.960 . S
C4040 H4027 0.960 . S
C4040 C4039 1.524 . S
C4041 C4038 1.403 . S
C4041 C4042 1.392 . S
C4041 C4045 1.495 . S
C4042 C4041 1.392 . S
C4042 C4043 1.385 . S
C4042 C4044 1.478 . S
C4043 H4037 0.930 . S
C4043 C4039 1.400 . S
C4043 C4042 1.385 . S
C4044 C4042 1.478 . S
C4044 C4046 1.381 . S
C4044 C4050 1.383 . S
C4045 C4041 1.495 . S
C4045 H4051 0.959 . S
C4045 H4052 0.961 . S
C4045 H4053 0.960 . S
C4046 C4044 1.381 . S
C4046 C4047 1.394 . S
C4046 H4054 0.930 . S
C4047 C4046 1.394 . S
C4047 C4048 1.383 . S
C4047 H4055 0.929 . S
C4048 C4047 1.383 . S
C4048 C4049 1.377 . S
C4049 H4033 0.930 . S
C4049 C4048 1.377 . S
C4049 C4050 1.379 . S
C4050 H4034 0.931 . S
C4050 C4044 1.383 . S
C4050 C4049 1.379 . S
H4051 C4045 0.959 . S
H4052 C4045 0.961 . S
H4053 C4045 0.960 . S
H4054 C4046 0.930 . S
H4055 C4047 0.929 . S
H4056 C4064 0.929 . S
H4057 C4066 0.930 . S
H4058 C4068 0.930 . S
H4059 C4071 0.929 . S
H4060 C4074 0.930 . S
H4061 C4076 0.960 . S
H4062 C4076 0.960 . S
H4063 C4076 0.960 . S
C4064 H4056 0.929 . S
C4064 C4065 1.377 . S
C4064 C4066 1.384 . S
C4065 C4064 1.377 . S
C4065 C4071 1.390 . S
C4066 H4057 0.930 . S
C4066 C4064 1.384 . S
C4066 C4067 1.372 . S
C4067 C4066 1.372 . S
C4067 C4068 1.400 . S
C4067 C4072 1.490 . S
C4068 H4058 0.930 . S
C4068 C4067 1.400 . S
C4068 C4071 1.386 . S
H4069 C4085 0.930 . S
H4070 C4086 0.931 . S
C4071 H4059 0.929 . S
C4071 C4065 1.390 . S
C4071 C4068 1.386 . S
C4072 C4067 1.490 . S
C4072 C4074 1.395 . S
C4072 C4075 1.403 . S
H4073 C4079 0.930 . S
C4074 H4060 0.930 . S
C4074 C4072 1.395 . S
C4074 C4077 1.403 . S
C4075 C4072 1.403 . S
C4075 C4076 1.524 . S
C4075 C4079 1.400 . S
C4076 H4061 0.960 . S
C4076 H4062 0.960 . S
C4076 H4063 0.960 . S
C4076 C4075 1.524 . S
C4077 C4074 1.403 . S
C4077 C4078 1.392 . S
C4077 C4081 1.495 . S
C4078 C4077 1.392 . S
C4078 C4079 1.385 . S
C4078 C4080 1.478 . S
C4079 H4073 0.930 . S
C4079 C4075 1.400 . S
C4079 C4078 1.385 . S
C4080 C4078 1.478 . S
C4080 C4082 1.381 . S
C4080 C4086 1.383 . S
C4081 C4077 1.495 . S
C4081 H4087 0.959 . S
C4081 H4088 0.961 . S
C4081 H4089 0.960 . S
C4082 C4080 1.381 . S
C4082 C4083 1.394 . S
C4082 H4090 0.930 . S
C4083 C4082 1.394 . S
C4083 C4084 1.383 . S
C4083 H4091 0.929 . S
C4084 C4083 1.383 . S
C4084 C4085 1.377 . S
C4085 H4069 0.930 . S
C4085 C4084 1.377 . S
C4085 C4086 1.379 . S
C4086 H4070 0.931 . S
C4086 C4080 1.383 . S
C4086 C4085 1.379 . S
H4087 C4081 0.959 . S
H4088 C4081 0.961 . S
H4089 C4081 0.960 . S
H4090 C4082 0.930 . S
H4091 C4083 0.929 . S
H4092 C4100 0.929 . S
H4093 C4102 0.930 . S
H4094 C4104 0.930 . S
H4095 C4107 0.929 . S
H4096 C4110 0.940 . S
H4097 C4112 0.960 1_545 S
H4098 C4112 0.960 . S
H4099 C4112 0.960 . S
C4100 H4092 0.929 . S
C4100 C4101 1.377 . S
C4100 C4102 1.384 . S
C4101 C4100 1.377 . S
C4101 C4107 1.390 1_554 S
C4102 H4093 0.930 . S
C4102 C4100 1.384 . S
C4102 C4103 1.372 . S
C4103 C4102 1.372 . S
C4103 C4104 1.400 1_554 S
C4103 C4108 1.490 . S
C4104 H4094 0.930 . S
C4104 C4103 1.400 1_556 S
C4104 C4107 1.386 . S
H4105 C4121 0.930 . S
H4106 C4122 0.931 . S
C4107 H4095 0.929 . S
C4107 C4101 1.390 1_556 S
C4107 C4104 1.386 . S
C4108 C4103 1.490 . S
C4108 C4110 1.380 1_554 S
C4108 C4111 1.403 . S
H4109 C4115 0.930 1_545 S
C4110 H4096 0.940 . S
C4110 C4108 1.380 1_556 S
C4110 C4113 1.406 . S
C4111 C4108 1.403 . S
C4111 C4112 1.524 . S
C4111 C4115 1.400 . S
C4112 H4097 0.960 1_565 S
C4112 H4098 0.960 . S
C4112 H4099 0.960 . S
C4112 C4111 1.524 . S
C4113 C4110 1.406 . S
C4113 C4114 1.386 1_556 S
C4113 C4117 1.506 . S
C4114 C4113 1.386 1_554 S
C4114 C4115 1.385 . S
C4114 C4116 1.478 . S
C4115 H4109 0.930 1_565 S
C4115 C4111 1.400 . S
C4115 C4114 1.385 . S
C4116 C4114 1.478 . S
C4116 C4118 1.381 . S
C4116 C4122 1.383 1_564 S
C4117 C4113 1.506 . S
C4117 H4123 0.959 . S
C4117 H4124 0.961 . S
C4117 H4125 0.960 1_556 S
C4118 C4116 1.381 . S
C4118 C4119 1.394 . S
C4118 H4126 0.930 . S
C4119 C4118 1.394 . S
C4119 C4120 1.383 1_565 S
C4119 H4127 0.929 . S
C4120 C4119 1.383 1_545 S
C4120 C4121 1.377 1_554 S
C4121 H4105 0.930 . S
C4121 C4120 1.377 1_556 S
C4121 C4122 1.379 . S
C4122 H4106 0.931 . S
C4122 C4116 1.383 1_546 S
C4122 C4121 1.379 . S
H4123 C4117 0.959 . S
H4124 C4117 0.961 . S
H4125 C4117 0.960 1_554 S
H4126 C4118 0.930 . S
H4127 C4119 0.929 . S
H4128 C4136 0.929 . S
H4129 C4138 0.930 . S
H4130 C4140 0.930 . S
H4131 C4143 0.929 . S
H4132 C4146 0.930 . S
H4133 C4148 0.960 . S
H4134 C4148 0.960 . S
H4135 C4148 0.960 . S
C4136 H4128 0.929 . S
C4136 C4137 1.377 . S
C4136 C4138 1.384 . S
C4137 C4136 1.377 . S
C4137 C4143 1.390 . S
C4138 H4129 0.930 . S
C4138 C4136 1.384 . S
C4138 C4139 1.372 . S
C4139 C4138 1.372 . S
C4139 C4140 1.400 . S
C4139 C4144 1.490 . S
C4140 H4130 0.930 . S
C4140 C4139 1.400 . S
C4140 C4143 1.386 . S
H4141 C4157 0.930 . S
H4142 C4158 0.931 . S
C4143 H4131 0.929 . S
C4143 C4137 1.390 . S
C4143 C4140 1.386 . S
C4144 C4139 1.490 . S
C4144 C4146 1.395 . S
C4144 C4147 1.403 . S
H4145 C4151 0.930 . S
C4146 H4132 0.930 . S
C4146 C4144 1.395 . S
C4146 C4149 1.403 . S
C4147 C4144 1.403 . S
C4147 C4148 1.524 . S
C4147 C4151 1.400 . S
C4148 H4133 0.960 . S
C4148 H4134 0.960 . S
C4148 H4135 0.960 . S
C4148 C4147 1.524 . S
C4149 C4146 1.403 . S
C4149 C4150 1.392 . S
C4149 C4153 1.495 . S
C4150 C4149 1.392 . S
C4150 C4151 1.385 . S
C4150 C4152 1.478 . S
C4151 H4145 0.930 . S
C4151 C4147 1.400 . S
C4151 C4150 1.385 . S
C4152 C4150 1.478 . S
C4152 C4154 1.381 . S
C4152 C4158 1.383 . S
C4153 C4149 1.495 . S
C4153 H4159 0.959 . S
C4153 H4160 0.961 . S
C4153 H4161 0.960 . S
C4154 C4152 1.381 . S
C4154 C4155 1.394 . S
C4154 H4162 0.930 . S
C4155 C4154 1.394 . S
C4155 C4156 1.383 . S
C4155 H4163 0.929 . S
C4156 C4155 1.383 . S
C4156 C4157 1.377 . S
C4157 H4141 0.930 . S
C4157 C4156 1.377 . S
C4157 C4158 1.379 . S
C4158 H4142 0.931 . S
C4158 C4152 1.383 . S
C4158 C4157 1.379 . S
H4159 C4153 0.959 . S
H4160 C4153 0.961 . S
H4161 C4153 0.960 . S
H4162 C4154 0.930 . S
H4163 C4155 0.929 . S
H4164 C4172 0.929 . S
H4165 C4174 0.930 . S
H4166 C4176 0.930 . S
H4167 C4179 0.929 . S
H4168 C4182 0.930 . S
H4169 C4184 0.960 . S
H4170 C4184 0.960 . S
H4171 C4184 0.960 1_556 S
C4172 H4164 0.929 . S
C4172 C4173 1.377 . S
C4172 C4174 1.384 . S
C4173 C4172 1.377 . S
C4173 C4179 1.390 1_554 S
C4174 H4165 0.930 . S
C4174 C4172 1.384 . S
C4174 C4175 1.372 . S
C4175 C4174 1.372 . S
C4175 C4176 1.400 1_554 S
C4175 C4180 1.490 . S
C4176 H4166 0.930 . S
C4176 C4175 1.400 1_556 S
C4176 C4179 1.386 . S
H4177 C4193 0.930 1_556 S
H4178 C4194 0.931 1_556 S
C4179 H4167 0.929 . S
C4179 C4173 1.390 1_556 S
C4179 C4176 1.386 . S
C4180 C4175 1.490 . S
C4180 C4182 1.395 . S
C4180 C4183 1.403 . S
H4181 C4187 0.930 . S
C4182 H4168 0.930 . S
C4182 C4180 1.395 . S
C4182 C4185 1.403 . S
C4183 C4180 1.403 . S
C4183 C4184 1.524 . S
C4183 C4187 1.400 . S
C4184 H4169 0.960 . S
C4184 H4170 0.960 . S
C4184 H4171 0.960 1_554 S
C4184 C4183 1.524 . S
C4185 C4182 1.403 . S
C4185 C4186 1.392 . S
C4185 C4189 1.495 . S
C4186 C4185 1.392 . S
C4186 C4187 1.385 . S
C4186 C4188 1.478 . S
C4187 H4181 0.930 . S
C4187 C4183 1.400 . S
C4187 C4186 1.385 . S
C4188 C4186 1.478 . S
C4188 C4190 1.381 . S
C4188 C4194 1.383 . S
C4189 C4185 1.495 . S
C4189 H4195 0.959 . S
C4189 H4196 0.961 . S
C4189 H4197 0.960 . S
C4190 C4188 1.381 . S
C4190 C4191 1.394 . S
C4190 H4198 0.930 . S
C4191 C4190 1.394 . S
C4191 C4192 1.383 . S
C4191 H4199 0.929 . S
C4192 C4191 1.383 . S
C4192 C4193 1.377 . S
C4193 H4177 0.930 1_554 S
C4193 C4192 1.377 . S
C4193 C4194 1.379 . S
C4194 H4178 0.931 1_554 S
C4194 C4188 1.383 . S
C4194 C4193 1.379 . S
H4195 C4189 0.959 . S
H4196 C4189 0.961 . S
H4197 C4189 0.960 . S
H4198 C4190 0.930 . S
H4199 C4191 0.929 . S
H4200 C4208 0.929 . S
H4201 C4210 0.930 . S
H4202 C4212 0.930 . S
H4203 C4215 0.929 . S
H4204 C4218 0.930 . S
H4205 C4220 0.960 . S
H4206 C4220 0.960 . S
H4207 C4220 0.960 . S
C4208 H4200 0.929 . S
C4208 C4209 1.377 . S
C4208 C4210 1.384 . S
C4209 C4208 1.377 . S
C4209 C4215 1.390 . S
C4210 H4201 0.930 . S
C4210 C4208 1.384 . S
C4210 C4211 1.372 . S
C4211 C4210 1.372 . S
C4211 C4212 1.400 . S
C4211 C4216 1.490 . S
C4212 H4202 0.930 . S
C4212 C4211 1.400 . S
C4212 C4215 1.386 . S
H4213 C4229 0.930 . S
H4214 C4230 0.931 . S
C4215 H4203 0.929 . S
C4215 C4209 1.390 . S
C4215 C4212 1.386 . S
C4216 C4211 1.490 . S
C4216 C4218 1.395 . S
C4216 C4219 1.403 . S
H4217 C4223 0.930 . S
C4218 H4204 0.930 . S
C4218 C4216 1.395 . S
C4218 C4221 1.403 . S
C4219 C4216 1.403 . S
C4219 C4220 1.524 . S
C4219 C4223 1.400 . S
C4220 H4205 0.960 . S
C4220 H4206 0.960 . S
C4220 H4207 0.960 . S
C4220 C4219 1.524 . S
C4221 C4218 1.403 . S
C4221 C4222 1.392 . S
C4221 C4225 1.495 . S
C4222 C4221 1.392 . S
C4222 C4223 1.385 . S
C4222 C4224 1.478 . S
C4223 H4217 0.930 . S
C4223 C4219 1.400 . S
C4223 C4222 1.385 . S
C4224 C4222 1.478 . S
C4224 C4226 1.381 . S
C4224 C4230 1.383 . S
C4225 C4221 1.495 . S
C4225 H4231 0.959 . S
C4225 H4232 0.961 . S
C4225 H4233 0.960 . S
C4226 C4224 1.381 . S
C4226 C4227 1.394 . S
C4226 H4234 0.930 . S
C4227 C4226 1.394 . S
C4227 C4228 1.383 . S
C4227 H4235 0.929 . S
C4228 C4227 1.383 . S
C4228 C4229 1.377 . S
C4229 H4213 0.930 . S
C4229 C4228 1.377 . S
C4229 C4230 1.379 . S
C4230 H4214 0.931 . S
C4230 C4224 1.383 . S
C4230 C4229 1.379 . S
H4231 C4225 0.959 . S
H4232 C4225 0.961 . S
H4233 C4225 0.960 . S
H4234 C4226 0.930 . S
H4235 C4227 0.929 . S
H4236 C4244 0.929 . S
H4237 C4246 0.930 . S
H4238 C4248 0.930 . S
H4239 C4251 0.929 . S
H4240 C4254 0.930 . S
H4241 C4256 0.960 . S
H4242 C4256 0.960 . S
H4243 C4256 0.960 . S
C4244 H4236 0.929 . S
C4244 C4245 1.377 . S
C4244 C4246 1.384 . S
C4245 C4244 1.377 . S
C4245 C4251 1.390 . S
C4246 H4237 0.930 . S
C4246 C4244 1.384 . S
C4246 C4247 1.372 . S
C4247 C4246 1.372 . S
C4247 C4248 1.400 . S
C4247 C4252 1.490 . S
C4248 H4238 0.930 . S
C4248 C4247 1.400 . S
C4248 C4251 1.386 . S
H4249 C4265 0.930 . S
H4250 C4266 0.931 . S
C4251 H4239 0.929 . S
C4251 C4245 1.390 . S
C4251 C4248 1.386 . S
C4252 C4247 1.490 . S
C4252 C4254 1.395 . S
C4252 C4255 1.403 . S
H4253 C4259 0.930 . S
C4254 H4240 0.930 . S
C4254 C4252 1.395 . S
C4254 C4257 1.403 . S
C4255 C4252 1.403 . S
C4255 C4256 1.524 . S
C4255 C4259 1.400 . S
C4256 H4241 0.960 . S
C4256 H4242 0.960 . S
C4256 H4243 0.960 . S
C4256 C4255 1.524 . S
C4257 C4254 1.403 . S
C4257 C4258 1.392 . S
C4257 C4261 1.495 . S
C4258 C4257 1.392 . S
C4258 C4259 1.385 . S
C4258 C4260 1.478 . S
C4259 H4253 0.930 . S
C4259 C4255 1.400 . S
C4259 C4258 1.385 . S
C4260 C4258 1.478 . S
C4260 C4262 1.381 . S
C4260 C4266 1.383 . S
C4261 C4257 1.495 . S
C4261 H4267 0.959 . S
C4261 H4268 0.961 . S
C4261 H4269 0.960 . S
C4262 C4260 1.381 . S
C4262 C4263 1.394 . S
C4262 H4270 0.930 . S
C4263 C4262 1.394 . S
C4263 C4264 1.383 . S
C4263 H4271 0.929 . S
C4264 C4263 1.383 . S
C4264 C4265 1.377 . S
C4265 H4249 0.930 . S
C4265 C4264 1.377 . S
C4265 C4266 1.379 . S
C4266 H4250 0.931 . S
C4266 C4260 1.383 . S
C4266 C4265 1.379 . S
H4267 C4261 0.959 . S
H4268 C4261 0.961 . S
H4269 C4261 0.960 . S
H4270 C4262 0.930 . S
H4271 C4263 0.929 . S
H4272 C4280 0.929 . S
H4273 C4282 0.930 . S
H4274 C4284 0.930 . S
H4275 C4287 0.929 . S
H4276 C4290 0.930 . S
H4277 C4292 0.960 . S
H4278 C4292 0.960 . S
H4279 C4292 0.960 . S
C4280 H4272 0.929 . S
C4280 C4281 1.377 . S
C4280 C4282 1.384 . S
C4281 C4280 1.377 . S
C4281 C4287 1.390 . S
C4282 H4273 0.930 . S
C4282 C4280 1.384 . S
C4282 C4283 1.372 . S
C4283 C4282 1.372 . S
C4283 C4284 1.400 . S
C4283 C4288 1.490 . S
C4284 H4274 0.930 . S
C4284 C4283 1.400 . S
C4284 C4287 1.386 . S
H4285 C4301 0.930 . S
H4286 C4302 0.931 . S
C4287 H4275 0.929 . S
C4287 C4281 1.390 . S
C4287 C4284 1.386 . S
C4288 C4283 1.490 . S
C4288 C4290 1.395 . S
C4288 C4291 1.403 . S
H4289 C4295 0.930 . S
C4290 H4276 0.930 . S
C4290 C4288 1.395 . S
C4290 C4293 1.403 . S
C4291 C4288 1.403 . S
C4291 C4292 1.524 . S
C4291 C4295 1.400 . S
C4292 H4277 0.960 . S
C4292 H4278 0.960 . S
C4292 H4279 0.960 . S
C4292 C4291 1.524 . S
C4293 C4290 1.403 . S
C4293 C4294 1.392 . S
C4293 C4297 1.495 . S
C4294 C4293 1.392 . S
C4294 C4295 1.385 . S
C4294 C4296 1.478 . S
C4295 H4289 0.930 . S
C4295 C4291 1.400 . S
C4295 C4294 1.385 . S
C4296 C4294 1.478 . S
C4296 C4298 1.381 . S
C4296 C4302 1.383 . S
C4297 C4293 1.495 . S
C4297 H4303 0.959 . S
C4297 H4304 0.961 . S
C4297 H4305 0.960 . S
C4298 C4296 1.381 . S
C4298 C4299 1.394 . S
C4298 H4306 0.930 . S
C4299 C4298 1.394 . S
C4299 C4300 1.383 . S
C4299 H4307 0.929 . S
C4300 C4299 1.383 . S
C4300 C4301 1.377 . S
C4301 H4285 0.930 . S
C4301 C4300 1.377 . S
C4301 C4302 1.379 . S
C4302 H4286 0.931 . S
C4302 C4296 1.383 . S
C4302 C4301 1.379 . S
H4303 C4297 0.959 . S
H4304 C4297 0.961 . S
H4305 C4297 0.960 . S
H4306 C4298 0.930 . S
H4307 C4299 0.929 . S
H4308 C4316 0.929 . S
H4309 C4318 0.930 . S
H4310 C4320 0.930 . S
H4311 C4323 0.929 . S
H4312 C4326 0.930 . S
H4313 C4328 0.960 . S
H4314 C4328 0.960 . S
H4315 C4328 0.960 . S
C4316 H4308 0.929 . S
C4316 C4317 1.377 . S
C4316 C4318 1.384 . S
C4317 C4316 1.377 . S
C4317 C4323 1.390 . S
C4318 H4309 0.930 . S
C4318 C4316 1.384 . S
C4318 C4319 1.372 . S
C4319 C4318 1.372 . S
C4319 C4320 1.400 . S
C4319 C4324 1.490 . S
C4320 H4310 0.930 . S
C4320 C4319 1.400 . S
C4320 C4323 1.386 . S
H4321 C4337 0.930 . S
H4322 C4338 0.931 . S
C4323 H4311 0.929 . S
C4323 C4317 1.390 . S
C4323 C4320 1.386 . S
C4324 C4319 1.490 . S
C4324 C4326 1.395 . S
C4324 C4327 1.403 . S
H4325 C4331 0.930 . S
C4326 H4312 0.930 . S
C4326 C4324 1.395 . S
C4326 C4329 1.403 . S
C4327 C4324 1.403 . S
C4327 C4328 1.524 . S
C4327 C4331 1.400 . S
C4328 H4313 0.960 . S
C4328 H4314 0.960 . S
C4328 H4315 0.960 . S
C4328 C4327 1.524 . S
C4329 C4326 1.403 . S
C4329 C4330 1.392 . S
C4329 C4333 1.495 . S
C4330 C4329 1.392 . S
C4330 C4331 1.385 . S
C4330 C4332 1.478 . S
C4331 H4325 0.930 . S
C4331 C4327 1.400 . S
C4331 C4330 1.385 . S
C4332 C4330 1.478 . S
C4332 C4334 1.381 . S
C4332 C4338 1.383 . S
C4333 C4329 1.495 . S
C4333 H4339 0.959 . S
C4333 H4340 0.961 . S
C4333 H4341 0.960 . S
C4334 C4332 1.381 . S
C4334 C4335 1.394 . S
C4334 H4342 0.930 . S
C4335 C4334 1.394 . S
C4335 C4336 1.383 . S
C4335 H4343 0.929 . S
C4336 C4335 1.383 . S
C4336 C4337 1.377 . S
C4337 H4321 0.930 . S
C4337 C4336 1.377 . S
C4337 C4338 1.379 . S
C4338 H4322 0.931 . S
C4338 C4332 1.383 . S
C4338 C4337 1.379 . S
H4339 C4333 0.959 . S
H4340 C4333 0.961 . S
H4341 C4333 0.960 . S
H4342 C4334 0.930 . S
H4343 C4335 0.929 . S
H4344 C4352 0.929 . S
H4345 C4354 0.930 . S
H4346 C4356 0.930 . S
H4347 C4359 0.929 . S
H4348 C4362 0.930 . S
H4349 C4364 0.960 1_655 S
H4350 C4364 0.963 1_655 S
H4351 C4364 0.960 . S
C4352 H4344 0.929 . S
C4352 C4353 1.377 . S
C4352 C4354 1.384 . S
C4353 C4352 1.377 . S
C4353 C4359 1.390 . S
C4354 H4345 0.930 . S
C4354 C4352 1.384 . S
C4354 C4355 1.372 . S
C4355 C4354 1.372 . S
C4355 C4356 1.400 . S
C4355 C4360 1.490 . S
C4356 H4346 0.930 . S
C4356 C4355 1.400 . S
C4356 C4359 1.386 . S
H4357 C4373 0.930 . S
H4358 C4374 0.931 . S
C4359 H4347 0.929 . S
C4359 C4353 1.390 . S
C4359 C4356 1.386 . S
C4360 C4355 1.490 . S
C4360 C4362 1.395 . S
C4360 C4363 1.403 . S
H4361 C4367 0.930 . S
C4362 H4348 0.930 . S
C4362 C4360 1.395 . S
C4362 C4365 1.403 . S
C4363 C4360 1.403 . S
C4363 C4364 1.524 . S
C4363 C4367 1.400 . S
C4364 H4349 0.960 1_455 S
C4364 H4350 0.963 1_455 S
C4364 H4351 0.960 . S
C4364 C4363 1.524 . S
C4365 C4362 1.403 . S
C4365 C4366 1.392 . S
C4365 C4369 1.495 . S
C4366 C4365 1.392 . S
C4366 C4367 1.385 . S
C4366 C4368 1.478 . S
C4367 H4361 0.930 . S
C4367 C4363 1.400 . S
C4367 C4366 1.385 . S
C4368 C4366 1.478 . S
C4368 C4370 1.381 . S
C4368 C4374 1.383 . S
C4369 C4365 1.495 . S
C4369 H4375 0.959 . S
C4369 H4376 0.961 . S
C4369 H4377 0.960 . S
C4370 C4368 1.381 . S
C4370 C4371 1.394 . S
C4370 H4378 0.930 . S
C4371 C4370 1.394 . S
C4371 C4372 1.383 . S
C4371 H4379 0.929 . S
C4372 C4371 1.383 . S
C4372 C4373 1.377 . S
C4373 H4357 0.930 . S
C4373 C4372 1.377 . S
C4373 C4374 1.379 . S
C4374 H4358 0.931 . S
C4374 C4368 1.383 . S
C4374 C4373 1.379 . S
H4375 C4369 0.959 . S
H4376 C4369 0.961 . S
H4377 C4369 0.960 . S
H4378 C4370 0.930 . S
H4379 C4371 0.929 . S
H4380 C4388 0.929 . S
H4381 C4390 0.930 . S
H4382 C4392 0.930 . S
H4383 C4395 0.929 . S
H4384 C4398 0.930 . S
H4385 C4400 0.960 . S
H4386 C4400 0.960 . S
H4387 C4400 0.960 . S
C4388 H4380 0.929 . S
C4388 C4389 1.377 . S
C4388 C4390 1.384 . S
C4389 C4388 1.377 . S
C4389 C4395 1.390 . S
C4390 H4381 0.930 . S
C4390 C4388 1.384 . S
C4390 C4391 1.372 . S
C4391 C4390 1.372 . S
C4391 C4392 1.400 . S
C4391 C4396 1.490 . S
C4392 H4382 0.930 . S
C4392 C4391 1.400 . S
C4392 C4395 1.386 . S
H4393 C4409 0.930 . S
H4394 C4410 0.931 . S
C4395 H4383 0.929 . S
C4395 C4389 1.390 . S
C4395 C4392 1.386 . S
C4396 C4391 1.490 . S
C4396 C4398 1.395 . S
C4396 C4399 1.403 . S
H4397 C4403 0.930 . S
C4398 H4384 0.930 . S
C4398 C4396 1.395 . S
C4398 C4401 1.403 . S
C4399 C4396 1.403 . S
C4399 C4400 1.524 . S
C4399 C4403 1.400 . S
C4400 H4385 0.960 . S
C4400 H4386 0.960 . S
C4400 H4387 0.960 . S
C4400 C4399 1.524 . S
C4401 C4398 1.403 . S
C4401 C4402 1.392 . S
C4401 C4405 1.495 . S
C4402 C4401 1.392 . S
C4402 C4403 1.385 . S
C4402 C4404 1.478 . S
C4403 H4397 0.930 . S
C4403 C4399 1.400 . S
C4403 C4402 1.385 . S
C4404 C4402 1.478 . S
C4404 C4406 1.381 . S
C4404 C4410 1.383 . S
C4405 C4401 1.495 . S
C4405 H4411 0.959 . S
C4405 H4412 0.961 . S
C4405 H4413 0.960 . S
C4406 C4404 1.381 . S
C4406 C4407 1.394 . S
C4406 H4414 0.930 . S
C4407 C4406 1.394 . S
C4407 C4408 1.383 . S
C4407 H4415 0.929 . S
C4408 C4407 1.383 . S
C4408 C4409 1.377 . S
C4409 H4393 0.930 . S
C4409 C4408 1.377 . S
C4409 C4410 1.379 . S
C4410 H4394 0.931 . S
C4410 C4404 1.383 . S
C4410 C4409 1.379 . S
H4411 C4405 0.959 . S
H4412 C4405 0.961 . S
H4413 C4405 0.960 . S
H4414 C4406 0.930 . S
H4415 C4407 0.929 . S
H4416 C4424 0.929 . S
H4417 C4426 0.930 . S
H4418 C4428 0.930 . S
H4419 C4431 0.929 . S
H4420 C4434 0.930 . S
H4421 C4436 0.960 . S
H4422 C4436 0.960 . S
H4423 C4436 0.960 . S
C4424 H4416 0.929 . S
C4424 C4425 1.377 . S
C4424 C4426 1.384 . S
C4425 C4424 1.377 . S
C4425 C4431 1.390 . S
C4426 H4417 0.930 . S
C4426 C4424 1.384 . S
C4426 C4427 1.372 . S
C4427 C4426 1.372 . S
C4427 C4428 1.400 . S
C4427 C4432 1.490 . S
C4428 H4418 0.930 . S
C4428 C4427 1.400 . S
C4428 C4431 1.386 . S
H4429 C4445 0.930 . S
H4430 C4446 0.931 . S
C4431 H4419 0.929 . S
C4431 C4425 1.390 . S
C4431 C4428 1.386 . S
C4432 C4427 1.490 . S
C4432 C4434 1.395 . S
C4432 C4435 1.403 . S
H4433 C4439 0.930 . S
C4434 H4420 0.930 . S
C4434 C4432 1.395 . S
C4434 C4437 1.403 . S
C4435 C4432 1.403 . S
C4435 C4436 1.524 . S
C4435 C4439 1.400 . S
C4436 H4421 0.960 . S
C4436 H4422 0.960 . S
C4436 H4423 0.960 . S
C4436 C4435 1.524 . S
C4437 C4434 1.403 . S
C4437 C4438 1.392 . S
C4437 C4441 1.495 . S
C4438 C4437 1.392 . S
C4438 C4439 1.385 . S
C4438 C4440 1.478 . S
C4439 H4433 0.930 . S
C4439 C4435 1.400 . S
C4439 C4438 1.385 . S
C4440 C4438 1.478 . S
C4440 C4442 1.381 . S
C4440 C4446 1.383 . S
C4441 C4437 1.495 . S
C4441 H4447 0.959 . S
C4441 H4448 0.961 . S
C4441 H4449 0.960 . S
C4442 C4440 1.381 . S
C4442 C4443 1.394 . S
C4442 H4450 0.930 . S
C4443 C4442 1.394 . S
C4443 C4444 1.383 . S
C4443 H4451 0.929 . S
C4444 C4443 1.383 . S
C4444 C4445 1.377 . S
C4445 H4429 0.930 . S
C4445 C4444 1.377 . S
C4445 C4446 1.379 . S
C4446 H4430 0.931 . S
C4446 C4440 1.383 . S
C4446 C4445 1.379 . S
H4447 C4441 0.959 . S
H4448 C4441 0.961 . S
H4449 C4441 0.960 . S
H4450 C4442 0.930 . S
H4451 C4443 0.929 . S
H4452 C4460 0.929 . S
H4453 C4462 0.930 . S
H4454 C4464 0.930 . S
H4455 C4467 0.929 . S
H4456 C4470 0.930 . S
H4457 C4472 0.960 . S
H4458 C4472 0.960 . S
H4459 C4472 0.960 . S
C4460 H4452 0.929 . S
C4460 C4461 1.377 . S
C4460 C4462 1.384 . S
C4461 C4460 1.377 . S
C4461 C4467 1.390 . S
C4462 H4453 0.930 . S
C4462 C4460 1.384 . S
C4462 C4463 1.372 . S
C4463 C4462 1.372 . S
C4463 C4464 1.400 . S
C4463 C4468 1.490 . S
C4464 H4454 0.930 . S
C4464 C4463 1.400 . S
C4464 C4467 1.386 . S
H4465 C4481 0.930 . S
H4466 C4482 0.931 . S
C4467 H4455 0.929 . S
C4467 C4461 1.390 . S
C4467 C4464 1.386 . S
C4468 C4463 1.490 . S
C4468 C4470 1.395 . S
C4468 C4471 1.403 . S
H4469 C4475 0.930 . S
C4470 H4456 0.930 . S
C4470 C4468 1.395 . S
C4470 C4473 1.403 . S
C4471 C4468 1.403 . S
C4471 C4472 1.524 . S
C4471 C4475 1.400 . S
C4472 H4457 0.960 . S
C4472 H4458 0.960 . S
C4472 H4459 0.960 . S
C4472 C4471 1.524 . S
C4473 C4470 1.403 . S
C4473 C4474 1.392 . S
C4473 C4477 1.495 . S
C4474 C4473 1.392 . S
C4474 C4475 1.385 . S
C4474 C4476 1.478 . S
C4475 H4469 0.930 . S
C4475 C4471 1.400 . S
C4475 C4474 1.385 . S
C4476 C4474 1.478 . S
C4476 C4478 1.381 . S
C4476 C4482 1.383 . S
C4477 C4473 1.495 . S
C4477 H4483 0.959 . S
C4477 H4484 0.961 . S
C4477 H4485 0.960 . S
C4478 C4476 1.381 . S
C4478 C4479 1.394 . S
C4478 H4486 0.930 . S
C4479 C4478 1.394 . S
C4479 C4480 1.383 . S
C4479 H4487 0.929 . S
C4480 C4479 1.383 . S
C4480 C4481 1.377 . S
C4481 H4465 0.930 . S
C4481 C4480 1.377 . S
C4481 C4482 1.379 . S
C4482 H4466 0.931 . S
C4482 C4476 1.383 . S
C4482 C4481 1.379 . S
H4483 C4477 0.959 . S
H4484 C4477 0.961 . S
H4485 C4477 0.960 . S
H4486 C4478 0.930 . S
H4487 C4479 0.929 . S
H4488 C4496 0.929 . S
H4489 C4498 0.930 . S
H4490 C4500 0.930 . S
H4491 C4503 0.929 . S
H4492 C4506 0.930 . S
H4493 C4508 0.933 1_655 S
H4494 C4508 0.967 . S
H4495 C4508 0.959 1_655 S
C4496 H4488 0.929 . S
C4496 C4497 1.377 . S
C4496 C4498 1.384 . S
C4497 C4496 1.377 . S
C4497 C4503 1.390 . S
C4498 H4489 0.930 . S
C4498 C4496 1.384 . S
C4498 C4499 1.372 . S
C4499 C4498 1.372 . S
C4499 C4500 1.400 . S
C4499 C4504 1.490 . S
C4500 H4490 0.930 . S
C4500 C4499 1.400 . S
C4500 C4503 1.386 . S
H4501 C4517 0.930 . S
H4502 C4518 0.931 . S
C4503 H4491 0.929 . S
C4503 C4497 1.390 . S
C4503 C4500 1.386 . S
C4504 C4499 1.490 . S
C4504 C4506 1.395 . S
C4504 C4507 1.403 . S
H4505 C4511 0.930 . S
C4506 H4492 0.930 . S
C4506 C4504 1.395 . S
C4506 C4509 1.403 . S
C4507 C4504 1.403 . S
C4507 C4508 1.546 . S
C4507 C4511 1.400 . S
C4508 H4493 0.933 1_455 S
C4508 H4494 0.967 . S
C4508 H4495 0.959 1_455 S
C4508 C4507 1.546 . S
C4509 C4506 1.403 . S
C4509 C4510 1.392 . S
C4509 C4513 1.495 . S
C4510 C4509 1.392 . S
C4510 C4511 1.385 . S
C4510 C4512 1.478 . S
C4511 H4505 0.930 . S
C4511 C4507 1.400 . S
C4511 C4510 1.385 . S
C4512 C4510 1.478 . S
C4512 C4514 1.381 . S
C4512 C4518 1.383 . S
C4513 C4509 1.495 . S
C4513 H4519 0.959 . S
C4513 H4520 0.961 . S
C4513 H4521 0.960 . S
C4514 C4512 1.381 . S
C4514 C4515 1.394 . S
C4514 H4522 0.930 . S
C4515 C4514 1.394 . S
C4515 C4516 1.383 . S
C4515 H4523 0.929 . S
C4516 C4515 1.383 . S
C4516 C4517 1.377 . S
C4517 H4501 0.930 . S
C4517 C4516 1.377 . S
C4517 C4518 1.379 . S
C4518 H4502 0.931 . S
C4518 C4512 1.383 . S
C4518 C4517 1.379 . S
H4519 C4513 0.959 . S
H4520 C4513 0.961 . S
H4521 C4513 0.960 . S
H4522 C4514 0.930 . S
H4523 C4515 0.929 . S
H4524 C4532 0.929 . S
H4525 C4534 0.930 . S
H4526 C4536 0.930 . S
H4527 C4539 0.929 . S
H4528 C4542 0.930 . S
H4529 C4544 0.960 . S
H4530 C4544 0.960 . S
H4531 C4544 0.960 . S
C4532 H4524 0.929 . S
C4532 C4533 1.377 . S
C4532 C4534 1.384 . S
C4533 C4532 1.377 . S
C4533 C4539 1.390 . S
C4534 H4525 0.930 . S
C4534 C4532 1.384 . S
C4534 C4535 1.372 . S
C4535 C4534 1.372 . S
C4535 C4536 1.400 . S
C4535 C4540 1.490 . S
C4536 H4526 0.930 . S
C4536 C4535 1.400 . S
C4536 C4539 1.386 . S
H4537 C4553 0.930 . S
H4538 C4554 0.931 . S
C4539 H4527 0.929 . S
C4539 C4533 1.390 . S
C4539 C4536 1.386 . S
C4540 C4535 1.490 . S
C4540 C4542 1.395 . S
C4540 C4543 1.403 . S
H4541 C4547 0.930 . S
C4542 H4528 0.930 . S
C4542 C4540 1.395 . S
C4542 C4545 1.403 . S
C4543 C4540 1.403 . S
C4543 C4544 1.524 . S
C4543 C4547 1.400 . S
C4544 H4529 0.960 . S
C4544 H4530 0.960 . S
C4544 H4531 0.960 . S
C4544 C4543 1.524 . S
C4545 C4542 1.403 . S
C4545 C4546 1.392 . S
C4545 C4549 1.495 . S
C4546 C4545 1.392 . S
C4546 C4547 1.385 . S
C4546 C4548 1.478 . S
C4547 H4541 0.930 . S
C4547 C4543 1.400 . S
C4547 C4546 1.385 . S
C4548 C4546 1.478 . S
C4548 C4550 1.381 . S
C4548 C4554 1.383 . S
C4549 C4545 1.495 . S
C4549 H4555 0.959 . S
C4549 H4556 0.961 . S
C4549 H4557 0.960 . S
C4550 C4548 1.381 . S
C4550 C4551 1.394 . S
C4550 H4558 0.930 . S
C4551 C4550 1.394 . S
C4551 C4552 1.383 . S
C4551 H4559 0.929 . S
C4552 C4551 1.383 . S
C4552 C4553 1.377 . S
C4553 H4537 0.930 . S
C4553 C4552 1.377 . S
C4553 C4554 1.379 . S
C4554 H4538 0.931 . S
C4554 C4548 1.383 . S
C4554 C4553 1.379 . S
H4555 C4549 0.959 . S
H4556 C4549 0.961 . S
H4557 C4549 0.960 . S
H4558 C4550 0.930 . S
H4559 C4551 0.929 . S
H4560 C4568 0.929 . S
H4561 C4570 0.930 . S
H4562 C4572 0.930 . S
H4563 C4575 0.929 . S
H4564 C4578 0.930 . S
H4565 C4580 0.960 . S
H4566 C4580 0.960 . S
H4567 C4580 0.960 . S
C4568 H4560 0.929 . S
C4568 C4569 1.377 . S
C4568 C4570 1.384 . S
C4569 C4568 1.377 . S
C4569 C4575 1.390 . S
C4570 H4561 0.930 . S
C4570 C4568 1.384 . S
C4570 C4571 1.372 . S
C4571 C4570 1.372 . S
C4571 C4572 1.400 . S
C4571 C4576 1.490 . S
C4572 H4562 0.930 . S
C4572 C4571 1.400 . S
C4572 C4575 1.386 . S
H4573 C4589 0.930 . S
H4574 C4590 0.931 . S
C4575 H4563 0.929 . S
C4575 C4569 1.390 . S
C4575 C4572 1.386 . S
C4576 C4571 1.490 . S
C4576 C4578 1.395 . S
C4576 C4579 1.403 . S
H4577 C4583 0.930 . S
C4578 H4564 0.930 . S
C4578 C4576 1.395 . S
C4578 C4581 1.403 . S
C4579 C4576 1.403 . S
C4579 C4580 1.524 . S
C4579 C4583 1.400 . S
C4580 H4565 0.960 . S
C4580 H4566 0.960 . S
C4580 H4567 0.960 . S
C4580 C4579 1.524 . S
C4581 C4578 1.403 . S
C4581 C4582 1.392 . S
C4581 C4585 1.495 . S
C4582 C4581 1.392 . S
C4582 C4583 1.385 . S
C4582 C4584 1.478 . S
C4583 H4577 0.930 . S
C4583 C4579 1.400 . S
C4583 C4582 1.385 . S
C4584 C4582 1.478 . S
C4584 C4586 1.381 . S
C4584 C4590 1.383 . S
C4585 C4581 1.495 . S
C4585 H4591 0.959 . S
C4585 H4592 0.961 . S
C4585 H4593 0.960 . S
C4586 C4584 1.381 . S
C4586 C4587 1.394 . S
C4586 H4594 0.930 . S
C4587 C4586 1.394 . S
C4587 C4588 1.383 . S
C4587 H4595 0.929 . S
C4588 C4587 1.383 . S
C4588 C4589 1.377 . S
C4589 H4573 0.930 . S
C4589 C4588 1.377 . S
C4589 C4590 1.379 . S
C4590 H4574 0.931 . S
C4590 C4584 1.383 . S
C4590 C4589 1.379 . S
H4591 C4585 0.959 . S
H4592 C4585 0.961 . S
H4593 C4585 0.960 . S
H4594 C4586 0.930 . S
H4595 C4587 0.929 . S
H4596 C4604 0.929 . S
H4597 C4606 0.930 . S
H4598 C4608 0.930 . S
H4599 C4611 0.929 . S
H4600 C4614 0.930 . S
H4601 C4616 0.960 . S
H4602 C4616 0.960 . S
H4603 C4616 0.960 . S
C4604 H4596 0.929 . S
C4604 C4605 1.377 . S
C4604 C4606 1.384 . S
C4605 C4604 1.377 . S
C4605 C4611 1.390 . S
C4606 H4597 0.930 . S
C4606 C4604 1.384 . S
C4606 C4607 1.372 . S
C4607 C4606 1.372 . S
C4607 C4608 1.400 . S
C4607 C4612 1.490 . S
C4608 H4598 0.930 . S
C4608 C4607 1.400 . S
C4608 C4611 1.386 . S
H4609 C4625 0.930 . S
H4610 C4626 0.931 . S
C4611 H4599 0.929 . S
C4611 C4605 1.390 . S
C4611 C4608 1.386 . S
C4612 C4607 1.490 . S
C4612 C4614 1.395 . S
C4612 C4615 1.403 . S
H4613 C4619 0.930 . S
C4614 H4600 0.930 . S
C4614 C4612 1.395 . S
C4614 C4617 1.403 . S
C4615 C4612 1.403 . S
C4615 C4616 1.524 . S
C4615 C4619 1.400 . S
C4616 H4601 0.960 . S
C4616 H4602 0.960 . S
C4616 H4603 0.960 . S
C4616 C4615 1.524 . S
C4617 C4614 1.403 . S
C4617 C4618 1.392 . S
C4617 C4621 1.495 . S
C4618 C4617 1.392 . S
C4618 C4619 1.385 . S
C4618 C4620 1.478 . S
C4619 H4613 0.930 . S
C4619 C4615 1.400 . S
C4619 C4618 1.385 . S
C4620 C4618 1.478 . S
C4620 C4622 1.381 . S
C4620 C4626 1.383 . S
C4621 C4617 1.495 . S
C4621 H4627 0.959 . S
C4621 H4628 0.961 . S
C4621 H4629 0.960 . S
C4622 C4620 1.381 . S
C4622 C4623 1.394 . S
C4622 H4630 0.930 . S
C4623 C4622 1.394 . S
C4623 C4624 1.383 . S
C4623 H4631 0.929 . S
C4624 C4623 1.383 . S
C4624 C4625 1.377 . S
C4625 H4609 0.930 . S
C4625 C4624 1.377 . S
C4625 C4626 1.379 . S
C4626 H4610 0.931 . S
C4626 C4620 1.383 . S
C4626 C4625 1.379 . S
H4627 C4621 0.959 . S
H4628 C4621 0.961 . S
H4629 C4621 0.960 . S
H4630 C4622 0.930 . S
H4631 C4623 0.929 . S
H4632 C4640 0.929 . S
H4633 C4642 0.930 . S
H4634 C4644 0.930 . S
H4635 C4647 0.929 . S
H4636 C4650 0.930 . S
H4637 C4652 0.960 . S
H4638 C4652 0.960 . S
H4639 C4652 0.960 . S
C4640 H4632 0.929 . S
C4640 C4641 1.377 . S
C4640 C4642 1.384 . S
C4641 C4640 1.377 . S
C4641 C4647 1.390 . S
C4642 H4633 0.930 . S
C4642 C4640 1.384 . S
C4642 C4643 1.372 . S
C4643 C4642 1.372 . S
C4643 C4644 1.400 . S
C4643 C4648 1.490 . S
C4644 H4634 0.930 . S
C4644 C4643 1.400 . S
C4644 C4647 1.386 . S
H4645 C4661 0.930 . S
H4646 C4662 0.931 . S
C4647 H4635 0.929 . S
C4647 C4641 1.390 . S
C4647 C4644 1.386 . S
C4648 C4643 1.490 . S
C4648 C4650 1.395 . S
C4648 C4651 1.403 . S
H4649 C4655 0.930 . S
C4650 H4636 0.930 . S
C4650 C4648 1.395 . S
C4650 C4653 1.403 . S
C4651 C4648 1.403 . S
C4651 C4652 1.524 . S
C4651 C4655 1.400 . S
C4652 H4637 0.960 . S
C4652 H4638 0.960 . S
C4652 H4639 0.960 . S
C4652 C4651 1.524 . S
C4653 C4650 1.403 . S
C4653 C4654 1.392 . S
C4653 C4657 1.495 . S
C4654 C4653 1.392 . S
C4654 C4655 1.385 . S
C4654 C4656 1.478 . S
C4655 H4649 0.930 . S
C4655 C4651 1.400 . S
C4655 C4654 1.385 . S
C4656 C4654 1.478 . S
C4656 C4658 1.381 . S
C4656 C4662 1.383 . S
C4657 C4653 1.495 . S
C4657 H4663 0.959 . S
C4657 H4664 0.961 . S
C4657 H4665 0.960 . S
C4658 C4656 1.381 . S
C4658 C4659 1.394 . S
C4658 H4666 0.930 . S
C4659 C4658 1.394 . S
C4659 C4660 1.383 . S
C4659 H4667 0.929 . S
C4660 C4659 1.383 . S
C4660 C4661 1.377 1_655 S
C4661 H4645 0.930 . S
C4661 C4660 1.377 1_455 S
C4661 C4662 1.379 1_455 S
C4662 H4646 0.931 . S
C4662 C4656 1.383 . S
C4662 C4661 1.379 1_655 S
H4663 C4657 0.959 . S
H4664 C4657 0.961 . S
H4665 C4657 0.960 . S
H4666 C4658 0.930 . S
H4667 C4659 0.929 . S
H4668 C4676 0.929 . S
H4669 C4678 0.930 . S
H4670 C4680 0.930 . S
H4671 C4683 0.929 . S
H4672 C4686 0.930 . S
H4673 C4688 0.960 . S
H4674 C4688 0.960 . S
H4675 C4688 0.960 . S
C4676 H4668 0.929 . S
C4676 C4677 1.377 . S
C4676 C4678 1.384 . S
C4677 C4676 1.377 . S
C4677 C4683 1.390 . S
C4678 H4669 0.930 . S
C4678 C4676 1.384 . S
C4678 C4679 1.372 . S
C4679 C4678 1.372 . S
C4679 C4680 1.400 . S
C4679 C4684 1.490 . S
C4680 H4670 0.930 . S
C4680 C4679 1.400 . S
C4680 C4683 1.386 . S
H4681 C4697 0.930 . S
H4682 C4698 0.931 . S
C4683 H4671 0.929 . S
C4683 C4677 1.390 . S
C4683 C4680 1.386 . S
C4684 C4679 1.490 . S
C4684 C4686 1.395 . S
C4684 C4687 1.403 . S
H4685 C4691 0.930 . S
C4686 H4672 0.930 . S
C4686 C4684 1.395 . S
C4686 C4689 1.403 . S
C4687 C4684 1.403 . S
C4687 C4688 1.524 . S
C4687 C4691 1.400 . S
C4688 H4673 0.960 . S
C4688 H4674 0.960 . S
C4688 H4675 0.960 . S
C4688 C4687 1.524 . S
C4689 C4686 1.403 . S
C4689 C4690 1.392 . S
C4689 C4693 1.495 . S
C4690 C4689 1.392 . S
C4690 C4691 1.385 . S
C4690 C4692 1.478 . S
C4691 H4685 0.930 . S
C4691 C4687 1.400 . S
C4691 C4690 1.385 . S
C4692 C4690 1.478 . S
C4692 C4694 1.381 . S
C4692 C4698 1.383 . S
C4693 C4689 1.495 . S
C4693 H4699 0.959 . S
C4693 H4700 0.961 . S
C4693 H4701 0.960 . S
C4694 C4692 1.381 . S
C4694 C4695 1.394 . S
C4694 H4702 0.930 . S
C4695 C4694 1.394 . S
C4695 C4696 1.383 . S
C4695 H4703 0.929 . S
C4696 C4695 1.383 . S
C4696 C4697 1.377 . S
C4697 H4681 0.930 . S
C4697 C4696 1.377 . S
C4697 C4698 1.379 . S
C4698 H4682 0.931 . S
C4698 C4692 1.383 . S
C4698 C4697 1.379 . S
H4699 C4693 0.959 . S
H4700 C4693 0.961 . S
H4701 C4693 0.960 . S
H4702 C4694 0.930 . S
H4703 C4695 0.929 . S
H4704 C4712 0.929 . S
H4705 C4714 0.930 . S
H4706 C4716 0.930 . S
H4707 C4719 0.929 . S
H4708 C4722 0.930 . S
H4709 C4724 0.960 . S
H4710 C4724 0.960 . S
H4711 C4724 0.960 . S
C4712 H4704 0.929 . S
C4712 C4713 1.377 . S
C4712 C4714 1.384 . S
C4713 C4712 1.377 . S
C4713 C4719 1.390 . S
C4714 H4705 0.930 . S
C4714 C4712 1.384 . S
C4714 C4715 1.372 . S
C4715 C4714 1.372 . S
C4715 C4716 1.400 . S
C4715 C4720 1.490 . S
C4716 H4706 0.930 . S
C4716 C4715 1.400 . S
C4716 C4719 1.386 . S
H4717 C4733 0.930 . S
H4718 C4734 0.931 . S
C4719 H4707 0.929 . S
C4719 C4713 1.390 . S
C4719 C4716 1.386 . S
C4720 C4715 1.490 . S
C4720 C4722 1.395 . S
C4720 C4723 1.403 . S
H4721 C4727 0.930 . S
C4722 H4708 0.930 . S
C4722 C4720 1.395 . S
C4722 C4725 1.403 . S
C4723 C4720 1.403 . S
C4723 C4724 1.524 . S
C4723 C4727 1.400 . S
C4724 H4709 0.960 . S
C4724 H4710 0.960 . S
C4724 H4711 0.960 . S
C4724 C4723 1.524 . S
C4725 C4722 1.403 . S
C4725 C4726 1.392 . S
C4725 C4729 1.495 . S
C4726 C4725 1.392 . S
C4726 C4727 1.385 . S
C4726 C4728 1.478 . S
C4727 H4721 0.930 . S
C4727 C4723 1.400 . S
C4727 C4726 1.385 . S
C4728 C4726 1.478 . S
C4728 C4730 1.381 . S
C4728 C4734 1.383 . S
C4729 C4725 1.495 . S
C4729 H4735 0.959 . S
C4729 H4736 0.961 . S
C4729 H4737 0.960 . S
C4730 C4728 1.381 . S
C4730 C4731 1.394 . S
C4730 H4738 0.930 . S
C4731 C4730 1.394 . S
C4731 C4732 1.383 . S
C4731 H4739 0.929 . S
C4732 C4731 1.383 . S
C4732 C4733 1.377 . S
C4733 H4717 0.930 . S
C4733 C4732 1.377 . S
C4733 C4734 1.379 . S
C4734 H4718 0.931 . S
C4734 C4728 1.383 . S
C4734 C4733 1.379 . S
H4735 C4729 0.959 . S
H4736 C4729 0.961 . S
H4737 C4729 0.960 . S
H4738 C4730 0.930 . S
H4739 C4731 0.929 . S
H4740 C4748 0.929 . S
H4741 C4750 0.930 . S
H4742 C4752 0.930 . S
H4743 C4755 0.929 . S
H4744 C4758 0.930 . S
H4745 C4760 0.960 . S
H4746 C4760 0.960 . S
H4747 C4760 0.960 . S
C4748 H4740 0.929 . S
C4748 C4749 1.377 . S
C4748 C4750 1.384 . S
C4749 C4748 1.377 . S
C4749 C4755 1.390 . S
C4750 H4741 0.930 . S
C4750 C4748 1.384 . S
C4750 C4751 1.372 . S
C4751 C4750 1.372 . S
C4751 C4752 1.400 . S
C4751 C4756 1.490 . S
C4752 H4742 0.930 . S
C4752 C4751 1.400 . S
C4752 C4755 1.386 . S
H4753 C4769 0.930 . S
H4754 C4770 0.931 . S
C4755 H4743 0.929 . S
C4755 C4749 1.390 . S
C4755 C4752 1.386 . S
C4756 C4751 1.490 . S
C4756 C4758 1.395 . S
C4756 C4759 1.403 . S
H4757 C4763 0.930 . S
C4758 H4744 0.930 . S
C4758 C4756 1.395 . S
C4758 C4761 1.403 . S
C4759 C4756 1.403 . S
C4759 C4760 1.524 . S
C4759 C4763 1.400 . S
C4760 H4745 0.960 . S
C4760 H4746 0.960 . S
C4760 H4747 0.960 . S
C4760 C4759 1.524 . S
C4761 C4758 1.403 . S
C4761 C4762 1.392 . S
C4761 C4765 1.495 . S
C4762 C4761 1.392 . S
C4762 C4763 1.385 . S
C4762 C4764 1.478 . S
C4763 H4757 0.930 . S
C4763 C4759 1.400 . S
C4763 C4762 1.385 . S
C4764 C4762 1.478 . S
C4764 C4766 1.381 . S
C4764 C4770 1.383 . S
C4765 C4761 1.495 . S
C4765 H4771 0.959 . S
C4765 H4772 0.961 . S
C4765 H4773 0.960 . S
C4766 C4764 1.381 . S
C4766 C4767 1.394 . S
C4766 H4774 0.930 . S
C4767 C4766 1.394 . S
C4767 C4768 1.383 . S
C4767 H4775 0.929 . S
C4768 C4767 1.383 . S
C4768 C4769 1.377 . S
C4769 H4753 0.930 . S
C4769 C4768 1.377 . S
C4769 C4770 1.379 . S
C4770 H4754 0.931 . S
C4770 C4764 1.383 . S
C4770 C4769 1.379 . S
H4771 C4765 0.959 . S
H4772 C4765 0.961 . S
H4773 C4765 0.960 . S
H4774 C4766 0.930 . S
H4775 C4767 0.929 . S
H4776 C4784 0.929 . S
H4777 C4786 0.930 . S
H4778 C4788 0.930 . S
H4779 C4791 0.929 . S
H4780 C4794 0.930 . S
H4781 C4796 0.960 . S
H4782 C4796 0.960 . S
H4783 C4796 0.960 . S
C4784 H4776 0.929 . S
C4784 C4785 1.377 . S
C4784 C4786 1.384 . S
C4785 C4784 1.377 . S
C4785 C4791 1.390 . S
C4786 H4777 0.930 . S
C4786 C4784 1.384 . S
C4786 C4787 1.372 . S
C4787 C4786 1.372 . S
C4787 C4788 1.400 . S
C4787 C4792 1.490 . S
C4788 H4778 0.930 . S
C4788 C4787 1.400 . S
C4788 C4791 1.386 . S
H4789 C4805 0.930 . S
H4790 C4806 0.931 . S
C4791 H4779 0.929 . S
C4791 C4785 1.390 . S
C4791 C4788 1.386 . S
C4792 C4787 1.490 . S
C4792 C4794 1.395 . S
C4792 C4795 1.403 . S
H4793 C4799 0.930 . S
C4794 H4780 0.930 . S
C4794 C4792 1.395 . S
C4794 C4797 1.403 . S
C4795 C4792 1.403 . S
C4795 C4796 1.524 . S
C4795 C4799 1.400 . S
C4796 H4781 0.960 . S
C4796 H4782 0.960 . S
C4796 H4783 0.960 . S
C4796 C4795 1.524 . S
C4797 C4794 1.403 . S
C4797 C4798 1.392 . S
C4797 C4801 1.495 . S
C4798 C4797 1.392 . S
C4798 C4799 1.385 . S
C4798 C4800 1.478 . S
C4799 H4793 0.930 . S
C4799 C4795 1.400 . S
C4799 C4798 1.385 . S
C4800 C4798 1.478 . S
C4800 C4802 1.381 . S
C4800 C4806 1.383 . S
C4801 C4797 1.495 . S
C4801 H4807 0.959 . S
C4801 H4808 0.961 . S
C4801 H4809 0.960 . S
C4802 C4800 1.381 . S
C4802 C4803 1.394 . S
C4802 H4810 0.930 . S
C4803 C4802 1.394 . S
C4803 C4804 1.383 . S
C4803 H4811 0.929 . S
C4804 C4803 1.383 . S
C4804 C4805 1.377 . S
C4805 H4789 0.930 . S
C4805 C4804 1.377 . S
C4805 C4806 1.379 . S
C4806 H4790 0.931 . S
C4806 C4800 1.383 . S
C4806 C4805 1.379 . S
H4807 C4801 0.959 . S
H4808 C4801 0.961 . S
H4809 C4801 0.960 . S
H4810 C4802 0.930 . S
H4811 C4803 0.929 . S
H4812 C4820 0.929 . S
H4813 C4822 0.930 . S
H4814 C4824 0.930 . S
H4815 C4827 0.929 . S
H4816 C4830 0.930 . S
H4817 C4832 0.960 . S
H4818 C4832 0.960 . S
H4819 C4832 0.960 . S
C4820 H4812 0.929 . S
C4820 C4821 1.377 . S
C4820 C4822 1.384 . S
C4821 C4820 1.377 . S
C4821 C4827 1.390 . S
C4822 H4813 0.930 . S
C4822 C4820 1.384 . S
C4822 C4823 1.372 . S
C4823 C4822 1.372 . S
C4823 C4824 1.400 . S
C4823 C4828 1.490 . S
C4824 H4814 0.930 . S
C4824 C4823 1.400 . S
C4824 C4827 1.386 . S
H4825 C4841 0.930 . S
H4826 C4842 0.931 . S
C4827 H4815 0.929 . S
C4827 C4821 1.390 . S
C4827 C4824 1.386 . S
C4828 C4823 1.490 . S
C4828 C4830 1.395 . S
C4828 C4831 1.403 . S
H4829 C4835 0.930 . S
C4830 H4816 0.930 . S
C4830 C4828 1.395 . S
C4830 C4833 1.403 . S
C4831 C4828 1.403 . S
C4831 C4832 1.524 . S
C4831 C4835 1.400 . S
C4832 H4817 0.960 . S
C4832 H4818 0.960 . S
C4832 H4819 0.960 . S
C4832 C4831 1.524 . S
C4833 C4830 1.403 . S
C4833 C4834 1.392 . S
C4833 C4837 1.495 . S
C4834 C4833 1.392 . S
C4834 C4835 1.385 . S
C4834 C4836 1.478 . S
C4835 H4829 0.930 . S
C4835 C4831 1.400 . S
C4835 C4834 1.385 . S
C4836 C4834 1.478 . S
C4836 C4838 1.381 . S
C4836 C4842 1.383 . S
C4837 C4833 1.495 . S
C4837 H4843 0.959 . S
C4837 H4844 0.961 . S
C4837 H4845 0.960 . S
C4838 C4836 1.381 . S
C4838 C4839 1.394 . S
C4838 H4846 0.930 . S
C4839 C4838 1.394 . S
C4839 C4840 1.383 . S
C4839 H4847 0.929 . S
C4840 C4839 1.383 . S
C4840 C4841 1.377 . S
C4841 H4825 0.930 . S
C4841 C4840 1.377 . S
C4841 C4842 1.379 . S
C4842 H4826 0.931 . S
C4842 C4836 1.383 . S
C4842 C4841 1.379 . S
H4843 C4837 0.959 . S
H4844 C4837 0.961 . S
H4845 C4837 0.960 . S
H4846 C4838 0.930 . S
H4847 C4839 0.929 . S
H4848 C4856 0.929 . S
H4849 C4858 0.930 . S
H4850 C4860 0.930 . S
H4851 C4863 0.929 . S
H4852 C4866 0.930 . S
H4853 C4868 0.960 . S
H4854 C4868 0.960 . S
H4855 C4868 0.960 . S
C4856 H4848 0.929 . S
C4856 C4857 1.377 . S
C4856 C4858 1.384 . S
C4857 C4856 1.377 . S
C4857 C4863 1.390 . S
C4858 H4849 0.930 . S
C4858 C4856 1.384 . S
C4858 C4859 1.372 . S
C4859 C4858 1.372 . S
C4859 C4860 1.400 . S
C4859 C4864 1.490 . S
C4860 H4850 0.930 . S
C4860 C4859 1.400 . S
C4860 C4863 1.386 . S
H4861 C4877 0.930 . S
H4862 C4878 0.931 . S
C4863 H4851 0.929 . S
C4863 C4857 1.390 . S
C4863 C4860 1.386 . S
C4864 C4859 1.490 . S
C4864 C4866 1.395 . S
C4864 C4867 1.403 . S
H4865 C4871 0.930 . S
C4866 H4852 0.930 . S
C4866 C4864 1.395 . S
C4866 C4869 1.403 . S
C4867 C4864 1.403 . S
C4867 C4868 1.524 . S
C4867 C4871 1.400 . S
C4868 H4853 0.960 . S
C4868 H4854 0.960 . S
C4868 H4855 0.960 . S
C4868 C4867 1.524 . S
C4869 C4866 1.403 . S
C4869 C4870 1.392 . S
C4869 C4873 1.495 . S
C4870 C4869 1.392 . S
C4870 C4871 1.385 . S
C4870 C4872 1.478 . S
C4871 H4865 0.930 . S
C4871 C4867 1.400 . S
C4871 C4870 1.385 . S
C4872 C4870 1.478 . S
C4872 C4874 1.381 . S
C4872 C4878 1.383 . S
C4873 C4869 1.495 . S
C4873 H4879 0.959 . S
C4873 H4880 0.961 . S
C4873 H4881 0.960 . S
C4874 C4872 1.381 . S
C4874 C4875 1.394 . S
C4874 H4882 0.930 . S
C4875 C4874 1.394 . S
C4875 C4876 1.383 . S
C4875 H4883 0.929 . S
C4876 C4875 1.383 . S
C4876 C4877 1.377 . S
C4877 H4861 0.930 . S
C4877 C4876 1.377 . S
C4877 C4878 1.379 . S
C4878 H4862 0.931 . S
C4878 C4872 1.383 . S
C4878 C4877 1.379 . S
H4879 C4873 0.959 . S
H4880 C4873 0.961 . S
H4881 C4873 0.960 . S
H4882 C4874 0.930 . S
H4883 C4875 0.929 . S
H4884 C4892 0.929 . S
H4885 C4894 0.930 . S
H4886 C4896 0.930 . S
H4887 C4899 0.929 . S
H4888 C4902 0.930 . S
H4889 C4904 0.960 . S
H4890 C4904 0.960 . S
H4891 C4904 0.960 . S
C4892 H4884 0.929 . S
C4892 C4893 1.377 . S
C4892 C4894 1.384 . S
C4893 C4892 1.377 . S
C4893 C4899 1.390 . S
C4894 H4885 0.930 . S
C4894 C4892 1.384 . S
C4894 C4895 1.372 . S
C4895 C4894 1.372 . S
C4895 C4896 1.400 . S
C4895 C4900 1.490 . S
C4896 H4886 0.930 . S
C4896 C4895 1.400 . S
C4896 C4899 1.386 . S
H4897 C4913 0.930 . S
H4898 C4914 0.931 . S
C4899 H4887 0.929 . S
C4899 C4893 1.390 . S
C4899 C4896 1.386 . S
C4900 C4895 1.490 . S
C4900 C4902 1.395 . S
C4900 C4903 1.403 . S
H4901 C4907 0.930 . S
C4902 H4888 0.930 . S
C4902 C4900 1.395 . S
C4902 C4905 1.403 . S
C4903 C4900 1.403 . S
C4903 C4904 1.524 . S
C4903 C4907 1.400 . S
C4904 H4889 0.960 . S
C4904 H4890 0.960 . S
C4904 H4891 0.960 . S
C4904 C4903 1.524 . S
C4905 C4902 1.403 . S
C4905 C4906 1.392 . S
C4905 C4909 1.495 . S
C4906 C4905 1.392 . S
C4906 C4907 1.385 . S
C4906 C4908 1.478 . S
C4907 H4901 0.930 . S
C4907 C4903 1.400 . S
C4907 C4906 1.385 . S
C4908 C4906 1.478 . S
C4908 C4910 1.381 . S
C4908 C4914 1.383 . S
C4909 C4905 1.495 . S
C4909 H4915 0.959 . S
C4909 H4916 0.961 . S
C4909 H4917 0.960 . S
C4910 C4908 1.381 . S
C4910 C4911 1.394 . S
C4910 H4918 0.930 . S
C4911 C4910 1.394 . S
C4911 C4912 1.383 . S
C4911 H4919 0.929 . S
C4912 C4911 1.383 . S
C4912 C4913 1.377 . S
C4913 H4897 0.930 . S
C4913 C4912 1.377 . S
C4913 C4914 1.379 . S
C4914 H4898 0.931 . S
C4914 C4908 1.383 . S
C4914 C4913 1.379 . S
H4915 C4909 0.959 . S
H4916 C4909 0.961 . S
H4917 C4909 0.960 . S
H4918 C4910 0.930 . S
H4919 C4911 0.929 . S
H4920 C4928 0.929 . S
H4921 C4930 0.930 . S
H4922 C4932 0.930 . S
H4923 C4935 0.929 . S
H4924 C4938 0.930 . S
H4925 C4940 0.960 . S
H4926 C4940 0.960 . S
H4927 C4940 0.960 . S
C4928 H4920 0.929 . S
C4928 C4929 1.377 . S
C4928 C4930 1.384 . S
C4929 C4928 1.377 . S
C4929 C4935 1.390 . S
C4930 H4921 0.930 . S
C4930 C4928 1.384 . S
C4930 C4931 1.372 . S
C4931 C4930 1.372 . S
C4931 C4932 1.400 . S
C4931 C4936 1.490 . S
C4932 H4922 0.930 . S
C4932 C4931 1.400 . S
C4932 C4935 1.386 . S
H4933 C4949 0.930 . S
H4934 C4950 0.931 . S
C4935 H4923 0.929 . S
C4935 C4929 1.390 . S
C4935 C4932 1.386 . S
C4936 C4931 1.490 . S
C4936 C4938 1.395 . S
C4936 C4939 1.403 . S
H4937 C4943 0.930 . S
C4938 H4924 0.930 . S
C4938 C4936 1.395 . S
C4938 C4941 1.403 . S
C4939 C4936 1.403 . S
C4939 C4940 1.524 . S
C4939 C4943 1.400 . S
C4940 H4925 0.960 . S
C4940 H4926 0.960 . S
C4940 H4927 0.960 . S
C4940 C4939 1.524 . S
C4941 C4938 1.403 . S
C4941 C4942 1.392 . S
C4941 C4945 1.495 . S
C4942 C4941 1.392 . S
C4942 C4943 1.385 . S
C4942 C4944 1.478 . S
C4943 H4937 0.930 . S
C4943 C4939 1.400 . S
C4943 C4942 1.385 . S
C4944 C4942 1.478 . S
C4944 C4946 1.381 . S
C4944 C4950 1.383 . S
C4945 C4941 1.495 . S
C4945 H4951 0.959 . S
C4945 H4952 0.961 . S
C4945 H4953 0.960 . S
C4946 C4944 1.381 . S
C4946 C4947 1.394 . S
C4946 H4954 0.930 . S
C4947 C4946 1.394 . S
C4947 C4948 1.383 . S
C4947 H4955 0.929 . S
C4948 C4947 1.383 . S
C4948 C4949 1.377 . S
C4949 H4933 0.930 . S
C4949 C4948 1.377 . S
C4949 C4950 1.379 . S
C4950 H4934 0.931 . S
C4950 C4944 1.383 . S
C4950 C4949 1.379 . S
H4951 C4945 0.959 . S
H4952 C4945 0.961 . S
H4953 C4945 0.960 . S
H4954 C4946 0.930 . S
H4955 C4947 0.929 . S
H4956 C4964 0.929 . S
H4957 C4966 0.930 . S
H4958 C4968 0.930 . S
H4959 C4971 0.929 . S
H4960 C4974 0.930 . S
H4961 C4976 0.960 . S
H4962 C4976 0.960 . S
H4963 C4976 0.960 . S
C4964 H4956 0.929 . S
C4964 C4965 1.377 . S
C4964 C4966 1.384 . S
C4965 C4964 1.377 . S
C4965 C4971 1.390 . S
C4966 H4957 0.930 . S
C4966 C4964 1.384 . S
C4966 C4967 1.372 . S
C4967 C4966 1.372 . S
C4967 C4968 1.400 . S
C4967 C4972 1.490 . S
C4968 H4958 0.930 . S
C4968 C4967 1.400 . S
C4968 C4971 1.386 . S
H4969 C4985 0.930 . S
H4970 C4986 0.931 . S
C4971 H4959 0.929 . S
C4971 C4965 1.390 . S
C4971 C4968 1.386 . S
C4972 C4967 1.490 . S
C4972 C4974 1.395 . S
C4972 C4975 1.403 . S
H4973 C4979 0.930 . S
C4974 H4960 0.930 . S
C4974 C4972 1.395 . S
C4974 C4977 1.403 . S
C4975 C4972 1.403 . S
C4975 C4976 1.524 . S
C4975 C4979 1.400 . S
C4976 H4961 0.960 . S
C4976 H4962 0.960 . S
C4976 H4963 0.960 . S
C4976 C4975 1.524 . S
C4977 C4974 1.403 . S
C4977 C4978 1.392 . S
C4977 C4981 1.495 . S
C4978 C4977 1.392 . S
C4978 C4979 1.385 . S
C4978 C4980 1.478 . S
C4979 H4973 0.930 . S
C4979 C4975 1.400 . S
C4979 C4978 1.385 . S
C4980 C4978 1.478 . S
C4980 C4982 1.381 . S
C4980 C4986 1.383 . S
C4981 C4977 1.495 . S
C4981 H4987 0.959 . S
C4981 H4988 0.961 . S
C4981 H4989 0.960 . S
C4982 C4980 1.381 . S
C4982 C4983 1.394 . S
C4982 H4990 0.930 . S
C4983 C4982 1.394 . S
C4983 C4984 1.383 . S
C4983 H4991 0.929 1_554 S
C4984 C4983 1.383 . S
C4984 C4985 1.377 . S
C4985 H4969 0.930 . S
C4985 C4984 1.377 . S
C4985 C4986 1.379 . S
C4986 H4970 0.931 . S
C4986 C4980 1.383 . S
C4986 C4985 1.379 . S
H4987 C4981 0.959 . S
H4988 C4981 0.961 . S
H4989 C4981 0.960 . S
H4990 C4982 0.930 . S
H4991 C4983 0.929 1_556 S
H4992 C5000 0.929 . S
H4993 C5002 0.930 . S
H4994 C5004 0.930 . S
H4995 C5007 0.929 . S
H4996 C5010 0.930 . S
H4997 C5012 0.960 . S
H4998 C5012 0.960 . S
H4999 C5012 0.960 . S
C5000 H4992 0.929 . S
C5000 C5001 1.377 . S
C5000 C5002 1.384 . S
C5001 C5000 1.377 . S
C5001 C5007 1.390 . S
C5002 H4993 0.930 . S
C5002 C5000 1.384 . S
C5002 C5003 1.372 . S
C5003 C5002 1.372 . S
C5003 C5004 1.400 . S
C5003 C5008 1.490 . S
C5004 H4994 0.930 . S
C5004 C5003 1.400 . S
C5004 C5007 1.386 . S
H5005 C5021 0.930 . S
H5006 C5022 0.931 . S
C5007 H4995 0.929 . S
C5007 C5001 1.390 . S
C5007 C5004 1.386 . S
C5008 C5003 1.490 . S
C5008 C5010 1.395 . S
C5008 C5011 1.403 . S
H5009 C5015 0.930 . S
C5010 H4996 0.930 . S
C5010 C5008 1.395 . S
C5010 C5013 1.403 . S
C5011 C5008 1.403 . S
C5011 C5012 1.524 . S
C5011 C5015 1.400 . S
C5012 H4997 0.960 . S
C5012 H4998 0.960 . S
C5012 H4999 0.960 . S
C5012 C5011 1.524 . S
C5013 C5010 1.403 . S
C5013 C5014 1.392 . S
C5013 C5017 1.495 . S
C5014 C5013 1.392 . S
C5014 C5015 1.385 . S
C5014 C5016 1.478 . S
C5015 H5009 0.930 . S
C5015 C5011 1.400 . S
C5015 C5014 1.385 . S
C5016 C5014 1.478 . S
C5016 C5018 1.381 . S
C5016 C5022 1.383 . S
C5017 C5013 1.495 . S
C5017 H5023 0.959 . S
C5017 H5024 0.961 . S
C5017 H5025 0.960 . S
C5018 C5016 1.381 . S
C5018 C5019 1.394 . S
C5018 H5026 0.930 . S
C5019 C5018 1.394 . S
C5019 C5020 1.383 . S
C5019 H5027 0.929 . S
C5020 C5019 1.383 . S
C5020 C5021 1.377 . S
C5021 H5005 0.930 . S
C5021 C5020 1.377 . S
C5021 C5022 1.379 . S
C5022 H5006 0.931 . S
C5022 C5016 1.383 . S
C5022 C5021 1.379 . S
H5023 C5017 0.959 . S
H5024 C5017 0.961 . S
H5025 C5017 0.960 . S
H5026 C5018 0.930 . S
H5027 C5019 0.929 . S
H5028 C5036 0.929 . S
H5029 C5038 0.930 . S
H5030 C5040 0.930 . S
H5031 C5043 0.929 . S
H5032 C5046 0.930 . S
H5033 C5048 0.960 . S
H5034 C5048 0.960 . S
H5035 C5048 0.960 . S
C5036 H5028 0.929 . S
C5036 C5037 1.377 . S
C5036 C5038 1.384 . S
C5037 C5036 1.377 . S
C5037 C5043 1.390 . S
C5038 H5029 0.930 . S
C5038 C5036 1.384 . S
C5038 C5039 1.372 . S
C5039 C5038 1.372 . S
C5039 C5040 1.400 . S
C5039 C5044 1.490 . S
C5040 H5030 0.930 . S
C5040 C5039 1.400 . S
C5040 C5043 1.386 . S
H5041 C5057 0.930 . S
H5042 C5058 0.931 . S
C5043 H5031 0.929 . S
C5043 C5037 1.390 . S
C5043 C5040 1.386 . S
C5044 C5039 1.490 . S
C5044 C5046 1.395 . S
C5044 C5047 1.403 . S
H5045 C5051 0.930 . S
C5046 H5032 0.930 . S
C5046 C5044 1.395 . S
C5046 C5049 1.403 . S
C5047 C5044 1.403 . S
C5047 C5048 1.524 . S
C5047 C5051 1.400 . S
C5048 H5033 0.960 . S
C5048 H5034 0.960 . S
C5048 H5035 0.960 . S
C5048 C5047 1.524 . S
C5049 C5046 1.403 . S
C5049 C5050 1.392 . S
C5049 C5053 1.495 . S
C5050 C5049 1.392 . S
C5050 C5051 1.385 . S
C5050 C5052 1.478 . S
C5051 H5045 0.930 . S
C5051 C5047 1.400 . S
C5051 C5050 1.385 . S
C5052 C5050 1.478 . S
C5052 C5054 1.381 . S
C5052 C5058 1.383 . S
C5053 C5049 1.495 . S
C5053 H5059 0.959 . S
C5053 H5060 0.961 . S
C5053 H5061 0.960 . S
C5054 C5052 1.381 . S
C5054 C5055 1.394 . S
C5054 H5062 0.930 1_554 S
C5055 C5054 1.394 . S
C5055 C5056 1.383 . S
C5055 H5063 0.929 1_554 S
C5056 C5055 1.383 . S
C5056 C5057 1.377 . S
C5057 H5041 0.930 . S
C5057 C5056 1.377 . S
C5057 C5058 1.379 . S
C5058 H5042 0.931 . S
C5058 C5052 1.383 . S
C5058 C5057 1.379 . S
H5059 C5053 0.959 . S
H5060 C5053 0.961 . S
H5061 C5053 0.960 . S
H5062 C5054 0.930 1_556 S
H5063 C5055 0.929 1_556 S
H5064 C5072 0.929 . S
H5065 C5074 0.930 . S
H5066 C5076 0.930 . S
H5067 C5079 0.929 . S
H5068 C5082 0.930 . S
H5069 C5084 0.960 . S
H5070 C5084 0.960 . S
H5071 C5084 0.960 . S
C5072 H5064 0.929 . S
C5072 C5073 1.377 . S
C5072 C5074 1.384 . S
C5073 C5072 1.377 . S
C5073 C5079 1.390 . S
C5074 H5065 0.930 . S
C5074 C5072 1.384 . S
C5074 C5075 1.372 . S
C5075 C5074 1.372 . S
C5075 C5076 1.400 . S
C5075 C5080 1.490 . S
C5076 H5066 0.930 . S
C5076 C5075 1.400 . S
C5076 C5079 1.386 . S
H5077 C5093 0.930 . S
H5078 C5094 0.931 . S
C5079 H5067 0.929 . S
C5079 C5073 1.390 . S
C5079 C5076 1.386 . S
C5080 C5075 1.490 . S
C5080 C5082 1.395 . S
C5080 C5083 1.403 . S
H5081 C5087 0.930 . S
C5082 H5068 0.930 . S
C5082 C5080 1.395 . S
C5082 C5085 1.403 . S
C5083 C5080 1.403 . S
C5083 C5084 1.524 . S
C5083 C5087 1.400 . S
C5084 H5069 0.960 . S
C5084 H5070 0.960 . S
C5084 H5071 0.960 . S
C5084 C5083 1.524 . S
C5085 C5082 1.403 . S
C5085 C5086 1.392 . S
C5085 C5089 1.495 . S
C5086 C5085 1.392 . S
C5086 C5087 1.385 . S
C5086 C5088 1.478 . S
C5087 H5081 0.930 . S
C5087 C5083 1.400 . S
C5087 C5086 1.385 . S
C5088 C5086 1.478 . S
C5088 C5090 1.381 . S
C5088 C5094 1.383 . S
C5089 C5085 1.495 . S
C5089 H5095 0.959 . S
C5089 H5096 0.961 . S
C5089 H5097 0.960 . S
C5090 C5088 1.381 . S
C5090 C5091 1.394 . S
C5090 H5098 0.930 . S
C5091 C5090 1.394 . S
C5091 C5092 1.383 . S
C5091 H5099 0.929 . S
C5092 C5091 1.383 . S
C5092 C5093 1.377 . S
C5093 H5077 0.930 . S
C5093 C5092 1.377 . S
C5093 C5094 1.379 . S
C5094 H5078 0.931 . S
C5094 C5088 1.383 . S
C5094 C5093 1.379 . S
H5095 C5089 0.959 . S
H5096 C5089 0.961 . S
H5097 C5089 0.960 . S
H5098 C5090 0.930 . S
H5099 C5091 0.929 . S
H5100 C5108 0.929 . S
H5101 C5110 0.930 . S
H5102 C5112 0.930 . S
H5103 C5115 0.929 . S
H5104 C5118 0.930 . S
H5105 C5120 0.960 . S
H5106 C5120 0.960 . S
H5107 C5120 0.960 . S
C5108 H5100 0.929 . S
C5108 C5109 1.377 . S
C5108 C5110 1.384 . S
C5109 C5108 1.377 . S
C5109 C5115 1.390 . S
C5110 H5101 0.930 . S
C5110 C5108 1.384 . S
C5110 C5111 1.372 . S
C5111 C5110 1.372 . S
C5111 C5112 1.400 . S
C5111 C5116 1.490 . S
C5112 H5102 0.930 . S
C5112 C5111 1.400 . S
C5112 C5115 1.386 . S
H5113 C5129 0.930 . S
H5114 C5130 0.931 . S
C5115 H5103 0.929 . S
C5115 C5109 1.390 . S
C5115 C5112 1.386 . S
C5116 C5111 1.490 . S
C5116 C5118 1.395 . S
C5116 C5119 1.403 . S
H5117 C5123 0.930 . S
C5118 H5104 0.930 . S
C5118 C5116 1.395 . S
C5118 C5121 1.403 . S
C5119 C5116 1.403 . S
C5119 C5120 1.524 . S
C5119 C5123 1.400 . S
C5120 H5105 0.960 . S
C5120 H5106 0.960 . S
C5120 H5107 0.960 . S
C5120 C5119 1.524 . S
C5121 C5118 1.403 . S
C5121 C5122 1.392 . S
C5121 C5125 1.495 . S
C5122 C5121 1.392 . S
C5122 C5123 1.385 . S
C5122 C5124 1.478 . S
C5123 H5117 0.930 . S
C5123 C5119 1.400 . S
C5123 C5122 1.385 . S
C5124 C5122 1.478 . S
C5124 C5126 1.381 . S
C5124 C5130 1.383 . S
C5125 C5121 1.495 . S
C5125 H5131 0.959 . S
C5125 H5132 0.961 . S
C5125 H5133 0.960 . S
C5126 C5124 1.381 . S
C5126 C5127 1.394 . S
C5126 H5134 0.930 . S
C5127 C5126 1.394 . S
C5127 C5128 1.383 . S
C5127 H5135 0.929 . S
C5128 C5127 1.383 . S
C5128 C5129 1.377 . S
C5129 H5113 0.930 . S
C5129 C5128 1.377 . S
C5129 C5130 1.379 . S
C5130 H5114 0.931 . S
C5130 C5124 1.383 . S
C5130 C5129 1.379 . S
H5131 C5125 0.959 . S
H5132 C5125 0.961 . S
H5133 C5125 0.960 . S
H5134 C5126 0.930 . S
H5135 C5127 0.929 . S
C1689 C111 1.886 . S
C1708 C403 1.910 . S
C1725 C64 1.785 . S
C1744 C476 1.841 . S
C1761 C77 1.674 . S
C1780 C571 1.669 . S
C1816 C646 1.260 . S
C1797 C95 1.377 . S
C1833 C25 1.389 . S
C1852 C730 1.316 . S
C1888 C823 1.772 . S
C1869 C36 1.681 . S
C1924 C896 1.809 . S
C1905 C50 1.771 . S
C1941 C11 1.824 . S
C1960 C991 1.834 . S
C1996 C392 1.406 . S
C1977 C237 1.409 . S
C2013 C245 0.798 . S
C2032 C478 0.854 . S
C2068 C560 0.977 . S
C2049 C279 0.908 . S
C2104 C655 1.491 . S
C2085 C175 1.495 1_556 S
C2121 C231 1.449 . S
C2140 C739 1.447 . S
C2176 C812 0.949 . S
C2157 C251 0.926 . S
C2212 C898 0.873 . S
C2193 C273 0.834 . S
C2248 C980 1.420 . S
C2229 C181 1.408 . S
C2284 C394 0.757 . S
C2265 C165 0.770 1_554 S
C2301 C288 1.618 . S
C2320 C1064 1.675 . S
C2356 C1150 1.190 . S
C2337 C333 1.298 . S
C2392 C1243 0.746 . S
C2373 C316 0.728 . S
C2409 C123 0.750 . S
C2428 C982 0.792 . S
C2445 C137 1.257 . S
C2464 C562 1.166 . S
C2481 C330 1.630 . S
C2500 C1316 1.646 . S
C2536 C1411 0.740 . S
C2517 C302 0.744 . S
C2572 C391 2.066 . S
C2553 C63 2.073 . S
C2608 C1412 1.904 . S
C2589 C106 1.905 . S
C2625 C97 1.716 . S
C2644 C559 1.771 . S
C2661 C81 1.449 . S
C2680 C1330 1.353 . S
C2716 C742 1.375 . S
C2697 C13 1.451 . S
C2733 C55 1.711 . S
C2752 C1147 1.784 . S
C2788 C908 1.841 . S
C2769 C35 1.804 . S
C2824 C1483 2.070 . S
C2805 C21 2.073 . S
C2860 C404 1.604 . S
C2841 C147 1.637 . S
C2896 C1414 0.769 . S
C2877 C321 0.813 . S
C2913 C119 1.032 . S
C2932 C572 1.034 . S
C2949 C293 1.546 . S
C2968 C1315 1.615 . S
C2985 C153 1.542 . S
C3004 C727 1.615 . S
C3040 C1160 1.017 . S
C3021 C315 1.046 . S
C3057 C125 0.841 . S
C3076 C910 0.797 . S
C3093 C287 1.628 . S
C3112 C1496 1.602 . S
C3129 C193 0.844 . S
C3148 C406 0.861 . S
C3165 C176 1.698 . S
C3184 C1076 1.713 . S
C3201 C263 1.268 . S
C3220 C826 1.242 . S
C3237 C246 0.893 . S
C3256 C1231 0.928 . S
C3292 C1498 0.897 . S
C3273 C277 0.850 1_565 S
C3309 C221 1.286 . S
C3328 C574 1.242 . S
C3364 C656 1.739 . S
C3345 C260 1.724 . S
C3400 C475 0.909 . S
C3381 C204 0.877 . S
C3417 C83 1.885 . S
C3436 C1579 1.914 . S
C3472 C1400 1.831 . S
C3453 C92 1.789 . S
C3489 C105 1.673 . S
C3508 C1663 1.676 . S
C3525 C67 1.376 . S
C3544 C1318 1.251 . S
C3561 C53 1.390 . S
C3580 C1066 1.320 . S
C3616 C1159 1.766 . S
C3597 C8 1.683 1_655 S
C3652 C1232 1.807 . S
C3633 C22 1.772 . S
C3688 C1495 1.826 . S
C3669 C39 1.828 . S
C3724 C1568 1.449 . S
C3705 C265 1.413 . S
C3741 C189 0.806 . S
C3760 C1402 0.736 . S
C3796 C1652 0.934 . S
C3777 C209 0.904 . S
C3832 C1327 1.485 . S
C3813 C217 1.494 . S
C3868 C1075 1.439 . S
C3849 C259 1.449 . S
C3885 C195 0.921 . S
C3904 C1148 0.975 . S
C3940 C1234 0.819 . S
C3921 C203 0.838 . S
C3957 C223 1.416 . S
C3976 C1484 1.449 . S
C4012 C1570 0.825 . S
C3993 C319 0.780 . S
C4029 C134 1.627 . S
C4048 C728 1.645 . S
C4084 C814 1.228 . S
C4065 C151 1.299 . S
C4120 C907 0.742 . S
C4101 C162 0.734 . S
C4156 C1486 0.807 . S
C4137 C305 0.749 . S
C4173 C291 1.257 . S
C4192 C1654 1.166 . S
C4228 C644 1.655 . S
C4209 C148 1.626 . S
C4264 C487 0.745 . S
C4245 C120 0.744 . S
C4281 C91 2.074 . S
C4300 C1567 2.077 . S
C4336 C488 1.897 . S
C4317 C78 1.902 . S
C4353 C69 1.717 . S
C4372 C1651 1.781 . S
C4389 C109 1.448 . S
C4408 C658 1.370 . S
C4425 C41 1.443 . S
C4444 C1078 1.360 . S
C4480 C811 1.778 . S
C4461 C27 1.720 . S
C4497 C7 1.804 . S
C4516 C1244 1.818 . S
C4533 C49 2.071 . S
C4552 C979 2.066 . S
C4588 C1580 1.594 . S
C4569 C329 1.638 . S
C4605 C167 0.812 . S
C4624 C490 0.772 . S
C4660 C1664 0.999 1_655 S
C4641 C301 1.039 . S
C4677 C139 1.535 . S
C4696 C643 1.625 . S
C4713 C335 1.547 . S
C4732 C1063 1.619 . S
C4768 C824 1.051 . S
C4749 C161 1.048 . S
C4785 C307 0.820 . S
C4804 C1246 0.824 . S
C4840 C992 1.583 . S
C4821 C133 1.629 . S
C4876 C1582 0.888 . S
C4857 C249 0.846 . S
C4912 C740 1.688 1_565 S
C4893 C218 1.696 . S
C4929 C235 1.269 . S
C4948 C1162 1.245 . S
C4984 C895 0.919 . S
C4965 C190 0.903 . S
C5001 C207 0.864 . S
C5020 C994 0.782 . S
C5037 C179 1.283 . S
C5056 C1666 1.208 . S
C5092 C1328 1.727 . S
C5073 C232 1.724 . S
C5128 C1399 0.916 . S
C5109 C274 0.886 . S
