# Generated by pormake.
# Topology zzz, (3,6)-cn, num edge types: 1
# Building blocks:
#     Node 0, Type 0, BuildingBlock: OLANEW_clean_sbu_2, # of connection points: 3
#     Node 1, Type 0, BuildingBlock: OLANEW_clean_sbu_2, # of connection points: 3
#     Node 2, Type 0, BuildingBlock: OLANEW_clean_sbu_2, # of connection points: 3
#     Node 3, Type 0, BuildingBlock: OLANEW_clean_sbu_2, # of connection points: 3
#     Node 4, Type 0, BuildingBlock: OLANEW_clean_sbu_2, # of connection points: 3
#     Node 5, Type 0, BuildingBlock: OLANEW_clean_sbu_2, # of connection points: 3
#     Node 6, Type 0, BuildingBlock: OLANEW_clean_sbu_2, # of connection points: 3
#     Node 7, Type 0, BuildingBlock: OLANEW_clean_sbu_2, # of connection points: 3
#     Node 8, Type 1, BuildingBlock: FUNLAD_clean_sbu_0, # of connection points: 6
#     Node 9, Type 1, BuildingBlock: FUNLAD_clean_sbu_0, # of connection points: 6
#     Node 10, Type 1, BuildingBlock: FUNLAD_clean_sbu_0, # of connection points: 6
#     Node 11, Type 1, BuildingBlock: FUNLAD_clean_sbu_0, # of connection points: 6
#     Edge 12, Type (0, 1), BuildingBlock: OJICUG_clean_linker_0, # of connection points: 2
#     Edge 13, Type (0, 1), BuildingBlock: OJICUG_clean_linker_0, # of connection points: 2
#     Edge 14, Type (0, 1), BuildingBlock: OJICUG_clean_linker_0, # of connection points: 2
#     Edge 15, Type (0, 1), BuildingBlock: OJICUG_clean_linker_0, # of connection points: 2
#     Edge 16, Type (0, 1), BuildingBlock: OJICUG_clean_linker_0, # of connection points: 2
#     Edge 17, Type (0, 1), BuildingBlock: OJICUG_clean_linker_0, # of connection points: 2
#     Edge 18, Type (0, 1), BuildingBlock: OJICUG_clean_linker_0, # of connection points: 2
#     Edge 19, Type (0, 1), BuildingBlock: OJICUG_clean_linker_0, # of connection points: 2
#     Edge 20, Type (0, 1), BuildingBlock: OJICUG_clean_linker_0, # of connection points: 2
#     Edge 21, Type (0, 1), BuildingBlock: OJICUG_clean_linker_0, # of connection points: 2
#     Edge 22, Type (0, 1), BuildingBlock: OJICUG_clean_linker_0, # of connection points: 2
#     Edge 23, Type (0, 1), BuildingBlock: OJICUG_clean_linker_0, # of connection points: 2
#     Edge 24, Type (0, 1), BuildingBlock: OJICUG_clean_linker_0, # of connection points: 2
#     Edge 25, Type (0, 1), BuildingBlock: OJICUG_clean_linker_0, # of connection points: 2
#     Edge 26, Type (0, 1), BuildingBlock: OJICUG_clean_linker_0, # of connection points: 2
#     Edge 27, Type (0, 1), BuildingBlock: OJICUG_clean_linker_0, # of connection points: 2
#     Edge 28, Type (0, 1), BuildingBlock: OJICUG_clean_linker_0, # of connection points: 2
#     Edge 29, Type (0, 1), BuildingBlock: OJICUG_clean_linker_0, # of connection points: 2
#     Edge 30, Type (0, 1), BuildingBlock: OJICUG_clean_linker_0, # of connection points: 2
#     Edge 31, Type (0, 1), BuildingBlock: OJICUG_clean_linker_0, # of connection points: 2
#     Edge 32, Type (0, 1), BuildingBlock: OJICUG_clean_linker_0, # of connection points: 2
#     Edge 33, Type (0, 1), BuildingBlock: OJICUG_clean_linker_0, # of connection points: 2
#     Edge 34, Type (0, 1), BuildingBlock: OJICUG_clean_linker_0, # of connection points: 2
#     Edge 35, Type (0, 1), BuildingBlock: OJICUG_clean_linker_0, # of connection points: 2
# Relax obj value: 0.105
# Max RMSD: 0.172
# Mean RMSD: 0.098
data_MOF--net-zzz--node1-OLANEW_clean_sbu_2--node2-FUNLAD_clean_sbu_0--edge1-OJICUG_clean_linker_0
_symmetry_space_group_name_H-M    P1
_symmetry_Int_Tables_number       1
_symmetry_cell_setting            triclinic
loop_
_symmetry_equiv_pos_as_xyz
'x, y, z'
_cell_length_a     42.239557
_cell_length_b     47.151348
_cell_length_c     14.689219
_cell_angle_alpha  84.184731
_cell_angle_beta   84.61223
_cell_angle_gamma 89.95704
loop_
_atom_site_label
_atom_site_type_symbol
_atom_site_fract_x
_atom_site_fract_y
_atom_site_fract_z
_atom_type_partial_charge
O0 O 0.83853 0.52292 0.06179 0.0
Cd1 Cd 0.78627 0.53929 0.11132 0.0
O2 O 0.8308 0.4821 0.14749 0.0
Cd3 Cd 0.8533 0.4467 0.22133 0.0
O4 O 0.88522 0.44869 0.32814 0.0
C5 C 0.88935 0.47356 0.35172 0.0
O6 O 0.87439 0.49506 0.31134 0.0
C7 C 0.84857 0.49862 0.0911 0.0
C8 C 0.74244 0.51044 0.02592 0.0
O9 O 0.75487 0.534 0.98782 0.0
O10 O 0.75056 0.50081 0.10506 0.0
O11 O 0.92742 0.81433 0.84842 0.0
Cd12 Cd 0.89248 0.77394 0.90014 0.0
O13 O 0.9232 0.8249 -0.00984 0.0
Cd14 Cd 0.9232 0.84812 0.11229 0.0
O15 O 0.88944 0.84742 0.24371 0.0
C16 C 0.8844 0.865 0.30457 0.0
O17 O 0.88893 0.84673 0.24406 0.0
C18 C 0.93456 0.8307 0.90701 0.0
C19 C 0.9226 0.72445 0.85437 0.0
O20 O 0.90363 0.73729 0.80106 0.0
O21 O 0.92685 0.73488 0.9296 0.0
O22 O 0.71747 0.97685 0.8727 0.0
Cd23 Cd 0.76231 0.96195 0.95766 0.0
O24 O 0.70093 -0.00156 -0.00721 0.0
Cd25 Cd 0.66241 0.01422 0.08149 0.0
O26 O 0.6242 0.01448 0.19032 0.0
C27 C 0.61375 0.99066 0.22985 0.0
O28 O 0.62584 0.96702 0.20171 0.0
C29 C 0.69618 0.99095 0.9146 0.0
C30 C 0.82021 0.98481 0.88056 0.0
O31 O 0.80773 0.96341 0.8495 0.0
O32 O 0.80497 -0.00413 0.94769 0.0
O33 O 0.55897 0.66063 0.87829 0.0
Cd34 Cd 0.58724 0.70144 0.92234 0.0
O35 O 0.54411 0.65 0.02448 0.0
Cd36 Cd 0.52796 0.61909 0.13923 0.0
O37 O 0.51966 0.58766 0.25765 0.0
C38 C 0.5429 0.57507 0.29285 0.0
O39 O 0.57199 0.58104 0.25604 0.0
C40 C 0.54475 0.64385 0.94219 0.0
C41 C 0.55858 0.75394 0.88623 0.0
O42 O 0.57748 0.74351 0.82493 0.0
O43 O 0.55266 0.73916 0.96418 0.0
O44 O 0.18727 0.57771 0.42797 0.0
Cd45 Cd 0.23943 0.59597 0.36869 0.0
O46 O 0.19935 0.5382 0.36616 0.0
Cd47 Cd 0.18439 0.49881 0.31686 0.0
O48 O 0.15407 0.48805 0.21376 0.0
C49 C 0.14059 0.50976 0.17646 0.0
O50 O 0.14596 0.53483 0.20405 0.0
C51 C 0.17978 0.55257 0.41365 0.0
C52 C 0.28115 0.56912 0.48319 0.0
O53 O 0.27045 0.59392 0.49694 0.0
O54 O 0.27292 0.55761 0.41351 0.0
O55 O 0.09091 0.17495 0.65006 0.0
Cd56 Cd 0.129 0.21427 0.63224 0.0
O57 O 0.11926 0.15722 0.53721 0.0
Cd58 Cd 0.13139 0.12379 0.44834 0.0
O59 O 0.11991 0.09777 0.34229 0.0
C60 C 0.11045 0.07202 0.35827 0.0
O61 O 0.10988 0.05917 0.44206 0.0
C62 C 0.09508 0.1556 0.59609 0.0
C63 C 0.09972 0.26473 0.67419 0.0
O64 O 0.09984 0.25633 0.59387 0.0
O65 O 0.11358 0.24923 0.73511 0.0
O66 O 0.30953 0.96504 0.55945 0.0
Cd67 Cd 0.2686 0.9661 0.45374 0.0
O68 O 0.32412 0.00288 0.46706 0.0
Cd69 Cd 0.36017 0.03265 0.39842 0.0
O70 O 0.39782 0.03605 0.28688 0.0
C71 C 0.41093 0.01253 0.27136 0.0
O72 O 0.4023 0.9895 0.32611 0.0
C73 C 0.32916 0.98539 0.53575 0.0
C74 C 0.20791 0.96715 0.54154 0.0
O75 O 0.21954 0.94387 0.51544 0.0
O76 O 0.2251 0.98981 0.52679 0.0
O77 O 0.49156 0.32286 0.49493 0.0
Cd78 Cd 0.48094 0.28879 0.38808 0.0
O79 O 0.44042 0.32701 0.53457 0.0
Cd80 Cd 0.42892 0.31533 0.40212 0.0
O81 O 0.43229 0.34658 0.28113 0.0
C82 C 0.45322 0.36583 0.28325 0.0
O83 O 0.47076 0.36437 0.35274 0.0
C84 C 0.46913 0.33197 0.54787 0.0
C85 C 0.49104 0.23461 0.47303 0.0
O86 O 0.46439 0.24716 0.48732 0.0
O87 O 0.51274 0.24746 0.41698 0.0
C88 C 0.00018 0.9365 0.78238 0.0
N89 N -0.00092 0.97892 0.52003 0.0
C90 C 0.01084 0.95381 0.49356 0.0
C91 C -0.00399 0.93957 0.43015 0.0
C92 C 0.96866 0.95116 0.39413 0.0
C93 C 0.9594 0.9787 0.41422 0.0
C94 C 0.97502 0.99228 0.47788 0.0
Zn95 Zn 0.01013 0.98957 0.64582 0.0
C96 C 0.95164 0.00425 0.76043 0.0
N97 N 0.02963 0.00366 0.91679 0.0
C98 C 0.05 0.98681 0.96409 0.0
C99 C 0.01838 0.02829 0.94788 0.0
C100 C 0.02918 0.03777 0.02631 0.0
C101 C 0.05162 0.02167 0.07339 0.0
C102 C 0.06127 -0.00458 0.04351 0.0
Zn103 Zn 0.01922 -0.00528 0.7902 0.0
O104 O -0.00135 0.94684 0.69959 0.0
C105 C 0.07729 0.97915 0.67506 0.0
O106 O 0.00987 0.95214 0.83955 0.0
H107 H 0.00212 0.0413 0.90941 0.0
H108 H 0.02962 0.94322 0.5286 0.0
H109 H 0.05867 0.96734 0.93788 0.0
O110 O 0.05762 0.97853 0.61516 0.0
O111 O 0.06792 0.9857 0.75493 0.0
H112 H 0.96595 0.0122 0.49979 0.0
O113 O 0.02817 0.03716 0.74063 0.0
O114 O 0.02174 0.03309 0.59586 0.0
O115 O 0.97058 0.00365 0.8229 0.0
O116 O 0.96236 0.00017 0.67917 0.0
C117 C 0.02851 0.04838 0.65834 0.0
H118 H 0.0039 0.91835 0.41742 0.0
H119 H 0.93867 0.9886 0.38688 0.0
H120 H 0.02094 0.058 0.04809 0.0
H121 H 0.07868 0.98253 0.07795 0.0
C122 C 0.44896 0.99163 0.69106 0.0
N123 N 0.50802 0.06243 0.69753 0.0
C124 C 0.49992 0.07054 0.61121 0.0
C125 C 0.49916 0.09923 0.57858 0.0
C126 C 0.50601 0.11988 0.63593 0.0
C127 C 0.51354 0.11125 0.72552 0.0
C128 C 0.51475 0.0821 0.75493 0.0
Zn129 Zn 0.5093 0.01949 0.73444 0.0
C130 C 0.4826 0.00231 0.92285 0.0
N131 N 0.50988 0.92912 0.79218 0.0
C132 C 0.50148 0.91173 0.72983 0.0
C133 C 0.52106 0.91834 0.87235 0.0
C134 C 0.52517 0.88903 0.89093 0.0
C135 C 0.51788 0.87067 0.82612 0.0
C136 C 0.50536 0.8823 0.74542 0.0
Zn137 Zn 0.50862 0.9722 0.7607 0.0
O138 O 0.46312 0.01549 0.68958 0.0
C139 C 0.53575 0.9902 0.57237 0.0
O140 O 0.4627 0.96898 0.71972 0.0
H141 H 0.52774 0.93258 0.92072 0.0
H142 H 0.49397 0.05473 0.56711 0.0
H143 H 0.49254 0.92075 0.66669 0.0
O144 O 0.53028 0.01413 0.60249 0.0
O145 O 0.52857 0.96755 0.62458 0.0
H146 H 0.52103 0.07519 0.82335 0.0
O147 O 0.55477 0.97573 0.79983 0.0
O148 O 0.55561 0.02256 0.77977 0.0
O149 O 0.48881 0.97778 0.89689 0.0
O150 O 0.48865 0.02438 0.86685 0.0
C151 C 0.56936 -0.00084 0.80167 0.0
H152 H 0.49281 0.10527 0.50952 0.0
H153 H 0.51881 0.12683 0.77145 0.0
H154 H 0.53523 0.88097 0.95354 0.0
H155 H 0.49913 0.86883 0.69419 0.0
C156 C 0.49389 0.42702 0.74437 0.0
N157 N 0.42882 0.49334 0.77314 0.0
C158 C 0.42213 0.48613 0.68962 0.0
C159 C 0.39446 0.4955 0.65262 0.0
C160 C 0.37324 0.51258 0.70167 0.0
C161 C 0.37988 0.51865 0.78979 0.0
C162 C 0.40805 0.50874 0.82449 0.0
Zn163 Zn 0.4737 0.48451 0.80659 0.0
C164 C 0.4784 0.45248 0.98046 0.0
N165 N 0.57016 0.4664 0.84418 0.0
C166 C 0.59433 0.46225 0.77885 0.0
C167 C 0.57591 0.46967 0.93211 0.0
C168 C 0.6068 0.46971 0.95681 0.0
C169 C 0.63226 0.46712 0.89003 0.0
C170 C 0.6259 0.46284 0.80029 0.0
Zn171 Zn 0.52463 0.47367 0.8136 0.0
O172 O 0.47094 0.44411 0.75634 0.0
C173 C 0.5187 0.50472 0.63717 0.0
O174 O 0.52153 0.43401 0.76196 0.0
H175 H 0.55671 0.47402 0.98248 0.0
H176 H 0.43916 0.47441 0.64882 0.0
H177 H 0.58927 0.45991 0.70918 0.0
O178 O 0.49038 0.50369 0.67469 0.0
O179 O 0.54062 0.49308 0.68088 0.0
H180 H 0.41396 0.51436 0.89048 0.0
O181 O 0.528 0.51382 0.86257 0.0
O182 O 0.47771 0.525 0.85822 0.0
O183 O 0.50716 0.45384 0.94579 0.0
O184 O 0.45699 0.46499 0.93666 0.0
C185 C 0.50577 0.53161 0.8733 0.0
H186 H 0.39078 0.49077 0.58375 0.0
H187 H 0.36399 0.53159 0.83015 0.0
H188 H 0.61077 0.4738 0.02614 0.0
H189 H 0.64509 0.46101 0.74693 0.0
C190 C 0.06441 0.51172 0.62164 0.0
N191 N 0.03176 0.43187 0.75427 0.0
C192 C 0.03927 0.42342 0.66918 0.0
C193 C 0.04805 0.3954 0.65883 0.0
C194 C 0.04889 0.3756 0.73672 0.0
C195 C 0.04057 0.38479 0.82391 0.0
C196 C 0.03208 0.41322 0.83116 0.0
Zn197 Zn 0.02099 0.47378 0.76118 0.0
C198 C 0.05801 0.50056 0.88872 0.0
N199 N 0.00022 0.56184 0.76151 0.0
C200 C -0.00442 0.57961 0.68511 0.0
C201 C -0.00391 0.5709 0.84678 0.0
C202 C 0.9861 0.59853 0.85808 0.0
C203 C 0.98046 0.61726 0.78088 0.0
C204 C 0.98567 0.60761 0.69326 0.0
Zn205 Zn 0.01118 0.52006 0.75396 0.0
O206 O 0.05999 0.486 0.65676 0.0
C207 C 0.97411 0.49208 0.62719 0.0
O208 O 0.04611 0.53093 0.64958 0.0
H209 H -0.00027 0.55643 0.90674 0.0
H210 H 0.03884 0.43856 0.60891 0.0
H211 H -0.00096 0.57192 0.61799 0.0
O212 O -0.01017 0.47112 0.65961 0.0
O213 O 0.97767 0.51641 0.65544 0.0
H214 H 0.02599 0.42044 0.89813 0.0
O215 O 0.97629 0.50959 0.85886 0.0
O216 O 0.98193 0.46324 0.86614 0.0
O217 O 0.04484 0.52261 0.85236 0.0
O218 O 0.05197 0.47636 0.86344 0.0
C219 C 0.96798 0.48498 0.89538 0.0
H220 H 0.05484 0.38955 0.59035 0.0
H221 H 0.04057 0.37022 0.8858 0.0
H222 H 0.98184 0.60479 0.92707 0.0
H223 H 0.98191 0.62145 0.63183 0.0
C224 C 0.16634 0.98793 0.64651 0.0
C225 C 0.17499 0.96825 0.58315 0.0
H226 H 0.12826 0.00615 0.72793 0.0
C227 C 0.15157 0.95075 0.55552 0.0
H228 H 0.18408 0.00159 0.66885 0.0
C229 C 0.11972 0.95389 0.58725 0.0
C230 C 0.111 0.97389 0.64936 0.0
H231 H 0.1577 0.93553 0.50632 0.0
H232 H 0.10183 0.94095 0.56233 0.0
C233 C 0.13457 0.99042 0.68058 0.0
C234 C 0.52053 0.18862 0.4829 0.0
C235 C 0.49643 0.20596 0.51909 0.0
H236 H 0.54227 0.14743 0.49209 0.0
C237 C 0.4771 0.19545 0.59853 0.0
H238 H 0.53578 0.19616 0.42184 0.0
C239 C 0.48134 0.16784 0.63977 0.0
C240 C 0.50457 0.15021 0.60116 0.0
H241 H 0.4585 0.20846 0.62827 0.0
H242 H 0.4657 0.15986 0.69955 0.0
C243 C 0.52431 0.16084 0.52303 0.0
C244 C 0.30835 0.52495 0.54188 0.0
C245 C 0.30246 0.55413 0.54563 0.0
H246 H 0.33427 0.48859 0.59148 0.0
C247 C 0.31746 0.56883 0.60841 0.0
H248 H 0.29666 0.51293 0.4954 0.0
C249 C 0.33931 0.55495 0.66286 0.0
C250 C 0.34632 0.52604 0.65609 0.0
H251 H 0.31321 0.59132 0.61311 0.0
H252 H 0.35181 0.56724 0.70686 0.0
C253 C 0.32987 0.51101 0.597 0.0
C254 C 0.0915 0.30497 0.77273 0.0
C255 C 0.08472 0.29194 0.69482 0.0
H256 H 0.08598 0.34182 0.8464 0.0
C257 C 0.06425 0.30562 0.63472 0.0
H258 H 0.10721 0.2949 0.82031 0.0
C259 C 0.0516 0.3322 0.65054 0.0
C260 C 0.0595 0.34595 0.7261 0.0
H261 H 0.0582 0.29591 0.5748 0.0
H262 H 0.03592 0.34215 0.6027 0.0
C263 C 0.07915 0.33178 0.788 0.0
C264 C 0.87224 0.00745 0.90024 0.0
C265 C 0.85234 -0.00515 0.844 0.0
H266 H 0.91976 0.02034 0.91779 0.0
C267 C 0.86444 0.98923 0.75548 0.0
H268 H 0.86343 0.01198 0.96887 0.0
C269 C 0.89638 -0.00547 0.7256 0.0
C270 C 0.91698 0.00495 0.78456 0.0
H271 H 0.84949 0.97975 0.7105 0.0
H272 H 0.90529 0.98872 0.65846 0.0
C273 C 0.90444 0.01219 0.87109 0.0
C274 C 0.52899 0.79605 0.9408 0.0
C275 C 0.54542 0.78284 0.86901 0.0
H276 H 0.50714 0.83419 0.98336 0.0
C277 C 0.55079 0.79814 0.78173 0.0
H278 H 0.52443 0.7848 0.00882 0.0
C279 C 0.54085 0.82635 0.76724 0.0
C280 C 0.52547 0.83991 0.83981 0.0
H281 H 0.56334 0.78856 0.72496 0.0
H282 H 0.54631 0.83786 0.69996 0.0
C283 C 0.51923 0.82435 0.92642 0.0
C284 C 0.70909 0.50647 0.89579 0.0
C285 C 0.71796 0.49571 0.98244 0.0
H286 H 0.67494 0.50518 0.79736 0.0
C287 C 0.70155 0.47202 0.0303 0.0
H288 H 0.72153 0.52451 0.85682 0.0
C289 C 0.67505 0.4609 -0.00408 0.0
C290 C 0.66467 0.47315 0.91291 0.0
H291 H 0.70807 0.46303 0.0967 0.0
H292 H 0.66155 0.4438 0.03679 0.0
C293 C 0.68267 0.4952 0.86115 0.0
C294 C 0.96365 0.68723 0.88088 0.0
C295 C 0.93888 0.69813 0.83068 0.0
H296 H -0.00299 0.65371 0.90225 0.0
C297 C 0.92943 0.68334 0.75927 0.0
H298 H 0.97178 0.69837 0.93544 0.0
C299 C 0.94363 0.65749 0.74096 0.0
C300 C 0.96773 0.64609 0.79324 0.0
H301 H 0.91042 0.69128 0.71929 0.0
H302 H 0.93489 0.64597 0.68816 0.0
C303 C 0.97805 0.66159 0.862 0.0
C304 C 0.06113 0.12003 0.69677 0.0
C305 C 0.07378 0.13039 0.60812 0.0
H306 H 0.03646 0.08626 0.78164 0.0
C307 C 0.06693 0.11576 0.53331 0.0
H308 H 0.06547 0.13111 0.75557 0.0
C309 C 0.05025 0.08973 0.54805 0.0
C310 C 0.04007 0.07817 0.63786 0.0
H311 H 0.07486 0.12416 0.46366 0.0
H312 H 0.04661 0.07814 0.48982 0.0
C313 C 0.04452 0.09423 0.71152 0.0
C314 C 0.37312 0.96218 0.61728 0.0
C315 C 0.35868 0.9871 0.58104 0.0
H316 H 0.41317 0.94404 0.68006 0.0
C317 C 0.37309 0.01361 0.58642 0.0
H318 H 0.36237 0.94147 0.61446 0.0
C319 C 0.40219 0.01515 0.6236 0.0
C320 C 0.41729 0.99016 0.6568 0.0
H321 H 0.36186 0.03322 0.56207 0.0
H322 H 0.41296 0.0359 0.62538 0.0
C323 C 0.40223 0.96368 0.65455 0.0
C324 C 0.45089 0.36657 0.65868 0.0
C325 C 0.47602 0.35245 0.6132 0.0
H326 H 0.43693 0.40132 0.73557 0.0
C327 C 0.50748 0.36098 0.62083 0.0
H328 H 0.42638 0.36045 0.65475 0.0
C329 C 0.51355 0.38448 0.6676 0.0
C330 C 0.48822 0.39989 0.70678 0.0
H331 H 0.52737 0.35043 0.58686 0.0
H332 H 0.53793 0.39141 0.66897 0.0
C333 C 0.45693 0.39014 0.70457 0.0
C334 C 0.14555 0.51169 0.48792 0.0
C335 C 0.14867 0.54052 0.45263 0.0
H336 H 0.11612 0.47968 0.5692 0.0
C337 C 0.12267 0.55867 0.46451 0.0
H338 H 0.16551 0.49738 0.4814 0.0
C339 C 0.09459 0.54863 0.51466 0.0
C340 C 0.09202 0.52027 0.55511 0.0
H341 H 0.12442 0.58094 0.43765 0.0
H342 H 0.07538 0.56354 0.52504 0.0
C343 C 0.11737 0.5016 0.53874 0.0
C344 C 0.95735 0.86647 0.78179 0.0
C345 C 0.95374 0.85666 0.87583 0.0
H346 H 0.97519 0.89912 0.67844 0.0
C347 C 0.96842 0.87192 0.93788 0.0
H348 H 0.94667 0.85506 0.73186 0.0
C349 C 0.98487 0.89732 0.90708 0.0
C350 C 0.98709 0.90779 0.81357 0.0
H351 H 0.9672 0.86439 0.01006 0.0
H352 H -0.00491 0.90912 0.95691 0.0
C353 C 0.97382 0.89173 0.75101 0.0
C354 C 0.65162 0.97217 0.83909 0.0
C355 C 0.66471 -0.00546 0.87967 0.0
H356 H 0.61105 0.95606 0.78407 0.0
C357 C 0.64684 0.01934 0.89055 0.0
H358 H 0.6649 0.95282 0.83006 0.0
C359 C 0.61597 0.0214 0.86305 0.0
C360 C 0.60246 -0.00155 0.826 0.0
H361 H 0.65669 0.03703 0.92053 0.0
H362 H 0.60243 0.04055 0.87301 0.0
C363 C 0.62071 0.97398 0.81345 0.0
C364 C 0.5522 0.60011 0.86266 0.0
C365 C 0.53323 0.61586 0.92232 0.0
H366 H 0.55845 0.56088 0.80253 0.0
C367 C 0.50425 0.60412 0.9647 0.0
H368 H 0.57466 0.60865 0.82942 0.0
C369 C 0.49451 0.57685 0.94766 0.0
C370 C 0.51421 0.56077 0.89046 0.0
H371 H 0.48915 0.61607 0.01054 0.0
H372 H 0.47215 0.56809 0.98076 0.0
C373 C 0.54301 0.57272 0.84793 0.0
C374 C 0.88808 0.46533 0.02281 0.0
C375 C 0.8814 0.4908 0.06281 0.0
H376 H 0.9217 0.4431 0.93686 0.0
C377 C 0.90558 0.511 0.06281 0.0
H378 H 0.86955 0.4495 0.02226 0.0
C379 C 0.9352 0.50712 0.01634 0.0
C380 C 0.94098 0.48328 0.967 0.0
H381 H 0.901 0.53061 0.09423 0.0
H382 H 0.95283 0.52398 0.01306 0.0
C383 C 0.91784 0.4616 0.97446 0.0
C384 C 0.09386 0.07377 0.19953 0.0
C385 C 0.09689 0.0581 0.28482 0.0
H386 H 0.07715 0.07444 0.06661 0.0
C387 C 0.08536 0.02986 0.29999 0.0
H388 H 0.10248 0.09555 0.18536 0.0
C389 C 0.07079 0.01771 0.23121 0.0
C390 C 0.06718 0.03377 0.14695 0.0
H391 H 0.08727 0.01728 0.36514 0.0
H392 H 0.06181 -0.00398 0.24442 0.0
C393 C 0.0791 0.06178 0.13163 0.0
C394 C 0.44296 0.98354 0.16326 0.0
C395 C 0.43233 0.01034 0.18688 0.0
H396 H 0.46719 0.95995 0.06125 0.0
C397 C 0.44044 0.03467 0.12583 0.0
H398 H 0.43721 0.96438 0.20899 0.0
C399 C 0.45767 0.03212 0.04121 0.0
C400 C 0.46705 0.00518 0.01581 0.0
H401 H 0.43276 0.05563 0.14221 0.0
H402 H 0.46284 0.05123 -0.00528 0.0
C403 C 0.46009 0.98098 0.07848 0.0
C404 C 0.48706 0.40499 0.19848 0.0
C405 C 0.45838 0.3894 0.20918 0.0
H406 H 0.51578 0.43737 0.11759 0.0
C407 C 0.43507 0.3966 0.14882 0.0
H408 H 0.50544 0.40001 0.24416 0.0
C409 C 0.44073 0.41855 0.07756 0.0
C410 C 0.47002 0.43321 0.06459 0.0
H411 H 0.41264 0.38511 0.1561 0.0
H412 H 0.4228 0.42311 0.03012 0.0
C413 C 0.49295 0.42647 0.12634 0.0
C414 C 0.1054 0.53164 0.0615 0.0
C415 C 0.11961 0.50723 0.10263 0.0
H416 H 0.07491 0.54872 0.96164 0.0
C417 C 0.11367 0.48062 0.07218 0.0
H418 H 0.10951 0.55248 0.08332 0.0
C419 C 0.09383 0.47847 0.00219 0.0
C420 C 0.07956 0.50291 0.96126 0.0
H421 H 0.12429 0.46142 0.10245 0.0
H422 H 0.08961 0.45764 0.98047 0.0
C423 C 0.08559 0.52951 -0.00842 0.0
C424 C 0.89417 0.91046 0.36439 0.0
C425 C 0.90579 0.88933 0.31003 0.0
H426 H 0.90465 0.94672 0.43216 0.0
C427 C 0.93777 0.89059 0.27307 0.0
H428 H 0.86967 0.90975 0.39423 0.0
C429 C 0.95809 0.91194 0.29501 0.0
C430 C 0.94666 0.93237 0.35349 0.0
H431 H 0.9475 0.87432 0.23187 0.0
H432 H 0.98299 0.91176 0.26947 0.0
C433 C 0.91422 0.93182 0.38544 0.0
C434 C 0.5773 0.01509 0.33976 0.0
C435 C 0.59065 0.98973 0.312 0.0
H436 H 0.54918 0.03501 0.44308 0.0
C437 C 0.58328 0.9639 0.36659 0.0
H438 H 0.58223 0.0353 0.29879 0.0
C439 C 0.56425 0.96371 0.4499 0.0
C440 C 0.5523 0.98934 0.47971 0.0
H441 H 0.5931 0.94397 0.34669 0.0
H442 H 0.55989 0.94368 0.49233 0.0
C443 C 0.55833 0.0149 0.4226 0.0
C444 C 0.5059 0.54858 0.41444 0.0
C445 C 0.53717 0.55521 0.37734 0.0
H446 H 0.47567 0.5273 0.52463 0.0
C447 C 0.56262 0.54355 0.42359 0.0
H448 H 0.48575 0.55701 0.38027 0.0
C449 C 0.55683 0.52638 0.50704 0.0
C450 C 0.52549 0.52061 0.54545 0.0
H451 H 0.587 0.54819 0.3965 0.0
H452 H 0.57683 0.51825 0.54245 0.0
C453 C 0.50014 0.5315 0.49739 0.0
C454 C 0.92749 0.45563 0.46403 0.0
C455 C 0.91074 0.4784 0.42279 0.0
H456 H 0.96053 0.44212 0.56054 0.0
C457 C 0.91477 0.50588 0.44974 0.0
H458 H 0.92492 0.43422 0.44488 0.0
C459 C 0.93523 0.51047 0.51647 0.0
C460 C 0.95209 0.48767 0.55729 0.0
H461 H 0.90217 0.5239 0.41923 0.0
H462 H 0.93793 0.53186 0.5357 0.0
C463 C 0.94793 0.46021 0.5304 0.0
loop_
_geom_bond_atom_site_label_1
_geom_bond_atom_site_label_2
_geom_bond_distance
_geom_bond_site_symmetry_2
_ccdc_geom_bond_type
O0 Cd1 2.300 . S
O0 C7 1.275 . S
Cd1 O0 2.300 . S
Cd1 O9 2.381 . S
Cd1 O10 2.378 . S
O2 Cd3 2.385 . S
O2 C7 1.255 . S
Cd3 O2 2.385 . S
Cd3 O4 2.317 . S
O4 Cd3 2.317 . S
O4 C5 1.232 . S
C5 O4 1.232 . S
C5 O6 1.218 . S
O6 C5 1.218 . S
C7 O0 1.275 . S
C7 O2 1.255 . S
C8 O9 1.258 . S
C8 O10 1.256 . S
O9 Cd1 2.381 . S
O9 C8 1.258 . S
O10 Cd1 2.378 . S
O10 C8 1.256 . S
O11 Cd12 2.300 . S
O11 C18 1.275 . S
Cd12 O11 2.300 . S
Cd12 O20 2.381 . S
Cd12 O21 2.378 . S
O13 Cd14 2.400 1_556 S
O13 C18 1.239 1_455 S
Cd14 O13 2.400 1_554 S
Cd14 O15 2.317 1_455 S
O15 Cd14 2.317 1_655 S
O15 C16 1.232 . S
C16 O15 1.232 . S
C16 O17 1.204 1_655 S
O17 C16 1.204 1_455 S
C18 O11 1.275 . S
C18 O13 1.239 1_655 S
C19 O20 1.258 . S
C19 O21 1.256 . S
O20 Cd12 2.381 . S
O20 C19 1.258 . S
O21 Cd12 2.378 . S
O21 C19 1.256 . S
O22 Cd23 2.300 1_566 S
O22 C29 1.275 1_565 S
Cd23 O22 2.300 1_544 S
Cd23 O31 2.381 1_544 S
Cd23 O32 2.378 . S
O24 Cd25 2.385 . S
O24 C29 1.255 1_554 S
Cd25 O24 2.385 . S
Cd25 O26 2.317 . S
O26 Cd25 2.317 . S
O26 C27 1.232 . S
C27 O26 1.232 . S
C27 O28 1.218 . S
O28 C27 1.218 . S
C29 O22 1.275 1_545 S
C29 O24 1.255 1_556 S
C30 O31 1.253 1_544 S
C30 O32 1.262 . S
O31 Cd23 2.381 1_566 S
O31 C30 1.253 1_566 S
O32 Cd23 2.378 . S
O32 C30 1.262 . S
O33 Cd34 2.300 1_556 S
O33 C40 1.275 1_556 S
Cd34 O33 2.300 1_554 S
Cd34 O42 2.381 1_554 S
Cd34 O43 2.378 . S
O35 Cd36 2.385 . S
O35 C40 1.255 . S
Cd36 O35 2.385 . S
Cd36 O37 2.317 . S
O37 Cd36 2.317 . S
O37 C38 1.232 . S
C38 O37 1.232 . S
C38 O39 1.218 . S
O39 C38 1.218 . S
C40 O33 1.275 1_554 S
C40 O35 1.255 . S
C41 O42 1.258 1_554 S
C41 O43 1.256 . S
O42 Cd34 2.381 1_556 S
O42 C41 1.258 1_556 S
O43 Cd34 2.378 . S
O43 C41 1.256 . S
O44 Cd45 2.300 . S
O44 C51 1.275 . S
Cd45 O44 2.300 . S
Cd45 O53 2.381 . S
Cd45 O54 2.378 . S
O46 Cd47 2.385 . S
O46 C51 1.255 . S
Cd47 O46 2.385 . S
Cd47 O48 2.317 . S
O48 Cd47 2.317 . S
O48 C49 1.232 . S
C49 O48 1.232 . S
C49 O50 1.218 . S
O50 C49 1.218 . S
C51 O44 1.275 . S
C51 O46 1.255 . S
C52 O53 1.258 . S
C52 O54 1.256 . S
O53 Cd45 2.381 . S
O53 C52 1.258 . S
O54 Cd45 2.378 . S
O54 C52 1.256 . S
O55 Cd56 2.300 . S
O55 C62 1.275 . S
Cd56 O55 2.300 . S
Cd56 O64 2.381 . S
Cd56 O65 2.378 . S
O57 Cd58 2.385 . S
O57 C62 1.255 . S
Cd58 O57 2.385 . S
Cd58 O59 2.317 . S
O59 Cd58 2.317 . S
O59 C60 1.232 . S
C60 O59 1.232 . S
C60 O61 1.218 . S
O61 C60 1.218 . S
C62 O55 1.275 . S
C62 O57 1.255 . S
C63 O64 1.258 . S
C63 O65 1.256 . S
O64 Cd56 2.381 . S
O64 C63 1.258 . S
O65 Cd56 2.378 . S
O65 C63 1.256 . S
O66 Cd67 2.300 1_565 S
O66 C73 1.275 1_565 S
Cd67 O66 2.300 1_545 S
Cd67 O75 2.381 1_545 S
Cd67 O76 2.378 . S
O68 Cd69 2.385 . S
O68 C73 1.255 . S
Cd69 O68 2.385 . S
Cd69 O70 2.317 . S
O70 Cd69 2.317 . S
O70 C71 1.232 . S
C71 O70 1.232 . S
C71 O72 1.218 . S
O72 C71 1.218 . S
C73 O66 1.275 1_545 S
C73 O68 1.255 . S
C74 O75 1.258 1_545 S
C74 O76 1.256 . S
O75 Cd67 2.381 1_565 S
O75 C74 1.258 1_565 S
O76 Cd67 2.378 . S
O76 C74 1.256 . S
O77 Cd78 2.300 . S
O77 C84 1.275 . S
Cd78 O77 2.300 . S
Cd78 O86 2.381 . S
Cd78 O87 2.378 . S
O79 Cd80 2.385 . S
O79 C84 1.255 . S
Cd80 O79 2.385 . S
Cd80 O81 2.317 . S
O81 Cd80 2.317 . S
O81 C82 1.232 . S
C82 O81 1.232 . S
C82 O83 1.218 . S
O83 C82 1.218 . S
C84 O77 1.275 . S
C84 O79 1.255 . S
C85 O86 1.258 . S
C85 O87 1.256 . S
O86 Cd78 2.381 . S
O86 C85 1.258 . S
O87 Cd78 2.378 . S
O87 C85 1.256 . S
C88 O104 1.251 . S
C88 O106 1.254 . S
N89 C90 1.333 . S
N89 C94 1.307 1_455 S
N89 Zn95 2.020 . S
C90 N89 1.333 . S
C90 C91 1.379 . S
C90 H108 0.952 . S
C91 C90 1.379 . S
C91 C92 1.390 1_455 S
C91 H118 0.949 . S
C92 C91 1.390 1_655 S
C92 C93 1.357 . S
C93 C92 1.357 . S
C93 C94 1.370 . S
C93 H119 0.950 . S
C94 N89 1.307 1_655 S
C94 C93 1.370 . S
C94 H112 0.948 1_565 S
Zn95 N89 2.020 . S
Zn95 O104 2.039 . S
Zn95 O110 2.034 . S
Zn95 O114 2.025 1_565 S
Zn95 O116 2.024 1_455 S
C96 O115 1.246 . S
C96 O116 1.249 1_545 S
N97 C98 1.307 1_556 S
N97 C99 1.333 . S
N97 Zn103 2.020 . S
C98 N97 1.307 1_554 S
C98 C102 1.370 . S
C98 H109 0.948 1_545 S
C99 N97 1.333 . S
C99 C100 1.379 1_556 S
C99 H107 0.952 . S
C100 C99 1.379 1_554 S
C100 C101 1.390 . S
C100 H120 0.949 . S
C101 C100 1.390 . S
C101 C102 1.357 . S
C102 C98 1.370 . S
C102 C101 1.357 . S
C102 H121 0.950 . S
Zn103 N97 2.020 . S
Zn103 O106 2.025 1_545 S
Zn103 O111 2.024 . S
Zn103 O113 2.039 . S
Zn103 O115 2.034 1_455 S
O104 C88 1.251 . S
O104 Zn95 2.039 . S
C105 O110 1.246 . S
C105 O111 1.249 1_565 S
O106 C88 1.254 . S
O106 Zn103 2.025 1_565 S
H107 C99 0.952 . S
H108 C90 0.952 . S
H109 C98 0.948 1_565 S
O110 Zn95 2.034 . S
O110 C105 1.246 . S
O111 Zn103 2.024 . S
O111 C105 1.249 1_545 S
H112 C94 0.948 1_545 S
O113 Zn103 2.039 . S
O113 C117 1.251 . S
O114 Zn95 2.025 1_545 S
O114 C117 1.254 . S
O115 C96 1.246 . S
O115 Zn103 2.034 1_655 S
O116 Zn95 2.024 1_655 S
O116 C96 1.249 1_565 S
C117 O113 1.251 . S
C117 O114 1.254 . S
H118 C91 0.949 . S
H119 C93 0.950 . S
H120 C100 0.949 . S
H121 C102 0.950 . S
C122 O138 1.251 1_565 S
C122 O140 1.254 . S
N123 C124 1.333 . S
N123 C128 1.307 . S
N123 Zn129 2.020 . S
C124 N123 1.333 . S
C124 C125 1.379 . S
C124 H142 0.952 . S
C125 C124 1.379 . S
C125 C126 1.390 . S
C125 H152 0.949 . S
C126 C125 1.390 . S
C126 C127 1.357 . S
C127 C126 1.357 . S
C127 C128 1.370 . S
C127 H153 0.950 . S
C128 N123 1.307 . S
C128 C127 1.370 . S
C128 H146 0.948 . S
Zn129 N123 2.020 . S
Zn129 O138 2.039 . S
Zn129 O144 2.034 . S
Zn129 O148 2.025 . S
Zn129 O150 2.024 . S
C130 O149 1.246 1_545 S
C130 O150 1.249 . S
N131 C132 1.307 . S
N131 C133 1.333 . S
N131 Zn137 2.020 . S
C132 N131 1.307 . S
C132 C136 1.370 . S
C132 H143 0.948 . S
C133 N131 1.333 . S
C133 C134 1.379 . S
C133 H141 0.952 . S
C134 C133 1.379 . S
C134 C135 1.390 . S
C134 H154 0.949 . S
C135 C134 1.390 . S
C135 C136 1.357 . S
C136 C132 1.370 . S
C136 C135 1.357 . S
C136 H155 0.950 . S
Zn137 N131 2.020 . S
Zn137 O140 2.025 . S
Zn137 O145 2.024 . S
Zn137 O147 2.039 . S
Zn137 O149 2.034 . S
O138 C122 1.251 1_545 S
O138 Zn129 2.039 . S
C139 O144 1.246 1_565 S
C139 O145 1.249 . S
O140 C122 1.254 . S
O140 Zn137 2.025 . S
H141 C133 0.952 . S
H142 C124 0.952 . S
H143 C132 0.948 . S
O144 Zn129 2.034 . S
O144 C139 1.246 1_545 S
O145 Zn137 2.024 . S
O145 C139 1.249 . S
H146 C128 0.948 . S
O147 Zn137 2.039 . S
O147 C151 1.251 1_565 S
O148 Zn129 2.025 . S
O148 C151 1.254 . S
O149 C130 1.246 1_565 S
O149 Zn137 2.034 . S
O150 Zn129 2.024 . S
O150 C130 1.249 . S
C151 O147 1.251 1_545 S
C151 O148 1.254 . S
H152 C125 0.949 . S
H153 C127 0.950 . S
H154 C134 0.949 . S
H155 C136 0.950 . S
C156 O172 1.251 . S
C156 O174 1.254 . S
N157 C158 1.333 . S
N157 C162 1.307 . S
N157 Zn163 2.020 . S
C158 N157 1.333 . S
C158 C159 1.379 . S
C158 H176 0.952 . S
C159 C158 1.379 . S
C159 C160 1.390 . S
C159 H186 0.949 . S
C160 C159 1.390 . S
C160 C161 1.357 . S
C161 C160 1.357 . S
C161 C162 1.370 . S
C161 H187 0.950 . S
C162 N157 1.307 . S
C162 C161 1.370 . S
C162 H180 0.948 . S
Zn163 N157 2.020 . S
Zn163 O172 2.039 . S
Zn163 O178 2.034 . S
Zn163 O182 2.025 . S
Zn163 O184 2.024 . S
C164 O183 1.246 . S
C164 O184 1.249 . S
N165 C166 1.307 . S
N165 C167 1.333 . S
N165 Zn171 2.020 . S
C166 N165 1.307 . S
C166 C170 1.370 . S
C166 H177 0.948 . S
C167 N165 1.333 . S
C167 C168 1.379 . S
C167 H175 0.952 . S
C168 C167 1.379 . S
C168 C169 1.390 . S
C168 H188 0.949 . S
C169 C168 1.390 . S
C169 C170 1.357 . S
C170 C166 1.370 . S
C170 C169 1.357 . S
C170 H189 0.950 . S
Zn171 N165 2.020 . S
Zn171 O174 2.025 . S
Zn171 O179 2.024 . S
Zn171 O181 2.039 . S
Zn171 O183 2.034 . S
O172 C156 1.251 . S
O172 Zn163 2.039 . S
C173 O178 1.246 . S
C173 O179 1.249 . S
O174 C156 1.254 . S
O174 Zn171 2.025 . S
H175 C167 0.952 . S
H176 C158 0.952 . S
H177 C166 0.948 . S
O178 Zn163 2.034 . S
O178 C173 1.246 . S
O179 Zn171 2.024 . S
O179 C173 1.249 . S
H180 C162 0.948 . S
O181 Zn171 2.039 . S
O181 C185 1.251 . S
O182 Zn163 2.025 . S
O182 C185 1.254 . S
O183 C164 1.246 . S
O183 Zn171 2.034 . S
O184 Zn163 2.024 . S
O184 C164 1.249 . S
C185 O181 1.251 . S
C185 O182 1.254 . S
H186 C159 0.949 . S
H187 C161 0.950 . S
H188 C168 0.949 . S
H189 C170 0.950 . S
C190 O206 1.251 . S
C190 O208 1.254 . S
N191 C192 1.333 . S
N191 C196 1.307 . S
N191 Zn197 2.020 . S
C192 N191 1.333 . S
C192 C193 1.379 . S
C192 H210 0.952 . S
C193 C192 1.379 . S
C193 C194 1.390 . S
C193 H220 0.949 . S
C194 C193 1.390 . S
C194 C195 1.357 . S
C195 C194 1.357 . S
C195 C196 1.370 . S
C195 H221 0.950 . S
C196 N191 1.307 . S
C196 C195 1.370 . S
C196 H214 0.948 . S
Zn197 N191 2.020 . S
Zn197 O206 2.039 . S
Zn197 O212 2.034 1_455 S
Zn197 O216 2.025 1_455 S
Zn197 O218 2.024 . S
C198 O217 1.246 . S
C198 O218 1.249 . S
N199 C200 1.307 . S
N199 C201 1.333 . S
N199 Zn205 2.020 . S
C200 N199 1.307 . S
C200 C204 1.370 . S
C200 H211 0.948 . S
C201 N199 1.333 . S
C201 C202 1.379 1_455 S
C201 H209 0.952 1_455 S
C202 C201 1.379 1_655 S
C202 C203 1.390 1_655 S
C202 H222 0.949 . S
C203 C202 1.390 1_455 S
C203 C204 1.357 . S
C204 C200 1.370 . S
C204 C203 1.357 . S
C204 H223 0.950 . S
Zn205 N199 2.020 . S
Zn205 O208 2.025 . S
Zn205 O213 2.024 1_455 S
Zn205 O215 2.039 1_455 S
Zn205 O217 2.034 . S
O206 C190 1.251 . S
O206 Zn197 2.039 . S
C207 O212 1.246 . S
C207 O213 1.249 . S
O208 C190 1.254 . S
O208 Zn205 2.025 . S
H209 C201 0.952 1_655 S
H210 C192 0.952 . S
H211 C200 0.948 . S
O212 Zn197 2.034 1_655 S
O212 C207 1.246 . S
O213 Zn205 2.024 1_655 S
O213 C207 1.249 . S
H214 C196 0.948 . S
O215 Zn205 2.039 1_655 S
O215 C219 1.251 . S
O216 Zn197 2.025 1_655 S
O216 C219 1.254 . S
O217 C198 1.246 . S
O217 Zn205 2.034 . S
O218 Zn197 2.024 . S
O218 C198 1.249 . S
C219 O215 1.251 . S
C219 O216 1.254 . S
H220 C193 0.949 . S
H221 C195 0.950 . S
H222 C202 0.949 . S
H223 C204 0.950 . S
C224 C225 1.387 1_545 S
C224 H228 0.950 . S
C224 C233 1.390 . S
C225 C224 1.387 1_565 S
C225 C227 1.387 . S
H226 C233 0.950 . S
C227 C225 1.387 . S
C227 C229 1.390 . S
C227 H231 0.950 . S
H228 C224 0.950 . S
C229 C227 1.390 . S
C229 C230 1.387 . S
C229 H232 0.950 . S
C230 C229 1.387 . S
C230 C233 1.387 1_565 S
H231 C227 0.950 . S
H232 C229 0.950 . S
C233 C224 1.390 . S
C233 H226 0.950 . S
C233 C230 1.387 1_545 S
C234 C235 1.387 . S
C234 H238 0.950 . S
C234 C243 1.390 . S
C235 C234 1.387 . S
C235 C237 1.387 . S
H236 C243 0.950 . S
C237 C235 1.387 . S
C237 C239 1.390 . S
C237 H241 0.950 . S
H238 C234 0.950 . S
C239 C237 1.390 . S
C239 C240 1.387 . S
C239 H242 0.950 . S
C240 C239 1.387 . S
C240 C243 1.387 . S
H241 C237 0.950 . S
H242 C239 0.950 . S
C243 C234 1.390 . S
C243 H236 0.950 . S
C243 C240 1.387 . S
C244 C245 1.387 . S
C244 H248 0.950 . S
C244 C253 1.390 . S
C245 C244 1.387 . S
C245 C247 1.387 . S
H246 C253 0.950 . S
C247 C245 1.387 . S
C247 C249 1.390 . S
C247 H251 0.950 . S
H248 C244 0.950 . S
C249 C247 1.390 . S
C249 C250 1.387 . S
C249 H252 0.950 . S
C250 C249 1.387 . S
C250 C253 1.387 . S
H251 C247 0.950 . S
H252 C249 0.950 . S
C253 C244 1.390 . S
C253 H246 0.950 . S
C253 C250 1.387 . S
C254 C255 1.387 . S
C254 H258 0.950 . S
C254 C263 1.390 . S
C255 C254 1.387 . S
C255 C257 1.387 . S
H256 C263 0.950 . S
C257 C255 1.387 . S
C257 C259 1.390 . S
C257 H261 0.950 . S
H258 C254 0.950 . S
C259 C257 1.390 . S
C259 C260 1.387 . S
C259 H262 0.950 . S
C260 C259 1.387 . S
C260 C263 1.387 . S
H261 C257 0.950 . S
H262 C259 0.950 . S
C263 C254 1.390 . S
C263 H256 0.950 . S
C263 C260 1.387 . S
C264 C265 1.387 . S
C264 H268 0.950 . S
C264 C273 1.390 . S
C265 C264 1.387 . S
C265 C267 1.387 1_545 S
H266 C273 0.950 . S
C267 C265 1.387 1_565 S
C267 C269 1.390 . S
C267 H271 0.950 . S
H268 C264 0.950 . S
C269 C267 1.390 . S
C269 C270 1.387 1_565 S
C269 H272 0.950 . S
C270 C269 1.387 1_545 S
C270 C273 1.387 . S
H271 C267 0.950 . S
H272 C269 0.950 . S
C273 C264 1.390 . S
C273 H266 0.950 . S
C273 C270 1.387 . S
C274 C275 1.387 1_554 S
C274 H278 0.950 . S
C274 C283 1.390 1_554 S
C275 C274 1.387 1_556 S
C275 C277 1.387 . S
H276 C283 0.950 1_554 S
C277 C275 1.387 . S
C277 C279 1.390 . S
C277 H281 0.950 . S
H278 C274 0.950 . S
C279 C277 1.390 . S
C279 C280 1.387 . S
C279 H282 0.950 . S
C280 C279 1.387 . S
C280 C283 1.387 . S
H281 C277 0.950 . S
H282 C279 0.950 . S
C283 C274 1.390 1_556 S
C283 H276 0.950 1_556 S
C283 C280 1.387 . S
C284 C285 1.387 1_556 S
C284 H288 0.950 1_556 S
C284 C293 1.390 . S
C285 C284 1.387 1_554 S
C285 C287 1.387 . S
H286 C293 0.950 . S
C287 C285 1.387 . S
C287 C289 1.390 1_554 S
C287 H291 0.950 . S
H288 C284 0.950 1_554 S
C289 C287 1.390 1_556 S
C289 C290 1.387 . S
C289 H292 0.950 . S
C290 C289 1.387 . S
C290 C293 1.387 . S
H291 C287 0.950 . S
H292 C289 0.950 . S
C293 C284 1.390 . S
C293 H286 0.950 . S
C293 C290 1.387 . S
C294 C295 1.387 1_455 S
C294 H298 0.950 . S
C294 C303 1.390 . S
C295 C294 1.387 1_655 S
C295 C297 1.387 . S
H296 C303 0.950 . S
C297 C295 1.387 . S
C297 C299 1.390 . S
C297 H301 0.950 . S
H298 C294 0.950 . S
C299 C297 1.390 . S
C299 C300 1.388 . S
C299 H302 0.950 . S
C300 C299 1.388 . S
C300 C303 1.387 1_655 S
H301 C297 0.950 . S
H302 C299 0.950 . S
C303 C294 1.390 . S
C303 H296 0.950 . S
C303 C300 1.387 1_455 S
C304 C305 1.387 . S
C304 H308 0.950 . S
C304 C313 1.390 . S
C305 C304 1.387 . S
C305 C307 1.387 . S
H306 C313 0.950 . S
C307 C305 1.387 . S
C307 C309 1.390 . S
C307 H311 0.950 . S
H308 C304 0.950 . S
C309 C307 1.390 . S
C309 C310 1.387 . S
C309 H312 0.950 . S
C310 C309 1.387 . S
C310 C313 1.387 . S
H311 C307 0.950 . S
H312 C309 0.950 . S
C313 C304 1.390 . S
C313 H306 0.950 . S
C313 C310 1.387 . S
C314 C315 1.409 . S
C314 H318 0.950 . S
C314 C323 1.390 . S
C315 C314 1.409 . S
C315 C317 1.367 1_565 S
H316 C323 0.950 . S
C317 C315 1.367 1_545 S
C317 C319 1.390 . S
C317 H321 0.950 . S
H318 C314 0.950 . S
C319 C317 1.390 . S
C319 C320 1.387 1_545 S
C319 H322 0.950 . S
C320 C319 1.387 1_565 S
C320 C323 1.387 . S
H321 C317 0.950 . S
H322 C319 0.950 . S
C323 C314 1.390 . S
C323 H316 0.950 . S
C323 C320 1.387 . S
C324 C325 1.387 . S
C324 H328 0.950 . S
C324 C333 1.390 . S
C325 C324 1.387 . S
C325 C327 1.387 . S
H326 C333 0.950 . S
C327 C325 1.387 . S
C327 C329 1.390 . S
C327 H331 0.950 . S
H328 C324 0.950 . S
C329 C327 1.390 . S
C329 C330 1.387 . S
C329 H332 0.950 . S
C330 C329 1.387 . S
C330 C333 1.387 . S
H331 C327 0.950 . S
H332 C329 0.950 . S
C333 C324 1.390 . S
C333 H326 0.950 . S
C333 C330 1.387 . S
C334 C335 1.387 . S
C334 H338 0.950 . S
C334 C343 1.390 . S
C335 C334 1.387 . S
C335 C337 1.387 . S
H336 C343 0.950 . S
C337 C335 1.387 . S
C337 C339 1.390 . S
C337 H341 0.950 . S
H338 C334 0.950 . S
C339 C337 1.390 . S
C339 C340 1.387 . S
C339 H342 0.950 . S
C340 C339 1.387 . S
C340 C343 1.387 . S
H341 C337 0.950 . S
H342 C339 0.950 . S
C343 C334 1.390 . S
C343 H336 0.950 . S
C343 C340 1.387 . S
C344 C345 1.387 . S
C344 H348 0.950 . S
C344 C353 1.390 1_655 S
C345 C344 1.387 . S
C345 C347 1.387 . S
H346 C353 0.950 . S
C347 C345 1.387 . S
C347 C349 1.403 . S
C347 H351 0.950 1_556 S
H348 C344 0.950 . S
C349 C347 1.403 . S
C349 C350 1.381 1_655 S
C349 H352 0.943 1_656 S
C350 C349 1.381 1_455 S
C350 C353 1.387 . S
H351 C347 0.950 1_554 S
H352 C349 0.943 1_454 S
C353 C344 1.390 1_455 S
C353 H346 0.950 . S
C353 C350 1.387 . S
C354 C355 1.357 1_565 S
C354 H358 0.950 . S
C354 C363 1.390 . S
C355 C354 1.357 1_545 S
C355 C357 1.419 . S
H356 C363 0.950 . S
C357 C355 1.419 . S
C357 C359 1.390 . S
C357 H361 0.950 . S
H358 C354 0.950 . S
C359 C357 1.390 . S
C359 C360 1.387 . S
C359 H362 0.950 . S
C360 C359 1.387 . S
C360 C363 1.387 1_545 S
H361 C357 0.950 . S
H362 C359 0.950 . S
C363 C354 1.390 . S
C363 H356 0.950 . S
C363 C360 1.387 1_565 S
C364 C365 1.387 . S
C364 H368 0.950 . S
C364 C373 1.390 . S
C365 C364 1.387 . S
C365 C367 1.387 1_556 S
H366 C373 0.950 . S
C367 C365 1.387 1_554 S
C367 C369 1.390 1_554 S
C367 H371 0.950 . S
H368 C364 0.950 . S
C369 C367 1.390 1_556 S
C369 C370 1.387 . S
C369 H372 0.950 1_556 S
C370 C369 1.387 . S
C370 C373 1.387 . S
H371 C367 0.950 . S
H372 C369 0.950 1_554 S
C373 C364 1.390 . S
C373 H366 0.950 . S
C373 C370 1.387 . S
C374 C375 1.387 . S
C374 H378 0.950 . S
C374 C383 1.390 1_554 S
C375 C374 1.387 . S
C375 C377 1.387 1_554 S
H376 C383 0.950 . S
C377 C375 1.387 1_556 S
C377 C379 1.390 . S
C377 H381 0.950 1_556 S
H378 C374 0.950 . S
C379 C377 1.390 . S
C379 C380 1.387 . S
C379 H382 0.950 . S
C380 C379 1.387 . S
C380 C383 1.387 . S
H381 C377 0.950 1_554 S
H382 C379 0.950 . S
C383 C374 1.390 1_556 S
C383 H376 0.950 . S
C383 C380 1.387 . S
C384 C385 1.387 . S
C384 H388 0.950 . S
C384 C393 1.390 . S
C385 C384 1.387 . S
C385 C387 1.387 . S
H386 C393 0.950 . S
C387 C385 1.387 . S
C387 C389 1.390 . S
C387 H391 0.950 . S
H388 C384 0.950 . S
C389 C387 1.390 . S
C389 C390 1.387 . S
C389 H392 0.950 . S
C390 C389 1.387 . S
C390 C393 1.387 . S
H391 C387 0.950 . S
H392 C389 0.950 . S
C393 C384 1.390 . S
C393 H386 0.950 . S
C393 C390 1.387 . S
C394 C395 1.355 1_565 S
C394 H398 0.950 . S
C394 C403 1.390 . S
C395 C394 1.355 1_545 S
C395 C397 1.419 . S
H396 C403 0.950 . S
C397 C395 1.419 . S
C397 C399 1.390 . S
C397 H401 0.950 . S
H398 C394 0.950 . S
C399 C397 1.390 . S
C399 C400 1.387 1_554 S
C399 H402 0.948 1_554 S
C400 C399 1.387 1_556 S
C400 C403 1.387 1_546 S
H401 C397 0.950 . S
H402 C399 0.948 1_556 S
C403 C394 1.390 . S
C403 H396 0.950 . S
C403 C400 1.387 1_564 S
C404 C405 1.387 . S
C404 H408 0.950 . S
C404 C413 1.390 . S
C405 C404 1.387 . S
C405 C407 1.387 . S
H406 C413 0.950 1_556 S
C407 C405 1.387 . S
C407 C409 1.390 . S
C407 H411 0.950 . S
H408 C404 0.950 . S
C409 C407 1.390 . S
C409 C410 1.387 1_554 S
C409 H412 0.950 . S
C410 C409 1.387 1_556 S
C410 C413 1.387 1_556 S
H411 C407 0.950 . S
H412 C409 0.950 . S
C413 C404 1.390 . S
C413 H406 0.950 1_554 S
C413 C410 1.387 1_554 S
C414 C415 1.387 . S
C414 H418 0.950 . S
C414 C423 1.390 . S
C415 C414 1.387 . S
C415 C417 1.387 . S
H416 C423 0.950 1_556 S
C417 C415 1.387 . S
C417 C419 1.390 1_554 S
C417 H421 0.950 . S
H418 C414 0.950 . S
C419 C417 1.390 1_556 S
C419 C420 1.387 . S
C419 H422 0.950 . S
C420 C419 1.387 . S
C420 C423 1.387 1_556 S
H421 C417 0.950 . S
H422 C419 0.950 . S
C423 C414 1.390 . S
C423 H416 0.950 1_554 S
C423 C420 1.387 1_554 S
C424 C425 1.387 . S
C424 H428 0.950 . S
C424 C433 1.390 . S
C425 C424 1.387 . S
C425 C427 1.387 . S
H426 C433 0.950 . S
C427 C425 1.387 . S
C427 C429 1.390 1_655 S
C427 H431 0.950 1_655 S
H428 C424 0.950 . S
C429 C427 1.390 1_455 S
C429 C430 1.387 1_455 S
C429 H432 0.950 . S
C430 C429 1.387 1_655 S
C430 C433 1.387 . S
H431 C427 0.950 1_455 S
H432 C429 0.950 . S
C433 C424 1.390 . S
C433 H426 0.950 . S
C433 C430 1.387 . S
C434 C435 1.363 1_545 S
C434 H438 0.950 . S
C434 C443 1.390 . S
C435 C434 1.363 1_565 S
C435 C437 1.411 . S
H436 C443 0.950 . S
C437 C435 1.411 . S
C437 C439 1.390 . S
C437 H441 0.950 . S
H438 C434 0.950 . S
C439 C437 1.390 . S
C439 C440 1.387 . S
C439 H442 0.950 . S
C440 C439 1.387 . S
C440 C443 1.387 1_565 S
H441 C437 0.950 . S
H442 C439 0.950 . S
C443 C434 1.390 . S
C443 H436 0.950 . S
C443 C440 1.387 1_545 S
C444 C445 1.387 . S
C444 H448 0.950 . S
C444 C453 1.390 . S
C445 C444 1.387 . S
C445 C447 1.387 . S
H446 C453 0.950 . S
C447 C445 1.387 . S
C447 C449 1.390 . S
C447 H451 0.950 . S
H448 C444 0.950 . S
C449 C447 1.390 . S
C449 C450 1.387 . S
C449 H452 0.950 . S
C450 C449 1.387 . S
C450 C453 1.387 . S
H451 C447 0.950 . S
H452 C449 0.950 . S
C453 C444 1.390 . S
C453 H446 0.950 . S
C453 C450 1.387 . S
C454 C455 1.387 . S
C454 H458 0.950 . S
C454 C463 1.390 . S
C455 C454 1.387 . S
C455 C457 1.387 . S
H456 C463 0.950 . S
C457 C455 1.387 . S
C457 C459 1.390 . S
C457 H461 0.950 . S
H458 C454 0.950 . S
C459 C457 1.390 . S
C459 C460 1.387 . S
C459 H462 0.950 . S
C460 C459 1.387 . S
C460 C463 1.387 . S
H461 C457 0.950 . S
H462 C459 0.950 . S
C463 C454 1.390 . S
C463 H456 0.950 . S
C463 C460 1.387 . S
C225 C74 1.830 1_565 S
C230 C105 1.841 . S
C240 C126 1.528 . S
C235 C85 1.522 . S
C250 C160 1.423 . S
C245 C52 1.415 . S
C260 C194 1.574 . S
C255 C63 1.579 . S
C270 C96 1.841 . S
C265 C30 1.817 1_556 S
C275 C41 1.496 1_556 S
C280 C135 1.532 . S
C285 C8 1.411 . S
C290 C169 1.426 . S
C295 C19 1.526 . S
C300 C203 1.574 1_655 S
C310 C117 0.954 . S
C305 C62 0.972 . S
C320 C122 1.316 . S
C315 C73 1.303 1_565 S
C330 C156 1.230 . S
C325 C84 1.248 . S
C335 C51 0.634 . S
C340 C190 0.619 . S
C345 C18 0.905 . S
C350 C88 0.955 . S
C360 C151 1.316 . S
C355 C29 1.300 . S
C370 C185 1.228 . S
C365 C40 1.176 1_556 S
C375 C7 0.643 . S
C380 C219 0.619 . S
C385 C60 1.179 . S
C390 C101 1.352 . S
C395 C71 1.473 . S
C400 C130 1.755 . S
C410 C164 1.532 . S
C405 C82 1.322 . S
C420 C198 1.595 . S
C415 C49 1.303 . S
C425 C16 1.064 . S
C430 C92 1.357 . S
C440 C139 1.755 . S
C435 C27 1.475 1_565 S
C450 C173 1.532 . S
C445 C38 1.266 . S
C455 C5 1.370 . S
C460 C207 1.595 . S
