# Generated by pormake.
# Topology nia, (6,6)-cn, num edge types: 1
# Building blocks:
#     Node 0, Type 0, BuildingBlock: MIFKUJ_clean_sbu_0, # of connection points: 6
#     Node 1, Type 0, BuildingBlock: MIFKUJ_clean_sbu_0, # of connection points: 6
#     Node 2, Type 1, BuildingBlock: MIDCAF_clean_sbu_0, # of connection points: 6
#     Node 3, Type 1, BuildingBlock: MIDCAF_clean_sbu_0, # of connection points: 6
#     Edge 4, Type (0, 1), BuildingBlock: MIFKUJ_clean_linker_0, # of connection points: 2
#     Edge 5, Type (0, 1), BuildingBlock: MIFKUJ_clean_linker_0, # of connection points: 2
#     Edge 6, Type (0, 1), BuildingBlock: MIFKUJ_clean_linker_0, # of connection points: 2
#     Edge 7, Type (0, 1), BuildingBlock: MIFKUJ_clean_linker_0, # of connection points: 2
#     Edge 8, Type (0, 1), BuildingBlock: MIFKUJ_clean_linker_0, # of connection points: 2
#     Edge 9, Type (0, 1), BuildingBlock: MIFKUJ_clean_linker_0, # of connection points: 2
#     Edge 10, Type (0, 1), BuildingBlock: MIFKUJ_clean_linker_0, # of connection points: 2
#     Edge 11, Type (0, 1), BuildingBlock: MIFKUJ_clean_linker_0, # of connection points: 2
#     Edge 12, Type (0, 1), BuildingBlock: MIFKUJ_clean_linker_0, # of connection points: 2
#     Edge 13, Type (0, 1), BuildingBlock: MIFKUJ_clean_linker_0, # of connection points: 2
#     Edge 14, Type (0, 1), BuildingBlock: MIFKUJ_clean_linker_0, # of connection points: 2
#     Edge 15, Type (0, 1), BuildingBlock: MIFKUJ_clean_linker_0, # of connection points: 2
# Relax obj value: 0.166
# Max RMSD: 0.248
# Mean RMSD: 0.182
data_MOF--net-nia--node1-MIFKUJ_clean_sbu_0--node2-MIDCAF_clean_sbu_0--edge1-MIFKUJ_clean_linker_0
_symmetry_space_group_name_H-M    P1
_symmetry_Int_Tables_number       1
_symmetry_cell_setting            triclinic
loop_
_symmetry_equiv_pos_as_xyz
'x, y, z'
_cell_length_a     31.87217
_cell_length_b     31.880536
_cell_length_c     41.073642
_cell_angle_alpha  88.985612
_cell_angle_beta   89.17115
_cell_angle_gamma 127.08924
loop_
_atom_site_label
_atom_site_type_symbol
_atom_site_fract_x
_atom_site_fract_y
_atom_site_fract_z
_atom_type_partial_charge
Zn0 Zn 0.0419 0.98131 0.03032 0.0
Zn1 Zn -0.0006 0.03236 0.99394 0.0
C2 C 0.97815 0.87728 1.00209 0.0
O3 O 0.97126 0.86053 0.03256 0.0
C4 C 0.07257 0.13241 0.0246 0.0
O5 O 0.08401 0.15033 0.99422 0.0
O6 O 0.07587 0.96146 0.06201 0.0
O7 O 0.10102 0.04912 0.00699 0.0
O8 O 0.04987 0.02964 0.96575 0.0
C9 C 0.09354 0.9364 0.05384 0.0
O10 O 0.0912 0.92355 0.02335 0.0
O11 O 0.00587 0.92643 0.99566 0.0
C12 C 0.92541 0.04768 0.96551 0.0
O13 O 0.89178 0.01137 0.98725 0.0
O14 O 0.97244 0.06244 0.96437 0.0
O15 O 0.93766 0.96442 0.01494 0.0
O16 O 0.98552 0.97699 0.05697 0.0
O17 O 0.03821 0.08335 0.03034 0.0
C18 C 0.0954 0.05028 0.97648 0.0
C19 C 0.94082 0.95764 0.04514 0.0
Zn20 Zn 0.04447 0.9853 0.49086 0.0
Zn21 Zn 0.99378 0.02509 0.5284 0.0
C22 C 0.14894 0.0628 0.51762 0.0
O23 O 0.16497 0.07551 0.48694 0.0
C24 C 0.89017 0.95835 0.50069 0.0
O25 O 0.87419 0.95799 0.53043 0.0
O26 O 0.06795 0.95359 0.46022 0.0
O27 O 0.98082 0.92451 0.51608 0.0
O28 O -0.00187 0.97571 0.55691 0.0
C29 C 0.09763 0.94166 0.46923 0.0
O30 O 0.11337 0.94974 0.49939 0.0
O31 O 0.10048 0.02704 0.52435 0.0
C32 C 0.9688 0.09468 0.54839 0.0
O33 O 0.98869 0.11646 0.51933 0.0
O34 O 0.96725 0.05544 0.55754 0.0
O35 O 0.05878 0.08586 0.50408 0.0
O36 O 0.03851 0.0344 0.46299 0.0
O37 O 0.93907 0.98326 0.49451 0.0
C38 C 0.97986 0.93049 0.54655 0.0
C39 C 0.05776 0.07975 0.47353 0.0
Zn40 Zn 0.35461 0.68045 0.19703 0.0
Zn41 Zn 0.35636 0.67121 0.32449 0.0
Zn42 Zn 0.35195 0.67052 0.26064 0.0
C43 C 0.45916 0.7302 0.30288 0.0
C44 C 0.29871 0.56551 0.30587 0.0
O45 O 0.31349 0.70797 0.24598 0.0
O46 O 0.31288 0.70637 0.1921 0.0
C47 C 0.45797 0.73716 0.21358 0.0
O48 O 0.43562 0.71578 0.27552 0.0
O49 O 0.43311 0.71684 0.32938 0.0
O50 O 0.31764 0.59422 0.33034 0.0
O51 O 0.30607 0.58639 0.27717 0.0
O52 O 0.43168 0.7303 0.18888 0.0
O53 O 0.43464 0.7167 0.24157 0.0
O54 O 0.30879 0.58957 0.24273 0.0
O55 O 0.31815 0.60508 0.18937 0.0
C56 C 0.30101 0.57303 0.21343 0.0
O57 O 0.31395 0.70575 0.28002 0.0
O58 O 0.32015 0.70277 0.33351 0.0
C59 C 0.30088 0.71702 0.21841 0.0
C60 C 0.3056 0.71483 0.309 0.0
Zn61 Zn 0.68636 0.33316 0.82184 0.0
Zn62 Zn 0.68686 0.34437 0.70081 0.0
Zn63 Zn 0.68604 0.33963 0.76134 0.0
C64 C 0.73117 0.44504 0.71862 0.0
C65 C 0.58279 0.27471 0.71756 0.0
O66 O 0.72038 0.29793 0.77566 0.0
O67 O 0.69872 0.28028 0.82813 0.0
C68 C 0.75537 0.43882 0.80777 0.0
O69 O 0.7309 0.42421 0.74591 0.0
O70 O 0.70856 0.41656 0.69449 0.0
O71 O 0.61273 0.28617 0.69315 0.0
O72 O 0.60253 0.29391 0.74548 0.0
O73 O 0.74483 0.40672 0.83071 0.0
O74 O 0.73465 0.42154 0.77979 0.0
O75 O 0.60259 0.29655 0.77955 0.0
O76 O 0.61529 0.31124 0.8321 0.0
C77 C 0.58464 0.29354 0.80856 0.0
O78 O 0.72518 0.30535 0.74162 0.0
O79 O 0.73921 0.33247 0.69006 0.0
C80 C 0.71846 0.27581 0.80287 0.0
C81 C 0.74538 0.31011 0.71305 0.0
H82 H 0.09892 0.85455 0.05088 0.0
H83 H 0.1298 0.82404 0.09254 0.0
H84 H 0.16551 0.94886 0.15446 0.0
H85 H 0.13312 0.97891 0.11314 0.0
H86 H 0.24966 0.93007 0.14106 0.0
H87 H 0.07507 0.85007 0.18294 0.0
H88 H 0.97902 0.80068 0.17949 0.0
H89 H 0.96533 0.6659 0.14663 0.0
H90 H 0.06145 0.71479 0.14937 0.0
H91 H 0.32341 0.80599 0.246 0.0
H92 H 0.28352 0.85002 0.23222 0.0
H93 H 0.17537 0.72274 0.17009 0.0
H94 H 0.21427 0.67874 0.18417 0.0
H95 H 0.12672 0.7557 0.19742 0.0
H96 H 0.29833 0.83998 0.14222 0.0
H97 H 0.39451 0.88734 0.14131 0.0
H98 H 0.41372 0.01162 0.19545 0.0
H99 H 0.31754 0.96464 0.19694 0.0
C100 C 0.11341 0.8756 0.07332 0.0
C101 C 0.11368 0.91914 0.07875 0.0
C102 C 0.13081 0.85801 0.09712 0.0
C103 C 0.14964 0.88413 0.12653 0.0
C104 C 0.15091 0.92818 0.13191 0.0
C105 C 0.13237 0.94517 0.10835 0.0
C106 C 0.16852 0.86509 0.15114 0.0
C107 C 0.22288 0.89263 0.15416 0.0
C108 C 0.13343 0.81598 0.16773 0.0
C109 C 0.07556 0.78628 0.16613 0.0
C110 C 0.05165 0.81007 0.17468 0.0
C111 C -0.00283 0.78213 0.17292 0.0
C112 C 0.9661 0.73022 0.16279 0.0
C113 C 0.98945 0.70612 0.15446 0.0
C114 C 0.04393 0.73392 0.15615 0.0
C115 C 0.29 0.78688 0.23027 0.0
C116 C 0.27153 0.73896 0.21624 0.0
C117 C 0.26744 0.81211 0.22228 0.0
C118 C 0.22671 0.79002 0.19989 0.0
C119 C 0.20652 0.74062 0.1875 0.0
C120 C 0.22887 0.71554 0.19546 0.0
C121 C 0.20812 0.81962 0.18641 0.0
C122 C 0.15368 0.79399 0.18531 0.0
C123 C 0.24317 0.8702 0.17118 0.0
C124 C 0.30087 0.89861 0.17 0.0
C125 C 0.32311 0.8773 0.15404 0.0
C126 C 0.37758 0.90406 0.15342 0.0
C127 C 0.4102 0.9524 0.16839 0.0
C128 C 0.38842 0.97417 0.18389 0.0
C129 C 0.33395 0.94751 0.18463 0.0
H130 H 0.45236 0.97304 0.1679 0.0
H131 H 0.92392 0.70864 0.16145 0.0
H132 H 0.2563 0.13109 0.51169 0.0
H133 H 0.31953 0.16468 0.55513 0.0
H134 H 0.19207 0.08298 0.62697 0.0
H135 H 0.12845 0.04821 0.58354 0.0
H136 H 0.34281 0.2252 0.60526 0.0
H137 H 0.22905 0.04149 0.69067 0.0
H138 H 0.15967 0.94571 0.68836 0.0
H139 H 0.20485 0.9485 0.58888 0.0
H140 H 0.27486 0.04411 0.59075 0.0
H141 H 0.51383 0.29514 0.73518 0.0
H142 H 0.42655 0.25436 0.71251 0.0
H143 H 0.43883 0.14401 0.66263 0.0
H144 H 0.52515 0.18415 0.68543 0.0
H145 H 0.33764 0.09851 0.68049 0.0
H146 H 0.48433 0.2607 0.62632 0.0
H147 H 0.55914 0.35517 0.62456 0.0
H148 H 0.45602 0.39295 0.65416 0.0
H149 H 0.3807 0.29854 0.65652 0.0
C150 C 0.24164 0.1205 0.53672 0.0
C151 C 0.18729 0.0866 0.54408 0.0
C152 C 0.27788 0.13991 0.56158 0.0
C153 C 0.26065 0.12593 0.59435 0.0
C154 C 0.20637 0.09366 0.60187 0.0
C155 C 0.17005 0.07395 0.57698 0.0
C156 C 0.29975 0.14361 0.62027 0.0
C157 C 0.34123 0.19749 0.62196 0.0
C158 C 0.29805 0.10759 0.64205 0.0
C159 C 0.25669 0.05 0.64076 0.0
C160 C 0.22423 0.02159 0.66835 0.0
C161 C 0.18481 0.96736 0.66711 0.0
C162 C 0.17772 0.94108 0.63845 0.0
C163 C 0.21023 0.96894 0.61102 0.0
C164 C 0.24975 0.02315 0.61215 0.0
C165 C 0.49675 0.26084 0.72045 0.0
C166 C 0.52586 0.2425 0.7121 0.0
C167 C 0.44717 0.23783 0.70731 0.0
C168 C 0.42649 0.1966 0.68546 0.0
C169 C 0.45382 0.17565 0.67942 0.0
C170 C 0.50319 0.19864 0.69241 0.0
C171 C 0.38084 0.17994 0.66519 0.0
C172 C 0.33826 0.1263 0.66445 0.0
C173 C 0.38206 0.21598 0.64375 0.0
C174 C 0.4271 0.27266 0.64197 0.0
C175 C 0.47772 0.28918 0.63264 0.0
C176 C 0.52018 0.34267 0.63152 0.0
C177 C 0.51237 0.38003 0.63934 0.0
C178 C 0.46203 0.36396 0.64819 0.0
C179 C 0.41945 0.31048 0.64943 0.0
H180 H 0.54529 0.42144 0.63847 0.0
H181 H 0.14713 0.89912 0.63753 0.0
H182 H 0.0576 0.10901 0.09045 0.0
H183 H 0.09716 0.1709 0.13492 0.0
H184 H 0.18321 0.30053 0.06461 0.0
H185 H 0.14483 0.23923 0.02033 0.0
H186 H 0.24479 0.31762 0.11203 0.0
H187 H 0.06583 0.25782 0.10321 0.0
H188 H 0.9689 0.19692 0.10563 0.0
H189 H 0.97079 0.16094 0.20658 0.0
H190 H 0.06781 0.22017 0.20447 0.0
H191 H 0.23621 0.52227 0.16384 0.0
H192 H 0.19826 0.43368 0.14628 0.0
H193 H 0.26255 0.40802 0.22913 0.0
H194 H 0.30283 0.49816 0.24627 0.0
H195 H 0.13032 0.32576 0.19047 0.0
H196 H 0.31826 0.39494 0.19511 0.0
H197 H 0.41258 0.46894 0.18864 0.0
H198 H 0.38896 0.49857 0.09074 0.0
H199 H 0.29419 0.42498 0.09686 0.0
C200 C 0.08525 0.15071 0.0845 0.0
C201 C 0.09788 0.16919 0.05178 0.0
C202 C 0.10773 0.18603 0.10997 0.0
C203 C 0.14297 0.24048 0.10319 0.0
C204 C 0.15637 0.25874 0.07054 0.0
C205 C 0.13413 0.22358 0.04517 0.0
C206 C 0.16492 0.27921 0.12959 0.0
C207 C 0.21963 0.31865 0.12955 0.0
C208 C 0.13246 0.28064 0.15285 0.0
C209 C 0.0742 0.24258 0.15348 0.0
C210 C 0.04566 0.23605 0.12574 0.0
C211 C 0.99066 0.20193 0.12708 0.0
C212 C 0.96371 0.17488 0.15619 0.0
C213 C 0.99172 0.18167 0.18398 0.0
C214 C 0.04671 0.21525 0.18268 0.0
C215 C 0.24179 0.49756 0.17859 0.0
C216 C 0.27211 0.51685 0.20657 0.0
C217 C 0.21997 0.44696 0.16858 0.0
C218 C 0.22795 0.41453 0.18628 0.0
C219 C 0.25617 0.43256 0.2151 0.0
C220 C 0.27858 0.48375 0.22508 0.0
C221 C 0.20943 0.36379 0.17235 0.0
C222 C 0.1554 0.32263 0.17421 0.0
C223 C 0.24217 0.36107 0.15043 0.0
C224 C 0.29914 0.40475 0.14656 0.0
C225 C 0.33308 0.41743 0.17231 0.0
C226 C 0.38664 0.45926 0.16868 0.0
C227 C 0.40675 0.4885 0.13931 0.0
C228 C 0.37333 0.47589 0.11348 0.0
C229 C 0.31971 0.4341 0.11701 0.0
H230 H 0.44824 0.52082 0.13655 0.0
H231 H 0.92113 0.14883 0.15726 0.0
H232 H 0.97627 0.18414 0.53937 0.0
H233 H 0.94164 0.21795 0.5751 0.0
H234 H 0.87927 0.08579 0.64207 0.0
H235 H 0.91389 0.05164 0.60647 0.0
H236 H 0.80742 0.10658 0.62809 0.0
H237 H 0.98634 0.20155 0.66209 0.0
H238 H 0.08259 0.25661 0.65286 0.0
H239 H 0.08148 0.38013 0.61068 0.0
H240 H 0.98513 0.32555 0.61928 0.0
H241 H 0.72799 0.21971 0.73763 0.0
H242 H 0.77058 0.18057 0.7188 0.0
H243 H 0.86752 0.31159 0.6505 0.0
H244 H 0.82738 0.35167 0.67036 0.0
H245 H 0.9234 0.28498 0.67286 0.0
H246 H 0.7486 0.19236 0.63202 0.0
H247 H 0.65181 0.13874 0.63535 0.0
H248 H 0.6434 0.01274 0.68295 0.0
H249 H 0.74024 0.06597 0.68036 0.0
C250 C 0.95532 0.16229 0.56173 0.0
C251 C 0.94802 0.1153 0.57012 0.0
C252 C 0.9357 0.18177 0.58218 0.0
C253 C 0.90834 0.15462 0.6114 0.0
C254 C 0.90044 0.10741 0.61969 0.0
C255 C 0.92039 0.08807 0.59936 0.0
C256 C 0.88732 0.17531 0.63294 0.0
C257 C 0.83273 0.14515 0.6385 0.0
C258 C 0.9204 0.22607 0.64581 0.0
C259 C 0.97848 0.25933 0.64119 0.0
C260 C 0.00659 0.24036 0.65071 0.0
C261 C 0.06117 0.27149 0.6456 0.0
C262 C 0.08812 0.3218 0.63116 0.0
C263 C 0.06056 0.34116 0.62188 0.0
C264 C 0.00598 0.31017 0.62691 0.0
C265 C 0.75971 0.24087 0.71947 0.0
C266 C 0.77483 0.289 0.70574 0.0
C267 C 0.78346 0.21814 0.70834 0.0
C268 C 0.8218 0.24271 0.68284 0.0
C269 C 0.83819 0.29178 0.67019 0.0
C270 C 0.815 0.31458 0.68147 0.0
C271 C 0.84307 0.21679 0.66754 0.0
C272 C 0.89789 0.24596 0.66309 0.0
C273 C 0.81002 0.16552 0.65503 0.0
C274 C 0.75177 0.13361 0.65663 0.0
C275 C 0.72617 0.15347 0.64355 0.0
C276 C 0.67127 0.12309 0.64523 0.0
C277 C 0.64147 0.07247 0.65951 0.0
C278 C 0.66651 0.05201 0.67196 0.0
C279 C 0.72141 0.08228 0.6704 0.0
H280 H 0.59898 0.04901 0.6608 0.0
H281 H 0.13037 0.34582 0.62719 0.0
H282 H 0.84093 0.92034 0.02939 0.0
H283 H 0.76402 0.88039 0.06605 0.0
H284 H 0.85507 0.89052 0.14643 0.0
H285 H 0.93269 0.93183 0.11006 0.0
H286 H 0.70785 0.79219 0.10434 0.0
H287 H 0.80971 0.91541 0.21579 0.0
H288 H 0.89488 -0.00211 0.22948 0.0
H289 H 0.90848 0.06341 0.13417 0.0
H290 H 0.82272 0.98193 0.12027 0.0
H291 H 0.51509 0.70349 0.23114 0.0
H292 H 0.60512 0.74111 0.21201 0.0
H293 H 0.61781 0.87078 0.16542 0.0
H294 H 0.52761 0.83267 0.18391 0.0
H295 H 0.716 0.89498 0.19679 0.0
H296 H 0.57686 0.78109 0.11964 0.0
H297 H 0.4929 0.69704 0.10631 0.0
H298 H 0.55525 0.61388 0.1324 0.0
H299 H 0.63941 0.69754 0.14634 0.0
C300 C 0.84466 0.914 0.05483 0.0
C301 C 0.89319 0.93 0.06685 0.0
C302 C 0.80054 0.89085 0.07575 0.0
C303 C 0.80394 0.88307 0.10907 0.0
C304 C 0.85175 0.89693 0.12091 0.0
C305 C 0.89606 0.92049 0.10005 0.0
C306 C 0.75792 0.86274 0.13137 0.0
C307 C 0.70991 0.81452 0.1247 0.0
C308 C 0.76046 0.89163 0.15815 0.0
C309 C 0.81017 0.9423 0.16687 0.0
C310 C 0.83063 0.94765 0.19789 0.0
C311 C 0.87899 0.99421 0.20569 0.0
C312 C 0.9072 0.03573 0.18265 0.0
C313 C 0.88665 0.03119 0.15198 0.0
C314 C 0.8381 0.98486 0.14415 0.0
C315 C 0.538 0.74106 0.21794 0.0
C316 C 0.515 0.76558 0.20913 0.0
C317 C 0.58916 0.76233 0.20692 0.0
C318 C 0.6179 0.80865 0.18734 0.0
C319 C 0.59633 0.83526 0.18073 0.0
C320 C 0.54491 0.81346 0.19117 0.0
C321 C 0.66638 0.82498 0.16941 0.0
C322 C 0.71453 0.87234 0.17682 0.0
C323 C 0.66416 0.79542 0.14333 0.0
C324 C 0.61411 0.74538 0.13433 0.0
C325 C 0.5725 0.74482 0.12274 0.0
C326 C 0.52493 0.6973 0.11505 0.0
C327 C 0.5187 0.65013 0.11858 0.0
C328 C 0.56012 0.65044 0.12972 0.0
C329 C 0.60776 0.69789 0.1375 0.0
H330 H 0.48184 0.61339 0.1126 0.0
H331 H 0.94505 0.0713 0.18857 0.0
H332 H 0.93719 0.82855 0.5328 0.0
H333 H 0.9023 0.75447 0.57132 0.0
H334 H 0.94177 0.85654 0.6516 0.0
H335 H 0.97607 0.9308 0.61321 0.0
H336 H 0.94592 0.73503 0.61877 0.0
H337 H 0.84696 0.78373 0.71277 0.0
H338 H 0.80994 0.83284 0.71612 0.0
H339 H 0.77317 0.80783 0.61485 0.0
H340 H 0.80933 0.75802 0.61104 0.0
H341 H 0.82968 0.52619 0.73779 0.0
H342 H 0.87974 0.61918 0.71981 0.0
H343 H 0.74411 0.58344 0.66965 0.0
H344 H 0.69439 0.49148 0.68777 0.0
H345 H 0.79771 0.67988 0.69524 0.0
H346 H 0.83466 0.57821 0.63035 0.0
H347 H 0.86514 0.5238 0.62296 0.0
H348 H 0.01619 0.64743 0.65911 0.0
H349 H 0.98628 0.70231 0.66707 0.0
C350 C 0.93845 0.83532 0.55864 0.0
C351 C 0.95907 0.88556 0.56989 0.0
C352 C 0.91876 0.79296 0.58065 0.0
C353 C 0.91914 0.79986 0.61435 0.0
C354 C 0.94052 0.85015 0.6257 0.0
C355 C 0.96013 0.89255 0.60369 0.0
C356 C 0.89568 0.75387 0.63731 0.0
C357 C 0.91394 0.72338 0.63577 0.0
C358 C 0.85391 0.7385 0.6595 0.0
C359 C 0.83147 0.76779 0.66155 0.0
C360 C 0.83086 0.78864 0.69126 0.0
C361 C 0.81003 0.81658 0.69323 0.0
C362 C 0.78941 0.82363 0.66569 0.0
C363 C 0.78936 0.80254 0.63614 0.0
C364 C 0.81006 0.7745 0.63405 0.0
C365 C 0.81032 0.5388 0.72381 0.0
C366 C 0.75831 0.50199 0.71414 0.0
C367 C 0.83891 0.5917 0.71341 0.0
C368 C 0.81578 0.60811 0.69308 0.0
C369 C 0.76274 0.57182 0.68537 0.0
C370 C 0.73442 0.51924 0.6956 0.0
C371 C 0.84746 0.66074 0.67633 0.0
C372 C 0.83075 0.69247 0.67896 0.0
C373 C 0.88999 0.67677 0.65467 0.0
C374 C 0.90809 0.64405 0.64964 0.0
C375 C 0.87426 0.59361 0.6369 0.0
C376 C 0.89143 0.56273 0.63259 0.0
C377 C 0.94252 0.58209 0.64065 0.0
C378 C 0.97659 0.63245 0.65294 0.0
C379 C 0.95956 0.66346 0.65736 0.0
H380 H 0.95576 0.55812 0.6373 0.0
H381 H 0.77336 0.84532 0.66726 0.0
H382 H 0.05488 0.89654 0.4109 0.0
H383 H 0.0844 0.86008 0.37276 0.0
H384 H 0.20989 0.9022 0.43643 0.0
H385 H 0.18024 0.93772 0.47483 0.0
H386 H 0.24016 0.93218 0.36779 0.0
H387 H 0.10838 0.78202 0.43872 0.0
H388 H 0.01894 0.71948 0.46292 0.0
H389 H 0.95623 0.67259 0.36744 0.0
H390 H 0.04532 0.73546 0.34266 0.0
H391 H 0.33991 0.79298 0.35034 0.0
H392 H 0.29935 0.83494 0.3649 0.0
H393 H 0.17812 0.74167 0.29559 0.0
H394 H 0.21849 0.69806 0.28155 0.0
H395 H 0.13623 0.73985 0.35301 0.0
H396 H 0.26644 0.87605 0.28181 0.0
H397 H 0.35436 0.93797 0.25529 0.0
H398 H 0.41725 0.01286 0.3462 0.0
H399 H 0.33005 0.95076 0.37335 0.0
C400 C 0.08878 0.89804 0.41673 0.0
C401 C 0.1152 0.91989 0.44591 0.0
C402 C 0.1055 0.87717 0.39495 0.0
C403 C 0.14931 0.87856 0.40182 0.0
C404 C 0.17608 0.90094 0.43068 0.0
C405 C 0.15892 0.92097 0.45267 0.0
C406 C 0.16739 0.85618 0.37939 0.0
C407 C 0.21756 0.89016 0.36449 0.0
C408 C 0.13676 0.80164 0.37392 0.0
C409 C 0.08334 0.76392 0.38885 0.0
C410 C 0.07544 0.75876 0.42289 0.0
C411 C 0.02484 0.72317 0.43671 0.0
C412 C 0.9819 0.69222 0.41672 0.0
C413 C 0.9895 0.69668 0.38288 0.0
C414 C 0.04003 0.73227 0.36894 0.0
C415 C 0.30496 0.78184 0.33789 0.0
C416 C 0.28264 0.74282 0.31455 0.0
C417 C 0.28202 0.80621 0.34601 0.0
C418 C 0.23617 0.79228 0.33093 0.0
C419 C 0.21379 0.75344 0.30731 0.0
C420 C 0.23698 0.72886 0.29913 0.0
C421 C 0.21019 0.81567 0.34242 0.0
C422 C 0.15847 0.78203 0.35537 0.0
C423 C 0.23909 0.8707 0.34567 0.0
C424 C 0.29177 0.90846 0.3296 0.0
C425 C 0.29919 0.90542 0.29615 0.0
C426 C 0.34883 0.9406 0.28101 0.0
C427 C 0.39134 0.97927 0.29904 0.0
C428 C 0.38428 0.98288 0.33225 0.0
C429 C 0.33472 0.94773 0.34752 0.0
H430 H 0.42974 0.00647 0.28727 0.0
H431 H 0.94275 0.66467 0.42747 0.0
H432 H 0.1994 0.12375 0.9889 0.0
H433 H 0.27456 0.1634 0.95033 0.0
H434 H 0.1697 0.069 0.87392 0.0
H435 H 0.09416 0.03004 0.91211 0.0
H436 H 0.26594 0.07216 0.88325 0.0
H437 H 0.21103 0.18191 0.86552 0.0
H438 H 0.18427 0.23634 0.88323 0.0
H439 H 0.33311 0.34232 0.92798 0.0
H440 H 0.36045 0.28803 0.91098 0.0
H441 H 0.49586 0.2113 0.77906 0.0
H442 H 0.40389 0.16955 0.79587 0.0
H443 H 0.45734 0.27883 0.87372 0.0
H444 H 0.54784 0.32251 0.85546 0.0
H445 H 0.37464 0.26239 0.85278 0.0
H446 H 0.42334 0.1485 0.88229 0.0
H447 H 0.45256 0.09398 0.87054 0.0
H448 H 0.31999 -0.00301 0.80986 0.0
H449 H 0.29033 0.05134 0.82103 0.0
C450 C 0.19237 0.11145 0.96389 0.0
C451 C 0.14096 0.07396 0.95348 0.0
C452 C 0.23524 0.13416 0.94192 0.0
C453 C 0.22746 0.11911 0.90934 0.0
C454 C 0.17634 0.08107 0.89897 0.0
C455 C 0.13334 0.0591 0.92077 0.0
C456 C 0.27311 0.14353 0.88628 0.0
C457 C 0.28927 0.1135 0.87595 0.0
C458 C 0.30365 0.19752 0.87729 0.0
C459 C 0.28762 0.23067 0.88716 0.0
C460 C 0.2379 0.21659 0.87935 0.0
C461 C 0.22265 0.24746 0.88923 0.0
C462 C 0.25693 0.29271 0.90677 0.0
C463 C 0.30659 0.30725 0.9144 0.0
C464 C 0.322 0.27648 0.90461 0.0
C465 C 0.48762 0.22751 0.79885 0.0
C466 C 0.52891 0.27054 0.81562 0.0
C467 C 0.43515 0.20308 0.80889 0.0
C468 C 0.42348 0.22047 0.83645 0.0
C469 C 0.46493 0.26459 0.85236 0.0
C470 C 0.51685 0.28935 0.84204 0.0
C471 C 0.3691 0.19163 0.85063 0.0
C472 C 0.35096 0.22076 0.85935 0.0
C473 C 0.33735 0.13702 0.85876 0.0
C474 C 0.35502 0.10429 0.85216 0.0
C475 C 0.40063 0.11572 0.8663 0.0
C476 C 0.41724 0.08485 0.85976 0.0
C477 C 0.38824 0.04215 0.83938 0.0
C478 C 0.34248 0.03014 0.82558 0.0
C479 C 0.32574 0.06094 0.832 0.0
H480 H 0.40116 0.0183 0.83435 0.0
H481 H 0.24504 0.31654 0.91441 0.0
H482 H 0.12398 0.18453 0.48519 0.0
H483 H 0.15229 0.25784 0.4476 0.0
H484 H 0.05809 0.14879 0.37264 0.0
H485 H 0.03156 0.07518 0.40986 0.0
H486 H 0.14505 0.22665 0.34576 0.0
H487 H 0.01958 0.21552 0.41483 0.0
H488 H 0.97406 0.20668 0.46646 0.0
H489 H 0.11172 0.35489 0.49626 0.0
H490 H 0.1585 0.36422 0.4451 0.0
H491 H 0.20858 0.48378 0.27695 0.0
H492 H 0.15443 0.38988 0.29441 0.0
H493 H 0.26852 0.42591 0.36601 0.0
H494 H 0.32238 0.51841 0.34866 0.0
H495 H 0.14779 0.37456 0.38488 0.0
H496 H 0.2738 0.36304 0.31752 0.0
H497 H 0.31241 0.36295 0.26495 0.0
H498 H 0.15769 0.25214 0.22845 0.0
H499 H 0.11825 0.25154 0.28083 0.0
C500 C 0.10934 0.17616 0.4607 0.0
C501 C 0.07547 0.12414 0.45052 0.0
C502 C 0.12521 0.2181 0.43924 0.0
C503 C 0.10636 0.20896 0.40742 0.0
C504 C 0.07301 0.15696 0.39706 0.0
C505 C 0.05788 0.11493 0.41837 0.0
C506 C 0.12258 0.25409 0.3851 0.0
C507 C 0.14453 0.25842 0.35413 0.0
C508 C 0.12091 0.29526 0.39544 0.0
C509 C 0.09267 0.29047 0.42609 0.0
C510 C 0.04027 0.24615 0.43244 0.0
C511 C 0.01424 0.24103 0.46165 0.0
C512 C 0.03999 0.28019 0.48462 0.0
C513 C 0.09181 0.3246 0.47842 0.0
C514 C 0.1181 0.32986 0.44929 0.0
C515 C 0.22256 0.47116 0.29576 0.0
C516 C 0.26954 0.50823 0.31153 0.0
C517 C 0.19168 0.41774 0.30572 0.0
C518 C 0.20765 0.40124 0.3315 0.0
C519 C 0.25568 0.43792 0.34603 0.0
C520 C 0.28628 0.49075 0.33616 0.0
C521 C 0.17251 0.34782 0.34671 0.0
C522 C 0.14674 0.34193 0.37633 0.0
C523 C 0.16937 0.30482 0.33477 0.0
C524 C 0.19319 0.30765 0.30288 0.0
C525 C 0.2481 0.33913 0.29814 0.0
C526 C 0.27009 0.33886 0.26849 0.0
C527 C 0.23747 0.30738 0.24344 0.0
C528 C 0.18285 0.2764 0.24789 0.0
C529 C 0.16069 0.27627 0.27755 0.0
H530 H 0.25447 0.30701 0.22055 0.0
H531 H 0.01978 0.27616 0.50722 0.0
H532 H 0.98566 0.12635 0.91908 0.0
H533 H 0.9573 0.16435 0.88124 0.0
H534 H 0.79904 0.05953 0.9217 0.0
H535 H 0.82684 0.02106 0.95935 0.0
H536 H 0.79989 0.0654 0.85552 0.0
H537 H 0.8811 0.1869 0.9437 0.0
H538 H 0.95365 0.24716 0.97984 0.0
H539 H 0.05129 0.34249 0.89692 0.0
H540 H 0.97947 0.28234 0.86025 0.0
H541 H 0.6742 0.1829 0.83475 0.0
H542 H 0.71692 0.14339 0.85085 0.0
H543 H 0.85782 0.2659 0.79665 0.0
H544 H 0.81478 0.30608 0.7807 0.0
H545 H 0.87785 0.25483 0.85924 0.0
H546 H 0.78698 0.14154 0.77243 0.0
H547 H 0.71119 0.08302 0.73822 0.0
H548 H 0.62997 0.97155 0.81834 0.0
H549 H 0.70446 0.0303 0.8536 0.0
C550 C 0.94478 0.11129 0.91989 0.0
C551 C 0.90855 0.07077 0.94237 0.0
C552 C 0.92867 0.13313 0.89825 0.0
C553 C 0.87609 0.11498 0.89873 0.0
C554 C 0.83977 0.07404 0.92081 0.0
C555 C 0.85582 0.05228 0.94246 0.0
C556 C 0.85876 0.13926 0.87696 0.0
C557 C 0.81676 0.10677 0.85637 0.0
C558 C 0.88206 0.19363 0.8772 0.0
C559 C 0.92519 0.22978 0.89922 0.0
C560 C 0.9182 0.22046 0.93317 0.0
C561 C 0.95915 0.25463 0.95375 0.0
C562 C 0.00712 0.29852 0.94068 0.0
C563 C 0.01417 0.30841 0.907 0.0
C564 C 0.97336 0.2743 0.88631 0.0
C565 C 0.7138 0.20058 0.82554 0.0
C566 C 0.74104 0.24706 0.80618 0.0
C567 C 0.73819 0.17795 0.8347 0.0
C568 C 0.7905 0.20142 0.8248 0.0
C569 C 0.81735 0.247 0.80445 0.0
C570 C 0.79268 0.26962 0.7951 0.0
C571 C 0.81777 0.18062 0.83853 0.0
C572 C 0.86167 0.2137 0.85769 0.0
C573 C 0.79604 0.12673 0.83704 0.0
C574 C 0.75141 0.09057 0.81576 0.0
C575 C 0.75286 0.10473 0.78289 0.0
C576 C 0.71008 0.07147 0.76327 0.0
C577 C 0.66587 0.02348 0.77599 0.0
C578 C 0.66429 0.0087 0.80848 0.0
C579 C 0.70678 0.04203 0.82833 0.0
H580 H 0.63284 -0.00221 0.76069 0.0
H581 H 0.03877 0.32495 0.95665 0.0
H582 H 0.90964 0.94977 0.4368 0.0
H583 H 0.84681 0.91103 0.39282 0.0
H584 H 0.72245 0.87208 0.46057 0.0
H585 H 0.7845 0.9095 0.50462 0.0
H586 H 0.68881 0.793 0.42216 0.0
H587 H 0.78789 0.98248 0.40776 0.0
H588 H 0.86924 0.07283 0.39861 0.0
H589 H 0.89921 0.02905 0.30787 0.0
H590 H 0.81844 0.9382 0.31675 0.0
H591 H 0.52593 0.83118 0.3201 0.0
H592 H 0.61401 0.87326 0.34096 0.0
H593 H 0.60812 0.73998 0.31314 0.0
H594 H 0.51956 0.6977 0.29246 0.0
H595 H 0.7144 0.90168 0.32487 0.0
H596 H 0.6382 0.70209 0.38177 0.0
H597 H 0.55406 0.61443 0.39323 0.0
H598 H 0.47449 0.6846 0.40312 0.0
H599 H 0.55826 0.77261 0.39224 0.0
C600 C 0.86881 0.93263 0.44236 0.0
C601 C 0.85208 0.93286 0.47423 0.0
C602 C 0.83301 0.9107 0.41715 0.0
C603 C 0.77999 0.88912 0.42329 0.0
C604 C 0.76313 0.88841 0.45522 0.0
C605 C 0.79873 0.90998 0.48041 0.0
C606 C 0.7417 0.86792 0.3967 0.0
C607 C 0.69486 0.81664 0.40071 0.0
C608 C 0.74937 0.89862 0.36861 0.0
C609 C 0.7975 0.95341 0.36312 0.0
C610 C 0.81204 0.99204 0.38598 0.0
C611 C 0.85802 0.04334 0.38083 0.0
C612 C 0.88949 0.05662 0.35275 0.0
C613 C 0.8749 0.01868 0.32967 0.0
C614 C 0.82902 0.96728 0.33474 0.0
C615 C 0.54459 0.81213 0.31707 0.0
C616 C 0.51658 0.76165 0.30446 0.0
C617 C 0.59489 0.83616 0.32895 0.0
C618 C 0.61734 0.80948 0.32895 0.0
C619 C 0.59142 0.76117 0.31341 0.0
C620 C 0.54107 0.7372 0.3014 0.0
C621 C 0.66161 0.82719 0.35069 0.0
C622 C 0.70929 0.87769 0.34586 0.0
C623 C 0.65457 0.79622 0.37838 0.0
C624 C 0.60428 0.74371 0.38579 0.0
C625 C 0.60274 0.69873 0.38652 0.0
C626 C 0.55514 0.64903 0.39291 0.0
C627 C 0.50893 0.64393 0.39878 0.0
C628 C 0.51027 0.68856 0.39847 0.0
C629 C 0.55778 0.73835 0.3922 0.0
H630 H 0.4721 0.60541 0.40363 0.0
H631 H 0.9251 0.09635 0.34883 0.0
H632 H 0.96129 0.89228 0.93914 0.0
H633 H 0.92946 0.83009 0.8947 0.0
H634 H 0.91928 0.71666 0.95993 0.0
H635 H 0.94947 0.77765 0.00456 0.0
H636 H 0.979 0.74693 0.89114 0.0
H637 H 0.81389 0.68882 0.94973 0.0
H638 H 0.75252 0.70612 0.96987 0.0
H639 H 0.7418 0.75093 0.87292 0.0
H640 H 0.80376 0.73457 0.85231 0.0
H641 H 0.83498 0.48779 0.84958 0.0
H642 H 0.88023 0.57567 0.86999 0.0
H643 H 0.79803 0.60665 0.80297 0.0
H644 H 0.74968 0.51635 0.78386 0.0
H645 H 0.79249 0.6365 0.85903 0.0
H646 H 0.93652 0.67498 0.79691 0.0
H647 H -0.00011 0.66341 0.77255 0.0
H648 H 0.05673 0.66669 0.86732 0.0
H649 H 0.99314 0.67742 0.89238 0.0
C650 C 0.952 0.85396 0.94401 0.0
C651 C 0.95767 0.83972 0.97536 0.0
C652 C 0.93394 0.81863 0.91863 0.0
C653 C 0.92231 0.76904 0.92412 0.0
C654 C 0.92824 0.7549 0.95528 0.0
C655 C 0.94518 0.78965 0.98077 0.0
C656 C 0.90364 0.73122 0.89766 0.0
C657 C 0.93829 0.72263 0.88399 0.0
C658 C 0.85136 0.70181 0.88714 0.0
C659 C 0.81393 0.71118 0.89958 0.0
C660 C 0.79886 0.70289 0.93278 0.0
C661 C 0.76388 0.71239 0.94427 0.0
C662 C 0.74342 0.7298 0.92271 0.0
C663 C 0.75777 0.73756 0.8896 0.0
C664 C 0.79278 0.72816 0.87801 0.0
C665 C 0.82726 0.51363 0.83867 0.0
C666 C 0.78937 0.49546 0.81474 0.0
C667 C 0.85362 0.56427 0.85017 0.0
C668 C 0.84353 0.59858 0.83768 0.0
C669 C 0.80695 0.5812 0.81284 0.0
C670 C 0.77989 0.52989 0.80155 0.0
C671 C 0.8672 0.64981 0.85344 0.0
C672 C 0.83366 0.66135 0.86521 0.0
C673 C 0.92106 0.683 0.86144 0.0
C674 C 0.95986 0.67693 0.84656 0.0
C675 C 0.96232 0.67296 0.81261 0.0
C676 C -0.00168 0.66656 0.79866 0.0
C677 C 0.03231 0.66431 0.81837 0.0
C678 C 0.03042 0.66852 0.85208 0.0
C679 C -0.00553 0.67488 0.86617 0.0
H680 H 0.06014 0.65932 0.80753 0.0
H681 H 0.71634 0.73714 0.93164 0.0
loop_
_geom_bond_atom_site_label_1
_geom_bond_atom_site_label_2
_geom_bond_distance
_geom_bond_site_symmetry_2
_ccdc_geom_bond_type
Zn0 O6 1.969 . S
Zn0 O7 1.965 1_565 S
Zn0 O11 2.023 1_454 S
Zn0 O16 1.969 1_455 S
Zn1 O8 1.964 1_554 S
Zn1 O14 1.959 1_554 S
Zn1 O15 1.966 1_455 S
Zn1 O17 2.035 . S
C2 O3 1.213 1_556 S
C2 O11 1.059 . S
O3 C2 1.213 1_554 S
C4 O5 1.229 . S
C4 O17 1.058 . S
O5 C4 1.229 . S
O6 Zn0 1.969 . S
O6 C9 1.267 . S
O7 Zn0 1.965 1_545 S
O7 C18 1.260 1_554 S
O8 Zn1 1.964 1_556 S
O8 C18 1.258 . S
C9 O6 1.267 . S
C9 O10 1.228 . S
O10 C9 1.228 . S
O11 Zn0 2.023 1_656 S
O11 C2 1.059 . S
C12 O13 1.228 . S
C12 O14 1.267 1_655 S
O13 C12 1.228 . S
O14 Zn1 1.959 1_556 S
O14 C12 1.267 1_455 S
O15 Zn1 1.966 1_655 S
O15 C19 1.260 1_545 S
O16 Zn0 1.969 1_655 S
O16 C19 1.258 . S
O17 Zn1 2.035 . S
O17 C4 1.058 . S
C18 O7 1.260 1_556 S
C18 O8 1.258 . S
C19 O15 1.260 1_565 S
C19 O16 1.258 . S
Zn20 O26 1.969 1_545 S
Zn20 O27 1.965 1_545 S
Zn20 O31 2.024 . S
Zn20 O36 1.969 . S
Zn21 O28 1.969 1_545 S
Zn21 O34 1.969 . S
Zn21 O35 1.965 1_655 S
Zn21 O37 2.024 1_545 S
C22 O23 1.229 . S
C22 O31 1.058 . S
O23 C22 1.229 . S
C24 O25 1.229 . S
C24 O37 1.058 . S
O25 C24 1.229 . S
O26 Zn20 1.969 1_565 S
O26 C29 1.267 . S
O27 Zn20 1.965 1_565 S
O27 C38 1.260 1_455 S
O28 Zn21 1.969 1_565 S
O28 C38 1.258 . S
C29 O26 1.267 . S
C29 O30 1.228 . S
O30 C29 1.228 . S
O31 Zn20 2.024 . S
O31 C22 1.058 . S
C32 O33 1.228 . S
C32 O34 1.267 . S
O33 C32 1.228 . S
O34 Zn21 1.969 . S
O34 C32 1.267 . S
O35 Zn21 1.965 1_455 S
O35 C39 1.260 . S
O36 Zn20 1.969 . S
O36 C39 1.258 . S
O37 Zn21 2.024 1_565 S
O37 C24 1.058 . S
C38 O27 1.260 1_655 S
C38 O28 1.258 . S
C39 O35 1.260 . S
C39 O36 1.258 . S
Zn40 O46 1.920 . S
Zn40 O52 1.898 . S
Zn40 O55 1.905 . S
Zn41 O49 1.905 . S
Zn41 O50 1.898 . S
Zn41 O58 1.920 . S
Zn42 O45 2.080 . S
Zn42 O48 2.114 . S
Zn42 O51 2.120 . S
Zn42 O53 2.120 . S
Zn42 O54 2.114 . S
Zn42 O57 2.080 . S
C43 O48 1.166 . S
C43 O49 1.182 . S
C44 O50 1.167 . S
C44 O51 1.299 . S
O45 Zn42 2.080 . S
O45 C59 1.305 . S
O46 Zn40 1.920 . S
O46 C59 1.234 . S
C47 O52 1.167 . S
C47 O53 1.299 . S
O48 Zn42 2.114 . S
O48 C43 1.166 . S
O49 Zn41 1.905 . S
O49 C43 1.182 . S
O50 Zn41 1.898 . S
O50 C44 1.167 . S
O51 Zn42 2.120 . S
O51 C44 1.299 . S
O52 Zn40 1.898 . S
O52 C47 1.167 . S
O53 Zn42 2.120 . S
O53 C47 1.299 . S
O54 Zn42 2.114 . S
O54 C56 1.166 . S
O55 Zn40 1.905 . S
O55 C56 1.182 . S
C56 O54 1.166 . S
C56 O55 1.182 . S
O57 Zn42 2.080 . S
O57 C60 1.305 . S
O58 Zn41 1.920 . S
O58 C60 1.234 . S
C59 O45 1.305 . S
C59 O46 1.234 . S
C60 O57 1.305 . S
C60 O58 1.234 . S
Zn61 O67 1.920 . S
Zn61 O73 1.898 . S
Zn61 O76 1.905 . S
Zn62 O70 1.905 . S
Zn62 O71 1.898 . S
Zn62 O79 1.920 . S
Zn63 O66 2.080 . S
Zn63 O69 2.114 . S
Zn63 O72 2.120 . S
Zn63 O74 2.120 . S
Zn63 O75 2.114 . S
Zn63 O78 2.080 . S
C64 O69 1.166 . S
C64 O70 1.182 . S
C65 O71 1.167 . S
C65 O72 1.299 . S
O66 Zn63 2.080 . S
O66 C80 1.305 . S
O67 Zn61 1.920 . S
O67 C80 1.234 . S
C68 O73 1.167 . S
C68 O74 1.299 . S
O69 Zn63 2.114 . S
O69 C64 1.166 . S
O70 Zn62 1.905 . S
O70 C64 1.182 . S
O71 Zn62 1.898 . S
O71 C65 1.167 . S
O72 Zn63 2.120 . S
O72 C65 1.299 . S
O73 Zn61 1.898 . S
O73 C68 1.167 . S
O74 Zn63 2.120 . S
O74 C68 1.299 . S
O75 Zn63 2.114 . S
O75 C77 1.166 . S
O76 Zn61 1.905 . S
O76 C77 1.182 . S
C77 O75 1.166 . S
C77 O76 1.182 . S
O78 Zn63 2.080 . S
O78 C81 1.305 . S
O79 Zn62 1.920 . S
O79 C81 1.234 . S
C80 O66 1.305 . S
C80 O67 1.234 . S
C81 O78 1.305 . S
C81 O79 1.234 . S
H82 C100 0.951 . S
H83 C102 0.951 . S
H84 C104 0.950 . S
H85 C105 0.950 . S
H86 C107 0.950 . S
H87 C110 0.950 . S
H88 C111 0.950 . S
H89 C113 0.950 . S
H90 C114 0.950 . S
H91 C115 0.951 . S
H92 C117 0.951 . S
H93 C119 0.950 . S
H94 C120 0.950 . S
H95 C122 0.950 . S
H96 C125 0.950 . S
H97 C126 0.950 . S
H98 C128 0.950 . S
H99 C129 0.950 . S
C100 H82 0.951 . S
C100 C101 1.366 . S
C100 C102 1.388 . S
C101 C100 1.366 . S
C101 C105 1.385 . S
C102 H83 0.951 . S
C102 C100 1.388 . S
C102 C103 1.366 . S
C103 C102 1.366 . S
C103 C104 1.414 . S
C103 C106 1.499 . S
C104 H84 0.950 . S
C104 C103 1.414 . S
C104 C105 1.374 . S
C105 H85 0.950 . S
C105 C101 1.385 . S
C105 C104 1.374 . S
C106 C103 1.499 . S
C106 C107 1.373 . S
C106 C108 1.389 . S
C107 H86 0.950 . S
C107 C106 1.373 . S
C107 C123 1.377 . S
C108 C106 1.389 . S
C108 C109 1.524 . S
C108 C122 1.377 . S
C109 C108 1.524 . S
C109 C110 1.397 . S
C109 C114 1.363 . S
C110 H87 0.950 . S
C110 C109 1.397 . S
C110 C111 1.334 . S
C111 H88 0.950 . S
C111 C110 1.334 . S
C111 C112 1.287 1_455 S
C112 C111 1.287 1_655 S
C112 C113 1.524 . S
C112 H131 0.913 . S
C113 H89 0.950 . S
C113 C112 1.524 . S
C113 C114 1.415 1_655 S
C114 H90 0.950 . S
C114 C109 1.363 . S
C114 C113 1.415 1_455 S
C115 H91 0.951 . S
C115 C116 1.366 . S
C115 C117 1.388 . S
C116 C115 1.366 . S
C116 C120 1.385 . S
C117 H92 0.951 . S
C117 C115 1.388 . S
C117 C118 1.366 . S
C118 C117 1.366 . S
C118 C119 1.414 . S
C118 C121 1.499 . S
C119 H93 0.950 . S
C119 C118 1.414 . S
C119 C120 1.374 . S
C120 H94 0.950 . S
C120 C116 1.385 . S
C120 C119 1.374 . S
C121 C118 1.499 . S
C121 C122 1.373 . S
C121 C123 1.389 . S
C122 H95 0.950 . S
C122 C108 1.377 . S
C122 C121 1.373 . S
C123 C107 1.377 . S
C123 C121 1.389 . S
C123 C124 1.524 . S
C124 C123 1.524 . S
C124 C125 1.397 . S
C124 C129 1.363 . S
C125 H96 0.950 . S
C125 C124 1.397 . S
C125 C126 1.334 . S
C126 H97 0.950 . S
C126 C125 1.334 . S
C126 C127 1.287 . S
C127 C126 1.287 . S
C127 C128 1.524 . S
C127 H130 0.999 . S
C128 H98 0.950 . S
C128 C127 1.524 . S
C128 C129 1.415 . S
C129 H99 0.950 . S
C129 C124 1.363 . S
C129 C128 1.415 . S
H130 C127 0.999 . S
H131 C112 0.913 . S
H132 C150 0.951 . S
H133 C152 0.951 . S
H134 C154 0.950 . S
H135 C155 0.950 . S
H136 C157 0.950 . S
H137 C160 0.950 . S
H138 C161 0.950 . S
H139 C163 0.950 . S
H140 C164 0.950 . S
H141 C165 0.951 . S
H142 C167 0.951 . S
H143 C169 0.950 . S
H144 C170 0.950 . S
H145 C172 0.950 . S
H146 C175 0.950 . S
H147 C176 0.950 . S
H148 C178 0.950 . S
H149 C179 0.950 . S
C150 H132 0.951 . S
C150 C151 1.366 . S
C150 C152 1.388 . S
C151 C150 1.366 . S
C151 C155 1.385 . S
C152 H133 0.951 . S
C152 C150 1.388 . S
C152 C153 1.366 . S
C153 C152 1.366 . S
C153 C154 1.414 . S
C153 C156 1.499 . S
C154 H134 0.950 . S
C154 C153 1.414 . S
C154 C155 1.374 . S
C155 H135 0.950 . S
C155 C151 1.385 . S
C155 C154 1.374 . S
C156 C153 1.499 . S
C156 C157 1.373 . S
C156 C158 1.389 . S
C157 H136 0.950 . S
C157 C156 1.373 . S
C157 C173 1.377 . S
C158 C156 1.389 . S
C158 C159 1.524 . S
C158 C172 1.377 . S
C159 C158 1.524 . S
C159 C160 1.397 . S
C159 C164 1.363 . S
C160 H137 0.950 . S
C160 C159 1.397 . S
C160 C161 1.334 1_545 S
C161 H138 0.950 . S
C161 C160 1.334 1_565 S
C161 C162 1.287 . S
C162 C161 1.287 . S
C162 C163 1.524 . S
C162 H181 0.913 . S
C163 H139 0.950 . S
C163 C162 1.524 . S
C163 C164 1.415 1_565 S
C164 H140 0.950 . S
C164 C159 1.363 . S
C164 C163 1.415 1_545 S
C165 H141 0.951 . S
C165 C166 1.366 . S
C165 C167 1.388 . S
C166 C165 1.366 . S
C166 C170 1.385 . S
C167 H142 0.951 . S
C167 C165 1.388 . S
C167 C168 1.366 . S
C168 C167 1.366 . S
C168 C169 1.414 . S
C168 C171 1.499 . S
C169 H143 0.950 . S
C169 C168 1.414 . S
C169 C170 1.374 . S
C170 H144 0.950 . S
C170 C166 1.385 . S
C170 C169 1.374 . S
C171 C168 1.499 . S
C171 C172 1.373 . S
C171 C173 1.389 . S
C172 H145 0.950 . S
C172 C158 1.377 . S
C172 C171 1.373 . S
C173 C157 1.377 . S
C173 C171 1.389 . S
C173 C174 1.524 . S
C174 C173 1.524 . S
C174 C175 1.397 . S
C174 C179 1.363 . S
C175 H146 0.950 . S
C175 C174 1.397 . S
C175 C176 1.334 . S
C176 H147 0.950 . S
C176 C175 1.334 . S
C176 C177 1.287 . S
C177 C176 1.287 . S
C177 C178 1.524 . S
C177 H180 0.999 . S
C178 H148 0.950 . S
C178 C177 1.524 . S
C178 C179 1.415 . S
C179 H149 0.950 . S
C179 C174 1.363 . S
C179 C178 1.415 . S
H180 C177 0.999 . S
H181 C162 0.913 . S
H182 C200 0.951 . S
H183 C202 0.951 . S
H184 C204 0.950 . S
H185 C205 0.950 . S
H186 C207 0.950 . S
H187 C210 0.950 . S
H188 C211 0.950 1_655 S
H189 C213 0.950 . S
H190 C214 0.950 . S
H191 C215 0.951 . S
H192 C217 0.951 . S
H193 C219 0.950 . S
H194 C220 0.950 . S
H195 C222 0.950 . S
H196 C225 0.950 . S
H197 C226 0.950 . S
H198 C228 0.950 . S
H199 C229 0.950 . S
C200 H182 0.951 . S
C200 C201 1.366 . S
C200 C202 1.388 . S
C201 C200 1.366 . S
C201 C205 1.385 . S
C202 H183 0.951 . S
C202 C200 1.388 . S
C202 C203 1.366 . S
C203 C202 1.366 . S
C203 C204 1.414 . S
C203 C206 1.499 . S
C204 H184 0.950 . S
C204 C203 1.414 . S
C204 C205 1.374 . S
C205 H185 0.950 . S
C205 C201 1.385 . S
C205 C204 1.374 . S
C206 C203 1.499 . S
C206 C207 1.373 . S
C206 C208 1.389 . S
C207 H186 0.950 . S
C207 C206 1.373 . S
C207 C223 1.377 . S
C208 C206 1.389 . S
C208 C209 1.524 . S
C208 C222 1.377 . S
C209 C208 1.524 . S
C209 C210 1.397 . S
C209 C214 1.363 . S
C210 H187 0.950 . S
C210 C209 1.397 . S
C210 C211 1.334 . S
C211 H188 0.950 1_455 S
C211 C210 1.334 . S
C211 C212 1.287 . S
C212 C211 1.287 . S
C212 C213 1.524 . S
C212 H231 0.913 1_455 S
C213 H189 0.950 . S
C213 C212 1.524 . S
C213 C214 1.415 . S
C214 H190 0.950 . S
C214 C209 1.363 . S
C214 C213 1.415 . S
C215 H191 0.951 . S
C215 C216 1.366 . S
C215 C217 1.388 . S
C216 C215 1.366 . S
C216 C220 1.385 . S
C217 H192 0.951 . S
C217 C215 1.388 . S
C217 C218 1.366 . S
C218 C217 1.366 . S
C218 C219 1.414 . S
C218 C221 1.499 . S
C219 H193 0.950 . S
C219 C218 1.414 . S
C219 C220 1.374 . S
C220 H194 0.950 . S
C220 C216 1.385 . S
C220 C219 1.374 . S
C221 C218 1.499 . S
C221 C222 1.373 . S
C221 C223 1.389 . S
C222 H195 0.950 . S
C222 C208 1.377 . S
C222 C221 1.373 . S
C223 C207 1.377 . S
C223 C221 1.389 . S
C223 C224 1.524 . S
C224 C223 1.524 . S
C224 C225 1.397 . S
C224 C229 1.363 . S
C225 H196 0.950 . S
C225 C224 1.397 . S
C225 C226 1.334 . S
C226 H197 0.950 . S
C226 C225 1.334 . S
C226 C227 1.287 . S
C227 C226 1.287 . S
C227 C228 1.524 . S
C227 H230 0.999 . S
C228 H198 0.950 . S
C228 C227 1.524 . S
C228 C229 1.415 . S
C229 H199 0.950 . S
C229 C224 1.363 . S
C229 C228 1.415 . S
H230 C227 0.999 . S
H231 C212 0.913 1_655 S
H232 C250 0.951 . S
H233 C252 0.951 . S
H234 C254 0.950 . S
H235 C255 0.950 . S
H236 C257 0.950 . S
H237 C260 0.950 . S
H238 C261 0.950 . S
H239 C263 0.950 . S
H240 C264 0.950 . S
H241 C265 0.951 . S
H242 C267 0.951 . S
H243 C269 0.950 . S
H244 C270 0.950 . S
H245 C272 0.950 . S
H246 C275 0.950 . S
H247 C276 0.950 . S
H248 C278 0.950 . S
H249 C279 0.950 . S
C250 H232 0.951 . S
C250 C251 1.366 . S
C250 C252 1.388 . S
C251 C250 1.366 . S
C251 C255 1.385 . S
C252 H233 0.951 . S
C252 C250 1.388 . S
C252 C253 1.366 . S
C253 C252 1.366 . S
C253 C254 1.414 . S
C253 C256 1.499 . S
C254 H234 0.950 . S
C254 C253 1.414 . S
C254 C255 1.374 . S
C255 H235 0.950 . S
C255 C251 1.385 . S
C255 C254 1.374 . S
C256 C253 1.499 . S
C256 C257 1.373 . S
C256 C258 1.389 . S
C257 H236 0.950 . S
C257 C256 1.373 . S
C257 C273 1.377 . S
C258 C256 1.389 . S
C258 C259 1.524 . S
C258 C272 1.377 . S
C259 C258 1.524 . S
C259 C260 1.397 . S
C259 C264 1.363 . S
C260 H237 0.950 . S
C260 C259 1.397 . S
C260 C261 1.334 1_655 S
C261 H238 0.950 . S
C261 C260 1.334 1_455 S
C261 C262 1.287 . S
C262 C261 1.287 . S
C262 C263 1.524 . S
C262 H281 0.913 . S
C263 H239 0.950 . S
C263 C262 1.524 . S
C263 C264 1.415 1_455 S
C264 H240 0.950 . S
C264 C259 1.363 . S
C264 C263 1.415 1_655 S
C265 H241 0.951 . S
C265 C266 1.366 . S
C265 C267 1.388 . S
C266 C265 1.366 . S
C266 C270 1.385 . S
C267 H242 0.951 . S
C267 C265 1.388 . S
C267 C268 1.366 . S
C268 C267 1.366 . S
C268 C269 1.414 . S
C268 C271 1.499 . S
C269 H243 0.950 . S
C269 C268 1.414 . S
C269 C270 1.374 . S
C270 H244 0.950 . S
C270 C266 1.385 . S
C270 C269 1.374 . S
C271 C268 1.499 . S
C271 C272 1.373 . S
C271 C273 1.389 . S
C272 H245 0.950 . S
C272 C258 1.377 . S
C272 C271 1.373 . S
C273 C257 1.377 . S
C273 C271 1.389 . S
C273 C274 1.524 . S
C274 C273 1.524 . S
C274 C275 1.397 . S
C274 C279 1.363 . S
C275 H246 0.950 . S
C275 C274 1.397 . S
C275 C276 1.334 . S
C276 H247 0.950 . S
C276 C275 1.334 . S
C276 C277 1.287 . S
C277 C276 1.287 . S
C277 C278 1.524 . S
C277 H280 0.999 . S
C278 H248 0.950 . S
C278 C277 1.524 . S
C278 C279 1.415 . S
C279 H249 0.950 . S
C279 C274 1.363 . S
C279 C278 1.415 . S
H280 C277 0.999 . S
H281 C262 0.913 . S
H282 C300 0.951 1_545 S
H283 C302 0.951 . S
H284 C304 0.950 . S
H285 C305 0.950 . S
H286 C307 0.950 . S
H287 C310 0.950 . S
H288 C311 0.950 . S
H289 C313 0.950 . S
H290 C314 0.950 . S
H291 C315 0.951 . S
H292 C317 0.951 . S
H293 C319 0.950 . S
H294 C320 0.950 . S
H295 C322 0.950 . S
H296 C325 0.950 . S
H297 C326 0.950 . S
H298 C328 0.950 . S
H299 C329 0.950 . S
C300 H282 0.951 1_565 S
C300 C301 1.366 . S
C300 C302 1.388 . S
C301 C300 1.366 . S
C301 C305 1.385 . S
C302 H283 0.951 . S
C302 C300 1.388 . S
C302 C303 1.366 . S
C303 C302 1.366 . S
C303 C304 1.414 . S
C303 C306 1.499 . S
C304 H284 0.950 . S
C304 C303 1.414 . S
C304 C305 1.374 . S
C305 H285 0.950 . S
C305 C301 1.385 . S
C305 C304 1.374 . S
C306 C303 1.499 . S
C306 C307 1.373 . S
C306 C308 1.389 . S
C307 H286 0.950 . S
C307 C306 1.373 . S
C307 C323 1.377 . S
C308 C306 1.389 . S
C308 C309 1.524 . S
C308 C322 1.377 . S
C309 C308 1.524 . S
C309 C310 1.397 . S
C309 C314 1.363 1_565 S
C310 H287 0.950 . S
C310 C309 1.397 . S
C310 C311 1.334 1_565 S
C311 H288 0.950 . S
C311 C310 1.334 1_545 S
C311 C312 1.287 . S
C312 C311 1.287 . S
C312 C313 1.524 . S
C312 H331 0.913 . S
C313 H289 0.950 . S
C313 C312 1.524 . S
C313 C314 1.415 . S
C314 H290 0.950 . S
C314 C309 1.363 1_545 S
C314 C313 1.415 . S
C315 H291 0.951 . S
C315 C316 1.366 . S
C315 C317 1.388 . S
C316 C315 1.366 . S
C316 C320 1.385 . S
C317 H292 0.951 . S
C317 C315 1.388 . S
C317 C318 1.366 . S
C318 C317 1.366 . S
C318 C319 1.414 . S
C318 C321 1.499 . S
C319 H293 0.950 . S
C319 C318 1.414 . S
C319 C320 1.374 . S
C320 H294 0.950 . S
C320 C316 1.385 . S
C320 C319 1.374 . S
C321 C318 1.499 . S
C321 C322 1.373 . S
C321 C323 1.389 . S
C322 H295 0.950 . S
C322 C308 1.377 . S
C322 C321 1.373 . S
C323 C307 1.377 . S
C323 C321 1.389 . S
C323 C324 1.524 . S
C324 C323 1.524 . S
C324 C325 1.397 . S
C324 C329 1.363 . S
C325 H296 0.950 . S
C325 C324 1.397 . S
C325 C326 1.334 . S
C326 H297 0.950 . S
C326 C325 1.334 . S
C326 C327 1.287 . S
C327 C326 1.287 . S
C327 C328 1.524 . S
C327 H330 0.999 . S
C328 H298 0.950 . S
C328 C327 1.524 . S
C328 C329 1.415 . S
C329 H299 0.950 . S
C329 C324 1.363 . S
C329 C328 1.415 . S
H330 C327 0.999 . S
H331 C312 0.913 . S
H332 C350 0.951 . S
H333 C352 0.951 . S
H334 C354 0.950 . S
H335 C355 0.950 1_455 S
H336 C357 0.950 . S
H337 C360 0.950 . S
H338 C361 0.950 . S
H339 C363 0.950 . S
H340 C364 0.950 . S
H341 C365 0.951 . S
H342 C367 0.951 . S
H343 C369 0.950 . S
H344 C370 0.950 . S
H345 C372 0.950 . S
H346 C375 0.950 . S
H347 C376 0.950 . S
H348 C378 0.950 1_455 S
H349 C379 0.950 . S
C350 H332 0.951 . S
C350 C351 1.366 . S
C350 C352 1.388 . S
C351 C350 1.366 . S
C351 C355 1.385 . S
C352 H333 0.951 . S
C352 C350 1.388 . S
C352 C353 1.366 . S
C353 C352 1.366 . S
C353 C354 1.414 . S
C353 C356 1.499 . S
C354 H334 0.950 . S
C354 C353 1.414 . S
C354 C355 1.374 . S
C355 H335 0.950 1_655 S
C355 C351 1.385 . S
C355 C354 1.374 . S
C356 C353 1.499 . S
C356 C357 1.373 . S
C356 C358 1.389 . S
C357 H336 0.950 . S
C357 C356 1.373 . S
C357 C373 1.377 . S
C358 C356 1.389 . S
C358 C359 1.524 . S
C358 C372 1.377 . S
C359 C358 1.524 . S
C359 C360 1.397 . S
C359 C364 1.363 . S
C360 H337 0.950 . S
C360 C359 1.397 . S
C360 C361 1.334 . S
C361 H338 0.950 . S
C361 C360 1.334 . S
C361 C362 1.287 . S
C362 C361 1.287 . S
C362 C363 1.524 . S
C362 H381 0.913 . S
C363 H339 0.950 . S
C363 C362 1.524 . S
C363 C364 1.415 . S
C364 H340 0.950 . S
C364 C359 1.363 . S
C364 C363 1.415 . S
C365 H341 0.951 . S
C365 C366 1.366 . S
C365 C367 1.388 . S
C366 C365 1.366 . S
C366 C370 1.385 . S
C367 H342 0.951 . S
C367 C365 1.388 . S
C367 C368 1.366 . S
C368 C367 1.366 . S
C368 C369 1.414 . S
C368 C371 1.499 . S
C369 H343 0.950 . S
C369 C368 1.414 . S
C369 C370 1.374 . S
C370 H344 0.950 . S
C370 C366 1.385 . S
C370 C369 1.374 . S
C371 C368 1.499 . S
C371 C372 1.373 . S
C371 C373 1.389 . S
C372 H345 0.950 . S
C372 C358 1.377 . S
C372 C371 1.373 . S
C373 C357 1.377 . S
C373 C371 1.389 . S
C373 C374 1.524 . S
C374 C373 1.524 . S
C374 C375 1.397 . S
C374 C379 1.363 . S
C375 H346 0.950 . S
C375 C374 1.397 . S
C375 C376 1.334 . S
C376 H347 0.950 . S
C376 C375 1.334 . S
C376 C377 1.287 . S
C377 C376 1.287 . S
C377 C378 1.524 . S
C377 H380 0.999 . S
C378 H348 0.950 1_655 S
C378 C377 1.524 . S
C378 C379 1.415 . S
C379 H349 0.950 . S
C379 C374 1.363 . S
C379 C378 1.415 . S
H380 C377 0.999 . S
H381 C362 0.913 . S
H382 C400 0.951 . S
H383 C402 0.951 . S
H384 C404 0.950 . S
H385 C405 0.950 . S
H386 C407 0.950 . S
H387 C410 0.950 . S
H388 C411 0.950 . S
H389 C413 0.950 . S
H390 C414 0.950 . S
H391 C415 0.951 . S
H392 C417 0.951 . S
H393 C419 0.950 . S
H394 C420 0.950 . S
H395 C422 0.950 . S
H396 C425 0.950 . S
H397 C426 0.950 . S
H398 C428 0.950 . S
H399 C429 0.950 . S
C400 H382 0.951 . S
C400 C401 1.366 . S
C400 C402 1.388 . S
C401 C400 1.366 . S
C401 C405 1.385 . S
C402 H383 0.951 . S
C402 C400 1.388 . S
C402 C403 1.366 . S
C403 C402 1.366 . S
C403 C404 1.414 . S
C403 C406 1.499 . S
C404 H384 0.950 . S
C404 C403 1.414 . S
C404 C405 1.374 . S
C405 H385 0.950 . S
C405 C401 1.385 . S
C405 C404 1.374 . S
C406 C403 1.499 . S
C406 C407 1.373 . S
C406 C408 1.389 . S
C407 H386 0.950 . S
C407 C406 1.373 . S
C407 C423 1.377 . S
C408 C406 1.389 . S
C408 C409 1.524 . S
C408 C422 1.377 . S
C409 C408 1.524 . S
C409 C410 1.397 . S
C409 C414 1.363 . S
C410 H387 0.950 . S
C410 C409 1.397 . S
C410 C411 1.334 . S
C411 H388 0.950 . S
C411 C410 1.334 . S
C411 C412 1.287 . S
C412 C411 1.287 . S
C412 C413 1.524 . S
C412 H431 0.913 1_455 S
C413 H389 0.950 . S
C413 C412 1.524 . S
C413 C414 1.415 . S
C414 H390 0.950 . S
C414 C409 1.363 . S
C414 C413 1.415 . S
C415 H391 0.951 . S
C415 C416 1.366 . S
C415 C417 1.388 . S
C416 C415 1.366 . S
C416 C420 1.385 . S
C417 H392 0.951 . S
C417 C415 1.388 . S
C417 C418 1.366 . S
C418 C417 1.366 . S
C418 C419 1.414 . S
C418 C421 1.499 . S
C419 H393 0.950 . S
C419 C418 1.414 . S
C419 C420 1.374 . S
C420 H394 0.950 . S
C420 C416 1.385 . S
C420 C419 1.374 . S
C421 C418 1.499 . S
C421 C422 1.373 . S
C421 C423 1.389 . S
C422 H395 0.950 . S
C422 C408 1.377 . S
C422 C421 1.373 . S
C423 C407 1.377 . S
C423 C421 1.389 . S
C423 C424 1.524 . S
C424 C423 1.524 . S
C424 C425 1.397 . S
C424 C429 1.363 . S
C425 H396 0.950 . S
C425 C424 1.397 . S
C425 C426 1.334 . S
C426 H397 0.950 . S
C426 C425 1.334 . S
C426 C427 1.287 1_565 S
C427 C426 1.287 1_545 S
C427 C428 1.524 . S
C427 H430 0.999 . S
C428 H398 0.950 . S
C428 C427 1.524 . S
C428 C429 1.415 1_545 S
C429 H399 0.950 . S
C429 C424 1.363 . S
C429 C428 1.415 1_565 S
H430 C427 0.999 . S
H431 C412 0.913 1_655 S
H432 C450 0.951 . S
H433 C452 0.951 . S
H434 C454 0.950 . S
H435 C455 0.950 . S
H436 C457 0.950 . S
H437 C460 0.950 . S
H438 C461 0.950 . S
H439 C463 0.950 . S
H440 C464 0.950 . S
H441 C465 0.951 . S
H442 C467 0.951 . S
H443 C469 0.950 . S
H444 C470 0.950 . S
H445 C472 0.950 . S
H446 C475 0.950 . S
H447 C476 0.950 . S
H448 C478 0.950 . S
H449 C479 0.950 . S
C450 H432 0.951 . S
C450 C451 1.366 . S
C450 C452 1.388 . S
C451 C450 1.366 . S
C451 C455 1.385 . S
C452 H433 0.951 . S
C452 C450 1.388 . S
C452 C453 1.366 . S
C453 C452 1.366 . S
C453 C454 1.414 . S
C453 C456 1.499 . S
C454 H434 0.950 . S
C454 C453 1.414 . S
C454 C455 1.374 . S
C455 H435 0.950 . S
C455 C451 1.385 . S
C455 C454 1.374 . S
C456 C453 1.499 . S
C456 C457 1.373 . S
C456 C458 1.389 . S
C457 H436 0.950 . S
C457 C456 1.373 . S
C457 C473 1.377 . S
C458 C456 1.389 . S
C458 C459 1.524 . S
C458 C472 1.377 . S
C459 C458 1.524 . S
C459 C460 1.397 . S
C459 C464 1.363 . S
C460 H437 0.950 . S
C460 C459 1.397 . S
C460 C461 1.334 . S
C461 H438 0.950 . S
C461 C460 1.334 . S
C461 C462 1.287 . S
C462 C461 1.287 . S
C462 C463 1.524 . S
C462 H481 0.913 . S
C463 H439 0.950 . S
C463 C462 1.524 . S
C463 C464 1.415 . S
C464 H440 0.950 . S
C464 C459 1.363 . S
C464 C463 1.415 . S
C465 H441 0.951 . S
C465 C466 1.366 . S
C465 C467 1.388 . S
C466 C465 1.366 . S
C466 C470 1.385 . S
C467 H442 0.951 . S
C467 C465 1.388 . S
C467 C468 1.366 . S
C468 C467 1.366 . S
C468 C469 1.414 . S
C468 C471 1.499 . S
C469 H443 0.950 . S
C469 C468 1.414 . S
C469 C470 1.374 . S
C470 H444 0.950 . S
C470 C466 1.385 . S
C470 C469 1.374 . S
C471 C468 1.499 . S
C471 C472 1.373 . S
C471 C473 1.389 . S
C472 H445 0.950 . S
C472 C458 1.377 . S
C472 C471 1.373 . S
C473 C457 1.377 . S
C473 C471 1.389 . S
C473 C474 1.524 . S
C474 C473 1.524 . S
C474 C475 1.397 . S
C474 C479 1.363 . S
C475 H446 0.950 . S
C475 C474 1.397 . S
C475 C476 1.334 . S
C476 H447 0.950 . S
C476 C475 1.334 . S
C476 C477 1.287 . S
C477 C476 1.287 . S
C477 C478 1.524 . S
C477 H480 0.999 . S
C478 H448 0.950 . S
C478 C477 1.524 . S
C478 C479 1.415 . S
C479 H449 0.950 . S
C479 C474 1.363 . S
C479 C478 1.415 . S
H480 C477 0.999 . S
H481 C462 0.913 . S
H482 C500 0.951 . S
H483 C502 0.951 . S
H484 C504 0.950 . S
H485 C505 0.950 . S
H486 C507 0.950 . S
H487 C510 0.950 . S
H488 C511 0.950 1_655 S
H489 C513 0.950 . S
H490 C514 0.950 . S
H491 C515 0.951 . S
H492 C517 0.951 . S
H493 C519 0.950 . S
H494 C520 0.950 . S
H495 C522 0.950 . S
H496 C525 0.950 . S
H497 C526 0.950 . S
H498 C528 0.950 . S
H499 C529 0.950 . S
C500 H482 0.951 . S
C500 C501 1.366 . S
C500 C502 1.388 . S
C501 C500 1.366 . S
C501 C505 1.385 . S
C502 H483 0.951 . S
C502 C500 1.388 . S
C502 C503 1.366 . S
C503 C502 1.366 . S
C503 C504 1.414 . S
C503 C506 1.499 . S
C504 H484 0.950 . S
C504 C503 1.414 . S
C504 C505 1.374 . S
C505 H485 0.950 . S
C505 C501 1.385 . S
C505 C504 1.374 . S
C506 C503 1.499 . S
C506 C507 1.373 . S
C506 C508 1.389 . S
C507 H486 0.950 . S
C507 C506 1.373 . S
C507 C523 1.377 . S
C508 C506 1.389 . S
C508 C509 1.524 . S
C508 C522 1.377 . S
C509 C508 1.524 . S
C509 C510 1.397 . S
C509 C514 1.363 . S
C510 H487 0.950 . S
C510 C509 1.397 . S
C510 C511 1.334 . S
C511 H488 0.950 1_455 S
C511 C510 1.334 . S
C511 C512 1.287 . S
C512 C511 1.287 . S
C512 C513 1.524 . S
C512 H531 0.913 . S
C513 H489 0.950 . S
C513 C512 1.524 . S
C513 C514 1.415 . S
C514 H490 0.950 . S
C514 C509 1.363 . S
C514 C513 1.415 . S
C515 H491 0.951 . S
C515 C516 1.366 . S
C515 C517 1.388 . S
C516 C515 1.366 . S
C516 C520 1.385 . S
C517 H492 0.951 . S
C517 C515 1.388 . S
C517 C518 1.366 . S
C518 C517 1.366 . S
C518 C519 1.414 . S
C518 C521 1.499 . S
C519 H493 0.950 . S
C519 C518 1.414 . S
C519 C520 1.374 . S
C520 H494 0.950 . S
C520 C516 1.385 . S
C520 C519 1.374 . S
C521 C518 1.499 . S
C521 C522 1.373 . S
C521 C523 1.389 . S
C522 H495 0.950 . S
C522 C508 1.377 . S
C522 C521 1.373 . S
C523 C507 1.377 . S
C523 C521 1.389 . S
C523 C524 1.524 . S
C524 C523 1.524 . S
C524 C525 1.397 . S
C524 C529 1.363 . S
C525 H496 0.950 . S
C525 C524 1.397 . S
C525 C526 1.334 . S
C526 H497 0.950 . S
C526 C525 1.334 . S
C526 C527 1.287 . S
C527 C526 1.287 . S
C527 C528 1.524 . S
C527 H530 0.999 . S
C528 H498 0.950 . S
C528 C527 1.524 . S
C528 C529 1.415 . S
C529 H499 0.950 . S
C529 C524 1.363 . S
C529 C528 1.415 . S
H530 C527 0.999 . S
H531 C512 0.913 . S
H532 C550 0.951 1_455 S
H533 C552 0.951 . S
H534 C554 0.950 . S
H535 C555 0.950 . S
H536 C557 0.950 . S
H537 C560 0.950 . S
H538 C561 0.983 . S
H539 C563 0.950 1_455 S
H540 C564 0.950 . S
H541 C565 0.951 . S
H542 C567 0.951 . S
H543 C569 0.950 . S
H544 C570 0.950 . S
H545 C572 0.950 . S
H546 C575 0.950 . S
H547 C576 0.950 . S
H548 C578 0.950 1_565 S
H549 C579 0.950 . S
C550 H532 0.951 1_655 S
C550 C551 1.366 . S
C550 C552 1.388 . S
C551 C550 1.366 . S
C551 C555 1.385 . S
C552 H533 0.951 . S
C552 C550 1.388 . S
C552 C553 1.366 . S
C553 C552 1.366 . S
C553 C554 1.414 . S
C553 C556 1.499 . S
C554 H534 0.950 . S
C554 C553 1.414 . S
C554 C555 1.374 . S
C555 H535 0.950 . S
C555 C551 1.385 . S
C555 C554 1.374 . S
C556 C553 1.499 . S
C556 C557 1.373 . S
C556 C558 1.389 . S
C557 H536 0.950 . S
C557 C556 1.373 . S
C557 C573 1.377 . S
C558 C556 1.389 . S
C558 C559 1.524 . S
C558 C572 1.377 . S
C559 C558 1.524 . S
C559 C560 1.397 . S
C559 C564 1.363 . S
C560 H537 0.950 . S
C560 C559 1.397 . S
C560 C561 1.334 . S
C561 H538 0.983 . S
C561 C560 1.334 . S
C561 C562 1.287 . S
C562 C561 1.287 . S
C562 C563 1.524 . S
C562 H581 0.913 1_655 S
C563 H539 0.950 1_655 S
C563 C562 1.524 . S
C563 C564 1.415 . S
C564 H540 0.950 . S
C564 C559 1.363 . S
C564 C563 1.415 . S
C565 H541 0.951 . S
C565 C566 1.366 . S
C565 C567 1.388 . S
C566 C565 1.366 . S
C566 C570 1.385 . S
C567 H542 0.951 . S
C567 C565 1.388 . S
C567 C568 1.366 . S
C568 C567 1.366 . S
C568 C569 1.414 . S
C568 C571 1.499 . S
C569 H543 0.950 . S
C569 C568 1.414 . S
C569 C570 1.374 . S
C570 H544 0.950 . S
C570 C566 1.385 . S
C570 C569 1.374 . S
C571 C568 1.499 . S
C571 C572 1.373 . S
C571 C573 1.389 . S
C572 H545 0.950 . S
C572 C558 1.377 . S
C572 C571 1.373 . S
C573 C557 1.377 . S
C573 C571 1.389 . S
C573 C574 1.524 . S
C574 C573 1.524 . S
C574 C575 1.397 . S
C574 C579 1.363 . S
C575 H546 0.950 . S
C575 C574 1.397 . S
C575 C576 1.334 . S
C576 H547 0.950 . S
C576 C575 1.334 . S
C576 C577 1.287 . S
C577 C576 1.287 . S
C577 C578 1.524 . S
C577 H580 0.999 . S
C578 H548 0.950 1_545 S
C578 C577 1.524 . S
C578 C579 1.415 . S
C579 H549 0.950 . S
C579 C574 1.363 . S
C579 C578 1.415 . S
H580 C577 0.999 . S
H581 C562 0.913 1_455 S
H582 C600 0.951 . S
H583 C602 0.951 . S
H584 C604 0.950 . S
H585 C605 0.950 . S
H586 C607 0.950 . S
H587 C610 0.950 . S
H588 C611 0.950 . S
H589 C613 0.950 . S
H590 C614 0.950 . S
H591 C615 0.951 . S
H592 C617 0.951 . S
H593 C619 0.950 . S
H594 C620 0.950 . S
H595 C622 0.950 . S
H596 C625 0.950 . S
H597 C626 0.950 . S
H598 C628 0.950 . S
H599 C629 0.950 . S
C600 H582 0.951 . S
C600 C601 1.366 . S
C600 C602 1.388 . S
C601 C600 1.366 . S
C601 C605 1.385 . S
C602 H583 0.951 . S
C602 C600 1.388 . S
C602 C603 1.366 . S
C603 C602 1.366 . S
C603 C604 1.414 . S
C603 C606 1.499 . S
C604 H584 0.950 . S
C604 C603 1.414 . S
C604 C605 1.374 . S
C605 H585 0.950 . S
C605 C601 1.385 . S
C605 C604 1.374 . S
C606 C603 1.499 . S
C606 C607 1.373 . S
C606 C608 1.389 . S
C607 H586 0.950 . S
C607 C606 1.373 . S
C607 C623 1.377 . S
C608 C606 1.389 . S
C608 C609 1.524 . S
C608 C622 1.377 . S
C609 C608 1.524 . S
C609 C610 1.397 . S
C609 C614 1.363 . S
C610 H587 0.950 . S
C610 C609 1.397 . S
C610 C611 1.334 1_565 S
C611 H588 0.950 . S
C611 C610 1.334 1_545 S
C611 C612 1.287 . S
C612 C611 1.287 . S
C612 C613 1.524 1_545 S
C612 H631 0.913 . S
C613 H589 0.950 . S
C613 C612 1.524 1_565 S
C613 C614 1.415 . S
C614 H590 0.950 . S
C614 C609 1.363 . S
C614 C613 1.415 . S
C615 H591 0.951 . S
C615 C616 1.366 . S
C615 C617 1.388 . S
C616 C615 1.366 . S
C616 C620 1.385 . S
C617 H592 0.951 . S
C617 C615 1.388 . S
C617 C618 1.366 . S
C618 C617 1.366 . S
C618 C619 1.414 . S
C618 C621 1.499 . S
C619 H593 0.950 . S
C619 C618 1.414 . S
C619 C620 1.374 . S
C620 H594 0.950 . S
C620 C616 1.385 . S
C620 C619 1.374 . S
C621 C618 1.499 . S
C621 C622 1.373 . S
C621 C623 1.389 . S
C622 H595 0.950 . S
C622 C608 1.377 . S
C622 C621 1.373 . S
C623 C607 1.377 . S
C623 C621 1.389 . S
C623 C624 1.524 . S
C624 C623 1.524 . S
C624 C625 1.397 . S
C624 C629 1.363 . S
C625 H596 0.950 . S
C625 C624 1.397 . S
C625 C626 1.334 . S
C626 H597 0.950 . S
C626 C625 1.334 . S
C626 C627 1.287 . S
C627 C626 1.287 . S
C627 C628 1.524 . S
C627 H630 0.999 . S
C628 H598 0.950 . S
C628 C627 1.524 . S
C628 C629 1.415 . S
C629 H599 0.950 . S
C629 C624 1.363 . S
C629 C628 1.415 . S
H630 C627 0.999 . S
H631 C612 0.913 . S
H632 C650 0.951 . S
H633 C652 0.951 . S
H634 C654 0.950 . S
H635 C655 0.950 . S
H636 C657 0.950 . S
H637 C660 0.950 . S
H638 C661 0.950 . S
H639 C663 0.950 . S
H640 C664 0.950 . S
H641 C665 0.951 . S
H642 C667 0.951 . S
H643 C669 0.950 . S
H644 C670 0.950 . S
H645 C672 0.950 . S
H646 C675 0.950 . S
H647 C676 0.950 . S
H648 C678 0.950 1_455 S
H649 C679 0.950 . S
C650 H632 0.951 . S
C650 C651 1.366 . S
C650 C652 1.388 . S
C651 C650 1.366 . S
C651 C655 1.385 . S
C652 H633 0.951 . S
C652 C650 1.388 . S
C652 C653 1.366 . S
C653 C652 1.366 . S
C653 C654 1.414 . S
C653 C656 1.499 . S
C654 H634 0.950 . S
C654 C653 1.414 . S
C654 C655 1.374 . S
C655 H635 0.950 . S
C655 C651 1.385 . S
C655 C654 1.374 . S
C656 C653 1.499 . S
C656 C657 1.373 . S
C656 C658 1.389 . S
C657 H636 0.950 . S
C657 C656 1.373 . S
C657 C673 1.377 . S
C658 C656 1.389 . S
C658 C659 1.524 . S
C658 C672 1.377 . S
C659 C658 1.524 . S
C659 C660 1.397 . S
C659 C664 1.363 . S
C660 H637 0.950 . S
C660 C659 1.397 . S
C660 C661 1.334 . S
C661 H638 0.950 . S
C661 C660 1.334 . S
C661 C662 1.287 . S
C662 C661 1.287 . S
C662 C663 1.524 . S
C662 H681 0.913 . S
C663 H639 0.950 . S
C663 C662 1.524 . S
C663 C664 1.415 . S
C664 H640 0.950 . S
C664 C659 1.363 . S
C664 C663 1.415 . S
C665 H641 0.951 . S
C665 C666 1.366 . S
C665 C667 1.388 . S
C666 C665 1.366 . S
C666 C670 1.385 . S
C667 H642 0.951 . S
C667 C665 1.388 . S
C667 C668 1.366 . S
C668 C667 1.366 . S
C668 C669 1.414 . S
C668 C671 1.499 . S
C669 H643 0.950 . S
C669 C668 1.414 . S
C669 C670 1.374 . S
C670 H644 0.950 . S
C670 C666 1.385 . S
C670 C669 1.374 . S
C671 C668 1.499 . S
C671 C672 1.373 . S
C671 C673 1.389 . S
C672 H645 0.950 . S
C672 C658 1.377 . S
C672 C671 1.373 . S
C673 C657 1.377 . S
C673 C671 1.389 . S
C673 C674 1.524 . S
C674 C673 1.524 . S
C674 C675 1.397 . S
C674 C679 1.363 . S
C675 H646 0.950 . S
C675 C674 1.397 . S
C675 C676 1.334 . S
C676 H647 0.950 . S
C676 C675 1.334 . S
C676 C677 1.287 1_655 S
C677 C676 1.287 1_455 S
C677 C678 1.524 1_455 S
C677 H680 0.999 . S
C678 H648 0.950 1_655 S
C678 C677 1.524 1_655 S
C678 C679 1.415 . S
C679 H649 0.950 . S
C679 C674 1.363 . S
C679 C678 1.415 . S
H680 C677 0.999 . S
H681 C662 0.913 . S
C101 C9 1.407 . S
C116 C59 1.312 . S
C151 C22 1.159 . S
C166 C65 1.092 . S
C201 C4 1.212 . S
C216 C56 1.140 . S
C251 C32 1.488 . S
C266 C81 1.373 . S
C301 C19 1.819 . S
C316 C47 1.671 . S
C366 C64 1.662 . S
C351 C38 1.767 . S
C401 C29 1.407 . S
C416 C60 1.310 . S
C466 C77 1.661 . S
C451 C18 1.767 . S
C516 C44 1.670 . S
C501 C39 1.819 . S
C566 C80 1.372 . S
C551 C12 1.488 . S
C616 C43 1.141 . S
C601 C24 1.212 . S
C666 C68 1.090 . S
C651 C2 1.159 . S
