# Generated by pormake.
# Topology gar, (4,6)-cn, num edge types: 1
# Building blocks:
#     Node 0, Type 0, BuildingBlock: QUQFOY_clean_sbu_1, # of connection points: 4
#     Node 1, Type 0, BuildingBlock: QUQFOY_clean_sbu_1, # of connection points: 4
#     Node 2, Type 0, BuildingBlock: QUQFOY_clean_sbu_1, # of connection points: 4
#     Node 3, Type 0, BuildingBlock: QUQFOY_clean_sbu_1, # of connection points: 4
#     Node 4, Type 0, BuildingBlock: QUQFOY_clean_sbu_1, # of connection points: 4
#     Node 5, Type 0, BuildingBlock: QUQFOY_clean_sbu_1, # of connection points: 4
#     Node 6, Type 0, BuildingBlock: QUQFOY_clean_sbu_1, # of connection points: 4
#     Node 7, Type 0, BuildingBlock: QUQFOY_clean_sbu_1, # of connection points: 4
#     Node 8, Type 0, BuildingBlock: QUQFOY_clean_sbu_1, # of connection points: 4
#     Node 9, Type 0, BuildingBlock: QUQFOY_clean_sbu_1, # of connection points: 4
#     Node 10, Type 0, BuildingBlock: QUQFOY_clean_sbu_1, # of connection points: 4
#     Node 11, Type 0, BuildingBlock: QUQFOY_clean_sbu_1, # of connection points: 4
#     Node 12, Type 0, BuildingBlock: QUQFOY_clean_sbu_1, # of connection points: 4
#     Node 13, Type 0, BuildingBlock: QUQFOY_clean_sbu_1, # of connection points: 4
#     Node 14, Type 0, BuildingBlock: QUQFOY_clean_sbu_1, # of connection points: 4
#     Node 15, Type 0, BuildingBlock: QUQFOY_clean_sbu_1, # of connection points: 4
#     Node 16, Type 0, BuildingBlock: QUQFOY_clean_sbu_1, # of connection points: 4
#     Node 17, Type 0, BuildingBlock: QUQFOY_clean_sbu_1, # of connection points: 4
#     Node 18, Type 0, BuildingBlock: QUQFOY_clean_sbu_1, # of connection points: 4
#     Node 19, Type 0, BuildingBlock: QUQFOY_clean_sbu_1, # of connection points: 4
#     Node 20, Type 0, BuildingBlock: QUQFOY_clean_sbu_1, # of connection points: 4
#     Node 21, Type 0, BuildingBlock: QUQFOY_clean_sbu_1, # of connection points: 4
#     Node 22, Type 0, BuildingBlock: QUQFOY_clean_sbu_1, # of connection points: 4
#     Node 23, Type 0, BuildingBlock: QUQFOY_clean_sbu_1, # of connection points: 4
#     Node 24, Type 1, BuildingBlock: BETDIP_clean_sbu_0, # of connection points: 6
#     Node 25, Type 1, BuildingBlock: BETDIP_clean_sbu_0, # of connection points: 6
#     Node 26, Type 1, BuildingBlock: BETDIP_clean_sbu_0, # of connection points: 6
#     Node 27, Type 1, BuildingBlock: BETDIP_clean_sbu_0, # of connection points: 6
#     Node 28, Type 1, BuildingBlock: BETDIP_clean_sbu_0, # of connection points: 6
#     Node 29, Type 1, BuildingBlock: BETDIP_clean_sbu_0, # of connection points: 6
#     Node 30, Type 1, BuildingBlock: BETDIP_clean_sbu_0, # of connection points: 6
#     Node 31, Type 1, BuildingBlock: BETDIP_clean_sbu_0, # of connection points: 6
#     Node 32, Type 1, BuildingBlock: BETDIP_clean_sbu_0, # of connection points: 6
#     Node 33, Type 1, BuildingBlock: BETDIP_clean_sbu_0, # of connection points: 6
#     Node 34, Type 1, BuildingBlock: BETDIP_clean_sbu_0, # of connection points: 6
#     Node 35, Type 1, BuildingBlock: BETDIP_clean_sbu_0, # of connection points: 6
#     Node 36, Type 1, BuildingBlock: BETDIP_clean_sbu_0, # of connection points: 6
#     Node 37, Type 1, BuildingBlock: BETDIP_clean_sbu_0, # of connection points: 6
#     Node 38, Type 1, BuildingBlock: BETDIP_clean_sbu_0, # of connection points: 6
#     Node 39, Type 1, BuildingBlock: BETDIP_clean_sbu_0, # of connection points: 6
#     Edge 40, Type (0, 1), BuildingBlock: ZUJKAS_clean_linker_0, # of connection points: 2
#     Edge 41, Type (0, 1), BuildingBlock: ZUJKAS_clean_linker_0, # of connection points: 2
#     Edge 42, Type (0, 1), BuildingBlock: ZUJKAS_clean_linker_0, # of connection points: 2
#     Edge 43, Type (0, 1), BuildingBlock: ZUJKAS_clean_linker_0, # of connection points: 2
#     Edge 44, Type (0, 1), BuildingBlock: ZUJKAS_clean_linker_0, # of connection points: 2
#     Edge 45, Type (0, 1), BuildingBlock: ZUJKAS_clean_linker_0, # of connection points: 2
#     Edge 46, Type (0, 1), BuildingBlock: ZUJKAS_clean_linker_0, # of connection points: 2
#     Edge 47, Type (0, 1), BuildingBlock: ZUJKAS_clean_linker_0, # of connection points: 2
#     Edge 48, Type (0, 1), BuildingBlock: ZUJKAS_clean_linker_0, # of connection points: 2
#     Edge 49, Type (0, 1), BuildingBlock: ZUJKAS_clean_linker_0, # of connection points: 2
#     Edge 50, Type (0, 1), BuildingBlock: ZUJKAS_clean_linker_0, # of connection points: 2
#     Edge 51, Type (0, 1), BuildingBlock: ZUJKAS_clean_linker_0, # of connection points: 2
#     Edge 52, Type (0, 1), BuildingBlock: ZUJKAS_clean_linker_0, # of connection points: 2
#     Edge 53, Type (0, 1), BuildingBlock: ZUJKAS_clean_linker_0, # of connection points: 2
#     Edge 54, Type (0, 1), BuildingBlock: ZUJKAS_clean_linker_0, # of connection points: 2
#     Edge 55, Type (0, 1), BuildingBlock: ZUJKAS_clean_linker_0, # of connection points: 2
#     Edge 56, Type (0, 1), BuildingBlock: ZUJKAS_clean_linker_0, # of connection points: 2
#     Edge 57, Type (0, 1), BuildingBlock: ZUJKAS_clean_linker_0, # of connection points: 2
#     Edge 58, Type (0, 1), BuildingBlock: ZUJKAS_clean_linker_0, # of connection points: 2
#     Edge 59, Type (0, 1), BuildingBlock: ZUJKAS_clean_linker_0, # of connection points: 2
#     Edge 60, Type (0, 1), BuildingBlock: ZUJKAS_clean_linker_0, # of connection points: 2
#     Edge 61, Type (0, 1), BuildingBlock: ZUJKAS_clean_linker_0, # of connection points: 2
#     Edge 62, Type (0, 1), BuildingBlock: ZUJKAS_clean_linker_0, # of connection points: 2
#     Edge 63, Type (0, 1), BuildingBlock: ZUJKAS_clean_linker_0, # of connection points: 2
#     Edge 64, Type (0, 1), BuildingBlock: ZUJKAS_clean_linker_0, # of connection points: 2
#     Edge 65, Type (0, 1), BuildingBlock: ZUJKAS_clean_linker_0, # of connection points: 2
#     Edge 66, Type (0, 1), BuildingBlock: ZUJKAS_clean_linker_0, # of connection points: 2
#     Edge 67, Type (0, 1), BuildingBlock: ZUJKAS_clean_linker_0, # of connection points: 2
#     Edge 68, Type (0, 1), BuildingBlock: ZUJKAS_clean_linker_0, # of connection points: 2
#     Edge 69, Type (0, 1), BuildingBlock: ZUJKAS_clean_linker_0, # of connection points: 2
#     Edge 70, Type (0, 1), BuildingBlock: ZUJKAS_clean_linker_0, # of connection points: 2
#     Edge 71, Type (0, 1), BuildingBlock: ZUJKAS_clean_linker_0, # of connection points: 2
#     Edge 72, Type (0, 1), BuildingBlock: ZUJKAS_clean_linker_0, # of connection points: 2
#     Edge 73, Type (0, 1), BuildingBlock: ZUJKAS_clean_linker_0, # of connection points: 2
#     Edge 74, Type (0, 1), BuildingBlock: ZUJKAS_clean_linker_0, # of connection points: 2
#     Edge 75, Type (0, 1), BuildingBlock: ZUJKAS_clean_linker_0, # of connection points: 2
#     Edge 76, Type (0, 1), BuildingBlock: ZUJKAS_clean_linker_0, # of connection points: 2
#     Edge 77, Type (0, 1), BuildingBlock: ZUJKAS_clean_linker_0, # of connection points: 2
#     Edge 78, Type (0, 1), BuildingBlock: ZUJKAS_clean_linker_0, # of connection points: 2
#     Edge 79, Type (0, 1), BuildingBlock: ZUJKAS_clean_linker_0, # of connection points: 2
#     Edge 80, Type (0, 1), BuildingBlock: ZUJKAS_clean_linker_0, # of connection points: 2
#     Edge 81, Type (0, 1), BuildingBlock: ZUJKAS_clean_linker_0, # of connection points: 2
#     Edge 82, Type (0, 1), BuildingBlock: ZUJKAS_clean_linker_0, # of connection points: 2
#     Edge 83, Type (0, 1), BuildingBlock: ZUJKAS_clean_linker_0, # of connection points: 2
#     Edge 84, Type (0, 1), BuildingBlock: ZUJKAS_clean_linker_0, # of connection points: 2
#     Edge 85, Type (0, 1), BuildingBlock: ZUJKAS_clean_linker_0, # of connection points: 2
#     Edge 86, Type (0, 1), BuildingBlock: ZUJKAS_clean_linker_0, # of connection points: 2
#     Edge 87, Type (0, 1), BuildingBlock: ZUJKAS_clean_linker_0, # of connection points: 2
#     Edge 88, Type (0, 1), BuildingBlock: ZUJKAS_clean_linker_0, # of connection points: 2
#     Edge 89, Type (0, 1), BuildingBlock: ZUJKAS_clean_linker_0, # of connection points: 2
#     Edge 90, Type (0, 1), BuildingBlock: ZUJKAS_clean_linker_0, # of connection points: 2
#     Edge 91, Type (0, 1), BuildingBlock: ZUJKAS_clean_linker_0, # of connection points: 2
#     Edge 92, Type (0, 1), BuildingBlock: ZUJKAS_clean_linker_0, # of connection points: 2
#     Edge 93, Type (0, 1), BuildingBlock: ZUJKAS_clean_linker_0, # of connection points: 2
#     Edge 94, Type (0, 1), BuildingBlock: ZUJKAS_clean_linker_0, # of connection points: 2
#     Edge 95, Type (0, 1), BuildingBlock: ZUJKAS_clean_linker_0, # of connection points: 2
#     Edge 96, Type (0, 1), BuildingBlock: ZUJKAS_clean_linker_0, # of connection points: 2
#     Edge 97, Type (0, 1), BuildingBlock: ZUJKAS_clean_linker_0, # of connection points: 2
#     Edge 98, Type (0, 1), BuildingBlock: ZUJKAS_clean_linker_0, # of connection points: 2
#     Edge 99, Type (0, 1), BuildingBlock: ZUJKAS_clean_linker_0, # of connection points: 2
#     Edge 100, Type (0, 1), BuildingBlock: ZUJKAS_clean_linker_0, # of connection points: 2
#     Edge 101, Type (0, 1), BuildingBlock: ZUJKAS_clean_linker_0, # of connection points: 2
#     Edge 102, Type (0, 1), BuildingBlock: ZUJKAS_clean_linker_0, # of connection points: 2
#     Edge 103, Type (0, 1), BuildingBlock: ZUJKAS_clean_linker_0, # of connection points: 2
#     Edge 104, Type (0, 1), BuildingBlock: ZUJKAS_clean_linker_0, # of connection points: 2
#     Edge 105, Type (0, 1), BuildingBlock: ZUJKAS_clean_linker_0, # of connection points: 2
#     Edge 106, Type (0, 1), BuildingBlock: ZUJKAS_clean_linker_0, # of connection points: 2
#     Edge 107, Type (0, 1), BuildingBlock: ZUJKAS_clean_linker_0, # of connection points: 2
#     Edge 108, Type (0, 1), BuildingBlock: ZUJKAS_clean_linker_0, # of connection points: 2
#     Edge 109, Type (0, 1), BuildingBlock: ZUJKAS_clean_linker_0, # of connection points: 2
#     Edge 110, Type (0, 1), BuildingBlock: ZUJKAS_clean_linker_0, # of connection points: 2
#     Edge 111, Type (0, 1), BuildingBlock: ZUJKAS_clean_linker_0, # of connection points: 2
#     Edge 112, Type (0, 1), BuildingBlock: ZUJKAS_clean_linker_0, # of connection points: 2
#     Edge 113, Type (0, 1), BuildingBlock: ZUJKAS_clean_linker_0, # of connection points: 2
#     Edge 114, Type (0, 1), BuildingBlock: ZUJKAS_clean_linker_0, # of connection points: 2
#     Edge 115, Type (0, 1), BuildingBlock: ZUJKAS_clean_linker_0, # of connection points: 2
#     Edge 116, Type (0, 1), BuildingBlock: ZUJKAS_clean_linker_0, # of connection points: 2
#     Edge 117, Type (0, 1), BuildingBlock: ZUJKAS_clean_linker_0, # of connection points: 2
#     Edge 118, Type (0, 1), BuildingBlock: ZUJKAS_clean_linker_0, # of connection points: 2
#     Edge 119, Type (0, 1), BuildingBlock: ZUJKAS_clean_linker_0, # of connection points: 2
#     Edge 120, Type (0, 1), BuildingBlock: ZUJKAS_clean_linker_0, # of connection points: 2
#     Edge 121, Type (0, 1), BuildingBlock: ZUJKAS_clean_linker_0, # of connection points: 2
#     Edge 122, Type (0, 1), BuildingBlock: ZUJKAS_clean_linker_0, # of connection points: 2
#     Edge 123, Type (0, 1), BuildingBlock: ZUJKAS_clean_linker_0, # of connection points: 2
#     Edge 124, Type (0, 1), BuildingBlock: ZUJKAS_clean_linker_0, # of connection points: 2
#     Edge 125, Type (0, 1), BuildingBlock: ZUJKAS_clean_linker_0, # of connection points: 2
#     Edge 126, Type (0, 1), BuildingBlock: ZUJKAS_clean_linker_0, # of connection points: 2
#     Edge 127, Type (0, 1), BuildingBlock: ZUJKAS_clean_linker_0, # of connection points: 2
#     Edge 128, Type (0, 1), BuildingBlock: ZUJKAS_clean_linker_0, # of connection points: 2
#     Edge 129, Type (0, 1), BuildingBlock: ZUJKAS_clean_linker_0, # of connection points: 2
#     Edge 130, Type (0, 1), BuildingBlock: ZUJKAS_clean_linker_0, # of connection points: 2
#     Edge 131, Type (0, 1), BuildingBlock: ZUJKAS_clean_linker_0, # of connection points: 2
#     Edge 132, Type (0, 1), BuildingBlock: ZUJKAS_clean_linker_0, # of connection points: 2
#     Edge 133, Type (0, 1), BuildingBlock: ZUJKAS_clean_linker_0, # of connection points: 2
#     Edge 134, Type (0, 1), BuildingBlock: ZUJKAS_clean_linker_0, # of connection points: 2
#     Edge 135, Type (0, 1), BuildingBlock: ZUJKAS_clean_linker_0, # of connection points: 2
# Relax obj value: 0.166
# Max RMSD: 0.280
# Mean RMSD: 0.170
data_MOF--net-gar--node1-QUQFOY_clean_sbu_1--node2-BETDIP_clean_sbu_0--edge1-ZUJKAS_clean_linker_0
_symmetry_space_group_name_H-M    P1
_symmetry_Int_Tables_number       1
_symmetry_cell_setting            triclinic
loop_
_symmetry_equiv_pos_as_xyz
'x, y, z'
_cell_length_a     81.016308
_cell_length_b     73.718146
_cell_length_c     71.419921
_cell_angle_alpha  96.657175
_cell_angle_beta   97.912817
_cell_angle_gamma 102.66904
loop_
_atom_site_label
_atom_site_type_symbol
_atom_site_fract_x
_atom_site_fract_y
_atom_site_fract_z
_atom_type_partial_charge
O0 O 0.04599 0.27607 0.38773 0.0
Cd1 Cd 0.04075 0.29787 0.37425 0.0
Cd2 Cd 0.03465 0.31099 0.41037 0.0
O3 O 0.04263 0.2874 0.41656 0.0
O4 O 0.05054 0.29541 0.35041 0.0
O5 O 0.06025 0.31985 0.3734 0.0
C6 C 0.06145 0.31116 0.35703 0.0
C7 C 0.04203 0.33673 0.43486 0.0
C8 C 0.04631 0.27476 0.40534 0.0
C9 C 1.00534 0.30203 0.37663 0.0
O10 O 1.01071 0.30748 0.39438 0.0
O11 O 0.01542 0.29774 0.36567 0.0
O12 O 0.03061 0.3218 0.43565 0.0
O13 O 0.04969 0.33704 0.42015 0.0
O14 O 0.04431 0.72457 0.69084 0.0
Cd15 Cd 0.05343 0.7454 0.71419 0.0
Cd16 Cd 0.05829 0.76917 0.68779 0.0
O17 O 0.04699 0.74437 0.66991 0.0
O18 O 0.03994 0.74221 0.73551 0.0
O19 O 0.03999 0.76457 0.71721 0.0
C20 C 0.03443 0.75661 0.73105 0.0
C21 C 0.05058 0.79574 0.67792 0.0
C22 C 0.04257 0.72773 0.67363 0.0
C23 C 0.08938 0.76573 0.71497 0.0
O24 O 0.08324 0.77293 0.70108 0.0
O25 O 0.07957 0.75425 0.72297 0.0
O26 O 0.06057 0.78751 0.66942 0.0
O27 O 0.04501 0.789 0.69234 0.0
O28 O 0.56429 0.8064 0.89605 0.0
Cd29 Cd 0.54688 0.80795 0.9143 0.0
Cd30 Cd 0.53353 0.82467 0.88604 0.0
O31 O 0.55329 0.81947 0.87262 0.0
O32 O 0.55257 0.79226 0.93389 0.0
O33 O 0.52782 0.7852 0.91404 0.0
C34 C 0.53761 0.78116 0.92799 0.0
C35 C 0.50537 0.80977 0.87318 0.0
C36 C 0.56461 0.81153 0.87969 0.0
C37 C 0.54245 0.84726 0.92484 0.0
O38 O 0.53734 0.84734 0.90723 0.0
O39 O 0.54676 0.83294 0.93035 0.0
O40 O 0.51315 0.82461 0.86706 0.0
O41 O 0.51387 0.80315 0.88632 0.0
O42 O 0.54896 0.23243 0.19954 0.0
Cd43 Cd 0.55489 0.25373 0.22244 0.0
Cd44 Cd 0.55801 0.27728 0.19646 0.0
O45 O 0.55158 0.25205 0.17849 0.0
O46 O 0.54192 0.24715 0.24339 0.0
O47 O 0.53814 0.26928 0.22572 0.0
C48 C 0.53399 0.26 0.23934 0.0
C49 C 0.54639 0.30064 0.18411 0.0
C50 C 0.54854 0.23537 0.18233 0.0
C51 C 0.58942 0.27876 0.2253 0.0
O52 O 0.58268 0.28552 0.21142 0.0
O53 O 0.58044 0.26569 0.23233 0.0
O54 O 0.55869 0.29499 0.17753 0.0
O55 O 0.54073 0.29327 0.1982 0.0
O56 O 0.05939 0.7615 0.15557 0.0
Cd57 Cd 0.06367 0.78549 0.17543 0.0
Cd58 Cd 0.08064 0.80108 0.14774 0.0
O59 O 0.07265 0.77353 0.1332 0.0
O60 O 0.04768 0.77812 0.19388 0.0
O61 O 0.04556 0.80062 0.17653 0.0
C62 C 0.03969 0.79057 0.18891 0.0
C63 C 0.07475 0.82654 0.13281 0.0
C64 C 0.06429 0.75939 0.13945 0.0
C65 C 0.10213 0.8013 0.18615 0.0
O66 O 0.10182 0.80586 0.16945 0.0
O67 O 0.08824 0.79364 0.19154 0.0
O68 O 0.08687 0.8187 0.12888 0.0
O69 O 0.06578 0.81984 0.14517 0.0
O70 O 0.54832 0.76053 0.42778 0.0
Cd71 Cd 0.53139 0.75897 0.44735 0.0
Cd72 Cd 0.51318 0.77298 0.41485 0.0
O73 O 0.53342 0.76703 0.40208 0.0
O74 O 0.54187 0.74562 0.46724 0.0
O75 O 0.51654 0.73333 0.44946 0.0
C76 C 0.52866 0.73162 0.46242 0.0
C77 C 0.48516 0.76841 0.39728 0.0
C78 C 0.54697 0.76327 0.4104 0.0
C79 C 0.52462 0.79786 0.4542 0.0
O80 O 0.51927 0.79585 0.43631 0.0
O81 O 0.52885 0.78438 0.46186 0.0
O82 O 0.49783 0.78129 0.39462 0.0
O83 O 0.4885 0.75731 0.40925 0.0
O84 O 0.56203 0.26014 0.65799 0.0
Cd85 Cd 0.56615 0.28398 0.67803 0.0
Cd86 Cd 0.58251 0.29994 0.64971 0.0
O87 O 0.57383 0.27259 0.63489 0.0
O88 O 0.55092 0.2758 0.697 0.0
O89 O 0.54734 0.29806 0.67985 0.0
C90 C 0.54219 0.28772 0.69233 0.0
C91 C 0.57678 0.32575 0.63522 0.0
C92 C 0.56613 0.25828 0.64143 0.0
C93 C 0.60472 0.29985 0.68766 0.0
O94 O 0.6041 0.30397 0.67076 0.0
O95 O 0.59094 0.29274 0.6936 0.0
O96 O 0.58842 0.31744 0.63063 0.0
O97 O 0.56825 0.31938 0.64807 0.0
O98 O 0.01705 0.22477 0.93221 0.0
Cd99 Cd 0.01663 0.24599 0.91543 0.0
Cd100 Cd 1.00834 0.26319 0.9493 0.0
O101 O 0.01394 0.23952 0.95976 0.0
O102 O 0.02847 0.23908 0.89368 0.0
O103 O 0.03932 0.26428 0.91537 0.0
C104 C 0.04092 0.25355 0.90042 0.0
C105 C 0.01912 0.29364 0.96671 0.0
C106 C 0.01646 0.22508 0.94997 0.0
C107 C 0.98197 0.25581 0.91284 0.0
O108 O 0.98544 0.26027 0.93094 0.0
O109 O 0.99298 0.25057 0.90367 0.0
O110 O 1.00709 0.28157 0.97175 0.0
O111 O 0.02571 0.28812 0.95222 0.0
O112 O 0.4178 0.05484 0.25469 0.0
Cd113 Cd 0.39866 0.05589 0.27327 0.0
Cd114 Cd 0.43106 0.04035 0.2977 0.0
O115 O 0.43993 0.04683 0.27146 0.0
O116 O 0.38011 0.06965 0.26193 0.0
O117 O 0.3975 0.08186 0.28855 0.0
C118 C 0.38506 0.08347 0.27591 0.0
C119 C 0.44895 0.04232 0.32906 0.0
C120 C 0.43279 0.05122 0.25586 0.0
C121 C 0.39274 0.01539 0.28673 0.0
O122 O 0.40878 0.01863 0.29327 0.0
O123 O 0.38633 0.02822 0.27968 0.0
O124 O 0.4489 0.0301 0.31456 0.0
O125 O 0.4398 0.05428 0.32569 0.0
O126 O 0.28267 0.15932 0.55834 0.0
Cd127 Cd 0.27862 0.13816 0.53522 0.0
Cd128 Cd 0.26408 0.16572 0.51719 0.0
O129 O 0.27177 0.18061 0.54483 0.0
O130 O 0.29242 0.1203 0.54448 0.0
O131 O 0.29794 0.13544 0.52038 0.0
C132 C 0.30187 0.12397 0.53165 0.0
C133 C 0.26831 0.18169 0.49065 0.0
C134 C 0.27884 0.17523 0.55958 0.0
C135 C 0.24051 0.1275 0.51885 0.0
O136 O 0.24248 0.14362 0.5135 0.0
O137 O 0.25331 0.12241 0.52726 0.0
O138 O 0.25645 0.18358 0.5005 0.0
O139 O 0.27812 0.17094 0.49601 0.0
O140 O 0.14216 0.03012 0.77398 0.0
Cd141 Cd 0.15969 0.03503 0.799 0.0
Cd142 Cd 0.13596 0.05143 0.81277 0.0
O143 O 0.12185 0.04119 0.78557 0.0
O144 O 0.17646 0.01985 0.79333 0.0
O145 O 0.16022 0.01455 0.81549 0.0
C146 C 0.17186 1.01015 0.80641 0.0
C147 C 0.1241 0.04403 0.83991 0.0
C148 C 0.12733 0.03346 0.77158 0.0
C149 C 0.17044 0.07685 0.81251 0.0
O150 O 0.15518 0.07591 0.81555 0.0
O151 O 0.17495 0.06198 0.80677 0.0
O152 O 0.11965 0.05644 0.83025 0.0
O153 O 0.13525 0.03558 0.83402 0.0
O154 O 0.27291 0.8606 0.02804 0.0
Cd155 Cd 0.25852 0.86993 1.00682 0.0
Cd156 Cd 0.2585 0.83734 0.98848 0.0
O157 O 0.2653 0.83081 0.01513 0.0
O158 O 0.25388 0.89276 0.02038 0.0
O159 O 0.23332 0.86785 1.0067 0.0
C160 C 0.23779 0.8846 0.01636 0.0
C161 C 0.23785 0.81623 0.96577 0.0
C162 C 0.27286 0.84352 0.02907 0.0
C163 C 0.27967 0.87106 0.9767 0.0
O164 O 0.27785 0.8536 0.9773 0.0
O165 O 0.27092 0.88016 0.98579 0.0
O166 O 0.25253 0.81292 0.97155 0.0
O167 O 0.23446 0.83137 0.97367 0.0
O168 O 0.31233 0.39783 0.10006 0.0
Cd169 Cd 0.31306 0.41574 0.07954 0.0
Cd170 Cd 0.3206 0.38492 0.05841 0.0
O171 O 0.31493 0.37243 0.08216 0.0
O172 O 0.30055 0.43506 0.0881 0.0
O173 O 0.29107 0.41464 0.06159 0.0
C174 C 0.28883 0.42831 0.07328 0.0
C175 C 0.31048 0.36809 0.02741 0.0
C176 C 0.31272 0.38054 0.09805 0.0
C177 C 0.34775 0.42202 0.0671 0.0
O178 O 0.34373 0.40448 0.06084 0.0
O179 O 0.33703 0.42973 0.07445 0.0
O180 O 0.3225 0.3641 0.0388 0.0
O181 O 0.30361 0.38127 0.03388 0.0
O182 O 0.85729 0.17336 0.14754 0.0
Cd183 Cd 0.84762 0.15193 0.125 0.0
Cd184 Cd 0.83255 0.17695 0.10855 0.0
O185 O 0.84711 0.19429 0.13268 0.0
O186 O 0.86391 0.13604 0.12013 0.0
O187 O 0.85514 0.15407 0.09991 0.0
C188 C 0.86396 0.14196 0.10377 0.0
C189 C 0.83055 0.19026 0.08041 0.0
C190 C 0.85581 0.19009 0.14703 0.0
C191 C 0.80993 0.14099 0.11735 0.0
O192 O 0.81114 0.15659 0.11102 0.0
O193 O 0.82331 0.13594 0.12389 0.0
O194 O 0.82257 0.19464 0.09401 0.0
O195 O 0.83984 0.17831 0.0828 0.0
O196 O 0.15856 0.50293 0.2752 0.0
Cd197 Cd 0.1803 0.50411 0.29675 0.0
Cd198 Cd 0.1523 0.52402 0.31879 0.0
O199 O 0.13955 0.51494 0.28961 0.0
O200 O 0.19602 0.48788 0.28523 0.0
O201 O 0.18461 0.48098 0.31009 0.0
C202 C 0.19407 0.47673 0.29787 0.0
C203 C 0.13737 0.52427 0.34704 0.0
C204 C 0.14425 0.50801 0.27434 0.0
C205 C 0.18923 0.5476 0.31405 0.0
O206 O 0.17462 0.54561 0.31964 0.0
O207 O 0.19393 0.53327 0.30624 0.0
O208 O 0.1366 0.53595 0.335 0.0
O209 O 0.14614 0.51208 0.34306 0.0
O210 O 0.81015 0.89984 0.60333 0.0
Cd211 Cd 0.8113 0.91821 0.5831 0.0
Cd212 Cd 0.82018 0.88806 0.56233 0.0
O213 O 0.81438 0.87512 0.58575 0.0
O214 O 0.79835 0.93725 0.59138 0.0
O215 O 0.78966 0.91721 0.56454 0.0
C216 C 0.78704 0.93068 0.57617 0.0
C217 C 0.81036 0.87175 0.53107 0.0
C218 C 0.81127 0.88277 0.60139 0.0
C219 C 0.8466 0.92554 0.5718 0.0
O220 O 0.84312 0.90804 0.56547 0.0
O221 O 0.83541 0.93277 0.57873 0.0
O222 O 0.82242 0.86772 0.54238 0.0
O223 O 0.80332 0.88469 0.53775 0.0
O224 O 0.93956 0.02143 0.23026 0.0
Cd225 Cd 0.9232 0.02068 0.25004 0.0
Cd226 Cd 0.94931 1.00838 0.27085 0.0
O227 O 0.96099 1.01328 0.24709 0.0
O228 O 0.90601 0.0342 0.23971 0.0
O229 O 0.92364 0.04466 0.26719 0.0
C230 C 0.91152 0.04694 0.25456 0.0
C231 C 0.9644 0.02014 0.30187 0.0
C232 C 0.95444 0.01824 0.23182 0.0
C233 C 0.91392 0.98208 0.26159 0.0
O234 O 0.92964 0.98457 0.26886 0.0
O235 O 0.90872 0.99489 0.25371 0.0
O236 O 0.96743 1.00594 0.29176 0.0
O237 O 0.95312 0.02819 0.29408 0.0
O238 O 0.3619 0.67562 0.64325 0.0
Cd239 Cd 0.3513 0.65177 0.62371 0.0
Cd240 Cd 0.33892 0.67561 0.60175 0.0
O241 O 0.35369 0.69495 0.62444 0.0
O242 O 0.36653 0.63411 0.62076 0.0
O243 O 0.35837 0.65028 0.59829 0.0
C244 C 0.36656 0.63808 0.60359 0.0
C245 C 0.33756 0.68449 0.57131 0.0
C246 C 0.36155 0.69217 0.64013 0.0
C247 C 0.31388 0.64331 0.61428 0.0
O248 O 0.31665 0.65737 0.60538 0.0
O249 O 0.32629 0.6383 0.6234 0.0
O250 O 0.32987 0.69145 0.58399 0.0
O251 O 0.34651 0.67279 0.57607 0.0
O252 O 0.44109 0.52033 0.73468 0.0
Cd253 Cd 0.42492 0.51818 0.75471 0.0
Cd254 Cd 0.45115 0.50502 0.77365 0.0
O255 O 0.46321 0.51289 0.75096 0.0
O256 O 0.40724 0.53142 0.74521 0.0
O257 O 0.42481 0.54137 0.77279 0.0
C258 C 0.41245 0.54365 0.76048 0.0
C259 C 0.4652 0.51508 0.80528 0.0
C260 C 0.45633 0.51817 0.73607 0.0
C261 C 0.41619 0.47834 0.76321 0.0
O262 O 0.43207 0.48035 0.76942 0.0
O263 O 0.41076 0.49198 0.75741 0.0
O264 O 0.46914 0.50203 0.79438 0.0
O265 O 0.45357 0.52296 0.79798 0.0
O266 O 0.66012 1.00121 0.77665 0.0
Cd267 Cd 0.68177 1.00233 0.79826 0.0
Cd268 Cd 0.65348 0.02279 0.82037 0.0
O269 O 0.64113 1.01344 0.79096 0.0
O270 O 0.6984 0.98694 0.78729 0.0
O271 O 0.68539 0.97844 0.81063 0.0
C272 C 0.6957 0.97503 0.7991 0.0
C273 C 0.63819 0.02366 0.8484 0.0
C274 C 0.64583 1.00634 0.77574 0.0
C275 C 0.69072 0.04588 0.81601 0.0
O276 O 0.67609 0.04409 0.82155 0.0
O277 O 0.69522 0.03148 0.80807 0.0
O278 O 0.63769 0.03517 0.83613 0.0
O279 O 0.64683 1.01126 0.84473 0.0
O280 O 0.78562 0.66559 0.0616 0.0
Cd281 Cd 0.78195 0.64453 0.03855 0.0
Cd282 Cd 0.76811 0.67287 0.02046 0.0
O283 O 0.77705 0.68813 0.04787 0.0
O284 O 0.79462 0.62619 0.04897 0.0
O285 O 0.80206 0.64111 0.02533 0.0
C286 C 0.80499 0.62958 0.03697 0.0
C287 C 0.77276 0.68783 0.99327 0.0
C288 C 0.78307 0.6821 0.06274 0.0
C289 C 0.7438 0.63505 0.02245 0.0
O290 O 0.74591 0.65152 0.01787 0.0
O291 O 0.75661 0.6293 0.0298 0.0
O292 O 0.76152 0.69111 1.00351 0.0
O293 O 0.78163 0.67617 0.99856 0.0
O294 O 0.91804 0.5529 0.75417 0.0
Cd295 Cd 0.89889 0.55398 0.77269 0.0
Cd296 Cd 0.93133 0.53881 0.79709 0.0
O297 O 0.94018 0.5449 0.77087 0.0
O298 O 0.88081 0.56809 0.76102 0.0
O299 O 0.89743 0.57964 0.78829 0.0
C300 C 0.88541 0.58161 0.7753 0.0
C301 C 0.94963 0.54127 0.82815 0.0
C302 C 0.933 0.54923 0.75529 0.0
C303 C 0.89298 0.51375 0.78658 0.0
O304 O 0.90902 0.51718 0.79317 0.0
O305 O 0.88652 0.52637 0.77915 0.0
O306 O 0.94919 0.52865 0.81386 0.0
O307 O 0.94057 0.55329 0.82471 0.0
O308 O 0.774 0.37595 0.54125 0.0
Cd309 Cd 0.75836 0.38451 0.52064 0.0
Cd310 Cd 0.76762 0.3597 0.49743 0.0
O311 O 0.7777 0.35188 0.52242 0.0
O312 O 0.7444 0.39764 0.53534 0.0
O313 O 0.73314 0.37233 0.51365 0.0
C314 C 0.73101 0.38539 0.52615 0.0
C315 C 0.75317 0.33561 0.47292 0.0
C316 C 0.77999 0.36149 0.53887 0.0
C317 C 0.77938 0.40034 0.49314 0.0
O318 O 0.78099 0.38368 0.48884 0.0
O319 O 0.76984 0.40379 0.50509 0.0
O320 O 0.76957 0.33928 0.47807 0.0
O321 O 0.74469 0.34565 0.48192 0.0
O322 O 0.64777 0.53118 0.27965 0.0
Cd323 Cd 0.66562 0.53598 0.3045 0.0
Cd324 Cd 0.64251 0.5532 0.31838 0.0
O325 O 0.62845 0.5442 0.29107 0.0
O326 O 0.68136 0.51944 0.29886 0.0
O327 O 0.66588 0.51625 0.32193 0.0
C328 C 0.67685 0.51062 0.31259 0.0
C329 C 0.63059 0.54592 0.34548 0.0
C330 C 0.63345 0.53574 0.27715 0.0
C331 C 0.67731 0.57777 0.31815 0.0
O332 O 0.66219 0.5771 0.32152 0.0
O333 O 0.68147 0.56279 0.31198 0.0
O334 O 0.62648 0.55862 0.33602 0.0
O335 O 0.64134 0.53701 0.33931 0.0
Tb336 Tb 0.02392 0.01558 0.03202 0.0
Tb337 Tb 0.06179 0.03023 0.0427 0.0
C338 C 0.99216 1.00235 0.02893 0.0
C339 C 0.97744 1.00987 0.02237 0.0
C340 C 0.98015 0.02759 0.01644 0.0
C341 C 0.96654 0.03612 0.01284 0.0
C342 C 0.94985 0.02694 0.01486 0.0
C343 C 0.94703 1.00856 0.0195 0.0
C344 C 0.96076 1.00016 0.02339 0.0
C345 C 0.04103 0.01633 1.00326 0.0
C346 C 0.03845 0.05783 0.02907 0.0
C347 C 0.09344 0.04091 0.04364 0.0
C348 C 0.10597 0.02919 0.04426 0.0
C349 C 0.10111 1.01071 0.03445 0.0
C350 C 0.11183 0.99851 0.03686 0.0
C351 C 0.12761 1.0044 0.04934 0.0
C352 C 0.13271 0.02306 0.05886 0.0
C353 C 0.12191 0.03537 0.05637 0.0
C354 C 0.04488 0.03007 0.07168 0.0
C355 C 0.04717 0.98871 0.04707 0.0
O356 O 1.00188 1.01173 0.04477 0.0
O357 O 1.00115 0.99825 0.01588 0.0
O358 O 0.04556 1.01156 0.01922 0.0
O359 O 0.02617 0.02019 1.00277 0.0
O360 O 0.02467 0.04514 0.03093 0.0
O361 O 0.05399 0.05449 0.03194 0.0
O362 O 0.08223 0.03769 0.02783 0.0
O363 O 0.08625 0.04223 0.05888 0.0
O364 O 0.04018 0.03426 0.05552 0.0
O365 O 0.06008 0.02708 0.07247 0.0
O366 O 0.06061 1.0005 0.04315 0.0
O367 O 0.03195 0.99277 0.0455 0.0
H368 H 0.99293 0.0352 0.01536 0.0
H369 H 0.96936 0.05034 0.00958 0.0
H370 H 0.9343 1.00091 0.02081 0.0
H371 H 0.95845 0.98637 0.0278 0.0
H372 H 0.08879 1.00545 0.02528 0.0
H373 H 0.10767 0.98437 0.02899 0.0
H374 H 0.14479 0.02797 0.06862 0.0
H375 H 0.12575 0.04949 0.06431 0.0
Tb376 Tb 0.28864 0.77597 0.2799 0.0
Tb377 Tb 0.2885 0.78857 0.32261 0.0
C378 C 0.28112 0.76936 0.24433 0.0
C379 C 0.29054 0.77407 0.22866 0.0
C380 C 0.29749 0.79285 0.22681 0.0
C381 C 0.30597 0.79702 0.21157 0.0
C382 C 0.30785 0.78253 0.19797 0.0
C383 C 0.30147 0.76373 0.20031 0.0
C384 C 0.29281 0.75956 0.21545 0.0
C385 C 0.31843 0.77531 0.30096 0.0
C386 C 0.3048 0.81959 0.29851 0.0
C387 C 0.29239 0.79272 0.35837 0.0
C388 C 0.29666 0.78112 0.37273 0.0
C389 C 0.30213 0.76473 0.36757 0.0
C390 C 0.30651 0.75396 0.38145 0.0
C391 C 0.30553 0.75947 0.40069 0.0
C392 C 0.29986 0.77582 0.40572 0.0
C393 C 0.29546 0.78656 0.39182 0.0
C394 C 0.26308 0.79394 0.29805 0.0
C395 C 0.27466 0.74464 0.30464 0.0
O396 O 0.27735 0.78336 0.2547 0.0
O397 O 0.2866 0.75758 0.25464 0.0
O398 O 0.30551 0.77982 0.3061 0.0
O399 O 0.31484 0.77105 0.28252 0.0
O400 O 0.29867 0.80697 0.28272 0.0
O401 O 0.30367 0.8149 0.31582 0.0
O402 O 0.30468 0.79887 0.34885 0.0
O403 O 0.2774 0.7863 0.34731 0.0
O404 O 0.26981 0.78008 0.29702 0.0
O405 O 0.26981 0.80484 0.3141 0.0
O406 O 0.28159 0.7573 0.32019 0.0
O407 O 0.27415 0.74959 0.28731 0.0
H408 H 0.29611 0.80436 0.23689 0.0
H409 H 0.31042 0.81166 0.21006 0.0
H410 H 0.30286 0.75224 0.19021 0.0
H411 H 0.28772 0.74497 0.21675 0.0
H412 H 0.30317 0.76037 0.35286 0.0
H413 H 0.31098 0.74154 0.37718 0.0
H414 H 0.29872 0.78025 0.42039 0.0
H415 H 0.29119 0.79914 0.39598 0.0
Tb416 Tb 0.56296 0.02883 0.54936 0.0
Tb417 Tb 0.52601 0.02305 0.55776 0.0
C418 C 0.59516 0.03545 0.55141 0.0
C419 C 0.60884 0.025 0.55113 0.0
C420 C 0.60848 1.00898 0.56015 0.0
C421 C 0.62225 1.00022 0.56085 0.0
C422 C 0.63669 1.00725 0.55251 0.0
C423 C 0.63672 0.02302 0.54308 0.0
C424 C 0.623 0.03178 0.54245 0.0
C425 C 0.53863 0.02586 0.51883 0.0
C426 C 0.54056 0.98771 0.54461 0.0
C427 C 0.49403 0.02002 0.55405 0.0
C428 C 0.4807 0.0308 0.54991 0.0
C429 C 0.47338 0.03178 0.53109 0.0
C430 C 0.45947 0.04019 0.52766 0.0
C431 C 0.45244 0.04768 0.54294 0.0
C432 C 0.46013 0.04712 0.56171 0.0
C433 C 0.47396 0.03876 0.56512 0.0
C434 C 0.54744 0.01875 0.58891 0.0
C435 C 0.54917 0.06461 0.56397 0.0
O436 O 0.58735 0.03519 0.56628 0.0
O437 O 0.5845 0.03379 0.53545 0.0
O438 O 0.53915 0.03422 0.53563 0.0
O439 O 0.55239 0.01953 0.51893 0.0
O440 O 0.55634 0.99856 0.54858 0.0
O441 O 0.52678 0.99461 0.54533 0.0
O442 O 0.50165 1.01435 0.54017 0.0
O443 O 0.50465 0.02576 0.57028 0.0
O444 O 0.55056 0.02222 0.57263 0.0
O445 O 0.5311 0.01734 0.5877 0.0
O446 O 0.5337 0.05361 0.56308 0.0
O447 O 0.56233 0.05794 0.55957 0.0
H448 H 0.59769 1.00341 0.56695 0.0
H449 H 0.62176 0.98824 0.56839 0.0
H450 H 0.64739 0.02866 0.53614 0.0
H451 H 0.62357 0.04408 0.53537 0.0
H452 H 0.4781 0.02563 0.519 0.0
H453 H 0.45385 0.04024 0.51301 0.0
H454 H 0.45535 0.05303 0.57387 0.0
H455 H 0.47913 0.03814 0.57979 0.0
Tb456 Tb 0.26984 0.2817 0.78605 0.0
Tb457 Tb 0.3096 0.28109 0.79373 0.0
C458 C 0.23835 0.27872 0.78662 0.0
C459 C 0.22533 0.27628 0.79955 0.0
C460 C 0.21606 0.25828 0.80155 0.0
C461 C 0.20223 0.25618 0.81165 0.0
C462 C 0.19726 0.27202 0.81994 0.0
C463 C 0.20686 0.28999 0.81835 0.0
C464 C 0.22063 0.29208 0.80826 0.0
C465 C 0.2925 0.31069 0.77929 0.0
C466 C 0.29175 0.29169 0.82866 0.0
C467 C 0.34128 0.29296 0.79425 0.0
C468 C 0.35582 0.2904 0.7845 0.0
C469 C 0.36553 0.30609 0.77828 0.0
C470 C 0.37984 0.30479 0.76975 0.0
C471 C 0.38488 0.2877 0.76717 0.0
C472 C 0.37506 0.27189 0.77332 0.0
C473 C 0.36066 0.27322 0.78189 0.0
C474 C 0.28875 0.24848 0.79641 0.0
C475 C 0.28648 0.26581 0.75217 0.0
O476 O 0.24483 0.2644 0.78154 0.0
O477 O 0.24983 0.29483 0.78965 0.0
O478 O 0.29423 0.30115 0.79256 0.0
O479 O 0.27714 0.30466 0.76944 0.0
O480 O 0.27647 0.28585 0.81742 0.0
O481 O 0.30647 0.29281 0.82209 0.0
O482 O 0.3294 0.29923 0.78441 0.0
O483 O 0.33493 0.28038 0.80465 0.0
O484 O 0.28544 0.26349 0.79242 0.0
O485 O 0.30539 0.2512 0.79865 0.0
O486 O 0.30199 0.27232 0.76277 0.0
O487 O 0.272 0.26627 0.75886 0.0
H488 H 0.21918 0.24578 0.7949 0.0
H489 H 0.1953 0.24212 0.81276 0.0
H490 H 0.20332 0.30252 0.82425 0.0
H491 H 0.22725 0.30615 0.80675 0.0
H492 H 0.36217 0.31955 0.78027 0.0
H493 H 0.38718 0.31735 0.76557 0.0
H494 H 0.37843 0.25846 0.7714 0.0
H495 H 0.35341 0.26087 0.78654 0.0
Tb496 Tb 0.04287 0.0528 0.5447 0.0
Tb497 Tb 0.03688 1.01131 0.53337 0.0
C498 C 0.05287 0.08784 0.54716 0.0
C499 C 0.05671 0.10076 0.53337 0.0
C500 C 0.06086 0.09448 0.5157 0.0
C501 C 0.06377 0.10675 0.50236 0.0
C502 C 0.06267 0.1255 0.50656 0.0
C503 C 0.05877 0.13177 0.52443 0.0
C504 C 0.05579 0.11947 0.53771 0.0
C505 C 0.01352 0.03286 0.55113 0.0
C506 C 0.02861 0.03386 0.50103 0.0
C507 C 0.0275 0.97631 0.53175 0.0
C508 C 0.02708 0.964 0.5465 0.0
C509 C 0.01382 0.94774 0.54427 0.0
C510 C 1.01294 0.93629 0.55856 0.0
C511 C 0.02531 0.94102 0.57533 0.0
C512 C 0.03847 0.95748 0.57758 0.0
C513 C 0.03937 0.96884 0.56328 0.0
C514 C 0.06636 0.03136 0.52721 0.0
C515 C 0.0511 0.03017 0.57712 0.0
O516 O 0.06325 0.07669 0.54971 0.0
O517 O 0.03673 0.07906 0.54558 0.0
O518 O 0.02059 0.03 0.53679 0.0
O519 O 0.02244 0.04812 0.56207 0.0
O520 O 0.03737 0.04903 0.51314 0.0
O521 O 0.02486 0.01718 0.50658 0.0
O522 O 0.01696 0.98741 0.53224 0.0
O523 O 0.04275 0.98501 0.52917 0.0
O524 O 0.05915 0.03406 0.54146 0.0
O525 O 0.05743 0.01618 0.51614 0.0
O526 O 0.04294 0.0149 0.56486 0.0
O527 O 0.05431 0.04697 0.57181 0.0
H528 H 0.06175 0.08007 0.51215 0.0
H529 H 0.06687 0.10157 0.48877 0.0
H530 H 0.05756 0.14606 0.52795 0.0
H531 H 0.05254 0.1245 0.55127 0.0
H532 H 1.00416 0.94388 0.53147 0.0
H533 H 1.00278 0.92357 0.55632 0.0
H534 H 0.04805 0.96161 0.59043 0.0
H535 H 0.04967 0.98141 0.56537 0.0
Tb536 Tb 0.29607 0.76532 0.77775 0.0
Tb537 Tb 0.3019 0.80215 0.80484 0.0
C538 C 0.30039 0.7383 0.75553 0.0
C539 C 0.31086 0.72444 0.75754 0.0
C540 C 0.31584 0.71594 0.74137 0.0
C541 C 0.32565 0.70261 0.74309 0.0
C542 C 0.33068 0.69758 0.76106 0.0
C543 C 0.3259 0.70643 0.77729 0.0
C544 C 0.31607 0.71973 0.77554 0.0
C545 C 0.27735 0.76407 0.80488 0.0
C546 C 0.32726 0.77723 0.81353 0.0
C547 C 0.29892 0.83036 0.82635 0.0
C548 C 0.2864 0.84208 0.82743 0.0
C549 C 0.26865 0.8342 0.82457 0.0
C550 C 0.25711 0.84585 0.82498 0.0
C551 C 0.26311 0.86558 0.82812 0.0
C552 C 0.28094 0.87329 0.83092 0.0
C553 C 0.29241 0.86167 0.83068 0.0
C554 C 0.32001 0.80285 0.777 0.0
C555 C 0.26996 0.78936 0.7705 0.0
O556 O 0.30894 0.75571 0.7565 0.0
O557 O 0.28785 0.73696 0.76544 0.0
O558 O 0.29276 0.7731 0.80646 0.0
O559 O 0.27243 0.75401 0.7881 0.0
O560 O 0.32003 0.76652 0.79695 0.0
O561 O 0.32102 0.79107 0.82091 0.0
O562 O 0.29436 0.81308 0.82988 0.0
O563 O 0.30696 0.83147 0.8117 0.0
O564 O 0.30458 0.79432 0.77597 0.0
O565 O 0.32578 0.81211 0.79404 0.0
O566 O 0.27652 0.7988 0.78783 0.0
O567 O 0.27754 0.77741 0.76182 0.0
H568 H 0.31209 0.71957 0.72739 0.0
H569 H 0.32935 0.69628 0.73035 0.0
H570 H 0.3294 0.70278 0.79131 0.0
H571 H 0.3124 0.72621 0.78823 0.0
H572 H 0.26369 0.81908 0.8219 0.0
H573 H 0.24352 0.83936 0.8229 0.0
H574 H 0.28611 0.88835 0.83288 0.0
H575 H 0.30605 0.86803 0.83272 0.0
Tb576 Tb 0.51998 0.0385 0.03875 0.0
Tb577 Tb 0.5519 0.04017 0.06576 0.0
C578 C 0.49113 0.02957 0.01753 0.0
C579 C 0.47339 0.0192 0.01684 0.0
C580 C 0.46957 1.0035 0.02624 0.0
C581 C 0.45308 0.99172 0.02239 0.0
C582 C 0.44022 0.99555 0.00916 0.0
C583 C 0.44386 1.01197 1.00075 0.0
C584 C 0.46036 0.02367 1.00453 0.0
C585 C 0.53895 0.07256 0.0519 0.0
C586 C 0.51816 0.03843 0.08393 0.0
C587 C 0.58146 0.05039 0.08534 0.0
C588 C 0.59933 0.04959 0.08394 0.0
C589 C 0.61001 0.06366 0.07644 0.0
C590 C 0.62745 0.06427 0.07739 0.0
C591 C 0.63462 0.05089 0.08594 0.0
C592 C 0.62382 0.03641 0.09279 0.0
C593 C 0.60636 0.03581 0.09188 0.0
C594 C 0.53348 1.00579 0.05201 0.0
C595 C 0.55374 0.03958 0.02016 0.0
O596 O 0.50249 0.0194 0.01749 0.0
O597 O 0.49669 0.04544 0.02925 0.0
O598 O 0.53602 0.05894 0.06101 0.0
O599 O 0.5302 0.06754 0.03475 0.0
O600 O 0.50975 0.03312 0.06592 0.0
O601 O 0.53518 0.0441 0.08707 0.0
O602 O 0.57459 0.06111 0.07476 0.0
O603 O 0.57063 0.03454 0.08605 0.0
O604 O 0.53602 0.01979 0.04341 0.0
O605 O 0.54266 1.01063 0.06896 0.0
O606 O 0.56215 0.0414 0.03804 0.0
O607 O 0.53685 0.03766 0.01702 0.0
H608 H 0.4795 0.99988 0.03585 0.0
H609 H 0.45052 0.97929 0.02928 0.0
H610 H 0.43423 0.0152 0.99042 0.0
H611 H 0.46315 0.03571 0.99709 0.0
H612 H 0.60506 0.07463 0.07045 0.0
H613 H 0.63545 0.07581 0.07227 0.0
H614 H 0.62893 0.02579 0.0993 0.0
H615 H 0.5985 0.02488 0.09793 0.0
Tb616 Tb 0.27343 0.2677 0.28515 0.0
Tb617 Tb 0.30665 0.29321 0.30131 0.0
C618 C 0.24218 0.25241 0.28167 0.0
C619 C 0.22805 0.26148 0.28484 0.0
C620 C 0.22936 0.27388 0.30181 0.0
C621 C 0.217 0.28408 0.30402 0.0
C622 C 0.20302 0.28222 0.28934 0.0
C623 C 0.20154 0.2696 0.27247 0.0
C624 C 0.21397 0.25935 0.27024 0.0
C625 C 0.29051 0.2818 0.25934 0.0
C626 C 0.27547 0.31263 0.29772 0.0
C627 C 0.33755 0.31072 0.30564 0.0
C628 C 0.35392 0.30511 0.30636 0.0
C629 C 0.3551 0.28884 0.2948 0.0
C630 C 0.37079 0.28394 0.29516 0.0
C631 C 0.38564 0.29523 0.30704 0.0
C632 C 0.38435 0.31131 0.3189 0.0
C633 C 0.36859 0.31618 0.31857 0.0
C634 C 0.2896 0.27906 0.32731 0.0
C635 C 0.30453 0.2482 0.2881 0.0
O636 O 0.25333 0.25267 0.29689 0.0
O637 O 0.24962 0.25674 0.2671 0.0
O638 O 0.28943 0.29033 0.27533 0.0
O639 O 0.28117 0.26469 0.25705 0.0
O640 O 0.26601 0.29497 0.29316 0.0
O641 O 0.29247 0.31568 0.30052 0.0
O642 O 0.32728 0.30625 0.2891 0.0
O643 O 0.3294 0.3074 0.31992 0.0
O644 O 0.29064 0.27059 0.31127 0.0
O645 O 0.29897 0.29611 0.32944 0.0
O646 O 0.31404 0.26578 0.29384 0.0
O647 O 0.28751 0.24514 0.28448 0.0
H648 H 0.24013 0.27602 0.31332 0.0
H649 H 0.21835 0.29338 0.31734 0.0
H650 H 0.19093 0.2679 0.26087 0.0
H651 H 0.2128 0.25007 0.25695 0.0
H652 H 0.34399 0.2801 0.28517 0.0
H653 H 0.37138 0.27165 0.28561 0.0
H654 H 0.39555 0.32019 0.32831 0.0
H655 H 0.3679 0.32873 0.32767 0.0
Tb656 Tb 0.54531 0.55195 0.04764 0.0
Tb657 Tb 0.54346 0.51111 0.03993 0.0
C658 C 0.55251 0.5871 0.05598 0.0
C659 C 0.54707 0.60174 0.04615 0.0
C660 C 0.54274 0.59898 0.02614 0.0
C661 C 0.53673 0.61249 0.01689 0.0
C662 C 0.53484 0.62899 0.02749 0.0
C663 C 0.53916 0.63169 0.04755 0.0
C664 C 0.54521 0.61814 0.0568 0.0
C665 C 0.5149 0.52979 0.04746 0.0
C666 C 0.53243 0.5327 1.00544 0.0
C667 C 0.53323 0.47599 0.03303 0.0
C668 C 0.53027 0.46211 0.04611 0.0
C669 C 0.51712 0.44568 0.04068 0.0
C670 C 0.5137 0.43301 0.05361 0.0
C671 C 0.5234 0.43667 0.07215 0.0
C672 C 0.53643 0.45328 0.07753 0.0
C673 C 0.53984 0.46585 0.06463 0.0
C674 C 0.57406 0.53285 0.03981 0.0
C675 C 0.55696 0.53067 0.08154 0.0
O676 O 0.56219 0.57788 0.04746 0.0
O677 O 0.54035 0.57596 0.06237 0.0
O678 O 0.52921 0.52731 0.05452 0.0
O679 O 0.51726 0.54562 0.04083 0.0
O680 O 0.53849 0.54897 0.0168 0.0
O681 O 0.53245 0.51649 0.01177 0.0
O682 O 0.52285 0.48731 0.03269 0.0
O683 O 0.54923 0.48494 0.03381 0.0
O684 O 0.55978 0.53573 0.03313 0.0
O685 O 0.57148 0.5166 0.04559 0.0
O686 O 0.54829 0.51469 0.07092 0.0
O687 O 0.5593 0.54663 0.07435 0.0
H688 H 0.54399 0.58636 0.01765 0.0
H689 H 0.53379 0.61012 1.00142 0.0
H690 H 0.53769 0.64418 0.0561 0.0
H691 H 0.54829 0.62038 0.07227 0.0
H692 H 0.50947 0.44271 0.0265 0.0
H693 H 0.50367 0.42025 0.04902 0.0
H694 H 0.54394 0.45666 0.09179 0.0
H695 H 0.54992 0.47856 0.0692 0.0
Tb696 Tb 0.79316 0.26515 0.28119 0.0
Tb697 Tb 0.79756 0.29787 0.31327 0.0
C698 C 0.79819 0.24064 0.2564 0.0
C699 C 0.81033 0.22843 0.25644 0.0
C700 C 0.81392 0.22048 0.23913 0.0
C701 C 0.82461 0.20792 0.23903 0.0
C702 C 0.83201 0.20322 0.25628 0.0
C703 C 0.82881 0.21177 0.27363 0.0
C704 C 0.81804 0.22421 0.2737 0.0
C705 C 0.77518 0.25844 0.30851 0.0
C706 C 0.82491 0.27503 0.3163 0.0
C707 C 0.79133 0.32081 0.33868 0.0
C708 C 0.77954 0.33345 0.33841 0.0
C709 C 0.77335 0.33883 0.35505 0.0
C710 C 0.76252 0.35126 0.35497 0.0
C711 C 0.75765 0.35849 0.33819 0.0
C712 C 0.76359 0.35264 0.32143 0.0
C713 C 0.77438 0.34023 0.32153 0.0
C714 C 0.81551 0.30491 0.28575 0.0
C715 C 0.76658 0.28919 0.27741 0.0
O716 O 0.80489 0.25863 0.25764 0.0
O717 O 0.78676 0.23718 0.2676 0.0
O718 O 0.79037 0.26805 0.31053 0.0
O719 O 0.76967 0.2515 0.29069 0.0
O720 O 0.81844 0.26737 0.29832 0.0
O721 O 0.81698 0.28537 0.32659 0.0
O722 O 0.78406 0.3028 0.33571 0.0
O723 O 0.80397 0.32492 0.32909 0.0
O724 O 0.80048 0.29496 0.28404 0.0
O725 O 0.8207 0.31245 0.30351 0.0
O726 O 0.77305 0.2969 0.29537 0.0
O727 O 0.77401 0.27796 0.26745 0.0
H728 H 0.8082 0.2237 0.22567 0.0
H729 H 0.8269 0.20171 0.22544 0.0
H730 H 0.8341 0.20834 0.28717 0.0
H731 H 0.81544 0.23019 0.28724 0.0
H732 H 0.777 0.33354 0.36815 0.0
H733 H 0.75797 0.35523 0.36806 0.0
H734 H 0.7603 0.35804 0.3083 0.0
H735 H 0.7789 0.33614 0.30845 0.0
Tb736 Tb 0.01945 0.52666 0.53861 0.0
Tb737 Tb 0.05295 0.54091 0.56544 0.0
C738 C 0.99148 0.5068 0.52032 0.0
C739 C 0.97305 0.50547 0.5196 0.0
C740 C 0.96186 0.48765 0.51719 0.0
C741 C 0.94418 0.48582 0.51479 0.0
C742 C 0.93739 0.5018 0.51465 0.0
C743 C 0.94863 0.5197 0.51748 0.0
C744 C 0.96636 0.52154 0.52006 0.0
C745 C 0.02932 0.56356 0.54731 0.0
C746 C 0.0189 0.53391 0.58446 0.0
C747 C 0.08097 0.56048 0.58408 0.0
C748 C 0.09941 0.56197 0.58491 0.0
C749 C 0.10679 0.56026 0.56831 0.0
C750 C 0.12448 0.56198 0.56979 0.0
C751 C 0.13495 0.56523 0.58785 0.0
C752 C 0.12742 0.56661 0.60437 0.0
C753 C 0.10981 0.56503 0.60289 0.0
C754 C 0.04326 0.50383 0.55617 0.0
C755 C 0.05338 0.53416 0.51962 0.0
O756 O 0.99965 0.5022 0.53555 0.0
O757 O 1.00025 0.52175 0.51473 0.0
O758 O 0.03123 0.55162 0.55802 0.0
O759 O 0.01963 0.55487 0.53143 0.0
O760 O 1.01036 0.52592 0.56701 0.0
O761 O 0.0355 0.54237 0.58667 0.0
O762 O 0.07271 0.56538 0.5691 0.0
O763 O 0.07238 0.54516 0.58915 0.0
O764 O 0.04126 0.51603 0.54584 0.0
O765 O 0.05291 0.51249 0.57207 0.0
O766 O 0.06178 0.54268 0.53697 0.0
O767 O 0.03701 0.52492 0.5176 0.0
H768 H 0.9668 0.47511 0.51671 0.0
H769 H 0.93579 0.47184 0.51244 0.0
H770 H 0.9437 0.53223 0.5176 0.0
H771 H 0.97479 0.53547 0.52202 0.0
H772 H 0.09894 0.55769 0.55427 0.0
H773 H 0.12997 0.56075 0.55683 0.0
H774 H 0.1352 0.56939 0.61846 0.0
H775 H 0.10431 0.56635 0.61583 0.0
Tb776 Tb 0.77225 0.78335 0.28958 0.0
Tb777 Tb 0.81061 0.78483 0.298 0.0
C778 C 0.74021 0.77675 0.28901 0.0
C779 C 0.72692 0.77562 0.3016 0.0
C780 C 0.71645 0.758 0.30282 0.0
C781 C 0.70243 0.75665 0.31252 0.0
C782 C 0.69839 0.7729 0.32121 0.0
C783 C 0.70918 0.79053 0.32046 0.0
C784 C 0.72323 0.79188 0.31073 0.0
C785 C 0.79311 0.81394 0.28321 0.0
C786 C 0.79334 0.79645 0.33239 0.0
C787 C 0.84262 0.79145 0.29844 0.0
C788 C 0.85566 0.79149 0.28565 0.0
C789 C 0.86552 0.80867 0.28229 0.0
C790 C 0.8794 0.80915 0.27246 0.0
C791 C 0.8839 0.79244 0.26585 0.0
C792 C 0.87367 0.77521 0.26867 0.0
C793 C 0.85977 0.77474 0.27847 0.0
C794 C 0.78985 0.75429 0.30461 0.0
C795 C 0.78955 0.77174 0.25518 0.0
O796 O 0.74892 0.76375 0.28875 0.0
O797 O 0.74979 0.79333 0.28812 0.0
O798 O 0.79543 0.80485 0.29678 0.0
O799 O 0.77807 0.80659 0.27301 0.0
O800 O 0.7783 0.78913 0.32108 0.0
O801 O 0.80804 0.79831 0.32579 0.0
O802 O 0.83375 0.80427 0.29759 0.0
O803 O 0.83324 0.77519 0.30064 0.0
O804 O 0.78742 0.76326 0.29094 0.0
O805 O 0.80498 0.76166 0.31458 0.0
O806 O 0.80458 0.77888 0.26653 0.0
O807 O 0.77482 0.77 0.26169 0.0
H808 H 0.71883 0.74521 0.29581 0.0
H809 H 0.69464 0.74282 0.31304 0.0
H810 H 0.70643 0.80337 0.3268 0.0
H811 H 0.73087 0.80571 0.30993 0.0
H812 H 0.86285 0.82185 0.28785 0.0
H813 H 0.88704 0.82269 0.27076 0.0
H814 H 0.87654 0.76203 0.26352 0.0
H815 H 0.85254 0.76124 0.28084 0.0
Tb816 Tb 0.79468 0.27434 0.78427 0.0
Tb817 Tb 0.79047 0.28507 0.82314 0.0
C818 C 0.79243 0.2623 0.74945 0.0
C819 C 0.79976 0.27047 0.73378 0.0
C820 C 0.80227 0.2898 0.7331 0.0
C821 C 0.80921 0.29746 0.71815 0.0
C822 C 0.81396 0.28598 0.70369 0.0
C823 C 0.81188 0.26669 0.70476 0.0
C824 C 0.80481 0.259 0.71969 0.0
C825 C 0.82245 0.27757 0.80974 0.0
C826 C 0.80667 0.31772 0.79919 0.0
C827 C 0.79581 0.29689 0.85841 0.0
C828 C 0.79888 0.28815 0.87555 0.0
C829 C 0.80274 0.27046 0.87413 0.0
C830 C 0.80572 0.2622 0.8905 0.0
C831 C 0.80476 0.27145 0.90855 0.0
C832 C 0.80077 0.28915 0.90982 0.0
C833 C 0.79787 0.29744 0.89343 0.0
C834 C 0.76268 0.28275 0.79785 0.0
C835 C 0.77778 0.24221 0.80753 0.0
O836 O 0.78106 0.2701 0.75637 0.0
O837 O 0.80353 0.25893 0.76286 0.0
O838 O 0.80724 0.27008 0.81143 0.0
O839 O 0.82242 0.28317 0.79323 0.0
O840 O 0.80322 0.3047 0.78383 0.0
O841 O 0.80313 0.31291 0.81588 0.0
O842 O 0.8079 0.29833 0.84789 0.0
O843 O 0.78048 0.29081 0.84816 0.0
O844 O 0.778 0.28947 0.79604 0.0
O845 O 0.76257 0.27822 0.81481 0.0
O846 O 0.78443 0.25448 0.82326 0.0
O847 O 0.77851 0.24789 0.79061 0.0
H848 H 0.79864 0.29897 0.74396 0.0
H849 H 0.8103 0.31229 0.71762 0.0
H850 H 0.81558 0.2575 0.69397 0.0
H851 H 0.8032 0.24409 0.7202 0.0
H852 H 0.80349 0.26307 0.86038 0.0
H853 H 0.80898 0.24868 0.88903 0.0
H854 H 0.79966 0.29651 0.92345 0.0
H855 H 0.7948 0.31106 0.8947 0.0
Tb856 Tb 0.77422 0.76652 0.79017 0.0
Tb857 Tb 0.8088 0.79128 0.79539 0.0
C858 C 0.74687 0.74353 0.79221 0.0
C859 C 0.72938 0.74585 0.79222 0.0
C860 C 0.71737 0.73254 0.79894 0.0
C861 C 0.70132 0.73583 0.80103 0.0
C862 C 0.69713 0.75255 0.79653 0.0
C863 C 0.70905 0.76553 0.78916 0.0
C864 C 0.72504 0.7622 0.78704 0.0
C865 C 0.7819 0.78096 0.75953 0.0
C866 C 0.77601 0.81021 0.79722 0.0
C867 C 0.83613 0.81429 0.79327 0.0
C868 C 0.85308 0.81172 0.7902 0.0
C869 C 0.85453 0.79543 0.7789 0.0
C870 C 0.87062 0.79277 0.77633 0.0
C871 C 0.8856 0.8063 0.7851 0.0
C872 C 0.88415 0.82254 0.79656 0.0
C873 C 0.86797 0.82524 0.79905 0.0
C874 C 0.80102 0.77668 0.82602 0.0
C875 C 0.80689 0.74768 0.7876 0.0
O876 O 0.758 0.75266 0.80719 0.0
O877 O 0.75282 0.74544 0.77623 0.0
O878 O 0.79185 0.77484 0.7711 0.0
O879 O 0.76684 0.77804 0.7644 0.0
O880 O 0.76649 0.79315 0.79769 0.0
O881 O 0.79249 0.81233 0.79544 0.0
O882 O 0.82363 0.80755 0.7788 0.0
O883 O 0.83167 0.81021 0.80947 0.0
O884 O 0.79118 0.78297 0.8145 0.0
O885 O 0.81604 0.77949 0.82109 0.0
O886 O 0.81616 0.76472 0.78656 0.0
O887 O 0.79068 0.74562 0.79045 0.0
H888 H 0.72056 0.71987 0.80305 0.0
H889 H 0.69233 0.72547 0.80653 0.0
H890 H 0.70635 0.77866 0.78582 0.0
H891 H 0.73422 0.77269 0.78191 0.0
H892 H 0.84321 0.78468 0.77209 0.0
H893 H 0.87135 0.77998 0.76768 0.0
H894 H 0.89549 0.83321 0.80341 0.0
H895 H 0.86709 0.83784 0.80792 0.0
Tb896 Tb 0.52707 0.51478 0.53403 0.0
Tb897 Tb 0.56395 0.5333 0.54992 0.0
C898 C 0.49554 0.50005 0.52737 0.0
C899 C 0.48131 0.50633 0.51733 0.0
C900 C 0.48483 0.52171 0.5074 0.0
C901 C 0.47217 0.53126 0.50248 0.0
C902 C 0.45585 0.52557 0.5075 0.0
C903 C 0.45192 0.50906 0.51576 0.0
C904 C 0.46463 0.49955 0.52075 0.0
C905 C 0.54721 0.52088 0.50831 0.0
C906 C 0.54043 0.55808 0.5332 0.0
C907 C 0.59594 0.54038 0.55617 0.0
C908 C 0.60706 0.52699 0.55486 0.0
C909 C 0.61357 0.5233 0.53793 0.0
C910 C 0.62076 0.50787 0.53488 0.0
C911 C 0.6216 0.49588 0.54873 0.0
C912 C 0.61623 0.50032 0.56619 0.0
C913 C 0.60911 0.51578 0.56927 0.0
C914 C 0.54209 0.53799 0.57324 0.0
C915 C 0.55048 0.4895 0.55158 0.0
O916 O 0.50336 0.51128 0.54319 0.0
O917 O 0.50631 0.49492 0.5169 0.0
O918 O 0.55095 0.51554 0.52413 0.0
O919 O 0.53141 0.52215 0.50604 0.0
O920 O 0.52712 0.54468 0.53512 0.0
O921 O 0.55625 0.55562 0.53587 0.0
O922 O 0.58709 0.54204 0.53988 0.0
O923 O 0.58665 0.53919 0.56983 0.0
O924 O 0.54164 0.52341 0.56194 0.0
O925 O 0.55586 0.55058 0.57244 0.0
O926 O 0.56359 0.50444 0.55489 0.0
O927 O 0.53498 0.49024 0.54342 0.0
H928 H 0.4977 0.52722 0.50477 0.0
H929 H 0.4755 0.54388 0.49604 0.0
H930 H 0.43951 0.50448 0.51999 0.0
H931 H 0.46178 0.48782 0.52858 0.0
H932 H 0.61226 0.53173 0.5266 0.0
H933 H 0.62486 0.50478 0.52131 0.0
H934 H 0.61709 0.49153 0.57726 0.0
H935 H 0.60442 0.51831 0.58259 0.0
Tb936 Tb 0.06535 0.53121 0.04872 0.0
Tb937 Tb 0.02716 0.52374 0.0542 0.0
C938 C 0.09671 0.53219 0.04912 0.0
C939 C 0.10996 0.52141 0.05286 0.0
C940 C 0.12626 0.53105 0.06279 0.0
C941 C 0.13971 0.52196 0.06495 0.0
C942 C 0.13721 0.5029 0.05723 0.0
C943 C 0.12069 0.49311 0.04765 0.0
C944 C 0.10721 0.50227 0.04547 0.0
C945 C 0.04308 0.53607 0.01938 0.0
C946 C 0.04245 0.48898 0.04343 0.0
C947 C 0.99546 0.52188 0.04547 0.0
C948 C 0.98211 0.53273 0.04721 0.0
C949 C 0.97452 0.53843 0.03067 0.0
C950 C 0.9611 0.54751 0.03116 0.0
C951 C 0.95474 0.55116 0.04822 0.0
C952 C 0.96238 0.54553 0.06486 0.0
C953 C 0.9759 0.5364 0.06436 0.0
C954 C 0.04778 0.52347 0.08747 0.0
C955 C 0.05107 0.56541 0.0642 0.0
O956 O 0.09067 0.53893 0.06384 0.0
O957 O 0.08483 0.52591 0.03394 0.0
O958 O 0.04067 0.52355 0.03019 0.0
O959 O 0.05877 0.54589 0.02464 0.0
O960 O 0.05799 0.5005 0.04689 0.0
O961 O 0.02828 0.4951 0.044 0.0
O962 O 1.00697 0.52816 0.03513 0.0
O963 O 1.00205 0.5154 0.0604 0.0
O964 O 0.05158 0.52617 0.07125 0.0
O965 O 0.03117 0.52104 0.0852 0.0
O966 O 0.03534 0.55442 0.05976 0.0
O967 O 0.06497 0.55892 0.06293 0.0
H968 H 0.12876 0.54586 0.06845 0.0
H969 H 0.15224 0.5301 0.07215 0.0
H970 H 0.11819 0.47838 0.04174 0.0
H971 H 0.09476 0.49447 0.03771 0.0
H972 H 0.97878 0.53552 0.01714 0.0
H973 H 0.9554 0.55121 0.01795 0.0
H974 H 0.95794 0.54821 0.0783 0.0
H975 H 0.98135 0.53208 0.07734 0.0
H976 H 0.01386 0.2191 0.98696 0.0
H977 H 0.01746 0.19149 1.00165 0.0
H978 H 0.02814 0.16577 0.94873 0.0
H979 H 0.02423 0.19306 0.93385 0.0
H980 H 1.00607 0.14097 0.96374 0.0
H981 H 0.06151 0.1769 0.02013 0.0
H982 H 0.04317 0.18677 0.02069 0.0
H983 H 0.05416 0.18807 1.00047 0.0
C984 C 0.01704 0.20761 0.97845 0.0
C985 C 0.01879 0.20842 0.95919 0.0
C986 C 0.01921 0.19184 0.98693 0.0
C987 C 0.02336 0.17659 0.97644 0.0
C988 C 0.02501 0.17733 0.9572 0.0
H989 H 0.06278 0.0856 0.01906 0.0
H990 H 0.05876 0.11426 1.00681 0.0
C991 C 0.02278 0.19302 0.94869 0.0
C992 C 0.02558 0.15962 0.98522 0.0
H993 H 0.04885 0.14499 0.02177 0.0
C994 C 0.01543 0.14188 0.97643 0.0
C995 C 0.03796 0.16068 1.00165 0.0
C996 C 0.04995 0.17909 0.0112 0.0
C997 C 0.01721 0.12529 0.98361 0.0
C998 C 0.02925 0.12639 1.00036 0.0
C999 C 0.0395 0.14411 0.00908 0.0
C1000 C 0.03174 0.10927 0.00867 0.0
C1001 C 1.00649 0.10668 0.97283 0.0
C1002 C 0.01802 0.09702 0.01427 0.0
C1003 C 0.02026 0.08054 0.02121 0.0
C1004 C 0.03635 0.07599 0.02297 0.0
C1005 C 0.05021 0.0886 0.01795 0.0
C1006 C 0.04793 0.10503 0.01091 0.0
H1007 H 1.00159 0.1078 0.95779 0.0
H1008 H 0.01397 0.09573 0.97274 0.0
H1009 H 0.99525 0.10198 0.97988 0.0
H1010 H 1.0055 0.10015 0.01317 0.0
H1011 H 1.0093 0.07129 0.02506 0.0
H1012 H 0.13418 0.82076 0.18196 0.0
H1013 H 0.16189 0.82093 0.20073 0.0
H1014 H 0.136 0.78515 0.23673 0.0
H1015 H 0.1083 0.78552 0.21853 0.0
H1016 H 0.16142 0.81041 0.25784 0.0
H1017 H 0.18638 0.77964 0.19639 0.0
H1018 H 0.18099 0.80146 0.19283 0.0
H1019 H 0.16439 0.78138 0.19475 0.0
C1020 C 0.13437 0.81306 0.19398 0.0
C1021 C 0.11894 0.80307 0.19864 0.0
C1022 C 0.15027 0.81299 0.2046 0.0
C1023 C 0.15118 0.8026 0.21988 0.0
C1024 C 0.13576 0.79316 0.22495 0.0
H1025 H 0.24169 0.76728 0.26994 0.0
H1026 H 0.2147 0.76956 0.25105 0.0
C1027 C 0.11986 0.79343 0.21452 0.0
C1028 C 0.16807 0.80153 0.23067 0.0
H1029 H 0.20623 0.79044 0.2254 0.0
C1030 C 0.17118 0.806 0.25071 0.0
C1031 C 0.18079 0.79542 0.22151 0.0
C1032 C 0.17793 0.78901 0.20021 0.0
C1033 C 0.18656 0.80472 0.26176 0.0
C1034 C 0.19959 0.79942 0.25254 0.0
C1035 C 0.19642 0.79475 0.23252 0.0
C1036 C 0.21642 0.7983 0.26344 0.0
C1037 C 0.1884 0.80853 0.28326 0.0
C1038 C 0.22672 0.81381 0.27634 0.0
C1039 C 0.24199 0.81241 0.28732 0.0
C1040 C 0.24753 0.79562 0.28536 0.0
C1041 C 0.2377 0.78038 0.27182 0.0
C1042 C 0.22227 0.78169 0.26101 0.0
H1043 H 0.17569 0.80648 0.28797 0.0
H1044 H 0.19563 0.79922 0.29017 0.0
H1045 H 0.19543 0.82336 0.28842 0.0
H1046 H 0.22289 0.827 0.27806 0.0
H1047 H 0.24942 0.82448 0.29745 0.0
H1048 H 0.52582 0.83138 0.44137 0.0
H1049 H 0.52805 0.86201 0.45969 0.0
H1050 H 0.52831 0.83739 0.51163 0.0
H1051 H 0.52679 0.80657 0.4933 0.0
H1052 H 0.5072 0.87433 0.4795 0.0
H1053 H 0.56839 0.88137 0.52848 0.0
H1054 H 0.56079 0.86291 0.50826 0.0
H1055 H 0.55212 0.86098 0.53002 0.0
C1056 C 0.52644 0.83242 0.45672 0.0
C1057 C 0.52616 0.81646 0.46585 0.0
C1058 C 0.5277 0.85002 0.46721 0.0
C1059 C 0.52856 0.85222 0.48714 0.0
C1060 C 0.52812 0.83626 0.49635 0.0
H1061 H 0.51191 0.95896 0.54244 0.0
H1062 H 0.50828 0.92554 0.53058 0.0
C1063 C 0.52713 0.81859 0.48584 0.0
C1064 C 0.52949 0.8712 0.49785 0.0
H1065 H 0.55367 0.90536 0.53373 0.0
C1066 C 0.51736 0.88108 0.49139 0.0
C1067 C 0.54282 0.88017 0.51329 0.0
C1068 C 0.55687 0.87091 0.52033 0.0
C1069 C 0.51838 0.8997 0.4995 0.0
C1070 C 0.53155 0.90859 0.51513 0.0
C1071 C 0.54348 0.89857 0.52187 0.0
C1072 C 0.53391 0.92865 0.52378 0.0
C1073 C 0.50578 0.90988 0.49058 0.0
C1074 C 0.54976 0.9415 0.52487 0.0
C1075 C 0.55198 0.96052 0.53207 0.0
C1076 C 0.53836 0.96725 0.53824 0.0
C1077 C 0.52261 0.95431 0.5376 0.0
C1078 C 0.52048 0.93519 0.53067 0.0
H1079 H 0.49984 0.90309 0.47575 0.0
H1080 H 0.49531 0.90959 0.49913 0.0
H1081 H 0.51208 0.92478 0.49019 0.0
H1082 H 0.56036 0.9369 0.51973 0.0
H1083 H 0.5643 0.97003 0.53232 0.0
H1084 H 0.51893 0.30876 0.68308 0.0
H1085 H 0.49234 0.30914 0.69582 0.0
H1086 H 0.50306 0.26925 0.73259 0.0
H1087 H 0.52959 0.26887 0.72008 0.0
H1088 H 0.46408 0.27832 0.69491 0.0
H1089 H 0.4929 0.3107 0.7696 0.0
H1090 H 0.50514 0.31159 0.75027 0.0
H1091 H 0.50042 0.2906 0.76106 0.0
C1092 C 0.51571 0.30021 0.69402 0.0
C1093 C 0.52648 0.28885 0.7006 0.0
C1094 C 0.50048 0.3004 0.70125 0.0
C1095 C 0.49578 0.28941 0.71536 0.0
C1096 C 0.50654 0.27813 0.72199 0.0
H1097 H 0.40955 0.26856 0.77733 0.0
H1098 H 0.43578 0.26825 0.76399 0.0
C1099 C 0.5217 0.27787 0.71473 0.0
C1100 C 0.47936 0.28916 0.72269 0.0
H1101 H 0.4628 0.2978 0.76345 0.0
C1102 C 0.46379 0.2827 0.70987 0.0
C1103 C 0.47897 0.29475 0.74224 0.0
C1104 C 0.49524 0.30246 0.75659 0.0
C1105 C 0.44787 0.2813 0.71612 0.0
C1106 C 0.44747 0.28691 0.73568 0.0
C1107 C 0.46306 0.29343 0.74848 0.0
C1108 C 0.43105 0.28641 0.74315 0.0
C1109 C 0.43164 0.27333 0.70176 0.0
C1110 C 0.41958 0.2967 0.73594 0.0
C1111 C 0.40448 0.29675 0.74341 0.0
C1112 C 0.40052 0.28667 0.75846 0.0
C1113 C 0.412 0.27628 0.76559 0.0
C1114 C 0.42711 0.27621 0.75807 0.0
H1115 H 0.43402 0.26469 0.68905 0.0
H1116 H 0.42163 0.26452 0.70821 0.0
H1117 H 0.42659 0.28507 0.69675 0.0
H1118 H 0.42244 0.30499 0.72471 0.0
H1119 H 0.39593 0.30478 0.73739 0.0
H1120 H 0.06015 0.81203 0.64766 0.0
H1121 H 0.05115 0.8383 0.63509 0.0
H1122 H 0.0204 0.84276 0.67935 0.0
H1123 H 0.02941 0.81627 0.69221 0.0
H1124 H 0.01454 0.83905 0.62332 0.0
H1125 H 0.05247 0.89736 0.68014 0.0
H1126 H 0.05854 0.87525 0.67617 0.0
H1127 H 0.03996 0.87643 0.68682 0.0
C1128 C 0.05154 0.8186 0.65482 0.0
C1129 C 0.04548 0.81208 0.67092 0.0
C1130 C 0.04639 0.83358 0.6476 0.0
C1131 C 0.03517 0.8424 0.65635 0.0
C1132 C 0.02917 0.83613 0.67253 0.0
H1133 H 0.99743 0.92272 0.58935 0.0
H1134 H 0.99691 0.89987 0.61178 0.0
C1135 C 0.0343 0.82103 0.6798 0.0
C1136 C 0.02969 0.8579 0.64796 0.0
H1137 H 0.03914 0.90574 0.65216 0.0
C1138 C 0.01955 0.85365 0.62974 0.0
C1139 C 0.03638 0.87682 0.65648 0.0
C1140 C 0.0475 0.88191 0.67597 0.0
C1141 C 0.01673 0.86793 0.61926 0.0
C1142 C 0.0241 0.8869 0.6274 0.0
C1143 C 0.03346 0.89115 0.64607 0.0
C1144 C 0.0243 0.9022 0.61576 0.0
C1145 C 1.00694 0.86258 0.59907 0.0
C1146 C 0.03992 0.91141 0.6111 0.0
C1147 C 0.04026 0.92436 0.59834 0.0
C1148 C 0.02496 0.92838 0.59003 0.0
C1149 C 1.00938 0.91966 0.59529 0.0
C1150 C 1.00906 0.90669 0.60813 0.0
H1151 H 1.00425 0.84722 0.59402 0.0
H1152 H 0.9945 0.86664 0.59843 0.0
H1153 H 0.01423 0.87016 0.58909 0.0
H1154 H 0.0518 0.90803 0.61679 0.0
H1155 H 0.05244 0.93068 0.59443 0.0
H1156 H 0.4833 0.82331 0.84943 0.0
H1157 H 0.45237 0.81113 0.84029 0.0
H1158 H 0.4548 0.7647 0.87135 0.0
H1159 H 0.48583 0.77713 0.88107 0.0
H1160 H 0.43265 0.77805 0.82052 0.0
H1161 H 0.41995 0.78753 0.89521 0.0
H1162 H 0.4406 0.79713 0.88903 0.0
H1163 H 0.4341 0.7725 0.89061 0.0
C1164 C 0.47731 0.81044 0.85424 0.0
C1165 C 0.48697 0.80128 0.86613 0.0
C1166 C 0.45962 0.80348 0.84897 0.0
C1167 C 0.45125 0.7872 0.85542 0.0
C1168 C 0.46096 0.77753 0.86659 0.0
H1169 H 0.34166 0.74737 0.80654 0.0
H1170 H 0.37106 0.74585 0.8182 0.0
C1171 C 0.47868 0.78458 0.87203 0.0
C1172 C 0.43231 0.78094 0.85078 0.0
H1173 H 0.39599 0.77655 0.87079 0.0
C1174 C 0.42459 0.77749 0.83148 0.0
C1175 C 0.4219 0.78037 0.86517 0.0
C1176 C 0.4295 0.78472 0.88618 0.0
C1177 C 0.40676 0.77429 0.82614 0.0
C1178 C 0.39635 0.77398 0.84054 0.0
C1179 C 0.40402 0.77665 0.85982 0.0
C1180 C 0.37779 0.77312 0.83596 0.0
C1181 C 0.39939 0.7724 0.80519 0.0
C1182 C 0.37152 0.78837 0.84307 0.0
C1183 C 0.35465 0.78913 0.83672 0.0
C1184 C 0.3438 0.77469 0.82303 0.0
C1185 C 0.34976 0.75883 0.81692 0.0
C1186 C 0.36659 0.75798 0.82347 0.0
H1187 H 0.40946 0.77698 0.79648 0.0
H1188 H 0.393 0.75745 0.79968 0.0
H1189 H 0.38969 0.78086 0.80307 0.0
H1190 H 0.37994 0.80016 0.85281 0.0
H1191 H 0.35046 0.80154 0.84173 0.0
H1192 H 0.54247 0.1977 0.1847 0.0
H1193 H 0.54121 0.17207 0.15904 0.0
H1194 H 0.54753 0.21156 0.11903 0.0
H1195 H 0.54876 0.23726 0.14443 0.0
H1196 H 0.51834 0.16191 0.12016 0.0
H1197 H 0.58856 0.18394 0.11927 0.0
H1198 H 0.57913 0.19101 0.13958 0.0
H1199 H 0.57648 0.20171 0.11841 0.0
C1200 C 0.5434 0.20091 0.17041 0.0
C1201 C 0.54586 0.21954 0.16665 0.0
C1202 C 0.54268 0.18628 0.1558 0.0
C1203 C 0.54451 0.19008 0.13731 0.0
C1204 C 0.54629 0.20848 0.13331 0.0
H1205 H 0.53295 0.10392 0.03792 0.0
H1206 H 0.53562 0.13475 0.05685 0.0
C1207 C 0.54694 0.2231 0.14785 0.0
C1208 C 0.54518 0.17486 0.12236 0.0
H1209 H 0.57281 0.15709 0.09775 0.0
C1210 C 0.53017 0.16091 0.11507 0.0
C1211 C 0.56072 0.17372 0.11593 0.0
C1212 C 0.57722 0.18829 0.12372 0.0
C1213 C 0.53035 0.14557 0.10161 0.0
C1214 C 0.54593 0.14429 0.0954 0.0
C1215 C 0.56089 0.15837 0.10246 0.0
C1216 C 0.54712 0.12732 0.08315 0.0
C1217 C 0.51406 0.13046 0.09458 0.0
C1218 C 0.55333 0.11341 0.09165 0.0
C1219 C 0.55172 0.09587 0.08099 0.0
C1220 C 0.544 0.09209 0.06166 0.0
C1221 C 0.53898 0.10653 0.0528 0.0
C1222 C 0.54044 0.12407 0.06356 0.0
H1223 H 0.50325 0.13307 0.10167 0.0
H1224 H 0.51031 0.12976 0.07892 0.0
H1225 H 0.51625 0.11654 0.09718 0.0
H1226 H 0.55849 0.11577 0.10679 0.0
H1227 H 0.55565 0.08496 0.08816 0.0
H1228 H 0.08943 0.34094 0.36914 0.0
H1229 H 0.11535 0.348 0.35455 0.0
H1230 H 0.0919 0.30299 0.30798 0.0
H1231 H 0.06605 0.29626 0.32206 0.0
H1232 H 0.13459 0.32389 0.35098 0.0
H1233 H 0.11634 0.34043 0.27907 0.0
H1234 H 0.10284 0.34137 0.29711 0.0
H1235 H 0.10161 0.31947 0.28216 0.0
C1236 C 0.08963 0.33296 0.35548 0.0
C1237 C 0.07576 0.31793 0.34683 0.0
C1238 C 0.10444 0.33702 0.34716 0.0
C1239 C 0.10553 0.3262 0.33002 0.0
C1240 C 0.09127 0.31192 0.32088 0.0
H1241 H 0.1682 0.26956 0.27976 0.0
H1242 H 0.14643 0.28576 0.28835 0.0
C1243 C 0.07651 0.30792 0.32912 0.0
C1244 C 0.12223 0.32733 0.32335 0.0
H1245 H 0.13943 0.32339 0.28245 0.0
C1246 C 0.13588 0.32444 0.33613 0.0
C1247 C 0.12398 0.32811 0.30399 0.0
C1248 C 0.11043 0.33273 0.2899 0.0
C1249 C 0.15049 0.32051 0.32971 0.0
C1250 C 0.15149 0.31957 0.31003 0.0
C1251 C 0.13851 0.32393 0.2975 0.0
C1252 C 0.16465 0.31151 0.30202 0.0
C1253 C 0.16415 0.31592 0.34375 0.0
C1254 C 0.18204 0.32091 0.30633 0.0
C1255 C 0.19453 0.31169 0.30142 0.0
C1256 C 0.18979 0.29293 0.29212 0.0
C1257 C 0.17228 0.28402 0.2868 0.0
C1258 C 0.15982 0.29325 0.29172 0.0
H1259 H 0.16059 0.31552 0.3582 0.0
H1260 H 0.16651 0.30208 0.33854 0.0
H1261 H 0.17634 0.32671 0.34505 0.0
H1262 H 0.18598 0.33509 0.31412 0.0
H1263 H 0.20792 0.31906 0.30537 0.0
H1264 H 0.98558 1.01021 0.22837 0.0
H1265 H 1.00074 1.01282 0.201 0.0
H1266 H 0.96 0.03277 0.17093 0.0
H1267 H 0.94484 0.03036 0.19813 0.0
H1268 H 0.98853 0.99455 0.16264 0.0
H1269 H 1.00346 0.07228 0.16694 0.0
H1270 H 0.99716 0.06051 0.18657 0.0
H1271 H 0.98128 0.06142 0.1667 0.0
C1272 C 0.97989 0.01527 0.21599 0.0
C1273 C 0.964 0.02013 0.21552 0.0
C1274 C 0.98857 0.01672 0.20035 0.0
C1275 C 0.98161 0.02323 0.18403 0.0
C1276 C 0.96577 0.02806 0.18351 0.0
H1277 H 0.01471 0.04056 0.07451 0.0
H1278 H 0.99863 0.03824 0.10129 0.0
C1279 C 0.95707 0.02656 0.19907 0.0
C1280 C 0.99062 0.02439 0.16727 0.0
H1281 H 1.0091 0.05502 0.13939 0.0
C1282 C 0.99311 1.00777 0.1576 0.0
C1283 C 0.99644 0.04164 0.16063 0.0
C1284 C 0.99461 0.06002 0.17081 0.0
C1285 C 1.00108 1.0079 0.14133 0.0
C1286 C 1.00706 0.02517 0.13477 0.0
C1287 C 1.00448 0.04178 0.14438 0.0
C1288 C 0.01657 0.02638 0.1184 0.0
C1289 C 1.00274 0.98945 0.13108 0.0
C1290 C 0.03208 0.02074 0.11923 0.0
C1291 C 0.04116 0.02195 0.10398 0.0
C1292 C 0.03501 0.02895 0.08761 0.0
C1293 C 0.01961 0.03487 0.08685 0.0
C1294 C 1.01048 0.03363 0.10215 0.0
H1295 H 0.99327 0.97735 0.13432 0.0
H1296 H 1.00093 0.98926 0.11536 0.0
H1297 H 0.01576 0.98747 0.13587 0.0
H1298 H 0.03725 0.01552 0.13178 0.0
H1299 H 0.05305 0.01738 0.10502 0.0
H1300 H 0.31969 0.7088 0.55773 0.0
H1301 H 0.31531 0.71599 0.52522 0.0
H1302 H 0.34612 0.67821 0.508 0.0
H1303 H 0.35076 0.671 0.54073 0.0
H1304 H 0.35433 0.71297 0.4952 0.0
H1305 H 0.2844 0.68192 0.47836 0.0
H1306 H 0.29031 0.69782 0.5005 0.0
H1307 H 0.29799 0.67667 0.49825 0.0
C1308 C 0.32555 0.70199 0.54706 0.0
C1309 C 0.33553 0.68929 0.55177 0.0
C1310 C 0.32291 0.706 0.52845 0.0
C1311 C 0.33008 0.6973 0.51416 0.0
C1312 C 0.34034 0.68489 0.51883 0.0
H1313 H 0.29773 0.72117 0.39893 0.0
H1314 H 0.3053 0.7031 0.42417 0.0
C1315 C 0.343 0.68084 0.53751 0.0
C1316 C 0.3273 0.70194 0.49458 0.0
H1317 H 0.29561 0.70535 0.45941 0.0
C1318 C 0.34152 0.711 0.48717 0.0
C1319 C 0.31062 0.69896 0.48396 0.0
C1320 C 0.29498 0.68812 0.49058 0.0
C1321 C 0.33938 0.71842 0.47004 0.0
C1322 C 0.3226 0.71698 0.46035 0.0
C1323 C 0.30846 0.70668 0.46702 0.0
C1324 C 0.3193 0.72756 0.44445 0.0
C1325 C 0.35509 0.72814 0.46272 0.0
C1326 C 0.32459 0.74726 0.44758 0.0
C1327 C 0.32034 0.75756 0.43325 0.0
C1328 C 0.31057 0.74837 0.41556 0.0
C1329 C 0.30542 0.72861 0.41236 0.0
C1330 C 0.30968 0.71829 0.42675 0.0
H1331 H 0.36636 0.72258 0.46763 0.0
H1332 H 0.35288 0.72645 0.44685 0.0
H1333 H 0.35827 0.74338 0.46838 0.0
H1334 H 0.33168 0.75471 0.4613 0.0
H1335 H 0.32464 0.77276 0.43607 0.0
H1336 H 0.65403 0.99817 0.73972 0.0
H1337 H 0.63866 1.00047 0.70841 0.0
H1338 H 0.598 0.01538 0.73518 0.0
H1339 H 0.61365 1.0138 0.76661 0.0
H1340 H 0.61031 0.98399 0.68572 0.0
H1341 H 0.60445 0.05674 0.70473 0.0
H1342 H 0.61722 0.04589 0.72059 0.0
H1343 H 0.59433 0.04157 0.71984 0.0
C1344 C 0.64178 1.00189 0.73907 0.0
C1345 C 0.63531 1.00585 0.75612 0.0
C1346 C 0.63291 1.00325 0.72093 0.0
C1347 C 0.61715 1.00865 0.71894 0.0
C1348 C 0.61034 1.01188 0.7359 0.0
H1349 H 0.53986 0.01987 0.62484 0.0
H1350 H 0.55723 0.01755 0.65482 0.0
C1351 C 0.61929 1.01071 0.75407 0.0
C1352 C 0.60794 1.01073 0.6993 0.0
H1353 H 0.58773 0.03991 0.67526 0.0
C1354 C 0.60555 0.99636 0.68353 0.0
C1355 C 0.60162 0.02683 0.6958 0.0
C1356 C 0.60469 0.04371 0.71107 0.0
C1357 C 0.59678 0.99732 0.66509 0.0
C1358 C 0.59011 1.01319 0.66179 0.0
C1359 C 0.59265 0.02764 0.67744 0.0
C1360 C 0.5797 0.01472 0.64269 0.0
C1361 C 0.59423 0.98095 0.64936 0.0
C1362 C 0.58626 1.01418 0.62527 0.0
C1363 C 0.57621 0.01572 0.60778 0.0
C1364 C 0.55922 0.01776 0.60711 0.0
C1365 C 0.55282 0.01834 0.62455 0.0
C1366 C 0.56283 0.01702 0.64191 0.0
H1367 H 0.59665 0.96819 0.65503 0.0
H1368 H 0.58099 0.97752 0.64113 0.0
H1369 H 0.60331 0.98477 0.63936 0.0
H1370 H 0.59926 1.01272 0.62518 0.0
H1371 H 0.58167 0.01505 0.5948 0.0
H1372 H 0.32152 0.33864 0.0109 0.0
H1373 H 0.31597 0.32493 0.97716 0.0
H1374 H 0.28307 0.36213 0.96435 0.0
H1375 H 0.28866 0.3761 0.99819 0.0
H1376 H 0.28506 0.30716 0.95163 0.0
H1377 H 0.31939 0.37287 0.9291 0.0
H1378 H 0.3213 0.36924 0.95379 0.0
H1379 H 0.30246 0.37521 0.94235 0.0
C1380 C 0.31298 0.34384 1.00097 0.0
C1381 C 0.30563 0.35858 1.00726 0.0
C1382 C 0.30981 0.33595 0.98167 0.0
C1383 C 0.29931 0.34268 0.96818 0.0
C1384 C 0.29143 0.35692 0.97447 0.0
H1385 H 0.26471 0.29126 0.84813 0.0
H1386 H 0.26583 0.30313 0.88183 0.0
C1387 C 0.29456 0.36481 0.99383 0.0
C1388 C 0.29716 0.33513 0.94752 0.0
H1389 H 0.30656 0.34721 0.90474 0.0
C1390 C 0.28967 0.31592 0.94134 0.0
C1391 C 0.30341 0.34654 0.93417 0.0
C1392 C 0.31223 0.36708 0.94012 0.0
C1393 C 0.28823 0.30782 0.92217 0.0
C1394 C 0.29432 0.31927 0.90879 0.0
C1395 C 0.30181 0.33848 0.91498 0.0
C1396 C 0.29355 0.31154 0.88842 0.0
C1397 C 0.28063 0.28698 0.9165 0.0
C1398 C 0.30875 0.31251 0.88082 0.0
C1399 C 0.30818 0.30577 0.86154 0.0
C1400 C 0.29236 0.29803 0.84935 0.0
C1401 C 0.27714 0.29703 0.85705 0.0
C1402 C 0.27773 0.30375 0.87637 0.0
H1403 H 0.28018 0.27951 0.92914 0.0
H1404 H 0.26732 0.28466 0.90877 0.0
H1405 H 0.28813 0.28065 0.90679 0.0
H1406 H 0.3211 0.31851 0.88984 0.0
H1407 H 0.32017 0.30685 0.85617 0.0
H1408 H 0.95854 0.04702 0.32846 0.0
H1409 H 0.97089 0.05458 0.36258 0.0
H1410 H 1.00133 1.01389 0.35527 0.0
H1411 H 0.98927 1.00644 0.32129 0.0
H1412 H 0.96796 0.03018 0.38881 0.0
H1413 H 0.0366 0.05886 0.38653 0.0
H1414 H 0.01995 0.05637 0.36615 0.0
H1415 H 0.02817 0.03647 0.37166 0.0
C1416 C 0.96809 0.03992 0.33406 0.0
C1417 C 0.97293 0.02615 0.32211 0.0
C1418 C 0.97511 0.04423 0.35357 0.0
C1419 C 0.98723 0.035 0.36147 0.0
C1420 C 0.99232 0.02152 0.34947 0.0
H1421 H 1.00927 1.0061 0.47283 0.0
H1422 H 0.99927 1.0086 0.43967 0.0
C1423 C 0.9853 0.01719 0.33002 0.0
C1424 C 0.99355 0.03821 0.38244 0.0
H1425 H 0.03008 0.04808 0.41584 0.0
C1426 C 0.98154 0.03436 0.39474 0.0
C1427 C 1.01125 0.0439 0.39026 0.0
C1428 C 0.02473 0.04933 0.37798 0.0
C1429 C 0.98677 0.03514 0.41446 0.0
C1430 C 1.0045 0.03961 0.42208 0.0
C1431 C 0.0165 0.04441 0.40996 0.0
C1432 C 1.01078 0.03837 0.44234 0.0
C1433 C 0.97324 0.03097 0.42696 0.0
C1434 C 0.02101 0.05419 0.45482 0.0
C1435 C 0.02685 0.05282 0.47391 0.0
C1436 C 0.02269 0.03552 0.4808 0.0
C1437 C 1.01267 0.01967 0.46812 0.0
C1438 C 1.00683 0.02108 0.44913 0.0
H1439 H 0.96082 0.03334 0.42029 0.0
H1440 H 0.97107 0.01599 0.42902 0.0
H1441 H 0.97736 0.03982 0.44124 0.0
H1442 H 0.02434 0.06765 0.44984 0.0
H1443 H 0.03459 0.06529 0.48323 0.0
H1444 H 0.37663 0.72843 0.63728 0.0
H1445 H 0.38199 0.75583 0.66214 0.0
H1446 H 0.36426 0.71916 0.702 0.0
H1447 H 0.36039 0.69195 0.67776 0.0
H1448 H 0.35979 0.76812 0.67516 0.0
H1449 H 0.39858 0.75563 0.73894 0.0
H1450 H 0.3972 0.74173 0.716 0.0
H1451 H 0.38193 0.73464 0.73161 0.0
C1452 C 0.37459 0.72629 0.65162 0.0
C1453 C 0.36815 0.70815 0.65568 0.0
C1454 C 0.37759 0.74193 0.66581 0.0
C1455 C 0.37371 0.73972 0.68414 0.0
C1456 C 0.36804 0.72142 0.68834 0.0
H1457 H 0.30901 0.78754 0.73983 0.0
H1458 H 0.32621 0.77752 0.71711 0.0
C1459 C 0.36563 0.70578 0.67436 0.0
C1460 C 0.37248 0.75616 0.69762 0.0
H1461 H 0.37414 0.76997 0.74518 0.0
C1462 C 0.36348 0.76887 0.69046 0.0
C1463 C 0.37775 0.75792 0.71763 0.0
C1464 C 0.38959 0.74684 0.72637 0.0
C1465 C 0.35796 0.78168 0.70274 0.0
C1466 C 0.36071 0.7811 0.72262 0.0
C1467 C 0.37143 0.77003 0.72989 0.0
C1468 C 0.35071 0.78955 0.73565 0.0
C1469 C 0.34871 0.7952 0.69411 0.0
C1470 C 0.35861 0.7994 0.75385 0.0
C1471 C 0.34864 0.80451 0.76715 0.0
C1472 C 0.33066 0.79987 0.76239 0.0
C1473 C 0.32286 0.7911 0.74386 0.0
C1474 C 0.33274 0.78564 0.73075 0.0
H1475 H 0.35445 0.80006 0.68177 0.0
H1476 H 0.33511 0.78788 0.68859 0.0
H1477 H 0.34919 0.80769 0.70467 0.0
H1478 H 0.37242 0.80252 0.75802 0.0
H1479 H 0.35496 0.81139 0.78137 0.0
H1480 H 0.63517 1.00001 0.87614 0.0
H1481 H 0.62169 1.00254 0.9048 0.0
H1482 H 0.60801 0.053 0.89028 0.0
H1483 H 0.62153 0.05055 0.86164 0.0
H1484 H 0.61969 0.05761 0.9287 0.0
H1485 H 0.57162 0.98952 0.90991 0.0
H1486 H 0.59329 0.98732 0.91035 0.0
H1487 H 0.58402 0.99957 0.89288 0.0
C1488 C 0.62922 1.01163 0.87889 0.0
C1489 C 0.62951 0.02497 0.86612 0.0
C1490 C 0.62133 1.01303 0.89542 0.0
C1491 C 0.61336 0.02785 0.90003 0.0
C1492 C 0.61385 0.04132 0.88741 0.0
H1493 H 0.54004 0.03121 0.98152 0.0
H1494 H 0.55453 0.02869 0.95376 0.0
C1495 C 0.62163 0.03985 0.87081 0.0
C1496 C 0.60478 0.02949 0.91792 0.0
H1497 H 0.57401 1.00585 0.94116 0.0
C1498 C 0.60973 0.0462 0.93132 0.0
C1499 C 0.59149 0.01491 0.92175 0.0
C1500 C 0.58464 0.99688 0.90791 0.0
C1501 C 0.60217 0.04857 0.9481 0.0
C1502 C 0.58915 0.03382 0.95214 0.0
C1503 C 0.58402 0.01723 0.93858 0.0
C1504 C 0.58031 0.03553 0.96982 0.0
C1505 C 0.60798 0.0672 0.96112 0.0
C1506 C 0.58957 0.04007 0.98875 0.0
C1507 C 0.58117 0.04146 1.00493 0.0
C1508 C 0.56311 0.03844 1.00294 0.0
C1509 C 0.55391 0.03382 0.984 0.0
C1510 C 0.56227 0.03229 0.96789 0.0
H1511 H 0.61437 0.07854 0.95372 0.0
H1512 H 0.59699 0.0714 0.96664 0.0
H1513 H 0.61735 0.06595 0.97349 0.0
H1514 H 0.6034 0.04229 0.99112 0.0
H1515 H 0.5889 0.04489 0.01906 0.0
H1516 H 0.30999 0.34276 0.09833 0.0
H1517 H 0.30737 0.32547 0.12548 0.0
H1518 H 0.30887 0.37673 0.16215 0.0
H1519 H 0.31147 0.39417 0.13512 0.0
H1520 H 0.33141 0.35393 0.17712 0.0
H1521 H 0.26417 0.31282 0.1517 0.0
H1522 H 0.27867 0.31218 0.13483 0.0
H1523 H 0.27325 0.3339 0.14245 0.0
C1524 C 0.3097 0.35038 0.11214 0.0
C1525 C 0.31088 0.36989 0.11446 0.0
C1526 C 0.30815 0.34044 0.12765 0.0
C1527 C 0.30776 0.34977 0.14582 0.0
C1528 C 0.30908 0.36923 0.14825 0.0
H1529 H 0.30156 0.3196 0.2594 0.0
H1530 H 0.30672 0.33582 0.232 0.0
C1531 C 0.31052 0.37917 0.13273 0.0
C1532 C 0.30618 0.3393 0.16237 0.0
H1533 H 0.27877 0.30568 0.17979 0.0
C1534 C 0.3199 0.34339 0.17773 0.0
C1535 C 0.2912 0.32547 0.1631 0.0
C1536 C 0.27589 0.32085 0.14724 0.0
C1537 C 0.31913 0.33389 0.19372 0.0
C1538 C 0.30404 0.32025 0.19462 0.0
C1539 C 0.29036 0.31609 0.17915 0.0
C1540 C 0.30194 0.31037 0.21157 0.0
C1541 C 0.33468 0.3383 0.20927 0.0
C1542 C 0.29728 0.29061 0.20931 0.0
C1543 C 0.29411 0.2813 0.22495 0.0
C1544 C 0.29551 0.29154 0.2432 0.0
C1545 C 0.30052 0.31129 0.24555 0.0
C1546 C 0.30357 0.3206 0.22989 0.0
H1547 H 0.3466 0.34421 0.20379 0.0
H1548 H 0.33316 0.34898 0.22078 0.0
H1549 H 0.33623 0.32558 0.21557 0.0
H1550 H 0.29587 0.28237 0.19535 0.0
H1551 H 0.29024 0.26607 0.22268 0.0
H1552 H 0.20365 0.86991 0.01661 0.0
H1553 H 0.18286 0.8869 0.02708 0.0
H1554 H 0.22248 0.93846 0.04022 0.0
H1555 H 0.2433 0.92159 0.03047 0.0
H1556 H 0.20286 0.93477 0.06788 0.0
H1557 H 0.16179 0.92105 0.99611 0.0
H1558 H 0.16444 0.90043 1.00612 0.0
H1559 H 0.18261 0.91582 0.99977 0.0
C1560 C 0.20788 0.88486 0.02175 0.0
C1561 C 0.22505 0.89445 0.0226 0.0
C1562 C 0.196 0.89455 0.02767 0.0
C1563 C 0.2011 0.91399 0.03416 0.0
C1564 C 0.21829 0.92346 0.03528 0.0
H1565 H 0.16244 1.01089 0.05133 0.0
H1566 H 0.1797 0.98748 0.05138 0.0
C1567 C 0.23016 0.9138 0.02962 0.0
C1568 C 0.18864 0.92485 0.03936 0.0
H1569 H 0.15374 0.93966 0.02057 0.0
C1570 C 0.19202 0.9357 0.0576 0.0
C1571 C 0.17452 0.92605 0.0259 0.0
C1572 C 0.17065 0.91536 1.00583 0.0
C1573 C 0.18195 0.94817 0.06252 0.0
C1574 C 0.16821 0.94973 0.04886 0.0
C1575 C 0.16433 0.93832 0.03097 0.0
C1576 C 0.15844 0.96413 0.05215 0.0
C1577 C 0.18622 0.95986 0.08209 0.0
C1578 C 0.14091 0.95869 0.05291 0.0
C1579 C 0.13107 0.97201 0.05304 0.0
C1580 C 0.13857 0.99094 0.05207 0.0
C1581 C 0.15633 0.99647 0.05222 0.0
C1582 C 0.16619 0.98313 0.05224 0.0
H1583 H 0.19473 0.9542 0.09226 0.0
H1584 H 0.19292 0.97444 0.08096 0.0
H1585 H 0.17434 0.96051 0.08798 0.0
H1586 H 0.13475 0.94406 0.05282 0.0
H1587 H 0.11747 0.96739 0.05335 0.0
H1588 H 0.73383 0.60103 0.03487 0.0
H1589 H 0.70464 0.58372 0.03611 0.0
H1590 H 0.68423 0.62523 0.00895 0.0
H1591 H 0.71333 0.64258 1.00751 0.0
H1592 H 0.68114 0.59792 0.05549 0.0
H1593 H 0.6543 0.57561 0.97835 0.0
H1594 H 0.67708 0.5835 0.98708 0.0
H1595 H 0.66411 0.60029 0.98501 0.0
C1596 C 0.72315 0.60634 0.02883 0.0
C1597 C 0.72603 0.62324 0.02104 0.0
C1598 C 0.70644 0.59644 0.02963 0.0
C1599 C 0.69218 0.60305 0.02249 0.0
C1600 C 0.69496 0.61963 0.01426 0.0
H1601 H 0.58157 0.56421 0.02219 0.0
H1602 H 0.61006 0.58199 0.01844 0.0
C1603 C 0.71167 0.62959 0.01351 0.0
C1604 C 0.67454 0.59327 0.0248 0.0
H1605 H 0.63471 0.57052 1.00009 0.0
C1606 C 0.67102 0.59186 0.04336 0.0
C1607 C 0.66124 0.58553 0.009 0.0
C1608 C 0.66434 0.58612 0.98871 0.0
C1609 C 0.6546 0.58309 0.04658 0.0
C1610 C 0.64135 0.57506 0.03079 0.0
C1611 C 0.64482 0.57664 0.01221 0.0
C1612 C 0.62401 0.56449 0.03326 0.0
C1613 C 0.65155 0.58286 0.06693 0.0
C1614 C 0.62227 0.54862 0.04265 0.0
C1615 C 0.60606 0.53857 0.04492 0.0
C1616 C 0.59115 0.54401 0.03768 0.0
C1617 C 0.59282 0.55978 0.0281 0.0
C1618 C 0.6091 0.56989 0.02587 0.0
H1619 H 0.66101 0.59428 0.07696 0.0
H1620 H 0.63843 0.58441 0.06835 0.0
H1621 H 0.65295 0.56926 0.07135 0.0
H1622 H 0.63348 0.54386 0.04809 0.0
H1623 H 0.6052 0.52641 0.05224 0.0
H1624 H 0.67081 0.48927 0.34116 0.0
H1625 H 0.68342 0.46305 0.34878 0.0
H1626 H 0.71158 0.46933 0.30197 0.0
H1627 H 0.69931 0.49553 0.29445 0.0
H1628 H 0.68203 0.42881 0.32628 0.0
H1629 H 0.74908 0.47092 0.347 0.0
H1630 H 0.73097 0.48154 0.34463 0.0
H1631 H 0.7393 0.47387 0.32379 0.0
C1632 C 0.67973 0.48509 0.33255 0.0
C1633 C 0.68415 0.4946 0.31729 0.0
C1634 C 0.68691 0.4701 0.3369 0.0
C1635 C 0.69868 0.46445 0.32615 0.0
C1636 C 0.70284 0.47371 0.31073 0.0
H1637 H 0.73189 0.36142 0.31019 0.0
H1638 H 0.71673 0.38659 0.30906 0.0
C1639 C 0.69572 0.48865 0.3064 0.0
C1640 C 0.70652 0.44874 0.33074 0.0
H1641 H 0.7452 0.43757 0.34068 0.0
C1642 C 0.69583 0.43073 0.32964 0.0
C1643 C 0.72451 0.45131 0.33542 0.0
C1644 C 0.73663 0.47049 0.33799 0.0
C1645 C 0.7027 0.41509 0.33234 0.0
C1646 C 0.72074 0.4175 0.33591 0.0
C1647 C 0.73137 0.43565 0.33775 0.0
C1648 C 0.72896 0.40142 0.33722 0.0
C1649 C 0.69056 0.39617 0.33138 0.0
C1650 C 0.74108 0.40145 0.3533 0.0
C1651 C 0.75001 0.38723 0.35385 0.0
C1652 C 0.74707 0.3727 0.33828 0.0
C1653 C 0.73462 0.37248 0.32236 0.0
C1654 C 0.72575 0.38675 0.3218 0.0
H1655 H 0.67787 0.39767 0.33467 0.0
H1656 H 0.68846 0.38834 0.31669 0.0
H1657 H 0.69586 0.38771 0.3415 0.0
H1658 H 0.74387 0.4127 0.36531 0.0
H1659 H 0.75965 0.38803 0.36623 0.0
H1660 H 0.77639 0.43674 0.49516 0.0
H1661 H 0.79807 0.46384 0.4904 0.0
H1662 H 0.82905 0.42665 0.47198 0.0
H1663 H 0.80725 0.39967 0.47591 0.0
H1664 H 0.82717 0.473 0.51205 0.0
H1665 H 0.84134 0.46532 0.43916 0.0
H1666 H 0.82159 0.45217 0.44494 0.0
H1667 H 0.8407 0.4432 0.44738 0.0
C1668 C 0.78757 0.43434 0.48945 0.0
C1669 C 0.79026 0.41611 0.4862 0.0
C1670 C 0.79992 0.44984 0.48668 0.0
C1671 C 0.8152 0.44736 0.48073 0.0
C1672 C 0.81722 0.42901 0.47606 0.0
H1673 H 0.91345 0.47969 0.53066 0.0
H1674 H 0.88235 0.47279 0.5216 0.0
C1675 C 0.80479 0.41352 0.47855 0.0
C1676 C 0.83036 0.46344 0.4833 0.0
H1677 H 0.86703 0.47731 0.46506 0.0
C1678 C 0.8356 0.47443 0.50148 0.0
C1679 C 0.8413 0.46583 0.46949 0.0
C1680 C 0.83577 0.4561 0.4491 0.0
C1681 C 0.85224 0.48582 0.50694 0.0
C1682 C 0.86399 0.48586 0.49406 0.0
C1683 C 0.85812 0.47686 0.47513 0.0
C1684 C 0.88269 0.49205 0.50084 0.0
C1685 C 0.8574 0.49674 0.52689 0.0
C1686 C 0.89322 0.50502 0.49203 0.0
C1687 C 0.91108 0.50887 0.49712 0.0
C1688 C 0.91859 0.49956 0.51086 0.0
C1689 C 0.90799 0.48697 0.51997 0.0
C1690 C 0.89022 0.48321 0.51496 0.0
H1691 H 0.84634 0.5013 0.53186 0.0
H1692 H 0.86166 0.48755 0.53686 0.0
H1693 H 0.86805 0.50933 0.52763 0.0
H1694 H 0.88764 0.51178 0.48093 0.0
H1695 H 0.919 0.51849 0.48973 0.0
H1696 H 0.39609 0.11798 0.30012 0.0
H1697 H 0.38305 0.14519 0.30193 0.0
H1698 H 0.34203 0.11533 0.25673 0.0
H1699 H 0.35515 0.08825 0.25467 0.0
H1700 H 0.37472 0.16866 0.27401 0.0
H1701 H 0.3151 0.13316 0.29736 0.0
H1702 H 0.33386 0.1236 0.29867 0.0
H1703 H 0.31995 0.12116 0.27618 0.0
C1704 C 0.38426 0.11707 0.29053 0.0
C1705 C 0.37683 0.10047 0.27727 0.0
C1706 C 0.37674 0.13285 0.29156 0.0
C1707 C 0.3612 0.13273 0.27967 0.0
C1708 C 0.35377 0.11615 0.26641 0.0
H1709 H 0.29069 0.21077 0.27138 0.0
H1710 H 0.30445 0.18426 0.26907 0.0
C1711 C 0.36143 0.10049 0.26517 0.0
C1712 C 0.35297 0.1498 0.28096 0.0
H1713 H 0.31642 0.16372 0.28986 0.0
C1714 C 0.36198 0.16749 0.27756 0.0
C1715 C 0.33621 0.14882 0.2854 0.0
C1716 C 0.3257 0.13075 0.28978 0.0
C1717 C 0.35479 0.18361 0.27796 0.0
C1718 C 0.33808 0.18278 0.28275 0.0
C1719 C 0.32913 0.16501 0.2862 0.0
C1720 C 0.32959 0.19978 0.28402 0.0
C1721 C 0.36513 0.20115 0.27232 0.0
C1722 C 0.33854 0.21805 0.29336 0.0
C1723 C 0.33064 0.23353 0.29437 0.0
C1724 C 0.3132 0.23155 0.28654 0.0
C1725 C 0.30411 0.21325 0.27759 0.0
C1726 C 0.31209 0.19783 0.27632 0.0
H1727 H 0.37415 0.19776 0.26282 0.0
H1728 H 0.35674 0.20902 0.2648 0.0
H1729 H 0.37293 0.21039 0.28535 0.0
H1730 H 0.35173 0.22045 0.3003 0.0
H1731 H 0.33825 0.24709 0.30168 0.0
H1732 H 0.32546 0.12981 0.50725 0.0
H1733 H 0.35067 0.11654 0.50621 0.0
H1734 H 0.33793 0.08646 0.55257 0.0
H1735 H 0.31274 0.0994 0.55354 0.0
H1736 H 0.37889 0.11985 0.53437 0.0
H1737 H 0.34461 0.04495 0.51389 0.0
H1738 H 0.33385 0.06383 0.51204 0.0
H1739 H 0.33847 0.05598 0.5347 0.0
C1740 C 0.32794 0.12023 0.51711 0.0
C1741 C 0.31695 0.1156 0.53039 0.0
C1742 C 0.3424 0.11268 0.51653 0.0
C1743 C 0.34611 0.10021 0.5291 0.0
C1744 C 0.33519 0.09567 0.54241 0.0
H1745 H 0.42513 0.04324 0.56221 0.0
H1746 H 0.40004 0.05649 0.55756 0.0
C1747 C 0.32079 0.10319 0.54301 0.0
C1748 C 0.36164 0.09239 0.52883 0.0
H1749 H 0.37466 0.05116 0.52582 0.0
C1750 C 0.37796 0.10483 0.53226 0.0
C1751 C 0.3605 0.07277 0.52606 0.0
C1752 C 0.34341 0.0586 0.52127 0.0
C1753 C 0.3931 0.09823 0.5338 0.0
C1754 C 0.39194 0.07862 0.53154 0.0
C1755 C 0.37561 0.06619 0.52764 0.0
C1756 C 0.40744 0.07067 0.53407 0.0
C1757 C 0.41022 0.11234 0.5386 0.0
C1758 C 0.42 0.07396 0.52226 0.0
C1759 C 0.43452 0.06645 0.52496 0.0
C1760 C 0.43684 0.05546 0.53955 0.0
C1761 C 0.42405 0.05195 0.5511 0.0
C1762 C 0.40957 0.0594 0.54836 0.0
H1763 H 0.40891 0.12659 0.54411 0.0
H1764 H 0.4191 0.1079 0.54944 0.0
H1765 H 0.4161 0.11331 0.5255 0.0
H1766 H 0.41853 0.08229 0.51088 0.0
H1767 H 0.44406 0.0695 0.51581 0.0
H1768 H 0.71164 0.58441 0.31646 0.0
H1769 H 0.73158 0.61468 0.31693 0.0
H1770 H 0.69102 0.64302 0.32369 0.0
H1771 H 0.67115 0.6129 0.3238 0.0
H1772 H 0.73 0.63841 0.2919 0.0
H1773 H 0.72906 0.67559 0.36351 0.0
H1774 H 0.72025 0.65062 0.35668 0.0
H1775 H 0.70796 0.66705 0.34965 0.0
C1776 C 0.70702 0.59711 0.31836 0.0
C1777 C 0.68979 0.59621 0.32014 0.0
C1778 C 0.71844 0.61442 0.31859 0.0
C1779 C 0.71289 0.6312 0.32058 0.0
C1780 C 0.69575 0.63036 0.32263 0.0
H1781 H 0.76087 0.73375 0.28071 0.0
H1782 H 0.74209 0.70424 0.28512 0.0
C1783 C 0.68436 0.61307 0.32258 0.0
C1784 C 0.72469 0.64935 0.31914 0.0
H1785 H 0.74108 0.69461 0.34147 0.0
C1786 C 0.73252 0.65065 0.30282 0.0
C1787 C 0.72815 0.66529 0.33348 0.0
C1788 C 0.72105 0.66455 0.3519 0.0
C1789 C 0.74343 0.66748 0.30027 0.0
C1790 C 0.74625 0.68366 0.31417 0.0
C1791 C 0.73873 0.68228 0.33069 0.0
C1792 C 0.75715 0.70207 0.31192 0.0
C1793 C 0.75206 0.66763 0.28283 0.0
C1794 C 0.77149 0.71108 0.32586 0.0
C1795 C 0.78203 0.72817 0.32356 0.0
C1796 C 0.77837 0.73658 0.3073 0.0
C1797 C 0.76389 0.7277 0.29349 0.0
C1798 C 0.75328 0.7107 0.29587 0.0
H1799 H 0.75268 0.65324 0.27683 0.0
H1800 H 0.74457 0.67319 0.2716 0.0
H1801 H 0.7653 0.67671 0.28621 0.0
H1802 H 0.77469 0.70473 0.3384 0.0
H1803 H 0.7931 0.73473 0.33444 0.0
H1804 H 0.90453 0.48306 0.79566 0.0
H1805 H 0.8887 0.45135 0.79694 0.0
H1806 H 0.84106 0.46708 0.7813 0.0
H1807 H 0.85712 0.49911 0.77926 0.0
H1808 H 0.86884 0.43634 0.81792 0.0
H1809 H 0.82978 0.41941 0.74553 0.0
H1810 H 0.84682 0.44041 0.7527 0.0
H1811 H 0.82605 0.43955 0.75939 0.0
C1812 C 0.89066 0.47997 0.79236 0.0
C1813 C 0.8823 0.49409 0.78729 0.0
C1814 C 0.8815 0.46154 0.79315 0.0
C1815 C 0.86345 0.45617 0.789 0.0
C1816 C 0.85493 0.47027 0.7841 0.0
H1817 H 0.81108 0.34956 0.82591 0.0
H1818 H 0.82356 0.38243 0.82355 0.0
C1819 C 0.86418 0.48884 0.7831 0.0
C1820 C 0.85401 0.43606 0.79041 0.0
H1821 H 0.82347 0.3971 0.7665 0.0
C1822 C 0.85892 0.42787 0.80657 0.0
C1823 C 0.84113 0.4244 0.77568 0.0
C1824 C 0.83573 0.43128 0.75726 0.0
C1825 C 0.85161 0.40893 0.80841 0.0
C1826 C 0.83833 0.39745 0.79399 0.0
C1827 C 0.83342 0.40559 0.77779 0.0
C1828 C 0.8298 0.37701 0.79521 0.0
C1829 C 0.85885 0.40128 0.82561 0.0
C1830 C 0.8281 0.36243 0.77985 0.0
C1831 C 0.82056 0.34344 0.78105 0.0
C1832 C 0.81439 0.33817 0.79769 0.0
C1833 C 0.8158 0.35277 0.81291 0.0
C1834 C 0.82317 0.37177 0.81163 0.0
H1835 H 0.87217 0.40933 0.83168 0.0
H1836 H 0.85088 0.40255 0.83691 0.0
H1837 H 0.85896 0.38626 0.82195 0.0
H1838 H 0.83288 0.36569 0.7669 0.0
H1839 H 0.81975 0.33281 0.76892 0.0
H1840 H 0.04811 0.84392 0.13479 0.0
H1841 H 0.04281 0.87053 0.1192 0.0
H1842 H 0.08894 0.87309 0.09482 0.0
H1843 H 0.09401 0.84623 0.10983 0.0
H1844 H 0.06077 0.90608 0.12287 0.0
H1845 H 0.05589 0.87341 0.04792 0.0
H1846 H 0.05598 0.85999 0.06749 0.0
H1847 H 0.07583 0.87334 0.06231 0.0
C1848 C 0.05706 0.85006 0.12599 0.0
C1849 C 0.07141 0.84278 0.12346 0.0
C1850 C 0.05403 0.86532 0.11709 0.0
C1851 C 0.06526 0.87369 0.10544 0.0
C1852 C 0.07976 0.86662 0.1032 0.0
H1853 H 0.07548 0.97365 0.04902 0.0
H1854 H 0.07958 0.94577 0.06299 0.0
C1855 C 0.08272 0.85129 0.11195 0.0
C1856 C 0.06212 0.89011 0.09613 0.0
H1857 H 0.05845 0.90656 0.05316 0.0
C1858 C 0.06013 0.90608 0.1076 0.0
C1859 C 0.06125 0.89025 0.07616 0.0
C1860 C 0.06217 0.87326 0.06273 0.0
C1861 C 0.05767 0.92218 0.09978 0.0
C1862 C 0.05708 0.92238 0.07991 0.0
C1863 C 0.05901 0.90645 0.0684 0.0
C1864 C 0.05433 0.93897 0.07083 0.0
C1865 C 0.05606 0.93904 0.11291 0.0
C1866 C 0.03866 0.94426 0.07022 0.0
C1867 C 0.0362 0.9601 0.06209 0.0
C1868 C 0.0494 0.9711 0.05442 0.0
C1869 C 0.06501 0.96557 0.05477 0.0
C1870 C 0.0674 0.94961 0.06277 0.0
H1871 H 0.06024 0.93814 0.12818 0.0
H1872 H 0.06381 0.95221 0.10937 0.0
H1873 H 0.04245 0.93992 0.11099 0.0
H1874 H 0.02831 0.93616 0.07612 0.0
H1875 H 0.02404 0.96391 0.06215 0.0
H1876 H 0.96908 0.24689 0.87423 0.0
H1877 H 0.94159 0.25035 0.85761 0.0
H1878 H 0.92903 0.27128 0.9114 0.0
H1879 H 0.95637 0.268 0.92808 0.0
H1880 H 0.90725 0.23444 0.86254 0.0
H1881 H 0.92334 0.31241 0.87831 0.0
H1882 H 0.93939 0.29893 0.88104 0.0
H1883 H 0.92604 0.30085 0.89893 0.0
C1884 C 0.96048 0.25222 0.88254 0.0
C1885 C 0.96507 0.25726 0.90253 0.0
C1886 C 0.94474 0.25417 0.87301 0.0
C1887 C 0.93332 0.26134 0.88321 0.0
C1888 C 0.93773 0.26604 0.90316 0.0
H1889 H 0.82521 0.25809 0.8402 0.0
H1890 H 0.8517 0.254 0.8588 0.0
C1891 C 0.95339 0.26405 0.9127 0.0
C1892 C 0.91683 0.26398 0.87305 0.0
H1893 H 0.89468 0.29744 0.86405 0.0
C1894 C 0.90449 0.24821 0.86286 0.0
C1895 C 0.91326 0.28197 0.87333 0.0
C1896 C 0.92624 0.29956 0.88334 0.0
C1897 C 0.88867 0.24992 0.85313 0.0
C1898 C 0.88498 0.26787 0.85372 0.0
C1899 C 0.89739 0.28365 0.86377 0.0
C1900 C 0.86876 0.27075 0.84311 0.0
C1901 C 0.8762 0.23254 0.84191 0.0
C1902 C 0.86949 0.28198 0.82851 0.0
C1903 C 0.85442 0.2844 0.81801 0.0
C1904 C 0.83824 0.27577 0.82192 0.0
C1905 C 0.83748 0.26493 0.83687 0.0
C1906 C 0.85261 0.26245 0.84738 0.0
H1907 H 0.88241 0.22065 0.83945 0.0
H1908 H 0.86562 0.22809 0.84999 0.0
H1909 H 0.87049 0.23545 0.82786 0.0
H1910 H 0.88175 0.28862 0.825 0.0
H1911 H 0.85546 0.2929 0.80663 0.0
H1912 H 0.55058 0.22494 0.65171 0.0
H1913 H 0.54862 0.19315 0.63605 0.0
H1914 H 0.5733 0.21565 0.59116 0.0
H1915 H 0.57534 0.24773 0.60676 0.0
H1916 H 0.5441 0.18375 0.57836 0.0
H1917 H 0.59113 0.1703 0.63607 0.0
H1918 H 0.57379 0.17866 0.64436 0.0
H1919 H 0.58881 0.19367 0.63313 0.0
C1920 C 0.55549 0.22323 0.63842 0.0
C1921 C 0.56324 0.239 0.6306 0.0
C1922 C 0.55443 0.20499 0.62954 0.0
C1923 C 0.56111 0.20201 0.61264 0.0
C1924 C 0.56819 0.21763 0.60429 0.0
H1925 H 0.57907 0.09243 0.57016 0.0
H1926 H 0.5827 0.12622 0.58027 0.0
C1927 C 0.56931 0.23596 0.61322 0.0
C1928 C 0.56093 0.18257 0.60403 0.0
H1929 H 0.57519 0.14373 0.61363 0.0
C1930 C 0.551 0.17504 0.58598 0.0
C1931 C 0.57015 0.17129 0.61385 0.0
C1932 C 0.58171 0.1789 0.63285 0.0
C1933 C 0.54951 0.1563 0.57784 0.0
C1934 C 0.55805 0.14473 0.58811 0.0
C1935 C 0.56852 0.15251 0.60582 0.0
C1936 C 0.55579 0.12435 0.58113 0.0
C1937 C 0.53881 0.14904 0.5583 0.0
C1938 C 0.53951 0.112 0.57841 0.0
C1939 C 0.53739 0.09271 0.5727 0.0
C1940 C 0.55155 0.08524 0.56962 0.0
C1941 C 0.56787 0.09765 0.57231 0.0
C1942 C 0.56998 0.11699 0.57811 0.0
H1943 H 0.53735 0.16071 0.55015 0.0
H1944 H 0.54457 0.13919 0.54987 0.0
H1945 H 0.52581 0.14137 0.55994 0.0
H1946 H 0.52842 0.11724 0.58105 0.0
H1947 H 0.52462 0.08365 0.57085 0.0
H1948 H 0.57767 0.75558 0.42383 0.0
H1949 H 0.60273 0.75699 0.40809 0.0
H1950 H 0.57531 0.77145 0.35805 0.0
H1951 H 0.55016 0.77035 0.37382 0.0
H1952 H 0.60734 0.73725 0.37505 0.0
H1953 H 0.61915 0.81333 0.36954 0.0
H1954 H 0.60457 0.80235 0.38416 0.0
H1955 H 0.598 0.79995 0.35873 0.0
C1956 C 0.57688 0.75904 0.40945 0.0
C1957 C 0.56183 0.76296 0.40018 0.0
C1958 C 0.59128 0.75983 0.40046 0.0
C1959 C 0.59109 0.76465 0.38199 0.0
C1960 C 0.57595 0.7681 0.37246 0.0
H1961 H 0.66655 0.74908 0.3088 0.0
H1962 H 0.6408 0.74687 0.32344 0.0
C1963 C 0.56151 0.76732 0.38146 0.0
C1964 C 0.60674 0.76597 0.37283 0.0
H1965 H 0.63643 0.7962 0.35429 0.0
C1966 C 0.61368 0.75014 0.37049 0.0
C1967 C 0.61522 0.78287 0.36714 0.0
C1968 C 0.60899 0.80066 0.37015 0.0
C1969 C 0.62868 0.75066 0.36248 0.0
C1970 C 0.63691 0.76741 0.35631 0.0
C1971 C 0.63008 0.78331 0.35885 0.0
C1972 C 0.65268 0.76876 0.34738 0.0
C1973 C 0.63581 0.73337 0.36109 0.0
C1974 C 0.66793 0.78212 0.35564 0.0
C1975 C 0.68276 0.78343 0.34728 0.0
C1976 C 0.68267 0.77146 0.33037 0.0
C1977 C 0.66728 0.75825 0.32203 0.0
C1978 C 0.65248 0.75696 0.3304 0.0
H1979 H 0.63088 0.72371 0.37097 0.0
H1980 H 0.63187 0.72561 0.3463 0.0
H1981 H 0.65005 0.73722 0.36438 0.0
H1982 H 0.66842 0.79143 0.36872 0.0
H1983 H 0.69435 0.79369 0.3542 0.0
H1984 H 0.05681 0.24587 0.38641 0.0
H1985 H 0.06196 0.21749 0.39866 0.0
H1986 H 0.05004 0.23755 0.45312 0.0
H1987 H 0.04494 0.26587 0.4412 0.0
H1988 H 0.08576 0.2155 0.43574 0.0
H1989 H 0.01631 0.18342 0.4316 0.0
H1990 H 0.02418 0.20123 0.41747 0.0
H1991 H 0.02334 0.20774 0.44228 0.0
C1992 C 0.05537 0.24428 0.40103 0.0
C1993 C 0.05036 0.25808 0.4128 0.0
C1994 C 0.05835 0.22811 0.40797 0.0
C1995 C 0.0562 0.22547 0.42667 0.0
C1996 C 0.0516 0.23936 0.43857 0.0
H1997 H 0.08043 0.16226 0.51218 0.0
H1998 H 0.08059 0.18451 0.48936 0.0
C1999 C 0.04873 0.25553 0.43173 0.0
C2000 C 0.0583 0.20805 0.43389 0.0
H2001 H 0.03589 0.17036 0.45062 0.0
C2002 C 0.07488 0.2054 0.43872 0.0
C2003 C 0.04402 0.19486 0.43745 0.0
C2004 C 0.02592 0.19679 0.4318 0.0
C2005 C 0.07763 0.19037 0.44814 0.0
C2006 C 0.06343 0.17793 0.45293 0.0
C2007 C 0.04677 0.17997 0.44701 0.0
C2008 C 0.06549 0.16387 0.46568 0.0
C2009 C 0.0957 0.18817 0.45323 0.0
C2010 C 0.05693 0.1449 0.45994 0.0
C2011 C 0.05663 0.1322 0.47303 0.0
C2012 C 0.06477 0.13834 0.49212 0.0
C2013 C 0.0739 0.15719 0.49761 0.0
C2014 C 0.07421 0.16985 0.48452 0.0
H2015 H 0.10404 0.19447 0.44339 0.0
H2016 H 0.1012 0.19557 0.46794 0.0
H2017 H 0.09597 0.17313 0.45278 0.0
H2018 H 0.04997 0.14008 0.4455 0.0
H2019 H 0.04935 0.11781 0.46844 0.0
H2020 H 0.61298 0.30222 0.20969 0.0
H2021 H 0.64415 0.30738 0.21655 0.0
H2022 H 0.63965 0.2739 0.2621 0.0
H2023 H 0.6084 0.26826 0.25509 0.0
H2024 H 0.6691 0.32217 0.24817 0.0
H2025 H 0.66467 0.24632 0.22672 0.0
H2026 H 0.64654 0.25664 0.22229 0.0
H2027 H 0.65281 0.25068 0.24552 0.0
C2028 C 0.6186 0.29615 0.22135 0.0
C2029 C 0.60819 0.28458 0.23166 0.0
C2030 C 0.63642 0.29911 0.22522 0.0
C2031 C 0.64412 0.29061 0.23947 0.0
C2032 C 0.63387 0.28016 0.25069 0.0
H2033 H 0.74675 0.30858 0.29527 0.0
H2034 H 0.71793 0.31086 0.2833 0.0
C2035 C 0.61604 0.27707 0.24675 0.0
C2036 C 0.66277 0.29191 0.24201 0.0
H2037 H 0.69203 0.26501 0.24231 0.0
C2038 C 0.67416 0.30971 0.24675 0.0
C2039 C 0.66929 0.27566 0.23956 0.0
C2040 C 0.6577 0.25626 0.23304 0.0
C2041 C 0.69198 0.31162 0.25001 0.0
C2042 C 0.69846 0.29526 0.24888 0.0
C2043 C 0.68705 0.27754 0.24329 0.0
C2044 C 0.7168 0.29594 0.25501 0.0
C2045 C 0.70363 0.33113 0.25468 0.0
C2046 C 0.72578 0.2866 0.24316 0.0
C2047 C 0.74231 0.28496 0.2501 0.0
C2048 C 0.75007 0.29265 0.26901 0.0
C2049 C 0.74126 0.30259 0.28057 0.0
C2050 C 0.72476 0.30408 0.27369 0.0
H2051 H 0.69748 0.3415 0.24817 0.0
H2052 H 0.70625 0.33552 0.27041 0.0
H2053 H 0.71604 0.33161 0.24958 0.0
H2054 H 0.71979 0.28008 0.22873 0.0
H2055 H 0.74876 0.27722 0.24086 0.0
H2056 H 0.55191 0.85124 0.96362 0.0
H2057 H 0.54804 0.87566 0.98766 0.0
H2058 H 0.52787 0.9035 0.94304 0.0
H2059 H 0.53147 0.87903 0.91882 0.0
H2060 H 0.56139 0.91456 0.99337 0.0
H2061 H 0.49029 0.89644 0.97667 0.0
H2062 H 0.50303 0.88092 0.96829 0.0
H2063 H 0.5005 0.9005 0.95625 0.0
C2064 C 0.54674 0.86261 0.95887 0.0
C2065 C 0.54189 0.86311 0.93928 0.0
C2066 C 0.5445 0.87651 0.97266 0.0
C2067 C 0.5373 0.89109 0.96711 0.0
C2068 C 0.53305 0.89206 0.94759 0.0
H2069 H 0.52111 0.99446 0.01422 0.0
H2070 H 0.52006 0.96423 0.99565 0.0
C2071 C 0.53528 0.87817 0.93378 0.0
C2072 C 0.53447 0.90547 0.98173 0.0
H2073 H 0.50357 0.92572 0.99675 0.0
C2074 C 0.54874 0.91687 0.99432 0.0
C2075 C 0.51791 0.90828 0.98296 0.0
C2076 C 0.50202 0.89578 0.97045 0.0
C2077 C 0.54702 0.93169 1.00752 0.0
C2078 C 0.53052 0.93491 0.0083 0.0
C2079 C 0.51617 0.92312 0.99614 0.0
C2080 C 0.52827 0.9517 0.02015 0.0
C2081 C 0.56294 0.94435 0.01985 0.0
C2082 C 0.53244 0.95431 0.04017 0.0
C2083 C 0.53295 0.97162 0.05088 0.0
C2084 C 0.52931 0.98646 0.04165 0.0
C2085 C 0.52391 0.98327 0.02175 0.0
C2086 C 0.52336 0.96602 0.0111 0.0
H2087 H 0.57489 0.94178 0.01524 0.0
H2088 H 0.5629 0.95936 0.0195 0.0
H2089 H 0.56318 0.94178 0.03488 0.0
H2090 H 0.53602 0.94327 0.0474 0.0
H2091 H 0.5371 0.9737 0.06622 0.0
H2092 H 0.02032 0.74357 0.76112 0.0
H2093 H 0.99726 0.75343 0.77538 0.0
H2094 H 0.99621 0.7945 0.73714 0.0
H2095 H 0.0194 0.78508 0.72312 0.0
H2096 H 0.99298 0.80798 0.77414 0.0
H2097 H 0.94787 0.73841 0.7467 0.0
H2098 H 0.96724 0.73779 0.76199 0.0
H2099 H 0.96834 0.74534 0.73906 0.0
C2100 C 0.01528 0.75482 0.75588 0.0
C2101 C 0.02154 0.7634 0.74085 0.0
C2102 C 1.00208 0.76038 0.764 0.0
C2103 C 0.99486 0.77447 0.75708 0.0
C2104 C 1.00159 0.78357 0.74264 0.0
H2105 H 0.89511 0.79439 0.7516 0.0
H2106 H 0.92249 0.78742 0.74689 0.0
C2107 C 0.01481 0.77811 0.7346 0.0
C2108 C 0.97966 0.77912 0.76396 0.0
H2109 H 0.93704 0.7612 0.76357 0.0
C2110 C 0.98077 0.79774 0.77202 0.0
C2111 C 0.96373 0.76574 0.76094 0.0
C2112 C 0.96159 0.74573 0.75156 0.0
C2113 C 0.96624 0.80345 0.77677 0.0
C2114 C 0.95031 0.79008 0.7736 0.0
C2115 C 0.94931 0.77137 0.76601 0.0
C2116 C 0.93419 0.79536 0.7767 0.0
C2117 C 0.96789 0.82385 0.78435 0.0
C2118 C 0.93176 0.80226 0.79501 0.0
C2119 C 0.9161 0.8063 0.79774 0.0
C2120 C 0.9026 0.80329 0.7822 0.0
C2121 C 0.90521 0.79662 0.76386 0.0
C2122 C 0.92084 0.79269 0.76115 0.0
H2123 H 0.98017 0.83297 0.78226 0.0
H2124 H 0.95709 0.82898 0.77722 0.0
H2125 H 0.96745 0.82534 0.7999 0.0
H2126 H 0.94182 0.80411 0.80724 0.0
H2127 H 0.91436 0.81122 0.81205 0.0
H2128 H 0.13232 0.02065 0.86518 0.0
H2129 H 0.12055 0.01489 0.89438 0.0
H2130 H 0.08741 0.05225 0.88318 0.0
H2131 H 0.09929 0.05834 0.85429 0.0
H2132 H 0.1039 0.0592 0.92036 0.0
H2133 H 0.07405 0.9828 0.89918 0.0
H2134 H 0.09655 0.98965 0.89811 0.0
H2135 H 0.08146 0.99775 0.88224 0.0
C2136 C 0.12246 0.02756 0.86888 0.0
C2137 C 0.11673 0.03992 0.85734 0.0
C2138 C 0.11567 0.02416 0.88554 0.0
C2139 C 0.10291 0.03293 0.89088 0.0
C2140 C 0.09721 0.04528 0.87936 0.0
H2141 H 0.03659 0.03611 0.97405 0.0
H2142 H 0.05316 0.04001 0.94803 0.0
C2143 C 0.10401 0.04872 0.8628 0.0
C2144 C 0.09571 0.02977 0.90866 0.0
H2145 H 0.07237 0.99628 0.93031 0.0
C2146 C 0.09706 0.04541 0.92254 0.0
C2147 C 0.08687 1.01177 0.9116 0.0
C2148 C 0.08448 0.99453 0.89695 0.0
C2149 C 0.08963 0.04361 0.93909 0.0
C2150 C 0.0804 0.02572 0.94177 0.0
C2151 C 0.07948 1.00997 0.92823 0.0
C2152 C 0.07061 0.02336 0.95783 0.0
C2153 C 0.09164 0.0609 0.95356 0.0
C2154 C 0.0747 1.0124 0.97182 0.0
C2155 C 0.0652 1.01015 0.98677 0.0
C2156 C 0.05139 0.01868 0.98781 0.0
C2157 C 0.04721 0.02942 0.97365 0.0
C2158 C 0.05673 0.03176 0.95884 0.0
H2159 H 0.10272 0.07228 0.95214 0.0
H2160 H 0.07988 0.0663 0.95125 0.0
H2161 H 0.0934 0.05757 0.96837 0.0
H2162 H 0.08525 1.00564 0.9712 0.0
H2163 H 0.06844 1.0015 0.99728 0.0
H2164 H 0.78332 0.32621 0.54335 0.0
H2165 H 0.79697 0.31636 0.5719 0.0
H2166 H 0.81269 0.37413 0.59952 0.0
H2167 H 0.79825 0.38391 0.57139 0.0
H2168 H 0.82865 0.32368 0.59239 0.0
H2169 H 0.78504 0.35052 0.63633 0.0
H2170 H 0.7821 0.34949 0.61074 0.0
H2171 H 0.79802 0.36829 0.62592 0.0
C2172 C 0.78974 0.3368 0.5555 0.0
C2173 C 0.78946 0.35575 0.55537 0.0
C2174 C 0.7976 0.33118 0.57175 0.0
C2175 C 0.80551 0.34447 0.58798 0.0
C2176 C 0.80621 0.36358 0.58737 0.0
H2177 H 0.83489 0.32051 0.70279 0.0
H2178 H 0.83813 0.33605 0.6746 0.0
C2179 C 0.79799 0.36915 0.57131 0.0
C2180 C 0.81189 0.33807 0.60587 0.0
H2181 H 0.80528 0.33657 0.65186 0.0
C2182 C 0.82368 0.32664 0.60546 0.0
C2183 C 0.80531 0.3419 0.62289 0.0
C2184 C 0.79181 0.35306 0.62402 0.0
C2185 C 0.82867 0.31851 0.62148 0.0
C2186 C 0.8218 0.32207 0.63825 0.0
C2187 C 0.81065 0.33412 0.63896 0.0
C2188 C 0.82395 0.31162 0.65443 0.0
C2189 C 0.8409 0.30584 0.6203 0.0
C2190 C 0.81531 0.29263 0.65226 0.0
C2191 C 0.8131 0.28384 0.66831 0.0
C2192 C 0.81952 0.29393 0.68679 0.0
C2193 C 0.82946 0.31249 0.68878 0.0
C2194 C 0.83151 0.32133 0.67271 0.0
H2195 H 0.84817 0.30807 0.60832 0.0
H2196 H 0.85011 0.30822 0.63389 0.0
H2197 H 0.8335 0.29096 0.6179 0.0
H2198 H 0.80911 0.28505 0.63826 0.0
H2199 H 0.80523 0.26961 0.66623 0.0
H2200 H 0.44886 0.06379 0.36373 0.0
H2201 H 0.46322 0.06196 0.39589 0.0
H2202 H 0.48453 0.01765 0.37209 0.0
H2203 H 0.47032 0.01948 0.34002 0.0
H2204 H 0.46075 0.0335 0.41829 0.0
H2205 H 0.52733 0.05207 0.4042 0.0
H2206 H 0.5094 0.05524 0.38797 0.0
H2207 H 0.51397 0.03241 0.38777 0.0
C2208 C 0.45673 0.05375 0.36525 0.0
C2209 C 0.45844 0.04193 0.34892 0.0
C2210 C 0.46494 0.05264 0.38382 0.0
C2211 C 0.47536 0.03984 0.38682 0.0
C2212 C 0.477 0.028 0.37051 0.0
H2213 H 0.53829 1.00885 0.48269 0.0
H2214 H 0.52255 1.01254 0.45223 0.0
C2215 C 0.46873 0.02902 0.35199 0.0
C2216 C 0.48425 0.03865 0.40683 0.0
H2217 H 0.52354 0.04022 0.43323 0.0
C2218 C 0.47451 0.03511 0.42153 0.0
C2219 C 0.50226 0.04071 0.41151 0.0
C2220 C 0.5139 0.0455 0.39711 0.0
C2221 C 0.48202 0.03294 0.44014 0.0
C2222 C 0.50005 0.03481 0.44476 0.0
C2223 C 0.50978 0.03864 0.43009 0.0
C2224 C 0.5091 0.03218 0.46423 0.0
C2225 C 0.47033 0.02791 0.45442 0.0
C2226 C 0.50708 0.04181 0.48183 0.0
C2227 C 0.51612 0.03952 0.49961 0.0
C2228 C 0.52768 0.02771 0.50041 0.0
C2229 C 0.52958 0.01808 0.48286 0.0
C2230 C 0.52053 0.02026 0.46523 0.0
H2231 H 0.45689 0.02153 0.44725 0.0
H2232 H 0.4747 0.0179 0.46329 0.0
H2233 H 0.47032 0.04087 0.46401 0.0
H2234 H 0.49881 0.0515 0.48189 0.0
H2235 H 0.51433 0.04734 0.51267 0.0
H2236 H 0.7889 0.67063 0.09753 0.0
H2237 H 0.79083 0.68827 0.12906 0.0
H2238 H 0.78602 0.73751 0.10355 0.0
H2239 H 0.78332 0.7196 0.07167 0.0
H2240 H 0.81242 0.71759 0.14935 0.0
H2241 H 0.74911 0.73507 0.13548 0.0
H2242 H 0.75576 0.71889 0.11887 0.0
H2243 H 0.76329 0.74388 0.11967 0.0
C2244 C 0.7883 0.68524 0.09854 0.0
C2245 C 0.78583 0.69363 0.08197 0.0
C2246 C 0.7894 0.69534 0.11667 0.0
C2247 C 0.78821 0.71417 0.11879 0.0
C2248 C 0.78645 0.72286 0.10233 0.0
H2249 H 0.81511 0.78073 0.23404 0.0
H2250 H 0.81516 0.76837 0.20076 0.0
C2251 C 0.78508 0.71264 0.08409 0.0
C2252 C 0.7888 0.72441 0.13829 0.0
H2253 H 0.7665 0.74838 0.1654 0.0
C2254 C 0.80237 0.72434 0.15283 0.0
C2255 C 0.77558 0.73302 0.143 0.0
C2256 C 0.76003 0.73259 0.1285 0.0
C2257 C 0.80301 0.73235 0.17186 0.0
C2258 C 0.79003 0.74138 0.17647 0.0
C2259 C 0.77655 0.74163 0.1619 0.0
C2260 C 0.78975 0.74987 0.19644 0.0
C2261 C 0.81725 0.73031 0.1869 0.0
C2262 C 0.77514 0.74436 0.20494 0.0
C2263 C 0.77493 0.75177 0.22385 0.0
C2264 C 0.78938 0.76474 0.23477 0.0
C2265 C 0.80385 0.77056 0.22613 0.0
C2266 C 0.80394 0.76339 0.20711 0.0
H2267 H 0.82288 0.71846 0.18216 0.0
H2268 H 0.82766 0.74337 0.18967 0.0
H2269 H 0.81259 0.72792 0.20053 0.0
H2270 H 0.76398 0.73403 0.19705 0.0
H2271 H 0.76357 0.74696 0.23005 0.0
H2272 H 0.13805 0.02499 0.73773 0.0
H2273 H 0.12221 0.02181 0.70547 0.0
H2274 H 0.07727 0.02922 0.72862 0.0
H2275 H 0.09332 0.03321 0.76111 0.0
H2276 H 0.09451 0.99834 0.68494 0.0
H2277 H 0.0823 0.06972 0.69566 0.0
H2278 H 0.0964 0.06183 0.713 0.0
H2279 H 0.0735 0.05479 0.71176 0.0
C2280 C 0.12476 0.02586 0.73602 0.0
C2281 C 0.11702 0.02958 0.75205 0.0
C2282 C 0.1157 0.02401 0.71751 0.0
C2283 C 0.09864 0.02568 0.71454 0.0
C2284 C 0.09057 0.02843 0.7305 0.0
H2285 H 0.04024 1.00105 0.59668 0.0
H2286 H 0.05018 0.99875 0.63012 0.0
C2287 C 0.09973 0.03057 0.74908 0.0
C2288 C 0.08967 0.02513 0.69473 0.0
H2289 H 0.07031 0.05096 0.66586 0.0
C2290 C 0.08916 1.00982 0.68077 0.0
C2291 C 0.08286 0.04021 0.68921 0.0
C2292 C 0.08391 0.05765 0.70313 0.0
C2293 C 0.08238 1.00934 0.66145 0.0
C2294 C 0.0754 0.02434 0.65598 0.0
C2295 C 0.07556 0.03942 0.67003 0.0
C2296 C 0.069 0.02546 0.63566 0.0
C2297 C 0.08347 0.99317 0.64701 0.0
C2298 C 0.07583 0.04145 0.62772 0.0
C2299 C 0.06992 0.04297 0.60879 0.0
C2300 C 0.05713 0.02843 0.59724 0.0
C2301 C 0.05025 1.01239 0.60514 0.0
C2302 C 0.05601 1.01101 0.62424 0.0
H2303 H 0.09319 0.98573 0.65264 0.0
H2304 H 0.07085 0.98285 0.64354 0.0
H2305 H 0.0868 0.99808 0.63358 0.0
H2306 H 0.08586 0.0528 0.63618 0.0
H2307 H 0.07555 0.05548 0.60314 0.0
H2308 H 0.76633 0.30778 0.45766 0.0
H2309 H 0.75586 0.28763 0.42707 0.0
H2310 H 0.71075 0.30991 0.41992 0.0
H2311 H 0.72146 0.33065 0.45077 0.0
H2312 H 0.72621 0.26048 0.40952 0.0
H2313 H 0.73471 0.32565 0.37535 0.0
H2314 H 0.74272 0.32672 0.40038 0.0
H2315 H 0.72004 0.32224 0.39208 0.0
C2316 C 0.75403 0.30822 0.44978 0.0
C2317 C 0.74487 0.32105 0.45638 0.0
C2318 C 0.74799 0.29657 0.43233 0.0
C2319 C 0.73267 0.2975 0.42109 0.0
C2320 C 0.72274 0.30921 0.42829 0.0
H2321 H 0.74109 0.25758 0.30282 0.0
H2322 H 0.72365 0.263 0.32758 0.0
C2323 C 0.72882 0.32095 0.44591 0.0
C2324 C 0.72888 0.28797 0.40106 0.0
H2325 H 0.7368 0.29813 0.35728 0.0
C2326 C 0.72782 0.26856 0.39784 0.0
C2327 C 0.73092 0.29853 0.38583 0.0
C2328 C 0.73221 0.31944 0.38844 0.0
C2329 C 0.73086 0.25992 0.38054 0.0
C2330 C 0.73489 0.27099 0.36621 0.0
C2331 C 0.73374 0.28978 0.36845 0.0
C2332 C 0.74407 0.26485 0.35117 0.0
C2333 C 0.73129 0.23946 0.3783 0.0
C2334 C 0.76124 0.26417 0.35639 0.0
C2335 C 0.77124 0.26148 0.34241 0.0
C2336 C 0.76413 0.25922 0.32303 0.0
C2337 C 0.74674 0.25911 0.31775 0.0
C2338 C 0.7368 0.26218 0.33179 0.0
H2339 H 0.72341 0.23175 0.38775 0.0
H2340 H 0.72659 0.23262 0.36324 0.0
H2341 H 0.74473 0.23835 0.38229 0.0
H2342 H 0.76713 0.26658 0.37132 0.0
H2343 H 0.78465 0.26167 0.34673 0.0
H2344 H 0.41995 0.0529 0.21791 0.0
H2345 H 0.43362 0.05027 0.18944 0.0
H2346 H 0.4801 0.04688 0.22472 0.0
H2347 H 0.46624 0.04867 0.25301 0.0
H2348 H 0.45796 0.06866 0.17495 0.0
H2349 H 0.47907 1.00409 0.18662 0.0
H2350 H 0.46529 1.01305 0.20114 0.0
H2351 H 0.48823 0.02245 0.20638 0.0
C2352 C 0.43309 0.05156 0.21973 0.0
C2353 C 0.44174 0.05091 0.23819 0.0
C2354 C 0.44102 0.05003 0.2032 0.0
C2355 C 0.45803 0.04778 0.20423 0.0
C2356 C 0.46685 0.04778 0.2228 0.0
H2357 H 0.53135 0.04364 0.12261 0.0
H2358 H 0.51671 0.04569 0.15033 0.0
C2359 C 0.45887 0.04909 0.23929 0.0
C2360 C 0.46645 0.04576 0.18615 0.0
H2361 H 0.49095 0.02055 0.16292 0.0
C2362 C 0.46501 0.05796 0.1724 0.0
C2363 C 0.47582 0.03186 0.1821 0.0
C2364 C 0.47705 0.017 0.19472 0.0
C2365 C 0.47276 0.05702 0.15561 0.0
C2366 C 0.48237 0.04338 0.15182 0.0
C2367 C 0.48378 0.03115 0.16547 0.0
C2368 C 0.49128 0.0418 0.13415 0.0
C2369 C 0.47095 0.07114 0.14226 0.0
C2370 C 0.4822 0.03855 0.11517 0.0
C2371 C 0.49065 0.03712 0.09901 0.0
C2372 C 0.5086 0.03901 0.10107 0.0
C2373 C 0.51759 0.04211 0.12007 0.0
C2374 C 0.50913 0.04329 0.13616 0.0
H2375 H 0.46702 0.08341 0.14923 0.0
H2376 H 0.48319 0.07627 0.13706 0.0
H2377 H 0.46098 0.06431 0.12967 0.0
H2378 H 0.46844 0.03693 0.11276 0.0
H2379 H 0.48307 0.03473 0.08484 0.0
H2380 H 0.79703 0.68628 0.97006 0.0
H2381 H 0.80069 0.70156 0.94167 0.0
H2382 H 0.75713 0.7249 0.94843 0.0
H2383 H 0.75369 0.71013 0.977 0.0
H2384 H 0.77984 0.69759 0.90789 0.0
H2385 H 0.79164 0.77136 0.9431 0.0
H2386 H 0.79171 0.75208 0.9565 0.0
H2387 H 0.77174 0.75693 0.94663 0.0
C2388 C 0.7883 0.69477 0.96559 0.0
C2389 C 0.77515 0.69707 0.97597 0.0
C2390 C 0.79039 0.70349 0.9493 0.0
C2391 C 0.77941 0.71474 0.943 0.0
C2392 C 0.76611 0.71678 0.9532 0.0
H2393 H 0.77231 0.77487 0.84326 0.0
H2394 H 0.76596 0.75936 0.87112 0.0
C2395 C 0.76408 0.70818 0.96953 0.0
C2396 C 0.78159 0.72391 0.92554 0.0
H2397 H 0.78737 0.76637 0.90912 0.0
C2398 C 0.78154 0.71264 0.90823 0.0
C2399 C 0.78377 0.74358 0.92582 0.0
C2400 C 0.7849 0.75673 0.94404 0.0
C2401 C 0.78347 0.7204 0.89131 0.0
C2402 C 0.78567 0.74004 0.89162 0.0
C2403 C 0.78554 0.75131 0.90883 0.0
C2404 C 0.78917 0.74922 0.87452 0.0
C2405 C 0.783 0.70749 0.87313 0.0
C2406 C 0.80435 0.74887 0.86727 0.0
C2407 C 0.80801 0.75775 0.85152 0.0
C2408 C 0.79655 0.76719 0.84255 0.0
C2409 C 0.78131 0.76758 0.84976 0.0
C2410 C 0.77771 0.75878 0.8657 0.0
H2411 H 0.77693 0.69263 0.87402 0.0
H2412 H 0.77588 0.71183 0.86066 0.0
H2413 H 0.79632 0.70823 0.87058 0.0
H2414 H 0.81353 0.74187 0.87395 0.0
H2415 H 0.81988 0.75721 0.84635 0.0
H2416 H 0.88847 0.12222 0.10956 0.0
H2417 H 0.90119 0.10646 0.08526 0.0
H2418 H 0.87215 0.1276 0.04117 0.0
H2419 H 0.8595 0.14374 0.06547 0.0
H2420 H 0.86937 0.08517 0.0382 0.0
H2421 H 0.93569 0.12981 0.04897 0.0
H2422 H 0.92754 0.12536 0.07061 0.0
H2423 H 0.91768 0.13877 0.05492 0.0
C2424 C 0.88498 0.12377 0.09474 0.0
C2425 C 0.87298 0.13417 0.0894 0.0
C2426 C 0.8923 0.11483 0.0809 0.0
C2427 C 0.88763 0.11601 0.06152 0.0
C2428 C 0.87595 0.12669 0.05611 0.0
H2429 H 0.94379 0.05338 0.99211 0.0
H2430 H 0.92578 0.07555 0.99733 0.0
C2431 C 0.86879 0.13589 0.07 0.0
C2432 C 0.89403 0.10469 0.04705 0.0
H2433 H 0.93144 0.09775 0.03442 0.0
C2434 C 0.88285 0.08812 0.03689 0.0
C2435 C 0.91153 0.10873 0.04527 0.0
C2436 C 0.92383 0.12672 0.05538 0.0
C2437 C 0.88909 0.07464 0.02631 0.0
C2438 C 0.90689 0.07791 0.02602 0.0
C2439 C 0.91778 0.09525 0.03473 0.0
C2440 C 0.91491 0.06257 0.01991 0.0
C2441 C 0.87679 0.05658 0.01638 0.0
C2442 C 0.91445 0.04776 0.03063 0.0
C2443 C 0.92497 0.03537 0.02805 0.0
C2444 C 0.93616 0.0375 0.0146 0.0
C2445 C 0.93561 0.05154 1.00287 0.0
C2446 C 0.92522 0.06413 1.00567 0.0
H2447 H 0.86359 0.05858 0.01273 0.0
H2448 H 0.88097 0.05114 1.00312 0.0
H2449 H 0.87635 0.04583 0.02609 0.0
H2450 H 0.90684 0.04657 0.04197 0.0
H2451 H 0.92519 0.02502 0.0376 0.0
H2452 H 0.37311 0.40983 0.05145 0.0
H2453 H 0.40149 0.42807 0.04881 0.0
H2454 H 0.39025 0.47811 0.0763 0.0
H2455 H 0.36175 0.45988 0.07922 0.0
H2456 H 0.4101 0.45845 0.02984 0.0
H2457 H 0.43673 0.47792 0.10727 0.0
H2458 H 0.41742 0.45976 0.09823 0.0
H2459 H 0.41677 0.48411 0.10025 0.0
C2460 C 0.37663 0.42471 0.05705 0.0
C2461 C 0.36508 0.43334 0.06563 0.0
C2462 C 0.39291 0.43513 0.05549 0.0
C2463 C 0.39815 0.45443 0.06256 0.0
C2464 C 0.38665 0.46317 0.07106 0.0
H2465 H 0.48341 0.53457 0.03342 0.0
H2466 H 0.45528 0.51605 0.03694 0.0
C2467 C 0.3703 0.45273 0.07261 0.0
C2468 C 0.41546 0.46535 0.06053 0.0
H2469 H 0.45368 0.49212 0.08588 0.0
C2470 C 0.41963 0.46581 0.0421 0.0
C2471 C 0.42801 0.47473 0.07653 0.0
C2472 C 0.42463 0.47402 0.09671 0.0
C2473 C 0.43584 0.47557 0.03922 0.0
C2474 C 0.44821 0.4854 0.05518 0.0
C2475 C 0.44416 0.48471 0.07363 0.0
C2476 C 0.46537 0.49656 0.05298 0.0
C2477 C 0.43968 0.47503 0.01911 0.0
C2478 C 0.48048 0.49201 0.06111 0.0
C2479 C 0.49661 0.50264 0.05916 0.0
C2480 C 0.49793 0.51812 0.04917 0.0
C2481 C 0.48281 0.52268 0.04112 0.0
C2482 C 0.46671 0.51205 0.04305 0.0
H2483 H 0.43076 0.46309 0.00918 0.0
H2484 H 0.43819 0.48825 0.01383 0.0
H2485 H 0.45305 0.47383 0.01868 0.0
H2486 H 0.47978 0.48017 0.06889 0.0
H2487 H 0.50804 0.49884 0.06559 0.0
H2488 H 0.42191 0.57383 0.78943 0.0
H2489 H 0.40887 0.60087 0.79325 0.0
H2490 H 0.37232 0.57711 0.74177 0.0
H2491 H 0.38509 0.55019 0.7379 0.0
H2492 H 0.40506 0.6265 0.76673 0.0
H2493 H 0.34208 0.58881 0.78112 0.0
H2494 H 0.36071 0.57902 0.7833 0.0
H2495 H 0.34817 0.57792 0.76018 0.0
C2496 C 0.41101 0.57432 0.77903 0.0
C2497 C 0.4045 0.55982 0.76341 0.0
C2498 C 0.40361 0.58977 0.78121 0.0
C2499 C 0.38948 0.59083 0.76795 0.0
C2500 C 0.383 0.57639 0.75238 0.0
H2501 H 0.32551 0.66421 0.73739 0.0
H2502 H 0.3409 0.63939 0.74058 0.0
C2503 C 0.3904 0.56104 0.75014 0.0
C2504 C 0.38174 0.60728 0.76976 0.0
H2505 H 0.34355 0.61921 0.7718 0.0
C2506 C 0.39169 0.62501 0.76814 0.0
C2507 C 0.3643 0.60527 0.77161 0.0
C2508 C 0.35322 0.58676 0.77434 0.0
C2509 C 0.3844 0.64061 0.76736 0.0
C2510 C 0.3668 0.63841 0.76851 0.0
C2511 C 0.35702 0.62082 0.77079 0.0
C2512 C 0.35802 0.65392 0.7665 0.0
C2513 C 0.3954 0.6591 0.76448 0.0
C2514 C 0.36254 0.67032 0.78004 0.0
C2515 C 0.35382 0.68462 0.77819 0.0
C2516 C 0.34039 0.68273 0.76279 0.0
C2517 C 0.33596 0.66626 0.74925 0.0
C2518 C 0.34465 0.652 0.75113 0.0
H2519 H 0.40766 0.65747 0.75999 0.0
H2520 H 0.38842 0.6655 0.75353 0.0
H2521 H 0.3985 0.669 0.77811 0.0
H2522 H 0.37266 0.67197 0.79216 0.0
H2523 H 0.35763 0.69717 0.7888 0.0
H2524 H 0.30222 0.61351 0.63273 0.0
H2525 H 0.2726 0.59471 0.62912 0.0
H2526 H 0.25586 0.62937 0.58934 0.0
H2527 H 0.28514 0.6482 0.59283 0.0
H2528 H 0.2417 0.60974 0.63484 0.0
H2529 H 0.2384 0.5732 0.56149 0.0
H2530 H 0.25845 0.5835 0.5775 0.0
H2531 H 0.24728 0.59817 0.56491 0.0
C2532 C 0.29221 0.61714 0.62325 0.0
C2533 C 0.29605 0.63232 0.61303 0.0
C2534 C 0.27535 0.60638 0.6212 0.0
C2535 C 0.26221 0.61053 0.60873 0.0
C2536 C 0.26594 0.6258 0.59878 0.0
H2537 H 0.15623 0.58698 0.56845 0.0
H2538 H 0.1876 0.59477 0.57404 0.0
C2539 C 0.28268 0.63661 0.6009 0.0
C2540 C 0.24436 0.59938 0.60628 0.0
H2541 H 0.21164 0.57301 0.57209 0.0
C2542 C 0.23513 0.60136 0.62129 0.0
C2543 C 0.23597 0.58856 0.58854 0.0
C2544 C 0.24554 0.58555 0.57221 0.0
C2545 C 0.21737 0.59376 0.61862 0.0
C2546 C 0.20881 0.58359 0.60057 0.0
C2547 C 0.21825 0.58084 0.58588 0.0
C2548 C 0.1899 0.57726 0.59613 0.0
C2549 C 0.20778 0.59764 0.63475 0.0
C2550 C 0.18084 0.56439 0.6063 0.0
C2551 C 0.16292 0.55997 0.60317 0.0
C2552 C 0.1538 0.56819 0.58967 0.0
C2553 C 0.16291 0.58033 0.57884 0.0
C2554 C 0.18082 0.58483 0.58206 0.0
H2555 H 0.21574 0.60879 0.64628 0.0
H2556 H 0.19593 0.602 0.6294 0.0
H2557 H 0.20397 0.58461 0.64109 0.0
H2558 H 0.18763 0.55808 0.61691 0.0
H2559 H 0.15619 0.55033 0.6115 0.0
H2560 H 0.72244 0.96748 0.78108 0.0
H2561 H 0.73562 0.94041 0.78127 0.0
H2562 H 0.70109 0.91634 0.8174 0.0
H2563 H 0.68809 0.94354 0.81753 0.0
H2564 H 0.75259 0.92533 0.81255 0.0
H2565 H 0.69531 0.87163 0.77399 0.0
H2566 H 0.69731 0.8965 0.77382 0.0
H2567 H 0.69193 0.88619 0.79443 0.0
C2568 C 0.71757 0.95648 0.78911 0.0
C2569 C 0.70398 0.95809 0.79927 0.0
C2570 C 0.72522 0.94082 0.78923 0.0
C2571 C 0.71945 0.92573 0.79915 0.0
C2572 C 0.70588 0.92732 0.80931 0.0
H2573 H 0.74435 0.81365 0.80678 0.0
H2574 H 0.73157 0.84096 0.80782 0.0
C2575 C 0.69842 0.94314 0.80946 0.0
C2576 C 0.72769 0.90869 0.79905 0.0
H2577 H 0.71929 0.86056 0.78582 0.0
C2578 C 0.74523 0.9112 0.80661 0.0
C2579 C 0.71843 0.88988 0.7916 0.0
C2580 C 0.69974 0.88575 0.78285 0.0
C2581 C 0.75345 0.89592 0.80732 0.0
C2582 C 0.74432 0.87706 0.79944 0.0
C2583 C 0.72671 0.87462 0.79189 0.0
C2584 C 0.75256 0.85988 0.79897 0.0
C2585 C 0.77179 0.9003 0.81744 0.0
C2586 C 0.76879 0.86041 0.79342 0.0
C2587 C 0.77636 0.84469 0.79321 0.0
C2588 C 0.76795 0.82734 0.79805 0.0
C2589 C 0.75152 0.82657 0.80308 0.0
C2590 C 0.74407 0.84241 0.8036 0.0
H2591 H 0.77478 0.91315 0.8283 0.0
H2592 H 0.77453 0.88852 0.82472 0.0
H2593 H 0.78052 0.90302 0.80687 0.0
H2594 H 0.77569 0.87297 0.78886 0.0
H2595 H 0.7888 0.84609 0.78885 0.0
H2596 H 0.7775 0.9575 0.59924 0.0
H2597 H 0.75147 0.96913 0.59402 0.0
H2598 H 0.73491 0.93251 0.53994 0.0
H2599 H 0.76106 0.92079 0.54501 0.0
H2600 H 0.73109 0.96974 0.53848 0.0
H2601 H 0.70279 0.94015 0.59805 0.0
H2602 H 0.72437 0.95424 0.60498 0.0
H2603 H 0.72021 0.93261 0.58872 0.0
C2604 C 0.76836 0.95188 0.5862 0.0
C2605 C 0.77139 0.93812 0.57258 0.0
C2606 C 0.7534 0.95849 0.5833 0.0
C2607 C 0.74106 0.9515 0.56673 0.0
C2608 C 0.74418 0.93804 0.5529 0.0
H2609 H 0.63687 0.96969 0.55075 0.0
H2610 H 0.66172 0.95571 0.55343 0.0
C2611 C 0.75914 0.93134 0.55582 0.0
C2612 C 0.72504 0.95843 0.56384 0.0
H2613 H 0.6895 0.962 0.58357 0.0
C2614 C 0.72195 0.96796 0.54828 0.0
C2615 C 0.71297 0.95591 0.57647 0.0
C2616 C 0.71511 0.94502 0.5929 0.0
C2617 C 0.70742 0.9755 0.54534 0.0
C2618 C 0.6957 0.97362 0.55841 0.0
C2619 C 0.69853 0.96361 0.57364 0.0
C2620 C 0.68056 0.98216 0.55667 0.0
C2621 C 0.70466 0.98529 0.52817 0.0
C2622 C 0.68283 1.00172 0.55788 0.0
C2623 C 0.66866 1.00979 0.55652 0.0
C2624 C 0.6518 0.99851 0.55394 0.0
C2625 C 0.6496 0.97889 0.5529 0.0
C2626 C 0.66381 0.97084 0.55433 0.0
H2627 H 0.71201 0.98121 0.517 0.0
H2628 H 0.69085 0.98203 0.52179 0.0
H2629 H 0.70911 1.00072 0.53268 0.0
H2630 H 0.69561 1.01082 0.56015 0.0
H2631 H 0.67097 0.02495 0.55785 0.0
H2632 H 0.38133 0.46967 0.75211 0.0
H2633 H 0.36074 0.44046 0.75371 0.0
H2634 H 0.4021 0.41676 0.7761 0.0
H2635 H 0.4229 0.44594 0.77447 0.0
H2636 H 0.37638 0.3919 0.74662 0.0
H2637 H 0.3484 0.42453 0.80484 0.0
H2638 H 0.3491 0.43648 0.78432 0.0
H2639 H 0.36878 0.43553 0.7988 0.0
C2640 C 0.38611 0.45826 0.75732 0.0
C2641 C 0.40379 0.46024 0.76329 0.0
C2642 C 0.37429 0.44158 0.75828 0.0
C2643 C 0.37989 0.42656 0.76527 0.0
C2644 C 0.39753 0.42823 0.77073 0.0
H2645 H 0.32022 0.33057 0.80504 0.0
H2646 H 0.3418 0.35815 0.80095 0.0
C2647 C 0.40939 0.44494 0.76982 0.0
C2648 C 0.36727 0.40928 0.76726 0.0
H2649 H 0.33429 0.39329 0.79079 0.0
C2650 C 0.36717 0.39217 0.75626 0.0
C2651 C 0.35542 0.40966 0.78005 0.0
C2652 C 0.35546 0.42748 0.79282 0.0
C2653 C 0.3553 0.37547 0.75749 0.0
C2654 C 0.3432 0.37599 0.76991 0.0
C2655 C 0.34348 0.39302 0.78112 0.0
C2656 C 0.33039 0.3589 0.77192 0.0
C2657 C 0.3559 0.35732 0.74576 0.0
C2658 C 0.31677 0.3503 0.75697 0.0
C2659 C 0.30435 0.33457 0.75931 0.0
C2660 C 0.3055 0.3272 0.77658 0.0
C2661 C 0.31913 0.33588 0.79151 0.0
C2662 C 0.33144 0.35162 0.78922 0.0
H2663 H 0.36778 0.35869 0.73935 0.0
H2664 H 0.35515 0.3459 0.75472 0.0
H2665 H 0.34469 0.35308 0.73402 0.0
H2666 H 0.31563 0.35589 0.7436 0.0
H2667 H 0.29392 0.32816 0.74762 0.0
H2668 H 0.18009 0.58101 0.32298 0.0
H2669 H 0.19549 0.61302 0.32172 0.0
H2670 H 0.23852 0.59259 0.30651 0.0
H2671 H 0.22266 0.56016 0.30679 0.0
H2672 H 0.22143 0.63686 0.33943 0.0
H2673 H 0.23632 0.62445 0.26653 0.0
H2674 H 0.22255 0.60656 0.27623 0.0
H2675 H 0.24556 0.61058 0.28208 0.0
C2676 C 0.19286 0.58315 0.31936 0.0
C2677 C 0.19993 0.56757 0.31493 0.0
C2678 C 0.20177 0.60173 0.31864 0.0
C2679 C 0.21826 0.60576 0.31357 0.0
C2680 C 0.22566 0.59028 0.3098 0.0
H2681 H 0.27878 0.72591 0.33595 0.0
H2682 H 0.26642 0.69301 0.33854 0.0
C2683 C 0.21659 0.57154 0.31023 0.0
C2684 C 0.22744 0.62606 0.31253 0.0
H2685 H 0.24943 0.65446 0.28456 0.0
C2686 C 0.22749 0.64057 0.32733 0.0
C2687 C 0.23529 0.63155 0.29674 0.0
C2688 C 0.2348 0.61751 0.27941 0.0
C2689 C 0.2349 0.65984 0.32684 0.0
C2690 C 0.24332 0.66525 0.31141 0.0
C2691 C 0.24328 0.65075 0.2966 0.0
C2692 C 0.2516 0.6857 0.30989 0.0
C2693 C 0.23285 0.67422 0.34264 0.0
C2694 C 0.24837 0.69304 0.29271 0.0
C2695 C 0.25587 0.71189 0.29105 0.0
C2696 C 0.26686 0.72434 0.30655 0.0
C2697 C 0.27025 0.71703 0.32371 0.0
C2698 C 0.26296 0.69805 0.32526 0.0
H2699 H 0.22162 0.66874 0.34946 0.0
H2700 H 0.24444 0.67766 0.35389 0.0
H2701 H 0.23119 0.68735 0.33725 0.0
H2702 H 0.23981 0.68421 0.28046 0.0
H2703 H 0.25283 0.71676 0.27755 0.0
H2704 H 0.50206 0.69995 0.45706 0.0
H2705 H 0.50174 0.67064 0.47035 0.0
H2706 H 0.55373 0.6937 0.49953 0.0
H2707 H 0.55394 0.72304 0.48682 0.0
H2708 H 0.5206 0.64546 0.46578 0.0
H2709 H 0.53235 0.67429 0.54264 0.0
H2710 H 0.52686 0.68783 0.52428 0.0
H2711 H 0.54869 0.68604 0.53069 0.0
C2712 C 0.51334 0.69886 0.46651 0.0
C2713 C 0.52796 0.71398 0.47098 0.0
C2714 C 0.51317 0.68205 0.47407 0.0
C2715 C 0.52759 0.67996 0.48632 0.0
C2716 C 0.54223 0.69503 0.49064 0.0
H2717 H 0.56451 0.59055 0.53293 0.0
H2718 H 0.56006 0.61953 0.52174 0.0
C2719 C 0.54237 0.71183 0.48322 0.0
C2720 C 0.52771 0.66185 0.4939 0.0
H2721 H 0.53717 0.6435 0.53488 0.0
C2722 C 0.52399 0.64503 0.48092 0.0
C2723 C 0.53208 0.66112 0.51369 0.0
C2724 C 0.53504 0.67826 0.52863 0.0
C2725 C 0.52516 0.62779 0.48708 0.0
C2726 C 0.53011 0.62725 0.50676 0.0
C2727 C 0.53348 0.64393 0.51978 0.0
C2728 C 0.53251 0.60963 0.51399 0.0
C2729 C 0.52163 0.61033 0.47245 0.0
C2730 C 0.51846 0.59445 0.51365 0.0
C2731 C 0.52094 0.57784 0.52022 0.0
C2732 C 0.53756 0.57602 0.52716 0.0
C2733 C 0.55155 0.59137 0.52766 0.0
C2734 C 0.54903 0.608 0.52127 0.0
H2735 H 0.52043 0.61357 0.45758 0.0
H2736 H 0.53204 0.60282 0.47483 0.0
H2737 H 0.50946 0.60067 0.47399 0.0
H2738 H 0.50557 0.59543 0.50827 0.0
H2739 H 0.50986 0.56633 0.51956 0.0
H2740 H 0.63702 0.31248 0.67919 0.0
H2741 H 0.66451 0.31076 0.69723 0.0
H2742 H 0.6385 0.28859 0.74139 0.0
H2743 H 0.611 0.29012 0.72346 0.0
H2744 H 0.68198 0.32625 0.73517 0.0
H2745 H 0.6639 0.24827 0.72509 0.0
H2746 H 0.65211 0.26181 0.71137 0.0
H2747 H 0.64886 0.25924 0.73541 0.0
C2748 C 0.63713 0.30744 0.69284 0.0
C2749 C 0.62168 0.30131 0.69975 0.0
C2750 C 0.65289 0.30644 0.70314 0.0
C2751 C 0.65357 0.29918 0.72049 0.0
C2752 C 0.63829 0.29388 0.72784 0.0
H2753 H 0.72951 0.27231 0.80306 0.0
H2754 H 0.70386 0.27686 0.78365 0.0
C2755 C 0.62255 0.2949 0.7176 0.0
C2756 C 0.6701 0.29664 0.73066 0.0
H2757 H 0.68961 0.26325 0.74653 0.0
C2758 C 0.68371 0.31248 0.73756 0.0
C2759 C 0.67241 0.27864 0.73371 0.0
C2760 C 0.65862 0.26098 0.72587 0.0
C2761 C 0.6993 0.31088 0.74799 0.0
C2762 C 0.7015 0.29289 0.75129 0.0
C2763 C 0.68797 0.27704 0.74408 0.0
C2764 C 0.71738 0.29019 0.76287 0.0
C2765 C 0.71302 0.32855 0.75595 0.0
C2766 C 0.73363 0.29587 0.75757 0.0
C2767 C 0.7484 0.29331 0.76875 0.0
C2768 C 0.74719 0.2849 0.78537 0.0
C2769 C 0.7309 0.27889 0.79039 0.0
C2770 C 0.7162 0.28148 0.77928 0.0
H2771 H 0.70781 0.3413 0.75628 0.0
H2772 H 0.71916 0.32786 0.77066 0.0
H2773 H 0.72309 0.3301 0.74677 0.0
H2774 H 0.73489 0.30222 0.74475 0.0
H2775 H 0.76076 0.29801 0.76445 0.0
H2776 H 0.041 0.32377 0.95685 0.0
H2777 H 0.04709 0.35688 0.97134 0.0
H2778 H 0.01446 0.3416 0.01267 0.0
H2779 H 1.00842 0.30858 0.99842 0.0
H2780 H 0.02306 0.37857 0.97433 0.0
H2781 H 0.05766 0.37587 0.04616 0.0
H2782 H 0.05452 0.35727 0.02625 0.0
H2783 H 0.03744 0.35889 0.0395 0.0
C2784 C 0.03534 0.32741 0.96922 0.0
C2785 C 0.02426 0.31347 0.97649 0.0
C2786 C 0.03879 0.34637 0.97745 0.0
C2787 C 0.03139 0.35175 0.99324 0.0
C2788 C 0.02059 0.33781 1.00074 0.0
H2789 H 0.0131 0.46107 0.03053 0.0
H2790 H 1.01083 0.42797 0.0187 0.0
C2791 C 0.01708 0.3189 0.99249 0.0
C2792 C 0.03406 0.37199 1.00115 0.0
H2793 H 0.04814 0.40382 0.04218 0.0
C2794 C 0.02864 0.38411 0.98914 0.0
C2795 C 0.04148 0.37929 0.02044 0.0
C2796 C 0.04827 0.36722 0.03382 0.0
C2797 C 0.03005 0.40316 0.99597 0.0
C2798 C 0.03687 0.41029 0.01543 0.0
C2799 C 0.04271 0.39831 0.02734 0.0
C2800 C 0.0382 0.4302 0.02358 0.0
C2801 C 0.02437 0.41555 0.98224 0.0
C2802 C 0.05431 0.44237 0.03089 0.0
C2803 C 0.05566 0.46133 0.03774 0.0
C2804 C 0.04091 0.46852 0.03758 0.0
C2805 C 0.02475 0.45611 0.03084 0.0
C2806 C 0.02342 0.43717 0.02393 0.0
H2807 H 0.02349 0.40928 0.96711 0.0
H2808 H 1.01147 0.41738 0.98431 0.0
H2809 H 0.03335 0.42967 0.98488 0.0
H2810 H 0.06589 0.4373 0.03089 0.0
H2811 H 0.06832 0.47038 0.04292 0.0
H2812 H 0.02476 0.77113 0.21499 0.0
H2813 H 0.9984 0.77339 0.22708 0.0
H2814 H 0.99266 0.81703 0.19317 0.0
H2815 H 0.019 0.81467 0.18073 0.0
H2816 H 0.99018 0.80334 0.24744 0.0
H2817 H 0.94584 0.78001 0.178 0.0
H2818 H 0.96761 0.7773 0.18122 0.0
H2819 H 0.96337 0.79983 0.17832 0.0
C2820 C 0.01792 0.78124 0.21006 0.0
C2821 C 0.024 0.79267 0.19679 0.0
C2822 C 1.00282 0.78251 0.21702 0.0
C2823 C 0.99334 0.79516 0.21084 0.0
C2824 C 0.99952 0.80687 0.19786 0.0
H2825 H 0.89641 0.8153 0.24053 0.0
H2826 H 0.92303 0.81701 0.22736 0.0
C2827 C 0.01467 0.8056 0.19086 0.0
C2828 C 0.97715 0.7961 0.21826 0.0
H2829 H 0.93375 0.78918 0.2048 0.0
C2830 C 0.97786 0.80027 0.2381 0.0
C2831 C 0.96102 0.79215 0.20609 0.0
C2832 C 0.95929 0.78691 0.18473 0.0
C2833 C 0.96296 0.80057 0.24608 0.0
C2834 C 0.94681 0.79625 0.23396 0.0
C2835 C 0.94611 0.79246 0.21409 0.0
C2836 C 0.93048 0.79505 0.24171 0.0
C2837 C 0.9647 0.80569 0.26746 0.0
C2838 C 0.92561 0.78193 0.2539 0.0
C2839 C 0.91046 0.78095 0.2615 0.0
C2840 C 0.8997 0.79303 0.25701 0.0
C2841 C 0.90446 0.80595 0.2445 0.0
C2842 C 0.91963 0.80687 0.23686 0.0
H2843 H 0.97794 0.81365 0.27398 0.0
H2844 H 0.95559 0.81426 0.27113 0.0
H2845 H 0.96179 0.79263 0.27394 0.0
H2846 H 0.93359 0.77241 0.2576 0.0
H2847 H 0.90737 0.77096 0.27122 0.0
H2848 H 0.55573 0.31718 0.15398 0.0
H2849 H 0.54337 0.33992 0.13845 0.0
H2850 H 0.50765 0.33892 0.17806 0.0
H2851 H 0.52007 0.31589 0.19395 0.0
H2852 H 0.50636 0.33477 0.12215 0.0
H2853 H 0.53393 0.39617 0.17978 0.0
H2854 H 0.54322 0.37602 0.17817 0.0
H2855 H 0.5227 0.37408 0.1855 0.0
C2856 C 0.54527 0.32175 0.15949 0.0
C2857 C 0.5389 0.31476 0.17523 0.0
C2858 C 0.53818 0.3347 0.15052 0.0
C2859 C 0.52462 0.34101 0.15711 0.0
C2860 C 0.51816 0.33418 0.17285 0.0
H2861 H 0.4926 0.41704 0.07952 0.0
H2862 H 0.48814 0.39414 0.10185 0.0
C2863 C 0.52527 0.32109 0.18187 0.0
C2864 C 0.5178 0.35502 0.1473 0.0
H2865 H 0.52422 0.4025 0.14926 0.0
C2866 C 0.50971 0.34957 0.12818 0.0
C2867 C 0.52229 0.37422 0.15532 0.0
C2868 C 0.53103 0.38064 0.17581 0.0
C2869 C 0.50735 0.36299 0.11633 0.0
C2870 C 0.5131 0.38229 0.12397 0.0
C2871 C 0.51983 0.38766 0.14351 0.0
C2872 C 0.51522 0.39685 0.11135 0.0
C2873 C 0.50015 0.35652 0.09538 0.0
C2874 C 0.53188 0.40603 0.10953 0.0
C2875 C 0.53446 0.41895 0.09684 0.0
C2876 C 0.5204 0.42303 0.08574 0.0
C2877 C 0.50366 0.41398 0.08773 0.0
C2878 C 0.50109 0.401 0.10051 0.0
H2879 H 0.49774 0.34103 0.09144 0.0
H2880 H 0.48785 0.36065 0.09188 0.0
H2881 H 0.50914 0.3634 0.08646 0.0
H2882 H 0.54294 0.40286 0.11766 0.0
H2883 H 0.54749 0.42545 0.09545 0.0
H2884 H 0.98136 0.31395 0.39493 0.0
H2885 H 0.95054 0.30781 0.38355 0.0
H2886 H 0.95669 0.27852 0.33006 0.0
H2887 H 0.98766 0.28457 0.3413 0.0
H2888 H 0.93309 0.31729 0.34808 0.0
H2889 H 0.92006 0.24061 0.35244 0.0
H2890 H 0.93936 0.25705 0.36519 0.0
H2891 H 0.937 0.25008 0.33987 0.0
C2892 C 0.97622 0.30628 0.3807 0.0
C2893 C 0.98695 0.29965 0.36905 0.0
C2894 C 0.95861 0.3028 0.37424 0.0
C2895 C 0.95141 0.29251 0.35612 0.0
C2896 C 0.96207 0.28629 0.34421 0.0
H2897 H 0.84545 0.2559 0.2991 0.0
H2898 H 0.87618 0.25933 0.3089 0.0
C2899 C 0.97974 0.28986 0.35061 0.0
C2900 C 0.93267 0.28826 0.34986 0.0
H2901 H 0.8964 0.25266 0.34159 0.0
C2902 C 0.92504 0.30318 0.34662 0.0
C2903 C 0.92232 0.2698 0.34792 0.0
C2904 C 0.93 0.25341 0.35163 0.0
C2905 C 0.90722 0.30012 0.34143 0.0
C2906 C 0.89679 0.28173 0.33999 0.0
C2907 C 0.90446 0.26675 0.34291 0.0
C2908 C 0.87791 0.27787 0.33527 0.0
C2909 C 0.89973 0.31654 0.33726 0.0
C2910 C 0.86861 0.28647 0.34729 0.0
C2911 C 0.85104 0.28461 0.3417 0.0
C2912 C 0.8425 0.27402 0.32403 0.0
C2913 C 0.85166 0.26432 0.31269 0.0
C2914 C 0.86923 0.26625 0.31826 0.0
H2915 H 0.90955 0.32841 0.33418 0.0
H2916 H 0.88906 0.3123 0.32488 0.0
H2917 H 0.89455 0.3217 0.34991 0.0
H2918 H 0.87506 0.29514 0.3607 0.0
H2919 H 0.84437 0.29216 0.35083 0.0
H2920 H 0.03732 0.73002 0.6355 0.0
H2921 H 0.03116 0.70431 0.60888 0.0
H2922 H 0.02845 0.66423 0.64847 0.0
H2923 H 0.03456 0.68989 0.67531 0.0
H2924 H 0.05314 0.68002 0.60517 0.0
H2925 H 0.98662 0.6406 0.60598 0.0
H2926 H 0.99512 0.66466 0.61751 0.0
H2927 H 1.00017 0.64565 0.629 0.0
C2928 C 0.03512 0.71573 0.63859 0.0
C2929 C 0.03658 0.71201 0.65757 0.0
C2930 C 0.03157 0.70107 0.62333 0.0
C2931 C 0.02924 0.68242 0.62672 0.0
C2932 C 0.02993 0.67855 0.64556 0.0
H2933 H 0.04912 0.58285 0.58012 0.0
H2934 H 0.04899 0.61406 0.59568 0.0
C2935 C 0.03352 0.69323 0.66089 0.0
C2936 C 0.02809 0.66724 0.61084 0.0
H2937 H 1.00403 0.62405 0.58924 0.0
C2938 C 0.04226 0.66794 0.6014 0.0
C2939 C 0.01382 0.65163 0.60587 0.0
C2940 C 0.99799 0.65061 0.61498 0.0
C2941 C 0.04298 0.65285 0.58793 0.0
C2942 C 0.0292 0.63676 0.5839 0.0
C2943 C 0.01458 0.63649 0.59244 0.0
C2944 C 0.03073 0.61915 0.57301 0.0
C2945 C 0.05873 0.65384 0.57867 0.0
C2946 C 0.0207 0.61194 0.55497 0.0
C2947 C 0.02099 0.59417 0.54585 0.0
C2948 C 0.03104 0.58338 0.55494 0.0
C2949 C 0.04142 0.59096 0.57273 0.0
C2950 C 0.04133 0.60874 0.58165 0.0
H2951 H 0.06636 0.66854 0.57987 0.0
H2952 H 0.06698 0.64562 0.58584 0.0
H2953 H 0.05511 0.64761 0.56333 0.0
H2954 H 1.01237 0.61982 0.54821 0.0
H2955 H 1.01276 0.58854 0.5322 0.0
H2956 H 0.56902 0.81919 0.84369 0.0
H2957 H 0.58924 0.8092 0.82445 0.0
H2958 H 0.6096 0.78371 0.87096 0.0
H2959 H 0.58962 0.79353 0.89023 0.0
H2960 H 0.62715 0.81658 0.83429 0.0
H2961 H 0.59412 0.74091 0.82359 0.0
H2962 H 0.58374 0.75939 0.83046 0.0
H2963 H 0.5981 0.75219 0.84801 0.0
C2964 C 0.57788 0.81156 0.84986 0.0
C2965 C 0.57762 0.80704 0.86845 0.0
C2966 C 0.58938 0.80586 0.83884 0.0
C2967 C 0.60062 0.79545 0.84622 0.0
C2968 C 0.60077 0.79145 0.86493 0.0
H2969 H 0.68262 0.74703 0.82829 0.0
H2970 H 0.65762 0.75714 0.83702 0.0
C2971 C 0.58939 0.79717 0.87595 0.0
C2972 C 0.61234 0.7886 0.83457 0.0
H2973 H 0.62299 0.74829 0.81755 0.0
C2974 C 0.62613 0.80168 0.83025 0.0
C2975 C 0.61082 0.76915 0.82932 0.0
C2976 C 0.59581 0.75457 0.83291 0.0
C2977 C 0.63912 0.79575 0.82188 0.0
C2978 C 0.63804 0.77626 0.81753 0.0
C2979 C 0.62378 0.76322 0.82098 0.0
C2980 C 0.65237 0.76912 0.81124 0.0
C2981 C 0.65437 0.81032 0.81879 0.0
C2982 C 0.6574 0.77214 0.79362 0.0
C2983 C 0.67167 0.76626 0.78851 0.0
C2984 C 0.68104 0.75721 0.80092 0.0
C2985 C 0.67555 0.7537 0.81828 0.0
C2986 C 0.66134 0.75957 0.82335 0.0
H2987 H 0.65454 0.82465 0.82576 0.0
H2988 H 0.66653 0.80672 0.82444 0.0
H2989 H 0.65394 0.8106 0.80323 0.0
H2990 H 0.65043 0.7792 0.78394 0.0
H2991 H 0.67544 0.76893 0.77492 0.0
H2992 H 0.49054 0.52027 0.73546 0.0
H2993 H 0.50609 0.5261 0.70883 0.0
H2994 H 0.4593 0.52907 0.67364 0.0
H2995 H 0.44383 0.52384 0.70024 0.0
H2996 H 0.5023 0.50606 0.67453 0.0
H2997 H 0.49111 0.57594 0.66473 0.0
H2998 H 0.48648 0.56513 0.68542 0.0
H2999 H 0.47135 0.55878 0.66338 0.0
C3000 C 0.48359 0.52231 0.72209 0.0
C3001 C 0.46595 0.52171 0.72006 0.0
C3002 C 0.4925 0.52565 0.70687 0.0
C3003 C 0.48397 0.52842 0.68931 0.0
C3004 C 0.46632 0.52756 0.68719 0.0
H3005 H 0.51632 0.50998 0.57959 0.0
H3006 H 0.50235 0.50853 0.60777 0.0
C3007 C 0.45744 0.52441 0.70242 0.0
C3008 C 0.49328 0.53132 0.67291 0.0
H3009 H 0.50072 0.55969 0.63883 0.0
C3010 C 0.50208 0.51789 0.66684 0.0
C3011 C 0.49327 0.54692 0.66302 0.0
C3012 C 0.4852 0.56261 0.6696 0.0
C3013 C 0.51039 0.51929 0.65087 0.0
C3014 C 0.50948 0.53426 0.64029 0.0
C3015 C 0.50118 0.54803 0.64672 0.0
C3016 C 0.51705 0.53581 0.62253 0.0
C3017 C 0.52026 0.50481 0.64568 0.0
C3018 C 0.52931 0.55206 0.62093 0.0
C3019 C 0.53704 0.55311 0.60458 0.0
C3020 C 0.53266 0.5379 0.58956 0.0
C3021 C 0.51995 0.52194 0.5909 0.0
C3022 C 0.51211 0.52099 0.60713 0.0
H3023 H 0.5242 0.49817 0.65822 0.0
H3024 H 0.51194 0.49353 0.63455 0.0
H3025 H 0.53192 0.51114 0.63998 0.0
H3026 H 0.53322 0.56376 0.63255 0.0
H3027 H 0.54679 0.56559 0.60393 0.0
H3028 H 0.84283 0.18125 0.0476 0.0
H3029 H 0.8391 0.19454 0.01786 0.0
H3030 H 0.8109 0.23132 0.04338 0.0
H3031 H 0.81425 0.21789 0.07294 0.0
H3032 H 0.79484 0.21344 1.00779 0.0
H3033 H 0.86339 0.24584 1.00709 0.0
H3034 H 0.8589 0.22118 0.00878 0.0
H3035 H 0.85592 0.23757 0.02797 0.0
C3036 C 0.83593 0.19225 0.0469 0.0
C3037 C 0.82887 0.19856 0.06261 0.0
C3038 C 0.83389 0.19989 0.02994 0.0
C3039 C 0.82493 0.21409 0.02853 0.0
C3040 C 0.8179 0.22041 0.04421 0.0
H3041 H 0.82241 0.28856 0.94392 0.0
H3042 H 0.8269 0.27414 0.97275 0.0
C3043 C 0.81985 0.21273 0.06109 0.0
C3044 C 0.82235 0.22204 0.01056 0.0
H3045 H 0.84353 0.24612 0.97949 0.0
C3046 C 0.80547 0.22059 1.00159 0.0
C3047 C 0.83626 0.23153 1.00266 0.0
C3048 C 0.85464 0.23431 0.01219 0.0
C3049 C 0.80211 0.22838 0.98489 0.0
C3050 C 0.81603 0.23749 0.97673 0.0
C3051 C 0.8329 0.23898 0.98572 0.0
C3052 C 0.81333 0.24604 0.95916 0.0
C3053 C 0.78371 0.22721 0.97642 0.0
C3054 C 0.80436 0.23497 0.94195 0.0
C3055 C 0.80156 0.2432 0.92552 0.0
C3056 C 0.80786 0.26264 0.92596 0.0
C3057 C 0.81712 0.27362 0.94317 0.0
C3058 C 0.81984 0.26538 0.95961 0.0
H3059 H 0.77497 0.22428 0.98699 0.0
H3060 H 0.78236 0.24047 0.97112 0.0
H3061 H 0.77947 0.21559 0.96418 0.0
H3062 H 0.79951 0.21995 0.94123 0.0
H3063 H 0.79427 0.23436 0.91254 0.0
H3064 H 0.15267 0.50075 0.23828 0.0
H3065 H 0.13739 0.50364 0.20714 0.0
H3066 H 0.09638 0.51733 0.23411 0.0
H3067 H 0.11195 0.51518 0.26539 0.0
H3068 H 0.10931 0.48741 0.18411 0.0
H3069 H 0.10251 0.55953 0.20482 0.0
H3070 H 0.11533 0.54848 0.22039 0.0
H3071 H 0.09239 0.54376 0.21941 0.0
C3072 C 0.14036 0.50432 0.23771 0.0
C3073 C 0.13377 0.50777 0.25477 0.0
C3074 C 0.13154 0.50603 0.21966 0.0
C3075 C 0.11571 0.51128 0.21779 0.0
C3076 C 0.10878 0.51398 0.23475 0.0
H3077 H 0.03907 0.52359 0.12301 0.0
H3078 H 0.05591 0.52084 0.15327 0.0
C3079 C 0.11767 0.51247 0.25284 0.0
C3080 C 0.10655 0.51373 0.19827 0.0
H3081 H 0.08618 0.54324 0.17495 0.0
C3082 C 0.10443 0.49976 0.18222 0.0
C3083 C 0.10006 0.52982 0.19516 0.0
C3084 C 0.10284 0.54633 0.2108 0.0
C3085 C 0.09578 0.50109 0.16383 0.0
C3086 C 0.08897 0.51695 0.1609 0.0
C3087 C 0.09121 0.53098 0.17686 0.0
C3088 C 0.07889 0.51891 0.14178 0.0
C3089 C 0.09355 0.48513 0.14775 0.0
C3090 C 0.08596 0.51911 0.1247 0.0
C3091 C 0.07624 0.52092 0.10712 0.0
C3092 C 0.05909 0.52249 0.106 0.0
C3093 C 0.05217 0.52243 0.12311 0.0
C3094 C 0.06188 0.52085 0.1406 0.0
H3095 H 0.09595 0.47221 0.15309 0.0
H3096 H 0.08041 0.48176 0.13929 0.0
H3097 H 0.10282 0.48934 0.13805 0.0
H3098 H 0.09908 0.51798 0.12494 0.0
H3099 H 0.0821 0.5208 0.09438 0.0
H3100 H 0.78837 0.87988 0.50212 0.0
H3101 H 0.78254 0.86609 0.46821 0.0
H3102 H 0.8161 0.82937 0.48027 0.0
H3103 H 0.82187 0.8429 0.51404 0.0
H3104 H 0.80663 0.86633 0.44377 0.0
H3105 H 0.77337 0.79314 0.44808 0.0
H3106 H 0.77616 0.81229 0.46735 0.0
H3107 H 0.79349 0.80126 0.46409 0.0
C3108 C 0.7943 0.86867 0.49759 0.0
C3109 C 0.80555 0.86247 0.51083 0.0
C3110 C 0.791 0.86084 0.4782 0.0
C3111 C 0.79871 0.84653 0.47171 0.0
C3112 C 0.80972 0.84012 0.48496 0.0
H3113 H 0.82127 0.81417 0.35965 0.0
H3114 H 0.82164 0.82638 0.39304 0.0
C3115 C 0.81308 0.84797 0.50429 0.0
C3116 C 0.79618 0.83906 0.45098 0.0
H3117 H 0.78363 0.79844 0.41886 0.0
C3118 C 0.80145 0.85151 0.4383 0.0
C3119 C 0.78927 0.81975 0.44378 0.0
C3120 C 0.78259 0.80585 0.45649 0.0
C3121 C 0.80054 0.84509 0.41877 0.0
C3122 C 0.79438 0.82566 0.41175 0.0
C3123 C 0.78855 0.8133 0.42429 0.0
C3124 C 0.79411 0.81789 0.3915 0.0
C3125 C 0.80613 0.8592 0.40581 0.0
C3126 C 0.77856 0.80856 0.37961 0.0
C3127 C 0.7783 0.80148 0.36047 0.0
C3128 C 0.79362 0.80343 0.35285 0.0
C3129 C 0.80921 0.81246 0.36494 0.0
C3130 C 0.80945 0.81958 0.38404 0.0
H3131 H 0.80608 0.87369 0.41211 0.0
H3132 H 0.8194 0.85913 0.40358 0.0
H3133 H 0.79765 0.85558 0.39163 0.0
H3134 H 0.76658 0.80699 0.38509 0.0
H3135 H 0.76605 0.79456 0.35164 0.0
H3136 H 0.49123 0.50232 0.82367 0.0
H3137 H 0.50274 0.5081 0.85785 0.0
H3138 H 0.46886 0.54459 0.86762 0.0
H3139 H 0.45714 0.53879 0.83333 0.0
H3140 H 0.51859 0.54219 0.88317 0.0
H3141 H 0.4577 0.50455 0.90321 0.0
H3142 H 0.46171 0.50235 0.8789 0.0
H3143 H 0.45608 0.52307 0.88926 0.0
C3144 C 0.48628 0.51169 0.83303 0.0
C3145 C 0.47317 0.52 0.82576 0.0
C3146 C 0.4929 0.51499 0.85258 0.0
C3147 C 0.4865 0.52656 0.86531 0.0
C3148 C 0.4738 0.53538 0.85807 0.0
H3149 H 0.53166 0.56292 0.98647 0.0
H3150 H 0.52056 0.56246 0.95273 0.0
C3151 C 0.46719 0.53214 0.83846 0.0
C3152 C 0.49286 0.52886 0.88618 0.0
H3153 H 0.48074 0.51821 0.92836 0.0
C3154 C 0.51031 0.53707 0.89309 0.0
C3155 C 0.48206 0.52194 0.89904 0.0
C3156 C 0.46337 0.51234 0.8923 0.0
C3157 C 0.51727 0.53851 0.91252 0.0
C3158 C 0.50644 0.53168 0.92539 0.0
C3159 C 0.48898 0.52354 0.91848 0.0
C3160 C 0.51312 0.53211 0.94592 0.0
C3161 C 0.53624 0.54679 0.91901 0.0
C3162 C 0.51233 0.51522 0.9534 0.0
C3163 C 0.51864 0.51541 0.97269 0.0
C3164 C 0.52577 0.53254 0.98496 0.0
C3165 C 0.52636 0.54947 0.97745 0.0
C3166 C 0.52008 0.54925 0.95812 0.0
H3167 H 0.54335 0.54767 0.90678 0.0
H3168 H 0.53823 0.56122 0.92683 0.0
H3169 H 0.54179 0.53829 0.9289 0.0
H3170 H 0.50695 0.50183 0.94425 0.0
H3171 H 0.51789 0.50211 0.97795 0.0
H3172 H 0.8456 0.18739 0.18101 0.0
H3173 H 0.84846 0.21319 0.20673 0.0
H3174 H 0.88247 0.25005 0.17824 0.0
H3175 H 0.87807 0.22449 0.1514 0.0
H3176 H 0.86933 0.23554 0.23208 0.0
H3177 H 0.84804 0.27927 0.17949 0.0
H3178 H 0.8491 0.25543 0.17236 0.0
H3179 H 0.86834 0.27418 0.17717 0.0
C3180 C 0.85392 0.20093 0.18045 0.0
C3181 C 0.8615 0.20414 0.1643 0.0
C3182 C 0.85557 0.21572 0.19515 0.0
C3183 C 0.86517 0.23387 0.19417 0.0
C3184 C 0.87432 0.23648 0.17894 0.0
H3185 H 0.85003 0.30758 0.2935 0.0
H3186 H 0.86731 0.29553 0.27166 0.0
C3187 C 0.87207 0.22184 0.16378 0.0
C3188 C 0.86405 0.24996 0.20822 0.0
H3189 H 0.85107 0.29113 0.21169 0.0
C3190 C 0.86546 0.24778 0.22762 0.0
C3191 C 0.85896 0.26599 0.20244 0.0
C3192 C 0.85586 0.26882 0.18174 0.0
C3193 C 0.86048 0.26009 0.24102 0.0
C3194 C 0.85513 0.27592 0.23515 0.0
C3195 C 0.85522 0.27904 0.21615 0.0
C3196 C 0.84661 0.28741 0.24737 0.0
C3197 C 0.85952 0.25496 0.26078 0.0
C3198 C 0.82986 0.28869 0.24048 0.0
C3199 C 0.82023 0.29617 0.25272 0.0
C3200 C 0.82708 0.30213 0.27211 0.0
C3201 C 0.8444 0.30276 0.27861 0.0
C3202 C 0.85418 0.2956 0.26622 0.0
H3203 H 0.86065 0.24031 0.2616 0.0
H3204 H 0.87018 0.2645 0.27121 0.0
H3205 H 0.84719 0.25641 0.26513 0.0
H3206 H 0.82374 0.2827 0.22595 0.0
H3207 H 0.80697 0.29585 0.24738 0.0
H3208 H 0.12037 0.55054 0.36083 0.0
H3209 H 0.10731 0.55251 0.38977 0.0
H3210 H 0.12112 0.50164 0.40283 0.0
H3211 H 0.13468 0.50001 0.37422 0.0
H3212 H 0.0818 0.53369 0.4024 0.0
H3213 H 0.13781 0.53064 0.45435 0.0
H3214 H 0.13933 0.53311 0.42979 0.0
H3215 H 0.13152 0.51025 0.43632 0.0
C3216 C 0.12075 0.53977 0.36986 0.0
C3217 C 0.12885 0.52516 0.36489 0.0
C3218 C 0.11316 0.54089 0.38661 0.0
C3219 C 0.11331 0.5275 0.39928 0.0
C3220 C 0.12111 0.51267 0.39408 0.0
H3221 H 0.04137 0.51355 0.48352 0.0
H3222 H 0.05556 0.51195 0.45557 0.0
C3223 C 0.12881 0.51161 0.37738 0.0
C3224 C 0.10499 0.52888 0.4174 0.0
H3225 H 0.1112 0.5269 0.46586 0.0
C3226 C 0.08838 0.53223 0.41622 0.0
C3227 C 0.11329 0.52743 0.43595 0.0
C3228 C 0.13153 0.52537 0.43927 0.0
C3229 C 0.07996 0.53375 0.4324 0.0
C3230 C 0.08793 0.53141 0.45077 0.0
C3231 C 0.10468 0.52847 0.45205 0.0
C3232 C 0.07922 0.53208 0.46864 0.0
C3233 C 0.06269 0.5385 0.42957 0.0
C3234 C 0.08766 0.54325 0.48628 0.0
C3235 C 0.07951 0.54398 0.5027 0.0
C3236 C 0.06254 0.53353 0.50224 0.0
C3237 C 0.05427 0.52211 0.48471 0.0
C3238 C 0.06244 0.52129 0.46841 0.0
H3239 H 0.06107 0.54602 0.41708 0.0
H3240 H 0.05244 0.5253 0.42675 0.0
H3241 H 0.06088 0.54742 0.4424 0.0
H3242 H 0.1006 0.5517 0.48736 0.0
H3243 H 0.08652 0.55289 0.51576 0.0
H3244 H 0.80505 0.89452 0.63714 0.0
H3245 H 0.80189 0.8765 0.66366 0.0
H3246 H 0.80978 0.82818 0.62911 0.0
H3247 H 0.81276 0.84601 0.60242 0.0
H3248 H 0.7825 0.81899 0.64787 0.0
H3249 H 0.83912 0.86182 0.69896 0.0
H3250 H 0.82478 0.87538 0.68988 0.0
H3251 H 0.83591 0.86388 0.67385 0.0
C3252 C 0.80617 0.88008 0.63515 0.0
C3253 C 0.80922 0.87178 0.61757 0.0
C3254 C 0.80449 0.86982 0.65043 0.0
C3255 C 0.8059 0.85105 0.64856 0.0
C3256 C 0.80875 0.84267 0.63098 0.0
H3257 H 0.81176 0.78539 0.74419 0.0
H3258 H 0.81843 0.80171 0.71696 0.0
C3259 C 0.81045 0.85291 0.6157 0.0
C3260 C 0.80378 0.83997 0.66468 0.0
H3261 H 0.81919 0.83962 0.71171 0.0
C3262 C 0.79061 0.82346 0.66177 0.0
C3263 C 0.81451 0.84556 0.68279 0.0
C3264 C 0.82949 0.86252 0.68656 0.0
C3265 C 0.78752 0.81279 0.67659 0.0
C3266 C 0.79772 0.81888 0.69496 0.0
C3267 C 0.81127 0.83502 0.69771 0.0
C3268 C 0.79397 0.80913 0.71162 0.0
C3269 C 0.77335 0.79503 0.67242 0.0
C3270 C 0.77817 0.80812 0.71789 0.0
C3271 C 0.7744 0.79894 0.7334 0.0
C3272 C 0.78639 0.79062 0.74315 0.0
C3273 C 0.80231 0.79176 0.73704 0.0
C3274 C 0.80611 0.80104 0.72147 0.0
H3275 H 0.77016 0.78948 0.65689 0.0
H3276 H 0.77695 0.78394 0.68026 0.0
H3277 H 0.76162 0.79813 0.6771 0.0
H3278 H 0.76872 0.81456 0.71082 0.0
H3279 H 0.76207 0.79845 0.73783 0.0
H3280 H 0.72352 0.40863 0.55429 0.0
H3281 H 0.69609 0.41589 0.55675 0.0
H3282 H 0.67185 0.3737 0.50788 0.0
H3283 H 0.6997 0.36659 0.50501 0.0
H3284 H 0.66539 0.40622 0.50267 0.0
H3285 H 0.6523 0.39486 0.57421 0.0
H3286 H 0.67414 0.40777 0.5768 0.0
H3287 H 0.66748 0.38437 0.56326 0.0
C3288 C 0.71232 0.40056 0.54428 0.0
C3289 C 0.71379 0.38719 0.52931 0.0
C3290 C 0.69654 0.40455 0.54589 0.0
C3291 C 0.6818 0.39511 0.53272 0.0
C3292 C 0.68303 0.381 0.51832 0.0
H3293 H 0.60654 0.4607 0.55507 0.0
H3294 H 0.61623 0.43173 0.54835 0.0
C3295 C 0.69893 0.37699 0.51668 0.0
C3296 C 0.66623 0.40256 0.53231 0.0
H3297 H 0.64495 0.42345 0.56309 0.0
C3298 C 0.66046 0.40943 0.51572 0.0
C3299 C 0.65933 0.40634 0.54908 0.0
C3300 C 0.66354 0.3977 0.56673 0.0
C3301 C 0.6497 0.42192 0.51619 0.0
C3302 C 0.64503 0.428 0.53379 0.0
C3303 C 0.64898 0.41926 0.54971 0.0
C3304 C 0.63828 0.44503 0.53665 0.0
C3305 C 0.64418 0.4292 0.49804 0.0
C3306 C 0.64763 0.46213 0.5326 0.0
C3307 C 0.64216 0.47863 0.53642 0.0
C3308 C 0.6274 0.47839 0.54468 0.0
C3309 C 0.61808 0.46129 0.54887 0.0
C3310 C 0.62351 0.44473 0.54491 0.0
H3311 H 0.64263 0.41833 0.48535 0.0
H3312 H 0.6319 0.43353 0.49822 0.0
H3313 H 0.65425 0.44153 0.49637 0.0
H3314 H 0.65942 0.46283 0.52688 0.0
H3315 H 0.64969 0.49165 0.53329 0.0
H3316 H 0.21105 0.13099 0.49712 0.0
H3317 H 0.18158 0.1139 0.49717 0.0
H3318 H 0.20007 0.08035 0.53713 0.0
H3319 H 0.22967 0.09701 0.53671 0.0
H3320 H 0.17398 0.05914 0.51119 0.0
H3321 H 0.15529 0.12351 0.53946 0.0
H3322 H 0.16305 0.12528 0.51725 0.0
H3323 H 0.17728 0.12312 0.53814 0.0
C3324 C 0.20889 0.11984 0.50578 0.0
C3325 C 0.22279 0.1155 0.51702 0.0
C3326 C 0.19197 0.11018 0.50594 0.0
C3327 C 0.18848 0.09618 0.51759 0.0
C3328 C 0.20236 0.09121 0.52815 0.0
H3329 H 0.08991 0.05711 0.55407 0.0
H3330 H 0.11944 0.07241 0.55157 0.0
C3331 C 0.21932 0.10074 0.52785 0.0
C3332 C 0.17042 0.08693 0.51902 0.0
H3333 H 0.13272 0.09603 0.52926 0.0
C3334 C 0.16498 0.06722 0.51518 0.0
C3335 C 0.15867 0.09738 0.52459 0.0
C3336 C 0.1639 0.11847 0.53029 0.0
C3337 C 0.14817 0.05773 0.51648 0.0
C3338 C 0.13622 0.06824 0.52126 0.0
C3339 C 0.14173 0.08793 0.52536 0.0
C3340 C 0.11809 0.0591 0.52254 0.0
C3341 C 0.14356 0.0365 0.5132 0.0
C3342 C 0.10726 0.0468 0.50696 0.0
C3343 C 0.09042 0.03794 0.50844 0.0
C3344 C 0.08392 0.04142 0.52541 0.0
C3345 C 0.09454 0.05417 0.54079 0.0
C3346 C 0.11144 0.0629 0.53937 0.0
H3347 H 0.15515 0.03077 0.51545 0.0
H3348 H 0.13477 0.03082 0.52288 0.0
H3349 H 0.13704 0.03138 0.49821 0.0
H3350 H 0.11183 0.04405 0.49361 0.0
H3351 H 0.08247 0.02833 0.49628 0.0
H3352 H 0.15954 0.9804 0.82457 0.0
H3353 H 0.17215 0.95359 0.82946 0.0
H3354 H 0.21482 0.97808 0.80302 0.0
H3355 H 0.20194 1.0043 0.79737 0.0
H3356 H 0.2036 0.94251 0.78923 0.0
H3357 H 0.21117 0.94966 0.86832 0.0
H3358 H 0.18945 0.94687 0.8568 0.0
H3359 H 0.20552 0.96755 0.85527 0.0
C3360 C 0.17167 0.98009 0.81995 0.0
C3361 C 0.17975 0.99444 0.81058 0.0
C3362 C 0.17893 0.96482 0.82286 0.0
C3363 C 0.19459 0.96389 0.81685 0.0
C3364 C 0.20273 0.97841 0.80776 0.0
H3365 H 0.26729 0.89999 0.85001 0.0
H3366 H 0.24919 0.92219 0.84701 0.0
C3367 C 0.19536 0.99343 0.80456 0.0
C3368 C 0.20236 0.9476 0.81925 0.0
H3369 H 0.21793 0.92294 0.85239 0.0
C3370 C 0.20671 0.93822 0.80306 0.0
C3371 C 0.20653 0.94206 0.8373 0.0
C3372 C 0.20309 0.95216 0.85545 0.0
C3373 C 0.21549 0.92388 0.80442 0.0
C3374 C 0.21946 0.91813 0.82242 0.0
C3375 C 0.21476 0.92721 0.83857 0.0
C3376 C 0.22966 0.90382 0.82503 0.0
C3377 C 0.22114 0.91571 0.78668 0.0
C3378 C 0.22454 0.88582 0.81407 0.0
C3379 C 0.23517 0.87323 0.81533 0.0
C3380 C 0.25099 0.87821 0.82791 0.0
C3381 C 0.25551 0.89582 0.83972 0.0
C3382 C 0.24503 0.90849 0.83821 0.0
H3383 H 0.22125 0.92509 0.77556 0.0
H3384 H 0.23418 0.91322 0.79003 0.0
H3385 H 0.21204 0.90207 0.78049 0.0
H3386 H 0.2125 0.88165 0.80421 0.0
H3387 H 0.2312 0.85985 0.80596 0.0
H3388 H 0.28612 0.90789 0.97154 0.0
H3389 H 0.31387 0.9273 0.96868 0.0
H3390 H 0.33399 0.87786 0.96166 0.0
H3391 H 0.30625 0.85826 0.96469 0.0
H3392 H 0.34928 0.90351 0.99455 0.0
H3393 H 0.34705 0.9401 0.93102 0.0
H3394 H 0.3295 0.94082 0.94373 0.0
H3395 H 0.33164 0.91861 0.93226 0.0
C3396 C 0.29624 0.90103 0.96866 0.0
C3397 C 0.29413 0.8816 0.96879 0.0
C3398 C 0.31208 0.91217 0.96687 0.0
C3399 C 0.32597 0.90401 0.96501 0.0
C3400 C 0.32337 0.88438 0.96305 0.0
H3401 H 0.43486 0.95768 0.99953 0.0
H3402 H 0.40758 0.93483 0.98752 0.0
C3403 C 0.3075 0.87321 0.96479 0.0
C3404 C 0.34357 0.91606 0.9694 0.0
H3405 H 0.36999 0.9541 0.95727 0.0
C3406 C 0.35397 0.91434 0.9862 0.0
C3407 C 0.34943 0.93037 0.95867 0.0
C3408 C 0.33888 0.93252 0.94032 0.0
C3409 C 0.36986 0.92698 0.99297 0.0
C3410 C 0.37567 0.94145 0.98238 0.0
C3411 C 0.36545 0.94297 0.96534 0.0
C3412 C 0.39219 0.95536 0.98906 0.0
C3413 C 0.3799 0.92523 0.01185 0.0
C3414 C 0.39255 0.97449 0.99356 0.0
C3415 C 0.40813 0.98759 1.00041 0.0
C3416 C 0.42356 0.98171 1.00287 0.0
C3417 C 0.42313 0.96254 0.99821 0.0
C3418 C 0.40758 0.94949 0.99126 0.0
H3419 H 0.37174 0.91655 0.02039 0.0
H3420 H 0.39041 0.91835 0.00914 0.0
H3421 H 0.38573 0.93928 0.02049 0.0
H3422 H 0.38077 0.97924 0.99195 0.0
H3423 H 0.40811 1.00228 1.00388 0.0
H3424 H 0.86074 0.59049 0.74902 0.0
H3425 H 0.84788 0.61771 0.75093 0.0
H3426 H 0.87852 0.63942 0.80645 0.0
H3427 H 0.89131 0.61206 0.80463 0.0
H3428 H 0.84715 0.6453 0.80738 0.0
H3429 H 0.86588 0.67024 0.74164 0.0
H3430 H 0.85328 0.64645 0.73719 0.0
H3431 H 0.8742 0.65214 0.75186 0.0
C3432 C 0.86487 0.60103 0.76168 0.0
C3433 C 0.87733 0.5987 0.7766 0.0
C3434 C 0.85751 0.61691 0.76271 0.0
C3435 C 0.86222 0.63138 0.77871 0.0
C3436 C 0.87446 0.62889 0.79378 0.0
H3437 H 0.8394 0.74533 0.78005 0.0
H3438 H 0.85231 0.71808 0.77823 0.0
C3439 C 0.8819 0.61305 0.79271 0.0
C3440 C 0.85431 0.64872 0.77988 0.0
H3441 H 0.84619 0.68476 0.75579 0.0
C3442 C 0.84701 0.65383 0.796 0.0
C3443 C 0.85408 0.66057 0.76542 0.0
C3444 C 0.86242 0.65724 0.74814 0.0
C3445 C 0.83943 0.66961 0.79785 0.0
C3446 C 0.83868 0.68108 0.7831 0.0
C3447 C 0.84632 0.67622 0.76717 0.0
C3448 C 0.8304 0.69814 0.78406 0.0
C3449 C 0.83268 0.67411 0.81605 0.0
C3450 C 0.81343 0.69673 0.78763 0.0
C3451 C 0.80591 0.71249 0.78862 0.0
C3452 C 0.81492 0.73054 0.78602 0.0
C3453 C 0.83182 0.73192 0.7822 0.0
C3454 C 0.83931 0.71612 0.78112 0.0
H3455 H 0.83871 0.66806 0.82799 0.0
H3456 H 0.835 0.68953 0.8204 0.0
H3457 H 0.81865 0.66793 0.81372 0.0
H3458 H 0.80577 0.68327 0.7895 0.0
H3459 H 0.79291 0.71046 0.79151 0.0
H3460 H 0.83132 0.63641 0.01618 0.0
H3461 H 0.85666 0.62311 0.01794 0.0
H3462 H 0.83831 0.59038 0.06037 0.0
H3463 H 0.81302 0.60346 0.05864 0.0
H3464 H 0.88192 0.62515 0.05036 0.0
H3465 H 0.84895 0.55097 0.02136 0.0
H3466 H 0.83875 0.57018 0.0186 0.0
H3467 H 0.84036 0.56101 0.04085 0.0
C3468 C 0.83259 0.62624 0.02575 0.0
C3469 C 0.82004 0.62096 0.03719 0.0
C3470 C 0.84712 0.61869 0.02679 0.0
C3471 C 0.84933 0.60553 0.03911 0.0
C3472 C 0.83679 0.60021 0.05048 0.0
H3473 H 0.92731 0.54325 0.06737 0.0
H3474 H 0.90245 0.55719 0.06598 0.0
C3475 C 0.82233 0.6078 0.04952 0.0
C3476 C 0.86498 0.59781 0.04059 0.0
H3477 H 0.87833 0.55686 0.03518 0.0
C3478 C 0.88115 0.61023 0.04693 0.0
C3479 C 0.864 0.57833 0.03625 0.0
C3480 C 0.84711 0.56433 0.02872 0.0
C3481 C 0.89629 0.60369 0.0494 0.0
C3482 C 0.89533 0.58419 0.045 0.0
C3483 C 0.87914 0.57178 0.03863 0.0
C3484 C 0.91094 0.57637 0.04658 0.0
C3485 C 0.91311 0.61771 0.0572 0.0
C3486 C 0.9241 0.58244 0.03617 0.0
C3487 C 0.93843 0.57462 0.0371 0.0
C3488 C 0.93994 0.56034 0.0483 0.0
C3489 C 0.92678 0.55437 0.05882 0.0
C3490 C 0.91245 0.56223 0.0579 0.0
H3491 H 0.91114 0.63073 0.06515 0.0
H3492 H 0.92166 0.61166 0.06688 0.0
H3493 H 0.9197 0.62174 0.04514 0.0
H3494 H 0.92316 0.59302 0.02703 0.0
H3495 H 0.94831 0.57976 0.02893 0.0
H3496 H 0.16473 0.11209 0.82075 0.0
H3497 H 0.18446 0.14243 0.82052 0.0
H3498 H 0.2236 0.11397 0.80757 0.0
H3499 H 0.20412 0.08368 0.80798 0.0
H3500 H 0.23585 0.14628 0.83555 0.0
H3501 H 0.19715 0.16099 0.77101 0.0
H3502 H 0.18585 0.15626 0.79053 0.0
H3503 H 0.19368 0.13801 0.77832 0.0
C3504 C 0.17758 0.11228 0.81803 0.0
C3505 C 0.18277 0.0954 0.81424 0.0
C3506 C 0.18881 0.12964 0.81777 0.0
C3507 C 0.2054 0.13043 0.81368 0.0
C3508 C 0.21082 0.11368 0.81064 0.0
H3509 H 0.29343 0.21298 0.79519 0.0
H3510 H 0.27309 0.18474 0.80026 0.0
C3511 C 0.19964 0.09636 0.81087 0.0
C3512 C 0.21705 0.14859 0.81209 0.0
H3513 H 0.22199 0.18433 0.7853 0.0
C3514 C 0.23281 0.15464 0.8246 0.0
C3515 C 0.21306 0.15948 0.79779 0.0
C3516 C 0.19659 0.15335 0.78352 0.0
C3517 C 0.24468 0.17128 0.82323 0.0
C3518 C 0.24082 0.18198 0.8087 0.0
C3519 C 0.22494 0.1761 0.7964 0.0
C3520 C 0.25322 0.19909 0.80574 0.0
C3521 C 0.26114 0.17738 0.83751 0.0
C3522 C 0.24869 0.21647 0.80669 0.0
C3523 C 0.26025 0.23254 0.80364 0.0
C3524 C 0.27644 0.23149 0.79935 0.0
C3525 C 0.28099 0.21414 0.79843 0.0
C3526 C 0.26943 0.19805 0.80145 0.0
H3527 H 0.25997 0.17091 0.85071 0.0
H3528 H 0.27155 0.17284 0.83106 0.0
H3529 H 0.26493 0.19291 0.8415 0.0
H3530 H 0.23628 0.21764 0.81004 0.0
H3531 H 0.25669 0.24586 0.80513 0.0
H3532 H 0.40419 0.98382 0.29242 0.0
H3533 H 0.38827 0.95205 0.2933 0.0
H3534 H 0.34076 0.96941 0.28357 0.0
H3535 H 0.35686 1.0015 0.28182 0.0
H3536 H 0.3704 0.9365 0.31538 0.0
H3537 H 0.32595 0.92274 0.24653 0.0
H3538 H 0.34345 0.94338 0.25296 0.0
H3539 H 0.32368 0.94264 0.26206 0.0
C3540 C 0.39032 0.98106 0.29033 0.0
C3541 C 0.382 0.99566 0.28701 0.0
C3542 C 0.38111 0.9626 0.29089 0.0
C3543 C 0.36305 0.95767 0.28829 0.0
C3544 C 0.35459 0.97225 0.2851 0.0
H3545 H 0.31299 0.85104 0.32629 0.0
H3546 H 0.32589 0.8837 0.32384 0.0
C3547 C 0.36388 0.99084 0.28427 0.0
C3548 C 0.3536 0.93753 0.28961 0.0
H3549 H 0.32092 0.89981 0.26718 0.0
C3550 C 0.3596 0.9286 0.30472 0.0
C3551 C 0.33954 0.92657 0.27574 0.0
C3552 C 0.33287 0.93422 0.2583 0.0
C3553 C 0.35225 0.90961 0.30636 0.0
C3554 C 0.33779 0.89887 0.29292 0.0
C3555 C 0.33179 0.90773 0.27774 0.0
C3556 C 0.329 0.87852 0.29421 0.0
C3557 C 0.36069 0.90113 0.3222 0.0
C3558 C 0.32536 0.86416 0.27823 0.0
C3559 C 0.31752 0.84524 0.27951 0.0
C3560 C 0.31304 0.83987 0.29686 0.0
C3561 C 0.31641 0.85429 0.31272 0.0
C3562 C 0.32402 0.87319 0.31136 0.0
H3563 H 0.37441 0.90855 0.32686 0.0
H3564 H 0.35415 0.90252 0.33477 0.0
H3565 H 0.35997 0.88602 0.31771 0.0
H3566 H 0.3288 0.8675 0.26469 0.0
H3567 H 0.31514 0.83477 0.26688 0.0
H3568 H 0.55403 0.34737 0.6426 0.0
H3569 H 0.54889 0.37431 0.62748 0.0
H3570 H 0.58701 0.36833 0.59218 0.0
H3571 H 0.59212 0.34137 0.60707 0.0
H3572 H 0.5715 0.4084 0.62627 0.0
H3573 H 0.54601 0.3703 0.55281 0.0
H3574 H 0.54809 0.35831 0.57335 0.0
H3575 H 0.56654 0.3669 0.56263 0.0
C3576 C 0.56127 0.35172 0.63155 0.0
C3577 C 0.57344 0.34209 0.62602 0.0
C3578 C 0.55832 0.36716 0.62292 0.0
C3579 C 0.56736 0.37325 0.60844 0.0
C3580 C 0.5796 0.36373 0.603 0.0
H3581 H 0.58029 0.48263 0.56933 0.0
H3582 H 0.58424 0.45449 0.58259 0.0
C3583 C 0.58258 0.34834 0.61164 0.0
C3584 C 0.56435 0.38983 0.5994 0.0
H3585 H 0.5525 0.40374 0.55644 0.0
C3586 C 0.56729 0.40735 0.61101 0.0
C3587 C 0.55867 0.3885 0.57949 0.0
C3588 C 0.55447 0.36997 0.56634 0.0
C3589 C 0.56506 0.42356 0.60326 0.0
C3590 C 0.55992 0.42235 0.58328 0.0
C3591 C 0.55662 0.40476 0.57171 0.0
C3592 C 0.5577 0.43916 0.57422 0.0
C3593 C 0.568 0.44181 0.61662 0.0
C3594 C 0.54161 0.43978 0.56439 0.0
C3595 C 0.53932 0.45589 0.55663 0.0
C3596 C 0.55311 0.47175 0.5584 0.0
C3597 C 0.56934 0.47081 0.56772 0.0
C3598 C 0.57161 0.45472 0.57547 0.0
H3599 H 0.56759 0.43945 0.63165 0.0
H3600 H 0.58084 0.4507 0.61609 0.0
H3601 H 0.55823 0.44968 0.6123 0.0
H3602 H 0.53069 0.42793 0.56309 0.0
H3603 H 0.52664 0.45602 0.54955 0.0
H3604 H 0.47481 0.78994 0.3714 0.0
H3605 H 0.44556 0.79008 0.35754 0.0
H3606 H 0.42561 0.74518 0.38797 0.0
H3607 H 0.45499 0.74479 0.4018 0.0
H3608 H 0.40901 0.73964 0.35062 0.0
H3609 H 0.41178 0.81174 0.38501 0.0
H3610 H 0.42888 0.81084 0.37166 0.0
H3611 H 0.42766 0.79904 0.3923 0.0
C3612 C 0.46424 0.78001 0.37513 0.0
C3613 C 0.46731 0.76739 0.38781 0.0
C3614 C 0.44746 0.78024 0.3673 0.0
C3615 C 0.4333 0.76796 0.37203 0.0
C3616 C 0.4363 0.75494 0.38423 0.0
H3617 H 0.32751 0.78141 0.34036 0.0
H3618 H 0.35453 0.77881 0.35913 0.0
C3619 C 0.45312 0.75469 0.3921 0.0
C3620 C 0.41544 0.76858 0.36393 0.0
H3621 H 0.38848 0.79825 0.35923 0.0
C3622 C 0.40448 0.75241 0.35266 0.0
C3623 C 0.40931 0.78512 0.36685 0.0
C3624 C 0.41995 0.80262 0.37978 0.0
C3625 C 0.38796 0.75258 0.34358 0.0
C3626 C 0.38224 0.76945 0.34555 0.0
C3627 C 0.39288 0.78537 0.35751 0.0
C3628 C 0.36574 0.77109 0.33445 0.0
C3629 C 0.37676 0.73465 0.3319 0.0
C3630 C 0.36311 0.76798 0.31439 0.0
C3631 C 0.34777 0.76952 0.30375 0.0
C3632 C 0.33468 0.77434 0.31286 0.0
C3633 C 0.33734 0.77773 0.33295 0.0
C3634 C 0.35278 0.7762 0.34366 0.0
H3635 H 0.38057 0.72206 0.33652 0.0
H3636 H 0.36303 0.73344 0.33299 0.0
H3637 H 0.37815 0.73464 0.31665 0.0
H3638 H 0.373 0.76446 0.3069 0.0
H3639 H 0.34618 0.7669 0.28829 0.0
H3640 H 0.07643 0.74804 0.10692 0.0
H3641 H 0.07446 0.7157 0.09221 0.0
H3642 H 0.04423 0.69448 0.13362 0.0
H3643 H 0.04622 0.72657 0.14846 0.0
H3644 H 0.07174 0.6781 0.13059 0.0
H3645 H 0.03406 0.67622 0.05895 0.0
H3646 H 0.05282 0.69533 0.06591 0.0
H3647 H 0.03523 0.69419 0.07888 0.0
C3648 C 0.06912 0.7365 0.11271 0.0
C3649 C 0.0615 0.73999 0.12891 0.0
C3650 C 0.06798 0.718 0.10425 0.0
C3651 C 0.05912 0.70262 0.11174 0.0
C3652 C 0.05115 0.70609 0.12759 0.0
H3653 H 0.02559 0.58412 0.06716 0.0
H3654 H 0.02854 0.61744 0.07822 0.0
C3655 C 0.05227 0.72451 0.13602 0.0
C3656 C 0.05882 0.68289 0.10386 0.0
H3657 H 0.04479 0.64949 0.06406 0.0
C3658 C 0.0659 0.67186 0.11602 0.0
C3659 C 0.05108 0.6747 0.0849 0.0
C3660 C 0.04272 0.68562 0.07139 0.0
C3661 C 0.06539 0.6529 0.10979 0.0
C3662 C 0.0578 0.64475 0.09077 0.0
C3663 C 0.05075 0.65578 0.07858 0.0
C3664 C 0.05629 0.62454 0.08358 0.0
C3665 C 0.07254 0.6416 0.12381 0.0
C3666 C 0.07093 0.61739 0.08269 0.0
C3667 C 0.06931 0.59823 0.07638 0.0
C3668 C 0.05299 0.58583 0.07076 0.0
C3669 C 0.03838 0.59315 0.07143 0.0
C3670 C 0.04002 0.61227 0.0777 0.0
H3671 H 0.07435 0.64863 0.13883 0.0
H3672 H 0.06394 0.62737 0.12247 0.0
H3673 H 0.08521 0.63991 0.12073 0.0
H3674 H 0.08363 0.62664 0.08686 0.0
H3675 H 0.08085 0.59317 0.07596 0.0
H3676 H 0.0707 0.28109 0.91273 0.0
H3677 H 0.09734 0.28536 0.89927 0.0
H3678 H 0.07397 0.2378 0.85547 0.0
H3679 H 0.04735 0.23357 0.86864 0.0
H3680 H 0.11805 0.25996 0.89478 0.0
H3681 H 0.09398 0.27766 0.82439 0.0
H3682 H 0.08232 0.27825 0.84416 0.0
H3683 H 0.0814 0.25624 0.82976 0.0
C3684 C 0.07116 0.27168 0.90009 0.0
C3685 C 0.05681 0.25705 0.89172 0.0
C3686 C 0.08643 0.2741 0.89245 0.0
C3687 C 0.08764 0.26206 0.87618 0.0
C3688 C 0.07329 0.24752 0.86777 0.0
H3689 H 0.16627 0.24624 0.80879 0.0
H3690 H 0.14036 0.24381 0.82327 0.0
C3691 C 0.05807 0.24507 0.8754 0.0
C3692 C 0.10403 0.26416 0.86841 0.0
H3693 H 0.12135 0.27037 0.82788 0.0
C3694 C 0.11881 0.2624 0.8802 0.0
C3695 C 0.10505 0.26728 0.84936 0.0
C3696 C 0.0899 0.27015 0.83622 0.0
C3697 C 0.1344 0.26315 0.87333 0.0
C3698 C 0.13537 0.26608 0.85421 0.0
C3699 C 0.12063 0.26803 0.84249 0.0
C3700 C 0.15149 0.26714 0.84603 0.0
C3701 C 0.14954 0.26021 0.88644 0.0
C3702 C 0.16646 0.28105 0.85395 0.0
C3703 C 0.18138 0.28239 0.84578 0.0
C3704 C 0.18168 0.2699 0.82939 0.0
C3705 C 0.16667 0.25591 0.82157 0.0
C3706 C 0.15176 0.2546 0.82975 0.0
H3707 H 0.14551 0.25317 0.89857 0.0
H3708 H 0.15678 0.25162 0.87856 0.0
H3709 H 0.15834 0.27407 0.89245 0.0
H3710 H 0.16654 0.29112 0.86629 0.0
H3711 H 0.19268 0.29327 0.85231 0.0
H3712 H 0.55421 0.77172 0.95975 0.0
H3713 H 0.54559 0.74379 0.97465 0.0
H3714 H 0.49987 0.72465 0.93201 0.0
H3715 H 0.50839 0.7528 0.91688 0.0
H3716 H 0.51077 0.73 0.9875 0.0
H3717 H 0.52832 0.6816 0.93164 0.0
H3718 H 0.53776 0.70658 0.93535 0.0
H3719 H 0.51564 0.69777 0.92473 0.0
C3720 C 0.54229 0.76164 0.95352 0.0
C3721 C 0.53201 0.7644 0.93708 0.0
C3722 C 0.53736 0.74574 0.96211 0.0
C3723 C 0.52215 0.73226 0.95437 0.0
C3724 C 0.51169 0.73497 0.9381 0.0
H3725 H 0.50914 0.62384 0.99669 0.0
H3726 H 0.5014 0.64783 0.97852 0.0
C3727 C 0.51657 0.75101 0.92952 0.0
C3728 C 0.51785 0.71515 0.96326 0.0
H3729 H 0.52333 0.67045 0.96029 0.0
C3730 C 0.51312 0.71681 0.98142 0.0
C3731 C 0.52081 0.698 0.95515 0.0
C3732 C 0.52594 0.69571 0.93565 0.0
C3733 C 0.51222 0.70201 0.9922 0.0
C3734 C 0.51657 0.68539 0.98474 0.0
C3735 C 0.52009 0.68326 0.96601 0.0
C3736 C 0.51968 0.67111 0.99683 0.0
C3737 C 0.50715 0.70452 0.01171 0.0
C3738 C 0.53251 0.67628 0.01311 0.0
C3739 C 0.53705 0.66265 0.0234 0.0
C3740 C 0.52893 0.64355 0.01752 0.0
C3741 C 0.51578 0.63844 1.00145 0.0
C3742 C 0.51125 0.6521 0.99114 0.0
H3743 H 0.4986 0.71439 0.01245 0.0
H3744 H 0.50053 0.6909 0.01544 0.0
H3745 H 0.51885 0.71059 0.02258 0.0
H3746 H 0.53953 0.69081 0.01743 0.0
H3747 H 0.54742 0.66702 0.0355 0.0
H3748 H 0.10742 0.75749 0.74697 0.0
H3749 H 0.13866 0.76403 0.75607 0.0
H3750 H 0.1449 0.78969 0.70538 0.0
H3751 H 0.11388 0.78379 0.69652 0.0
H3752 H 0.16117 0.75122 0.73723 0.0
H3753 H 0.17712 0.82901 0.74552 0.0
H3754 H 0.15544 0.81521 0.74363 0.0
H3755 H 0.16489 0.81837 0.72248 0.0
C3756 C 0.11546 0.76473 0.7379 0.0
C3757 C 0.10818 0.77023 0.7211 0.0
C3758 C 0.13329 0.76843 0.74309 0.0
C3759 C 0.14409 0.77764 0.73156 0.0
C3760 C 0.13683 0.78306 0.71477 0.0
H3761 H 0.25074 0.77113 0.73606 0.0
H3762 H 0.22034 0.76926 0.72505 0.0
C3763 C 0.11906 0.77956 0.70968 0.0
C3764 C 0.16293 0.7807 0.73651 0.0
H3765 H 0.20051 0.81436 0.74391 0.0
C3766 C 0.16978 0.76503 0.7388 0.0
C3767 C 0.17411 0.79877 0.73871 0.0
C3768 C 0.16751 0.81632 0.73765 0.0
C3769 C 0.18753 0.7669 0.74309 0.0
C3770 C 0.19873 0.78486 0.74452 0.0
C3771 C 0.19189 0.80056 0.74242 0.0
C3772 C 0.21754 0.78782 0.7496 0.0
C3773 C 0.19407 0.74971 0.74659 0.0
C3774 C 0.22622 0.79978 0.7664 0.0
C3775 C 0.24358 0.80115 0.77254 0.0
C3776 C 0.2526 0.79049 0.76202 0.0
C3777 C 0.24413 0.7794 0.74456 0.0
C3778 C 0.22674 0.77818 0.73834 0.0
H3779 H 0.18385 0.73827 0.7497 0.0
H3780 H 0.19866 0.74429 0.73362 0.0
H3781 H 0.20494 0.75317 0.75874 0.0
H3782 H 0.21939 0.80746 0.77522 0.0
H3783 H 0.24969 0.80993 0.78599 0.0
H3784 H 0.06899 0.36794 0.44186 0.0
H3785 H 0.07356 0.39553 0.46647 0.0
H3786 H 0.02679 0.3704 0.48573 0.0
H3787 H 0.02262 0.34269 0.46197 0.0
H3788 H 0.05527 0.4198 0.46985 0.0
H3789 H 0.05681 0.38821 0.53603 0.0
H3790 H 0.05828 0.37532 0.5135 0.0
H3791 H 0.03763 0.37638 0.51972 0.0
C3792 C 0.05987 0.36823 0.45158 0.0
C3793 C 0.04551 0.35313 0.45006 0.0
C3794 C 0.06249 0.38396 0.46564 0.0
C3795 C 0.05073 0.38489 0.47828 0.0
C3796 C 0.0364 0.36978 0.47669 0.0
H3797 H 0.02285 0.48353 0.5241 0.0
H3798 H 0.02572 0.4542 0.50666 0.0
C3799 C 0.03393 0.35399 0.46291 0.0
C3800 C 0.05237 0.40226 0.4919 0.0
H3801 H 0.04784 0.41774 0.53744 0.0
C3802 C 0.05396 0.41938 0.48472 0.0
C3803 C 0.05106 0.4019 0.51145 0.0
C3804 C 0.05106 0.38447 0.52063 0.0
C3805 C 0.05327 0.43586 0.4962 0.0
C3806 C 0.0502 0.43504 0.51517 0.0
C3807 C 0.04969 0.41824 0.52274 0.0
C3808 C 0.04705 0.45138 0.52709 0.0
C3809 C 0.05579 0.45395 0.4878 0.0
C3810 C 0.05717 0.45872 0.5451 0.0
C3811 C 0.05514 0.47521 0.55542 0.0
C3812 C 0.04307 0.48459 0.54774 0.0
C3813 C 0.03227 0.47658 0.5303 0.0
C3814 C 0.03409 0.45999 0.5202 0.0
H3815 H 0.0637 0.45364 0.47628 0.0
H3816 H 0.04312 0.45583 0.48136 0.0
H3817 H 0.0621 0.46631 0.49887 0.0
H3818 H 0.0671 0.45216 0.5508 0.0
H3819 H 0.06367 0.48115 0.56882 0.0
H3820 H 0.51397 0.28461 0.23263 0.0
H3821 H 0.49019 0.28964 0.24856 0.0
H3822 H 0.49883 0.24884 0.28511 0.0
H3823 H 0.52275 0.24369 0.26927 0.0
H3824 H 0.46064 0.25952 0.25024 0.0
H3825 H 0.49562 0.29652 0.32188 0.0
H3826 H 0.5059 0.29572 0.30099 0.0
H3827 H 0.50118 0.2753 0.31254 0.0
C3828 C 0.51094 0.27681 0.24417 0.0
C3829 C 0.52021 0.26372 0.24967 0.0
C3830 C 0.49736 0.27971 0.25324 0.0
C3831 C 0.4929 0.26971 0.26806 0.0
C3832 C 0.50227 0.25685 0.27385 0.0
H3833 H 0.39337 0.26076 0.30488 0.0
H3834 H 0.42009 0.25329 0.29784 0.0
C3835 C 0.51585 0.25388 0.26472 0.0
C3836 C 0.47776 0.272 0.27658 0.0
H3837 H 0.46535 0.29028 0.317 0.0
C3838 C 0.46161 0.26611 0.26488 0.0
C3839 C 0.47921 0.28067 0.29564 0.0
C3840 C 0.49639 0.28756 0.30855 0.0
C3841 C 0.44681 0.26892 0.27164 0.0
C3842 C 0.44823 0.27768 0.29068 0.0
C3843 C 0.46436 0.2834 0.30248 0.0
C3844 C 0.43319 0.28223 0.29792 0.0
C3845 C 0.42984 0.26309 0.25818 0.0
C3846 C 0.43206 0.301 0.30103 0.0
C3847 C 0.41684 0.30531 0.30496 0.0
C3848 C 0.40252 0.29088 0.30587 0.0
C3849 C 0.40409 0.27215 0.30392 0.0
C3850 C 0.41933 0.26786 0.29998 0.0
H3851 H 0.43146 0.25956 0.24309 0.0
H3852 H 0.42175 0.25048 0.26233 0.0
H3853 H 0.42286 0.27447 0.25906 0.0
H3854 H 0.44267 0.31225 0.29945 0.0
H3855 H 0.416 0.31985 0.30622 0.0
H3856 H 0.63925 0.52313 0.37115 0.0
H3857 H 0.62809 0.51818 0.40085 0.0
H3858 H 0.59456 0.55504 0.3892 0.0
H3859 H 0.60589 0.56039 0.35985 0.0
H3860 H 0.61122 0.56305 0.42594 0.0
H3861 H 0.58234 0.48623 0.40738 0.0
H3862 H 0.60477 0.49316 0.40604 0.0
H3863 H 0.58942 0.50057 0.38984 0.0
C3864 C 0.62941 0.53008 0.37486 0.0
C3865 C 0.62343 0.54211 0.36308 0.0
C3866 C 0.62298 0.52716 0.39181 0.0
C3867 C 0.6103 0.53604 0.39718 0.0
C3868 C 0.60431 0.54801 0.38538 0.0
H3869 H 0.54146 0.53694 0.4766 0.0
H3870 H 0.55892 0.54084 0.45135 0.0
C3871 C 0.61078 0.55101 0.36855 0.0
C3872 C 0.60345 0.53337 0.41524 0.0
H3873 H 0.58083 0.50057 0.43823 0.0
C3874 C 0.60467 0.54936 0.42865 0.0
C3875 C 0.59494 0.51549 0.41886 0.0
C3876 C 0.59262 0.49788 0.40473 0.0
C3877 C 0.59732 0.54801 0.44529 0.0
C3878 C 0.58848 0.53024 0.44864 0.0
C3879 C 0.58773 0.51416 0.43564 0.0
C3880 C 0.5785 0.52837 0.46452 0.0
C3881 C 0.59877 0.56563 0.45907 0.0
C3882 C 0.58376 0.52006 0.48033 0.0
C3883 C 0.57382 0.51794 0.49492 0.0
C3884 C 0.55839 0.52385 0.4937 0.0
C3885 C 0.55327 0.53223 0.4779 0.0
C3886 C 0.56324 0.53451 0.46349 0.0
H3887 H 0.60888 0.57754 0.4566 0.0
H3888 H 0.58633 0.56975 0.45725 0.0
H3889 H 0.60167 0.5631 0.47407 0.0
H3890 H 0.59549 0.5152 0.48135 0.0
H3891 H 0.57803 0.51138 0.50693 0.0
H3892 H 0.26886 0.80919 0.04087 0.0
H3893 H 0.28461 0.80123 0.06926 0.0
H3894 H 0.31497 0.85843 0.08313 0.0
H3895 H 0.29878 0.86668 0.05521 0.0
H3896 H 0.31861 0.80293 0.08115 0.0
H3897 H 0.29517 0.8515 0.13113 0.0
H3898 H 0.28651 0.84609 0.10597 0.0
H3899 H 0.30699 0.86235 0.11424 0.0
C3900 C 0.27885 0.82007 0.05002 0.0
C3901 C 0.2824 0.83861 0.04606 0.0
C3902 C 0.28792 0.81549 0.06613 0.0
C3903 C 0.30079 0.82932 0.07841 0.0
C3904 C 0.30481 0.84768 0.07408 0.0
H3905 H 0.33447 0.81157 0.19435 0.0
H3906 H 0.33982 0.82366 0.1647 0.0
C3907 C 0.29554 0.85235 0.05815 0.0
C3908 C 0.30919 0.82455 0.09626 0.0
H3909 H 0.31142 0.83238 0.14459 0.0
C3910 C 0.3173 0.80955 0.09507 0.0
C3911 C 0.3076 0.83336 0.11439 0.0
C3912 C 0.29849 0.84911 0.11661 0.0
C3913 C 0.32293 0.80238 0.11149 0.0
C3914 C 0.32033 0.81043 0.12943 0.0
C3915 C 0.31348 0.82634 0.13077 0.0
C3916 C 0.32126 0.8007 0.14631 0.0
C3917 C 0.33092 0.78577 0.10945 0.0
C3918 C 0.30952 0.78347 0.14566 0.0
C3919 C 0.30617 0.77673 0.16252 0.0
C3920 C 0.31453 0.78714 0.18034 0.0
C3921 C 0.32754 0.80345 0.18085 0.0
C3922 C 0.33077 0.81027 0.16394 0.0
H3923 H 0.33743 0.78551 0.09674 0.0
H3924 H 0.34035 0.78599 0.12238 0.0
H3925 H 0.3207 0.7726 0.10748 0.0
H3926 H 0.30176 0.77607 0.13223 0.0
H3927 H 0.29595 0.76425 0.16154 0.0
H3928 H 0.96964 0.51727 0.83956 0.0
H3929 H 0.98431 0.51613 0.87165 0.0
H3930 H 0.9669 0.56409 0.89407 0.0
H3931 H 0.95198 0.5651 0.86201 0.0
H3932 H 1.00991 0.53922 0.89641 0.0
H3933 H 0.95279 0.53006 0.93193 0.0
H3934 H 0.95115 0.52813 0.90629 0.0
H3935 H 0.95617 0.55089 0.92084 0.0
C3936 C 0.96889 0.52763 0.85127 0.0
C3937 C 0.95945 0.54126 0.8479 0.0
C3938 C 0.97736 0.52695 0.86979 0.0
C3939 C 0.97663 0.53976 0.88578 0.0
C3940 C 0.96746 0.55362 0.88237 0.0
H3941 H 0.04882 0.56208 0.99518 0.0
H3942 H 0.0328 0.56272 0.96374 0.0
C3943 C 0.959 0.55433 0.86383 0.0
C3944 C 0.9857 0.53876 0.90573 0.0
H3945 H 0.97986 0.53631 0.95235 0.0
C3946 C 1.00323 0.53856 0.90856 0.0
C3947 C 0.97723 0.53754 0.92191 0.0
C3948 C 0.95827 0.53647 0.92012 0.0
C3949 C 1.01242 0.53763 0.92673 0.0
C3950 C 1.00412 0.53714 0.94305 0.0
C3951 C 0.98649 0.53689 0.94016 0.0
C3952 C 0.01356 0.53703 0.96305 0.0
C3953 C 0.03097 0.53676 0.9281 0.0
C3954 C 1.008 0.52282 0.97407 0.0
C3955 C 0.01723 0.52248 0.99238 0.0
C3956 C 0.03224 0.53649 1.00041 0.0
C3957 C 0.03745 0.55094 0.98959 0.0
C3958 C 0.02829 0.55124 0.97137 0.0
H3959 H 0.03389 0.53147 0.91402 0.0
H3960 H 0.03929 0.55111 0.93292 0.0
H3961 H 0.03432 0.52752 0.93852 0.0
H3962 H 0.99668 0.51167 0.96832 0.0
H3963 H 1.01276 0.51107 1.0001 0.0
H3964 H 0.26855 0.20779 0.56916 0.0
H3965 H 0.27006 0.22457 0.60125 0.0
H3966 H 0.29608 0.18551 0.62566 0.0
H3967 H 0.29444 0.16854 0.59375 0.0
H3968 H 0.26901 0.19031 0.64328 0.0
H3969 H 0.31037 0.2597 0.63805 0.0
H3970 H 0.29185 0.25181 0.61956 0.0
H3971 H 0.30835 0.23897 0.62092 0.0
C3972 C 0.27483 0.20292 0.58132 0.0
C3973 C 0.28138 0.18678 0.57878 0.0
C3974 C 0.27573 0.21259 0.59969 0.0
C3975 C 0.28331 0.20641 0.61591 0.0
C3976 C 0.29018 0.19056 0.61339 0.0
H3977 H 0.31307 0.26241 0.73312 0.0
H3978 H 0.31155 0.24825 0.70013 0.0
C3979 C 0.28926 0.18089 0.59507 0.0
C3980 C 0.28336 0.21578 0.63559 0.0
H3981 H 0.29759 0.25751 0.66592 0.0
C3982 C 0.27526 0.20501 0.64822 0.0
C3983 C 0.29163 0.23492 0.64212 0.0
C3984 C 0.30119 0.24702 0.62954 0.0
C3985 C 0.27517 0.21283 0.66713 0.0
C3986 C 0.28316 0.23206 0.67355 0.0
C3987 C 0.29131 0.24282 0.66095 0.0
C3988 C 0.28382 0.24104 0.69353 0.0
C3989 C 0.26692 0.20027 0.6802 0.0
C3990 C 0.26873 0.24196 0.70083 0.0
C3991 C 0.26952 0.25004 0.71981 0.0
C3992 C 0.28545 0.25747 0.73188 0.0
C3993 C 0.30054 0.2568 0.72437 0.0
C3994 C 0.29972 0.24873 0.70543 0.0
H3995 H 0.26516 0.18513 0.67463 0.0
H3996 H 0.27475 0.20334 0.69475 0.0
H3997 H 0.25409 0.20281 0.68144 0.0
H3998 H 0.25631 0.23646 0.69184 0.0
H3999 H 0.25764 0.2504 0.72501 0.0
H4000 H 0.63917 0.51609 0.24469 0.0
H4001 H 0.62481 0.51417 0.21188 0.0
H4002 H 0.59099 0.54692 0.23201 0.0
H4003 H 0.60508 0.54864 0.265 0.0
H4004 H 0.5741 0.51756 0.20326 0.0
H4005 H 0.63296 0.55853 0.18242 0.0
H4006 H 0.6359 0.53784 0.19211 0.0
H4007 H 0.63096 0.55666 0.20701 0.0
C4008 C 0.62857 0.52274 0.24221 0.0
C4009 C 0.62341 0.53268 0.25752 0.0
C4010 C 0.62044 0.52173 0.22339 0.0
C4011 C 0.6071 0.53079 0.21943 0.0
C4012 C 0.60136 0.53995 0.23472 0.0
H4013 H 0.57387 0.561 0.10851 0.0
H4014 H 0.58513 0.561 0.14209 0.0
C4015 C 0.60943 0.5409 0.25358 0.0
C4016 C 0.59949 0.53114 0.19934 0.0
H4017 H 0.60956 0.54474 0.15734 0.0
C4018 C 0.58183 0.52353 0.19322 0.0
C4019 C 0.60953 0.53926 0.18633 0.0
C4020 C 0.62835 0.54871 0.1923 0.0
C4021 C 0.57401 0.52348 0.17435 0.0
C4022 C 0.58419 0.53094 0.16115 0.0
C4023 C 0.60178 0.53885 0.16739 0.0
C4024 C 0.57688 0.53084 0.14083 0.0
C4025 C 0.55487 0.51575 0.16887 0.0
C4026 C 0.56864 0.51387 0.12884 0.0
C4027 C 0.56211 0.51383 0.10964 0.0
C4028 C 0.56385 0.53075 0.10194 0.0
C4029 C 0.57227 0.54771 0.11394 0.0
C4030 C 0.57873 0.54774 0.13316 0.0
H4031 H 0.5484 0.51571 0.18161 0.0
H4032 H 0.54913 0.52406 0.15889 0.0
H4033 H 0.55224 0.50102 0.16162 0.0
H4034 H 0.56743 0.5006 0.13427 0.0
H4035 H 0.55579 0.50049 0.10084 0.0
H4036 H 0.21267 0.8253 0.94148 0.0
H4037 H 0.20311 0.81122 0.90791 0.0
H4038 H 0.22983 0.76759 0.91739 0.0
H4039 H 0.23872 0.78107 0.9507 0.0
H4040 H 0.22702 0.81414 0.88824 0.0
H4041 H 0.1952 0.73939 0.87391 0.0
H4042 H 0.19499 0.75363 0.89621 0.0
H4043 H 0.21215 0.74194 0.89361 0.0
C4044 C 0.21568 0.81212 0.93659 0.0
C4045 C 0.22682 0.80453 0.94851 0.0
C4046 C 0.21022 0.80409 0.91737 0.0
C4047 C 0.21586 0.78842 0.90995 0.0
C4048 C 0.225 0.77945 0.92261 0.0
H4049 H 0.28569 0.78006 0.84224 0.0
H4050 H 0.26598 0.78642 0.86387 0.0
C4051 C 0.23033 0.78737 0.94175 0.0
C4052 C 0.21676 0.78468 0.88928 0.0
H4053 H 0.22025 0.74889 0.85637 0.0
C4054 C 0.22487 0.79987 0.88096 0.0
C4055 C 0.2137 0.76619 0.87932 0.0
C4056 C 0.20334 0.74946 0.88624 0.0
C4057 C 0.23205 0.79686 0.86449 0.0
C4058 C 0.23136 0.77827 0.85639 0.0
C4059 C 0.22128 0.76316 0.86307 0.0
C4060 C 0.24295 0.77441 0.843 0.0
C4061 C 0.24126 0.81355 0.85652 0.0
C4062 C 0.23646 0.76518 0.8243 0.0
C4063 C 0.24772 0.76165 0.81193 0.0
C4064 C 0.26558 0.7672 0.81818 0.0
C4065 C 0.27201 0.77602 0.83701 0.0
C4066 C 0.26077 0.77963 0.84933 0.0
H4067 H 0.23663 0.82631 0.86069 0.0
H4068 H 0.25521 0.81664 0.86214 0.0
H4069 H 0.2394 0.81052 0.84068 0.0
H4070 H 0.22275 0.76093 0.81925 0.0
H4071 H 0.24246 0.75481 0.79741 0.0
H4072 H 0.9666 0.5473 0.75248 0.0
H4073 H 0.98036 0.54534 0.72405 0.0
H4074 H 0.93311 0.54653 0.68878 0.0
H4075 H 0.91962 0.54942 0.71725 0.0
H4076 H 0.97808 0.52211 0.69444 0.0
H4077 H 0.96182 0.58271 0.66418 0.0
H4078 H 0.95787 0.57817 0.6876 0.0
H4079 H 0.94279 0.56603 0.66653 0.0
C4080 C 0.95913 0.54746 0.73873 0.0
C4081 C 0.94187 0.54884 0.73761 0.0
C4082 C 0.96708 0.54622 0.72223 0.0
C4083 C 0.95819 0.54618 0.7037 0.0
C4084 C 0.94084 0.54725 0.70257 0.0
H4085 H 0.98371 0.52648 0.5858 0.0
H4086 H 0.96927 0.52924 0.61384 0.0
C4087 C 0.93296 0.54877 0.7191 0.0
C4088 C 0.96686 0.54439 0.68581 0.0
H4089 H 0.97237 0.56176 0.64356 0.0
C4090 C 0.97683 0.53099 0.6835 0.0
C4091 C 0.96563 0.55576 0.671 0.0
C4092 C 0.95661 0.5716 0.67252 0.0
C4093 C 0.98505 0.5285 0.66727 0.0
C4094 C 0.98355 0.53963 0.65241 0.0
C4095 C 0.97358 0.55297 0.6546 0.0
C4096 C 0.9925 0.53789 0.63487 0.0
C4097 C 0.99512 0.51359 0.666 0.0
C4098 C 1.01057 0.54193 0.63673 0.0
C4099 C 0.01891 0.54057 0.62058 0.0
C4100 C 1.00962 0.53489 0.60175 0.0
C4101 C 0.99151 0.53077 0.59987 0.0
C4102 C 0.98315 0.53242 0.61606 0.0
H4103 H 0.99194 0.50337 0.676 0.0
H4104 H 0.99266 0.50581 0.65122 0.0
H4105 H 1.00903 0.5204 0.66973 0.0
H4106 H 0.01835 0.54643 0.65079 0.0
H4107 H 0.03281 0.54399 0.62294 0.0
H4108 H 0.24439 0.19553 0.4698 0.0
H4109 H 0.24704 0.21094 0.44152 0.0
H4110 H 0.29951 0.20623 0.44522 0.0
H4111 H 0.29654 0.18979 0.47294 0.0
H4112 H 0.26482 0.242 0.43584 0.0
H4113 H 0.28412 0.18707 0.39034 0.0
H4114 H 0.27698 0.18313 0.41266 0.0
H4115 H 0.2989 0.19499 0.41235 0.0
C4116 C 0.25647 0.19764 0.46451 0.0
C4117 C 0.27022 0.1913 0.47357 0.0
C4118 C 0.25799 0.20651 0.4483 0.0
C4119 C 0.27338 0.20953 0.44082 0.0
C4120 C 0.28729 0.20356 0.45016 0.0
H4121 H 0.29797 0.29332 0.36533 0.0
H4122 H 0.29371 0.27656 0.39248 0.0
C4123 C 0.28564 0.1943 0.46616 0.0
C4124 C 0.27491 0.21943 0.4237 0.0
H4125 H 0.28759 0.21707 0.37989 0.0
C4126 C 0.26969 0.23642 0.42357 0.0
C4127 C 0.28093 0.21213 0.40738 0.0
C4128 C 0.28536 0.19323 0.40557 0.0
C4129 C 0.27051 0.24633 0.40788 0.0
C4130 C 0.27746 0.23959 0.39204 0.0
C4131 C 0.28245 0.22247 0.39204 0.0
C4132 C 0.27973 0.25002 0.37538 0.0
C4133 C 0.2634 0.26364 0.40833 0.0
C4134 C 0.27386 0.2407 0.35649 0.0
C4135 C 0.27672 0.25019 0.34087 0.0
C4136 C 0.28536 0.26929 0.34374 0.0
C4137 C 0.29104 0.27868 0.36259 0.0
C4138 C 0.28848 0.2691 0.37819 0.0
H4139 H 0.25339 0.26302 0.41757 0.0
H4140 H 0.2739 0.27623 0.4144 0.0
H4141 H 0.25773 0.26542 0.39379 0.0
H4142 H 0.26716 0.22598 0.35381 0.0
H4143 H 0.27238 0.24248 0.32654 0.0
H4144 H 0.39041 0.6179 0.61163 0.0
H4145 H 0.40306 0.60013 0.58883 0.0
H4146 H 0.37351 0.61731 0.54201 0.0
H4147 H 0.36139 0.63578 0.56477 0.0
H4148 H 0.38692 0.57098 0.56258 0.0
H4149 H 0.41999 0.62787 0.52659 0.0
H4150 H 0.41153 0.63265 0.54822 0.0
H4151 H 0.39743 0.62612 0.52551 0.0
C4152 C 0.3868 0.61809 0.59649 0.0
C4153 C 0.37499 0.62826 0.58998 0.0
C4154 C 0.39399 0.60791 0.58347 0.0
C4155 C 0.38936 0.60754 0.56371 0.0
C4156 C 0.3776 0.61776 0.55717 0.0
H4157 H 0.42092 0.51772 0.49583 0.0
H4158 H 0.40188 0.53802 0.50413 0.0
C4159 C 0.37061 0.62822 0.57021 0.0
C4160 C 0.39629 0.59565 0.55013 0.0
H4161 H 0.42063 0.59683 0.5147 0.0
C4162 C 0.39422 0.57659 0.55203 0.0
C4163 C 0.40573 0.60304 0.53633 0.0
C4164 C 0.40896 0.62357 0.5341 0.0
C4165 C 0.40208 0.5649 0.54127 0.0
C4166 C 0.4117 0.5723 0.52759 0.0
C4167 C 0.41308 0.59115 0.52502 0.0
C4168 C 0.42256 0.56162 0.51814 0.0
C4169 C 0.40088 0.54512 0.54561 0.0
C4170 C 0.44041 0.56874 0.52181 0.0
C4171 C 0.45122 0.55739 0.51671 0.0
C4172 C 0.44438 0.53865 0.50796 0.0
C4173 C 0.42649 0.53205 0.50276 0.0
C4174 C 0.41564 0.54358 0.5076 0.0
H4175 H 0.396 0.54304 0.5592 0.0
H4176 H 0.39191 0.53501 0.53393 0.0
H4177 H 0.41362 0.54167 0.54668 0.0
H4178 H 0.44605 0.58263 0.52986 0.0
H4179 H 0.46494 0.56285 0.52106 0.0
H4180 H 0.87431 0.91377 0.56153 0.0
H4181 H 0.90248 0.93287 0.55935 0.0
H4182 H 0.88652 0.98322 0.57744 0.0
H4183 H 0.85812 0.96415 0.57969 0.0
H4184 H 0.90345 0.98436 0.54436 0.0
H4185 H 0.94072 0.96125 0.60443 0.0
H4186 H 0.9269 0.94243 0.58726 0.0
H4187 H 0.91771 0.95805 0.60149 0.0
C4188 C 0.87673 0.9289 0.56515 0.0
C4189 C 0.86387 0.93738 0.57086 0.0
C4190 C 0.89293 0.93981 0.56397 0.0
C4191 C 0.89672 0.95948 0.56845 0.0
C4192 C 0.88392 0.96806 0.57402 0.0
H4193 H 0.99841 0.03571 0.58284 0.0
H4194 H 0.97001 0.01836 0.58716 0.0
C4195 C 0.86769 0.95712 0.57533 0.0
C4196 C 0.91392 0.97098 0.56685 0.0
H4197 H 0.95679 0.97865 0.58415 0.0
C4198 C 0.9151 0.98319 0.55313 0.0
C4199 C 0.92914 0.96957 0.57838 0.0
C4200 C 0.92863 0.95725 0.59385 0.0
C4201 C 0.9311 0.99367 0.55033 0.0
C4202 C 0.94635 0.9918 0.56144 0.0
C4203 C 0.94513 0.97995 0.57549 0.0
C4204 C 0.96367 1.00213 0.5588 0.0
C4205 C 0.93156 1.00678 0.53558 0.0
C4206 C 0.9697 0.9986 0.54152 0.0
C4207 C 0.98596 1.00844 0.53906 0.0
C4208 C 0.99651 0.02201 0.55383 0.0
C4209 C 0.99054 0.02539 0.57118 0.0
C4210 C 0.97433 0.01547 0.57367 0.0
H4211 H 0.91886 1.00992 0.53149 0.0
H4212 H 0.94124 0.02022 0.54099 0.0
H4213 H 0.9352 1.00011 0.52253 0.0
H4214 H 0.96183 0.98818 0.52994 0.0
H4215 H 0.99018 1.00557 0.52552 0.0
H4216 H 0.8848 0.05385 0.23118 0.0
H4217 H 0.87316 0.08171 0.23368 0.0
H4218 H 0.90988 0.10594 0.28491 0.0
H4219 H 0.92176 0.078 0.28248 0.0
H4220 H 0.85906 0.0967 0.26478 0.0
H4221 H 0.91582 0.14746 0.24993 0.0
H4222 H 0.91291 0.12231 0.2444 0.0
H4223 H 0.91968 0.13381 0.26868 0.0
C4224 C 0.89045 0.06508 0.243 0.0
C4225 C 0.90426 0.06372 0.25661 0.0
C4226 C 0.88376 0.081 0.2444 0.0
C4227 C 0.89078 0.09598 0.25933 0.0
C4228 C 0.90445 0.09465 0.2731 0.0
H4229 H 0.86131 0.20309 0.28073 0.0
H4230 H 0.87604 0.17746 0.28243 0.0
C4231 C 0.91115 0.07864 0.27175 0.0
C4232 C 0.88346 0.11276 0.26046 0.0
H4233 H 0.89195 0.15936 0.25574 0.0
C4234 C 0.86627 0.11042 0.26289 0.0
C4235 C 0.89293 0.13066 0.25808 0.0
C4236 C 0.91133 0.13381 0.25499 0.0
C4237 C 0.85822 0.12544 0.26283 0.0
C4238 C 0.8675 0.1432 0.25983 0.0
C4239 C 0.88484 0.1457 0.25791 0.0
C4240 C 0.85923 0.15916 0.25817 0.0
C4241 C 0.83985 0.12217 0.2661 0.0
C4242 C 0.84522 0.15759 0.24363 0.0
C4243 C 0.83672 0.17211 0.2427 0.0
C4244 C 0.84212 0.1886 0.25622 0.0
C4245 C 0.85663 0.19045 0.2703 0.0
C4246 C 0.86512 0.17588 0.27123 0.0
H4247 H 0.83627 0.10977 0.27347 0.0
H4248 H 0.83765 0.13467 0.27476 0.0
H4249 H 0.8312 0.11948 0.2521 0.0
H4250 H 0.84068 0.14497 0.23316 0.0
H4251 H 0.82554 0.17012 0.23175 0.0
H4252 H 0.77884 0.14905 0.10787 0.0
H4253 H 0.75046 0.12828 0.10543 0.0
H4254 H 0.7735 0.08395 0.12232 0.0
H4255 H 0.80214 0.10468 0.1248 0.0
H4256 H 0.74687 0.07333 0.08872 0.0
H4257 H 0.72672 0.11055 0.15035 0.0
H4258 H 0.73539 0.1259 0.13447 0.0
H4259 H 0.74893 0.11362 0.14747 0.0
C4260 C 0.77794 0.13493 0.11119 0.0
C4261 C 0.79276 0.12854 0.11659 0.0
C4262 C 0.7617 0.12311 0.10986 0.0
C4263 C 0.75995 0.1047 0.11392 0.0
C4264 C 0.77466 0.09818 0.11926 0.0
H4265 H 0.65491 0.04626 0.11807 0.0
H4266 H 0.68621 0.05463 0.12536 0.0
C4267 C 0.79097 0.11006 0.12071 0.0
C4268 C 0.74263 0.09226 0.11192 0.0
H4269 H 0.70426 0.09008 0.12702 0.0
C4270 C 0.73759 0.07673 0.09729 0.0
C4271 C 0.7307 0.09657 0.12334 0.0
C4272 C 0.73573 0.11246 0.13992 0.0
C4273 C 0.72053 0.0661 0.093 0.0
C4274 C 0.70828 0.07135 0.10347 0.0
C4275 C 0.71363 0.08614 0.11888 0.0
C4276 C 0.68964 0.06294 0.09781 0.0
C4277 C 0.71574 0.04958 0.07709 0.0
C4278 C 0.6812 0.06443 0.07973 0.0
C4279 C 0.6633 0.05949 0.07544 0.0
C4280 C 0.65351 0.05317 0.08924 0.0
C4281 C 0.66204 0.05085 0.10702 0.0
C4282 C 0.67994 0.05573 0.11127 0.0
H4283 H 0.72693 0.04356 0.07517 0.0
H4284 H 0.70517 0.03835 0.07988 0.0
H4285 H 0.71142 0.05437 0.06349 0.0
H4286 H 0.68839 0.07032 0.06925 0.0
H4287 H 0.65712 0.06125 0.06155 0.0
H4288 H 0.21081 0.46109 0.27088 0.0
H4289 H 0.22334 0.43368 0.271 0.0
H4290 H 0.20949 0.42636 0.32621 0.0
H4291 H 0.19626 0.45322 0.32565 0.0
H4292 H 0.24802 0.42384 0.28829 0.0
H4293 H 0.19324 0.37331 0.30529 0.0
H4294 H 0.19153 0.39619 0.29999 0.0
H4295 H 0.20038 0.39327 0.32376 0.0
C4296 C 0.21025 0.45361 0.28304 0.0
C4297 C 0.2022 0.45969 0.29817 0.0
C4298 C 0.21757 0.43771 0.28314 0.0
C4299 C 0.21731 0.427 0.29841 0.0
C4300 C 0.20957 0.43338 0.31374 0.0
H4301 H 0.28973 0.35057 0.31165 0.0
H4302 H 0.27621 0.37719 0.3124 0.0
C4303 C 0.20206 0.44915 0.31353 0.0
C4304 C 0.22549 0.4098 0.29839 0.0
H4305 H 0.21975 0.3641 0.308 0.0
C4306 C 0.24164 0.41083 0.29258 0.0
C4307 C 0.21753 0.39217 0.30351 0.0
C4308 C 0.19964 0.38855 0.30827 0.0
C4309 C 0.24988 0.39553 0.29199 0.0
C4310 C 0.24235 0.37826 0.2981 0.0
C4311 C 0.22605 0.37708 0.30359 0.0
C4312 C 0.25083 0.36131 0.29846 0.0
C4313 C 0.26638 0.39801 0.28399 0.0
C4314 C 0.24138 0.34259 0.29143 0.0
C4315 C 0.24915 0.32701 0.29148 0.0
C4316 C 0.26683 0.32929 0.2985 0.0
C4317 C 0.2762 0.34791 0.30586 0.0
C4318 C 0.26838 0.36343 0.30606 0.0
H4319 H 0.2672 0.40856 0.27403 0.0
H4320 H 0.27739 0.40323 0.29589 0.0
H4321 H 0.26763 0.38458 0.2762 0.0
H4322 H 0.22789 0.33994 0.28552 0.0
H4323 H 0.24126 0.31311 0.28565 0.0
H4324 H 0.28001 0.45535 0.09675 0.0
H4325 H 0.25377 0.46667 0.09272 0.0
H4326 H 0.23581 0.42974 0.03892 0.0
H4327 H 0.26196 0.41801 0.04306 0.0
H4328 H 0.24071 0.4846 0.06541 0.0
H4329 H 0.19483 0.41662 0.0656 0.0
H4330 H 0.2177 0.42003 0.07252 0.0
H4331 H 0.20824 0.41594 0.04764 0.0
C4332 C 0.2705 0.44959 0.08404 0.0
C4333 C 0.2731 0.43568 0.07027 0.0
C4334 C 0.25546 0.4561 0.08176 0.0
C4335 C 0.2426 0.44886 0.06569 0.0
C4336 C 0.2453 0.43524 0.05169 0.0
H4337 H 0.14457 0.47737 0.03018 0.0
H4338 H 0.16973 0.46392 0.03188 0.0
C4339 C 0.26035 0.42864 0.054 0.0
C4340 C 0.22659 0.4559 0.06357 0.0
H4341 H 0.18283 0.44223 0.05896 0.0
C4342 C 0.22807 0.47531 0.06403 0.0
C4343 C 0.21003 0.44382 0.06173 0.0
C4344 C 0.20754 0.42297 0.06201 0.0
C4345 C 0.21355 0.48293 0.06264 0.0
C4346 C 0.19704 0.47088 0.06098 0.0
C4347 C 0.19549 0.45145 0.06024 0.0
C4348 C 0.18129 0.47831 0.06034 0.0
C4349 C 0.216 0.50383 0.06274 0.0
C4350 C 0.17915 0.49048 0.07597 0.0
C4351 C 0.1647 0.49807 0.07514 0.0
C4352 C 0.15199 0.49366 0.05863 0.0
C4353 C 0.15395 0.48099 0.0432 0.0
C4354 C 0.1684 0.47335 0.04409 0.0
H4355 H 0.22873 0.51035 0.05931 0.0
H4356 H 0.20584 0.50686 0.0523 0.0
H4357 H 0.21516 0.51059 0.07718 0.0
H4358 H 0.18872 0.4942 0.08884 0.0
H4359 H 0.16351 0.50742 0.08747 0.0
H4360 H 0.88131 0.9686 0.24153 0.0
H4361 H 0.86072 0.93956 0.2437 0.0
H4362 H 0.89756 0.92645 0.28645 0.0
H4363 H 0.91846 0.95514 0.28385 0.0
H4364 H 0.88166 0.89583 0.26151 0.0
H4365 H 0.83274 0.93116 0.28529 0.0
H4366 H 0.83811 0.93683 0.26279 0.0
H4367 H 0.85414 0.94398 0.28405 0.0
C4368 C 0.88504 0.95955 0.25141 0.0
C4369 C 0.90151 0.96428 0.26262 0.0
C4370 C 0.87319 0.94299 0.25273 0.0
C4371 C 0.87741 0.931 0.26558 0.0
C4372 C 0.89396 0.93552 0.27652 0.0
H4373 H 0.82193 0.83407 0.3074 0.0
H4374 H 0.84264 0.86182 0.30204 0.0
C4375 C 0.90589 0.95195 0.27502 0.0
C4376 C 0.86467 0.91371 0.26755 0.0
H4377 H 0.82428 0.89785 0.27734 0.0
C4378 C 0.86914 0.89631 0.26502 0.0
C4379 C 0.84833 0.9143 0.27226 0.0
C4380 C 0.84309 0.93258 0.27645 0.0
C4381 C 0.85769 0.87954 0.26688 0.0
C4382 C 0.84135 0.88018 0.27129 0.0
C4383 C 0.83679 0.89746 0.27375 0.0
C4384 C 0.82903 0.86308 0.27415 0.0
C4385 C 0.86307 0.8612 0.26414 0.0
C4386 C 0.81447 0.85474 0.26028 0.0
C4387 C 0.80274 0.83871 0.26319 0.0
C4388 C 0.80537 0.8309 0.28007 0.0
C4389 C 0.8198 0.83952 0.29406 0.0
C4390 C 0.83159 0.8554 0.29107 0.0
H4391 H 0.87514 0.86265 0.25812 0.0
H4392 H 0.8651 0.85619 0.27815 0.0
H4393 H 0.8528 0.85028 0.25451 0.0
H4394 H 0.81225 0.86059 0.24719 0.0
H4395 H 0.79167 0.83239 0.25222 0.0
H4396 H 0.72154 0.05803 0.80262 0.0
H4397 H 0.73709 0.09043 0.8016 0.0
H4398 H 0.70017 0.11163 0.83015 0.0
H4399 H 0.6846 0.07951 0.83113 0.0
H4400 H 0.70608 0.13001 0.80045 0.0
H4401 H 0.76921 0.13049 0.84188 0.0
H4402 H 0.76208 0.11203 0.82176 0.0
H4403 H 0.7503 0.11203 0.84134 0.0
C4404 C 0.71684 0.06954 0.809 0.0
C4405 C 0.70171 0.06575 0.8171 0.0
C4406 C 0.72585 0.08825 0.80844 0.0
C4407 C 0.72009 0.10392 0.81596 0.0
C4408 C 0.7051 0.10011 0.82421 0.0
H4409 H 0.77587 0.22428 0.83956 0.0
H4410 H 0.76226 0.19141 0.84134 0.0
C4411 C 0.69617 0.0815 0.82484 0.0
C4412 C 0.72908 0.12414 0.81469 0.0
H4413 H 0.76764 0.15717 0.82662 0.0
C4414 C 0.71956 0.13584 0.80618 0.0
C4415 C 0.74668 0.13226 0.82232 0.0
C4416 C 0.75767 0.12116 0.83251 0.0
C4417 C 0.72699 0.1549 0.80489 0.0
C4418 C 0.74469 0.1629 0.8121 0.0
C4419 C 0.75417 0.1513 0.82086 0.0
C4420 C 0.75342 0.18321 0.8109 0.0
C4421 C 0.7156 0.16645 0.79617 0.0
C4422 C 0.75344 0.19001 0.79322 0.0
C4423 C 0.76131 0.20892 0.79216 0.0
C4424 C 0.76952 0.22185 0.80874 0.0
C4425 C 0.76968 0.21498 0.82642 0.0
C4426 C 0.76188 0.19602 0.82746 0.0
H4427 H 0.70183 0.1602 0.79627 0.0
H4428 H 0.71898 0.18107 0.80392 0.0
H4429 H 0.71727 0.16702 0.78108 0.0
H4430 H 0.74744 0.18062 0.78009 0.0
H4431 H 0.7609 0.2134 0.77823 0.0
loop_
_geom_bond_atom_site_label_1
_geom_bond_atom_site_label_2
_geom_bond_distance
_geom_bond_site_symmetry_2
_ccdc_geom_bond_type
O0 Cd1 2.223 1_655 S
O0 C8 1.315 1_655 S
Cd1 O0 2.223 1_455 S
Cd1 O4 2.297 . S
Cd1 O5 2.439 . S
Cd1 O11 2.240 1_455 S
Cd2 O3 2.240 1_655 S
Cd2 O10 2.223 . S
Cd2 O12 2.297 . S
Cd2 O13 2.439 1_655 S
O3 Cd2 2.240 1_455 S
O3 C8 1.279 . S
O4 Cd1 2.297 . S
O4 C6 1.247 . S
O5 Cd1 2.439 . S
O5 C6 1.208 . S
C6 O4 1.247 . S
C6 O5 1.208 . S
C7 O12 1.247 1_455 S
C7 O13 1.208 . S
C8 O0 1.315 1_455 S
C8 O3 1.279 . S
C9 O10 1.315 . S
C9 O11 1.279 . S
O10 Cd2 2.223 . S
O10 C9 1.315 . S
O11 Cd1 2.240 1_655 S
O11 C9 1.279 . S
O12 Cd2 2.297 . S
O12 C7 1.247 1_655 S
O13 Cd2 2.439 1_455 S
O13 C7 1.208 . S
O14 Cd15 2.223 . S
O14 C22 1.315 . S
Cd15 O14 2.223 . S
Cd15 O18 2.297 . S
Cd15 O19 2.439 . S
Cd15 O25 2.240 . S
Cd16 O17 2.240 . S
Cd16 O24 2.223 . S
Cd16 O26 2.297 . S
Cd16 O27 2.439 . S
O17 Cd16 2.240 . S
O17 C22 1.279 . S
O18 Cd15 2.297 . S
O18 C20 1.247 . S
O19 Cd15 2.439 . S
O19 C20 1.208 . S
C20 O18 1.247 . S
C20 O19 1.208 . S
C21 O26 1.247 . S
C21 O27 1.208 . S
C22 O14 1.315 . S
C22 O17 1.279 . S
C23 O24 1.315 . S
C23 O25 1.279 . S
O24 Cd16 2.223 . S
O24 C23 1.315 . S
O25 Cd15 2.240 . S
O25 C23 1.279 . S
O26 Cd16 2.297 . S
O26 C21 1.247 . S
O27 Cd16 2.439 . S
O27 C21 1.208 . S
O28 Cd29 2.223 . S
O28 C36 1.315 . S
Cd29 O28 2.223 . S
Cd29 O32 2.297 . S
Cd29 O33 2.439 . S
Cd29 O39 2.240 . S
Cd30 O31 2.240 . S
Cd30 O38 2.223 . S
Cd30 O40 2.297 . S
Cd30 O41 2.439 . S
O31 Cd30 2.240 . S
O31 C36 1.279 . S
O32 Cd29 2.297 . S
O32 C34 1.247 . S
O33 Cd29 2.439 . S
O33 C34 1.208 . S
C34 O32 1.247 . S
C34 O33 1.208 . S
C35 O40 1.247 . S
C35 O41 1.208 . S
C36 O28 1.315 . S
C36 O31 1.279 . S
C37 O38 1.315 . S
C37 O39 1.279 . S
O38 Cd30 2.223 . S
O38 C37 1.315 . S
O39 Cd29 2.240 . S
O39 C37 1.279 . S
O40 Cd30 2.297 . S
O40 C35 1.247 . S
O41 Cd30 2.439 . S
O41 C35 1.208 . S
O42 Cd43 2.223 . S
O42 C50 1.315 . S
Cd43 O42 2.223 . S
Cd43 O46 2.297 . S
Cd43 O47 2.439 . S
Cd43 O53 2.240 . S
Cd44 O45 2.240 . S
Cd44 O52 2.223 . S
Cd44 O54 2.297 . S
Cd44 O55 2.439 . S
O45 Cd44 2.240 . S
O45 C50 1.279 . S
O46 Cd43 2.297 . S
O46 C48 1.247 . S
O47 Cd43 2.439 . S
O47 C48 1.208 . S
C48 O46 1.247 . S
C48 O47 1.208 . S
C49 O54 1.247 . S
C49 O55 1.208 . S
C50 O42 1.315 . S
C50 O45 1.279 . S
C51 O52 1.315 . S
C51 O53 1.279 . S
O52 Cd44 2.223 . S
O52 C51 1.315 . S
O53 Cd43 2.240 . S
O53 C51 1.279 . S
O54 Cd44 2.297 . S
O54 C49 1.247 . S
O55 Cd44 2.439 . S
O55 C49 1.208 . S
O56 Cd57 2.223 . S
O56 C64 1.315 . S
Cd57 O56 2.223 . S
Cd57 O60 2.297 . S
Cd57 O61 2.439 . S
Cd57 O67 2.240 . S
Cd58 O59 2.240 . S
Cd58 O66 2.223 . S
Cd58 O68 2.297 . S
Cd58 O69 2.439 . S
O59 Cd58 2.240 . S
O59 C64 1.279 . S
O60 Cd57 2.297 . S
O60 C62 1.247 . S
O61 Cd57 2.439 . S
O61 C62 1.208 . S
C62 O60 1.247 . S
C62 O61 1.208 . S
C63 O68 1.247 . S
C63 O69 1.208 . S
C64 O56 1.315 . S
C64 O59 1.279 . S
C65 O66 1.315 . S
C65 O67 1.279 . S
O66 Cd58 2.223 . S
O66 C65 1.315 . S
O67 Cd57 2.240 . S
O67 C65 1.279 . S
O68 Cd58 2.297 . S
O68 C63 1.247 . S
O69 Cd58 2.439 . S
O69 C63 1.208 . S
O70 Cd71 2.223 . S
O70 C78 1.315 . S
Cd71 O70 2.223 . S
Cd71 O74 2.297 . S
Cd71 O75 2.439 . S
Cd71 O81 2.240 . S
Cd72 O73 2.240 . S
Cd72 O80 2.223 . S
Cd72 O82 2.297 . S
Cd72 O83 2.439 . S
O73 Cd72 2.240 . S
O73 C78 1.279 . S
O74 Cd71 2.297 . S
O74 C76 1.247 . S
O75 Cd71 2.439 . S
O75 C76 1.208 . S
C76 O74 1.247 . S
C76 O75 1.208 . S
C77 O82 1.247 . S
C77 O83 1.208 . S
C78 O70 1.315 . S
C78 O73 1.279 . S
C79 O80 1.315 . S
C79 O81 1.279 . S
O80 Cd72 2.223 . S
O80 C79 1.315 . S
O81 Cd71 2.240 . S
O81 C79 1.279 . S
O82 Cd72 2.297 . S
O82 C77 1.247 . S
O83 Cd72 2.439 . S
O83 C77 1.208 . S
O84 Cd85 2.223 . S
O84 C92 1.315 . S
Cd85 O84 2.223 . S
Cd85 O88 2.297 . S
Cd85 O89 2.439 . S
Cd85 O95 2.240 . S
Cd86 O87 2.240 . S
Cd86 O94 2.223 . S
Cd86 O96 2.297 . S
Cd86 O97 2.439 . S
O87 Cd86 2.240 . S
O87 C92 1.279 . S
O88 Cd85 2.297 . S
O88 C90 1.247 . S
O89 Cd85 2.439 . S
O89 C90 1.208 . S
C90 O88 1.247 . S
C90 O89 1.208 . S
C91 O96 1.247 . S
C91 O97 1.208 . S
C92 O84 1.315 . S
C92 O87 1.279 . S
C93 O94 1.315 . S
C93 O95 1.279 . S
O94 Cd86 2.223 . S
O94 C93 1.315 . S
O95 Cd85 2.240 . S
O95 C93 1.279 . S
O96 Cd86 2.297 . S
O96 C91 1.247 . S
O97 Cd86 2.439 . S
O97 C91 1.208 . S
O98 Cd99 2.223 . S
O98 C106 1.315 . S
Cd99 O98 2.223 . S
Cd99 O102 2.297 . S
Cd99 O103 2.439 . S
Cd99 O109 2.240 1_455 S
Cd100 O101 2.240 . S
Cd100 O108 2.223 1_455 S
Cd100 O110 2.297 . S
Cd100 O111 2.439 . S
O101 Cd100 2.240 . S
O101 C106 1.279 . S
O102 Cd99 2.297 . S
O102 C104 1.247 . S
O103 Cd99 2.439 . S
O103 C104 1.208 . S
C104 O102 1.247 . S
C104 O103 1.208 . S
C105 O110 1.247 . S
C105 O111 1.208 . S
C106 O98 1.315 . S
C106 O101 1.279 . S
C107 O108 1.315 . S
C107 O109 1.279 . S
O108 Cd100 2.223 1_655 S
O108 C107 1.315 . S
O109 Cd99 2.240 1_655 S
O109 C107 1.279 . S
O110 Cd100 2.297 . S
O110 C105 1.247 . S
O111 Cd100 2.439 . S
O111 C105 1.208 . S
O112 Cd113 2.223 . S
O112 C120 1.315 . S
Cd113 O112 2.223 . S
Cd113 O116 2.297 . S
Cd113 O117 2.439 . S
Cd113 O123 2.240 . S
Cd114 O115 2.240 . S
Cd114 O122 2.223 1_545 S
Cd114 O124 2.297 . S
Cd114 O125 2.439 . S
O115 Cd114 2.240 . S
O115 C120 1.279 . S
O116 Cd113 2.297 . S
O116 C118 1.247 . S
O117 Cd113 2.439 . S
O117 C118 1.208 . S
C118 O116 1.247 . S
C118 O117 1.208 . S
C119 O124 1.247 . S
C119 O125 1.208 . S
C120 O112 1.315 . S
C120 O115 1.279 . S
C121 O122 1.315 . S
C121 O123 1.279 1_565 S
O122 Cd114 2.223 1_565 S
O122 C121 1.315 . S
O123 Cd113 2.240 . S
O123 C121 1.279 1_545 S
O124 Cd114 2.297 . S
O124 C119 1.247 . S
O125 Cd114 2.439 . S
O125 C119 1.208 . S
O126 Cd127 2.223 . S
O126 C134 1.315 . S
Cd127 O126 2.223 . S
Cd127 O130 2.297 . S
Cd127 O131 2.439 . S
Cd127 O137 2.240 . S
Cd128 O129 2.240 . S
Cd128 O136 2.223 . S
Cd128 O138 2.297 . S
Cd128 O139 2.439 . S
O129 Cd128 2.240 . S
O129 C134 1.279 . S
O130 Cd127 2.297 . S
O130 C132 1.247 . S
O131 Cd127 2.439 . S
O131 C132 1.208 . S
C132 O130 1.247 . S
C132 O131 1.208 . S
C133 O138 1.247 . S
C133 O139 1.208 . S
C134 O126 1.315 . S
C134 O129 1.279 . S
C135 O136 1.315 . S
C135 O137 1.279 . S
O136 Cd128 2.223 . S
O136 C135 1.315 . S
O137 Cd127 2.240 . S
O137 C135 1.279 . S
O138 Cd128 2.297 . S
O138 C133 1.247 . S
O139 Cd128 2.439 . S
O139 C133 1.208 . S
O140 Cd141 2.223 . S
O140 C148 1.315 . S
Cd141 O140 2.223 . S
Cd141 O144 2.297 1_545 S
Cd141 O145 2.439 1_545 S
Cd141 O151 2.240 . S
Cd142 O143 2.240 . S
Cd142 O150 2.223 . S
Cd142 O152 2.297 . S
Cd142 O153 2.439 . S
O143 Cd142 2.240 . S
O143 C148 1.279 . S
O144 Cd141 2.297 1_565 S
O144 C146 1.247 . S
O145 Cd141 2.439 1_565 S
O145 C146 1.208 . S
C146 O144 1.247 . S
C146 O145 1.208 . S
C147 O152 1.247 . S
C147 O153 1.208 . S
C148 O140 1.315 . S
C148 O143 1.279 . S
C149 O150 1.315 . S
C149 O151 1.279 . S
O150 Cd142 2.223 . S
O150 C149 1.315 . S
O151 Cd141 2.240 . S
O151 C149 1.279 . S
O152 Cd142 2.297 . S
O152 C147 1.247 . S
O153 Cd142 2.439 . S
O153 C147 1.208 . S
O154 Cd155 2.223 . S
O154 C162 1.315 . S
Cd155 O154 2.223 . S
Cd155 O158 2.297 . S
Cd155 O159 2.439 1_554 S
Cd155 O165 2.240 1_554 S
Cd156 O157 2.240 1_556 S
Cd156 O164 2.223 1_556 S
Cd156 O166 2.297 . S
Cd156 O167 2.439 . S
O157 Cd156 2.240 1_554 S
O157 C162 1.279 . S
O158 Cd155 2.297 . S
O158 C160 1.247 . S
O159 Cd155 2.439 1_556 S
O159 C160 1.208 1_556 S
C160 O158 1.247 . S
C160 O159 1.208 1_554 S
C161 O166 1.247 . S
C161 O167 1.208 . S
C162 O154 1.315 . S
C162 O157 1.279 . S
C163 O164 1.315 . S
C163 O165 1.279 1_554 S
O164 Cd156 2.223 1_554 S
O164 C163 1.315 . S
O165 Cd155 2.240 1_556 S
O165 C163 1.279 1_556 S
O166 Cd156 2.297 . S
O166 C161 1.247 . S
O167 Cd156 2.439 . S
O167 C161 1.208 . S
O168 Cd169 2.223 . S
O168 C176 1.315 . S
Cd169 O168 2.223 . S
Cd169 O172 2.297 . S
Cd169 O173 2.439 . S
Cd169 O179 2.240 . S
Cd170 O171 2.240 . S
Cd170 O178 2.223 . S
Cd170 O180 2.297 . S
Cd170 O181 2.439 . S
O171 Cd170 2.240 . S
O171 C176 1.279 . S
O172 Cd169 2.297 . S
O172 C174 1.247 . S
O173 Cd169 2.439 . S
O173 C174 1.208 . S
C174 O172 1.247 . S
C174 O173 1.208 . S
C175 O180 1.247 1_556 S
C175 O181 1.208 1_556 S
C176 O168 1.315 . S
C176 O171 1.279 . S
C177 O178 1.315 . S
C177 O179 1.279 . S
O178 Cd170 2.223 . S
O178 C177 1.315 . S
O179 Cd169 2.240 . S
O179 C177 1.279 . S
O180 Cd170 2.297 . S
O180 C175 1.247 1_554 S
O181 Cd170 2.439 . S
O181 C175 1.208 1_554 S
O182 Cd183 2.223 . S
O182 C190 1.315 . S
Cd183 O182 2.223 . S
Cd183 O186 2.297 . S
Cd183 O187 2.439 . S
Cd183 O193 2.240 . S
Cd184 O185 2.240 . S
Cd184 O192 2.223 . S
Cd184 O194 2.297 . S
Cd184 O195 2.439 . S
O185 Cd184 2.240 . S
O185 C190 1.279 . S
O186 Cd183 2.297 . S
O186 C188 1.247 . S
O187 Cd183 2.439 . S
O187 C188 1.208 . S
C188 O186 1.247 . S
C188 O187 1.208 . S
C189 O194 1.247 . S
C189 O195 1.208 . S
C190 O182 1.315 . S
C190 O185 1.279 . S
C191 O192 1.315 . S
C191 O193 1.279 . S
O192 Cd184 2.223 . S
O192 C191 1.315 . S
O193 Cd183 2.240 . S
O193 C191 1.279 . S
O194 Cd184 2.297 . S
O194 C189 1.247 . S
O195 Cd184 2.439 . S
O195 C189 1.208 . S
O196 Cd197 2.223 . S
O196 C204 1.315 . S
Cd197 O196 2.223 . S
Cd197 O200 2.297 . S
Cd197 O201 2.439 . S
Cd197 O207 2.240 . S
Cd198 O199 2.240 . S
Cd198 O206 2.223 . S
Cd198 O208 2.297 . S
Cd198 O209 2.439 . S
O199 Cd198 2.240 . S
O199 C204 1.279 . S
O200 Cd197 2.297 . S
O200 C202 1.247 . S
O201 Cd197 2.439 . S
O201 C202 1.208 . S
C202 O200 1.247 . S
C202 O201 1.208 . S
C203 O208 1.247 . S
C203 O209 1.208 . S
C204 O196 1.315 . S
C204 O199 1.279 . S
C205 O206 1.315 . S
C205 O207 1.279 . S
O206 Cd198 2.223 . S
O206 C205 1.315 . S
O207 Cd197 2.240 . S
O207 C205 1.279 . S
O208 Cd198 2.297 . S
O208 C203 1.247 . S
O209 Cd198 2.439 . S
O209 C203 1.208 . S
O210 Cd211 2.223 . S
O210 C218 1.315 . S
Cd211 O210 2.223 . S
Cd211 O214 2.297 . S
Cd211 O215 2.439 . S
Cd211 O221 2.240 . S
Cd212 O213 2.240 . S
Cd212 O220 2.223 . S
Cd212 O222 2.297 . S
Cd212 O223 2.439 . S
O213 Cd212 2.240 . S
O213 C218 1.279 . S
O214 Cd211 2.297 . S
O214 C216 1.247 . S
O215 Cd211 2.439 . S
O215 C216 1.208 . S
C216 O214 1.247 . S
C216 O215 1.208 . S
C217 O222 1.247 . S
C217 O223 1.208 . S
C218 O210 1.315 . S
C218 O213 1.279 . S
C219 O220 1.315 . S
C219 O221 1.279 . S
O220 Cd212 2.223 . S
O220 C219 1.315 . S
O221 Cd211 2.240 . S
O221 C219 1.279 . S
O222 Cd212 2.297 . S
O222 C217 1.247 . S
O223 Cd212 2.439 . S
O223 C217 1.208 . S
O224 Cd225 2.223 1_565 S
O224 C232 1.315 1_565 S
Cd225 O224 2.223 1_545 S
Cd225 O228 2.297 . S
Cd225 O229 2.439 . S
Cd225 O235 2.240 1_545 S
Cd226 O227 2.208 1_565 S
Cd226 O234 2.267 . S
Cd226 O236 2.320 . S
Cd226 O237 2.417 1_565 S
O227 Cd226 2.208 1_545 S
O227 C232 1.279 . S
O228 Cd225 2.297 . S
O228 C230 1.247 . S
O229 Cd225 2.439 . S
O229 C230 1.208 . S
C230 O228 1.247 . S
C230 O229 1.208 . S
C231 O236 1.247 1_545 S
C231 O237 1.208 . S
C232 O224 1.315 1_545 S
C232 O227 1.279 . S
C233 O234 1.315 . S
C233 O235 1.279 . S
O234 Cd226 2.267 . S
O234 C233 1.315 . S
O235 Cd225 2.240 1_565 S
O235 C233 1.279 . S
O236 Cd226 2.320 . S
O236 C231 1.247 1_565 S
O237 Cd226 2.417 1_545 S
O237 C231 1.208 . S
O238 Cd239 2.223 . S
O238 C246 1.315 . S
Cd239 O238 2.223 . S
Cd239 O242 2.297 . S
Cd239 O243 2.439 . S
Cd239 O249 2.240 . S
Cd240 O241 2.240 . S
Cd240 O248 2.223 . S
Cd240 O250 2.297 . S
Cd240 O251 2.439 . S
O241 Cd240 2.240 . S
O241 C246 1.279 . S
O242 Cd239 2.297 . S
O242 C244 1.247 . S
O243 Cd239 2.439 . S
O243 C244 1.208 . S
C244 O242 1.247 . S
C244 O243 1.208 . S
C245 O250 1.247 . S
C245 O251 1.208 . S
C246 O238 1.315 . S
C246 O241 1.279 . S
C247 O248 1.315 . S
C247 O249 1.279 . S
O248 Cd240 2.223 . S
O248 C247 1.315 . S
O249 Cd239 2.240 . S
O249 C247 1.279 . S
O250 Cd240 2.297 . S
O250 C245 1.247 . S
O251 Cd240 2.439 . S
O251 C245 1.208 . S
O252 Cd253 2.223 . S
O252 C260 1.315 . S
Cd253 O252 2.223 . S
Cd253 O256 2.297 . S
Cd253 O257 2.439 . S
Cd253 O263 2.240 . S
Cd254 O255 2.240 . S
Cd254 O262 2.223 . S
Cd254 O264 2.297 . S
Cd254 O265 2.439 . S
O255 Cd254 2.240 . S
O255 C260 1.279 . S
O256 Cd253 2.297 . S
O256 C258 1.247 . S
O257 Cd253 2.439 . S
O257 C258 1.208 . S
C258 O256 1.247 . S
C258 O257 1.208 . S
C259 O264 1.247 . S
C259 O265 1.208 . S
C260 O252 1.315 . S
C260 O255 1.279 . S
C261 O262 1.315 . S
C261 O263 1.279 . S
O262 Cd254 2.223 . S
O262 C261 1.315 . S
O263 Cd253 2.240 . S
O263 C261 1.279 . S
O264 Cd254 2.297 . S
O264 C259 1.247 . S
O265 Cd254 2.439 . S
O265 C259 1.208 . S
O266 Cd267 2.223 . S
O266 C274 1.315 . S
Cd267 O266 2.223 . S
Cd267 O270 2.297 1_545 S
Cd267 O271 2.439 1_545 S
Cd267 O277 2.240 . S
Cd268 O269 2.240 . S
Cd268 O276 2.223 . S
Cd268 O278 2.297 . S
Cd268 O279 2.439 . S
O269 Cd268 2.240 . S
O269 C274 1.279 . S
O270 Cd267 2.297 1_565 S
O270 C272 1.247 . S
O271 Cd267 2.439 1_565 S
O271 C272 1.208 . S
C272 O270 1.247 . S
C272 O271 1.208 . S
C273 O278 1.247 . S
C273 O279 1.208 . S
C274 O266 1.315 . S
C274 O269 1.279 . S
C275 O276 1.315 . S
C275 O277 1.279 . S
O276 Cd268 2.223 . S
O276 C275 1.315 . S
O277 Cd267 2.240 . S
O277 C275 1.279 . S
O278 Cd268 2.297 . S
O278 C273 1.247 . S
O279 Cd268 2.439 . S
O279 C273 1.208 . S
O280 Cd281 2.223 . S
O280 C288 1.315 . S
Cd281 O280 2.223 . S
Cd281 O284 2.297 . S
Cd281 O285 2.439 . S
Cd281 O291 2.240 . S
Cd282 O283 2.240 . S
Cd282 O290 2.223 . S
Cd282 O292 2.297 . S
Cd282 O293 2.439 . S
O283 Cd282 2.240 . S
O283 C288 1.279 . S
O284 Cd281 2.297 . S
O284 C286 1.247 . S
O285 Cd281 2.439 . S
O285 C286 1.208 . S
C286 O284 1.247 . S
C286 O285 1.208 . S
C287 O292 1.226 1_556 S
C287 O293 1.185 1_556 S
C288 O280 1.315 . S
C288 O283 1.279 . S
C289 O290 1.315 . S
C289 O291 1.279 . S
O290 Cd282 2.223 . S
O290 C289 1.315 . S
O291 Cd281 2.240 . S
O291 C289 1.279 . S
O292 Cd282 2.297 . S
O292 C287 1.226 1_554 S
O293 Cd282 2.439 . S
O293 C287 1.185 1_554 S
O294 Cd295 2.223 . S
O294 C302 1.315 . S
Cd295 O294 2.223 . S
Cd295 O298 2.297 . S
Cd295 O299 2.439 . S
Cd295 O305 2.240 . S
Cd296 O297 2.240 . S
Cd296 O304 2.223 . S
Cd296 O306 2.297 . S
Cd296 O307 2.439 . S
O297 Cd296 2.240 . S
O297 C302 1.279 . S
O298 Cd295 2.297 . S
O298 C300 1.247 . S
O299 Cd295 2.439 . S
O299 C300 1.208 . S
C300 O298 1.247 . S
C300 O299 1.208 . S
C301 O306 1.247 . S
C301 O307 1.208 . S
C302 O294 1.315 . S
C302 O297 1.279 . S
C303 O304 1.315 . S
C303 O305 1.279 . S
O304 Cd296 2.223 . S
O304 C303 1.315 . S
O305 Cd295 2.240 . S
O305 C303 1.279 . S
O306 Cd296 2.297 . S
O306 C301 1.247 . S
O307 Cd296 2.439 . S
O307 C301 1.208 . S
O308 Cd309 2.223 . S
O308 C316 1.315 . S
Cd309 O308 2.223 . S
Cd309 O312 2.297 . S
Cd309 O313 2.439 . S
Cd309 O319 2.240 . S
Cd310 O311 2.240 . S
Cd310 O318 2.223 . S
Cd310 O320 2.297 . S
Cd310 O321 2.439 . S
O311 Cd310 2.240 . S
O311 C316 1.279 . S
O312 Cd309 2.297 . S
O312 C314 1.247 . S
O313 Cd309 2.439 . S
O313 C314 1.208 . S
C314 O312 1.247 . S
C314 O313 1.208 . S
C315 O320 1.247 . S
C315 O321 1.208 . S
C316 O308 1.315 . S
C316 O311 1.279 . S
C317 O318 1.315 . S
C317 O319 1.279 . S
O318 Cd310 2.223 . S
O318 C317 1.315 . S
O319 Cd309 2.240 . S
O319 C317 1.279 . S
O320 Cd310 2.297 . S
O320 C315 1.247 . S
O321 Cd310 2.439 . S
O321 C315 1.208 . S
O322 Cd323 2.223 . S
O322 C330 1.315 . S
Cd323 O322 2.223 . S
Cd323 O326 2.297 . S
Cd323 O327 2.439 . S
Cd323 O333 2.240 . S
Cd324 O325 2.240 . S
Cd324 O332 2.223 . S
Cd324 O334 2.297 . S
Cd324 O335 2.439 . S
O325 Cd324 2.240 . S
O325 C330 1.279 . S
O326 Cd323 2.297 . S
O326 C328 1.247 . S
O327 Cd323 2.439 . S
O327 C328 1.208 . S
C328 O326 1.247 . S
C328 O327 1.208 . S
C329 O334 1.247 . S
C329 O335 1.208 . S
C330 O322 1.315 . S
C330 O325 1.279 . S
C331 O332 1.315 . S
C331 O333 1.279 . S
O332 Cd324 2.223 . S
O332 C331 1.315 . S
O333 Cd323 2.240 . S
O333 C331 1.279 . S
O334 Cd324 2.297 . S
O334 C329 1.247 . S
O335 Cd324 2.439 . S
O335 C329 1.208 . S
Tb336 C338 2.809 1_455 S
Tb336 O356 2.484 1_455 S
Tb336 O357 2.440 1_455 S
Tb336 O358 2.658 . S
Tb336 O359 2.409 . S
Tb336 O360 2.378 . S
Tb336 O364 2.325 . S
Tb336 O367 2.341 1_545 S
Tb337 C347 2.809 . S
Tb337 O358 2.325 . S
Tb337 O361 2.341 . S
Tb337 O362 2.484 . S
Tb337 O363 2.440 . S
Tb337 O364 2.658 . S
Tb337 O365 2.409 . S
Tb337 O366 2.372 1_545 S
C338 Tb336 2.809 1_655 S
C338 C339 1.514 . S
C338 O356 1.248 . S
C338 O357 1.266 . S
C339 C338 1.514 . S
C339 C340 1.359 . S
C339 C344 1.348 . S
C340 C339 1.359 . S
C340 C341 1.380 . S
C340 H368 0.929 . S
C341 C340 1.380 . S
C341 C342 1.347 . S
C341 H369 0.931 . S
C342 C341 1.347 . S
C342 C343 1.369 . S
C343 C342 1.369 . S
C343 C344 1.408 . S
C343 H370 0.930 1_554 S
C344 C339 1.348 . S
C344 C343 1.408 . S
C344 H371 0.930 1_554 S
C345 O358 1.281 . S
C345 O359 1.254 . S
C346 O360 1.236 . S
C346 O361 1.266 . S
C347 Tb337 2.809 . S
C347 C348 1.480 1_545 S
C347 O362 1.248 . S
C347 O363 1.266 . S
C348 C347 1.480 1_565 S
C348 C349 1.383 . S
C348 C353 1.355 . S
C349 C348 1.383 . S
C349 C350 1.380 . S
C349 H372 0.929 . S
C350 C349 1.380 . S
C350 C351 1.347 . S
C350 H373 0.931 . S
C351 C350 1.347 . S
C351 C352 1.369 . S
C352 C351 1.369 . S
C352 C353 1.421 . S
C352 H374 0.930 . S
C353 C348 1.355 . S
C353 C352 1.421 . S
C353 H375 0.922 1_565 S
C354 O364 1.281 . S
C354 O365 1.254 . S
C355 O366 1.240 . S
C355 O367 1.266 . S
O356 Tb336 2.484 1_655 S
O356 C338 1.248 . S
O357 Tb336 2.440 1_655 S
O357 C338 1.266 . S
O358 Tb336 2.658 . S
O358 Tb337 2.325 . S
O358 C345 1.281 . S
O359 Tb336 2.409 . S
O359 C345 1.254 . S
O360 Tb336 2.378 . S
O360 C346 1.236 . S
O361 Tb337 2.341 . S
O361 C346 1.266 . S
O362 Tb337 2.484 . S
O362 C347 1.248 . S
O363 Tb337 2.440 . S
O363 C347 1.266 . S
O364 Tb336 2.325 . S
O364 Tb337 2.658 . S
O364 C354 1.281 . S
O365 Tb337 2.409 . S
O365 C354 1.254 . S
O366 Tb337 2.372 1_565 S
O366 C355 1.240 . S
O367 Tb336 2.341 1_565 S
O367 C355 1.266 . S
H368 C340 0.929 . S
H369 C341 0.931 . S
H370 C343 0.930 1_556 S
H371 C344 0.930 1_556 S
H372 C349 0.929 . S
H373 C350 0.931 . S
H374 C352 0.930 . S
H375 C353 0.922 1_545 S
Tb376 C378 2.809 . S
Tb376 O396 2.484 . S
Tb376 O397 2.440 . S
Tb376 O398 2.658 . S
Tb376 O399 2.409 . S
Tb376 O400 2.378 . S
Tb376 O404 2.325 . S
Tb376 O407 2.341 . S
Tb377 C387 2.809 . S
Tb377 O398 2.325 . S
Tb377 O401 2.341 . S
Tb377 O402 2.484 . S
Tb377 O403 2.440 . S
Tb377 O404 2.658 . S
Tb377 O405 2.409 . S
Tb377 O406 2.378 . S
C378 Tb376 2.809 . S
C378 C379 1.514 . S
C378 O396 1.248 . S
C378 O397 1.266 . S
C379 C378 1.514 . S
C379 C380 1.359 . S
C379 C384 1.348 . S
C380 C379 1.359 . S
C380 C381 1.380 . S
C380 H408 0.929 . S
C381 C380 1.380 . S
C381 C382 1.347 . S
C381 H409 0.931 . S
C382 C381 1.347 . S
C382 C383 1.369 . S
C383 C382 1.369 . S
C383 C384 1.408 . S
C383 H410 0.930 . S
C384 C379 1.348 . S
C384 C383 1.408 . S
C384 H411 0.930 . S
C385 O398 1.281 . S
C385 O399 1.254 . S
C386 O400 1.236 . S
C386 O401 1.266 . S
C387 Tb377 2.809 . S
C387 C388 1.514 . S
C387 O402 1.248 . S
C387 O403 1.266 . S
C388 C387 1.514 . S
C388 C389 1.359 . S
C388 C393 1.348 . S
C389 C388 1.359 . S
C389 C390 1.380 . S
C389 H412 0.929 . S
C390 C389 1.380 . S
C390 C391 1.347 . S
C390 H413 0.931 . S
C391 C390 1.347 . S
C391 C392 1.369 . S
C392 C391 1.369 . S
C392 C393 1.408 . S
C392 H414 0.930 . S
C393 C388 1.348 . S
C393 C392 1.408 . S
C393 H415 0.930 . S
C394 O404 1.281 . S
C394 O405 1.254 . S
C395 O406 1.236 . S
C395 O407 1.266 . S
O396 Tb376 2.484 . S
O396 C378 1.248 . S
O397 Tb376 2.440 . S
O397 C378 1.266 . S
O398 Tb376 2.658 . S
O398 Tb377 2.325 . S
O398 C385 1.281 . S
O399 Tb376 2.409 . S
O399 C385 1.254 . S
O400 Tb376 2.378 . S
O400 C386 1.236 . S
O401 Tb377 2.341 . S
O401 C386 1.266 . S
O402 Tb377 2.484 . S
O402 C387 1.248 . S
O403 Tb377 2.440 . S
O403 C387 1.266 . S
O404 Tb376 2.325 . S
O404 Tb377 2.658 . S
O404 C394 1.281 . S
O405 Tb377 2.409 . S
O405 C394 1.254 . S
O406 Tb377 2.378 . S
O406 C395 1.236 . S
O407 Tb376 2.341 . S
O407 C395 1.266 . S
H408 C380 0.929 . S
H409 C381 0.931 . S
H410 C383 0.930 . S
H411 C384 0.930 . S
H412 C389 0.929 . S
H413 C390 0.931 . S
H414 C392 0.930 . S
H415 C393 0.930 . S
Tb416 C418 2.822 . S
Tb416 O436 2.530 . S
Tb416 O437 2.440 . S
Tb416 O438 2.658 . S
Tb416 O439 2.409 . S
Tb416 O440 2.378 1_545 S
Tb416 O444 2.325 . S
Tb416 O447 2.341 . S
Tb417 C427 2.809 . S
Tb417 O438 2.325 . S
Tb417 O441 2.341 1_545 S
Tb417 O442 2.484 . S
Tb417 O443 2.440 . S
Tb417 O444 2.658 . S
Tb417 O445 2.409 . S
Tb417 O446 2.378 . S
C418 Tb416 2.822 . S
C418 C419 1.500 1_545 S
C418 O436 1.249 . S
C418 O437 1.279 . S
C419 C418 1.500 1_565 S
C419 C420 1.359 . S
C419 C424 1.348 . S
C420 C419 1.359 . S
C420 C421 1.380 . S
C420 H448 0.929 . S
C421 C420 1.380 . S
C421 C422 1.347 . S
C421 H449 0.931 . S
C422 C421 1.347 . S
C422 C423 1.369 . S
C423 C422 1.369 . S
C423 C424 1.408 . S
C423 H450 0.930 . S
C424 C419 1.348 . S
C424 C423 1.408 . S
C424 H451 0.930 . S
C425 O438 1.281 . S
C425 O439 1.254 . S
C426 O440 1.236 . S
C426 O441 1.266 . S
C427 Tb417 2.809 . S
C427 C428 1.514 . S
C427 O442 1.248 . S
C427 O443 1.266 . S
C428 C427 1.514 . S
C428 C429 1.359 . S
C428 C433 1.348 . S
C429 C428 1.359 . S
C429 C430 1.380 . S
C429 H452 0.929 . S
C430 C429 1.380 . S
C430 C431 1.347 . S
C430 H453 0.931 . S
C431 C430 1.347 . S
C431 C432 1.369 . S
C432 C431 1.369 . S
C432 C433 1.408 . S
C432 H454 0.930 . S
C433 C428 1.348 . S
C433 C432 1.408 . S
C433 H455 0.930 . S
C434 O444 1.281 . S
C434 O445 1.254 . S
C435 O446 1.236 . S
C435 O447 1.266 . S
O436 Tb416 2.530 . S
O436 C418 1.249 . S
O437 Tb416 2.440 . S
O437 C418 1.279 . S
O438 Tb416 2.658 . S
O438 Tb417 2.325 . S
O438 C425 1.281 . S
O439 Tb416 2.409 . S
O439 C425 1.254 . S
O440 Tb416 2.378 1_565 S
O440 C426 1.236 . S
O441 Tb417 2.341 1_565 S
O441 C426 1.266 . S
O442 Tb417 2.484 . S
O442 C427 1.248 . S
O443 Tb417 2.440 . S
O443 C427 1.266 . S
O444 Tb416 2.325 . S
O444 Tb417 2.658 . S
O444 C434 1.281 . S
O445 Tb417 2.409 . S
O445 C434 1.254 . S
O446 Tb417 2.378 . S
O446 C435 1.236 . S
O447 Tb416 2.341 . S
O447 C435 1.266 . S
H448 C420 0.929 . S
H449 C421 0.931 . S
H450 C423 0.930 . S
H451 C424 0.930 . S
H452 C429 0.929 . S
H453 C430 0.931 . S
H454 C432 0.930 . S
H455 C433 0.930 . S
Tb456 C458 2.809 . S
Tb456 O476 2.484 . S
Tb456 O477 2.440 . S
Tb456 O478 2.658 . S
Tb456 O479 2.409 . S
Tb456 O480 2.378 . S
Tb456 O484 2.325 . S
Tb456 O487 2.341 . S
Tb457 C467 2.809 . S
Tb457 O478 2.325 . S
Tb457 O481 2.341 . S
Tb457 O482 2.484 . S
Tb457 O483 2.440 . S
Tb457 O484 2.658 . S
Tb457 O485 2.409 . S
Tb457 O486 2.378 . S
C458 Tb456 2.809 . S
C458 C459 1.514 . S
C458 O476 1.248 . S
C458 O477 1.266 . S
C459 C458 1.514 . S
C459 C460 1.359 . S
C459 C464 1.348 . S
C460 C459 1.359 . S
C460 C461 1.380 . S
C460 H488 0.929 . S
C461 C460 1.380 . S
C461 C462 1.347 . S
C461 H489 0.931 . S
C462 C461 1.347 . S
C462 C463 1.369 . S
C463 C462 1.369 . S
C463 C464 1.408 . S
C463 H490 0.930 . S
C464 C459 1.348 . S
C464 C463 1.408 . S
C464 H491 0.930 . S
C465 O478 1.281 . S
C465 O479 1.254 . S
C466 O480 1.236 . S
C466 O481 1.266 . S
C467 Tb457 2.809 . S
C467 C468 1.514 . S
C467 O482 1.248 . S
C467 O483 1.266 . S
C468 C467 1.514 . S
C468 C469 1.359 . S
C468 C473 1.348 . S
C469 C468 1.359 . S
C469 C470 1.380 . S
C469 H492 0.929 . S
C470 C469 1.380 . S
C470 C471 1.347 . S
C470 H493 0.931 . S
C471 C470 1.347 . S
C471 C472 1.369 . S
C472 C471 1.369 . S
C472 C473 1.408 . S
C472 H494 0.930 . S
C473 C468 1.348 . S
C473 C472 1.408 . S
C473 H495 0.930 . S
C474 O484 1.281 . S
C474 O485 1.254 . S
C475 O486 1.236 . S
C475 O487 1.266 . S
O476 Tb456 2.484 . S
O476 C458 1.248 . S
O477 Tb456 2.440 . S
O477 C458 1.266 . S
O478 Tb456 2.658 . S
O478 Tb457 2.325 . S
O478 C465 1.281 . S
O479 Tb456 2.409 . S
O479 C465 1.254 . S
O480 Tb456 2.378 . S
O480 C466 1.236 . S
O481 Tb457 2.341 . S
O481 C466 1.266 . S
O482 Tb457 2.484 . S
O482 C467 1.248 . S
O483 Tb457 2.440 . S
O483 C467 1.266 . S
O484 Tb456 2.325 . S
O484 Tb457 2.658 . S
O484 C474 1.281 . S
O485 Tb457 2.409 . S
O485 C474 1.254 . S
O486 Tb457 2.378 . S
O486 C475 1.236 . S
O487 Tb456 2.341 . S
O487 C475 1.266 . S
H488 C460 0.929 . S
H489 C461 0.931 . S
H490 C463 0.930 . S
H491 C464 0.930 . S
H492 C469 0.929 . S
H493 C470 0.931 . S
H494 C472 0.930 . S
H495 C473 0.930 . S
Tb496 C498 2.809 . S
Tb496 O516 2.484 . S
Tb496 O517 2.440 . S
Tb496 O518 2.658 . S
Tb496 O519 2.409 . S
Tb496 O520 2.378 . S
Tb496 O524 2.325 . S
Tb496 O527 2.341 . S
Tb497 C507 2.809 . S
Tb497 O518 2.325 1_565 S
Tb497 O521 2.341 1_565 S
Tb497 O522 2.484 . S
Tb497 O523 2.440 . S
Tb497 O524 2.658 1_565 S
Tb497 O525 2.409 1_565 S
Tb497 O526 2.378 1_565 S
C498 Tb496 2.809 . S
C498 C499 1.514 . S
C498 O516 1.248 . S
C498 O517 1.266 . S
C499 C498 1.514 . S
C499 C500 1.359 . S
C499 C504 1.348 . S
C500 C499 1.359 . S
C500 C501 1.380 . S
C500 H528 0.929 . S
C501 C500 1.380 . S
C501 C502 1.347 . S
C501 H529 0.931 . S
C502 C501 1.347 . S
C502 C503 1.369 . S
C503 C502 1.369 . S
C503 C504 1.408 . S
C503 H530 0.930 1_455 S
C504 C499 1.348 . S
C504 C503 1.408 . S
C504 H531 0.930 1_455 S
C505 O518 1.281 . S
C505 O519 1.254 . S
C506 O520 1.236 . S
C506 O521 1.266 . S
C507 Tb497 2.809 . S
C507 C508 1.514 . S
C507 O522 1.248 . S
C507 O523 1.266 . S
C508 C507 1.514 . S
C508 C509 1.359 . S
C508 C513 1.348 . S
C509 C508 1.359 . S
C509 C510 1.380 . S
C509 H532 0.929 . S
C510 C509 1.380 . S
C510 C511 1.347 . S
C510 H533 0.931 . S
C511 C510 1.347 . S
C511 C512 1.369 . S
C512 C511 1.369 . S
C512 C513 1.408 . S
C512 H534 0.930 . S
C513 C508 1.348 . S
C513 C512 1.408 . S
C513 H535 0.930 . S
C514 O524 1.281 . S
C514 O525 1.254 . S
C515 O526 1.236 . S
C515 O527 1.266 . S
O516 Tb496 2.484 . S
O516 C498 1.248 . S
O517 Tb496 2.440 . S
O517 C498 1.266 . S
O518 Tb496 2.658 . S
O518 Tb497 2.325 1_545 S
O518 C505 1.281 . S
O519 Tb496 2.409 . S
O519 C505 1.254 . S
O520 Tb496 2.378 . S
O520 C506 1.236 . S
O521 Tb497 2.341 1_545 S
O521 C506 1.266 . S
O522 Tb497 2.484 . S
O522 C507 1.248 . S
O523 Tb497 2.440 . S
O523 C507 1.266 . S
O524 Tb496 2.325 . S
O524 Tb497 2.658 1_545 S
O524 C514 1.281 . S
O525 Tb497 2.409 1_545 S
O525 C514 1.254 . S
O526 Tb497 2.378 1_545 S
O526 C515 1.236 . S
O527 Tb496 2.341 . S
O527 C515 1.266 . S
H528 C500 0.929 . S
H529 C501 0.931 . S
H530 C503 0.930 1_655 S
H531 C504 0.930 1_655 S
H532 C509 0.929 . S
H533 C510 0.931 . S
H534 C512 0.930 . S
H535 C513 0.930 . S
Tb536 C538 2.809 . S
Tb536 O556 2.484 . S
Tb536 O557 2.440 . S
Tb536 O558 2.658 . S
Tb536 O559 2.409 . S
Tb536 O560 2.378 . S
Tb536 O564 2.325 . S
Tb536 O567 2.341 . S
Tb537 C547 2.809 . S
Tb537 O558 2.325 . S
Tb537 O561 2.341 . S
Tb537 O562 2.484 . S
Tb537 O563 2.440 . S
Tb537 O564 2.658 . S
Tb537 O565 2.409 . S
Tb537 O566 2.378 . S
C538 Tb536 2.809 . S
C538 C539 1.514 . S
C538 O556 1.248 . S
C538 O557 1.266 . S
C539 C538 1.514 . S
C539 C540 1.359 . S
C539 C544 1.348 . S
C540 C539 1.359 . S
C540 C541 1.380 . S
C540 H568 0.929 . S
C541 C540 1.380 . S
C541 C542 1.347 . S
C541 H569 0.931 . S
C542 C541 1.347 . S
C542 C543 1.369 . S
C543 C542 1.369 . S
C543 C544 1.408 . S
C543 H570 0.930 . S
C544 C539 1.348 . S
C544 C543 1.408 . S
C544 H571 0.930 . S
C545 O558 1.281 . S
C545 O559 1.254 . S
C546 O560 1.236 . S
C546 O561 1.266 . S
C547 Tb537 2.809 . S
C547 C548 1.514 . S
C547 O562 1.248 . S
C547 O563 1.266 . S
C548 C547 1.514 . S
C548 C549 1.359 . S
C548 C553 1.348 . S
C549 C548 1.359 . S
C549 C550 1.380 . S
C549 H572 0.929 . S
C550 C549 1.380 . S
C550 C551 1.347 . S
C550 H573 0.931 . S
C551 C550 1.347 . S
C551 C552 1.369 . S
C552 C551 1.369 . S
C552 C553 1.408 . S
C552 H574 0.930 . S
C553 C548 1.348 . S
C553 C552 1.408 . S
C553 H575 0.930 . S
C554 O564 1.281 . S
C554 O565 1.254 . S
C555 O566 1.236 . S
C555 O567 1.266 . S
O556 Tb536 2.484 . S
O556 C538 1.248 . S
O557 Tb536 2.440 . S
O557 C538 1.266 . S
O558 Tb536 2.658 . S
O558 Tb537 2.325 . S
O558 C545 1.281 . S
O559 Tb536 2.409 . S
O559 C545 1.254 . S
O560 Tb536 2.378 . S
O560 C546 1.236 . S
O561 Tb537 2.341 . S
O561 C546 1.266 . S
O562 Tb537 2.484 . S
O562 C547 1.248 . S
O563 Tb537 2.440 . S
O563 C547 1.266 . S
O564 Tb536 2.325 . S
O564 Tb537 2.658 . S
O564 C554 1.281 . S
O565 Tb537 2.409 . S
O565 C554 1.254 . S
O566 Tb537 2.378 . S
O566 C555 1.236 . S
O567 Tb536 2.341 . S
O567 C555 1.266 . S
H568 C540 0.929 . S
H569 C541 0.931 . S
H570 C543 0.930 . S
H571 C544 0.930 . S
H572 C549 0.929 . S
H573 C550 0.931 . S
H574 C552 0.930 . S
H575 C553 0.930 . S
Tb576 C578 2.809 1_545 S
Tb576 O596 2.484 1_545 S
Tb576 O597 2.440 . S
Tb576 O598 2.658 . S
Tb576 O599 2.409 . S
Tb576 O600 2.378 . S
Tb576 O604 2.325 1_545 S
Tb576 O607 2.341 . S
Tb577 C587 2.809 . S
Tb577 O598 2.325 . S
Tb577 O601 2.341 . S
Tb577 O602 2.484 . S
Tb577 O603 2.440 . S
Tb577 O604 2.658 1_545 S
Tb577 O605 2.409 1_545 S
Tb577 O606 2.378 . S
C578 Tb576 2.809 1_565 S
C578 C579 1.514 . S
C578 O596 1.248 . S
C578 O597 1.266 1_565 S
C579 C578 1.514 . S
C579 C580 1.359 . S
C579 C584 1.391 . S
C580 C579 1.359 . S
C580 C581 1.380 . S
C580 H608 0.929 . S
C581 C580 1.380 . S
C581 C582 1.347 . S
C581 H609 0.931 . S
C582 C581 1.347 . S
C582 C583 1.369 . S
C583 C582 1.369 . S
C583 C584 1.418 . S
C583 H610 0.941 . S
C584 C579 1.391 . S
C584 C583 1.418 . S
C584 H611 0.879 1_565 S
C585 O598 1.281 . S
C585 O599 1.254 . S
C586 O600 1.236 . S
C586 O601 1.266 . S
C587 Tb577 2.809 . S
C587 C588 1.514 . S
C587 O602 1.248 . S
C587 O603 1.266 . S
C588 C587 1.514 . S
C588 C589 1.359 . S
C588 C593 1.348 . S
C589 C588 1.359 . S
C589 C590 1.380 . S
C589 H612 0.929 . S
C590 C589 1.380 . S
C590 C591 1.347 . S
C590 H613 0.931 . S
C591 C590 1.347 . S
C591 C592 1.369 . S
C592 C591 1.369 . S
C592 C593 1.408 . S
C592 H614 0.930 . S
C593 C588 1.348 . S
C593 C592 1.408 . S
C593 H615 0.930 . S
C594 O604 1.281 . S
C594 O605 1.254 . S
C595 O606 1.236 . S
C595 O607 1.266 . S
O596 Tb576 2.484 1_565 S
O596 C578 1.248 . S
O597 Tb576 2.440 . S
O597 C578 1.266 1_545 S
O598 Tb576 2.658 . S
O598 Tb577 2.325 . S
O598 C585 1.281 . S
O599 Tb576 2.409 . S
O599 C585 1.254 . S
O600 Tb576 2.378 . S
O600 C586 1.236 . S
O601 Tb577 2.341 . S
O601 C586 1.266 . S
O602 Tb577 2.484 . S
O602 C587 1.248 . S
O603 Tb577 2.440 . S
O603 C587 1.266 . S
O604 Tb576 2.325 1_565 S
O604 Tb577 2.658 1_565 S
O604 C594 1.281 . S
O605 Tb577 2.409 1_565 S
O605 C594 1.254 . S
O606 Tb577 2.378 . S
O606 C595 1.236 . S
O607 Tb576 2.341 . S
O607 C595 1.266 . S
H608 C580 0.929 . S
H609 C581 0.931 . S
H610 C583 0.941 . S
H611 C584 0.879 1_545 S
H612 C589 0.929 . S
H613 C590 0.931 . S
H614 C592 0.930 . S
H615 C593 0.930 . S
Tb616 C618 2.809 . S
Tb616 O636 2.484 . S
Tb616 O637 2.440 . S
Tb616 O638 2.658 . S
Tb616 O639 2.409 . S
Tb616 O640 2.378 . S
Tb616 O644 2.325 . S
Tb616 O647 2.341 . S
Tb617 C627 2.809 . S
Tb617 O638 2.325 . S
Tb617 O641 2.341 . S
Tb617 O642 2.484 . S
Tb617 O643 2.440 . S
Tb617 O644 2.658 . S
Tb617 O645 2.409 . S
Tb617 O646 2.378 . S
C618 Tb616 2.809 . S
C618 C619 1.514 . S
C618 O636 1.248 . S
C618 O637 1.266 . S
C619 C618 1.514 . S
C619 C620 1.359 . S
C619 C624 1.348 . S
C620 C619 1.359 . S
C620 C621 1.380 . S
C620 H648 0.929 . S
C621 C620 1.380 . S
C621 C622 1.347 . S
C621 H649 0.931 . S
C622 C621 1.347 . S
C622 C623 1.369 . S
C623 C622 1.369 . S
C623 C624 1.408 . S
C623 H650 0.930 . S
C624 C619 1.348 . S
C624 C623 1.408 . S
C624 H651 0.930 . S
C625 O638 1.281 . S
C625 O639 1.254 . S
C626 O640 1.236 . S
C626 O641 1.266 . S
C627 Tb617 2.809 . S
C627 C628 1.514 . S
C627 O642 1.248 . S
C627 O643 1.266 . S
C628 C627 1.514 . S
C628 C629 1.359 . S
C628 C633 1.348 . S
C629 C628 1.359 . S
C629 C630 1.380 . S
C629 H652 0.929 . S
C630 C629 1.380 . S
C630 C631 1.347 . S
C630 H653 0.931 . S
C631 C630 1.347 . S
C631 C632 1.369 . S
C632 C631 1.369 . S
C632 C633 1.408 . S
C632 H654 0.930 . S
C633 C628 1.348 . S
C633 C632 1.408 . S
C633 H655 0.930 . S
C634 O644 1.281 . S
C634 O645 1.254 . S
C635 O646 1.236 . S
C635 O647 1.266 . S
O636 Tb616 2.484 . S
O636 C618 1.248 . S
O637 Tb616 2.440 . S
O637 C618 1.266 . S
O638 Tb616 2.658 . S
O638 Tb617 2.325 . S
O638 C625 1.281 . S
O639 Tb616 2.409 . S
O639 C625 1.254 . S
O640 Tb616 2.378 . S
O640 C626 1.236 . S
O641 Tb617 2.341 . S
O641 C626 1.266 . S
O642 Tb617 2.484 . S
O642 C627 1.248 . S
O643 Tb617 2.440 . S
O643 C627 1.266 . S
O644 Tb616 2.325 . S
O644 Tb617 2.658 . S
O644 C634 1.281 . S
O645 Tb617 2.409 . S
O645 C634 1.254 . S
O646 Tb617 2.378 . S
O646 C635 1.236 . S
O647 Tb616 2.341 . S
O647 C635 1.266 . S
H648 C620 0.929 . S
H649 C621 0.931 . S
H650 C623 0.930 . S
H651 C624 0.930 . S
H652 C629 0.929 . S
H653 C630 0.931 . S
H654 C632 0.930 . S
H655 C633 0.930 . S
Tb656 C658 2.809 . S
Tb656 O676 2.484 . S
Tb656 O677 2.440 . S
Tb656 O678 2.658 . S
Tb656 O679 2.409 . S
Tb656 O680 2.378 . S
Tb656 O684 2.325 . S
Tb656 O687 2.341 . S
Tb657 C667 2.809 . S
Tb657 O678 2.325 . S
Tb657 O681 2.341 . S
Tb657 O682 2.484 . S
Tb657 O683 2.440 . S
Tb657 O684 2.658 . S
Tb657 O685 2.409 . S
Tb657 O686 2.378 . S
C658 Tb656 2.809 . S
C658 C659 1.514 . S
C658 O676 1.248 . S
C658 O677 1.266 . S
C659 C658 1.514 . S
C659 C660 1.359 . S
C659 C664 1.348 . S
C660 C659 1.359 . S
C660 C661 1.380 1_554 S
C660 H688 0.929 . S
C661 C660 1.380 1_556 S
C661 C662 1.347 . S
C661 H689 0.931 . S
C662 C661 1.347 . S
C662 C663 1.369 1_556 S
C663 C662 1.369 1_554 S
C663 C664 1.408 . S
C663 H690 0.930 . S
C664 C659 1.348 . S
C664 C663 1.408 . S
C664 H691 0.930 . S
C665 O678 1.281 . S
C665 O679 1.254 . S
C666 O680 1.236 . S
C666 O681 1.266 . S
C667 Tb657 2.809 . S
C667 C668 1.514 . S
C667 O682 1.248 . S
C667 O683 1.266 . S
C668 C667 1.514 . S
C668 C669 1.359 . S
C668 C673 1.348 . S
C669 C668 1.359 . S
C669 C670 1.380 . S
C669 H692 0.929 . S
C670 C669 1.380 . S
C670 C671 1.347 . S
C670 H693 0.931 . S
C671 C670 1.347 . S
C671 C672 1.369 . S
C672 C671 1.369 . S
C672 C673 1.408 . S
C672 H694 0.930 . S
C673 C668 1.348 . S
C673 C672 1.408 . S
C673 H695 0.930 . S
C674 O684 1.281 . S
C674 O685 1.254 . S
C675 O686 1.236 . S
C675 O687 1.266 . S
O676 Tb656 2.484 . S
O676 C658 1.248 . S
O677 Tb656 2.440 . S
O677 C658 1.266 . S
O678 Tb656 2.658 . S
O678 Tb657 2.325 . S
O678 C665 1.281 . S
O679 Tb656 2.409 . S
O679 C665 1.254 . S
O680 Tb656 2.378 . S
O680 C666 1.236 . S
O681 Tb657 2.341 . S
O681 C666 1.266 . S
O682 Tb657 2.484 . S
O682 C667 1.248 . S
O683 Tb657 2.440 . S
O683 C667 1.266 . S
O684 Tb656 2.325 . S
O684 Tb657 2.658 . S
O684 C674 1.281 . S
O685 Tb657 2.409 . S
O685 C674 1.254 . S
O686 Tb657 2.378 . S
O686 C675 1.236 . S
O687 Tb656 2.341 . S
O687 C675 1.266 . S
H688 C660 0.929 . S
H689 C661 0.931 . S
H690 C663 0.930 . S
H691 C664 0.930 . S
H692 C669 0.929 . S
H693 C670 0.931 . S
H694 C672 0.930 . S
H695 C673 0.930 . S
Tb696 C698 2.809 . S
Tb696 O716 2.484 . S
Tb696 O717 2.440 . S
Tb696 O718 2.658 . S
Tb696 O719 2.409 . S
Tb696 O720 2.378 . S
Tb696 O724 2.325 . S
Tb696 O727 2.341 . S
Tb697 C707 2.809 . S
Tb697 O718 2.325 . S
Tb697 O721 2.341 . S
Tb697 O722 2.484 . S
Tb697 O723 2.440 . S
Tb697 O724 2.658 . S
Tb697 O725 2.409 . S
Tb697 O726 2.378 . S
C698 Tb696 2.809 . S
C698 C699 1.514 . S
C698 O716 1.248 . S
C698 O717 1.266 . S
C699 C698 1.514 . S
C699 C700 1.359 . S
C699 C704 1.348 . S
C700 C699 1.359 . S
C700 C701 1.380 . S
C700 H728 0.929 . S
C701 C700 1.380 . S
C701 C702 1.347 . S
C701 H729 0.931 . S
C702 C701 1.347 . S
C702 C703 1.369 . S
C703 C702 1.369 . S
C703 C704 1.408 . S
C703 H730 0.930 . S
C704 C699 1.348 . S
C704 C703 1.408 . S
C704 H731 0.930 . S
C705 O718 1.281 . S
C705 O719 1.254 . S
C706 O720 1.236 . S
C706 O721 1.266 . S
C707 Tb697 2.809 . S
C707 C708 1.514 . S
C707 O722 1.248 . S
C707 O723 1.266 . S
C708 C707 1.514 . S
C708 C709 1.359 . S
C708 C713 1.348 . S
C709 C708 1.359 . S
C709 C710 1.380 . S
C709 H732 0.929 . S
C710 C709 1.380 . S
C710 C711 1.347 . S
C710 H733 0.931 . S
C711 C710 1.347 . S
C711 C712 1.369 . S
C712 C711 1.369 . S
C712 C713 1.408 . S
C712 H734 0.930 . S
C713 C708 1.348 . S
C713 C712 1.408 . S
C713 H735 0.930 . S
C714 O724 1.281 . S
C714 O725 1.254 . S
C715 O726 1.236 . S
C715 O727 1.266 . S
O716 Tb696 2.484 . S
O716 C698 1.248 . S
O717 Tb696 2.440 . S
O717 C698 1.266 . S
O718 Tb696 2.658 . S
O718 Tb697 2.325 . S
O718 C705 1.281 . S
O719 Tb696 2.409 . S
O719 C705 1.254 . S
O720 Tb696 2.378 . S
O720 C706 1.236 . S
O721 Tb697 2.341 . S
O721 C706 1.266 . S
O722 Tb697 2.484 . S
O722 C707 1.248 . S
O723 Tb697 2.440 . S
O723 C707 1.266 . S
O724 Tb696 2.325 . S
O724 Tb697 2.658 . S
O724 C714 1.281 . S
O725 Tb697 2.409 . S
O725 C714 1.254 . S
O726 Tb697 2.378 . S
O726 C715 1.236 . S
O727 Tb696 2.341 . S
O727 C715 1.266 . S
H728 C700 0.929 . S
H729 C701 0.931 . S
H730 C703 0.930 . S
H731 C704 0.930 . S
H732 C709 0.929 . S
H733 C710 0.931 . S
H734 C712 0.930 . S
H735 C713 0.930 . S
Tb736 C738 2.809 1_455 S
Tb736 O756 2.484 1_455 S
Tb736 O757 2.440 1_455 S
Tb736 O758 2.658 . S
Tb736 O759 2.409 . S
Tb736 O760 2.378 . S
Tb736 O764 2.325 . S
Tb736 O767 2.341 . S
Tb737 C747 2.809 . S
Tb737 O758 2.325 . S
Tb737 O761 2.341 . S
Tb737 O762 2.484 . S
Tb737 O763 2.440 . S
Tb737 O764 2.658 . S
Tb737 O765 2.409 . S
Tb737 O766 2.378 . S
C738 Tb736 2.809 1_655 S
C738 C739 1.514 . S
C738 O756 1.248 . S
C738 O757 1.266 . S
C739 C738 1.514 . S
C739 C740 1.359 . S
C739 C744 1.348 . S
C740 C739 1.359 . S
C740 C741 1.380 . S
C740 H768 0.929 . S
C741 C740 1.380 . S
C741 C742 1.347 . S
C741 H769 0.931 . S
C742 C741 1.347 . S
C742 C743 1.369 . S
C743 C742 1.369 . S
C743 C744 1.408 . S
C743 H770 0.930 . S
C744 C739 1.348 . S
C744 C743 1.408 . S
C744 H771 0.930 . S
C745 O758 1.281 . S
C745 O759 1.254 . S
C746 O760 1.236 . S
C746 O761 1.266 . S
C747 Tb737 2.809 . S
C747 C748 1.514 . S
C747 O762 1.248 . S
C747 O763 1.266 . S
C748 C747 1.514 . S
C748 C749 1.359 . S
C748 C753 1.348 . S
C749 C748 1.359 . S
C749 C750 1.380 . S
C749 H772 0.929 . S
C750 C749 1.380 . S
C750 C751 1.347 . S
C750 H773 0.931 . S
C751 C750 1.347 . S
C751 C752 1.369 . S
C752 C751 1.369 . S
C752 C753 1.408 . S
C752 H774 0.930 . S
C753 C748 1.348 . S
C753 C752 1.408 . S
C753 H775 0.930 . S
C754 O764 1.281 . S
C754 O765 1.254 . S
C755 O766 1.236 . S
C755 O767 1.266 . S
O756 Tb736 2.484 1_655 S
O756 C738 1.248 . S
O757 Tb736 2.440 1_655 S
O757 C738 1.266 . S
O758 Tb736 2.658 . S
O758 Tb737 2.325 . S
O758 C745 1.281 . S
O759 Tb736 2.409 . S
O759 C745 1.254 . S
O760 Tb736 2.378 . S
O760 C746 1.236 . S
O761 Tb737 2.341 . S
O761 C746 1.266 . S
O762 Tb737 2.484 . S
O762 C747 1.248 . S
O763 Tb737 2.440 . S
O763 C747 1.266 . S
O764 Tb736 2.325 . S
O764 Tb737 2.658 . S
O764 C754 1.281 . S
O765 Tb737 2.409 . S
O765 C754 1.254 . S
O766 Tb737 2.378 . S
O766 C755 1.236 . S
O767 Tb736 2.341 . S
O767 C755 1.266 . S
H768 C740 0.929 . S
H769 C741 0.931 . S
H770 C743 0.930 . S
H771 C744 0.930 . S
H772 C749 0.929 . S
H773 C750 0.931 . S
H774 C752 0.930 . S
H775 C753 0.930 . S
Tb776 C778 2.809 . S
Tb776 O796 2.484 . S
Tb776 O797 2.440 . S
Tb776 O798 2.658 . S
Tb776 O799 2.409 . S
Tb776 O800 2.378 . S
Tb776 O804 2.325 . S
Tb776 O807 2.341 . S
Tb777 C787 2.809 . S
Tb777 O798 2.325 . S
Tb777 O801 2.341 . S
Tb777 O802 2.484 . S
Tb777 O803 2.440 . S
Tb777 O804 2.658 . S
Tb777 O805 2.409 . S
Tb777 O806 2.378 . S
C778 Tb776 2.809 . S
C778 C779 1.514 . S
C778 O796 1.248 . S
C778 O797 1.266 . S
C779 C778 1.514 . S
C779 C780 1.359 . S
C779 C784 1.348 . S
C780 C779 1.359 . S
C780 C781 1.380 . S
C780 H808 0.929 . S
C781 C780 1.380 . S
C781 C782 1.347 . S
C781 H809 0.931 . S
C782 C781 1.347 . S
C782 C783 1.369 . S
C783 C782 1.369 . S
C783 C784 1.408 . S
C783 H810 0.930 . S
C784 C779 1.348 . S
C784 C783 1.408 . S
C784 H811 0.930 . S
C785 O798 1.281 . S
C785 O799 1.254 . S
C786 O800 1.236 . S
C786 O801 1.266 . S
C787 Tb777 2.809 . S
C787 C788 1.514 . S
C787 O802 1.248 . S
C787 O803 1.266 . S
C788 C787 1.514 . S
C788 C789 1.359 . S
C788 C793 1.348 . S
C789 C788 1.359 . S
C789 C790 1.380 . S
C789 H812 0.929 . S
C790 C789 1.380 . S
C790 C791 1.347 . S
C790 H813 0.931 . S
C791 C790 1.347 . S
C791 C792 1.369 . S
C792 C791 1.369 . S
C792 C793 1.408 . S
C792 H814 0.930 . S
C793 C788 1.348 . S
C793 C792 1.408 . S
C793 H815 0.930 . S
C794 O804 1.281 . S
C794 O805 1.254 . S
C795 O806 1.236 . S
C795 O807 1.266 . S
O796 Tb776 2.484 . S
O796 C778 1.248 . S
O797 Tb776 2.440 . S
O797 C778 1.266 . S
O798 Tb776 2.658 . S
O798 Tb777 2.325 . S
O798 C785 1.281 . S
O799 Tb776 2.409 . S
O799 C785 1.254 . S
O800 Tb776 2.378 . S
O800 C786 1.236 . S
O801 Tb777 2.341 . S
O801 C786 1.266 . S
O802 Tb777 2.484 . S
O802 C787 1.248 . S
O803 Tb777 2.440 . S
O803 C787 1.266 . S
O804 Tb776 2.325 . S
O804 Tb777 2.658 . S
O804 C794 1.281 . S
O805 Tb777 2.409 . S
O805 C794 1.254 . S
O806 Tb777 2.378 . S
O806 C795 1.236 . S
O807 Tb776 2.341 . S
O807 C795 1.266 . S
H808 C780 0.929 . S
H809 C781 0.931 . S
H810 C783 0.930 . S
H811 C784 0.930 . S
H812 C789 0.929 . S
H813 C790 0.931 . S
H814 C792 0.930 . S
H815 C793 0.930 . S
Tb816 C818 2.809 . S
Tb816 O836 2.484 . S
Tb816 O837 2.440 . S
Tb816 O838 2.658 . S
Tb816 O839 2.409 . S
Tb816 O840 2.378 . S
Tb816 O844 2.325 . S
Tb816 O847 2.341 . S
Tb817 C827 2.809 . S
Tb817 O838 2.325 . S
Tb817 O841 2.341 . S
Tb817 O842 2.484 . S
Tb817 O843 2.440 . S
Tb817 O844 2.658 . S
Tb817 O845 2.409 . S
Tb817 O846 2.378 . S
C818 Tb816 2.809 . S
C818 C819 1.514 . S
C818 O836 1.248 . S
C818 O837 1.266 . S
C819 C818 1.514 . S
C819 C820 1.359 . S
C819 C824 1.348 . S
C820 C819 1.359 . S
C820 C821 1.380 . S
C820 H848 0.929 . S
C821 C820 1.380 . S
C821 C822 1.347 . S
C821 H849 0.931 . S
C822 C821 1.347 . S
C822 C823 1.369 . S
C823 C822 1.369 . S
C823 C824 1.408 . S
C823 H850 0.930 . S
C824 C819 1.348 . S
C824 C823 1.408 . S
C824 H851 0.930 . S
C825 O838 1.281 . S
C825 O839 1.254 . S
C826 O840 1.236 . S
C826 O841 1.266 . S
C827 Tb817 2.809 . S
C827 C828 1.514 . S
C827 O842 1.248 . S
C827 O843 1.266 . S
C828 C827 1.514 . S
C828 C829 1.359 . S
C828 C833 1.348 . S
C829 C828 1.359 . S
C829 C830 1.380 . S
C829 H852 0.929 . S
C830 C829 1.380 . S
C830 C831 1.347 . S
C830 H853 0.931 . S
C831 C830 1.347 . S
C831 C832 1.369 . S
C832 C831 1.369 . S
C832 C833 1.408 . S
C832 H854 0.930 . S
C833 C828 1.348 . S
C833 C832 1.408 . S
C833 H855 0.930 . S
C834 O844 1.281 . S
C834 O845 1.254 . S
C835 O846 1.236 . S
C835 O847 1.266 . S
O836 Tb816 2.484 . S
O836 C818 1.248 . S
O837 Tb816 2.440 . S
O837 C818 1.266 . S
O838 Tb816 2.658 . S
O838 Tb817 2.325 . S
O838 C825 1.281 . S
O839 Tb816 2.409 . S
O839 C825 1.254 . S
O840 Tb816 2.378 . S
O840 C826 1.236 . S
O841 Tb817 2.341 . S
O841 C826 1.266 . S
O842 Tb817 2.484 . S
O842 C827 1.248 . S
O843 Tb817 2.440 . S
O843 C827 1.266 . S
O844 Tb816 2.325 . S
O844 Tb817 2.658 . S
O844 C834 1.281 . S
O845 Tb817 2.409 . S
O845 C834 1.254 . S
O846 Tb817 2.378 . S
O846 C835 1.236 . S
O847 Tb816 2.341 . S
O847 C835 1.266 . S
H848 C820 0.929 . S
H849 C821 0.931 . S
H850 C823 0.930 . S
H851 C824 0.930 . S
H852 C829 0.929 . S
H853 C830 0.931 . S
H854 C832 0.930 . S
H855 C833 0.930 . S
Tb856 C858 2.809 . S
Tb856 O876 2.484 . S
Tb856 O877 2.440 . S
Tb856 O878 2.658 . S
Tb856 O879 2.409 . S
Tb856 O880 2.378 . S
Tb856 O884 2.325 . S
Tb856 O887 2.341 . S
Tb857 C867 2.809 . S
Tb857 O878 2.325 . S
Tb857 O881 2.341 . S
Tb857 O882 2.484 . S
Tb857 O883 2.440 . S
Tb857 O884 2.658 . S
Tb857 O885 2.409 . S
Tb857 O886 2.378 . S
C858 Tb856 2.809 . S
C858 C859 1.514 . S
C858 O876 1.248 . S
C858 O877 1.266 . S
C859 C858 1.514 . S
C859 C860 1.359 . S
C859 C864 1.348 . S
C860 C859 1.359 . S
C860 C861 1.380 . S
C860 H888 0.929 . S
C861 C860 1.380 . S
C861 C862 1.347 . S
C861 H889 0.931 . S
C862 C861 1.347 . S
C862 C863 1.369 . S
C863 C862 1.369 . S
C863 C864 1.408 . S
C863 H890 0.930 . S
C864 C859 1.348 . S
C864 C863 1.408 . S
C864 H891 0.930 . S
C865 O878 1.281 . S
C865 O879 1.254 . S
C866 O880 1.236 . S
C866 O881 1.266 . S
C867 Tb857 2.809 . S
C867 C868 1.514 . S
C867 O882 1.248 . S
C867 O883 1.266 . S
C868 C867 1.514 . S
C868 C869 1.359 . S
C868 C873 1.348 . S
C869 C868 1.359 . S
C869 C870 1.380 . S
C869 H892 0.929 . S
C870 C869 1.380 . S
C870 C871 1.347 . S
C870 H893 0.931 . S
C871 C870 1.347 . S
C871 C872 1.369 . S
C872 C871 1.369 . S
C872 C873 1.408 . S
C872 H894 0.930 . S
C873 C868 1.348 . S
C873 C872 1.408 . S
C873 H895 0.930 . S
C874 O884 1.281 . S
C874 O885 1.254 . S
C875 O886 1.236 . S
C875 O887 1.266 . S
O876 Tb856 2.484 . S
O876 C858 1.248 . S
O877 Tb856 2.440 . S
O877 C858 1.266 . S
O878 Tb856 2.658 . S
O878 Tb857 2.325 . S
O878 C865 1.281 . S
O879 Tb856 2.409 . S
O879 C865 1.254 . S
O880 Tb856 2.378 . S
O880 C866 1.236 . S
O881 Tb857 2.341 . S
O881 C866 1.266 . S
O882 Tb857 2.484 . S
O882 C867 1.248 . S
O883 Tb857 2.440 . S
O883 C867 1.266 . S
O884 Tb856 2.325 . S
O884 Tb857 2.658 . S
O884 C874 1.281 . S
O885 Tb857 2.409 . S
O885 C874 1.254 . S
O886 Tb857 2.378 . S
O886 C875 1.236 . S
O887 Tb856 2.341 . S
O887 C875 1.266 . S
H888 C860 0.929 . S
H889 C861 0.931 . S
H890 C863 0.930 . S
H891 C864 0.930 . S
H892 C869 0.929 . S
H893 C870 0.931 . S
H894 C872 0.930 . S
H895 C873 0.930 . S
Tb896 C898 2.809 . S
Tb896 O916 2.484 . S
Tb896 O917 2.440 . S
Tb896 O918 2.658 . S
Tb896 O919 2.409 . S
Tb896 O920 2.378 . S
Tb896 O924 2.325 . S
Tb896 O927 2.341 . S
Tb897 C907 2.809 . S
Tb897 O918 2.325 . S
Tb897 O921 2.341 . S
Tb897 O922 2.484 . S
Tb897 O923 2.440 . S
Tb897 O924 2.658 . S
Tb897 O925 2.409 . S
Tb897 O926 2.378 . S
C898 Tb896 2.809 . S
C898 C899 1.514 . S
C898 O916 1.248 . S
C898 O917 1.266 . S
C899 C898 1.514 . S
C899 C900 1.359 . S
C899 C904 1.348 . S
C900 C899 1.359 . S
C900 C901 1.380 . S
C900 H928 0.929 . S
C901 C900 1.380 . S
C901 C902 1.347 . S
C901 H929 0.931 . S
C902 C901 1.347 . S
C902 C903 1.369 . S
C903 C902 1.369 . S
C903 C904 1.408 . S
C903 H930 0.930 . S
C904 C899 1.348 . S
C904 C903 1.408 . S
C904 H931 0.930 . S
C905 O918 1.281 . S
C905 O919 1.254 . S
C906 O920 1.236 . S
C906 O921 1.266 . S
C907 Tb897 2.809 . S
C907 C908 1.514 . S
C907 O922 1.248 . S
C907 O923 1.266 . S
C908 C907 1.514 . S
C908 C909 1.359 . S
C908 C913 1.348 . S
C909 C908 1.359 . S
C909 C910 1.380 . S
C909 H932 0.929 . S
C910 C909 1.380 . S
C910 C911 1.347 . S
C910 H933 0.931 . S
C911 C910 1.347 . S
C911 C912 1.369 . S
C912 C911 1.369 . S
C912 C913 1.408 . S
C912 H934 0.930 . S
C913 C908 1.348 . S
C913 C912 1.408 . S
C913 H935 0.930 . S
C914 O924 1.281 . S
C914 O925 1.254 . S
C915 O926 1.236 . S
C915 O927 1.266 . S
O916 Tb896 2.484 . S
O916 C898 1.248 . S
O917 Tb896 2.440 . S
O917 C898 1.266 . S
O918 Tb896 2.658 . S
O918 Tb897 2.325 . S
O918 C905 1.281 . S
O919 Tb896 2.409 . S
O919 C905 1.254 . S
O920 Tb896 2.378 . S
O920 C906 1.236 . S
O921 Tb897 2.341 . S
O921 C906 1.266 . S
O922 Tb897 2.484 . S
O922 C907 1.248 . S
O923 Tb897 2.440 . S
O923 C907 1.266 . S
O924 Tb896 2.325 . S
O924 Tb897 2.658 . S
O924 C914 1.281 . S
O925 Tb897 2.409 . S
O925 C914 1.254 . S
O926 Tb897 2.378 . S
O926 C915 1.236 . S
O927 Tb896 2.341 . S
O927 C915 1.266 . S
H928 C900 0.929 . S
H929 C901 0.931 . S
H930 C903 0.930 . S
H931 C904 0.930 . S
H932 C909 0.929 . S
H933 C910 0.931 . S
H934 C912 0.930 . S
H935 C913 0.930 . S
Tb936 C938 2.809 . S
Tb936 O956 2.484 . S
Tb936 O957 2.440 . S
Tb936 O958 2.658 . S
Tb936 O959 2.409 . S
Tb936 O960 2.378 . S
Tb936 O964 2.325 . S
Tb936 O967 2.341 . S
Tb937 C947 2.809 1_455 S
Tb937 O958 2.325 . S
Tb937 O961 2.341 . S
Tb937 O962 2.484 1_455 S
Tb937 O963 2.440 1_455 S
Tb937 O964 2.658 . S
Tb937 O965 2.409 . S
Tb937 O966 2.378 . S
C938 Tb936 2.809 . S
C938 C939 1.514 . S
C938 O956 1.248 . S
C938 O957 1.266 . S
C939 C938 1.514 . S
C939 C940 1.359 . S
C939 C944 1.348 . S
C940 C939 1.359 . S
C940 C941 1.380 . S
C940 H968 0.929 . S
C941 C940 1.380 . S
C941 C942 1.347 . S
C941 H969 0.931 . S
C942 C941 1.347 . S
C942 C943 1.369 . S
C943 C942 1.369 . S
C943 C944 1.408 . S
C943 H970 0.930 . S
C944 C939 1.348 . S
C944 C943 1.408 . S
C944 H971 0.930 . S
C945 O958 1.281 . S
C945 O959 1.254 . S
C946 O960 1.236 . S
C946 O961 1.266 . S
C947 Tb937 2.809 1_655 S
C947 C948 1.514 . S
C947 O962 1.248 . S
C947 O963 1.266 . S
C948 C947 1.514 . S
C948 C949 1.359 . S
C948 C953 1.348 . S
C949 C948 1.359 . S
C949 C950 1.380 . S
C949 H972 0.929 . S
C950 C949 1.380 . S
C950 C951 1.347 . S
C950 H973 0.931 . S
C951 C950 1.347 . S
C951 C952 1.369 . S
C952 C951 1.369 . S
C952 C953 1.408 . S
C952 H974 0.930 . S
C953 C948 1.348 . S
C953 C952 1.408 . S
C953 H975 0.930 . S
C954 O964 1.281 . S
C954 O965 1.254 . S
C955 O966 1.236 . S
C955 O967 1.266 . S
O956 Tb936 2.484 . S
O956 C938 1.248 . S
O957 Tb936 2.440 . S
O957 C938 1.266 . S
O958 Tb936 2.658 . S
O958 Tb937 2.325 . S
O958 C945 1.281 . S
O959 Tb936 2.409 . S
O959 C945 1.254 . S
O960 Tb936 2.378 . S
O960 C946 1.236 . S
O961 Tb937 2.341 . S
O961 C946 1.266 . S
O962 Tb937 2.484 1_655 S
O962 C947 1.248 . S
O963 Tb937 2.440 1_655 S
O963 C947 1.266 . S
O964 Tb936 2.325 . S
O964 Tb937 2.658 . S
O964 C954 1.281 . S
O965 Tb937 2.409 . S
O965 C954 1.254 . S
O966 Tb937 2.378 . S
O966 C955 1.236 . S
O967 Tb936 2.341 . S
O967 C955 1.266 . S
H968 C940 0.929 . S
H969 C941 0.931 . S
H970 C943 0.930 . S
H971 C944 0.930 . S
H972 C949 0.929 . S
H973 C950 0.931 . S
H974 C952 0.930 . S
H975 C953 0.930 . S
H976 C984 0.898 1_655 S
H977 C986 0.930 1_655 S
H978 C988 0.930 . S
H979 C991 0.929 . S
H980 C994 0.930 1_655 S
H981 C996 0.960 . S
H982 C996 0.960 . S
H983 C996 0.960 1_556 S
C984 H976 0.898 1_455 S
C984 C985 1.401 . S
C984 C986 1.392 . S
C985 C984 1.401 . S
C985 C991 1.390 . S
C986 H977 0.930 1_455 S
C986 C984 1.392 . S
C986 C987 1.372 . S
C987 C986 1.372 . S
C987 C988 1.400 . S
C987 C992 1.490 . S
C988 H978 0.930 . S
C988 C987 1.400 . S
C988 C991 1.386 . S
H989 C1005 0.930 . S
H990 C1006 0.882 1_556 S
C991 H979 0.929 . S
C991 C985 1.390 . S
C991 C988 1.386 . S
C992 C987 1.490 . S
C992 C994 1.395 . S
C992 C995 1.432 . S
H993 C999 0.930 . S
C994 H980 0.930 1_455 S
C994 C992 1.395 . S
C994 C997 1.403 . S
C995 C992 1.432 . S
C995 C996 1.518 1_556 S
C995 C999 1.376 1_556 S
C996 H981 0.960 . S
C996 H982 0.960 . S
C996 H983 0.960 1_554 S
C996 C995 1.518 1_554 S
C997 C994 1.403 . S
C997 C998 1.392 1_556 S
C997 C1001 1.495 1_455 S
C998 C997 1.392 1_554 S
C998 C999 1.385 . S
C998 C1000 1.478 . S
C999 H993 0.930 . S
C999 C995 1.376 1_554 S
C999 C998 1.385 . S
C1000 C998 1.478 . S
C1000 C1002 1.381 . S
C1000 C1006 1.383 . S
C1001 C997 1.495 1_655 S
C1001 H1007 0.959 . S
C1001 H1008 0.961 . S
C1001 H1009 0.960 . S
C1002 C1000 1.381 . S
C1002 C1003 1.394 . S
C1002 H1010 0.930 . S
C1003 C1002 1.394 . S
C1003 C1004 1.383 . S
C1003 H1011 0.929 . S
C1004 C1003 1.383 . S
C1004 C1005 1.377 . S
C1005 H989 0.930 . S
C1005 C1004 1.377 . S
C1005 C1006 1.379 . S
C1006 H990 0.882 1_554 S
C1006 C1000 1.383 . S
C1006 C1005 1.379 . S
H1007 C1001 0.959 . S
H1008 C1001 0.961 . S
H1009 C1001 0.960 . S
H1010 C1002 0.930 . S
H1011 C1003 0.929 . S
H1012 C1020 0.929 . S
H1013 C1022 0.930 . S
H1014 C1024 0.930 . S
H1015 C1027 0.929 . S
H1016 C1030 0.930 . S
H1017 C1032 0.960 . S
H1018 C1032 0.960 . S
H1019 C1032 0.960 . S
C1020 H1012 0.929 . S
C1020 C1021 1.377 . S
C1020 C1022 1.384 . S
C1021 C1020 1.377 . S
C1021 C1027 1.390 . S
C1022 H1013 0.930 . S
C1022 C1020 1.384 . S
C1022 C1023 1.372 . S
C1023 C1022 1.372 . S
C1023 C1024 1.400 . S
C1023 C1028 1.490 . S
C1024 H1014 0.930 . S
C1024 C1023 1.400 . S
C1024 C1027 1.386 . S
H1025 C1041 0.930 . S
H1026 C1042 0.931 . S
C1027 H1015 0.929 . S
C1027 C1021 1.390 . S
C1027 C1024 1.386 . S
C1028 C1023 1.490 . S
C1028 C1030 1.395 . S
C1028 C1031 1.403 . S
H1029 C1035 0.930 . S
C1030 H1016 0.930 . S
C1030 C1028 1.395 . S
C1030 C1033 1.403 . S
C1031 C1028 1.403 . S
C1031 C1032 1.524 . S
C1031 C1035 1.400 . S
C1032 H1017 0.960 . S
C1032 H1018 0.960 . S
C1032 H1019 0.960 . S
C1032 C1031 1.524 . S
C1033 C1030 1.403 . S
C1033 C1034 1.392 . S
C1033 C1037 1.495 . S
C1034 C1033 1.392 . S
C1034 C1035 1.385 . S
C1034 C1036 1.478 . S
C1035 H1029 0.930 . S
C1035 C1031 1.400 . S
C1035 C1034 1.385 . S
C1036 C1034 1.478 . S
C1036 C1038 1.381 . S
C1036 C1042 1.383 . S
C1037 C1033 1.495 . S
C1037 H1043 0.959 . S
C1037 H1044 0.961 . S
C1037 H1045 0.960 . S
C1038 C1036 1.381 . S
C1038 C1039 1.394 . S
C1038 H1046 0.930 . S
C1039 C1038 1.394 . S
C1039 C1040 1.383 . S
C1039 H1047 0.929 . S
C1040 C1039 1.383 . S
C1040 C1041 1.377 . S
C1041 H1025 0.930 . S
C1041 C1040 1.377 . S
C1041 C1042 1.379 . S
C1042 H1026 0.931 . S
C1042 C1036 1.383 . S
C1042 C1041 1.379 . S
H1043 C1037 0.959 . S
H1044 C1037 0.961 . S
H1045 C1037 0.960 . S
H1046 C1038 0.930 . S
H1047 C1039 0.929 . S
H1048 C1056 0.929 . S
H1049 C1058 0.930 . S
H1050 C1060 0.930 . S
H1051 C1063 0.929 . S
H1052 C1066 0.930 . S
H1053 C1068 0.960 . S
H1054 C1068 0.960 . S
H1055 C1068 0.960 . S
C1056 H1048 0.929 . S
C1056 C1057 1.377 . S
C1056 C1058 1.384 . S
C1057 C1056 1.377 . S
C1057 C1063 1.390 . S
C1058 H1049 0.930 . S
C1058 C1056 1.384 . S
C1058 C1059 1.372 . S
C1059 C1058 1.372 . S
C1059 C1060 1.400 . S
C1059 C1064 1.490 . S
C1060 H1050 0.930 . S
C1060 C1059 1.400 . S
C1060 C1063 1.386 . S
H1061 C1077 0.930 . S
H1062 C1078 0.931 . S
C1063 H1051 0.929 . S
C1063 C1057 1.390 . S
C1063 C1060 1.386 . S
C1064 C1059 1.490 . S
C1064 C1066 1.395 . S
C1064 C1067 1.403 . S
H1065 C1071 0.930 . S
C1066 H1052 0.930 . S
C1066 C1064 1.395 . S
C1066 C1069 1.403 . S
C1067 C1064 1.403 . S
C1067 C1068 1.524 . S
C1067 C1071 1.400 . S
C1068 H1053 0.960 . S
C1068 H1054 0.960 . S
C1068 H1055 0.960 . S
C1068 C1067 1.524 . S
C1069 C1066 1.403 . S
C1069 C1070 1.392 . S
C1069 C1073 1.495 . S
C1070 C1069 1.392 . S
C1070 C1071 1.385 . S
C1070 C1072 1.478 . S
C1071 H1065 0.930 . S
C1071 C1067 1.400 . S
C1071 C1070 1.385 . S
C1072 C1070 1.478 . S
C1072 C1074 1.381 . S
C1072 C1078 1.383 . S
C1073 C1069 1.495 . S
C1073 H1079 0.959 . S
C1073 H1080 0.961 . S
C1073 H1081 0.960 . S
C1074 C1072 1.381 . S
C1074 C1075 1.394 . S
C1074 H1082 0.930 . S
C1075 C1074 1.394 . S
C1075 C1076 1.383 . S
C1075 H1083 0.929 . S
C1076 C1075 1.383 . S
C1076 C1077 1.377 . S
C1077 H1061 0.930 . S
C1077 C1076 1.377 . S
C1077 C1078 1.379 . S
C1078 H1062 0.931 . S
C1078 C1072 1.383 . S
C1078 C1077 1.379 . S
H1079 C1073 0.959 . S
H1080 C1073 0.961 . S
H1081 C1073 0.960 . S
H1082 C1074 0.930 . S
H1083 C1075 0.929 . S
H1084 C1092 0.929 . S
H1085 C1094 0.930 . S
H1086 C1096 0.930 . S
H1087 C1099 0.929 . S
H1088 C1102 0.930 . S
H1089 C1104 0.960 . S
H1090 C1104 0.960 . S
H1091 C1104 0.960 . S
C1092 H1084 0.929 . S
C1092 C1093 1.377 . S
C1092 C1094 1.384 . S
C1093 C1092 1.377 . S
C1093 C1099 1.390 . S
C1094 H1085 0.930 . S
C1094 C1092 1.384 . S
C1094 C1095 1.372 . S
C1095 C1094 1.372 . S
C1095 C1096 1.400 . S
C1095 C1100 1.490 . S
C1096 H1086 0.930 . S
C1096 C1095 1.400 . S
C1096 C1099 1.386 . S
H1097 C1113 0.930 . S
H1098 C1114 0.931 . S
C1099 H1087 0.929 . S
C1099 C1093 1.390 . S
C1099 C1096 1.386 . S
C1100 C1095 1.490 . S
C1100 C1102 1.395 . S
C1100 C1103 1.403 . S
H1101 C1107 0.930 . S
C1102 H1088 0.930 . S
C1102 C1100 1.395 . S
C1102 C1105 1.403 . S
C1103 C1100 1.403 . S
C1103 C1104 1.524 . S
C1103 C1107 1.400 . S
C1104 H1089 0.960 . S
C1104 H1090 0.960 . S
C1104 H1091 0.960 . S
C1104 C1103 1.524 . S
C1105 C1102 1.403 . S
C1105 C1106 1.392 . S
C1105 C1109 1.495 . S
C1106 C1105 1.392 . S
C1106 C1107 1.385 . S
C1106 C1108 1.478 . S
C1107 H1101 0.930 . S
C1107 C1103 1.400 . S
C1107 C1106 1.385 . S
C1108 C1106 1.478 . S
C1108 C1110 1.381 . S
C1108 C1114 1.383 . S
C1109 C1105 1.495 . S
C1109 H1115 0.959 . S
C1109 H1116 0.961 . S
C1109 H1117 0.960 . S
C1110 C1108 1.381 . S
C1110 C1111 1.394 . S
C1110 H1118 0.930 . S
C1111 C1110 1.394 . S
C1111 C1112 1.383 . S
C1111 H1119 0.929 . S
C1112 C1111 1.383 . S
C1112 C1113 1.377 . S
C1113 H1097 0.930 . S
C1113 C1112 1.377 . S
C1113 C1114 1.379 . S
C1114 H1098 0.931 . S
C1114 C1108 1.383 . S
C1114 C1113 1.379 . S
H1115 C1109 0.959 . S
H1116 C1109 0.961 . S
H1117 C1109 0.960 . S
H1118 C1110 0.930 . S
H1119 C1111 0.929 . S
H1120 C1128 0.929 . S
H1121 C1130 0.930 . S
H1122 C1132 0.930 . S
H1123 C1135 0.929 . S
H1124 C1138 0.930 . S
H1125 C1140 0.960 . S
H1126 C1140 0.960 . S
H1127 C1140 0.960 . S
C1128 H1120 0.929 . S
C1128 C1129 1.377 . S
C1128 C1130 1.384 . S
C1129 C1128 1.377 . S
C1129 C1135 1.390 . S
C1130 H1121 0.930 . S
C1130 C1128 1.384 . S
C1130 C1131 1.372 . S
C1131 C1130 1.372 . S
C1131 C1132 1.400 . S
C1131 C1136 1.490 . S
C1132 H1122 0.930 . S
C1132 C1131 1.400 . S
C1132 C1135 1.386 . S
H1133 C1149 0.930 . S
H1134 C1150 0.931 . S
C1135 H1123 0.929 . S
C1135 C1129 1.390 . S
C1135 C1132 1.386 . S
C1136 C1131 1.490 . S
C1136 C1138 1.395 . S
C1136 C1139 1.403 . S
H1137 C1143 0.930 . S
C1138 H1124 0.930 . S
C1138 C1136 1.395 . S
C1138 C1141 1.403 . S
C1139 C1136 1.403 . S
C1139 C1140 1.524 . S
C1139 C1143 1.400 . S
C1140 H1125 0.960 . S
C1140 H1126 0.960 . S
C1140 H1127 0.960 . S
C1140 C1139 1.524 . S
C1141 C1138 1.403 . S
C1141 C1142 1.392 . S
C1141 C1145 1.495 . S
C1142 C1141 1.392 . S
C1142 C1143 1.385 . S
C1142 C1144 1.478 . S
C1143 H1137 0.930 . S
C1143 C1139 1.400 . S
C1143 C1142 1.385 . S
C1144 C1142 1.478 . S
C1144 C1146 1.381 . S
C1144 C1150 1.383 . S
C1145 C1141 1.495 . S
C1145 H1151 0.959 . S
C1145 H1152 0.961 . S
C1145 H1153 0.960 . S
C1146 C1144 1.381 . S
C1146 C1147 1.394 . S
C1146 H1154 0.930 . S
C1147 C1146 1.394 . S
C1147 C1148 1.383 . S
C1147 H1155 0.929 . S
C1148 C1147 1.383 . S
C1148 C1149 1.377 . S
C1149 H1133 0.930 . S
C1149 C1148 1.377 . S
C1149 C1150 1.379 . S
C1150 H1134 0.931 . S
C1150 C1144 1.383 . S
C1150 C1149 1.379 . S
H1151 C1145 0.959 . S
H1152 C1145 0.961 . S
H1153 C1145 0.960 . S
H1154 C1146 0.930 . S
H1155 C1147 0.929 . S
H1156 C1164 0.929 . S
H1157 C1166 0.930 . S
H1158 C1168 0.930 . S
H1159 C1171 0.929 . S
H1160 C1174 0.930 . S
H1161 C1176 0.960 . S
H1162 C1176 0.960 . S
H1163 C1176 0.960 . S
C1164 H1156 0.929 . S
C1164 C1165 1.377 . S
C1164 C1166 1.384 . S
C1165 C1164 1.377 . S
C1165 C1171 1.390 . S
C1166 H1157 0.930 . S
C1166 C1164 1.384 . S
C1166 C1167 1.372 . S
C1167 C1166 1.372 . S
C1167 C1168 1.400 . S
C1167 C1172 1.490 . S
C1168 H1158 0.930 . S
C1168 C1167 1.400 . S
C1168 C1171 1.386 . S
H1169 C1185 0.930 . S
H1170 C1186 0.931 . S
C1171 H1159 0.929 . S
C1171 C1165 1.390 . S
C1171 C1168 1.386 . S
C1172 C1167 1.490 . S
C1172 C1174 1.395 . S
C1172 C1175 1.403 . S
H1173 C1179 0.930 . S
C1174 H1160 0.930 . S
C1174 C1172 1.395 . S
C1174 C1177 1.403 . S
C1175 C1172 1.403 . S
C1175 C1176 1.524 . S
C1175 C1179 1.400 . S
C1176 H1161 0.960 . S
C1176 H1162 0.960 . S
C1176 H1163 0.960 . S
C1176 C1175 1.524 . S
C1177 C1174 1.403 . S
C1177 C1178 1.392 . S
C1177 C1181 1.495 . S
C1178 C1177 1.392 . S
C1178 C1179 1.385 . S
C1178 C1180 1.478 . S
C1179 H1173 0.930 . S
C1179 C1175 1.400 . S
C1179 C1178 1.385 . S
C1180 C1178 1.478 . S
C1180 C1182 1.381 . S
C1180 C1186 1.383 . S
C1181 C1177 1.495 . S
C1181 H1187 0.959 . S
C1181 H1188 0.961 . S
C1181 H1189 0.960 . S
C1182 C1180 1.381 . S
C1182 C1183 1.394 . S
C1182 H1190 0.930 . S
C1183 C1182 1.394 . S
C1183 C1184 1.383 . S
C1183 H1191 0.929 . S
C1184 C1183 1.383 . S
C1184 C1185 1.377 . S
C1185 H1169 0.930 . S
C1185 C1184 1.377 . S
C1185 C1186 1.379 . S
C1186 H1170 0.931 . S
C1186 C1180 1.383 . S
C1186 C1185 1.379 . S
H1187 C1181 0.959 . S
H1188 C1181 0.961 . S
H1189 C1181 0.960 . S
H1190 C1182 0.930 . S
H1191 C1183 0.929 . S
H1192 C1200 0.929 . S
H1193 C1202 0.930 . S
H1194 C1204 0.930 . S
H1195 C1207 0.929 . S
H1196 C1210 0.930 . S
H1197 C1212 0.960 . S
H1198 C1212 0.960 . S
H1199 C1212 0.960 . S
C1200 H1192 0.929 . S
C1200 C1201 1.377 . S
C1200 C1202 1.384 . S
C1201 C1200 1.377 . S
C1201 C1207 1.390 . S
C1202 H1193 0.930 . S
C1202 C1200 1.384 . S
C1202 C1203 1.372 . S
C1203 C1202 1.372 . S
C1203 C1204 1.400 . S
C1203 C1208 1.490 . S
C1204 H1194 0.930 . S
C1204 C1203 1.400 . S
C1204 C1207 1.386 . S
H1205 C1221 0.930 . S
H1206 C1222 0.931 . S
C1207 H1195 0.929 . S
C1207 C1201 1.390 . S
C1207 C1204 1.386 . S
C1208 C1203 1.490 . S
C1208 C1210 1.395 . S
C1208 C1211 1.403 . S
H1209 C1215 0.930 . S
C1210 H1196 0.930 . S
C1210 C1208 1.395 . S
C1210 C1213 1.403 . S
C1211 C1208 1.403 . S
C1211 C1212 1.524 . S
C1211 C1215 1.400 . S
C1212 H1197 0.960 . S
C1212 H1198 0.960 . S
C1212 H1199 0.960 . S
C1212 C1211 1.524 . S
C1213 C1210 1.403 . S
C1213 C1214 1.392 . S
C1213 C1217 1.495 . S
C1214 C1213 1.392 . S
C1214 C1215 1.385 . S
C1214 C1216 1.478 . S
C1215 H1209 0.930 . S
C1215 C1211 1.400 . S
C1215 C1214 1.385 . S
C1216 C1214 1.478 . S
C1216 C1218 1.381 . S
C1216 C1222 1.383 . S
C1217 C1213 1.495 . S
C1217 H1223 0.959 . S
C1217 H1224 0.961 . S
C1217 H1225 0.960 . S
C1218 C1216 1.381 . S
C1218 C1219 1.394 . S
C1218 H1226 0.930 . S
C1219 C1218 1.394 . S
C1219 C1220 1.383 . S
C1219 H1227 0.929 . S
C1220 C1219 1.383 . S
C1220 C1221 1.377 . S
C1221 H1205 0.930 . S
C1221 C1220 1.377 . S
C1221 C1222 1.379 . S
C1222 H1206 0.931 . S
C1222 C1216 1.383 . S
C1222 C1221 1.379 . S
H1223 C1217 0.959 . S
H1224 C1217 0.961 . S
H1225 C1217 0.960 . S
H1226 C1218 0.930 . S
H1227 C1219 0.929 . S
H1228 C1236 0.929 . S
H1229 C1238 0.930 . S
H1230 C1240 0.930 . S
H1231 C1243 0.929 . S
H1232 C1246 0.930 . S
H1233 C1248 0.960 . S
H1234 C1248 0.960 . S
H1235 C1248 0.960 . S
C1236 H1228 0.929 . S
C1236 C1237 1.377 . S
C1236 C1238 1.384 . S
C1237 C1236 1.377 . S
C1237 C1243 1.390 . S
C1238 H1229 0.930 . S
C1238 C1236 1.384 . S
C1238 C1239 1.372 . S
C1239 C1238 1.372 . S
C1239 C1240 1.400 . S
C1239 C1244 1.490 . S
C1240 H1230 0.930 . S
C1240 C1239 1.400 . S
C1240 C1243 1.386 . S
H1241 C1257 0.930 . S
H1242 C1258 0.931 . S
C1243 H1231 0.929 . S
C1243 C1237 1.390 . S
C1243 C1240 1.386 . S
C1244 C1239 1.490 . S
C1244 C1246 1.395 . S
C1244 C1247 1.403 . S
H1245 C1251 0.930 . S
C1246 H1232 0.930 . S
C1246 C1244 1.395 . S
C1246 C1249 1.403 . S
C1247 C1244 1.403 . S
C1247 C1248 1.524 . S
C1247 C1251 1.400 . S
C1248 H1233 0.960 . S
C1248 H1234 0.960 . S
C1248 H1235 0.960 . S
C1248 C1247 1.524 . S
C1249 C1246 1.403 . S
C1249 C1250 1.392 . S
C1249 C1253 1.495 . S
C1250 C1249 1.392 . S
C1250 C1251 1.385 . S
C1250 C1252 1.478 . S
C1251 H1245 0.930 . S
C1251 C1247 1.400 . S
C1251 C1250 1.385 . S
C1252 C1250 1.478 . S
C1252 C1254 1.381 . S
C1252 C1258 1.383 . S
C1253 C1249 1.495 . S
C1253 H1259 0.959 . S
C1253 H1260 0.961 . S
C1253 H1261 0.960 . S
C1254 C1252 1.381 . S
C1254 C1255 1.394 . S
C1254 H1262 0.930 . S
C1255 C1254 1.394 . S
C1255 C1256 1.383 . S
C1255 H1263 0.929 . S
C1256 C1255 1.383 . S
C1256 C1257 1.377 . S
C1257 H1241 0.930 . S
C1257 C1256 1.377 . S
C1257 C1258 1.379 . S
C1258 H1242 0.931 . S
C1258 C1252 1.383 . S
C1258 C1257 1.379 . S
H1259 C1253 0.959 . S
H1260 C1253 0.961 . S
H1261 C1253 0.960 . S
H1262 C1254 0.930 . S
H1263 C1255 0.929 . S
H1264 C1272 0.929 . S
H1265 C1274 0.930 . S
H1266 C1276 0.930 . S
H1267 C1279 0.929 . S
H1268 C1282 0.930 . S
H1269 C1284 0.960 . S
H1270 C1284 0.960 . S
H1271 C1284 0.960 . S
C1272 H1264 0.929 . S
C1272 C1273 1.377 . S
C1272 C1274 1.384 . S
C1273 C1272 1.377 . S
C1273 C1279 1.390 . S
C1274 H1265 0.930 . S
C1274 C1272 1.384 . S
C1274 C1275 1.372 . S
C1275 C1274 1.372 . S
C1275 C1276 1.400 . S
C1275 C1280 1.490 . S
C1276 H1266 0.930 . S
C1276 C1275 1.400 . S
C1276 C1279 1.386 . S
H1277 C1293 0.927 1_655 S
H1278 C1294 0.931 . S
C1279 H1267 0.929 . S
C1279 C1273 1.390 . S
C1279 C1276 1.386 . S
C1280 C1275 1.490 . S
C1280 C1282 1.395 1_545 S
C1280 C1283 1.403 . S
H1281 C1287 0.930 . S
C1282 H1268 0.930 . S
C1282 C1280 1.395 1_565 S
C1282 C1285 1.403 . S
C1283 C1280 1.403 . S
C1283 C1284 1.524 . S
C1283 C1287 1.400 . S
C1284 H1269 0.960 . S
C1284 H1270 0.960 . S
C1284 H1271 0.960 . S
C1284 C1283 1.524 . S
C1285 C1282 1.403 . S
C1285 C1286 1.392 1_565 S
C1285 C1289 1.495 . S
C1286 C1285 1.392 1_545 S
C1286 C1287 1.385 . S
C1286 C1288 1.440 1_655 S
C1287 H1281 0.930 . S
C1287 C1283 1.400 . S
C1287 C1286 1.385 . S
C1288 C1286 1.440 1_455 S
C1288 C1290 1.450 . S
C1288 C1294 1.355 1_455 S
C1289 C1285 1.495 . S
C1289 H1295 0.959 . S
C1289 H1296 0.961 . S
C1289 H1297 0.960 1_655 S
C1290 C1288 1.450 . S
C1290 C1291 1.394 . S
C1290 H1298 0.930 . S
C1291 C1290 1.394 . S
C1291 C1292 1.383 . S
C1291 H1299 0.929 . S
C1292 C1291 1.383 . S
C1292 C1293 1.383 . S
C1293 H1277 0.927 1_455 S
C1293 C1292 1.383 . S
C1293 C1294 1.376 1_455 S
C1294 H1278 0.931 . S
C1294 C1288 1.355 1_655 S
C1294 C1293 1.376 1_655 S
H1295 C1289 0.959 . S
H1296 C1289 0.961 . S
H1297 C1289 0.960 1_455 S
H1298 C1290 0.930 . S
H1299 C1291 0.929 . S
H1300 C1308 0.929 . S
H1301 C1310 0.930 . S
H1302 C1312 0.930 . S
H1303 C1315 0.929 . S
H1304 C1318 0.930 . S
H1305 C1320 0.960 . S
H1306 C1320 0.960 . S
H1307 C1320 0.960 . S
C1308 H1300 0.929 . S
C1308 C1309 1.377 . S
C1308 C1310 1.384 . S
C1309 C1308 1.377 . S
C1309 C1315 1.390 . S
C1310 H1301 0.930 . S
C1310 C1308 1.384 . S
C1310 C1311 1.372 . S
C1311 C1310 1.372 . S
C1311 C1312 1.400 . S
C1311 C1316 1.490 . S
C1312 H1302 0.930 . S
C1312 C1311 1.400 . S
C1312 C1315 1.386 . S
H1313 C1329 0.930 . S
H1314 C1330 0.931 . S
C1315 H1303 0.929 . S
C1315 C1309 1.390 . S
C1315 C1312 1.386 . S
C1316 C1311 1.490 . S
C1316 C1318 1.395 . S
C1316 C1319 1.403 . S
H1317 C1323 0.930 . S
C1318 H1304 0.930 . S
C1318 C1316 1.395 . S
C1318 C1321 1.403 . S
C1319 C1316 1.403 . S
C1319 C1320 1.524 . S
C1319 C1323 1.400 . S
C1320 H1305 0.960 . S
C1320 H1306 0.960 . S
C1320 H1307 0.960 . S
C1320 C1319 1.524 . S
C1321 C1318 1.403 . S
C1321 C1322 1.392 . S
C1321 C1325 1.495 . S
C1322 C1321 1.392 . S
C1322 C1323 1.385 . S
C1322 C1324 1.478 . S
C1323 H1317 0.930 . S
C1323 C1319 1.400 . S
C1323 C1322 1.385 . S
C1324 C1322 1.478 . S
C1324 C1326 1.381 . S
C1324 C1330 1.383 . S
C1325 C1321 1.495 . S
C1325 H1331 0.959 . S
C1325 H1332 0.961 . S
C1325 H1333 0.960 . S
C1326 C1324 1.381 . S
C1326 C1327 1.394 . S
C1326 H1334 0.930 . S
C1327 C1326 1.394 . S
C1327 C1328 1.383 . S
C1327 H1335 0.929 . S
C1328 C1327 1.383 . S
C1328 C1329 1.377 . S
C1329 H1313 0.930 . S
C1329 C1328 1.377 . S
C1329 C1330 1.379 . S
C1330 H1314 0.931 . S
C1330 C1324 1.383 . S
C1330 C1329 1.379 . S
H1331 C1325 0.959 . S
H1332 C1325 0.961 . S
H1333 C1325 0.960 . S
H1334 C1326 0.930 . S
H1335 C1327 0.929 . S
H1336 C1344 0.929 . S
H1337 C1346 0.930 . S
H1338 C1348 0.930 . S
H1339 C1351 0.929 . S
H1340 C1354 0.930 . S
H1341 C1356 0.960 . S
H1342 C1356 0.960 . S
H1343 C1356 0.960 . S
C1344 H1336 0.929 . S
C1344 C1345 1.377 . S
C1344 C1346 1.384 . S
C1345 C1344 1.377 . S
C1345 C1351 1.390 . S
C1346 H1337 0.930 . S
C1346 C1344 1.384 . S
C1346 C1347 1.372 . S
C1347 C1346 1.372 . S
C1347 C1348 1.400 . S
C1347 C1352 1.490 . S
C1348 H1338 0.930 . S
C1348 C1347 1.400 . S
C1348 C1351 1.386 . S
H1349 C1365 0.930 . S
H1350 C1366 0.931 . S
C1351 H1339 0.929 . S
C1351 C1345 1.390 . S
C1351 C1348 1.386 . S
C1352 C1347 1.490 . S
C1352 C1354 1.395 1_545 S
C1352 C1355 1.403 . S
H1353 C1359 0.930 . S
C1354 H1340 0.930 . S
C1354 C1352 1.395 1_565 S
C1354 C1357 1.403 . S
C1355 C1352 1.403 . S
C1355 C1356 1.524 . S
C1355 C1359 1.400 . S
C1356 H1341 0.960 . S
C1356 H1342 0.960 . S
C1356 H1343 0.960 . S
C1356 C1355 1.524 . S
C1357 C1354 1.403 . S
C1357 C1358 1.392 1_565 S
C1357 C1361 1.495 . S
C1358 C1357 1.392 1_545 S
C1358 C1359 1.385 . S
C1358 C1360 1.478 . S
C1359 H1353 0.930 . S
C1359 C1355 1.400 . S
C1359 C1358 1.385 . S
C1360 C1358 1.478 . S
C1360 C1362 1.381 . S
C1360 C1366 1.383 . S
C1361 C1357 1.495 . S
C1361 H1367 0.959 . S
C1361 H1368 0.961 . S
C1361 H1369 0.960 . S
C1362 C1360 1.381 . S
C1362 C1363 1.394 . S
C1362 H1370 0.930 . S
C1363 C1362 1.394 . S
C1363 C1364 1.383 . S
C1363 H1371 0.929 . S
C1364 C1363 1.383 . S
C1364 C1365 1.377 . S
C1365 H1349 0.930 . S
C1365 C1364 1.377 . S
C1365 C1366 1.379 . S
C1366 H1350 0.931 . S
C1366 C1360 1.383 . S
C1366 C1365 1.379 . S
H1367 C1361 0.959 . S
H1368 C1361 0.961 . S
H1369 C1361 0.960 . S
H1370 C1362 0.930 . S
H1371 C1363 0.929 . S
H1372 C1380 0.929 . S
H1373 C1382 0.930 . S
H1374 C1384 0.930 . S
H1375 C1387 0.929 . S
H1376 C1390 0.930 . S
H1377 C1392 0.960 . S
H1378 C1392 0.960 . S
H1379 C1392 0.960 . S
C1380 H1372 0.929 . S
C1380 C1381 1.377 . S
C1380 C1382 1.384 . S
C1381 C1380 1.377 . S
C1381 C1387 1.390 . S
C1382 H1373 0.930 . S
C1382 C1380 1.384 . S
C1382 C1383 1.372 . S
C1383 C1382 1.372 . S
C1383 C1384 1.400 . S
C1383 C1388 1.490 . S
C1384 H1374 0.930 . S
C1384 C1383 1.400 . S
C1384 C1387 1.386 . S
H1385 C1401 0.930 . S
H1386 C1402 0.931 . S
C1387 H1375 0.929 . S
C1387 C1381 1.390 . S
C1387 C1384 1.386 . S
C1388 C1383 1.490 . S
C1388 C1390 1.395 . S
C1388 C1391 1.403 . S
H1389 C1395 0.930 . S
C1390 H1376 0.930 . S
C1390 C1388 1.395 . S
C1390 C1393 1.403 . S
C1391 C1388 1.403 . S
C1391 C1392 1.524 . S
C1391 C1395 1.400 . S
C1392 H1377 0.960 . S
C1392 H1378 0.960 . S
C1392 H1379 0.960 . S
C1392 C1391 1.524 . S
C1393 C1390 1.403 . S
C1393 C1394 1.392 . S
C1393 C1397 1.495 . S
C1394 C1393 1.392 . S
C1394 C1395 1.385 . S
C1394 C1396 1.478 . S
C1395 H1389 0.930 . S
C1395 C1391 1.400 . S
C1395 C1394 1.385 . S
C1396 C1394 1.478 . S
C1396 C1398 1.381 . S
C1396 C1402 1.383 . S
C1397 C1393 1.495 . S
C1397 H1403 0.959 . S
C1397 H1404 0.961 . S
C1397 H1405 0.960 . S
C1398 C1396 1.381 . S
C1398 C1399 1.394 . S
C1398 H1406 0.930 . S
C1399 C1398 1.394 . S
C1399 C1400 1.383 . S
C1399 H1407 0.929 . S
C1400 C1399 1.383 . S
C1400 C1401 1.377 . S
C1401 H1385 0.930 . S
C1401 C1400 1.377 . S
C1401 C1402 1.379 . S
C1402 H1386 0.931 . S
C1402 C1396 1.383 . S
C1402 C1401 1.379 . S
H1403 C1397 0.959 . S
H1404 C1397 0.961 . S
H1405 C1397 0.960 . S
H1406 C1398 0.930 . S
H1407 C1399 0.929 . S
H1408 C1416 0.929 . S
H1409 C1418 0.930 . S
H1410 C1420 0.930 . S
H1411 C1423 0.929 . S
H1412 C1426 0.930 . S
H1413 C1428 0.970 . S
H1414 C1428 0.960 . S
H1415 C1428 0.960 1_665 S
C1416 H1408 0.929 . S
C1416 C1417 1.377 . S
C1416 C1418 1.384 . S
C1417 C1416 1.377 . S
C1417 C1423 1.390 1_545 S
C1418 H1409 0.930 . S
C1418 C1416 1.384 . S
C1418 C1419 1.372 . S
C1419 C1418 1.372 . S
C1419 C1420 1.400 1_545 S
C1419 C1424 1.490 . S
C1420 H1410 0.930 . S
C1420 C1419 1.400 1_565 S
C1420 C1423 1.386 . S
H1421 C1437 0.942 . S
H1422 C1438 0.981 . S
C1423 H1411 0.929 . S
C1423 C1417 1.390 1_565 S
C1423 C1420 1.386 . S
C1424 C1419 1.490 . S
C1424 C1426 1.395 . S
C1424 C1427 1.403 . S
H1425 C1431 0.930 . S
C1426 H1412 0.930 . S
C1426 C1424 1.395 . S
C1426 C1429 1.403 . S
C1427 C1424 1.403 . S
C1427 C1428 1.524 1_655 S
C1427 C1431 1.400 1_655 S
C1428 H1413 0.970 . S
C1428 H1414 0.960 . S
C1428 H1415 0.960 1_445 S
C1428 C1427 1.524 1_455 S
C1429 C1426 1.403 . S
C1429 C1430 1.392 . S
C1429 C1433 1.495 . S
C1430 C1429 1.392 . S
C1430 C1431 1.385 1_655 S
C1430 C1432 1.478 1_655 S
C1431 H1425 0.930 . S
C1431 C1427 1.400 1_455 S
C1431 C1430 1.385 1_455 S
C1432 C1430 1.478 1_455 S
C1432 C1434 1.381 . S
C1432 C1438 1.321 1_545 S
C1433 C1429 1.495 . S
C1433 H1439 0.959 . S
C1433 H1440 0.961 . S
C1433 H1441 0.960 . S
C1434 C1432 1.381 . S
C1434 C1435 1.394 . S
C1434 H1442 0.930 . S
C1435 C1434 1.394 . S
C1435 C1436 1.383 . S
C1435 H1443 0.929 . S
C1436 C1435 1.383 . S
C1436 C1437 1.367 1_545 S
C1437 H1421 0.942 . S
C1437 C1436 1.367 1_565 S
C1437 C1438 1.392 . S
C1438 H1422 0.981 . S
C1438 C1432 1.321 1_565 S
C1438 C1437 1.392 . S
H1439 C1433 0.959 . S
H1440 C1433 0.961 . S
H1441 C1433 0.960 . S
H1442 C1434 0.930 . S
H1443 C1435 0.929 . S
H1444 C1452 0.929 . S
H1445 C1454 0.930 . S
H1446 C1456 0.930 . S
H1447 C1459 0.929 . S
H1448 C1462 0.930 . S
H1449 C1464 0.960 . S
H1450 C1464 0.960 . S
H1451 C1464 0.960 . S
C1452 H1444 0.929 . S
C1452 C1453 1.377 . S
C1452 C1454 1.384 . S
C1453 C1452 1.377 . S
C1453 C1459 1.390 . S
C1454 H1445 0.930 . S
C1454 C1452 1.384 . S
C1454 C1455 1.372 . S
C1455 C1454 1.372 . S
C1455 C1456 1.400 . S
C1455 C1460 1.490 . S
C1456 H1446 0.930 . S
C1456 C1455 1.400 . S
C1456 C1459 1.386 . S
H1457 C1473 0.930 . S
H1458 C1474 0.931 . S
C1459 H1447 0.929 . S
C1459 C1453 1.390 . S
C1459 C1456 1.386 . S
C1460 C1455 1.490 . S
C1460 C1462 1.395 . S
C1460 C1463 1.403 . S
H1461 C1467 0.930 . S
C1462 H1448 0.930 . S
C1462 C1460 1.395 . S
C1462 C1465 1.403 . S
C1463 C1460 1.403 . S
C1463 C1464 1.524 . S
C1463 C1467 1.400 . S
C1464 H1449 0.960 . S
C1464 H1450 0.960 . S
C1464 H1451 0.960 . S
C1464 C1463 1.524 . S
C1465 C1462 1.403 . S
C1465 C1466 1.392 . S
C1465 C1469 1.495 . S
C1466 C1465 1.392 . S
C1466 C1467 1.385 . S
C1466 C1468 1.478 . S
C1467 H1461 0.930 . S
C1467 C1463 1.400 . S
C1467 C1466 1.385 . S
C1468 C1466 1.478 . S
C1468 C1470 1.381 . S
C1468 C1474 1.383 . S
C1469 C1465 1.495 . S
C1469 H1475 0.959 . S
C1469 H1476 0.961 . S
C1469 H1477 0.960 . S
C1470 C1468 1.381 . S
C1470 C1471 1.394 . S
C1470 H1478 0.930 . S
C1471 C1470 1.394 . S
C1471 C1472 1.383 . S
C1471 H1479 0.929 . S
C1472 C1471 1.383 . S
C1472 C1473 1.377 . S
C1473 H1457 0.930 . S
C1473 C1472 1.377 . S
C1473 C1474 1.379 . S
C1474 H1458 0.931 . S
C1474 C1468 1.383 . S
C1474 C1473 1.379 . S
H1475 C1469 0.959 . S
H1476 C1469 0.961 . S
H1477 C1469 0.960 . S
H1478 C1470 0.930 . S
H1479 C1471 0.929 . S
H1480 C1488 0.929 . S
H1481 C1490 0.930 . S
H1482 C1492 0.930 . S
H1483 C1495 0.929 . S
H1484 C1498 0.930 . S
H1485 C1500 0.960 . S
H1486 C1500 0.960 . S
H1487 C1500 0.960 . S
C1488 H1480 0.929 . S
C1488 C1489 1.377 . S
C1488 C1490 1.384 . S
C1489 C1488 1.377 . S
C1489 C1495 1.390 . S
C1490 H1481 0.930 . S
C1490 C1488 1.384 . S
C1490 C1491 1.372 . S
C1491 C1490 1.372 . S
C1491 C1492 1.400 . S
C1491 C1496 1.490 . S
C1492 H1482 0.930 . S
C1492 C1491 1.400 . S
C1492 C1495 1.386 . S
H1493 C1509 0.930 . S
H1494 C1510 0.931 . S
C1495 H1483 0.929 . S
C1495 C1489 1.390 . S
C1495 C1492 1.386 . S
C1496 C1491 1.490 . S
C1496 C1498 1.395 . S
C1496 C1499 1.403 . S
H1497 C1503 0.930 1_565 S
C1498 H1484 0.930 . S
C1498 C1496 1.395 . S
C1498 C1501 1.403 . S
C1499 C1496 1.403 . S
C1499 C1500 1.524 1_545 S
C1499 C1503 1.400 . S
C1500 H1485 0.960 . S
C1500 H1486 0.960 . S
C1500 H1487 0.960 . S
C1500 C1499 1.524 1_565 S
C1501 C1498 1.403 . S
C1501 C1502 1.392 . S
C1501 C1505 1.495 . S
C1502 C1501 1.392 . S
C1502 C1503 1.385 . S
C1502 C1504 1.478 . S
C1503 H1497 0.930 1_545 S
C1503 C1499 1.400 . S
C1503 C1502 1.385 . S
C1504 C1502 1.478 . S
C1504 C1506 1.381 . S
C1504 C1510 1.383 . S
C1505 C1501 1.495 . S
C1505 H1511 0.959 . S
C1505 H1512 0.961 . S
C1505 H1513 0.960 . S
C1506 C1504 1.381 . S
C1506 C1507 1.394 1_556 S
C1506 H1514 0.930 . S
C1507 C1506 1.394 1_554 S
C1507 C1508 1.383 1_554 S
C1507 H1515 0.929 . S
C1508 C1507 1.383 1_556 S
C1508 C1509 1.377 . S
C1509 H1493 0.930 . S
C1509 C1508 1.377 . S
C1509 C1510 1.379 . S
C1510 H1494 0.931 . S
C1510 C1504 1.383 . S
C1510 C1509 1.379 . S
H1511 C1505 0.959 . S
H1512 C1505 0.961 . S
H1513 C1505 0.960 . S
H1514 C1506 0.930 . S
H1515 C1507 0.929 . S
H1516 C1524 0.929 . S
H1517 C1526 0.930 . S
H1518 C1528 0.930 . S
H1519 C1531 0.929 . S
H1520 C1534 0.930 . S
H1521 C1536 0.960 . S
H1522 C1536 0.960 . S
H1523 C1536 0.960 . S
C1524 H1516 0.929 . S
C1524 C1525 1.377 . S
C1524 C1526 1.384 . S
C1525 C1524 1.377 . S
C1525 C1531 1.390 . S
C1526 H1517 0.930 . S
C1526 C1524 1.384 . S
C1526 C1527 1.372 . S
C1527 C1526 1.372 . S
C1527 C1528 1.400 . S
C1527 C1532 1.490 . S
C1528 H1518 0.930 . S
C1528 C1527 1.400 . S
C1528 C1531 1.386 . S
H1529 C1545 0.930 . S
H1530 C1546 0.931 . S
C1531 H1519 0.929 . S
C1531 C1525 1.390 . S
C1531 C1528 1.386 . S
C1532 C1527 1.490 . S
C1532 C1534 1.395 . S
C1532 C1535 1.403 . S
H1533 C1539 0.930 . S
C1534 H1520 0.930 . S
C1534 C1532 1.395 . S
C1534 C1537 1.403 . S
C1535 C1532 1.403 . S
C1535 C1536 1.524 . S
C1535 C1539 1.400 . S
C1536 H1521 0.960 . S
C1536 H1522 0.960 . S
C1536 H1523 0.960 . S
C1536 C1535 1.524 . S
C1537 C1534 1.403 . S
C1537 C1538 1.392 . S
C1537 C1541 1.495 . S
C1538 C1537 1.392 . S
C1538 C1539 1.385 . S
C1538 C1540 1.478 . S
C1539 H1533 0.930 . S
C1539 C1535 1.400 . S
C1539 C1538 1.385 . S
C1540 C1538 1.478 . S
C1540 C1542 1.381 . S
C1540 C1546 1.383 . S
C1541 C1537 1.495 . S
C1541 H1547 0.959 . S
C1541 H1548 0.961 . S
C1541 H1549 0.960 . S
C1542 C1540 1.381 . S
C1542 C1543 1.394 . S
C1542 H1550 0.930 . S
C1543 C1542 1.394 . S
C1543 C1544 1.383 . S
C1543 H1551 0.929 . S
C1544 C1543 1.383 . S
C1544 C1545 1.377 . S
C1545 H1529 0.930 . S
C1545 C1544 1.377 . S
C1545 C1546 1.379 . S
C1546 H1530 0.931 . S
C1546 C1540 1.383 . S
C1546 C1545 1.379 . S
H1547 C1541 0.959 . S
H1548 C1541 0.961 . S
H1549 C1541 0.960 . S
H1550 C1542 0.930 . S
H1551 C1543 0.929 . S
H1552 C1560 0.929 . S
H1553 C1562 0.930 . S
H1554 C1564 0.930 1_556 S
H1555 C1567 0.929 . S
H1556 C1570 0.930 . S
H1557 C1572 0.960 . S
H1558 C1572 0.960 . S
H1559 C1572 0.965 . S
C1560 H1552 0.929 . S
C1560 C1561 1.377 . S
C1560 C1562 1.384 . S
C1561 C1560 1.377 . S
C1561 C1567 1.390 1_554 S
C1562 H1553 0.930 . S
C1562 C1560 1.384 . S
C1562 C1563 1.372 . S
C1563 C1562 1.372 . S
C1563 C1564 1.400 . S
C1563 C1568 1.490 . S
C1564 H1554 0.930 1_554 S
C1564 C1563 1.400 . S
C1564 C1567 1.386 1_554 S
H1565 C1581 0.930 . S
H1566 C1582 0.931 . S
C1567 H1555 0.929 . S
C1567 C1561 1.390 1_556 S
C1567 C1564 1.386 1_556 S
C1568 C1563 1.490 . S
C1568 C1570 1.395 . S
C1568 C1571 1.403 . S
H1569 C1575 0.930 . S
C1570 H1556 0.930 . S
C1570 C1568 1.395 . S
C1570 C1573 1.403 . S
C1571 C1568 1.403 . S
C1571 C1572 1.524 . S
C1571 C1575 1.400 . S
C1572 H1557 0.960 . S
C1572 H1558 0.960 . S
C1572 H1559 0.965 . S
C1572 C1571 1.524 . S
C1573 C1570 1.403 . S
C1573 C1574 1.392 . S
C1573 C1577 1.495 . S
C1574 C1573 1.392 . S
C1574 C1575 1.385 . S
C1574 C1576 1.478 . S
C1575 H1569 0.930 . S
C1575 C1571 1.400 . S
C1575 C1574 1.385 . S
C1576 C1574 1.478 . S
C1576 C1578 1.381 . S
C1576 C1582 1.383 . S
C1577 C1573 1.495 . S
C1577 H1583 0.959 . S
C1577 H1584 0.961 . S
C1577 H1585 0.960 . S
C1578 C1576 1.381 . S
C1578 C1579 1.394 . S
C1578 H1586 0.930 . S
C1579 C1578 1.394 . S
C1579 C1580 1.383 . S
C1579 H1587 0.929 . S
C1580 C1579 1.383 . S
C1580 C1581 1.377 . S
C1581 H1565 0.930 . S
C1581 C1580 1.377 . S
C1581 C1582 1.379 . S
C1582 H1566 0.931 . S
C1582 C1576 1.383 . S
C1582 C1581 1.379 . S
H1583 C1577 0.959 . S
H1584 C1577 0.961 . S
H1585 C1577 0.960 . S
H1586 C1578 0.930 . S
H1587 C1579 0.929 . S
H1588 C1596 0.929 . S
H1589 C1598 0.930 . S
H1590 C1600 0.930 . S
H1591 C1603 0.929 . S
H1592 C1606 0.930 . S
H1593 C1608 0.960 . S
H1594 C1608 0.960 . S
H1595 C1608 0.960 . S
C1596 H1588 0.929 . S
C1596 C1597 1.377 . S
C1596 C1598 1.384 . S
C1597 C1596 1.377 . S
C1597 C1603 1.390 . S
C1598 H1589 0.930 . S
C1598 C1596 1.384 . S
C1598 C1599 1.372 . S
C1599 C1598 1.372 . S
C1599 C1600 1.400 . S
C1599 C1604 1.490 . S
C1600 H1590 0.930 . S
C1600 C1599 1.400 . S
C1600 C1603 1.386 . S
H1601 C1617 0.930 . S
H1602 C1618 0.931 . S
C1603 H1591 0.929 . S
C1603 C1597 1.390 . S
C1603 C1600 1.386 . S
C1604 C1599 1.490 . S
C1604 C1606 1.395 . S
C1604 C1607 1.403 . S
H1605 C1611 0.930 . S
C1606 H1592 0.930 . S
C1606 C1604 1.395 . S
C1606 C1609 1.403 . S
C1607 C1604 1.403 . S
C1607 C1608 1.524 . S
C1607 C1611 1.400 . S
C1608 H1593 0.960 . S
C1608 H1594 0.960 . S
C1608 H1595 0.960 . S
C1608 C1607 1.524 . S
C1609 C1606 1.403 . S
C1609 C1610 1.392 . S
C1609 C1613 1.495 . S
C1610 C1609 1.392 . S
C1610 C1611 1.385 . S
C1610 C1612 1.478 . S
C1611 H1605 0.930 . S
C1611 C1607 1.400 . S
C1611 C1610 1.385 . S
C1612 C1610 1.478 . S
C1612 C1614 1.381 . S
C1612 C1618 1.383 . S
C1613 C1609 1.495 . S
C1613 H1619 0.959 . S
C1613 H1620 0.961 . S
C1613 H1621 0.960 . S
C1614 C1612 1.381 . S
C1614 C1615 1.394 . S
C1614 H1622 0.930 . S
C1615 C1614 1.394 . S
C1615 C1616 1.383 . S
C1615 H1623 0.929 . S
C1616 C1615 1.383 . S
C1616 C1617 1.377 . S
C1617 H1601 0.930 . S
C1617 C1616 1.377 . S
C1617 C1618 1.379 . S
C1618 H1602 0.931 . S
C1618 C1612 1.383 . S
C1618 C1617 1.379 . S
H1619 C1613 0.959 . S
H1620 C1613 0.961 . S
H1621 C1613 0.960 . S
H1622 C1614 0.930 . S
H1623 C1615 0.929 . S
H1624 C1632 0.929 . S
H1625 C1634 0.930 . S
H1626 C1636 0.930 . S
H1627 C1639 0.929 . S
H1628 C1642 0.930 . S
H1629 C1644 0.960 . S
H1630 C1644 0.960 . S
H1631 C1644 0.960 . S
C1632 H1624 0.929 . S
C1632 C1633 1.377 . S
C1632 C1634 1.384 . S
C1633 C1632 1.377 . S
C1633 C1639 1.390 . S
C1634 H1625 0.930 . S
C1634 C1632 1.384 . S
C1634 C1635 1.372 . S
C1635 C1634 1.372 . S
C1635 C1636 1.400 . S
C1635 C1640 1.490 . S
C1636 H1626 0.930 . S
C1636 C1635 1.400 . S
C1636 C1639 1.386 . S
H1637 C1653 0.930 . S
H1638 C1654 0.931 . S
C1639 H1627 0.929 . S
C1639 C1633 1.390 . S
C1639 C1636 1.386 . S
C1640 C1635 1.490 . S
C1640 C1642 1.395 . S
C1640 C1643 1.403 . S
H1641 C1647 0.930 . S
C1642 H1628 0.930 . S
C1642 C1640 1.395 . S
C1642 C1645 1.403 . S
C1643 C1640 1.403 . S
C1643 C1644 1.524 . S
C1643 C1647 1.400 . S
C1644 H1629 0.960 . S
C1644 H1630 0.960 . S
C1644 H1631 0.960 . S
C1644 C1643 1.524 . S
C1645 C1642 1.403 . S
C1645 C1646 1.392 . S
C1645 C1649 1.495 . S
C1646 C1645 1.392 . S
C1646 C1647 1.385 . S
C1646 C1648 1.478 . S
C1647 H1641 0.930 . S
C1647 C1643 1.400 . S
C1647 C1646 1.385 . S
C1648 C1646 1.478 . S
C1648 C1650 1.381 . S
C1648 C1654 1.383 . S
C1649 C1645 1.495 . S
C1649 H1655 0.959 . S
C1649 H1656 0.961 . S
C1649 H1657 0.960 . S
C1650 C1648 1.381 . S
C1650 C1651 1.394 . S
C1650 H1658 0.930 . S
C1651 C1650 1.394 . S
C1651 C1652 1.383 . S
C1651 H1659 0.929 . S
C1652 C1651 1.383 . S
C1652 C1653 1.377 . S
C1653 H1637 0.930 . S
C1653 C1652 1.377 . S
C1653 C1654 1.379 . S
C1654 H1638 0.931 . S
C1654 C1648 1.383 . S
C1654 C1653 1.379 . S
H1655 C1649 0.959 . S
H1656 C1649 0.961 . S
H1657 C1649 0.960 . S
H1658 C1650 0.930 . S
H1659 C1651 0.929 . S
H1660 C1668 0.929 . S
H1661 C1670 0.930 . S
H1662 C1672 0.930 . S
H1663 C1675 0.929 . S
H1664 C1678 0.930 . S
H1665 C1680 0.960 . S
H1666 C1680 0.960 . S
H1667 C1680 0.960 . S
C1668 H1660 0.929 . S
C1668 C1669 1.377 . S
C1668 C1670 1.384 . S
C1669 C1668 1.377 . S
C1669 C1675 1.390 . S
C1670 H1661 0.930 . S
C1670 C1668 1.384 . S
C1670 C1671 1.372 . S
C1671 C1670 1.372 . S
C1671 C1672 1.400 . S
C1671 C1676 1.490 . S
C1672 H1662 0.930 . S
C1672 C1671 1.400 . S
C1672 C1675 1.386 . S
H1673 C1689 0.930 . S
H1674 C1690 0.931 . S
C1675 H1663 0.929 . S
C1675 C1669 1.390 . S
C1675 C1672 1.386 . S
C1676 C1671 1.490 . S
C1676 C1678 1.395 . S
C1676 C1679 1.403 . S
H1677 C1683 0.930 . S
C1678 H1664 0.930 . S
C1678 C1676 1.395 . S
C1678 C1681 1.403 . S
C1679 C1676 1.403 . S
C1679 C1680 1.524 . S
C1679 C1683 1.400 . S
C1680 H1665 0.960 . S
C1680 H1666 0.960 . S
C1680 H1667 0.960 . S
C1680 C1679 1.524 . S
C1681 C1678 1.403 . S
C1681 C1682 1.392 . S
C1681 C1685 1.495 . S
C1682 C1681 1.392 . S
C1682 C1683 1.385 . S
C1682 C1684 1.478 . S
C1683 H1677 0.930 . S
C1683 C1679 1.400 . S
C1683 C1682 1.385 . S
C1684 C1682 1.478 . S
C1684 C1686 1.381 . S
C1684 C1690 1.383 . S
C1685 C1681 1.495 . S
C1685 H1691 0.959 . S
C1685 H1692 0.961 . S
C1685 H1693 0.960 . S
C1686 C1684 1.381 . S
C1686 C1687 1.394 . S
C1686 H1694 0.930 . S
C1687 C1686 1.394 . S
C1687 C1688 1.383 . S
C1687 H1695 0.929 . S
C1688 C1687 1.383 . S
C1688 C1689 1.377 . S
C1689 H1673 0.930 . S
C1689 C1688 1.377 . S
C1689 C1690 1.379 . S
C1690 H1674 0.931 . S
C1690 C1684 1.383 . S
C1690 C1689 1.379 . S
H1691 C1685 0.959 . S
H1692 C1685 0.961 . S
H1693 C1685 0.960 . S
H1694 C1686 0.930 . S
H1695 C1687 0.929 . S
H1696 C1704 0.929 . S
H1697 C1706 0.930 . S
H1698 C1708 0.930 . S
H1699 C1711 0.929 . S
H1700 C1714 0.930 . S
H1701 C1716 0.960 . S
H1702 C1716 0.960 . S
H1703 C1716 0.960 . S
C1704 H1696 0.929 . S
C1704 C1705 1.377 . S
C1704 C1706 1.384 . S
C1705 C1704 1.377 . S
C1705 C1711 1.390 . S
C1706 H1697 0.930 . S
C1706 C1704 1.384 . S
C1706 C1707 1.372 . S
C1707 C1706 1.372 . S
C1707 C1708 1.400 . S
C1707 C1712 1.490 . S
C1708 H1698 0.930 . S
C1708 C1707 1.400 . S
C1708 C1711 1.386 . S
H1709 C1725 0.930 . S
H1710 C1726 0.931 . S
C1711 H1699 0.929 . S
C1711 C1705 1.390 . S
C1711 C1708 1.386 . S
C1712 C1707 1.490 . S
C1712 C1714 1.395 . S
C1712 C1715 1.403 . S
H1713 C1719 0.930 . S
C1714 H1700 0.930 . S
C1714 C1712 1.395 . S
C1714 C1717 1.403 . S
C1715 C1712 1.403 . S
C1715 C1716 1.524 . S
C1715 C1719 1.400 . S
C1716 H1701 0.960 . S
C1716 H1702 0.960 . S
C1716 H1703 0.960 . S
C1716 C1715 1.524 . S
C1717 C1714 1.403 . S
C1717 C1718 1.392 . S
C1717 C1721 1.495 . S
C1718 C1717 1.392 . S
C1718 C1719 1.385 . S
C1718 C1720 1.478 . S
C1719 H1713 0.930 . S
C1719 C1715 1.400 . S
C1719 C1718 1.385 . S
C1720 C1718 1.478 . S
C1720 C1722 1.381 . S
C1720 C1726 1.383 . S
C1721 C1717 1.495 . S
C1721 H1727 0.959 . S
C1721 H1728 0.961 . S
C1721 H1729 0.960 . S
C1722 C1720 1.381 . S
C1722 C1723 1.394 . S
C1722 H1730 0.930 . S
C1723 C1722 1.394 . S
C1723 C1724 1.383 . S
C1723 H1731 0.929 . S
C1724 C1723 1.383 . S
C1724 C1725 1.377 . S
C1725 H1709 0.930 . S
C1725 C1724 1.377 . S
C1725 C1726 1.379 . S
C1726 H1710 0.931 . S
C1726 C1720 1.383 . S
C1726 C1725 1.379 . S
H1727 C1721 0.959 . S
H1728 C1721 0.961 . S
H1729 C1721 0.960 . S
H1730 C1722 0.930 . S
H1731 C1723 0.929 . S
H1732 C1740 0.929 . S
H1733 C1742 0.930 . S
H1734 C1744 0.930 . S
H1735 C1747 0.929 . S
H1736 C1750 0.930 . S
H1737 C1752 0.960 . S
H1738 C1752 0.960 . S
H1739 C1752 0.960 . S
C1740 H1732 0.929 . S
C1740 C1741 1.377 . S
C1740 C1742 1.384 . S
C1741 C1740 1.377 . S
C1741 C1747 1.390 . S
C1742 H1733 0.930 . S
C1742 C1740 1.384 . S
C1742 C1743 1.372 . S
C1743 C1742 1.372 . S
C1743 C1744 1.400 . S
C1743 C1748 1.490 . S
C1744 H1734 0.930 . S
C1744 C1743 1.400 . S
C1744 C1747 1.386 . S
H1745 C1761 0.930 . S
H1746 C1762 0.931 . S
C1747 H1735 0.929 . S
C1747 C1741 1.390 . S
C1747 C1744 1.386 . S
C1748 C1743 1.490 . S
C1748 C1750 1.395 . S
C1748 C1751 1.403 . S
H1749 C1755 0.930 . S
C1750 H1736 0.930 . S
C1750 C1748 1.395 . S
C1750 C1753 1.403 . S
C1751 C1748 1.403 . S
C1751 C1752 1.524 . S
C1751 C1755 1.400 . S
C1752 H1737 0.960 . S
C1752 H1738 0.960 . S
C1752 H1739 0.960 . S
C1752 C1751 1.524 . S
C1753 C1750 1.403 . S
C1753 C1754 1.392 . S
C1753 C1757 1.495 . S
C1754 C1753 1.392 . S
C1754 C1755 1.385 . S
C1754 C1756 1.478 . S
C1755 H1749 0.930 . S
C1755 C1751 1.400 . S
C1755 C1754 1.385 . S
C1756 C1754 1.478 . S
C1756 C1758 1.381 . S
C1756 C1762 1.383 . S
C1757 C1753 1.495 . S
C1757 H1763 0.959 . S
C1757 H1764 0.961 . S
C1757 H1765 0.960 . S
C1758 C1756 1.381 . S
C1758 C1759 1.394 . S
C1758 H1766 0.930 . S
C1759 C1758 1.394 . S
C1759 C1760 1.383 . S
C1759 H1767 0.929 . S
C1760 C1759 1.383 . S
C1760 C1761 1.377 . S
C1761 H1745 0.930 . S
C1761 C1760 1.377 . S
C1761 C1762 1.379 . S
C1762 H1746 0.931 . S
C1762 C1756 1.383 . S
C1762 C1761 1.379 . S
H1763 C1757 0.959 . S
H1764 C1757 0.961 . S
H1765 C1757 0.960 . S
H1766 C1758 0.930 . S
H1767 C1759 0.929 . S
H1768 C1776 0.929 . S
H1769 C1778 0.930 . S
H1770 C1780 0.930 . S
H1771 C1783 0.929 . S
H1772 C1786 0.930 . S
H1773 C1788 0.960 . S
H1774 C1788 0.960 . S
H1775 C1788 0.960 . S
C1776 H1768 0.929 . S
C1776 C1777 1.377 . S
C1776 C1778 1.384 . S
C1777 C1776 1.377 . S
C1777 C1783 1.390 . S
C1778 H1769 0.930 . S
C1778 C1776 1.384 . S
C1778 C1779 1.372 . S
C1779 C1778 1.372 . S
C1779 C1780 1.400 . S
C1779 C1784 1.490 . S
C1780 H1770 0.930 . S
C1780 C1779 1.400 . S
C1780 C1783 1.386 . S
H1781 C1797 0.930 . S
H1782 C1798 0.931 . S
C1783 H1771 0.929 . S
C1783 C1777 1.390 . S
C1783 C1780 1.386 . S
C1784 C1779 1.490 . S
C1784 C1786 1.395 . S
C1784 C1787 1.403 . S
H1785 C1791 0.930 . S
C1786 H1772 0.930 . S
C1786 C1784 1.395 . S
C1786 C1789 1.403 . S
C1787 C1784 1.403 . S
C1787 C1788 1.524 . S
C1787 C1791 1.400 . S
C1788 H1773 0.960 . S
C1788 H1774 0.960 . S
C1788 H1775 0.960 . S
C1788 C1787 1.524 . S
C1789 C1786 1.403 . S
C1789 C1790 1.392 . S
C1789 C1793 1.495 . S
C1790 C1789 1.392 . S
C1790 C1791 1.385 . S
C1790 C1792 1.478 . S
C1791 H1785 0.930 . S
C1791 C1787 1.400 . S
C1791 C1790 1.385 . S
C1792 C1790 1.478 . S
C1792 C1794 1.381 . S
C1792 C1798 1.383 . S
C1793 C1789 1.495 . S
C1793 H1799 0.959 . S
C1793 H1800 0.961 . S
C1793 H1801 0.960 . S
C1794 C1792 1.381 . S
C1794 C1795 1.394 . S
C1794 H1802 0.930 . S
C1795 C1794 1.394 . S
C1795 C1796 1.383 . S
C1795 H1803 0.929 . S
C1796 C1795 1.383 . S
C1796 C1797 1.377 . S
C1797 H1781 0.930 . S
C1797 C1796 1.377 . S
C1797 C1798 1.379 . S
C1798 H1782 0.931 . S
C1798 C1792 1.383 . S
C1798 C1797 1.379 . S
H1799 C1793 0.959 . S
H1800 C1793 0.961 . S
H1801 C1793 0.960 . S
H1802 C1794 0.930 . S
H1803 C1795 0.929 . S
H1804 C1812 0.929 . S
H1805 C1814 0.930 . S
H1806 C1816 0.930 . S
H1807 C1819 0.929 . S
H1808 C1822 0.930 . S
H1809 C1824 0.960 . S
H1810 C1824 0.960 . S
H1811 C1824 0.960 . S
C1812 H1804 0.929 . S
C1812 C1813 1.377 . S
C1812 C1814 1.384 . S
C1813 C1812 1.377 . S
C1813 C1819 1.390 . S
C1814 H1805 0.930 . S
C1814 C1812 1.384 . S
C1814 C1815 1.372 . S
C1815 C1814 1.372 . S
C1815 C1816 1.400 . S
C1815 C1820 1.490 . S
C1816 H1806 0.930 . S
C1816 C1815 1.400 . S
C1816 C1819 1.386 . S
H1817 C1833 0.930 . S
H1818 C1834 0.931 . S
C1819 H1807 0.929 . S
C1819 C1813 1.390 . S
C1819 C1816 1.386 . S
C1820 C1815 1.490 . S
C1820 C1822 1.395 . S
C1820 C1823 1.403 . S
H1821 C1827 0.930 . S
C1822 H1808 0.930 . S
C1822 C1820 1.395 . S
C1822 C1825 1.403 . S
C1823 C1820 1.403 . S
C1823 C1824 1.524 . S
C1823 C1827 1.400 . S
C1824 H1809 0.960 . S
C1824 H1810 0.960 . S
C1824 H1811 0.960 . S
C1824 C1823 1.524 . S
C1825 C1822 1.403 . S
C1825 C1826 1.392 . S
C1825 C1829 1.495 . S
C1826 C1825 1.392 . S
C1826 C1827 1.385 . S
C1826 C1828 1.478 . S
C1827 H1821 0.930 . S
C1827 C1823 1.400 . S
C1827 C1826 1.385 . S
C1828 C1826 1.478 . S
C1828 C1830 1.381 . S
C1828 C1834 1.383 . S
C1829 C1825 1.495 . S
C1829 H1835 0.959 . S
C1829 H1836 0.961 . S
C1829 H1837 0.960 . S
C1830 C1828 1.381 . S
C1830 C1831 1.394 . S
C1830 H1838 0.930 . S
C1831 C1830 1.394 . S
C1831 C1832 1.383 . S
C1831 H1839 0.929 . S
C1832 C1831 1.383 . S
C1832 C1833 1.377 . S
C1833 H1817 0.930 . S
C1833 C1832 1.377 . S
C1833 C1834 1.379 . S
C1834 H1818 0.931 . S
C1834 C1828 1.383 . S
C1834 C1833 1.379 . S
H1835 C1829 0.959 . S
H1836 C1829 0.961 . S
H1837 C1829 0.960 . S
H1838 C1830 0.930 . S
H1839 C1831 0.929 . S
H1840 C1848 0.929 . S
H1841 C1850 0.930 . S
H1842 C1852 0.930 . S
H1843 C1855 0.929 . S
H1844 C1858 0.930 . S
H1845 C1860 0.960 . S
H1846 C1860 0.960 . S
H1847 C1860 0.960 . S
C1848 H1840 0.929 . S
C1848 C1849 1.377 . S
C1848 C1850 1.384 . S
C1849 C1848 1.377 . S
C1849 C1855 1.390 . S
C1850 H1841 0.930 . S
C1850 C1848 1.384 . S
C1850 C1851 1.372 . S
C1851 C1850 1.372 . S
C1851 C1852 1.400 . S
C1851 C1856 1.490 . S
C1852 H1842 0.930 . S
C1852 C1851 1.400 . S
C1852 C1855 1.386 . S
H1853 C1869 0.930 . S
H1854 C1870 0.931 . S
C1855 H1843 0.929 . S
C1855 C1849 1.390 . S
C1855 C1852 1.386 . S
C1856 C1851 1.490 . S
C1856 C1858 1.395 . S
C1856 C1859 1.403 . S
H1857 C1863 0.930 . S
C1858 H1844 0.930 . S
C1858 C1856 1.395 . S
C1858 C1861 1.403 . S
C1859 C1856 1.403 . S
C1859 C1860 1.524 . S
C1859 C1863 1.400 . S
C1860 H1845 0.960 . S
C1860 H1846 0.960 . S
C1860 H1847 0.960 . S
C1860 C1859 1.524 . S
C1861 C1858 1.403 . S
C1861 C1862 1.392 . S
C1861 C1865 1.495 . S
C1862 C1861 1.392 . S
C1862 C1863 1.385 . S
C1862 C1864 1.478 . S
C1863 H1857 0.930 . S
C1863 C1859 1.400 . S
C1863 C1862 1.385 . S
C1864 C1862 1.478 . S
C1864 C1866 1.381 . S
C1864 C1870 1.383 . S
C1865 C1861 1.495 . S
C1865 H1871 0.959 . S
C1865 H1872 0.961 . S
C1865 H1873 0.960 . S
C1866 C1864 1.381 . S
C1866 C1867 1.394 . S
C1866 H1874 0.930 . S
C1867 C1866 1.394 . S
C1867 C1868 1.383 . S
C1867 H1875 0.929 . S
C1868 C1867 1.383 . S
C1868 C1869 1.377 . S
C1869 H1853 0.930 . S
C1869 C1868 1.377 . S
C1869 C1870 1.379 . S
C1870 H1854 0.931 . S
C1870 C1864 1.383 . S
C1870 C1869 1.379 . S
H1871 C1865 0.959 . S
H1872 C1865 0.961 . S
H1873 C1865 0.960 . S
H1874 C1866 0.930 . S
H1875 C1867 0.929 . S
H1876 C1884 0.929 . S
H1877 C1886 0.930 . S
H1878 C1888 0.930 . S
H1879 C1891 0.929 . S
H1880 C1894 0.930 . S
H1881 C1896 0.960 . S
H1882 C1896 0.960 . S
H1883 C1896 0.960 . S
C1884 H1876 0.929 . S
C1884 C1885 1.377 . S
C1884 C1886 1.384 . S
C1885 C1884 1.377 . S
C1885 C1891 1.390 . S
C1886 H1877 0.930 . S
C1886 C1884 1.384 . S
C1886 C1887 1.372 . S
C1887 C1886 1.372 . S
C1887 C1888 1.400 . S
C1887 C1892 1.490 . S
C1888 H1878 0.930 . S
C1888 C1887 1.400 . S
C1888 C1891 1.386 . S
H1889 C1905 0.930 . S
H1890 C1906 0.931 . S
C1891 H1879 0.929 . S
C1891 C1885 1.390 . S
C1891 C1888 1.386 . S
C1892 C1887 1.490 . S
C1892 C1894 1.395 . S
C1892 C1895 1.403 . S
H1893 C1899 0.930 . S
C1894 H1880 0.930 . S
C1894 C1892 1.395 . S
C1894 C1897 1.403 . S
C1895 C1892 1.403 . S
C1895 C1896 1.524 . S
C1895 C1899 1.400 . S
C1896 H1881 0.960 . S
C1896 H1882 0.960 . S
C1896 H1883 0.960 . S
C1896 C1895 1.524 . S
C1897 C1894 1.403 . S
C1897 C1898 1.392 . S
C1897 C1901 1.495 . S
C1898 C1897 1.392 . S
C1898 C1899 1.385 . S
C1898 C1900 1.478 . S
C1899 H1893 0.930 . S
C1899 C1895 1.400 . S
C1899 C1898 1.385 . S
C1900 C1898 1.478 . S
C1900 C1902 1.381 . S
C1900 C1906 1.383 . S
C1901 C1897 1.495 . S
C1901 H1907 0.959 . S
C1901 H1908 0.961 . S
C1901 H1909 0.960 . S
C1902 C1900 1.381 . S
C1902 C1903 1.394 . S
C1902 H1910 0.930 . S
C1903 C1902 1.394 . S
C1903 C1904 1.383 . S
C1903 H1911 0.929 . S
C1904 C1903 1.383 . S
C1904 C1905 1.377 . S
C1905 H1889 0.930 . S
C1905 C1904 1.377 . S
C1905 C1906 1.379 . S
C1906 H1890 0.931 . S
C1906 C1900 1.383 . S
C1906 C1905 1.379 . S
H1907 C1901 0.959 . S
H1908 C1901 0.961 . S
H1909 C1901 0.960 . S
H1910 C1902 0.930 . S
H1911 C1903 0.929 . S
H1912 C1920 0.929 . S
H1913 C1922 0.930 . S
H1914 C1924 0.930 . S
H1915 C1927 0.929 . S
H1916 C1930 0.930 . S
H1917 C1932 0.960 . S
H1918 C1932 0.960 . S
H1919 C1932 0.960 . S
C1920 H1912 0.929 . S
C1920 C1921 1.377 . S
C1920 C1922 1.384 . S
C1921 C1920 1.377 . S
C1921 C1927 1.390 . S
C1922 H1913 0.930 . S
C1922 C1920 1.384 . S
C1922 C1923 1.372 . S
C1923 C1922 1.372 . S
C1923 C1924 1.400 . S
C1923 C1928 1.490 . S
C1924 H1914 0.930 . S
C1924 C1923 1.400 . S
C1924 C1927 1.386 . S
H1925 C1941 0.930 . S
H1926 C1942 0.931 . S
C1927 H1915 0.929 . S
C1927 C1921 1.390 . S
C1927 C1924 1.386 . S
C1928 C1923 1.490 . S
C1928 C1930 1.395 . S
C1928 C1931 1.403 . S
H1929 C1935 0.930 . S
C1930 H1916 0.930 . S
C1930 C1928 1.395 . S
C1930 C1933 1.403 . S
C1931 C1928 1.403 . S
C1931 C1932 1.524 . S
C1931 C1935 1.400 . S
C1932 H1917 0.960 . S
C1932 H1918 0.960 . S
C1932 H1919 0.960 . S
C1932 C1931 1.524 . S
C1933 C1930 1.403 . S
C1933 C1934 1.392 . S
C1933 C1937 1.495 . S
C1934 C1933 1.392 . S
C1934 C1935 1.385 . S
C1934 C1936 1.478 . S
C1935 H1929 0.930 . S
C1935 C1931 1.400 . S
C1935 C1934 1.385 . S
C1936 C1934 1.478 . S
C1936 C1938 1.381 . S
C1936 C1942 1.383 . S
C1937 C1933 1.495 . S
C1937 H1943 0.959 . S
C1937 H1944 0.961 . S
C1937 H1945 0.960 . S
C1938 C1936 1.381 . S
C1938 C1939 1.394 . S
C1938 H1946 0.930 . S
C1939 C1938 1.394 . S
C1939 C1940 1.383 . S
C1939 H1947 0.929 . S
C1940 C1939 1.383 . S
C1940 C1941 1.377 . S
C1941 H1925 0.930 . S
C1941 C1940 1.377 . S
C1941 C1942 1.379 . S
C1942 H1926 0.931 . S
C1942 C1936 1.383 . S
C1942 C1941 1.379 . S
H1943 C1937 0.959 . S
H1944 C1937 0.961 . S
H1945 C1937 0.960 . S
H1946 C1938 0.930 . S
H1947 C1939 0.929 . S
H1948 C1956 0.929 . S
H1949 C1958 0.930 . S
H1950 C1960 0.930 . S
H1951 C1963 0.929 . S
H1952 C1966 0.930 . S
H1953 C1968 0.960 . S
H1954 C1968 0.960 . S
H1955 C1968 0.960 . S
C1956 H1948 0.929 . S
C1956 C1957 1.377 . S
C1956 C1958 1.384 . S
C1957 C1956 1.377 . S
C1957 C1963 1.390 . S
C1958 H1949 0.930 . S
C1958 C1956 1.384 . S
C1958 C1959 1.372 . S
C1959 C1958 1.372 . S
C1959 C1960 1.400 . S
C1959 C1964 1.490 . S
C1960 H1950 0.930 . S
C1960 C1959 1.400 . S
C1960 C1963 1.386 . S
H1961 C1977 0.930 . S
H1962 C1978 0.931 . S
C1963 H1951 0.929 . S
C1963 C1957 1.390 . S
C1963 C1960 1.386 . S
C1964 C1959 1.490 . S
C1964 C1966 1.395 . S
C1964 C1967 1.403 . S
H1965 C1971 0.930 . S
C1966 H1952 0.930 . S
C1966 C1964 1.395 . S
C1966 C1969 1.403 . S
C1967 C1964 1.403 . S
C1967 C1968 1.524 . S
C1967 C1971 1.400 . S
C1968 H1953 0.960 . S
C1968 H1954 0.960 . S
C1968 H1955 0.960 . S
C1968 C1967 1.524 . S
C1969 C1966 1.403 . S
C1969 C1970 1.392 . S
C1969 C1973 1.495 . S
C1970 C1969 1.392 . S
C1970 C1971 1.385 . S
C1970 C1972 1.478 . S
C1971 H1965 0.930 . S
C1971 C1967 1.400 . S
C1971 C1970 1.385 . S
C1972 C1970 1.478 . S
C1972 C1974 1.381 . S
C1972 C1978 1.383 . S
C1973 C1969 1.495 . S
C1973 H1979 0.959 . S
C1973 H1980 0.961 . S
C1973 H1981 0.960 . S
C1974 C1972 1.381 . S
C1974 C1975 1.394 . S
C1974 H1982 0.930 . S
C1975 C1974 1.394 . S
C1975 C1976 1.383 . S
C1975 H1983 0.929 . S
C1976 C1975 1.383 . S
C1976 C1977 1.377 . S
C1977 H1961 0.930 . S
C1977 C1976 1.377 . S
C1977 C1978 1.379 . S
C1978 H1962 0.931 . S
C1978 C1972 1.383 . S
C1978 C1977 1.379 . S
H1979 C1973 0.959 . S
H1980 C1973 0.961 . S
H1981 C1973 0.960 . S
H1982 C1974 0.930 . S
H1983 C1975 0.929 . S
H1984 C1992 0.929 . S
H1985 C1994 0.930 . S
H1986 C1996 0.930 . S
H1987 C1999 0.929 . S
H1988 C2002 0.930 . S
H1989 C2004 0.960 . S
H1990 C2004 0.960 . S
H1991 C2004 0.960 . S
C1992 H1984 0.929 . S
C1992 C1993 1.377 . S
C1992 C1994 1.384 . S
C1993 C1992 1.377 . S
C1993 C1999 1.389 1_655 S
C1994 H1985 0.930 . S
C1994 C1992 1.384 . S
C1994 C1995 1.372 1_655 S
C1995 C1994 1.372 1_455 S
C1995 C1996 1.400 . S
C1995 C2000 1.490 . S
C1996 H1986 0.930 . S
C1996 C1995 1.400 . S
C1996 C1999 1.386 . S
H1997 C2013 0.930 . S
H1998 C2014 0.931 . S
C1999 H1987 0.929 . S
C1999 C1993 1.389 1_455 S
C1999 C1996 1.386 . S
C2000 C1995 1.490 . S
C2000 C2002 1.395 . S
C2000 C2003 1.403 1_455 S
H2001 C2007 0.963 . S
C2002 H1988 0.930 . S
C2002 C2000 1.395 . S
C2002 C2005 1.403 . S
C2003 C2000 1.403 1_655 S
C2003 C2004 1.524 . S
C2003 C2007 1.419 . S
C2004 H1989 0.960 . S
C2004 H1990 0.960 . S
C2004 H1991 0.960 . S
C2004 C2003 1.524 . S
C2005 C2002 1.403 . S
C2005 C2006 1.392 . S
C2005 C2009 1.495 . S
C2006 C2005 1.392 . S
C2006 C2007 1.337 1_455 S
C2006 C2008 1.478 . S
C2007 H2001 0.963 . S
C2007 C2003 1.419 . S
C2007 C2006 1.337 1_655 S
C2008 C2006 1.478 . S
C2008 C2010 1.381 . S
C2008 C2014 1.383 . S
C2009 C2005 1.495 . S
C2009 H2015 0.959 . S
C2009 H2016 0.961 . S
C2009 H2017 0.960 . S
C2010 C2008 1.381 . S
C2010 C2011 1.394 . S
C2010 H2018 0.930 . S
C2011 C2010 1.394 . S
C2011 C2012 1.383 . S
C2011 H2019 0.929 . S
C2012 C2011 1.383 . S
C2012 C2013 1.377 . S
C2013 H1997 0.930 . S
C2013 C2012 1.377 . S
C2013 C2014 1.379 . S
C2014 H1998 0.931 . S
C2014 C2008 1.383 . S
C2014 C2013 1.379 . S
H2015 C2009 0.959 . S
H2016 C2009 0.961 . S
H2017 C2009 0.960 . S
H2018 C2010 0.930 . S
H2019 C2011 0.929 . S
H2020 C2028 0.929 . S
H2021 C2030 0.930 . S
H2022 C2032 0.930 . S
H2023 C2035 0.929 . S
H2024 C2038 0.930 . S
H2025 C2040 0.960 . S
H2026 C2040 0.960 . S
H2027 C2040 0.960 . S
C2028 H2020 0.929 . S
C2028 C2029 1.377 . S
C2028 C2030 1.384 . S
C2029 C2028 1.377 . S
C2029 C2035 1.390 . S
C2030 H2021 0.930 . S
C2030 C2028 1.384 . S
C2030 C2031 1.372 . S
C2031 C2030 1.372 . S
C2031 C2032 1.400 . S
C2031 C2036 1.490 . S
C2032 H2022 0.930 . S
C2032 C2031 1.400 . S
C2032 C2035 1.386 . S
H2033 C2049 0.930 . S
H2034 C2050 0.931 . S
C2035 H2023 0.929 . S
C2035 C2029 1.390 . S
C2035 C2032 1.386 . S
C2036 C2031 1.490 . S
C2036 C2038 1.395 . S
C2036 C2039 1.403 . S
H2037 C2043 0.930 . S
C2038 H2024 0.930 . S
C2038 C2036 1.395 . S
C2038 C2041 1.403 . S
C2039 C2036 1.403 . S
C2039 C2040 1.524 . S
C2039 C2043 1.400 . S
C2040 H2025 0.960 . S
C2040 H2026 0.960 . S
C2040 H2027 0.960 . S
C2040 C2039 1.524 . S
C2041 C2038 1.403 . S
C2041 C2042 1.392 . S
C2041 C2045 1.495 . S
C2042 C2041 1.392 . S
C2042 C2043 1.385 . S
C2042 C2044 1.478 . S
C2043 H2037 0.930 . S
C2043 C2039 1.400 . S
C2043 C2042 1.385 . S
C2044 C2042 1.478 . S
C2044 C2046 1.381 . S
C2044 C2050 1.383 . S
C2045 C2041 1.495 . S
C2045 H2051 0.959 . S
C2045 H2052 0.961 . S
C2045 H2053 0.960 . S
C2046 C2044 1.381 . S
C2046 C2047 1.394 . S
C2046 H2054 0.930 . S
C2047 C2046 1.394 . S
C2047 C2048 1.383 . S
C2047 H2055 0.929 . S
C2048 C2047 1.383 . S
C2048 C2049 1.377 . S
C2049 H2033 0.930 . S
C2049 C2048 1.377 . S
C2049 C2050 1.379 . S
C2050 H2034 0.931 . S
C2050 C2044 1.383 . S
C2050 C2049 1.379 . S
H2051 C2045 0.959 . S
H2052 C2045 0.961 . S
H2053 C2045 0.960 . S
H2054 C2046 0.930 . S
H2055 C2047 0.929 . S
H2056 C2064 0.929 . S
H2057 C2066 0.930 . S
H2058 C2068 0.930 . S
H2059 C2071 0.929 . S
H2060 C2074 0.930 . S
H2061 C2076 0.960 . S
H2062 C2076 0.960 . S
H2063 C2076 0.960 . S
C2064 H2056 0.929 . S
C2064 C2065 1.377 . S
C2064 C2066 1.384 . S
C2065 C2064 1.377 . S
C2065 C2071 1.390 . S
C2066 H2057 0.930 . S
C2066 C2064 1.384 . S
C2066 C2067 1.372 . S
C2067 C2066 1.372 . S
C2067 C2068 1.400 . S
C2067 C2072 1.490 . S
C2068 H2058 0.930 . S
C2068 C2067 1.400 . S
C2068 C2071 1.386 . S
H2069 C2085 0.912 1_556 S
H2070 C2086 0.931 . S
C2071 H2059 0.929 . S
C2071 C2065 1.390 . S
C2071 C2068 1.386 . S
C2072 C2067 1.490 . S
C2072 C2074 1.395 . S
C2072 C2075 1.403 . S
H2073 C2079 0.930 . S
C2074 H2060 0.930 . S
C2074 C2072 1.395 . S
C2074 C2077 1.403 . S
C2075 C2072 1.403 . S
C2075 C2076 1.524 . S
C2075 C2079 1.400 . S
C2076 H2061 0.960 . S
C2076 H2062 0.960 . S
C2076 H2063 0.960 . S
C2076 C2075 1.524 . S
C2077 C2074 1.403 . S
C2077 C2078 1.392 . S
C2077 C2081 1.495 . S
C2078 C2077 1.392 . S
C2078 C2079 1.385 . S
C2078 C2080 1.478 . S
C2079 H2073 0.930 . S
C2079 C2075 1.400 . S
C2079 C2078 1.385 . S
C2080 C2078 1.478 . S
C2080 C2082 1.381 1_556 S
C2080 C2086 1.383 . S
C2081 C2077 1.495 . S
C2081 H2087 0.959 . S
C2081 H2088 0.961 . S
C2081 H2089 0.960 . S
C2082 C2080 1.381 1_554 S
C2082 C2083 1.394 . S
C2082 H2090 0.930 . S
C2083 C2082 1.394 . S
C2083 C2084 1.383 . S
C2083 H2091 0.929 . S
C2084 C2083 1.383 . S
C2084 C2085 1.377 . S
C2085 H2069 0.912 1_554 S
C2085 C2084 1.377 . S
C2085 C2086 1.379 1_554 S
C2086 H2070 0.931 . S
C2086 C2080 1.383 . S
C2086 C2085 1.379 1_556 S
H2087 C2081 0.959 . S
H2088 C2081 0.961 . S
H2089 C2081 0.960 . S
H2090 C2082 0.930 . S
H2091 C2083 0.929 . S
H2092 C2100 0.929 . S
H2093 C2102 0.930 . S
H2094 C2104 0.930 . S
H2095 C2107 0.929 . S
H2096 C2110 0.930 . S
H2097 C2112 0.960 . S
H2098 C2112 0.960 . S
H2099 C2112 0.960 . S
C2100 H2092 0.929 . S
C2100 C2101 1.377 . S
C2100 C2102 1.384 1_455 S
C2101 C2100 1.377 . S
C2101 C2107 1.390 1_455 S
C2102 H2093 0.930 . S
C2102 C2100 1.384 1_655 S
C2102 C2103 1.372 . S
C2103 C2102 1.372 . S
C2103 C2104 1.400 . S
C2103 C2108 1.490 . S
C2104 H2094 0.930 . S
C2104 C2103 1.400 . S
C2104 C2107 1.386 . S
H2105 C2121 0.930 . S
H2106 C2122 0.931 . S
C2107 H2095 0.929 . S
C2107 C2101 1.390 1_655 S
C2107 C2104 1.386 . S
C2108 C2103 1.490 . S
C2108 C2110 1.395 . S
C2108 C2111 1.403 . S
H2109 C2115 0.930 . S
C2110 H2096 0.930 . S
C2110 C2108 1.395 . S
C2110 C2113 1.403 . S
C2111 C2108 1.403 . S
C2111 C2112 1.524 . S
C2111 C2115 1.400 . S
C2112 H2097 0.960 . S
C2112 H2098 0.960 . S
C2112 H2099 0.960 . S
C2112 C2111 1.524 . S
C2113 C2110 1.403 . S
C2113 C2114 1.392 . S
C2113 C2117 1.495 . S
C2114 C2113 1.392 . S
C2114 C2115 1.385 . S
C2114 C2116 1.478 . S
C2115 H2109 0.930 . S
C2115 C2111 1.400 . S
C2115 C2114 1.385 . S
C2116 C2114 1.478 . S
C2116 C2118 1.381 . S
C2116 C2122 1.383 . S
C2117 C2113 1.495 . S
C2117 H2123 0.959 . S
C2117 H2124 0.961 . S
C2117 H2125 0.960 . S
C2118 C2116 1.381 . S
C2118 C2119 1.394 . S
C2118 H2126 0.930 . S
C2119 C2118 1.394 . S
C2119 C2120 1.383 . S
C2119 H2127 0.929 . S
C2120 C2119 1.383 . S
C2120 C2121 1.377 . S
C2121 H2105 0.930 . S
C2121 C2120 1.377 . S
C2121 C2122 1.379 . S
C2122 H2106 0.931 . S
C2122 C2116 1.383 . S
C2122 C2121 1.379 . S
H2123 C2117 0.959 . S
H2124 C2117 0.961 . S
H2125 C2117 0.960 . S
H2126 C2118 0.930 . S
H2127 C2119 0.929 . S
H2128 C2136 0.929 . S
H2129 C2138 0.930 . S
H2130 C2140 0.930 . S
H2131 C2143 0.929 . S
H2132 C2146 0.930 . S
H2133 C2148 0.960 . S
H2134 C2148 0.960 . S
H2135 C2148 0.960 . S
C2136 H2128 0.929 . S
C2136 C2137 1.377 . S
C2136 C2138 1.384 . S
C2137 C2136 1.377 . S
C2137 C2143 1.390 . S
C2138 H2129 0.930 . S
C2138 C2136 1.384 . S
C2138 C2139 1.372 . S
C2139 C2138 1.372 . S
C2139 C2140 1.400 . S
C2139 C2144 1.490 . S
C2140 H2130 0.930 . S
C2140 C2139 1.400 . S
C2140 C2143 1.386 . S
H2141 C2157 0.930 . S
H2142 C2158 0.931 . S
C2143 H2131 0.929 . S
C2143 C2137 1.390 . S
C2143 C2140 1.386 . S
C2144 C2139 1.490 . S
C2144 C2146 1.395 . S
C2144 C2147 1.403 . S
H2145 C2151 0.930 1_565 S
C2146 H2132 0.930 . S
C2146 C2144 1.395 . S
C2146 C2149 1.403 . S
C2147 C2144 1.403 . S
C2147 C2148 1.524 1_545 S
C2147 C2151 1.400 . S
C2148 H2133 0.960 . S
C2148 H2134 0.960 . S
C2148 H2135 0.960 . S
C2148 C2147 1.524 1_565 S
C2149 C2146 1.403 . S
C2149 C2150 1.392 . S
C2149 C2153 1.495 . S
C2150 C2149 1.392 . S
C2150 C2151 1.385 . S
C2150 C2152 1.478 . S
C2151 H2145 0.930 1_545 S
C2151 C2147 1.400 . S
C2151 C2150 1.385 . S
C2152 C2150 1.478 . S
C2152 C2154 1.381 . S
C2152 C2158 1.383 . S
C2153 C2149 1.495 . S
C2153 H2159 0.959 . S
C2153 H2160 0.961 . S
C2153 H2161 0.960 . S
C2154 C2152 1.381 . S
C2154 C2155 1.394 . S
C2154 H2162 0.930 . S
C2155 C2154 1.394 . S
C2155 C2156 1.383 . S
C2155 H2163 0.929 1_556 S
C2156 C2155 1.383 . S
C2156 C2157 1.377 . S
C2157 H2141 0.930 . S
C2157 C2156 1.377 . S
C2157 C2158 1.379 . S
C2158 H2142 0.931 . S
C2158 C2152 1.383 . S
C2158 C2157 1.379 . S
H2159 C2153 0.959 . S
H2160 C2153 0.961 . S
H2161 C2153 0.960 . S
H2162 C2154 0.930 . S
H2163 C2155 0.929 1_554 S
H2164 C2172 0.929 . S
H2165 C2174 0.930 . S
H2166 C2176 0.930 . S
H2167 C2179 0.929 . S
H2168 C2182 0.930 . S
H2169 C2184 0.960 . S
H2170 C2184 0.960 . S
H2171 C2184 0.960 . S
C2172 H2164 0.929 . S
C2172 C2173 1.377 . S
C2172 C2174 1.384 . S
C2173 C2172 1.377 . S
C2173 C2179 1.390 . S
C2174 H2165 0.930 . S
C2174 C2172 1.384 . S
C2174 C2175 1.372 . S
C2175 C2174 1.372 . S
C2175 C2176 1.400 . S
C2175 C2180 1.490 . S
C2176 H2166 0.930 . S
C2176 C2175 1.400 . S
C2176 C2179 1.386 . S
H2177 C2193 0.930 . S
H2178 C2194 0.931 . S
C2179 H2167 0.929 . S
C2179 C2173 1.390 . S
C2179 C2176 1.386 . S
C2180 C2175 1.490 . S
C2180 C2182 1.395 . S
C2180 C2183 1.403 . S
H2181 C2187 0.930 . S
C2182 H2168 0.930 . S
C2182 C2180 1.395 . S
C2182 C2185 1.403 . S
C2183 C2180 1.403 . S
C2183 C2184 1.524 . S
C2183 C2187 1.400 . S
C2184 H2169 0.960 . S
C2184 H2170 0.960 . S
C2184 H2171 0.960 . S
C2184 C2183 1.524 . S
C2185 C2182 1.403 . S
C2185 C2186 1.392 . S
C2185 C2189 1.495 . S
C2186 C2185 1.392 . S
C2186 C2187 1.385 . S
C2186 C2188 1.478 . S
C2187 H2181 0.930 . S
C2187 C2183 1.400 . S
C2187 C2186 1.385 . S
C2188 C2186 1.478 . S
C2188 C2190 1.381 . S
C2188 C2194 1.383 . S
C2189 C2185 1.495 . S
C2189 H2195 0.959 . S
C2189 H2196 0.961 . S
C2189 H2197 0.960 . S
C2190 C2188 1.381 . S
C2190 C2191 1.394 . S
C2190 H2198 0.930 . S
C2191 C2190 1.394 . S
C2191 C2192 1.383 . S
C2191 H2199 0.929 . S
C2192 C2191 1.383 . S
C2192 C2193 1.377 . S
C2193 H2177 0.930 . S
C2193 C2192 1.377 . S
C2193 C2194 1.379 . S
C2194 H2178 0.931 . S
C2194 C2188 1.383 . S
C2194 C2193 1.379 . S
H2195 C2189 0.959 . S
H2196 C2189 0.961 . S
H2197 C2189 0.960 . S
H2198 C2190 0.930 . S
H2199 C2191 0.929 . S
H2200 C2208 0.929 . S
H2201 C2210 0.930 . S
H2202 C2212 0.930 1_565 S
H2203 C2215 0.929 1_565 S
H2204 C2218 0.930 . S
H2205 C2220 0.960 . S
H2206 C2220 0.960 . S
H2207 C2220 0.960 . S
C2208 H2200 0.929 . S
C2208 C2209 1.377 . S
C2208 C2210 1.384 . S
C2209 C2208 1.377 . S
C2209 C2215 1.390 . S
C2210 H2201 0.930 . S
C2210 C2208 1.384 . S
C2210 C2211 1.372 . S
C2211 C2210 1.372 . S
C2211 C2212 1.400 . S
C2211 C2216 1.490 . S
C2212 H2202 0.930 1_545 S
C2212 C2211 1.400 . S
C2212 C2215 1.386 . S
H2213 C2229 0.930 1_565 S
H2214 C2230 0.931 1_565 S
C2215 H2203 0.929 1_545 S
C2215 C2209 1.390 . S
C2215 C2212 1.386 . S
C2216 C2211 1.490 . S
C2216 C2218 1.395 . S
C2216 C2219 1.403 . S
H2217 C2223 0.930 . S
C2218 H2204 0.930 . S
C2218 C2216 1.395 . S
C2218 C2221 1.403 . S
C2219 C2216 1.403 . S
C2219 C2220 1.524 . S
C2219 C2223 1.400 . S
C2220 H2205 0.960 . S
C2220 H2206 0.960 . S
C2220 H2207 0.960 . S
C2220 C2219 1.524 . S
C2221 C2218 1.403 . S
C2221 C2222 1.392 . S
C2221 C2225 1.495 . S
C2222 C2221 1.392 . S
C2222 C2223 1.385 . S
C2222 C2224 1.478 . S
C2223 H2217 0.930 . S
C2223 C2219 1.400 . S
C2223 C2222 1.385 . S
C2224 C2222 1.478 . S
C2224 C2226 1.381 . S
C2224 C2230 1.383 . S
C2225 C2221 1.495 . S
C2225 H2231 0.959 . S
C2225 H2232 0.961 . S
C2225 H2233 0.960 . S
C2226 C2224 1.381 . S
C2226 C2227 1.394 . S
C2226 H2234 0.930 . S
C2227 C2226 1.394 . S
C2227 C2228 1.383 . S
C2227 H2235 0.929 . S
C2228 C2227 1.383 . S
C2228 C2229 1.377 . S
C2229 H2213 0.930 1_545 S
C2229 C2228 1.377 . S
C2229 C2230 1.379 . S
C2230 H2214 0.931 1_545 S
C2230 C2224 1.383 . S
C2230 C2229 1.379 . S
H2231 C2225 0.959 . S
H2232 C2225 0.961 . S
H2233 C2225 0.960 . S
H2234 C2226 0.930 . S
H2235 C2227 0.929 . S
H2236 C2244 0.929 . S
H2237 C2246 0.930 . S
H2238 C2248 0.930 . S
H2239 C2251 0.929 . S
H2240 C2254 0.930 . S
H2241 C2256 0.960 . S
H2242 C2256 0.960 . S
H2243 C2256 0.960 . S
C2244 H2236 0.929 . S
C2244 C2245 1.377 . S
C2244 C2246 1.384 . S
C2245 C2244 1.377 . S
C2245 C2251 1.390 . S
C2246 H2237 0.930 . S
C2246 C2244 1.384 . S
C2246 C2247 1.372 . S
C2247 C2246 1.372 . S
C2247 C2248 1.400 . S
C2247 C2252 1.490 . S
C2248 H2238 0.930 . S
C2248 C2247 1.400 . S
C2248 C2251 1.386 . S
H2249 C2265 0.930 . S
H2250 C2266 0.931 . S
C2251 H2239 0.929 . S
C2251 C2245 1.390 . S
C2251 C2248 1.386 . S
C2252 C2247 1.490 . S
C2252 C2254 1.395 . S
C2252 C2255 1.403 . S
H2253 C2259 0.930 . S
C2254 H2240 0.930 . S
C2254 C2252 1.395 . S
C2254 C2257 1.403 . S
C2255 C2252 1.403 . S
C2255 C2256 1.524 . S
C2255 C2259 1.400 . S
C2256 H2241 0.960 . S
C2256 H2242 0.960 . S
C2256 H2243 0.960 . S
C2256 C2255 1.524 . S
C2257 C2254 1.403 . S
C2257 C2258 1.392 . S
C2257 C2261 1.495 . S
C2258 C2257 1.392 . S
C2258 C2259 1.385 . S
C2258 C2260 1.478 . S
C2259 H2253 0.930 . S
C2259 C2255 1.400 . S
C2259 C2258 1.385 . S
C2260 C2258 1.478 . S
C2260 C2262 1.381 . S
C2260 C2266 1.383 . S
C2261 C2257 1.495 . S
C2261 H2267 0.959 . S
C2261 H2268 0.961 . S
C2261 H2269 0.960 . S
C2262 C2260 1.381 . S
C2262 C2263 1.394 . S
C2262 H2270 0.930 . S
C2263 C2262 1.394 . S
C2263 C2264 1.383 . S
C2263 H2271 0.929 . S
C2264 C2263 1.383 . S
C2264 C2265 1.377 . S
C2265 H2249 0.930 . S
C2265 C2264 1.377 . S
C2265 C2266 1.379 . S
C2266 H2250 0.931 . S
C2266 C2260 1.383 . S
C2266 C2265 1.379 . S
H2267 C2261 0.959 . S
H2268 C2261 0.961 . S
H2269 C2261 0.960 . S
H2270 C2262 0.930 . S
H2271 C2263 0.929 . S
H2272 C2280 0.929 . S
H2273 C2282 0.930 . S
H2274 C2284 0.925 1_565 S
H2275 C2287 0.902 1_565 S
H2276 C2290 0.930 . S
H2277 C2292 0.960 . S
H2278 C2292 0.960 . S
H2279 C2292 0.960 . S
C2280 H2272 0.929 . S
C2280 C2281 1.377 . S
C2280 C2282 1.384 . S
C2281 C2280 1.377 . S
C2281 C2287 1.390 . S
C2282 H2273 0.930 . S
C2282 C2280 1.384 . S
C2282 C2283 1.372 . S
C2283 C2282 1.372 . S
C2283 C2284 1.400 . S
C2283 C2288 1.490 . S
C2284 H2274 0.925 1_545 S
C2284 C2283 1.400 . S
C2284 C2287 1.386 . S
H2285 C2301 0.930 1_565 S
H2286 C2302 0.931 1_565 S
C2287 H2275 0.902 1_545 S
C2287 C2281 1.390 . S
C2287 C2284 1.386 . S
C2288 C2283 1.490 . S
C2288 C2290 1.395 . S
C2288 C2291 1.403 . S
H2289 C2295 0.930 . S
C2290 H2276 0.930 . S
C2290 C2288 1.395 . S
C2290 C2293 1.403 . S
C2291 C2288 1.403 . S
C2291 C2292 1.524 . S
C2291 C2295 1.400 . S
C2292 H2277 0.960 . S
C2292 H2278 0.960 . S
C2292 H2279 0.960 . S
C2292 C2291 1.524 . S
C2293 C2290 1.403 . S
C2293 C2294 1.392 . S
C2293 C2297 1.495 . S
C2294 C2293 1.392 . S
C2294 C2295 1.385 . S
C2294 C2296 1.478 . S
C2295 H2289 0.930 . S
C2295 C2291 1.400 . S
C2295 C2294 1.385 . S
C2296 C2294 1.478 . S
C2296 C2298 1.381 . S
C2296 C2302 1.383 . S
C2297 C2293 1.495 . S
C2297 H2303 0.959 . S
C2297 H2304 0.961 1_545 S
C2297 H2305 0.960 . S
C2298 C2296 1.381 . S
C2298 C2299 1.394 . S
C2298 H2306 0.930 . S
C2299 C2298 1.394 . S
C2299 C2300 1.383 . S
C2299 H2307 0.929 . S
C2300 C2299 1.383 . S
C2300 C2301 1.377 . S
C2301 H2285 0.930 1_545 S
C2301 C2300 1.377 . S
C2301 C2302 1.379 . S
C2302 H2286 0.931 1_545 S
C2302 C2296 1.383 . S
C2302 C2301 1.379 . S
H2303 C2297 0.959 . S
H2304 C2297 0.961 1_565 S
H2305 C2297 0.960 . S
H2306 C2298 0.930 . S
H2307 C2299 0.929 . S
H2308 C2316 0.929 . S
H2309 C2318 0.930 . S
H2310 C2320 0.930 . S
H2311 C2323 0.929 . S
H2312 C2326 0.930 . S
H2313 C2328 0.960 . S
H2314 C2328 0.960 . S
H2315 C2328 0.960 . S
C2316 H2308 0.929 . S
C2316 C2317 1.377 . S
C2316 C2318 1.384 . S
C2317 C2316 1.377 . S
C2317 C2323 1.390 . S
C2318 H2309 0.930 . S
C2318 C2316 1.384 . S
C2318 C2319 1.372 . S
C2319 C2318 1.372 . S
C2319 C2320 1.400 . S
C2319 C2324 1.490 . S
C2320 H2310 0.930 . S
C2320 C2319 1.400 . S
C2320 C2323 1.386 . S
H2321 C2337 0.930 . S
H2322 C2338 0.931 . S
C2323 H2311 0.929 . S
C2323 C2317 1.390 . S
C2323 C2320 1.386 . S
C2324 C2319 1.490 . S
C2324 C2326 1.395 . S
C2324 C2327 1.403 . S
H2325 C2331 0.930 . S
C2326 H2312 0.930 . S
C2326 C2324 1.395 . S
C2326 C2329 1.403 . S
C2327 C2324 1.403 . S
C2327 C2328 1.524 . S
C2327 C2331 1.400 . S
C2328 H2313 0.960 . S
C2328 H2314 0.960 . S
C2328 H2315 0.960 . S
C2328 C2327 1.524 . S
C2329 C2326 1.403 . S
C2329 C2330 1.392 . S
C2329 C2333 1.495 . S
C2330 C2329 1.392 . S
C2330 C2331 1.385 . S
C2330 C2332 1.478 . S
C2331 H2325 0.930 . S
C2331 C2327 1.400 . S
C2331 C2330 1.385 . S
C2332 C2330 1.478 . S
C2332 C2334 1.381 . S
C2332 C2338 1.383 . S
C2333 C2329 1.495 . S
C2333 H2339 0.959 . S
C2333 H2340 0.961 . S
C2333 H2341 0.960 . S
C2334 C2332 1.381 . S
C2334 C2335 1.394 . S
C2334 H2342 0.930 . S
C2335 C2334 1.394 . S
C2335 C2336 1.383 . S
C2335 H2343 0.929 . S
C2336 C2335 1.383 . S
C2336 C2337 1.377 . S
C2337 H2321 0.930 . S
C2337 C2336 1.377 . S
C2337 C2338 1.379 . S
C2338 H2322 0.931 . S
C2338 C2332 1.383 . S
C2338 C2337 1.379 . S
H2339 C2333 0.959 . S
H2340 C2333 0.961 . S
H2341 C2333 0.960 . S
H2342 C2334 0.930 . S
H2343 C2335 0.929 . S
H2344 C2352 0.929 . S
H2345 C2354 0.930 1_565 S
H2346 C2356 0.930 . S
H2347 C2359 0.929 . S
H2348 C2362 0.930 . S
H2349 C2364 0.960 . S
H2350 C2364 0.960 . S
H2351 C2364 0.965 . S
C2352 H2344 0.929 . S
C2352 C2353 1.377 . S
C2352 C2354 1.384 . S
C2353 C2352 1.377 . S
C2353 C2359 1.390 . S
C2354 H2345 0.930 1_545 S
C2354 C2352 1.384 . S
C2354 C2355 1.372 . S
C2355 C2354 1.372 . S
C2355 C2356 1.400 . S
C2355 C2360 1.490 . S
C2356 H2346 0.930 . S
C2356 C2355 1.400 . S
C2356 C2359 1.386 . S
H2357 C2373 0.930 . S
H2358 C2374 0.931 . S
C2359 H2347 0.929 . S
C2359 C2353 1.390 . S
C2359 C2356 1.386 . S
C2360 C2355 1.490 . S
C2360 C2362 1.395 . S
C2360 C2363 1.440 . S
H2361 C2367 0.924 1_565 S
C2362 H2348 0.930 . S
C2362 C2360 1.395 . S
C2362 C2365 1.403 . S
C2363 C2360 1.440 . S
C2363 C2364 1.490 1_545 S
C2363 C2367 1.399 . S
C2364 H2349 0.960 . S
C2364 H2350 0.960 . S
C2364 H2351 0.965 . S
C2364 C2363 1.490 1_565 S
C2365 C2362 1.403 . S
C2365 C2366 1.392 . S
C2365 C2369 1.495 . S
C2366 C2365 1.392 . S
C2366 C2367 1.390 . S
C2366 C2368 1.478 . S
C2367 H2361 0.924 1_545 S
C2367 C2363 1.399 . S
C2367 C2366 1.390 . S
C2368 C2366 1.478 . S
C2368 C2370 1.381 1_545 S
C2368 C2374 1.383 . S
C2369 C2365 1.495 . S
C2369 H2375 0.959 . S
C2369 H2376 0.961 . S
C2369 H2377 0.960 . S
C2370 C2368 1.381 1_565 S
C2370 C2371 1.394 . S
C2370 H2378 0.930 . S
C2371 C2370 1.394 . S
C2371 C2372 1.383 1_565 S
C2371 H2379 0.929 . S
C2372 C2371 1.383 1_545 S
C2372 C2373 1.377 . S
C2373 H2357 0.930 . S
C2373 C2372 1.377 . S
C2373 C2374 1.379 . S
C2374 H2358 0.931 . S
C2374 C2368 1.383 . S
C2374 C2373 1.379 . S
H2375 C2369 0.959 . S
H2376 C2369 0.961 . S
H2377 C2369 0.960 . S
H2378 C2370 0.930 . S
H2379 C2371 0.929 . S
H2380 C2388 0.929 . S
H2381 C2390 0.930 . S
H2382 C2392 0.930 . S
H2383 C2395 0.929 . S
H2384 C2398 0.930 . S
H2385 C2400 0.960 . S
H2386 C2400 0.960 . S
H2387 C2400 0.960 . S
C2388 H2380 0.929 . S
C2388 C2389 1.377 . S
C2388 C2390 1.384 . S
C2389 C2388 1.377 . S
C2389 C2395 1.390 . S
C2390 H2381 0.930 . S
C2390 C2388 1.384 . S
C2390 C2391 1.372 . S
C2391 C2390 1.372 . S
C2391 C2392 1.400 . S
C2391 C2396 1.490 . S
C2392 H2382 0.930 . S
C2392 C2391 1.400 . S
C2392 C2395 1.386 . S
H2393 C2409 0.930 . S
H2394 C2410 0.931 . S
C2395 H2383 0.929 . S
C2395 C2389 1.390 . S
C2395 C2392 1.386 . S
C2396 C2391 1.490 . S
C2396 C2398 1.395 . S
C2396 C2399 1.403 . S
H2397 C2403 0.930 . S
C2398 H2384 0.930 . S
C2398 C2396 1.395 . S
C2398 C2401 1.403 . S
C2399 C2396 1.403 . S
C2399 C2400 1.524 . S
C2399 C2403 1.400 . S
C2400 H2385 0.960 . S
C2400 H2386 0.960 . S
C2400 H2387 0.960 . S
C2400 C2399 1.524 . S
C2401 C2398 1.403 . S
C2401 C2402 1.392 . S
C2401 C2405 1.495 . S
C2402 C2401 1.392 . S
C2402 C2403 1.385 . S
C2402 C2404 1.478 . S
C2403 H2397 0.930 . S
C2403 C2399 1.400 . S
C2403 C2402 1.385 . S
C2404 C2402 1.478 . S
C2404 C2406 1.381 . S
C2404 C2410 1.383 . S
C2405 C2401 1.495 . S
C2405 H2411 0.959 . S
C2405 H2412 0.961 . S
C2405 H2413 0.960 . S
C2406 C2404 1.381 . S
C2406 C2407 1.394 . S
C2406 H2414 0.930 . S
C2407 C2406 1.394 . S
C2407 C2408 1.383 . S
C2407 H2415 0.929 . S
C2408 C2407 1.383 . S
C2408 C2409 1.377 . S
C2409 H2393 0.930 . S
C2409 C2408 1.377 . S
C2409 C2410 1.379 . S
C2410 H2394 0.931 . S
C2410 C2404 1.383 . S
C2410 C2409 1.379 . S
H2411 C2405 0.959 . S
H2412 C2405 0.961 . S
H2413 C2405 0.960 . S
H2414 C2406 0.930 . S
H2415 C2407 0.929 . S
H2416 C2424 0.929 . S
H2417 C2426 0.930 . S
H2418 C2428 0.930 . S
H2419 C2431 0.929 . S
H2420 C2434 0.930 . S
H2421 C2436 0.960 . S
H2422 C2436 0.960 . S
H2423 C2436 0.960 . S
C2424 H2416 0.929 . S
C2424 C2425 1.377 . S
C2424 C2426 1.384 . S
C2425 C2424 1.377 . S
C2425 C2431 1.390 . S
C2426 H2417 0.930 . S
C2426 C2424 1.384 . S
C2426 C2427 1.372 . S
C2427 C2426 1.372 . S
C2427 C2428 1.400 . S
C2427 C2432 1.490 . S
C2428 H2418 0.930 . S
C2428 C2427 1.400 . S
C2428 C2431 1.386 . S
H2429 C2445 0.930 . S
H2430 C2446 0.931 . S
C2431 H2419 0.929 . S
C2431 C2425 1.390 . S
C2431 C2428 1.386 . S
C2432 C2427 1.490 . S
C2432 C2434 1.395 . S
C2432 C2435 1.403 . S
H2433 C2439 0.930 . S
C2434 H2420 0.930 . S
C2434 C2432 1.395 . S
C2434 C2437 1.403 . S
C2435 C2432 1.403 . S
C2435 C2436 1.524 . S
C2435 C2439 1.400 . S
C2436 H2421 0.960 . S
C2436 H2422 0.960 . S
C2436 H2423 0.960 . S
C2436 C2435 1.524 . S
C2437 C2434 1.403 . S
C2437 C2438 1.392 . S
C2437 C2441 1.461 1_554 S
C2438 C2437 1.392 . S
C2438 C2439 1.385 . S
C2438 C2440 1.478 . S
C2439 H2433 0.930 . S
C2439 C2435 1.400 . S
C2439 C2438 1.385 . S
C2440 C2438 1.478 . S
C2440 C2442 1.381 . S
C2440 C2446 1.383 . S
C2441 C2437 1.461 1_556 S
C2441 H2447 0.973 . S
C2441 H2448 0.985 . S
C2441 H2449 0.958 . S
C2442 C2440 1.381 . S
C2442 C2443 1.394 . S
C2442 H2450 0.930 . S
C2443 C2442 1.394 . S
C2443 C2444 1.383 . S
C2443 H2451 0.929 . S
C2444 C2443 1.383 . S
C2444 C2445 1.377 . S
C2445 H2429 0.930 . S
C2445 C2444 1.377 . S
C2445 C2446 1.379 . S
C2446 H2430 0.931 . S
C2446 C2440 1.383 . S
C2446 C2445 1.379 . S
H2447 C2441 0.973 . S
H2448 C2441 0.985 . S
H2449 C2441 0.958 . S
H2450 C2442 0.930 . S
H2451 C2443 0.929 . S
H2452 C2460 0.929 . S
H2453 C2462 0.930 . S
H2454 C2464 0.930 . S
H2455 C2467 0.929 . S
H2456 C2470 0.930 . S
H2457 C2472 0.960 . S
H2458 C2472 0.960 . S
H2459 C2472 0.960 . S
C2460 H2452 0.929 . S
C2460 C2461 1.377 . S
C2460 C2462 1.384 . S
C2461 C2460 1.377 . S
C2461 C2467 1.390 . S
C2462 H2453 0.930 . S
C2462 C2460 1.384 . S
C2462 C2463 1.372 . S
C2463 C2462 1.372 . S
C2463 C2464 1.400 . S
C2463 C2468 1.490 . S
C2464 H2454 0.930 . S
C2464 C2463 1.400 . S
C2464 C2467 1.386 . S
H2465 C2481 0.930 . S
H2466 C2482 0.931 . S
C2467 H2455 0.929 . S
C2467 C2461 1.390 . S
C2467 C2464 1.386 . S
C2468 C2463 1.490 . S
C2468 C2470 1.395 . S
C2468 C2471 1.403 . S
H2469 C2475 0.930 . S
C2470 H2456 0.930 . S
C2470 C2468 1.395 . S
C2470 C2473 1.403 . S
C2471 C2468 1.403 . S
C2471 C2472 1.524 . S
C2471 C2475 1.400 . S
C2472 H2457 0.960 . S
C2472 H2458 0.960 . S
C2472 H2459 0.960 . S
C2472 C2471 1.524 . S
C2473 C2470 1.403 . S
C2473 C2474 1.392 . S
C2473 C2477 1.495 . S
C2474 C2473 1.392 . S
C2474 C2475 1.385 . S
C2474 C2476 1.478 . S
C2475 H2469 0.930 . S
C2475 C2471 1.400 . S
C2475 C2474 1.385 . S
C2476 C2474 1.478 . S
C2476 C2478 1.381 . S
C2476 C2482 1.383 . S
C2477 C2473 1.495 . S
C2477 H2483 0.959 . S
C2477 H2484 0.961 . S
C2477 H2485 0.960 . S
C2478 C2476 1.381 . S
C2478 C2479 1.394 . S
C2478 H2486 0.930 . S
C2479 C2478 1.394 . S
C2479 C2480 1.383 . S
C2479 H2487 0.929 . S
C2480 C2479 1.383 . S
C2480 C2481 1.377 . S
C2481 H2465 0.930 . S
C2481 C2480 1.377 . S
C2481 C2482 1.379 . S
C2482 H2466 0.931 . S
C2482 C2476 1.383 . S
C2482 C2481 1.379 . S
H2483 C2477 0.959 . S
H2484 C2477 0.961 . S
H2485 C2477 0.960 . S
H2486 C2478 0.930 . S
H2487 C2479 0.929 . S
H2488 C2496 0.929 . S
H2489 C2498 0.930 . S
H2490 C2500 0.930 . S
H2491 C2503 0.929 . S
H2492 C2506 0.930 . S
H2493 C2508 0.960 . S
H2494 C2508 0.960 . S
H2495 C2508 0.960 . S
C2496 H2488 0.929 . S
C2496 C2497 1.377 . S
C2496 C2498 1.384 . S
C2497 C2496 1.377 . S
C2497 C2503 1.390 . S
C2498 H2489 0.930 . S
C2498 C2496 1.384 . S
C2498 C2499 1.372 . S
C2499 C2498 1.372 . S
C2499 C2500 1.400 . S
C2499 C2504 1.490 . S
C2500 H2490 0.930 . S
C2500 C2499 1.400 . S
C2500 C2503 1.386 . S
H2501 C2517 0.930 . S
H2502 C2518 0.931 . S
C2503 H2491 0.929 . S
C2503 C2497 1.390 . S
C2503 C2500 1.386 . S
C2504 C2499 1.490 . S
C2504 C2506 1.395 . S
C2504 C2507 1.403 . S
H2505 C2511 0.930 . S
C2506 H2492 0.930 . S
C2506 C2504 1.395 . S
C2506 C2509 1.403 . S
C2507 C2504 1.403 . S
C2507 C2508 1.524 . S
C2507 C2511 1.400 . S
C2508 H2493 0.960 . S
C2508 H2494 0.960 . S
C2508 H2495 0.960 . S
C2508 C2507 1.524 . S
C2509 C2506 1.403 . S
C2509 C2510 1.392 . S
C2509 C2513 1.495 . S
C2510 C2509 1.392 . S
C2510 C2511 1.385 . S
C2510 C2512 1.478 . S
C2511 H2505 0.930 . S
C2511 C2507 1.400 . S
C2511 C2510 1.385 . S
C2512 C2510 1.478 . S
C2512 C2514 1.381 . S
C2512 C2518 1.383 . S
C2513 C2509 1.495 . S
C2513 H2519 0.959 . S
C2513 H2520 0.961 . S
C2513 H2521 0.960 . S
C2514 C2512 1.381 . S
C2514 C2515 1.394 . S
C2514 H2522 0.930 . S
C2515 C2514 1.394 . S
C2515 C2516 1.383 . S
C2515 H2523 0.929 . S
C2516 C2515 1.383 . S
C2516 C2517 1.377 . S
C2517 H2501 0.930 . S
C2517 C2516 1.377 . S
C2517 C2518 1.379 . S
C2518 H2502 0.931 . S
C2518 C2512 1.383 . S
C2518 C2517 1.379 . S
H2519 C2513 0.959 . S
H2520 C2513 0.961 . S
H2521 C2513 0.960 . S
H2522 C2514 0.930 . S
H2523 C2515 0.929 . S
H2524 C2532 0.929 . S
H2525 C2534 0.930 . S
H2526 C2536 0.930 . S
H2527 C2539 0.929 . S
H2528 C2542 0.930 . S
H2529 C2544 0.960 . S
H2530 C2544 0.960 . S
H2531 C2544 0.960 . S
C2532 H2524 0.929 . S
C2532 C2533 1.377 . S
C2532 C2534 1.384 . S
C2533 C2532 1.377 . S
C2533 C2539 1.390 . S
C2534 H2525 0.930 . S
C2534 C2532 1.384 . S
C2534 C2535 1.372 . S
C2535 C2534 1.372 . S
C2535 C2536 1.400 . S
C2535 C2540 1.490 . S
C2536 H2526 0.930 . S
C2536 C2535 1.400 . S
C2536 C2539 1.386 . S
H2537 C2553 0.930 . S
H2538 C2554 0.931 . S
C2539 H2527 0.929 . S
C2539 C2533 1.390 . S
C2539 C2536 1.386 . S
C2540 C2535 1.490 . S
C2540 C2542 1.395 . S
C2540 C2543 1.403 . S
H2541 C2547 0.930 . S
C2542 H2528 0.930 . S
C2542 C2540 1.395 . S
C2542 C2545 1.403 . S
C2543 C2540 1.403 . S
C2543 C2544 1.524 . S
C2543 C2547 1.400 . S
C2544 H2529 0.960 . S
C2544 H2530 0.960 . S
C2544 H2531 0.960 . S
C2544 C2543 1.524 . S
C2545 C2542 1.403 . S
C2545 C2546 1.392 . S
C2545 C2549 1.495 . S
C2546 C2545 1.392 . S
C2546 C2547 1.385 . S
C2546 C2548 1.478 . S
C2547 H2541 0.930 . S
C2547 C2543 1.400 . S
C2547 C2546 1.385 . S
C2548 C2546 1.478 . S
C2548 C2550 1.381 . S
C2548 C2554 1.383 . S
C2549 C2545 1.495 . S
C2549 H2555 0.959 . S
C2549 H2556 0.961 . S
C2549 H2557 0.960 . S
C2550 C2548 1.381 . S
C2550 C2551 1.394 . S
C2550 H2558 0.930 . S
C2551 C2550 1.394 . S
C2551 C2552 1.383 . S
C2551 H2559 0.929 . S
C2552 C2551 1.383 . S
C2552 C2553 1.377 . S
C2553 H2537 0.930 . S
C2553 C2552 1.377 . S
C2553 C2554 1.379 . S
C2554 H2538 0.931 . S
C2554 C2548 1.383 . S
C2554 C2553 1.379 . S
H2555 C2549 0.959 . S
H2556 C2549 0.961 . S
H2557 C2549 0.960 . S
H2558 C2550 0.930 . S
H2559 C2551 0.929 . S
H2560 C2568 0.929 . S
H2561 C2570 0.930 . S
H2562 C2572 0.930 . S
H2563 C2575 0.929 . S
H2564 C2578 0.930 . S
H2565 C2580 0.960 . S
H2566 C2580 0.960 . S
H2567 C2580 0.960 . S
C2568 H2560 0.929 . S
C2568 C2569 1.377 . S
C2568 C2570 1.384 . S
C2569 C2568 1.377 . S
C2569 C2575 1.390 . S
C2570 H2561 0.930 . S
C2570 C2568 1.384 . S
C2570 C2571 1.372 . S
C2571 C2570 1.372 . S
C2571 C2572 1.400 . S
C2571 C2576 1.490 . S
C2572 H2562 0.930 . S
C2572 C2571 1.400 . S
C2572 C2575 1.386 . S
H2573 C2589 0.930 . S
H2574 C2590 0.931 . S
C2575 H2563 0.929 . S
C2575 C2569 1.390 . S
C2575 C2572 1.386 . S
C2576 C2571 1.490 . S
C2576 C2578 1.395 . S
C2576 C2579 1.403 . S
H2577 C2583 0.930 . S
C2578 H2564 0.930 . S
C2578 C2576 1.395 . S
C2578 C2581 1.403 . S
C2579 C2576 1.403 . S
C2579 C2580 1.524 . S
C2579 C2583 1.400 . S
C2580 H2565 0.960 . S
C2580 H2566 0.960 . S
C2580 H2567 0.960 . S
C2580 C2579 1.524 . S
C2581 C2578 1.403 . S
C2581 C2582 1.392 . S
C2581 C2585 1.495 . S
C2582 C2581 1.392 . S
C2582 C2583 1.385 . S
C2582 C2584 1.478 . S
C2583 H2577 0.930 . S
C2583 C2579 1.400 . S
C2583 C2582 1.385 . S
C2584 C2582 1.478 . S
C2584 C2586 1.381 . S
C2584 C2590 1.383 . S
C2585 C2581 1.495 . S
C2585 H2591 0.959 . S
C2585 H2592 0.961 . S
C2585 H2593 0.960 . S
C2586 C2584 1.381 . S
C2586 C2587 1.394 . S
C2586 H2594 0.930 . S
C2587 C2586 1.394 . S
C2587 C2588 1.383 . S
C2587 H2595 0.929 . S
C2588 C2587 1.383 . S
C2588 C2589 1.377 . S
C2589 H2573 0.930 . S
C2589 C2588 1.377 . S
C2589 C2590 1.379 . S
C2590 H2574 0.931 . S
C2590 C2584 1.383 . S
C2590 C2589 1.379 . S
H2591 C2585 0.959 . S
H2592 C2585 0.961 . S
H2593 C2585 0.960 . S
H2594 C2586 0.930 . S
H2595 C2587 0.929 . S
H2596 C2604 0.929 . S
H2597 C2606 0.930 . S
H2598 C2608 0.930 . S
H2599 C2611 0.929 . S
H2600 C2614 0.930 . S
H2601 C2616 0.960 . S
H2602 C2616 0.960 . S
H2603 C2616 0.960 . S
C2604 H2596 0.929 . S
C2604 C2605 1.377 . S
C2604 C2606 1.384 . S
C2605 C2604 1.377 . S
C2605 C2611 1.390 . S
C2606 H2597 0.930 . S
C2606 C2604 1.384 . S
C2606 C2607 1.372 . S
C2607 C2606 1.372 . S
C2607 C2608 1.400 . S
C2607 C2612 1.490 . S
C2608 H2598 0.930 . S
C2608 C2607 1.400 . S
C2608 C2611 1.386 . S
H2609 C2625 0.930 . S
H2610 C2626 0.931 . S
C2611 H2599 0.929 . S
C2611 C2605 1.390 . S
C2611 C2608 1.386 . S
C2612 C2607 1.490 . S
C2612 C2614 1.395 . S
C2612 C2615 1.403 . S
H2613 C2619 0.930 . S
C2614 H2600 0.930 . S
C2614 C2612 1.395 . S
C2614 C2617 1.403 . S
C2615 C2612 1.403 . S
C2615 C2616 1.524 . S
C2615 C2619 1.400 . S
C2616 H2601 0.960 . S
C2616 H2602 0.960 . S
C2616 H2603 0.960 . S
C2616 C2615 1.524 . S
C2617 C2614 1.403 . S
C2617 C2618 1.392 . S
C2617 C2621 1.495 . S
C2618 C2617 1.392 . S
C2618 C2619 1.385 . S
C2618 C2620 1.478 . S
C2619 H2613 0.930 . S
C2619 C2615 1.400 . S
C2619 C2618 1.385 . S
C2620 C2618 1.478 . S
C2620 C2622 1.381 . S
C2620 C2626 1.383 . S
C2621 C2617 1.495 . S
C2621 H2627 0.959 . S
C2621 H2628 0.961 . S
C2621 H2629 0.960 . S
C2622 C2620 1.381 . S
C2622 C2623 1.394 . S
C2622 H2630 0.930 . S
C2623 C2622 1.394 . S
C2623 C2624 1.383 . S
C2623 H2631 0.929 . S
C2624 C2623 1.383 . S
C2624 C2625 1.377 . S
C2625 H2609 0.930 . S
C2625 C2624 1.377 . S
C2625 C2626 1.379 . S
C2626 H2610 0.931 . S
C2626 C2620 1.383 . S
C2626 C2625 1.379 . S
H2627 C2621 0.959 . S
H2628 C2621 0.961 . S
H2629 C2621 0.960 . S
H2630 C2622 0.930 . S
H2631 C2623 0.929 . S
H2632 C2640 0.929 . S
H2633 C2642 0.930 . S
H2634 C2644 0.930 . S
H2635 C2647 0.929 . S
H2636 C2650 0.930 . S
H2637 C2652 0.960 . S
H2638 C2652 0.960 . S
H2639 C2652 0.960 . S
C2640 H2632 0.929 . S
C2640 C2641 1.377 . S
C2640 C2642 1.384 . S
C2641 C2640 1.377 . S
C2641 C2647 1.390 . S
C2642 H2633 0.930 . S
C2642 C2640 1.384 . S
C2642 C2643 1.372 . S
C2643 C2642 1.372 . S
C2643 C2644 1.400 . S
C2643 C2648 1.490 . S
C2644 H2634 0.930 . S
C2644 C2643 1.400 . S
C2644 C2647 1.386 . S
H2645 C2661 0.930 . S
H2646 C2662 0.931 . S
C2647 H2635 0.929 . S
C2647 C2641 1.390 . S
C2647 C2644 1.386 . S
C2648 C2643 1.490 . S
C2648 C2650 1.395 . S
C2648 C2651 1.403 . S
H2649 C2655 0.930 . S
C2650 H2636 0.930 . S
C2650 C2648 1.395 . S
C2650 C2653 1.403 . S
C2651 C2648 1.403 . S
C2651 C2652 1.524 . S
C2651 C2655 1.400 . S
C2652 H2637 0.960 . S
C2652 H2638 0.960 . S
C2652 H2639 0.960 . S
C2652 C2651 1.524 . S
C2653 C2650 1.403 . S
C2653 C2654 1.392 . S
C2653 C2657 1.495 . S
C2654 C2653 1.392 . S
C2654 C2655 1.385 . S
C2654 C2656 1.478 . S
C2655 H2649 0.930 . S
C2655 C2651 1.400 . S
C2655 C2654 1.385 . S
C2656 C2654 1.478 . S
C2656 C2658 1.381 . S
C2656 C2662 1.383 . S
C2657 C2653 1.495 . S
C2657 H2663 0.959 . S
C2657 H2664 0.961 . S
C2657 H2665 0.960 . S
C2658 C2656 1.381 . S
C2658 C2659 1.394 . S
C2658 H2666 0.930 . S
C2659 C2658 1.394 . S
C2659 C2660 1.383 . S
C2659 H2667 0.929 . S
C2660 C2659 1.383 . S
C2660 C2661 1.377 . S
C2661 H2645 0.930 . S
C2661 C2660 1.377 . S
C2661 C2662 1.379 . S
C2662 H2646 0.931 . S
C2662 C2656 1.383 . S
C2662 C2661 1.379 . S
H2663 C2657 0.959 . S
H2664 C2657 0.961 . S
H2665 C2657 0.960 . S
H2666 C2658 0.930 . S
H2667 C2659 0.929 . S
H2668 C2676 0.929 . S
H2669 C2678 0.930 . S
H2670 C2680 0.930 . S
H2671 C2683 0.929 . S
H2672 C2686 0.930 . S
H2673 C2688 0.960 . S
H2674 C2688 0.960 . S
H2675 C2688 0.960 . S
C2676 H2668 0.929 . S
C2676 C2677 1.377 . S
C2676 C2678 1.384 . S
C2677 C2676 1.377 . S
C2677 C2683 1.390 . S
C2678 H2669 0.930 . S
C2678 C2676 1.384 . S
C2678 C2679 1.372 . S
C2679 C2678 1.372 . S
C2679 C2680 1.400 . S
C2679 C2684 1.490 . S
C2680 H2670 0.930 . S
C2680 C2679 1.400 . S
C2680 C2683 1.386 . S
H2681 C2697 0.930 . S
H2682 C2698 0.931 . S
C2683 H2671 0.929 . S
C2683 C2677 1.390 . S
C2683 C2680 1.386 . S
C2684 C2679 1.490 . S
C2684 C2686 1.395 . S
C2684 C2687 1.403 . S
H2685 C2691 0.930 . S
C2686 H2672 0.930 . S
C2686 C2684 1.395 . S
C2686 C2689 1.403 . S
C2687 C2684 1.403 . S
C2687 C2688 1.524 . S
C2687 C2691 1.400 . S
C2688 H2673 0.960 . S
C2688 H2674 0.960 . S
C2688 H2675 0.960 . S
C2688 C2687 1.524 . S
C2689 C2686 1.403 . S
C2689 C2690 1.392 . S
C2689 C2693 1.495 . S
C2690 C2689 1.392 . S
C2690 C2691 1.385 . S
C2690 C2692 1.478 . S
C2691 H2685 0.930 . S
C2691 C2687 1.400 . S
C2691 C2690 1.385 . S
C2692 C2690 1.478 . S
C2692 C2694 1.381 . S
C2692 C2698 1.383 . S
C2693 C2689 1.495 . S
C2693 H2699 0.959 . S
C2693 H2700 0.961 . S
C2693 H2701 0.960 . S
C2694 C2692 1.381 . S
C2694 C2695 1.394 . S
C2694 H2702 0.930 . S
C2695 C2694 1.394 . S
C2695 C2696 1.383 . S
C2695 H2703 0.929 . S
C2696 C2695 1.383 . S
C2696 C2697 1.377 . S
C2697 H2681 0.930 . S
C2697 C2696 1.377 . S
C2697 C2698 1.379 . S
C2698 H2682 0.931 . S
C2698 C2692 1.383 . S
C2698 C2697 1.379 . S
H2699 C2693 0.959 . S
H2700 C2693 0.961 . S
H2701 C2693 0.960 . S
H2702 C2694 0.930 . S
H2703 C2695 0.929 . S
H2704 C2712 0.929 . S
H2705 C2714 0.930 . S
H2706 C2716 0.930 . S
H2707 C2719 0.929 . S
H2708 C2722 0.930 . S
H2709 C2724 0.960 . S
H2710 C2724 0.960 . S
H2711 C2724 0.960 . S
C2712 H2704 0.929 . S
C2712 C2713 1.377 . S
C2712 C2714 1.384 . S
C2713 C2712 1.377 . S
C2713 C2719 1.390 . S
C2714 H2705 0.930 . S
C2714 C2712 1.384 . S
C2714 C2715 1.372 . S
C2715 C2714 1.372 . S
C2715 C2716 1.400 . S
C2715 C2720 1.490 . S
C2716 H2706 0.930 . S
C2716 C2715 1.400 . S
C2716 C2719 1.386 . S
H2717 C2733 0.930 . S
H2718 C2734 0.931 . S
C2719 H2707 0.929 . S
C2719 C2713 1.390 . S
C2719 C2716 1.386 . S
C2720 C2715 1.490 . S
C2720 C2722 1.395 . S
C2720 C2723 1.403 . S
H2721 C2727 0.930 . S
C2722 H2708 0.930 . S
C2722 C2720 1.395 . S
C2722 C2725 1.403 . S
C2723 C2720 1.403 . S
C2723 C2724 1.524 . S
C2723 C2727 1.400 . S
C2724 H2709 0.960 . S
C2724 H2710 0.960 . S
C2724 H2711 0.960 . S
C2724 C2723 1.524 . S
C2725 C2722 1.403 . S
C2725 C2726 1.392 . S
C2725 C2729 1.495 . S
C2726 C2725 1.392 . S
C2726 C2727 1.385 . S
C2726 C2728 1.478 . S
C2727 H2721 0.930 . S
C2727 C2723 1.400 . S
C2727 C2726 1.385 . S
C2728 C2726 1.478 . S
C2728 C2730 1.381 . S
C2728 C2734 1.383 . S
C2729 C2725 1.495 . S
C2729 H2735 0.959 . S
C2729 H2736 0.961 . S
C2729 H2737 0.960 . S
C2730 C2728 1.381 . S
C2730 C2731 1.394 . S
C2730 H2738 0.930 . S
C2731 C2730 1.394 . S
C2731 C2732 1.383 . S
C2731 H2739 0.929 . S
C2732 C2731 1.383 . S
C2732 C2733 1.377 . S
C2733 H2717 0.930 . S
C2733 C2732 1.377 . S
C2733 C2734 1.379 . S
C2734 H2718 0.931 . S
C2734 C2728 1.383 . S
C2734 C2733 1.379 . S
H2735 C2729 0.959 . S
H2736 C2729 0.961 . S
H2737 C2729 0.960 . S
H2738 C2730 0.930 . S
H2739 C2731 0.929 . S
H2740 C2748 0.929 . S
H2741 C2750 0.930 . S
H2742 C2752 0.930 . S
H2743 C2755 0.929 . S
H2744 C2758 0.930 . S
H2745 C2760 0.960 . S
H2746 C2760 0.960 . S
H2747 C2760 0.960 . S
C2748 H2740 0.929 . S
C2748 C2749 1.377 . S
C2748 C2750 1.384 . S
C2749 C2748 1.377 . S
C2749 C2755 1.390 . S
C2750 H2741 0.930 . S
C2750 C2748 1.384 . S
C2750 C2751 1.372 . S
C2751 C2750 1.372 . S
C2751 C2752 1.400 . S
C2751 C2756 1.490 . S
C2752 H2742 0.930 . S
C2752 C2751 1.400 . S
C2752 C2755 1.386 . S
H2753 C2769 0.930 . S
H2754 C2770 0.931 . S
C2755 H2743 0.929 . S
C2755 C2749 1.390 . S
C2755 C2752 1.386 . S
C2756 C2751 1.490 . S
C2756 C2758 1.395 . S
C2756 C2759 1.403 . S
H2757 C2763 0.930 . S
C2758 H2744 0.930 . S
C2758 C2756 1.395 . S
C2758 C2761 1.403 . S
C2759 C2756 1.403 . S
C2759 C2760 1.524 . S
C2759 C2763 1.400 . S
C2760 H2745 0.960 . S
C2760 H2746 0.960 . S
C2760 H2747 0.960 . S
C2760 C2759 1.524 . S
C2761 C2758 1.403 . S
C2761 C2762 1.392 . S
C2761 C2765 1.495 . S
C2762 C2761 1.392 . S
C2762 C2763 1.385 . S
C2762 C2764 1.478 . S
C2763 H2757 0.930 . S
C2763 C2759 1.400 . S
C2763 C2762 1.385 . S
C2764 C2762 1.478 . S
C2764 C2766 1.381 . S
C2764 C2770 1.383 . S
C2765 C2761 1.495 . S
C2765 H2771 0.959 . S
C2765 H2772 0.961 . S
C2765 H2773 0.960 . S
C2766 C2764 1.381 . S
C2766 C2767 1.394 . S
C2766 H2774 0.930 . S
C2767 C2766 1.394 . S
C2767 C2768 1.383 . S
C2767 H2775 0.929 . S
C2768 C2767 1.383 . S
C2768 C2769 1.377 . S
C2769 H2753 0.930 . S
C2769 C2768 1.377 . S
C2769 C2770 1.379 . S
C2770 H2754 0.931 . S
C2770 C2764 1.383 . S
C2770 C2769 1.379 . S
H2771 C2765 0.959 . S
H2772 C2765 0.961 . S
H2773 C2765 0.960 . S
H2774 C2766 0.930 . S
H2775 C2767 0.929 . S
H2776 C2784 0.929 . S
H2777 C2786 0.930 . S
H2778 C2788 0.930 1_655 S
H2779 C2791 0.929 1_655 S
H2780 C2794 0.930 . S
H2781 C2796 0.960 . S
H2782 C2796 0.960 . S
H2783 C2796 0.963 1_655 S
C2784 H2776 0.929 . S
C2784 C2785 1.377 . S
C2784 C2786 1.384 . S
C2785 C2784 1.377 . S
C2785 C2791 1.390 . S
C2786 H2777 0.930 . S
C2786 C2784 1.384 . S
C2786 C2787 1.372 . S
C2787 C2786 1.372 . S
C2787 C2788 1.400 . S
C2787 C2792 1.490 . S
C2788 H2778 0.930 1_455 S
C2788 C2787 1.400 . S
C2788 C2791 1.386 . S
H2789 C2805 0.930 . S
H2790 C2806 0.931 . S
C2791 H2779 0.929 1_455 S
C2791 C2785 1.390 . S
C2791 C2788 1.386 . S
C2792 C2787 1.490 . S
C2792 C2794 1.395 . S
C2792 C2795 1.403 1_556 S
H2793 C2799 0.930 . S
C2794 H2780 0.930 . S
C2794 C2792 1.395 . S
C2794 C2797 1.403 . S
C2795 C2792 1.403 1_554 S
C2795 C2796 1.524 . S
C2795 C2799 1.400 . S
C2796 H2781 0.960 . S
C2796 H2782 0.960 . S
C2796 H2783 0.963 1_455 S
C2796 C2795 1.524 . S
C2797 C2794 1.403 . S
C2797 C2798 1.392 1_556 S
C2797 C2801 1.495 . S
C2798 C2797 1.392 1_554 S
C2798 C2799 1.385 . S
C2798 C2800 1.478 . S
C2799 H2793 0.930 . S
C2799 C2795 1.400 . S
C2799 C2798 1.385 . S
C2800 C2798 1.478 . S
C2800 C2802 1.381 . S
C2800 C2806 1.383 . S
C2801 C2797 1.495 . S
C2801 H2807 0.959 . S
C2801 H2808 0.961 . S
C2801 H2809 0.960 . S
C2802 C2800 1.381 . S
C2802 C2803 1.394 . S
C2802 H2810 0.930 . S
C2803 C2802 1.394 . S
C2803 C2804 1.383 . S
C2803 H2811 0.929 . S
C2804 C2803 1.383 . S
C2804 C2805 1.377 . S
C2805 H2789 0.930 . S
C2805 C2804 1.377 . S
C2805 C2806 1.379 . S
C2806 H2790 0.931 . S
C2806 C2800 1.383 . S
C2806 C2805 1.379 . S
H2807 C2801 0.959 . S
H2808 C2801 0.961 . S
H2809 C2801 0.960 . S
H2810 C2802 0.930 . S
H2811 C2803 0.929 . S
H2812 C2820 0.929 . S
H2813 C2822 0.930 . S
H2814 C2824 0.930 . S
H2815 C2827 0.929 . S
H2816 C2830 0.930 . S
H2817 C2832 0.960 . S
H2818 C2832 0.960 . S
H2819 C2832 0.960 . S
C2820 H2812 0.929 . S
C2820 C2821 1.377 . S
C2820 C2822 1.384 . S
C2821 C2820 1.377 . S
C2821 C2827 1.390 . S
C2822 H2813 0.930 . S
C2822 C2820 1.384 . S
C2822 C2823 1.372 . S
C2823 C2822 1.372 . S
C2823 C2824 1.400 . S
C2823 C2828 1.490 . S
C2824 H2814 0.930 . S
C2824 C2823 1.400 . S
C2824 C2827 1.386 . S
H2825 C2841 0.930 . S
H2826 C2842 0.931 . S
C2827 H2815 0.929 . S
C2827 C2821 1.390 . S
C2827 C2824 1.386 . S
C2828 C2823 1.490 . S
C2828 C2830 1.395 . S
C2828 C2831 1.403 . S
H2829 C2835 0.930 . S
C2830 H2816 0.930 . S
C2830 C2828 1.395 . S
C2830 C2833 1.403 . S
C2831 C2828 1.403 . S
C2831 C2832 1.524 . S
C2831 C2835 1.400 . S
C2832 H2817 0.960 . S
C2832 H2818 0.960 . S
C2832 H2819 0.960 . S
C2832 C2831 1.524 . S
C2833 C2830 1.403 . S
C2833 C2834 1.392 . S
C2833 C2837 1.495 . S
C2834 C2833 1.392 . S
C2834 C2835 1.385 . S
C2834 C2836 1.478 . S
C2835 H2829 0.930 . S
C2835 C2831 1.400 . S
C2835 C2834 1.385 . S
C2836 C2834 1.478 . S
C2836 C2838 1.381 . S
C2836 C2842 1.383 . S
C2837 C2833 1.495 . S
C2837 H2843 0.959 . S
C2837 H2844 0.961 . S
C2837 H2845 0.960 . S
C2838 C2836 1.381 . S
C2838 C2839 1.394 . S
C2838 H2846 0.930 . S
C2839 C2838 1.394 . S
C2839 C2840 1.383 . S
C2839 H2847 0.929 . S
C2840 C2839 1.383 . S
C2840 C2841 1.377 . S
C2841 H2825 0.930 . S
C2841 C2840 1.377 . S
C2841 C2842 1.379 . S
C2842 H2826 0.931 . S
C2842 C2836 1.383 . S
C2842 C2841 1.379 . S
H2843 C2837 0.959 . S
H2844 C2837 0.961 . S
H2845 C2837 0.960 . S
H2846 C2838 0.930 . S
H2847 C2839 0.929 . S
H2848 C2856 0.929 . S
H2849 C2858 0.930 . S
H2850 C2860 0.930 . S
H2851 C2863 0.929 . S
H2852 C2866 0.930 . S
H2853 C2868 0.960 . S
H2854 C2868 0.960 . S
H2855 C2868 0.960 . S
C2856 H2848 0.929 . S
C2856 C2857 1.377 . S
C2856 C2858 1.384 . S
C2857 C2856 1.377 . S
C2857 C2863 1.390 . S
C2858 H2849 0.930 . S
C2858 C2856 1.384 . S
C2858 C2859 1.372 . S
C2859 C2858 1.372 . S
C2859 C2860 1.400 . S
C2859 C2864 1.490 . S
C2860 H2850 0.930 . S
C2860 C2859 1.400 . S
C2860 C2863 1.386 . S
H2861 C2877 0.930 . S
H2862 C2878 0.931 . S
C2863 H2851 0.929 . S
C2863 C2857 1.390 . S
C2863 C2860 1.386 . S
C2864 C2859 1.490 . S
C2864 C2866 1.395 . S
C2864 C2867 1.403 . S
H2865 C2871 0.930 . S
C2866 H2852 0.930 . S
C2866 C2864 1.395 . S
C2866 C2869 1.403 . S
C2867 C2864 1.403 . S
C2867 C2868 1.524 . S
C2867 C2871 1.400 . S
C2868 H2853 0.960 . S
C2868 H2854 0.960 . S
C2868 H2855 0.960 . S
C2868 C2867 1.524 . S
C2869 C2866 1.403 . S
C2869 C2870 1.392 . S
C2869 C2873 1.495 . S
C2870 C2869 1.392 . S
C2870 C2871 1.385 . S
C2870 C2872 1.478 . S
C2871 H2865 0.930 . S
C2871 C2867 1.400 . S
C2871 C2870 1.385 . S
C2872 C2870 1.478 . S
C2872 C2874 1.381 . S
C2872 C2878 1.383 . S
C2873 C2869 1.495 . S
C2873 H2879 0.959 . S
C2873 H2880 0.961 . S
C2873 H2881 0.960 . S
C2874 C2872 1.381 . S
C2874 C2875 1.394 . S
C2874 H2882 0.930 . S
C2875 C2874 1.394 . S
C2875 C2876 1.383 . S
C2875 H2883 0.929 . S
C2876 C2875 1.383 . S
C2876 C2877 1.377 . S
C2877 H2861 0.930 . S
C2877 C2876 1.377 . S
C2877 C2878 1.379 . S
C2878 H2862 0.931 . S
C2878 C2872 1.383 . S
C2878 C2877 1.379 . S
H2879 C2873 0.959 . S
H2880 C2873 0.961 . S
H2881 C2873 0.960 . S
H2882 C2874 0.930 . S
H2883 C2875 0.929 . S
H2884 C2892 0.929 . S
H2885 C2894 0.930 . S
H2886 C2896 0.930 . S
H2887 C2899 0.929 . S
H2888 C2902 0.930 . S
H2889 C2904 0.960 . S
H2890 C2904 0.960 . S
H2891 C2904 0.960 . S
C2892 H2884 0.929 . S
C2892 C2893 1.377 . S
C2892 C2894 1.384 . S
C2893 C2892 1.377 . S
C2893 C2899 1.390 . S
C2894 H2885 0.930 . S
C2894 C2892 1.384 . S
C2894 C2895 1.372 . S
C2895 C2894 1.372 . S
C2895 C2896 1.400 . S
C2895 C2900 1.490 . S
C2896 H2886 0.930 . S
C2896 C2895 1.400 . S
C2896 C2899 1.386 . S
H2897 C2913 0.930 . S
H2898 C2914 0.931 . S
C2899 H2887 0.929 . S
C2899 C2893 1.390 . S
C2899 C2896 1.386 . S
C2900 C2895 1.490 . S
C2900 C2902 1.395 . S
C2900 C2903 1.403 . S
H2901 C2907 0.930 . S
C2902 H2888 0.930 . S
C2902 C2900 1.395 . S
C2902 C2905 1.403 . S
C2903 C2900 1.403 . S
C2903 C2904 1.524 . S
C2903 C2907 1.400 . S
C2904 H2889 0.960 . S
C2904 H2890 0.960 . S
C2904 H2891 0.960 . S
C2904 C2903 1.524 . S
C2905 C2902 1.403 . S
C2905 C2906 1.392 . S
C2905 C2909 1.495 . S
C2906 C2905 1.392 . S
C2906 C2907 1.385 . S
C2906 C2908 1.478 . S
C2907 H2901 0.930 . S
C2907 C2903 1.400 . S
C2907 C2906 1.385 . S
C2908 C2906 1.478 . S
C2908 C2910 1.381 . S
C2908 C2914 1.383 . S
C2909 C2905 1.495 . S
C2909 H2915 0.959 . S
C2909 H2916 0.961 . S
C2909 H2917 0.960 . S
C2910 C2908 1.381 . S
C2910 C2911 1.394 . S
C2910 H2918 0.930 . S
C2911 C2910 1.394 . S
C2911 C2912 1.383 . S
C2911 H2919 0.929 . S
C2912 C2911 1.383 . S
C2912 C2913 1.377 . S
C2913 H2897 0.930 . S
C2913 C2912 1.377 . S
C2913 C2914 1.379 . S
C2914 H2898 0.931 . S
C2914 C2908 1.383 . S
C2914 C2913 1.379 . S
H2915 C2909 0.959 . S
H2916 C2909 0.961 . S
H2917 C2909 0.960 . S
H2918 C2910 0.930 . S
H2919 C2911 0.929 . S
H2920 C2928 0.929 . S
H2921 C2930 0.930 . S
H2922 C2932 0.930 . S
H2923 C2935 0.929 . S
H2924 C2938 0.930 . S
H2925 C2940 0.960 . S
H2926 C2940 0.960 . S
H2927 C2940 0.960 . S
C2928 H2920 0.929 . S
C2928 C2929 1.377 . S
C2928 C2930 1.384 . S
C2929 C2928 1.377 . S
C2929 C2935 1.390 . S
C2930 H2921 0.930 . S
C2930 C2928 1.384 . S
C2930 C2931 1.372 . S
C2931 C2930 1.372 . S
C2931 C2932 1.400 . S
C2931 C2936 1.490 . S
C2932 H2922 0.930 . S
C2932 C2931 1.400 . S
C2932 C2935 1.386 . S
H2933 C2949 0.930 . S
H2934 C2950 0.931 . S
C2935 H2923 0.929 . S
C2935 C2929 1.390 . S
C2935 C2932 1.386 . S
C2936 C2931 1.490 . S
C2936 C2938 1.395 . S
C2936 C2939 1.403 . S
H2937 C2943 0.930 . S
C2938 H2924 0.930 . S
C2938 C2936 1.395 . S
C2938 C2941 1.403 . S
C2939 C2936 1.403 . S
C2939 C2940 1.524 . S
C2939 C2943 1.400 . S
C2940 H2925 0.960 . S
C2940 H2926 0.960 . S
C2940 H2927 0.960 . S
C2940 C2939 1.524 . S
C2941 C2938 1.403 . S
C2941 C2942 1.392 . S
C2941 C2945 1.495 . S
C2942 C2941 1.392 . S
C2942 C2943 1.385 . S
C2942 C2944 1.478 . S
C2943 H2937 0.930 . S
C2943 C2939 1.400 . S
C2943 C2942 1.385 . S
C2944 C2942 1.478 . S
C2944 C2946 1.381 . S
C2944 C2950 1.383 . S
C2945 C2941 1.495 . S
C2945 H2951 0.959 . S
C2945 H2952 0.961 . S
C2945 H2953 0.939 1_455 S
C2946 C2944 1.381 . S
C2946 C2947 1.394 . S
C2946 H2954 0.930 . S
C2947 C2946 1.394 . S
C2947 C2948 1.383 . S
C2947 H2955 0.929 . S
C2948 C2947 1.383 . S
C2948 C2949 1.377 . S
C2949 H2933 0.930 . S
C2949 C2948 1.377 . S
C2949 C2950 1.379 . S
C2950 H2934 0.931 . S
C2950 C2944 1.383 . S
C2950 C2949 1.379 . S
H2951 C2945 0.959 . S
H2952 C2945 0.961 . S
H2953 C2945 0.939 1_655 S
H2954 C2946 0.930 . S
H2955 C2947 0.929 . S
H2956 C2964 0.929 . S
H2957 C2966 0.930 . S
H2958 C2968 0.930 . S
H2959 C2971 0.929 . S
H2960 C2974 0.930 . S
H2961 C2976 0.960 . S
H2962 C2976 0.960 . S
H2963 C2976 0.960 . S
C2964 H2956 0.929 . S
C2964 C2965 1.377 . S
C2964 C2966 1.384 . S
C2965 C2964 1.377 . S
C2965 C2971 1.390 . S
C2966 H2957 0.930 . S
C2966 C2964 1.384 . S
C2966 C2967 1.372 . S
C2967 C2966 1.372 . S
C2967 C2968 1.400 . S
C2967 C2972 1.490 . S
C2968 H2958 0.930 . S
C2968 C2967 1.400 . S
C2968 C2971 1.386 . S
H2969 C2985 0.930 . S
H2970 C2986 0.931 . S
C2971 H2959 0.929 . S
C2971 C2965 1.390 . S
C2971 C2968 1.386 . S
C2972 C2967 1.490 . S
C2972 C2974 1.395 . S
C2972 C2975 1.403 . S
H2973 C2979 0.930 . S
C2974 H2960 0.930 . S
C2974 C2972 1.395 . S
C2974 C2977 1.403 . S
C2975 C2972 1.403 . S
C2975 C2976 1.524 . S
C2975 C2979 1.400 . S
C2976 H2961 0.960 . S
C2976 H2962 0.960 . S
C2976 H2963 0.960 . S
C2976 C2975 1.524 . S
C2977 C2974 1.403 . S
C2977 C2978 1.392 . S
C2977 C2981 1.495 . S
C2978 C2977 1.392 . S
C2978 C2979 1.385 . S
C2978 C2980 1.478 . S
C2979 H2973 0.930 . S
C2979 C2975 1.400 . S
C2979 C2978 1.385 . S
C2980 C2978 1.478 . S
C2980 C2982 1.381 . S
C2980 C2986 1.383 . S
C2981 C2977 1.495 . S
C2981 H2987 0.959 . S
C2981 H2988 0.961 . S
C2981 H2989 0.960 . S
C2982 C2980 1.381 . S
C2982 C2983 1.394 . S
C2982 H2990 0.930 . S
C2983 C2982 1.394 . S
C2983 C2984 1.383 . S
C2983 H2991 0.929 . S
C2984 C2983 1.383 . S
C2984 C2985 1.377 . S
C2985 H2969 0.930 . S
C2985 C2984 1.377 . S
C2985 C2986 1.379 . S
C2986 H2970 0.931 . S
C2986 C2980 1.383 . S
C2986 C2985 1.379 . S
H2987 C2981 0.959 . S
H2988 C2981 0.961 . S
H2989 C2981 0.960 . S
H2990 C2982 0.930 . S
H2991 C2983 0.929 . S
H2992 C3000 0.929 . S
H2993 C3002 0.930 . S
H2994 C3004 0.930 . S
H2995 C3007 0.929 . S
H2996 C3010 0.930 . S
H2997 C3012 0.960 . S
H2998 C3012 0.960 . S
H2999 C3012 0.960 . S
C3000 H2992 0.929 . S
C3000 C3001 1.377 . S
C3000 C3002 1.384 . S
C3001 C3000 1.377 . S
C3001 C3007 1.390 . S
C3002 H2993 0.930 . S
C3002 C3000 1.384 . S
C3002 C3003 1.372 . S
C3003 C3002 1.372 . S
C3003 C3004 1.400 . S
C3003 C3008 1.490 . S
C3004 H2994 0.930 . S
C3004 C3003 1.400 . S
C3004 C3007 1.386 . S
H3005 C3021 0.930 . S
H3006 C3022 0.931 . S
C3007 H2995 0.929 . S
C3007 C3001 1.390 . S
C3007 C3004 1.386 . S
C3008 C3003 1.490 . S
C3008 C3010 1.395 . S
C3008 C3011 1.403 . S
H3009 C3015 0.930 . S
C3010 H2996 0.930 . S
C3010 C3008 1.395 . S
C3010 C3013 1.403 . S
C3011 C3008 1.403 . S
C3011 C3012 1.524 . S
C3011 C3015 1.400 . S
C3012 H2997 0.960 . S
C3012 H2998 0.960 . S
C3012 H2999 0.960 . S
C3012 C3011 1.524 . S
C3013 C3010 1.403 . S
C3013 C3014 1.392 . S
C3013 C3017 1.495 . S
C3014 C3013 1.392 . S
C3014 C3015 1.385 . S
C3014 C3016 1.478 . S
C3015 H3009 0.930 . S
C3015 C3011 1.400 . S
C3015 C3014 1.385 . S
C3016 C3014 1.478 . S
C3016 C3018 1.381 . S
C3016 C3022 1.383 . S
C3017 C3013 1.495 . S
C3017 H3023 0.959 . S
C3017 H3024 0.961 . S
C3017 H3025 0.960 . S
C3018 C3016 1.381 . S
C3018 C3019 1.394 . S
C3018 H3026 0.930 . S
C3019 C3018 1.394 . S
C3019 C3020 1.383 . S
C3019 H3027 0.929 . S
C3020 C3019 1.383 . S
C3020 C3021 1.377 . S
C3021 H3005 0.930 . S
C3021 C3020 1.377 . S
C3021 C3022 1.379 . S
C3022 H3006 0.931 . S
C3022 C3016 1.383 . S
C3022 C3021 1.379 . S
H3023 C3017 0.959 . S
H3024 C3017 0.961 . S
H3025 C3017 0.960 . S
H3026 C3018 0.930 . S
H3027 C3019 0.929 . S
H3028 C3036 0.929 . S
H3029 C3038 0.930 . S
H3030 C3040 0.930 . S
H3031 C3043 0.929 . S
H3032 C3046 0.930 . S
H3033 C3048 0.960 . S
H3034 C3048 0.960 . S
H3035 C3048 0.960 . S
C3036 H3028 0.929 . S
C3036 C3037 1.377 . S
C3036 C3038 1.384 1_554 S
C3037 C3036 1.377 . S
C3037 C3043 1.390 . S
C3038 H3029 0.930 . S
C3038 C3036 1.384 1_556 S
C3038 C3039 1.372 . S
C3039 C3038 1.372 . S
C3039 C3040 1.400 . S
C3039 C3044 1.490 . S
C3040 H3030 0.930 . S
C3040 C3039 1.400 . S
C3040 C3043 1.386 1_556 S
H3041 C3057 0.930 . S
H3042 C3058 0.931 . S
C3043 H3031 0.929 . S
C3043 C3037 1.390 . S
C3043 C3040 1.386 1_554 S
C3044 C3039 1.490 . S
C3044 C3046 1.395 . S
C3044 C3047 1.403 . S
H3045 C3051 0.930 . S
C3046 H3032 0.930 . S
C3046 C3044 1.395 . S
C3046 C3049 1.403 . S
C3047 C3044 1.403 . S
C3047 C3048 1.524 . S
C3047 C3051 1.400 . S
C3048 H3033 0.960 . S
C3048 H3034 0.960 . S
C3048 H3035 0.960 . S
C3048 C3047 1.524 . S
C3049 C3046 1.403 . S
C3049 C3050 1.392 . S
C3049 C3053 1.495 . S
C3050 C3049 1.392 . S
C3050 C3051 1.385 . S
C3050 C3052 1.478 . S
C3051 H3045 0.930 . S
C3051 C3047 1.400 . S
C3051 C3050 1.385 . S
C3052 C3050 1.478 . S
C3052 C3054 1.381 . S
C3052 C3058 1.383 . S
C3053 C3049 1.495 . S
C3053 H3059 0.959 . S
C3053 H3060 0.961 . S
C3053 H3061 0.960 . S
C3054 C3052 1.381 . S
C3054 C3055 1.394 . S
C3054 H3062 0.930 . S
C3055 C3054 1.394 . S
C3055 C3056 1.383 . S
C3055 H3063 0.929 . S
C3056 C3055 1.383 . S
C3056 C3057 1.377 . S
C3057 H3041 0.930 . S
C3057 C3056 1.377 . S
C3057 C3058 1.379 . S
C3058 H3042 0.931 . S
C3058 C3052 1.383 . S
C3058 C3057 1.379 . S
H3059 C3053 0.959 . S
H3060 C3053 0.961 . S
H3061 C3053 0.960 . S
H3062 C3054 0.930 . S
H3063 C3055 0.929 . S
H3064 C3072 0.929 . S
H3065 C3074 0.930 . S
H3066 C3076 0.930 . S
H3067 C3079 0.929 . S
H3068 C3082 0.930 . S
H3069 C3084 0.960 . S
H3070 C3084 0.960 . S
H3071 C3084 0.960 . S
C3072 H3064 0.929 . S
C3072 C3073 1.377 . S
C3072 C3074 1.384 . S
C3073 C3072 1.377 . S
C3073 C3079 1.390 . S
C3074 H3065 0.930 . S
C3074 C3072 1.384 . S
C3074 C3075 1.372 . S
C3075 C3074 1.372 . S
C3075 C3076 1.400 . S
C3075 C3080 1.490 . S
C3076 H3066 0.930 . S
C3076 C3075 1.400 . S
C3076 C3079 1.386 . S
H3077 C3093 0.930 . S
H3078 C3094 0.931 . S
C3079 H3067 0.929 . S
C3079 C3073 1.390 . S
C3079 C3076 1.386 . S
C3080 C3075 1.490 . S
C3080 C3082 1.395 . S
C3080 C3083 1.403 . S
H3081 C3087 0.930 . S
C3082 H3068 0.930 . S
C3082 C3080 1.395 . S
C3082 C3085 1.403 . S
C3083 C3080 1.403 . S
C3083 C3084 1.524 . S
C3083 C3087 1.400 . S
C3084 H3069 0.960 . S
C3084 H3070 0.960 . S
C3084 H3071 0.960 . S
C3084 C3083 1.524 . S
C3085 C3082 1.403 . S
C3085 C3086 1.392 . S
C3085 C3089 1.495 . S
C3086 C3085 1.392 . S
C3086 C3087 1.385 . S
C3086 C3088 1.478 . S
C3087 H3081 0.930 . S
C3087 C3083 1.400 . S
C3087 C3086 1.385 . S
C3088 C3086 1.478 . S
C3088 C3090 1.381 . S
C3088 C3094 1.383 . S
C3089 C3085 1.495 . S
C3089 H3095 0.959 . S
C3089 H3096 0.961 . S
C3089 H3097 0.960 . S
C3090 C3088 1.381 . S
C3090 C3091 1.394 . S
C3090 H3098 0.930 . S
C3091 C3090 1.394 . S
C3091 C3092 1.383 . S
C3091 H3099 0.929 . S
C3092 C3091 1.383 . S
C3092 C3093 1.377 . S
C3093 H3077 0.930 . S
C3093 C3092 1.377 . S
C3093 C3094 1.379 . S
C3094 H3078 0.931 . S
C3094 C3088 1.383 . S
C3094 C3093 1.379 . S
H3095 C3089 0.959 . S
H3096 C3089 0.961 . S
H3097 C3089 0.960 . S
H3098 C3090 0.930 . S
H3099 C3091 0.929 . S
H3100 C3108 0.929 . S
H3101 C3110 0.930 . S
H3102 C3112 0.930 . S
H3103 C3115 0.929 . S
H3104 C3118 0.930 . S
H3105 C3120 0.960 . S
H3106 C3120 0.960 . S
H3107 C3120 0.960 . S
C3108 H3100 0.929 . S
C3108 C3109 1.377 . S
C3108 C3110 1.384 . S
C3109 C3108 1.377 . S
C3109 C3115 1.390 . S
C3110 H3101 0.930 . S
C3110 C3108 1.384 . S
C3110 C3111 1.372 . S
C3111 C3110 1.372 . S
C3111 C3112 1.400 . S
C3111 C3116 1.490 . S
C3112 H3102 0.930 . S
C3112 C3111 1.400 . S
C3112 C3115 1.386 . S
H3113 C3129 0.930 . S
H3114 C3130 0.931 . S
C3115 H3103 0.929 . S
C3115 C3109 1.390 . S
C3115 C3112 1.386 . S
C3116 C3111 1.490 . S
C3116 C3118 1.395 . S
C3116 C3119 1.403 . S
H3117 C3123 0.930 . S
C3118 H3104 0.930 . S
C3118 C3116 1.395 . S
C3118 C3121 1.403 . S
C3119 C3116 1.403 . S
C3119 C3120 1.524 . S
C3119 C3123 1.400 . S
C3120 H3105 0.960 . S
C3120 H3106 0.960 . S
C3120 H3107 0.960 . S
C3120 C3119 1.524 . S
C3121 C3118 1.403 . S
C3121 C3122 1.392 . S
C3121 C3125 1.495 . S
C3122 C3121 1.392 . S
C3122 C3123 1.385 . S
C3122 C3124 1.478 . S
C3123 H3117 0.930 . S
C3123 C3119 1.400 . S
C3123 C3122 1.385 . S
C3124 C3122 1.478 . S
C3124 C3126 1.381 . S
C3124 C3130 1.383 . S
C3125 C3121 1.495 . S
C3125 H3131 0.959 . S
C3125 H3132 0.961 . S
C3125 H3133 0.960 . S
C3126 C3124 1.381 . S
C3126 C3127 1.394 . S
C3126 H3134 0.930 . S
C3127 C3126 1.394 . S
C3127 C3128 1.383 . S
C3127 H3135 0.929 . S
C3128 C3127 1.383 . S
C3128 C3129 1.377 . S
C3129 H3113 0.930 . S
C3129 C3128 1.377 . S
C3129 C3130 1.379 . S
C3130 H3114 0.931 . S
C3130 C3124 1.383 . S
C3130 C3129 1.379 . S
H3131 C3125 0.959 . S
H3132 C3125 0.961 . S
H3133 C3125 0.960 . S
H3134 C3126 0.930 . S
H3135 C3127 0.929 . S
H3136 C3144 0.929 . S
H3137 C3146 0.930 . S
H3138 C3148 0.930 . S
H3139 C3151 0.929 . S
H3140 C3154 0.930 . S
H3141 C3156 0.960 . S
H3142 C3156 0.960 . S
H3143 C3156 0.960 . S
C3144 H3136 0.929 . S
C3144 C3145 1.377 . S
C3144 C3146 1.384 . S
C3145 C3144 1.377 . S
C3145 C3151 1.390 . S
C3146 H3137 0.930 . S
C3146 C3144 1.384 . S
C3146 C3147 1.372 . S
C3147 C3146 1.372 . S
C3147 C3148 1.400 . S
C3147 C3152 1.490 . S
C3148 H3138 0.930 . S
C3148 C3147 1.400 . S
C3148 C3151 1.386 . S
H3149 C3165 0.930 . S
H3150 C3166 0.931 . S
C3151 H3139 0.929 . S
C3151 C3145 1.390 . S
C3151 C3148 1.386 . S
C3152 C3147 1.490 . S
C3152 C3154 1.395 . S
C3152 C3155 1.403 . S
H3153 C3159 0.930 . S
C3154 H3140 0.930 . S
C3154 C3152 1.395 . S
C3154 C3157 1.403 . S
C3155 C3152 1.403 . S
C3155 C3156 1.524 . S
C3155 C3159 1.400 . S
C3156 H3141 0.960 . S
C3156 H3142 0.960 . S
C3156 H3143 0.960 . S
C3156 C3155 1.524 . S
C3157 C3154 1.403 . S
C3157 C3158 1.392 . S
C3157 C3161 1.495 . S
C3158 C3157 1.392 . S
C3158 C3159 1.385 . S
C3158 C3160 1.478 . S
C3159 H3153 0.930 . S
C3159 C3155 1.400 . S
C3159 C3158 1.385 . S
C3160 C3158 1.478 . S
C3160 C3162 1.381 . S
C3160 C3166 1.383 . S
C3161 C3157 1.495 . S
C3161 H3167 0.959 . S
C3161 H3168 0.961 . S
C3161 H3169 0.960 . S
C3162 C3160 1.381 . S
C3162 C3163 1.394 . S
C3162 H3170 0.930 . S
C3163 C3162 1.394 . S
C3163 C3164 1.383 . S
C3163 H3171 0.929 . S
C3164 C3163 1.383 . S
C3164 C3165 1.377 . S
C3165 H3149 0.930 . S
C3165 C3164 1.377 . S
C3165 C3166 1.379 . S
C3166 H3150 0.931 . S
C3166 C3160 1.383 . S
C3166 C3165 1.379 . S
H3167 C3161 0.959 . S
H3168 C3161 0.961 . S
H3169 C3161 0.960 . S
H3170 C3162 0.930 . S
H3171 C3163 0.929 . S
H3172 C3180 0.929 . S
H3173 C3182 0.930 . S
H3174 C3184 0.930 . S
H3175 C3187 0.929 . S
H3176 C3190 0.930 . S
H3177 C3192 0.960 . S
H3178 C3192 0.960 . S
H3179 C3192 0.960 . S
C3180 H3172 0.929 . S
C3180 C3181 1.377 . S
C3180 C3182 1.384 . S
C3181 C3180 1.377 . S
C3181 C3187 1.390 . S
C3182 H3173 0.930 . S
C3182 C3180 1.384 . S
C3182 C3183 1.372 . S
C3183 C3182 1.372 . S
C3183 C3184 1.400 . S
C3183 C3188 1.490 . S
C3184 H3174 0.930 . S
C3184 C3183 1.400 . S
C3184 C3187 1.386 . S
H3185 C3201 0.930 . S
H3186 C3202 0.931 . S
C3187 H3175 0.929 . S
C3187 C3181 1.390 . S
C3187 C3184 1.386 . S
C3188 C3183 1.490 . S
C3188 C3190 1.395 . S
C3188 C3191 1.403 . S
H3189 C3195 0.930 . S
C3190 H3176 0.930 . S
C3190 C3188 1.395 . S
C3190 C3193 1.403 . S
C3191 C3188 1.403 . S
C3191 C3192 1.524 . S
C3191 C3195 1.400 . S
C3192 H3177 0.960 . S
C3192 H3178 0.960 . S
C3192 H3179 0.960 . S
C3192 C3191 1.524 . S
C3193 C3190 1.403 . S
C3193 C3194 1.392 . S
C3193 C3197 1.495 . S
C3194 C3193 1.392 . S
C3194 C3195 1.385 . S
C3194 C3196 1.478 . S
C3195 H3189 0.930 . S
C3195 C3191 1.400 . S
C3195 C3194 1.385 . S
C3196 C3194 1.478 . S
C3196 C3198 1.381 . S
C3196 C3202 1.383 . S
C3197 C3193 1.495 . S
C3197 H3203 0.959 . S
C3197 H3204 0.961 . S
C3197 H3205 0.960 . S
C3198 C3196 1.381 . S
C3198 C3199 1.394 . S
C3198 H3206 0.930 . S
C3199 C3198 1.394 . S
C3199 C3200 1.383 . S
C3199 H3207 0.929 . S
C3200 C3199 1.383 . S
C3200 C3201 1.377 . S
C3201 H3185 0.930 . S
C3201 C3200 1.377 . S
C3201 C3202 1.379 . S
C3202 H3186 0.931 . S
C3202 C3196 1.383 . S
C3202 C3201 1.379 . S
H3203 C3197 0.959 . S
H3204 C3197 0.961 . S
H3205 C3197 0.960 . S
H3206 C3198 0.930 . S
H3207 C3199 0.929 . S
H3208 C3216 0.929 . S
H3209 C3218 0.930 . S
H3210 C3220 0.930 . S
H3211 C3223 0.929 . S
H3212 C3226 0.930 . S
H3213 C3228 0.960 . S
H3214 C3228 0.960 . S
H3215 C3228 0.960 . S
C3216 H3208 0.929 . S
C3216 C3217 1.377 . S
C3216 C3218 1.384 . S
C3217 C3216 1.377 . S
C3217 C3223 1.390 . S
C3218 H3209 0.930 . S
C3218 C3216 1.384 . S
C3218 C3219 1.372 . S
C3219 C3218 1.372 . S
C3219 C3220 1.400 . S
C3219 C3224 1.490 . S
C3220 H3210 0.930 . S
C3220 C3219 1.400 . S
C3220 C3223 1.386 . S
H3221 C3237 0.930 . S
H3222 C3238 0.931 . S
C3223 H3211 0.929 . S
C3223 C3217 1.390 . S
C3223 C3220 1.386 . S
C3224 C3219 1.490 . S
C3224 C3226 1.395 . S
C3224 C3227 1.403 . S
H3225 C3231 0.930 . S
C3226 H3212 0.930 . S
C3226 C3224 1.395 . S
C3226 C3229 1.403 . S
C3227 C3224 1.403 . S
C3227 C3228 1.524 . S
C3227 C3231 1.400 . S
C3228 H3213 0.960 . S
C3228 H3214 0.960 . S
C3228 H3215 0.960 . S
C3228 C3227 1.524 . S
C3229 C3226 1.403 . S
C3229 C3230 1.392 . S
C3229 C3233 1.495 . S
C3230 C3229 1.392 . S
C3230 C3231 1.385 . S
C3230 C3232 1.478 . S
C3231 H3225 0.930 . S
C3231 C3227 1.400 . S
C3231 C3230 1.385 . S
C3232 C3230 1.478 . S
C3232 C3234 1.381 . S
C3232 C3238 1.383 . S
C3233 C3229 1.495 . S
C3233 H3239 0.959 . S
C3233 H3240 0.961 . S
C3233 H3241 0.960 . S
C3234 C3232 1.381 . S
C3234 C3235 1.394 . S
C3234 H3242 0.930 . S
C3235 C3234 1.394 . S
C3235 C3236 1.383 . S
C3235 H3243 0.929 . S
C3236 C3235 1.383 . S
C3236 C3237 1.377 . S
C3237 H3221 0.930 . S
C3237 C3236 1.377 . S
C3237 C3238 1.379 . S
C3238 H3222 0.931 . S
C3238 C3232 1.383 . S
C3238 C3237 1.379 . S
H3239 C3233 0.959 . S
H3240 C3233 0.961 . S
H3241 C3233 0.960 . S
H3242 C3234 0.930 . S
H3243 C3235 0.929 . S
H3244 C3252 0.929 . S
H3245 C3254 0.930 . S
H3246 C3256 0.930 . S
H3247 C3259 0.929 . S
H3248 C3262 0.930 . S
H3249 C3264 0.960 . S
H3250 C3264 0.960 . S
H3251 C3264 0.960 . S
C3252 H3244 0.929 . S
C3252 C3253 1.377 . S
C3252 C3254 1.384 . S
C3253 C3252 1.377 . S
C3253 C3259 1.390 . S
C3254 H3245 0.930 . S
C3254 C3252 1.384 . S
C3254 C3255 1.372 . S
C3255 C3254 1.372 . S
C3255 C3256 1.400 . S
C3255 C3260 1.490 . S
C3256 H3246 0.930 . S
C3256 C3255 1.400 . S
C3256 C3259 1.386 . S
H3257 C3273 0.930 . S
H3258 C3274 0.931 . S
C3259 H3247 0.929 . S
C3259 C3253 1.390 . S
C3259 C3256 1.386 . S
C3260 C3255 1.490 . S
C3260 C3262 1.395 . S
C3260 C3263 1.403 . S
H3261 C3267 0.930 . S
C3262 H3248 0.930 . S
C3262 C3260 1.395 . S
C3262 C3265 1.403 . S
C3263 C3260 1.403 . S
C3263 C3264 1.524 . S
C3263 C3267 1.400 . S
C3264 H3249 0.960 . S
C3264 H3250 0.960 . S
C3264 H3251 0.960 . S
C3264 C3263 1.524 . S
C3265 C3262 1.403 . S
C3265 C3266 1.392 . S
C3265 C3269 1.495 . S
C3266 C3265 1.392 . S
C3266 C3267 1.385 . S
C3266 C3268 1.478 . S
C3267 H3261 0.930 . S
C3267 C3263 1.400 . S
C3267 C3266 1.385 . S
C3268 C3266 1.478 . S
C3268 C3270 1.381 . S
C3268 C3274 1.383 . S
C3269 C3265 1.495 . S
C3269 H3275 0.959 . S
C3269 H3276 0.961 . S
C3269 H3277 0.960 . S
C3270 C3268 1.381 . S
C3270 C3271 1.394 . S
C3270 H3278 0.930 . S
C3271 C3270 1.394 . S
C3271 C3272 1.383 . S
C3271 H3279 0.929 . S
C3272 C3271 1.383 . S
C3272 C3273 1.377 . S
C3273 H3257 0.930 . S
C3273 C3272 1.377 . S
C3273 C3274 1.379 . S
C3274 H3258 0.931 . S
C3274 C3268 1.383 . S
C3274 C3273 1.379 . S
H3275 C3269 0.959 . S
H3276 C3269 0.961 . S
H3277 C3269 0.960 . S
H3278 C3270 0.930 . S
H3279 C3271 0.929 . S
H3280 C3288 0.929 . S
H3281 C3290 0.930 . S
H3282 C3292 0.930 . S
H3283 C3295 0.929 . S
H3284 C3298 0.930 . S
H3285 C3300 0.960 . S
H3286 C3300 0.960 . S
H3287 C3300 0.960 . S
C3288 H3280 0.929 . S
C3288 C3289 1.377 . S
C3288 C3290 1.384 . S
C3289 C3288 1.377 . S
C3289 C3295 1.390 . S
C3290 H3281 0.930 . S
C3290 C3288 1.384 . S
C3290 C3291 1.372 . S
C3291 C3290 1.372 . S
C3291 C3292 1.400 . S
C3291 C3296 1.490 . S
C3292 H3282 0.930 . S
C3292 C3291 1.400 . S
C3292 C3295 1.386 . S
H3293 C3309 0.930 . S
H3294 C3310 0.931 . S
C3295 H3283 0.929 . S
C3295 C3289 1.390 . S
C3295 C3292 1.386 . S
C3296 C3291 1.490 . S
C3296 C3298 1.395 . S
C3296 C3299 1.403 . S
H3297 C3303 0.930 . S
C3298 H3284 0.930 . S
C3298 C3296 1.395 . S
C3298 C3301 1.403 . S
C3299 C3296 1.403 . S
C3299 C3300 1.524 . S
C3299 C3303 1.400 . S
C3300 H3285 0.960 . S
C3300 H3286 0.960 . S
C3300 H3287 0.960 . S
C3300 C3299 1.524 . S
C3301 C3298 1.403 . S
C3301 C3302 1.392 . S
C3301 C3305 1.495 . S
C3302 C3301 1.392 . S
C3302 C3303 1.385 . S
C3302 C3304 1.478 . S
C3303 H3297 0.930 . S
C3303 C3299 1.400 . S
C3303 C3302 1.385 . S
C3304 C3302 1.478 . S
C3304 C3306 1.381 . S
C3304 C3310 1.383 . S
C3305 C3301 1.495 . S
C3305 H3311 0.959 . S
C3305 H3312 0.961 . S
C3305 H3313 0.960 . S
C3306 C3304 1.381 . S
C3306 C3307 1.394 . S
C3306 H3314 0.930 . S
C3307 C3306 1.394 . S
C3307 C3308 1.383 . S
C3307 H3315 0.929 . S
C3308 C3307 1.383 . S
C3308 C3309 1.377 . S
C3309 H3293 0.930 . S
C3309 C3308 1.377 . S
C3309 C3310 1.379 . S
C3310 H3294 0.931 . S
C3310 C3304 1.383 . S
C3310 C3309 1.379 . S
H3311 C3305 0.959 . S
H3312 C3305 0.961 . S
H3313 C3305 0.960 . S
H3314 C3306 0.930 . S
H3315 C3307 0.929 . S
H3316 C3324 0.929 . S
H3317 C3326 0.930 . S
H3318 C3328 0.930 . S
H3319 C3331 0.929 . S
H3320 C3334 0.930 . S
H3321 C3336 0.960 . S
H3322 C3336 0.960 . S
H3323 C3336 0.960 . S
C3324 H3316 0.929 . S
C3324 C3325 1.377 . S
C3324 C3326 1.384 . S
C3325 C3324 1.377 . S
C3325 C3331 1.390 . S
C3326 H3317 0.930 . S
C3326 C3324 1.384 . S
C3326 C3327 1.372 . S
C3327 C3326 1.372 . S
C3327 C3328 1.400 . S
C3327 C3332 1.490 . S
C3328 H3318 0.930 . S
C3328 C3327 1.400 . S
C3328 C3331 1.386 . S
H3329 C3345 0.930 . S
H3330 C3346 0.931 . S
C3331 H3319 0.929 . S
C3331 C3325 1.390 . S
C3331 C3328 1.386 . S
C3332 C3327 1.490 . S
C3332 C3334 1.395 . S
C3332 C3335 1.403 . S
H3333 C3339 0.930 . S
C3334 H3320 0.930 . S
C3334 C3332 1.395 . S
C3334 C3337 1.403 . S
C3335 C3332 1.403 . S
C3335 C3336 1.524 . S
C3335 C3339 1.400 . S
C3336 H3321 0.960 . S
C3336 H3322 0.960 . S
C3336 H3323 0.960 . S
C3336 C3335 1.524 . S
C3337 C3334 1.403 . S
C3337 C3338 1.392 . S
C3337 C3341 1.495 . S
C3338 C3337 1.392 . S
C3338 C3339 1.385 . S
C3338 C3340 1.478 . S
C3339 H3333 0.930 . S
C3339 C3335 1.400 . S
C3339 C3338 1.385 . S
C3340 C3338 1.478 . S
C3340 C3342 1.381 . S
C3340 C3346 1.383 . S
C3341 C3337 1.495 . S
C3341 H3347 0.959 . S
C3341 H3348 0.961 . S
C3341 H3349 0.960 . S
C3342 C3340 1.381 . S
C3342 C3343 1.394 . S
C3342 H3350 0.930 . S
C3343 C3342 1.394 . S
C3343 C3344 1.383 . S
C3343 H3351 0.929 . S
C3344 C3343 1.383 . S
C3344 C3345 1.377 . S
C3345 H3329 0.930 . S
C3345 C3344 1.377 . S
C3345 C3346 1.379 . S
C3346 H3330 0.931 . S
C3346 C3340 1.383 . S
C3346 C3345 1.379 . S
H3347 C3341 0.959 . S
H3348 C3341 0.961 . S
H3349 C3341 0.960 . S
H3350 C3342 0.930 . S
H3351 C3343 0.929 . S
H3352 C3360 0.929 . S
H3353 C3362 0.930 . S
H3354 C3364 0.930 . S
H3355 C3367 0.929 . S
H3356 C3370 0.930 . S
H3357 C3372 0.960 . S
H3358 C3372 0.960 . S
H3359 C3372 0.960 . S
C3360 H3352 0.929 . S
C3360 C3361 1.377 . S
C3360 C3362 1.384 . S
C3361 C3360 1.377 . S
C3361 C3367 1.390 . S
C3362 H3353 0.930 . S
C3362 C3360 1.384 . S
C3362 C3363 1.372 . S
C3363 C3362 1.372 . S
C3363 C3364 1.400 . S
C3363 C3368 1.490 . S
C3364 H3354 0.930 . S
C3364 C3363 1.400 . S
C3364 C3367 1.386 . S
H3365 C3381 0.930 . S
H3366 C3382 0.931 . S
C3367 H3355 0.929 . S
C3367 C3361 1.390 . S
C3367 C3364 1.386 . S
C3368 C3363 1.490 . S
C3368 C3370 1.395 . S
C3368 C3371 1.403 . S
H3369 C3375 0.930 . S
C3370 H3356 0.930 . S
C3370 C3368 1.395 . S
C3370 C3373 1.403 . S
C3371 C3368 1.403 . S
C3371 C3372 1.524 . S
C3371 C3375 1.400 . S
C3372 H3357 0.960 . S
C3372 H3358 0.960 . S
C3372 H3359 0.960 . S
C3372 C3371 1.524 . S
C3373 C3370 1.403 . S
C3373 C3374 1.392 . S
C3373 C3377 1.495 . S
C3374 C3373 1.392 . S
C3374 C3375 1.385 . S
C3374 C3376 1.478 . S
C3375 H3369 0.930 . S
C3375 C3371 1.400 . S
C3375 C3374 1.385 . S
C3376 C3374 1.478 . S
C3376 C3378 1.381 . S
C3376 C3382 1.383 . S
C3377 C3373 1.495 . S
C3377 H3383 0.959 . S
C3377 H3384 0.961 . S
C3377 H3385 0.960 . S
C3378 C3376 1.381 . S
C3378 C3379 1.394 . S
C3378 H3386 0.930 . S
C3379 C3378 1.394 . S
C3379 C3380 1.383 . S
C3379 H3387 0.929 . S
C3380 C3379 1.383 . S
C3380 C3381 1.377 . S
C3381 H3365 0.930 . S
C3381 C3380 1.377 . S
C3381 C3382 1.379 . S
C3382 H3366 0.931 . S
C3382 C3376 1.383 . S
C3382 C3381 1.379 . S
H3383 C3377 0.959 . S
H3384 C3377 0.961 . S
H3385 C3377 0.960 . S
H3386 C3378 0.930 . S
H3387 C3379 0.929 . S
H3388 C3396 0.929 . S
H3389 C3398 0.930 . S
H3390 C3400 0.930 1_556 S
H3391 C3403 0.929 . S
H3392 C3406 0.930 . S
H3393 C3408 0.960 . S
H3394 C3408 0.960 . S
H3395 C3408 0.960 . S
C3396 H3388 0.929 . S
C3396 C3397 1.377 . S
C3396 C3398 1.384 . S
C3397 C3396 1.377 . S
C3397 C3403 1.390 1_554 S
C3398 H3389 0.930 . S
C3398 C3396 1.384 . S
C3398 C3399 1.372 . S
C3399 C3398 1.372 . S
C3399 C3400 1.400 . S
C3399 C3404 1.490 . S
C3400 H3390 0.930 1_554 S
C3400 C3399 1.400 . S
C3400 C3403 1.386 1_554 S
H3401 C3417 0.930 . S
H3402 C3418 0.931 . S
C3403 H3391 0.929 . S
C3403 C3397 1.390 1_556 S
C3403 C3400 1.386 1_556 S
C3404 C3399 1.490 . S
C3404 C3406 1.395 . S
C3404 C3407 1.403 . S
H3405 C3411 0.930 . S
C3406 H3392 0.930 . S
C3406 C3404 1.395 . S
C3406 C3409 1.403 . S
C3407 C3404 1.403 . S
C3407 C3408 1.524 1_554 S
C3407 C3411 1.400 . S
C3408 H3393 0.960 . S
C3408 H3394 0.960 . S
C3408 H3395 0.960 . S
C3408 C3407 1.524 1_556 S
C3409 C3406 1.403 . S
C3409 C3410 1.392 . S
C3409 C3413 1.495 . S
C3410 C3409 1.392 . S
C3410 C3411 1.385 . S
C3410 C3412 1.478 . S
C3411 H3405 0.930 . S
C3411 C3407 1.400 . S
C3411 C3410 1.385 . S
C3412 C3410 1.478 . S
C3412 C3414 1.381 . S
C3412 C3418 1.383 . S
C3413 C3409 1.495 . S
C3413 H3419 0.959 . S
C3413 H3420 0.961 . S
C3413 H3421 0.960 . S
C3414 C3412 1.381 . S
C3414 C3415 1.394 . S
C3414 H3422 0.930 . S
C3415 C3414 1.394 . S
C3415 C3416 1.383 . S
C3415 H3423 0.929 . S
C3416 C3415 1.383 . S
C3416 C3417 1.377 . S
C3417 H3401 0.930 . S
C3417 C3416 1.377 . S
C3417 C3418 1.379 . S
C3418 H3402 0.931 . S
C3418 C3412 1.383 . S
C3418 C3417 1.379 . S
H3419 C3413 0.959 . S
H3420 C3413 0.961 . S
H3421 C3413 0.960 . S
H3422 C3414 0.930 . S
H3423 C3415 0.929 . S
H3424 C3432 0.929 . S
H3425 C3434 0.930 . S
H3426 C3436 0.930 . S
H3427 C3439 0.929 . S
H3428 C3442 0.930 . S
H3429 C3444 0.960 . S
H3430 C3444 0.960 . S
H3431 C3444 0.960 . S
C3432 H3424 0.929 . S
C3432 C3433 1.377 . S
C3432 C3434 1.384 . S
C3433 C3432 1.377 . S
C3433 C3439 1.390 . S
C3434 H3425 0.930 . S
C3434 C3432 1.384 . S
C3434 C3435 1.372 . S
C3435 C3434 1.372 . S
C3435 C3436 1.400 . S
C3435 C3440 1.490 . S
C3436 H3426 0.930 . S
C3436 C3435 1.400 . S
C3436 C3439 1.386 . S
H3437 C3453 0.930 . S
H3438 C3454 0.931 . S
C3439 H3427 0.929 . S
C3439 C3433 1.390 . S
C3439 C3436 1.386 . S
C3440 C3435 1.490 . S
C3440 C3442 1.395 . S
C3440 C3443 1.403 . S
H3441 C3447 0.930 . S
C3442 H3428 0.930 . S
C3442 C3440 1.395 . S
C3442 C3445 1.403 . S
C3443 C3440 1.403 . S
C3443 C3444 1.524 . S
C3443 C3447 1.400 . S
C3444 H3429 0.960 . S
C3444 H3430 0.960 . S
C3444 H3431 0.960 . S
C3444 C3443 1.524 . S
C3445 C3442 1.403 . S
C3445 C3446 1.392 . S
C3445 C3449 1.495 . S
C3446 C3445 1.392 . S
C3446 C3447 1.385 . S
C3446 C3448 1.478 . S
C3447 H3441 0.930 . S
C3447 C3443 1.400 . S
C3447 C3446 1.385 . S
C3448 C3446 1.478 . S
C3448 C3450 1.381 . S
C3448 C3454 1.383 . S
C3449 C3445 1.495 . S
C3449 H3455 0.959 . S
C3449 H3456 0.961 . S
C3449 H3457 0.960 . S
C3450 C3448 1.381 . S
C3450 C3451 1.394 . S
C3450 H3458 0.930 . S
C3451 C3450 1.394 . S
C3451 C3452 1.383 . S
C3451 H3459 0.929 . S
C3452 C3451 1.383 . S
C3452 C3453 1.377 . S
C3453 H3437 0.930 . S
C3453 C3452 1.377 . S
C3453 C3454 1.379 . S
C3454 H3438 0.931 . S
C3454 C3448 1.383 . S
C3454 C3453 1.379 . S
H3455 C3449 0.959 . S
H3456 C3449 0.961 . S
H3457 C3449 0.960 . S
H3458 C3450 0.930 . S
H3459 C3451 0.929 . S
H3460 C3468 0.929 . S
H3461 C3470 0.930 . S
H3462 C3472 0.930 . S
H3463 C3475 0.929 . S
H3464 C3478 0.930 . S
H3465 C3480 0.960 . S
H3466 C3480 0.960 . S
H3467 C3480 0.960 . S
C3468 H3460 0.929 . S
C3468 C3469 1.377 . S
C3468 C3470 1.384 . S
C3469 C3468 1.377 . S
C3469 C3475 1.390 . S
C3470 H3461 0.930 . S
C3470 C3468 1.384 . S
C3470 C3471 1.372 . S
C3471 C3470 1.372 . S
C3471 C3472 1.400 . S
C3471 C3476 1.490 . S
C3472 H3462 0.930 . S
C3472 C3471 1.400 . S
C3472 C3475 1.386 . S
H3473 C3489 0.930 . S
H3474 C3490 0.931 . S
C3475 H3463 0.929 . S
C3475 C3469 1.390 . S
C3475 C3472 1.386 . S
C3476 C3471 1.490 . S
C3476 C3478 1.395 . S
C3476 C3479 1.403 . S
H3477 C3483 0.930 . S
C3478 H3464 0.930 . S
C3478 C3476 1.395 . S
C3478 C3481 1.403 . S
C3479 C3476 1.403 . S
C3479 C3480 1.524 . S
C3479 C3483 1.400 . S
C3480 H3465 0.960 . S
C3480 H3466 0.960 . S
C3480 H3467 0.960 . S
C3480 C3479 1.524 . S
C3481 C3478 1.403 . S
C3481 C3482 1.392 . S
C3481 C3485 1.495 . S
C3482 C3481 1.392 . S
C3482 C3483 1.385 . S
C3482 C3484 1.478 . S
C3483 H3477 0.930 . S
C3483 C3479 1.400 . S
C3483 C3482 1.385 . S
C3484 C3482 1.478 . S
C3484 C3486 1.381 . S
C3484 C3490 1.383 . S
C3485 C3481 1.495 . S
C3485 H3491 0.959 . S
C3485 H3492 0.961 . S
C3485 H3493 0.960 . S
C3486 C3484 1.381 . S
C3486 C3487 1.394 . S
C3486 H3494 0.930 . S
C3487 C3486 1.394 . S
C3487 C3488 1.383 . S
C3487 H3495 0.929 . S
C3488 C3487 1.383 . S
C3488 C3489 1.377 . S
C3489 H3473 0.930 . S
C3489 C3488 1.377 . S
C3489 C3490 1.379 . S
C3490 H3474 0.931 . S
C3490 C3484 1.383 . S
C3490 C3489 1.379 . S
H3491 C3485 0.959 . S
H3492 C3485 0.961 . S
H3493 C3485 0.960 . S
H3494 C3486 0.930 . S
H3495 C3487 0.929 . S
H3496 C3504 0.929 . S
H3497 C3506 0.930 . S
H3498 C3508 0.930 . S
H3499 C3511 0.929 . S
H3500 C3514 0.930 . S
H3501 C3516 0.960 . S
H3502 C3516 0.960 . S
H3503 C3516 0.960 . S
C3504 H3496 0.929 . S
C3504 C3505 1.377 . S
C3504 C3506 1.384 . S
C3505 C3504 1.377 . S
C3505 C3511 1.390 . S
C3506 H3497 0.930 . S
C3506 C3504 1.384 . S
C3506 C3507 1.372 . S
C3507 C3506 1.372 . S
C3507 C3508 1.400 . S
C3507 C3512 1.490 . S
C3508 H3498 0.930 . S
C3508 C3507 1.400 . S
C3508 C3511 1.386 . S
H3509 C3525 0.930 . S
H3510 C3526 0.931 . S
C3511 H3499 0.929 . S
C3511 C3505 1.390 . S
C3511 C3508 1.386 . S
C3512 C3507 1.490 . S
C3512 C3514 1.395 . S
C3512 C3515 1.403 . S
H3513 C3519 0.930 . S
C3514 H3500 0.930 . S
C3514 C3512 1.395 . S
C3514 C3517 1.403 . S
C3515 C3512 1.403 . S
C3515 C3516 1.524 . S
C3515 C3519 1.400 . S
C3516 H3501 0.960 . S
C3516 H3502 0.960 . S
C3516 H3503 0.960 . S
C3516 C3515 1.524 . S
C3517 C3514 1.403 . S
C3517 C3518 1.392 . S
C3517 C3521 1.495 . S
C3518 C3517 1.392 . S
C3518 C3519 1.385 . S
C3518 C3520 1.478 . S
C3519 H3513 0.930 . S
C3519 C3515 1.400 . S
C3519 C3518 1.385 . S
C3520 C3518 1.478 . S
C3520 C3522 1.381 . S
C3520 C3526 1.383 . S
C3521 C3517 1.495 . S
C3521 H3527 0.959 . S
C3521 H3528 0.961 . S
C3521 H3529 0.960 . S
C3522 C3520 1.381 . S
C3522 C3523 1.394 . S
C3522 H3530 0.930 . S
C3523 C3522 1.394 . S
C3523 C3524 1.383 . S
C3523 H3531 0.929 . S
C3524 C3523 1.383 . S
C3524 C3525 1.377 . S
C3525 H3509 0.930 . S
C3525 C3524 1.377 . S
C3525 C3526 1.379 . S
C3526 H3510 0.931 . S
C3526 C3520 1.383 . S
C3526 C3525 1.379 . S
H3527 C3521 0.959 . S
H3528 C3521 0.961 . S
H3529 C3521 0.960 . S
H3530 C3522 0.930 . S
H3531 C3523 0.929 . S
H3532 C3540 0.929 . S
H3533 C3542 0.930 . S
H3534 C3544 0.930 . S
H3535 C3547 0.929 . S
H3536 C3550 0.930 . S
H3537 C3552 0.960 . S
H3538 C3552 0.960 . S
H3539 C3552 0.960 . S
C3540 H3532 0.929 . S
C3540 C3541 1.377 . S
C3540 C3542 1.384 . S
C3541 C3540 1.377 . S
C3541 C3547 1.390 . S
C3542 H3533 0.930 . S
C3542 C3540 1.384 . S
C3542 C3543 1.372 . S
C3543 C3542 1.372 . S
C3543 C3544 1.400 . S
C3543 C3548 1.490 . S
C3544 H3534 0.930 . S
C3544 C3543 1.400 . S
C3544 C3547 1.386 . S
H3545 C3561 0.930 . S
H3546 C3562 0.931 . S
C3547 H3535 0.929 . S
C3547 C3541 1.390 . S
C3547 C3544 1.386 . S
C3548 C3543 1.490 . S
C3548 C3550 1.395 . S
C3548 C3551 1.403 . S
H3549 C3555 0.930 . S
C3550 H3536 0.930 . S
C3550 C3548 1.395 . S
C3550 C3553 1.403 . S
C3551 C3548 1.403 . S
C3551 C3552 1.524 . S
C3551 C3555 1.400 . S
C3552 H3537 0.960 . S
C3552 H3538 0.960 . S
C3552 H3539 0.960 . S
C3552 C3551 1.524 . S
C3553 C3550 1.403 . S
C3553 C3554 1.392 . S
C3553 C3557 1.495 . S
C3554 C3553 1.392 . S
C3554 C3555 1.385 . S
C3554 C3556 1.478 . S
C3555 H3549 0.930 . S
C3555 C3551 1.400 . S
C3555 C3554 1.385 . S
C3556 C3554 1.478 . S
C3556 C3558 1.381 . S
C3556 C3562 1.383 . S
C3557 C3553 1.495 . S
C3557 H3563 0.959 . S
C3557 H3564 0.961 . S
C3557 H3565 0.960 . S
C3558 C3556 1.381 . S
C3558 C3559 1.394 . S
C3558 H3566 0.930 . S
C3559 C3558 1.394 . S
C3559 C3560 1.383 . S
C3559 H3567 0.929 . S
C3560 C3559 1.383 . S
C3560 C3561 1.377 . S
C3561 H3545 0.930 . S
C3561 C3560 1.377 . S
C3561 C3562 1.379 . S
C3562 H3546 0.931 . S
C3562 C3556 1.383 . S
C3562 C3561 1.379 . S
H3563 C3557 0.959 . S
H3564 C3557 0.961 . S
H3565 C3557 0.960 . S
H3566 C3558 0.930 . S
H3567 C3559 0.929 . S
H3568 C3576 0.929 . S
H3569 C3578 0.930 . S
H3570 C3580 0.930 . S
H3571 C3583 0.929 . S
H3572 C3586 0.930 . S
H3573 C3588 0.960 . S
H3574 C3588 0.960 . S
H3575 C3588 0.960 . S
C3576 H3568 0.929 . S
C3576 C3577 1.377 . S
C3576 C3578 1.384 . S
C3577 C3576 1.377 . S
C3577 C3583 1.390 . S
C3578 H3569 0.930 . S
C3578 C3576 1.384 . S
C3578 C3579 1.372 . S
C3579 C3578 1.372 . S
C3579 C3580 1.400 . S
C3579 C3584 1.490 . S
C3580 H3570 0.930 . S
C3580 C3579 1.400 . S
C3580 C3583 1.386 . S
H3581 C3597 0.930 . S
H3582 C3598 0.931 . S
C3583 H3571 0.929 . S
C3583 C3577 1.390 . S
C3583 C3580 1.386 . S
C3584 C3579 1.490 . S
C3584 C3586 1.395 . S
C3584 C3587 1.403 . S
H3585 C3591 0.930 . S
C3586 H3572 0.930 . S
C3586 C3584 1.395 . S
C3586 C3589 1.403 . S
C3587 C3584 1.403 . S
C3587 C3588 1.524 . S
C3587 C3591 1.400 . S
C3588 H3573 0.960 . S
C3588 H3574 0.960 . S
C3588 H3575 0.960 . S
C3588 C3587 1.524 . S
C3589 C3586 1.403 . S
C3589 C3590 1.392 . S
C3589 C3593 1.495 . S
C3590 C3589 1.392 . S
C3590 C3591 1.385 . S
C3590 C3592 1.478 . S
C3591 H3585 0.930 . S
C3591 C3587 1.400 . S
C3591 C3590 1.385 . S
C3592 C3590 1.478 . S
C3592 C3594 1.381 . S
C3592 C3598 1.383 . S
C3593 C3589 1.495 . S
C3593 H3599 0.959 . S
C3593 H3600 0.961 . S
C3593 H3601 0.960 . S
C3594 C3592 1.381 . S
C3594 C3595 1.394 . S
C3594 H3602 0.930 . S
C3595 C3594 1.394 . S
C3595 C3596 1.383 . S
C3595 H3603 0.929 . S
C3596 C3595 1.383 . S
C3596 C3597 1.377 . S
C3597 H3581 0.930 . S
C3597 C3596 1.377 . S
C3597 C3598 1.379 . S
C3598 H3582 0.931 . S
C3598 C3592 1.383 . S
C3598 C3597 1.379 . S
H3599 C3593 0.959 . S
H3600 C3593 0.961 . S
H3601 C3593 0.960 . S
H3602 C3594 0.930 . S
H3603 C3595 0.929 . S
H3604 C3612 0.929 . S
H3605 C3614 0.930 . S
H3606 C3616 0.930 . S
H3607 C3619 0.929 . S
H3608 C3622 0.930 . S
H3609 C3624 0.960 . S
H3610 C3624 0.960 . S
H3611 C3624 0.960 . S
C3612 H3604 0.929 . S
C3612 C3613 1.377 . S
C3612 C3614 1.384 . S
C3613 C3612 1.377 . S
C3613 C3619 1.390 . S
C3614 H3605 0.930 . S
C3614 C3612 1.384 . S
C3614 C3615 1.372 . S
C3615 C3614 1.372 . S
C3615 C3616 1.400 . S
C3615 C3620 1.490 . S
C3616 H3606 0.930 . S
C3616 C3615 1.400 . S
C3616 C3619 1.386 . S
H3617 C3633 0.930 . S
H3618 C3634 0.931 . S
C3619 H3607 0.929 . S
C3619 C3613 1.390 . S
C3619 C3616 1.386 . S
C3620 C3615 1.490 . S
C3620 C3622 1.395 . S
C3620 C3623 1.403 . S
H3621 C3627 0.930 . S
C3622 H3608 0.930 . S
C3622 C3620 1.395 . S
C3622 C3625 1.403 . S
C3623 C3620 1.403 . S
C3623 C3624 1.524 . S
C3623 C3627 1.400 . S
C3624 H3609 0.960 . S
C3624 H3610 0.960 . S
C3624 H3611 0.960 . S
C3624 C3623 1.524 . S
C3625 C3622 1.403 . S
C3625 C3626 1.392 . S
C3625 C3629 1.495 . S
C3626 C3625 1.392 . S
C3626 C3627 1.385 . S
C3626 C3628 1.478 . S
C3627 H3621 0.930 . S
C3627 C3623 1.400 . S
C3627 C3626 1.385 . S
C3628 C3626 1.478 . S
C3628 C3630 1.381 . S
C3628 C3634 1.383 . S
C3629 C3625 1.495 . S
C3629 H3635 0.959 . S
C3629 H3636 0.961 . S
C3629 H3637 0.960 . S
C3630 C3628 1.381 . S
C3630 C3631 1.394 . S
C3630 H3638 0.930 . S
C3631 C3630 1.394 . S
C3631 C3632 1.383 . S
C3631 H3639 0.929 . S
C3632 C3631 1.383 . S
C3632 C3633 1.377 . S
C3633 H3617 0.930 . S
C3633 C3632 1.377 . S
C3633 C3634 1.379 . S
C3634 H3618 0.931 . S
C3634 C3628 1.383 . S
C3634 C3633 1.379 . S
H3635 C3629 0.959 . S
H3636 C3629 0.961 . S
H3637 C3629 0.960 . S
H3638 C3630 0.930 . S
H3639 C3631 0.929 . S
H3640 C3648 0.929 . S
H3641 C3650 0.930 . S
H3642 C3652 0.930 . S
H3643 C3655 0.929 . S
H3644 C3658 0.930 . S
H3645 C3660 0.960 . S
H3646 C3660 0.960 . S
H3647 C3660 0.960 . S
C3648 H3640 0.929 . S
C3648 C3649 1.377 . S
C3648 C3650 1.384 . S
C3649 C3648 1.377 . S
C3649 C3655 1.390 . S
C3650 H3641 0.930 . S
C3650 C3648 1.384 . S
C3650 C3651 1.372 . S
C3651 C3650 1.372 . S
C3651 C3652 1.400 . S
C3651 C3656 1.490 . S
C3652 H3642 0.930 . S
C3652 C3651 1.400 . S
C3652 C3655 1.386 . S
H3653 C3669 0.930 . S
H3654 C3670 0.931 . S
C3655 H3643 0.929 . S
C3655 C3649 1.390 . S
C3655 C3652 1.386 . S
C3656 C3651 1.490 . S
C3656 C3658 1.395 . S
C3656 C3659 1.403 . S
H3657 C3663 0.930 . S
C3658 H3644 0.930 . S
C3658 C3656 1.395 . S
C3658 C3661 1.403 . S
C3659 C3656 1.403 . S
C3659 C3660 1.524 . S
C3659 C3663 1.400 . S
C3660 H3645 0.960 . S
C3660 H3646 0.960 . S
C3660 H3647 0.960 . S
C3660 C3659 1.524 . S
C3661 C3658 1.403 . S
C3661 C3662 1.392 . S
C3661 C3665 1.495 . S
C3662 C3661 1.392 . S
C3662 C3663 1.385 . S
C3662 C3664 1.478 . S
C3663 H3657 0.930 . S
C3663 C3659 1.400 . S
C3663 C3662 1.385 . S
C3664 C3662 1.478 . S
C3664 C3666 1.381 . S
C3664 C3670 1.383 . S
C3665 C3661 1.495 . S
C3665 H3671 0.959 . S
C3665 H3672 0.961 . S
C3665 H3673 0.960 . S
C3666 C3664 1.381 . S
C3666 C3667 1.394 . S
C3666 H3674 0.930 . S
C3667 C3666 1.394 . S
C3667 C3668 1.383 . S
C3667 H3675 0.929 . S
C3668 C3667 1.383 . S
C3668 C3669 1.377 . S
C3669 H3653 0.930 . S
C3669 C3668 1.377 . S
C3669 C3670 1.379 . S
C3670 H3654 0.931 . S
C3670 C3664 1.383 . S
C3670 C3669 1.379 . S
H3671 C3665 0.959 . S
H3672 C3665 0.961 . S
H3673 C3665 0.960 . S
H3674 C3666 0.930 . S
H3675 C3667 0.929 . S
H3676 C3684 0.929 . S
H3677 C3686 0.930 . S
H3678 C3688 0.930 . S
H3679 C3691 0.929 . S
H3680 C3694 0.930 . S
H3681 C3696 0.960 . S
H3682 C3696 0.960 . S
H3683 C3696 0.960 . S
C3684 H3676 0.929 . S
C3684 C3685 1.377 . S
C3684 C3686 1.384 . S
C3685 C3684 1.377 . S
C3685 C3691 1.390 . S
C3686 H3677 0.930 . S
C3686 C3684 1.384 . S
C3686 C3687 1.372 . S
C3687 C3686 1.372 . S
C3687 C3688 1.400 . S
C3687 C3692 1.490 . S
C3688 H3678 0.930 . S
C3688 C3687 1.400 . S
C3688 C3691 1.386 . S
H3689 C3705 0.930 . S
H3690 C3706 0.931 . S
C3691 H3679 0.929 . S
C3691 C3685 1.390 . S
C3691 C3688 1.386 . S
C3692 C3687 1.490 . S
C3692 C3694 1.395 . S
C3692 C3695 1.403 . S
H3693 C3699 0.930 . S
C3694 H3680 0.930 . S
C3694 C3692 1.395 . S
C3694 C3697 1.403 . S
C3695 C3692 1.403 . S
C3695 C3696 1.524 . S
C3695 C3699 1.400 . S
C3696 H3681 0.960 . S
C3696 H3682 0.960 . S
C3696 H3683 0.960 . S
C3696 C3695 1.524 . S
C3697 C3694 1.403 . S
C3697 C3698 1.392 . S
C3697 C3701 1.495 . S
C3698 C3697 1.392 . S
C3698 C3699 1.385 . S
C3698 C3700 1.478 . S
C3699 H3693 0.930 . S
C3699 C3695 1.400 . S
C3699 C3698 1.385 . S
C3700 C3698 1.478 . S
C3700 C3702 1.381 . S
C3700 C3706 1.383 . S
C3701 C3697 1.495 . S
C3701 H3707 0.959 . S
C3701 H3708 0.961 . S
C3701 H3709 0.960 . S
C3702 C3700 1.381 . S
C3702 C3703 1.394 . S
C3702 H3710 0.930 . S
C3703 C3702 1.394 . S
C3703 C3704 1.383 . S
C3703 H3711 0.929 . S
C3704 C3703 1.383 . S
C3704 C3705 1.377 . S
C3705 H3689 0.930 . S
C3705 C3704 1.377 . S
C3705 C3706 1.379 . S
C3706 H3690 0.931 . S
C3706 C3700 1.383 . S
C3706 C3705 1.379 . S
H3707 C3701 0.959 . S
H3708 C3701 0.961 . S
H3709 C3701 0.960 . S
H3710 C3702 0.930 . S
H3711 C3703 0.929 . S
H3712 C3720 0.929 . S
H3713 C3722 0.930 . S
H3714 C3724 0.930 . S
H3715 C3727 0.929 . S
H3716 C3730 0.930 . S
H3717 C3732 0.960 . S
H3718 C3732 0.960 . S
H3719 C3732 0.960 . S
C3720 H3712 0.929 . S
C3720 C3721 1.377 . S
C3720 C3722 1.384 . S
C3721 C3720 1.377 . S
C3721 C3727 1.390 . S
C3722 H3713 0.930 . S
C3722 C3720 1.384 . S
C3722 C3723 1.372 . S
C3723 C3722 1.372 . S
C3723 C3724 1.400 . S
C3723 C3728 1.490 . S
C3724 H3714 0.930 . S
C3724 C3723 1.400 . S
C3724 C3727 1.386 . S
H3725 C3741 0.930 . S
H3726 C3742 0.931 . S
C3727 H3715 0.929 . S
C3727 C3721 1.390 . S
C3727 C3724 1.386 . S
C3728 C3723 1.490 . S
C3728 C3730 1.395 . S
C3728 C3731 1.403 . S
H3729 C3735 0.930 . S
C3730 H3716 0.930 . S
C3730 C3728 1.395 . S
C3730 C3733 1.403 . S
C3731 C3728 1.403 . S
C3731 C3732 1.524 . S
C3731 C3735 1.400 . S
C3732 H3717 0.960 . S
C3732 H3718 0.960 . S
C3732 H3719 0.960 . S
C3732 C3731 1.524 . S
C3733 C3730 1.403 . S
C3733 C3734 1.392 . S
C3733 C3737 1.495 . S
C3734 C3733 1.392 . S
C3734 C3735 1.385 . S
C3734 C3736 1.478 . S
C3735 H3729 0.930 . S
C3735 C3731 1.400 . S
C3735 C3734 1.385 . S
C3736 C3734 1.478 . S
C3736 C3738 1.381 . S
C3736 C3742 1.383 . S
C3737 C3733 1.495 . S
C3737 H3743 0.959 . S
C3737 H3744 0.961 . S
C3737 H3745 0.960 . S
C3738 C3736 1.381 . S
C3738 C3739 1.401 . S
C3738 H3746 0.930 . S
C3739 C3738 1.401 . S
C3739 C3740 1.389 . S
C3739 H3747 0.917 1_556 S
C3740 C3739 1.389 . S
C3740 C3741 1.377 . S
C3741 H3725 0.930 . S
C3741 C3740 1.377 . S
C3741 C3742 1.379 . S
C3742 H3726 0.931 . S
C3742 C3736 1.383 . S
C3742 C3741 1.379 . S
H3743 C3737 0.959 . S
H3744 C3737 0.961 . S
H3745 C3737 0.960 . S
H3746 C3738 0.930 . S
H3747 C3739 0.917 1_554 S
H3748 C3756 0.929 . S
H3749 C3758 0.930 . S
H3750 C3760 0.930 . S
H3751 C3763 0.929 . S
H3752 C3766 0.930 . S
H3753 C3768 0.960 . S
H3754 C3768 0.960 . S
H3755 C3768 0.960 . S
C3756 H3748 0.929 . S
C3756 C3757 1.377 . S
C3756 C3758 1.384 . S
C3757 C3756 1.377 . S
C3757 C3763 1.390 . S
C3758 H3749 0.930 . S
C3758 C3756 1.384 . S
C3758 C3759 1.372 . S
C3759 C3758 1.372 . S
C3759 C3760 1.400 . S
C3759 C3764 1.490 . S
C3760 H3750 0.930 . S
C3760 C3759 1.400 . S
C3760 C3763 1.386 . S
H3761 C3777 0.930 . S
H3762 C3778 0.931 . S
C3763 H3751 0.929 . S
C3763 C3757 1.390 . S
C3763 C3760 1.386 . S
C3764 C3759 1.490 . S
C3764 C3766 1.395 . S
C3764 C3767 1.403 . S
H3765 C3771 0.930 . S
C3766 H3752 0.930 . S
C3766 C3764 1.395 . S
C3766 C3769 1.403 . S
C3767 C3764 1.403 . S
C3767 C3768 1.524 . S
C3767 C3771 1.400 . S
C3768 H3753 0.960 . S
C3768 H3754 0.960 . S
C3768 H3755 0.960 . S
C3768 C3767 1.524 . S
C3769 C3766 1.403 . S
C3769 C3770 1.392 . S
C3769 C3773 1.495 . S
C3770 C3769 1.392 . S
C3770 C3771 1.385 . S
C3770 C3772 1.478 . S
C3771 H3765 0.930 . S
C3771 C3767 1.400 . S
C3771 C3770 1.385 . S
C3772 C3770 1.478 . S
C3772 C3774 1.381 . S
C3772 C3778 1.383 . S
C3773 C3769 1.495 . S
C3773 H3779 0.959 . S
C3773 H3780 0.961 . S
C3773 H3781 0.960 . S
C3774 C3772 1.381 . S
C3774 C3775 1.394 . S
C3774 H3782 0.930 . S
C3775 C3774 1.394 . S
C3775 C3776 1.383 . S
C3775 H3783 0.929 . S
C3776 C3775 1.383 . S
C3776 C3777 1.377 . S
C3777 H3761 0.930 . S
C3777 C3776 1.377 . S
C3777 C3778 1.379 . S
C3778 H3762 0.931 . S
C3778 C3772 1.383 . S
C3778 C3777 1.379 . S
H3779 C3773 0.959 . S
H3780 C3773 0.961 . S
H3781 C3773 0.960 . S
H3782 C3774 0.930 . S
H3783 C3775 0.929 . S
H3784 C3792 0.929 . S
H3785 C3794 0.930 . S
H3786 C3796 0.930 . S
H3787 C3799 0.929 . S
H3788 C3802 0.930 . S
H3789 C3804 0.960 . S
H3790 C3804 0.960 . S
H3791 C3804 0.960 . S
C3792 H3784 0.929 . S
C3792 C3793 1.377 . S
C3792 C3794 1.384 . S
C3793 C3792 1.377 . S
C3793 C3799 1.390 1_455 S
C3794 H3785 0.930 . S
C3794 C3792 1.384 . S
C3794 C3795 1.372 . S
C3795 C3794 1.372 . S
C3795 C3796 1.400 1_455 S
C3795 C3800 1.490 . S
C3796 H3786 0.930 . S
C3796 C3795 1.400 1_655 S
C3796 C3799 1.386 . S
H3797 C3813 0.939 . S
H3798 C3814 0.931 1_655 S
C3799 H3787 0.929 . S
C3799 C3793 1.390 1_655 S
C3799 C3796 1.386 . S
C3800 C3795 1.490 . S
C3800 C3802 1.395 . S
C3800 C3803 1.403 . S
H3801 C3807 0.930 . S
C3802 H3788 0.930 . S
C3802 C3800 1.395 . S
C3802 C3805 1.403 . S
C3803 C3800 1.403 . S
C3803 C3804 1.524 1_455 S
C3803 C3807 1.400 . S
C3804 H3789 0.960 . S
C3804 H3790 0.960 . S
C3804 H3791 0.960 . S
C3804 C3803 1.524 1_655 S
C3805 C3802 1.403 . S
C3805 C3806 1.392 . S
C3805 C3809 1.495 . S
C3806 C3805 1.392 . S
C3806 C3807 1.385 . S
C3806 C3808 1.478 . S
C3807 H3801 0.930 . S
C3807 C3803 1.400 . S
C3807 C3806 1.385 . S
C3808 C3806 1.478 . S
C3808 C3810 1.381 . S
C3808 C3814 1.383 . S
C3809 C3805 1.495 . S
C3809 H3815 0.959 . S
C3809 H3816 0.961 . S
C3809 H3817 0.960 . S
C3810 C3808 1.381 . S
C3810 C3811 1.394 . S
C3810 H3818 0.930 . S
C3811 C3810 1.394 . S
C3811 C3812 1.383 . S
C3811 H3819 0.929 . S
C3812 C3811 1.383 . S
C3812 C3813 1.377 . S
C3813 H3797 0.939 . S
C3813 C3812 1.377 . S
C3813 C3814 1.379 . S
C3814 H3798 0.931 1_455 S
C3814 C3808 1.383 . S
C3814 C3813 1.379 . S
H3815 C3809 0.959 . S
H3816 C3809 0.961 . S
H3817 C3809 0.960 . S
H3818 C3810 0.930 . S
H3819 C3811 0.929 . S
H3820 C3828 0.929 . S
H3821 C3830 0.930 . S
H3822 C3832 0.930 . S
H3823 C3835 0.929 . S
H3824 C3838 0.930 . S
H3825 C3840 0.960 . S
H3826 C3840 0.960 . S
H3827 C3840 0.960 . S
C3828 H3820 0.929 . S
C3828 C3829 1.377 . S
C3828 C3830 1.384 . S
C3829 C3828 1.377 . S
C3829 C3835 1.390 . S
C3830 H3821 0.930 . S
C3830 C3828 1.384 . S
C3830 C3831 1.372 . S
C3831 C3830 1.372 . S
C3831 C3832 1.400 . S
C3831 C3836 1.490 . S
C3832 H3822 0.930 . S
C3832 C3831 1.400 . S
C3832 C3835 1.386 . S
H3833 C3849 0.930 . S
H3834 C3850 0.931 . S
C3835 H3823 0.929 . S
C3835 C3829 1.390 . S
C3835 C3832 1.386 . S
C3836 C3831 1.490 . S
C3836 C3838 1.395 . S
C3836 C3839 1.403 . S
H3837 C3843 0.930 . S
C3838 H3824 0.930 . S
C3838 C3836 1.395 . S
C3838 C3841 1.403 . S
C3839 C3836 1.403 . S
C3839 C3840 1.524 . S
C3839 C3843 1.400 . S
C3840 H3825 0.960 . S
C3840 H3826 0.960 . S
C3840 H3827 0.960 . S
C3840 C3839 1.524 . S
C3841 C3838 1.403 . S
C3841 C3842 1.392 . S
C3841 C3845 1.495 . S
C3842 C3841 1.392 . S
C3842 C3843 1.385 . S
C3842 C3844 1.478 . S
C3843 H3837 0.930 . S
C3843 C3839 1.400 . S
C3843 C3842 1.385 . S
C3844 C3842 1.478 . S
C3844 C3846 1.381 . S
C3844 C3850 1.383 . S
C3845 C3841 1.495 . S
C3845 H3851 0.959 . S
C3845 H3852 0.961 . S
C3845 H3853 0.960 . S
C3846 C3844 1.381 . S
C3846 C3847 1.394 . S
C3846 H3854 0.930 . S
C3847 C3846 1.394 . S
C3847 C3848 1.383 . S
C3847 H3855 0.929 . S
C3848 C3847 1.383 . S
C3848 C3849 1.377 . S
C3849 H3833 0.930 . S
C3849 C3848 1.377 . S
C3849 C3850 1.379 . S
C3850 H3834 0.931 . S
C3850 C3844 1.383 . S
C3850 C3849 1.379 . S
H3851 C3845 0.959 . S
H3852 C3845 0.961 . S
H3853 C3845 0.960 . S
H3854 C3846 0.930 . S
H3855 C3847 0.929 . S
H3856 C3864 0.929 . S
H3857 C3866 0.930 . S
H3858 C3868 0.930 . S
H3859 C3871 0.929 . S
H3860 C3874 0.930 . S
H3861 C3876 0.960 . S
H3862 C3876 0.960 . S
H3863 C3876 0.960 . S
C3864 H3856 0.929 . S
C3864 C3865 1.377 . S
C3864 C3866 1.384 . S
C3865 C3864 1.377 . S
C3865 C3871 1.390 . S
C3866 H3857 0.930 . S
C3866 C3864 1.384 . S
C3866 C3867 1.372 . S
C3867 C3866 1.372 . S
C3867 C3868 1.400 . S
C3867 C3872 1.490 . S
C3868 H3858 0.930 . S
C3868 C3867 1.400 . S
C3868 C3871 1.386 . S
H3869 C3885 0.930 . S
H3870 C3886 0.931 . S
C3871 H3859 0.929 . S
C3871 C3865 1.390 . S
C3871 C3868 1.386 . S
C3872 C3867 1.490 . S
C3872 C3874 1.395 . S
C3872 C3875 1.403 . S
H3873 C3879 0.930 . S
C3874 H3860 0.930 . S
C3874 C3872 1.395 . S
C3874 C3877 1.403 . S
C3875 C3872 1.403 . S
C3875 C3876 1.524 . S
C3875 C3879 1.400 . S
C3876 H3861 0.960 . S
C3876 H3862 0.960 . S
C3876 H3863 0.960 . S
C3876 C3875 1.524 . S
C3877 C3874 1.403 . S
C3877 C3878 1.392 . S
C3877 C3881 1.495 . S
C3878 C3877 1.392 . S
C3878 C3879 1.385 . S
C3878 C3880 1.478 . S
C3879 H3873 0.930 . S
C3879 C3875 1.400 . S
C3879 C3878 1.385 . S
C3880 C3878 1.478 . S
C3880 C3882 1.381 . S
C3880 C3886 1.383 . S
C3881 C3877 1.495 . S
C3881 H3887 0.959 . S
C3881 H3888 0.961 . S
C3881 H3889 0.960 . S
C3882 C3880 1.381 . S
C3882 C3883 1.394 . S
C3882 H3890 0.930 . S
C3883 C3882 1.394 . S
C3883 C3884 1.383 . S
C3883 H3891 0.929 . S
C3884 C3883 1.383 . S
C3884 C3885 1.377 . S
C3885 H3869 0.930 . S
C3885 C3884 1.377 . S
C3885 C3886 1.379 . S
C3886 H3870 0.931 . S
C3886 C3880 1.383 . S
C3886 C3885 1.379 . S
H3887 C3881 0.959 . S
H3888 C3881 0.961 . S
H3889 C3881 0.960 . S
H3890 C3882 0.930 . S
H3891 C3883 0.929 . S
H3892 C3900 0.929 . S
H3893 C3902 0.930 . S
H3894 C3904 0.930 . S
H3895 C3907 0.929 . S
H3896 C3910 0.930 . S
H3897 C3912 0.960 . S
H3898 C3912 0.960 . S
H3899 C3912 0.960 . S
C3900 H3892 0.929 . S
C3900 C3901 1.377 . S
C3900 C3902 1.384 . S
C3901 C3900 1.377 . S
C3901 C3907 1.390 . S
C3902 H3893 0.930 . S
C3902 C3900 1.384 . S
C3902 C3903 1.372 . S
C3903 C3902 1.372 . S
C3903 C3904 1.400 . S
C3903 C3908 1.490 . S
C3904 H3894 0.930 . S
C3904 C3903 1.400 . S
C3904 C3907 1.386 . S
H3905 C3921 0.930 . S
H3906 C3922 0.931 . S
C3907 H3895 0.929 . S
C3907 C3901 1.390 . S
C3907 C3904 1.386 . S
C3908 C3903 1.490 . S
C3908 C3910 1.395 . S
C3908 C3911 1.403 . S
H3909 C3915 0.930 . S
C3910 H3896 0.930 . S
C3910 C3908 1.395 . S
C3910 C3913 1.403 . S
C3911 C3908 1.403 . S
C3911 C3912 1.524 . S
C3911 C3915 1.400 . S
C3912 H3897 0.960 . S
C3912 H3898 0.960 . S
C3912 H3899 0.960 . S
C3912 C3911 1.524 . S
C3913 C3910 1.403 . S
C3913 C3914 1.392 . S
C3913 C3917 1.495 . S
C3914 C3913 1.392 . S
C3914 C3915 1.385 . S
C3914 C3916 1.478 . S
C3915 H3909 0.930 . S
C3915 C3911 1.400 . S
C3915 C3914 1.385 . S
C3916 C3914 1.478 . S
C3916 C3918 1.381 . S
C3916 C3922 1.383 . S
C3917 C3913 1.495 . S
C3917 H3923 0.959 . S
C3917 H3924 0.961 . S
C3917 H3925 0.960 . S
C3918 C3916 1.381 . S
C3918 C3919 1.394 . S
C3918 H3926 0.930 . S
C3919 C3918 1.394 . S
C3919 C3920 1.383 . S
C3919 H3927 0.929 . S
C3920 C3919 1.383 . S
C3920 C3921 1.377 . S
C3921 H3905 0.930 . S
C3921 C3920 1.377 . S
C3921 C3922 1.379 . S
C3922 H3906 0.931 . S
C3922 C3916 1.383 . S
C3922 C3921 1.379 . S
H3923 C3917 0.959 . S
H3924 C3917 0.961 . S
H3925 C3917 0.960 . S
H3926 C3918 0.930 . S
H3927 C3919 0.929 . S
H3928 C3936 0.929 . S
H3929 C3938 0.930 . S
H3930 C3940 0.930 . S
H3931 C3943 0.929 . S
H3932 C3946 0.930 . S
H3933 C3948 0.960 . S
H3934 C3948 0.960 . S
H3935 C3948 0.960 . S
C3936 H3928 0.929 . S
C3936 C3937 1.377 . S
C3936 C3938 1.384 . S
C3937 C3936 1.377 . S
C3937 C3943 1.390 . S
C3938 H3929 0.930 . S
C3938 C3936 1.384 . S
C3938 C3939 1.372 . S
C3939 C3938 1.372 . S
C3939 C3940 1.400 . S
C3939 C3944 1.490 . S
C3940 H3930 0.930 . S
C3940 C3939 1.400 . S
C3940 C3943 1.386 . S
H3941 C3957 0.930 . S
H3942 C3958 0.931 . S
C3943 H3931 0.929 . S
C3943 C3937 1.390 . S
C3943 C3940 1.386 . S
C3944 C3939 1.490 . S
C3944 C3946 1.395 . S
C3944 C3947 1.403 . S
H3945 C3951 0.930 . S
C3946 H3932 0.930 . S
C3946 C3944 1.395 . S
C3946 C3949 1.403 . S
C3947 C3944 1.403 . S
C3947 C3948 1.524 . S
C3947 C3951 1.400 . S
C3948 H3933 0.960 . S
C3948 H3934 0.960 . S
C3948 H3935 0.960 . S
C3948 C3947 1.524 . S
C3949 C3946 1.403 . S
C3949 C3950 1.392 . S
C3949 C3953 1.495 . S
C3950 C3949 1.392 . S
C3950 C3951 1.385 . S
C3950 C3952 1.478 . S
C3951 H3945 0.930 . S
C3951 C3947 1.400 . S
C3951 C3950 1.385 . S
C3952 C3950 1.478 . S
C3952 C3954 1.381 . S
C3952 C3958 1.383 1_655 S
C3953 C3949 1.495 . S
C3953 H3959 0.959 . S
C3953 H3960 0.961 . S
C3953 H3961 0.960 . S
C3954 C3952 1.381 . S
C3954 C3955 1.394 . S
C3954 H3962 0.930 . S
C3955 C3954 1.394 . S
C3955 C3956 1.383 1_655 S
C3955 H3963 0.929 . S
C3956 C3955 1.383 1_455 S
C3956 C3957 1.377 . S
C3957 H3941 0.930 . S
C3957 C3956 1.377 . S
C3957 C3958 1.379 . S
C3958 H3942 0.931 . S
C3958 C3952 1.383 1_455 S
C3958 C3957 1.379 . S
H3959 C3953 0.959 . S
H3960 C3953 0.961 . S
H3961 C3953 0.960 . S
H3962 C3954 0.930 . S
H3963 C3955 0.929 . S
H3964 C3972 0.929 . S
H3965 C3974 0.930 . S
H3966 C3976 0.930 . S
H3967 C3979 0.929 . S
H3968 C3982 0.930 . S
H3969 C3984 0.960 . S
H3970 C3984 0.960 . S
H3971 C3984 0.960 . S
C3972 H3964 0.929 . S
C3972 C3973 1.377 . S
C3972 C3974 1.384 . S
C3973 C3972 1.377 . S
C3973 C3979 1.390 . S
C3974 H3965 0.930 . S
C3974 C3972 1.384 . S
C3974 C3975 1.372 . S
C3975 C3974 1.372 . S
C3975 C3976 1.400 . S
C3975 C3980 1.490 . S
C3976 H3966 0.930 . S
C3976 C3975 1.400 . S
C3976 C3979 1.386 . S
H3977 C3993 0.930 . S
H3978 C3994 0.931 . S
C3979 H3967 0.929 . S
C3979 C3973 1.390 . S
C3979 C3976 1.386 . S
C3980 C3975 1.490 . S
C3980 C3982 1.395 . S
C3980 C3983 1.403 . S
H3981 C3987 0.930 . S
C3982 H3968 0.930 . S
C3982 C3980 1.395 . S
C3982 C3985 1.403 . S
C3983 C3980 1.403 . S
C3983 C3984 1.524 . S
C3983 C3987 1.400 . S
C3984 H3969 0.960 . S
C3984 H3970 0.960 . S
C3984 H3971 0.960 . S
C3984 C3983 1.524 . S
C3985 C3982 1.403 . S
C3985 C3986 1.392 . S
C3985 C3989 1.495 . S
C3986 C3985 1.392 . S
C3986 C3987 1.385 . S
C3986 C3988 1.478 . S
C3987 H3981 0.930 . S
C3987 C3983 1.400 . S
C3987 C3986 1.385 . S
C3988 C3986 1.478 . S
C3988 C3990 1.381 . S
C3988 C3994 1.383 . S
C3989 C3985 1.495 . S
C3989 H3995 0.959 . S
C3989 H3996 0.961 . S
C3989 H3997 0.960 . S
C3990 C3988 1.381 . S
C3990 C3991 1.394 . S
C3990 H3998 0.930 . S
C3991 C3990 1.394 . S
C3991 C3992 1.383 . S
C3991 H3999 0.929 . S
C3992 C3991 1.383 . S
C3992 C3993 1.377 . S
C3993 H3977 0.930 . S
C3993 C3992 1.377 . S
C3993 C3994 1.379 . S
C3994 H3978 0.931 . S
C3994 C3988 1.383 . S
C3994 C3993 1.379 . S
H3995 C3989 0.959 . S
H3996 C3989 0.961 . S
H3997 C3989 0.960 . S
H3998 C3990 0.930 . S
H3999 C3991 0.929 . S
H4000 C4008 0.929 . S
H4001 C4010 0.930 . S
H4002 C4012 0.930 . S
H4003 C4015 0.929 . S
H4004 C4018 0.930 . S
H4005 C4020 0.960 . S
H4006 C4020 0.960 . S
H4007 C4020 0.960 . S
C4008 H4000 0.929 . S
C4008 C4009 1.377 . S
C4008 C4010 1.384 . S
C4009 C4008 1.377 . S
C4009 C4015 1.390 . S
C4010 H4001 0.930 . S
C4010 C4008 1.384 . S
C4010 C4011 1.372 . S
C4011 C4010 1.372 . S
C4011 C4012 1.400 . S
C4011 C4016 1.490 . S
C4012 H4002 0.930 . S
C4012 C4011 1.400 . S
C4012 C4015 1.386 . S
H4013 C4029 0.930 . S
H4014 C4030 0.931 . S
C4015 H4003 0.929 . S
C4015 C4009 1.390 . S
C4015 C4012 1.386 . S
C4016 C4011 1.490 . S
C4016 C4018 1.395 . S
C4016 C4019 1.403 . S
H4017 C4023 0.930 . S
C4018 H4004 0.930 . S
C4018 C4016 1.395 . S
C4018 C4021 1.403 . S
C4019 C4016 1.403 . S
C4019 C4020 1.524 . S
C4019 C4023 1.400 . S
C4020 H4005 0.960 . S
C4020 H4006 0.960 . S
C4020 H4007 0.960 . S
C4020 C4019 1.524 . S
C4021 C4018 1.403 . S
C4021 C4022 1.392 . S
C4021 C4025 1.495 . S
C4022 C4021 1.392 . S
C4022 C4023 1.385 . S
C4022 C4024 1.478 . S
C4023 H4017 0.930 . S
C4023 C4019 1.400 . S
C4023 C4022 1.385 . S
C4024 C4022 1.478 . S
C4024 C4026 1.381 . S
C4024 C4030 1.383 . S
C4025 C4021 1.495 . S
C4025 H4031 0.959 . S
C4025 H4032 0.961 . S
C4025 H4033 0.960 . S
C4026 C4024 1.381 . S
C4026 C4027 1.394 . S
C4026 H4034 0.930 . S
C4027 C4026 1.394 . S
C4027 C4028 1.383 . S
C4027 H4035 0.929 . S
C4028 C4027 1.383 . S
C4028 C4029 1.377 . S
C4029 H4013 0.930 . S
C4029 C4028 1.377 . S
C4029 C4030 1.379 . S
C4030 H4014 0.931 . S
C4030 C4024 1.383 . S
C4030 C4029 1.379 . S
H4031 C4025 0.959 . S
H4032 C4025 0.961 . S
H4033 C4025 0.960 . S
H4034 C4026 0.930 . S
H4035 C4027 0.929 . S
H4036 C4044 0.929 . S
H4037 C4046 0.930 . S
H4038 C4048 0.930 . S
H4039 C4051 0.929 . S
H4040 C4054 0.930 . S
H4041 C4056 0.960 . S
H4042 C4056 0.960 . S
H4043 C4056 0.960 . S
C4044 H4036 0.929 . S
C4044 C4045 1.377 . S
C4044 C4046 1.384 . S
C4045 C4044 1.377 . S
C4045 C4051 1.390 . S
C4046 H4037 0.930 . S
C4046 C4044 1.384 . S
C4046 C4047 1.372 . S
C4047 C4046 1.372 . S
C4047 C4048 1.400 . S
C4047 C4052 1.490 . S
C4048 H4038 0.930 . S
C4048 C4047 1.400 . S
C4048 C4051 1.386 . S
H4049 C4065 0.930 . S
H4050 C4066 0.931 . S
C4051 H4039 0.929 . S
C4051 C4045 1.390 . S
C4051 C4048 1.386 . S
C4052 C4047 1.490 . S
C4052 C4054 1.395 . S
C4052 C4055 1.403 . S
H4053 C4059 0.930 . S
C4054 H4040 0.930 . S
C4054 C4052 1.395 . S
C4054 C4057 1.403 . S
C4055 C4052 1.403 . S
C4055 C4056 1.524 . S
C4055 C4059 1.400 . S
C4056 H4041 0.960 . S
C4056 H4042 0.960 . S
C4056 H4043 0.960 . S
C4056 C4055 1.524 . S
C4057 C4054 1.403 . S
C4057 C4058 1.392 . S
C4057 C4061 1.495 . S
C4058 C4057 1.392 . S
C4058 C4059 1.385 . S
C4058 C4060 1.478 . S
C4059 H4053 0.930 . S
C4059 C4055 1.400 . S
C4059 C4058 1.385 . S
C4060 C4058 1.478 . S
C4060 C4062 1.381 . S
C4060 C4066 1.383 . S
C4061 C4057 1.495 . S
C4061 H4067 0.959 . S
C4061 H4068 0.961 . S
C4061 H4069 0.960 . S
C4062 C4060 1.381 . S
C4062 C4063 1.394 . S
C4062 H4070 0.930 . S
C4063 C4062 1.394 . S
C4063 C4064 1.383 . S
C4063 H4071 0.929 . S
C4064 C4063 1.383 . S
C4064 C4065 1.377 . S
C4065 H4049 0.930 . S
C4065 C4064 1.377 . S
C4065 C4066 1.379 . S
C4066 H4050 0.931 . S
C4066 C4060 1.383 . S
C4066 C4065 1.379 . S
H4067 C4061 0.959 . S
H4068 C4061 0.961 . S
H4069 C4061 0.960 . S
H4070 C4062 0.930 . S
H4071 C4063 0.929 . S
H4072 C4080 0.929 . S
H4073 C4082 0.930 . S
H4074 C4084 0.930 . S
H4075 C4087 0.929 . S
H4076 C4090 0.930 . S
H4077 C4092 0.960 . S
H4078 C4092 0.960 . S
H4079 C4092 0.960 . S
C4080 H4072 0.929 . S
C4080 C4081 1.377 . S
C4080 C4082 1.384 . S
C4081 C4080 1.377 . S
C4081 C4087 1.390 . S
C4082 H4073 0.930 . S
C4082 C4080 1.384 . S
C4082 C4083 1.372 . S
C4083 C4082 1.372 . S
C4083 C4084 1.400 . S
C4083 C4088 1.490 . S
C4084 H4074 0.930 . S
C4084 C4083 1.400 . S
C4084 C4087 1.386 . S
H4085 C4101 0.930 . S
H4086 C4102 0.931 . S
C4087 H4075 0.929 . S
C4087 C4081 1.390 . S
C4087 C4084 1.386 . S
C4088 C4083 1.490 . S
C4088 C4090 1.395 . S
C4088 C4091 1.403 . S
H4089 C4095 0.930 . S
C4090 H4076 0.930 . S
C4090 C4088 1.395 . S
C4090 C4093 1.403 . S
C4091 C4088 1.403 . S
C4091 C4092 1.524 . S
C4091 C4095 1.400 . S
C4092 H4077 0.960 . S
C4092 H4078 0.960 . S
C4092 H4079 0.960 . S
C4092 C4091 1.524 . S
C4093 C4090 1.403 . S
C4093 C4094 1.392 . S
C4093 C4097 1.495 . S
C4094 C4093 1.392 . S
C4094 C4095 1.385 . S
C4094 C4096 1.478 . S
C4095 H4089 0.930 . S
C4095 C4091 1.400 . S
C4095 C4094 1.385 . S
C4096 C4094 1.478 . S
C4096 C4098 1.381 . S
C4096 C4102 1.383 . S
C4097 C4093 1.495 . S
C4097 H4103 0.959 . S
C4097 H4104 0.961 . S
C4097 H4105 0.960 . S
C4098 C4096 1.381 . S
C4098 C4099 1.394 1_655 S
C4098 H4106 0.930 1_655 S
C4099 C4098 1.394 1_455 S
C4099 C4100 1.383 1_455 S
C4099 H4107 0.929 . S
C4100 C4099 1.383 1_655 S
C4100 C4101 1.377 . S
C4101 H4085 0.930 . S
C4101 C4100 1.377 . S
C4101 C4102 1.379 . S
C4102 H4086 0.931 . S
C4102 C4096 1.383 . S
C4102 C4101 1.379 . S
H4103 C4097 0.959 . S
H4104 C4097 0.961 . S
H4105 C4097 0.960 . S
H4106 C4098 0.930 1_455 S
H4107 C4099 0.929 . S
H4108 C4116 0.929 . S
H4109 C4118 0.930 . S
H4110 C4120 0.930 . S
H4111 C4123 0.929 . S
H4112 C4126 0.930 . S
H4113 C4128 0.960 . S
H4114 C4128 0.960 . S
H4115 C4128 0.960 . S
C4116 H4108 0.929 . S
C4116 C4117 1.377 . S
C4116 C4118 1.384 . S
C4117 C4116 1.377 . S
C4117 C4123 1.390 . S
C4118 H4109 0.930 . S
C4118 C4116 1.384 . S
C4118 C4119 1.372 . S
C4119 C4118 1.372 . S
C4119 C4120 1.400 . S
C4119 C4124 1.490 . S
C4120 H4110 0.930 . S
C4120 C4119 1.400 . S
C4120 C4123 1.386 . S
H4121 C4137 0.930 . S
H4122 C4138 0.931 . S
C4123 H4111 0.929 . S
C4123 C4117 1.390 . S
C4123 C4120 1.386 . S
C4124 C4119 1.490 . S
C4124 C4126 1.395 . S
C4124 C4127 1.403 . S
H4125 C4131 0.930 . S
C4126 H4112 0.930 . S
C4126 C4124 1.395 . S
C4126 C4129 1.403 . S
C4127 C4124 1.403 . S
C4127 C4128 1.524 . S
C4127 C4131 1.400 . S
C4128 H4113 0.960 . S
C4128 H4114 0.960 . S
C4128 H4115 0.960 . S
C4128 C4127 1.524 . S
C4129 C4126 1.403 . S
C4129 C4130 1.392 . S
C4129 C4133 1.495 . S
C4130 C4129 1.392 . S
C4130 C4131 1.385 . S
C4130 C4132 1.478 . S
C4131 H4125 0.930 . S
C4131 C4127 1.400 . S
C4131 C4130 1.385 . S
C4132 C4130 1.478 . S
C4132 C4134 1.381 . S
C4132 C4138 1.383 . S
C4133 C4129 1.495 . S
C4133 H4139 0.959 . S
C4133 H4140 0.961 . S
C4133 H4141 0.960 . S
C4134 C4132 1.381 . S
C4134 C4135 1.394 . S
C4134 H4142 0.930 . S
C4135 C4134 1.394 . S
C4135 C4136 1.383 . S
C4135 H4143 0.929 . S
C4136 C4135 1.383 . S
C4136 C4137 1.377 . S
C4137 H4121 0.930 . S
C4137 C4136 1.377 . S
C4137 C4138 1.379 . S
C4138 H4122 0.931 . S
C4138 C4132 1.383 . S
C4138 C4137 1.379 . S
H4139 C4133 0.959 . S
H4140 C4133 0.961 . S
H4141 C4133 0.960 . S
H4142 C4134 0.930 . S
H4143 C4135 0.929 . S
H4144 C4152 0.929 . S
H4145 C4154 0.930 . S
H4146 C4156 0.930 . S
H4147 C4159 0.929 . S
H4148 C4162 0.930 . S
H4149 C4164 0.960 . S
H4150 C4164 0.960 . S
H4151 C4164 0.960 . S
C4152 H4144 0.929 . S
C4152 C4153 1.377 . S
C4152 C4154 1.384 . S
C4153 C4152 1.377 . S
C4153 C4159 1.390 . S
C4154 H4145 0.930 . S
C4154 C4152 1.384 . S
C4154 C4155 1.372 . S
C4155 C4154 1.372 . S
C4155 C4156 1.400 . S
C4155 C4160 1.490 . S
C4156 H4146 0.930 . S
C4156 C4155 1.400 . S
C4156 C4159 1.386 . S
H4157 C4173 0.930 . S
H4158 C4174 0.931 . S
C4159 H4147 0.929 . S
C4159 C4153 1.390 . S
C4159 C4156 1.386 . S
C4160 C4155 1.490 . S
C4160 C4162 1.395 . S
C4160 C4163 1.403 . S
H4161 C4167 0.930 . S
C4162 H4148 0.930 . S
C4162 C4160 1.395 . S
C4162 C4165 1.403 . S
C4163 C4160 1.403 . S
C4163 C4164 1.524 . S
C4163 C4167 1.400 . S
C4164 H4149 0.960 . S
C4164 H4150 0.960 . S
C4164 H4151 0.960 . S
C4164 C4163 1.524 . S
C4165 C4162 1.403 . S
C4165 C4166 1.392 . S
C4165 C4169 1.495 . S
C4166 C4165 1.392 . S
C4166 C4167 1.385 . S
C4166 C4168 1.478 . S
C4167 H4161 0.930 . S
C4167 C4163 1.400 . S
C4167 C4166 1.385 . S
C4168 C4166 1.478 . S
C4168 C4170 1.381 . S
C4168 C4174 1.383 . S
C4169 C4165 1.495 . S
C4169 H4175 0.959 . S
C4169 H4176 0.961 . S
C4169 H4177 0.960 . S
C4170 C4168 1.381 . S
C4170 C4171 1.394 . S
C4170 H4178 0.930 . S
C4171 C4170 1.394 . S
C4171 C4172 1.383 . S
C4171 H4179 0.929 . S
C4172 C4171 1.383 . S
C4172 C4173 1.377 . S
C4173 H4157 0.930 . S
C4173 C4172 1.377 . S
C4173 C4174 1.379 . S
C4174 H4158 0.931 . S
C4174 C4168 1.383 . S
C4174 C4173 1.379 . S
H4175 C4169 0.959 . S
H4176 C4169 0.961 . S
H4177 C4169 0.960 . S
H4178 C4170 0.930 . S
H4179 C4171 0.929 . S
H4180 C4188 0.929 . S
H4181 C4190 0.930 . S
H4182 C4192 0.930 . S
H4183 C4195 0.929 . S
H4184 C4198 0.930 . S
H4185 C4200 0.960 . S
H4186 C4200 0.960 . S
H4187 C4200 0.960 . S
C4188 H4180 0.929 . S
C4188 C4189 1.377 . S
C4188 C4190 1.384 . S
C4189 C4188 1.377 . S
C4189 C4195 1.390 . S
C4190 H4181 0.930 . S
C4190 C4188 1.384 . S
C4190 C4191 1.372 . S
C4191 C4190 1.372 . S
C4191 C4192 1.400 . S
C4191 C4196 1.490 . S
C4192 H4182 0.930 . S
C4192 C4191 1.400 . S
C4192 C4195 1.386 . S
H4193 C4209 0.930 . S
H4194 C4210 0.931 . S
C4195 H4183 0.929 . S
C4195 C4189 1.390 . S
C4195 C4192 1.386 . S
C4196 C4191 1.490 . S
C4196 C4198 1.395 . S
C4196 C4199 1.403 . S
H4197 C4203 0.930 . S
C4198 H4184 0.930 . S
C4198 C4196 1.395 . S
C4198 C4201 1.403 . S
C4199 C4196 1.403 . S
C4199 C4200 1.524 . S
C4199 C4203 1.400 . S
C4200 H4185 0.960 . S
C4200 H4186 0.960 . S
C4200 H4187 0.960 . S
C4200 C4199 1.524 . S
C4201 C4198 1.403 . S
C4201 C4202 1.392 . S
C4201 C4205 1.495 . S
C4202 C4201 1.392 . S
C4202 C4203 1.385 . S
C4202 C4204 1.478 . S
C4203 H4197 0.930 . S
C4203 C4199 1.400 . S
C4203 C4202 1.385 . S
C4204 C4202 1.478 . S
C4204 C4206 1.381 . S
C4204 C4210 1.383 . S
C4205 C4201 1.495 . S
C4205 H4211 0.959 . S
C4205 H4212 0.961 . S
C4205 H4213 0.960 . S
C4206 C4204 1.381 . S
C4206 C4207 1.394 . S
C4206 H4214 0.930 . S
C4207 C4206 1.394 . S
C4207 C4208 1.383 . S
C4207 H4215 0.929 . S
C4208 C4207 1.383 . S
C4208 C4209 1.377 . S
C4209 H4193 0.930 . S
C4209 C4208 1.377 . S
C4209 C4210 1.379 . S
C4210 H4194 0.931 . S
C4210 C4204 1.383 . S
C4210 C4209 1.379 . S
H4211 C4205 0.959 . S
H4212 C4205 0.961 . S
H4213 C4205 0.960 . S
H4214 C4206 0.930 . S
H4215 C4207 0.929 . S
H4216 C4224 0.929 . S
H4217 C4226 0.930 . S
H4218 C4228 0.930 . S
H4219 C4231 0.929 . S
H4220 C4234 0.930 . S
H4221 C4236 0.960 . S
H4222 C4236 0.960 . S
H4223 C4236 0.960 . S
C4224 H4216 0.929 . S
C4224 C4225 1.377 . S
C4224 C4226 1.384 . S
C4225 C4224 1.377 . S
C4225 C4231 1.390 . S
C4226 H4217 0.930 . S
C4226 C4224 1.384 . S
C4226 C4227 1.372 . S
C4227 C4226 1.372 . S
C4227 C4228 1.400 . S
C4227 C4232 1.490 . S
C4228 H4218 0.930 . S
C4228 C4227 1.400 . S
C4228 C4231 1.386 . S
H4229 C4245 0.930 . S
H4230 C4246 0.931 . S
C4231 H4219 0.929 . S
C4231 C4225 1.390 . S
C4231 C4228 1.386 . S
C4232 C4227 1.490 . S
C4232 C4234 1.395 . S
C4232 C4235 1.403 . S
H4233 C4239 0.930 . S
C4234 H4220 0.930 . S
C4234 C4232 1.395 . S
C4234 C4237 1.403 . S
C4235 C4232 1.403 . S
C4235 C4236 1.524 . S
C4235 C4239 1.400 . S
C4236 H4221 0.960 . S
C4236 H4222 0.960 . S
C4236 H4223 0.960 . S
C4236 C4235 1.524 . S
C4237 C4234 1.403 . S
C4237 C4238 1.392 . S
C4237 C4241 1.495 . S
C4238 C4237 1.392 . S
C4238 C4239 1.385 . S
C4238 C4240 1.478 . S
C4239 H4233 0.930 . S
C4239 C4235 1.400 . S
C4239 C4238 1.385 . S
C4240 C4238 1.478 . S
C4240 C4242 1.381 . S
C4240 C4246 1.383 . S
C4241 C4237 1.495 . S
C4241 H4247 0.959 . S
C4241 H4248 0.961 . S
C4241 H4249 0.960 . S
C4242 C4240 1.381 . S
C4242 C4243 1.394 . S
C4242 H4250 0.930 . S
C4243 C4242 1.394 . S
C4243 C4244 1.383 . S
C4243 H4251 0.929 . S
C4244 C4243 1.383 . S
C4244 C4245 1.377 . S
C4245 H4229 0.930 . S
C4245 C4244 1.377 . S
C4245 C4246 1.379 . S
C4246 H4230 0.931 . S
C4246 C4240 1.383 . S
C4246 C4245 1.379 . S
H4247 C4241 0.959 . S
H4248 C4241 0.961 . S
H4249 C4241 0.960 . S
H4250 C4242 0.930 . S
H4251 C4243 0.929 . S
H4252 C4260 0.929 . S
H4253 C4262 0.930 . S
H4254 C4264 0.930 . S
H4255 C4267 0.929 . S
H4256 C4270 0.930 . S
H4257 C4272 0.960 . S
H4258 C4272 0.960 . S
H4259 C4272 0.960 . S
C4260 H4252 0.929 . S
C4260 C4261 1.377 . S
C4260 C4262 1.384 . S
C4261 C4260 1.377 . S
C4261 C4267 1.390 . S
C4262 H4253 0.930 . S
C4262 C4260 1.384 . S
C4262 C4263 1.372 . S
C4263 C4262 1.372 . S
C4263 C4264 1.400 . S
C4263 C4268 1.490 . S
C4264 H4254 0.930 . S
C4264 C4263 1.400 . S
C4264 C4267 1.386 . S
H4265 C4281 0.930 . S
H4266 C4282 0.931 . S
C4267 H4255 0.929 . S
C4267 C4261 1.390 . S
C4267 C4264 1.386 . S
C4268 C4263 1.490 . S
C4268 C4270 1.395 . S
C4268 C4271 1.403 . S
H4269 C4275 0.930 . S
C4270 H4256 0.930 . S
C4270 C4268 1.395 . S
C4270 C4273 1.403 . S
C4271 C4268 1.403 . S
C4271 C4272 1.524 . S
C4271 C4275 1.400 . S
C4272 H4257 0.960 . S
C4272 H4258 0.960 . S
C4272 H4259 0.960 . S
C4272 C4271 1.524 . S
C4273 C4270 1.403 . S
C4273 C4274 1.392 . S
C4273 C4277 1.495 . S
C4274 C4273 1.392 . S
C4274 C4275 1.385 . S
C4274 C4276 1.478 . S
C4275 H4269 0.930 . S
C4275 C4271 1.400 . S
C4275 C4274 1.385 . S
C4276 C4274 1.478 . S
C4276 C4278 1.381 . S
C4276 C4282 1.383 . S
C4277 C4273 1.495 . S
C4277 H4283 0.959 . S
C4277 H4284 0.961 . S
C4277 H4285 0.960 . S
C4278 C4276 1.381 . S
C4278 C4279 1.394 . S
C4278 H4286 0.930 . S
C4279 C4278 1.394 . S
C4279 C4280 1.383 . S
C4279 H4287 0.929 . S
C4280 C4279 1.383 . S
C4280 C4281 1.377 . S
C4281 H4265 0.930 . S
C4281 C4280 1.377 . S
C4281 C4282 1.379 . S
C4282 H4266 0.931 . S
C4282 C4276 1.383 . S
C4282 C4281 1.379 . S
H4283 C4277 0.959 . S
H4284 C4277 0.961 . S
H4285 C4277 0.960 . S
H4286 C4278 0.930 . S
H4287 C4279 0.929 . S
H4288 C4296 0.929 . S
H4289 C4298 0.930 . S
H4290 C4300 0.930 . S
H4291 C4303 0.929 . S
H4292 C4306 0.930 . S
H4293 C4308 0.960 . S
H4294 C4308 0.960 . S
H4295 C4308 0.960 . S
C4296 H4288 0.929 . S
C4296 C4297 1.377 . S
C4296 C4298 1.384 . S
C4297 C4296 1.377 . S
C4297 C4303 1.390 . S
C4298 H4289 0.930 . S
C4298 C4296 1.384 . S
C4298 C4299 1.372 . S
C4299 C4298 1.372 . S
C4299 C4300 1.400 . S
C4299 C4304 1.490 . S
C4300 H4290 0.930 . S
C4300 C4299 1.400 . S
C4300 C4303 1.386 . S
H4301 C4317 0.930 . S
H4302 C4318 0.931 . S
C4303 H4291 0.929 . S
C4303 C4297 1.390 . S
C4303 C4300 1.386 . S
C4304 C4299 1.490 . S
C4304 C4306 1.395 . S
C4304 C4307 1.403 . S
H4305 C4311 0.930 . S
C4306 H4292 0.930 . S
C4306 C4304 1.395 . S
C4306 C4309 1.403 . S
C4307 C4304 1.403 . S
C4307 C4308 1.524 . S
C4307 C4311 1.400 . S
C4308 H4293 0.960 . S
C4308 H4294 0.960 . S
C4308 H4295 0.960 . S
C4308 C4307 1.524 . S
C4309 C4306 1.403 . S
C4309 C4310 1.392 . S
C4309 C4313 1.495 . S
C4310 C4309 1.392 . S
C4310 C4311 1.385 . S
C4310 C4312 1.478 . S
C4311 H4305 0.930 . S
C4311 C4307 1.400 . S
C4311 C4310 1.385 . S
C4312 C4310 1.478 . S
C4312 C4314 1.381 . S
C4312 C4318 1.383 . S
C4313 C4309 1.495 . S
C4313 H4319 0.959 . S
C4313 H4320 0.961 . S
C4313 H4321 0.960 . S
C4314 C4312 1.381 . S
C4314 C4315 1.394 . S
C4314 H4322 0.930 . S
C4315 C4314 1.394 . S
C4315 C4316 1.383 . S
C4315 H4323 0.929 . S
C4316 C4315 1.383 . S
C4316 C4317 1.377 . S
C4317 H4301 0.930 . S
C4317 C4316 1.377 . S
C4317 C4318 1.379 . S
C4318 H4302 0.931 . S
C4318 C4312 1.383 . S
C4318 C4317 1.379 . S
H4319 C4313 0.959 . S
H4320 C4313 0.961 . S
H4321 C4313 0.960 . S
H4322 C4314 0.930 . S
H4323 C4315 0.929 . S
H4324 C4332 0.929 . S
H4325 C4334 0.930 . S
H4326 C4336 0.930 . S
H4327 C4339 0.929 . S
H4328 C4342 0.930 . S
H4329 C4344 0.960 1_556 S
H4330 C4344 0.960 . S
H4331 C4344 0.960 . S
C4332 H4324 0.929 . S
C4332 C4333 1.377 . S
C4332 C4334 1.384 . S
C4333 C4332 1.377 . S
C4333 C4339 1.390 . S
C4334 H4325 0.930 . S
C4334 C4332 1.384 . S
C4334 C4335 1.372 . S
C4335 C4334 1.372 . S
C4335 C4336 1.400 . S
C4335 C4340 1.490 . S
C4336 H4326 0.930 . S
C4336 C4335 1.400 . S
C4336 C4339 1.386 . S
H4337 C4353 0.930 . S
H4338 C4354 0.931 . S
C4339 H4327 0.929 . S
C4339 C4333 1.390 . S
C4339 C4336 1.386 . S
C4340 C4335 1.490 . S
C4340 C4342 1.395 . S
C4340 C4343 1.403 . S
H4341 C4347 0.930 . S
C4342 H4328 0.930 . S
C4342 C4340 1.395 . S
C4342 C4345 1.403 . S
C4343 C4340 1.403 . S
C4343 C4344 1.524 . S
C4343 C4347 1.400 . S
C4344 H4329 0.960 1_554 S
C4344 H4330 0.960 . S
C4344 H4331 0.960 . S
C4344 C4343 1.524 . S
C4345 C4342 1.403 . S
C4345 C4346 1.392 . S
C4345 C4349 1.495 . S
C4346 C4345 1.392 . S
C4346 C4347 1.385 . S
C4346 C4348 1.478 . S
C4347 H4341 0.930 . S
C4347 C4343 1.400 . S
C4347 C4346 1.385 . S
C4348 C4346 1.478 . S
C4348 C4350 1.381 . S
C4348 C4354 1.383 . S
C4349 C4345 1.495 . S
C4349 H4355 0.959 . S
C4349 H4356 0.961 . S
C4349 H4357 0.960 . S
C4350 C4348 1.381 . S
C4350 C4351 1.394 . S
C4350 H4358 0.930 . S
C4351 C4350 1.394 . S
C4351 C4352 1.383 . S
C4351 H4359 0.929 . S
C4352 C4351 1.383 . S
C4352 C4353 1.377 . S
C4353 H4337 0.930 . S
C4353 C4352 1.377 . S
C4353 C4354 1.379 . S
C4354 H4338 0.931 . S
C4354 C4348 1.383 . S
C4354 C4353 1.379 . S
H4355 C4349 0.959 . S
H4356 C4349 0.961 . S
H4357 C4349 0.960 . S
H4358 C4350 0.930 . S
H4359 C4351 0.929 . S
H4360 C4368 0.929 . S
H4361 C4370 0.930 . S
H4362 C4372 0.930 . S
H4363 C4375 0.929 . S
H4364 C4378 0.930 . S
H4365 C4380 0.960 . S
H4366 C4380 0.960 . S
H4367 C4380 0.960 . S
C4368 H4360 0.929 . S
C4368 C4369 1.377 . S
C4368 C4370 1.384 . S
C4369 C4368 1.377 . S
C4369 C4375 1.390 . S
C4370 H4361 0.930 . S
C4370 C4368 1.384 . S
C4370 C4371 1.372 . S
C4371 C4370 1.372 . S
C4371 C4372 1.400 . S
C4371 C4376 1.490 . S
C4372 H4362 0.930 . S
C4372 C4371 1.400 . S
C4372 C4375 1.386 . S
H4373 C4389 0.930 . S
H4374 C4390 0.931 . S
C4375 H4363 0.929 . S
C4375 C4369 1.390 . S
C4375 C4372 1.386 . S
C4376 C4371 1.490 . S
C4376 C4378 1.395 . S
C4376 C4379 1.403 . S
H4377 C4383 0.930 . S
C4378 H4364 0.930 . S
C4378 C4376 1.395 . S
C4378 C4381 1.403 . S
C4379 C4376 1.403 . S
C4379 C4380 1.524 . S
C4379 C4383 1.400 . S
C4380 H4365 0.960 . S
C4380 H4366 0.960 . S
C4380 H4367 0.960 . S
C4380 C4379 1.524 . S
C4381 C4378 1.403 . S
C4381 C4382 1.392 . S
C4381 C4385 1.495 . S
C4382 C4381 1.392 . S
C4382 C4383 1.385 . S
C4382 C4384 1.478 . S
C4383 H4377 0.930 . S
C4383 C4379 1.400 . S
C4383 C4382 1.385 . S
C4384 C4382 1.478 . S
C4384 C4386 1.381 . S
C4384 C4390 1.383 . S
C4385 C4381 1.495 . S
C4385 H4391 0.959 . S
C4385 H4392 0.961 . S
C4385 H4393 0.960 . S
C4386 C4384 1.381 . S
C4386 C4387 1.394 . S
C4386 H4394 0.930 . S
C4387 C4386 1.394 . S
C4387 C4388 1.383 . S
C4387 H4395 0.929 . S
C4388 C4387 1.383 . S
C4388 C4389 1.377 . S
C4389 H4373 0.930 . S
C4389 C4388 1.377 . S
C4389 C4390 1.379 . S
C4390 H4374 0.931 . S
C4390 C4384 1.383 . S
C4390 C4389 1.379 . S
H4391 C4385 0.959 . S
H4392 C4385 0.961 . S
H4393 C4385 0.960 . S
H4394 C4386 0.930 . S
H4395 C4387 0.929 . S
H4396 C4404 0.929 . S
H4397 C4406 0.930 . S
H4398 C4408 0.930 . S
H4399 C4411 0.929 . S
H4400 C4414 0.930 . S
H4401 C4416 0.960 . S
H4402 C4416 0.960 . S
H4403 C4416 0.960 . S
C4404 H4396 0.929 . S
C4404 C4405 1.377 . S
C4404 C4406 1.384 . S
C4405 C4404 1.377 . S
C4405 C4411 1.390 . S
C4406 H4397 0.930 . S
C4406 C4404 1.384 . S
C4406 C4407 1.372 . S
C4407 C4406 1.372 . S
C4407 C4408 1.400 . S
C4407 C4412 1.490 . S
C4408 H4398 0.930 . S
C4408 C4407 1.400 . S
C4408 C4411 1.386 . S
H4409 C4425 0.930 . S
H4410 C4426 0.931 . S
C4411 H4399 0.929 . S
C4411 C4405 1.390 . S
C4411 C4408 1.386 . S
C4412 C4407 1.490 . S
C4412 C4414 1.395 . S
C4412 C4415 1.403 . S
H4413 C4419 0.930 . S
C4414 H4400 0.930 . S
C4414 C4412 1.395 . S
C4414 C4417 1.403 . S
C4415 C4412 1.403 . S
C4415 C4416 1.524 . S
C4415 C4419 1.400 . S
C4416 H4401 0.960 . S
C4416 H4402 0.960 . S
C4416 H4403 0.960 . S
C4416 C4415 1.524 . S
C4417 C4414 1.403 . S
C4417 C4418 1.392 . S
C4417 C4421 1.495 . S
C4418 C4417 1.392 . S
C4418 C4419 1.385 . S
C4418 C4420 1.478 . S
C4419 H4413 0.930 . S
C4419 C4415 1.400 . S
C4419 C4418 1.385 . S
C4420 C4418 1.478 . S
C4420 C4422 1.381 . S
C4420 C4426 1.383 . S
C4421 C4417 1.495 . S
C4421 H4427 0.959 . S
C4421 H4428 0.961 . S
C4421 H4429 0.960 . S
C4422 C4420 1.381 . S
C4422 C4423 1.394 . S
C4422 H4430 0.930 . S
C4423 C4422 1.394 . S
C4423 C4424 1.383 . S
C4423 H4431 0.929 . S
C4424 C4423 1.383 . S
C4424 C4425 1.377 . S
C4425 H4409 0.930 . S
C4425 C4424 1.377 . S
C4425 C4426 1.379 . S
C4426 H4410 0.931 . S
C4426 C4420 1.383 . S
C4426 C4425 1.379 . S
H4427 C4421 0.959 . S
H4428 C4421 0.961 . S
H4429 C4421 0.960 . S
H4430 C4422 0.930 . S
H4431 C4423 0.929 . S
C985 C106 2.616 . S
C1004 C346 2.553 . S
C1021 C65 1.966 . S
C1040 C394 1.941 . S
C1057 C79 1.513 . S
C1076 C426 1.479 . S
C1112 C471 1.338 . S
C1093 C90 1.329 . S
C1129 C21 0.643 . S
C1148 C511 0.626 . S
C1184 C546 0.884 . S
C1165 C35 0.863 . S
C1220 C585 1.231 . S
C1201 C50 1.236 . S
C1237 C6 1.184 . S
C1256 C622 1.186 . S
C1292 C354 2.226 . S
C1273 C232 2.217 . S
C1309 C245 0.557 . S
C1328 C391 0.499 . S
C1364 C434 2.500 . S
C1345 C274 2.523 . S
C1400 C466 0.981 . S
C1381 C175 0.944 . S
C1417 C231 0.887 . S
C1436 C506 0.861 . S
C1472 C554 0.376 . S
C1453 C246 0.332 . S
C1508 C595 1.756 1_556 S
C1489 C273 1.729 . S
C1544 C625 2.127 . S
C1525 C176 2.118 . S
C1580 C351 1.245 . S
C1561 C160 1.181 . S
C1597 C289 2.160 . S
C1616 C674 2.145 . S
C1652 C711 1.213 . S
C1633 C328 1.190 . S
C1688 C742 0.630 . S
C1669 C317 0.541 . S
C1705 C118 2.683 . S
C1724 C635 2.688 . S
C1741 C132 1.416 . S
C1760 C431 1.445 . S
C1777 C331 1.835 . S
C1796 C794 1.811 . S
C1832 C826 1.838 . S
C1813 C303 1.857 . S
C1868 C355 2.074 . S
C1849 C63 2.127 . S
C1904 C825 2.454 . S
C1885 C107 2.437 . S
C1921 C92 1.276 . S
C1940 C435 1.296 . S
C1957 C78 1.887 . S
C1976 C782 1.875 . S
C2012 C502 1.216 . S
C1993 C8 1.207 1_655 S
C2029 C51 0.978 . S
C2048 C715 0.960 . S
C2084 C594 1.500 . S
C2065 C37 1.534 . S
C2120 C871 1.179 . S
C2101 C20 1.162 . S
C2156 C345 1.978 1_556 S
C2137 C147 1.958 . S
C2192 C822 0.459 . S
C2173 C316 0.282 . S
C2209 C119 2.416 . S
C2228 C425 2.463 . S
C2245 C288 1.104 . S
C2264 C795 1.093 . S
C2281 C148 1.299 . S
C2300 C515 1.280 . S
C2336 C705 0.460 . S
C2317 C315 0.527 . S
C2353 C120 2.138 . S
C2372 C586 2.031 . S
C2389 C287 1.909 . S
C2408 C874 1.862 . S
C2425 C188 0.895 . S
C2444 C342 0.944 . S
C2461 C177 2.576 . S
C2480 C665 2.577 . S
C2497 C258 1.217 . S
C2516 C542 1.245 . S
C2533 C247 0.461 . S
C2552 C751 0.524 . S
C2588 C866 2.664 . S
C2569 C272 2.658 . S
C2605 C216 1.270 . S
C2624 C422 1.306 . S
C2660 C465 2.112 . S
C2641 C261 2.106 . S
C2696 C395 2.028 . S
C2677 C205 2.056 . S
C2713 C76 2.206 . S
C2732 C906 2.169 . S
C2768 C834 2.024 . S
C2749 C93 2.045 . S
C2785 C105 1.062 . S
C2804 C946 1.038 . S
C2821 C62 1.356 1_655 S
C2840 C791 1.364 . S
C2857 C49 0.627 . S
C2876 C671 0.608 . S
C2912 C706 1.264 . S
C2893 C9 1.298 . S
C2948 C745 1.109 . S
C2929 C22 1.136 . S
C2984 C862 1.567 . S
C2965 C36 1.542 . S
C3020 C914 2.147 . S
C3001 C260 2.139 . S
C3037 C189 0.645 . S
C3056 C831 0.679 . S
C3092 C954 2.383 . S
C3073 C204 2.411 . S
C3128 C786 0.721 . S
C3109 C217 0.764 . S
C3164 C666 1.103 1_556 S
C3145 C259 1.076 . S
C3181 C190 0.437 . S
C3200 C714 0.495 . S
C3236 C755 1.946 . S
C3217 C203 1.924 . S
C3253 C218 2.217 . S
C3272 C865 2.218 . S
C3308 C911 1.184 . S
C3289 C314 1.160 . S
C3325 C135 2.234 . S
C3344 C514 2.195 . S
C3380 C551 1.203 . S
C3361 C146 1.152 . S
C3416 C582 0.558 . S
C3397 C163 0.535 . S
C3452 C875 2.779 . S
C3433 C300 2.772 . S
C3469 C286 1.348 . S
C3488 C951 1.376 . S
C3524 C474 1.729 . S
C3505 C149 1.752 . S
C3560 C386 1.773 . S
C3541 C121 1.804 . S
C3577 C91 2.103 . S
C3596 C915 2.062 . S
C3632 C385 2.016 . S
C3613 C77 1.966 . S
C3649 C64 1.261 . S
C3668 C955 1.266 . S
C3685 C104 1.517 . S
C3704 C462 1.529 . S
C3721 C34 0.833 . S
C3740 C662 0.863 . S
C3776 C555 0.952 . S
C3757 C23 0.925 . S
C3793 C7 1.043 . S
C3812 C754 1.056 . S
C3829 C48 1.142 . S
C3848 C631 1.144 . S
C3884 C905 1.955 . S
C3865 C329 1.935 . S
C3901 C162 0.291 . S
C3920 C382 0.428 . S
C3956 C945 2.442 1_556 S
C3937 C301 2.416 . S
C3973 C134 1.119 . S
C3992 C475 1.106 . S
C4009 C330 1.311 . S
C4028 C675 1.327 . S
C4064 C545 0.592 . S
C4045 C161 0.572 . S
C4081 C302 2.104 . S
C4100 C746 2.035 1_655 S
C4136 C634 1.859 . S
C4117 C133 1.856 . S
C4172 C902 1.100 . S
C4153 C244 1.084 . S
C4208 C505 2.533 1_665 S
C4189 C219 2.536 . S
C4225 C230 0.985 . S
C4244 C702 1.006 . S
C4280 C591 0.543 . S
C4261 C191 0.505 . S
C4297 C202 2.951 . S
C4316 C626 2.946 . S
C4333 C174 1.522 . S
C4352 C942 1.526 . S
C4388 C785 2.092 . S
C4369 C233 2.071 . S
C4424 C835 1.965 . S
C4405 C275 2.012 . S
