# Generated by pormake.
# Topology csq, (4,8)-cn, num edge types: 1
# Building blocks:
#     Node 0, Type 0, BuildingBlock: MUDLON_clean_sbu_0, # of connection points: 4
#     Node 1, Type 0, BuildingBlock: MUDLON_clean_sbu_0, # of connection points: 4
#     Node 2, Type 0, BuildingBlock: MUDLON_clean_sbu_0, # of connection points: 4
#     Node 3, Type 0, BuildingBlock: MUDLON_clean_sbu_0, # of connection points: 4
#     Node 4, Type 0, BuildingBlock: MUDLON_clean_sbu_0, # of connection points: 4
#     Node 5, Type 0, BuildingBlock: MUDLON_clean_sbu_0, # of connection points: 4
#     Node 6, Type 1, BuildingBlock: TAGTUT_clean_sbu_1, # of connection points: 8
#     Node 7, Type 1, BuildingBlock: TAGTUT_clean_sbu_1, # of connection points: 8
#     Node 8, Type 1, BuildingBlock: TAGTUT_clean_sbu_1, # of connection points: 8
#     Edge 9, Type (0, 1), BuildingBlock: KIFKEQ_clean_linker_1, # of connection points: 2
#     Edge 10, Type (0, 1), BuildingBlock: KIFKEQ_clean_linker_1, # of connection points: 2
#     Edge 11, Type (0, 1), BuildingBlock: KIFKEQ_clean_linker_1, # of connection points: 2
#     Edge 12, Type (0, 1), BuildingBlock: KIFKEQ_clean_linker_1, # of connection points: 2
#     Edge 13, Type (0, 1), BuildingBlock: KIFKEQ_clean_linker_1, # of connection points: 2
#     Edge 14, Type (0, 1), BuildingBlock: KIFKEQ_clean_linker_1, # of connection points: 2
#     Edge 15, Type (0, 1), BuildingBlock: KIFKEQ_clean_linker_1, # of connection points: 2
#     Edge 16, Type (0, 1), BuildingBlock: KIFKEQ_clean_linker_1, # of connection points: 2
#     Edge 17, Type (0, 1), BuildingBlock: KIFKEQ_clean_linker_1, # of connection points: 2
#     Edge 18, Type (0, 1), BuildingBlock: KIFKEQ_clean_linker_1, # of connection points: 2
#     Edge 19, Type (0, 1), BuildingBlock: KIFKEQ_clean_linker_1, # of connection points: 2
#     Edge 20, Type (0, 1), BuildingBlock: KIFKEQ_clean_linker_1, # of connection points: 2
#     Edge 21, Type (0, 1), BuildingBlock: KIFKEQ_clean_linker_1, # of connection points: 2
#     Edge 22, Type (0, 1), BuildingBlock: KIFKEQ_clean_linker_1, # of connection points: 2
#     Edge 23, Type (0, 1), BuildingBlock: KIFKEQ_clean_linker_1, # of connection points: 2
#     Edge 24, Type (0, 1), BuildingBlock: KIFKEQ_clean_linker_1, # of connection points: 2
#     Edge 25, Type (0, 1), BuildingBlock: KIFKEQ_clean_linker_1, # of connection points: 2
#     Edge 26, Type (0, 1), BuildingBlock: KIFKEQ_clean_linker_1, # of connection points: 2
#     Edge 27, Type (0, 1), BuildingBlock: KIFKEQ_clean_linker_1, # of connection points: 2
#     Edge 28, Type (0, 1), BuildingBlock: KIFKEQ_clean_linker_1, # of connection points: 2
#     Edge 29, Type (0, 1), BuildingBlock: KIFKEQ_clean_linker_1, # of connection points: 2
#     Edge 30, Type (0, 1), BuildingBlock: KIFKEQ_clean_linker_1, # of connection points: 2
#     Edge 31, Type (0, 1), BuildingBlock: KIFKEQ_clean_linker_1, # of connection points: 2
#     Edge 32, Type (0, 1), BuildingBlock: KIFKEQ_clean_linker_1, # of connection points: 2
# Relax obj value: 0.063
# Max RMSD: 0.136
# Mean RMSD: 0.099
data_MOF--net-csq--node1-MUDLON_clean_sbu_0--node2-TAGTUT_clean_sbu_1--edge1-KIFKEQ_clean_linker_1
_symmetry_space_group_name_H-M    P1
_symmetry_Int_Tables_number       1
_symmetry_cell_setting            triclinic
loop_
_symmetry_equiv_pos_as_xyz
'x, y, z'
_cell_length_a     50.457278
_cell_length_b     50.244667
_cell_length_c     20.541487
_cell_angle_alpha  92.185121
_cell_angle_beta   92.545688
_cell_angle_gamma 120.04954
loop_
_atom_site_label
_atom_site_type_symbol
_atom_site_fract_x
_atom_site_fract_y
_atom_site_fract_z
_atom_type_partial_charge
Mg0 Mg 0.24323 0.48221 0.17188 0.0
C1 C 0.20636 0.44501 0.04564 0.0
O2 O 0.23271 0.44817 0.03037 0.0
C3 C 0.26212 0.44389 0.26974 0.0
O4 O 0.24938 0.41864 0.23073 0.0
C5 C 0.20638 0.48744 0.26801 0.0
O6 O 0.20129 0.45907 0.26437 0.0
O7 O 0.22517 0.50637 0.22996 0.0
O8 O 0.2035 0.45193 0.10428 0.0
O9 O 0.2812 0.50487 0.10759 0.0
C10 C 0.29338 0.4883 0.09717 0.0
O11 O 0.28445 0.46377 0.13043 0.0
O12 O 0.26111 0.46747 0.25299 0.0
Mg13 Mg 0.78203 0.26248 0.13427 0.0
C14 C 0.82586 0.2562 0.04921 0.0
O15 O 0.8003 0.23917 0.01247 0.0
C16 C 0.74436 0.24152 0.24889 0.0
O17 O 0.74513 0.26751 0.23816 0.0
C18 C 0.8253 0.33042 0.15294 0.0
O19 O 0.83441 0.32415 0.09849 0.0
O20 O 0.80037 0.30972 0.17384 0.0
O21 O 0.82411 0.26409 0.10772 0.0
O22 O 0.75179 0.24708 0.04477 0.0
C23 C 0.72305 0.23694 0.04093 0.0
O24 O 0.70982 0.23839 0.09354 0.0
O25 O 0.75859 0.23272 0.2121 0.0
Mg26 Mg 0.51126 0.76492 0.05975 0.0
C27 C 0.53248 0.81566 0.17048 0.0
O28 O 0.55599 0.81116 0.17246 0.0
C29 C 0.54132 0.7382 0.97274 0.0
O30 O 0.56556 0.76406 0.99627 0.0
C31 C 0.53905 0.82347 0.98395 0.0
O32 O 0.56176 0.82926 0.0267 0.0
O33 O 0.51452 0.79741 0.98211 0.0
O34 O 0.5089 0.79811 0.13278 0.0
O35 O 0.50915 0.73267 0.13769 0.0
C36 C 0.53424 0.73358 0.15386 0.0
O37 O 0.55959 0.75476 0.1307 0.0
O38 O 0.51482 0.73276 0.98615 0.0
Mg39 Mg 0.76661 0.52437 0.1044 0.0
C40 C 0.74004 0.52911 0.97926 0.0
O41 O 0.7416 0.50384 0.97264 0.0
C42 C 0.79693 0.53057 0.2294 0.0
O43 O 0.77832 0.50114 0.21302 0.0
C44 C 0.70241 0.49705 0.15208 0.0
O45 O 0.69911 0.51186 0.10397 0.0
O46 O 0.7263 0.49456 0.15716 0.0
O47 O 0.75049 0.54555 0.03318 0.0
O48 O 0.79016 0.50632 0.04553 0.0
C49 C 0.81056 0.52736 0.01362 0.0
O50 O 0.81504 0.55542 0.02194 0.0
O51 O 0.79918 0.55006 0.18869 0.0
Mg52 Mg 0.24173 0.76773 0.14112 0.0
C53 C 0.20564 0.69849 0.10997 0.0
O54 O 0.19497 0.69919 0.16679 0.0
C55 C 0.28111 0.8123 0.24773 0.0
O56 O 0.26424 0.82321 0.22327 0.0
C57 C 0.19696 0.75654 0.24033 0.0
O58 O 0.22117 0.76064 0.27572 0.0
O59 O 0.19892 0.7602 0.17939 0.0
O60 O 0.22839 0.72305 0.09241 0.0
O61 O 0.26107 0.80005 0.06507 0.0
C62 C 0.28823 0.80605 0.05545 0.0
O63 O 0.30025 0.79304 0.09113 0.0
O64 O 0.27725 0.78696 0.22222 0.0
Mg65 Mg 0.49148 0.24042 0.18782 0.0
C66 C 0.51301 0.29289 0.29621 0.0
O67 O 0.5408 0.30351 0.27681 0.0
C68 C 0.53908 0.22389 0.19825 0.0
O69 O 0.52763 0.21542 0.25505 0.0
C70 C 0.49806 0.28819 0.10655 0.0
O71 O 0.52345 0.29963 0.14464 0.0
O72 O 0.47826 0.25972 0.10814 0.0
O73 O 0.49122 0.26723 0.2716 0.0
O74 O 0.46293 0.19201 0.2053 0.0
C75 C 0.44914 0.18516 0.25768 0.0
O76 O 0.44624 0.2064 0.29049 0.0
O77 O 0.53472 0.24367 0.17036 0.0
C78 C 0.98263 0.41757 0.79433 0.0
C79 C 0.07085 0.47332 0.72582 0.0
C80 C 0.04835 0.56865 0.75057 0.0
Mg81 Mg 0.00519 0.44125 0.65811 0.0
O82 O 1.00037 0.47382 0.69169 0.0
Mg83 Mg 0.02133 0.49492 0.77872 0.0
Mg84 Mg 0.01025 0.5104 0.64113 0.0
O85 O 0.01995 0.54689 0.59008 0.0
Mg86 Mg 0.01458 0.57904 0.62355 0.0
Mg87 Mg 0.99789 0.52512 0.50417 0.0
C88 C 0.97345 0.45296 0.53011 0.0
C89 C 0.05649 0.5153 0.52772 0.0
O90 O 0.99628 0.44572 0.81843 0.0
O91 O 0.98196 0.41052 0.73329 0.0
O92 O 0.06237 0.48855 0.76199 0.0
O93 O 0.05327 0.45471 0.6782 0.0
O94 O 0.98205 0.43598 0.55962 0.0
O95 O 0.97893 0.47915 0.55552 0.0
C96 C 0.96341 0.50543 0.753 0.0
O97 O 0.96985 0.51112 0.69334 0.0
O98 O 0.97989 0.49949 0.79199 0.0
O99 O 0.02133 0.57377 0.46263 0.0
O100 O 0.03602 0.60939 0.54695 0.0
O101 O 0.95637 0.53029 0.52388 0.0
C102 C 0.03465 0.60201 0.48588 0.0
O103 O 0.96616 0.56457 0.60735 0.0
O104 O 0.03964 0.58516 0.71947 0.0
C105 C 0.94803 0.5452 0.56138 0.0
O106 O 0.0417 0.54161 0.72771 0.0
O107 O 0.05051 0.50977 0.58774 0.0
O108 O 0.03965 0.52109 0.48931 0.0
C109 C 0.48562 0.05506 0.85945 0.0
C110 C 0.43152 0.96249 0.76426 0.0
C111 C 0.54603 0.98565 0.69945 0.0
Mg112 Mg 0.45806 0.02866 0.71773 0.0
O113 O 0.49571 0.03028 0.71458 0.0
Mg114 Mg 0.50887 0.01072 0.78248 0.0
Mg115 Mg 0.51184 0.02095 0.63611 0.0
O116 O 0.52939 0.01208 0.55964 0.0
Mg117 Mg 0.57028 0.02101 0.5692 0.0
Mg118 Mg 0.518 0.0329 0.49222 0.0
C119 C 0.47553 0.05383 0.57374 0.0
C120 C 0.45661 0.97177 0.53185 0.0
O121 O 0.49773 0.03783 0.85973 0.0
O122 O 0.47048 0.05633 0.80891 0.0
O123 O 0.45906 0.96922 0.78128 0.0
O124 O 0.42568 0.98157 0.73665 0.0
O125 O 0.45801 0.04695 0.62161 0.0
O126 O 0.49932 0.0506 0.57531 0.0
C127 C 0.57033 0.06922 0.73583 0.0
O128 O 0.55842 0.0632 0.67684 0.0
O129 O 0.55647 0.05218 0.78169 0.0
O130 O 0.53562 0.00988 0.41872 0.0
O131 O 0.56902 0.00037 0.47536 0.0
O132 O 0.56623 0.0768 0.50153 0.0
C133 C 0.55376 0.99884 0.42239 0.0
O134 O 0.59971 0.07 0.56316 0.0
O135 O 0.56656 0.99596 0.65747 0.0
C136 C 0.59326 0.08688 0.52845 0.0
O137 O 0.52329 0.99046 0.69665 0.0
O138 O 0.4653 0.97877 0.593 0.0
O139 O 0.47235 0.98891 0.48764 0.0
C140 C 0.53951 0.57294 0.42617 0.0
C141 C 0.57794 0.51688 0.48953 0.0
C142 C 0.4679 0.43634 0.5539 0.0
Mg143 Mg 0.56273 0.56195 0.56046 0.0
O144 O 0.52041 0.5327 0.55675 0.0
Mg145 Mg 0.50409 0.50129 0.48065 0.0
Mg146 Mg 0.50576 0.50491 0.62986 0.0
O147 O 0.49138 0.47712 0.70264 0.0
Mg148 Mg 0.44974 0.44585 0.69744 0.0
Mg149 Mg 0.50619 0.50886 0.77796 0.0
C150 C 0.5461 0.57224 0.70597 0.0
C151 C 0.56637 0.51429 0.71537 0.0
O152 O 0.51956 0.54394 0.41709 0.0
O153 O 0.55802 0.58441 0.47756 0.0
O154 O 0.54973 0.50306 0.46879 0.0
O155 O 0.58896 0.54003 0.53141 0.0
O156 O 0.56465 0.5814 0.65985 0.0
O157 O 0.52105 0.54601 0.70146 0.0
C158 C 0.44518 0.49707 0.54671 0.0
O159 O 0.45736 0.49852 0.6039 0.0
O160 O 0.45887 0.49861 0.495 0.0
O161 O 0.49131 0.46667 0.84217 0.0
O162 O 0.45434 0.42461 0.7827 0.0
O163 O 0.45887 0.50496 0.78642 0.0
C164 C 0.47234 0.4374 0.83443 0.0
O165 O 0.42191 0.46615 0.72223 0.0
O166 O 0.44958 0.42564 0.60009 0.0
C167 C 0.43089 0.48925 0.76352 0.0
O168 O 0.4905 0.46417 0.55756 0.0
O169 O 0.55407 0.51111 0.65729 0.0
O170 O 0.55249 0.51356 0.76638 0.0
H171 H 0.20576 0.542 0.28512 0.0
H172 H 0.16875 0.45145 0.35763 0.0
H173 H 0.17466 0.55286 0.358 0.0
H174 H 0.1374 0.46186 0.42839 0.0
H175 H 0.09268 0.49231 0.5764 0.0
H176 H 0.1339 0.48985 0.52223 0.0
H177 H 0.12143 0.5362 0.36093 0.0
H178 H 0.08145 0.53929 0.41487 0.0
C179 C 0.19119 0.52452 0.31673 0.0
C180 C 0.18955 0.49576 0.31478 0.0
C181 C 0.17324 0.53064 0.35841 0.0
C182 C 0.15328 0.50815 0.39906 0.0
C183 C 0.15268 0.47992 0.39869 0.0
C184 C 0.17052 0.47383 0.35727 0.0
C185 C 0.0991 0.50229 0.52984 0.0
C186 C 0.08338 0.51559 0.4998 0.0
C187 C 0.12262 0.50078 0.49854 0.0
C188 C 0.13103 0.51275 0.43685 0.0
C189 C 0.11605 0.5271 0.40855 0.0
C190 C 0.09269 0.52851 0.43944 0.0
H191 H 0.73678 0.18618 0.28511 0.0
H192 H 0.70992 0.25364 0.33065 0.0
H193 H 0.70335 0.15349 0.36578 0.0
H194 H 0.67685 0.22115 0.41149 0.0
H195 H 0.5888 0.13139 0.46445 0.0
H196 H 0.6284 0.1719 0.40575 0.0
H197 H 0.69487 0.14911 0.48392 0.0
H198 H 0.65514 0.10828 0.54246 0.0
C199 C 0.72404 0.1942 0.31277 0.0
C200 C 0.72586 0.22241 0.30093 0.0
C201 C 0.70505 0.17558 0.3594 0.0
C202 C 0.68737 0.1847 0.39505 0.0
C203 C 0.6899 0.21331 0.38444 0.0
C204 C 0.70895 0.23196 0.33811 0.0
C205 C 0.61201 0.13548 0.47058 0.0
C206 C 0.61863 0.11629 0.50768 0.0
C207 C 0.63478 0.15878 0.43688 0.0
C208 C 0.6647 0.16339 0.43924 0.0
C209 C 0.67189 0.14574 0.48015 0.0
C210 C 0.64915 0.12256 0.51433 0.0
H211 H 0.48615 0.68505 0.20739 0.0
H212 H 0.58362 0.72734 0.18663 0.0
H213 H 0.4876 0.6448 0.26813 0.0
H214 H 0.5849 0.68696 0.24549 0.0
H215 H 0.58261 0.63357 0.42177 0.0
H216 H 0.58062 0.67132 0.35501 0.0
H217 H 0.49529 0.60023 0.25648 0.0
H218 H 0.49684 0.56216 0.32505 0.0
C219 C 0.50785 0.68577 0.21577 0.0
C220 C 0.53481 0.70958 0.19266 0.0
C221 C 0.50863 0.66254 0.24996 0.0
C222 C 0.53638 0.66264 0.26171 0.0
C223 C 0.56322 0.68639 0.23818 0.0
C224 C 0.56246 0.70957 0.20428 0.0
C225 C 0.56349 0.62577 0.38555 0.0
C226 C 0.53983 0.59475 0.37901 0.0
C227 C 0.56244 0.6475 0.34693 0.0
C228 C 0.53775 0.63887 0.30045 0.0
C229 C 0.51443 0.6077 0.29246 0.0
C230 C 0.5155 0.58582 0.33123 0.0
H231 H 0.8547 0.58018 0.26442 0.0
H232 H 0.77963 0.49986 0.3386 0.0
H233 H 0.88718 0.58633 0.36307 0.0
H234 H 0.81158 0.5062 0.43673 0.0
H235 H 0.89458 0.49538 0.51303 0.0
H236 H 0.85452 0.49625 0.44445 0.0
H237 H 0.89777 0.59467 0.48639 0.0
H238 H 0.93798 0.59362 0.55597 0.0
C239 C 0.8449 0.56448 0.3026 0.0
C240 C 0.81488 0.53924 0.29335 0.0
C241 C 0.86341 0.56799 0.35917 0.0
C242 C 0.85206 0.5464 0.40727 0.0
C243 C 0.82119 0.52284 0.40013 0.0
C244 C 0.8029 0.51925 0.34385 0.0
C245 C 0.89479 0.51698 0.5099 0.0
C246 C 0.91925 0.54436 0.54016 0.0
C247 C 0.8719 0.51756 0.47033 0.0
C248 C 0.87313 0.54563 0.45933 0.0
C249 C 0.89637 0.57276 0.49346 0.0
C250 C 0.91909 0.57207 0.53412 0.0
H251 H 0.28625 0.86044 0.32371 0.0
H252 H 0.3271 0.80329 0.29893 0.0
H253 H 0.32642 0.8929 0.40763 0.0
H254 H 0.3674 0.83583 0.38401 0.0
H255 H 0.45479 0.93307 0.43611 0.0
H256 H 0.41001 0.88885 0.38086 0.0
H257 H 0.35233 0.89871 0.51765 0.0
H258 H 0.39795 0.9436 0.57366 0.0
C259 C 0.30359 0.85452 0.33683 0.0
C260 C 0.30377 0.82956 0.30378 0.0
C261 C 0.32644 0.87296 0.38567 0.0
C262 C 0.3502 0.86706 0.40246 0.0
C263 C 0.34952 0.84113 0.37178 0.0
C264 C 0.32646 0.82249 0.32308 0.0
C265 C 0.43261 0.92538 0.45535 0.0
C266 C 0.42969 0.94184 0.50868 0.0
C267 C 0.40694 0.89984 0.42396 0.0
C268 C 0.37754 0.89027 0.44456 0.0
C269 C 0.37472 0.9057 0.50041 0.0
C270 C 0.40072 0.9312 0.53269 0.0
H271 H 0.4567 0.27867 0.33432 0.0
H272 H 0.55125 0.35261 0.34492 0.0
H273 H 0.44191 0.313 0.3857 0.0
H274 H 0.53651 0.38683 0.39912 0.0
H275 H 0.49912 0.44901 0.4428 0.0
H276 H 0.50866 0.41358 0.37752 0.0
H277 H 0.44615 0.33856 0.48792 0.0
H278 H 0.43599 0.3736 0.55155 0.0
C279 C 0.47447 0.30217 0.34858 0.0
C280 C 0.50522 0.31291 0.33554 0.0
C281 C 0.46593 0.32186 0.37811 0.0
C282 C 0.48794 0.35271 0.39607 0.0
C283 C 0.51886 0.36333 0.38459 0.0
C284 C 0.52741 0.34361 0.35447 0.0
C285 C 0.48693 0.42486 0.45217 0.0
C286 C 0.46725 0.4143 0.50323 0.0
C287 C 0.49266 0.40461 0.41524 0.0
C288 C 0.47883 0.37343 0.42873 0.0
C289 C 0.45722 0.36243 0.47616 0.0
C290 C 0.45133 0.38261 0.51268 0.0
H291 H 0.58854 0.88095 0.97516 0.0
H292 H 0.49429 0.82153 0.90017 0.0
H293 H 0.59134 0.92224 0.91181 0.0
H294 H 0.49726 0.86276 0.83629 0.0
H295 H 0.50246 0.95184 0.78319 0.0
H296 H 0.50165 0.91372 0.85402 0.0
H297 H 0.5911 0.93469 0.79704 0.0
H298 H 0.59219 0.97318 0.72681 0.0
C299 C 0.56847 0.87661 0.94486 0.0
C300 C 0.54119 0.84791 0.94268 0.0
C301 C 0.57012 0.90028 0.90846 0.0
C302 C 0.54448 0.89584 0.86935 0.0
C303 C 0.51727 0.86706 0.86678 0.0
C304 C 0.51566 0.84334 0.90293 0.0
C305 C 0.52221 0.94876 0.78651 0.0
C306 C 0.54735 0.96557 0.74904 0.0
C307 C 0.52158 0.92664 0.82664 0.0
C308 C 0.54615 0.92092 0.83053 0.0
C309 C 0.57187 0.93864 0.79532 0.0
C310 C 0.57244 0.96067 0.75492 0.0
H311 H 0.7124 0.56418 0.98958 0.0
H312 H 0.72742 0.50656 0.85257 0.0
H313 H 0.67536 0.56477 0.9098 0.0
H314 H 0.69106 0.50769 0.77242 0.0
H315 H 0.58785 0.47438 0.7101 0.0
H316 H 0.63598 0.48337 0.76449 0.0
H317 H 0.66386 0.5792 0.8062 0.0
H318 H 0.61529 0.56969 0.75296 0.0
C319 C 0.70846 0.5524 0.9418 0.0
C320 C 0.72253 0.53502 0.92771 0.0
C321 C 0.68726 0.55276 0.89586 0.0
C322 C 0.67988 0.53591 0.83478 0.0
C323 C 0.69567 0.52036 0.81932 0.0
C324 C 0.71665 0.51987 0.86525 0.0
C325 C 0.60492 0.49758 0.72843 0.0
C326 C 0.59827 0.52146 0.72663 0.0
C327 C 0.63246 0.5028 0.75997 0.0
C328 C 0.65372 0.53199 0.79058 0.0
C329 C 0.64785 0.55637 0.78418 0.0
C330 C 0.6203 0.55108 0.75283 0.0
H331 H 0.21172 0.69671 0.97848 0.0
H332 H 0.15491 0.64268 0.12836 0.0
H333 H 0.17304 0.661 0.89478 0.0
H334 H 0.11645 0.60661 0.04371 0.0
H335 H 0.07143 0.54252 0.83577 0.0
H336 H 0.11139 0.56932 0.92561 0.0
H337 H 0.11423 0.65447 0.88769 0.0
H338 H 0.07423 0.62816 0.79995 0.0
C339 C 0.19149 0.67675 0.99371 0.0
C340 C 0.18628 0.67284 0.06029 0.0
C341 C 0.16931 0.65637 0.94566 0.0
C342 C 0.14174 0.63133 0.96304 0.0
C343 C 0.13759 0.62576 0.02925 0.0
C344 C 0.15961 0.64644 0.07756 0.0
C345 C 0.08019 0.56683 0.8473 0.0
C346 C 0.06954 0.58311 0.8103 0.0
C347 C 0.10311 0.58211 0.89853 0.0
C348 C 0.11608 0.61397 0.91259 0.0
C349 C 0.10483 0.62996 0.8771 0.0
C350 C 0.08171 0.61473 0.82704 0.0
H351 H 0.5553 0.22951 0.07221 0.0
H352 H 0.52938 0.16694 0.2269 0.0
H353 H 0.54433 0.18727 0.99316 0.0
H354 H 0.51806 0.12468 0.14735 0.0
H355 H 0.47231 0.1014 0.87084 0.0
H356 H 0.49186 0.14303 0.95595 0.0
H357 H 0.53707 0.10225 0.06097 0.0
H358 H 0.51741 0.06024 0.97575 0.0
C359 C 0.54804 0.20696 0.08968 0.0
C360 C 0.5424 0.20145 0.15562 0.0
C361 C 0.54147 0.18272 0.04427 0.0
C362 C 0.52938 0.15257 0.06393 0.0
C363 C 0.52707 0.14766 0.13078 0.0
C364 C 0.53364 0.17195 0.17635 0.0
C365 C 0.48607 0.10097 0.91234 0.0
C366 C 0.49338 0.07748 0.91612 0.0
C367 C 0.49762 0.12508 0.96071 0.0
C368 C 0.51658 0.12622 0.01425 0.0
C369 C 0.5227 0.10203 0.01994 0.0
C370 C 0.51132 0.07795 0.9712 0.0
H371 H 0.30579 0.44607 0.04355 0.0
H372 H 0.32431 0.53908 0.02396 0.0
H373 H 0.33574 0.45013 0.95186 0.0
H374 H 0.35528 0.54327 0.93112 0.0
H375 H 0.44165 0.53922 0.84326 0.0
H376 H 0.40621 0.54226 0.91626 0.0
H377 H 0.33297 0.45518 0.82942 0.0
H378 H 0.36826 0.45196 0.75638 0.0
C379 C 0.31633 0.46754 0.01979 0.0
C380 C 0.3127 0.49234 0.04157 0.0
C381 C 0.33328 0.46968 0.9665 0.0
C382 C 0.34754 0.49684 0.93357 0.0
C383 C 0.34436 0.52197 0.95541 0.0
C384 C 0.32674 0.5196 1.00852 0.0
C385 C 0.41778 0.52109 0.83837 0.0
C386 C 0.40797 0.49503 0.7946 0.0
C387 C 0.39746 0.52296 0.88015 0.0
C388 C 0.36696 0.49872 0.87938 0.0
C389 C 0.3565 0.47402 0.83173 0.0
C390 C 0.37672 0.47226 0.78958 0.0
H391 H 0.83587 0.25181 0.9208 0.0
H392 H 0.88169 0.30182 0.10512 0.0
H393 H 0.87835 0.2894 0.86379 0.0
H394 H 0.92492 0.33906 0.04801 0.0
H395 H 0.96511 0.42185 0.91678 0.0
H396 H 0.93236 0.3799 0.98236 0.0
H397 H 0.92986 0.31404 0.83689 0.0
H398 H 0.96169 0.35601 0.77017 0.0
C399 C 0.85545 0.2703 0.94945 0.0
C400 C 0.85505 0.27401 0.0175 0.0
C401 C 0.88001 0.29193 0.91663 0.0
C402 C 0.90496 0.3177 0.95105 0.0
C403 C 0.90577 0.31994 0.01972 0.0
C404 C 0.8811 0.29834 0.05259 0.0
C405 C 0.95789 0.39845 0.89912 0.0
C406 C 0.96571 0.39232 0.83777 0.0
C407 C 0.93924 0.37431 0.93705 0.0
C408 C 0.9282 0.34342 0.9149 0.0
C409 C 0.93738 0.33745 0.85501 0.0
C410 C 0.95575 0.36156 0.81678 0.0
H411 H 0.85346 0.56812 0.93761 0.0
H412 H 0.80891 0.47264 0.98295 0.0
H413 H 0.88568 0.55967 0.86517 0.0
H414 H 0.84095 0.46398 0.90888 0.0
H415 H 0.93058 0.53289 0.70934 0.0
H416 H 0.88922 0.53507 0.7637 0.0
H417 H 0.8942 0.47875 0.91212 0.0
H418 H 0.93444 0.47614 0.85803 0.0
C419 C 0.8503 0.54517 0.93169 0.0
C420 C 0.82881 0.52112 0.96694 0.0
C421 C 0.86862 0.54028 0.88937 0.0
C422 C 0.86605 0.51118 0.88106 0.0
C423 C 0.84384 0.48682 0.9147 0.0
C424 C 0.82543 0.49173 0.95714 0.0
C425 C 0.92244 0.52065 0.75297 0.0
C426 C 0.93618 0.50475 0.7797 0.0
C427 C 0.89889 0.52201 0.78439 0.0
C428 C 0.8884 0.50717 0.84261 0.0
C429 C 0.90128 0.49016 0.86718 0.0
C430 C 0.92475 0.48899 0.83631 0.0
H431 H 0.34956 0.83241 0.04581 0.0
H432 H 0.26848 0.82694 0.95226 0.0
H433 H 0.38057 0.86613 0.96533 0.0
H434 H 0.29957 0.86005 0.86887 0.0
H435 H 0.37402 0.95128 0.78751 0.0
H436 H 0.33702 0.91116 0.85125 0.0
H437 H 0.39354 0.86895 0.85755 0.0
H438 H 0.43132 0.91012 0.79683 0.0
C439 C 0.33824 0.83816 1.00743 0.0
C440 C 0.30651 0.82696 1.00554 0.0
C441 C 0.35606 0.85732 0.96054 0.0
C442 C 0.34268 0.8656 0.90953 0.0
C443 C 0.3108 0.85438 0.90754 0.0
C444 C 0.29292 0.83537 0.95526 0.0
C445 C 0.37822 0.93304 0.80122 0.0
C446 C 0.40586 0.93415 0.78785 0.0
C447 C 0.3569 0.90992 0.83789 0.0
C448 C 0.3625 0.88708 0.86123 0.0
C449 C 0.38888 0.88671 0.84254 0.0
C450 C 0.41043 0.91013 0.80696 0.0
H451 H 0.52133 0.34901 0.13636 0.0
H452 H 0.46047 0.27522 0.99464 0.0
H453 H 0.51239 0.38505 0.07787 0.0
H454 H 0.45276 0.31184 0.93302 0.0
H455 H 0.42694 0.37964 0.85821 0.0
H456 H 0.43099 0.34339 0.92764 0.0
H457 H 0.52539 0.41205 0.9852 0.0
H458 H 0.52064 0.44856 0.91868 0.0
C459 C 0.50628 0.34057 0.09198 0.0
C460 C 0.49184 0.30935 0.06959 0.0
C461 C 0.50125 0.36134 0.05813 0.0
C462 C 0.48214 0.35164 1.00001 0.0
C463 C 0.46733 0.32019 0.978 0.0
C464 C 0.47189 0.29918 0.01288 0.0
C465 C 0.44836 0.38709 0.88674 0.0
C466 C 0.47344 0.41699 0.88318 0.0
C467 C 0.45082 0.36618 0.92599 0.0
C468 C 0.47861 0.37451 0.96179 0.0
C469 C 0.50341 0.40479 0.95942 0.0
C470 C 0.50075 0.42585 0.92112 0.0
H471 H 0.20483 0.43058 0.91473 0.0
H472 H 0.15852 0.45565 0.05558 0.0
H473 H 0.17559 0.43789 0.82565 0.0
H474 H 0.12987 0.46323 0.9668 0.0
H475 H 0.11823 0.51573 0.80845 0.0
H476 H 0.15096 0.5055 0.88132 0.0
H477 H 0.11722 0.41679 0.77834 0.0
H478 H 0.08385 0.42675 0.70529 0.0
C479 C 0.18803 0.43704 0.92677 0.0
C480 C 0.18423 0.44276 0.99245 0.0
C481 C 0.17142 0.44132 0.8757 0.0
C482 C 0.15105 0.45181 0.88942 0.0
C483 C 0.14593 0.45574 0.9549 0.0
C484 C 0.16214 0.45106 1.00579 0.0
C485 C 0.11842 0.49442 0.7998 0.0
C486 C 0.09802 0.47187 0.75158 0.0
C487 C 0.13694 0.48844 0.84206 0.0
C488 C 0.13588 0.45998 0.83662 0.0
C489 C 0.11821 0.4388 0.78392 0.0
C490 C 0.09934 0.44467 0.74169 0.0
H491 H 0.74061 0.21478 0.93785 0.0
H492 H 0.66258 0.21776 1.00798 0.0
H493 H 0.70773 0.17838 0.84763 0.0
H494 H 0.62989 0.18174 0.9167 0.0
H495 H 0.58191 0.12763 0.72349 0.0
H496 H 0.62232 0.17405 0.78644 0.0
H497 H 0.66254 0.12162 0.85843 0.0
H498 H 0.62171 0.07528 0.79744 0.0
C499 C 0.71661 0.20828 0.93326 0.0
C500 C 0.70416 0.21899 0.98059 0.0
C501 C 0.69782 0.18739 0.88156 0.0
C502 C 0.66631 0.17726 0.87522 0.0
C503 C 0.65419 0.18941 0.92008 0.0
C504 C 0.67287 0.20989 0.97254 0.0
C505 C 0.60013 0.12645 0.75076 0.0
C506 C 0.59906 0.09811 0.75518 0.0
C507 C 0.62298 0.15284 0.78727 0.0
C508 C 0.64545 0.15135 0.82743 0.0
C509 C 0.64569 0.1235 0.82746 0.0
C510 C 0.62245 0.09703 0.79239 0.0
H511 H 0.59433 0.73717 0.95703 0.0
H512 H 0.49608 0.68405 0.9128 0.0
H513 H 0.5994 0.6953 0.9066 0.0
H514 H 0.5012 0.64274 0.86122 0.0
H515 H 0.59287 0.63196 0.72558 0.0
H516 H 0.59417 0.67183 0.79835 0.0
H517 H 0.51354 0.60325 0.88514 0.0
H518 H 0.51156 0.56336 0.81082 0.0
C519 C 0.57387 0.71669 0.93607 0.0
C520 C 0.54482 0.71393 0.93859 0.0
C521 C 0.57677 0.6927 0.90742 0.0
C522 C 0.55068 0.66558 0.88064 0.0
C523 C 0.52169 0.663 0.88288 0.0
C524 C 0.51878 0.68686 0.91167 0.0
C525 C 0.57577 0.62519 0.76112 0.0
C526 C 0.55162 0.59454 0.76117 0.0
C527 C 0.57663 0.64812 0.80311 0.0
C528 C 0.55351 0.64077 0.84631 0.0
C529 C 0.53118 0.6097 0.85098 0.0
C530 C 0.5302 0.58678 0.80872 0.0
H531 H 0.46846 0.14476 0.22173 0.0
H532 H 0.42107 0.16405 0.3699 0.0
H533 H 0.4714 0.10722 0.28933 0.0
H534 H 0.42434 0.12708 0.43744 0.0
H535 H 0.42068 0.0496 0.53949 0.0
H536 H 0.40896 0.07441 0.45256 0.0
H537 H 0.50087 0.1111 0.39055 0.0
H538 H 0.5124 0.08552 0.47691 0.0
C539 C 0.45807 0.14053 0.26803 0.0
C540 C 0.44479 0.15766 0.29071 0.0
C541 C 0.46003 0.11921 0.30704 0.0
C542 C 0.44844 0.11435 0.3692 0.0
C543 C 0.43331 0.12997 0.38969 0.0
C544 C 0.4315 0.15132 0.35095 0.0
C545 C 0.43834 0.06267 0.50691 0.0
C546 C 0.46766 0.06595 0.51581 0.0
C547 C 0.43161 0.07696 0.45709 0.0
C548 C 0.45407 0.09514 0.41508 0.0
C549 C 0.48291 0.09708 0.42168 0.0
C550 C 0.48961 0.08255 0.47143 0.0
H551 H 0.28575 0.40727 0.30608 0.0
H552 H 0.28244 0.48853 0.36903 0.0
H553 H 0.32524 0.41934 0.39409 0.0
H554 H 0.32151 0.50033 0.45676 0.0
H555 H 0.42713 0.53468 0.49677 0.0
H556 H 0.37656 0.5188 0.44511 0.0
H557 H 0.34174 0.42799 0.51505 0.0
H558 H 0.39276 0.44439 0.56776 0.0
C559 C 0.29283 0.42721 0.33961 0.0
C560 C 0.2814 0.44725 0.32967 0.0
C561 C 0.31535 0.43407 0.39028 0.0
C562 C 0.32678 0.46103 0.4319 0.0
C563 C 0.31355 0.47967 0.42492 0.0
C564 C 0.29115 0.47286 0.37451 0.0
C565 C 0.40827 0.51184 0.50375 0.0
C566 C 0.41355 0.49092 0.53703 0.0
C567 C 0.3793 0.50261 0.4739 0.0
C568 C 0.35515 0.47202 0.47554 0.0
C569 C 0.35994 0.45164 0.51268 0.0
C570 C 0.38894 0.46111 0.54361 0.0
H571 H 0.81455 0.35287 0.26637 0.0
H572 H 0.88704 0.36633 0.14343 0.0
H573 H 0.85302 0.38812 0.35156 0.0
H574 H 0.92526 0.40104 0.22902 0.0
H575 H 0.97162 0.4099 0.44158 0.0
H576 H 0.93716 0.38642 0.34289 0.0
H577 H 0.89851 0.44484 0.37753 0.0
H578 H 0.93328 0.46874 0.47576 0.0
C579 C 0.8386 0.36389 0.25689 0.0
C580 C 0.84768 0.3566 0.19827 0.0
C581 C 0.86061 0.38408 0.30563 0.0
C582 C 0.89208 0.39698 0.29705 0.0
C583 C 0.90114 0.39115 0.23705 0.0
C584 C 0.87918 0.37142 0.18791 0.0
C585 C 0.95613 0.41808 0.42761 0.0
C586 C 0.95518 0.44115 0.46651 0.0
C587 C 0.93652 0.40475 0.37096 0.0
C588 C 0.91517 0.41383 0.3527 0.0
C589 C 0.91471 0.43741 0.39062 0.0
C590 C 0.93475 0.45117 0.44659 0.0
H591 H 0.50218 0.84552 0.13499 0.0
H592 H 0.57022 0.84972 0.27673 0.0
H593 H 0.51002 0.89431 0.18219 0.0
H594 H 0.57694 0.89762 0.32656 0.0
H595 H 0.60116 0.99237 0.38382 0.0
H596 H 0.59713 0.95014 0.31352 0.0
H597 H 0.50007 0.91606 0.27344 0.0
H598 H 0.50475 0.95931 0.34046 0.0
C599 C 0.51844 0.85666 0.17708 0.0
C600 C 0.53546 0.84379 0.20266 0.0
C601 C 0.52297 0.88466 0.2041 0.0
C602 C 0.54426 0.90012 0.25801 0.0
C603 C 0.56094 0.88688 0.284 0.0
C604 C 0.55682 0.85918 0.25614 0.0
C605 C 0.57925 0.97636 0.35805 0.0
C606 C 0.55326 0.97893 0.36755 0.0
C607 C 0.57679 0.9519 0.31859 0.0
C608 C 0.54809 0.92912 0.28927 0.0
C609 C 0.52259 0.93315 0.29488 0.0
C610 C 0.52524 0.95803 0.33322 0.0
H611 H 0.64291 0.48332 0.1483 0.0
H612 H 0.71858 0.49896 0.28202 0.0
H613 H 0.61391 0.48316 0.24045 0.0
H614 H 0.68967 0.49948 0.37455 0.0
H615 H 0.64109 0.54913 0.48683 0.0
H616 H 0.67138 0.53821 0.41143 0.0
H617 H 0.59021 0.45313 0.34089 0.0
H618 H 0.56015 0.46363 0.41607 0.0
C619 C 0.65306 0.48603 0.19746 0.0
C620 C 0.68291 0.49093 0.20783 0.0
C621 C 0.63648 0.48597 0.25028 0.0
C622 C 0.64958 0.49143 0.31476 0.0
C623 C 0.67906 0.49532 0.32541 0.0
C624 C 0.69543 0.49469 0.27245 0.0
C625 C 0.62992 0.52767 0.45671 0.0
C626 C 0.59807 0.50756 0.45682 0.0
C627 C 0.64726 0.52142 0.41346 0.0
C628 C 0.63301 0.49506 0.36948 0.0
C629 C 0.60172 0.47386 0.37339 0.0
C630 C 0.58453 0.47993 0.4167 0.0
H631 H 0.13999 0.71765 0.179 0.0
H632 H 0.18681 0.75981 0.36765 0.0
H633 H 0.09379 0.68259 0.23234 0.0
H634 H 0.14135 0.72479 0.42075 0.0
H635 H 0.05636 0.66366 0.51016 0.0
H636 H 0.08899 0.70534 0.44363 0.0
H637 H 0.08291 0.6387 0.29553 0.0
H638 H 0.04956 0.59701 0.36113 0.0
C639 C 0.14008 0.72009 0.23164 0.0
C640 C 0.16703 0.74126 0.26931 0.0
C641 C 0.11377 0.69979 0.26225 0.0
C642 C 0.11395 0.70057 0.33089 0.0
C643 C 0.14017 0.7236 0.36787 0.0
C644 C 0.16637 0.74365 0.33743 0.0
C645 C 0.06157 0.65787 0.46292 0.0
C646 C 0.05078 0.62699 0.44152 0.0
C647 C 0.0803 0.68179 0.42479 0.0
C648 C 0.08895 0.67543 0.36461 0.0
C649 C 0.07652 0.64449 0.34131 0.0
C650 C 0.05756 0.62053 0.37925 0.0
loop_
_geom_bond_atom_site_label_1
_geom_bond_atom_site_label_2
_geom_bond_distance
_geom_bond_site_symmetry_2
_ccdc_geom_bond_type
Mg0 O7 2.141 . S
Mg0 O8 2.048 . S
Mg0 O9 2.048 . S
Mg0 O12 2.141 . S
C1 O2 1.313 . S
C1 O8 1.195 . S
O2 C1 1.313 . S
C3 O4 1.245 . S
C3 O12 1.289 . S
O4 C3 1.245 . S
C5 O6 1.245 . S
C5 O7 1.289 . S
O6 C5 1.245 . S
O7 Mg0 2.141 . S
O7 C5 1.289 . S
O8 Mg0 2.048 . S
O8 C1 1.195 . S
O9 Mg0 2.048 . S
O9 C10 1.195 . S
C10 O9 1.195 . S
C10 O11 1.313 . S
O11 C10 1.313 . S
O12 Mg0 2.141 . S
O12 C3 1.289 . S
Mg13 O20 2.141 . S
Mg13 O21 2.048 . S
Mg13 O22 2.048 . S
Mg13 O25 2.141 . S
C14 O15 1.313 . S
C14 O21 1.195 . S
O15 C14 1.313 . S
C16 O17 1.245 . S
C16 O25 1.289 . S
O17 C16 1.245 . S
C18 O19 1.245 . S
C18 O20 1.289 . S
O19 C18 1.245 . S
O20 Mg13 2.141 . S
O20 C18 1.289 . S
O21 Mg13 2.048 . S
O21 C14 1.195 . S
O22 Mg13 2.048 . S
O22 C23 1.195 . S
C23 O22 1.195 . S
C23 O24 1.313 . S
O24 C23 1.313 . S
O25 Mg13 2.141 . S
O25 C16 1.289 . S
Mg26 O33 2.141 1_554 S
Mg26 O34 2.048 . S
Mg26 O35 2.048 . S
Mg26 O38 2.141 1_554 S
C27 O28 1.313 . S
C27 O34 1.195 . S
O28 C27 1.313 . S
C29 O30 1.245 . S
C29 O38 1.289 . S
O30 C29 1.245 . S
C31 O32 1.245 . S
C31 O33 1.289 . S
O32 C31 1.245 . S
O33 Mg26 2.141 1_556 S
O33 C31 1.289 . S
O34 Mg26 2.048 . S
O34 C27 1.195 . S
O35 Mg26 2.048 . S
O35 C36 1.195 . S
C36 O35 1.195 . S
C36 O37 1.313 . S
O37 C36 1.313 . S
O38 Mg26 2.141 1_556 S
O38 C29 1.289 . S
Mg39 O46 2.141 . S
Mg39 O47 2.048 . S
Mg39 O48 2.048 . S
Mg39 O51 2.141 . S
C40 O41 1.313 . S
C40 O47 1.195 1_556 S
O41 C40 1.313 . S
C42 O43 1.245 . S
C42 O51 1.289 . S
O43 C42 1.245 . S
C44 O45 1.245 . S
C44 O46 1.289 . S
O45 C44 1.245 . S
O46 Mg39 2.141 . S
O46 C44 1.289 . S
O47 Mg39 2.048 . S
O47 C40 1.195 1_554 S
O48 Mg39 2.048 . S
O48 C49 1.195 1_554 S
C49 O48 1.195 1_556 S
C49 O50 1.313 . S
O50 C49 1.313 . S
O51 Mg39 2.141 . S
O51 C42 1.289 . S
Mg52 O59 2.141 . S
Mg52 O60 2.048 . S
Mg52 O61 2.048 . S
Mg52 O64 2.141 . S
C53 O54 1.312 1_554 S
C53 O60 1.195 . S
O54 C53 1.312 1_556 S
C55 O56 1.245 . S
C55 O64 1.289 . S
O56 C55 1.245 . S
C57 O58 1.245 . S
C57 O59 1.289 . S
O58 C57 1.245 . S
O59 Mg52 2.141 . S
O59 C57 1.289 . S
O60 Mg52 2.048 . S
O60 C53 1.195 . S
O61 Mg52 2.048 . S
O61 C62 1.195 . S
C62 O61 1.195 . S
C62 O63 1.313 . S
O63 C62 1.313 . S
O64 Mg52 2.141 . S
O64 C55 1.289 . S
Mg65 O72 2.141 . S
Mg65 O73 2.048 . S
Mg65 O74 2.048 . S
Mg65 O77 2.141 . S
C66 O67 1.313 . S
C66 O73 1.195 . S
O67 C66 1.313 . S
C68 O69 1.245 . S
C68 O77 1.289 . S
O69 C68 1.245 . S
C70 O71 1.245 . S
C70 O72 1.289 . S
O71 C70 1.245 . S
O72 Mg65 2.141 . S
O72 C70 1.289 . S
O73 Mg65 2.048 . S
O73 C66 1.195 . S
O74 Mg65 2.048 . S
O74 C75 1.195 . S
C75 O74 1.195 . S
C75 O76 1.313 . S
O76 C75 1.313 . S
O77 Mg65 2.141 . S
O77 C68 1.289 . S
C78 O90 1.241 . S
C78 O91 1.280 . S
C79 O92 1.277 . S
C79 O93 1.245 . S
C80 O104 1.247 . S
C80 O106 1.289 . S
Mg81 O82 1.926 . S
Mg81 O91 1.984 . S
Mg81 O93 1.988 1_655 S
Mg81 O94 2.061 . S
O82 Mg81 1.926 . S
O82 Mg83 1.986 1_655 S
O82 Mg84 1.917 1_655 S
Mg83 O82 1.986 1_455 S
Mg83 O90 2.042 1_455 S
Mg83 O92 2.041 . S
Mg83 O98 2.038 1_455 S
Mg83 O106 2.238 . S
Mg84 O82 1.917 1_455 S
Mg84 O85 1.917 . S
Mg84 O95 2.106 1_455 S
Mg84 O97 2.079 1_455 S
Mg84 O106 2.106 . S
Mg84 O107 2.079 . S
O85 Mg84 1.917 . S
O85 Mg86 1.926 . S
O85 Mg87 1.986 . S
Mg86 O85 1.926 . S
Mg86 O100 1.984 . S
Mg86 O103 1.988 1_455 S
Mg86 O104 2.061 . S
Mg87 O85 1.986 . S
Mg87 O95 2.238 1_455 S
Mg87 O99 2.042 . S
Mg87 O101 2.041 1_455 S
Mg87 O108 2.038 . S
C88 O94 1.247 . S
C88 O95 1.289 . S
C89 O107 1.245 . S
C89 O108 1.274 . S
O90 C78 1.241 . S
O90 Mg83 2.042 1_655 S
O91 C78 1.280 . S
O91 Mg81 1.984 . S
O92 C79 1.277 . S
O92 Mg83 2.041 . S
O93 C79 1.245 . S
O93 Mg81 1.988 1_455 S
O94 Mg81 2.061 . S
O94 C88 1.247 . S
O95 Mg84 2.106 1_655 S
O95 Mg87 2.238 1_655 S
O95 C88 1.289 . S
C96 O97 1.245 . S
C96 O98 1.274 . S
O97 Mg84 2.079 1_655 S
O97 C96 1.245 . S
O98 Mg83 2.038 1_655 S
O98 C96 1.274 . S
O99 Mg87 2.042 . S
O99 C102 1.241 . S
O100 Mg86 1.984 . S
O100 C102 1.280 . S
O101 Mg87 2.041 1_655 S
O101 C105 1.277 . S
C102 O99 1.241 . S
C102 O100 1.280 . S
O103 Mg86 1.988 1_655 S
O103 C105 1.245 . S
O104 C80 1.247 . S
O104 Mg86 2.061 . S
C105 O101 1.277 . S
C105 O103 1.245 . S
O106 C80 1.289 . S
O106 Mg83 2.238 . S
O106 Mg84 2.106 . S
O107 Mg84 2.079 . S
O107 C89 1.245 . S
O108 Mg87 2.038 . S
O108 C89 1.274 . S
C109 O121 1.241 . S
C109 O122 1.280 . S
C110 O123 1.277 . S
C110 O124 1.245 . S
C111 O135 1.247 . S
C111 O137 1.289 . S
Mg112 O113 1.926 . S
Mg112 O122 1.984 . S
Mg112 O124 1.988 1_545 S
Mg112 O125 2.061 . S
O113 Mg112 1.926 . S
O113 Mg114 1.986 . S
O113 Mg115 1.917 . S
Mg114 O113 1.986 . S
Mg114 O121 2.042 . S
Mg114 O123 2.041 1_545 S
Mg114 O129 2.038 . S
Mg114 O137 2.238 1_545 S
Mg115 O113 1.917 . S
Mg115 O116 1.904 1_545 S
Mg115 O126 2.106 . S
Mg115 O128 2.079 . S
Mg115 O137 2.106 1_545 S
Mg115 O138 2.079 1_545 S
O116 Mg115 1.904 1_565 S
O116 Mg117 1.941 . S
O116 Mg118 1.974 1_565 S
Mg117 O116 1.941 . S
Mg117 O131 1.984 . S
Mg117 O134 1.988 1_565 S
Mg117 O135 2.061 . S
Mg118 O116 1.974 1_545 S
Mg118 O126 2.238 . S
Mg118 O130 2.042 1_545 S
Mg118 O132 2.041 . S
Mg118 O139 2.038 1_545 S
C119 O125 1.247 . S
C119 O126 1.289 . S
C120 O138 1.245 . S
C120 O139 1.274 . S
O121 C109 1.241 . S
O121 Mg114 2.042 . S
O122 C109 1.280 . S
O122 Mg112 1.984 . S
O123 C110 1.277 . S
O123 Mg114 2.041 1_565 S
O124 C110 1.245 . S
O124 Mg112 1.988 1_565 S
O125 Mg112 2.061 . S
O125 C119 1.247 . S
O126 Mg115 2.106 . S
O126 Mg118 2.238 . S
O126 C119 1.289 . S
C127 O128 1.245 . S
C127 O129 1.274 . S
O128 Mg115 2.079 . S
O128 C127 1.245 . S
O129 Mg114 2.038 . S
O129 C127 1.274 . S
O130 Mg118 2.042 1_565 S
O130 C133 1.241 . S
O131 Mg117 1.984 . S
O131 C133 1.280 . S
O132 Mg118 2.041 . S
O132 C136 1.277 . S
C133 O130 1.241 . S
C133 O131 1.280 . S
O134 Mg117 1.988 1_545 S
O134 C136 1.245 . S
O135 C111 1.247 . S
O135 Mg117 2.061 . S
C136 O132 1.277 . S
C136 O134 1.245 . S
O137 C111 1.289 . S
O137 Mg114 2.238 1_565 S
O137 Mg115 2.106 1_565 S
O138 Mg115 2.079 1_565 S
O138 C120 1.245 . S
O139 Mg118 2.038 1_565 S
O139 C120 1.274 . S
C140 O152 1.241 . S
C140 O153 1.280 . S
C141 O154 1.277 . S
C141 O155 1.245 . S
C142 O166 1.247 . S
C142 O168 1.289 . S
Mg143 O144 1.926 . S
Mg143 O153 1.984 . S
Mg143 O155 1.988 . S
Mg143 O156 2.061 . S
O144 Mg143 1.926 . S
O144 Mg145 1.986 . S
O144 Mg146 1.917 . S
Mg145 O144 1.986 . S
Mg145 O152 2.042 . S
Mg145 O154 2.041 . S
Mg145 O160 2.038 . S
Mg145 O168 2.238 . S
Mg146 O144 1.917 . S
Mg146 O147 1.917 . S
Mg146 O157 2.106 . S
Mg146 O159 2.079 . S
Mg146 O168 2.106 . S
Mg146 O169 2.079 . S
O147 Mg146 1.917 . S
O147 Mg148 1.926 . S
O147 Mg149 1.986 . S
Mg148 O147 1.926 . S
Mg148 O162 1.984 . S
Mg148 O165 1.988 . S
Mg148 O166 2.061 . S
Mg149 O147 1.986 . S
Mg149 O157 2.238 . S
Mg149 O161 2.042 . S
Mg149 O163 2.041 . S
Mg149 O170 2.038 . S
C150 O156 1.247 . S
C150 O157 1.289 . S
C151 O169 1.245 . S
C151 O170 1.274 . S
O152 C140 1.241 . S
O152 Mg145 2.042 . S
O153 C140 1.280 . S
O153 Mg143 1.984 . S
O154 C141 1.277 . S
O154 Mg145 2.041 . S
O155 C141 1.245 . S
O155 Mg143 1.988 . S
O156 Mg143 2.061 . S
O156 C150 1.247 . S
O157 Mg146 2.106 . S
O157 Mg149 2.238 . S
O157 C150 1.289 . S
C158 O159 1.245 . S
C158 O160 1.274 . S
O159 Mg146 2.079 . S
O159 C158 1.245 . S
O160 Mg145 2.038 . S
O160 C158 1.274 . S
O161 Mg149 2.042 . S
O161 C164 1.241 . S
O162 Mg148 1.984 . S
O162 C164 1.280 . S
O163 Mg149 2.041 . S
O163 C167 1.277 . S
C164 O161 1.241 . S
C164 O162 1.280 . S
O165 Mg148 1.988 . S
O165 C167 1.245 . S
O166 C142 1.247 . S
O166 Mg148 2.061 . S
C167 O163 1.277 . S
C167 O165 1.245 . S
O168 C142 1.289 . S
O168 Mg145 2.238 . S
O168 Mg146 2.106 . S
O169 Mg146 2.079 . S
O169 C151 1.245 . S
O170 Mg149 2.038 . S
O170 C151 1.274 . S
H171 C179 0.950 . S
H172 C184 0.950 . S
H173 C181 0.950 . S
H174 C183 0.950 . S
H175 C185 0.950 . S
H176 C187 0.950 . S
H177 C189 0.950 . S
H178 C190 0.950 . S
C179 H171 0.950 . S
C179 C180 1.386 . S
C179 C181 1.391 . S
C180 C179 1.386 . S
C180 C184 1.393 . S
C181 H173 0.950 . S
C181 C179 1.391 . S
C181 C182 1.400 . S
C182 C181 1.400 . S
C182 C183 1.398 . S
C182 C188 1.491 . S
C183 H174 0.950 . S
C183 C182 1.398 . S
C183 C184 1.391 . S
C184 H172 0.950 . S
C184 C180 1.393 . S
C184 C183 1.391 . S
C185 H175 0.950 . S
C185 C186 1.386 . S
C185 C187 1.391 . S
C186 C185 1.386 . S
C186 C190 1.393 . S
C187 H176 0.950 . S
C187 C185 1.391 . S
C187 C188 1.400 . S
C188 C182 1.491 . S
C188 C187 1.400 . S
C188 C189 1.398 . S
C189 H177 0.950 . S
C189 C188 1.398 . S
C189 C190 1.391 . S
C190 H178 0.950 . S
C190 C186 1.393 . S
C190 C189 1.391 . S
H191 C199 0.950 . S
H192 C204 0.950 . S
H193 C201 0.950 . S
H194 C203 0.950 . S
H195 C205 0.950 . S
H196 C207 0.950 . S
H197 C209 0.950 . S
H198 C210 0.950 . S
C199 H191 0.950 . S
C199 C200 1.386 . S
C199 C201 1.391 . S
C200 C199 1.386 . S
C200 C204 1.393 . S
C201 H193 0.950 . S
C201 C199 1.391 . S
C201 C202 1.400 . S
C202 C201 1.400 . S
C202 C203 1.398 . S
C202 C208 1.491 . S
C203 H194 0.950 . S
C203 C202 1.398 . S
C203 C204 1.391 . S
C204 H192 0.950 . S
C204 C200 1.393 . S
C204 C203 1.391 . S
C205 H195 0.950 . S
C205 C206 1.386 . S
C205 C207 1.391 . S
C206 C205 1.386 . S
C206 C210 1.393 . S
C207 H196 0.950 . S
C207 C205 1.391 . S
C207 C208 1.400 . S
C208 C202 1.491 . S
C208 C207 1.400 . S
C208 C209 1.398 . S
C209 H197 0.950 . S
C209 C208 1.398 . S
C209 C210 1.391 . S
C210 H198 0.950 . S
C210 C206 1.393 . S
C210 C209 1.391 . S
H211 C219 0.950 . S
H212 C224 0.950 . S
H213 C221 0.950 . S
H214 C223 0.950 . S
H215 C225 0.950 . S
H216 C227 0.950 . S
H217 C229 0.950 . S
H218 C230 0.950 . S
C219 H211 0.950 . S
C219 C220 1.386 . S
C219 C221 1.391 . S
C220 C219 1.386 . S
C220 C224 1.393 . S
C221 H213 0.950 . S
C221 C219 1.391 . S
C221 C222 1.400 . S
C222 C221 1.400 . S
C222 C223 1.398 . S
C222 C228 1.491 . S
C223 H214 0.950 . S
C223 C222 1.398 . S
C223 C224 1.391 . S
C224 H212 0.950 . S
C224 C220 1.393 . S
C224 C223 1.391 . S
C225 H215 0.950 . S
C225 C226 1.386 . S
C225 C227 1.391 . S
C226 C225 1.386 . S
C226 C230 1.393 . S
C227 H216 0.950 . S
C227 C225 1.391 . S
C227 C228 1.400 . S
C228 C222 1.491 . S
C228 C227 1.400 . S
C228 C229 1.398 . S
C229 H217 0.950 . S
C229 C228 1.398 . S
C229 C230 1.391 . S
C230 H218 0.950 . S
C230 C226 1.393 . S
C230 C229 1.391 . S
H231 C239 0.950 . S
H232 C244 0.950 . S
H233 C241 0.950 . S
H234 C243 0.950 . S
H235 C245 0.950 . S
H236 C247 0.950 . S
H237 C249 0.950 . S
H238 C250 0.950 . S
C239 H231 0.950 . S
C239 C240 1.386 . S
C239 C241 1.391 . S
C240 C239 1.386 . S
C240 C244 1.393 . S
C241 H233 0.950 . S
C241 C239 1.391 . S
C241 C242 1.400 . S
C242 C241 1.400 . S
C242 C243 1.398 . S
C242 C248 1.491 . S
C243 H234 0.950 . S
C243 C242 1.398 . S
C243 C244 1.391 . S
C244 H232 0.950 . S
C244 C240 1.393 . S
C244 C243 1.391 . S
C245 H235 0.950 . S
C245 C246 1.386 . S
C245 C247 1.391 . S
C246 C245 1.386 . S
C246 C250 1.393 . S
C247 H236 0.950 . S
C247 C245 1.391 . S
C247 C248 1.400 . S
C248 C242 1.491 . S
C248 C247 1.400 . S
C248 C249 1.398 . S
C249 H237 0.950 . S
C249 C248 1.398 . S
C249 C250 1.391 . S
C250 H238 0.950 . S
C250 C246 1.393 . S
C250 C249 1.391 . S
H251 C259 0.950 . S
H252 C264 0.950 . S
H253 C261 0.950 . S
H254 C263 0.950 . S
H255 C265 0.950 . S
H256 C267 0.950 . S
H257 C269 0.950 . S
H258 C270 0.950 . S
C259 H251 0.950 . S
C259 C260 1.386 . S
C259 C261 1.391 . S
C260 C259 1.386 . S
C260 C264 1.393 . S
C261 H253 0.950 . S
C261 C259 1.391 . S
C261 C262 1.400 . S
C262 C261 1.400 . S
C262 C263 1.398 . S
C262 C268 1.491 . S
C263 H254 0.950 . S
C263 C262 1.398 . S
C263 C264 1.391 . S
C264 H252 0.950 . S
C264 C260 1.393 . S
C264 C263 1.391 . S
C265 H255 0.950 . S
C265 C266 1.386 . S
C265 C267 1.391 . S
C266 C265 1.386 . S
C266 C270 1.393 . S
C267 H256 0.950 . S
C267 C265 1.391 . S
C267 C268 1.400 . S
C268 C262 1.491 . S
C268 C267 1.400 . S
C268 C269 1.398 . S
C269 H257 0.950 . S
C269 C268 1.398 . S
C269 C270 1.391 . S
C270 H258 0.950 . S
C270 C266 1.393 . S
C270 C269 1.391 . S
H271 C279 0.950 . S
H272 C284 0.950 . S
H273 C281 0.950 . S
H274 C283 0.950 . S
H275 C285 0.950 . S
H276 C287 0.950 . S
H277 C289 0.950 . S
H278 C290 0.950 . S
C279 H271 0.950 . S
C279 C280 1.386 . S
C279 C281 1.391 . S
C280 C279 1.386 . S
C280 C284 1.393 . S
C281 H273 0.950 . S
C281 C279 1.391 . S
C281 C282 1.400 . S
C282 C281 1.400 . S
C282 C283 1.398 . S
C282 C288 1.491 . S
C283 H274 0.950 . S
C283 C282 1.398 . S
C283 C284 1.391 . S
C284 H272 0.950 . S
C284 C280 1.393 . S
C284 C283 1.391 . S
C285 H275 0.950 . S
C285 C286 1.386 . S
C285 C287 1.391 . S
C286 C285 1.386 . S
C286 C290 1.393 . S
C287 H276 0.950 . S
C287 C285 1.391 . S
C287 C288 1.400 . S
C288 C282 1.491 . S
C288 C287 1.400 . S
C288 C289 1.398 . S
C289 H277 0.950 . S
C289 C288 1.398 . S
C289 C290 1.391 . S
C290 H278 0.950 . S
C290 C286 1.393 . S
C290 C289 1.391 . S
H291 C299 0.950 . S
H292 C304 0.950 . S
H293 C301 0.950 . S
H294 C303 0.950 . S
H295 C305 0.950 . S
H296 C307 0.950 . S
H297 C309 0.950 . S
H298 C310 0.950 . S
C299 H291 0.950 . S
C299 C300 1.386 . S
C299 C301 1.391 . S
C300 C299 1.386 . S
C300 C304 1.393 . S
C301 H293 0.950 . S
C301 C299 1.391 . S
C301 C302 1.400 . S
C302 C301 1.400 . S
C302 C303 1.398 . S
C302 C308 1.491 . S
C303 H294 0.950 . S
C303 C302 1.398 . S
C303 C304 1.391 . S
C304 H292 0.950 . S
C304 C300 1.393 . S
C304 C303 1.391 . S
C305 H295 0.950 . S
C305 C306 1.386 . S
C305 C307 1.391 . S
C306 C305 1.386 . S
C306 C310 1.393 . S
C307 H296 0.950 . S
C307 C305 1.391 . S
C307 C308 1.400 . S
C308 C302 1.491 . S
C308 C307 1.400 . S
C308 C309 1.398 . S
C309 H297 0.950 . S
C309 C308 1.398 . S
C309 C310 1.391 . S
C310 H298 0.950 . S
C310 C306 1.393 . S
C310 C309 1.391 . S
H311 C319 0.950 . S
H312 C324 0.950 . S
H313 C321 0.950 . S
H314 C323 0.950 . S
H315 C325 0.950 . S
H316 C327 0.950 . S
H317 C329 0.950 . S
H318 C330 0.950 . S
C319 H311 0.950 . S
C319 C320 1.386 . S
C319 C321 1.391 . S
C320 C319 1.386 . S
C320 C324 1.393 . S
C321 H313 0.950 . S
C321 C319 1.391 . S
C321 C322 1.400 . S
C322 C321 1.400 . S
C322 C323 1.398 . S
C322 C328 1.491 . S
C323 H314 0.950 . S
C323 C322 1.398 . S
C323 C324 1.391 . S
C324 H312 0.950 . S
C324 C320 1.393 . S
C324 C323 1.391 . S
C325 H315 0.950 . S
C325 C326 1.386 . S
C325 C327 1.391 . S
C326 C325 1.386 . S
C326 C330 1.393 . S
C327 H316 0.950 . S
C327 C325 1.391 . S
C327 C328 1.400 . S
C328 C322 1.491 . S
C328 C327 1.400 . S
C328 C329 1.398 . S
C329 H317 0.950 . S
C329 C328 1.398 . S
C329 C330 1.391 . S
C330 H318 0.950 . S
C330 C326 1.393 . S
C330 C329 1.391 . S
H331 C339 0.950 . S
H332 C344 0.950 . S
H333 C341 0.950 . S
H334 C343 0.950 . S
H335 C345 0.950 . S
H336 C347 0.950 . S
H337 C349 0.950 . S
H338 C350 0.950 . S
C339 H331 0.950 . S
C339 C340 1.386 . S
C339 C341 1.391 . S
C340 C339 1.386 . S
C340 C344 1.393 . S
C341 H333 0.950 . S
C341 C339 1.391 . S
C341 C342 1.400 . S
C342 C341 1.400 . S
C342 C343 1.398 . S
C342 C348 1.491 . S
C343 H334 0.950 . S
C343 C342 1.398 . S
C343 C344 1.391 . S
C344 H332 0.950 . S
C344 C340 1.393 . S
C344 C343 1.391 . S
C345 H335 0.950 . S
C345 C346 1.386 . S
C345 C347 1.391 . S
C346 C345 1.386 . S
C346 C350 1.393 . S
C347 H336 0.950 . S
C347 C345 1.391 . S
C347 C348 1.400 . S
C348 C342 1.491 . S
C348 C347 1.400 . S
C348 C349 1.398 . S
C349 H337 0.950 . S
C349 C348 1.398 . S
C349 C350 1.391 . S
C350 H338 0.950 . S
C350 C346 1.393 . S
C350 C349 1.391 . S
H351 C359 0.952 . S
H352 C364 0.950 . S
H353 C361 0.950 . S
H354 C363 0.950 . S
H355 C365 0.950 . S
H356 C367 0.950 1_554 S
H357 C369 0.950 . S
H358 C370 0.950 . S
C359 H351 0.952 . S
C359 C360 1.386 . S
C359 C361 1.391 1_554 S
C360 C359 1.386 . S
C360 C364 1.393 . S
C361 H353 0.950 . S
C361 C359 1.391 1_556 S
C361 C362 1.400 . S
C362 C361 1.400 . S
C362 C363 1.398 1_556 S
C362 C368 1.491 . S
C363 H354 0.950 . S
C363 C362 1.398 1_554 S
C363 C364 1.391 . S
C364 H352 0.950 . S
C364 C360 1.393 . S
C364 C363 1.391 . S
C365 H355 0.950 . S
C365 C366 1.386 . S
C365 C367 1.391 . S
C366 C365 1.386 . S
C366 C370 1.393 . S
C367 H356 0.950 1_556 S
C367 C365 1.391 . S
C367 C368 1.400 . S
C368 C362 1.491 . S
C368 C367 1.400 . S
C368 C369 1.398 . S
C369 H357 0.950 . S
C369 C368 1.398 . S
C369 C370 1.391 . S
C370 H358 0.950 . S
C370 C366 1.393 . S
C370 C369 1.391 . S
H371 C379 0.950 . S
H372 C384 0.950 . S
H373 C381 0.950 . S
H374 C383 0.950 1_554 S
H375 C385 0.950 . S
H376 C387 0.950 . S
H377 C389 0.950 . S
H378 C390 0.950 . S
C379 H371 0.950 . S
C379 C380 1.386 1_556 S
C379 C381 1.391 . S
C380 C379 1.386 1_554 S
C380 C384 1.393 . S
C381 H373 0.950 . S
C381 C379 1.391 . S
C381 C382 1.400 . S
C382 C381 1.400 . S
C382 C383 1.398 . S
C382 C388 1.491 . S
C383 H374 0.950 1_556 S
C383 C382 1.398 . S
C383 C384 1.391 1_556 S
C384 H372 0.950 . S
C384 C380 1.393 . S
C384 C383 1.391 1_554 S
C385 H375 0.950 . S
C385 C386 1.386 . S
C385 C387 1.391 . S
C386 C385 1.386 . S
C386 C390 1.393 . S
C387 H376 0.950 . S
C387 C385 1.391 . S
C387 C388 1.400 . S
C388 C382 1.491 . S
C388 C387 1.400 . S
C388 C389 1.398 . S
C389 H377 0.950 . S
C389 C388 1.398 . S
C389 C390 1.391 . S
C390 H378 0.950 . S
C390 C386 1.393 . S
C390 C389 1.391 . S
H391 C399 0.950 . S
H392 C404 0.950 . S
H393 C401 0.950 . S
H394 C403 0.950 . S
H395 C405 0.950 . S
H396 C407 0.950 . S
H397 C409 0.950 . S
H398 C410 0.950 . S
C399 H391 0.950 . S
C399 C400 1.386 1_556 S
C399 C401 1.391 . S
C400 C399 1.386 1_554 S
C400 C404 1.393 . S
C401 H393 0.950 . S
C401 C399 1.391 . S
C401 C402 1.400 . S
C402 C401 1.400 . S
C402 C403 1.398 1_556 S
C402 C408 1.491 . S
C403 H394 0.950 . S
C403 C402 1.398 1_554 S
C403 C404 1.391 . S
C404 H392 0.950 . S
C404 C400 1.393 . S
C404 C403 1.391 . S
C405 H395 0.950 . S
C405 C406 1.386 . S
C405 C407 1.391 . S
C406 C405 1.386 . S
C406 C410 1.393 . S
C407 H396 0.950 . S
C407 C405 1.391 . S
C407 C408 1.400 . S
C408 C402 1.491 . S
C408 C407 1.400 . S
C408 C409 1.398 . S
C409 H397 0.950 . S
C409 C408 1.398 . S
C409 C410 1.391 . S
C410 H398 0.950 . S
C410 C406 1.393 . S
C410 C409 1.391 . S
H411 C419 0.950 . S
H412 C424 0.950 . S
H413 C421 0.950 . S
H414 C423 0.950 . S
H415 C425 0.950 . S
H416 C427 0.950 . S
H417 C429 0.950 . S
H418 C430 0.950 . S
C419 H411 0.950 . S
C419 C420 1.386 . S
C419 C421 1.391 . S
C420 C419 1.386 . S
C420 C424 1.393 . S
C421 H413 0.950 . S
C421 C419 1.391 . S
C421 C422 1.400 . S
C422 C421 1.400 . S
C422 C423 1.398 . S
C422 C428 1.491 . S
C423 H414 0.950 . S
C423 C422 1.398 . S
C423 C424 1.391 . S
C424 H412 0.950 . S
C424 C420 1.393 . S
C424 C423 1.391 . S
C425 H415 0.950 . S
C425 C426 1.386 . S
C425 C427 1.391 . S
C426 C425 1.386 . S
C426 C430 1.393 . S
C427 H416 0.950 . S
C427 C425 1.391 . S
C427 C428 1.400 . S
C428 C422 1.491 . S
C428 C427 1.400 . S
C428 C429 1.398 . S
C429 H417 0.950 . S
C429 C428 1.398 . S
C429 C430 1.391 . S
C430 H418 0.950 . S
C430 C426 1.393 . S
C430 C429 1.391 . S
H431 C439 0.950 1_554 S
H432 C444 0.950 . S
H433 C441 0.950 . S
H434 C443 0.950 . S
H435 C445 0.950 . S
H436 C447 0.950 . S
H437 C449 0.950 . S
H438 C450 0.950 . S
C439 H431 0.950 1_556 S
C439 C440 1.386 . S
C439 C441 1.391 . S
C440 C439 1.386 . S
C440 C444 1.393 . S
C441 H433 0.950 . S
C441 C439 1.391 . S
C441 C442 1.400 . S
C442 C441 1.400 . S
C442 C443 1.398 . S
C442 C448 1.491 . S
C443 H434 0.950 . S
C443 C442 1.398 . S
C443 C444 1.391 . S
C444 H432 0.950 . S
C444 C440 1.393 . S
C444 C443 1.391 . S
C445 H435 0.950 . S
C445 C446 1.386 . S
C445 C447 1.391 . S
C446 C445 1.386 . S
C446 C450 1.393 . S
C447 H436 0.950 . S
C447 C445 1.391 . S
C447 C448 1.400 . S
C448 C442 1.491 . S
C448 C447 1.400 . S
C448 C449 1.398 . S
C449 H437 0.950 . S
C449 C448 1.398 . S
C449 C450 1.391 . S
C450 H438 0.950 . S
C450 C446 1.393 . S
C450 C449 1.391 . S
H451 C459 0.950 . S
H452 C464 0.950 . S
H453 C461 0.950 . S
H454 C463 0.950 . S
H455 C465 0.950 . S
H456 C467 0.950 . S
H457 C469 0.950 . S
H458 C470 0.950 . S
C459 H451 0.950 . S
C459 C460 1.386 . S
C459 C461 1.391 1_554 S
C460 C459 1.386 . S
C460 C464 1.393 . S
C461 H453 0.950 . S
C461 C459 1.391 1_556 S
C461 C462 1.400 . S
C462 C461 1.400 . S
C462 C463 1.398 1_556 S
C462 C468 1.491 . S
C463 H454 0.950 . S
C463 C462 1.398 1_554 S
C463 C464 1.391 . S
C464 H452 0.950 . S
C464 C460 1.393 . S
C464 C463 1.391 . S
C465 H455 0.950 . S
C465 C466 1.386 . S
C465 C467 1.391 . S
C466 C465 1.386 . S
C466 C470 1.393 . S
C467 H456 0.950 . S
C467 C465 1.391 . S
C467 C468 1.400 . S
C468 C462 1.491 . S
C468 C467 1.400 . S
C468 C469 1.398 . S
C469 H457 0.950 . S
C469 C468 1.398 . S
C469 C470 1.391 . S
C470 H458 0.950 . S
C470 C466 1.393 . S
C470 C469 1.391 . S
H471 C479 0.950 . S
H472 C484 0.950 . S
H473 C481 0.950 . S
H474 C483 0.950 . S
H475 C485 0.950 . S
H476 C487 0.950 . S
H477 C489 0.950 . S
H478 C490 0.950 . S
C479 H471 0.950 . S
C479 C480 1.386 1_556 S
C479 C481 1.391 . S
C480 C479 1.386 1_554 S
C480 C484 1.393 . S
C481 H473 0.950 . S
C481 C479 1.391 . S
C481 C482 1.400 . S
C482 C481 1.400 . S
C482 C483 1.398 1_556 S
C482 C488 1.491 . S
C483 H474 0.950 . S
C483 C482 1.398 1_554 S
C483 C484 1.391 . S
C484 H472 0.950 . S
C484 C480 1.393 . S
C484 C483 1.391 . S
C485 H475 0.950 . S
C485 C486 1.386 . S
C485 C487 1.391 . S
C486 C485 1.386 . S
C486 C490 1.393 . S
C487 H476 0.950 . S
C487 C485 1.391 . S
C487 C488 1.400 . S
C488 C482 1.491 . S
C488 C487 1.400 . S
C488 C489 1.398 . S
C489 H477 0.950 . S
C489 C488 1.398 . S
C489 C490 1.391 . S
C490 H478 0.950 . S
C490 C486 1.393 . S
C490 C489 1.391 . S
H491 C499 0.950 . S
H492 C504 0.950 . S
H493 C501 0.950 . S
H494 C503 0.950 . S
H495 C505 0.950 . S
H496 C507 0.950 . S
H497 C509 0.950 . S
H498 C510 0.950 . S
C499 H491 0.950 . S
C499 C500 1.386 . S
C499 C501 1.391 . S
C500 C499 1.386 . S
C500 C504 1.393 1_556 S
C501 H493 0.950 . S
C501 C499 1.391 . S
C501 C502 1.400 . S
C502 C501 1.400 . S
C502 C503 1.398 . S
C502 C508 1.491 . S
C503 H494 0.950 . S
C503 C502 1.398 . S
C503 C504 1.391 1_556 S
C504 H492 0.950 . S
C504 C500 1.393 1_554 S
C504 C503 1.391 1_554 S
C505 H495 0.950 . S
C505 C506 1.386 . S
C505 C507 1.391 . S
C506 C505 1.386 . S
C506 C510 1.393 . S
C507 H496 0.950 . S
C507 C505 1.391 . S
C507 C508 1.400 . S
C508 C502 1.491 . S
C508 C507 1.400 . S
C508 C509 1.398 . S
C509 H497 0.950 . S
C509 C508 1.398 . S
C509 C510 1.391 . S
C510 H498 0.950 . S
C510 C506 1.393 . S
C510 C509 1.391 . S
H511 C519 0.950 . S
H512 C524 0.950 . S
H513 C521 0.950 . S
H514 C523 0.950 . S
H515 C525 0.950 . S
H516 C527 0.950 . S
H517 C529 0.950 . S
H518 C530 0.950 . S
C519 H511 0.950 . S
C519 C520 1.386 . S
C519 C521 1.391 . S
C520 C519 1.386 . S
C520 C524 1.393 . S
C521 H513 0.950 . S
C521 C519 1.391 . S
C521 C522 1.400 . S
C522 C521 1.400 . S
C522 C523 1.398 . S
C522 C528 1.491 . S
C523 H514 0.950 . S
C523 C522 1.398 . S
C523 C524 1.391 . S
C524 H512 0.950 . S
C524 C520 1.393 . S
C524 C523 1.391 . S
C525 H515 0.950 . S
C525 C526 1.386 . S
C525 C527 1.391 . S
C526 C525 1.386 . S
C526 C530 1.393 . S
C527 H516 0.950 . S
C527 C525 1.391 . S
C527 C528 1.400 . S
C528 C522 1.491 . S
C528 C527 1.400 . S
C528 C529 1.398 . S
C529 H517 0.950 . S
C529 C528 1.398 . S
C529 C530 1.391 . S
C530 H518 0.950 . S
C530 C526 1.393 . S
C530 C529 1.391 . S
H531 C539 0.950 . S
H532 C544 0.950 . S
H533 C541 0.950 . S
H534 C543 0.950 . S
H535 C545 0.950 . S
H536 C547 0.950 . S
H537 C549 0.950 . S
H538 C550 0.950 . S
C539 H531 0.950 . S
C539 C540 1.386 . S
C539 C541 1.391 . S
C540 C539 1.386 . S
C540 C544 1.393 . S
C541 H533 0.950 . S
C541 C539 1.391 . S
C541 C542 1.400 . S
C542 C541 1.400 . S
C542 C543 1.398 . S
C542 C548 1.491 . S
C543 H534 0.950 . S
C543 C542 1.398 . S
C543 C544 1.391 . S
C544 H532 0.950 . S
C544 C540 1.393 . S
C544 C543 1.391 . S
C545 H535 0.950 . S
C545 C546 1.386 . S
C545 C547 1.391 . S
C546 C545 1.386 . S
C546 C550 1.393 . S
C547 H536 0.950 . S
C547 C545 1.391 . S
C547 C548 1.400 . S
C548 C542 1.491 . S
C548 C547 1.400 . S
C548 C549 1.398 . S
C549 H537 0.950 . S
C549 C548 1.398 . S
C549 C550 1.391 . S
C550 H538 0.950 . S
C550 C546 1.393 . S
C550 C549 1.391 . S
H551 C559 0.950 . S
H552 C564 0.950 . S
H553 C561 0.950 . S
H554 C563 0.950 . S
H555 C565 0.950 . S
H556 C567 0.950 . S
H557 C569 0.950 . S
H558 C570 0.950 . S
C559 H551 0.950 . S
C559 C560 1.386 . S
C559 C561 1.391 . S
C560 C559 1.386 . S
C560 C564 1.393 . S
C561 H553 0.950 . S
C561 C559 1.391 . S
C561 C562 1.400 . S
C562 C561 1.400 . S
C562 C563 1.398 . S
C562 C568 1.491 . S
C563 H554 0.950 . S
C563 C562 1.398 . S
C563 C564 1.391 . S
C564 H552 0.950 . S
C564 C560 1.393 . S
C564 C563 1.391 . S
C565 H555 0.950 . S
C565 C566 1.386 . S
C565 C567 1.391 . S
C566 C565 1.386 . S
C566 C570 1.393 . S
C567 H556 0.950 . S
C567 C565 1.391 . S
C567 C568 1.400 . S
C568 C562 1.491 . S
C568 C567 1.400 . S
C568 C569 1.398 . S
C569 H557 0.950 . S
C569 C568 1.398 . S
C569 C570 1.391 . S
C570 H558 0.950 . S
C570 C566 1.393 . S
C570 C569 1.391 . S
H571 C579 0.950 . S
H572 C584 0.950 . S
H573 C581 0.950 . S
H574 C583 0.950 . S
H575 C585 0.950 . S
H576 C587 0.950 . S
H577 C589 0.950 . S
H578 C590 0.950 . S
C579 H571 0.950 . S
C579 C580 1.386 . S
C579 C581 1.391 . S
C580 C579 1.386 . S
C580 C584 1.393 . S
C581 H573 0.950 . S
C581 C579 1.391 . S
C581 C582 1.400 . S
C582 C581 1.400 . S
C582 C583 1.398 . S
C582 C588 1.491 . S
C583 H574 0.950 . S
C583 C582 1.398 . S
C583 C584 1.391 . S
C584 H572 0.950 . S
C584 C580 1.393 . S
C584 C583 1.391 . S
C585 H575 0.950 . S
C585 C586 1.386 . S
C585 C587 1.391 . S
C586 C585 1.386 . S
C586 C590 1.393 . S
C587 H576 0.950 . S
C587 C585 1.391 . S
C587 C588 1.400 . S
C588 C582 1.491 . S
C588 C587 1.400 . S
C588 C589 1.398 . S
C589 H577 0.950 . S
C589 C588 1.398 . S
C589 C590 1.391 . S
C590 H578 0.950 . S
C590 C586 1.393 . S
C590 C589 1.391 . S
H591 C599 0.950 . S
H592 C604 0.950 . S
H593 C601 0.950 . S
H594 C603 0.950 . S
H595 C605 0.950 . S
H596 C607 0.950 . S
H597 C609 0.950 . S
H598 C610 0.950 . S
C599 H591 0.950 . S
C599 C600 1.386 . S
C599 C601 1.391 . S
C600 C599 1.386 . S
C600 C604 1.393 . S
C601 H593 0.950 . S
C601 C599 1.391 . S
C601 C602 1.400 . S
C602 C601 1.400 . S
C602 C603 1.398 . S
C602 C608 1.491 . S
C603 H594 0.950 . S
C603 C602 1.398 . S
C603 C604 1.391 . S
C604 H592 0.950 . S
C604 C600 1.393 . S
C604 C603 1.391 . S
C605 H595 0.950 . S
C605 C606 1.386 . S
C605 C607 1.391 . S
C606 C605 1.386 . S
C606 C610 1.393 . S
C607 H596 0.950 . S
C607 C605 1.391 . S
C607 C608 1.400 . S
C608 C602 1.491 . S
C608 C607 1.400 . S
C608 C609 1.398 . S
C609 H597 0.950 . S
C609 C608 1.398 . S
C609 C610 1.391 . S
C610 H598 0.950 . S
C610 C606 1.393 . S
C610 C609 1.391 . S
H611 C619 0.950 . S
H612 C624 0.950 . S
H613 C621 0.950 . S
H614 C623 0.950 . S
H615 C625 0.950 . S
H616 C627 0.950 . S
H617 C629 0.950 . S
H618 C630 0.950 . S
C619 H611 0.950 . S
C619 C620 1.386 . S
C619 C621 1.391 . S
C620 C619 1.386 . S
C620 C624 1.393 . S
C621 H613 0.950 . S
C621 C619 1.391 . S
C621 C622 1.400 . S
C622 C621 1.400 . S
C622 C623 1.398 . S
C622 C628 1.491 . S
C623 H614 0.950 . S
C623 C622 1.398 . S
C623 C624 1.391 . S
C624 H612 0.950 . S
C624 C620 1.393 . S
C624 C623 1.391 . S
C625 H615 0.950 . S
C625 C626 1.386 . S
C625 C627 1.391 . S
C626 C625 1.386 . S
C626 C630 1.393 . S
C627 H616 0.950 . S
C627 C625 1.391 . S
C627 C628 1.400 . S
C628 C622 1.491 . S
C628 C627 1.400 . S
C628 C629 1.398 . S
C629 H617 0.950 . S
C629 C628 1.398 . S
C629 C630 1.391 . S
C630 H618 0.950 . S
C630 C626 1.393 . S
C630 C629 1.391 . S
H631 C639 0.950 . S
H632 C644 0.950 . S
H633 C641 0.950 . S
H634 C643 0.950 . S
H635 C645 0.950 . S
H636 C647 0.950 . S
H637 C649 0.950 . S
H638 C650 0.950 . S
C639 H631 0.950 . S
C639 C640 1.386 . S
C639 C641 1.391 . S
C640 C639 1.386 . S
C640 C644 1.393 . S
C641 H633 0.950 . S
C641 C639 1.391 . S
C641 C642 1.400 . S
C642 C641 1.400 . S
C642 C643 1.398 . S
C642 C648 1.491 . S
C643 H634 0.950 . S
C643 C642 1.398 . S
C643 C644 1.391 . S
C644 H632 0.950 . S
C644 C640 1.393 . S
C644 C643 1.391 . S
C645 H635 0.950 . S
C645 C646 1.386 . S
C645 C647 1.391 . S
C646 C645 1.386 . S
C646 C650 1.393 . S
C647 H636 0.950 . S
C647 C645 1.391 . S
C647 C648 1.400 . S
C648 C642 1.491 . S
C648 C647 1.400 . S
C648 C649 1.398 . S
C649 H637 0.950 . S
C649 C648 1.398 . S
C649 C650 1.391 . S
C650 H638 0.950 . S
C650 C646 1.393 . S
C650 C649 1.391 . S
C180 C5 1.751 . S
C186 C89 1.672 . S
C200 C16 1.489 . S
C206 C136 1.466 . S
C226 C140 1.731 . S
C220 C36 1.784 . S
C246 C105 1.407 . S
C240 C42 1.437 . S
C260 C55 1.642 . S
C266 C120 1.609 . S
C286 C142 0.968 . S
C280 C66 0.987 . S
C306 C111 1.279 . S
C300 C31 1.348 . S
C320 C40 1.378 . S
C326 C151 1.334 . S
C346 C80 1.313 . S
C340 C53 1.345 1_556 S
C360 C68 1.328 . S
C366 C109 1.306 . S
C380 C10 1.887 . S
C386 C167 1.816 . S
C406 C78 1.434 . S
C400 C14 1.458 . S
C426 C96 1.727 . S
C420 C49 1.783 . S
C446 C110 1.531 . S
C440 C62 1.558 1_556 S
C466 C164 1.660 . S
C460 C70 1.693 . S
C486 C79 1.487 . S
C480 C1 1.523 . S
C506 C127 1.688 . S
C500 C23 1.738 1_556 S
C520 C29 0.927 . S
C526 C150 0.884 . S
C546 C119 1.363 . S
C540 C75 1.393 . S
C566 C158 1.274 . S
C560 C3 1.324 . S
C586 C88 1.261 . S
C580 C18 1.277 . S
C606 C133 1.385 . S
C600 C27 1.426 . S
C620 C44 1.785 . S
C626 C141 1.752 . S
C640 C57 1.379 . S
C646 C102 1.369 . S
