# Generated by pormake.
# Topology scu, (8,4)-cn, num edge types: 1
# Building blocks:
#     Node 0, Type 0, BuildingBlock: TAGTUT_clean_sbu_3, # of connection points: 8
#     Node 1, Type 1, BuildingBlock: ESEHIV_clean_sbu_0, # of connection points: 4
#     Node 2, Type 1, BuildingBlock: ESEHIV_clean_sbu_0, # of connection points: 4
#     Edge 3, Type (0, 1), BuildingBlock: XUDNAN_clean_linker_2, # of connection points: 2
#     Edge 4, Type (0, 1), BuildingBlock: XUDNAN_clean_linker_2, # of connection points: 2
#     Edge 5, Type (0, 1), BuildingBlock: XUDNAN_clean_linker_2, # of connection points: 2
#     Edge 6, Type (0, 1), BuildingBlock: XUDNAN_clean_linker_2, # of connection points: 2
#     Edge 7, Type (0, 1), BuildingBlock: XUDNAN_clean_linker_2, # of connection points: 2
#     Edge 8, Type (0, 1), BuildingBlock: XUDNAN_clean_linker_2, # of connection points: 2
#     Edge 9, Type (0, 1), BuildingBlock: XUDNAN_clean_linker_2, # of connection points: 2
#     Edge 10, Type (0, 1), BuildingBlock: XUDNAN_clean_linker_2, # of connection points: 2
# Relax obj value: 0.025
# Max RMSD: 0.107
# Mean RMSD: 0.103
data_MOF--net-scu--node1-TAGTUT_clean_sbu_3--node2-ESEHIV_clean_sbu_0--edge1-XUDNAN_clean_linker_2
_symmetry_space_group_name_H-M    P1
_symmetry_Int_Tables_number       1
_symmetry_cell_setting            triclinic
loop_
_symmetry_equiv_pos_as_xyz
'x, y, z'
_cell_length_a     29.004749
_cell_length_b     24.377042
_cell_length_c     20.405395
_cell_angle_alpha  94.502529
_cell_angle_beta   95.627596
_cell_angle_gamma 89.892656
loop_
_atom_site_label
_atom_site_type_symbol
_atom_site_fract_x
_atom_site_fract_y
_atom_site_fract_z
_atom_type_partial_charge
C0 C 1.0029 0.9001 0.08247 0.0
C1 C 0.83744 0.98793 0.07993 0.0
C2 C 0.85009 0.01903 0.87902 0.0
Mg3 Mg 0.09567 0.94098 0.01617 0.0
Mg4 Mg 0.10636 0.07176 0.9897 0.0
O5 O 0.06966 0.00766 0.97502 0.0
Mg6 Mg 1.00423 0.00839 0.99954 0.0
O7 O 0.93903 0.00559 0.02344 0.0
Mg8 Mg 0.91543 0.93396 0.97795 0.0
Mg9 Mg 0.89989 0.0669 0.01323 0.0
C10 C 0.01297 0.11862 0.91652 0.0
O11 O 0.01657 0.08149 0.07761 0.0
O12 O 0.16001 0.95112 0.95322 0.0
O13 O 0.95003 0.12961 0.06194 0.0
O14 O 0.13956 0.98907 0.104 0.0
O15 O 0.16048 0.04074 0.93352 0.0
O16 O 0.1403 0.07898 0.09125 0.0
O17 O 0.98336 0.93604 0.92134 0.0
O18 O 0.05248 0.89418 0.93011 0.0
C19 C 0.01056 0.89691 0.90412 0.0
C20 C 0.17723 0.99218 0.92706 0.0
O21 O 0.9892 0.07645 0.92809 0.0
O22 O 0.8546 0.94553 0.04876 0.0
O23 O 0.05554 0.12666 0.94029 0.0
O24 O 0.86704 0.973 0.89556 0.0
O25 O 0.85072 0.03717 0.07349 0.0
O26 O 0.86126 0.06369 0.91437 0.0
O27 O 0.02738 0.94169 0.0714 0.0
O28 O 0.96134 0.89324 0.05592 0.0
C29 C 0.15309 0.03797 0.12425 0.0
C30 C 0.99203 0.12475 0.08836 0.0
Cu31 Cu 0.98625 0.49469 0.4913 0.0
N32 N 0.94619 0.44294 0.518 0.0
N33 N 0.92589 0.37664 0.57989 0.0
C34 C 0.9601 0.41003 0.56596 0.0
C35 C 0.88868 0.3894 0.53866 0.0
C36 C 0.90132 0.4304 0.50052 0.0
O37 O 0.03437 0.4499 0.4527 0.0
C38 C 0.02983 0.58119 0.58471 0.0
O39 O 0.06058 0.59022 0.54358 0.0
H40 H 0.99468 0.41195 0.59127 0.0
H41 H 0.87923 0.44994 0.46352 0.0
N42 N 0.95859 0.54026 0.42874 0.0
N43 N 0.9567 0.60891 0.36152 0.0
C44 C 0.97555 0.58999 0.41845 0.0
C45 C 0.92708 0.52749 0.37691 0.0
C46 C 0.92576 0.5698 0.33544 0.0
C47 C 0.04281 0.45319 0.39295 0.0
O48 O 0.0309 0.49774 0.3635 0.0
H49 H 1.00435 0.60951 0.44878 0.0
H50 H 0.909 0.48851 0.36727 0.0
O51 O 1.0019 0.54083 0.57215 0.0
H52 H 0.85473 0.3706 0.53597 0.0
H53 H 0.90526 0.57029 0.28824 0.0
Cu54 Cu 0.51728 0.00401 0.5226 0.0
N55 N 0.49411 0.03555 0.59913 0.0
N56 N 0.44687 0.03899 0.67994 0.0
C57 C 0.46795 0.00656 0.63534 0.0
C58 C 0.46074 0.09071 0.67167 0.0
C59 C 0.48981 0.08847 0.62161 0.0
O60 O 0.46596 0.00902 0.45135 0.0
C61 C 0.57329 0.90963 0.57411 0.0
O62 O 0.57467 0.85574 0.5741 0.0
H63 H 0.4617 0.9628 0.62537 0.0
H64 H 0.50441 0.1231 0.60059 0.0
N65 N 0.56897 0.03594 0.49248 0.0
N66 N 0.62837 0.03743 0.43017 0.0
C67 C 0.59493 0.00677 0.45119 0.0
C68 C 0.58641 0.08737 0.49824 0.0
C69 C 0.62317 0.08842 0.4597 0.0
C70 C 0.42625 0.9853 0.44501 0.0
O71 O 0.41778 0.94812 0.48557 0.0
H72 H 0.58788 0.96406 0.43472 0.0
H73 H 0.5728 0.12179 0.52693 0.0
O74 O 0.53762 0.93 0.54208 0.0
H75 H 0.44935 0.12775 0.69803 0.0
H76 H 0.64399 0.12406 0.45341 0.0
H77 H 0.9708 0.23468 0.09257 0.0
H78 H 0.05837 0.11599 0.19193 0.0
H79 H 0.08672 0.1889 0.27739 0.0
H80 H 0.05427 0.35042 0.12661 0.0
H81 H 0.00903 0.40024 0.13692 0.0
H82 H 0.99793 0.33923 0.08181 0.0
H83 H 0.92824 0.31498 0.14482 0.0
H84 H 0.93913 0.37579 0.19997 0.0
H85 H 0.93706 0.3094 0.23274 0.0
H86 H 0.09676 0.27275 0.36053 0.0
H87 H 0.09346 0.36222 0.42706 0.0
H88 H 0.00584 0.42716 0.26709 0.0
C89 C 0.99634 0.2242 0.1319 0.0
C90 C 0.01212 0.16961 0.13584 0.0
C91 C 0.04584 0.15759 0.18781 0.0
C92 C 0.06211 0.19872 0.23667 0.0
C93 C 0.04522 0.252 0.23202 0.0
C94 C 0.01378 0.26499 0.18014 0.0
C95 C 1.00058 0.32512 0.18681 0.0
C96 C 0.01641 0.35554 0.12964 0.0
C97 C 0.94816 0.33167 0.19138 0.0
C98 C 0.02821 0.34354 0.25163 0.0
C99 C 0.05363 0.30084 0.27731 0.0
C100 C 0.07803 0.30689 0.34004 0.0
C101 C 0.07602 0.35773 0.3775 0.0
C102 C 0.05055 0.402 0.35153 0.0
C103 C 0.02705 0.39475 0.28737 0.0
H104 H 0.78689 0.06902 0.13903 0.0
H105 H 0.81092 0.8929 0.13276 0.0
H106 H 0.75983 0.88625 0.22253 0.0
H107 H 0.78956 0.09233 0.31223 0.0
H108 H 0.74482 0.14376 0.30978 0.0
H109 H 0.78083 0.13391 0.24284 0.0
H110 H 0.70803 0.11753 0.1593 0.0
H111 H 0.67172 0.12801 0.22585 0.0
H112 H 0.66651 0.06549 0.17224 0.0
H113 H 0.70889 0.90078 0.31779 0.0
H114 H 0.65948 0.93332 0.4045 0.0
H115 H 0.66931 0.10005 0.34656 0.0
C116 C 0.78126 0.02874 0.15582 0.0
C117 C 0.80311 0.98137 0.12855 0.0
C118 C 0.79445 0.9297 0.15237 0.0
C119 C 0.76566 0.92564 0.20361 0.0
C120 C 0.74568 0.97356 0.23027 0.0
C121 C 0.75286 0.02402 0.20661 0.0
C122 C 0.72818 0.06963 0.2439 0.0
C123 C 0.76293 0.11242 0.27928 0.0
C124 C 0.69142 0.09674 0.19756 0.0
C125 C 0.70604 0.03718 0.29288 0.0
C126 C 0.71652 0.98184 0.28432 0.0
C127 C 0.7002 0.94393 0.32432 0.0
C128 C 0.67195 0.96287 0.37341 0.0
C129 C 0.66 0.01932 0.38231 0.0
C130 C 0.67791 0.05682 0.34165 0.0
H131 H 0.9893 0.79082 0.06491 0.0
H132 H 0.04805 0.91897 0.20739 0.0
H133 H 0.04876 0.85426 0.29566 0.0
H134 H 0.91143 0.74488 0.15885 0.0
H135 H 0.91452 0.67277 0.13245 0.0
H136 H 0.92894 0.72352 0.07841 0.0
H137 H 0.00995 0.68049 0.06914 0.0
H138 H 0.99535 0.6282 0.12148 0.0
H139 H 0.04691 0.66944 0.1432 0.0
H140 H 0.02878 0.78016 0.37055 0.0
H141 H 0.99842 0.70166 0.42315 0.0
H142 H 0.95154 0.62351 0.2298 0.0
C143 C 1.00441 0.80443 0.11418 0.0
C144 C 0.01926 0.85951 0.1294 0.0
C145 C 0.03762 0.87654 0.19454 0.0
C146 C 0.0376 0.84016 0.24499 0.0
C147 C 0.01959 0.78703 0.22894 0.0
C148 C 1.00433 0.76894 0.1646 0.0
C149 C 0.98216 0.71241 0.16048 0.0
C150 C 0.93127 0.71352 0.13081 0.0
C151 C 0.01029 0.67012 0.12127 0.0
C152 C 0.98564 0.702 0.23282 0.0
C153 C 0.00769 0.74511 0.27164 0.0
C154 C 0.01242 0.74576 0.34034 0.0
C155 C 0.99493 0.70093 0.36981 0.0
C156 C 0.97264 0.65599 0.3308 0.0
C157 C 0.96801 0.65705 0.26133 0.0
H158 H 0.18472 0.96218 0.21241 0.0
H159 H 0.20966 0.12809 0.16054 0.0
H160 H 0.28133 0.13289 0.23698 0.0
H161 H 0.22966 0.9863 0.38895 0.0
H162 H 0.25423 0.91843 0.3913 0.0
H163 H 0.20331 0.92983 0.33612 0.0
H164 H 0.24536 0.88843 0.2377 0.0
H165 H 0.29665 0.87771 0.29229 0.0
H166 H 0.29996 0.91749 0.22206 0.0
H167 H 0.35567 0.11543 0.31016 0.0
H168 H 0.42019 0.08239 0.38505 0.0
H169 H 0.34554 0.92965 0.39462 0.0
C170 C 0.20459 0.00011 0.21816 0.0
C171 C 0.19099 0.04489 0.18008 0.0
C172 C 0.21863 0.09338 0.18919 0.0
C173 C 0.25978 0.09633 0.23231 0.0
C174 C 0.27291 0.05079 0.26714 0.0
C175 C 0.24555 0.00401 0.26167 0.0
C176 C 0.26771 0.96056 0.30414 0.0
C177 C 0.23689 0.94806 0.35835 0.0
C178 C 0.27802 0.90795 0.26148 0.0
C179 C 0.31225 0.98969 0.33341 0.0
C180 C 0.31475 0.04157 0.311 0.0
C181 C 0.35363 0.07518 0.32865 0.0
C182 C 0.39039 0.05583 0.37098 0.0
C183 C 0.38821 0.00342 0.39627 0.0
C184 C 0.34837 0.97007 0.37679 0.0
H185 H 0.05465 0.87076 0.79627 0.0
H186 H 0.93763 0.82462 0.89691 0.0
H187 H 0.92887 0.73795 0.82394 0.0
H188 H 0.01015 0.80891 0.62805 0.0
H189 H 0.06764 0.7888 0.60985 0.0
H190 H 0.05954 0.84959 0.66358 0.0
H191 H 0.11669 0.81055 0.75377 0.0
H192 H 0.12391 0.74893 0.70134 0.0
H193 H 0.10513 0.74428 0.78236 0.0
H194 H 0.94084 0.65127 0.75057 0.0
H195 H 0.96399 0.57705 0.67169 0.0
H196 H 0.07313 0.68157 0.61795 0.0
C197 C 0.02604 0.8433 0.80105 0.0
C198 C 0.99621 0.85435 0.85108 0.0
C199 C 0.95993 0.81723 0.85758 0.0
C200 C 0.95516 0.76779 0.81689 0.0
C201 C 0.98665 0.75693 0.76985 0.0
C202 C 0.02065 0.79437 0.76068 0.0
C203 C 0.05152 0.77217 0.70908 0.0
C204 C 0.04692 0.80692 0.64907 0.0
C205 C 0.1023 0.76879 0.73843 0.0
C206 C 0.03058 0.71551 0.69184 0.0
C207 C 0.99324 0.70748 0.72741 0.0
C208 C 0.96949 0.65754 0.72172 0.0
C209 C 0.98324 0.61543 0.67702 0.0
C210 C 0.0204 0.62338 0.63822 0.0
C211 C 0.04467 0.67401 0.64671 0.0
H212 H 0.21708 0.06985 0.86065 0.0
H213 H 0.23262 0.90018 0.90953 0.0
H214 H 0.30446 0.89363 0.85256 0.0
H215 H 0.25747 0.05181 0.69929 0.0
H216 H 0.28607 0.11792 0.70745 0.0
H217 H 0.23582 0.10781 0.75047 0.0
H218 H 0.28272 0.14075 0.8612 0.0
H219 H 0.33326 0.15047 0.81866 0.0
H220 H 0.3361 0.10675 0.88619 0.0
H221 H 0.37627 0.9076 0.79097 0.0
H222 H 0.43889 0.93906 0.72866 0.0
H223 H 0.3747 0.0996 0.72203 0.0
C224 C 0.23523 0.03098 0.85944 0.0
C225 C 0.21894 0.98543 0.88989 0.0
C226 C 0.24415 0.9356 0.88655 0.0
C227 C 0.28509 0.93161 0.85445 0.0
C228 C 0.30033 0.97777 0.82589 0.0
C229 C 0.27587 0.02638 0.82795 0.0
C230 C 0.2992 0.07035 0.79406 0.0
C231 C 0.26777 0.08798 0.73427 0.0
C232 C 0.31368 0.12 0.84296 0.0
C233 C 0.34099 0.03917 0.77261 0.0
C234 C 0.34112 0.98581 0.79123 0.0
C235 C 0.37626 0.94925 0.77611 0.0
C236 C 0.41168 0.96749 0.7405 0.0
C237 C 0.41193 0.0219 0.72029 0.0
C238 C 0.37611 0.0581 0.73735 0.0
H239 H 0.0554 0.18564 0.83819 0.0
H240 H 0.92053 0.14027 0.89227 0.0
H241 H 0.88304 0.20145 0.81206 0.0
H242 H 0.0301 0.32852 0.81336 0.0
H243 H 0.06333 0.3294 0.74328 0.0
H244 H 0.07925 0.28372 0.80686 0.0
H245 H 0.07394 0.20072 0.71888 0.0
H246 H 0.0578 0.24611 0.65509 0.0
H247 H 0.02103 0.18855 0.66555 0.0
H248 H 0.8604 0.2675 0.72419 0.0
H249 H 0.85455 0.33248 0.63691 0.0
H250 H 1.00434 0.33089 0.63753 0.0
C251 C 0.01801 0.18914 0.83383 0.0
C252 C 0.99084 0.15821 0.87164 0.0
C253 C 0.94197 0.16327 0.86353 0.0
C254 C 0.9204 0.19807 0.81823 0.0
C255 C 0.94817 0.22736 0.78098 0.0
C256 C 0.99592 0.22318 0.78828 0.0
C257 C 0.01779 0.25754 0.74075 0.0
C258 C 0.04948 0.30246 0.77832 0.0
C259 C 0.04419 0.22104 0.6922 0.0
C260 C 0.97496 0.28206 0.70595 0.0
C261 C 0.93512 0.26428 0.72981 0.0
C262 C 0.89142 0.28159 0.70508 0.0
C263 C 0.88843 0.31834 0.65503 0.0
C264 C 0.92889 0.33739 0.62991 0.0
C265 C 0.9726 0.31829 0.65584 0.0
H266 H 0.8183 0.93141 0.79226 0.0
H267 H 0.79191 0.10403 0.84247 0.0
H268 H 0.7206 0.09808 0.76473 0.0
H269 H 0.77352 0.9294 0.61562 0.0
H270 H 0.74954 0.86123 0.61538 0.0
H271 H 0.80043 0.88115 0.66989 0.0
H272 H 0.75901 0.8547 0.76983 0.0
H273 H 0.70795 0.83515 0.71582 0.0
H274 H 0.70405 0.88556 0.78453 0.0
H275 H 0.64568 0.06897 0.68816 0.0
H276 H 0.58029 0.02168 0.61993 0.0
H277 H 0.65799 0.86978 0.61753 0.0
C278 C 0.79825 0.96847 0.786 0.0
C279 C 0.81141 0.01838 0.82384 0.0
C280 C 0.78331 0.06539 0.81405 0.0
C281 C 0.74241 0.06231 0.76998 0.0
C282 C 0.72985 0.01203 0.73503 0.0
C283 C 0.75752 0.96617 0.74205 0.0
C284 C 0.73582 0.91634 0.7012 0.0
C285 C 0.76667 0.89583 0.64732 0.0
C286 C 0.72613 0.87024 0.7455 0.0
C287 C 0.69107 0.94069 0.67126 0.0
C288 C 0.68807 0.99596 0.69088 0.0
C289 C 0.64839 0.02589 0.67173 0.0
C290 C 0.61113 -0.00135 0.63219 0.0
C291 C 0.61342 0.94193 0.61135 0.0
C292 C 0.65456 0.91328 0.63137 0.0
loop_
_geom_bond_atom_site_label_1
_geom_bond_atom_site_label_2
_geom_bond_distance
_geom_bond_site_symmetry_2
_ccdc_geom_bond_type
C0 O27 1.312 1_655 S
C0 O28 1.208 . S
C1 O22 1.331 1_545 S
C1 O25 1.244 . S
C2 O24 1.264 1_545 S
C2 O26 1.273 . S
Mg3 O5 1.936 1_564 S
Mg3 O12 2.081 1_554 S
Mg3 O14 2.023 . S
Mg3 O18 2.031 1_554 S
Mg3 O27 2.291 . S
Mg4 O5 1.963 . S
Mg4 O15 1.942 . S
Mg4 O16 1.955 1_556 S
Mg4 O23 1.986 . S
O5 Mg3 1.936 1_546 S
O5 Mg4 1.963 . S
O5 Mg6 1.915 1_556 S
Mg6 O5 1.915 1_554 S
Mg6 O7 1.915 1_455 S
Mg6 O11 2.013 . S
Mg6 O17 2.114 1_444 S
Mg6 O21 2.013 1_454 S
Mg6 O27 2.114 1_545 S
O7 Mg6 1.915 1_655 S
O7 Mg8 1.936 1_544 S
O7 Mg9 1.963 . S
Mg8 O7 1.936 1_566 S
Mg8 O17 2.291 . S
Mg8 O22 2.081 1_556 S
Mg8 O24 2.023 . S
Mg8 O28 2.031 1_556 S
Mg9 O7 1.963 . S
Mg9 O13 1.986 . S
Mg9 O25 1.942 . S
Mg9 O26 1.955 1_554 S
C10 O21 1.191 1_455 S
C10 O23 1.307 . S
O11 Mg6 2.013 . S
O11 C30 1.191 1_455 S
O12 Mg3 2.081 1_556 S
O12 C20 1.331 . S
O13 Mg9 1.986 . S
O13 C30 1.307 . S
O14 Mg3 2.023 . S
O14 C29 1.264 1_565 S
O15 Mg4 1.942 . S
O15 C20 1.244 1_545 S
O16 Mg4 1.955 1_554 S
O16 C29 1.273 . S
O17 Mg6 2.114 1_666 S
O17 Mg8 2.291 . S
O17 C19 1.312 1_655 S
O18 Mg3 2.031 1_556 S
O18 C19 1.208 . S
C19 O17 1.312 1_455 S
C19 O18 1.208 . S
C20 O12 1.331 . S
C20 O15 1.244 1_565 S
O21 Mg6 2.013 1_656 S
O21 C10 1.191 1_655 S
O22 C1 1.331 1_565 S
O22 Mg8 2.081 1_554 S
O23 Mg4 1.986 . S
O23 C10 1.307 . S
O24 C2 1.264 1_565 S
O24 Mg8 2.023 . S
O25 C1 1.244 . S
O25 Mg9 1.942 . S
O26 C2 1.273 . S
O26 Mg9 1.955 1_556 S
O27 C0 1.312 1_455 S
O27 Mg3 2.291 . S
O27 Mg6 2.114 1_565 S
O28 C0 1.208 . S
O28 Mg8 2.031 1_554 S
C29 O14 1.264 1_545 S
C29 O16 1.273 . S
C30 O11 1.191 1_655 S
C30 O13 1.307 . S
Cu31 N32 1.999 . S
Cu31 O37 1.974 . S
Cu31 N42 1.985 . S
Cu31 O51 1.959 . S
N32 Cu31 1.999 . S
N32 C34 1.263 . S
N32 C36 1.389 . S
N33 C34 1.358 . S
N33 C35 1.400 . S
C34 N32 1.263 . S
C34 N33 1.358 . S
C34 H40 0.930 1_655 S
C35 N33 1.400 . S
C35 C36 1.351 . S
C35 H52 0.930 . S
C36 N32 1.389 . S
C36 C35 1.351 . S
C36 H41 0.930 . S
O37 Cu31 1.974 . S
O37 C47 1.282 1_655 S
C38 O39 1.261 . S
C38 O51 1.251 1_455 S
O39 C38 1.261 . S
H40 C34 0.930 1_455 S
H41 C36 0.930 . S
N42 Cu31 1.985 . S
N42 C44 1.335 . S
N42 C45 1.390 1_655 S
N43 C44 1.345 . S
N43 C46 1.336 1_655 S
C44 N42 1.335 . S
C44 N43 1.345 . S
C44 H49 0.930 . S
C45 N42 1.390 1_455 S
C45 C46 1.346 . S
C45 H50 0.930 . S
C46 N43 1.336 1_455 S
C46 C45 1.346 . S
C46 H53 0.929 . S
C47 O37 1.282 1_455 S
C47 O48 1.216 . S
O48 C47 1.216 . S
H49 C44 0.930 . S
H50 C45 0.930 . S
O51 Cu31 1.959 . S
O51 C38 1.251 1_655 S
H52 C35 0.930 . S
H53 C46 0.929 . S
Cu54 N55 1.999 . S
Cu54 O60 1.974 . S
Cu54 N65 1.985 . S
Cu54 O74 1.959 . S
N55 Cu54 1.999 . S
N55 C57 1.263 . S
N55 C59 1.389 . S
N56 C57 1.358 . S
N56 C58 1.400 . S
C57 N55 1.263 . S
C57 N56 1.358 . S
C57 H63 0.930 1_545 S
C58 N56 1.400 . S
C58 C59 1.351 . S
C58 H75 0.930 . S
C59 N55 1.389 . S
C59 C58 1.351 . S
C59 H64 0.930 . S
O60 Cu54 1.974 . S
O60 C70 1.282 1_545 S
C61 O62 1.261 . S
C61 O74 1.251 1_565 S
O62 C61 1.261 . S
H63 C57 0.930 1_565 S
H64 C59 0.930 . S
N65 Cu54 1.985 . S
N65 C67 1.335 . S
N65 C68 1.390 1_545 S
N66 C67 1.345 . S
N66 C69 1.336 1_545 S
C67 N65 1.335 . S
C67 N66 1.345 . S
C67 H72 0.930 . S
C68 N65 1.390 1_565 S
C68 C69 1.346 . S
C68 H73 0.930 . S
C69 N66 1.336 1_565 S
C69 C68 1.346 . S
C69 H76 0.929 . S
C70 O60 1.282 1_565 S
C70 O71 1.216 . S
O71 C70 1.216 . S
H72 C67 0.930 . S
H73 C68 0.930 . S
O74 Cu54 1.959 . S
O74 C61 1.251 1_545 S
H75 C58 0.930 . S
H76 C69 0.929 . S
H77 C89 0.930 . S
H78 C91 0.930 . S
H79 C92 0.930 . S
H80 C96 0.959 . S
H81 C96 0.959 . S
H82 C96 0.961 . S
H83 C97 0.960 . S
H84 C97 0.961 . S
H85 C97 0.959 1_655 S
H86 C100 0.929 . S
H87 C101 0.931 . S
H88 C103 0.930 . S
C89 H77 0.930 . S
C89 C90 1.401 . S
C89 C94 1.399 . S
C90 C89 1.401 . S
C90 C91 1.374 1_455 S
C91 H78 0.930 . S
C91 C90 1.374 1_655 S
C91 C92 1.388 . S
C92 H79 0.930 . S
C92 C91 1.388 . S
C92 C93 1.390 . S
C93 C92 1.390 . S
C93 C94 1.394 1_655 S
C93 C99 1.465 . S
C94 C89 1.399 . S
C94 C93 1.394 1_455 S
C94 C95 1.516 . S
C95 C94 1.516 . S
C95 C96 1.502 . S
C95 C97 1.561 . S
C95 C98 1.526 . S
C96 H80 0.959 . S
C96 H81 0.959 . S
C96 H82 0.961 . S
C96 C95 1.502 . S
C97 H83 0.960 . S
C97 H84 0.961 . S
C97 H85 0.959 1_455 S
C97 C95 1.561 . S
C98 C95 1.526 . S
C98 C99 1.396 1_455 S
C98 C103 1.390 . S
C99 C93 1.465 . S
C99 C98 1.396 1_655 S
C99 C100 1.399 . S
C100 H86 0.929 . S
C100 C99 1.399 . S
C100 C101 1.385 . S
C101 H87 0.931 . S
C101 C100 1.385 . S
C101 C102 1.389 1_655 S
C102 C101 1.389 1_455 S
C102 C103 1.387 . S
C103 H88 0.930 . S
C103 C98 1.390 . S
C103 C102 1.387 . S
H104 C116 0.930 . S
H105 C118 0.930 . S
H106 C119 0.930 . S
H107 C123 0.959 . S
H108 C123 0.959 . S
H109 C123 0.961 . S
H110 C124 0.960 . S
H111 C124 0.961 . S
H112 C124 0.959 . S
H113 C127 0.929 . S
H114 C128 0.931 . S
H115 C130 0.930 . S
C116 H104 0.930 . S
C116 C117 1.399 1_545 S
C116 C121 1.399 . S
C117 C116 1.399 1_565 S
C117 C118 1.376 . S
C118 H105 0.930 . S
C118 C117 1.376 . S
C118 C119 1.388 . S
C119 H106 0.930 . S
C119 C118 1.388 . S
C119 C120 1.390 . S
C120 C119 1.390 . S
C120 C121 1.394 1_565 S
C120 C126 1.465 . S
C121 C116 1.399 . S
C121 C120 1.394 1_545 S
C121 C122 1.516 . S
C122 C121 1.516 . S
C122 C123 1.502 . S
C122 C124 1.561 . S
C122 C125 1.526 . S
C123 H107 0.959 . S
C123 H108 0.959 . S
C123 H109 0.961 . S
C123 C122 1.502 . S
C124 H110 0.960 . S
C124 H111 0.961 . S
C124 H112 0.959 . S
C124 C122 1.561 . S
C125 C122 1.526 . S
C125 C126 1.396 1_545 S
C125 C130 1.390 . S
C126 C120 1.465 . S
C126 C125 1.396 1_565 S
C126 C127 1.399 . S
C127 H113 0.929 . S
C127 C126 1.399 . S
C127 C128 1.385 . S
C128 H114 0.931 . S
C128 C127 1.385 . S
C128 C129 1.389 1_565 S
C129 C128 1.389 1_545 S
C129 C130 1.387 . S
C130 H115 0.930 . S
C130 C125 1.390 . S
C130 C129 1.387 . S
H131 C143 0.930 . S
H132 C145 0.930 . S
H133 C146 0.930 . S
H134 C150 0.959 . S
H135 C150 0.959 . S
H136 C150 0.961 . S
H137 C151 0.960 . S
H138 C151 0.961 1_655 S
H139 C151 0.959 . S
H140 C154 0.929 . S
H141 C155 0.931 . S
H142 C157 0.930 . S
C143 H131 0.930 . S
C143 C144 1.399 1_655 S
C143 C148 1.399 . S
C144 C143 1.399 1_455 S
C144 C145 1.376 . S
C145 H132 0.930 . S
C145 C144 1.376 . S
C145 C146 1.388 . S
C146 H133 0.930 . S
C146 C145 1.388 . S
C146 C147 1.390 . S
C147 C146 1.390 . S
C147 C148 1.394 1_455 S
C147 C153 1.465 . S
C148 C143 1.399 . S
C148 C147 1.394 1_655 S
C148 C149 1.516 . S
C149 C148 1.516 . S
C149 C150 1.502 . S
C149 C151 1.561 1_655 S
C149 C152 1.526 . S
C150 H134 0.959 . S
C150 H135 0.959 . S
C150 H136 0.961 . S
C150 C149 1.502 . S
C151 H137 0.960 . S
C151 H138 0.961 1_455 S
C151 H139 0.959 . S
C151 C149 1.561 1_455 S
C152 C149 1.526 . S
C152 C153 1.396 1_655 S
C152 C157 1.390 . S
C153 C147 1.465 . S
C153 C152 1.396 1_455 S
C153 C154 1.399 . S
C154 H140 0.929 . S
C154 C153 1.399 . S
C154 C155 1.385 . S
C155 H141 0.931 . S
C155 C154 1.385 . S
C155 C156 1.389 1_455 S
C156 C155 1.389 1_655 S
C156 C157 1.387 . S
C157 H142 0.930 . S
C157 C152 1.390 . S
C157 C156 1.387 . S
H158 C170 0.930 . S
H159 C172 0.930 . S
H160 C173 0.930 . S
H161 C177 0.959 1_545 S
H162 C177 0.959 . S
H163 C177 0.961 . S
H164 C178 0.960 . S
H165 C178 0.961 . S
H166 C178 0.959 . S
H167 C181 0.929 . S
H168 C182 0.931 . S
H169 C184 0.930 . S
C170 H158 0.930 . S
C170 C171 1.399 1_565 S
C170 C175 1.399 . S
C171 C170 1.399 1_545 S
C171 C172 1.376 . S
C172 H159 0.930 . S
C172 C171 1.376 . S
C172 C173 1.388 . S
C173 H160 0.930 . S
C173 C172 1.388 . S
C173 C174 1.390 . S
C174 C173 1.390 . S
C174 C175 1.394 1_545 S
C174 C180 1.465 . S
C175 C170 1.399 . S
C175 C174 1.394 1_565 S
C175 C176 1.516 . S
C176 C175 1.516 . S
C176 C177 1.502 . S
C176 C178 1.561 . S
C176 C179 1.526 . S
C177 H161 0.959 1_565 S
C177 H162 0.959 . S
C177 H163 0.961 . S
C177 C176 1.502 . S
C178 H164 0.960 . S
C178 H165 0.961 . S
C178 H166 0.959 . S
C178 C176 1.561 . S
C179 C176 1.526 . S
C179 C180 1.396 1_565 S
C179 C184 1.390 . S
C180 C174 1.465 . S
C180 C179 1.396 1_545 S
C180 C181 1.399 . S
C181 H167 0.929 . S
C181 C180 1.399 . S
C181 C182 1.385 . S
C182 H168 0.931 . S
C182 C181 1.385 . S
C182 C183 1.389 1_545 S
C183 C182 1.389 1_565 S
C183 C184 1.387 . S
C184 H169 0.930 . S
C184 C179 1.390 . S
C184 C183 1.387 . S
H185 C197 0.930 . S
H186 C199 0.930 . S
H187 C200 0.930 . S
H188 C204 0.959 . S
H189 C204 0.959 . S
H190 C204 0.961 . S
H191 C205 0.960 1_655 S
H192 C205 0.961 1_655 S
H193 C205 0.959 . S
H194 C208 0.929 . S
H195 C209 0.931 . S
H196 C211 0.930 . S
C197 H185 0.930 . S
C197 C198 1.399 1_655 S
C197 C202 1.399 . S
C198 C197 1.399 1_455 S
C198 C199 1.376 . S
C199 H186 0.930 . S
C199 C198 1.376 . S
C199 C200 1.388 . S
C200 H187 0.930 . S
C200 C199 1.388 . S
C200 C201 1.390 . S
C201 C200 1.390 . S
C201 C202 1.394 1_455 S
C201 C207 1.465 . S
C202 C197 1.399 . S
C202 C201 1.394 1_655 S
C202 C203 1.516 . S
C203 C202 1.516 . S
C203 C204 1.502 . S
C203 C205 1.561 1_655 S
C203 C206 1.526 . S
C204 H188 0.959 . S
C204 H189 0.959 . S
C204 H190 0.961 . S
C204 C203 1.502 . S
C205 H191 0.960 1_455 S
C205 H192 0.961 1_455 S
C205 H193 0.959 . S
C205 C203 1.561 1_455 S
C206 C203 1.526 . S
C206 C207 1.396 1_655 S
C206 C211 1.390 . S
C207 C201 1.465 . S
C207 C206 1.396 1_455 S
C207 C208 1.399 . S
C208 H194 0.929 . S
C208 C207 1.399 . S
C208 C209 1.385 . S
C209 H195 0.931 . S
C209 C208 1.385 . S
C209 C210 1.389 . S
C210 C209 1.389 . S
C210 C211 1.387 1_455 S
C211 H196 0.930 . S
C211 C206 1.390 . S
C211 C210 1.387 1_655 S
H212 C224 0.930 . S
H213 C226 0.930 . S
H214 C227 0.930 . S
H215 C231 0.959 . S
H216 C231 0.959 . S
H217 C231 0.961 . S
H218 C232 0.960 . S
H219 C232 0.961 . S
H220 C232 0.959 . S
H221 C235 0.929 . S
H222 C236 0.931 . S
H223 C238 0.930 . S
C224 H212 0.930 . S
C224 C225 1.399 1_545 S
C224 C229 1.399 . S
C225 C224 1.399 1_565 S
C225 C226 1.376 . S
C226 H213 0.930 . S
C226 C225 1.376 . S
C226 C227 1.388 . S
C227 H214 0.930 . S
C227 C226 1.388 . S
C227 C228 1.390 . S
C228 C227 1.390 . S
C228 C229 1.394 1_565 S
C228 C234 1.465 . S
C229 C224 1.399 . S
C229 C228 1.394 1_545 S
C229 C230 1.516 . S
C230 C229 1.516 . S
C230 C231 1.502 . S
C230 C232 1.561 . S
C230 C233 1.526 . S
C231 H215 0.959 . S
C231 H216 0.959 . S
C231 H217 0.961 . S
C231 C230 1.502 . S
C232 H218 0.960 . S
C232 H219 0.961 . S
C232 H220 0.959 . S
C232 C230 1.561 . S
C233 C230 1.526 . S
C233 C234 1.396 1_545 S
C233 C238 1.390 . S
C234 C228 1.465 . S
C234 C233 1.396 1_565 S
C234 C235 1.399 . S
C235 H221 0.929 . S
C235 C234 1.399 . S
C235 C236 1.385 . S
C236 H222 0.931 . S
C236 C235 1.385 . S
C236 C237 1.389 1_565 S
C237 C236 1.389 1_545 S
C237 C238 1.387 . S
C238 H223 0.930 . S
C238 C233 1.390 . S
C238 C237 1.387 . S
H239 C251 0.930 . S
H240 C253 0.930 . S
H241 C254 0.930 . S
H242 C258 0.959 1_455 S
H243 C258 0.959 . S
H244 C258 0.961 . S
H245 C259 0.960 . S
H246 C259 0.961 . S
H247 C259 0.959 . S
H248 C262 0.929 . S
H249 C263 0.931 . S
H250 C265 0.930 . S
C251 H239 0.930 . S
C251 C252 1.403 . S
C251 C256 1.399 . S
C252 C251 1.403 . S
C252 C253 1.373 1_655 S
C253 H240 0.930 . S
C253 C252 1.373 1_455 S
C253 C254 1.388 . S
C254 H241 0.930 . S
C254 C253 1.388 . S
C254 C255 1.390 1_455 S
C255 C254 1.390 1_655 S
C255 C256 1.394 . S
C255 C261 1.465 . S
C256 C251 1.399 . S
C256 C255 1.394 . S
C256 C257 1.516 . S
C257 C256 1.516 . S
C257 C258 1.502 . S
C257 C259 1.561 . S
C257 C260 1.526 . S
C258 H242 0.959 1_655 S
C258 H243 0.959 . S
C258 H244 0.961 . S
C258 C257 1.502 . S
C259 H245 0.960 . S
C259 H246 0.961 . S
C259 H247 0.959 . S
C259 C257 1.561 . S
C260 C257 1.526 . S
C260 C261 1.396 . S
C260 C265 1.390 . S
C261 C255 1.465 . S
C261 C260 1.396 . S
C261 C262 1.399 1_655 S
C262 H248 0.929 . S
C262 C261 1.399 1_455 S
C262 C263 1.385 . S
C263 H249 0.931 . S
C263 C262 1.385 . S
C263 C264 1.389 1_455 S
C264 C263 1.389 1_655 S
C264 C265 1.387 . S
C265 H250 0.930 . S
C265 C260 1.390 . S
C265 C264 1.387 . S
H266 C278 0.930 . S
H267 C280 0.930 . S
H268 C281 0.930 . S
H269 C285 0.959 . S
H270 C285 0.959 . S
H271 C285 0.961 . S
H272 C286 0.960 . S
H273 C286 0.961 . S
H274 C286 0.959 . S
H275 C289 0.929 . S
H276 C290 0.931 . S
H277 C292 0.930 . S
C278 H266 0.930 . S
C278 C279 1.399 1_565 S
C278 C283 1.399 . S
C279 C278 1.399 1_545 S
C279 C280 1.376 . S
C280 H267 0.930 . S
C280 C279 1.376 . S
C280 C281 1.388 . S
C281 H268 0.930 . S
C281 C280 1.388 . S
C281 C282 1.390 . S
C282 C281 1.390 . S
C282 C283 1.394 1_545 S
C282 C288 1.465 . S
C283 C278 1.399 . S
C283 C282 1.394 1_565 S
C283 C284 1.516 . S
C284 C283 1.516 . S
C284 C285 1.502 . S
C284 C286 1.561 . S
C284 C287 1.526 . S
C285 H269 0.959 . S
C285 H270 0.959 . S
C285 H271 0.961 . S
C285 C284 1.502 . S
C286 H272 0.960 . S
C286 H273 0.961 . S
C286 H274 0.959 . S
C286 C284 1.561 . S
C287 C284 1.526 . S
C287 C288 1.396 1_565 S
C287 C292 1.390 . S
C288 C282 1.465 . S
C288 C287 1.396 1_545 S
C288 C289 1.399 . S
C289 H275 0.929 . S
C289 C288 1.399 . S
C289 C290 1.385 . S
C290 H276 0.931 . S
C290 C289 1.385 . S
C290 C291 1.389 1_545 S
C291 C290 1.389 1_565 S
C291 C292 1.387 . S
C292 H277 0.930 . S
C292 C287 1.390 . S
C292 C291 1.387 . S
C90 C30 1.364 1_455 S
C102 C47 1.426 . S
C117 C1 1.444 1_565 S
C129 N66 1.417 . S
C144 C0 1.328 1_455 S
C156 N43 1.321 . S
C171 C29 1.581 . S
C183 C70 1.647 . S
C198 C19 1.353 . S
C210 C38 1.475 . S
C225 C20 1.490 . S
C237 N56 1.508 . S
C264 N33 1.300 . S
C252 C10 1.295 1_655 S
C279 C2 1.633 . S
C291 C61 1.676 . S
