# Generated by pormake.
# Topology pyr, (3,6)-cn, num edge types: 1
# Building blocks:
#     Node 0, Type 0, BuildingBlock: OLANEW_clean_sbu_2, # of connection points: 3
#     Node 1, Type 0, BuildingBlock: OLANEW_clean_sbu_2, # of connection points: 3
#     Node 2, Type 0, BuildingBlock: OLANEW_clean_sbu_2, # of connection points: 3
#     Node 3, Type 0, BuildingBlock: OLANEW_clean_sbu_2, # of connection points: 3
#     Node 4, Type 0, BuildingBlock: OLANEW_clean_sbu_2, # of connection points: 3
#     Node 5, Type 0, BuildingBlock: OLANEW_clean_sbu_2, # of connection points: 3
#     Node 6, Type 0, BuildingBlock: OLANEW_clean_sbu_2, # of connection points: 3
#     Node 7, Type 0, BuildingBlock: OLANEW_clean_sbu_2, # of connection points: 3
#     Node 8, Type 1, BuildingBlock: PAMTUU_clean_sbu_0, # of connection points: 6
#     Node 9, Type 1, BuildingBlock: PAMTUU_clean_sbu_0, # of connection points: 6
#     Node 10, Type 1, BuildingBlock: PAMTUU_clean_sbu_0, # of connection points: 6
#     Node 11, Type 1, BuildingBlock: PAMTUU_clean_sbu_0, # of connection points: 6
#     Edge 12, Type (0, 1), BuildingBlock: AJUNOK_clean_linker_0, # of connection points: 2
#     Edge 13, Type (0, 1), BuildingBlock: AJUNOK_clean_linker_0, # of connection points: 2
#     Edge 14, Type (0, 1), BuildingBlock: AJUNOK_clean_linker_0, # of connection points: 2
#     Edge 15, Type (0, 1), BuildingBlock: AJUNOK_clean_linker_0, # of connection points: 2
#     Edge 16, Type (0, 1), BuildingBlock: AJUNOK_clean_linker_0, # of connection points: 2
#     Edge 17, Type (0, 1), BuildingBlock: AJUNOK_clean_linker_0, # of connection points: 2
#     Edge 18, Type (0, 1), BuildingBlock: AJUNOK_clean_linker_0, # of connection points: 2
#     Edge 19, Type (0, 1), BuildingBlock: AJUNOK_clean_linker_0, # of connection points: 2
#     Edge 20, Type (0, 1), BuildingBlock: AJUNOK_clean_linker_0, # of connection points: 2
#     Edge 21, Type (0, 1), BuildingBlock: AJUNOK_clean_linker_0, # of connection points: 2
#     Edge 22, Type (0, 1), BuildingBlock: AJUNOK_clean_linker_0, # of connection points: 2
#     Edge 23, Type (0, 1), BuildingBlock: AJUNOK_clean_linker_0, # of connection points: 2
#     Edge 24, Type (0, 1), BuildingBlock: AJUNOK_clean_linker_0, # of connection points: 2
#     Edge 25, Type (0, 1), BuildingBlock: AJUNOK_clean_linker_0, # of connection points: 2
#     Edge 26, Type (0, 1), BuildingBlock: AJUNOK_clean_linker_0, # of connection points: 2
#     Edge 27, Type (0, 1), BuildingBlock: AJUNOK_clean_linker_0, # of connection points: 2
#     Edge 28, Type (0, 1), BuildingBlock: AJUNOK_clean_linker_0, # of connection points: 2
#     Edge 29, Type (0, 1), BuildingBlock: AJUNOK_clean_linker_0, # of connection points: 2
#     Edge 30, Type (0, 1), BuildingBlock: AJUNOK_clean_linker_0, # of connection points: 2
#     Edge 31, Type (0, 1), BuildingBlock: AJUNOK_clean_linker_0, # of connection points: 2
#     Edge 32, Type (0, 1), BuildingBlock: AJUNOK_clean_linker_0, # of connection points: 2
#     Edge 33, Type (0, 1), BuildingBlock: AJUNOK_clean_linker_0, # of connection points: 2
#     Edge 34, Type (0, 1), BuildingBlock: AJUNOK_clean_linker_0, # of connection points: 2
#     Edge 35, Type (0, 1), BuildingBlock: AJUNOK_clean_linker_0, # of connection points: 2
# Relax obj value: 0.185
# Max RMSD: 0.195
# Mean RMSD: 0.125
data_MOF--net-pyr--node1-OLANEW_clean_sbu_2--node2-PAMTUU_clean_sbu_0--edge1-AJUNOK_clean_linker_0
_symmetry_space_group_name_H-M    P1
_symmetry_Int_Tables_number       1
_symmetry_cell_setting            triclinic
loop_
_symmetry_equiv_pos_as_xyz
'x, y, z'
_cell_length_a     30.821546
_cell_length_b     32.730973
_cell_length_c     31.357716
_cell_angle_alpha  94.78367
_cell_angle_beta   88.363616
_cell_angle_gamma 105.5765
loop_
_atom_site_label
_atom_site_type_symbol
_atom_site_fract_x
_atom_site_fract_y
_atom_site_fract_z
_atom_type_partial_charge
O0 O 0.42822 0.27987 0.1385 0.0
Cd1 Cd 0.39552 0.329 0.10185 0.0
O2 O 0.36409 0.23315 0.14871 0.0
Cd3 Cd 0.31574 0.1747 0.16605 0.0
O4 O 0.27716 0.14283 0.2187 0.0
C5 C 0.27382 0.16831 0.25072 0.0
O6 O 0.28956 0.20937 0.24708 0.0
C7 C 0.40682 0.24447 0.15215 0.0
C8 C 0.30929 0.34146 0.11704 0.0
O9 O 0.34369 0.36405 0.13815 0.0
O10 O 0.3151 0.31114 0.09078 0.0
O11 O 0.19855 0.83692 0.83563 0.0
Cd12 Cd 0.17051 0.80553 0.76532 0.0
O13 O 0.13614 0.83327 0.87248 0.0
Cd14 Cd 0.09836 0.81933 0.81301 0.0
O15 O 0.07703 0.84477 0.75757 0.0
C16 C 0.05877 0.87522 0.76452 0.0
O17 O 0.05109 0.88757 0.80432 0.0
C18 C 0.17885 0.84193 0.87105 0.0
C19 C 0.24219 0.77675 0.73048 0.0
O20 O 0.23823 0.81363 0.72358 0.0
O21 O 0.21067 0.75266 0.75157 0.0
O22 O 0.75418 0.46087 0.8931 0.0
Cd23 Cd 0.68475 0.43924 0.84708 0.0
O24 O 0.73216 0.40437 0.92959 0.0
Cd25 Cd 0.71828 0.35227 0.97407 0.0
O26 O 0.68467 0.29292 1.00594 0.0
C27 C 0.6422 0.27661 1.00278 0.0
O28 O 0.61896 0.29567 0.98064 0.0
C29 C 0.7617 0.43912 0.92287 0.0
C30 C 0.66229 0.488 0.78377 0.0
O31 O 0.654 0.49493 0.82364 0.0
O32 O 0.68344 0.4597 0.77374 0.0
O33 O 0.95206 0.79124 0.3745 0.0
Cd34 Cd 0.91286 0.72228 0.33359 0.0
O35 O 0.90349 0.77428 0.42739 0.0
Cd36 Cd 0.85965 0.71163 0.40942 0.0
O37 O 0.79858 0.67855 0.44271 0.0
C38 C 0.79141 0.69484 0.4797 0.0
O39 O 0.82116 0.72916 0.49542 0.0
C40 C 0.93685 0.80055 0.41136 0.0
C41 C 0.94536 0.68235 0.25997 0.0
O42 O 0.92644 0.71243 0.25684 0.0
O43 O 0.95163 0.67302 0.29784 0.0
O44 O 0.67319 0.77043 0.78156 0.0
Cd45 Cd 0.64401 0.71483 0.83003 0.0
O46 O 0.67031 0.81712 0.83476 0.0
Cd47 Cd 0.67418 0.87764 0.87216 0.0
O48 O 0.65248 0.91681 0.92439 0.0
C49 C 0.61049 0.9077 0.93272 0.0
O50 O 0.5834 0.87657 0.90935 0.0
C51 C 0.68089 0.80909 0.79603 0.0
C52 C 0.71833 0.69947 0.86769 0.0
O53 O 0.70173 0.67896 0.83268 0.0
O54 O 0.69878 0.72643 0.88565 0.0
O55 O 0.94583 0.26397 0.31265 0.0
Cd56 Cd 0.01502 0.28399 0.35349 0.0
O57 O 0.91818 0.30695 0.35595 0.0
Cd58 Cd 0.86546 0.33641 0.3797 0.0
O59 O 0.81054 0.36135 0.40575 0.0
C60 C 0.77758 0.36114 0.38223 0.0
O61 O 0.77726 0.3456 0.34221 0.0
C62 C 0.91287 0.27847 0.32494 0.0
C63 C 0.01416 0.21559 0.40121 0.0
O64 O 0.03363 0.21919 0.36453 0.0
O65 O 0.99609 0.24498 0.41571 0.0
O66 O 0.44826 0.81413 0.28688 0.0
Cd67 Cd 0.41507 0.74726 0.32506 0.0
O68 O 0.39363 0.78727 0.24175 0.0
Cd69 Cd 0.33912 0.76666 0.19367 0.0
O70 O 0.2782 0.72154 0.16485 0.0
C71 C 0.26967 0.71548 0.12498 0.0
O72 O 0.29793 0.7382 0.09829 0.0
C73 C 0.42736 0.81816 0.25343 0.0
C74 C 0.45077 0.70987 0.39021 0.0
O75 O 0.45342 0.69753 0.35053 0.0
O76 O 0.4344 0.74177 0.39902 0.0
O77 O 0.16117 0.45969 0.79475 0.0
Cd78 Cd 0.19109 0.43381 0.72685 0.0
O79 O 0.12845 0.39683 0.81857 0.0
Cd80 Cd 0.1414 0.35236 0.76548 0.0
O81 O 0.13344 0.29156 0.72528 0.0
C82 C 0.09368 0.2674 0.72008 0.0
O83 O 0.06008 0.28033 0.73792 0.0
C84 C 0.1385 0.43739 0.8234 0.0
C85 C 0.27828 0.47793 0.70029 0.0
O86 O 0.24374 0.49031 0.69134 0.0
O87 O 0.27175 0.44597 0.72298 0.0
Tb88 Tb 0.0762 0.03514 0.55571 0.0
Tb89 Tb 0.97087 1.02533 0.58624 0.0
C90 C 0.99775 0.96193 0.51693 0.0
C91 C 0.17809 0.06583 0.49114 0.0
C92 C 0.21312 0.10085 0.41432 0.0
C93 C 0.22021 0.06225 0.4249 0.0
C94 C 0.20294 0.04494 0.46315 0.0
C95 C 0.17129 0.10457 0.48064 0.0
C96 C 0.18881 0.12196 0.44274 0.0
C97 C 0.156 0.04545 0.52908 0.0
O98 O 0.05481 0.07936 0.51935 0.0
O99 O 0.97731 0.05818 0.52772 0.0
O100 O 1.00828 0.09058 0.60309 0.0
O101 O 0.07639 0.07812 0.61318 0.0
O102 O 0.90131 1.00249 0.57498 0.0
O103 O 0.92656 0.03866 0.63416 0.0
O104 O 1.00255 1.00077 0.63599 0.0
O105 O 0.06119 0.9842 0.598 0.0
O106 O 0.03298 0.99266 0.50755 0.0
O107 O 0.97469 0.96554 0.55231 0.0
C108 C 0.01409 0.08028 0.50923 0.0
O109 O 0.14393 0.07042 0.5589 0.0
O110 O 0.12432 1.01041 0.5212 0.0
C111 C 0.04868 0.10238 0.6197 0.0
C112 C 0.8575 0.98642 0.63816 0.0
C113 C 0.79394 0.93118 0.68818 0.0
C114 C 0.80004 0.97535 0.69402 0.0
C115 C 0.83139 1.00268 0.66907 0.0
C116 C 0.85179 0.94228 0.63247 0.0
C117 C 0.82016 0.91489 0.6572 0.0
C118 C 0.89102 1.01629 0.6132 0.0
C119 C 0.0336 0.97994 0.63091 0.0
H120 H 0.23893 0.04542 0.4035 0.0
H121 H 0.20812 1.01482 0.47044 0.0
H122 H 0.15148 0.12101 0.50117 0.0
H123 H 0.18208 0.15131 0.43502 0.0
H124 H 0.78035 0.98869 0.71772 0.0
H125 H 0.83547 0.03666 0.67408 0.0
H126 H 0.87196 0.929 0.60921 0.0
H127 H 0.81673 0.881 0.65265 0.0
Tb128 Tb 0.56386 0.06236 0.15974 0.0
Tb129 Tb 0.46849 0.046 0.11037 0.0
C130 C 0.54311 1.00264 0.07317 0.0
C131 C 0.67258 0.11221 0.21712 0.0
C132 C 0.74739 0.17769 0.24698 0.0
C133 C 0.75338 0.14007 0.22576 0.0
C134 C 0.71628 0.10758 0.21114 0.0
C135 C 0.66651 0.15044 0.23704 0.0
C136 C 0.70372 0.18291 0.252 0.0
C137 C 0.63421 0.0761 0.20373 0.0
O138 O 0.58143 0.10334 0.10705 0.0
O139 O 0.51049 0.1065 0.08912 0.0
O140 O 0.46784 0.07826 0.17358 0.0
O141 O 0.53881 0.11854 0.174 0.0
O142 O 0.42845 0.05138 0.05925 0.0
O143 O 0.39837 0.02923 0.11897 0.0
O144 O 0.46732 0.98467 0.13352 0.0
O145 O 0.51357 1.0121 0.19025 0.0
O146 O 0.56552 1.01244 0.10947 0.0
O147 O 0.50734 1.01561 0.06593 0.0
C148 C 0.55485 0.1203 0.08633 0.0
O149 O 0.59473 0.07629 0.21986 0.0
O150 O 0.63215 0.06358 0.1631 0.0
C151 C 0.49627 0.11525 0.18219 0.0
C152 C 0.35758 1.0017 0.05622 0.0
C153 C 0.2943 0.93891 1.00707 0.0
C154 C 0.28627 0.97858 1.01912 0.0
C155 C 0.31766 1.00968 0.0436 0.0
C156 C 0.36549 0.96189 0.04518 0.0
C157 C 0.33404 0.93068 0.02064 0.0
C158 C 0.39107 0.03573 0.07972 0.0
C159 C 0.48369 0.98009 0.1705 0.0
H160 H 0.7867 0.13516 0.22183 0.0
H161 H 0.72168 0.07838 0.19588 0.0
H162 H 0.63311 0.15497 0.24172 0.0
H163 H 0.69838 0.21183 0.26797 0.0
H164 H 0.25659 0.98623 1.00817 0.0
H165 H 0.31126 0.04037 0.05182 0.0
H166 H 0.39627 0.95533 0.05482 0.0
H167 H 0.34111 0.90043 1.01158 0.0
Tb168 Tb 0.53238 0.54693 0.56258 0.0
Tb169 Tb 0.53844 0.6335 0.62464 0.0
C170 C 0.50134 0.62354 0.53073 0.0
C171 C 0.56539 0.46259 0.49492 0.0
C172 C 0.63345 0.42903 0.45665 0.0
C173 C 0.58784 0.40917 0.44774 0.0
C174 C 0.55405 0.42592 0.46671 0.0
C175 C 0.61082 0.48238 0.50416 0.0
C176 C 0.64459 0.46566 0.48525 0.0
C177 C 0.53 0.48071 0.51399 0.0
O178 O 0.592 0.593 0.5423 0.0
O179 O 0.60755 0.64051 0.60175 0.0
O180 O 0.55853 0.58963 0.66364 0.0
O181 O 0.58195 0.54703 0.61144 0.0
O182 O 0.55301 0.70007 0.63574 0.0
O183 O 0.52537 0.65913 0.68574 0.0
O184 O 0.46759 0.59745 0.62161 0.0
O185 O 0.47831 0.53133 0.60914 0.0
O186 O 0.4918 0.58183 0.53157 0.0
O187 O 0.52491 0.64896 0.56125 0.0
C188 C 0.61946 0.62468 0.56457 0.0
O189 O 0.52618 0.48118 0.55547 0.0
O190 O 0.5289 0.51692 0.50046 0.0
C191 C 0.58096 0.5616 0.65182 0.0
C192 C 0.49558 0.71693 0.67998 0.0
C193 C 0.41389 0.73919 0.69375 0.0
C194 C 0.43954 0.73486 0.72859 0.0
C195 C 0.48014 0.72392 0.72174 0.0
C196 C 0.47076 0.72294 0.64515 0.0
C197 C 0.43042 0.73435 0.65204 0.0
C198 C 0.53334 0.69737 0.67316 0.0
C199 C 0.45362 0.55617 0.62426 0.0
H200 H 0.5783 0.38047 0.42644 0.0
H201 H 0.5191 0.41029 0.45933 0.0
H202 H 0.62012 0.51087 0.5258 0.0
H203 H 0.67946 0.48165 0.49256 0.0
H204 H 0.42758 0.73894 0.76108 0.0
H205 H 0.4985 0.71909 0.749 0.0
H206 H 0.48151 0.71714 0.61256 0.0
H207 H 0.41113 0.73752 0.62474 0.0
Tb208 Tb 0.0176 0.59036 1.00564 0.0
Tb209 Tb 0.02249 0.51156 0.06181 0.0
C210 C 0.06177 0.51805 0.96956 0.0
C211 C 0.96773 0.66205 0.95175 0.0
C212 C 0.88718 0.67921 0.92892 0.0
C213 C 0.92498 0.68816 0.90167 0.0
C214 C 0.96501 0.6797 0.91307 0.0
C215 C 0.93037 0.65398 0.97954 0.0
C216 C 0.8904 0.66267 0.96827 0.0
C217 C 1.00733 0.6473 0.96033 0.0
O218 O 0.94853 0.55375 1.01424 0.0
O219 O 0.96098 0.48926 0.02262 0.0
O220 O 0.98291 0.54642 0.1016 0.0
O221 O 1.00678 0.61093 0.07224 0.0
O222 O 0.01749 0.44617 0.06179 0.0
O223 O 0.03424 0.48757 0.11932 0.0
O224 O 0.08021 0.56499 0.08076 0.0
O225 O 0.08816 0.60465 0.0225 0.0
O226 O 0.03501 0.54164 0.96165 0.0
O227 O 0.0694 0.51147 1.00891 0.0
C228 C 0.93444 0.51214 1.01149 0.0
O229 O 0.02286 0.65501 0.99922 0.0
O230 O 1.00448 0.60832 0.94571 0.0
C231 C 0.98872 0.58796 0.10398 0.0
C232 C 0.07128 0.43315 0.10673 0.0
C233 C 0.14602 0.39967 0.11472 0.0
C234 C 0.10217 0.37552 0.12415 0.0
C235 C 0.06513 0.39214 0.12015 0.0
C236 C 0.115 0.45742 0.09748 0.0
C237 C 0.152 0.44092 0.10164 0.0
C238 C 0.03206 0.4499 0.10087 0.0
C239 C 0.10348 0.59609 0.05847 0.0
H240 H 0.92323 0.70093 0.87118 0.0
H241 H 0.99334 0.68559 0.89104 0.0
H242 H 0.9316 0.6396 1.00923 0.0
H243 H 0.86149 0.65486 0.98947 0.0
H244 H 0.09655 0.34388 0.13483 0.0
H245 H 0.03166 0.37287 0.12732 0.0
H246 H 0.12046 0.48902 0.08669 0.0
H247 H 0.18529 0.46017 0.09387 0.0
C248 C 0.23441 0.109 0.2951 0.0
C249 C 0.25777 0.15207 0.29265 0.0
C250 C 0.22048 0.09255 0.33459 0.0
C251 C 0.22958 0.11851 0.37308 0.0
H252 H 0.22664 0.08781 0.26629 0.0
H253 H 0.20193 0.05938 0.33496 0.0
S254 S 0.29239 0.23256 0.38473 0.0
N255 N 0.29087 0.21995 0.33263 0.0
N256 N 0.26523 0.18868 0.40667 0.0
C257 C 0.25338 0.16141 0.37121 0.0
C258 C 0.26734 0.17828 0.33106 0.0
C259 C 0.25384 0.8693 0.90615 0.0
C260 C 0.20659 0.86096 0.90926 0.0
C261 C 0.28181 0.89253 0.93904 0.0
C262 C 0.26373 0.90838 0.97644 0.0
H263 H 0.26967 0.85923 0.87736 0.0
H264 H 0.31794 0.89996 0.93414 0.0
S265 S 0.14251 0.89029 1.00365 0.0
N266 N 0.14296 0.86676 0.95502 0.0
N267 N 0.19589 0.91026 1.01707 0.0
C268 C 0.21664 0.89807 0.98132 0.0
C269 C 0.18799 0.87432 0.94775 0.0
C270 C 0.64327 0.49358 0.70686 0.0
C271 C 0.64513 0.50972 0.75013 0.0
C272 C 0.6234 0.51091 0.67527 0.0
C273 C 0.60452 0.54532 0.6854 0.0
H274 H 0.65619 0.46648 0.69734 0.0
H275 H 0.62207 0.49652 0.64279 0.0
S276 S 0.60463 0.60219 0.79332 0.0
N277 N 0.62891 0.56416 0.80074 0.0
N278 N 0.59212 0.59678 0.74198 0.0
C279 C 0.60769 0.56276 0.72836 0.0
C280 C 0.62778 0.54501 0.76047 0.0
C281 C 0.95734 0.67315 0.18017 0.0
C282 C 0.95745 0.6579 0.2209 0.0
C283 C 0.96703 0.6502 0.14275 0.0
C284 C 0.97647 0.6105 0.14414 0.0
H285 H 0.94987 0.70326 0.17706 0.0
H286 H 0.96682 0.66368 0.11238 0.0
S287 S 0.98143 0.55613 0.24247 0.0
N288 N 0.96842 0.60035 0.2601 0.0
N289 N 0.9859 0.55722 0.18997 0.0
C290 C 0.9765 0.59471 0.18456 0.0
C291 C 0.96727 0.61838 0.22279 0.0
C292 C 0.47451 0.21584 0.14747 0.0
C293 C 0.43258 0.21561 0.16678 0.0
C294 C 0.49735 0.18562 0.15588 0.0
C295 C 0.4787 0.15332 0.18318 0.0
H296 H 0.48893 0.23833 0.12405 0.0
H297 H 0.52842 0.1861 0.13878 0.0
S298 S 0.37766 0.14636 0.25166 0.0
N299 N 0.37971 0.18685 0.22276 0.0
N300 N 0.42062 0.12771 0.2356 0.0
C301 C 0.43904 0.15495 0.20553 0.0
C302 C 0.41643 0.18658 0.198 0.0
C303 C 0.02742 0.93116 0.73738 0.0
C304 C 0.04993 0.89913 0.72897 0.0
C305 C 0.02147 0.95654 0.70533 0.0
C306 C 0.03822 0.95123 0.66365 0.0
H307 H 0.01472 0.9372 0.76919 0.0
H308 H 1.00455 0.98118 0.71366 0.0
S309 S 0.09667 0.86978 0.62387 0.0
N310 N 0.08685 0.86199 0.67497 0.0
N311 N 0.07585 0.90972 0.61489 0.0
C312 C 0.05969 0.91854 0.6544 0.0
C313 C 0.06545 0.89246 0.68697 0.0
C314 C 0.82388 0.49999 0.95324 0.0
C315 C 0.80378 0.45582 0.94894 0.0
C316 C 0.86495 0.51745 0.97457 0.0
C317 C 0.88872 0.49169 0.9924 0.0
H318 H 0.80786 0.52157 0.93962 0.0
H319 H 0.87859 0.55168 0.97607 0.0
S320 S 0.85082 0.37376 0.99042 0.0
N321 N 0.81073 0.38648 0.96489 0.0
N322 N 0.88808 0.41914 1.0048 0.0
C323 C 0.86872 0.44736 0.98899 0.0
C324 C 0.82635 0.42953 0.96744 0.0
C325 C 0.71659 0.64167 0.48485 0.0
C326 C 0.74912 0.67675 0.5036 0.0
C327 C 0.67548 0.62502 0.50529 0.0
C328 C 0.66472 0.64264 0.54553 0.0
H329 H 0.72254 0.62706 0.45373 0.0
H330 H 0.65177 0.5982 0.4888 0.0
S331 S 0.7395 0.73323 0.60992 0.0
N332 N 0.76877 0.72754 0.56596 0.0
N333 N 0.69121 0.69621 0.60432 0.0
C334 C 0.69735 0.67715 0.56527 0.0
C335 C 0.73952 0.69418 0.54436 0.0
C336 C 0.26324 0.39189 0.1414 0.0
C337 C 0.26547 0.3529 0.11993 0.0
C338 C 0.2243 0.40628 0.14024 0.0
C339 C 0.18566 0.38212 0.11801 0.0
H340 H 0.29233 0.41229 0.15818 0.0
H341 H 0.22463 0.43689 0.15653 0.0
S342 S 0.17267 0.27692 0.05815 0.0
N343 N 0.22445 0.28958 0.07702 0.0
N344 N 0.15146 0.31672 0.07501 0.0
C345 C 0.18673 0.34245 0.09763 0.0
C346 C 0.22652 0.32785 0.09853 0.0
C347 C 0.64433 0.21336 0.04297 0.0
C348 C 0.61908 0.23651 0.02327 0.0
C349 C 0.62337 0.17567 0.06238 0.0
C350 C 0.57606 0.15922 0.06316 0.0
H351 H 0.68075 0.22439 0.04352 0.0
H352 H 0.64471 0.15957 0.07725 0.0
S353 S 0.49403 0.20774 1.01641 0.0
N354 N 0.54367 0.24 1.00602 0.0
N355 N 0.5046 0.16955 0.04214 0.0
C356 C 0.55036 0.18194 0.04334 0.0
C357 C 0.57171 0.22037 0.02359 0.0
C358 C 0.93599 0.84897 0.47725 0.0
C359 C 0.95542 0.84217 0.43685 0.0
C360 C 0.94992 0.88752 0.50225 0.0
C361 C 0.98432 0.92163 0.4885 0.0
H362 H 0.90915 0.82428 0.49006 0.0
H363 H 0.93333 0.89034 0.53284 0.0
S364 S 0.04751 0.92101 0.38573 0.0
N365 N 0.01167 0.87324 0.38443 0.0
N366 N 0.03834 0.94599 0.43169 0.0
C367 C 1.0047 0.91548 0.4484 0.0
C368 C 0.99024 0.87584 0.42258 0.0
C369 C 0.31757 0.79104 0.69395 0.0
C370 C 0.28381 0.76408 0.71771 0.0
C371 C 0.35928 0.78237 0.68549 0.0
C372 C 0.36894 0.74675 0.70092 0.0
H373 H 0.31218 0.81961 0.68251 0.0
H374 H 0.38461 0.8043 0.66778 0.0
S375 S 0.29141 0.66397 0.76111 0.0
N376 N 0.26229 0.69843 0.7539 0.0
N377 N 0.34084 0.68264 0.73813 0.0
C378 C 0.3352 0.71875 0.72335 0.0
C379 C 0.29258 0.72725 0.73165 0.0
C380 C 0.73522 0.88 0.78634 0.0
C381 C 0.70437 0.84305 0.76851 0.0
C382 C 0.76314 0.9091 0.76012 0.0
C383 C 0.76127 0.90217 0.71521 0.0
H384 H 0.73956 0.88543 0.82066 0.0
H385 H 0.78763 0.93631 0.77512 0.0
S386 S 0.68171 0.81371 0.6528 0.0
N387 N 0.67046 0.80345 0.70321 0.0
N388 N 0.72283 0.85816 0.65415 0.0
C389 C 0.72901 0.86653 0.69706 0.0
C390 C 0.7006 0.83699 0.72366 0.0
C391 C 0.86607 0.24865 0.26059 0.0
C392 C 0.86851 0.25959 0.30494 0.0
C393 C 0.82588 0.22417 0.24156 0.0
C394 C 0.7868 0.20969 0.26625 0.0
H395 H 0.89587 0.25785 0.24068 0.0
H396 H 0.82579 0.21518 0.2075 0.0
S397 S 0.77581 0.22851 0.38377 0.0
N398 N 0.82865 0.25323 0.37313 0.0
N399 N 0.75281 0.20818 0.33716 0.0
C400 C 0.78833 0.22165 0.31038 0.0
C401 C 0.82933 0.24633 0.32982 0.0
C402 C 0.47052 0.70638 0.4671 0.0
C403 C 0.46413 0.68698 0.4251 0.0
C404 C 0.48181 0.68537 0.5008 0.0
C405 C 0.48639 0.64353 0.49448 0.0
H406 H 0.46714 0.73836 0.47407 0.0
H407 H 0.48691 0.70221 0.53224 0.0
S408 S 0.47264 0.57783 0.39091 0.0
N409 N 0.46316 0.62296 0.37925 0.0
N410 N 0.48353 0.58344 0.44266 0.0
C411 C 0.47956 0.62345 0.4528 0.0
C412 C 0.46877 0.64515 0.4182 0.0
C413 C 0.10996 0.4971 0.85884 0.0
C414 C 0.12149 0.45859 0.8618 0.0
C415 C 0.09069 0.51607 0.89371 0.0
C416 C 0.08318 0.49791 0.93335 0.0
H417 H 0.11468 0.51214 0.82894 0.0
H418 H 0.08172 0.5453 0.88956 0.0
S419 S 0.10955 0.39832 0.95864 0.0
N420 N 0.12494 0.40353 0.90806 0.0
N421 N 0.09005 0.43962 0.97371 0.0
C422 C 0.09569 0.45999 0.93708 0.0
C423 C 0.11443 0.44023 0.90133 0.0
C424 C 0.62148 0.95592 1.00044 0.0
C425 C 0.59239 0.93099 0.96868 0.0
C426 C 0.60512 0.97797 0.03484 0.0
C427 C 0.55912 0.97648 0.03847 0.0
H428 H 0.65724 0.95839 0.99887 0.0
H429 H 0.62891 0.99713 0.05817 0.0
S430 S 0.46848 0.91502 0.96463 0.0
N431 N 0.51492 0.90546 0.94384 0.0
N432 N 0.48444 0.94707 1.00809 0.0
C433 C 0.52957 0.95138 1.00721 0.0
C434 C 0.54612 0.9286 0.97245 0.0
C435 C 0.98334 0.17117 0.46201 0.0
C436 C 0.01239 0.17868 0.42629 0.0
C437 C 0.98216 0.1376 0.48741 0.0
C438 C 1.01049 0.11077 0.4784 0.0
H439 H 0.96166 0.19169 0.47082 0.0
H440 H 0.96035 0.13381 0.51535 0.0
S441 S 0.08964 0.11393 0.38671 0.0
N442 N 0.06778 0.15412 0.3816 0.0
N443 N 0.06611 0.09171 0.43004 0.0
C444 C 0.03862 0.11692 0.44216 0.0
C445 C 0.03939 0.15067 0.41589 0.0
C446 C 0.21424 0.68334 0.06616 0.0
C447 C 0.22806 0.68349 0.10862 0.0
C448 C 0.17461 0.6545 0.0501 0.0
C449 C 0.14709 0.62415 0.07559 0.0
H450 H 0.23379 0.70619 0.04517 0.0
H451 H 0.16535 0.65641 1.0174 0.0
S452 S 0.16927 0.60953 0.18849 0.0
N453 N 0.21167 0.64948 0.17551 0.0
N454 N 0.13758 0.59526 0.1454 0.0
C455 C 0.16108 0.62322 0.11786 0.0
C456 C 0.20133 0.65287 0.13433 0.0
C457 C 0.3324 0.53804 0.66501 0.0
C458 C 0.32393 0.49862 0.68319 0.0
C459 C 0.37457 0.55698 0.64675 0.0
C460 C 0.40969 0.53686 0.64518 0.0
H461 H 0.30619 0.5544 0.66467 0.0
H462 H 0.37932 0.58715 0.63295 0.0
S463 S 0.40594 0.43443 0.69012 0.0
N464 N 0.3553 0.44113 0.69989 0.0
N465 N 0.4338 0.47622 0.66531 0.0
C466 C 0.40192 0.49784 0.66389 0.0
C467 C 0.35932 0.47889 0.68295 0.0
C468 C 0.78477 0.66931 0.86083 0.0
C469 C 0.76019 0.69355 0.88537 0.0
C470 C 0.82579 0.66504 0.87519 0.0
C471 C 0.84368 0.68445 0.91485 0.0
H472 H 0.77266 0.65393 0.82987 0.0
H473 H 0.84357 0.64616 0.85516 0.0
S474 S 0.79286 0.75075 0.99187 0.0
N475 N 0.75688 0.73694 0.95181 0.0
N476 N 0.83402 0.72849 0.97872 0.0
C477 C 0.81936 0.70822 0.94011 0.0
C478 C 0.77765 0.71291 0.92538 0.0
C479 C 0.46806 0.89616 0.25226 0.0
C480 C 0.44127 0.85862 0.23082 0.0
C481 C 0.48124 0.93493 0.23273 0.0
C482 C 0.46836 0.93833 0.19063 0.0
H483 H 0.47875 0.89582 0.2848 0.0
H484 H 0.50167 0.96256 0.25106 0.0
S485 S 0.40108 0.84904 0.11881 0.0
N486 N 0.4047 0.82722 0.16371 0.0
N487 N 0.42848 0.89972 0.12745 0.0
C488 C 0.44201 0.90094 0.16852 0.0
C489 C 0.42876 0.86134 0.18842 0.0
C490 C 0.03946 0.20338 0.68445 0.0
C491 C 0.08434 0.22537 0.69451 0.0
C492 C 0.02868 0.16382 0.66071 0.0
C493 C 0.06215 0.14391 0.64604 0.0
H494 H 0.01208 0.21689 0.69474 0.0
H495 H 0.99349 0.14871 0.65393 0.0
S496 S 0.18511 0.18756 0.66369 0.0
N497 N 0.16281 0.22399 0.68787 0.0
N498 N 0.14244 0.14938 0.64342 0.0
C499 C 0.10726 0.16525 0.65604 0.0
C500 C 0.11836 0.20596 0.6801 0.0
C501 C 0.73792 0.38855 0.44445 0.0
C502 C 0.74018 0.37813 0.40008 0.0
C503 C 0.70331 0.40488 0.46238 0.0
C504 C 0.6695 0.41142 0.43673 0.0
H505 H 0.76299 0.38393 0.4657 0.0
H506 H 0.7028 0.4121 0.49672 0.0
S507 S 0.66086 0.39159 0.31869 0.0
N508 N 0.70592 0.37682 0.33075 0.0
N509 N 0.64115 0.40789 0.36464 0.0
C510 C 0.67136 0.40148 0.39235 0.0
C511 C 0.70661 0.38478 0.374 0.0
loop_
_geom_bond_atom_site_label_1
_geom_bond_atom_site_label_2
_geom_bond_distance
_geom_bond_site_symmetry_2
_ccdc_geom_bond_type
O0 Cd1 2.300 . S
O0 C7 1.275 . S
Cd1 O0 2.300 . S
Cd1 O9 2.381 . S
Cd1 O10 2.378 . S
O2 Cd3 2.385 . S
O2 C7 1.255 . S
Cd3 O2 2.385 . S
Cd3 O4 2.317 . S
O4 Cd3 2.317 . S
O4 C5 1.232 . S
C5 O4 1.232 . S
C5 O6 1.218 . S
O6 C5 1.218 . S
C7 O0 1.275 . S
C7 O2 1.255 . S
C8 O9 1.258 . S
C8 O10 1.256 . S
O9 Cd1 2.381 . S
O9 C8 1.258 . S
O10 Cd1 2.378 . S
O10 C8 1.256 . S
O11 Cd12 2.300 . S
O11 C18 1.275 . S
Cd12 O11 2.300 . S
Cd12 O20 2.381 . S
Cd12 O21 2.378 . S
O13 Cd14 2.385 . S
O13 C18 1.255 . S
Cd14 O13 2.385 . S
Cd14 O15 2.317 . S
O15 Cd14 2.317 . S
O15 C16 1.232 . S
C16 O15 1.232 . S
C16 O17 1.218 . S
O17 C16 1.218 . S
C18 O11 1.275 . S
C18 O13 1.255 . S
C19 O20 1.258 . S
C19 O21 1.256 . S
O20 Cd12 2.381 . S
O20 C19 1.258 . S
O21 Cd12 2.378 . S
O21 C19 1.256 . S
O22 Cd23 2.300 . S
O22 C29 1.275 . S
Cd23 O22 2.300 . S
Cd23 O31 2.381 . S
Cd23 O32 2.378 . S
O24 Cd25 2.385 . S
O24 C29 1.255 . S
Cd25 O24 2.385 . S
Cd25 O26 2.317 . S
O26 Cd25 2.317 . S
O26 C27 1.232 . S
C27 O26 1.232 . S
C27 O28 1.218 . S
O28 C27 1.218 . S
C29 O22 1.275 . S
C29 O24 1.255 . S
C30 O31 1.258 . S
C30 O32 1.256 . S
O31 Cd23 2.381 . S
O31 C30 1.258 . S
O32 Cd23 2.378 . S
O32 C30 1.256 . S
O33 Cd34 2.300 . S
O33 C40 1.275 . S
Cd34 O33 2.300 . S
Cd34 O42 2.381 . S
Cd34 O43 2.378 . S
O35 Cd36 2.385 . S
O35 C40 1.255 . S
Cd36 O35 2.385 . S
Cd36 O37 2.317 . S
O37 Cd36 2.317 . S
O37 C38 1.232 . S
C38 O37 1.232 . S
C38 O39 1.218 . S
O39 C38 1.218 . S
C40 O33 1.275 . S
C40 O35 1.255 . S
C41 O42 1.258 . S
C41 O43 1.256 . S
O42 Cd34 2.381 . S
O42 C41 1.258 . S
O43 Cd34 2.378 . S
O43 C41 1.256 . S
O44 Cd45 2.300 . S
O44 C51 1.275 . S
Cd45 O44 2.300 . S
Cd45 O53 2.381 . S
Cd45 O54 2.378 . S
O46 Cd47 2.385 . S
O46 C51 1.255 . S
Cd47 O46 2.385 . S
Cd47 O48 2.317 . S
O48 Cd47 2.317 . S
O48 C49 1.232 . S
C49 O48 1.232 . S
C49 O50 1.218 . S
O50 C49 1.218 . S
C51 O44 1.275 . S
C51 O46 1.255 . S
C52 O53 1.258 . S
C52 O54 1.256 . S
O53 Cd45 2.381 . S
O53 C52 1.258 . S
O54 Cd45 2.378 . S
O54 C52 1.256 . S
O55 Cd56 2.300 . S
O55 C62 1.275 . S
Cd56 O55 2.300 . S
Cd56 O64 2.381 . S
Cd56 O65 2.378 1_655 S
O57 Cd58 2.385 . S
O57 C62 1.255 . S
Cd58 O57 2.385 . S
Cd58 O59 2.317 . S
O59 Cd58 2.317 . S
O59 C60 1.232 . S
C60 O59 1.232 . S
C60 O61 1.218 . S
O61 C60 1.218 . S
C62 O55 1.275 . S
C62 O57 1.255 . S
C63 O64 1.258 . S
C63 O65 1.256 1_655 S
O64 Cd56 2.381 . S
O64 C63 1.258 . S
O65 Cd56 2.378 1_455 S
O65 C63 1.256 1_455 S
O66 Cd67 2.300 . S
O66 C73 1.275 . S
Cd67 O66 2.300 . S
Cd67 O75 2.381 . S
Cd67 O76 2.378 . S
O68 Cd69 2.385 . S
O68 C73 1.255 . S
Cd69 O68 2.385 . S
Cd69 O70 2.317 . S
O70 Cd69 2.317 . S
O70 C71 1.232 . S
C71 O70 1.232 . S
C71 O72 1.218 . S
O72 C71 1.218 . S
C73 O66 1.275 . S
C73 O68 1.255 . S
C74 O75 1.258 . S
C74 O76 1.256 . S
O75 Cd67 2.381 . S
O75 C74 1.258 . S
O76 Cd67 2.378 . S
O76 C74 1.256 . S
O77 Cd78 2.300 . S
O77 C84 1.275 . S
Cd78 O77 2.300 . S
Cd78 O86 2.381 . S
Cd78 O87 2.378 . S
O79 Cd80 2.385 . S
O79 C84 1.255 . S
Cd80 O79 2.385 . S
Cd80 O81 2.317 . S
O81 Cd80 2.317 . S
O81 C82 1.232 . S
C82 O81 1.232 . S
C82 O83 1.218 . S
O83 C82 1.218 . S
C84 O77 1.275 . S
C84 O79 1.255 . S
C85 O86 1.258 . S
C85 O87 1.256 . S
O86 Cd78 2.381 . S
O86 C85 1.258 . S
O87 Cd78 2.378 . S
O87 C85 1.256 . S
Tb88 C97 2.764 . S
Tb88 O98 2.325 . S
Tb88 O101 2.303 . S
Tb88 O105 2.322 1_545 S
Tb88 O106 2.349 1_545 S
Tb88 O109 2.415 . S
Tb88 O110 2.399 . S
Tb89 O99 2.322 . S
Tb89 O100 2.349 . S
Tb89 O102 2.415 1_545 S
Tb89 O103 2.401 . S
Tb89 O104 2.325 1_645 S
Tb89 O107 2.303 1_545 S
Tb89 C118 2.764 1_545 S
C90 O106 1.261 1_655 S
C90 O107 1.257 . S
C91 C94 1.358 . S
C91 C95 1.332 . S
C91 C97 1.504 . S
C92 C93 1.373 . S
C92 C96 1.308 . S
C93 C92 1.373 . S
C93 C94 1.429 . S
C93 H120 0.932 . S
C94 C91 1.358 . S
C94 C93 1.429 . S
C94 H121 0.930 . S
C95 C91 1.332 . S
C95 C96 1.394 . S
C95 H122 0.932 . S
C96 C92 1.308 . S
C96 C95 1.394 . S
C96 H123 0.929 . S
C97 Tb88 2.764 . S
C97 C91 1.504 . S
C97 O109 1.239 . S
C97 O110 1.263 . S
O98 Tb88 2.325 . S
O98 C108 1.236 1_455 S
O99 Tb89 2.322 . S
O99 C108 1.257 . S
O100 Tb89 2.349 . S
O100 C111 1.261 1_655 S
O101 Tb88 2.303 . S
O101 C111 1.257 . S
O102 Tb89 2.415 1_565 S
O102 C118 1.239 . S
O103 Tb89 2.401 . S
O103 C118 1.249 1_545 S
O104 Tb89 2.325 1_465 S
O104 C119 1.236 . S
O105 Tb88 2.322 1_565 S
O105 C119 1.257 . S
O106 Tb88 2.349 1_565 S
O106 C90 1.261 1_455 S
O107 Tb89 2.303 1_565 S
O107 C90 1.257 . S
C108 O98 1.236 1_655 S
C108 O99 1.257 . S
O109 Tb88 2.415 . S
O109 C97 1.239 . S
O110 Tb88 2.399 . S
O110 C97 1.263 . S
C111 O100 1.261 1_455 S
C111 O101 1.257 . S
C112 C115 1.358 . S
C112 C116 1.332 . S
C112 C118 1.504 . S
C113 C114 1.373 . S
C113 C117 1.308 . S
C114 C113 1.373 . S
C114 C115 1.429 . S
C114 H124 0.932 . S
C115 C112 1.358 . S
C115 C114 1.429 . S
C115 H125 0.930 . S
C116 C112 1.332 . S
C116 C117 1.394 . S
C116 H126 0.932 . S
C117 C113 1.308 . S
C117 C116 1.394 . S
C117 H127 0.929 . S
C118 Tb89 2.764 1_565 S
C118 O102 1.239 . S
C118 O103 1.249 1_565 S
C118 C112 1.504 . S
C119 O104 1.236 . S
C119 O105 1.257 . S
H120 C93 0.932 . S
H121 C94 0.930 . S
H122 C95 0.932 . S
H123 C96 0.929 . S
H124 C114 0.932 . S
H125 C115 0.930 . S
H126 C116 0.932 . S
H127 C117 0.929 . S
Tb128 C137 2.764 . S
Tb128 O138 2.325 . S
Tb128 O141 2.303 . S
Tb128 O145 2.322 1_545 S
Tb128 O146 2.349 . S
Tb128 O149 2.415 . S
Tb128 O150 2.399 . S
Tb129 O139 2.322 . S
Tb129 O140 2.349 . S
Tb129 O142 2.415 1_544 S
Tb129 O143 2.399 1_545 S
Tb129 O144 2.325 1_545 S
Tb129 O147 2.303 . S
Tb129 C158 2.764 1_544 S
C130 O146 1.261 1_565 S
C130 O147 1.257 1_565 S
C131 C134 1.358 . S
C131 C135 1.332 . S
C131 C137 1.504 . S
C132 C133 1.373 . S
C132 C136 1.308 . S
C133 C132 1.373 . S
C133 C134 1.429 . S
C133 H160 0.932 . S
C134 C131 1.358 . S
C134 C133 1.429 . S
C134 H161 0.930 . S
C135 C131 1.332 . S
C135 C136 1.394 . S
C135 H162 0.932 . S
C136 C132 1.308 . S
C136 C135 1.394 . S
C136 H163 0.929 . S
C137 Tb128 2.764 . S
C137 C131 1.504 . S
C137 O149 1.239 . S
C137 O150 1.263 . S
O138 Tb128 2.325 . S
O138 C148 1.236 . S
O139 Tb129 2.322 . S
O139 C148 1.257 . S
O140 Tb129 2.349 . S
O140 C151 1.261 . S
O141 Tb128 2.303 . S
O141 C151 1.257 . S
O142 Tb129 2.415 1_566 S
O142 C158 1.239 . S
O143 Tb129 2.399 1_565 S
O143 C158 1.263 1_554 S
O144 Tb129 2.325 1_565 S
O144 C159 1.236 . S
O145 Tb128 2.322 1_565 S
O145 C159 1.257 . S
O146 Tb128 2.349 . S
O146 C130 1.261 1_545 S
O147 Tb129 2.303 . S
O147 C130 1.257 1_545 S
C148 O138 1.236 . S
C148 O139 1.257 . S
O149 Tb128 2.415 . S
O149 C137 1.239 . S
O150 Tb128 2.399 . S
O150 C137 1.263 . S
C151 O140 1.261 . S
C151 O141 1.257 . S
C152 C155 1.358 . S
C152 C156 1.332 . S
C152 C158 1.504 . S
C153 C154 1.373 . S
C153 C157 1.308 . S
C154 C153 1.373 . S
C154 C155 1.429 . S
C154 H164 0.932 . S
C155 C152 1.358 . S
C155 C154 1.429 . S
C155 H165 0.930 . S
C156 C152 1.332 . S
C156 C157 1.394 . S
C156 H166 0.932 . S
C157 C153 1.308 . S
C157 C156 1.394 . S
C157 H167 0.929 . S
C158 Tb129 2.764 1_566 S
C158 O142 1.239 . S
C158 O143 1.263 1_556 S
C158 C152 1.504 . S
C159 O144 1.236 . S
C159 O145 1.257 . S
H160 C133 0.932 . S
H161 C134 0.930 . S
H162 C135 0.932 . S
H163 C136 0.929 . S
H164 C154 0.932 . S
H165 C155 0.930 . S
H166 C156 0.932 . S
H167 C157 0.929 . S
Tb168 C177 2.764 . S
Tb168 O178 2.325 . S
Tb168 O181 2.303 . S
Tb168 O185 2.322 . S
Tb168 O186 2.349 . S
Tb168 O189 2.415 . S
Tb168 O190 2.399 . S
Tb169 O179 2.322 . S
Tb169 O180 2.349 . S
Tb169 O182 2.415 . S
Tb169 O183 2.399 . S
Tb169 O184 2.325 . S
Tb169 O187 2.303 . S
Tb169 C198 2.764 . S
C170 O186 1.261 . S
C170 O187 1.257 . S
C171 C174 1.358 . S
C171 C175 1.332 . S
C171 C177 1.504 . S
C172 C173 1.373 . S
C172 C176 1.308 . S
C173 C172 1.373 . S
C173 C174 1.429 . S
C173 H200 0.932 . S
C174 C171 1.358 . S
C174 C173 1.429 . S
C174 H201 0.930 . S
C175 C171 1.332 . S
C175 C176 1.394 . S
C175 H202 0.932 . S
C176 C172 1.308 . S
C176 C175 1.394 . S
C176 H203 0.929 . S
C177 Tb168 2.764 . S
C177 C171 1.504 . S
C177 O189 1.239 . S
C177 O190 1.263 . S
O178 Tb168 2.325 . S
O178 C188 1.236 . S
O179 Tb169 2.322 . S
O179 C188 1.257 . S
O180 Tb169 2.349 . S
O180 C191 1.261 . S
O181 Tb168 2.303 . S
O181 C191 1.257 . S
O182 Tb169 2.415 . S
O182 C198 1.239 . S
O183 Tb169 2.399 . S
O183 C198 1.263 . S
O184 Tb169 2.325 . S
O184 C199 1.236 . S
O185 Tb168 2.322 . S
O185 C199 1.257 . S
O186 Tb168 2.349 . S
O186 C170 1.261 . S
O187 Tb169 2.303 . S
O187 C170 1.257 . S
C188 O178 1.236 . S
C188 O179 1.257 . S
O189 Tb168 2.415 . S
O189 C177 1.239 . S
O190 Tb168 2.399 . S
O190 C177 1.263 . S
C191 O180 1.261 . S
C191 O181 1.257 . S
C192 C195 1.358 . S
C192 C196 1.332 . S
C192 C198 1.504 . S
C193 C194 1.373 . S
C193 C197 1.308 . S
C194 C193 1.373 . S
C194 C195 1.429 . S
C194 H204 0.932 . S
C195 C192 1.358 . S
C195 C194 1.429 . S
C195 H205 0.930 . S
C196 C192 1.332 . S
C196 C197 1.394 . S
C196 H206 0.932 . S
C197 C193 1.308 . S
C197 C196 1.394 . S
C197 H207 0.929 . S
C198 Tb169 2.764 . S
C198 O182 1.239 . S
C198 O183 1.263 . S
C198 C192 1.504 . S
C199 O184 1.236 . S
C199 O185 1.257 . S
H200 C173 0.932 . S
H201 C174 0.930 . S
H202 C175 0.932 . S
H203 C176 0.929 . S
H204 C194 0.932 . S
H205 C195 0.930 . S
H206 C196 0.932 . S
H207 C197 0.929 . S
Tb208 C217 2.764 1_455 S
Tb208 O218 2.325 1_455 S
Tb208 O221 2.303 1_556 S
Tb208 O225 2.322 1_556 S
Tb208 O226 2.349 . S
Tb208 O229 2.415 1_455 S
Tb208 O230 2.399 1_455 S
Tb209 O219 2.322 1_455 S
Tb209 O220 2.349 1_455 S
Tb209 O222 2.415 . S
Tb209 O223 2.399 . S
Tb209 O224 2.325 . S
Tb209 O227 2.303 1_554 S
Tb209 C238 2.764 . S
C210 O226 1.261 . S
C210 O227 1.257 . S
C211 C214 1.358 . S
C211 C215 1.332 . S
C211 C217 1.504 . S
C212 C213 1.373 . S
C212 C216 1.308 . S
C213 C212 1.373 . S
C213 C214 1.429 . S
C213 H240 0.932 . S
C214 C211 1.358 . S
C214 C213 1.429 . S
C214 H241 0.930 . S
C215 C211 1.332 . S
C215 C216 1.394 . S
C215 H242 0.932 . S
C216 C212 1.308 . S
C216 C215 1.394 . S
C216 H243 0.929 . S
C217 Tb208 2.764 1_655 S
C217 C211 1.504 . S
C217 O229 1.239 . S
C217 O230 1.263 . S
O218 Tb208 2.325 1_655 S
O218 C228 1.236 . S
O219 Tb209 2.322 1_655 S
O219 C228 1.257 1_554 S
O220 Tb209 2.349 1_655 S
O220 C231 1.261 . S
O221 Tb208 2.303 1_554 S
O221 C231 1.257 1_455 S
O222 Tb209 2.415 . S
O222 C238 1.239 . S
O223 Tb209 2.399 . S
O223 C238 1.263 . S
O224 Tb209 2.325 . S
O224 C239 1.236 . S
O225 Tb208 2.322 1_554 S
O225 C239 1.257 . S
O226 Tb208 2.349 . S
O226 C210 1.261 . S
O227 Tb209 2.303 1_556 S
O227 C210 1.257 . S
C228 O218 1.236 . S
C228 O219 1.257 1_556 S
O229 Tb208 2.415 1_655 S
O229 C217 1.239 . S
O230 Tb208 2.399 1_655 S
O230 C217 1.263 . S
C231 O220 1.261 . S
C231 O221 1.257 1_655 S
C232 C235 1.358 . S
C232 C236 1.332 . S
C232 C238 1.504 . S
C233 C234 1.373 . S
C233 C237 1.308 . S
C234 C233 1.373 . S
C234 C235 1.429 . S
C234 H244 0.932 . S
C235 C232 1.358 . S
C235 C234 1.429 . S
C235 H245 0.930 . S
C236 C232 1.332 . S
C236 C237 1.394 . S
C236 H246 0.932 . S
C237 C233 1.308 . S
C237 C236 1.394 . S
C237 H247 0.929 . S
C238 Tb209 2.764 . S
C238 O222 1.239 . S
C238 O223 1.263 . S
C238 C232 1.504 . S
C239 O224 1.236 . S
C239 O225 1.257 . S
H240 C213 0.932 . S
H241 C214 0.930 . S
H242 C215 0.932 . S
H243 C216 0.929 . S
H244 C234 0.932 . S
H245 C235 0.930 . S
H246 C236 0.932 . S
H247 C237 0.929 . S
C248 C249 1.369 . S
C248 C250 1.419 . S
C248 H252 0.930 . S
C249 C248 1.369 . S
C249 C258 1.429 . S
C250 C248 1.419 . S
C250 C251 1.363 . S
C250 H253 0.929 . S
C251 C250 1.363 . S
C251 C257 1.428 . S
H252 C248 0.930 . S
H253 C250 0.929 . S
S254 N255 1.613 . S
S254 N256 1.610 . S
N255 S254 1.613 . S
N255 C258 1.350 . S
N256 S254 1.610 . S
N256 C257 1.351 . S
C257 C251 1.428 . S
C257 N256 1.351 . S
C257 C258 1.434 . S
C258 C249 1.429 . S
C258 N255 1.350 . S
C258 C257 1.434 . S
C259 C260 1.369 . S
C259 C261 1.419 . S
C259 H263 0.930 . S
C260 C259 1.369 . S
C260 C269 1.429 . S
C261 C259 1.419 . S
C261 C262 1.363 . S
C261 H264 0.929 . S
C262 C261 1.363 . S
C262 C268 1.428 . S
H263 C259 0.930 . S
H264 C261 0.929 . S
S265 N266 1.613 . S
S265 N267 1.610 . S
N266 S265 1.613 . S
N266 C269 1.350 . S
N267 S265 1.610 . S
N267 C268 1.351 . S
C268 C262 1.428 . S
C268 N267 1.351 . S
C268 C269 1.434 . S
C269 C260 1.429 . S
C269 N266 1.350 . S
C269 C268 1.434 . S
C270 C271 1.369 . S
C270 C272 1.419 . S
C270 H274 0.930 . S
C271 C270 1.369 . S
C271 C280 1.429 . S
C272 C270 1.419 . S
C272 C273 1.363 . S
C272 H275 0.929 . S
C273 C272 1.363 . S
C273 C279 1.428 . S
H274 C270 0.930 . S
H275 C272 0.929 . S
S276 N277 1.613 . S
S276 N278 1.610 . S
N277 S276 1.613 . S
N277 C280 1.350 . S
N278 S276 1.610 . S
N278 C279 1.351 . S
C279 C273 1.428 . S
C279 N278 1.351 . S
C279 C280 1.434 . S
C280 C271 1.429 . S
C280 N277 1.350 . S
C280 C279 1.434 . S
C281 C282 1.369 . S
C281 C283 1.419 . S
C281 H285 0.930 . S
C282 C281 1.369 . S
C282 C291 1.429 . S
C283 C281 1.419 . S
C283 C284 1.363 . S
C283 H286 0.929 . S
C284 C283 1.363 . S
C284 C290 1.428 . S
H285 C281 0.930 . S
H286 C283 0.929 . S
S287 N288 1.613 . S
S287 N289 1.610 . S
N288 S287 1.613 . S
N288 C291 1.350 . S
N289 S287 1.610 . S
N289 C290 1.351 . S
C290 C284 1.428 . S
C290 N289 1.351 . S
C290 C291 1.434 . S
C291 C282 1.429 . S
C291 N288 1.350 . S
C291 C290 1.434 . S
C292 C293 1.369 . S
C292 C294 1.419 . S
C292 H296 0.930 . S
C293 C292 1.369 . S
C293 C302 1.429 . S
C294 C292 1.419 . S
C294 C295 1.363 . S
C294 H297 0.929 . S
C295 C294 1.363 . S
C295 C301 1.428 . S
H296 C292 0.930 . S
H297 C294 0.929 . S
S298 N299 1.613 . S
S298 N300 1.610 . S
N299 S298 1.613 . S
N299 C302 1.350 . S
N300 S298 1.610 . S
N300 C301 1.351 . S
C301 C295 1.428 . S
C301 N300 1.351 . S
C301 C302 1.434 . S
C302 C293 1.429 . S
C302 N299 1.350 . S
C302 C301 1.434 . S
C303 C304 1.369 . S
C303 C305 1.419 . S
C303 H307 0.930 . S
C304 C303 1.369 . S
C304 C313 1.429 . S
C305 C303 1.419 . S
C305 C306 1.363 . S
C305 H308 0.929 . S
C306 C305 1.363 . S
C306 C312 1.428 . S
H307 C303 0.930 . S
H308 C305 0.929 . S
S309 N310 1.613 . S
S309 N311 1.610 . S
N310 S309 1.613 . S
N310 C313 1.350 . S
N311 S309 1.610 . S
N311 C312 1.351 . S
C312 C306 1.428 . S
C312 N311 1.351 . S
C312 C313 1.434 . S
C313 C304 1.429 . S
C313 N310 1.350 . S
C313 C312 1.434 . S
C314 C315 1.369 . S
C314 C316 1.419 . S
C314 H318 0.930 . S
C315 C314 1.369 . S
C315 C324 1.429 . S
C316 C314 1.419 . S
C316 C317 1.363 . S
C316 H319 0.929 . S
C317 C316 1.363 . S
C317 C323 1.428 . S
H318 C314 0.930 . S
H319 C316 0.929 . S
S320 N321 1.613 . S
S320 N322 1.610 . S
N321 S320 1.613 . S
N321 C324 1.350 1_554 S
N322 S320 1.610 . S
N322 C323 1.351 1_554 S
C323 C317 1.428 . S
C323 N322 1.351 1_556 S
C323 C324 1.434 . S
C324 C315 1.429 . S
C324 N321 1.350 1_556 S
C324 C323 1.434 . S
C325 C326 1.369 . S
C325 C327 1.419 . S
C325 H329 0.930 . S
C326 C325 1.369 . S
C326 C335 1.429 . S
C327 C325 1.419 . S
C327 C328 1.363 . S
C327 H330 0.929 . S
C328 C327 1.363 . S
C328 C334 1.428 . S
H329 C325 0.930 . S
H330 C327 0.929 . S
S331 N332 1.613 . S
S331 N333 1.610 . S
N332 S331 1.613 . S
N332 C335 1.350 . S
N333 S331 1.610 . S
N333 C334 1.351 . S
C334 C328 1.428 . S
C334 N333 1.351 . S
C334 C335 1.434 . S
C335 C326 1.429 . S
C335 N332 1.350 . S
C335 C334 1.434 . S
C336 C337 1.369 . S
C336 C338 1.419 . S
C336 H340 0.930 . S
C337 C336 1.369 . S
C337 C346 1.429 . S
C338 C336 1.419 . S
C338 C339 1.363 . S
C338 H341 0.929 . S
C339 C338 1.363 . S
C339 C345 1.428 . S
H340 C336 0.930 . S
H341 C338 0.929 . S
S342 N343 1.613 . S
S342 N344 1.610 . S
N343 S342 1.613 . S
N343 C346 1.350 . S
N344 S342 1.610 . S
N344 C345 1.351 . S
C345 C339 1.428 . S
C345 N344 1.351 . S
C345 C346 1.434 . S
C346 C337 1.429 . S
C346 N343 1.350 . S
C346 C345 1.434 . S
C347 C348 1.369 . S
C347 C349 1.419 . S
C347 H351 0.930 . S
C348 C347 1.369 . S
C348 C357 1.429 1_556 S
C349 C347 1.419 . S
C349 C350 1.363 1_556 S
C349 H352 0.929 . S
C350 C349 1.363 1_554 S
C350 C356 1.428 . S
H351 C347 0.930 . S
H352 C349 0.929 . S
S353 N354 1.613 . S
S353 N355 1.610 . S
N354 S353 1.613 . S
N354 C357 1.350 . S
N355 S353 1.610 . S
N355 C356 1.351 . S
C356 C350 1.428 . S
C356 N355 1.351 . S
C356 C357 1.434 . S
C357 C348 1.429 1_554 S
C357 N354 1.350 . S
C357 C356 1.434 . S
C358 C359 1.369 . S
C358 C360 1.419 . S
C358 H362 0.930 . S
C359 C358 1.369 . S
C359 C368 1.429 . S
C360 C358 1.419 . S
C360 C361 1.363 . S
C360 H363 0.929 . S
C361 C360 1.363 . S
C361 C367 1.428 . S
H362 C358 0.930 . S
H363 C360 0.929 . S
S364 N365 1.613 . S
S364 N366 1.610 . S
N365 S364 1.613 . S
N365 C368 1.350 . S
N366 S364 1.610 . S
N366 C367 1.351 . S
C367 C361 1.428 . S
C367 N366 1.351 . S
C367 C368 1.434 . S
C368 C359 1.429 . S
C368 N365 1.350 . S
C368 C367 1.434 . S
C369 C370 1.369 . S
C369 C371 1.419 . S
C369 H373 0.930 . S
C370 C369 1.369 . S
C370 C379 1.429 . S
C371 C369 1.419 . S
C371 C372 1.363 . S
C371 H374 0.929 . S
C372 C371 1.363 . S
C372 C378 1.428 . S
H373 C369 0.930 . S
H374 C371 0.929 . S
S375 N376 1.613 . S
S375 N377 1.610 . S
N376 S375 1.613 . S
N376 C379 1.350 . S
N377 S375 1.610 . S
N377 C378 1.351 . S
C378 C372 1.428 . S
C378 N377 1.351 . S
C378 C379 1.434 . S
C379 C370 1.429 . S
C379 N376 1.350 . S
C379 C378 1.434 . S
C380 C381 1.369 . S
C380 C382 1.419 . S
C380 H384 0.930 . S
C381 C380 1.369 . S
C381 C390 1.429 . S
C382 C380 1.419 . S
C382 C383 1.363 . S
C382 H385 0.929 . S
C383 C382 1.363 . S
C383 C389 1.428 . S
H384 C380 0.930 . S
H385 C382 0.929 . S
S386 N387 1.613 . S
S386 N388 1.610 . S
N387 S386 1.613 . S
N387 C390 1.350 . S
N388 S386 1.610 . S
N388 C389 1.351 . S
C389 C383 1.428 . S
C389 N388 1.351 . S
C389 C390 1.434 . S
C390 C381 1.429 . S
C390 N387 1.350 . S
C390 C389 1.434 . S
C391 C392 1.369 . S
C391 C393 1.419 . S
C391 H395 0.930 . S
C392 C391 1.369 . S
C392 C401 1.429 . S
C393 C391 1.419 . S
C393 C394 1.363 . S
C393 H396 0.929 . S
C394 C393 1.363 . S
C394 C400 1.428 . S
H395 C391 0.930 . S
H396 C393 0.929 . S
S397 N398 1.613 . S
S397 N399 1.610 . S
N398 S397 1.613 . S
N398 C401 1.350 . S
N399 S397 1.610 . S
N399 C400 1.351 . S
C400 C394 1.428 . S
C400 N399 1.351 . S
C400 C401 1.434 . S
C401 C392 1.429 . S
C401 N398 1.350 . S
C401 C400 1.434 . S
C402 C403 1.369 . S
C402 C404 1.419 . S
C402 H406 0.930 . S
C403 C402 1.369 . S
C403 C412 1.429 . S
C404 C402 1.419 . S
C404 C405 1.363 . S
C404 H407 0.929 . S
C405 C404 1.363 . S
C405 C411 1.428 . S
H406 C402 0.930 . S
H407 C404 0.929 . S
S408 N409 1.613 . S
S408 N410 1.610 . S
N409 S408 1.613 . S
N409 C412 1.350 . S
N410 S408 1.610 . S
N410 C411 1.351 . S
C411 C405 1.428 . S
C411 N410 1.351 . S
C411 C412 1.434 . S
C412 C403 1.429 . S
C412 N409 1.350 . S
C412 C411 1.434 . S
C413 C414 1.369 . S
C413 C415 1.419 . S
C413 H417 0.930 . S
C414 C413 1.369 . S
C414 C423 1.429 . S
C415 C413 1.419 . S
C415 C416 1.363 . S
C415 H418 0.929 . S
C416 C415 1.363 . S
C416 C422 1.428 . S
H417 C413 0.930 . S
H418 C415 0.929 . S
S419 N420 1.613 . S
S419 N421 1.610 . S
N420 S419 1.613 . S
N420 C423 1.350 . S
N421 S419 1.610 . S
N421 C422 1.351 . S
C422 C416 1.428 . S
C422 N421 1.351 . S
C422 C423 1.434 . S
C423 C414 1.429 . S
C423 N420 1.350 . S
C423 C422 1.434 . S
C424 C425 1.369 . S
C424 C426 1.419 1_556 S
C424 H428 0.926 1_556 S
C425 C424 1.369 . S
C425 C434 1.429 . S
C426 C424 1.419 1_554 S
C426 C427 1.363 1_554 S
C426 H429 0.929 . S
C427 C426 1.363 1_556 S
C427 C433 1.428 . S
H428 C424 0.926 1_554 S
H429 C426 0.929 . S
S430 N431 1.613 . S
S430 N432 1.610 . S
N431 S430 1.613 . S
N431 C434 1.350 . S
N432 S430 1.610 . S
N432 C433 1.351 . S
C433 C427 1.428 . S
C433 N432 1.351 . S
C433 C434 1.434 . S
C434 C425 1.429 . S
C434 N431 1.350 . S
C434 C433 1.434 . S
C435 C436 1.369 . S
C435 C437 1.419 . S
C435 H439 0.930 . S
C436 C435 1.369 . S
C436 C445 1.429 . S
C437 C435 1.419 . S
C437 C438 1.363 . S
C437 H440 0.929 . S
C438 C437 1.363 . S
C438 C444 1.428 . S
H439 C435 0.930 . S
H440 C437 0.929 . S
S441 N442 1.613 . S
S441 N443 1.610 . S
N442 S441 1.613 . S
N442 C445 1.350 . S
N443 S441 1.610 . S
N443 C444 1.351 . S
C444 C438 1.428 . S
C444 N443 1.351 . S
C444 C445 1.434 . S
C445 C436 1.429 . S
C445 N442 1.350 . S
C445 C444 1.434 . S
C446 C447 1.369 . S
C446 C448 1.419 . S
C446 H450 0.930 . S
C447 C446 1.369 . S
C447 C456 1.429 . S
C448 C446 1.419 . S
C448 C449 1.363 . S
C448 H451 0.929 . S
C449 C448 1.363 . S
C449 C455 1.428 . S
H450 C446 0.930 . S
H451 C448 0.929 . S
S452 N453 1.613 . S
S452 N454 1.610 . S
N453 S452 1.613 . S
N453 C456 1.350 . S
N454 S452 1.610 . S
N454 C455 1.351 . S
C455 C449 1.428 . S
C455 N454 1.351 . S
C455 C456 1.434 . S
C456 C447 1.429 . S
C456 N453 1.350 . S
C456 C455 1.434 . S
C457 C458 1.369 . S
C457 C459 1.419 . S
C457 H461 0.930 . S
C458 C457 1.369 . S
C458 C467 1.429 . S
C459 C457 1.419 . S
C459 C460 1.363 . S
C459 H462 0.929 . S
C460 C459 1.363 . S
C460 C466 1.428 . S
H461 C457 0.930 . S
H462 C459 0.929 . S
S463 N464 1.613 . S
S463 N465 1.610 . S
N464 S463 1.613 . S
N464 C467 1.350 . S
N465 S463 1.610 . S
N465 C466 1.351 . S
C466 C460 1.428 . S
C466 N465 1.351 . S
C466 C467 1.434 . S
C467 C458 1.429 . S
C467 N464 1.350 . S
C467 C466 1.434 . S
C468 C469 1.369 . S
C468 C470 1.419 . S
C468 H472 0.930 . S
C469 C468 1.369 . S
C469 C478 1.429 . S
C470 C468 1.419 . S
C470 C471 1.363 . S
C470 H473 0.929 . S
C471 C470 1.363 . S
C471 C477 1.428 . S
H472 C468 0.930 . S
H473 C470 0.929 . S
S474 N475 1.613 . S
S474 N476 1.610 . S
N475 S474 1.613 . S
N475 C478 1.350 . S
N476 S474 1.610 . S
N476 C477 1.351 . S
C477 C471 1.428 . S
C477 N476 1.351 . S
C477 C478 1.434 . S
C478 C469 1.429 . S
C478 N475 1.350 . S
C478 C477 1.434 . S
C479 C480 1.369 . S
C479 C481 1.419 . S
C479 H483 0.930 . S
C480 C479 1.369 . S
C480 C489 1.429 . S
C481 C479 1.419 . S
C481 C482 1.363 . S
C481 H484 0.929 . S
C482 C481 1.363 . S
C482 C488 1.428 . S
H483 C479 0.930 . S
H484 C481 0.929 . S
S485 N486 1.613 . S
S485 N487 1.610 . S
N486 S485 1.613 . S
N486 C489 1.350 . S
N487 S485 1.610 . S
N487 C488 1.351 . S
C488 C482 1.428 . S
C488 N487 1.351 . S
C488 C489 1.434 . S
C489 C480 1.429 . S
C489 N486 1.350 . S
C489 C488 1.434 . S
C490 C491 1.369 . S
C490 C492 1.419 . S
C490 H494 0.930 . S
C491 C490 1.369 . S
C491 C500 1.429 . S
C492 C490 1.419 . S
C492 C493 1.363 . S
C492 H495 0.929 . S
C493 C492 1.363 . S
C493 C499 1.428 . S
H494 C490 0.930 . S
H495 C492 0.929 . S
S496 N497 1.613 . S
S496 N498 1.610 . S
N497 S496 1.613 . S
N497 C500 1.350 . S
N498 S496 1.610 . S
N498 C499 1.351 . S
C499 C493 1.428 . S
C499 N498 1.351 . S
C499 C500 1.434 . S
C500 C491 1.429 . S
C500 N497 1.350 . S
C500 C499 1.434 . S
C501 C502 1.369 . S
C501 C503 1.419 . S
C501 H505 0.930 . S
C502 C501 1.369 . S
C502 C511 1.429 . S
C503 C501 1.419 . S
C503 C504 1.363 . S
C503 H506 0.929 . S
C504 C503 1.363 . S
C504 C510 1.428 . S
H505 C501 0.930 . S
H506 C503 0.929 . S
S507 N508 1.613 . S
S507 N509 1.610 . S
N508 S507 1.613 . S
N508 C511 1.350 . S
N509 S507 1.610 . S
N509 C510 1.351 . S
C510 C504 1.428 . S
C510 N509 1.351 . S
C510 C511 1.434 . S
C511 C502 1.429 . S
C511 N508 1.350 . S
C511 C510 1.434 . S
C249 C5 0.906 . S
C251 C92 1.063 . S
C260 C18 1.104 . S
C262 C153 1.176 . S
C273 C191 2.402 . S
C271 C30 2.434 . S
C282 C41 2.229 . S
C284 C231 2.177 . S
C295 C151 1.382 . S
C293 C7 1.254 . S
C306 C119 2.073 . S
C304 C16 2.067 . S
C317 C228 1.886 . S
C315 C29 1.833 . S
C328 C188 1.617 . S
C326 C38 1.441 . S
C337 C8 1.193 . S
C339 C233 1.277 . S
C350 C148 2.547 . S
C348 C27 2.254 . S
C359 C40 2.351 . S
C361 C90 2.305 . S
C370 C19 1.484 . S
C372 C193 1.501 . S
C383 C113 1.104 . S
C381 C51 0.941 . S
C392 C62 1.459 . S
C394 C132 1.419 . S
C403 C74 2.525 . S
C405 C170 2.510 . S
C414 C84 2.168 . S
C416 C210 2.281 . S
C425 C49 1.181 . S
C427 C130 1.705 1_556 S
C438 C108 2.159 . S
C436 C63 2.090 . S
C449 C239 1.700 . S
C447 C71 1.505 . S
C460 C199 1.735 . S
C458 C85 1.753 . S
C469 C52 1.352 . S
C471 C212 1.437 . S
C482 C159 2.739 . S
C480 C73 2.672 . S
C493 C111 1.998 . S
C491 C82 1.756 . S
C502 C60 1.433 . S
C504 C172 1.491 . S
