# Generated by pormake.
# Topology myd, (4,6)-cn, num edge types: 1
# Building blocks:
#     Node 0, Type 0, BuildingBlock: NAWXER_clean_sbu_0, # of connection points: 4
#     Node 1, Type 0, BuildingBlock: NAWXER_clean_sbu_0, # of connection points: 4
#     Node 2, Type 0, BuildingBlock: NAWXER_clean_sbu_0, # of connection points: 4
#     Node 3, Type 0, BuildingBlock: NAWXER_clean_sbu_0, # of connection points: 4
#     Node 4, Type 0, BuildingBlock: NAWXER_clean_sbu_0, # of connection points: 4
#     Node 5, Type 0, BuildingBlock: NAWXER_clean_sbu_0, # of connection points: 4
#     Node 6, Type 0, BuildingBlock: NAWXER_clean_sbu_0, # of connection points: 4
#     Node 7, Type 0, BuildingBlock: NAWXER_clean_sbu_0, # of connection points: 4
#     Node 8, Type 0, BuildingBlock: NAWXER_clean_sbu_0, # of connection points: 4
#     Node 9, Type 0, BuildingBlock: NAWXER_clean_sbu_0, # of connection points: 4
#     Node 10, Type 0, BuildingBlock: NAWXER_clean_sbu_0, # of connection points: 4
#     Node 11, Type 0, BuildingBlock: NAWXER_clean_sbu_0, # of connection points: 4
#     Node 12, Type 1, BuildingBlock: CUWYAW_clean_sbu_0, # of connection points: 6
#     Node 13, Type 1, BuildingBlock: CUWYAW_clean_sbu_0, # of connection points: 6
#     Node 14, Type 1, BuildingBlock: CUWYAW_clean_sbu_0, # of connection points: 6
#     Node 15, Type 1, BuildingBlock: CUWYAW_clean_sbu_0, # of connection points: 6
#     Node 16, Type 1, BuildingBlock: CUWYAW_clean_sbu_0, # of connection points: 6
#     Node 17, Type 1, BuildingBlock: CUWYAW_clean_sbu_0, # of connection points: 6
#     Node 18, Type 1, BuildingBlock: CUWYAW_clean_sbu_0, # of connection points: 6
#     Node 19, Type 1, BuildingBlock: CUWYAW_clean_sbu_0, # of connection points: 6
#     Edge 20, Type (0, 1), BuildingBlock: XUDNAN_clean_linker_2, # of connection points: 2
#     Edge 21, Type (0, 1), BuildingBlock: XUDNAN_clean_linker_2, # of connection points: 2
#     Edge 22, Type (0, 1), BuildingBlock: XUDNAN_clean_linker_2, # of connection points: 2
#     Edge 23, Type (0, 1), BuildingBlock: XUDNAN_clean_linker_2, # of connection points: 2
#     Edge 24, Type (0, 1), BuildingBlock: XUDNAN_clean_linker_2, # of connection points: 2
#     Edge 25, Type (0, 1), BuildingBlock: XUDNAN_clean_linker_2, # of connection points: 2
#     Edge 26, Type (0, 1), BuildingBlock: XUDNAN_clean_linker_2, # of connection points: 2
#     Edge 27, Type (0, 1), BuildingBlock: XUDNAN_clean_linker_2, # of connection points: 2
#     Edge 28, Type (0, 1), BuildingBlock: XUDNAN_clean_linker_2, # of connection points: 2
#     Edge 29, Type (0, 1), BuildingBlock: XUDNAN_clean_linker_2, # of connection points: 2
#     Edge 30, Type (0, 1), BuildingBlock: XUDNAN_clean_linker_2, # of connection points: 2
#     Edge 31, Type (0, 1), BuildingBlock: XUDNAN_clean_linker_2, # of connection points: 2
#     Edge 32, Type (0, 1), BuildingBlock: XUDNAN_clean_linker_2, # of connection points: 2
#     Edge 33, Type (0, 1), BuildingBlock: XUDNAN_clean_linker_2, # of connection points: 2
#     Edge 34, Type (0, 1), BuildingBlock: XUDNAN_clean_linker_2, # of connection points: 2
#     Edge 35, Type (0, 1), BuildingBlock: XUDNAN_clean_linker_2, # of connection points: 2
#     Edge 36, Type (0, 1), BuildingBlock: XUDNAN_clean_linker_2, # of connection points: 2
#     Edge 37, Type (0, 1), BuildingBlock: XUDNAN_clean_linker_2, # of connection points: 2
#     Edge 38, Type (0, 1), BuildingBlock: XUDNAN_clean_linker_2, # of connection points: 2
#     Edge 39, Type (0, 1), BuildingBlock: XUDNAN_clean_linker_2, # of connection points: 2
#     Edge 40, Type (0, 1), BuildingBlock: XUDNAN_clean_linker_2, # of connection points: 2
#     Edge 41, Type (0, 1), BuildingBlock: XUDNAN_clean_linker_2, # of connection points: 2
#     Edge 42, Type (0, 1), BuildingBlock: XUDNAN_clean_linker_2, # of connection points: 2
#     Edge 43, Type (0, 1), BuildingBlock: XUDNAN_clean_linker_2, # of connection points: 2
#     Edge 44, Type (0, 1), BuildingBlock: XUDNAN_clean_linker_2, # of connection points: 2
#     Edge 45, Type (0, 1), BuildingBlock: XUDNAN_clean_linker_2, # of connection points: 2
#     Edge 46, Type (0, 1), BuildingBlock: XUDNAN_clean_linker_2, # of connection points: 2
#     Edge 47, Type (0, 1), BuildingBlock: XUDNAN_clean_linker_2, # of connection points: 2
#     Edge 48, Type (0, 1), BuildingBlock: XUDNAN_clean_linker_2, # of connection points: 2
#     Edge 49, Type (0, 1), BuildingBlock: XUDNAN_clean_linker_2, # of connection points: 2
#     Edge 50, Type (0, 1), BuildingBlock: XUDNAN_clean_linker_2, # of connection points: 2
#     Edge 51, Type (0, 1), BuildingBlock: XUDNAN_clean_linker_2, # of connection points: 2
#     Edge 52, Type (0, 1), BuildingBlock: XUDNAN_clean_linker_2, # of connection points: 2
#     Edge 53, Type (0, 1), BuildingBlock: XUDNAN_clean_linker_2, # of connection points: 2
#     Edge 54, Type (0, 1), BuildingBlock: XUDNAN_clean_linker_2, # of connection points: 2
#     Edge 55, Type (0, 1), BuildingBlock: XUDNAN_clean_linker_2, # of connection points: 2
#     Edge 56, Type (0, 1), BuildingBlock: XUDNAN_clean_linker_2, # of connection points: 2
#     Edge 57, Type (0, 1), BuildingBlock: XUDNAN_clean_linker_2, # of connection points: 2
#     Edge 58, Type (0, 1), BuildingBlock: XUDNAN_clean_linker_2, # of connection points: 2
#     Edge 59, Type (0, 1), BuildingBlock: XUDNAN_clean_linker_2, # of connection points: 2
#     Edge 60, Type (0, 1), BuildingBlock: XUDNAN_clean_linker_2, # of connection points: 2
#     Edge 61, Type (0, 1), BuildingBlock: XUDNAN_clean_linker_2, # of connection points: 2
#     Edge 62, Type (0, 1), BuildingBlock: XUDNAN_clean_linker_2, # of connection points: 2
#     Edge 63, Type (0, 1), BuildingBlock: XUDNAN_clean_linker_2, # of connection points: 2
#     Edge 64, Type (0, 1), BuildingBlock: XUDNAN_clean_linker_2, # of connection points: 2
#     Edge 65, Type (0, 1), BuildingBlock: XUDNAN_clean_linker_2, # of connection points: 2
#     Edge 66, Type (0, 1), BuildingBlock: XUDNAN_clean_linker_2, # of connection points: 2
#     Edge 67, Type (0, 1), BuildingBlock: XUDNAN_clean_linker_2, # of connection points: 2
# Relax obj value: 0.386
# Max RMSD: 0.405
# Mean RMSD: 0.182
data_MOF--net-myd--node1-NAWXER_clean_sbu_0--node2-CUWYAW_clean_sbu_0--edge1-XUDNAN_clean_linker_2
_symmetry_space_group_name_H-M    P1
_symmetry_Int_Tables_number       1
_symmetry_cell_setting            triclinic
loop_
_symmetry_equiv_pos_as_xyz
'x, y, z'
_cell_length_a     49.189882
_cell_length_b     48.303726
_cell_length_c     48.82701
_cell_angle_alpha  87.557056
_cell_angle_beta   87.487813
_cell_angle_gamma 84.40904
loop_
_atom_site_label
_atom_site_type_symbol
_atom_site_fract_x
_atom_site_fract_y
_atom_site_fract_z
_atom_type_partial_charge
C0 C 0.07147 0.28628 0.32154 0.0
C1 C 0.04445 0.35654 0.39163 0.0
O2 O 0.08835 0.3012 0.33159 0.0
Zn3 Zn 0.06009 0.32227 0.35486 0.0
O4 O 0.04601 0.2906 0.32771 0.0
Zn5 Zn 0.01761 0.31415 0.35273 0.0
O6 O 0.99683 0.33652 0.32227 0.0
O7 O 0.03906 0.34713 0.32309 0.0
O8 O 0.0244 0.34415 0.38343 0.0
O9 O 0.06818 0.35044 0.38083 0.0
O10 O 0.04988 0.28632 0.38047 0.0
O11 O 1.00722 0.27912 0.37398 0.0
C12 C 0.01569 0.35075 0.31211 0.0
C13 C 0.03008 0.27098 0.38467 0.0
C14 C 0.9827 0.77408 0.30697 0.0
C15 C 0.99111 0.70271 0.23847 0.0
O16 O 1.00756 0.76624 0.29973 0.0
Zn17 Zn 0.0299 0.73689 0.27265 0.0
O18 O 0.96322 0.76189 0.29811 0.0
Zn19 Zn 0.98664 0.73759 0.27456 0.0
O20 O 1.00665 0.70939 0.30439 0.0
O21 O 0.05106 0.71159 0.29784 0.0
O22 O 0.96979 0.71465 0.25003 0.0
O23 O 0.0147 0.70896 0.24492 0.0
O24 O 0.04778 0.7645 0.24873 0.0
O25 O 1.00286 0.76945 0.24794 0.0
C26 C 0.03121 0.70147 0.31099 0.0
C27 C 0.02597 0.77824 0.24061 0.0
C28 C 0.39674 0.03909 0.26761 0.0
C29 C 0.32917 0.01967 0.34503 0.0
O30 O 0.39111 1.01512 0.27684 0.0
Zn31 Zn 0.36395 0.02601 0.308 0.0
O32 O 0.3856 0.06045 0.28005 0.0
Zn33 Zn 0.35688 0.07058 0.31332 0.0
O34 O 0.37883 0.0843 0.34332 0.0
O35 O 0.38665 0.03883 0.34224 0.0
O36 O 0.33356 0.04503 0.33977 0.0
O37 O 0.34162 1.00045 0.33063 0.0
O38 O 0.3302 0.04658 0.28576 0.0
O39 O 0.32527 0.09138 0.29286 0.0
C40 C 0.3899 0.06151 0.354 0.0
C41 C 0.31708 0.07054 0.28139 0.0
C42 C 0.72949 0.50853 0.35147 0.0
C43 C 0.64945 0.52244 0.4149 0.0
O44 O 0.71665 0.48916 0.36293 0.0
Zn45 Zn 0.68766 0.51334 0.38058 0.0
O46 O 0.72086 0.53403 0.35535 0.0
Zn47 Zn 0.68838 0.55807 0.37677 0.0
O48 O 0.7084 0.57707 0.403 0.0
O49 O 0.71063 0.53131 0.40935 0.0
O50 O 0.65764 0.54497 0.40438 0.0
O51 O 0.66004 0.4991 0.40641 0.0
O52 O 0.66821 0.5323 0.3452 0.0
O53 O 0.6692 0.57782 0.34677 0.0
C54 C 0.71673 0.55496 0.41659 0.0
C55 C 0.66297 0.5568 0.33441 0.0
C56 C 0.3373 0.38277 0.05406 0.0
C57 C 0.41017 0.30693 0.03895 0.0
O58 O 0.34652 0.38195 0.0291 0.0
Zn59 Zn 0.37895 0.3592 1.00544 0.0
O60 O 0.35007 0.36811 0.07258 0.0
Zn61 Zn 0.37753 0.34811 0.04862 0.0
O62 O 0.40596 0.37765 0.03801 0.0
O63 O 0.40497 0.38674 0.99357 0.0
O64 O 0.39945 0.31466 0.06191 0.0
O65 O 0.40458 0.3219 0.01716 0.0
O66 O 0.35439 0.34324 0.9802 0.0
O67 O 0.35047 0.32951 0.02378 0.0
C68 C 0.41475 0.39083 0.01661 0.0
C69 C 0.34267 0.32908 0.99916 0.0
C70 C 0.29892 0.82129 0.53261 0.0
C71 C 0.37733 0.74857 0.55577 0.0
O72 O 0.31001 0.80898 0.51148 0.0
Zn73 Zn 0.34267 0.77504 0.50365 0.0
O74 O 0.30792 0.81336 0.55607 0.0
Zn75 Zn 0.33631 0.78331 0.54552 0.0
O76 O 0.36507 0.80707 0.5228 0.0
O77 O 0.36785 0.79404 0.47971 0.0
O78 O 0.36097 0.76227 0.57233 0.0
O79 O 0.37255 0.75092 0.53004 0.0
O80 O 0.32244 0.7476 0.4879 0.0
O81 O 0.31123 0.75292 0.53161 0.0
C82 C 0.37532 0.80897 0.49828 0.0
C83 C 0.30777 0.74151 0.50893 0.0
C84 C 0.83941 0.88278 0.52925 0.0
C85 C 0.90862 0.80508 0.51137 0.0
O86 O 0.84519 0.88065 0.50352 0.0
Zn87 Zn 0.87476 0.85596 0.47803 0.0
O88 O 0.85523 0.8696 0.54633 0.0
Zn89 Zn 0.87927 0.84836 0.52046 0.0
O90 O 0.90746 0.87696 0.50374 0.0
O91 O 0.8983 0.88272 0.46015 0.0
O92 O 0.90212 0.81599 0.53425 0.0
O93 O 0.90042 0.81803 0.4892 0.0
O94 O 0.84747 0.83945 0.4572 0.0
O95 O 0.84753 0.82819 0.50157 0.0
C96 C 0.91224 0.88846 0.48007 0.0
C97 C 0.83702 0.82699 0.4781 0.0
C98 C 0.51366 0.84841 0.80288 0.0
C99 C 0.53639 0.77115 0.8758 0.0
O100 O 0.49762 0.83206 0.81489 0.0
Zn101 Zn 0.52122 0.81267 0.8439 0.0
O102 O 0.53764 0.84847 0.81229 0.0
Zn103 Zn 0.56112 0.82584 0.84483 0.0
O104 O 0.59147 0.80865 0.82179 0.0
O105 O 0.55157 0.79208 0.81751 0.0
O106 O 0.55478 0.78818 0.87097 0.0
O107 O 0.51314 0.77724 0.86525 0.0
O108 O 0.5247 0.84402 0.87454 0.0
O109 O 0.56707 0.85486 0.87064 0.0
C110 C 0.57702 0.79182 0.811 0.0
C111 C 0.54341 0.85861 0.8822 0.0
C112 C 0.51641 0.20585 0.80577 0.0
C113 C 0.51688 0.28391 0.73622 0.0
O114 O 0.49298 0.21355 0.79601 0.0
Zn115 Zn 0.47533 0.24384 0.76704 0.0
O116 O 0.5372 0.21758 0.79661 0.0
Zn117 Zn 0.51877 0.24268 0.76867 0.0
O118 O 0.49541 0.27243 0.79399 0.0
O119 O 0.45131 0.26885 0.7902 0.0
O120 O 0.53811 0.27039 0.74598 0.0
O121 O 0.49351 0.27502 0.74185 0.0
O122 O 0.46014 0.2218 0.74052 0.0
O123 O 0.50514 0.21484 0.73911 0.0
C124 C 0.47046 0.28082 0.80002 0.0
C125 C 0.48202 0.20931 0.73047 0.0
C126 C 0.81773 0.57781 0.78237 0.0
C127 C 0.88668 0.55807 0.8575 0.0
O128 O 0.82888 0.59547 0.79585 0.0
Zn129 Zn 0.85656 0.57007 0.81508 0.0
O130 O 0.82719 0.55202 0.78492 0.0
Zn131 Zn 0.8591 0.5271 0.80924 0.0
O132 O 0.83512 0.5023 0.82869 0.0
O133 O 0.82798 0.54685 0.83872 0.0
O134 O 0.88154 0.5361 0.8455 0.0
O135 O 0.87833 0.5815 0.84621 0.0
O136 O 0.88448 0.55802 0.78079 0.0
O137 O 0.88652 0.51242 0.78144 0.0
C138 C 0.82202 0.5217 0.84221 0.0
C139 C 0.89404 0.53489 0.77044 0.0
C140 C 0.22015 0.9979 0.83847 0.0
C141 C 0.15185 0.02952 0.91077 0.0
O142 O 0.20454 0.98105 0.85051 0.0
Zn143 Zn 0.18178 1.00993 0.87164 0.0
O144 O 0.21667 0.02368 0.84364 0.0
Zn145 Zn 0.19298 0.05307 0.86702 0.0
O146 O 0.2207 0.06409 0.89144 0.0
O147 O 0.21278 0.01983 0.896 0.0
O148 O 0.16081 0.04858 0.89497 0.0
O149 O 0.15569 1.00432 0.90356 0.0
O150 O 0.16367 0.03439 0.83828 0.0
O151 O 0.17749 0.07673 0.83797 0.0
C152 C 0.22581 0.03989 0.90256 0.0
C153 C 0.16463 0.05877 0.82687 0.0
C154 C 0.80778 0.24423 0.02923 0.0
C155 C 0.87789 0.3059 1.00139 0.0
O156 O 0.81226 0.26158 0.04727 0.0
Zn157 Zn 0.83691 0.29452 0.0527 0.0
O158 O 0.82158 0.24412 1.00658 0.0
Zn159 Zn 0.84335 0.27471 1.01394 0.0
O160 O 0.87194 0.25703 0.04442 0.0
O161 O 0.86175 0.27937 0.08229 0.0
O162 O 0.87021 0.28718 0.9867 0.0
O163 O 0.86673 0.31025 0.02517 0.0
O164 O 0.80837 0.32743 0.05541 0.0
O165 O 0.8122 0.31023 1.01435 0.0
C166 C 0.87718 0.26099 0.0694 0.0
C167 C 0.80052 0.3283 0.03078 0.0
C168 C 0.06661 0.06086 0.18423 0.0
Eu169 Eu 0.08818 0.09888 0.15249 0.0
C170 C 0.06444 0.03045 0.18722 0.0
C171 C 0.07235 1.01224 0.16591 0.0
C172 C 0.06753 0.98394 0.16871 0.0
C173 C 0.05448 0.97358 0.19271 0.0
C174 C 0.04723 0.99176 0.2141 0.0
C175 C 0.05229 0.01979 0.21144 0.0
C176 C 0.1052 0.08609 0.09991 0.0
C177 C 0.15304 0.10406 0.16485 0.0
C178 C 0.13651 0.17765 0.08637 0.0
Eu179 Eu 0.11638 0.14331 0.12244 0.0
C180 C 0.14798 0.19715 0.0658 0.0
C181 C 0.14653 0.2257 0.07078 0.0
C182 C 0.16142 0.24342 0.05395 0.0
C183 C 0.17773 0.233 0.03165 0.0
C184 C 0.17747 0.20496 0.02535 0.0
C185 C 0.16278 0.18713 0.04236 0.0
C186 C 0.10614 0.15508 0.17543 0.0
C187 C 0.05006 0.14817 0.12372 0.0
O188 O 0.09016 0.07002 0.18848 0.0
O189 O 0.05435 0.07409 0.16365 0.0
O190 O 0.08255 0.07931 0.11136 0.0
O191 O 0.11799 0.09814 0.11681 0.0
O192 O 0.12989 0.09324 0.17226 0.0
O193 O 0.15403 0.12265 0.14405 0.0
O194 O 0.14166 0.15067 0.08536 0.0
O195 O 0.12027 0.18603 0.10692 0.0
O196 O 0.12754 0.16124 0.16092 0.0
O197 O 0.08955 0.14395 0.16098 0.0
O198 O 0.07211 0.15118 0.1077 0.0
O199 O 0.05249 0.13212 0.1463 0.0
H200 H 0.08156 0.02004 0.14692 0.0
H201 H 0.073 0.97045 0.15178 0.0
H202 H 0.03708 0.98434 0.23275 0.0
H203 H 0.04593 0.0334 0.22809 0.0
H204 H 0.13525 0.23405 0.08862 0.0
H205 H 0.16157 0.26494 0.05933 0.0
H206 H 0.19025 0.1964 1.00853 0.0
H207 H 0.16416 0.16523 0.03796 0.0
C208 C 0.89734 0.51155 0.11376 0.0
Eu209 Eu 0.94845 0.49712 0.09988 0.0
C210 C 0.88397 0.51256 0.14123 0.0
C211 C 0.89862 0.50186 0.164 0.0
C212 C 0.88562 0.50028 0.18991 0.0
C213 C 0.8579 0.50985 0.19353 0.0
C214 C 0.84363 0.52202 0.17104 0.0
C215 C 0.85658 0.52322 0.14493 0.0
C216 C 0.97759 0.46227 0.1369 0.0
C217 C 0.98345 0.54482 0.11929 0.0
C218 C 0.0582 0.48499 0.08055 0.0
Eu219 Eu 1.00476 0.49162 0.0835 0.0
C220 C 0.08646 0.47513 0.07095 0.0
C221 C 0.10564 0.49472 0.06628 0.0
C222 C 0.13362 0.48614 0.06333 0.0
C223 C 0.14309 0.45774 0.06466 0.0
C224 C 0.12384 0.438 0.06745 0.0
C225 C 0.09577 0.44661 0.07077 0.0
C226 C 0.97253 0.50936 0.03934 0.0
C227 C 0.96888 0.44621 0.06475 0.0
O228 O 0.91528 0.5294 0.1086 0.0
O229 O 0.90637 0.48673 0.10595 0.0
O230 O 0.95409 0.45831 0.12786 0.0
O231 O 0.98513 0.48471 0.12569 0.0
O232 O 0.95969 0.53457 0.12101 0.0
O233 O 1.00436 0.53246 0.1053 0.0
O234 O 0.04296 0.46754 0.09356 0.0
O235 O 0.04412 0.50601 0.06833 0.0
O236 O 0.99408 0.49164 0.03812 0.0
O237 O 0.96928 0.51777 0.06374 0.0
O238 O 0.99233 0.44882 0.07594 0.0
O239 O 0.94892 0.46634 0.06659 0.0
H240 H 0.91993 0.49395 0.16157 0.0
H241 H 0.89701 0.49098 0.20703 0.0
H242 H 0.82218 0.52942 0.17343 0.0
H243 H 0.84508 0.53176 0.12759 0.0
H244 H 0.09915 0.5168 0.06656 0.0
H245 H 0.14801 0.50178 0.0612 0.0
H246 H 0.13062 0.41598 0.0688 0.0
H247 H 0.08156 0.43097 0.07456 0.0
C248 C 0.11214 0.04218 0.54863 0.0
Eu249 Eu 0.11129 0.02946 0.4972 0.0
C250 C 0.12609 0.04093 0.57498 0.0
C251 C 0.11667 0.02422 0.59698 0.0
C252 C 0.12491 0.02739 0.62363 0.0
C253 C 0.14261 0.04752 0.62889 0.0
C254 C 0.15353 0.06286 0.60659 0.0
C255 C 0.14529 0.05967 0.57993 0.0
C256 C 0.06263 1.01092 0.4826 0.0
C257 C 0.14892 0.97112 0.48753 0.0
C258 C 0.09952 0.98826 0.40003 0.0
Eu259 Eu 0.11239 1.01129 0.44451 0.0
C260 C 0.07851 0.97033 0.39307 0.0
C261 C 0.08455 0.95067 0.37298 0.0
C262 C 0.06454 0.93426 0.36531 0.0
C263 C 0.03792 0.93736 0.37743 0.0
C264 C 0.03202 0.95694 0.39788 0.0
C265 C 0.05215 0.97326 0.40565 0.0
C266 C 0.15783 0.03852 0.44846 0.0
C267 C 0.09287 0.07693 0.45423 0.0
O268 O 0.12083 0.05786 0.52822 0.0
O269 O 0.10259 0.0197 0.54057 0.0
O270 O 0.06455 0.03525 0.4919 0.0
O271 O 0.08611 0.99891 0.47936 0.0
O272 O 0.14078 0.99095 0.50472 0.0
O273 O 0.14039 0.97354 0.46196 0.0
O274 O 0.11878 0.97731 0.4158 0.0
O275 O 0.09045 1.01336 0.40678 0.0
O276 O 0.14176 0.041 0.42809 0.0
O277 O 0.1477 0.0234 0.46733 0.0
O278 O 0.08735 0.05514 0.44045 0.0
O279 O 0.1076 0.07185 0.47595 0.0
H280 H 0.1016 1.00983 0.5939 0.0
H281 H 0.11594 1.01537 0.64031 0.0
H282 H 0.16759 0.0782 0.6099 0.0
H283 H 0.15289 0.07295 0.56348 0.0
H284 H 0.10478 0.94802 0.36316 0.0
H285 H 0.07015 0.91881 0.35012 0.0
H286 H 0.01181 0.9599 0.40768 0.0
H287 H 0.04704 0.98838 0.42125 0.0
C288 C 0.08248 0.58293 0.55866 0.0
Eu289 Eu 0.03794 0.56634 0.53988 0.0
C290 C 0.10467 0.60019 0.54969 0.0
C291 C 0.12993 0.5956 0.56216 0.0
C292 C 0.15144 0.61144 0.55393 0.0
C293 C 0.14817 0.63226 0.53295 0.0
C294 C 0.12269 0.63685 0.52052 0.0
C295 C 0.10117 0.62095 0.52878 0.0
C296 C 0.03656 0.51584 0.51635 0.0
C297 C 0.02461 0.58068 0.478 0.0
C298 C 0.94089 0.53609 0.50749 0.0
Eu299 Eu 0.98408 0.55538 0.52455 0.0
C300 C 0.91294 0.53588 0.51952 0.0
C301 C 0.89625 0.56084 0.52291 0.0
C302 C 0.86905 0.56038 0.53181 0.0
C303 C 0.85789 0.53493 0.53767 0.0
C304 C 0.8755 0.51013 0.53715 0.0
C305 C 0.90271 0.51059 0.5278 0.0
C306 C 0.98424 0.60934 0.54041 0.0
C307 C 0.99273 0.55019 0.58888 0.0
O308 O 0.05809 0.59581 0.56278 0.0
O309 O 0.08183 0.55958 0.54629 0.0
O310 O 0.0554 0.53247 0.511 0.0
O311 O 0.01982 0.52619 0.53448 0.0
O312 O 0.03744 0.58937 0.49867 0.0
O313 O 1.00559 0.56325 0.48258 0.0
O314 O 0.95982 0.52052 0.52044 0.0
O315 O 0.94866 0.56032 0.49914 0.0
O316 O 0.96538 0.59305 0.54712 0.0
O317 O 1.00264 0.59562 0.52628 0.0
O318 O 0.97539 0.54758 0.56967 0.0
O319 O 0.01787 0.55669 0.58246 0.0
H320 H 0.1331 0.57959 0.57824 0.0
H321 H 0.17082 0.60698 0.56368 0.0
H322 H 0.11929 0.65289 0.50453 0.0
H323 H 0.08182 0.62484 0.51885 0.0
H324 H 0.90373 0.58079 0.51745 0.0
H325 H 0.85637 0.57998 0.5317 0.0
H326 H 0.86779 0.49019 0.54213 0.0
H327 H 0.91547 0.49109 0.52608 0.0
C328 C 0.399 1.00214 0.60829 0.0
Eu329 Eu 0.45122 1.00124 0.59642 0.0
C330 C 0.38221 1.00202 0.63385 0.0
C331 C 0.39357 1.00631 0.65907 0.0
C332 C 0.37822 1.00309 0.6836 0.0
C333 C 0.35153 0.99527 0.68309 0.0
C334 C 0.33993 0.99195 0.65784 0.0
C335 C 0.35517 0.9954 0.63334 0.0
C336 C 0.48548 0.97733 0.63692 0.0
C337 C 0.48328 0.05192 0.60743 0.0
C338 C 0.5627 0.98361 0.57868 0.0
Eu339 Eu 0.50962 0.9962 0.57799 0.0
C340 C 0.5888 0.97041 0.56622 0.0
C341 C 0.60807 0.98689 0.55322 0.0
C342 C 0.63508 0.97563 0.54745 0.0
C343 C 0.64346 0.94779 0.55497 0.0
C344 C 0.6238 0.9309 0.56629 0.0
C345 C 0.59682 0.94201 0.57174 0.0
C346 C 0.48119 0.02113 0.53384 0.0
C347 C 0.47261 0.9543 0.55282 0.0
O348 O 0.41133 0.02457 0.60241 0.0
O349 O 0.41489 0.9793 0.60411 0.0
O350 O 0.46596 0.99694 0.64023 0.0
O351 O 0.4868 0.97278 0.61143 0.0
O352 O 0.45999 0.0455 0.59856 0.0
O353 O 0.50506 0.03353 0.60632 0.0
O354 O 0.54466 0.96749 0.58898 0.0
O355 O 0.55146 1.00729 0.5685 0.0
O356 O 0.50752 0.01573 0.53427 0.0
O357 O 0.47104 1.01361 0.55701 0.0
O358 O 0.49807 0.95811 0.55792 0.0
O359 O 0.45167 0.97031 0.56309 0.0
H360 H 0.41446 1.01143 0.65981 0.0
H361 H 0.38744 1.00575 0.70295 0.0
H362 H 0.31924 0.98616 0.65715 0.0
H363 H 0.34612 0.99209 0.61405 0.0
H364 H 0.60276 1.00891 0.54901 0.0
H365 H 0.64988 0.98919 0.53898 0.0
H366 H 0.62971 0.90938 0.5723 0.0
H367 H 0.58273 0.92865 0.58191 0.0
C368 C 0.57531 0.56191 0.688 0.0
Eu369 Eu 0.59202 0.59931 0.65236 0.0
C370 C 0.56452 0.53418 0.68816 0.0
C371 C 0.57623 0.51311 0.67101 0.0
C372 C 0.56745 0.48627 0.67323 0.0
C373 C 0.54654 0.47996 0.69238 0.0
C374 C 0.53442 0.50126 0.70903 0.0
C375 C 0.54342 0.52799 0.70703 0.0
C376 C 0.60329 0.58081 0.60072 0.0
C377 C 0.65526 0.60733 0.66295 0.0
C378 C 0.64405 0.66007 0.5713 0.0
Eu379 Eu 0.62007 0.63842 0.61485 0.0
C380 C 0.65056 0.6838 0.55296 0.0
C381 C 0.65031 0.71076 0.56266 0.0
C382 C 0.66335 0.73118 0.54724 0.0
C383 C 0.67727 0.72489 0.52203 0.0
C384 C 0.67562 0.69838 0.51162 0.0
C385 C 0.66237 0.67814 0.52691 0.0
C386 C 0.6086 0.66086 0.66412 0.0
C387 C 0.55212 0.64389 0.61745 0.0
O388 O 0.60074 0.56295 0.67945 0.0
O389 O 0.55953 0.58369 0.6795 0.0
O390 O 0.58073 0.5783 0.61454 0.0
O391 O 0.61927 0.59282 0.61467 0.0
O392 O 0.63115 0.60389 0.67491 0.0
O393 O 0.65666 0.61597 0.63686 0.0
O394 O 0.62052 0.64965 0.57048 0.0
O395 O 0.65356 0.65908 0.59587 0.0
O396 O 0.62754 0.66833 0.64689 0.0
O397 O 0.59336 0.64529 0.65298 0.0
O398 O 0.57482 0.65103 0.60411 0.0
O399 O 0.55368 0.62595 0.63889 0.0
H400 H 0.59247 0.51724 0.65614 0.0
H401 H 0.57694 0.47046 0.65986 0.0
H402 H 0.51839 0.49707 0.72412 0.0
H403 H 0.53418 0.54372 0.72062 0.0
H404 H 0.64141 0.71558 0.58279 0.0
H405 H 0.66359 0.75151 0.55569 0.0
H406 H 0.68623 0.69246 0.49255 0.0
H407 H 0.6631 0.65736 0.51918 0.0
C408 C 0.63658 0.5504 0.04823 0.0
Eu409 Eu 0.61627 0.53394 1.00359 0.0
C410 C 0.63452 0.54799 0.07864 0.0
C411 C 0.60951 0.55372 0.09331 0.0
C412 C 0.60873 0.55487 0.12199 0.0
C413 C 0.63288 0.55022 0.13666 0.0
C414 C 0.65769 0.54318 0.12201 0.0
C415 C 0.65848 0.5422 0.09333 0.0
C416 C 0.56566 0.5134 1.005 0.0
C417 C 0.64599 0.47305 0.98727 0.0
C418 C 0.57865 0.48879 0.91193 0.0
Eu419 Eu 0.6016 0.51229 0.95072 0.0
C420 C 0.55692 0.48074 0.89501 0.0
C421 C 0.56465 0.46348 0.87314 0.0
C422 C 0.54553 0.44846 0.86149 0.0
C423 C 0.51813 0.45047 0.87144 0.0
C424 C 0.50999 0.46972 0.89181 0.0
C425 C 0.5293 0.4847 0.90358 0.0
C426 C 0.65334 0.52559 0.9487 0.0
C427 C 0.58959 0.57949 0.95922 0.0
O428 O 0.64704 0.52863 0.03506 0.0
O429 O 0.61628 0.5641 0.03555 0.0
O430 O 0.57164 0.53388 0.01904 0.0
O431 O 0.58724 0.50331 0.99308 0.0
O432 O 0.64507 0.4938 1.00415 0.0
O433 O 0.6296 0.47445 0.96621 0.0
O434 O 0.57874 0.47967 0.93748 0.0
O435 O 0.5896 0.51232 0.90759 0.0
O436 O 0.64455 0.50636 0.93473 0.0
O437 O 0.63376 0.53983 0.96095 0.0
O438 O 0.58076 0.55782 0.94737 0.0
O439 O 0.60726 0.57477 0.97904 0.0
H440 H 0.59065 0.5581 0.08263 0.0
H441 H 0.58922 0.5599 0.13266 0.0
H442 H 0.67669 0.53968 0.13259 0.0
H443 H 0.67804 0.53784 0.08251 0.0
H444 H 0.58596 0.45988 0.86645 0.0
H445 H 0.5528 0.43371 0.8461 0.0
H446 H 0.48895 0.47225 0.89948 0.0
H447 H 0.52305 0.49813 0.92035 0.0
C448 C 0.58446 0.08017 0.04783 0.0
Eu449 Eu 0.53748 0.06653 0.0321 0.0
C450 C 0.6053 0.09991 0.04095 0.0
C451 C 0.63127 0.09002 0.03014 0.0
C452 C 0.65249 0.10747 0.02747 0.0
C453 C 0.6482 0.13502 0.03593 0.0
C454 C 0.62187 0.14534 0.04528 0.0
C455 C 0.60063 0.12803 0.04772 0.0
C456 C 0.53299 0.01628 1.00914 0.0
C457 C 0.5193 0.08295 0.97212 0.0
C458 C 0.43618 0.04445 1.00554 0.0
Eu459 Eu 0.48222 0.05823 0.02194 0.0
C460 C 0.40963 0.03866 0.0184 0.0
C461 C 0.38682 0.05772 1.01392 0.0
C462 C 0.36072 0.05047 0.02102 0.0
C463 C 0.35688 0.02376 0.03239 0.0
C464 C 0.37994 1.00613 0.04015 0.0
C465 C 0.40618 1.01342 0.03298 0.0
C466 C 0.48723 0.11086 0.03871 0.0
C467 C 0.49523 0.05002 0.08433 0.0
O468 O 0.56079 0.09013 0.05828 0.0
O469 O 0.58219 0.06054 0.03078 0.0
O470 O 0.55204 0.03232 1.00295 0.0
O471 O 0.51752 0.02677 0.02833 0.0
O472 O 0.53415 0.09123 0.99156 0.0
O473 O 0.5008 0.06544 0.97875 0.0
O474 O 0.45711 0.02638 1.01035 0.0
O475 O 0.44219 0.07017 1.00557 0.0
O476 O 0.46846 0.09542 0.04798 0.0
O477 O 0.50294 0.09747 0.02178 0.0
O478 O 0.4784 0.04325 0.06614 0.0
O479 O 0.51813 0.06096 0.07604 0.0
H480 H 0.63554 0.06842 0.0249 0.0
H481 H 0.67265 0.09893 0.02046 0.0
H482 H 0.61802 0.16656 0.05184 0.0
H483 H 0.58092 0.13642 0.05604 0.0
H484 H 0.38897 0.07747 1.00306 0.0
H485 H 0.34364 0.06473 1.01455 0.0
H486 H 0.37767 0.98562 0.04933 0.0
H487 H 0.42353 0.99852 0.03728 0.0
H488 H 0.0236 0.21607 0.36985 0.0
H489 H 0.05163 0.26319 0.43489 0.0
H490 H 0.06825 0.21938 0.45922 0.0
H491 H 1.00367 0.15532 0.41359 0.0
H492 H 0.01633 0.13002 0.38888 0.0
H493 H 1.00395 0.16478 0.37747 0.0
H494 H 0.04999 0.17009 0.35118 0.0
H495 H 0.0626 0.13542 0.36261 0.0
H496 H 0.08131 0.16453 0.36932 0.0
H497 H 0.08426 0.17115 0.47584 0.0
H498 H 0.09887 0.12184 0.48427 0.0
H499 H 0.06307 0.10208 0.40853 0.0
C500 C 0.03251 0.2171 0.38962 0.0
C501 C 0.03548 0.24354 0.40077 0.0
C502 C 0.04842 0.24359 0.42612 0.0
C503 C 0.05811 0.21865 0.44008 0.0
C504 C 0.05534 0.19316 0.42846 0.0
C505 C 0.04286 0.19202 0.4038 0.0
C506 C 0.04422 0.16155 0.39538 0.0
C507 C 0.01532 0.15237 0.39373 0.0
C508 C 0.06049 0.15767 0.36799 0.0
C509 C 0.05946 0.14586 0.41909 0.0
C510 C 0.06543 0.16483 0.43785 0.0
C511 C 0.07958 0.15619 0.46128 0.0
C512 C 0.08792 0.12774 0.46584 0.0
C513 C 0.08244 0.10723 0.44726 0.0
C514 C 0.06774 0.11675 0.42339 0.0
H515 H 0.07321 0.40223 0.39988 0.0
H516 H 1.00452 0.3597 0.43264 0.0
H517 H 0.99574 0.39461 0.46839 0.0
H518 H 0.09696 0.42394 0.46389 0.0
H519 H 0.10478 0.45772 0.45046 0.0
H520 H 0.10632 0.42891 0.42802 0.0
H521 H 0.07243 0.45737 0.39608 0.0
H522 H 0.07079 0.48627 0.41844 0.0
H523 H 0.03987 0.47188 0.41008 0.0
H524 H 0.99447 0.43466 0.50136 0.0
H525 H 0.99968 0.47698 0.52681 0.0
H526 H 0.06772 0.49525 0.47177 0.0
C527 C 0.05645 0.40013 0.41472 0.0
C528 C 0.03971 0.37784 0.41344 0.0
C529 C 0.01768 0.37638 0.43304 0.0
C530 C 0.01256 0.39617 0.45353 0.0
C531 C 0.0293 0.41788 0.45416 0.0
C532 C 0.05066 0.42015 0.43507 0.0
C533 C 0.06478 0.44625 0.43954 0.0
C534 C 0.09501 0.43874 0.44586 0.0
C535 C 0.06179 0.46664 0.41455 0.0
C536 C 0.04851 0.45793 0.46446 0.0
C537 C 0.02808 0.44125 0.47256 0.0
C538 C 1.01035 0.44785 0.49502 0.0
C539 C 0.01342 0.47205 0.5094 0.0
C540 C 0.034 0.48968 0.5014 0.0
C541 C 0.05179 0.48227 0.47858 0.0
H542 H 0.0703 0.80799 0.22392 0.0
H543 H 0.98152 0.81358 0.22752 0.0
H544 H 0.97977 0.86279 0.21273 0.0
H545 H 0.07804 0.87301 0.249 0.0
H546 H 0.10599 0.88139 0.22598 0.0
H547 H 0.1009 0.84556 0.23436 0.0
H548 H 0.09875 0.83608 0.18271 0.0
H549 H 0.10398 0.87192 0.17415 0.0
H550 H 0.07466 0.8572 0.162 0.0
H551 H 0.98675 0.91255 0.20375 0.0
H552 H 1.0026 0.95938 0.19644 0.0
H553 H 0.08676 0.92312 0.19506 0.0
C554 C 0.05053 0.81938 0.22089 0.0
C555 C 0.02607 0.80655 0.22692 0.0
C556 C 1.00064 0.82251 0.22295 0.0
C557 C 0.99935 0.85068 0.21457 0.0
C558 C 0.02366 0.86285 0.20958 0.0
C559 C 0.04882 0.84769 0.21197 0.0
C560 C 0.07172 0.86637 0.2057 0.0
C561 C 0.09025 0.86659 0.23023 0.0
C562 C 0.08826 0.85735 0.17959 0.0
C563 C 0.05545 0.89452 0.20091 0.0
C564 C 0.02772 0.89182 0.20312 0.0
C565 C 1.00839 0.91486 0.20138 0.0
C566 C 0.01756 0.94138 0.19731 0.0
C567 C 0.04581 0.94483 0.19483 0.0
C568 C 0.06502 0.921 0.19635 0.0
H569 H 0.01647 0.64956 0.23434 0.0
H570 H 0.95948 0.71073 0.19432 0.0
H571 H 0.95442 0.67794 0.15774 0.0
H572 H 0.0495 0.61794 0.17411 0.0
H573 H 0.05058 0.58285 0.18845 0.0
H574 H 0.0512 0.61159 0.21069 0.0
H575 H 1.00895 0.59599 0.23843 0.0
H576 H 1.00828 0.56708 0.21643 0.0
H577 H 0.97836 0.59137 0.22083 0.0
H578 H 0.95431 0.6386 0.12645 0.0
H579 H 0.95674 0.59371 0.10355 0.0
H580 H 0.01274 0.55647 0.16381 0.0
C581 C 1.0032 0.65602 0.21764 0.0
C582 C 0.98858 0.68275 0.21681 0.0
C583 C 0.97086 0.69037 0.19517 0.0
C584 C 0.96796 0.67192 0.17429 0.0
C585 C 0.98254 0.64569 0.17564 0.0
C586 C 0.99952 0.63751 0.19693 0.0
C587 C 1.01109 0.60729 0.19447 0.0
C588 C 0.04246 0.60479 0.19176 0.0
C589 C 1.00107 0.58938 0.21899 0.0
C590 C 0.99856 0.60005 0.16806 0.0
C591 C 0.98212 0.62259 0.15767 0.0
C592 C 0.96727 0.62088 0.13425 0.0
C593 C 0.96883 0.59538 0.12134 0.0
C594 C 0.98531 0.57196 0.1316 0.0
C595 C 1.00059 0.57435 0.15515 0.0
H596 H 0.41586 1.00193 0.22601 0.0
H597 H 0.41876 0.08683 0.25074 0.0
H598 H 0.44597 0.09709 0.20881 0.0
H599 H 0.48602 0.99523 0.193 0.0
H600 H 0.47652 0.97491 0.16546 0.0
H601 H 0.45883 0.97292 0.19853 0.0
H602 H 0.41268 0.98629 0.17569 0.0
H603 H 0.43022 0.98824 0.14261 0.0
H604 H 0.40827 0.01777 0.15448 0.0
H605 H 0.47317 0.09909 0.16402 0.0
H606 H 0.49455 0.09361 0.11759 0.0
H607 H 0.47221 1.00898 0.11798 0.0
C608 C 0.42254 0.02255 0.22279 0.0
C609 C 0.41508 0.04345 0.24229 0.0
C610 C 0.42407 0.07026 0.23665 0.0
C611 C 0.43971 0.07637 0.21272 0.0
C612 C 0.44652 0.05559 0.19398 0.0
C613 C 0.43818 0.0292 0.19855 0.0
C614 C 0.44765 1.01119 0.17421 0.0
C615 C 0.46848 0.98713 0.18334 0.0
C616 C 0.42324 1.00024 0.16096 0.0
C617 C 0.46143 0.03193 0.15491 0.0
C618 C 0.46124 0.05715 0.16727 0.0
C619 C 0.47341 0.07939 0.1542 0.0
C620 C 0.48575 0.07603 0.1278 0.0
C621 C 0.48542 0.05087 0.114 0.0
C622 C 0.47298 0.02849 0.12792 0.0
H623 H 0.67613 0.52167 0.29269 0.0
H624 H 0.62905 0.59949 0.31199 0.0
H625 H 0.6147 0.60514 0.26383 0.0
H626 H 0.70123 0.54593 0.22693 0.0
H627 H 0.70078 0.5129 0.21119 0.0
H628 H 0.70556 0.51403 0.24747 0.0
H629 H 0.66423 0.48532 0.25747 0.0
H630 H 0.65927 0.48406 0.22123 0.0
H631 H 0.63156 0.4975 0.24379 0.0
H632 H 0.60556 0.60204 0.21364 0.0
H633 H 0.60497 0.59281 0.16438 0.0
H634 H 0.66033 0.51819 0.17705 0.0
C635 C 0.66238 0.53965 0.28687 0.0
C636 C 0.65313 0.5599 0.30614 0.0
C637 C 0.63603 0.58364 0.29758 0.0
C638 C 0.62781 0.58696 0.27032 0.0
C639 C 0.63736 0.56663 0.25179 0.0
C640 C 0.65455 0.54361 0.25963 0.0
C641 C 0.66345 0.5258 0.23536 0.0
C642 C 0.69459 0.52461 0.22992 0.0
C643 C 0.65405 0.49643 0.23973 0.0
C644 C 0.64819 0.54216 0.21263 0.0
C645 C 0.63312 0.56552 0.22262 0.0
C646 C 0.61726 0.58382 0.20561 0.0
C647 C 0.61691 0.57827 0.17765 0.0
C648 C 0.63247 0.55471 0.16676 0.0
C649 C 0.64829 0.53644 0.18465 0.0
H650 H 0.39623 0.01855 0.39428 0.0
H651 H 0.41688 0.10266 0.37553 0.0
H652 H 0.44081 0.10181 0.41921 0.0
H653 H 0.38259 0.02912 0.46702 0.0
H654 H 0.39609 0.99493 0.47877 0.0
H655 H 0.38156 0.99992 0.44542 0.0
H656 H 0.42572 0.97856 0.42151 0.0
H657 H 0.44055 0.9718 0.4545 0.0
H658 H 0.45787 0.99152 0.4281 0.0
H659 H 0.46513 0.09077 0.46473 0.0
H660 H 0.48467 0.07196 0.50837 0.0
H661 H 0.44555 0.99631 0.50087 0.0
C662 C 0.40601 0.03674 0.3992 0.0
C663 C 0.40486 0.06064 0.38077 0.0
C664 C 0.41744 0.08407 0.38877 0.0
C665 C 0.43117 0.08373 0.41372 0.0
C666 C 0.43192 0.05998 0.43129 0.0
C667 C 0.41935 0.03697 0.4245 0.0
C668 C 0.42216 1.01456 0.4477 0.0
C669 C 0.39392 1.0093 0.46046 0.0
C670 C 0.43749 0.9875 0.43732 0.0
C671 C 0.43899 0.0281 0.46818 0.0
C672 C 0.44441 0.05433 0.4582 0.0
C673 C 0.46056 0.07044 0.47275 0.0
C674 C 0.47156 0.05959 0.49773 0.0
C675 C 0.46619 0.03297 0.50879 0.0
C676 C 0.44946 0.0171 0.49363 0.0
H677 H 0.66637 0.5056 0.4656 0.0
H678 H 0.59877 0.54897 0.4226 0.0
H679 H 0.57926 0.56773 0.46631 0.0
H680 H 0.62731 0.49157 0.53273 0.0
H681 H 0.65613 0.4977 0.55242 0.0
H682 H 0.6616 0.4833 0.51894 0.0
H683 H 0.69132 0.52314 0.5042 0.0
H684 H 0.68528 0.53825 0.53723 0.0
H685 H 0.67691 0.55877 0.50651 0.0
H686 H 0.5697 0.58571 0.51317 0.0
H687 H 0.56875 0.59949 0.56139 0.0
H688 H 0.64443 0.54761 0.57422 0.0
C689 C 0.64662 0.5177 0.46577 0.0
C690 C 0.63331 0.52486 0.44097 0.0
C691 C 0.60855 0.54234 0.44155 0.0
C692 C 0.59756 0.55335 0.46624 0.0
C693 C 0.61181 0.54699 0.49014 0.0
C694 C 0.63563 0.52927 0.49026 0.0
C695 C 0.64817 0.52791 0.5183 0.0
C696 C 0.64831 0.49837 0.53137 0.0
C697 C 0.67712 0.5376 0.51643 0.0
C698 C 0.62813 0.54831 0.53363 0.0
C699 C 0.60714 0.55871 0.517 0.0
C700 C 0.58594 0.57761 0.5264 0.0
C701 C 0.58565 0.58546 0.55373 0.0
C702 C 0.60669 0.57496 0.57125 0.0
C703 C 0.62843 0.5564 0.56099 0.0
H704 H 0.29207 0.38353 0.02354 0.0
H705 H 0.32022 0.41358 0.0987 0.0
H706 H 0.27378 0.43674 0.10878 0.0
H707 H 0.24475 0.44252 1.0052 0.0
H708 H 0.21938 0.42174 0.99346 0.0
H709 H 0.255 0.40885 0.99148 0.0
H710 H 0.24427 0.36427 0.01979 0.0
H711 H 0.2086 0.37703 0.02143 0.0
H712 H 0.22617 0.36764 0.05258 0.0
H713 H 0.22474 0.45783 0.10973 0.0
H714 H 0.17554 0.47179 0.10415 0.0
H715 H 0.17772 0.42451 0.03048 0.0
C716 C 0.2885 0.39534 0.04194 0.0
C717 C 0.30986 0.39736 0.06012 0.0
C718 C 0.30423 0.41211 0.08442 0.0
C719 C 0.27794 0.42529 0.09025 0.0
C720 C 0.25734 0.42293 0.07189 0.0
C721 C 0.2622 0.40795 0.04843 0.0
C722 C 0.23612 0.40725 0.03293 0.0
C723 C 0.23899 0.42091 1.00406 0.0
C724 C 0.22835 0.37726 0.03161 0.0
C725 C 0.21584 0.42459 0.05113 0.0
C726 C 0.22865 0.43365 0.07332 0.0
C727 C 0.2145 0.45068 0.09257 0.0
C728 C 0.18659 0.45857 0.0892 0.0
C729 C 0.17285 0.44918 0.06698 0.0
C730 C 0.18769 0.43183 0.04776 0.0
H731 H 0.27939 0.71548 0.55084 0.0
H732 H 0.28459 0.72715 0.46221 0.0
H733 H 0.24445 0.7007 0.45866 0.0
H734 H 0.25928 0.64444 0.5511 0.0
H735 H 0.23694 0.64908 0.58113 0.0
H736 H 0.26647 0.66837 0.57657 0.0
H737 H 0.23538 0.71451 0.58158 0.0
H738 H 0.20576 0.69538 0.58597 0.0
H739 H 0.20712 0.72226 0.55931 0.0
H740 H 0.20219 0.67481 0.46494 0.0
H741 H 0.16328 0.64858 0.48028 0.0
H742 H 0.18594 0.6531 0.5648 0.0
C743 C 0.27225 0.71226 0.53066 0.0
C744 C 0.28523 0.7234 0.50679 0.0
C745 C 0.2752 0.71865 0.48079 0.0
C746 C 0.25229 0.70375 0.47856 0.0
C747 C 0.23978 0.69337 0.5025 0.0
C748 C 0.24962 0.6971 0.52804 0.0
C749 C 0.23257 0.68356 0.55054 0.0
C750 C 0.24985 0.65996 0.56573 0.0
C751 C 0.21943 0.70523 0.57052 0.0
C752 C 0.21127 0.67216 0.53373 0.0
C753 C 0.21578 0.67805 0.50607 0.0
C754 C 0.19855 0.66998 0.48656 0.0
C755 C 0.17633 0.65526 0.49551 0.0
C756 C 0.17142 0.64866 0.52377 0.0
C757 C 0.18923 0.65741 0.54303 0.0
H758 H 0.96679 0.88437 0.49317 0.0
H759 H 0.90226 0.94144 0.45937 0.0
H760 H 0.93326 0.97902 0.45651 0.0
H761 H 0.99667 0.93209 0.53318 0.0
H762 H 0.03165 0.91888 0.52584 0.0
H763 H 1.00482 0.89612 0.52492 0.0
H764 H 0.01896 0.88399 0.47417 0.0
H765 H 0.04683 0.9052 0.477 0.0
H766 H 0.02376 0.91216 0.44954 0.0
H767 H 0.9704 1.01175 0.46143 0.0
H768 H 0.0125 0.03499 0.46735 0.0
H769 H 0.05476 0.95577 0.49267 0.0
C770 C 0.95934 0.90475 0.48495 0.0
C771 C 0.932 0.91006 0.47663 0.0
C772 C 0.92308 0.9369 0.46579 0.0
C773 C 0.94056 0.9584 0.46417 0.0
C774 C 0.9673 0.95265 0.47275 0.0
C775 C 0.97691 0.92626 0.48227 0.0
C776 C 1.00676 0.92551 0.48961 0.0
C777 C 1.01016 0.9177 0.52021 0.0
C778 C 0.02511 0.90551 0.4715 0.0
C779 C 0.01227 0.95561 0.48312 0.0
C780 C 0.98912 0.97104 0.47383 0.0
C781 C 0.98877 0.9997 0.4682 0.0
C782 C 0.01271 1.01281 0.47174 0.0
C783 C 0.03697 0.99723 0.48018 0.0
C784 C 0.03662 0.9682 0.48583 0.0
H785 H 0.43292 0.75656 0.55563 0.0
H786 H 0.3755 0.69645 0.57912 0.0
H787 H 0.41355 0.66354 0.59589 0.0
H788 H 0.48967 0.70782 0.53322 0.0
H789 H 0.51569 0.72615 0.54739 0.0
H790 H 0.48418 0.74497 0.53685 0.0
H791 H 0.47597 0.76464 0.58524 0.0
H792 H 0.50748 0.74593 0.59591 0.0
H793 H 0.47591 0.741 0.61481 0.0
H794 H 0.45794 0.63717 0.61132 0.0
H795 H 0.50454 0.61933 0.62404 0.0
H796 H 0.53522 0.69547 0.59071 0.0
C797 C 0.42843 0.73643 0.5643 0.0
C798 C 0.40097 0.72914 0.56604 0.0
C799 C 0.39612 0.70262 0.57763 0.0
C800 C 0.41773 0.68375 0.58719 0.0
C801 C 0.44445 0.69151 0.58535 0.0
C802 C 0.44993 0.71729 0.57428 0.0
C803 C 0.48055 0.72054 0.57544 0.0
C804 C 0.49327 0.72514 0.5465 0.0
C805 C 0.48525 0.74445 0.59394 0.0
C806 C 0.49151 0.69242 0.58835 0.0
C807 C 0.47015 0.67617 0.59409 0.0
C808 C 0.47471 0.64979 0.60683 0.0
C809 C 0.50144 0.6398 0.61409 0.0
C810 C 0.52399 0.65571 0.60849 0.0
C811 C 0.51873 0.68246 0.59513 0.0
H812 H 0.52518 0.71575 0.86734 0.0
H813 H 0.56493 0.7655 0.92252 0.0
H814 H 0.5804 0.72296 0.94953 0.0
H815 H 0.50412 0.66248 0.91853 0.0
H816 H 0.51197 0.63377 0.8962 0.0
H817 H 0.50206 0.66812 0.88191 0.0
H818 H 0.54646 0.66581 0.85146 0.0
H819 H 0.55654 0.63147 0.86567 0.0
H820 H 0.579 0.65866 0.8672 0.0
H821 H 0.59264 0.67522 0.97065 0.0
H822 H 0.60269 0.62589 0.98357 0.0
H823 H 0.55774 0.60328 0.91456 0.0
C824 C 0.53666 0.71771 0.88546 0.0
C825 C 0.54323 0.74454 0.89301 0.0
C826 C 0.5592 0.74566 0.91634 0.0
C827 C 0.56816 0.72142 0.93188 0.0
C828 C 0.56163 0.6955 0.92387 0.0
C829 C 0.54639 0.69331 0.9011 0.0
C830 C 0.54382 0.66239 0.89637 0.0
C831 C 0.51369 0.65633 0.89837 0.0
C832 C 0.55725 0.65409 0.86851 0.0
C833 C 0.55972 0.64767 0.92013 0.0
C834 C 0.56962 0.66746 0.93566 0.0
C835 C 0.58498 0.65964 0.95853 0.0
C836 C 0.59064 0.63117 0.96573 0.0
C837 C 0.58127 0.60985 0.95033 0.0
C838 C 0.56532 0.61858 0.92707 0.0
H839 H 0.57394 0.90138 0.89548 0.0
H840 H 0.49893 0.86452 0.91854 0.0
H841 H 0.48854 0.89934 0.95421 0.0
H842 H 0.59104 0.91907 0.96371 0.0
H843 H 0.60365 0.95164 0.95245 0.0
H844 H 0.60558 0.92328 0.92943 0.0
H845 H 0.57893 0.95503 0.89366 0.0
H846 H 0.57697 0.98348 0.91655 0.0
H847 H 0.54616 0.97262 0.90349 0.0
H848 H 0.48658 0.93901 0.98862 0.0
H849 H 0.4922 0.98038 0.01559 0.0
H850 H 0.56716 0.99268 0.96862 0.0
C851 C 0.55538 0.90047 0.90811 0.0
C852 C 0.53737 0.87981 0.90407 0.0
C853 C 0.51316 0.87989 0.92103 0.0
C854 C 0.50709 0.89966 0.94148 0.0
C855 C 0.52522 0.9197 0.94487 0.0
C856 C 0.54882 0.92033 0.92845 0.0
C857 C 0.56449 0.94457 0.93558 0.0
C858 C 0.59287 0.934 0.94591 0.0
C859 C 0.56676 0.96514 0.91085 0.0
C860 C 0.54614 0.95747 0.95854 0.0
C861 C 0.52366 0.94273 0.96382 0.0
C862 C 0.50407 0.9507 0.98442 0.0
C863 C 0.50738 0.97433 0.9997 0.0
C864 C 0.52995 0.99014 0.99426 0.0
C865 C 0.54957 0.98124 0.9734 0.0
H866 H 0.56154 0.31412 0.72185 0.0
H867 H 0.47285 0.31911 0.72168 0.0
H868 H 0.47119 0.36864 0.70838 0.0
H869 H 0.5683 0.3783 0.74877 0.0
H870 H 0.5967 0.38736 0.72671 0.0
H871 H 0.59161 0.35134 0.73393 0.0
H872 H 0.59074 0.34327 0.68184 0.0
H873 H 0.59599 0.37931 0.67449 0.0
H874 H 0.56709 0.3649 0.66108 0.0
H875 H 0.47808 0.41892 0.70174 0.0
H876 H 0.49396 0.46582 0.69545 0.0
H877 H 0.57812 0.42941 0.69609 0.0
C878 C 0.54184 0.32546 0.71832 0.0
C879 C 0.51738 0.31238 0.72299 0.0
C880 C 0.49201 0.32826 0.71824 0.0
C881 C 0.49075 0.35663 0.71072 0.0
C882 C 0.51503 0.36908 0.70727 0.0
C883 C 0.54017 0.35396 0.71011 0.0
C884 C 0.56307 0.37281 0.70505 0.0
C885 C 0.58096 0.37242 0.73012 0.0
C886 C 0.58025 0.36458 0.67908 0.0
C887 C 0.54677 0.40097 0.70063 0.0
C888 C 0.51907 0.39822 0.7019 0.0
C889 C 0.49975 0.4213 0.70013 0.0
C890 C 0.50896 0.44789 0.69676 0.0
C891 C 0.53726 0.45136 0.69507 0.0
C892 C 0.55636 0.42743 0.69682 0.0
H893 H 0.51559 0.16086 0.72014 0.0
H894 H 0.44467 0.2123 0.69095 0.0
H895 H 0.44062 0.17963 0.65423 0.0
H896 H 0.54389 0.13736 0.65331 0.0
H897 H 0.55362 0.10225 0.6657 0.0
H898 H 0.55272 0.13068 0.68859 0.0
H899 H 0.5197 0.10618 0.72213 0.0
H900 H 0.52064 0.07762 0.69946 0.0
H901 H 0.48834 0.09586 0.70975 0.0
H902 H 0.44302 0.14162 0.62162 0.0
H903 H 0.44883 0.09797 0.59711 0.0
H904 H 0.51703 0.06814 0.64746 0.0
C905 C 0.49947 0.16536 0.70574 0.0
C906 C 0.48058 0.18937 0.70824 0.0
C907 C 0.45937 0.19416 0.68944 0.0
C908 C 0.45699 0.17576 0.6684 0.0
C909 C 0.47575 0.15229 0.66652 0.0
C910 C 0.49641 0.14674 0.68481 0.0
C911 C 0.51243 0.11875 0.6792 0.0
C912 C 0.54245 0.12249 0.67122 0.0
C913 C 0.51013 0.0984 0.70411 0.0
C914 C 0.49747 0.10952 0.65496 0.0
C915 C 0.47661 0.1295 0.64794 0.0
C916 C 0.45929 0.12583 0.6269 0.0
C917 C 0.46279 0.10085 0.61307 0.0
C918 C 0.48339 0.07947 0.62021 0.0
C919 C 0.50135 0.08416 0.64119 0.0
H920 H 0.89075 0.56793 0.72266 0.0
H921 H 0.94034 0.49965 0.76167 0.0
H922 H 0.97213 0.49766 0.72083 0.0
H923 H 0.89682 0.53911 0.65536 0.0
H924 H 0.8972 0.57237 0.63722 0.0
H925 H 0.87971 0.56993 0.6703 0.0
H926 H 0.90846 0.60695 0.68821 0.0
H927 H 0.92612 0.60943 0.6552 0.0
H928 H 0.94525 0.60144 0.68566 0.0
H929 H 0.99995 0.50461 0.67559 0.0
H930 H 0.01729 0.51512 0.62812 0.0
H931 H 0.94678 0.57469 0.61597 0.0
C932 C 0.90849 0.55279 0.72269 0.0
C933 C 0.91331 0.53426 0.74572 0.0
C934 C 0.93633 0.51422 0.74451 0.0
C935 C 0.95456 0.513 0.72136 0.0
C936 C 0.94928 0.53152 0.69901 0.0
C937 C 0.92647 0.55069 0.69928 0.0
C938 C 0.92437 0.56678 0.6718 0.0
C939 C 0.89796 0.56174 0.65785 0.0
C940 C 0.92616 0.598 0.67544 0.0
C941 C 0.94955 0.55381 0.65606 0.0
C942 C 0.96399 0.53392 0.67234 0.0
C943 C 0.98858 0.51995 0.66266 0.0
C944 C 0.9984 0.52613 0.63568 0.0
C945 C 0.98341 0.54559 0.61823 0.0
C946 C 0.95863 0.55955 0.62873 0.0
H947 H 0.15923 0.01906 0.78999 0.0
H948 H 0.15404 0.10856 0.7982 0.0
H949 H 0.14845 0.11528 0.74812 0.0
H950 H 0.19982 0.01875 0.72828 0.0
H951 H 0.18434 0.99062 0.71391 0.0
H952 H 0.18549 0.99275 0.75057 0.0
H953 H 0.1329 0.99207 0.75542 0.0
H954 H 0.13159 0.98945 0.71883 0.0
H955 H 0.11124 0.01717 0.73591 0.0
H956 H 0.14552 0.11203 0.69708 0.0
H957 H 0.14257 0.09947 0.64898 0.0
H958 H 0.15181 1.01183 0.674 0.0
C959 C 0.15608 0.04014 0.78145 0.0
C960 C 0.15647 0.06338 0.79811 0.0
C961 C 0.15336 0.09053 0.78589 0.0
C962 C 0.15037 0.09451 0.75747 0.0
C963 C 0.15089 0.0711 0.74159 0.0
C964 C 0.15356 0.04445 0.75316 0.0
C965 C 0.15495 0.02277 0.73145 0.0
C966 C 0.1828 1.0052 0.73103 0.0
C967 C 0.13125 1.00429 0.73565 0.0
C968 C 0.1519 0.04143 0.70582 0.0
C969 C 0.14988 0.06921 0.71212 0.0
C970 C 0.14709 0.09036 0.6919 0.0
C971 C 0.14571 0.08298 0.66457 0.0
C972 C 0.14709 0.05465 0.65762 0.0
C973 C 0.15053 0.03366 0.67862 0.0
H974 H 0.9038 0.51074 0.89032 0.0
H975 H 0.90005 0.60085 0.88871 0.0
H976 H 0.91979 0.59855 0.93457 0.0
H977 H 0.88479 0.50493 0.96141 0.0
H978 H 0.90623 0.47445 0.97136 0.0
H979 H 0.89409 0.47843 0.9369 0.0
H980 H 0.94102 0.47517 0.9128 0.0
H981 H 0.95584 0.4667 0.94555 0.0
H982 H 0.96718 0.49512 0.92432 0.0
H983 H 0.93887 0.58614 0.98315 0.0
H984 H 0.95884 0.5649 0.02587 0.0
H985 H 0.9535 0.48286 0.99534 0.0
C986 C 0.90742 0.53006 0.89937 0.0
C987 C 0.90036 0.5561 0.88516 0.0
C988 C 0.90522 0.58062 0.89854 0.0
C989 C 0.91645 0.57951 0.92487 0.0
C990 C 0.92302 0.55364 0.93824 0.0
C991 C 0.91882 0.52932 0.92577 0.0
C992 C 0.92703 0.50423 0.94486 0.0
C993 C 0.90158 0.48958 0.9541 0.0
C994 C 0.94907 0.48411 0.93106 0.0
C995 C 0.9382 0.51796 0.96913 0.0
C996 C 0.93475 0.54659 0.96539 0.0
C997 C 0.94189 0.56372 0.98589 0.0
C998 C 0.95319 0.55144 1.01031 0.0
C999 C 0.95818 0.52214 1.01419 0.0
C1000 C 0.95038 0.50532 0.99309 0.0
H1001 H 0.11841 1.00888 0.95487 0.0
H1002 H 0.17882 0.06734 0.93383 0.0
H1003 H 0.17591 0.08313 0.98015 0.0
H1004 H 0.07512 0.05187 0.99697 0.0
H1005 H 0.06839 0.02653 0.02402 0.0
H1006 H 0.07741 1.01535 0.98983 0.0
H1007 H 0.11759 0.9823 1.00831 0.0
H1008 H 0.10865 0.99331 0.04268 0.0
H1009 H 0.14269 0.99607 0.02835 0.0
H1010 H 0.16828 0.09358 0.02738 0.0
H1011 H 0.15027 0.10324 0.07379 0.0
H1012 H 0.08908 0.04552 0.06635 0.0
C1013 C 0.13106 0.0248 0.96021 0.0
C1014 C 0.14852 0.03697 0.94015 0.0
C1015 C 0.16486 0.05775 0.94821 0.0
C1016 C 0.1637 0.06683 0.9748 0.0
C1017 C 0.14609 0.05515 0.99377 0.0
C1018 C 0.12987 0.03474 0.98721 0.0
C1019 C 0.11168 0.02756 1.01215 0.0
C1020 C 0.08133 0.03054 1.00532 0.0
C1021 C 0.12066 0.99806 0.02354 0.0
C1022 C 0.1183 0.0493 0.03211 0.0
C1023 C 0.13949 0.06355 0.02133 0.0
C1024 C 0.15113 0.08316 0.03589 0.0
C1025 C 0.14036 0.08903 0.06209 0.0
C1026 C 0.1171 0.07681 0.07299 0.0
C1027 C 0.10623 0.05607 0.05805 0.0
H1028 H 0.79752 0.90646 0.49732 0.0
H1029 H 0.81838 0.8872 0.58198 0.0
H1030 H 0.77077 0.90159 0.59699 0.0
H1031 H 0.74925 0.9676 0.5104 0.0
H1032 H 0.72625 0.95949 0.48478 0.0
H1033 H 0.76229 0.94888 0.48068 0.0
H1034 H 0.75162 0.89791 0.47606 0.0
H1035 H 0.71556 0.90827 0.48048 0.0
H1036 H 0.73171 0.88152 0.50285 0.0
H1037 H 0.7205 0.91436 0.60281 0.0
H1038 H 0.67135 0.92969 0.59969 0.0
H1039 H 0.68227 0.94304 0.51168 0.0
C1040 C 0.79228 0.90588 0.5191 0.0
C1041 C 0.812 0.8959 0.53851 0.0
C1042 C 0.80394 0.895 0.56672 0.0
C1043 C 0.77683 0.90297 0.57544 0.0
C1044 C 0.75786 0.912 0.55579 0.0
C1045 C 0.76524 0.91389 0.52822 0.0
C1046 C 0.7406 0.92389 0.51136 0.0
C1047 C 0.74486 0.95162 0.4959 0.0
C1048 C 0.73452 0.90157 0.49152 0.0
C1049 C 0.71828 0.92762 0.53384 0.0
C1050 C 0.72875 0.92016 0.55924 0.0
C1051 C 0.71215 0.92055 0.58309 0.0
C1052 C 0.68424 0.92916 0.58111 0.0
C1053 C 0.67304 0.93765 0.55553 0.0
C1054 C 0.69035 0.93689 0.53154 0.0
H1055 H 0.78287 0.21225 0.99318 0.0
H1056 H 0.78162 0.23528 0.07835 0.0
H1057 H 0.74163 0.20952 0.08846 0.0
H1058 H 0.71054 0.2182 0.98689 0.0
H1059 H 0.70996 0.18848 0.96589 0.0
H1060 H 0.73972 0.20754 0.96485 0.0
H1061 H 0.77005 0.1623 0.97718 0.0
H1062 H 0.74042 0.14304 0.97803 0.0
H1063 H 0.76147 0.14175 1.00745 0.0
H1064 H 0.70042 0.18491 0.0895 0.0
H1065 H 0.66123 0.15846 0.08215 0.0
H1066 H 0.68822 0.14862 0.99701 0.0
C1067 C 0.77442 0.21144 1.01402 0.0
C1068 C 0.78548 0.22591 0.03495 0.0
C1069 C 0.7736 0.22455 0.0619 0.0
C1070 C 0.7508 0.20994 0.06791 0.0
C1071 C 0.74002 0.19652 0.04685 0.0
C1072 C 0.75147 0.19674 0.0205 0.0
C1073 C 0.73517 0.18073 1.00181 0.0
C1074 C 0.72314 0.19989 0.97848 0.0
C1075 C 0.75283 0.15545 0.99045 0.0
C1076 C 0.7128 0.17178 0.02186 0.0
C1077 C 0.71608 0.18141 0.04763 0.0
C1078 C 0.6977 0.17702 0.0695 0.0
C1079 C 0.67541 0.16215 0.06508 0.0
C1080 C 0.67166 0.1516 0.03906 0.0
C1081 C 0.69071 0.15636 0.01714 0.0
H1082 H 0.44707 0.41558 0.97594 0.0
H1083 H 0.43093 0.4108 0.06407 0.0
H1084 H 0.46628 0.44245 0.07032 0.0
H1085 H 0.5202 0.41665 0.97727 0.0
H1086 H 0.52194 0.44133 0.94868 0.0
H1087 H 0.49495 0.41856 0.95148 0.0
H1088 H 0.46033 0.4618 0.94741 0.0
H1089 H 0.48592 0.48605 0.94784 0.0
H1090 H 0.4584 0.48767 0.97316 0.0
H1091 H 0.5033 0.47524 0.06736 0.0
H1092 H 0.54127 0.50416 0.05534 0.0
H1093 H 0.53556 0.48659 0.96964 0.0
C1094 C 0.45094 0.42122 0.99654 0.0
C1095 C 0.43602 0.41056 0.01949 0.0
C1096 C 0.44194 0.41852 0.04609 0.0
C1097 C 0.46204 0.43659 0.0499 0.0
C1098 C 0.47642 0.44661 0.02697 0.0
C1099 C 0.47131 0.43908 1.00082 0.0
C1100 C 0.48983 0.45288 0.97975 0.0
C1101 C 0.50779 0.43107 0.96331 0.0
C1102 C 0.47261 0.47326 0.96089 0.0
C1103 C 0.50685 0.46839 0.99818 0.0
C1104 C 0.49829 0.46498 0.02533 0.0
C1105 C 0.51027 0.4779 0.04617 0.0
C1106 C 0.53179 0.49437 0.03915 0.0
C1107 C 0.54163 0.49739 1.01161 0.0
C1108 C 0.52882 0.48429 0.99089 0.0
H1109 H 0.91772 0.22359 0.04573 0.0
H1110 H 0.89369 0.26304 0.12241 0.0
H1111 H 0.93462 0.23895 0.1436 0.0
H1112 H 0.94531 0.15683 0.07645 0.0
H1113 H 0.97312 0.15178 0.05133 0.0
H1114 H 0.94164 0.17157 0.04212 0.0
H1115 H 0.96846 0.21322 0.02625 0.0
H1116 H 1.0 0.19359 0.03548 0.0
H1117 H 0.99043 0.22714 0.04974 0.0
H1118 H 0.97777 0.20936 0.15737 0.0
H1119 H 0.02061 0.17863 0.16199 0.0
H1120 H 0.01972 0.15953 0.07612 0.0
C1121 C 0.92092 0.22708 0.06705 0.0
C1122 C 0.90192 0.24531 0.08236 0.0
C1123 C 0.90744 0.24924 0.11013 0.0
C1124 C 0.93081 0.23558 0.1224 0.0
C1125 C 0.94897 0.21787 0.10681 0.0
C1126 C 0.9444 0.21362 0.07967 0.0
C1127 C 0.96745 0.19364 0.06753 0.0
C1128 C 0.95621 0.16687 0.05884 0.0
C1129 C 0.98248 0.20775 0.04332 0.0
C1130 C 0.98591 0.18765 0.09193 0.0
C1131 C 0.9745 0.20159 0.11447 0.0
C1132 C 0.98686 0.19854 0.13977 0.0
C1133 C 1.01126 0.18088 0.14224 0.0
C1134 C 0.02385 0.16662 0.11952 0.0
C1135 C 1.01093 0.17032 0.09388 0.0
H1136 H 0.10809 0.27936 0.27694 0.0
H1137 H 0.0519 0.23681 0.33083 0.0
H1138 H 0.05575 0.19722 0.30045 0.0
H1139 H 0.08316 0.26076 0.21589 0.0
H1140 H 0.11566 0.25522 0.19746 0.0
H1141 H 0.11156 0.27893 0.2251 0.0
H1142 H 0.1521 0.25158 0.24973 0.0
H1143 H 0.15666 0.22807 0.22185 0.0
H1144 H 0.15179 0.21463 0.25654 0.0
H1145 H 0.05983 0.16558 0.26072 0.0
H1146 H 0.07008 0.14088 0.21724 0.0
H1147 H 0.12523 0.20248 0.19075 0.0
C1148 C 0.09752 0.26124 0.28276 0.0
C1149 C 0.0798 0.26105 0.30618 0.0
C1150 C 0.06562 0.23728 0.31288 0.0
C1151 C 0.06759 0.21469 0.29576 0.0
C1152 C 0.08412 0.21595 0.27207 0.0
C1153 C 0.09937 0.23825 0.26583 0.0
C1154 C 0.11455 0.23481 0.2384 0.0
C1155 C 0.10569 0.25886 0.21802 0.0
C1156 C 0.14562 0.23211 0.24184 0.0
C1157 C 0.10491 0.20764 0.2301 0.0
C1158 C 0.08722 0.19711 0.24965 0.0
C1159 C 0.07417 0.17324 0.24546 0.0
C1160 C 0.07988 0.15947 0.22075 0.0
C1161 C 0.09864 0.16957 0.20096 0.0
C1162 C 0.11116 0.19395 0.20578 0.0
H1163 H 0.97565 0.35629 0.27145 0.0
H1164 H 0.04812 0.39168 0.29616 0.0
H1165 H 0.04621 0.42346 0.25543 0.0
H1166 H 0.99299 0.3584 0.19881 0.0
H1167 H 0.95855 0.36773 0.18822 0.0
H1168 H 0.96445 0.34831 0.22008 0.0
H1169 H 0.93375 0.38587 0.24621 0.0
H1170 H 0.92768 0.40534 0.21439 0.0
H1171 H 0.94116 0.42171 0.24268 0.0
H1172 H 0.0375 0.45157 0.21049 0.0
H1173 H 0.02201 0.47317 0.16615 0.0
H1174 H 0.95561 0.4202 0.16887 0.0
C1175 C 0.99092 0.37094 0.26849 0.0
C1176 C 0.01206 0.37116 0.28758 0.0
C1177 C 0.03171 0.39068 0.28226 0.0
C1178 C 0.03082 0.40901 0.25898 0.0
C1179 C 1.01016 0.40801 0.24048 0.0
C1180 C 0.99046 0.38953 0.24495 0.0
C1181 C 0.97085 0.39249 0.22129 0.0
C1182 C 0.97177 0.3651 0.20621 0.0
C1183 C 0.94162 0.40191 0.23177 0.0
C1184 C 0.98266 0.41528 0.20294 0.0
C1185 C 1.00532 0.42401 0.21448 0.0
C1186 C 0.01974 0.4448 0.20136 0.0
C1187 C 1.01083 0.45701 0.17602 0.0
C1188 C 0.98763 0.44856 0.1636 0.0
C1189 C 0.9735 0.42726 0.17752 0.0
H1190 H 0.99786 0.82192 0.28535 0.0
H1191 H 0.95743 0.78649 0.35713 0.0
H1192 H 0.95806 0.83118 0.38047 0.0
H1193 H 0.04381 0.85212 0.31657 0.0
H1194 H 0.0443 0.88326 0.29491 0.0
H1195 H 0.0337 0.85228 0.28147 0.0
H1196 H 0.9876 0.87863 0.26808 0.0
H1197 H 0.99836 0.91004 0.281 0.0
H1198 H 0.96656 0.89757 0.29349 0.0
H1199 H 0.97212 0.87546 0.39867 0.0
H1200 H 0.99896 0.91338 0.41048 0.0
H1201 H 0.02973 0.91996 0.32608 0.0
C1202 C 0.98815 0.82407 0.30559 0.0
C1203 C 0.97741 0.80119 0.31954 0.0
C1204 C 0.96536 0.80412 0.34614 0.0
C1205 C 0.9656 0.82941 0.3594 0.0
C1206 C 0.97746 0.85141 0.34542 0.0
C1207 C 0.98809 0.84905 0.31882 0.0
C1208 C 1.0032 0.87381 0.30948 0.0
C1209 C 0.033 0.8648 0.30011 0.0
C1210 C 0.98801 0.89104 0.28667 0.0
C1211 C 1.00162 0.88934 0.3358 0.0
C1212 C 0.98591 0.87673 0.35602 0.0
C1213 C 0.98403 0.88575 0.38284 0.0
C1214 C 0.99951 0.9073 0.38942 0.0
C1215 C 0.0171 0.91917 0.36938 0.0
C1216 C 0.0169 0.91096 0.34199 0.0
H1217 H 0.01241 0.70473 0.3643 0.0
H1218 H 0.0601 0.65041 0.30818 0.0
H1219 H 0.06369 0.61293 0.34466 0.0
H1220 H 0.05149 0.68144 0.42526 0.0
H1221 H 0.02152 0.68494 0.44792 0.0
H1222 H 0.02352 0.70712 0.41743 0.0
H1223 H 0.97794 0.69117 0.40253 0.0
H1224 H 0.97619 0.66808 0.43231 0.0
H1225 H 0.97503 0.65461 0.39864 0.0
H1226 H 0.05778 0.57984 0.38665 0.0
H1227 H 0.0489 0.55662 0.43219 0.0
H1228 H 1.01 0.63446 0.46196 0.0
C1229 C 0.02392 0.68503 0.35989 0.0
C1230 C 0.03597 0.6803 0.33351 0.0
C1231 C 0.05089 0.65438 0.32837 0.0
C1232 C 0.0529 0.63299 0.34891 0.0
C1233 C 0.04043 0.63813 0.37469 0.0
C1234 C 0.02685 0.66382 0.38041 0.0
C1235 C 0.01567 0.66428 0.40983 0.0
C1236 C 0.02885 0.68571 0.42606 0.0
C1237 C 0.98435 0.66987 0.41086 0.0
C1238 C 0.02468 0.63477 0.41972 0.0
C1239 C 0.03855 0.6198 0.39907 0.0
C1240 C 0.04733 0.59155 0.40305 0.0
C1241 C 0.04213 0.57847 0.42886 0.0
C1242 C 0.02879 0.59379 0.45042 0.0
C1243 C 0.02016 0.62228 0.44576 0.0
H1244 H 0.28767 0.11688 0.25427 0.0
H1245 H 0.28871 0.02751 0.26931 0.0
H1246 H 0.24863 0.0269 0.24136 0.0
H1247 H 0.21284 0.13115 0.25486 0.0
H1248 H 0.21279 0.15733 0.22743 0.0
H1249 H 0.24152 0.15157 0.24934 0.0
H1250 H 0.27404 0.14328 0.20678 0.0
H1251 H 0.24539 0.14892 0.18476 0.0
H1252 H 0.26771 0.11708 0.18324 0.0
H1253 H 0.20743 0.03505 0.21285 0.0
H1254 H 0.16872 0.05165 0.18405 0.0
H1255 H 0.19345 0.13543 0.18336 0.0
C1256 C 0.2794 0.09723 0.25176 0.0
C1257 C 0.29187 0.07219 0.26431 0.0
C1258 C 0.28011 0.04702 0.2601 0.0
C1259 C 0.25709 0.0464 0.24417 0.0
C1260 C 0.24553 0.07111 0.23197 0.0
C1261 C 0.25622 0.09612 0.23538 0.0
C1262 C 0.23963 0.11944 0.21933 0.0
C1263 C 0.22589 0.14117 0.23891 0.0
C1264 C 0.25778 0.13298 0.19721 0.0
C1265 C 0.21829 0.10353 0.20638 0.0
C1266 C 0.22205 0.07569 0.21436 0.0
C1267 C 0.20448 0.05678 0.20628 0.0
C1268 C 0.18246 0.06643 0.18983 0.0
C1269 C 0.17806 0.09474 0.18087 0.0
C1270 C 0.1965 0.11352 0.18923 0.0
H1271 H 0.75692 0.54631 0.32103 0.0
H1272 H 0.75496 0.45742 0.3372 0.0
H1273 H 0.79139 0.44844 0.30117 0.0
H1274 H 0.76226 0.54457 0.2508 0.0
H1275 H 0.78492 0.5717 0.24579 0.0
H1276 H 0.7621 0.57125 0.27556 0.0
H1277 H 0.80298 0.57119 0.30727 0.0
H1278 H 0.82598 0.57198 0.27754 0.0
H1279 H 0.83141 0.5449 0.30382 0.0
H1280 H 0.82547 0.44929 0.26118 0.0
H1281 H 0.85274 0.45959 0.21883 0.0
H1282 H 0.82999 0.54785 0.22727 0.0
C1283 C 0.76447 0.52489 0.31748 0.0
C1284 C 0.75314 0.50252 0.33208 0.0
C1285 C 0.76342 0.47487 0.32642 0.0
C1286 C 0.78415 0.4696 0.30605 0.0
C1287 C 0.79436 0.4922 0.29164 0.0
C1288 C 0.78488 0.51931 0.29717 0.0
C1289 C 0.79745 0.5399 0.27731 0.0
C1290 C 0.77536 0.55789 0.26142 0.0
C1291 C 0.81553 0.55806 0.29239 0.0
C1292 C 0.81455 0.52009 0.25884 0.0
C1293 C 0.81311 0.49271 0.26793 0.0
C1294 C 0.82689 0.47062 0.25401 0.0
C1295 C 0.84229 0.47664 0.23005 0.0
C1296 C 0.84331 0.50444 0.21998 0.0
C1297 C 0.82943 0.52643 0.23464 0.0
H1298 H 0.28306 0.9909 0.34808 0.0
H1299 H 0.33227 0.03969 0.39511 0.0
H1300 H 0.29529 0.04524 0.4307 0.0
H1301 H 0.22354 0.02905 0.35638 0.0
H1302 H 0.20125 1.00158 0.36104 0.0
H1303 H 0.23348 0.99536 0.34253 0.0
H1304 H 0.2474 0.9535 0.37555 0.0
H1305 H 0.21498 0.9593 0.39416 0.0
H1306 H 0.24638 0.95831 0.41199 0.0
H1307 H 0.24991 0.05348 0.45656 0.0
H1308 H 0.20083 0.06022 0.47178 0.0
H1309 H 0.18128 1.00587 0.40863 0.0
C1310 C 0.28652 1.00136 0.36661 0.0
C1311 C 0.31067 1.01447 0.36907 0.0
C1312 C 0.31404 0.02913 0.39306 0.0
C1313 C 0.29311 0.03247 0.41339 0.0
C1314 C 0.26887 0.0207 0.40976 0.0
C1315 C 0.26569 1.00479 0.38732 0.0
C1316 C 0.23669 0.99662 0.38714 0.0
C1317 C 0.22295 1.00625 0.36018 0.0
C1318 C 0.23634 0.96506 0.39252 0.0
C1319 C 0.22367 1.01245 0.41132 0.0
C1320 C 0.24266 0.02559 0.42464 0.0
C1321 C 0.23494 0.04281 0.4466 0.0
C1322 C 0.20709 0.0467 0.45505 0.0
C1323 C 0.1874 0.03386 0.44118 0.0
C1324 C 0.19598 0.01616 0.41943 0.0
H1325 H 0.75175 0.51336 0.43597 0.0
H1326 H 0.71626 0.59663 0.45379 0.0
H1327 H 0.74046 0.59362 0.4976 0.0
H1328 H 0.75369 0.48428 0.50831 0.0
H1329 H 0.7861 0.46458 0.50126 0.0
H1330 H 0.76176 0.4711 0.47463 0.0
H1331 H 0.79791 0.4936 0.44268 0.0
H1332 H 0.82229 0.48584 0.46871 0.0
H1333 H 0.81557 0.52113 0.4554 0.0
H1334 H 0.77271 0.58338 0.5361 0.0
H1335 H 0.8168 0.57272 0.55815 0.0
H1336 H 0.83092 0.4965 0.51369 0.0
C1337 C 0.74868 0.53085 0.4493 0.0
C1338 C 0.73222 0.55523 0.44164 0.0
C1339 C 0.72907 0.57787 0.45926 0.0
C1340 C 0.74225 0.57606 0.48437 0.0
C1341 C 0.75821 0.55144 0.49142 0.0
C1342 C 0.76167 0.5294 0.47407 0.0
C1343 C 0.78318 0.50711 0.48364 0.0
C1344 C 0.7704 0.48018 0.4925 0.0
C1345 C 0.80608 0.50166 0.46132 0.0
C1346 C 0.79294 0.52095 0.50807 0.0
C1347 C 0.77744 0.54585 0.5131 0.0
C1348 C 0.78482 0.56387 0.53243 0.0
C1349 C 0.80997 0.55765 0.54483 0.0
C1350 C 0.8278 0.53425 0.53689 0.0
C1351 C 0.81788 0.51447 0.5204 0.0
H1352 H 0.31565 0.30038 0.03826 0.0
H1353 H 0.31315 0.32495 0.95178 0.0
H1354 H 0.26944 0.30304 0.94936 0.0
H1355 H 0.28806 0.23548 0.03604 0.0
H1356 H 0.26952 0.24018 0.06843 0.0
H1357 H 0.30087 0.25604 0.06171 0.0
H1358 H 0.27554 0.30448 0.07222 0.0
H1359 H 0.24415 0.28866 0.07886 0.0
H1360 H 0.24563 0.31681 0.05359 0.0
H1361 H 0.22493 0.27634 0.9583 0.0
H1362 H 0.18596 0.2511 0.97745 0.0
H1363 H 0.21888 0.25028 0.05824 0.0
C1364 C 0.30635 0.30115 0.01852 0.0
C1365 C 0.31813 0.31425 0.99511 0.0
C1366 C 0.30473 0.31474 0.96995 0.0
C1367 C 0.27984 0.30248 0.96848 0.0
C1368 C 0.26865 0.29023 0.9924 0.0
C1369 C 0.28169 0.2898 0.0169 0.0
C1370 C 0.26578 0.27682 0.04028 0.0
C1371 C 0.28202 0.25057 0.05231 0.0
C1372 C 0.25728 0.29796 0.06254 0.0
C1373 C 0.2415 0.26962 0.02538 0.0
C1374 C 0.24331 0.27707 0.9977 0.0
C1375 C 0.22334 0.27083 0.97999 0.0
C1376 C 0.20132 0.25657 0.99096 0.0
C1377 C 0.19934 0.24939 0.01936 0.0
C1378 C 0.21962 0.25618 0.03657 0.0
H1379 H 0.27301 0.84465 0.48531 0.0
H1380 H 0.27146 0.85046 0.57387 0.0
H1381 H 0.23329 0.88728 0.57117 0.0
H1382 H 0.25716 0.91908 0.46958 0.0
H1383 H 0.23568 0.91417 0.44155 0.0
H1384 H 0.26306 0.88808 0.45002 0.0
H1385 H 0.22842 0.85096 0.45498 0.0
H1386 H 0.20099 0.87713 0.44677 0.0
H1387 H 0.19906 0.85637 0.47824 0.0
H1388 H 0.19513 0.9234 0.55977 0.0
H1389 H 0.16045 0.95774 0.5406 0.0
H1390 H 0.18457 0.93127 0.4584 0.0
C1391 C 0.26467 0.85368 0.50416 0.0
C1392 C 0.27565 0.84423 0.52995 0.0
C1393 C 0.26382 0.85691 0.5539 0.0
C1394 C 0.24194 0.87799 0.55257 0.0
C1395 C 0.23163 0.88665 0.52708 0.0
C1396 C 0.24258 0.87505 0.50321 0.0
C1397 C 0.22738 0.88866 0.47853 0.0
C1398 C 0.247 0.90337 0.45875 0.0
C1399 C 0.21312 0.86698 0.46375 0.0
C1400 C 0.20638 0.90977 0.4923 0.0
C1401 C 0.20934 0.90794 0.52037 0.0
C1402 C 0.19274 0.92499 0.53782 0.0
C1403 C 0.1729 0.94461 0.52654 0.0
C1404 C 0.16929 0.94767 0.49779 0.0
C1405 C 0.18635 0.92959 0.48044 0.0
H1406 H 0.93218 0.77192 0.55363 0.0
H1407 H 0.91656 0.77257 0.46672 0.0
H1408 H 0.93539 0.72351 0.4651 0.0
H1409 H 0.99695 0.7262 0.54892 0.0
H1410 H 0.9906 0.70843 0.58144 0.0
H1411 H 0.97704 0.74416 0.57578 0.0
H1412 H 0.92834 0.73062 0.5888 0.0
H1413 H 0.94172 0.69487 0.59436 0.0
H1414 H 0.91484 0.70358 0.57065 0.0
H1415 H 0.95134 0.67359 0.47351 0.0
H1416 H 0.96913 0.62653 0.48989 0.0
H1417 H 0.97652 0.65696 0.57118 0.0
C1418 C 0.93307 0.76186 0.53417 0.0
C1419 C 0.92286 0.77634 0.51026 0.0
C1420 C 0.92434 0.76221 0.48529 0.0
C1421 C 0.93493 0.73421 0.48417 0.0
C1422 C 0.94433 0.72048 0.50811 0.0
C1423 C 0.94392 0.73384 0.53259 0.0
C1424 C 0.95531 0.71395 0.55528 0.0
C1425 C 0.98153 0.72377 0.56599 0.0
C1426 C 0.93376 0.71056 0.57865 0.0
C1427 C 0.96152 0.6872 0.53985 0.0
C1428 C 0.95498 0.69162 0.51265 0.0
C1429 C 0.95756 0.67008 0.49442 0.0
C1430 C 0.96767 0.64345 0.50392 0.0
C1431 C 0.97509 0.63835 0.53148 0.0
C1432 C 0.97166 0.66047 0.54982 0.0
H1433 H 0.36808 0.86474 0.49188 0.0
H1434 H 0.42997 0.79496 0.49651 0.0
H1435 H 0.46529 0.82718 0.50235 0.0
H1436 H 0.41541 0.91783 0.45853 0.0
H1437 H 0.39748 0.94489 0.47845 0.0
H1438 H 0.37934 0.91731 0.46664 0.0
H1439 H 0.36268 0.90682 0.51683 0.0
H1440 H 0.38125 0.9338 0.52872 0.0
H1441 H 0.38756 0.89875 0.54277 0.0
H1442 H 0.4911 0.86547 0.51825 0.0
H1443 H 0.50505 0.90622 0.54133 0.0
H1444 H 0.42611 0.95093 0.52578 0.0
C1445 C 0.38936 0.85658 0.49248 0.0
C1446 C 0.3967 0.82772 0.49287 0.0
C1447 C 0.42435 0.81722 0.49517 0.0
C1448 C 0.44446 0.83537 0.4986 0.0
C1449 C 0.43646 0.86387 0.49932 0.0
C1450 C 0.40959 0.87446 0.49572 0.0
C1451 C 0.40539 0.90517 0.5012 0.0
C1452 C 0.39904 0.92231 0.47461 0.0
C1453 C 0.38292 0.91146 0.52372 0.0
C1454 C 0.43337 0.90968 0.51077 0.0
C1455 C 0.45132 0.88592 0.5088 0.0
C1456 C 0.47747 0.88443 0.51917 0.0
C1457 C 0.48522 0.90761 0.5323 0.0
C1458 C 0.46663 0.93164 0.53535 0.0
C1459 C 0.44078 0.93284 0.52368 0.0
H1460 H 0.59062 0.79443 0.75604 0.0
H1461 H 0.58606 0.73804 0.82708 0.0
H1462 H 0.59251 0.69778 0.79705 0.0
H1463 H 0.55319 0.7571 0.71357 0.0
H1464 H 0.57286 0.76363 0.68236 0.0
H1465 H 0.57077 0.78815 0.70932 0.0
H1466 H 0.6236 0.7842 0.71109 0.0
H1467 H 0.62587 0.76032 0.68356 0.0
H1468 H 0.64221 0.75033 0.71529 0.0
H1469 H 0.5939 0.66397 0.75882 0.0
H1470 H 0.59824 0.63869 0.71535 0.0
H1471 H 0.60394 0.71682 0.66949 0.0
C1472 C 0.5923 0.77356 0.76522 0.0
C1473 C 0.58888 0.76913 0.79384 0.0
C1474 C 0.58963 0.74164 0.8052 0.0
C1475 C 0.5929 0.71871 0.7883 0.0
C1476 C 0.59532 0.72368 0.76004 0.0
C1477 C 0.59567 0.75038 0.74858 0.0
C1478 C 0.59762 0.74999 0.71755 0.0
C1479 C 0.57209 0.76565 0.70497 0.0
C1480 C 0.6239 0.76191 0.70621 0.0
C1481 C 0.59858 0.719 0.71341 0.0
C1482 C 0.59664 0.70418 0.73812 0.0
C1483 C 0.5958 0.67532 0.73935 0.0
C1484 C 0.59798 0.66116 0.71466 0.0
C1485 C 0.6014 0.67591 0.68934 0.0
C1486 C 0.6014 0.70515 0.68873 0.0
H1487 H 0.5386 0.89295 0.77626 0.0
H1488 H 0.47012 0.84358 0.77053 0.0
H1489 H 0.45734 0.86947 0.72758 0.0
H1490 H 0.50257 0.9584 0.75087 0.0
H1491 H 0.53209 0.97009 0.73232 0.0
H1492 H 0.53639 0.94741 0.76241 0.0
H1493 H 0.56814 0.9125 0.73415 0.0
H1494 H 0.56377 0.93499 0.70394 0.0
H1495 H 0.55601 0.89931 0.7034 0.0
H1496 H 0.45237 0.89994 0.68369 0.0
H1497 H 0.45311 0.93515 0.64542 0.0
H1498 H 0.52281 0.96782 0.67932 0.0
C1499 C 0.52085 0.88759 0.76604 0.0
C1500 C 0.50547 0.86582 0.77724 0.0
C1501 C 0.48233 0.85994 0.76289 0.0
C1502 C 0.47493 0.87457 0.73821 0.0
C1503 C 0.49053 0.89561 0.72772 0.0
C1504 C 0.51283 0.90244 0.74138 0.0
C1505 C 0.5255 0.92668 0.72595 0.0
C1506 C 0.52405 0.95215 0.74396 0.0
C1507 C 0.55512 0.91784 0.71629 0.0
C1508 C 0.507 0.93228 0.70147 0.0
C1509 C 0.48714 0.91381 0.70285 0.0
C1510 C 0.46786 0.91444 0.68257 0.0
C1511 C 0.46853 0.93449 0.66067 0.0
C1512 C 0.48819 0.95416 0.65883 0.0
C1513 C 0.50771 0.95292 0.67973 0.0
H1514 H 0.48685 0.32884 0.77936 0.0
H1515 H 0.44427 0.29339 0.8498 0.0
H1516 H 0.44481 0.33785 0.87362 0.0
H1517 H 0.53193 0.36056 0.81266 0.0
H1518 H 0.53232 0.39148 0.79068 0.0
H1519 H 0.52315 0.35983 0.77722 0.0
H1520 H 0.47693 0.38464 0.76193 0.0
H1521 H 0.48647 0.41665 0.77466 0.0
H1522 H 0.4547 0.40358 0.7864 0.0
H1523 H 0.45749 0.38311 0.89212 0.0
H1524 H 0.48087 0.42368 0.90374 0.0
H1525 H 0.51415 0.4298 0.82019 0.0
C1526 C 0.47672 0.33088 0.79941 0.0
C1527 C 0.46519 0.30804 0.81273 0.0
C1528 C 0.45271 0.31094 0.83917 0.0
C1529 C 0.45298 0.33609 0.85276 0.0
C1530 C 0.46537 0.35807 0.83931 0.0
C1531 C 0.47659 0.35578 0.81295 0.0
C1532 C 0.49121 0.381 0.80387 0.0
C1533 C 0.52143 0.3727 0.79566 0.0
C1534 C 0.47644 0.39745 0.78033 0.0
C1535 C 0.48826 0.39707 0.82993 0.0
C1536 C 0.4727 0.38396 0.84993 0.0
C1537 C 0.46917 0.39381 0.87641 0.0
C1538 C 0.48249 0.41703 0.88281 0.0
C1539 C 0.49949 0.43003 0.86293 0.0
C1540 C 0.50145 0.42036 0.83592 0.0
H1541 H 0.54322 0.20185 0.85496 0.0
H1542 H 0.49307 0.15774 0.80412 0.0
H1543 H 0.49204 0.11988 0.83958 0.0
H1544 H 0.58223 0.14011 0.8868 0.0
H1545 H 0.5814 0.15489 0.92015 0.0
H1546 H 0.581 0.17731 0.88966 0.0
H1547 H 0.53649 0.20463 0.90802 0.0
H1548 H 0.53674 0.18229 0.9385 0.0
H1549 H 0.5072 0.18612 0.91762 0.0
H1550 H 0.4938 0.08819 0.88096 0.0
H1551 H 0.49647 0.0653 0.92691 0.0
H1552 H 0.54403 0.12982 0.95315 0.0
C1553 C 0.53263 0.18386 0.85113 0.0
C1554 C 0.51858 0.18245 0.82656 0.0
C1555 C 0.50414 0.15908 0.82266 0.0
C1556 C 0.50349 0.13744 0.84267 0.0
C1557 C 0.5171 0.13953 0.86681 0.0
C1558 C 0.5313 0.16215 0.87131 0.0
C1559 C 0.54217 0.16005 0.90015 0.0
C1560 C 0.57357 0.15796 0.89912 0.0
C1561 C 0.52992 0.18474 0.91706 0.0
C1562 C 0.53168 0.13288 0.91107 0.0
C1563 C 0.51751 0.12136 0.89129 0.0
C1564 C 0.505 0.09691 0.89656 0.0
C1565 C 0.50661 0.08404 0.92282 0.0
C1566 C 0.52054 0.09558 0.94374 0.0
C1567 C 0.53355 0.12021 0.93756 0.0
H1568 H 0.78604 0.54563 0.75176 0.0
H1569 H 0.79372 0.63086 0.77265 0.0
H1570 H 0.7542 0.64681 0.74475 0.0
H1571 H 0.76606 0.56139 0.68125 0.0
H1572 H 0.74194 0.53556 0.68157 0.0
H1573 H 0.77101 0.53041 0.70308 0.0
H1574 H 0.73879 0.52442 0.74574 0.0
H1575 H 0.70962 0.52952 0.72438 0.0
H1576 H 0.7117 0.55128 0.75316 0.0
H1577 H 0.7136 0.65428 0.71389 0.0
H1578 H 0.67478 0.65224 0.68369 0.0
H1579 H 0.69113 0.56254 0.68245 0.0
C1580 C 0.77951 0.56768 0.75041 0.0
C1581 C 0.79356 0.58692 0.7646 0.0
C1582 C 0.78382 0.61554 0.76215 0.0
C1583 C 0.7612 0.62488 0.74624 0.0
C1584 C 0.74797 0.60553 0.73257 0.0
C1585 C 0.75669 0.57746 0.73451 0.0
C1586 C 0.73851 0.56112 0.71776 0.0
C1587 C 0.75539 0.54623 0.69454 0.0
C1588 C 0.72378 0.54036 0.73637 0.0
C1589 C 0.71823 0.58432 0.70622 0.0
C1590 C 0.72427 0.60979 0.71499 0.0
C1591 C 0.70882 0.6344 0.70694 0.0
C1592 C 0.68677 0.63308 0.68964 0.0
C1593 C 0.67986 0.60737 0.68037 0.0
C1594 C 0.69588 0.58259 0.68899 0.0
H1595 H 0.25183 0.03258 0.80973 0.0
H1596 H 0.2385 0.9451 0.82025 0.0
H1597 H 0.27461 0.9342 0.78393 0.0
H1598 H 0.25872 0.03433 0.73881 0.0
H1599 H 0.28407 0.05898 0.73688 0.0
H1600 H 0.25964 0.05898 0.76537 0.0
H1601 H 0.29901 0.05296 0.7993 0.0
H1602 H 0.32364 0.05308 0.7709 0.0
H1603 H 0.32524 0.02441 0.79583 0.0
H1604 H 0.30936 0.93415 0.74358 0.0
H1605 H 0.33897 0.9446 0.70277 0.0
H1606 H 0.3287 0.03221 0.72018 0.0
C1607 C 0.25653 1.01093 0.80489 0.0
C1608 C 0.24224 0.9896 0.81795 0.0
C1609 C 0.24913 0.96174 0.81054 0.0
C1610 C 0.26965 0.95542 0.79004 0.0
C1611 C 0.28297 0.97721 0.77741 0.0
C1612 C 0.27662 1.0044 0.78471 0.0
C1613 C 0.29218 0.02451 0.76705 0.0
C1614 C 0.27248 0.04541 0.75108 0.0
C1615 C 0.31115 0.03961 0.78431 0.0
C1616 C 0.30825 1.00445 0.74817 0.0
C1617 C 0.30282 0.97723 0.75452 0.0
C1618 C 0.31397 0.95529 0.73869 0.0
C1619 C 0.33066 0.96138 0.71561 0.0
C1620 C 0.33608 0.98909 0.70875 0.0
C1621 C 0.32513 1.01081 0.72543 0.0
H1622 H 0.76839 0.53515 0.83496 0.0
H1623 H 0.82605 0.4999 0.8944 0.0
H1624 H 0.78924 0.50317 0.93098 0.0
H1625 H 0.73174 0.58413 0.87684 0.0
H1626 H 0.69867 0.57975 0.86401 0.0
H1627 H 0.72898 0.57308 0.84233 0.0
H1628 H 0.71709 0.52292 0.83456 0.0
H1629 H 0.68613 0.52994 0.85512 0.0
H1630 H 0.70986 0.50039 0.86382 0.0
H1631 H 0.74558 0.51149 0.96099 0.0
H1632 H 0.69784 0.5169 0.97996 0.0
H1633 H 0.67005 0.54832 0.90072 0.0
C1634 C 0.77295 0.52733 0.85554 0.0
C1635 C 0.79963 0.51655 0.86194 0.0
C1636 C 0.80537 0.50735 0.88914 0.0
C1637 C 0.78474 0.50958 0.91002 0.0
C1638 C 0.75868 0.52121 0.90321 0.0
C1639 C 0.75267 0.52934 0.87647 0.0
C1640 C 0.72309 0.54064 0.87421 0.0
C1641 C 0.72049 0.57122 0.86373 0.0
C1642 C 0.70816 0.52238 0.85586 0.0
C1643 C 0.71331 0.53793 0.90391 0.0
C1644 C 0.73411 0.52684 0.92044 0.0
C1645 C 0.72927 0.52057 0.94831 0.0
C1646 C 0.70222 0.5242 0.95908 0.0
C1647 C 0.68063 0.53408 0.94199 0.0
C1648 C 0.68646 0.542 0.91444 0.0
H1649 H 0.23256 0.06678 0.95019 0.0
H1650 H 0.26348 0.99629 0.90198 0.0
H1651 H 0.29028 0.9764 0.94061 0.0
H1652 H 0.29396 0.07604 0.98001 0.0
H1653 H 0.2787 0.08531 1.01304 0.0
H1654 H 0.25903 0.09129 0.98292 0.0
H1655 H 0.22221 0.06232 1.00669 0.0
H1656 H 0.24282 0.0551 0.03629 0.0
H1657 H 0.2316 0.02686 0.01811 0.0
H1658 H 0.31584 0.96559 0.98119 0.0
H1659 H 0.35069 0.97271 1.01329 0.0
H1660 H 0.30455 0.04928 0.03823 0.0
C1661 C 0.24537 0.04742 0.94782 0.0
C1662 C 0.24626 0.03307 0.92322 0.0
C1663 C 0.26279 1.00758 0.92076 0.0
C1664 C 0.27753 0.99581 0.94276 0.0
C1665 C 0.27539 1.00967 0.96723 0.0
C1666 C 0.26041 0.03528 0.96975 0.0
C1667 C 0.26493 0.04746 0.99706 0.0
C1668 C 0.27477 0.07673 0.993 0.0
C1669 C 0.23883 0.04796 0.01563 0.0
C1670 C 0.28699 0.02612 1.00797 0.0
C1671 C 0.29119 1.00358 0.99123 0.0
C1672 C 0.31264 0.9829 0.9947 0.0
C1673 C 0.33233 0.98704 1.0134 0.0
C1674 C 0.33075 1.01214 0.02762 0.0
C1675 C 0.30628 0.03013 0.02727 0.0
H1676 H 0.80272 0.81583 0.52118 0.0
H1677 H 0.81228 0.80853 0.43298 0.0
H1678 H 0.76909 0.78558 0.43348 0.0
H1679 H 0.77916 0.75151 0.53726 0.0
H1680 H 0.75549 0.76402 0.56423 0.0
H1681 H 0.78551 0.78156 0.55583 0.0
H1682 H 0.75515 0.82807 0.54777 0.0
H1683 H 0.72501 0.81049 0.55615 0.0
H1684 H 0.72811 0.82963 0.52386 0.0
H1685 H 0.72588 0.76009 0.44525 0.0
H1686 H 0.68893 0.73415 0.46646 0.0
H1687 H 0.70968 0.75881 0.54682 0.0
C1688 C 0.79587 0.80946 0.50184 0.0
C1689 C 0.81114 0.81363 0.47705 0.0
C1690 C 0.80101 0.80541 0.45223 0.0
C1691 C 0.77646 0.79247 0.45236 0.0
C1692 C 0.76211 0.78844 0.47738 0.0
C1693 C 0.77152 0.79694 0.50159 0.0
C1694 C 0.75329 0.78956 0.52601 0.0
C1695 C 0.76932 0.77053 0.54705 0.0
C1696 C 0.73958 0.81601 0.53922 0.0
C1697 C 0.73268 0.77428 0.51211 0.0
C1698 C 0.73767 0.77422 0.48401 0.0
C1699 C 0.72181 0.7602 0.46721 0.0
C1700 C 0.70093 0.74534 0.47951 0.0
C1701 C 0.69621 0.74425 0.50844 0.0
C1702 C 0.71208 0.75956 0.52467 0.0
H1703 H 0.7651 0.36823 0.0593 0.0
H1704 H 0.78416 0.3364 0.97814 0.0
H1705 H 0.74714 0.3685 0.95946 0.0
H1706 H 0.69101 0.37759 0.05222 0.0
H1707 H 0.68598 0.40934 0.07066 0.0
H1708 H 0.71413 0.38386 0.07842 0.0
H1709 H 0.74804 0.42121 0.06936 0.0
H1710 H 0.71998 0.44681 0.06172 0.0
H1711 H 0.74803 0.44068 0.03702 0.0
H1712 H 0.70691 0.40295 0.94887 0.0
H1713 H 0.66849 0.43969 0.94678 0.0
H1714 H 0.6747 0.45241 0.03363 0.0
C1715 C 0.76157 0.36809 0.03758 0.0
C1716 C 0.77796 0.34933 0.02037 0.0
C1717 C 0.77223 0.35012 0.99205 0.0
C1718 C 0.75105 0.36842 0.9811 0.0
C1719 C 0.73524 0.38628 0.99849 0.0
C1720 C 0.74024 0.38649 0.02612 0.0
C1721 C 0.71989 0.4081 0.04 0.0
C1722 C 0.70168 0.39388 0.06161 0.0
C1723 C 0.73489 0.43053 0.05278 0.0
C1724 C 0.70317 0.4202 0.01579 0.0
C1725 C 0.71222 0.40687 0.99216 0.0
C1726 C 0.69974 0.41356 0.96728 0.0
C1727 C 0.67767 0.43447 0.96632 0.0
C1728 C 0.66815 0.44915 0.98995 0.0
C1729 C 0.6813 0.44175 1.01509 0.0
H1730 H 0.41318 0.26117 0.07528 0.0
H1731 H 0.44553 0.29111 0.99657 0.0
H1732 H 0.47151 0.24541 0.99008 0.0
H1733 H 0.47511 0.21556 0.09438 0.0
H1734 H 0.45563 0.18888 0.10992 0.0
H1735 H 0.44174 0.22483 0.10995 0.0
H1736 H 0.39873 0.21212 0.08634 0.0
H1737 H 0.41246 0.1762 0.08626 0.0
H1738 H 0.40271 0.19419 0.05456 0.0
H1739 H 0.49301 0.19612 0.9912 0.0
H1740 H 0.50543 0.14572 0.99801 0.0
H1741 H 0.45717 0.14587 0.07457 0.0
C1742 C 0.4262 0.25828 0.05696 0.0
C1743 C 0.42756 0.27999 0.0366 0.0
C1744 C 0.44428 0.27501 1.01259 0.0
C1745 C 0.4592 0.24908 1.00873 0.0
C1746 C 0.45718 0.22808 0.02899 0.0
C1747 C 0.44102 0.23229 0.05259 0.0
C1748 C 0.44106 0.20554 0.07023 0.0
C1749 C 0.45416 0.20891 0.09776 0.0
C1750 C 0.41202 0.19648 0.07459 0.0
C1751 C 0.45904 0.18549 0.05244 0.0
C1752 C 0.46865 0.19917 0.02907 0.0
C1753 C 0.48565 0.18524 1.00947 0.0
C1754 C 0.49269 0.15654 1.0136 0.0
C1755 C 0.4823 0.14177 0.03685 0.0
C1756 C 0.46545 0.15659 0.05664 0.0
H1757 H 0.88008 0.35843 0.98114 0.0
H1758 H 0.92935 0.28557 1.01134 0.0
H1759 H 0.96498 0.31488 0.02348 0.0
H1760 H 0.94403 0.39843 0.95846 0.0
H1761 H 0.92725 0.43122 0.96843 0.0
H1762 H 0.90799 0.40631 0.95323 0.0
H1763 H 0.87343 0.40525 0.99382 0.0
H1764 H 0.8898 0.43171 1.00944 0.0
H1765 H 0.88533 0.39938 0.02822 0.0
H1766 H 0.98714 0.3523 0.04515 0.0
H1767 H 0.99655 0.39425 0.06916 0.0
H1768 H 0.93301 0.44295 0.02454 0.0
C1769 C 0.89938 0.34863 0.98823 0.0
C1770 C 0.90251 0.31985 0.99454 0.0
C1771 C 0.92721 0.30752 1.00535 0.0
C1772 C 0.94743 0.32409 1.0126 0.0
C1773 C 0.94283 0.35284 1.0082 0.0
C1774 C 0.91985 0.36494 0.99523 0.0
C1775 C 0.91799 0.39635 0.99605 0.0
C1776 C 0.92464 0.40881 0.96733 0.0
C1777 C 0.89 0.40885 1.0076 0.0
C1778 C 0.94073 0.39972 1.01513 0.0
C1779 C 0.95572 0.3746 0.02086 0.0
C1780 C 0.97612 0.37222 0.04008 0.0
C1781 C 0.98118 0.39607 0.05379 0.0
C1782 C 0.96539 0.4217 0.04873 0.0
C1783 C 0.94535 0.42356 0.02877 0.0
loop_
_geom_bond_atom_site_label_1
_geom_bond_atom_site_label_2
_geom_bond_distance
_geom_bond_site_symmetry_2
_ccdc_geom_bond_type
C0 O2 1.247 . S
C0 O4 1.258 . S
C1 O8 1.247 1_455 S
C1 O9 1.258 . S
O2 C0 1.247 . S
O2 Zn3 2.028 . S
Zn3 O2 2.028 . S
Zn3 O7 2.035 . S
Zn3 O9 2.035 . S
Zn3 O10 2.028 . S
O4 C0 1.258 . S
O4 Zn5 2.035 1_455 S
Zn5 O4 2.035 1_655 S
Zn5 O6 2.028 . S
Zn5 O8 2.028 . S
Zn5 O11 2.035 1_655 S
O6 Zn5 2.028 . S
O6 C12 1.247 1_655 S
O7 Zn3 2.035 . S
O7 C12 1.258 . S
O8 C1 1.247 1_655 S
O8 Zn5 2.028 . S
O9 C1 1.258 . S
O9 Zn3 2.035 . S
O10 Zn3 2.028 . S
O10 C13 1.247 . S
O11 Zn5 2.035 1_455 S
O11 C13 1.258 . S
C12 O6 1.247 1_455 S
C12 O7 1.258 . S
C13 O10 1.247 . S
C13 O11 1.258 . S
C14 O16 1.247 . S
C14 O18 1.258 1_455 S
C15 O22 1.247 . S
C15 O23 1.258 1_655 S
O16 C14 1.247 . S
O16 Zn17 2.028 . S
Zn17 O16 2.028 . S
Zn17 O21 2.035 . S
Zn17 O23 2.035 . S
Zn17 O24 2.028 . S
O18 C14 1.258 1_655 S
O18 Zn19 2.035 . S
Zn19 O18 2.035 . S
Zn19 O20 2.028 . S
Zn19 O22 2.028 . S
Zn19 O25 2.035 . S
O20 Zn19 2.028 . S
O20 C26 1.247 . S
O21 Zn17 2.035 . S
O21 C26 1.258 1_455 S
O22 C15 1.247 . S
O22 Zn19 2.028 . S
O23 C15 1.258 1_455 S
O23 Zn17 2.035 . S
O24 Zn17 2.028 . S
O24 C27 1.247 . S
O25 Zn19 2.035 . S
O25 C27 1.258 1_655 S
C26 O20 1.247 . S
C26 O21 1.258 1_655 S
C27 O24 1.247 . S
C27 O25 1.258 1_455 S
C28 O30 1.247 1_545 S
C28 O32 1.258 . S
C29 O36 1.247 1_565 S
C29 O37 1.258 . S
O30 C28 1.247 1_565 S
O30 Zn31 2.028 . S
Zn31 O30 2.028 . S
Zn31 O35 2.035 . S
Zn31 O37 2.035 . S
Zn31 O38 2.028 . S
O32 C28 1.258 . S
O32 Zn33 2.035 . S
Zn33 O32 2.035 . S
Zn33 O34 2.028 . S
Zn33 O36 2.028 . S
Zn33 O39 2.035 . S
O34 Zn33 2.028 . S
O34 C40 1.247 1_545 S
O35 Zn31 2.035 . S
O35 C40 1.258 . S
O36 C29 1.247 1_545 S
O36 Zn33 2.028 . S
O37 C29 1.258 . S
O37 Zn31 2.035 . S
O38 Zn31 2.028 . S
O38 C41 1.247 1_565 S
O39 Zn33 2.035 . S
O39 C41 1.258 . S
C40 O34 1.247 1_565 S
C40 O35 1.258 . S
C41 O38 1.247 1_545 S
C41 O39 1.258 . S
C42 O44 1.247 . S
C42 O46 1.258 . S
C43 O50 1.247 . S
C43 O51 1.258 . S
O44 C42 1.247 . S
O44 Zn45 2.028 . S
Zn45 O44 2.028 . S
Zn45 O49 2.035 . S
Zn45 O51 2.035 . S
Zn45 O52 2.028 . S
O46 C42 1.258 . S
O46 Zn47 2.035 . S
Zn47 O46 2.035 . S
Zn47 O48 2.028 . S
Zn47 O50 2.028 . S
Zn47 O53 2.035 . S
O48 Zn47 2.028 . S
O48 C54 1.247 . S
O49 Zn45 2.035 . S
O49 C54 1.258 . S
O50 C43 1.247 . S
O50 Zn47 2.028 . S
O51 C43 1.258 . S
O51 Zn45 2.035 . S
O52 Zn45 2.028 . S
O52 C55 1.247 . S
O53 Zn47 2.035 . S
O53 C55 1.258 . S
C54 O48 1.247 . S
C54 O49 1.258 . S
C55 O52 1.247 . S
C55 O53 1.258 . S
C56 O58 1.247 1_554 S
C56 O60 1.258 . S
C57 O64 1.247 1_556 S
C57 O65 1.258 . S
O58 C56 1.247 1_556 S
O58 Zn59 2.028 . S
Zn59 O58 2.028 . S
Zn59 O63 2.035 . S
Zn59 O65 2.035 . S
Zn59 O66 2.028 . S
O60 C56 1.258 . S
O60 Zn61 2.035 . S
Zn61 O60 2.035 . S
Zn61 O62 2.028 . S
Zn61 O64 2.028 . S
Zn61 O67 2.035 . S
O62 Zn61 2.028 . S
O62 C68 1.247 1_554 S
O63 Zn59 2.035 . S
O63 C68 1.258 . S
O64 C57 1.247 1_554 S
O64 Zn61 2.028 . S
O65 C57 1.258 . S
O65 Zn59 2.035 . S
O66 Zn59 2.028 . S
O66 C69 1.247 1_556 S
O67 Zn61 2.035 . S
O67 C69 1.258 . S
C68 O62 1.247 1_556 S
C68 O63 1.258 . S
C69 O66 1.247 1_554 S
C69 O67 1.258 . S
C70 O72 1.247 . S
C70 O74 1.258 . S
C71 O78 1.247 . S
C71 O79 1.258 . S
O72 C70 1.247 . S
O72 Zn73 2.028 . S
Zn73 O72 2.028 . S
Zn73 O77 2.035 . S
Zn73 O79 2.035 . S
Zn73 O80 2.028 . S
O74 C70 1.258 . S
O74 Zn75 2.035 . S
Zn75 O74 2.035 . S
Zn75 O76 2.028 . S
Zn75 O78 2.028 . S
Zn75 O81 2.035 . S
O76 Zn75 2.028 . S
O76 C82 1.247 . S
O77 Zn73 2.035 . S
O77 C82 1.258 . S
O78 C71 1.247 . S
O78 Zn75 2.028 . S
O79 C71 1.258 . S
O79 Zn73 2.035 . S
O80 Zn73 2.028 . S
O80 C83 1.247 . S
O81 Zn75 2.035 . S
O81 C83 1.258 . S
C82 O76 1.247 . S
C82 O77 1.258 . S
C83 O80 1.247 . S
C83 O81 1.258 . S
C84 O86 1.247 . S
C84 O88 1.258 . S
C85 O92 1.247 . S
C85 O93 1.258 . S
O86 C84 1.247 . S
O86 Zn87 2.028 . S
Zn87 O86 2.028 . S
Zn87 O91 2.035 . S
Zn87 O93 2.035 . S
Zn87 O94 2.028 . S
O88 C84 1.258 . S
O88 Zn89 2.035 . S
Zn89 O88 2.035 . S
Zn89 O90 2.028 . S
Zn89 O92 2.028 . S
Zn89 O95 2.035 . S
O90 Zn89 2.028 . S
O90 C96 1.247 . S
O91 Zn87 2.035 . S
O91 C96 1.258 . S
O92 C85 1.247 . S
O92 Zn89 2.028 . S
O93 C85 1.258 . S
O93 Zn87 2.035 . S
O94 Zn87 2.028 . S
O94 C97 1.247 . S
O95 Zn89 2.035 . S
O95 C97 1.258 . S
C96 O90 1.247 . S
C96 O91 1.258 . S
C97 O94 1.247 . S
C97 O95 1.258 . S
C98 O100 1.247 . S
C98 O102 1.258 . S
C99 O106 1.247 . S
C99 O107 1.258 . S
O100 C98 1.247 . S
O100 Zn101 2.028 . S
Zn101 O100 2.028 . S
Zn101 O105 2.035 . S
Zn101 O107 2.035 . S
Zn101 O108 2.028 . S
O102 C98 1.258 . S
O102 Zn103 2.035 . S
Zn103 O102 2.035 . S
Zn103 O104 2.028 . S
Zn103 O106 2.028 . S
Zn103 O109 2.035 . S
O104 Zn103 2.028 . S
O104 C110 1.247 . S
O105 Zn101 2.035 . S
O105 C110 1.258 . S
O106 C99 1.247 . S
O106 Zn103 2.028 . S
O107 C99 1.258 . S
O107 Zn101 2.035 . S
O108 Zn101 2.028 . S
O108 C111 1.247 . S
O109 Zn103 2.035 . S
O109 C111 1.258 . S
C110 O104 1.247 . S
C110 O105 1.258 . S
C111 O108 1.247 . S
C111 O109 1.258 . S
C112 O114 1.247 . S
C112 O116 1.258 . S
C113 O120 1.247 . S
C113 O121 1.258 . S
O114 C112 1.247 . S
O114 Zn115 2.028 . S
Zn115 O114 2.028 . S
Zn115 O119 2.035 . S
Zn115 O121 2.035 . S
Zn115 O122 2.028 . S
O116 C112 1.258 . S
O116 Zn117 2.035 . S
Zn117 O116 2.035 . S
Zn117 O118 2.028 . S
Zn117 O120 2.028 . S
Zn117 O123 2.035 . S
O118 Zn117 2.028 . S
O118 C124 1.247 . S
O119 Zn115 2.035 . S
O119 C124 1.258 . S
O120 C113 1.247 . S
O120 Zn117 2.028 . S
O121 C113 1.258 . S
O121 Zn115 2.035 . S
O122 Zn115 2.028 . S
O122 C125 1.247 . S
O123 Zn117 2.035 . S
O123 C125 1.258 . S
C124 O118 1.247 . S
C124 O119 1.258 . S
C125 O122 1.247 . S
C125 O123 1.258 . S
C126 O128 1.247 . S
C126 O130 1.258 . S
C127 O134 1.247 . S
C127 O135 1.258 . S
O128 C126 1.247 . S
O128 Zn129 2.028 . S
Zn129 O128 2.028 . S
Zn129 O133 2.035 . S
Zn129 O135 2.035 . S
Zn129 O136 2.028 . S
O130 C126 1.258 . S
O130 Zn131 2.035 . S
Zn131 O130 2.035 . S
Zn131 O132 2.028 . S
Zn131 O134 2.028 . S
Zn131 O137 2.035 . S
O132 Zn131 2.028 . S
O132 C138 1.247 . S
O133 Zn129 2.035 . S
O133 C138 1.258 . S
O134 C127 1.247 . S
O134 Zn131 2.028 . S
O135 C127 1.258 . S
O135 Zn129 2.035 . S
O136 Zn129 2.028 . S
O136 C139 1.247 . S
O137 Zn131 2.035 . S
O137 C139 1.258 . S
C138 O132 1.247 . S
C138 O133 1.258 . S
C139 O136 1.247 . S
C139 O137 1.258 . S
C140 O142 1.247 . S
C140 O144 1.258 1_565 S
C141 O148 1.247 . S
C141 O149 1.258 1_545 S
O142 C140 1.247 . S
O142 Zn143 2.028 . S
Zn143 O142 2.028 . S
Zn143 O147 2.035 . S
Zn143 O149 2.035 . S
Zn143 O150 2.028 . S
O144 C140 1.258 1_545 S
O144 Zn145 2.035 . S
Zn145 O144 2.035 . S
Zn145 O146 2.028 . S
Zn145 O148 2.028 . S
Zn145 O151 2.035 . S
O146 Zn145 2.028 . S
O146 C152 1.247 . S
O147 Zn143 2.035 . S
O147 C152 1.258 1_565 S
O148 C141 1.247 . S
O148 Zn145 2.028 . S
O149 C141 1.258 1_565 S
O149 Zn143 2.035 . S
O150 Zn143 2.028 . S
O150 C153 1.247 . S
O151 Zn145 2.035 . S
O151 C153 1.258 1_545 S
C152 O146 1.247 . S
C152 O147 1.258 1_545 S
C153 O150 1.247 . S
C153 O151 1.258 1_565 S
C154 O156 1.247 1_556 S
C154 O158 1.258 . S
C155 O162 1.247 1_554 S
C155 O163 1.258 . S
O156 C154 1.247 1_554 S
O156 Zn157 2.028 . S
Zn157 O156 2.028 . S
Zn157 O161 2.035 . S
Zn157 O163 2.035 . S
Zn157 O164 2.028 . S
O158 C154 1.258 . S
O158 Zn159 2.035 . S
Zn159 O158 2.035 . S
Zn159 O160 2.028 . S
Zn159 O162 2.028 . S
Zn159 O165 2.035 . S
O160 Zn159 2.028 . S
O160 C166 1.247 1_556 S
O161 Zn157 2.035 . S
O161 C166 1.258 . S
O162 C155 1.247 1_556 S
O162 Zn159 2.028 . S
O163 C155 1.258 . S
O163 Zn157 2.035 . S
O164 Zn157 2.028 . S
O164 C167 1.247 1_554 S
O165 Zn159 2.035 . S
O165 C167 1.258 . S
C166 O160 1.247 1_554 S
C166 O161 1.258 . S
C167 O164 1.247 1_556 S
C167 O165 1.258 . S
C168 Eu169 2.835 . S
C168 C170 1.500 1_545 S
C168 O188 1.257 . S
C168 O189 1.260 . S
Eu169 C168 2.835 . S
Eu169 O188 2.473 . S
Eu169 O189 2.480 . S
Eu169 O190 2.430 . S
Eu169 O191 2.670 . S
Eu169 O192 2.394 . S
Eu169 O197 2.355 . S
Eu169 O199 2.374 . S
C170 C168 1.500 1_565 S
C170 C171 1.377 . S
C170 C175 1.377 . S
C171 C170 1.377 . S
C171 C172 1.395 . S
C171 H200 0.931 . S
C172 C171 1.395 . S
C172 C173 1.383 . S
C172 H201 0.931 . S
C173 C172 1.383 . S
C173 C174 1.394 . S
C174 C173 1.394 . S
C174 C175 1.378 . S
C174 H202 0.931 . S
C175 C170 1.377 . S
C175 C174 1.378 . S
C175 H203 0.931 1_565 S
C176 O190 1.259 . S
C176 O191 1.270 . S
C177 O192 1.251 . S
C177 O193 1.251 . S
C178 Eu179 2.835 . S
C178 C180 1.500 . S
C178 O194 1.257 . S
C178 O195 1.260 . S
Eu179 C178 2.835 . S
Eu179 O191 2.355 . S
Eu179 O193 2.374 . S
Eu179 O194 2.473 . S
Eu179 O195 2.480 . S
Eu179 O196 2.430 . S
Eu179 O197 2.670 . S
Eu179 O198 2.394 . S
C180 C178 1.500 . S
C180 C181 1.377 . S
C180 C185 1.377 . S
C181 C180 1.377 . S
C181 C182 1.395 . S
C181 H204 0.931 . S
C182 C181 1.395 . S
C182 C183 1.383 . S
C182 H205 0.931 . S
C183 C182 1.383 . S
C183 C184 1.394 . S
C184 C183 1.394 . S
C184 C185 1.378 . S
C184 H206 0.931 1_554 S
C185 C180 1.377 . S
C185 C184 1.378 . S
C185 H207 0.931 . S
C186 O196 1.259 . S
C186 O197 1.270 . S
C187 O198 1.251 . S
C187 O199 1.251 . S
O188 C168 1.257 . S
O188 Eu169 2.473 . S
O189 C168 1.260 . S
O189 Eu169 2.480 . S
O190 Eu169 2.430 . S
O190 C176 1.259 . S
O191 Eu169 2.670 . S
O191 C176 1.270 . S
O191 Eu179 2.355 . S
O192 Eu169 2.394 . S
O192 C177 1.251 . S
O193 C177 1.251 . S
O193 Eu179 2.374 . S
O194 C178 1.257 . S
O194 Eu179 2.473 . S
O195 C178 1.260 . S
O195 Eu179 2.480 . S
O196 Eu179 2.430 . S
O196 C186 1.259 . S
O197 Eu169 2.355 . S
O197 Eu179 2.670 . S
O197 C186 1.270 . S
O198 Eu179 2.394 . S
O198 C187 1.251 . S
O199 Eu169 2.374 . S
O199 C187 1.251 . S
H200 C171 0.931 . S
H201 C172 0.931 . S
H202 C174 0.931 . S
H203 C175 0.931 1_545 S
H204 C181 0.931 . S
H205 C182 0.931 . S
H206 C184 0.931 1_556 S
H207 C185 0.931 . S
C208 Eu209 2.835 . S
C208 C210 1.500 . S
C208 O228 1.257 . S
C208 O229 1.260 . S
Eu209 C208 2.835 . S
Eu209 O228 2.473 . S
Eu209 O229 2.480 . S
Eu209 O230 2.430 . S
Eu209 O231 2.670 . S
Eu209 O232 2.394 . S
Eu209 O237 2.355 . S
Eu209 O239 2.374 . S
C210 C208 1.500 . S
C210 C211 1.377 . S
C210 C215 1.377 . S
C211 C210 1.377 . S
C211 C212 1.395 . S
C211 H240 0.931 . S
C212 C211 1.395 . S
C212 C213 1.383 . S
C212 H241 0.931 . S
C213 C212 1.383 . S
C213 C214 1.394 . S
C214 C213 1.394 . S
C214 C215 1.378 . S
C214 H242 0.931 . S
C215 C210 1.377 . S
C215 C214 1.378 . S
C215 H243 0.931 . S
C216 O230 1.259 . S
C216 O231 1.270 . S
C217 O232 1.251 . S
C217 O233 1.251 1_655 S
C218 Eu219 2.835 . S
C218 C220 1.500 . S
C218 O234 1.257 . S
C218 O235 1.260 . S
Eu219 C218 2.835 . S
Eu219 O231 2.355 1_455 S
Eu219 O233 2.374 . S
Eu219 O234 2.473 . S
Eu219 O235 2.480 . S
Eu219 O236 2.430 1_455 S
Eu219 O237 2.670 1_455 S
Eu219 O238 2.394 1_455 S
C220 C218 1.500 . S
C220 C221 1.377 . S
C220 C225 1.377 . S
C221 C220 1.377 . S
C221 C222 1.395 1_554 S
C221 H244 0.922 1_554 S
C222 C221 1.395 1_556 S
C222 C223 1.383 1_556 S
C222 H245 0.931 . S
C223 C222 1.383 1_554 S
C223 C224 1.394 . S
C224 C223 1.394 . S
C224 C225 1.378 . S
C224 H246 0.931 . S
C225 C220 1.377 . S
C225 C224 1.378 . S
C225 H247 0.931 . S
C226 O236 1.259 . S
C226 O237 1.270 . S
C227 O238 1.251 . S
C227 O239 1.251 . S
O228 C208 1.257 . S
O228 Eu209 2.473 . S
O229 C208 1.260 . S
O229 Eu209 2.480 . S
O230 Eu209 2.430 . S
O230 C216 1.259 . S
O231 Eu209 2.670 . S
O231 C216 1.270 . S
O231 Eu219 2.355 1_655 S
O232 Eu209 2.394 . S
O232 C217 1.251 . S
O233 C217 1.251 1_455 S
O233 Eu219 2.374 . S
O234 C218 1.257 . S
O234 Eu219 2.473 . S
O235 C218 1.260 . S
O235 Eu219 2.480 . S
O236 Eu219 2.430 1_655 S
O236 C226 1.259 . S
O237 Eu209 2.355 . S
O237 Eu219 2.670 1_655 S
O237 C226 1.270 . S
O238 Eu219 2.394 1_655 S
O238 C227 1.251 . S
O239 Eu209 2.374 . S
O239 C227 1.251 . S
H240 C211 0.931 . S
H241 C212 0.931 . S
H242 C214 0.931 . S
H243 C215 0.931 . S
H244 C221 0.922 1_556 S
H245 C222 0.931 . S
H246 C224 0.931 . S
H247 C225 0.931 . S
C248 Eu249 2.835 . S
C248 C250 1.500 . S
C248 O268 1.257 . S
C248 O269 1.260 . S
Eu249 C248 2.835 . S
Eu249 O268 2.473 . S
Eu249 O269 2.480 . S
Eu249 O270 2.430 1_545 S
Eu249 O271 2.670 1_545 S
Eu249 O272 2.394 1_545 S
Eu249 O277 2.350 1_545 S
Eu249 O279 2.374 . S
C250 C248 1.500 . S
C250 C251 1.377 . S
C250 C255 1.377 . S
C251 C250 1.377 . S
C251 C252 1.395 . S
C251 H280 0.931 . S
C252 C251 1.395 . S
C252 C253 1.383 . S
C252 H281 0.931 . S
C253 C252 1.383 . S
C253 C254 1.394 . S
C254 C253 1.394 . S
C254 C255 1.378 . S
C254 H282 0.931 . S
C255 C250 1.377 . S
C255 C254 1.378 . S
C255 H283 0.931 . S
C256 O270 1.259 . S
C256 O271 1.270 . S
C257 O272 1.251 . S
C257 O273 1.251 . S
C258 Eu259 2.835 . S
C258 C260 1.500 . S
C258 O274 1.257 . S
C258 O275 1.260 . S
Eu259 C258 2.835 . S
Eu259 O271 2.355 . S
Eu259 O273 2.374 . S
Eu259 O274 2.473 . S
Eu259 O275 2.480 . S
Eu259 O276 2.430 . S
Eu259 O277 2.687 . S
Eu259 O278 2.394 1_565 S
C260 C258 1.500 . S
C260 C261 1.377 . S
C260 C265 1.377 . S
C261 C260 1.377 . S
C261 C262 1.395 . S
C261 H284 0.931 . S
C262 C261 1.395 . S
C262 C263 1.383 . S
C262 H285 0.931 . S
C263 C262 1.383 . S
C263 C264 1.394 . S
C264 C263 1.394 . S
C264 C265 1.378 . S
C264 H286 0.931 1_455 S
C265 C260 1.377 . S
C265 C264 1.378 . S
C265 H287 0.931 . S
C266 O276 1.259 1_545 S
C266 O277 1.265 1_545 S
C267 O278 1.251 . S
C267 O279 1.251 . S
O268 C248 1.257 . S
O268 Eu249 2.473 . S
O269 C248 1.260 . S
O269 Eu249 2.480 . S
O270 Eu249 2.430 1_565 S
O270 C256 1.259 . S
O271 Eu249 2.670 1_565 S
O271 C256 1.270 . S
O271 Eu259 2.355 . S
O272 Eu249 2.394 1_565 S
O272 C257 1.251 . S
O273 C257 1.251 . S
O273 Eu259 2.374 . S
O274 C258 1.257 . S
O274 Eu259 2.473 . S
O275 C258 1.260 . S
O275 Eu259 2.480 . S
O276 Eu259 2.430 . S
O276 C266 1.259 1_565 S
O277 Eu249 2.350 1_565 S
O277 Eu259 2.687 . S
O277 C266 1.265 1_565 S
O278 Eu259 2.394 1_545 S
O278 C267 1.251 . S
O279 Eu249 2.374 . S
O279 C267 1.251 . S
H280 C251 0.931 . S
H281 C252 0.931 . S
H282 C254 0.931 . S
H283 C255 0.931 . S
H284 C261 0.931 . S
H285 C262 0.931 . S
H286 C264 0.931 1_655 S
H287 C265 0.931 . S
C288 Eu289 2.835 . S
C288 C290 1.500 . S
C288 O308 1.257 . S
C288 O309 1.260 . S
Eu289 C288 2.835 . S
Eu289 O308 2.473 . S
Eu289 O309 2.480 . S
Eu289 O310 2.430 . S
Eu289 O311 2.670 . S
Eu289 O312 2.394 . S
Eu289 O317 2.355 1_455 S
Eu289 O319 2.374 1_455 S
C290 C288 1.500 . S
C290 C291 1.377 . S
C290 C295 1.377 . S
C291 C290 1.377 . S
C291 C292 1.395 . S
C291 H320 0.931 . S
C292 C291 1.395 . S
C292 C293 1.383 . S
C292 H321 0.931 . S
C293 C292 1.383 . S
C293 C294 1.394 . S
C294 C293 1.394 . S
C294 C295 1.378 . S
C294 H322 0.931 . S
C295 C290 1.377 . S
C295 C294 1.378 . S
C295 H323 0.931 . S
C296 O310 1.259 . S
C296 O311 1.270 . S
C297 O312 1.251 . S
C297 O313 1.251 . S
C298 Eu299 2.835 . S
C298 C300 1.500 . S
C298 O314 1.257 . S
C298 O315 1.260 . S
Eu299 C298 2.835 . S
Eu299 O311 2.355 1_655 S
Eu299 O313 2.374 1_655 S
Eu299 O314 2.473 . S
Eu299 O315 2.480 . S
Eu299 O316 2.430 . S
Eu299 O317 2.670 . S
Eu299 O318 2.394 . S
C300 C298 1.500 . S
C300 C301 1.377 . S
C300 C305 1.377 . S
C301 C300 1.377 . S
C301 C302 1.395 . S
C301 H324 0.931 . S
C302 C301 1.395 . S
C302 C303 1.383 . S
C302 H325 0.931 . S
C303 C302 1.383 . S
C303 C304 1.394 . S
C304 C303 1.394 . S
C304 C305 1.378 . S
C304 H326 0.931 . S
C305 C300 1.377 . S
C305 C304 1.378 . S
C305 H327 0.931 . S
C306 O316 1.259 . S
C306 O317 1.270 . S
C307 O318 1.251 . S
C307 O319 1.251 . S
O308 C288 1.257 . S
O308 Eu289 2.473 . S
O309 C288 1.260 . S
O309 Eu289 2.480 . S
O310 Eu289 2.430 . S
O310 C296 1.259 . S
O311 Eu289 2.670 . S
O311 C296 1.270 . S
O311 Eu299 2.355 1_455 S
O312 Eu289 2.394 . S
O312 C297 1.251 . S
O313 C297 1.251 . S
O313 Eu299 2.374 1_455 S
O314 C298 1.257 . S
O314 Eu299 2.473 . S
O315 C298 1.260 . S
O315 Eu299 2.480 . S
O316 Eu299 2.430 . S
O316 C306 1.259 . S
O317 Eu289 2.355 1_655 S
O317 Eu299 2.670 . S
O317 C306 1.270 . S
O318 Eu299 2.394 . S
O318 C307 1.251 . S
O319 Eu289 2.374 1_655 S
O319 C307 1.251 . S
H320 C291 0.931 . S
H321 C292 0.931 . S
H322 C294 0.931 . S
H323 C295 0.931 . S
H324 C301 0.931 . S
H325 C302 0.931 . S
H326 C304 0.931 . S
H327 C305 0.931 . S
C328 Eu329 2.835 1_545 S
C328 C330 1.500 . S
C328 O348 1.257 . S
C328 O349 1.260 . S
Eu329 C328 2.835 1_565 S
Eu329 O348 2.473 1_565 S
Eu329 O349 2.480 1_565 S
Eu329 O350 2.430 . S
Eu329 O351 2.670 . S
Eu329 O352 2.394 1_565 S
Eu329 O357 2.355 1_565 S
Eu329 O359 2.374 . S
C330 C328 1.500 . S
C330 C331 1.377 . S
C330 C335 1.377 . S
C331 C330 1.377 . S
C331 C332 1.395 . S
C331 H360 0.931 . S
C332 C331 1.395 . S
C332 C333 1.383 . S
C332 H361 0.931 . S
C333 C332 1.383 . S
C333 C334 1.394 . S
C334 C333 1.394 . S
C334 C335 1.378 . S
C334 H362 0.931 . S
C335 C330 1.377 . S
C335 C334 1.378 . S
C335 H363 0.931 . S
C336 O350 1.259 . S
C336 O351 1.270 . S
C337 O352 1.251 . S
C337 O353 1.251 . S
C338 Eu339 2.835 1_565 S
C338 C340 1.500 . S
C338 O354 1.257 . S
C338 O355 1.260 . S
Eu339 C338 2.835 1_545 S
Eu339 O351 2.355 1_545 S
Eu339 O353 2.374 . S
Eu339 O354 2.473 1_545 S
Eu339 O355 2.480 1_545 S
Eu339 O356 2.430 . S
Eu339 O357 2.670 . S
Eu339 O358 2.394 1_545 S
C340 C338 1.500 . S
C340 C341 1.377 . S
C340 C345 1.377 . S
C341 C340 1.377 . S
C341 C342 1.395 . S
C341 H364 0.931 . S
C342 C341 1.395 . S
C342 C343 1.383 . S
C342 H365 0.931 . S
C343 C342 1.383 . S
C343 C344 1.394 . S
C344 C343 1.394 . S
C344 C345 1.378 . S
C344 H366 0.931 . S
C345 C340 1.377 . S
C345 C344 1.378 . S
C345 H367 0.931 . S
C346 O356 1.259 . S
C346 O357 1.270 . S
C347 O358 1.251 . S
C347 O359 1.251 . S
O348 C328 1.257 . S
O348 Eu329 2.473 1_545 S
O349 C328 1.260 . S
O349 Eu329 2.480 1_545 S
O350 Eu329 2.430 . S
O350 C336 1.259 . S
O351 Eu329 2.670 . S
O351 C336 1.270 . S
O351 Eu339 2.355 1_565 S
O352 Eu329 2.394 1_545 S
O352 C337 1.251 . S
O353 C337 1.251 . S
O353 Eu339 2.374 . S
O354 C338 1.257 . S
O354 Eu339 2.473 1_565 S
O355 C338 1.260 . S
O355 Eu339 2.480 1_565 S
O356 Eu339 2.430 . S
O356 C346 1.259 . S
O357 Eu329 2.355 1_545 S
O357 Eu339 2.670 . S
O357 C346 1.270 . S
O358 Eu339 2.394 1_565 S
O358 C347 1.251 . S
O359 Eu329 2.374 . S
O359 C347 1.251 . S
H360 C331 0.931 . S
H361 C332 0.931 . S
H362 C334 0.931 . S
H363 C335 0.931 . S
H364 C341 0.931 . S
H365 C342 0.931 . S
H366 C344 0.931 . S
H367 C345 0.931 . S
C368 Eu369 2.835 . S
C368 C370 1.500 . S
C368 O388 1.257 . S
C368 O389 1.260 . S
Eu369 C368 2.835 . S
Eu369 O388 2.473 . S
Eu369 O389 2.480 . S
Eu369 O390 2.430 . S
Eu369 O391 2.670 . S
Eu369 O392 2.394 . S
Eu369 O397 2.355 . S
Eu369 O399 2.374 . S
C370 C368 1.500 . S
C370 C371 1.377 . S
C370 C375 1.377 . S
C371 C370 1.377 . S
C371 C372 1.395 . S
C371 H400 0.931 . S
C372 C371 1.395 . S
C372 C373 1.383 . S
C372 H401 0.931 . S
C373 C372 1.383 . S
C373 C374 1.394 . S
C374 C373 1.394 . S
C374 C375 1.378 . S
C374 H402 0.931 . S
C375 C370 1.377 . S
C375 C374 1.378 . S
C375 H403 0.931 . S
C376 O390 1.259 . S
C376 O391 1.270 . S
C377 O392 1.251 . S
C377 O393 1.251 . S
C378 Eu379 2.835 . S
C378 C380 1.500 . S
C378 O394 1.257 . S
C378 O395 1.260 . S
Eu379 C378 2.835 . S
Eu379 O391 2.355 . S
Eu379 O393 2.374 . S
Eu379 O394 2.473 . S
Eu379 O395 2.480 . S
Eu379 O396 2.430 . S
Eu379 O397 2.670 . S
Eu379 O398 2.394 . S
C380 C378 1.500 . S
C380 C381 1.377 . S
C380 C385 1.377 . S
C381 C380 1.377 . S
C381 C382 1.395 . S
C381 H404 0.931 . S
C382 C381 1.395 . S
C382 C383 1.383 . S
C382 H405 0.931 . S
C383 C382 1.383 . S
C383 C384 1.394 . S
C384 C383 1.394 . S
C384 C385 1.378 . S
C384 H406 0.931 . S
C385 C380 1.377 . S
C385 C384 1.378 . S
C385 H407 0.931 . S
C386 O396 1.259 . S
C386 O397 1.270 . S
C387 O398 1.251 . S
C387 O399 1.251 . S
O388 C368 1.257 . S
O388 Eu369 2.473 . S
O389 C368 1.260 . S
O389 Eu369 2.480 . S
O390 Eu369 2.430 . S
O390 C376 1.259 . S
O391 Eu369 2.670 . S
O391 C376 1.270 . S
O391 Eu379 2.355 . S
O392 Eu369 2.394 . S
O392 C377 1.251 . S
O393 C377 1.251 . S
O393 Eu379 2.374 . S
O394 C378 1.257 . S
O394 Eu379 2.473 . S
O395 C378 1.260 . S
O395 Eu379 2.480 . S
O396 Eu379 2.430 . S
O396 C386 1.259 . S
O397 Eu369 2.355 . S
O397 Eu379 2.670 . S
O397 C386 1.270 . S
O398 Eu379 2.394 . S
O398 C387 1.251 . S
O399 Eu369 2.374 . S
O399 C387 1.251 . S
H400 C371 0.931 . S
H401 C372 0.931 . S
H402 C374 0.931 . S
H403 C375 0.931 . S
H404 C381 0.931 . S
H405 C382 0.931 . S
H406 C384 0.931 . S
H407 C385 0.931 . S
C408 Eu409 2.835 . S
C408 C410 1.500 . S
C408 O428 1.257 . S
C408 O429 1.260 . S
Eu409 C408 2.835 . S
Eu409 O428 2.473 . S
Eu409 O429 2.480 . S
Eu409 O430 2.430 . S
Eu409 O431 2.670 1_554 S
Eu409 O432 2.394 . S
Eu409 O437 2.355 1_554 S
Eu409 O439 2.374 1_554 S
C410 C408 1.500 . S
C410 C411 1.377 . S
C410 C415 1.377 . S
C411 C410 1.377 . S
C411 C412 1.395 . S
C411 H440 0.931 . S
C412 C411 1.395 . S
C412 C413 1.383 . S
C412 H441 0.931 . S
C413 C412 1.383 . S
C413 C414 1.394 . S
C414 C413 1.394 . S
C414 C415 1.378 . S
C414 H442 0.931 . S
C415 C410 1.377 . S
C415 C414 1.378 . S
C415 H443 0.931 . S
C416 O430 1.259 . S
C416 O431 1.270 1_554 S
C417 O432 1.251 . S
C417 O433 1.251 1_554 S
C418 Eu419 2.835 . S
C418 C420 1.500 . S
C418 O434 1.257 . S
C418 O435 1.260 . S
Eu419 C418 2.835 . S
Eu419 O431 2.355 . S
Eu419 O433 2.374 . S
Eu419 O434 2.473 . S
Eu419 O435 2.480 . S
Eu419 O436 2.430 . S
Eu419 O437 2.670 . S
Eu419 O438 2.394 . S
C420 C418 1.500 . S
C420 C421 1.377 . S
C420 C425 1.377 . S
C421 C420 1.377 . S
C421 C422 1.395 . S
C421 H444 0.931 . S
C422 C421 1.395 . S
C422 C423 1.383 . S
C422 H445 0.931 . S
C423 C422 1.383 . S
C423 C424 1.394 . S
C424 C423 1.394 . S
C424 C425 1.378 . S
C424 H446 0.931 . S
C425 C420 1.377 . S
C425 C424 1.378 . S
C425 H447 0.931 . S
C426 O436 1.259 . S
C426 O437 1.270 . S
C427 O438 1.251 . S
C427 O439 1.251 . S
O428 C408 1.257 . S
O428 Eu409 2.473 . S
O429 C408 1.260 . S
O429 Eu409 2.480 . S
O430 Eu409 2.430 . S
O430 C416 1.259 . S
O431 Eu409 2.670 1_556 S
O431 C416 1.270 1_556 S
O431 Eu419 2.355 . S
O432 Eu409 2.394 . S
O432 C417 1.251 . S
O433 C417 1.251 1_556 S
O433 Eu419 2.374 . S
O434 C418 1.257 . S
O434 Eu419 2.473 . S
O435 C418 1.260 . S
O435 Eu419 2.480 . S
O436 Eu419 2.430 . S
O436 C426 1.259 . S
O437 Eu409 2.355 1_556 S
O437 Eu419 2.670 . S
O437 C426 1.270 . S
O438 Eu419 2.394 . S
O438 C427 1.251 . S
O439 Eu409 2.374 1_556 S
O439 C427 1.251 . S
H440 C411 0.931 . S
H441 C412 0.931 . S
H442 C414 0.931 . S
H443 C415 0.931 . S
H444 C421 0.931 . S
H445 C422 0.931 . S
H446 C424 0.931 . S
H447 C425 0.931 . S
C448 Eu449 2.835 . S
C448 C450 1.500 . S
C448 O468 1.257 . S
C448 O469 1.260 . S
Eu449 C448 2.835 . S
Eu449 O468 2.473 . S
Eu449 O469 2.480 . S
Eu449 O470 2.430 1_554 S
Eu449 O471 2.670 1_554 S
Eu449 O472 2.394 1_554 S
Eu449 O477 2.355 . S
Eu449 O479 2.374 . S
C450 C448 1.500 . S
C450 C451 1.378 . S
C450 C455 1.377 . S
C451 C450 1.378 . S
C451 C452 1.395 1_554 S
C451 H480 0.929 1_554 S
C452 C451 1.395 1_556 S
C452 C453 1.385 . S
C452 H481 0.931 . S
C453 C452 1.385 . S
C453 C454 1.394 1_556 S
C454 C453 1.394 1_554 S
C454 C455 1.379 . S
C454 H482 0.931 . S
C455 C450 1.377 . S
C455 C454 1.379 . S
C455 H483 0.931 . S
C456 O470 1.259 . S
C456 O471 1.270 . S
C457 O472 1.251 . S
C457 O473 1.251 . S
C458 Eu459 2.835 . S
C458 C460 1.500 . S
C458 O474 1.257 . S
C458 O475 1.260 . S
Eu459 C458 2.835 . S
Eu459 O471 2.355 . S
Eu459 O473 2.374 . S
Eu459 O474 2.473 . S
Eu459 O475 2.480 . S
Eu459 O476 2.430 1_556 S
Eu459 O477 2.670 1_556 S
Eu459 O478 2.394 1_556 S
C460 C458 1.500 . S
C460 C461 1.379 . S
C460 C465 1.377 1_545 S
C461 C460 1.379 . S
C461 C462 1.397 1_556 S
C461 H484 0.929 1_556 S
C462 C461 1.397 1_554 S
C462 C463 1.383 1_545 S
C462 H485 0.932 . S
C463 C462 1.383 1_565 S
C463 C464 1.393 1_554 S
C464 C463 1.393 1_556 S
C464 C465 1.378 . S
C464 H486 0.931 . S
C465 C460 1.377 1_565 S
C465 C464 1.378 . S
C465 H487 0.931 . S
C466 O476 1.259 . S
C466 O477 1.270 . S
C467 O478 1.251 . S
C467 O479 1.251 . S
O468 C448 1.257 . S
O468 Eu449 2.473 . S
O469 C448 1.260 . S
O469 Eu449 2.480 . S
O470 Eu449 2.430 1_556 S
O470 C456 1.259 . S
O471 Eu449 2.670 1_556 S
O471 C456 1.270 . S
O471 Eu459 2.355 . S
O472 Eu449 2.394 1_556 S
O472 C457 1.251 . S
O473 C457 1.251 . S
O473 Eu459 2.374 . S
O474 C458 1.257 . S
O474 Eu459 2.473 . S
O475 C458 1.260 . S
O475 Eu459 2.480 . S
O476 Eu459 2.430 1_554 S
O476 C466 1.259 . S
O477 Eu449 2.355 . S
O477 Eu459 2.670 1_554 S
O477 C466 1.270 . S
O478 Eu459 2.394 1_554 S
O478 C467 1.251 . S
O479 Eu449 2.374 . S
O479 C467 1.251 . S
H480 C451 0.929 1_556 S
H481 C452 0.931 . S
H482 C454 0.931 . S
H483 C455 0.931 . S
H484 C461 0.929 1_554 S
H485 C462 0.932 . S
H486 C464 0.931 . S
H487 C465 0.931 . S
H488 C500 0.930 . S
H489 C502 0.930 . S
H490 C503 0.930 . S
H491 C507 0.959 1_655 S
H492 C507 0.959 . S
H493 C507 0.961 . S
H494 C508 0.960 . S
H495 C508 0.961 . S
H496 C508 0.959 . S
H497 C511 0.929 . S
H498 C512 0.931 . S
H499 C514 0.930 . S
C500 H488 0.930 . S
C500 C501 1.399 . S
C500 C505 1.399 . S
C501 C500 1.399 . S
C501 C502 1.376 . S
C502 H489 0.930 . S
C502 C501 1.376 . S
C502 C503 1.388 . S
C503 H490 0.930 . S
C503 C502 1.388 . S
C503 C504 1.390 . S
C504 C503 1.390 . S
C504 C505 1.394 . S
C504 C510 1.465 . S
C505 C500 1.399 . S
C505 C504 1.394 . S
C505 C506 1.516 . S
C506 C505 1.516 . S
C506 C507 1.502 . S
C506 C508 1.561 . S
C506 C509 1.526 . S
C507 H491 0.959 1_455 S
C507 H492 0.959 . S
C507 H493 0.961 . S
C507 C506 1.502 . S
C508 H494 0.960 . S
C508 H495 0.961 . S
C508 H496 0.959 . S
C508 C506 1.561 . S
C509 C506 1.526 . S
C509 C510 1.396 . S
C509 C514 1.390 . S
C510 C504 1.465 . S
C510 C509 1.396 . S
C510 C511 1.399 . S
C511 H497 0.929 . S
C511 C510 1.399 . S
C511 C512 1.385 . S
C512 H498 0.931 . S
C512 C511 1.385 . S
C512 C513 1.389 . S
C513 C512 1.389 . S
C513 C514 1.387 . S
C514 H499 0.930 . S
C514 C509 1.390 . S
C514 C513 1.387 . S
H515 C527 0.930 . S
H516 C529 0.930 1_655 S
H517 C530 0.931 1_655 S
H518 C534 0.959 . S
H519 C534 0.959 . S
H520 C534 0.961 . S
H521 C535 0.960 . S
H522 C535 0.961 . S
H523 C535 0.959 1_655 S
H524 C538 0.929 1_655 S
H525 C539 0.931 . S
H526 C541 0.930 . S
C527 H515 0.930 . S
C527 C528 1.399 . S
C527 C532 1.399 . S
C528 C527 1.399 . S
C528 C529 1.376 . S
C529 H516 0.930 1_455 S
C529 C528 1.376 . S
C529 C530 1.388 . S
C530 H517 0.931 1_455 S
C530 C529 1.388 . S
C530 C531 1.389 . S
C531 C530 1.389 . S
C531 C532 1.394 . S
C531 C537 1.465 . S
C532 C527 1.399 . S
C532 C531 1.394 . S
C532 C533 1.516 . S
C533 C532 1.516 . S
C533 C534 1.502 . S
C533 C535 1.561 . S
C533 C536 1.526 . S
C534 H518 0.959 . S
C534 H519 0.959 . S
C534 H520 0.961 . S
C534 C533 1.502 . S
C535 H521 0.960 . S
C535 H522 0.961 . S
C535 H523 0.959 1_455 S
C535 C533 1.561 . S
C536 C533 1.526 . S
C536 C537 1.396 . S
C536 C541 1.390 . S
C537 C531 1.465 . S
C537 C536 1.396 . S
C537 C538 1.399 . S
C538 H524 0.929 1_455 S
C538 C537 1.399 . S
C538 C539 1.385 . S
C539 H525 0.931 . S
C539 C538 1.385 . S
C539 C540 1.389 . S
C540 C539 1.389 . S
C540 C541 1.387 . S
C541 H526 0.930 . S
C541 C536 1.390 . S
C541 C540 1.387 . S
H542 C554 0.930 . S
H543 C556 0.930 1_655 S
H544 C557 0.935 . S
H545 C561 0.959 . S
H546 C561 0.959 . S
H547 C561 0.961 . S
H548 C562 0.958 1_655 S
H549 C562 0.961 . S
H550 C562 0.959 1_655 S
H551 C565 0.929 . S
H552 C566 0.931 . S
H553 C568 0.930 . S
C554 H542 0.930 . S
C554 C555 1.399 . S
C554 C559 1.399 . S
C555 C554 1.399 . S
C555 C556 1.376 . S
C556 H543 0.930 1_455 S
C556 C555 1.376 . S
C556 C557 1.388 . S
C557 H544 0.935 . S
C557 C556 1.388 . S
C557 C558 1.390 . S
C558 C557 1.390 . S
C558 C559 1.394 . S
C558 C564 1.465 . S
C559 C554 1.399 . S
C559 C558 1.394 . S
C559 C560 1.516 . S
C560 C559 1.516 . S
C560 C561 1.502 . S
C560 C562 1.561 . S
C560 C563 1.526 . S
C561 H545 0.959 . S
C561 H546 0.959 . S
C561 H547 0.961 . S
C561 C560 1.502 . S
C562 H548 0.958 1_455 S
C562 H549 0.961 . S
C562 H550 0.959 1_455 S
C562 C560 1.561 . S
C563 C560 1.526 . S
C563 C564 1.396 . S
C563 C568 1.390 . S
C564 C558 1.465 . S
C564 C563 1.396 . S
C564 C565 1.399 . S
C565 H551 0.929 . S
C565 C564 1.399 . S
C565 C566 1.385 . S
C566 H552 0.931 . S
C566 C565 1.385 . S
C566 C567 1.389 . S
C567 C566 1.389 . S
C567 C568 1.387 . S
C568 H553 0.930 . S
C568 C563 1.390 . S
C568 C567 1.387 . S
H569 C581 0.930 1_455 S
H570 C583 0.930 . S
H571 C584 0.930 . S
H572 C588 0.959 . S
H573 C588 0.959 . S
H574 C588 0.961 . S
H575 C589 0.960 . S
H576 C589 0.961 . S
H577 C589 0.959 . S
H578 C592 0.929 . S
H579 C593 0.931 . S
H580 C595 0.914 1_455 S
C581 H569 0.930 1_655 S
C581 C582 1.399 . S
C581 C586 1.399 . S
C582 C581 1.399 . S
C582 C583 1.376 . S
C583 H570 0.930 . S
C583 C582 1.376 . S
C583 C584 1.388 . S
C584 H571 0.930 . S
C584 C583 1.388 . S
C584 C585 1.390 . S
C585 C584 1.390 . S
C585 C586 1.394 . S
C585 C591 1.465 . S
C586 C581 1.399 . S
C586 C585 1.394 . S
C586 C587 1.519 . S
C587 C586 1.519 . S
C587 C588 1.486 1_655 S
C587 C589 1.569 . S
C587 C590 1.533 . S
C588 H572 0.959 . S
C588 H573 0.959 . S
C588 H574 0.961 . S
C588 C587 1.486 1_455 S
C589 H575 0.960 . S
C589 H576 0.961 . S
C589 H577 0.959 . S
C589 C587 1.569 . S
C590 C587 1.533 . S
C590 C591 1.396 . S
C590 C595 1.390 . S
C591 C585 1.465 . S
C591 C590 1.396 . S
C591 C592 1.399 . S
C592 H578 0.929 . S
C592 C591 1.399 . S
C592 C593 1.385 . S
C593 H579 0.931 . S
C593 C592 1.385 . S
C593 C594 1.389 . S
C594 C593 1.389 . S
C594 C595 1.387 . S
C595 H580 0.914 1_655 S
C595 C590 1.390 . S
C595 C594 1.387 . S
H596 C608 0.930 1_565 S
H597 C610 0.930 . S
H598 C611 0.930 . S
H599 C615 0.959 1_545 S
H600 C615 0.959 . S
H601 C615 0.961 . S
H602 C616 0.960 . S
H603 C616 0.961 . S
H604 C616 0.959 . S
H605 C619 0.929 . S
H606 C620 0.931 . S
H607 C622 0.930 1_565 S
C608 H596 0.930 1_545 S
C608 C609 1.399 . S
C608 C613 1.399 . S
C609 C608 1.399 . S
C609 C610 1.376 . S
C610 H597 0.930 . S
C610 C609 1.376 . S
C610 C611 1.388 . S
C611 H598 0.930 . S
C611 C610 1.388 . S
C611 C612 1.390 . S
C612 C611 1.390 . S
C612 C613 1.394 . S
C612 C618 1.465 . S
C613 C608 1.399 . S
C613 C612 1.394 . S
C613 C614 1.516 1_545 S
C614 C613 1.516 1_565 S
C614 C615 1.502 . S
C614 C616 1.561 . S
C614 C617 1.526 1_565 S
C615 H599 0.959 1_565 S
C615 H600 0.959 . S
C615 H601 0.961 . S
C615 C614 1.502 . S
C616 H602 0.960 . S
C616 H603 0.961 . S
C616 H604 0.959 . S
C616 C614 1.561 . S
C617 C614 1.526 1_545 S
C617 C618 1.396 . S
C617 C622 1.390 . S
C618 C612 1.465 . S
C618 C617 1.396 . S
C618 C619 1.399 . S
C619 H605 0.929 . S
C619 C618 1.399 . S
C619 C620 1.385 . S
C620 H606 0.931 . S
C620 C619 1.385 . S
C620 C621 1.389 . S
C621 C620 1.389 . S
C621 C622 1.387 . S
C622 H607 0.930 1_545 S
C622 C617 1.390 . S
C622 C621 1.387 . S
H623 C635 0.930 . S
H624 C637 0.930 . S
H625 C638 0.930 . S
H626 C642 0.959 . S
H627 C642 0.959 . S
H628 C642 0.961 . S
H629 C643 0.960 . S
H630 C643 0.961 . S
H631 C643 0.959 . S
H632 C646 0.929 . S
H633 C647 0.931 . S
H634 C649 0.930 . S
C635 H623 0.930 . S
C635 C636 1.399 . S
C635 C640 1.399 . S
C636 C635 1.399 . S
C636 C637 1.376 . S
C637 H624 0.930 . S
C637 C636 1.376 . S
C637 C638 1.388 . S
C638 H625 0.930 . S
C638 C637 1.388 . S
C638 C639 1.390 . S
C639 C638 1.390 . S
C639 C640 1.394 . S
C639 C645 1.465 . S
C640 C635 1.399 . S
C640 C639 1.394 . S
C640 C641 1.516 . S
C641 C640 1.516 . S
C641 C642 1.502 . S
C641 C643 1.561 . S
C641 C644 1.526 . S
C642 H626 0.959 . S
C642 H627 0.959 . S
C642 H628 0.961 . S
C642 C641 1.502 . S
C643 H629 0.960 . S
C643 H630 0.961 . S
C643 H631 0.959 . S
C643 C641 1.561 . S
C644 C641 1.526 . S
C644 C645 1.396 . S
C644 C649 1.390 . S
C645 C639 1.465 . S
C645 C644 1.396 . S
C645 C646 1.399 . S
C646 H632 0.929 . S
C646 C645 1.399 . S
C646 C647 1.385 . S
C647 H633 0.931 . S
C647 C646 1.385 . S
C647 C648 1.389 . S
C648 C647 1.389 . S
C648 C649 1.387 . S
C649 H634 0.930 . S
C649 C644 1.390 . S
C649 C648 1.387 . S
H650 C662 0.930 . S
H651 C664 0.930 . S
H652 C665 0.930 . S
H653 C669 0.959 . S
H654 C669 0.959 . S
H655 C669 0.961 . S
H656 C670 0.960 . S
H657 C670 0.961 . S
H658 C670 0.959 . S
H659 C673 0.929 . S
H660 C674 0.931 . S
H661 C676 0.930 1_565 S
C662 H650 0.930 . S
C662 C663 1.399 1_565 S
C662 C667 1.399 . S
C663 C662 1.399 1_545 S
C663 C664 1.376 . S
C664 H651 0.930 . S
C664 C663 1.376 . S
C664 C665 1.388 . S
C665 H652 0.930 . S
C665 C664 1.388 . S
C665 C666 1.390 . S
C666 C665 1.390 . S
C666 C667 1.394 1_545 S
C666 C672 1.465 . S
C667 C662 1.399 . S
C667 C666 1.394 1_565 S
C667 C668 1.516 . S
C668 C667 1.516 . S
C668 C669 1.502 . S
C668 C670 1.561 . S
C668 C671 1.526 1_565 S
C669 H653 0.959 . S
C669 H654 0.959 . S
C669 H655 0.961 . S
C669 C668 1.502 . S
C670 H656 0.960 . S
C670 H657 0.961 . S
C670 H658 0.959 . S
C670 C668 1.561 . S
C671 C668 1.526 1_545 S
C671 C672 1.396 . S
C671 C676 1.390 . S
C672 C666 1.465 . S
C672 C671 1.396 . S
C672 C673 1.399 . S
C673 H659 0.929 . S
C673 C672 1.399 . S
C673 C674 1.385 . S
C674 H660 0.931 . S
C674 C673 1.385 . S
C674 C675 1.389 . S
C675 C674 1.389 . S
C675 C676 1.387 . S
C676 H661 0.930 1_545 S
C676 C671 1.390 . S
C676 C675 1.387 . S
H677 C689 0.930 . S
H678 C691 0.930 . S
H679 C692 0.930 . S
H680 C696 0.959 . S
H681 C696 0.959 . S
H682 C696 0.961 . S
H683 C697 0.960 . S
H684 C697 0.961 . S
H685 C697 0.959 . S
H686 C700 0.929 . S
H687 C701 0.931 . S
H688 C703 0.930 . S
C689 H677 0.930 . S
C689 C690 1.399 . S
C689 C694 1.399 . S
C690 C689 1.399 . S
C690 C691 1.376 . S
C691 H678 0.930 . S
C691 C690 1.376 . S
C691 C692 1.388 . S
C692 H679 0.930 . S
C692 C691 1.388 . S
C692 C693 1.390 . S
C693 C692 1.390 . S
C693 C694 1.394 . S
C693 C699 1.465 . S
C694 C689 1.399 . S
C694 C693 1.394 . S
C694 C695 1.516 . S
C695 C694 1.516 . S
C695 C696 1.502 . S
C695 C697 1.561 . S
C695 C698 1.526 . S
C696 H680 0.959 . S
C696 H681 0.959 . S
C696 H682 0.961 . S
C696 C695 1.502 . S
C697 H683 0.960 . S
C697 H684 0.961 . S
C697 H685 0.959 . S
C697 C695 1.561 . S
C698 C695 1.526 . S
C698 C699 1.396 . S
C698 C703 1.390 . S
C699 C693 1.465 . S
C699 C698 1.396 . S
C699 C700 1.399 . S
C700 H686 0.929 . S
C700 C699 1.399 . S
C700 C701 1.385 . S
C701 H687 0.931 . S
C701 C700 1.385 . S
C701 C702 1.389 . S
C702 C701 1.389 . S
C702 C703 1.387 . S
C703 H688 0.930 . S
C703 C698 1.390 . S
C703 C702 1.387 . S
H704 C716 0.930 . S
H705 C718 0.930 . S
H706 C719 0.930 . S
H707 C723 0.959 . S
H708 C723 0.959 . S
H709 C723 0.961 . S
H710 C724 0.960 . S
H711 C724 0.961 . S
H712 C724 0.959 1_554 S
H713 C727 0.929 . S
H714 C728 0.931 . S
H715 C730 0.930 . S
C716 H704 0.930 . S
C716 C717 1.399 1_556 S
C716 C721 1.399 . S
C717 C716 1.399 1_554 S
C717 C718 1.376 . S
C718 H705 0.930 . S
C718 C717 1.376 . S
C718 C719 1.388 . S
C719 H706 0.930 . S
C719 C718 1.388 . S
C719 C720 1.390 . S
C720 C719 1.390 . S
C720 C721 1.394 1_554 S
C720 C726 1.465 . S
C721 C716 1.399 . S
C721 C720 1.394 1_556 S
C721 C722 1.516 . S
C722 C721 1.516 . S
C722 C723 1.502 . S
C722 C724 1.561 . S
C722 C725 1.526 . S
C723 H707 0.959 . S
C723 H708 0.959 . S
C723 H709 0.961 . S
C723 C722 1.502 . S
C724 H710 0.960 . S
C724 H711 0.961 . S
C724 H712 0.959 1_556 S
C724 C722 1.561 . S
C725 C722 1.526 . S
C725 C726 1.396 1_556 S
C725 C730 1.390 . S
C726 C720 1.465 . S
C726 C725 1.396 1_554 S
C726 C727 1.399 . S
C727 H713 0.929 . S
C727 C726 1.399 . S
C727 C728 1.385 . S
C728 H714 0.931 . S
C728 C727 1.385 . S
C728 C729 1.389 . S
C729 C728 1.389 . S
C729 C730 1.387 1_554 S
C730 H715 0.930 . S
C730 C725 1.390 . S
C730 C729 1.387 1_556 S
H731 C743 0.930 . S
H732 C745 0.930 . S
H733 C746 0.930 . S
H734 C750 0.959 . S
H735 C750 0.959 . S
H736 C750 0.961 . S
H737 C751 0.960 . S
H738 C751 0.961 . S
H739 C751 0.959 . S
H740 C754 0.929 . S
H741 C755 0.931 . S
H742 C757 0.930 . S
C743 H731 0.930 . S
C743 C744 1.399 . S
C743 C748 1.399 . S
C744 C743 1.399 . S
C744 C745 1.376 . S
C745 H732 0.930 . S
C745 C744 1.376 . S
C745 C746 1.388 . S
C746 H733 0.930 . S
C746 C745 1.388 . S
C746 C747 1.390 . S
C747 C746 1.390 . S
C747 C748 1.394 . S
C747 C753 1.465 . S
C748 C743 1.399 . S
C748 C747 1.394 . S
C748 C749 1.516 . S
C749 C748 1.516 . S
C749 C750 1.502 . S
C749 C751 1.561 . S
C749 C752 1.526 . S
C750 H734 0.959 . S
C750 H735 0.959 . S
C750 H736 0.961 . S
C750 C749 1.502 . S
C751 H737 0.960 . S
C751 H738 0.961 . S
C751 H739 0.959 . S
C751 C749 1.561 . S
C752 C749 1.526 . S
C752 C753 1.396 . S
C752 C757 1.390 . S
C753 C747 1.465 . S
C753 C752 1.396 . S
C753 C754 1.399 . S
C754 H740 0.929 . S
C754 C753 1.399 . S
C754 C755 1.385 . S
C755 H741 0.931 . S
C755 C754 1.385 . S
C755 C756 1.389 . S
C756 C755 1.389 . S
C756 C757 1.387 . S
C757 H742 0.930 . S
C757 C752 1.390 . S
C757 C756 1.387 . S
H758 C770 0.930 . S
H759 C772 0.930 . S
H760 C773 0.930 . S
H761 C777 0.959 . S
H762 C777 0.959 1_455 S
H763 C777 0.961 . S
H764 C778 0.960 1_655 S
H765 C778 0.961 . S
H766 C778 0.959 1_655 S
H767 C781 0.929 . S
H768 C782 0.931 . S
H769 C784 0.930 . S
C770 H758 0.930 . S
C770 C771 1.399 . S
C770 C775 1.399 . S
C771 C770 1.399 . S
C771 C772 1.376 . S
C772 H759 0.930 . S
C772 C771 1.376 . S
C772 C773 1.388 . S
C773 H760 0.930 . S
C773 C772 1.388 . S
C773 C774 1.390 . S
C774 C773 1.390 . S
C774 C775 1.394 . S
C774 C780 1.465 . S
C775 C770 1.399 . S
C775 C774 1.394 . S
C775 C776 1.516 . S
C776 C775 1.516 . S
C776 C777 1.502 . S
C776 C778 1.561 1_655 S
C776 C779 1.526 . S
C777 H761 0.959 . S
C777 H762 0.959 1_655 S
C777 H763 0.961 . S
C777 C776 1.502 . S
C778 H764 0.960 1_455 S
C778 H765 0.961 . S
C778 H766 0.959 1_455 S
C778 C776 1.561 1_455 S
C779 C776 1.526 . S
C779 C780 1.396 . S
C779 C784 1.390 1_655 S
C780 C774 1.465 . S
C780 C779 1.396 . S
C780 C781 1.399 . S
C781 H767 0.929 . S
C781 C780 1.399 . S
C781 C782 1.385 . S
C782 H768 0.931 . S
C782 C781 1.385 . S
C782 C783 1.389 1_655 S
C783 C782 1.389 1_455 S
C783 C784 1.387 . S
C784 H769 0.930 . S
C784 C779 1.390 1_455 S
C784 C783 1.387 . S
H785 C797 0.930 . S
H786 C799 0.930 . S
H787 C800 0.930 . S
H788 C804 0.959 . S
H789 C804 0.959 . S
H790 C804 0.961 . S
H791 C805 0.960 . S
H792 C805 0.961 . S
H793 C805 0.959 . S
H794 C808 0.929 . S
H795 C809 0.931 . S
H796 C811 0.930 . S
C797 H785 0.930 . S
C797 C798 1.399 . S
C797 C802 1.399 . S
C798 C797 1.399 . S
C798 C799 1.376 . S
C799 H786 0.930 . S
C799 C798 1.376 . S
C799 C800 1.388 . S
C800 H787 0.930 . S
C800 C799 1.388 . S
C800 C801 1.390 . S
C801 C800 1.390 . S
C801 C802 1.394 . S
C801 C807 1.465 . S
C802 C797 1.399 . S
C802 C801 1.394 . S
C802 C803 1.516 . S
C803 C802 1.516 . S
C803 C804 1.502 . S
C803 C805 1.561 . S
C803 C806 1.526 . S
C804 H788 0.959 . S
C804 H789 0.959 . S
C804 H790 0.961 . S
C804 C803 1.502 . S
C805 H791 0.960 . S
C805 H792 0.961 . S
C805 H793 0.959 . S
C805 C803 1.561 . S
C806 C803 1.526 . S
C806 C807 1.396 . S
C806 C811 1.390 . S
C807 C801 1.465 . S
C807 C806 1.396 . S
C807 C808 1.399 . S
C808 H794 0.929 . S
C808 C807 1.399 . S
C808 C809 1.385 . S
C809 H795 0.931 . S
C809 C808 1.385 . S
C809 C810 1.389 . S
C810 C809 1.389 . S
C810 C811 1.387 . S
C811 H796 0.930 . S
C811 C806 1.390 . S
C811 C810 1.387 . S
H812 C824 0.930 . S
H813 C826 0.930 . S
H814 C827 0.930 . S
H815 C831 0.959 . S
H816 C831 0.959 . S
H817 C831 0.961 . S
H818 C832 0.960 . S
H819 C832 0.961 . S
H820 C832 0.959 . S
H821 C835 0.929 . S
H822 C836 0.931 . S
H823 C838 0.930 . S
C824 H812 0.930 . S
C824 C825 1.399 . S
C824 C829 1.399 . S
C825 C824 1.399 . S
C825 C826 1.376 . S
C826 H813 0.930 . S
C826 C825 1.376 . S
C826 C827 1.388 . S
C827 H814 0.930 . S
C827 C826 1.388 . S
C827 C828 1.390 . S
C828 C827 1.390 . S
C828 C829 1.394 . S
C828 C834 1.465 . S
C829 C824 1.399 . S
C829 C828 1.394 . S
C829 C830 1.516 . S
C830 C829 1.516 . S
C830 C831 1.502 . S
C830 C832 1.561 . S
C830 C833 1.526 . S
C831 H815 0.959 . S
C831 H816 0.959 . S
C831 H817 0.961 . S
C831 C830 1.502 . S
C832 H818 0.960 . S
C832 H819 0.961 . S
C832 H820 0.959 . S
C832 C830 1.561 . S
C833 C830 1.526 . S
C833 C834 1.396 . S
C833 C838 1.390 . S
C834 C828 1.465 . S
C834 C833 1.396 . S
C834 C835 1.399 . S
C835 H821 0.929 . S
C835 C834 1.399 . S
C835 C836 1.385 . S
C836 H822 0.931 . S
C836 C835 1.385 . S
C836 C837 1.389 . S
C837 C836 1.389 . S
C837 C838 1.387 . S
C838 H823 0.930 . S
C838 C833 1.390 . S
C838 C837 1.387 . S
H839 C851 0.930 . S
H840 C853 0.930 . S
H841 C854 0.930 . S
H842 C858 0.959 . S
H843 C858 0.959 . S
H844 C858 0.961 . S
H845 C859 0.960 . S
H846 C859 0.961 . S
H847 C859 0.959 . S
H848 C862 0.929 . S
H849 C863 0.931 . S
H850 C865 0.930 . S
C851 H839 0.930 . S
C851 C852 1.399 . S
C851 C856 1.399 . S
C852 C851 1.399 . S
C852 C853 1.376 . S
C853 H840 0.930 . S
C853 C852 1.376 . S
C853 C854 1.388 . S
C854 H841 0.930 . S
C854 C853 1.388 . S
C854 C855 1.390 . S
C855 C854 1.390 . S
C855 C856 1.394 . S
C855 C861 1.465 . S
C856 C851 1.399 . S
C856 C855 1.394 . S
C856 C857 1.516 . S
C857 C856 1.516 . S
C857 C858 1.502 . S
C857 C859 1.561 . S
C857 C860 1.526 . S
C858 H842 0.959 . S
C858 H843 0.959 . S
C858 H844 0.961 . S
C858 C857 1.502 . S
C859 H845 0.960 . S
C859 H846 0.961 . S
C859 H847 0.959 . S
C859 C857 1.561 . S
C860 C857 1.526 . S
C860 C861 1.396 . S
C860 C865 1.390 . S
C861 C855 1.465 . S
C861 C860 1.396 . S
C861 C862 1.399 . S
C862 H848 0.929 . S
C862 C861 1.399 . S
C862 C863 1.385 . S
C863 H849 0.931 . S
C863 C862 1.385 . S
C863 C864 1.389 . S
C864 C863 1.389 . S
C864 C865 1.387 . S
C865 H850 0.930 . S
C865 C860 1.390 . S
C865 C864 1.387 . S
H866 C878 0.930 . S
H867 C880 0.930 . S
H868 C881 0.930 . S
H869 C885 0.959 . S
H870 C885 0.959 . S
H871 C885 0.961 . S
H872 C886 0.960 . S
H873 C886 0.961 . S
H874 C886 0.959 . S
H875 C889 0.929 . S
H876 C890 0.931 . S
H877 C892 0.930 . S
C878 H866 0.930 . S
C878 C879 1.399 . S
C878 C883 1.399 . S
C879 C878 1.399 . S
C879 C880 1.376 . S
C880 H867 0.930 . S
C880 C879 1.376 . S
C880 C881 1.388 . S
C881 H868 0.930 . S
C881 C880 1.388 . S
C881 C882 1.390 . S
C882 C881 1.390 . S
C882 C883 1.394 . S
C882 C888 1.465 . S
C883 C878 1.399 . S
C883 C882 1.394 . S
C883 C884 1.516 . S
C884 C883 1.516 . S
C884 C885 1.502 . S
C884 C886 1.561 . S
C884 C887 1.526 . S
C885 H869 0.959 . S
C885 H870 0.959 . S
C885 H871 0.961 . S
C885 C884 1.502 . S
C886 H872 0.960 . S
C886 H873 0.961 . S
C886 H874 0.959 . S
C886 C884 1.561 . S
C887 C884 1.526 . S
C887 C888 1.396 . S
C887 C892 1.390 . S
C888 C882 1.465 . S
C888 C887 1.396 . S
C888 C889 1.399 . S
C889 H875 0.929 . S
C889 C888 1.399 . S
C889 C890 1.385 . S
C890 H876 0.931 . S
C890 C889 1.385 . S
C890 C891 1.389 . S
C891 C890 1.389 . S
C891 C892 1.387 . S
C892 H877 0.930 . S
C892 C887 1.390 . S
C892 C891 1.387 . S
H893 C905 0.930 . S
H894 C907 0.930 . S
H895 C908 0.930 . S
H896 C912 0.959 . S
H897 C912 0.959 . S
H898 C912 0.961 . S
H899 C913 0.960 . S
H900 C913 0.961 . S
H901 C913 0.959 . S
H902 C916 0.929 . S
H903 C917 0.931 . S
H904 C919 0.930 . S
C905 H893 0.930 . S
C905 C906 1.399 . S
C905 C910 1.399 . S
C906 C905 1.399 . S
C906 C907 1.376 . S
C907 H894 0.930 . S
C907 C906 1.376 . S
C907 C908 1.388 . S
C908 H895 0.930 . S
C908 C907 1.388 . S
C908 C909 1.390 . S
C909 C908 1.390 . S
C909 C910 1.394 . S
C909 C915 1.465 . S
C910 C905 1.399 . S
C910 C909 1.394 . S
C910 C911 1.516 . S
C911 C910 1.516 . S
C911 C912 1.502 . S
C911 C913 1.561 . S
C911 C914 1.526 . S
C912 H896 0.959 . S
C912 H897 0.959 . S
C912 H898 0.961 . S
C912 C911 1.502 . S
C913 H899 0.960 . S
C913 H900 0.961 . S
C913 H901 0.959 . S
C913 C911 1.561 . S
C914 C911 1.526 . S
C914 C915 1.396 . S
C914 C919 1.390 . S
C915 C909 1.465 . S
C915 C914 1.396 . S
C915 C916 1.399 . S
C916 H902 0.929 . S
C916 C915 1.399 . S
C916 C917 1.385 . S
C917 H903 0.931 . S
C917 C916 1.385 . S
C917 C918 1.389 . S
C918 C917 1.389 . S
C918 C919 1.387 . S
C919 H904 0.930 . S
C919 C914 1.390 . S
C919 C918 1.387 . S
H920 C932 0.930 . S
H921 C934 0.930 . S
H922 C935 0.930 . S
H923 C939 0.959 . S
H924 C939 0.959 . S
H925 C939 0.961 . S
H926 C940 0.960 . S
H927 C940 0.961 . S
H928 C940 0.959 . S
H929 C943 0.929 . S
H930 C944 0.931 . S
H931 C946 0.930 . S
C932 H920 0.930 . S
C932 C933 1.399 . S
C932 C937 1.399 . S
C933 C932 1.399 . S
C933 C934 1.376 . S
C934 H921 0.930 . S
C934 C933 1.376 . S
C934 C935 1.388 . S
C935 H922 0.930 . S
C935 C934 1.388 . S
C935 C936 1.390 . S
C936 C935 1.390 . S
C936 C937 1.394 . S
C936 C942 1.465 . S
C937 C932 1.399 . S
C937 C936 1.394 . S
C937 C938 1.516 . S
C938 C937 1.516 . S
C938 C939 1.502 . S
C938 C940 1.561 . S
C938 C941 1.526 . S
C939 H923 0.959 . S
C939 H924 0.959 . S
C939 H925 0.961 . S
C939 C938 1.502 . S
C940 H926 0.960 . S
C940 H927 0.961 . S
C940 H928 0.959 . S
C940 C938 1.561 . S
C941 C938 1.526 . S
C941 C942 1.396 . S
C941 C946 1.390 . S
C942 C936 1.465 . S
C942 C941 1.396 . S
C942 C943 1.399 . S
C943 H929 0.929 . S
C943 C942 1.399 . S
C943 C944 1.385 . S
C944 H930 0.931 . S
C944 C943 1.385 . S
C944 C945 1.389 . S
C945 C944 1.389 . S
C945 C946 1.387 . S
C946 H931 0.930 . S
C946 C941 1.390 . S
C946 C945 1.387 . S
H947 C959 0.930 . S
H948 C961 0.930 . S
H949 C962 0.930 . S
H950 C966 0.959 . S
H951 C966 0.959 . S
H952 C966 0.961 . S
H953 C967 0.960 . S
H954 C967 0.961 . S
H955 C967 0.959 . S
H956 C970 0.929 . S
H957 C971 0.931 . S
H958 C973 0.930 . S
C959 H947 0.930 . S
C959 C960 1.399 . S
C959 C964 1.399 . S
C960 C959 1.399 . S
C960 C961 1.376 1_565 S
C961 H948 0.930 . S
C961 C960 1.376 1_545 S
C961 C962 1.388 . S
C962 H949 0.930 . S
C962 C961 1.388 . S
C962 C963 1.390 . S
C963 C962 1.390 . S
C963 C964 1.394 1_545 S
C963 C969 1.465 . S
C964 C959 1.399 . S
C964 C963 1.394 1_565 S
C964 C965 1.516 . S
C965 C964 1.516 . S
C965 C966 1.502 . S
C965 C967 1.561 . S
C965 C968 1.558 . S
C966 H950 0.959 . S
C966 H951 0.959 . S
C966 H952 0.961 . S
C966 C965 1.502 . S
C967 H953 0.960 . S
C967 H954 0.961 . S
C967 H955 0.959 . S
C967 C965 1.561 . S
C968 C965 1.558 . S
C968 C969 1.360 1_565 S
C968 C973 1.392 . S
C969 C963 1.465 . S
C969 C968 1.360 1_545 S
C969 C970 1.399 . S
C970 H956 0.929 . S
C970 C969 1.399 . S
C970 C971 1.385 . S
C971 H957 0.931 . S
C971 C970 1.385 . S
C971 C972 1.389 . S
C972 C971 1.389 . S
C972 C973 1.387 1_545 S
C973 H958 0.930 . S
C973 C968 1.392 . S
C973 C972 1.387 1_565 S
H974 C986 0.930 . S
H975 C988 0.930 . S
H976 C989 0.930 . S
H977 C993 0.959 . S
H978 C993 0.959 . S
H979 C993 0.961 . S
H980 C994 0.960 . S
H981 C994 0.961 . S
H982 C994 0.959 . S
H983 C997 0.929 . S
H984 C998 0.931 1_554 S
H985 C1000 0.930 . S
C986 H974 0.930 . S
C986 C987 1.399 . S
C986 C991 1.399 . S
C987 C986 1.399 . S
C987 C988 1.376 . S
C988 H975 0.930 . S
C988 C987 1.376 . S
C988 C989 1.388 . S
C989 H976 0.930 . S
C989 C988 1.388 . S
C989 C990 1.390 . S
C990 C989 1.390 . S
C990 C991 1.394 . S
C990 C996 1.465 . S
C991 C986 1.399 . S
C991 C990 1.394 . S
C991 C992 1.516 . S
C992 C991 1.516 . S
C992 C993 1.502 . S
C992 C994 1.561 . S
C992 C995 1.526 . S
C993 H977 0.959 . S
C993 H978 0.959 . S
C993 H979 0.961 . S
C993 C992 1.502 . S
C994 H980 0.960 . S
C994 H981 0.961 . S
C994 H982 0.959 . S
C994 C992 1.561 . S
C995 C992 1.526 . S
C995 C996 1.396 . S
C995 C1000 1.390 1_556 S
C996 C990 1.465 . S
C996 C995 1.396 . S
C996 C997 1.399 . S
C997 H983 0.929 . S
C997 C996 1.399 . S
C997 C998 1.385 . S
C998 H984 0.931 1_556 S
C998 C997 1.385 . S
C998 C999 1.389 1_556 S
C999 C998 1.389 1_554 S
C999 C1000 1.387 . S
C1000 H985 0.930 . S
C1000 C995 1.390 1_554 S
C1000 C999 1.387 . S
H1001 C1013 0.896 1_565 S
H1002 C1015 0.930 . S
H1003 C1016 0.930 . S
H1004 C1020 0.959 1_545 S
H1005 C1020 0.959 1_554 S
H1006 C1020 0.961 . S
H1007 C1021 0.960 1_556 S
H1008 C1021 0.961 . S
H1009 C1021 0.959 . S
H1010 C1024 0.929 1_556 S
H1011 C1025 0.931 . S
H1012 C1027 0.930 . S
C1013 H1001 0.896 1_545 S
C1013 C1014 1.415 . S
C1013 C1018 1.417 . S
C1014 C1013 1.415 . S
C1014 C1015 1.376 . S
C1015 H1002 0.930 . S
C1015 C1014 1.376 . S
C1015 C1016 1.388 . S
C1016 H1003 0.930 . S
C1016 C1015 1.388 . S
C1016 C1017 1.390 . S
C1017 C1016 1.390 . S
C1017 C1018 1.394 . S
C1017 C1023 1.465 . S
C1018 C1013 1.417 . S
C1018 C1017 1.394 . S
C1018 C1019 1.516 . S
C1019 C1018 1.516 . S
C1019 C1020 1.502 1_545 S
C1019 C1021 1.561 1_546 S
C1019 C1022 1.526 1_556 S
C1020 H1004 0.959 1_565 S
C1020 H1005 0.959 1_556 S
C1020 H1006 0.961 . S
C1020 C1019 1.502 1_565 S
C1021 H1007 0.960 1_554 S
C1021 H1008 0.961 . S
C1021 H1009 0.959 . S
C1021 C1019 1.561 1_564 S
C1022 C1019 1.526 1_554 S
C1022 C1023 1.396 1_554 S
C1022 C1027 1.390 . S
C1023 C1017 1.465 . S
C1023 C1022 1.396 1_556 S
C1023 C1024 1.399 1_556 S
C1024 H1010 0.929 1_554 S
C1024 C1023 1.399 1_554 S
C1024 C1025 1.385 . S
C1025 H1011 0.931 . S
C1025 C1024 1.385 . S
C1025 C1026 1.389 . S
C1026 C1025 1.389 . S
C1026 C1027 1.387 . S
C1027 H1012 0.930 . S
C1027 C1022 1.390 . S
C1027 C1026 1.387 . S
H1028 C1040 0.930 . S
H1029 C1042 0.930 . S
H1030 C1043 0.930 . S
H1031 C1047 0.959 . S
H1032 C1047 0.959 . S
H1033 C1047 0.961 . S
H1034 C1048 0.960 . S
H1035 C1048 0.961 . S
H1036 C1048 0.959 . S
H1037 C1051 0.929 . S
H1038 C1052 0.931 . S
H1039 C1054 0.930 . S
C1040 H1028 0.930 . S
C1040 C1041 1.399 . S
C1040 C1045 1.399 . S
C1041 C1040 1.399 . S
C1041 C1042 1.376 . S
C1042 H1029 0.930 . S
C1042 C1041 1.376 . S
C1042 C1043 1.388 . S
C1043 H1030 0.930 . S
C1043 C1042 1.388 . S
C1043 C1044 1.390 . S
C1044 C1043 1.390 . S
C1044 C1045 1.394 . S
C1044 C1050 1.465 . S
C1045 C1040 1.399 . S
C1045 C1044 1.394 . S
C1045 C1046 1.516 . S
C1046 C1045 1.516 . S
C1046 C1047 1.502 . S
C1046 C1048 1.561 . S
C1046 C1049 1.526 . S
C1047 H1031 0.959 . S
C1047 H1032 0.959 . S
C1047 H1033 0.961 . S
C1047 C1046 1.502 . S
C1048 H1034 0.960 . S
C1048 H1035 0.961 . S
C1048 H1036 0.959 . S
C1048 C1046 1.561 . S
C1049 C1046 1.526 . S
C1049 C1050 1.396 . S
C1049 C1054 1.390 . S
C1050 C1044 1.465 . S
C1050 C1049 1.396 . S
C1050 C1051 1.399 . S
C1051 H1037 0.929 . S
C1051 C1050 1.399 . S
C1051 C1052 1.385 . S
C1052 H1038 0.931 . S
C1052 C1051 1.385 . S
C1052 C1053 1.389 . S
C1053 C1052 1.389 . S
C1053 C1054 1.387 . S
C1054 H1039 0.930 . S
C1054 C1049 1.390 . S
C1054 C1053 1.387 . S
H1055 C1067 0.930 . S
H1056 C1069 0.930 . S
H1057 C1070 0.930 . S
H1058 C1074 0.959 . S
H1059 C1074 0.959 . S
H1060 C1074 0.961 . S
H1061 C1075 0.960 . S
H1062 C1075 0.961 . S
H1063 C1075 0.959 . S
H1064 C1078 0.929 . S
H1065 C1079 0.931 . S
H1066 C1081 0.930 . S
C1067 H1055 0.930 . S
C1067 C1068 1.399 . S
C1067 C1072 1.399 . S
C1068 C1067 1.399 . S
C1068 C1069 1.376 1_556 S
C1069 H1056 0.930 . S
C1069 C1068 1.376 1_554 S
C1069 C1070 1.388 . S
C1070 H1057 0.930 . S
C1070 C1069 1.388 . S
C1070 C1071 1.390 . S
C1071 C1070 1.390 . S
C1071 C1072 1.394 1_554 S
C1071 C1077 1.465 . S
C1072 C1067 1.399 . S
C1072 C1071 1.394 1_556 S
C1072 C1073 1.516 . S
C1073 C1072 1.516 . S
C1073 C1074 1.502 . S
C1073 C1075 1.561 . S
C1073 C1076 1.526 . S
C1074 H1058 0.959 . S
C1074 H1059 0.959 . S
C1074 H1060 0.961 . S
C1074 C1073 1.502 . S
C1075 H1061 0.960 . S
C1075 H1062 0.961 . S
C1075 H1063 0.959 . S
C1075 C1073 1.561 . S
C1076 C1073 1.526 . S
C1076 C1077 1.396 1_556 S
C1076 C1081 1.390 . S
C1077 C1071 1.465 . S
C1077 C1076 1.396 1_554 S
C1077 C1078 1.399 . S
C1078 H1064 0.929 . S
C1078 C1077 1.399 . S
C1078 C1079 1.385 . S
C1079 H1065 0.931 . S
C1079 C1078 1.385 . S
C1079 C1080 1.423 . S
C1080 C1079 1.423 . S
C1080 C1081 1.361 1_554 S
C1081 H1066 0.930 . S
C1081 C1076 1.390 . S
C1081 C1080 1.361 1_556 S
H1082 C1094 0.930 . S
H1083 C1096 0.930 . S
H1084 C1097 0.930 . S
H1085 C1101 0.959 . S
H1086 C1101 0.959 . S
H1087 C1101 0.961 . S
H1088 C1102 0.960 . S
H1089 C1102 0.961 . S
H1090 C1102 0.959 . S
H1091 C1105 0.929 . S
H1092 C1106 0.931 . S
H1093 C1108 0.930 . S
C1094 H1082 0.930 . S
C1094 C1095 1.399 . S
C1094 C1099 1.399 . S
C1095 C1094 1.399 . S
C1095 C1096 1.376 1_556 S
C1096 H1083 0.930 . S
C1096 C1095 1.376 1_554 S
C1096 C1097 1.388 . S
C1097 H1084 0.930 . S
C1097 C1096 1.388 . S
C1097 C1098 1.390 . S
C1098 C1097 1.390 . S
C1098 C1099 1.394 1_554 S
C1098 C1104 1.465 . S
C1099 C1094 1.399 . S
C1099 C1098 1.394 1_556 S
C1099 C1100 1.516 . S
C1100 C1099 1.516 . S
C1100 C1101 1.502 . S
C1100 C1102 1.561 . S
C1100 C1103 1.526 . S
C1101 H1085 0.959 . S
C1101 H1086 0.959 . S
C1101 H1087 0.961 . S
C1101 C1100 1.502 . S
C1102 H1088 0.960 . S
C1102 H1089 0.961 . S
C1102 H1090 0.959 . S
C1102 C1100 1.561 . S
C1103 C1100 1.526 . S
C1103 C1104 1.396 1_556 S
C1103 C1108 1.390 . S
C1104 C1098 1.465 . S
C1104 C1103 1.396 1_554 S
C1104 C1105 1.399 . S
C1105 H1091 0.929 . S
C1105 C1104 1.399 . S
C1105 C1106 1.385 . S
C1106 H1092 0.931 . S
C1106 C1105 1.385 . S
C1106 C1107 1.389 . S
C1107 C1106 1.389 . S
C1107 C1108 1.387 1_554 S
C1108 H1093 0.930 . S
C1108 C1103 1.390 . S
C1108 C1107 1.387 1_556 S
H1109 C1121 0.930 1_556 S
H1110 C1123 0.930 . S
H1111 C1124 0.930 . S
H1112 C1128 0.959 . S
H1113 C1128 0.959 . S
H1114 C1128 0.961 . S
H1115 C1129 0.960 . S
H1116 C1129 0.961 1_455 S
H1117 C1129 0.959 1_455 S
H1118 C1132 0.929 . S
H1119 C1133 0.931 . S
H1120 C1135 0.930 . S
C1121 H1109 0.930 1_554 S
C1121 C1122 1.399 . S
C1121 C1126 1.399 . S
C1122 C1121 1.399 . S
C1122 C1123 1.376 . S
C1123 H1110 0.930 . S
C1123 C1122 1.376 . S
C1123 C1124 1.388 . S
C1124 H1111 0.930 . S
C1124 C1123 1.388 . S
C1124 C1125 1.390 . S
C1125 C1124 1.390 . S
C1125 C1126 1.394 . S
C1125 C1131 1.465 . S
C1126 C1121 1.399 . S
C1126 C1125 1.394 . S
C1126 C1127 1.516 . S
C1127 C1126 1.516 . S
C1127 C1128 1.502 . S
C1127 C1129 1.561 1_554 S
C1127 C1130 1.525 . S
C1128 H1112 0.959 . S
C1128 H1113 0.959 . S
C1128 H1114 0.961 . S
C1128 C1127 1.502 . S
C1129 H1115 0.960 . S
C1129 H1116 0.961 1_655 S
C1129 H1117 0.959 1_655 S
C1129 C1127 1.561 1_556 S
C1130 C1127 1.525 . S
C1130 C1131 1.396 . S
C1130 C1135 1.390 1_655 S
C1131 C1125 1.465 . S
C1131 C1130 1.396 . S
C1131 C1132 1.399 1_655 S
C1132 H1118 0.929 . S
C1132 C1131 1.399 1_455 S
C1132 C1133 1.385 . S
C1133 H1119 0.931 . S
C1133 C1132 1.385 . S
C1133 C1134 1.389 . S
C1134 C1133 1.389 . S
C1134 C1135 1.387 . S
C1135 H1120 0.930 . S
C1135 C1130 1.390 1_455 S
C1135 C1134 1.387 . S
H1136 C1148 0.930 . S
H1137 C1150 0.930 . S
H1138 C1151 0.930 . S
H1139 C1155 0.959 . S
H1140 C1155 0.959 . S
H1141 C1155 0.961 . S
H1142 C1156 0.960 . S
H1143 C1156 0.961 . S
H1144 C1156 0.959 . S
H1145 C1159 0.929 . S
H1146 C1160 0.931 . S
H1147 C1162 0.930 . S
C1148 H1136 0.930 . S
C1148 C1149 1.399 . S
C1148 C1153 1.399 . S
C1149 C1148 1.399 . S
C1149 C1150 1.376 . S
C1150 H1137 0.930 . S
C1150 C1149 1.376 . S
C1150 C1151 1.388 . S
C1151 H1138 0.930 . S
C1151 C1150 1.388 . S
C1151 C1152 1.390 . S
C1152 C1151 1.390 . S
C1152 C1153 1.394 . S
C1152 C1158 1.465 . S
C1153 C1148 1.399 . S
C1153 C1152 1.394 . S
C1153 C1154 1.516 . S
C1154 C1153 1.516 . S
C1154 C1155 1.502 . S
C1154 C1156 1.561 . S
C1154 C1157 1.526 . S
C1155 H1139 0.959 . S
C1155 H1140 0.959 . S
C1155 H1141 0.961 . S
C1155 C1154 1.502 . S
C1156 H1142 0.960 . S
C1156 H1143 0.961 . S
C1156 H1144 0.959 . S
C1156 C1154 1.561 . S
C1157 C1154 1.526 . S
C1157 C1158 1.396 . S
C1157 C1162 1.390 . S
C1158 C1152 1.465 . S
C1158 C1157 1.396 . S
C1158 C1159 1.399 . S
C1159 H1145 0.929 . S
C1159 C1158 1.399 . S
C1159 C1160 1.385 . S
C1160 H1146 0.931 . S
C1160 C1159 1.385 . S
C1160 C1161 1.389 . S
C1161 C1160 1.389 . S
C1161 C1162 1.387 . S
C1162 H1147 0.930 . S
C1162 C1157 1.390 . S
C1162 C1161 1.387 . S
H1163 C1175 0.930 . S
H1164 C1177 0.930 . S
H1165 C1178 0.930 . S
H1166 C1182 0.959 1_455 S
H1167 C1182 0.959 . S
H1168 C1182 0.961 . S
H1169 C1183 0.960 . S
H1170 C1183 0.961 . S
H1171 C1183 0.959 . S
H1172 C1186 0.929 . S
H1173 C1187 0.931 . S
H1174 C1189 0.930 . S
C1175 H1163 0.930 . S
C1175 C1176 1.399 1_655 S
C1175 C1180 1.399 . S
C1176 C1175 1.399 1_455 S
C1176 C1177 1.376 . S
C1177 H1164 0.930 . S
C1177 C1176 1.376 . S
C1177 C1178 1.388 . S
C1178 H1165 0.930 . S
C1178 C1177 1.388 . S
C1178 C1179 1.390 . S
C1179 C1178 1.390 . S
C1179 C1180 1.394 1_455 S
C1179 C1185 1.465 . S
C1180 C1175 1.399 . S
C1180 C1179 1.394 1_655 S
C1180 C1181 1.516 . S
C1181 C1180 1.516 . S
C1181 C1182 1.502 . S
C1181 C1183 1.561 . S
C1181 C1184 1.526 . S
C1182 H1166 0.959 1_655 S
C1182 H1167 0.959 . S
C1182 H1168 0.961 . S
C1182 C1181 1.502 . S
C1183 H1169 0.960 . S
C1183 H1170 0.961 . S
C1183 H1171 0.959 . S
C1183 C1181 1.561 . S
C1184 C1181 1.526 . S
C1184 C1185 1.396 1_655 S
C1184 C1189 1.390 . S
C1185 C1179 1.465 . S
C1185 C1184 1.396 1_455 S
C1185 C1186 1.399 . S
C1186 H1172 0.929 . S
C1186 C1185 1.399 . S
C1186 C1187 1.385 . S
C1187 H1173 0.931 . S
C1187 C1186 1.385 . S
C1187 C1188 1.389 . S
C1188 C1187 1.389 . S
C1188 C1189 1.387 1_455 S
C1189 H1174 0.930 . S
C1189 C1184 1.390 . S
C1189 C1188 1.387 1_655 S
H1190 C1202 0.930 . S
H1191 C1204 0.930 . S
H1192 C1205 0.930 . S
H1193 C1209 0.959 . S
H1194 C1209 0.959 . S
H1195 C1209 0.961 . S
H1196 C1210 0.960 . S
H1197 C1210 0.961 . S
H1198 C1210 0.959 1_655 S
H1199 C1213 0.929 . S
H1200 C1214 0.940 . S
H1201 C1216 0.930 . S
C1202 H1190 0.930 . S
C1202 C1203 1.399 . S
C1202 C1207 1.399 . S
C1203 C1202 1.399 . S
C1203 C1204 1.376 1_455 S
C1204 H1191 0.930 . S
C1204 C1203 1.376 1_655 S
C1204 C1205 1.388 . S
C1205 H1192 0.930 . S
C1205 C1204 1.388 . S
C1205 C1206 1.390 1_655 S
C1206 C1205 1.390 1_455 S
C1206 C1207 1.394 . S
C1206 C1212 1.465 . S
C1207 C1202 1.399 . S
C1207 C1206 1.394 . S
C1207 C1208 1.516 . S
C1208 C1207 1.516 . S
C1208 C1209 1.502 . S
C1208 C1210 1.561 . S
C1208 C1211 1.526 . S
C1209 H1193 0.959 . S
C1209 H1194 0.959 . S
C1209 H1195 0.961 . S
C1209 C1208 1.502 . S
C1210 H1196 0.960 . S
C1210 H1197 0.961 . S
C1210 H1198 0.959 1_455 S
C1210 C1208 1.561 . S
C1211 C1208 1.526 . S
C1211 C1212 1.396 . S
C1211 C1216 1.390 . S
C1212 C1206 1.465 . S
C1212 C1211 1.396 . S
C1212 C1213 1.399 1_455 S
C1213 H1199 0.929 . S
C1213 C1212 1.399 1_655 S
C1213 C1214 1.395 . S
C1214 H1200 0.940 . S
C1214 C1213 1.395 . S
C1214 C1215 1.373 1_655 S
C1215 C1214 1.373 1_455 S
C1215 C1216 1.387 . S
C1216 H1201 0.930 . S
C1216 C1211 1.390 . S
C1216 C1215 1.387 . S
H1217 C1229 0.930 . S
H1218 C1231 0.930 . S
H1219 C1232 0.930 . S
H1220 C1236 0.959 . S
H1221 C1236 0.959 . S
H1222 C1236 0.968 . S
H1223 C1237 0.960 . S
H1224 C1237 0.961 . S
H1225 C1237 0.959 . S
H1226 C1240 0.929 . S
H1227 C1241 0.931 . S
H1228 C1243 0.930 . S
C1229 H1217 0.930 . S
C1229 C1230 1.399 . S
C1229 C1234 1.402 . S
C1230 C1229 1.399 . S
C1230 C1231 1.376 1_655 S
C1231 H1218 0.930 . S
C1231 C1230 1.376 1_455 S
C1231 C1232 1.388 . S
C1232 H1219 0.930 . S
C1232 C1231 1.388 . S
C1232 C1233 1.390 . S
C1233 C1232 1.390 . S
C1233 C1234 1.390 1_455 S
C1233 C1239 1.465 . S
C1234 C1229 1.402 . S
C1234 C1233 1.390 1_655 S
C1234 C1235 1.517 . S
C1235 C1234 1.517 . S
C1235 C1236 1.502 1_655 S
C1235 C1237 1.561 . S
C1235 C1238 1.526 1_655 S
C1236 H1220 0.959 . S
C1236 H1221 0.959 . S
C1236 H1222 0.968 . S
C1236 C1235 1.502 1_455 S
C1237 H1223 0.960 . S
C1237 H1224 0.961 . S
C1237 H1225 0.959 . S
C1237 C1235 1.561 . S
C1238 C1235 1.526 1_455 S
C1238 C1239 1.396 . S
C1238 C1243 1.390 . S
C1239 C1233 1.465 . S
C1239 C1238 1.396 . S
C1239 C1240 1.399 . S
C1240 H1226 0.929 . S
C1240 C1239 1.399 . S
C1240 C1241 1.385 . S
C1241 H1227 0.931 . S
C1241 C1240 1.385 . S
C1241 C1242 1.389 . S
C1242 C1241 1.389 . S
C1242 C1243 1.387 . S
C1243 H1228 0.930 . S
C1243 C1238 1.390 . S
C1243 C1242 1.387 . S
H1244 C1256 0.930 . S
H1245 C1258 0.930 . S
H1246 C1259 0.930 . S
H1247 C1263 0.959 . S
H1248 C1263 0.959 . S
H1249 C1263 0.961 . S
H1250 C1264 0.960 . S
H1251 C1264 0.961 . S
H1252 C1264 0.959 . S
H1253 C1267 0.929 1_565 S
H1254 C1268 0.931 . S
H1255 C1270 0.930 . S
C1256 H1244 0.930 . S
C1256 C1257 1.399 . S
C1256 C1261 1.399 . S
C1257 C1256 1.399 . S
C1257 C1258 1.376 1_545 S
C1258 H1245 0.930 . S
C1258 C1257 1.376 1_565 S
C1258 C1259 1.388 . S
C1259 H1246 0.930 . S
C1259 C1258 1.388 . S
C1259 C1260 1.390 1_565 S
C1260 C1259 1.390 1_545 S
C1260 C1261 1.394 . S
C1260 C1266 1.465 . S
C1261 C1256 1.399 . S
C1261 C1260 1.394 . S
C1261 C1262 1.516 . S
C1262 C1261 1.516 . S
C1262 C1263 1.502 . S
C1262 C1264 1.561 . S
C1262 C1265 1.526 . S
C1263 H1247 0.959 . S
C1263 H1248 0.959 . S
C1263 H1249 0.961 . S
C1263 C1262 1.502 . S
C1264 H1250 0.960 . S
C1264 H1251 0.961 . S
C1264 H1252 0.959 . S
C1264 C1262 1.561 . S
C1265 C1262 1.526 . S
C1265 C1266 1.396 . S
C1265 C1270 1.390 . S
C1266 C1260 1.465 . S
C1266 C1265 1.396 . S
C1266 C1267 1.399 . S
C1267 H1253 0.929 1_545 S
C1267 C1266 1.399 . S
C1267 C1268 1.385 . S
C1268 H1254 0.931 . S
C1268 C1267 1.385 . S
C1268 C1269 1.389 . S
C1269 C1268 1.389 . S
C1269 C1270 1.387 . S
C1270 H1255 0.930 . S
C1270 C1265 1.390 . S
C1270 C1269 1.387 . S
H1271 C1283 0.930 . S
H1272 C1285 0.930 . S
H1273 C1286 0.930 . S
H1274 C1290 0.959 . S
H1275 C1290 0.959 . S
H1276 C1290 0.961 . S
H1277 C1291 0.960 . S
H1278 C1291 0.961 . S
H1279 C1291 0.959 . S
H1280 C1294 0.929 . S
H1281 C1295 0.931 . S
H1282 C1297 0.930 . S
C1283 H1271 0.930 . S
C1283 C1284 1.399 . S
C1283 C1288 1.399 . S
C1284 C1283 1.399 . S
C1284 C1285 1.376 . S
C1285 H1272 0.930 . S
C1285 C1284 1.376 . S
C1285 C1286 1.388 . S
C1286 H1273 0.930 . S
C1286 C1285 1.388 . S
C1286 C1287 1.390 . S
C1287 C1286 1.390 . S
C1287 C1288 1.394 . S
C1287 C1293 1.465 . S
C1288 C1283 1.399 . S
C1288 C1287 1.394 . S
C1288 C1289 1.516 . S
C1289 C1288 1.516 . S
C1289 C1290 1.502 . S
C1289 C1291 1.561 . S
C1289 C1292 1.526 . S
C1290 H1274 0.959 . S
C1290 H1275 0.959 . S
C1290 H1276 0.961 . S
C1290 C1289 1.502 . S
C1291 H1277 0.960 . S
C1291 H1278 0.961 . S
C1291 H1279 0.959 . S
C1291 C1289 1.561 . S
C1292 C1289 1.526 . S
C1292 C1293 1.396 . S
C1292 C1297 1.390 . S
C1293 C1287 1.465 . S
C1293 C1292 1.396 . S
C1293 C1294 1.399 . S
C1294 H1280 0.929 . S
C1294 C1293 1.399 . S
C1294 C1295 1.385 . S
C1295 H1281 0.931 . S
C1295 C1294 1.385 . S
C1295 C1296 1.389 . S
C1296 C1295 1.389 . S
C1296 C1297 1.387 . S
C1297 H1282 0.930 . S
C1297 C1292 1.390 . S
C1297 C1296 1.387 . S
H1298 C1310 0.930 . S
H1299 C1312 0.930 . S
H1300 C1313 0.930 . S
H1301 C1317 0.959 . S
H1302 C1317 0.959 . S
H1303 C1317 0.961 . S
H1304 C1318 0.960 . S
H1305 C1318 0.961 . S
H1306 C1318 0.959 . S
H1307 C1321 0.929 . S
H1308 C1322 0.931 . S
H1309 C1324 0.930 . S
C1310 H1298 0.930 . S
C1310 C1311 1.399 . S
C1310 C1315 1.399 . S
C1311 C1310 1.399 . S
C1311 C1312 1.376 1_565 S
C1312 H1299 0.930 . S
C1312 C1311 1.376 1_545 S
C1312 C1313 1.388 . S
C1313 H1300 0.930 . S
C1313 C1312 1.388 . S
C1313 C1314 1.390 . S
C1314 C1313 1.390 . S
C1314 C1315 1.394 1_545 S
C1314 C1320 1.465 . S
C1315 C1310 1.399 . S
C1315 C1314 1.394 1_565 S
C1315 C1316 1.516 . S
C1316 C1315 1.516 . S
C1316 C1317 1.502 . S
C1316 C1318 1.561 . S
C1316 C1319 1.526 . S
C1317 H1301 0.959 . S
C1317 H1302 0.959 . S
C1317 H1303 0.961 . S
C1317 C1316 1.502 . S
C1318 H1304 0.960 . S
C1318 H1305 0.961 . S
C1318 H1306 0.959 . S
C1318 C1316 1.561 . S
C1319 C1316 1.526 . S
C1319 C1320 1.396 1_565 S
C1319 C1324 1.390 . S
C1320 C1314 1.465 . S
C1320 C1319 1.396 1_545 S
C1320 C1321 1.399 . S
C1321 H1307 0.929 . S
C1321 C1320 1.399 . S
C1321 C1322 1.385 . S
C1322 H1308 0.931 . S
C1322 C1321 1.385 . S
C1322 C1323 1.389 . S
C1323 C1322 1.389 . S
C1323 C1324 1.387 1_545 S
C1324 H1309 0.930 . S
C1324 C1319 1.390 . S
C1324 C1323 1.387 1_565 S
H1325 C1337 0.930 . S
H1326 C1339 0.930 . S
H1327 C1340 0.930 . S
H1328 C1344 0.959 . S
H1329 C1344 0.959 . S
H1330 C1344 0.961 . S
H1331 C1345 0.960 . S
H1332 C1345 0.961 . S
H1333 C1345 0.959 . S
H1334 C1348 0.929 . S
H1335 C1349 0.931 . S
H1336 C1351 0.930 . S
C1337 H1325 0.930 . S
C1337 C1338 1.399 . S
C1337 C1342 1.399 . S
C1338 C1337 1.399 . S
C1338 C1339 1.376 . S
C1339 H1326 0.930 . S
C1339 C1338 1.376 . S
C1339 C1340 1.388 . S
C1340 H1327 0.930 . S
C1340 C1339 1.388 . S
C1340 C1341 1.390 . S
C1341 C1340 1.390 . S
C1341 C1342 1.394 . S
C1341 C1347 1.465 . S
C1342 C1337 1.399 . S
C1342 C1341 1.394 . S
C1342 C1343 1.516 . S
C1343 C1342 1.516 . S
C1343 C1344 1.502 . S
C1343 C1345 1.561 . S
C1343 C1346 1.526 . S
C1344 H1328 0.959 . S
C1344 H1329 0.959 . S
C1344 H1330 0.961 . S
C1344 C1343 1.502 . S
C1345 H1331 0.960 . S
C1345 H1332 0.961 . S
C1345 H1333 0.959 . S
C1345 C1343 1.561 . S
C1346 C1343 1.526 . S
C1346 C1347 1.396 . S
C1346 C1351 1.390 . S
C1347 C1341 1.465 . S
C1347 C1346 1.396 . S
C1347 C1348 1.399 . S
C1348 H1334 0.929 . S
C1348 C1347 1.399 . S
C1348 C1349 1.385 . S
C1349 H1335 0.931 . S
C1349 C1348 1.385 . S
C1349 C1350 1.389 . S
C1350 C1349 1.389 . S
C1350 C1351 1.387 . S
C1351 H1336 0.930 . S
C1351 C1346 1.390 . S
C1351 C1350 1.387 . S
H1352 C1364 0.930 . S
H1353 C1366 0.930 . S
H1354 C1367 0.930 . S
H1355 C1371 0.959 . S
H1356 C1371 0.959 . S
H1357 C1371 0.961 . S
H1358 C1372 0.960 . S
H1359 C1372 0.961 . S
H1360 C1372 0.959 . S
H1361 C1375 0.929 . S
H1362 C1376 0.931 . S
H1363 C1378 0.930 . S
C1364 H1352 0.930 . S
C1364 C1365 1.399 . S
C1364 C1369 1.399 . S
C1365 C1364 1.399 . S
C1365 C1366 1.376 1_554 S
C1366 H1353 0.930 . S
C1366 C1365 1.376 1_556 S
C1366 C1367 1.388 . S
C1367 H1354 0.930 . S
C1367 C1366 1.388 . S
C1367 C1368 1.390 . S
C1368 C1367 1.390 . S
C1368 C1369 1.394 1_556 S
C1368 C1374 1.465 . S
C1369 C1364 1.399 . S
C1369 C1368 1.394 1_554 S
C1369 C1370 1.516 . S
C1370 C1369 1.516 . S
C1370 C1371 1.502 . S
C1370 C1372 1.561 . S
C1370 C1373 1.526 . S
C1371 H1355 0.959 . S
C1371 H1356 0.959 . S
C1371 H1357 0.961 . S
C1371 C1370 1.502 . S
C1372 H1358 0.960 . S
C1372 H1359 0.961 . S
C1372 H1360 0.959 . S
C1372 C1370 1.561 . S
C1373 C1370 1.526 . S
C1373 C1374 1.396 1_554 S
C1373 C1378 1.390 . S
C1374 C1368 1.465 . S
C1374 C1373 1.396 1_556 S
C1374 C1375 1.399 . S
C1375 H1361 0.929 . S
C1375 C1374 1.399 . S
C1375 C1376 1.385 . S
C1376 H1362 0.931 . S
C1376 C1375 1.385 . S
C1376 C1377 1.389 1_556 S
C1377 C1376 1.389 1_554 S
C1377 C1378 1.387 . S
C1378 H1363 0.930 . S
C1378 C1373 1.390 . S
C1378 C1377 1.387 . S
H1379 C1391 0.930 . S
H1380 C1393 0.930 . S
H1381 C1394 0.930 . S
H1382 C1398 0.959 . S
H1383 C1398 0.959 . S
H1384 C1398 0.961 . S
H1385 C1399 0.960 . S
H1386 C1399 0.961 . S
H1387 C1399 0.959 . S
H1388 C1402 0.929 . S
H1389 C1403 0.931 . S
H1390 C1405 0.930 . S
C1391 H1379 0.930 . S
C1391 C1392 1.399 . S
C1391 C1396 1.399 . S
C1392 C1391 1.399 . S
C1392 C1393 1.376 . S
C1393 H1380 0.930 . S
C1393 C1392 1.376 . S
C1393 C1394 1.388 . S
C1394 H1381 0.930 . S
C1394 C1393 1.388 . S
C1394 C1395 1.390 . S
C1395 C1394 1.390 . S
C1395 C1396 1.394 . S
C1395 C1401 1.465 . S
C1396 C1391 1.399 . S
C1396 C1395 1.394 . S
C1396 C1397 1.516 . S
C1397 C1396 1.516 . S
C1397 C1398 1.502 . S
C1397 C1399 1.561 . S
C1397 C1400 1.526 . S
C1398 H1382 0.959 . S
C1398 H1383 0.959 . S
C1398 H1384 0.961 . S
C1398 C1397 1.502 . S
C1399 H1385 0.960 . S
C1399 H1386 0.961 . S
C1399 H1387 0.959 . S
C1399 C1397 1.561 . S
C1400 C1397 1.526 . S
C1400 C1401 1.396 . S
C1400 C1405 1.390 . S
C1401 C1395 1.465 . S
C1401 C1400 1.396 . S
C1401 C1402 1.399 . S
C1402 H1388 0.929 . S
C1402 C1401 1.399 . S
C1402 C1403 1.385 . S
C1403 H1389 0.931 . S
C1403 C1402 1.385 . S
C1403 C1404 1.389 . S
C1404 C1403 1.389 . S
C1404 C1405 1.387 . S
C1405 H1390 0.930 . S
C1405 C1400 1.390 . S
C1405 C1404 1.387 . S
H1406 C1418 0.930 . S
H1407 C1420 0.930 . S
H1408 C1421 0.930 . S
H1409 C1425 0.959 . S
H1410 C1425 0.959 . S
H1411 C1425 0.961 . S
H1412 C1426 0.960 . S
H1413 C1426 0.961 . S
H1414 C1426 0.959 . S
H1415 C1429 0.929 . S
H1416 C1430 0.931 . S
H1417 C1432 0.930 . S
C1418 H1406 0.930 . S
C1418 C1419 1.399 . S
C1418 C1423 1.399 . S
C1419 C1418 1.399 . S
C1419 C1420 1.376 . S
C1420 H1407 0.930 . S
C1420 C1419 1.376 . S
C1420 C1421 1.388 . S
C1421 H1408 0.930 . S
C1421 C1420 1.388 . S
C1421 C1422 1.390 . S
C1422 C1421 1.390 . S
C1422 C1423 1.394 . S
C1422 C1428 1.465 . S
C1423 C1418 1.399 . S
C1423 C1422 1.394 . S
C1423 C1424 1.516 . S
C1424 C1423 1.516 . S
C1424 C1425 1.502 . S
C1424 C1426 1.561 . S
C1424 C1427 1.526 . S
C1425 H1409 0.959 . S
C1425 H1410 0.959 . S
C1425 H1411 0.961 . S
C1425 C1424 1.502 . S
C1426 H1412 0.960 . S
C1426 H1413 0.961 . S
C1426 H1414 0.959 . S
C1426 C1424 1.561 . S
C1427 C1424 1.526 . S
C1427 C1428 1.396 . S
C1427 C1432 1.390 . S
C1428 C1422 1.465 . S
C1428 C1427 1.396 . S
C1428 C1429 1.399 . S
C1429 H1415 0.929 . S
C1429 C1428 1.399 . S
C1429 C1430 1.385 . S
C1430 H1416 0.931 . S
C1430 C1429 1.385 . S
C1430 C1431 1.389 . S
C1431 C1430 1.389 . S
C1431 C1432 1.387 . S
C1432 H1417 0.930 . S
C1432 C1427 1.390 . S
C1432 C1431 1.387 . S
H1433 C1445 0.930 . S
H1434 C1447 0.930 . S
H1435 C1448 0.930 . S
H1436 C1452 0.959 . S
H1437 C1452 0.959 . S
H1438 C1452 0.961 . S
H1439 C1453 0.960 . S
H1440 C1453 0.961 . S
H1441 C1453 0.959 . S
H1442 C1456 0.929 . S
H1443 C1457 0.931 . S
H1444 C1459 0.930 . S
C1445 H1433 0.930 . S
C1445 C1446 1.399 . S
C1445 C1450 1.399 . S
C1446 C1445 1.399 . S
C1446 C1447 1.376 . S
C1447 H1434 0.930 . S
C1447 C1446 1.376 . S
C1447 C1448 1.388 . S
C1448 H1435 0.930 . S
C1448 C1447 1.388 . S
C1448 C1449 1.390 . S
C1449 C1448 1.390 . S
C1449 C1450 1.394 . S
C1449 C1455 1.465 . S
C1450 C1445 1.399 . S
C1450 C1449 1.394 . S
C1450 C1451 1.516 . S
C1451 C1450 1.516 . S
C1451 C1452 1.502 . S
C1451 C1453 1.561 . S
C1451 C1454 1.526 . S
C1452 H1436 0.959 . S
C1452 H1437 0.959 . S
C1452 H1438 0.961 . S
C1452 C1451 1.502 . S
C1453 H1439 0.960 . S
C1453 H1440 0.961 . S
C1453 H1441 0.959 . S
C1453 C1451 1.561 . S
C1454 C1451 1.526 . S
C1454 C1455 1.396 . S
C1454 C1459 1.390 . S
C1455 C1449 1.465 . S
C1455 C1454 1.396 . S
C1455 C1456 1.399 . S
C1456 H1442 0.929 . S
C1456 C1455 1.399 . S
C1456 C1457 1.385 . S
C1457 H1443 0.931 . S
C1457 C1456 1.385 . S
C1457 C1458 1.389 . S
C1458 C1457 1.389 . S
C1458 C1459 1.387 . S
C1459 H1444 0.930 . S
C1459 C1454 1.390 . S
C1459 C1458 1.387 . S
H1460 C1472 0.930 . S
H1461 C1474 0.930 . S
H1462 C1475 0.930 . S
H1463 C1479 0.959 . S
H1464 C1479 0.959 . S
H1465 C1479 0.961 . S
H1466 C1480 0.960 . S
H1467 C1480 0.961 . S
H1468 C1480 0.959 . S
H1469 C1483 0.929 . S
H1470 C1484 0.931 . S
H1471 C1486 0.930 . S
C1472 H1460 0.930 . S
C1472 C1473 1.399 . S
C1472 C1477 1.399 . S
C1473 C1472 1.399 . S
C1473 C1474 1.376 . S
C1474 H1461 0.930 . S
C1474 C1473 1.376 . S
C1474 C1475 1.388 . S
C1475 H1462 0.930 . S
C1475 C1474 1.388 . S
C1475 C1476 1.390 . S
C1476 C1475 1.390 . S
C1476 C1477 1.394 . S
C1476 C1482 1.465 . S
C1477 C1472 1.399 . S
C1477 C1476 1.394 . S
C1477 C1478 1.516 . S
C1478 C1477 1.516 . S
C1478 C1479 1.502 . S
C1478 C1480 1.561 . S
C1478 C1481 1.526 . S
C1479 H1463 0.959 . S
C1479 H1464 0.959 . S
C1479 H1465 0.961 . S
C1479 C1478 1.502 . S
C1480 H1466 0.960 . S
C1480 H1467 0.961 . S
C1480 H1468 0.959 . S
C1480 C1478 1.561 . S
C1481 C1478 1.526 . S
C1481 C1482 1.396 . S
C1481 C1486 1.390 . S
C1482 C1476 1.465 . S
C1482 C1481 1.396 . S
C1482 C1483 1.399 . S
C1483 H1469 0.929 . S
C1483 C1482 1.399 . S
C1483 C1484 1.385 . S
C1484 H1470 0.931 . S
C1484 C1483 1.385 . S
C1484 C1485 1.389 . S
C1485 C1484 1.389 . S
C1485 C1486 1.387 . S
C1486 H1471 0.930 . S
C1486 C1481 1.390 . S
C1486 C1485 1.387 . S
H1487 C1499 0.930 . S
H1488 C1501 0.930 . S
H1489 C1502 0.930 . S
H1490 C1506 0.959 . S
H1491 C1506 0.959 . S
H1492 C1506 0.961 . S
H1493 C1507 0.960 . S
H1494 C1507 0.961 . S
H1495 C1507 0.959 . S
H1496 C1510 0.929 . S
H1497 C1511 0.931 . S
H1498 C1513 0.930 . S
C1499 H1487 0.930 . S
C1499 C1500 1.399 . S
C1499 C1504 1.399 . S
C1500 C1499 1.399 . S
C1500 C1501 1.376 . S
C1501 H1488 0.930 . S
C1501 C1500 1.376 . S
C1501 C1502 1.388 . S
C1502 H1489 0.930 . S
C1502 C1501 1.388 . S
C1502 C1503 1.390 . S
C1503 C1502 1.390 . S
C1503 C1504 1.394 . S
C1503 C1509 1.465 . S
C1504 C1499 1.399 . S
C1504 C1503 1.394 . S
C1504 C1505 1.516 . S
C1505 C1504 1.516 . S
C1505 C1506 1.502 . S
C1505 C1507 1.561 . S
C1505 C1508 1.526 . S
C1506 H1490 0.959 . S
C1506 H1491 0.959 . S
C1506 H1492 0.961 . S
C1506 C1505 1.502 . S
C1507 H1493 0.960 . S
C1507 H1494 0.961 . S
C1507 H1495 0.959 . S
C1507 C1505 1.561 . S
C1508 C1505 1.526 . S
C1508 C1509 1.396 . S
C1508 C1513 1.390 . S
C1509 C1503 1.465 . S
C1509 C1508 1.396 . S
C1509 C1510 1.399 . S
C1510 H1496 0.929 . S
C1510 C1509 1.399 . S
C1510 C1511 1.385 . S
C1511 H1497 0.931 . S
C1511 C1510 1.385 . S
C1511 C1512 1.389 . S
C1512 C1511 1.389 . S
C1512 C1513 1.387 . S
C1513 H1498 0.930 . S
C1513 C1508 1.390 . S
C1513 C1512 1.387 . S
H1514 C1526 0.930 . S
H1515 C1528 0.930 . S
H1516 C1529 0.930 . S
H1517 C1533 0.959 . S
H1518 C1533 0.959 . S
H1519 C1533 0.961 . S
H1520 C1534 0.960 . S
H1521 C1534 0.961 . S
H1522 C1534 0.959 . S
H1523 C1537 0.929 . S
H1524 C1538 0.931 . S
H1525 C1540 0.930 . S
C1526 H1514 0.930 . S
C1526 C1527 1.399 . S
C1526 C1531 1.399 . S
C1527 C1526 1.399 . S
C1527 C1528 1.376 . S
C1528 H1515 0.930 . S
C1528 C1527 1.376 . S
C1528 C1529 1.388 . S
C1529 H1516 0.930 . S
C1529 C1528 1.388 . S
C1529 C1530 1.390 . S
C1530 C1529 1.390 . S
C1530 C1531 1.394 . S
C1530 C1536 1.465 . S
C1531 C1526 1.399 . S
C1531 C1530 1.394 . S
C1531 C1532 1.516 . S
C1532 C1531 1.516 . S
C1532 C1533 1.502 . S
C1532 C1534 1.561 . S
C1532 C1535 1.526 . S
C1533 H1517 0.959 . S
C1533 H1518 0.959 . S
C1533 H1519 0.961 . S
C1533 C1532 1.502 . S
C1534 H1520 0.960 . S
C1534 H1521 0.961 . S
C1534 H1522 0.959 . S
C1534 C1532 1.561 . S
C1535 C1532 1.526 . S
C1535 C1536 1.396 . S
C1535 C1540 1.390 . S
C1536 C1530 1.465 . S
C1536 C1535 1.396 . S
C1536 C1537 1.399 . S
C1537 H1523 0.929 . S
C1537 C1536 1.399 . S
C1537 C1538 1.385 . S
C1538 H1524 0.931 . S
C1538 C1537 1.385 . S
C1538 C1539 1.389 . S
C1539 C1538 1.389 . S
C1539 C1540 1.387 . S
C1540 H1525 0.930 . S
C1540 C1535 1.390 . S
C1540 C1539 1.387 . S
H1541 C1553 0.930 . S
H1542 C1555 0.930 . S
H1543 C1556 0.930 . S
H1544 C1560 0.959 . S
H1545 C1560 0.959 . S
H1546 C1560 0.961 . S
H1547 C1561 0.960 . S
H1548 C1561 0.961 . S
H1549 C1561 0.959 . S
H1550 C1564 0.929 . S
H1551 C1565 0.931 . S
H1552 C1567 0.930 . S
C1553 H1541 0.930 . S
C1553 C1554 1.399 . S
C1553 C1558 1.399 . S
C1554 C1553 1.399 . S
C1554 C1555 1.376 . S
C1555 H1542 0.930 . S
C1555 C1554 1.376 . S
C1555 C1556 1.388 . S
C1556 H1543 0.930 . S
C1556 C1555 1.388 . S
C1556 C1557 1.390 . S
C1557 C1556 1.390 . S
C1557 C1558 1.394 . S
C1557 C1563 1.465 . S
C1558 C1553 1.399 . S
C1558 C1557 1.394 . S
C1558 C1559 1.516 . S
C1559 C1558 1.516 . S
C1559 C1560 1.502 . S
C1559 C1561 1.561 . S
C1559 C1562 1.526 . S
C1560 H1544 0.959 . S
C1560 H1545 0.959 . S
C1560 H1546 0.961 . S
C1560 C1559 1.502 . S
C1561 H1547 0.960 . S
C1561 H1548 0.961 . S
C1561 H1549 0.959 . S
C1561 C1559 1.561 . S
C1562 C1559 1.526 . S
C1562 C1563 1.396 . S
C1562 C1567 1.390 . S
C1563 C1557 1.465 . S
C1563 C1562 1.396 . S
C1563 C1564 1.399 . S
C1564 H1550 0.929 . S
C1564 C1563 1.399 . S
C1564 C1565 1.385 . S
C1565 H1551 0.931 . S
C1565 C1564 1.385 . S
C1565 C1566 1.389 . S
C1566 C1565 1.389 . S
C1566 C1567 1.387 . S
C1567 H1552 0.930 . S
C1567 C1562 1.390 . S
C1567 C1566 1.387 . S
H1568 C1580 0.930 . S
H1569 C1582 0.930 . S
H1570 C1583 0.930 . S
H1571 C1587 0.959 . S
H1572 C1587 0.959 . S
H1573 C1587 0.961 . S
H1574 C1588 0.960 . S
H1575 C1588 0.961 . S
H1576 C1588 0.959 . S
H1577 C1591 0.929 . S
H1578 C1592 0.931 . S
H1579 C1594 0.930 . S
C1580 H1568 0.930 . S
C1580 C1581 1.399 . S
C1580 C1585 1.399 . S
C1581 C1580 1.399 . S
C1581 C1582 1.376 . S
C1582 H1569 0.930 . S
C1582 C1581 1.376 . S
C1582 C1583 1.388 . S
C1583 H1570 0.930 . S
C1583 C1582 1.388 . S
C1583 C1584 1.390 . S
C1584 C1583 1.390 . S
C1584 C1585 1.394 . S
C1584 C1590 1.465 . S
C1585 C1580 1.399 . S
C1585 C1584 1.394 . S
C1585 C1586 1.516 . S
C1586 C1585 1.516 . S
C1586 C1587 1.502 . S
C1586 C1588 1.561 . S
C1586 C1589 1.526 . S
C1587 H1571 0.959 . S
C1587 H1572 0.959 . S
C1587 H1573 0.961 . S
C1587 C1586 1.502 . S
C1588 H1574 0.960 . S
C1588 H1575 0.961 . S
C1588 H1576 0.959 . S
C1588 C1586 1.561 . S
C1589 C1586 1.526 . S
C1589 C1590 1.396 . S
C1589 C1594 1.390 . S
C1590 C1584 1.465 . S
C1590 C1589 1.396 . S
C1590 C1591 1.399 . S
C1591 H1577 0.929 . S
C1591 C1590 1.399 . S
C1591 C1592 1.385 . S
C1592 H1578 0.931 . S
C1592 C1591 1.385 . S
C1592 C1593 1.389 . S
C1593 C1592 1.389 . S
C1593 C1594 1.387 . S
C1594 H1579 0.930 . S
C1594 C1589 1.390 . S
C1594 C1593 1.387 . S
H1595 C1607 0.930 . S
H1596 C1609 0.930 . S
H1597 C1610 0.930 . S
H1598 C1614 0.959 . S
H1599 C1614 0.959 . S
H1600 C1614 0.961 . S
H1601 C1615 0.960 . S
H1602 C1615 0.961 . S
H1603 C1615 0.959 . S
H1604 C1618 0.929 . S
H1605 C1619 0.931 . S
H1606 C1621 0.930 . S
C1607 H1595 0.930 . S
C1607 C1608 1.399 1_545 S
C1607 C1612 1.399 . S
C1608 C1607 1.399 1_565 S
C1608 C1609 1.376 . S
C1609 H1596 0.930 . S
C1609 C1608 1.376 . S
C1609 C1610 1.388 . S
C1610 H1597 0.930 . S
C1610 C1609 1.388 . S
C1610 C1611 1.390 1_565 S
C1611 C1610 1.390 1_545 S
C1611 C1612 1.394 . S
C1611 C1617 1.465 . S
C1612 C1607 1.399 . S
C1612 C1611 1.394 . S
C1612 C1613 1.516 . S
C1613 C1612 1.516 . S
C1613 C1614 1.502 . S
C1613 C1615 1.561 . S
C1613 C1616 1.526 . S
C1614 H1598 0.959 . S
C1614 H1599 0.959 . S
C1614 H1600 0.961 . S
C1614 C1613 1.502 . S
C1615 H1601 0.960 . S
C1615 H1602 0.961 . S
C1615 H1603 0.959 . S
C1615 C1613 1.561 . S
C1616 C1613 1.526 . S
C1616 C1617 1.396 . S
C1616 C1621 1.390 . S
C1617 C1611 1.465 . S
C1617 C1616 1.396 . S
C1617 C1618 1.399 . S
C1618 H1604 0.929 . S
C1618 C1617 1.399 . S
C1618 C1619 1.385 . S
C1619 H1605 0.931 . S
C1619 C1618 1.385 . S
C1619 C1620 1.389 . S
C1620 C1619 1.389 . S
C1620 C1621 1.387 . S
C1621 H1606 0.930 . S
C1621 C1616 1.390 . S
C1621 C1620 1.387 . S
H1622 C1634 0.930 . S
H1623 C1636 0.930 . S
H1624 C1637 0.930 . S
H1625 C1641 0.959 . S
H1626 C1641 0.959 . S
H1627 C1641 0.961 . S
H1628 C1642 0.960 . S
H1629 C1642 0.961 . S
H1630 C1642 0.959 . S
H1631 C1645 0.929 . S
H1632 C1646 0.931 . S
H1633 C1648 0.930 . S
C1634 H1622 0.930 . S
C1634 C1635 1.399 . S
C1634 C1639 1.399 . S
C1635 C1634 1.399 . S
C1635 C1636 1.376 . S
C1636 H1623 0.930 . S
C1636 C1635 1.376 . S
C1636 C1637 1.388 . S
C1637 H1624 0.930 . S
C1637 C1636 1.388 . S
C1637 C1638 1.390 . S
C1638 C1637 1.390 . S
C1638 C1639 1.394 . S
C1638 C1644 1.465 . S
C1639 C1634 1.399 . S
C1639 C1638 1.394 . S
C1639 C1640 1.516 . S
C1640 C1639 1.516 . S
C1640 C1641 1.502 . S
C1640 C1642 1.561 . S
C1640 C1643 1.526 . S
C1641 H1625 0.959 . S
C1641 H1626 0.959 . S
C1641 H1627 0.961 . S
C1641 C1640 1.502 . S
C1642 H1628 0.960 . S
C1642 H1629 0.961 . S
C1642 H1630 0.959 . S
C1642 C1640 1.561 . S
C1643 C1640 1.526 . S
C1643 C1644 1.396 . S
C1643 C1648 1.390 . S
C1644 C1638 1.465 . S
C1644 C1643 1.396 . S
C1644 C1645 1.399 . S
C1645 H1631 0.929 . S
C1645 C1644 1.399 . S
C1645 C1646 1.385 . S
C1646 H1632 0.931 . S
C1646 C1645 1.385 . S
C1646 C1647 1.389 . S
C1647 C1646 1.389 . S
C1647 C1648 1.387 . S
C1648 H1633 0.930 . S
C1648 C1643 1.390 . S
C1648 C1647 1.387 . S
H1649 C1661 0.930 . S
H1650 C1663 0.930 . S
H1651 C1664 0.930 . S
H1652 C1668 0.959 . S
H1653 C1668 0.959 . S
H1654 C1668 0.961 . S
H1655 C1669 0.960 . S
H1656 C1669 0.961 1_554 S
H1657 C1669 0.962 1_565 S
H1658 C1672 0.929 . S
H1659 C1673 0.931 . S
H1660 C1675 0.935 1_554 S
C1661 H1649 0.930 . S
C1661 C1662 1.399 . S
C1661 C1666 1.399 . S
C1662 C1661 1.399 . S
C1662 C1663 1.376 1_545 S
C1663 H1650 0.930 . S
C1663 C1662 1.376 1_565 S
C1663 C1664 1.388 . S
C1664 H1651 0.930 . S
C1664 C1663 1.388 . S
C1664 C1665 1.390 . S
C1665 C1664 1.390 . S
C1665 C1666 1.394 1_565 S
C1665 C1671 1.465 . S
C1666 C1661 1.399 . S
C1666 C1665 1.394 1_545 S
C1666 C1667 1.516 . S
C1667 C1666 1.516 . S
C1667 C1668 1.502 . S
C1667 C1669 1.561 . S
C1667 C1670 1.521 1_545 S
C1668 H1652 0.959 . S
C1668 H1653 0.959 . S
C1668 H1654 0.961 . S
C1668 C1667 1.502 . S
C1669 H1655 0.960 . S
C1669 H1656 0.961 1_556 S
C1669 H1657 0.962 1_545 S
C1669 C1667 1.561 . S
C1670 C1667 1.521 1_565 S
C1670 C1671 1.403 . S
C1670 C1675 1.388 1_565 S
C1671 C1665 1.465 . S
C1671 C1670 1.403 . S
C1671 C1672 1.399 . S
C1672 H1658 0.929 . S
C1672 C1671 1.399 . S
C1672 C1673 1.385 . S
C1673 H1659 0.931 . S
C1673 C1672 1.385 . S
C1673 C1674 1.389 . S
C1674 C1673 1.389 . S
C1674 C1675 1.382 1_565 S
C1675 H1660 0.935 1_556 S
C1675 C1670 1.388 1_545 S
C1675 C1674 1.382 1_545 S
H1676 C1688 0.930 . S
H1677 C1690 0.930 . S
H1678 C1691 0.930 . S
H1679 C1695 0.959 . S
H1680 C1695 0.959 . S
H1681 C1695 0.961 . S
H1682 C1696 0.960 . S
H1683 C1696 0.961 . S
H1684 C1696 0.959 . S
H1685 C1699 0.929 . S
H1686 C1700 0.931 . S
H1687 C1702 0.930 . S
C1688 H1676 0.930 . S
C1688 C1689 1.399 . S
C1688 C1693 1.399 . S
C1689 C1688 1.399 . S
C1689 C1690 1.376 . S
C1690 H1677 0.930 . S
C1690 C1689 1.376 . S
C1690 C1691 1.388 . S
C1691 H1678 0.930 . S
C1691 C1690 1.388 . S
C1691 C1692 1.390 . S
C1692 C1691 1.390 . S
C1692 C1693 1.394 . S
C1692 C1698 1.465 . S
C1693 C1688 1.399 . S
C1693 C1692 1.394 . S
C1693 C1694 1.516 . S
C1694 C1693 1.516 . S
C1694 C1695 1.502 . S
C1694 C1696 1.561 . S
C1694 C1697 1.526 . S
C1695 H1679 0.959 . S
C1695 H1680 0.959 . S
C1695 H1681 0.961 . S
C1695 C1694 1.502 . S
C1696 H1682 0.960 . S
C1696 H1683 0.961 . S
C1696 H1684 0.959 . S
C1696 C1694 1.561 . S
C1697 C1694 1.526 . S
C1697 C1698 1.396 . S
C1697 C1702 1.390 . S
C1698 C1692 1.465 . S
C1698 C1697 1.396 . S
C1698 C1699 1.399 . S
C1699 H1685 0.929 . S
C1699 C1698 1.399 . S
C1699 C1700 1.385 . S
C1700 H1686 0.931 . S
C1700 C1699 1.385 . S
C1700 C1701 1.389 . S
C1701 C1700 1.389 . S
C1701 C1702 1.387 . S
C1702 H1687 0.930 . S
C1702 C1697 1.390 . S
C1702 C1701 1.387 . S
H1703 C1715 0.930 . S
H1704 C1717 0.930 . S
H1705 C1718 0.930 . S
H1706 C1722 0.959 . S
H1707 C1722 0.959 . S
H1708 C1722 0.961 . S
H1709 C1723 0.960 . S
H1710 C1723 0.961 . S
H1711 C1723 0.959 . S
H1712 C1726 0.929 . S
H1713 C1727 0.931 . S
H1714 C1729 0.930 . S
C1715 H1703 0.930 . S
C1715 C1716 1.399 1_554 S
C1715 C1720 1.399 . S
C1716 C1715 1.399 1_556 S
C1716 C1717 1.376 . S
C1717 H1704 0.930 . S
C1717 C1716 1.376 . S
C1717 C1718 1.388 . S
C1718 H1705 0.930 . S
C1718 C1717 1.388 . S
C1718 C1719 1.390 . S
C1719 C1718 1.390 . S
C1719 C1720 1.394 1_556 S
C1719 C1725 1.465 . S
C1720 C1715 1.399 . S
C1720 C1719 1.394 1_554 S
C1720 C1721 1.516 . S
C1721 C1720 1.516 . S
C1721 C1722 1.502 . S
C1721 C1723 1.561 . S
C1721 C1724 1.526 . S
C1722 H1706 0.959 . S
C1722 H1707 0.959 . S
C1722 H1708 0.961 . S
C1722 C1721 1.502 . S
C1723 H1709 0.960 . S
C1723 H1710 0.961 . S
C1723 H1711 0.959 . S
C1723 C1721 1.561 . S
C1724 C1721 1.526 . S
C1724 C1725 1.396 1_554 S
C1724 C1729 1.390 . S
C1725 C1719 1.465 . S
C1725 C1724 1.396 1_556 S
C1725 C1726 1.399 . S
C1726 H1712 0.929 . S
C1726 C1725 1.399 . S
C1726 C1727 1.385 . S
C1727 H1713 0.931 . S
C1727 C1726 1.385 . S
C1727 C1728 1.389 1_556 S
C1728 C1727 1.389 1_554 S
C1728 C1729 1.387 . S
C1729 H1714 0.930 . S
C1729 C1724 1.390 . S
C1729 C1728 1.387 . S
H1730 C1742 0.930 . S
H1731 C1744 0.930 . S
H1732 C1745 0.930 . S
H1733 C1749 0.959 . S
H1734 C1749 0.959 . S
H1735 C1749 0.961 . S
H1736 C1750 0.960 . S
H1737 C1750 0.961 . S
H1738 C1750 0.959 . S
H1739 C1753 0.929 . S
H1740 C1754 0.931 . S
H1741 C1756 0.930 . S
C1742 H1730 0.930 . S
C1742 C1743 1.399 1_554 S
C1742 C1747 1.399 . S
C1743 C1742 1.399 1_556 S
C1743 C1744 1.376 . S
C1744 H1731 0.930 . S
C1744 C1743 1.376 . S
C1744 C1745 1.388 . S
C1745 H1732 0.930 . S
C1745 C1744 1.388 . S
C1745 C1746 1.390 . S
C1746 C1745 1.390 . S
C1746 C1747 1.394 1_556 S
C1746 C1752 1.465 . S
C1747 C1742 1.399 . S
C1747 C1746 1.394 1_554 S
C1747 C1748 1.516 . S
C1748 C1747 1.516 . S
C1748 C1749 1.502 . S
C1748 C1750 1.561 . S
C1748 C1751 1.526 . S
C1749 H1733 0.959 . S
C1749 H1734 0.959 . S
C1749 H1735 0.961 . S
C1749 C1748 1.502 . S
C1750 H1736 0.960 . S
C1750 H1737 0.961 . S
C1750 H1738 0.959 . S
C1750 C1748 1.561 . S
C1751 C1748 1.526 . S
C1751 C1752 1.396 1_554 S
C1751 C1756 1.390 . S
C1752 C1746 1.465 . S
C1752 C1751 1.396 1_556 S
C1752 C1753 1.399 . S
C1753 H1739 0.929 . S
C1753 C1752 1.399 . S
C1753 C1754 1.385 . S
C1754 H1740 0.931 . S
C1754 C1753 1.385 . S
C1754 C1755 1.389 1_556 S
C1755 C1754 1.389 1_554 S
C1755 C1756 1.387 . S
C1756 H1741 0.930 . S
C1756 C1751 1.390 . S
C1756 C1755 1.387 . S
H1757 C1769 0.930 1_556 S
H1758 C1771 0.930 . S
H1759 C1772 0.930 . S
H1760 C1776 0.959 . S
H1761 C1776 0.959 . S
H1762 C1776 0.961 . S
H1763 C1777 0.960 1_556 S
H1764 C1777 0.961 . S
H1765 C1777 0.959 . S
H1766 C1780 0.929 . S
H1767 C1781 0.931 . S
H1768 C1783 0.930 . S
C1769 H1757 0.930 1_554 S
C1769 C1770 1.399 . S
C1769 C1774 1.399 . S
C1770 C1769 1.399 . S
C1770 C1771 1.376 . S
C1771 H1758 0.930 . S
C1771 C1770 1.376 . S
C1771 C1772 1.388 . S
C1772 H1759 0.930 . S
C1772 C1771 1.388 . S
C1772 C1773 1.390 . S
C1773 C1772 1.390 . S
C1773 C1774 1.394 . S
C1773 C1779 1.465 . S
C1774 C1769 1.399 . S
C1774 C1773 1.394 . S
C1774 C1775 1.516 . S
C1775 C1774 1.516 . S
C1775 C1776 1.502 1_554 S
C1775 C1777 1.561 . S
C1775 C1778 1.526 . S
C1776 H1760 0.959 . S
C1776 H1761 0.959 . S
C1776 H1762 0.961 . S
C1776 C1775 1.502 1_556 S
C1777 H1763 0.960 1_554 S
C1777 H1764 0.961 . S
C1777 H1765 0.959 . S
C1777 C1775 1.561 . S
C1778 C1775 1.526 . S
C1778 C1779 1.396 . S
C1778 C1783 1.390 . S
C1779 C1773 1.465 . S
C1779 C1778 1.396 . S
C1779 C1780 1.399 . S
C1780 H1766 0.929 . S
C1780 C1779 1.399 . S
C1780 C1781 1.385 . S
C1781 H1767 0.931 . S
C1781 C1780 1.385 . S
C1781 C1782 1.389 . S
C1782 C1781 1.389 . S
C1782 C1783 1.387 . S
C1783 H1768 0.930 . S
C1783 C1778 1.390 . S
C1783 C1782 1.387 . S
C501 C13 2.340 . S
C513 C267 2.144 . S
C540 C296 2.981 . S
C528 C1 2.976 . S
C567 C173 1.245 . S
C555 C27 1.170 . S
C582 C15 1.545 . S
C594 C217 1.543 . S
C609 C28 3.160 . S
C621 C467 3.057 . S
C636 C55 1.705 . S
C648 C413 1.679 . S
C675 C346 2.639 . S
C663 C40 2.707 1_545 S
C690 C43 0.758 . S
C702 C376 0.833 . S
C729 C223 1.677 . S
C717 C56 1.767 . S
C756 C293 2.166 . S
C744 C83 2.176 . S
C771 C96 1.919 . S
C783 C256 1.920 . S
C798 C71 1.783 . S
C810 C387 1.725 . S
C837 C427 2.331 . S
C825 C99 2.534 . S
C864 C456 2.685 1_565 S
C852 C111 2.679 . S
C879 C113 1.193 . S
C891 C373 1.260 . S
C918 C337 1.775 . S
C906 C125 1.776 . S
C933 C139 2.884 . S
C945 C307 2.816 . S
C960 C153 1.571 . S
C972 C253 1.583 . S
C999 C226 2.733 . S
C987 C127 2.802 . S
C1014 C141 1.008 . S
C1026 C176 1.064 . S
C1053 C343 1.603 . S
C1041 C84 1.619 . S
C1080 C453 2.045 1_554 S
C1068 C154 2.030 . S
C1095 C68 1.572 . S
C1107 C416 1.618 . S
C1122 C166 1.785 . S
C1134 C187 1.715 . S
C1161 C186 1.372 . S
C1149 C0 1.426 . S
C1176 C12 2.098 . S
C1188 C216 1.935 1_455 S
C1215 C263 1.212 . S
C1203 C14 1.492 . S
C1242 C297 1.826 . S
C1230 C26 1.893 . S
C1257 C41 1.968 . S
C1269 C177 1.935 . S
C1284 C42 1.740 . S
C1296 C213 1.519 . S
C1323 C266 1.163 . S
C1311 C29 1.234 . S
C1338 C54 1.002 . S
C1350 C303 0.830 . S
C1365 C69 1.479 . S
C1377 C183 1.408 . S
C1404 C257 2.455 . S
C1392 C70 2.492 . S
C1419 C85 2.052 . S
C1431 C306 1.826 . S
C1446 C82 0.964 . S
C1458 C347 0.996 . S
C1485 C386 1.249 . S
C1473 C110 1.314 . S
C1500 C98 2.133 . S
C1512 C336 1.900 . S
C1527 C124 1.459 . S
C1539 C423 1.211 . S
C1554 C112 2.016 . S
C1566 C457 1.877 . S
C1581 C126 2.143 . S
C1593 C377 2.094 . S
C1620 C333 1.497 . S
C1608 C140 1.718 . S
C1635 C138 1.145 . S
C1647 C426 1.024 . S
C1674 C463 0.881 1_556 S
C1662 C152 0.854 . S
C1701 C383 1.318 . S
C1689 C97 1.368 . S
C1728 C417 2.507 . S
C1716 C167 2.613 . S
C1755 C466 1.668 . S
C1743 C57 1.850 . S
C1770 C155 0.786 . S
C1782 C227 0.820 . S
