# Generated by pormake.
# Topology gar, (4,6)-cn, num edge types: 1
# Building blocks:
#     Node 0, Type 0, BuildingBlock: QUQFOY_clean_sbu_3, # of connection points: 4
#     Node 1, Type 0, BuildingBlock: QUQFOY_clean_sbu_3, # of connection points: 4
#     Node 2, Type 0, BuildingBlock: QUQFOY_clean_sbu_3, # of connection points: 4
#     Node 3, Type 0, BuildingBlock: QUQFOY_clean_sbu_3, # of connection points: 4
#     Node 4, Type 0, BuildingBlock: QUQFOY_clean_sbu_3, # of connection points: 4
#     Node 5, Type 0, BuildingBlock: QUQFOY_clean_sbu_3, # of connection points: 4
#     Node 6, Type 0, BuildingBlock: QUQFOY_clean_sbu_3, # of connection points: 4
#     Node 7, Type 0, BuildingBlock: QUQFOY_clean_sbu_3, # of connection points: 4
#     Node 8, Type 0, BuildingBlock: QUQFOY_clean_sbu_3, # of connection points: 4
#     Node 9, Type 0, BuildingBlock: QUQFOY_clean_sbu_3, # of connection points: 4
#     Node 10, Type 0, BuildingBlock: QUQFOY_clean_sbu_3, # of connection points: 4
#     Node 11, Type 0, BuildingBlock: QUQFOY_clean_sbu_3, # of connection points: 4
#     Node 12, Type 0, BuildingBlock: QUQFOY_clean_sbu_3, # of connection points: 4
#     Node 13, Type 0, BuildingBlock: QUQFOY_clean_sbu_3, # of connection points: 4
#     Node 14, Type 0, BuildingBlock: QUQFOY_clean_sbu_3, # of connection points: 4
#     Node 15, Type 0, BuildingBlock: QUQFOY_clean_sbu_3, # of connection points: 4
#     Node 16, Type 0, BuildingBlock: QUQFOY_clean_sbu_3, # of connection points: 4
#     Node 17, Type 0, BuildingBlock: QUQFOY_clean_sbu_3, # of connection points: 4
#     Node 18, Type 0, BuildingBlock: QUQFOY_clean_sbu_3, # of connection points: 4
#     Node 19, Type 0, BuildingBlock: QUQFOY_clean_sbu_3, # of connection points: 4
#     Node 20, Type 0, BuildingBlock: QUQFOY_clean_sbu_3, # of connection points: 4
#     Node 21, Type 0, BuildingBlock: QUQFOY_clean_sbu_3, # of connection points: 4
#     Node 22, Type 0, BuildingBlock: QUQFOY_clean_sbu_3, # of connection points: 4
#     Node 23, Type 0, BuildingBlock: QUQFOY_clean_sbu_3, # of connection points: 4
#     Node 24, Type 1, BuildingBlock: INOVEN_clean_sbu_0, # of connection points: 6
#     Node 25, Type 1, BuildingBlock: INOVEN_clean_sbu_0, # of connection points: 6
#     Node 26, Type 1, BuildingBlock: INOVEN_clean_sbu_0, # of connection points: 6
#     Node 27, Type 1, BuildingBlock: INOVEN_clean_sbu_0, # of connection points: 6
#     Node 28, Type 1, BuildingBlock: INOVEN_clean_sbu_0, # of connection points: 6
#     Node 29, Type 1, BuildingBlock: INOVEN_clean_sbu_0, # of connection points: 6
#     Node 30, Type 1, BuildingBlock: INOVEN_clean_sbu_0, # of connection points: 6
#     Node 31, Type 1, BuildingBlock: INOVEN_clean_sbu_0, # of connection points: 6
#     Node 32, Type 1, BuildingBlock: INOVEN_clean_sbu_0, # of connection points: 6
#     Node 33, Type 1, BuildingBlock: INOVEN_clean_sbu_0, # of connection points: 6
#     Node 34, Type 1, BuildingBlock: INOVEN_clean_sbu_0, # of connection points: 6
#     Node 35, Type 1, BuildingBlock: INOVEN_clean_sbu_0, # of connection points: 6
#     Node 36, Type 1, BuildingBlock: INOVEN_clean_sbu_0, # of connection points: 6
#     Node 37, Type 1, BuildingBlock: INOVEN_clean_sbu_0, # of connection points: 6
#     Node 38, Type 1, BuildingBlock: INOVEN_clean_sbu_0, # of connection points: 6
#     Node 39, Type 1, BuildingBlock: INOVEN_clean_sbu_0, # of connection points: 6
#     Edge 40, Type (0, 1), BuildingBlock: ZUJKAS_clean_linker_0, # of connection points: 2
#     Edge 41, Type (0, 1), BuildingBlock: ZUJKAS_clean_linker_0, # of connection points: 2
#     Edge 42, Type (0, 1), BuildingBlock: ZUJKAS_clean_linker_0, # of connection points: 2
#     Edge 43, Type (0, 1), BuildingBlock: ZUJKAS_clean_linker_0, # of connection points: 2
#     Edge 44, Type (0, 1), BuildingBlock: ZUJKAS_clean_linker_0, # of connection points: 2
#     Edge 45, Type (0, 1), BuildingBlock: ZUJKAS_clean_linker_0, # of connection points: 2
#     Edge 46, Type (0, 1), BuildingBlock: ZUJKAS_clean_linker_0, # of connection points: 2
#     Edge 47, Type (0, 1), BuildingBlock: ZUJKAS_clean_linker_0, # of connection points: 2
#     Edge 48, Type (0, 1), BuildingBlock: ZUJKAS_clean_linker_0, # of connection points: 2
#     Edge 49, Type (0, 1), BuildingBlock: ZUJKAS_clean_linker_0, # of connection points: 2
#     Edge 50, Type (0, 1), BuildingBlock: ZUJKAS_clean_linker_0, # of connection points: 2
#     Edge 51, Type (0, 1), BuildingBlock: ZUJKAS_clean_linker_0, # of connection points: 2
#     Edge 52, Type (0, 1), BuildingBlock: ZUJKAS_clean_linker_0, # of connection points: 2
#     Edge 53, Type (0, 1), BuildingBlock: ZUJKAS_clean_linker_0, # of connection points: 2
#     Edge 54, Type (0, 1), BuildingBlock: ZUJKAS_clean_linker_0, # of connection points: 2
#     Edge 55, Type (0, 1), BuildingBlock: ZUJKAS_clean_linker_0, # of connection points: 2
#     Edge 56, Type (0, 1), BuildingBlock: ZUJKAS_clean_linker_0, # of connection points: 2
#     Edge 57, Type (0, 1), BuildingBlock: ZUJKAS_clean_linker_0, # of connection points: 2
#     Edge 58, Type (0, 1), BuildingBlock: ZUJKAS_clean_linker_0, # of connection points: 2
#     Edge 59, Type (0, 1), BuildingBlock: ZUJKAS_clean_linker_0, # of connection points: 2
#     Edge 60, Type (0, 1), BuildingBlock: ZUJKAS_clean_linker_0, # of connection points: 2
#     Edge 61, Type (0, 1), BuildingBlock: ZUJKAS_clean_linker_0, # of connection points: 2
#     Edge 62, Type (0, 1), BuildingBlock: ZUJKAS_clean_linker_0, # of connection points: 2
#     Edge 63, Type (0, 1), BuildingBlock: ZUJKAS_clean_linker_0, # of connection points: 2
#     Edge 64, Type (0, 1), BuildingBlock: ZUJKAS_clean_linker_0, # of connection points: 2
#     Edge 65, Type (0, 1), BuildingBlock: ZUJKAS_clean_linker_0, # of connection points: 2
#     Edge 66, Type (0, 1), BuildingBlock: ZUJKAS_clean_linker_0, # of connection points: 2
#     Edge 67, Type (0, 1), BuildingBlock: ZUJKAS_clean_linker_0, # of connection points: 2
#     Edge 68, Type (0, 1), BuildingBlock: ZUJKAS_clean_linker_0, # of connection points: 2
#     Edge 69, Type (0, 1), BuildingBlock: ZUJKAS_clean_linker_0, # of connection points: 2
#     Edge 70, Type (0, 1), BuildingBlock: ZUJKAS_clean_linker_0, # of connection points: 2
#     Edge 71, Type (0, 1), BuildingBlock: ZUJKAS_clean_linker_0, # of connection points: 2
#     Edge 72, Type (0, 1), BuildingBlock: ZUJKAS_clean_linker_0, # of connection points: 2
#     Edge 73, Type (0, 1), BuildingBlock: ZUJKAS_clean_linker_0, # of connection points: 2
#     Edge 74, Type (0, 1), BuildingBlock: ZUJKAS_clean_linker_0, # of connection points: 2
#     Edge 75, Type (0, 1), BuildingBlock: ZUJKAS_clean_linker_0, # of connection points: 2
#     Edge 76, Type (0, 1), BuildingBlock: ZUJKAS_clean_linker_0, # of connection points: 2
#     Edge 77, Type (0, 1), BuildingBlock: ZUJKAS_clean_linker_0, # of connection points: 2
#     Edge 78, Type (0, 1), BuildingBlock: ZUJKAS_clean_linker_0, # of connection points: 2
#     Edge 79, Type (0, 1), BuildingBlock: ZUJKAS_clean_linker_0, # of connection points: 2
#     Edge 80, Type (0, 1), BuildingBlock: ZUJKAS_clean_linker_0, # of connection points: 2
#     Edge 81, Type (0, 1), BuildingBlock: ZUJKAS_clean_linker_0, # of connection points: 2
#     Edge 82, Type (0, 1), BuildingBlock: ZUJKAS_clean_linker_0, # of connection points: 2
#     Edge 83, Type (0, 1), BuildingBlock: ZUJKAS_clean_linker_0, # of connection points: 2
#     Edge 84, Type (0, 1), BuildingBlock: ZUJKAS_clean_linker_0, # of connection points: 2
#     Edge 85, Type (0, 1), BuildingBlock: ZUJKAS_clean_linker_0, # of connection points: 2
#     Edge 86, Type (0, 1), BuildingBlock: ZUJKAS_clean_linker_0, # of connection points: 2
#     Edge 87, Type (0, 1), BuildingBlock: ZUJKAS_clean_linker_0, # of connection points: 2
#     Edge 88, Type (0, 1), BuildingBlock: ZUJKAS_clean_linker_0, # of connection points: 2
#     Edge 89, Type (0, 1), BuildingBlock: ZUJKAS_clean_linker_0, # of connection points: 2
#     Edge 90, Type (0, 1), BuildingBlock: ZUJKAS_clean_linker_0, # of connection points: 2
#     Edge 91, Type (0, 1), BuildingBlock: ZUJKAS_clean_linker_0, # of connection points: 2
#     Edge 92, Type (0, 1), BuildingBlock: ZUJKAS_clean_linker_0, # of connection points: 2
#     Edge 93, Type (0, 1), BuildingBlock: ZUJKAS_clean_linker_0, # of connection points: 2
#     Edge 94, Type (0, 1), BuildingBlock: ZUJKAS_clean_linker_0, # of connection points: 2
#     Edge 95, Type (0, 1), BuildingBlock: ZUJKAS_clean_linker_0, # of connection points: 2
#     Edge 96, Type (0, 1), BuildingBlock: ZUJKAS_clean_linker_0, # of connection points: 2
#     Edge 97, Type (0, 1), BuildingBlock: ZUJKAS_clean_linker_0, # of connection points: 2
#     Edge 98, Type (0, 1), BuildingBlock: ZUJKAS_clean_linker_0, # of connection points: 2
#     Edge 99, Type (0, 1), BuildingBlock: ZUJKAS_clean_linker_0, # of connection points: 2
#     Edge 100, Type (0, 1), BuildingBlock: ZUJKAS_clean_linker_0, # of connection points: 2
#     Edge 101, Type (0, 1), BuildingBlock: ZUJKAS_clean_linker_0, # of connection points: 2
#     Edge 102, Type (0, 1), BuildingBlock: ZUJKAS_clean_linker_0, # of connection points: 2
#     Edge 103, Type (0, 1), BuildingBlock: ZUJKAS_clean_linker_0, # of connection points: 2
#     Edge 104, Type (0, 1), BuildingBlock: ZUJKAS_clean_linker_0, # of connection points: 2
#     Edge 105, Type (0, 1), BuildingBlock: ZUJKAS_clean_linker_0, # of connection points: 2
#     Edge 106, Type (0, 1), BuildingBlock: ZUJKAS_clean_linker_0, # of connection points: 2
#     Edge 107, Type (0, 1), BuildingBlock: ZUJKAS_clean_linker_0, # of connection points: 2
#     Edge 108, Type (0, 1), BuildingBlock: ZUJKAS_clean_linker_0, # of connection points: 2
#     Edge 109, Type (0, 1), BuildingBlock: ZUJKAS_clean_linker_0, # of connection points: 2
#     Edge 110, Type (0, 1), BuildingBlock: ZUJKAS_clean_linker_0, # of connection points: 2
#     Edge 111, Type (0, 1), BuildingBlock: ZUJKAS_clean_linker_0, # of connection points: 2
#     Edge 112, Type (0, 1), BuildingBlock: ZUJKAS_clean_linker_0, # of connection points: 2
#     Edge 113, Type (0, 1), BuildingBlock: ZUJKAS_clean_linker_0, # of connection points: 2
#     Edge 114, Type (0, 1), BuildingBlock: ZUJKAS_clean_linker_0, # of connection points: 2
#     Edge 115, Type (0, 1), BuildingBlock: ZUJKAS_clean_linker_0, # of connection points: 2
#     Edge 116, Type (0, 1), BuildingBlock: ZUJKAS_clean_linker_0, # of connection points: 2
#     Edge 117, Type (0, 1), BuildingBlock: ZUJKAS_clean_linker_0, # of connection points: 2
#     Edge 118, Type (0, 1), BuildingBlock: ZUJKAS_clean_linker_0, # of connection points: 2
#     Edge 119, Type (0, 1), BuildingBlock: ZUJKAS_clean_linker_0, # of connection points: 2
#     Edge 120, Type (0, 1), BuildingBlock: ZUJKAS_clean_linker_0, # of connection points: 2
#     Edge 121, Type (0, 1), BuildingBlock: ZUJKAS_clean_linker_0, # of connection points: 2
#     Edge 122, Type (0, 1), BuildingBlock: ZUJKAS_clean_linker_0, # of connection points: 2
#     Edge 123, Type (0, 1), BuildingBlock: ZUJKAS_clean_linker_0, # of connection points: 2
#     Edge 124, Type (0, 1), BuildingBlock: ZUJKAS_clean_linker_0, # of connection points: 2
#     Edge 125, Type (0, 1), BuildingBlock: ZUJKAS_clean_linker_0, # of connection points: 2
#     Edge 126, Type (0, 1), BuildingBlock: ZUJKAS_clean_linker_0, # of connection points: 2
#     Edge 127, Type (0, 1), BuildingBlock: ZUJKAS_clean_linker_0, # of connection points: 2
#     Edge 128, Type (0, 1), BuildingBlock: ZUJKAS_clean_linker_0, # of connection points: 2
#     Edge 129, Type (0, 1), BuildingBlock: ZUJKAS_clean_linker_0, # of connection points: 2
#     Edge 130, Type (0, 1), BuildingBlock: ZUJKAS_clean_linker_0, # of connection points: 2
#     Edge 131, Type (0, 1), BuildingBlock: ZUJKAS_clean_linker_0, # of connection points: 2
#     Edge 132, Type (0, 1), BuildingBlock: ZUJKAS_clean_linker_0, # of connection points: 2
#     Edge 133, Type (0, 1), BuildingBlock: ZUJKAS_clean_linker_0, # of connection points: 2
#     Edge 134, Type (0, 1), BuildingBlock: ZUJKAS_clean_linker_0, # of connection points: 2
#     Edge 135, Type (0, 1), BuildingBlock: ZUJKAS_clean_linker_0, # of connection points: 2
# Relax obj value: 0.150
# Max RMSD: 0.292
# Mean RMSD: 0.146
data_MOF--net-gar--node1-QUQFOY_clean_sbu_3--node2-INOVEN_clean_sbu_0--edge1-ZUJKAS_clean_linker_0
_symmetry_space_group_name_H-M    P1
_symmetry_Int_Tables_number       1
_symmetry_cell_setting            triclinic
loop_
_symmetry_equiv_pos_as_xyz
'x, y, z'
_cell_length_a     78.614996
_cell_length_b     74.118565
_cell_length_c     73.97679
_cell_angle_alpha  98.917107
_cell_angle_beta   94.765196
_cell_angle_gamma 102.59928
loop_
_atom_site_label
_atom_site_type_symbol
_atom_site_fract_x
_atom_site_fract_y
_atom_site_fract_z
_atom_type_partial_charge
C0 C 0.06024 0.31685 0.34853 0.0
O1 O 0.07068 0.32653 0.33952 0.0
Cd2 Cd 0.10082 0.33971 0.35087 0.0
O3 O 0.06556 0.31217 0.36345 0.0
Cd4 Cd 0.09156 0.31273 0.38425 0.0
C5 C 0.09474 0.35913 0.39506 0.0
O6 O 0.10736 0.31253 0.35945 0.0
O7 O 0.12289 0.31171 0.38463 0.0
O8 O 0.0731 0.28228 0.38334 0.0
C9 C 0.1221 0.31272 0.36766 0.0
O10 O 0.0984 0.36099 0.37887 0.0
C11 C 0.07855 0.28118 0.39966 0.0
O12 O 0.09186 0.3432 0.40008 0.0
O13 O 0.09016 0.29494 0.40894 0.0
C14 C 0.96876 0.74797 0.67201 0.0
O15 O 0.98003 0.74224 0.68147 0.0
Cd16 Cd 0.00728 0.73882 0.6733 0.0
O17 O 0.97168 0.75363 0.65696 0.0
Cd18 Cd 0.99562 0.75908 0.63861 0.0
C19 C 0.99247 0.71349 0.62928 0.0
O20 O 0.0174 0.76772 0.66396 0.0
O21 O 0.0268 0.76029 0.63793 0.0
O22 O 0.99352 0.79058 0.63803 0.0
C23 C 0.03024 0.76666 0.65507 0.0
O24 O 0.99931 0.71497 0.64581 0.0
C25 C 0.99401 0.78937 0.6208 0.0
O26 O 0.98888 0.72742 0.62299 0.0
O27 O 0.99333 0.77326 0.61146 0.0
C28 C 0.5596 0.81577 0.85226 0.0
O29 O 0.56913 0.82497 0.84216 0.0
Cd30 Cd 0.59937 0.83895 0.85093 0.0
O31 O 0.56583 0.81217 0.86735 0.0
Cd32 Cd 0.59279 0.81461 0.88753 0.0
C33 C 0.59375 0.86104 0.89433 0.0
O34 O 0.60781 0.81408 0.86235 0.0
O35 O 0.62475 0.81611 0.88743 0.0
O36 O 0.57928 0.78226 0.88512 0.0
C37 C 0.62308 0.8159 0.87018 0.0
O38 O 0.59664 0.86117 0.87764 0.0
C39 C 0.5807 0.78213 0.90229 0.0
O40 O 0.59202 0.84615 0.90131 0.0
O41 O 0.5882 0.79748 0.91305 0.0
C42 C 0.46395 0.24721 0.16778 0.0
O43 O 0.47367 0.24046 0.17812 0.0
Cd44 Cd 0.5031 0.23935 0.1749 0.0
O45 O 0.46916 0.2539 0.15391 0.0
Cd46 Cd 0.49495 0.25659 0.13841 0.0
C47 C 0.49501 0.2117 0.13221 0.0
O48 O 0.51577 0.26778 0.16558 0.0
O49 O 0.52601 0.25813 0.14064 0.0
O50 O 0.49155 0.28688 0.13331 0.0
C51 C 0.52896 0.26586 0.15746 0.0
O52 O 0.50188 0.21512 0.14892 0.0
C53 C 0.49513 0.28455 0.11684 0.0
O54 O 0.48874 0.22369 0.12492 0.0
O55 O 0.49684 0.26837 0.10982 0.0
C56 C 0.0402 0.79176 0.14168 0.0
O57 O 0.05028 0.78525 0.15189 0.0
Cd58 Cd 0.08012 0.78477 0.14861 0.0
O59 O 0.04602 0.80015 0.12882 0.0
Cd60 Cd 0.075 0.80841 0.1156 0.0
C61 C 0.07043 0.76157 0.10334 0.0
O62 O 0.09634 0.81413 0.14357 0.0
O63 O 0.10699 0.80854 0.1181 0.0
O64 O 0.06865 0.83915 0.11345 0.0
C65 C 0.10967 0.81218 0.13558 0.0
O66 O 0.07574 0.76221 0.12023 0.0
C67 C 0.07079 0.83888 0.09658 0.0
O68 O 0.0678 0.77622 0.09756 0.0
O69 O 0.07545 0.82464 0.08844 0.0
C70 C 0.47638 0.77041 0.37572 0.0
O71 O 0.4887 0.78163 0.37025 0.0
Cd72 Cd 0.51978 0.78805 0.3777 0.0
O73 O 0.47994 0.75996 0.3871 0.0
Cd74 Cd 0.50973 0.7591 0.40429 0.0
C75 C 0.51855 0.80527 0.42249 0.0
O76 O 0.52921 0.76015 0.37962 0.0
O77 O 0.54219 0.76905 0.40727 0.0
O78 O 0.50427 0.72527 0.40657 0.0
C79 C 0.54355 0.76506 0.39026 0.0
O80 O 0.52506 0.80814 0.40772 0.0
C81 C 0.50818 0.72803 0.42398 0.0
O82 O 0.51018 0.78901 0.42429 0.0
O83 O 0.51152 0.74498 0.43223 0.0
C84 C 0.5389 0.29137 0.64152 0.0
O85 O 0.54917 0.28428 0.65087 0.0
Cd86 Cd 0.57902 0.28411 0.64701 0.0
O87 O 0.54449 0.30039 0.62898 0.0
Cd88 Cd 0.57337 0.3082 0.61559 0.0
C89 C 0.57053 0.2621 0.60165 0.0
O90 O 0.5953 0.31387 0.64309 0.0
O91 O 0.60486 0.30647 0.61728 0.0
O92 O 0.57202 0.34078 0.6135 0.0
C93 C 0.6082 0.31119 0.63468 0.0
O94 O 0.57634 0.26227 0.61829 0.0
C95 C 0.57044 0.33856 0.59601 0.0
O96 O 0.56657 0.27656 0.59674 0.0
O97 O 0.57066 0.32235 0.58751 0.0
C98 C 0.97636 0.27047 0.87524 0.0
O99 O 0.9887 0.28101 0.86909 0.0
Cd100 Cd 0.01977 0.28796 0.87636 0.0
O101 O 0.97995 0.26079 0.8874 0.0
Cd102 Cd 0.00981 0.25979 0.90491 0.0
C103 C 0.02027 0.30663 0.92174 0.0
O104 O 0.02924 0.26067 0.88031 0.0
O105 O 0.0423 0.26916 0.908 0.0
O106 O 0.00824 0.22647 0.90655 0.0
C107 C 0.04359 0.26551 0.89093 0.0
O108 O 0.0248 0.30861 0.90591 0.0
C109 C 0.00832 0.22816 0.92391 0.0
O110 O 0.01297 0.29051 0.925 0.0
O111 O 0.00761 0.24417 0.93244 0.0
C112 C 0.45134 0.03078 0.30741 0.0
O113 O 0.46003 0.02635 0.29436 0.0
Cd114 Cd 0.45079 0.02127 0.26203 0.0
O115 O 0.43642 0.03434 0.30444 0.0
Cd116 Cd 0.41596 0.03498 0.27931 0.0
C117 C 0.41517 0.98897 0.26958 0.0
O118 O 0.43391 0.04286 0.25658 0.0
O119 O 0.40671 0.02973 0.24682 0.0
O120 O 0.41447 0.06535 0.29219 0.0
C121 C 0.42209 0.03598 0.24304 0.0
O122 O 0.42872 0.99254 0.26121 0.0
C123 C 0.39782 0.06189 0.28913 0.0
O124 O 0.4088 1.00176 0.27818 0.0
O125 O 0.3894 0.04477 0.28472 0.0
C126 C 0.30727 0.15627 0.5059 0.0
O127 O 0.2953 0.14673 0.51339 0.0
Cd128 Cd 0.26651 0.15079 0.51583 0.0
O129 O 0.30401 0.16885 0.49693 0.0
Cd130 Cd 0.27711 0.18176 0.48902 0.0
C131 C 0.28015 0.19801 0.5349 0.0
O132 O 0.2539 0.15287 0.48621 0.0
O133 O 0.24474 0.17823 0.48926 0.0
O134 O 0.28416 0.18259 0.45709 0.0
C135 C 0.24095 0.16044 0.48705 0.0
O136 O 0.27389 0.18101 0.5363 0.0
C137 C 0.28318 0.19948 0.45705 0.0
O138 O 0.28313 0.20272 0.51939 0.0
O139 O 0.27964 0.20825 0.4719 0.0
C140 C 0.13331 0.01818 0.80368 0.0
O141 O 0.12692 0.02868 0.79436 0.0
Cd142 Cd 0.1325 0.03391 0.7635 0.0
O143 O 0.14451 0.00937 0.79663 0.0
Cd144 Cd 0.16047 0.00712 0.76411 0.0
C145 C 0.17566 0.05848 0.76706 0.0
O146 O 0.13219 1.00536 0.74239 0.0
O147 O 0.15551 0.0073 0.72935 0.0
O148 O 0.16295 0.97213 0.7654 0.0
C149 C 0.13914 0.00639 0.72752 0.0
O150 O 0.15938 0.05836 0.76532 0.0
C151 C 0.17894 0.97339 0.76269 0.0
O152 O 0.18034 0.04285 0.76785 0.0
O153 O 0.18671 0.98989 0.76081 0.0
C154 C 0.33706 0.93794 0.01104 0.0
O155 O 0.33109 0.95179 0.01737 0.0
Cd156 Cd 0.30947 0.95035 0.99202 0.0
O157 O 0.32787 0.92599 0.99784 0.0
Cd158 Cd 0.2963 0.92269 1.00104 0.0
C159 C 0.30214 0.90959 0.96093 0.0
O160 O 0.28366 0.95041 0.0058 0.0
O161 O 0.26632 0.92342 0.9928 0.0
O162 O 0.30411 0.92642 0.03327 0.0
C163 C 0.26823 0.9403 1.00083 0.0
O164 O 0.30968 0.927 0.9643 0.0
C165 C 0.29862 0.90921 0.0341 0.0
O166 O 0.29356 0.90229 0.97278 0.0
O167 O 0.29086 0.89813 0.01941 0.0
C168 C 0.3356 0.42154 0.02769 0.0
O169 O 0.32605 0.43139 0.02127 0.0
Cd170 Cd 0.29549 0.42042 0.01092 0.0
O171 O 0.32859 0.40563 0.03179 0.0
Cd172 Cd 0.297 0.3871 0.03277 0.0
C173 C 0.29476 0.37592 0.98684 0.0
O174 O 0.27962 0.411 0.035 0.0
O175 O 0.26569 0.38317 0.02157 0.0
O176 O 0.29788 0.38588 0.06591 0.0
C177 C 0.26512 0.39992 0.02784 0.0
O178 O 0.29368 0.3929 0.9873 0.0
C179 C 0.29551 0.36818 0.06435 0.0
O180 O 0.2967 0.36945 0.0017 0.0
O181 O 0.29444 0.35905 0.04809 0.0
C182 C 0.80482 0.1193 0.01923 0.0
O183 O 0.79309 0.10853 0.02592 0.0
Cd184 Cd 0.76528 0.11613 0.02971 0.0
O185 O 0.80236 0.13452 0.01502 0.0
Cd186 Cd 0.78062 0.15223 0.01494 0.0
C187 C 0.77792 0.15814 0.05918 0.0
O188 O 0.75598 0.12656 0.0023 0.0
O189 O 0.75015 0.15266 0.01454 0.0
O190 O 0.78964 0.1582 0.98591 0.0
C191 C 0.74486 0.13654 0.0046 0.0
O192 O 0.76836 0.14148 0.05578 0.0
C193 C 0.78751 0.17483 0.98842 0.0
O194 O 0.7864 0.16509 0.04702 0.0
O195 O 0.78471 0.18173 0.00441 0.0
C196 C 0.12988 0.53942 0.26507 0.0
O197 O 0.11755 0.54064 0.25342 0.0
Cd198 Cd 0.12334 0.5454 0.22313 0.0
O199 O 0.1446 0.53761 0.26019 0.0
Cd200 Cd 0.16148 0.53324 0.23488 0.0
C201 C 0.16239 0.57875 0.23808 0.0
O202 O 0.13832 0.52229 0.21209 0.0
O203 O 0.16346 0.53161 0.2024 0.0
O204 O 0.16302 0.50455 0.24302 0.0
C205 C 0.14691 0.5258 0.19881 0.0
O206 O 0.14615 0.57474 0.23179 0.0
C207 C 0.17966 0.50799 0.24531 0.0
O208 O 0.17078 0.56633 0.2406 0.0
O209 O 0.18824 0.52379 0.24249 0.0
C210 C 0.83477 0.91862 0.52266 0.0
O211 O 0.82463 0.92432 0.51176 0.0
Cd212 Cd 0.79326 0.91576 0.50626 0.0
O213 O 0.82846 0.90648 0.53237 0.0
Cd214 Cd 0.79725 0.88755 0.5329 0.0
C215 C 0.79084 0.87042 0.48724 0.0
O216 O 0.78024 0.91174 0.53357 0.0
O217 O 0.76559 0.88349 0.52278 0.0
O218 O 0.79751 0.88641 0.56598 0.0
C219 C 0.76541 0.90057 0.528 0.0
O220 O 0.78669 0.88578 0.48548 0.0
C221 C 0.79572 0.86878 0.56439 0.0
O222 O 0.79721 0.86782 0.50279 0.0
O223 O 0.79529 0.85977 0.54822 0.0
C224 C 0.94879 0.05359 0.29114 0.0
O225 O 0.95494 0.04275 0.27982 0.0
Cd226 Cd 0.94558 0.0349 0.24719 0.0
O227 O 0.93697 0.06162 0.28499 0.0
Cd228 Cd 0.91946 0.06082 0.2511 0.0
C229 C 0.9038 0.0099 0.24872 0.0
O230 O 0.9464 0.06215 0.23223 0.0
O231 O 0.92177 0.05323 0.21555 0.0
O232 O 0.91728 0.09632 0.26042 0.0
C233 C 0.93838 0.05778 0.21593 0.0
O234 O 0.919 0.0094 0.24421 0.0
C235 C 0.90123 0.0948 0.25451 0.0
O236 O 0.90007 0.02611 0.25289 0.0
O237 O 0.89333 0.07797 0.24726 0.0
C238 C 0.30468 0.61812 0.52182 0.0
O239 O 0.2914 0.60691 0.5257 0.0
Cd240 Cd 0.26468 0.61698 0.52937 0.0
O241 O 0.30364 0.63392 0.51792 0.0
Cd242 Cd 0.28177 0.65103 0.51242 0.0
C243 C 0.27837 0.66123 0.55622 0.0
O244 O 0.25586 0.62659 0.50149 0.0
O245 O 0.25205 0.65413 0.51251 0.0
O246 O 0.28873 0.65016 0.48179 0.0
C247 C 0.24569 0.63772 0.50344 0.0
O248 O 0.2697 0.64422 0.55411 0.0
C249 C 0.28968 0.66745 0.48182 0.0
O250 O 0.28609 0.66751 0.54326 0.0
O251 O 0.28936 0.67777 0.49717 0.0
C252 C 0.44987 0.55595 0.79179 0.0
O253 O 0.45811 0.54728 0.78074 0.0
Cd254 Cd 0.44665 0.53531 0.74904 0.0
O255 O 0.43621 0.56115 0.7853 0.0
Cd256 Cd 0.41881 0.56052 0.75123 0.0
C257 C 0.4043 0.51034 0.75182 0.0
O258 O 0.44558 0.56098 0.73236 0.0
O259 O 0.42092 0.55326 0.71563 0.0
O260 O 0.41727 0.59635 0.75625 0.0
C261 C 0.43756 0.55683 0.71605 0.0
O262 O 0.42035 0.51036 0.75045 0.0
C263 C 0.40068 0.59455 0.75473 0.0
O264 O 0.39936 0.52592 0.75212 0.0
O265 O 0.39217 0.57741 0.75177 0.0
C266 C 0.62935 0.03701 0.76437 0.0
O267 O 0.61728 0.0383 0.75247 0.0
Cd268 Cd 0.62367 0.04459 0.7228 0.0
O269 O 0.64445 0.03608 0.76013 0.0
Cd270 Cd 0.66191 0.03381 0.73521 0.0
C271 C 0.65999 0.07898 0.74335 0.0
O272 O 0.64003 0.02313 0.71112 0.0
O273 O 0.66491 0.03719 0.70357 0.0
O274 O 0.66602 1.00461 0.73979 0.0
C275 C 0.64882 0.02905 0.69877 0.0
O276 O 0.64476 0.0749 0.73415 0.0
C277 C 0.68259 0.01006 0.7435 0.0
O278 O 0.66841 0.06657 0.74587 0.0
O279 O 0.68982 0.02717 0.74334 0.0
C280 C 0.80789 0.6561 0.00627 0.0
O281 O 0.79665 0.64645 0.01452 0.0
Cd282 Cd 0.76739 0.6488 0.01775 0.0
O283 O 0.80383 0.66825 0.99722 0.0
Cd284 Cd 0.77678 0.68089 0.99039 0.0
C285 C 0.78054 0.69624 0.03657 0.0
O286 O 0.7549 0.65133 0.98835 0.0
O287 O 0.74416 0.67547 0.98763 0.0
O288 O 0.78718 0.68411 0.96019 0.0
C289 C 0.74138 0.65798 0.98754 0.0
O290 O 0.77479 0.6791 0.03785 0.0
C291 C 0.78275 0.69948 0.95934 0.0
O292 O 0.78278 0.70125 0.02104 0.0
O293 O 0.77584 0.70633 0.9729 0.0
C294 C 0.95192 0.5302 0.80619 0.0
O295 O 0.96179 0.52651 0.79404 0.0
Cd296 Cd 0.95563 0.52356 0.76132 0.0
O297 O 0.93744 0.53439 0.80205 0.0
Cd298 Cd 0.91944 0.53867 0.77588 0.0
C299 C 0.91581 0.49246 0.75851 0.0
O300 O 0.94123 0.54755 0.757 0.0
O301 O 0.91457 0.54225 0.74426 0.0
O302 O 0.91437 0.56773 0.79012 0.0
C303 C 0.9307 0.54439 0.74232 0.0
O304 O 0.93174 0.49556 0.75519 0.0
C305 C 0.89773 0.56218 0.78694 0.0
O306 O 0.90901 0.50533 0.76622 0.0
O307 O 0.89132 0.5448 0.78066 0.0
C308 C 0.83476 0.43809 0.50939 0.0
O309 O 0.82852 0.45181 0.51549 0.0
Cd310 Cd 0.80609 0.44884 0.49027 0.0
O311 O 0.82557 0.42567 0.49659 0.0
Cd312 Cd 0.79461 0.42227 0.50192 0.0
C313 C 0.79929 0.40742 0.46121 0.0
O314 O 0.77994 0.44892 0.50328 0.0
O315 O 0.76406 0.42002 0.49612 0.0
O316 O 0.80444 0.42754 0.53416 0.0
C317 C 0.76496 0.43748 0.50078 0.0
O318 O 0.80556 0.42501 0.46283 0.0
C319 C 0.79918 0.41046 0.53573 0.0
O320 O 0.79249 0.40079 0.47442 0.0
O321 O 0.79071 0.39898 0.5216 0.0
C322 C 0.63112 0.51675 0.30299 0.0
O323 O 0.62316 0.52473 0.29212 0.0
Cd324 Cd 0.63154 0.53003 0.26227 0.0
O325 O 0.64422 0.51023 0.29737 0.0
Cd326 Cd 0.65981 0.50751 0.2644 0.0
C327 C 0.67369 0.55794 0.2665 0.0
O328 O 0.63164 0.50195 0.24082 0.0
O329 O 0.65571 0.5122 0.23061 0.0
O330 O 0.66313 0.47304 0.26697 0.0
C331 C 0.63918 0.50633 0.22702 0.0
O332 O 0.65718 0.55634 0.26347 0.0
C333 C 0.67858 0.47393 0.26256 0.0
O334 O 0.67928 0.54319 0.26894 0.0
O335 O 0.68576 0.49002 0.25916 0.0
Gd336 Gd 0.02369 0.0253 0.00132 0.0
Gd337 Gd 0.05771 0.0449 0.02322 0.0
C338 C 0.03667 0.07042 0.00448 0.0
C339 C 0.99077 0.01365 0.98963 0.0
C340 C 0.97626 0.02296 0.99067 0.0
C341 C 0.96429 0.02059 0.97488 0.0
C342 C 0.97581 0.03634 0.00617 0.0
C343 C 0.95139 0.04475 0.99007 0.0
C344 C 0.96334 0.04707 0.00592 0.0
C345 C 0.95194 0.03147 0.97455 0.0
C346 C 0.04816 0.02305 0.97664 0.0
C347 C 0.04466 0.99969 0.01986 0.0
C348 C 0.09082 0.05662 0.03429 0.0
C349 C 0.10514 0.04709 0.03277 0.0
C350 C 0.12023 0.05331 0.04558 0.0
C351 C 0.1026 0.03006 0.02045 0.0
C352 C 0.1299 0.02514 0.03427 0.0
C353 C 0.11489 0.01915 0.0212 0.0
C354 C 0.13259 0.04243 0.0463 0.0
C355 C 0.03329 0.04705 0.04806 0.0
O356 O 0.02316 0.05576 0.00173 0.0
O357 O 0.05229 0.06933 0.01136 0.0
O358 O 0.00245 0.0208 0.97959 0.0
O359 O 0.99769 0.0101 0.00505 0.0
O360 O 0.03169 0.01496 0.97364 0.0
O361 O 0.05152 0.03098 0.99366 0.0
O362 O 0.05813 0.0144 0.02283 0.0
O363 O 0.02904 1.00079 0.013 0.0
O364 O 0.07934 0.04956 0.04458 0.0
O365 O 0.08359 0.05997 0.01895 0.0
O366 O 0.04981 0.05499 0.05097 0.0
O367 O 0.02982 0.03913 0.03101 0.0
H368 H 0.9648 0.01065 0.96266 0.0
H369 H 0.98533 0.03879 0.01828 0.0
H370 H 0.96316 0.05737 0.01798 0.0
H371 H 0.94272 0.02939 0.96226 0.0
H372 H 0.12216 0.06627 0.05539 0.0
H373 H 0.0908 0.02489 0.01072 0.0
H374 H 0.11239 1.00579 0.01191 0.0
H375 H 0.14418 0.04748 0.05633 0.0
Gd376 Gd 0.29294 0.78197 0.24553 0.0
Gd377 Gd 0.28144 0.78991 0.28138 0.0
C378 C 0.29437 0.82452 0.26388 0.0
C379 C 0.30072 0.7805 0.21221 0.0
C380 C 0.30844 0.79457 0.20151 0.0
C381 C 0.32293 0.79215 0.1924 0.0
C382 C 0.30227 0.81092 0.20118 0.0
C383 C 0.32475 0.82202 0.18224 0.0
C384 C 0.31033 0.82451 0.19158 0.0
C385 C 0.33106 0.80578 0.18286 0.0
C386 C 0.31791 0.78409 0.27383 0.0
C387 C 0.28048 0.74717 0.26324 0.0
C388 C 0.27422 0.79207 0.31497 0.0
C389 C 0.26416 0.77895 0.32526 0.0
C390 C 0.25251 0.785 0.33684 0.0
C391 C 0.26554 0.76024 0.32309 0.0
C392 C 0.24446 0.75394 0.34481 0.0
C393 C 0.25577 0.74781 0.33274 0.0
C394 C 0.24275 0.77259 0.34662 0.0
C395 C 0.25613 0.78811 0.25338 0.0
O396 O 0.29193 0.81236 0.24838 0.0
O397 O 0.29465 0.81895 0.27984 0.0
O398 O 0.31131 0.77847 0.22585 0.0
O399 O 0.28491 0.78048 0.21651 0.0
O400 O 0.31443 0.77127 0.25921 0.0
O401 O 0.30809 0.79545 0.27309 0.0
O402 O 0.28177 0.75937 0.27855 0.0
O403 O 0.28108 0.75253 0.24718 0.0
O404 O 0.26493 0.79706 0.30205 0.0
O405 O 0.28886 0.7885 0.30988 0.0
O406 O 0.25937 0.80009 0.2686 0.0
O407 O 0.2661 0.77676 0.25361 0.0
H408 H 0.32799 0.7797 0.19273 0.0
H409 H 0.29116 0.81317 0.20821 0.0
H410 H 0.3049 0.83667 0.191 0.0
H411 H 0.34217 0.80354 0.17582 0.0
H412 H 0.25115 0.79938 0.33849 0.0
H413 H 0.27446 0.75533 0.31424 0.0
H414 H 0.25772 0.73366 0.33141 0.0
H415 H 0.23418 0.77765 0.3559 0.0
Gd416 Gd 0.5596 0.03536 0.51069 0.0
Gd417 Gd 0.51915 0.03133 0.51047 0.0
C418 C 0.53248 0.99375 0.50562 0.0
C419 C 0.59175 0.03232 0.51586 0.0
C420 C 0.60204 0.01773 0.51256 0.0
C421 C 0.61011 0.01523 0.49634 0.0
C422 C 0.60501 0.00713 0.5262 0.0
C423 C 0.62471 0.99278 0.50804 0.0
C424 C 0.61615 0.99479 0.52394 0.0
C425 C 0.62124 1.00282 0.49406 0.0
C426 C 0.5412 0.03304 0.47832 0.0
C427 C 0.54622 0.07291 0.51505 0.0
C428 C 0.48726 0.03488 0.50473 0.0
C429 C 0.47744 0.04976 0.50876 0.0
C430 C 0.4741 0.05613 0.52677 0.0
C431 C 0.47058 0.05716 0.49419 0.0
C432 C 0.45668 0.07647 0.51533 0.0
C433 C 0.46037 0.07032 0.49741 0.0
C434 C 0.46386 0.06933 0.53001 0.0
C435 C 0.53766 0.03447 0.54322 0.0
O436 O 0.54851 1.00445 0.51127 0.0
O437 O 0.51896 1.00104 0.50167 0.0
O438 O 0.58526 0.03786 0.50136 0.0
O439 O 0.58107 0.03098 0.52858 0.0
O440 O 0.5568 0.04386 0.48285 0.0
O441 O 0.53654 0.02376 0.4905 0.0
O442 O 0.53019 0.06218 0.50957 0.0
O443 O 0.55975 0.0657 0.51918 0.0
O444 O 0.49301 0.02797 0.51867 0.0
O445 O 0.49844 0.03711 0.49259 0.0
O446 O 0.52171 0.02433 0.53916 0.0
O447 O 0.54224 0.04305 0.53053 0.0
H448 H 0.60824 0.02326 0.4856 0.0
H449 H 0.59907 0.00869 0.53887 0.0
H450 H 0.61833 0.98706 0.53485 0.0
H451 H 0.62771 1.00172 0.48171 0.0
H452 H 0.47919 0.05075 0.53836 0.0
H453 H 0.47282 0.05245 0.48016 0.0
H454 H 0.45485 0.07516 0.48568 0.0
H455 H 0.46149 0.07386 0.54402 0.0
Gd456 Gd 0.27196 0.28946 0.76053 0.0
Gd457 Gd 0.30864 0.28151 0.76267 0.0
C458 C 0.29391 0.29151 0.80046 0.0
C459 C 0.24022 0.29277 0.76475 0.0
C460 C 0.22739 0.29279 0.77836 0.0
C461 C 0.21782 0.30676 0.77962 0.0
C462 C 0.22402 0.27904 0.78957 0.0
C463 C 0.20106 0.29285 0.8024 0.0
C464 C 0.211 0.27909 0.80149 0.0
C465 C 0.20487 0.30683 0.79149 0.0
C466 C 0.29836 0.31923 0.75625 0.0
C467 C 0.28546 0.27518 0.72292 0.0
C468 C 0.34168 0.28662 0.75859 0.0
C469 C 0.35296 0.28218 0.7441 0.0
C470 C 0.35747 0.26472 0.74054 0.0
C471 C 0.3601 0.29617 0.7342 0.0
C472 C 0.37641 0.27569 0.71787 0.0
C473 C 0.37158 0.29297 0.72127 0.0
C474 C 0.36905 0.26151 0.72756 0.0
C475 C 0.28437 0.24756 0.761 0.0
O476 O 0.27842 0.28905 0.79076 0.0
O477 O 0.30838 0.2911 0.79274 0.0
O478 O 0.25386 0.30699 0.76763 0.0
O479 O 0.24399 0.27684 0.75821 0.0
O480 O 0.28295 0.314 0.7467 0.0
O481 O 0.29915 0.30808 0.76768 0.0
O482 O 0.30109 0.2789 0.73246 0.0
O483 O 0.27119 0.27636 0.73085 0.0
O484 O 0.33347 0.27311 0.76649 0.0
O485 O 0.33212 0.29844 0.7554 0.0
O486 O 0.30128 0.24971 0.76194 0.0
O487 O 0.28135 0.26373 0.7609 0.0
H488 H 0.22022 0.31757 0.77119 0.0
H489 H 0.23124 0.26811 0.78892 0.0
H490 H 0.20837 0.26802 0.80958 0.0
H491 H 0.19778 0.31786 0.79203 0.0
H492 H 0.35227 0.25363 0.74795 0.0
H493 H 0.35711 0.30988 0.73672 0.0
H494 H 0.3772 0.3044 0.71445 0.0
H495 H 0.37235 0.24796 0.72523 0.0
Gd496 Gd 0.03738 0.05286 0.52073 0.0
Gd497 Gd 0.04341 0.01464 0.50325 0.0
C498 C 0.02805 0.0381 0.47505 0.0
C499 C 0.03561 0.08737 0.52732 0.0
C500 C 0.03627 0.1008 0.51475 0.0
C501 C 0.0272 0.11507 0.51759 0.0
C502 C 0.04485 0.09844 0.49896 0.0
C503 C 0.03597 0.1251 0.48931 0.0
C504 C 0.04471 0.1105 0.48634 0.0
C505 C 0.02707 0.12721 0.50494 0.0
C506 C 0.01207 0.02269 0.52351 0.0
C507 C 0.05544 0.03056 0.5482 0.0
C508 C 0.03868 0.97881 0.4961 0.0
C509 C 0.0428 0.96594 0.5081 0.0
C510 C 0.05192 0.95237 0.50191 0.0
C511 C 0.0382 0.96764 0.52613 0.0
C512 C 0.05049 0.94128 0.53115 0.0
C513 C 0.04191 0.95537 0.53748 0.0
C514 C 0.05578 0.94013 0.51338 0.0
C515 C 0.07329 0.04145 0.50336 0.0
O516 O 0.03061 0.05207 0.48948 0.0
O517 O 0.03144 0.02166 0.47698 0.0
O518 O 0.02166 0.07345 0.52383 0.0
O519 O 0.05022 0.08202 0.53074 0.0
O520 O 0.01751 0.03725 0.53653 0.0
O521 O 0.02002 0.02515 0.50961 0.0
O522 O 0.05197 0.01615 0.53416 0.0
O523 O 0.05214 0.047 0.54612 0.0
O524 O 0.05219 0.99008 0.49138 0.0
O525 O 0.02624 0.98718 0.50071 0.0
O526 O 0.07124 0.02383 0.49643 0.0
O527 O 0.05918 0.04373 0.5093 0.0
H528 H 0.02026 0.11682 0.52956 0.0
H529 H 0.05161 0.08721 0.49632 0.0
H530 H 0.05146 0.10842 0.47428 0.0
H531 H 0.02037 0.13849 0.50761 0.0
H532 H 0.05587 0.95112 0.48818 0.0
H533 H 0.03142 0.97822 0.53141 0.0
H534 H 0.03735 0.95646 0.55094 0.0
H535 H 0.06259 0.92954 0.50823 0.0
Gd536 Gd 0.30863 0.7998 0.75834 0.0
Gd537 Gd 0.274 0.7696 0.75935 0.0
C538 C 0.31064 0.75504 0.76167 0.0
C539 C 0.33981 0.82064 0.76412 0.0
C540 C 0.35626 0.8168 0.77121 0.0
C541 C 0.37121 0.82181 0.76236 0.0
C542 C 0.3567 0.80637 0.7855 0.0
C543 C 0.38702 0.80657 0.78238 0.0
C544 C 0.37208 0.80136 0.79112 0.0
C545 C 0.38659 0.81675 0.76797 0.0
C546 C 0.29012 0.78313 0.72592 0.0
C547 C 0.27213 0.81464 0.75849 0.0
C548 C 0.24466 0.74647 0.74701 0.0
C549 C 0.2271 0.74996 0.74387 0.0
C550 C 0.21505 0.74672 0.75668 0.0
C551 C 0.22272 0.75786 0.72852 0.0
C552 C 0.19455 0.75879 0.73859 0.0
C553 C 0.20658 0.76228 0.72597 0.0
C554 C 0.19879 0.75119 0.75407 0.0
C555 C 0.28716 0.78723 0.79377 0.0
O556 O 0.31908 0.77295 0.76173 0.0
O557 O 0.29315 0.75035 0.76065 0.0
O558 O 0.33294 0.81063 0.74797 0.0
O559 O 0.32831 0.8219 0.77586 0.0
O560 O 0.29836 0.80072 0.72921 0.0
O561 O 0.29273 0.77554 0.73962 0.0
O562 O 0.26359 0.79651 0.75661 0.0
O563 O 0.28966 0.81942 0.76061 0.0
O564 O 0.25153 0.74883 0.76423 0.0
O565 O 0.25579 0.75361 0.73636 0.0
O566 O 0.27286 0.77401 0.79016 0.0
O567 O 0.29325 0.78985 0.77902 0.0
H568 H 0.3709 0.82947 0.75103 0.0
H569 H 0.34515 0.80194 0.79221 0.0
H570 H 0.37241 0.79366 0.80241 0.0
H571 H 0.39818 0.82089 0.76122 0.0
H572 H 0.21818 0.74074 0.76864 0.0
H573 H 0.2317 0.76067 0.71841 0.0
H574 H 0.20331 0.76807 0.7139 0.0
H575 H 0.18938 0.74823 0.76374 0.0
Gd576 Gd 0.53929 0.03645 0.02828 0.0
Gd577 Gd 0.53553 0.03389 0.98732 0.0
C578 C 0.50098 0.029 0.00527 0.0
C579 C 0.53761 0.04119 0.06299 0.0
C580 C 0.52572 0.02992 0.07338 0.0
C581 C 0.53267 0.02109 0.0867 0.0
C582 C 0.50744 0.02657 0.06906 0.0
C583 C 0.50328 0.0076 0.09287 0.0
C584 C 0.4963 0.0155 0.07877 0.0
C585 C 0.5215 0.00991 0.09636 0.0
C586 C 0.53677 1.00163 0.00906 0.0
C587 C 0.57373 0.04173 0.01054 0.0
C588 C 0.53848 0.03065 0.9529 0.0
C589 C 0.55262 0.0417 0.94475 0.0
C590 C 0.54872 0.05067 0.93013 0.0
C591 C 0.57002 0.04521 0.95304 0.0
C592 C 0.57975 0.06449 0.93078 0.0
C593 C 0.58348 0.05653 0.94614 0.0
C594 C 0.56227 0.06203 0.92312 0.0
C595 C 0.53715 0.06832 0.00684 0.0
O596 O 0.51103 0.03695 0.02092 0.0
O597 O 0.50771 0.02257 0.99056 0.0
O598 O 0.54869 0.03255 0.0553 0.0
O599 O 0.53062 0.05081 0.05224 0.0
O600 O 0.54638 0.00839 0.02465 0.0
O601 O 0.52813 0.01307 0.00492 0.0
O602 O 0.56367 0.03295 0.99516 0.0
O603 O 0.56688 0.0486 0.0249 0.0
O604 O 0.52831 0.04046 0.96069 0.0
O605 O 0.54299 0.01891 0.96288 0.0
O606 O 0.52749 0.06133 0.99132 0.0
O607 O 0.54633 0.05724 0.01062 0.0
H608 H 0.54674 0.02309 0.08984 0.0
H609 H 0.50171 0.03272 0.05843 0.0
H610 H 0.48224 0.01379 0.07585 0.0
H611 H 0.52714 1.00406 0.10731 0.0
H612 H 0.53528 0.04864 0.92398 0.0
H613 H 0.57336 0.03892 0.96463 0.0
H614 H 0.59692 0.05821 0.95212 0.0
H615 H 0.55922 0.06792 0.91106 0.0
Gd616 Gd 0.29255 0.30262 0.26445 0.0
Gd617 Gd 0.27752 0.25659 0.2511 0.0
C618 C 0.25076 0.28336 0.25906 0.0
C619 C 0.30127 0.338 0.26551 0.0
C620 C 0.29104 0.35168 0.27141 0.0
C621 C 0.29814 0.36657 0.28605 0.0
C622 C 0.2734 0.3486 0.264 0.0
C623 C 0.27021 0.37548 0.28543 0.0
C624 C 0.2631 0.36042 0.27092 0.0
C625 C 0.28777 0.37842 0.29304 0.0
C626 C 0.28838 0.28364 0.29326 0.0
C627 C 0.31901 0.27545 0.25599 0.0
C628 C 0.26959 0.22118 0.25008 0.0
C629 C 0.28062 0.20785 0.24586 0.0
C630 C 0.27514 0.19304 0.23079 0.0
C631 C 0.2974 0.21085 0.25569 0.0
C632 C 0.30261 0.18393 0.23599 0.0
C633 C 0.30831 0.19892 0.25077 0.0
C634 C 0.28607 0.18105 0.22593 0.0
C635 C 0.28215 0.27603 0.22257 0.0
O636 O 0.26334 0.29893 0.26057 0.0
O637 O 0.25338 0.26614 0.25713 0.0
O638 O 0.30705 0.3301 0.27867 0.0
O639 O 0.29473 0.32611 0.25019 0.0
O640 O 0.29296 0.30183 0.29527 0.0
O641 O 0.28609 0.27735 0.27624 0.0
O642 O 0.30646 0.26011 0.25529 0.0
O643 O 0.31647 0.2927 0.25765 0.0
O644 O 0.26486 0.22877 0.23619 0.0
O645 O 0.27448 0.23322 0.26561 0.0
O646 O 0.27747 0.25783 0.22021 0.0
O647 O 0.28414 0.2819 0.23959 0.0
H648 H 0.3116 0.36888 0.29221 0.0
H649 H 0.26744 0.337 0.25291 0.0
H650 H 0.24972 0.35808 0.2645 0.0
H651 H 0.2935 0.38997 0.30426 0.0
H652 H 0.26242 0.19078 0.22281 0.0
H653 H 0.30215 0.22237 0.26717 0.0
H654 H 0.32096 0.20103 0.25885 0.0
H655 H 0.28152 0.16932 0.21461 0.0
Gd656 Gd 0.53985 0.55251 0.01924 0.0
Gd657 Gd 0.54433 0.5136 0.00162 0.0
C658 C 0.52647 0.53627 0.97481 0.0
C659 C 0.54541 0.58844 0.02585 0.0
C660 C 0.54242 0.60128 0.01328 0.0
C661 C 0.53254 0.61449 0.01813 0.0
C662 C 0.54853 0.59968 0.9959 0.0
C663 C 0.53586 0.6252 0.98888 0.0
C664 C 0.54534 0.61158 0.98386 0.0
C665 C 0.52924 0.62634 0.006 0.0
C666 C 0.50931 0.52643 0.01916 0.0
C667 C 0.55407 0.52823 0.04736 0.0
C668 C 0.54621 0.47913 0.9948 0.0
C669 C 0.54694 0.46554 0.00722 0.0
C670 C 0.56251 0.45963 0.01059 0.0
C671 C 0.53278 0.45966 0.01699 0.0
C672 C 0.5498 0.44222 0.03337 0.0
C673 C 0.53417 0.44806 0.02986 0.0
C674 C 0.56397 0.44816 0.02362 0.0
C675 C 0.57009 0.54333 0.99851 0.0
O676 O 0.53269 0.55121 0.98808 0.0
O677 O 0.52745 0.51923 0.97759 0.0
O678 O 0.53127 0.57758 0.02988 0.0
O679 O 0.55785 0.57964 0.02244 0.0
O680 O 0.51187 0.54408 0.02626 0.0
O681 O 0.52327 0.52386 0.01318 0.0
O682 O 0.55085 0.51414 0.03291 0.0
O683 O 0.55149 0.54501 0.04544 0.0
O684 O 0.56004 0.49314 0.99704 0.0
O685 O 0.53139 0.48432 0.99241 0.0
O686 O 0.5638 0.52917 0.98523 0.0
O687 O 0.56252 0.54085 0.01259 0.0
H688 H 0.5274 0.61565 0.03129 0.0
H689 H 0.55592 0.58934 0.99161 0.0
H690 H 0.55081 0.61049 0.97087 0.0
H691 H 0.52166 0.63654 0.01011 0.0
H692 H 0.57367 0.46416 0.00335 0.0
H693 H 0.52062 0.46408 0.01484 0.0
H694 H 0.52284 0.44338 0.03679 0.0
H695 H 0.57622 0.444 0.02611 0.0
Gd696 Gd 0.80715 0.29956 0.2578 0.0
Gd697 Gd 0.77493 0.27087 0.26018 0.0
C698 C 0.81033 0.25528 0.26028 0.0
C699 C 0.83819 0.32081 0.26445 0.0
C700 C 0.85457 0.31681 0.27177 0.0
C701 C 0.86932 0.32026 0.26231 0.0
C702 C 0.85507 0.30776 0.2871 0.0
C703 C 0.885 0.30598 0.28357 0.0
C704 C 0.87023 0.30251 0.29302 0.0
C705 C 0.88445 0.31481 0.26813 0.0
C706 C 0.78851 0.28396 0.22519 0.0
C707 C 0.77145 0.31496 0.25689 0.0
C708 C 0.74414 0.24894 0.25547 0.0
C709 C 0.72673 0.25201 0.25062 0.0
C710 C 0.71335 0.24691 0.26154 0.0
C711 C 0.72361 0.261 0.23573 0.0
C712 C 0.69369 0.25881 0.24213 0.0
C713 C 0.70714 0.26421 0.23141 0.0
C714 C 0.69688 0.25042 0.25739 0.0
C715 C 0.79372 0.28771 0.2926 0.0
O716 O 0.81842 0.27354 0.26276 0.0
O717 O 0.79292 0.25041 0.25732 0.0
O718 O 0.83159 0.31137 0.24801 0.0
O719 O 0.82642 0.32155 0.27592 0.0
O720 O 0.79731 0.30133 0.22904 0.0
O721 O 0.79132 0.2754 0.23816 0.0
O722 O 0.76336 0.29691 0.25632 0.0
O723 O 0.78889 0.31981 0.25829 0.0
O724 O 0.75196 0.25774 0.27172 0.0
O725 O 0.75459 0.24969 0.24257 0.0
O726 O 0.78636 0.26988 0.28894 0.0
O727 O 0.79026 0.29545 0.27928 0.0
H728 H 0.86903 0.32694 0.25028 0.0
H729 H 0.84369 0.30449 0.29437 0.0
H730 H 0.87039 0.29559 0.30489 0.0
H731 H 0.89581 0.31776 0.26077 0.0
H732 H 0.71566 0.24026 0.27327 0.0
H733 H 0.73384 0.2656 0.22741 0.0
H734 H 0.70488 0.27091 0.2197 0.0
H735 H 0.68655 0.24619 0.26576 0.0
Gd736 Gd 0.04066 0.53614 0.52879 0.0
Gd737 Gd 0.03452 0.53507 0.48798 0.0
C738 C 1.0012 0.52632 0.50749 0.0
C739 C 0.03909 0.53963 0.56355 0.0
C740 C 0.02797 0.52747 0.57406 0.0
C741 C 0.0343 0.51342 0.58134 0.0
C742 C 0.01078 0.52923 0.57631 0.0
C743 C 0.00706 0.50409 0.59403 0.0
C744 C 1.00038 0.51754 0.58621 0.0
C745 C 0.02391 0.50183 0.59128 0.0
C746 C 0.03967 0.50247 0.50829 0.0
C747 C 0.07405 0.54541 0.50958 0.0
C748 C 0.03613 0.53287 0.45338 0.0
C749 C 0.04937 0.54451 0.44441 0.0
C750 C 0.04686 0.56163 0.44004 0.0
C751 C 0.06543 0.53968 0.44203 0.0
C752 C 0.07611 0.56867 0.43077 0.0
C753 C 0.07864 0.55161 0.43529 0.0
C754 C 0.06015 0.57364 0.43338 0.0
C755 C 0.03493 0.56828 0.50903 0.0
O756 O 0.01169 0.53383 0.52293 0.0
O757 O 0.00745 0.52154 0.49195 0.0
O758 O 0.05087 0.53235 0.55554 0.0
O759 O 0.03117 0.54882 0.55312 0.0
O760 O 0.04989 0.50932 0.5235 0.0
O761 O 0.02995 0.51321 0.50501 0.0
O762 O 0.06368 0.5382 0.494 0.0
O763 O 0.06768 0.54996 0.52507 0.0
O764 O 0.02567 0.54176 0.46197 0.0
O765 O 0.04171 0.52124 0.46278 0.0
O766 O 0.02435 0.56113 0.4941 0.0
O767 O 0.04512 0.55787 0.51169 0.0
H768 H 0.04742 0.51161 0.5797 0.0
H769 H 0.0055 0.53985 0.57079 0.0
H770 H 0.98751 0.51974 0.58866 0.0
H771 H 0.0293 0.49169 0.59756 0.0
H772 H 0.03468 0.56585 0.4419 0.0
H773 H 0.06784 0.52667 0.44539 0.0
H774 H 0.09058 0.54705 0.43292 0.0
H775 H 0.05781 0.58665 0.42993 0.0
Gd776 Gd 0.77113 0.78822 0.26083 0.0
Gd777 Gd 0.81027 0.78031 0.26331 0.0
C778 C 0.79418 0.79239 0.30077 0.0
C779 C 0.73786 0.78423 0.2633 0.0
C780 C 0.72611 0.78851 0.27728 0.0
C781 C 0.71351 0.79863 0.27338 0.0
C782 C 0.72634 0.7814 0.29386 0.0
C783 C 0.70063 0.7931 0.30156 0.0
C784 C 0.71375 0.78368 0.30585 0.0
C785 C 0.70095 0.80094 0.28538 0.0
C786 C 0.79673 0.8212 0.26215 0.0
C787 C 0.78673 0.77442 0.22344 0.0
C788 C 0.84345 0.78499 0.26024 0.0
C789 C 0.85473 0.78112 0.24564 0.0
C790 C 0.86696 0.77021 0.24826 0.0
C791 C 0.85423 0.78911 0.22959 0.0
C792 C 0.8788 0.77643 0.21975 0.0
C793 C 0.86614 0.78681 0.21684 0.0
C794 C 0.87881 0.76783 0.23545 0.0
C795 C 0.78504 0.74728 0.26254 0.0
O796 O 0.77884 0.79094 0.29111 0.0
O797 O 0.80858 0.79049 0.29322 0.0
O798 O 0.74722 0.79831 0.25705 0.0
O799 O 0.74646 0.77138 0.26575 0.0
O800 O 0.77997 0.82009 0.26173 0.0
O801 O 0.7985 0.80454 0.26228 0.0
O802 O 0.80205 0.77558 0.23298 0.0
O803 O 0.77272 0.77781 0.23093 0.0
O804 O 0.83441 0.77057 0.26627 0.0
O805 O 0.83469 0.7979 0.25861 0.0
O806 O 0.80193 0.74891 0.26394 0.0
O807 O 0.78284 0.76374 0.26173 0.0
H808 H 0.71306 0.80432 0.26076 0.0
H809 H 0.73589 0.77356 0.29735 0.0
H810 H 0.71387 0.77735 0.31809 0.0
H811 H 0.69127 0.80859 0.28179 0.0
H812 H 0.86766 0.76392 0.2605 0.0
H813 H 0.84488 0.79748 0.22703 0.0
H814 H 0.86555 0.79338 0.20477 0.0
H815 H 0.88846 0.75987 0.23824 0.0
Gd816 Gd 0.79209 0.28463 0.7457 0.0
Gd817 Gd 0.77832 0.2913 0.78363 0.0
C818 C 0.79803 0.32626 0.76944 0.0
C819 C 0.79532 0.28389 0.71145 0.0
C820 C 0.80642 0.29712 0.70195 0.0
C821 C 0.81804 0.29092 0.69042 0.0
C822 C 0.80569 0.31611 0.70455 0.0
C823 C 0.82665 0.32206 0.68265 0.0
C824 C 0.81564 0.32842 0.69493 0.0
C825 C 0.82815 0.30332 0.68089 0.0
C826 C 0.81901 0.28855 0.77308 0.0
C827 C 0.77738 0.24901 0.76318 0.0
C828 C 0.76823 0.29033 0.81567 0.0
C829 C 0.76076 0.27436 0.82443 0.0
C830 C 0.74263 0.26606 0.82118 0.0
C831 C 0.77184 0.26635 0.83488 0.0
C832 C 0.74702 0.24134 0.83761 0.0
C833 C 0.76503 0.24997 0.84137 0.0
C834 C 0.73581 0.24965 0.82773 0.0
C835 C 0.75668 0.29375 0.75403 0.0
O836 O 0.79487 0.3158 0.75281 0.0
O837 O 0.79554 0.31927 0.78454 0.0
O838 O 0.80356 0.27466 0.72154 0.0
O839 O 0.78278 0.28996 0.7193 0.0
O840 O 0.82081 0.28628 0.75569 0.0
O841 O 0.80338 0.28933 0.7746 0.0
O842 O 0.77666 0.2604 0.77855 0.0
O843 O 0.78099 0.25492 0.74772 0.0
O844 O 0.7583 0.29274 0.80161 0.0
O845 O 0.78475 0.29244 0.81288 0.0
O846 O 0.75954 0.30518 0.76968 0.0
O847 O 0.76553 0.28142 0.75466 0.0
H848 H 0.81904 0.27641 0.68852 0.0
H849 H 0.79708 0.32143 0.71362 0.0
H850 H 0.81391 0.34266 0.6964 0.0
H851 H 0.83668 0.2981 0.67165 0.0
H852 H 0.73371 0.27201 0.81329 0.0
H853 H 0.78581 0.27256 0.83781 0.0
H854 H 0.77385 0.24419 0.84958 0.0
H855 H 0.72185 0.24339 0.82495 0.0
Gd856 Gd 0.79375 0.79942 0.76812 0.0
Gd857 Gd 0.77848 0.76079 0.75116 0.0
C858 C 0.75179 0.78352 0.76268 0.0
C859 C 0.80091 0.835 0.77989 0.0
C860 C 0.78957 0.84819 0.78182 0.0
C861 C 0.78964 0.85896 0.79916 0.0
C862 C 0.77743 0.84877 0.76703 0.0
C863 C 0.76591 0.87126 0.78681 0.0
C864 C 0.76577 0.86032 0.76948 0.0
C865 C 0.77781 0.87035 0.80167 0.0
C866 C 0.7949 0.77534 0.79181 0.0
C867 C 0.8203 0.77713 0.75516 0.0
C868 C 0.77244 0.72507 0.73989 0.0
C869 C 0.78454 0.71278 0.73631 0.0
C870 C 0.78087 0.69871 0.72058 0.0
C871 C 0.80029 0.71571 0.74795 0.0
C872 C 0.80797 0.68963 0.72891 0.0
C873 C 0.81189 0.70423 0.7443 0.0
C874 C 0.79251 0.6872 0.71689 0.0
C875 C 0.77824 0.78509 0.72739 0.0
O876 O 0.7648 0.79817 0.76271 0.0
O877 O 0.75435 0.7665 0.76125 0.0
O878 O 0.79851 0.8227 0.79083 0.0
O879 O 0.80262 0.8277 0.76306 0.0
O880 O 0.80783 0.78905 0.79048 0.0
O881 O 0.78186 0.77472 0.78031 0.0
O882 O 0.80741 0.76238 0.75493 0.0
O883 O 0.81792 0.7942 0.75792 0.0
O884 O 0.77223 0.737 0.72869 0.0
O885 O 0.77252 0.73257 0.75712 0.0
O886 O 0.76506 0.77138 0.7282 0.0
O887 O 0.79088 0.78532 0.73915 0.0
H888 H 0.79869 0.85835 0.8108 0.0
H889 H 0.77687 0.84029 0.75358 0.0
H890 H 0.75697 0.86103 0.75767 0.0
H891 H 0.77806 0.87854 0.8152 0.0
H892 H 0.76894 0.69654 0.71125 0.0
H893 H 0.80355 0.72666 0.76005 0.0
H894 H 0.82353 0.70628 0.75402 0.0
H895 H 0.78924 0.67615 0.70486 0.0
Gd896 Gd 0.52201 0.52488 0.50198 0.0
Gd897 Gd 0.55734 0.54488 0.52346 0.0
C898 C 0.53551 0.57006 0.50439 0.0
C899 C 0.48856 0.51388 0.49309 0.0
C900 C 0.47512 0.5247 0.49164 0.0
C901 C 0.46381 0.52132 0.47518 0.0
C902 C 0.47486 0.53986 0.50551 0.0
C903 C 0.45192 0.54795 0.48651 0.0
C904 C 0.46327 0.5513 0.50301 0.0
C905 C 0.45234 0.53288 0.4726 0.0
C906 C 0.54608 0.52402 0.47668 0.0
C907 C 0.54402 0.49951 0.5204 0.0
C908 C 0.59079 0.5566 0.53258 0.0
C909 C 0.60462 0.54648 0.53476 0.0
C910 C 0.61874 0.55393 0.54866 0.0
C911 C 0.60287 0.52851 0.52437 0.0
C912 C 0.62951 0.52569 0.54154 0.0
C913 C 0.61526 0.5182 0.52772 0.0
C914 C 0.63118 0.54362 0.55199 0.0
C915 C 0.53323 0.54596 0.54875 0.0
O916 O 0.52234 0.55503 0.50015 0.0
O917 O 0.55071 0.56965 0.51308 0.0
O918 O 0.49964 0.5159 0.48099 0.0
O919 O 0.49614 0.51423 0.50963 0.0
O920 O 0.52947 0.51628 0.47358 0.0
O921 O 0.54945 0.53135 0.49391 0.0
O922 O 0.55702 0.51467 0.52519 0.0
O923 O 0.52884 0.4999 0.51164 0.0
O924 O 0.5796 0.55464 0.54456 0.0
O925 O 0.58326 0.55517 0.51581 0.0
O926 O 0.54983 0.55375 0.55176 0.0
O927 O 0.52986 0.53853 0.53154 0.0
H928 H 0.46413 0.50996 0.46416 0.0
H929 H 0.48374 0.54303 0.51819 0.0
H930 H 0.46303 0.56258 0.51414 0.0
H931 H 0.44388 0.53009 0.45967 0.0
H932 H 0.62 0.5676 0.55707 0.0
H933 H 0.59185 0.52239 0.51378 0.0
H934 H 0.61385 0.5045 0.5193 0.0
H935 H 0.64204 0.54959 0.56278 0.0
Gd936 Gd 0.05877 0.53448 0.00978 0.0
Gd937 Gd 0.0183 0.53101 0.01178 0.0
C938 C 0.03115 0.49307 0.00511 0.0
C939 C 0.09079 0.531 0.01484 0.0
C940 C 0.10119 0.51653 0.01136 0.0
C941 C 0.11038 0.51527 0.99584 0.0
C942 C 0.10323 0.50487 0.0243 0.0
C943 C 0.12424 0.49198 0.00691 0.0
C944 C 0.11457 0.49274 0.02207 0.0
C945 C 0.1217 0.50307 0.99359 0.0
C946 C 0.03914 0.53293 0.97819 0.0
C947 C 0.04568 0.57226 0.01573 0.0
C948 C 0.98645 0.53521 0.00849 0.0
C949 C 0.97732 0.55061 0.01241 0.0
C950 C 0.96328 0.54835 0.02302 0.0
C951 C 0.98192 0.56723 0.00514 0.0
C952 C 0.95759 0.57831 0.01781 0.0
C953 C 0.97215 0.58091 0.00781 0.0
C954 C 0.95353 0.56203 0.02573 0.0
C955 C 0.03826 0.53327 0.04339 0.0
O956 O 0.04748 0.50347 0.00907 0.0
O957 O 0.01733 0.50044 0.00324 0.0
O958 O 0.08452 0.53704 1.00054 0.0
O959 O 0.07992 0.52921 0.02735 0.0
O960 O 0.05536 0.54247 0.98173 0.0
O961 O 0.0348 0.52385 0.99068 0.0
O962 O 0.02949 0.56177 0.01073 0.0
O963 O 0.05927 0.56485 0.01896 0.0
O964 O 0.99338 0.52971 0.02277 0.0
O965 O 0.99635 0.53581 0.9951 0.0
O966 O 0.02216 0.52348 0.04005 0.0
O967 O 0.04228 0.54203 0.03066 0.0
H968 H 0.10925 0.52415 0.98568 0.0
H969 H 0.09644 0.50546 0.03645 0.0
H970 H 0.11603 0.48419 0.03246 0.0
H971 H 0.12903 0.50294 0.98183 0.0
H972 H 0.95953 0.53571 0.02883 0.0
H973 H 0.99283 0.56951 0.99709 0.0
H974 H 0.97584 0.59341 0.00179 0.0
H975 H 0.94235 0.55944 0.03337 0.0
H976 H 0.0266 0.20176 0.91402 0.0
H977 H 0.03208 0.17698 0.93055 0.0
H978 H 0.00177 0.195 0.97279 0.0
H979 H 0.99654 0.22022 0.95646 0.0
H980 H 0.04117 0.18573 0.98172 0.0
H981 H 0.98732 0.13105 0.93781 0.0
H982 H 1.00021 0.1492 0.9276 0.0
H983 H 0.98565 0.15514 0.94372 0.0
C984 C 0.02097 0.20037 0.92675 0.0
C985 C 0.0109 0.21277 0.93379 0.0
C986 C 0.02425 0.18631 0.93626 0.0
C987 C 0.01733 0.18414 0.95287 0.0
C988 C 0.00733 0.19652 0.96004 0.0
H989 H 0.00631 0.0826 1.00089 0.0
H990 H 0.0022 0.11134 0.99061 0.0
C991 C 0.00427 0.21084 0.95066 0.0
C992 C 0.01993 0.16834 0.96216 0.0
H993 H 0.00518 0.12102 0.95923 0.0
C994 C 0.03326 0.17157 0.97695 0.0
C995 C 0.00956 0.14996 0.95595 0.0
C996 C 0.99481 0.14594 0.94043 0.0
C997 C 0.03655 0.15679 0.98562 0.0
C998 C 0.02645 0.13818 0.97903 0.0
C999 C 0.01298 0.13515 0.96436 0.0
C1000 C 0.02947 0.12156 0.98694 0.0
C1001 C 0.05059 0.16142 0.00192 0.0
C1002 C 0.04618 0.11759 0.98851 0.0
C1003 C 0.04861 0.10132 0.99481 0.0
C1004 C 0.0343 0.08834 0.99918 0.0
C1005 C 0.0176 0.09228 0.99761 0.0
C1006 C 0.01525 0.10874 0.9917 0.0
H1007 H 0.05273 0.17627 0.0089 0.0
H1008 H 0.0472 0.15216 0.01217 0.0
H1009 H 0.06318 0.15954 0.99706 0.0
H1010 H 0.05731 0.12677 0.98437 0.0
H1011 H 0.06162 0.09859 0.99563 0.0
H1012 H 0.12004 0.82099 0.17282 0.0
H1013 H 0.14556 0.81485 0.18994 0.0
H1014 H 0.16097 0.79012 0.13904 0.0
H1015 H 0.13586 0.79692 0.12182 0.0
H1016 H 0.15335 0.78286 0.19366 0.0
H1017 H 0.2074 0.82252 0.16149 0.0
H1018 H 0.18511 0.82489 0.15754 0.0
H1019 H 0.19168 0.80507 0.14529 0.0
C1020 C 0.12901 0.81452 0.16523 0.0
C1021 C 0.12592 0.80963 0.1459 0.0
C1022 C 0.14362 0.81093 0.17506 0.0
C1023 C 0.15552 0.80223 0.16589 0.0
C1024 C 0.15243 0.79733 0.14654 0.0
H1025 H 0.24854 0.76901 0.21705 0.0
H1026 H 0.22417 0.77024 0.1942 0.0
C1027 C 0.13793 0.80114 0.13667 0.0
C1028 C 0.17053 0.79757 0.17675 0.0
H1029 H 0.21535 0.80398 0.18267 0.0
C1030 C 0.16687 0.7875 0.19116 0.0
C1031 C 0.18831 0.80332 0.1735 0.0
C1032 C 0.19342 0.81469 0.15873 0.0
C1033 C 0.18031 0.78341 0.20252 0.0
C1034 C 0.19806 0.78965 0.19964 0.0
C1035 C 0.20176 0.79911 0.18485 0.0
C1036 C 0.21286 0.78832 0.21312 0.0
C1037 C 0.17535 0.77257 0.2177 0.0
C1038 C 0.21474 0.79811 0.23125 0.0
C1039 C 0.2286 0.79755 0.2441 0.0
C1040 C 0.24104 0.78712 0.23933 0.0
C1041 C 0.23915 0.77709 0.2212 0.0
C1042 C 0.22526 0.77785 0.20814 0.0
H1043 H 0.16164 0.76397 0.21468 0.0
H1044 H 0.1843 0.76318 0.21983 0.0
H1045 H 0.17633 0.7826 0.23076 0.0
H1046 H 0.20557 0.80649 0.23543 0.0
H1047 H 0.2296 0.8055 0.25789 0.0
H1048 H 0.54794 0.82831 0.44204 0.0
H1049 H 0.55014 0.85878 0.46165 0.0
H1050 H 0.49375 0.8503 0.45253 0.0
H1051 H 0.49158 0.81934 0.434 0.0
H1052 H 0.54226 0.8869 0.44952 0.0
H1053 H 0.50127 0.87298 0.50536 0.0
H1054 H 0.50773 0.85442 0.49074 0.0
H1055 H 0.48916 0.86314 0.48313 0.0
C1056 C 0.53604 0.83275 0.44488 0.0
C1057 C 0.51959 0.82156 0.43687 0.0
C1058 C 0.53727 0.85014 0.45595 0.0
C1059 C 0.52209 0.8568 0.45877 0.0
C1060 C 0.50559 0.84528 0.45113 0.0
H1061 H 0.50345 0.9674 0.48804 0.0
H1062 H 0.50113 0.93386 0.47781 0.0
C1063 C 0.50434 0.82765 0.44047 0.0
C1064 C 0.52375 0.87658 0.46764 0.0
H1065 H 0.50787 0.90476 0.49981 0.0
C1066 C 0.53494 0.89075 0.46072 0.0
C1067 C 0.51406 0.88165 0.48213 0.0
C1068 C 0.50253 0.86721 0.49088 0.0
C1069 C 0.53647 0.90979 0.46764 0.0
C1070 C 0.52655 0.91479 0.48185 0.0
C1071 C 0.51541 0.90076 0.48886 0.0
C1072 C 0.52751 0.93464 0.48941 0.0
C1073 C 0.54837 0.92444 0.45942 0.0
C1074 C 0.54298 0.94597 0.49964 0.0
C1075 C 0.54438 0.96511 0.5055 0.0
C1076 C 0.53028 0.9732 0.50126 0.0
C1077 C 0.51453 0.96161 0.49159 0.0
C1078 C 0.51317 0.94246 0.48572 0.0
H1079 H 0.55268 0.9183 0.44641 0.0
H1080 H 0.54164 0.9356 0.45661 0.0
H1081 H 0.56023 0.93115 0.4694 0.0
H1082 H 0.55411 0.94006 0.50275 0.0
H1083 H 0.55666 0.97361 0.51299 0.0
H1084 H 0.5135 0.30934 0.63027 0.0
H1085 H 0.48329 0.30495 0.6385 0.0
H1086 H 0.49182 0.26163 0.66843 0.0
H1087 H 0.52172 0.26597 0.66059 0.0
H1088 H 0.45313 0.26857 0.63535 0.0
H1089 H 0.4807 0.3054 0.70644 0.0
H1090 H 0.49275 0.30791 0.68687 0.0
H1091 H 0.49089 0.28715 0.69699 0.0
C1092 C 0.50887 0.29881 0.63849 0.0
C1093 C 0.5202 0.28831 0.6451 0.0
C1094 C 0.49159 0.29624 0.64309 0.0
C1095 C 0.48539 0.28308 0.65422 0.0
C1096 C 0.49639 0.27198 0.65998 0.0
H1097 H 0.40307 0.2576 0.72226 0.0
H1098 H 0.42774 0.25757 0.7043 0.0
C1099 C 0.51356 0.2746 0.65556 0.0
C1100 C 0.46818 0.28189 0.66148 0.0
H1101 H 0.45073 0.28967 0.70191 0.0
C1102 C 0.45251 0.27334 0.64985 0.0
C1103 C 0.46744 0.28805 0.6804 0.0
C1104 C 0.4838 0.29778 0.69343 0.0
C1105 C 0.43615 0.27024 0.65685 0.0
C1106 C 0.4355 0.27608 0.67592 0.0
C1107 C 0.45119 0.28499 0.68736 0.0
C1108 C 0.41887 0.27331 0.68461 0.0
C1109 C 0.41982 0.2602 0.64393 0.0
C1110 C 0.40533 0.28169 0.67926 0.0
C1111 C 0.39103 0.28154 0.68942 0.0
C1112 C 0.39005 0.27321 0.70532 0.0
C1113 C 0.40322 0.26402 0.71007 0.0
C1114 C 0.41744 0.2641 0.69985 0.0
H1115 H 0.42299 0.25217 0.63119 0.0
H1116 H 0.41076 0.25041 0.65072 0.0
H1117 H 0.41284 0.27071 0.63983 0.0
H1118 H 0.40618 0.28913 0.66775 0.0
H1119 H 0.38101 0.28849 0.68514 0.0
H1120 H 0.99247 0.79194 0.58434 0.0
H1121 H 0.00567 0.81953 0.57143 0.0
H1122 H 0.02031 0.85227 0.62619 0.0
H1123 H 0.007 0.825 0.63925 0.0
H1124 H 0.99875 0.8627 0.5862 0.0
H1125 H 0.06589 0.84903 0.59162 0.0
H1126 H 0.04653 0.82993 0.58774 0.0
H1127 H 0.05214 0.84519 0.60969 0.0
C1128 C 0.99817 0.80513 0.59358 0.0
C1129 C 0.99863 0.8064 0.61275 0.0
C1130 C 0.00579 0.82074 0.58622 0.0
C1131 C 0.01408 0.83763 0.59798 0.0
C1132 C 0.014 0.8392 0.61704 0.0
H1133 H 0.05862 0.94554 0.56861 0.0
H1134 H 0.05275 0.92058 0.58701 0.0
C1135 C 0.00623 0.82369 0.6244 0.0
C1136 C 0.02279 0.85373 0.59029 0.0
H1137 H 0.06206 0.8748 0.57785 0.0
C1138 C 0.0126 0.86551 0.58449 0.0
C1139 C 0.04086 0.85715 0.58828 0.0
C1140 C 0.05212 0.84471 0.59462 0.0
C1141 C 0.02001 0.88058 0.57623 0.0
C1142 C 0.03798 0.88375 0.57376 0.0
C1143 C 0.0483 0.87222 0.57992 0.0
C1144 C 0.04561 0.89813 0.56335 0.0
C1145 C 0.00855 0.89276 0.5697 0.0
C1146 C 0.04415 0.89347 0.54414 0.0
C1147 C 0.04718 0.90759 0.53362 0.0
C1148 C 0.05176 0.92656 0.54223 0.0
C1149 C 0.0548 0.93105 0.56161 0.0
C1150 C 0.05162 0.91687 0.57213 0.0
H1151 H 0.9949 0.88863 0.5731 0.0
H1152 H 0.01421 0.90768 0.5761 0.0
H1153 H 0.00813 0.89177 0.55453 0.0
H1154 H 0.03938 0.87899 0.53727 0.0
H1155 H 0.04453 0.90366 0.51876 0.0
H1156 H 0.54146 0.78308 0.83112 0.0
H1157 H 0.51 0.77509 0.81938 0.0
H1158 H 0.50466 0.82772 0.84988 0.0
H1159 H 0.53603 0.83571 0.86154 0.0
H1160 H 0.47606 0.77833 0.84094 0.0
H1161 H 0.49544 0.82496 0.79018 0.0
H1162 H 0.51073 0.81411 0.80155 0.0
H1163 H 0.50441 0.83396 0.81385 0.0
C1164 C 0.53338 0.79269 0.83547 0.0
C1165 C 0.54081 0.81001 0.84692 0.0
C1166 C 0.51556 0.78809 0.82894 0.0
C1167 C 0.50526 0.80087 0.83385 0.0
C1168 C 0.51255 0.81774 0.8461 0.0
H1169 H 0.41209 0.83078 0.80628 0.0
H1170 H 0.44047 0.82589 0.81805 0.0
C1171 C 0.53033 0.82232 0.85261 0.0
C1172 C 0.48762 0.798 0.82428 0.0
H1173 H 0.46505 0.8151 0.79233 0.0
C1174 C 0.47355 0.78605 0.83009 0.0
C1175 C 0.4847 0.80813 0.81014 0.0
C1176 C 0.4996 0.82094 0.80341 0.0
C1177 C 0.45627 0.78478 0.82262 0.0
C1178 C 0.45334 0.79559 0.80907 0.0
C1179 C 0.46751 0.80681 0.8027 0.0
C1180 C 0.43576 0.79746 0.80294 0.0
C1181 C 0.44121 0.77276 0.82985 0.0
C1182 C 0.42392 0.78298 0.79066 0.0
C1183 C 0.40774 0.78577 0.78398 0.0
C1184 C 0.40355 0.80307 0.78952 0.0
C1185 C 0.4153 0.8174 0.80192 0.0
C1186 C 0.43135 0.8146 0.80862 0.0
H1187 H 0.44572 0.76622 0.84132 0.0
H1188 H 0.43201 0.78135 0.83476 0.0
H1189 H 0.43379 0.76144 0.81853 0.0
H1190 H 0.42735 0.76978 0.78603 0.0
H1191 H 0.39865 0.77464 0.77435 0.0
H1192 H 0.47032 0.18666 0.10696 0.0
H1193 H 0.47482 0.15854 0.08722 0.0
H1194 H 0.5292 0.17229 0.11077 0.0
H1195 H 0.52448 0.19946 0.13103 0.0
H1196 H 0.49669 0.1579 0.06163 0.0
H1197 H 0.5161 0.11799 0.114 0.0
H1198 H 0.50605 0.13752 0.11965 0.0
H1199 H 0.52926 0.14154 0.11791 0.0
C1200 C 0.48308 0.18334 0.10802 0.0
C1201 C 0.497 0.19478 0.12057 0.0
C1202 C 0.48564 0.16739 0.09687 0.0
C1203 C 0.5022 0.16309 0.09803 0.0
C1204 C 0.51615 0.17489 0.11029 0.0
H1205 H 0.55779 0.09228 0.03591 0.0
H1206 H 0.54834 0.1147 0.05882 0.0
C1207 C 0.51348 0.19045 0.1217 0.0
C1208 C 0.50552 0.14729 0.08534 0.0
H1209 H 0.52422 0.10978 0.08365 0.0
C1210 C 0.50242 0.14717 0.0664 0.0
C1211 C 0.51318 0.13351 0.09172 0.0
C1212 C 0.51617 0.13254 0.11194 0.0
C1213 C 0.50745 0.13403 0.05358 0.0
C1214 C 0.51542 0.12046 0.05998 0.0
C1215 C 0.51818 0.12031 0.07889 0.0
C1216 C 0.521 0.10634 0.04713 0.0
C1217 C 0.50477 0.13527 0.03339 0.0
C1218 C 0.50865 0.09409 0.03346 0.0
C1219 C 0.51408 0.08193 0.02019 0.0
C1220 C 0.53183 0.08138 0.02082 0.0
C1221 C 0.54408 0.09281 0.03512 0.0
C1222 C 0.5387 0.10542 0.04817 0.0
H1223 H 0.50322 0.1494 0.03137 0.0
H1224 H 0.51594 0.13214 0.02624 0.0
H1225 H 0.49261 0.12488 0.02674 0.0
H1226 H 0.49485 0.09417 0.03289 0.0
H1227 H 0.50432 0.07278 0.00955 0.0
H1228 H 0.14876 0.2951 0.37131 0.0
H1229 H 0.17026 0.29229 0.3493 0.0
H1230 H 0.15046 0.33044 0.31936 0.0
H1231 H 0.12898 0.33313 0.34099 0.0
H1232 H 0.15121 0.28448 0.30339 0.0
H1233 H 0.21099 0.3411 0.33193 0.0
H1234 H 0.19771 0.32881 0.34706 0.0
H1235 H 0.18929 0.34466 0.33483 0.0
C1236 C 0.14944 0.30328 0.36035 0.0
C1237 C 0.13729 0.31418 0.35759 0.0
C1238 C 0.16155 0.30161 0.34783 0.0
C1239 C 0.16164 0.31111 0.33286 0.0
C1240 C 0.15038 0.32304 0.3309 0.0
H1241 H 0.23697 0.31351 0.25538 0.0
H1242 H 0.21072 0.31986 0.26803 0.0
C1243 C 0.1382 0.32454 0.34321 0.0
C1244 C 0.17213 0.30715 0.3181 0.0
H1245 H 0.21207 0.32146 0.30411 0.0
C1246 C 0.16451 0.29254 0.30337 0.0
C1247 C 0.18916 0.31807 0.31823 0.0
C1248 C 0.1974 0.33409 0.33381 0.0
C1249 C 0.17388 0.28818 0.28872 0.0
C1250 C 0.19128 0.29861 0.28917 0.0
C1251 C 0.19862 0.31364 0.30372 0.0
C1252 C 0.20311 0.29277 0.27635 0.0
C1253 C 0.16515 0.27238 0.2731 0.0
C1254 C 0.20682 0.27509 0.27599 0.0
C1255 C 0.22162 0.27137 0.26864 0.0
C1256 C 0.23308 0.28548 0.26197 0.0
C1257 C 0.22846 0.30252 0.26072 0.0
C1258 C 0.21345 0.30612 0.26782 0.0
H1259 H 0.15072 0.271 0.2711 0.0
H1260 H 0.17049 0.27449 0.25996 0.0
H1261 H 0.16738 0.25894 0.2765 0.0
H1262 H 0.19925 0.26477 0.2829 0.0
H1263 H 0.22486 0.25808 0.26977 0.0
H1264 H 0.97299 0.07403 0.21096 0.0
H1265 H 0.98757 0.07206 0.1828 0.0
H1266 H 0.94038 0.03488 0.15287 0.0
H1267 H 0.92557 0.0379 0.18059 0.0
H1268 H 0.99866 0.04943 0.16095 0.0
H1269 H 0.94704 0.06424 0.11441 0.0
H1270 H 0.946 0.06649 0.13884 0.0
H1271 H 0.93855 0.04384 0.12395 0.0
C1272 C 0.96557 0.0656 0.19833 0.0
C1273 C 0.94778 0.0564 0.19841 0.0
C1274 C 0.97405 0.06439 0.18198 0.0
C1275 C 0.96528 0.05374 0.1648 0.0
C1276 C 0.94766 0.04403 0.16516 0.0
H1277 H 0.9986 0.02645 0.05096 0.0
H1278 H 0.98257 0.02746 0.07845 0.0
C1279 C 0.93909 0.04558 0.18137 0.0
C1280 C 0.97458 0.05244 0.14699 0.0
H1281 H 0.96922 0.05239 0.09999 0.0
C1282 C 0.99207 0.05024 0.14774 0.0
C1283 C 0.96659 0.0534 0.12915 0.0
C1284 C 0.9486 0.05732 0.12654 0.0
C1285 C 1.00128 0.04865 0.13187 0.0
C1286 C 0.9932 0.04943 0.11404 0.0
C1287 C 0.97573 0.05155 0.11323 0.0
C1288 C 0.00277 0.04883 0.09647 0.0
C1289 C 0.01963 0.04563 0.1345 0.0
C1290 C 0.01944 0.06074 0.09644 0.0
C1291 C 0.02859 0.06012 0.08071 0.0
C1292 C 0.02162 0.04781 0.06381 0.0
C1293 C 0.00464 0.03623 0.06343 0.0
C1294 C 0.99542 0.0368 0.07939 0.0
H1295 H 0.02162 0.03894 0.1467 0.0
H1296 H 0.02255 0.0367 0.12221 0.0
H1297 H 0.02921 0.05944 0.13694 0.0
H1298 H 0.02555 0.07078 0.10871 0.0
H1299 H 0.04147 0.06948 0.08193 0.0
H1300 H 0.27699 0.64548 0.44857 0.0
H1301 H 0.26196 0.65487 0.4228 0.0
H1302 H 0.27828 0.71284 0.44982 0.0
H1303 H 0.2929 0.70348 0.47617 0.0
H1304 H 0.24088 0.69837 0.43932 0.0
H1305 H 0.2801 0.68264 0.38191 0.0
H1306 H 0.27345 0.66455 0.39522 0.0
H1307 H 0.28898 0.68589 0.4058 0.0
C1308 C 0.27796 0.66033 0.44879 0.0
C1309 C 0.2861 0.67381 0.4644 0.0
C1310 C 0.26925 0.66561 0.43408 0.0
C1311 C 0.26898 0.68447 0.43455 0.0
C1312 C 0.27828 0.69816 0.4494 0.0
H1313 H 0.24494 0.76351 0.38171 0.0
H1314 H 0.24256 0.74199 0.40337 0.0
C1315 C 0.28678 0.69286 0.46429 0.0
C1316 C 0.25811 0.68987 0.42017 0.0
H1317 H 0.25611 0.69541 0.37541 0.0
C1318 C 0.24403 0.69756 0.42525 0.0
C1319 C 0.26199 0.68822 0.40182 0.0
C1320 C 0.27699 0.67998 0.39577 0.0
C1321 C 0.23436 0.70481 0.4126 0.0
C1322 C 0.23917 0.70457 0.39461 0.0
C1323 C 0.25237 0.69551 0.3892 0.0
C1324 C 0.23372 0.71685 0.38252 0.0
C1325 C 0.21957 0.71326 0.41881 0.0
C1326 C 0.22865 0.70995 0.36364 0.0
C1327 C 0.23024 0.72233 0.35113 0.0
C1328 C 0.23688 0.74169 0.35745 0.0
C1329 C 0.23968 0.74867 0.37646 0.0
C1330 C 0.23821 0.73632 0.38892 0.0
H1331 H 0.21278 0.70552 0.42889 0.0
H1332 H 0.22501 0.728 0.42586 0.0
H1333 H 0.2098 0.71314 0.40703 0.0
H1334 H 0.22516 0.69496 0.35846 0.0
H1335 H 0.22778 0.71666 0.3365 0.0
H1336 H 0.61627 0.01045 0.68363 0.0
H1337 H 0.5984 0.01828 0.65887 0.0
H1338 H 0.64148 0.06346 0.6529 0.0
H1339 H 0.65964 0.05561 0.67776 0.0
H1340 H 0.58973 0.05416 0.65597 0.0
H1341 H 0.62811 0.02732 0.60195 0.0
H1342 H 0.62995 0.02201 0.62492 0.0
H1343 H 0.63991 0.04502 0.62096 0.0
C1344 C 0.62201 0.0219 0.67689 0.0
C1345 C 0.63935 0.03224 0.68228 0.0
C1346 C 0.61175 0.0265 0.66301 0.0
C1347 C 0.61873 0.04144 0.65434 0.0
C1348 C 0.63605 0.05184 0.65958 0.0
H1349 H 0.56827 0.05994 0.5537 0.0
H1350 H 0.58774 0.06445 0.5821 0.0
C1351 C 0.64641 0.04719 0.6735 0.0
C1352 C 0.60807 0.0448 0.63876 0.0
H1353 H 0.60207 0.03516 0.59198 0.0
C1354 C 0.59249 0.05038 0.64194 0.0
C1355 C 0.61186 0.03961 0.62066 0.0
C1356 C 0.6283 0.03304 0.61678 0.0
C1357 C 0.58016 0.05031 0.62721 0.0
C1358 C 0.58366 0.04437 0.60917 0.0
C1359 C 0.59957 0.03959 0.60599 0.0
C1360 C 0.57095 0.04269 0.59318 0.0
C1361 C 0.56341 0.05621 0.63097 0.0
C1362 C 0.55517 0.02887 0.59024 0.0
C1363 C 0.54396 0.02621 0.57396 0.0
C1364 C 0.54867 0.03728 0.56064 0.0
C1365 C 0.5644 0.0512 0.5638 0.0
C1366 C 0.57548 0.05388 0.57999 0.0
H1367 H 0.56448 0.0643 0.64514 0.0
H1368 H 0.55992 0.06488 0.6209 0.0
H1369 H 0.55253 0.04349 0.62948 0.0
H1370 H 0.55181 0.01988 0.60027 0.0
H1371 H 0.53191 0.01534 0.57163 0.0
H1372 H 0.30074 0.38773 0.95449 0.0
H1373 H 0.29975 0.36864 0.92428 0.0
H1374 H 0.28633 0.31821 0.94739 0.0
H1375 H 0.28738 0.33731 0.97802 0.0
H1376 H 0.32006 0.33093 0.9203 0.0
H1377 H 0.24952 0.32406 0.89603 0.0
H1378 H 0.26173 0.34519 0.91126 0.0
H1379 H 0.25689 0.32348 0.91969 0.0
C1380 C 0.29751 0.37258 0.95322 0.0
C1381 C 0.29415 0.36402 0.96867 0.0
C1382 C 0.29697 0.36172 0.93594 0.0
C1383 C 0.29294 0.34211 0.9337 0.0
C1384 C 0.2895 0.33339 0.94897 0.0
H1385 H 0.27178 0.27517 0.82272 0.0
H1386 H 0.27235 0.28478 0.85605 0.0
C1387 C 0.29015 0.34429 0.9664 0.0
C1388 C 0.29275 0.33103 0.91529 0.0
H1389 H 0.2673 0.3149 0.87393 0.0
C1390 C 0.30849 0.32709 0.91017 0.0
C1391 C 0.27761 0.32607 0.90228 0.0
C1392 C 0.26039 0.32981 0.90745 0.0
C1393 C 0.30963 0.31867 0.8921 0.0
C1394 C 0.29471 0.31464 0.87868 0.0
C1395 C 0.27878 0.31802 0.8841 0.0
C1396 C 0.29541 0.30768 0.85884 0.0
C1397 C 0.32683 0.31422 0.88771 0.0
C1398 C 0.30822 0.31721 0.84927 0.0
C1399 C 0.30825 0.31129 0.8304 0.0
C1400 C 0.29506 0.29622 0.82063 0.0
C1401 C 0.28214 0.28677 0.83006 0.0
C1402 C 0.28244 0.2923 0.84905 0.0
H1403 H 0.33423 0.31156 0.90009 0.0
H1404 H 0.32483 0.30176 0.87661 0.0
H1405 H 0.33509 0.32648 0.88319 0.0
H1406 H 0.31791 0.32959 0.85624 0.0
H1407 H 0.31808 0.31907 0.82328 0.0
H1408 H 0.94638 0.02451 0.30981 0.0
H1409 H 0.95966 0.02388 0.34071 0.0
H1410 H 0.98001 0.08382 0.34927 0.0
H1411 H 0.96604 0.08448 0.31833 0.0
H1412 H 0.99211 0.03069 0.35487 0.0
H1413 H 0.96387 0.08167 0.39837 0.0
H1414 H 0.95573 0.0731 0.37436 0.0
H1415 H 0.97557 0.0913 0.38094 0.0
C1416 C 0.95325 0.0377 0.31843 0.0
C1417 C 0.95459 0.0546 0.31149 0.0
C1418 C 0.96109 0.0373 0.33622 0.0
C1419 C 0.97089 0.05378 0.34797 0.0
C1420 C 0.97219 0.07083 0.34111 0.0
H1421 H 0.02798 0.07111 0.46151 0.0
H1422 H 0.01557 0.07501 0.43118 0.0
C1423 C 0.96411 0.07124 0.32325 0.0
C1424 C 0.98025 0.0526 0.3667 0.0
H1425 H 0.9857 0.06989 0.41335 0.0
C1426 C 0.99058 0.0393 0.36761 0.0
C1427 C 0.97879 0.06383 0.3837 0.0
C1428 C 0.96778 0.07817 0.3844 0.0
C1429 C 0.9993 0.03699 0.38445 0.0
C1430 C 0.99741 0.04781 0.40156 0.0
C1431 C 0.98732 0.06135 0.40061 0.0
C1432 C 0.00557 0.04531 0.42039 0.0
C1433 C 0.01098 0.02327 0.38342 0.0
C1434 C 0.0043 0.02738 0.42524 0.0
C1435 C 0.01185 0.02512 0.44258 0.0
C1436 C 0.02056 0.04071 0.45618 0.0
C1437 C 0.02149 0.05868 0.45158 0.0
C1438 C 0.01426 0.06092 0.43406 0.0
H1439 H 0.0161 0.02157 0.36986 0.0
H1440 H 0.02232 0.02783 0.39439 0.0
H1441 H 0.00321 0.00928 0.38493 0.0
H1442 H 0.99717 0.01493 0.41572 0.0
H1443 H 0.01046 0.01103 0.44548 0.0
H1444 H 0.29456 0.69848 0.56497 0.0
H1445 H 0.29302 0.72041 0.59273 0.0
H1446 H 0.25996 0.67568 0.6135 0.0
H1447 H 0.26136 0.65352 0.58582 0.0
H1448 H 0.25858 0.72643 0.60951 0.0
H1449 H 0.3071 0.70015 0.65143 0.0
H1450 H 0.3057 0.69705 0.6266 0.0
H1451 H 0.28923 0.68307 0.63729 0.0
C1452 C 0.28699 0.69326 0.57545 0.0
C1453 C 0.27822 0.67424 0.57331 0.0
C1454 C 0.28601 0.70584 0.59115 0.0
C1455 C 0.27631 0.69953 0.60489 0.0
C1456 C 0.26745 0.68066 0.60285 0.0
H1457 H 0.27793 0.7455 0.71713 0.0
H1458 H 0.27057 0.72637 0.68676 0.0
C1459 C 0.2684 0.66805 0.58715 0.0
C1460 C 0.27652 0.71245 0.62201 0.0
H1461 H 0.29502 0.72364 0.66659 0.0
C1462 C 0.26644 0.72589 0.6221 0.0
C1463 C 0.28688 0.71153 0.63814 0.0
C1464 C 0.29795 0.69727 0.63849 0.0
C1465 C 0.26614 0.73835 0.63833 0.0
C1466 C 0.27659 0.73747 0.65452 0.0
C1467 C 0.2869 0.72417 0.65418 0.0
C1468 C 0.277 0.74976 0.67229 0.0
C1469 C 0.25439 0.75193 0.63806 0.0
C1470 C 0.28228 0.76939 0.67422 0.0
C1471 C 0.28549 0.78056 0.69175 0.0
C1472 C 0.284 0.77211 0.70743 0.0
C1473 C 0.2784 0.75252 0.70535 0.0
C1474 C 0.2745 0.74151 0.68795 0.0
H1475 H 0.24361 0.74705 0.62646 0.0
H1476 H 0.24855 0.75394 0.65117 0.0
H1477 H 0.26225 0.76574 0.63621 0.0
H1478 H 0.28479 0.77601 0.66234 0.0
H1479 H 0.29009 0.79564 0.69306 0.0
H1480 H 0.6215 0.01765 0.79238 0.0
H1481 H 0.62226 0.03188 0.82501 0.0
H1482 H 0.63833 0.08718 0.81141 0.0
H1483 H 0.63721 0.0731 0.77903 0.0
H1484 H 0.65251 0.0631 0.85049 0.0
H1485 H 0.58888 0.08183 0.83262 0.0
H1486 H 0.59586 0.06355 0.81815 0.0
H1487 H 0.60645 0.0877 0.81887 0.0
C1488 C 0.62498 0.0328 0.7965 0.0
C1489 C 0.62864 0.04446 0.78349 0.0
C1490 C 0.6257 0.04086 0.81498 0.0
C1491 C 0.63032 0.0605 0.82034 0.0
C1492 C 0.63468 0.07202 0.80737 0.0
H1493 H 0.58884 0.09846 0.91942 0.0
H1494 H 0.60853 0.10551 0.89595 0.0
C1495 C 0.63379 0.06402 0.78899 0.0
C1496 C 0.62864 0.06901 0.83906 0.0
H1497 H 0.59941 0.08626 0.86374 0.0
C1498 C 0.64111 0.06853 0.8535 0.0
C1499 C 0.61401 0.07652 0.84266 0.0
C1500 C 0.60045 0.07745 0.82733 0.0
C1501 C 0.6386 0.07421 0.87182 0.0
C1502 C 0.62299 0.07986 0.87552 0.0
C1503 C 0.6114 0.08197 0.86093 0.0
C1504 C 0.61612 0.0789 0.89335 0.0
C1505 C 0.65222 0.07315 0.88698 0.0
C1506 C 0.61441 0.06197 0.90001 0.0
C1507 C 0.60364 0.0582 0.91349 0.0
C1508 C 0.59401 0.07106 0.92019 0.0
C1509 C 0.59634 0.08847 0.91441 0.0
C1510 C 0.60756 0.09248 0.90114 0.0
H1511 H 0.66563 0.07751 0.88301 0.0
H1512 H 0.65132 0.08214 0.90018 0.0
H1513 H 0.65042 0.05838 0.8891 0.0
H1514 H 0.62008 0.05086 0.89367 0.0
H1515 H 0.60165 0.04449 0.91748 0.0
H1516 H 0.28747 0.38231 0.09808 0.0
H1517 H 0.28457 0.36714 0.12522 0.0
H1518 H 0.29649 0.31777 0.09506 0.0
H1519 H 0.29909 0.33272 0.06765 0.0
H1520 H 0.26125 0.32686 0.12652 0.0
H1521 H 0.33342 0.33909 0.14534 0.0
H1522 H 0.3239 0.35351 0.13178 0.0
H1523 H 0.32474 0.33022 0.12151 0.0
C1524 C 0.28949 0.36822 0.09719 0.0
C1525 C 0.29368 0.35879 0.08072 0.0
C1526 C 0.28774 0.35955 0.1127 0.0
C1527 C 0.2904 0.34138 0.11219 0.0
C1528 C 0.29443 0.33183 0.09575 0.0
H1529 H 0.29403 0.26618 0.19007 0.0
H1530 H 0.29584 0.28279 0.16384 0.0
C1531 C 0.29592 0.34039 0.08012 0.0
C1532 C 0.28946 0.33264 0.12901 0.0
H1533 H 0.31511 0.32146 0.16324 0.0
C1534 C 0.27301 0.32574 0.13461 0.0
C1535 C 0.30481 0.33125 0.13956 0.0
C1536 C 0.32278 0.33897 0.13441 0.0
C1537 C 0.27152 0.31712 0.1503 0.0
C1538 C 0.2869 0.31563 0.16079 0.0
C1539 C 0.30334 0.32266 0.15523 0.0
C1540 C 0.28618 0.30604 0.17709 0.0
C1541 C 0.25352 0.30918 0.15527 0.0
C1542 C 0.2804 0.31371 0.19341 0.0
C1543 C 0.27958 0.30431 0.20853 0.0
C1544 C 0.28452 0.28711 0.20755 0.0
C1545 C 0.29033 0.27952 0.19125 0.0
C1546 C 0.29134 0.28898 0.17626 0.0
H1547 H 0.24296 0.30868 0.14412 0.0
H1548 H 0.25257 0.29477 0.15823 0.0
H1549 H 0.25124 0.31808 0.16793 0.0
H1550 H 0.27638 0.32687 0.19438 0.0
H1551 H 0.27439 0.3101 0.22064 0.0
H1552 H 0.26804 0.96042 0.03423 0.0
H1553 H 0.2433 0.9707 0.04675 0.0
H1554 H 0.21078 0.94602 0.99506 0.0
H1555 H 0.23532 0.93456 0.98296 0.0
H1556 H 0.22748 0.99446 0.03646 0.0
H1557 H 0.17791 0.9277 0.02955 0.0
H1558 H 0.20064 0.9284 0.02683 0.0
H1559 H 0.18559 0.93014 0.00774 0.0
C1560 C 0.25553 0.95712 0.02562 0.0
C1561 C 0.2534 0.94684 0.00766 0.0
C1562 C 0.24143 0.96287 0.03281 0.0
C1563 C 0.22512 0.95876 0.02199 0.0
C1564 C 0.22308 0.9487 0.00389 0.0
H1565 H 0.14234 0.00659 0.00555 0.0
H1566 H 0.16473 0.98848 0.007 0.0
C1567 C 0.23708 0.94243 0.99688 0.0
C1568 C 0.21074 0.96652 0.02901 0.0
H1569 H 0.16647 0.95593 0.03001 0.0
C1570 C 0.21423 0.98594 0.03556 0.0
C1571 C 0.19353 0.95535 0.02809 0.0
C1572 C 0.18928 0.93421 0.02287 0.0
C1573 C 0.20067 0.9947 0.03976 0.0
C1574 C 0.1833 0.98374 0.03711 0.0
C1575 C 0.1799 0.9642 0.03184 0.0
C1576 C 0.16849 0.99273 0.03678 0.0
C1577 C 0.20478 0.01576 0.04576 0.0
C1578 C 0.16322 1.00079 0.05312 0.0
C1579 C 0.15038 0.01109 0.05235 0.0
C1580 C 0.14278 0.01344 0.03522 0.0
C1581 C 0.14783 1.00485 0.01891 0.0
C1582 C 0.16058 0.99454 0.01971 0.0
H1583 H 0.21909 0.02222 0.04719 0.0
H1584 H 0.19793 0.02212 0.03559 0.0
H1585 H 0.19991 0.01926 0.05922 0.0
H1586 H 0.16929 0.99944 0.06638 0.0
H1587 H 0.14649 0.01733 0.06512 0.0
H1588 H 0.70947 0.66273 0.97436 0.0
H1589 H 0.68025 0.64445 0.97803 0.0
H1590 H 0.70425 0.61024 0.00942 0.0
H1591 H 0.73349 0.62824 0.00555 0.0
H1592 H 0.67485 0.59247 0.97419 0.0
H1593 H 0.65839 0.6412 0.03172 0.0
H1594 H 0.67065 0.65068 0.01436 0.0
H1595 H 0.68062 0.63879 0.03005 0.0
C1596 C 0.7085 0.65133 0.98207 0.0
C1597 C 0.72375 0.64679 0.98952 0.0
C1598 C 0.69183 0.64096 0.98421 0.0
C1599 C 0.69011 0.62609 0.9941 0.0
C1600 C 0.70531 0.62165 0.00172 0.0
H1601 H 0.59464 0.56121 0.02791 0.0
H1602 H 0.62378 0.58129 0.02711 0.0
C1603 C 0.72198 0.63186 0.99939 0.0
C1604 C 0.67246 0.61455 0.99564 0.0
H1605 H 0.63649 0.61404 0.0187 0.0
C1606 C 0.66642 0.59714 0.9839 0.0
C1607 C 0.66168 0.62056 0.00856 0.0
C1608 C 0.66805 0.6388 0.02201 0.0
C1609 C 0.64978 0.58562 0.98454 0.0
C1610 C 0.63855 0.59192 0.99693 0.0
C1611 C 0.64485 0.60924 0.00899 0.0
C1612 C 0.62038 0.58066 0.99763 0.0
C1613 C 0.64469 0.56658 0.97219 0.0
C1614 C 0.60841 0.57404 0.9815 0.0
C1615 C 0.59196 0.5622 0.98189 0.0
C1616 C 0.58681 0.55725 0.99852 0.0
C1617 C 0.59828 0.56479 0.01487 0.0
C1618 C 0.61494 0.57627 0.01441 0.0
H1619 H 0.65645 0.56152 0.96842 0.0
H1620 H 0.6365 0.55596 0.97888 0.0
H1621 H 0.63712 0.56765 0.95922 0.0
H1622 H 0.61189 0.57779 0.96849 0.0
H1623 H 0.58328 0.55681 0.96913 0.0
H1624 H 0.7072 0.46752 0.24429 0.0
H1625 H 0.72117 0.44079 0.24224 0.0
H1626 H 0.68563 0.41555 0.27746 0.0
H1627 H 0.67102 0.44162 0.27846 0.0
H1628 H 0.73985 0.42631 0.26127 0.0
H1629 H 0.68068 0.36827 0.24545 0.0
H1630 H 0.67943 0.39225 0.24559 0.0
H1631 H 0.68035 0.38314 0.26685 0.0
C1632 C 0.70216 0.45622 0.2515 0.0
C1633 C 0.68762 0.45717 0.26146 0.0
C1634 C 0.71031 0.44065 0.25035 0.0
C1635 C 0.7046 0.4251 0.25925 0.0
C1636 C 0.69029 0.42635 0.26958 0.0
H1637 H 0.74065 0.31925 0.27219 0.0
H1638 H 0.7256 0.34515 0.27276 0.0
C1639 C 0.68191 0.44171 0.2704 0.0
C1640 C 0.71395 0.40836 0.25826 0.0
H1641 H 0.70727 0.35996 0.25396 0.0
C1642 C 0.73251 0.41184 0.25954 0.0
C1643 C 0.70506 0.38893 0.25603 0.0
C1644 C 0.6853 0.38287 0.25321 0.0
C1645 C 0.74208 0.39737 0.25925 0.0
C1646 C 0.73321 0.37793 0.25712 0.0
C1647 C 0.71462 0.37442 0.25573 0.0
C1648 C 0.74271 0.36129 0.25648 0.0
C1649 C 0.76184 0.40355 0.26204 0.0
C1650 C 0.75751 0.36042 0.24686 0.0
C1651 C 0.76659 0.34571 0.24709 0.0
C1652 C 0.76098 0.33037 0.25618 0.0
C1653 C 0.74566 0.33057 0.26498 0.0
C1654 C 0.7369 0.34565 0.26527 0.0
H1655 H 0.76641 0.41823 0.26961 0.0
H1656 H 0.76779 0.39438 0.26987 0.0
H1657 H 0.76678 0.40315 0.2484 0.0
H1658 H 0.76219 0.3711 0.23886 0.0
H1659 H 0.77802 0.34624 0.23979 0.0
H1660 H 0.85725 0.42239 0.48977 0.0
H1661 H 0.88918 0.43253 0.49609 0.0
H1662 H 0.8846 0.46302 0.54934 0.0
H1663 H 0.85269 0.45322 0.54303 0.0
H1664 H 0.88868 0.48107 0.513 0.0
H1665 H 0.93903 0.44341 0.53454 0.0
H1666 H 0.91908 0.43041 0.52018 0.0
H1667 H 0.91812 0.44041 0.54362 0.0
C1668 C 0.86309 0.43045 0.50319 0.0
C1669 C 0.85279 0.43789 0.51561 0.0
C1670 C 0.8813 0.43596 0.5069 0.0
C1671 C 0.88899 0.44876 0.52299 0.0
C1672 C 0.87872 0.45317 0.53683 0.0
H1673 H 0.98418 0.53393 0.53724 0.0
H1674 H 0.95435 0.51826 0.54093 0.0
C1675 C 0.86056 0.44788 0.53307 0.0
C1676 C 0.90467 0.46294 0.52167 0.0
H1677 H 0.94912 0.47237 0.52468 0.0
C1678 C 0.90195 0.47933 0.51575 0.0
C1679 C 0.92169 0.46026 0.52506 0.0
C1680 C 0.92483 0.44271 0.53125 0.0
C1681 C 0.91605 0.4932 0.5129 0.0
C1682 C 0.93304 0.49045 0.51618 0.0
C1683 C 0.93584 0.47422 0.52233 0.0
C1684 C 0.94828 0.50384 0.51263 0.0
C1685 C 0.91283 0.51049 0.50615 0.0
C1686 C 0.954 0.50149 0.49521 0.0
C1687 C 0.97104 0.5102 0.49305 0.0
C1688 C 0.98235 0.52113 0.50839 0.0
C1689 C 0.97582 0.52516 0.5253 0.0
C1690 C 0.95882 0.51638 0.52744 0.0
H1691 H 0.89873 0.51088 0.50517 0.0
H1692 H 0.92062 0.52329 0.51559 0.0
H1693 H 0.9173 0.51086 0.49234 0.0
H1694 H 0.94579 0.49177 0.48371 0.0
H1695 H 0.97568 0.5072 0.47978 0.0
H1696 H 0.4132 0.08889 0.27174 0.0
H1697 H 0.39906 0.10866 0.25544 0.0
H1698 H 0.35027 0.08708 0.27595 0.0
H1699 H 0.36428 0.06613 0.29172 0.0
H1700 H 0.3487 0.08783 0.23629 0.0
H1701 H 0.3851 0.15595 0.27974 0.0
H1702 H 0.39781 0.13976 0.27126 0.0
H1703 H 0.38299 0.13387 0.28777 0.0
C1704 C 0.39959 0.08875 0.27335 0.0
C1705 C 0.38988 0.07647 0.28348 0.0
C1706 C 0.39154 0.09991 0.26384 0.0
C1707 C 0.3738 0.09943 0.26478 0.0
C1708 C 0.36405 0.08753 0.2752 0.0
H1709 H 0.29597 0.15117 0.24762 0.0
H1710 H 0.31512 0.12938 0.24821 0.0
C1711 C 0.37204 0.07588 0.28438 0.0
C1712 C 0.36552 0.11147 0.25485 0.0
H1713 H 0.36433 0.15716 0.25562 0.0
C1714 C 0.35219 0.103 0.24034 0.0
C1715 C 0.37059 0.13122 0.25993 0.0
C1716 C 0.38483 0.14082 0.27558 0.0
C1717 C 0.34293 0.11389 0.23146 0.0
C1718 C 0.34709 0.13351 0.23751 0.0
C1719 C 0.36134 0.14206 0.25101 0.0
C1720 C 0.33451 0.14469 0.23352 0.0
C1721 C 0.32822 0.10439 0.21632 0.0
C1722 C 0.33929 0.16053 0.22522 0.0
C1723 C 0.32839 0.17309 0.22506 0.0
C1724 C 0.31277 0.16972 0.23317 0.0
C1725 C 0.30778 0.15359 0.24088 0.0
C1726 C 0.31863 0.14117 0.24112 0.0
H1727 H 0.32983 0.09042 0.2098 0.0
H1728 H 0.31554 0.10229 0.22221 0.0
H1729 H 0.32754 0.11324 0.20558 0.0
H1730 H 0.35172 0.16355 0.21966 0.0
H1731 H 0.33243 0.18571 0.2193 0.0
H1732 H 0.32008 0.1404 0.53301 0.0
H1733 H 0.34819 0.13204 0.537 0.0
H1734 H 0.3636 0.15598 0.48964 0.0
H1735 H 0.33518 0.16472 0.48559 0.0
H1736 H 0.35792 0.10722 0.50867 0.0
H1737 H 0.40827 0.17463 0.52925 0.0
H1738 H 0.38541 0.17268 0.53236 0.0
H1739 H 0.3922 0.17283 0.50983 0.0
C1740 C 0.32943 0.14406 0.52344 0.0
C1741 C 0.32521 0.15294 0.50874 0.0
C1742 C 0.34559 0.13936 0.52586 0.0
C1743 C 0.35802 0.14338 0.51367 0.0
C1744 C 0.35426 0.15295 0.49937 0.0
H1745 H 0.45396 0.10628 0.49817 0.0
H1746 H 0.43085 0.12362 0.49925 0.0
C1747 C 0.33799 0.15782 0.49698 0.0
C1748 C 0.37382 0.13548 0.51491 0.0
H1749 H 0.41855 0.14674 0.52464 0.0
C1750 C 0.37119 0.11586 0.51217 0.0
C1751 C 0.39109 0.14678 0.51947 0.0
C1752 C 0.39455 0.16792 0.52304 0.0
C1753 C 0.38528 0.10718 0.51362 0.0
C1754 C 0.40261 0.11843 0.51844 0.0
C1755 C 0.40529 0.13811 0.5211 0.0
C1756 C 0.41802 0.10983 0.51986 0.0
C1757 C 0.38143 0.08598 0.50948 0.0
C1758 C 0.41902 0.09689 0.53171 0.0
C1759 C 0.43201 0.08662 0.53084 0.0
C1760 C 0.44449 0.08929 0.5183 0.0
C1761 C 0.44427 0.1034 0.50757 0.0
C1762 C 0.43117 0.11351 0.50832 0.0
H1763 H 0.36842 0.07983 0.5012 0.0
H1764 H 0.39161 0.08104 0.50185 0.0
H1765 H 0.38121 0.08053 0.52262 0.0
H1766 H 0.40933 0.09418 0.54114 0.0
H1767 H 0.43171 0.07595 0.53936 0.0
H1768 H 0.71081 0.57047 0.27171 0.0
H1769 H 0.72874 0.60222 0.27118 0.0
H1770 H 0.68163 0.62125 0.25998 0.0
H1771 H 0.66395 0.59025 0.26088 0.0
H1772 H 0.73354 0.6249 0.24567 0.0
H1773 H 0.70462 0.66294 0.30072 0.0
H1774 H 0.70038 0.63766 0.2961 0.0
H1775 H 0.68831 0.64977 0.28228 0.0
C1776 C 0.70423 0.58144 0.26933 0.0
C1777 C 0.68567 0.57736 0.2666 0.0
C1778 C 0.71457 0.59978 0.26897 0.0
C1779 C 0.70681 0.61483 0.26602 0.0
C1780 C 0.68832 0.61055 0.26296 0.0
H1781 H 0.74756 0.73647 0.25691 0.0
H1782 H 0.72851 0.70522 0.25731 0.0
C1783 C 0.67808 0.59242 0.26334 0.0
C1784 C 0.71772 0.63472 0.26561 0.0
H1785 H 0.72235 0.68184 0.2829 0.0
C1786 C 0.73109 0.63725 0.25399 0.0
C1787 C 0.71474 0.65137 0.27613 0.0
C1788 C 0.70136 0.65034 0.28963 0.0
C1789 C 0.74108 0.65536 0.25241 0.0
C1790 C 0.73825 0.67198 0.26308 0.0
C1791 C 0.72478 0.66948 0.27458 0.0
C1792 C 0.74969 0.69173 0.26314 0.0
C1793 C 0.75431 0.65641 0.23874 0.0
C1794 C 0.76811 0.69537 0.26671 0.0
C1795 C 0.77896 0.71325 0.26656 0.0
C1796 C 0.77209 0.72867 0.26305 0.0
C1797 C 0.75359 0.72529 0.25982 0.0
C1798 C 0.7426 0.7072 0.25999 0.0
H1799 H 0.75078 0.64396 0.22747 0.0
H1800 H 0.75539 0.66926 0.23252 0.0
H1801 H 0.76736 0.65666 0.24588 0.0
H1802 H 0.77427 0.68431 0.26978 0.0
H1803 H 0.79302 0.71494 0.26927 0.0
H1804 H 0.92468 0.46097 0.7664 0.0
H1805 H 0.90404 0.43076 0.76611 0.0
H1806 H 0.86221 0.45131 0.7411 0.0
H1807 H 0.88258 0.4816 0.74183 0.0
H1808 H 0.86874 0.43813 0.78507 0.0
H1809 H 0.86087 0.39111 0.7168 0.0
H1810 H 0.88159 0.40713 0.72649 0.0
H1811 H 0.86378 0.41608 0.71771 0.0
C1812 C 0.91121 0.45871 0.76026 0.0
C1813 C 0.90499 0.47339 0.75426 0.0
C1814 C 0.89953 0.44157 0.76011 0.0
C1815 C 0.8818 0.43906 0.75352 0.0
C1816 C 0.87595 0.45316 0.74606 0.0
H1817 H 0.79108 0.34966 0.74672 0.0
H1818 H 0.80963 0.38045 0.74544 0.0
C1819 C 0.8875 0.47036 0.74656 0.0
C1820 C 0.86875 0.42346 0.75755 0.0
H1821 H 0.84161 0.38155 0.73803 0.0
C1822 C 0.86279 0.42564 0.77491 0.0
C1823 C 0.86103 0.40763 0.74401 0.0
C1824 C 0.8671 0.40516 0.72517 0.0
C1825 C 0.84887 0.4123 0.77905 0.0
C1826 C 0.84123 0.39624 0.76558 0.0
C1827 C 0.84739 0.39405 0.74825 0.0
C1828 C 0.82767 0.38077 0.76936 0.0
C1829 C 0.8423 0.41579 0.79759 0.0
C1830 C 0.83122 0.37143 0.78383 0.0
C1831 C 0.82038 0.35422 0.78486 0.0
C1832 C 0.80632 0.34601 0.77109 0.0
C1833 C 0.80201 0.35588 0.75738 0.0
C1834 C 0.81255 0.37335 0.75666 0.0
H1835 H 0.84485 0.43107 0.80315 0.0
H1836 H 0.82801 0.40957 0.79681 0.0
H1837 H 0.84941 0.4094 0.80752 0.0
H1838 H 0.84307 0.37669 0.79346 0.0
H1839 H 0.82394 0.34662 0.79543 0.0
H1840 H 0.08137 0.84716 0.06362 0.0
H1841 H 0.07672 0.87334 0.04862 0.0
H1842 H 0.04742 0.89078 0.09215 0.0
H1843 H 0.0526 0.86524 0.1075 0.0
H1844 H 0.04785 0.88371 0.03485 0.0
H1845 H 0.08315 0.93869 0.09347 0.0
H1846 H 0.08378 0.91435 0.09212 0.0
H1847 H 0.06527 0.92251 0.10006 0.0
C1848 C 0.07401 0.85664 0.07002 0.0
C1849 C 0.06764 0.8543 0.08695 0.0
C1850 C 0.07131 0.87158 0.0614 0.0
C1851 C 0.06208 0.88439 0.06945 0.0
C1852 C 0.05509 0.88153 0.08594 0.0
H1853 H 0.01937 0.9697 0.0251 0.0
H1854 H 0.0236 0.94092 0.03535 0.0
C1855 C 0.058 0.86684 0.09468 0.0
C1856 C 0.05996 0.9009 0.06089 0.0
H1857 H 0.06688 0.94881 0.07007 0.0
C1858 C 0.05208 0.89794 0.04254 0.0
C1859 C 0.06566 0.91957 0.07078 0.0
C1860 C 0.07509 0.92402 0.09012 0.0
C1861 C 0.04937 0.91305 0.03408 0.0
C1862 C 0.05461 0.93158 0.04421 0.0
C1863 C 0.06276 0.93457 0.06236 0.0
C1864 C 0.05188 0.94818 0.03634 0.0
C1865 C 0.04117 0.90922 0.01429 0.0
C1866 C 0.06637 0.9619 0.03357 0.0
C1867 C 0.06402 0.97845 0.02784 0.0
C1868 C 0.0471 0.98163 0.02478 0.0
C1869 C 0.03257 0.96765 0.02718 0.0
C1870 C 0.03495 0.95114 0.03298 0.0
H1871 H 0.0399 0.89442 0.00759 0.0
H1872 H 0.02789 0.91213 0.01371 0.0
H1873 H 0.04916 0.91869 0.00631 0.0
H1874 H 0.07956 0.95993 0.03611 0.0
H1875 H 0.07549 0.98883 0.026 0.0
H1876 H 0.96628 0.29749 0.85916 0.0
H1877 H 0.93743 0.29835 0.84552 0.0
H1878 H 0.91518 0.24567 0.86174 0.0
H1879 H 0.94456 0.24472 0.87583 0.0
H1880 H 0.91764 0.26986 0.81626 0.0
H1881 H 0.88021 0.27987 0.87623 0.0
H1882 H 0.90395 0.28554 0.87886 0.0
H1883 H 0.89198 0.26147 0.87434 0.0
C1884 C 0.95534 0.28601 0.85999 0.0
C1885 C 0.95795 0.27085 0.86842 0.0
C1886 C 0.93873 0.28661 0.85219 0.0
C1887 C 0.92402 0.27213 0.85252 0.0
C1888 C 0.92628 0.25716 0.86145 0.0
H1889 H 0.81686 0.26724 0.80041 0.0
H1890 H 0.84156 0.26221 0.82021 0.0
C1891 C 0.94311 0.25657 0.86943 0.0
C1892 C 0.90693 0.27247 0.84209 0.0
H1893 H 0.86609 0.28041 0.84703 0.0
C1894 C 0.90631 0.272 0.823 0.0
C1895 C 0.89204 0.27507 0.85076 0.0
C1896 C 0.89194 0.27562 0.87119 0.0
C1897 C 0.8915 0.27439 0.81241 0.0
C1898 C 0.87691 0.27813 0.82118 0.0
C1899 C 0.87725 0.27787 0.84022 0.0
C1900 C 0.86148 0.28256 0.81076 0.0
C1901 C 0.89173 0.2726 0.79182 0.0
C1902 C 0.86411 0.29629 0.79942 0.0
C1903 C 0.8501 0.29876 0.78778 0.0
C1904 C 0.83293 0.28827 0.78783 0.0
C1905 C 0.82995 0.27566 0.80023 0.0
C1906 C 0.84411 0.27273 0.8115 0.0
H1907 H 0.90042 0.26342 0.7868 0.0
H1908 H 0.87838 0.26672 0.78424 0.0
H1909 H 0.897 0.28666 0.78843 0.0
H1910 H 0.87714 0.30474 0.79908 0.0
H1911 H 0.85276 0.30865 0.77843 0.0
H1912 H 0.5465 0.24935 0.57062 0.0
H1913 H 0.53964 0.21775 0.55155 0.0
H1914 H 0.58173 0.2038 0.58365 0.0
H1915 H 0.58835 0.23488 0.60283 0.0
H1916 H 0.56024 0.19645 0.53045 0.0
H1917 H 0.5379 0.16438 0.58972 0.0
H1918 H 0.54084 0.18919 0.58947 0.0
H1919 H 0.5594 0.1797 0.5952 0.0
C1920 C 0.5544 0.23958 0.57339 0.0
C1921 C 0.56777 0.24441 0.58836 0.0
C1922 C 0.55045 0.22158 0.56255 0.0
C1923 C 0.55992 0.20837 0.56654 0.0
C1924 C 0.57399 0.21366 0.58068 0.0
H1925 H 0.57409 0.09911 0.53489 0.0
H1926 H 0.57588 0.13254 0.54496 0.0
C1927 C 0.57778 0.23143 0.59158 0.0
C1928 C 0.55492 0.18872 0.55667 0.0
H1929 H 0.54524 0.14374 0.56474 0.0
C1930 C 0.55664 0.18488 0.53781 0.0
C1931 C 0.55 0.17369 0.5663 0.0
C1932 C 0.54674 0.17692 0.58625 0.0
C1933 C 0.55467 0.16633 0.52864 0.0
C1934 C 0.55098 0.1515 0.53866 0.0
C1935 C 0.54834 0.15527 0.55722 0.0
C1936 C 0.55064 0.13197 0.53053 0.0
C1937 C 0.55726 0.16264 0.50856 0.0
C1938 C 0.53592 0.12077 0.51893 0.0
C1939 C 0.53478 0.10163 0.51321 0.0
C1940 C 0.54839 0.09347 0.51904 0.0
C1941 C 0.56343 0.10497 0.53007 0.0
C1942 C 0.56448 0.12405 0.53586 0.0
H1943 H 0.56103 0.17582 0.50295 0.0
H1944 H 0.56759 0.15465 0.50667 0.0
H1945 H 0.5449 0.15387 0.50045 0.0
H1946 H 0.52506 0.12669 0.51485 0.0
H1947 H 0.52304 0.09314 0.50468 0.0
H1948 H 0.57626 0.77721 0.41004 0.0
H1949 H 0.60462 0.78566 0.3982 0.0
H1950 H 0.57834 0.77174 0.34261 0.0
H1951 H 0.54999 0.76336 0.3543 0.0
H1952 H 0.62027 0.763 0.3737 0.0
H1953 H 0.60938 0.82468 0.34478 0.0
H1954 H 0.59614 0.81471 0.36122 0.0
H1955 H 0.5919 0.80408 0.33723 0.0
C1956 C 0.57651 0.77595 0.39528 0.0
C1957 C 0.56082 0.7696 0.38311 0.0
C1958 C 0.59274 0.78082 0.38855 0.0
C1959 C 0.5936 0.77964 0.36953 0.0
C1960 C 0.57798 0.77314 0.35736 0.0
H1961 H 0.66572 0.78811 0.28991 0.0
H1962 H 0.6414 0.78681 0.30844 0.0
C1963 C 0.56178 0.76819 0.36406 0.0
C1964 C 0.61081 0.78445 0.36225 0.0
H1965 H 0.63299 0.81178 0.33456 0.0
C1966 C 0.62318 0.77382 0.36532 0.0
C1967 C 0.61468 0.79869 0.35149 0.0
C1968 C 0.60241 0.81134 0.34861 0.0
C1969 C 0.6388 0.77623 0.35699 0.0
C1970 C 0.64232 0.78995 0.34553 0.0
C1971 C 0.63028 0.80116 0.34318 0.0
C1972 C 0.6576 0.79188 0.33466 0.0
C1973 C 0.65091 0.76341 0.35982 0.0
C1974 C 0.67498 0.7956 0.34318 0.0
C1975 C 0.68901 0.7963 0.33254 0.0
C1976 C 0.68599 0.79359 0.31316 0.0
C1977 C 0.66862 0.7905 0.30477 0.0
C1978 C 0.65464 0.78967 0.31538 0.0
H1979 H 0.64433 0.75089 0.3653 0.0
H1980 H 0.65582 0.75855 0.34673 0.0
H1981 H 0.66236 0.77118 0.36994 0.0
H1982 H 0.6777 0.79788 0.35805 0.0
H1983 H 0.70223 0.799 0.33949 0.0
H1984 H 0.09708 0.26438 0.42141 0.0
H1985 H 0.08602 0.23586 0.43371 0.0
H1986 H 0.0337 0.23272 0.40829 0.0
H1987 H 0.04504 0.26055 0.39493 0.0
H1988 H 0.06336 0.2312 0.45733 0.0
H1989 H 0.03656 0.17975 0.39283 0.0
H1990 H 0.05008 0.20275 0.3927 0.0
H1991 H 0.0272 0.19986 0.39561 0.0
C1992 C 0.08326 0.25746 0.4184 0.0
C1993 C 0.07184 0.26445 0.40732 0.0
C1994 C 0.07696 0.24122 0.42534 0.0
C1995 C 0.05908 0.23205 0.42167 0.0
C1996 C 0.04761 0.23924 0.41081 0.0
H1997 H 0.00975 0.13979 0.47522 0.0
H1998 H 0.01306 0.16539 0.45734 0.0
C1999 C 0.05403 0.25518 0.40337 0.0
C2000 C 0.05252 0.21562 0.43021 0.0
H2001 H 0.03217 0.16898 0.42099 0.0
C2002 C 0.05648 0.21763 0.44936 0.0
C2003 C 0.04339 0.19799 0.41976 0.0
C2004 C 0.03918 0.19487 0.39907 0.0
C2005 C 0.05218 0.20231 0.4583 0.0
C2006 C 0.04354 0.18464 0.44782 0.0
C2007 C 0.0388 0.18269 0.42884 0.0
C2008 C 0.04086 0.16785 0.45631 0.0
C2009 C 0.05739 0.20495 0.47882 0.0
C2010 C 0.05536 0.16073 0.46109 0.0
C2011 C 0.05358 0.14635 0.47131 0.0
C2012 C 0.03723 0.13889 0.47684 0.0
C2013 C 0.02252 0.14551 0.4713 0.0
C2014 C 0.02434 0.15994 0.46102 0.0
H2015 H 0.0607 0.22 0.48541 0.0
H2016 H 0.04669 0.19719 0.48554 0.0
H2017 H 0.06914 0.19923 0.48134 0.0
H2018 H 0.0682 0.16681 0.4575 0.0
H2019 H 0.06516 0.14165 0.47555 0.0
H2020 H 0.53946 0.28349 0.19291 0.0
H2021 H 0.56763 0.28589 0.21104 0.0
H2022 H 0.58459 0.25516 0.16418 0.0
H2023 H 0.55671 0.25299 0.14588 0.0
H2024 H 0.58247 0.25554 0.21838 0.0
H2025 H 0.62404 0.30304 0.17991 0.0
H2026 H 0.60048 0.29982 0.17827 0.0
H2027 H 0.60999 0.28267 0.16544 0.0
C2028 C 0.5493 0.27744 0.18646 0.0
C2029 C 0.54608 0.26825 0.168 0.0
C2030 C 0.56526 0.27877 0.19681 0.0
C2031 C 0.5781 0.27096 0.18875 0.0
C2032 C 0.57487 0.26163 0.1704 0.0
H2033 H 0.67446 0.24492 0.20919 0.0
H2034 H 0.64566 0.24963 0.19891 0.0
C2035 C 0.55899 0.26041 0.16001 0.0
C2036 C 0.59486 0.27217 0.19956 0.0
H2037 H 0.63891 0.28672 0.1992 0.0
C2038 C 0.59486 0.26265 0.21451 0.0
C2039 C 0.61081 0.28154 0.19432 0.0
C2040 C 0.61137 0.2925 0.17871 0.0
C2041 C 0.61065 0.26127 0.22375 0.0
C2042 C 0.62657 0.26987 0.21789 0.0
C2043 C 0.62655 0.28019 0.20356 0.0
C2044 C 0.64332 0.26648 0.22483 0.0
C2045 C 0.61026 0.24978 0.23893 0.0
C2046 C 0.65123 0.27432 0.24283 0.0
C2047 C 0.66761 0.27151 0.24876 0.0
C2048 C 0.67612 0.26107 0.23659 0.0
C2049 C 0.66806 0.25312 0.21868 0.0
C2050 C 0.65172 0.25577 0.21284 0.0
H2051 H 0.5967 0.24247 0.24053 0.0
H2052 H 0.61816 0.23915 0.23609 0.0
H2053 H 0.61622 0.25912 0.25218 0.0
H2054 H 0.6449 0.28281 0.2521 0.0
H2055 H 0.67382 0.27784 0.2626 0.0
H2056 H 0.58268 0.88904 0.88064 0.0
H2057 H 0.57206 0.91447 0.89775 0.0
H2058 H 0.58488 0.89618 0.94866 0.0
H2059 H 0.59537 0.87045 0.93167 0.0
H2060 H 0.54423 0.90297 0.92957 0.0
H2061 H 0.60606 0.95914 0.94708 0.0
H2062 H 0.60183 0.94205 0.92598 0.0
H2063 H 0.60694 0.93508 0.94753 0.0
C2064 C 0.58359 0.89064 0.89552 0.0
C2065 C 0.58987 0.87782 0.90489 0.0
C2066 C 0.57741 0.90507 0.90519 0.0
C2067 C 0.57772 0.90698 0.92431 0.0
C2068 C 0.58459 0.89473 0.93383 0.0
H2069 H 0.55847 0.97905 0.01545 0.0
H2070 H 0.5665 0.95563 0.99291 0.0
C2071 C 0.59058 0.88014 0.92416 0.0
C2072 C 0.57011 0.92125 0.93438 0.0
H2073 H 0.58131 0.96472 0.96104 0.0
C2074 C 0.55219 0.91659 0.93633 0.0
C2075 C 0.5807 0.93887 0.94293 0.0
C2076 C 0.59997 0.94427 0.94082 0.0
C2077 C 0.54465 0.92898 0.94749 0.0
C2078 C 0.5554 0.94638 0.95663 0.0
C2079 C 0.57318 0.95129 0.95401 0.0
C2080 C 0.54895 0.95909 0.97024 0.0
C2081 C 0.52553 0.92306 0.95011 0.0
C2082 C 0.53609 0.96833 0.96494 0.0
C2083 C 0.53129 0.98154 0.97788 0.0
C2084 C 0.5396 0.98585 0.99608 0.0
C2085 C 0.55195 0.97603 0.00146 0.0
C2086 C 0.5566 0.96274 0.98862 0.0
H2087 H 0.51988 0.90793 0.94454 0.0
H2088 H 0.52381 0.92585 0.96495 0.0
H2089 H 0.51796 0.93136 0.94284 0.0
H2090 H 0.5302 0.96577 0.95073 0.0
H2091 H 0.52163 0.9889 0.9735 0.0
H2092 H 0.96609 0.75816 0.70784 0.0
H2093 H 0.94025 0.76451 0.72125 0.0
H2094 H 0.91037 0.75011 0.66726 0.0
H2095 H 0.93648 0.74404 0.65354 0.0
H2096 H 0.91006 0.78734 0.69501 0.0
H2097 H 0.89515 0.71906 0.72007 0.0
H2098 H 0.91784 0.73151 0.72254 0.0
H2099 H 0.90625 0.72214 0.69994 0.0
C2100 C 0.95396 0.75616 0.69887 0.0
C2101 C 0.95298 0.75041 0.67979 0.0
C2102 C 0.93939 0.75996 0.70648 0.0
C2103 C 0.92373 0.7577 0.69509 0.0
C2104 C 0.92259 0.75196 0.67603 0.0
H2105 H 0.82362 0.74779 0.73082 0.0
H2106 H 0.84941 0.74484 0.71583 0.0
C2107 C 0.93731 0.74842 0.66832 0.0
C2108 C 0.9084 0.76058 0.70354 0.0
H2109 H 0.87989 0.74161 0.73121 0.0
C2110 C 0.9032 0.77735 0.70277 0.0
C2111 C 0.89989 0.74738 0.71357 0.0
C2112 C 0.90493 0.72892 0.71407 0.0
C2113 C 0.88937 0.78135 0.71207 0.0
C2114 C 0.88113 0.7683 0.72252 0.0
C2115 C 0.88646 0.75157 0.72323 0.0
C2116 C 0.86592 0.77071 0.73166 0.0
C2117 C 0.88357 0.7992 0.7104 0.0
C2118 C 0.86699 0.78611 0.74566 0.0
C2119 C 0.85215 0.78798 0.75407 0.0
C2120 C 0.83649 0.77415 0.74879 0.0
C2121 C 0.83572 0.75841 0.73533 0.0
C2122 C 0.85032 0.75682 0.72665 0.0
H2123 H 0.88855 0.80534 0.69852 0.0
H2124 H 0.86902 0.79663 0.70877 0.0
H2125 H 0.88878 0.80974 0.72311 0.0
H2126 H 0.87916 0.79666 0.74993 0.0
H2127 H 0.85282 0.80025 0.76444 0.0
H2128 H 0.12214 0.98753 0.82206 0.0
H2129 H 0.1086 0.98779 0.85108 0.0
H2130 H 0.11792 0.04807 0.8586 0.0
H2131 H 0.13028 0.04764 0.82946 0.0
H2132 H 0.1149 0.99852 0.88581 0.0
H2133 H 0.06954 0.04156 0.8678 0.0
H2134 H 0.0828 0.0329 0.85137 0.0
H2135 H 0.09156 0.0545 0.86763 0.0
C2136 C 0.12147 1.00087 0.82997 0.0
C2137 C 0.12758 0.01759 0.82305 0.0
C2138 C 0.11352 1.00105 0.84674 0.0
C2139 C 0.11134 0.01794 0.8574 0.0
C2140 C 0.11832 0.0346 0.8508 0.0
H2141 H 0.07833 0.04905 0.97007 0.0
H2142 H 0.09364 0.04789 0.94207 0.0
C2143 C 0.12585 0.03438 0.83401 0.0
C2144 C 0.1022 0.01838 0.87529 0.0
H2145 H 0.07377 0.03942 0.89976 0.0
C2146 C 0.10588 0.00748 0.88861 0.0
C2147 C 0.08989 0.02964 0.87959 0.0
C2148 C 0.08306 0.04011 0.86574 0.0
C2149 C 0.09839 0.00801 0.90564 0.0
C2150 C 0.0869 0.02 0.91025 0.0
C2151 C 0.08292 0.03061 0.89689 0.0
C2152 C 0.07809 0.0207 0.92816 0.0
C2153 C 0.10287 0.99569 0.91882 0.0
C2154 C 0.06411 1.00594 0.93032 0.0
C2155 C 0.05526 0.0067 0.94628 0.0
C2156 C 0.06004 0.02206 0.96119 0.0
C2157 C 0.07433 0.03674 0.95932 0.0
C2158 C 0.08304 0.03613 0.94306 0.0
H2159 H 0.11359 0.98896 0.91466 0.0
H2160 H 0.10683 1.00403 0.93295 0.0
H2161 H 0.09105 0.98449 0.91931 0.0
H2162 H 0.05969 0.99386 0.91936 0.0
H2163 H 0.04428 0.99514 0.94678 0.0
H2164 H 0.8151 0.43213 0.56841 0.0
H2165 H 0.82651 0.42138 0.59559 0.0
H2166 H 0.80694 0.36381 0.56835 0.0
H2167 H 0.79535 0.37434 0.54113 0.0
H2168 H 0.80404 0.39218 0.61507 0.0
H2169 H 0.86256 0.37334 0.58684 0.0
H2170 H 0.85226 0.39065 0.57874 0.0
H2171 H 0.84208 0.36611 0.57191 0.0
C2172 C 0.81307 0.41717 0.56828 0.0
C2173 C 0.8043 0.40403 0.55271 0.0
C2174 C 0.81968 0.41111 0.58373 0.0
C2175 C 0.81776 0.3919 0.58368 0.0
C2176 C 0.80869 0.37873 0.56838 0.0
H2177 H 0.82758 0.3115 0.64596 0.0
H2178 H 0.83093 0.33208 0.62334 0.0
C2179 C 0.80196 0.38475 0.55297 0.0
C2180 C 0.82465 0.38546 0.5999 0.0
H2181 H 0.85509 0.36281 0.61455 0.0
C2182 C 0.8154 0.38608 0.61523 0.0
C2183 C 0.83942 0.37753 0.59974 0.0
C2184 C 0.84979 0.37692 0.58349 0.0
C2185 C 0.81992 0.37789 0.63017 0.0
C2186 C 0.83443 0.36943 0.62985 0.0
C2187 C 0.84416 0.36958 0.61481 0.0
C2188 C 0.83771 0.35776 0.64352 0.0
C2189 C 0.80838 0.3772 0.64552 0.0
C2190 C 0.84167 0.36548 0.66233 0.0
C2191 C 0.83985 0.3537 0.67539 0.0
C2192 C 0.83403 0.33412 0.6697 0.0
C2193 C 0.83214 0.32648 0.65083 0.0
C2194 C 0.83397 0.33824 0.63784 0.0
H2195 H 0.79608 0.38164 0.64204 0.0
H2196 H 0.80484 0.36277 0.64866 0.0
H2197 H 0.81562 0.38674 0.65817 0.0
H2198 H 0.84489 0.38057 0.66689 0.0
H2199 H 0.84176 0.35994 0.68987 0.0
H2200 H 0.47137 0.0079 0.3177 0.0
H2201 H 0.48065 1.00472 0.34913 0.0
H2202 H 0.45351 0.04665 0.37051 0.0
H2203 H 0.44369 0.0495 0.33905 0.0
H2204 H 0.50149 0.03666 0.37092 0.0
H2205 H 0.44355 0.00744 0.40472 0.0
H2206 H 0.44327 1.00435 0.37996 0.0
H2207 H 0.44134 0.02631 0.39278 0.0
C2208 C 0.46739 0.01641 0.32912 0.0
C2209 C 0.45733 0.02935 0.32615 0.0
C2210 C 0.47237 0.01431 0.34695 0.0
C2211 C 0.46753 0.02532 0.36192 0.0
C2212 C 0.45697 0.03777 0.35901 0.0
H2213 H 0.53305 0.06297 0.46611 0.0
H2214 H 0.51185 0.0618 0.43928 0.0
C2215 C 0.45172 0.03965 0.34114 0.0
C2216 C 0.47648 0.02653 0.38026 0.0
H2217 H 0.47061 0.02055 0.4242 0.0
C2218 C 0.49476 0.03308 0.38257 0.0
C2219 C 0.46747 0.02193 0.39525 0.0
C2220 C 0.44783 0.01446 0.3931 0.0
C2221 C 0.50445 0.03503 0.39959 0.0
C2222 C 0.49549 0.03067 0.41464 0.0
C2223 C 0.4772 0.02413 0.41248 0.0
C2224 C 0.5054 0.03143 0.43229 0.0
C2225 C 0.52423 0.04126 0.40131 0.0
C2226 C 0.50825 0.0147 0.437 0.0
C2227 C 0.52015 0.01536 0.45212 0.0
C2228 C 0.52944 0.03276 0.46226 0.0
C2229 C 0.52627 0.04951 0.4579 0.0
C2230 C 0.51407 0.04883 0.44295 0.0
H2231 H 0.52913 0.04239 0.38777 0.0
H2232 H 0.52869 0.0552 0.41041 0.0
H2233 H 0.5303 0.03118 0.40767 0.0
H2234 H 0.50177 1.00123 0.4286 0.0
H2235 H 0.52243 1.00236 0.45566 0.0
H2236 H 0.79696 0.69186 0.06845 0.0
H2237 H 0.80014 0.71183 0.09865 0.0
H2238 H 0.77715 0.75141 0.07408 0.0
H2239 H 0.77422 0.73148 0.0435 0.0
H2240 H 0.81535 0.75487 0.11234 0.0
H2241 H 0.74351 0.72607 0.11181 0.0
H2242 H 0.7564 0.71425 0.09708 0.0
H2243 H 0.75127 0.73552 0.09217 0.0
C2244 C 0.79292 0.70502 0.06943 0.0
C2245 C 0.78512 0.71008 0.05379 0.0
C2246 C 0.79482 0.71643 0.08664 0.0
C2247 C 0.78873 0.73292 0.08852 0.0
C2248 C 0.78191 0.73866 0.07278 0.0
H2249 H 0.76595 0.78394 0.19649 0.0
H2250 H 0.76656 0.77653 0.16301 0.0
C2251 C 0.78026 0.72734 0.0554 0.0
C2252 C 0.78758 0.74255 0.10721 0.0
H2253 H 0.75922 0.74349 0.13962 0.0
C2254 C 0.80305 0.75275 0.11827 0.0
C2255 C 0.77152 0.73956 0.11483 0.0
C2256 C 0.75467 0.72821 0.10348 0.0
C2257 C 0.80293 0.75974 0.13699 0.0
C2258 C 0.78697 0.75596 0.14486 0.0
C2259 C 0.7714 0.74639 0.13357 0.0
C2260 C 0.78639 0.76047 0.16498 0.0
C2261 C 0.81995 0.7709 0.14818 0.0
C2262 C 0.79684 0.75336 0.17705 0.0
C2263 C 0.79663 0.7577 0.19601 0.0
C2264 C 0.78565 0.76889 0.20329 0.0
C2265 C 0.77453 0.7753 0.1912 0.0
C2266 C 0.77495 0.77116 0.17214 0.0
H2267 H 0.82906 0.77794 0.13934 0.0
H2268 H 0.81766 0.78171 0.15928 0.0
H2269 H 0.82653 0.76124 0.15459 0.0
H2270 H 0.80521 0.74443 0.17182 0.0
H2271 H 0.8051 0.75226 0.20499 0.0
H2272 H 0.1049 0.01056 0.71993 0.0
H2273 H 0.08983 0.01415 0.69059 0.0
H2274 H 0.13588 0.00974 0.66419 0.0
H2275 H 0.15093 1.0062 0.69332 0.0
H2276 H 0.09774 0.04125 0.66763 0.0
H2277 H 0.09823 0.97177 0.62796 0.0
H2278 H 0.1029 0.97727 0.65276 0.0
H2279 H 0.11956 0.98505 0.63858 0.0
C2280 C 0.11183 0.0102 0.70788 0.0
C2281 C 0.12927 0.00792 0.70931 0.0
C2282 C 0.10315 0.01235 0.69096 0.0
C2283 C 0.11141 0.012 0.67468 0.0
C2284 C 0.12882 0.00972 0.67614 0.0
H2285 H 0.08379 0.01575 0.55683 0.0
H2286 H 0.09673 0.01242 0.58711 0.0
C2287 C 0.13754 0.00776 0.69303 0.0
C2288 C 0.10219 0.01441 0.65639 0.0
H2289 H 0.0902 0.99366 0.61082 0.0
C2290 C 0.09605 0.03077 0.65523 0.0
C2291 C 0.09982 1.00096 0.63988 0.0
C2292 C 0.10531 0.98269 0.6398 0.0
C2293 C 0.08847 0.03436 0.63834 0.0
C2294 C 0.08607 0.02086 0.6217 0.0
C2295 C 0.09192 1.00431 0.62307 0.0
C2296 C 0.07803 0.02355 0.60282 0.0
C2297 C 0.08392 0.05313 0.6386 0.0
C2298 C 0.06291 0.03087 0.60064 0.0
C2299 C 0.05591 0.03351 0.58319 0.0
C2300 C 0.06315 0.0281 0.56696 0.0
C2301 C 0.07778 0.02013 0.5689 0.0
C2302 C 0.08519 0.01814 0.58643 0.0
H2303 H 0.09184 0.06388 0.65014 0.0
H2304 H 0.08612 0.05838 0.62553 0.0
H2305 H 0.06991 0.05172 0.64074 0.0
H2306 H 0.0562 0.03437 0.6124 0.0
H2307 H 0.04445 0.03936 0.58234 0.0
H2308 H 0.79822 0.37033 0.4585 0.0
H2309 H 0.80224 0.34877 0.43167 0.0
H2310 H 0.80869 0.3936 0.40008 0.0
H2311 H 0.80521 0.41552 0.42717 0.0
H2312 H 0.78118 0.33963 0.39919 0.0
H2313 H 0.84969 0.37042 0.38837 0.0
H2314 H 0.84077 0.37693 0.4095 0.0
H2315 H 0.83594 0.38687 0.38952 0.0
C2316 C 0.8005 0.37562 0.44585 0.0
C2317 C 0.80127 0.39453 0.4448 0.0
C2318 C 0.80292 0.36332 0.43061 0.0
C2319 C 0.80603 0.36971 0.41408 0.0
C2320 C 0.80676 0.38858 0.41293 0.0
H2321 H 0.80272 0.32546 0.30229 0.0
H2322 H 0.80787 0.34375 0.33331 0.0
C2323 C 0.80458 0.401 0.42829 0.0
C2324 C 0.80701 0.3562 0.39766 0.0
H2325 H 0.83231 0.34737 0.36367 0.0
C2326 C 0.79245 0.34111 0.39154 0.0
C2327 C 0.82177 0.3583 0.38784 0.0
C2328 C 0.838 0.37391 0.39423 0.0
C2329 C 0.79188 0.32845 0.37529 0.0
C2330 C 0.80646 0.33082 0.3652 0.0
C2331 C 0.82125 0.34558 0.37161 0.0
C2332 C 0.80568 0.31959 0.34683 0.0
C2333 C 0.77533 0.31331 0.36858 0.0
C2334 C 0.8033 0.3 0.34428 0.0
C2335 C 0.80018 0.28944 0.32649 0.0
C2336 C 0.7996 0.29847 0.3112 0.0
C2337 C 0.8031 0.31816 0.31386 0.0
C2338 C 0.80606 0.32863 0.33155 0.0
H2339 H 0.76421 0.31566 0.37626 0.0
H2340 H 0.77136 0.31259 0.35368 0.0
H2341 H 0.77777 0.2995 0.3705 0.0
H2342 H 0.80327 0.29289 0.35601 0.0
H2343 H 0.7976 0.27427 0.3247 0.0
H2344 H 0.44405 0.05264 0.22109 0.0
H2345 H 0.4567 0.03654 0.19596 0.0
H2346 H 0.42661 0.98302 0.20458 0.0
H2347 H 0.41289 0.9992 0.22844 0.0
H2348 H 0.4768 0.01242 0.1984 0.0
H2349 H 0.41612 0.97681 0.15042 0.0
H2350 H 0.41599 0.99447 0.17007 0.0
H2351 H 0.41678 0.97103 0.17308 0.0
C2352 C 0.43975 0.03752 0.21705 0.0
C2353 C 0.42729 0.02712 0.22616 0.0
C2354 C 0.4471 0.02831 0.20298 0.0
C2355 C 0.44246 0.00859 0.19837 0.0
C2356 C 0.42998 0.99823 0.20755 0.0
H2357 H 0.50124 0.97502 0.10679 0.0
H2358 H 0.48647 0.96726 0.13373 0.0
C2359 C 0.42216 0.00748 0.22112 0.0
C2360 C 0.45101 0.99911 0.18407 0.0
H2361 H 0.44296 0.97509 0.13995 0.0
C2362 C 0.46942 1.0038 0.18579 0.0
C2363 C 0.44129 0.98762 0.16781 0.0
C2364 C 0.42147 0.98225 0.16511 0.0
C2365 C 0.47831 0.99919 0.17083 0.0
C2366 C 0.46846 0.98932 0.15405 0.0
C2367 C 0.4503 0.98254 0.15304 0.0
C2368 C 0.47558 0.99178 0.13678 0.0
C2369 C 0.49787 0.00701 0.17228 0.0
C2370 C 0.4737 0.00773 0.12963 0.0
C2371 C 0.48184 0.01205 0.11447 0.0
C2372 C 0.49206 1.00051 0.10629 0.0
C2373 C 0.49334 0.98403 0.11296 0.0
C2374 C 0.48502 0.97962 0.12822 0.0
H2375 H 0.50402 0.01062 0.18685 0.0
H2376 H 0.50424 0.99682 0.16447 0.0
H2377 H 0.50041 0.02 0.16622 0.0
H2378 H 0.46654 0.01729 0.13631 0.0
H2379 H 0.48103 0.02506 0.10988 0.0
H2380 H 0.8119 0.70742 0.94175 0.0
H2381 H 0.81497 0.7223 0.91442 0.0
H2382 H 0.76046 0.72478 0.91176 0.0
H2383 H 0.75796 0.71154 0.93997 0.0
H2384 H 0.80215 0.71167 0.88163 0.0
H2385 H 0.77875 0.77565 0.90376 0.0
H2386 H 0.78287 0.76051 0.91963 0.0
H2387 H 0.76214 0.75531 0.90513 0.0
C2388 C 0.80071 0.71147 0.93543 0.0
C2389 C 0.78476 0.70855 0.94299 0.0
C2390 C 0.80242 0.71993 0.91979 0.0
C2391 C 0.78806 0.72515 0.91109 0.0
C2392 C 0.77199 0.72175 0.91851 0.0
H2393 H 0.766 0.7542 0.80336 0.0
H2394 H 0.76464 0.74199 0.83242 0.0
C2395 C 0.77048 0.71395 0.93453 0.0
C2396 C 0.7896 0.733 0.89369 0.0
H2397 H 0.7791 0.76685 0.87114 0.0
C2398 C 0.79727 0.72388 0.87952 0.0
C2399 C 0.78338 0.74906 0.89076 0.0
C2400 C 0.77652 0.76079 0.90573 0.0
C2401 C 0.79849 0.73002 0.86253 0.0
C2402 C 0.79156 0.74546 0.85941 0.0
C2403 C 0.78408 0.75476 0.87351 0.0
C2404 C 0.7924 0.75242 0.8417 0.0
C2405 C 0.80703 0.71989 0.8479 0.0
C2406 C 0.80844 0.76224 0.83734 0.0
C2407 C 0.80924 0.7692 0.82085 0.0
C2408 C 0.794 0.76647 0.8084 0.0
C2409 C 0.77796 0.7564 0.81265 0.0
C2410 C 0.77715 0.74952 0.82925 0.0
H2411 H 0.8095 0.70657 0.85143 0.0
H2412 H 0.7987 0.71674 0.8344 0.0
H2413 H 0.81981 0.72909 0.84632 0.0
H2414 H 0.82031 0.76472 0.84683 0.0
H2415 H 0.82178 0.77697 0.81798 0.0
H2416 H 0.81825 0.09126 0.03057 0.0
H2417 H 0.84449 0.08145 0.02113 0.0
H2418 H 0.85302 0.12427 0.98725 0.0
H2419 H 0.82735 0.1345 0.99691 0.0
H2420 H 0.85026 0.06882 0.98487 0.0
H2421 H 0.9005 0.13349 0.01796 0.0
H2422 H 0.87832 0.12866 0.02381 0.0
H2423 H 0.88292 0.13692 0.00275 0.0
C2424 C 0.82585 0.09867 0.02128 0.0
C2425 C 0.82089 0.1137 0.0146 0.0
C2426 C 0.84073 0.09306 0.01588 0.0
C2427 C 0.85066 0.10236 0.0037 0.0
C2428 C 0.84569 0.11726 0.99697 0.0
H2429 H 0.94241 0.06472 0.96418 0.0
H2430 H 0.91792 0.08053 0.96365 0.0
C2431 C 0.831 0.12302 0.0025 0.0
C2432 C 0.86603 0.09611 0.9977 0.0
H2433 H 0.91067 0.10894 0.00148 0.0
C2434 C 0.86346 0.07764 0.98826 0.0
C2435 C 0.88312 0.10787 0.00199 0.0
C2436 C 0.88648 0.1278 0.01229 0.0
C2437 C 0.87775 0.07022 0.98386 0.0
C2438 C 0.89484 0.08162 0.9891 0.0
C2439 C 0.89741 0.10043 0.99746 0.0
C2440 C 0.90995 0.0732 0.98936 0.0
C2441 C 0.87464 0.04996 0.97465 0.0
C2442 C 0.91344 0.06435 0.00416 0.0
C2443 C 0.92727 0.05552 0.00456 0.0
C2444 C 0.9377 0.05538 0.9901 0.0
C2445 C 0.93438 0.06459 0.9754 0.0
C2446 C 0.92055 0.0736 0.97508 0.0
H2447 H 0.86079 0.04413 0.96841 0.0
H2448 H 0.88343 0.0485 0.96378 0.0
H2449 H 0.87773 0.04147 0.98506 0.0
H2450 H 0.90525 0.06403 0.01525 0.0
H2451 H 0.9295 0.04832 0.0159 0.0
H2452 H 0.36071 0.40139 0.02075 0.0
H2453 H 0.39205 0.41423 0.01851 0.0
H2454 H 0.38523 0.47036 0.03472 0.0
H2455 H 0.35412 0.45775 0.03662 0.0
H2456 H 0.40546 0.44574 0.99494 0.0
H2457 H 0.42905 0.46325 0.06982 0.0
H2458 H 0.40975 0.44496 0.06022 0.0
H2459 H 0.40871 0.46918 0.0631 0.0
C2460 C 0.36602 0.41643 0.02418 0.0
C2461 C 0.35498 0.42856 0.02904 0.0
C2462 C 0.38386 0.42375 0.02271 0.0
C2463 C 0.39098 0.44327 0.02644 0.0
C2464 C 0.38006 0.45527 0.0318 0.0
H2465 H 0.47966 0.53258 0.03244 0.0
H2466 H 0.45204 0.51003 0.03275 0.0
C2467 C 0.36228 0.44803 0.03296 0.0
C2468 C 0.4097 0.45153 0.02459 0.0
H2469 H 0.44764 0.47813 0.05 0.0
C2470 C 0.41485 0.45249 0.00694 0.0
C2471 C 0.42189 0.46039 0.04023 0.0
C2472 C 0.4172 0.45934 0.05946 0.0
C2473 C 0.43158 0.46298 0.00461 0.0
C2474 C 0.44349 0.47258 0.02034 0.0
C2475 C 0.43855 0.47084 0.03793 0.0
C2476 C 0.46037 0.48604 0.01908 0.0
C2477 C 0.43603 0.46461 0.9854 0.0
C2478 C 0.47441 0.48015 0.01121 0.0
C2479 C 0.4904 0.49315 0.01106 0.0
C2480 C 0.49261 0.51222 0.0188 0.0
C2481 C 0.47847 0.518 0.02645 0.0
C2482 C 0.46262 0.5051 0.02663 0.0
H2483 H 0.42449 0.45853 0.9748 0.0
H2484 H 0.44116 0.47957 0.98438 0.0
H2485 H 0.44646 0.45706 0.98226 0.0
H2486 H 0.47311 0.46549 0.00549 0.0
H2487 H 0.50103 0.48828 0.00504 0.0
H2488 H 0.36649 0.5965 0.76173 0.0
H2489 H 0.35255 0.62337 0.76383 0.0
H2490 H 0.40036 0.65851 0.75274 0.0
H2491 H 0.41445 0.63183 0.75112 0.0
H2492 H 0.36039 0.66029 0.78696 0.0
H2493 H 0.36407 0.66886 0.7143 0.0
H2494 H 0.36698 0.64783 0.72238 0.0
H2495 H 0.3846 0.66857 0.7268 0.0
C2496 C 0.37416 0.6099 0.75971 0.0
C2497 C 0.39183 0.61147 0.75613 0.0
C2498 C 0.36606 0.62551 0.76097 0.0
C2499 C 0.375 0.64351 0.75822 0.0
C2500 C 0.39268 0.64509 0.7547 0.0
H2501 H 0.34537 0.75459 0.75494 0.0
H2502 H 0.36066 0.72879 0.75444 0.0
C2503 C 0.4009 0.6296 0.75384 0.0
C2504 C 0.36598 0.66035 0.75901 0.0
H2505 H 0.35443 0.69228 0.73351 0.0
C2506 C 0.35909 0.66711 0.77514 0.0
C2507 C 0.36402 0.66993 0.74391 0.0
C2508 C 0.37014 0.66342 0.72578 0.0
C2509 C 0.3509 0.68273 0.77661 0.0
C2510 C 0.34879 0.69219 0.76143 0.0
C2511 C 0.35577 0.6855 0.74535 0.0
C2512 C 0.33925 0.70862 0.76191 0.0
C2513 C 0.34503 0.68939 0.79485 0.0
C2514 C 0.32175 0.70668 0.7661 0.0
C2515 C 0.3128 0.72151 0.76613 0.0
C2516 C 0.32085 0.73934 0.76221 0.0
C2517 C 0.33844 0.74139 0.75817 0.0
C2518 C 0.3473 0.72639 0.75782 0.0
H2519 H 0.35187 0.68469 0.80637 0.0
H2520 H 0.3475 0.70496 0.79782 0.0
H2521 H 0.33073 0.68351 0.79436 0.0
H2522 H 0.31471 0.69341 0.76905 0.0
H2523 H 0.29937 0.7189 0.76926 0.0
H2524 H 0.2294 0.61009 0.47516 0.0
H2525 H 0.19828 0.59409 0.47053 0.0
H2526 H 0.18904 0.63317 0.51628 0.0
H2527 H 0.21988 0.64965 0.52038 0.0
H2528 H 0.18705 0.57731 0.4981 0.0
H2529 H 0.14429 0.62458 0.48263 0.0
H2530 H 0.16731 0.62964 0.47958 0.0
H2531 H 0.16048 0.6354 0.50199 0.0
C2532 C 0.22054 0.61556 0.48378 0.0
C2533 C 0.22686 0.63077 0.4983 0.0
C2534 C 0.20285 0.60654 0.48108 0.0
C2535 C 0.19148 0.6125 0.49306 0.0
C2536 C 0.19756 0.62864 0.50664 0.0
H2537 H 0.09906 0.56705 0.53657 0.0
H2538 H 0.12964 0.58014 0.53297 0.0
C2539 C 0.21519 0.63791 0.50909 0.0
C2540 C 0.17458 0.59987 0.49398 0.0
H2541 H 0.13151 0.59868 0.49727 0.0
C2542 C 0.17481 0.58182 0.49752 0.0
C2543 C 0.1588 0.60598 0.49347 0.0
C2544 C 0.15768 0.62491 0.48903 0.0
C2545 C 0.15966 0.56988 0.50118 0.0
C2546 C 0.14414 0.57632 0.50134 0.0
C2547 C 0.14371 0.59409 0.49733 0.0
C2548 C 0.12788 0.56481 0.50525 0.0
C2549 C 0.16032 0.55077 0.50543 0.0
C2550 C 0.11734 0.55142 0.49103 0.0
C2551 C 0.0999 0.54409 0.49292 0.0
C2552 C 0.09297 0.55024 0.50902 0.0
C2553 C 0.10406 0.56232 0.52391 0.0
C2554 C 0.12148 0.5697 0.52196 0.0
H2555 H 0.17381 0.5484 0.50595 0.0
H2556 H 0.15536 0.54918 0.51886 0.0
H2557 H 0.1516 0.53974 0.49469 0.0
H2558 H 0.12225 0.54768 0.47804 0.0
H2559 H 0.09166 0.53447 0.48138 0.0
H2560 H 0.67364 0.97247 0.73334 0.0
H2561 H 0.68808 0.94993 0.74514 0.0
H2562 H 0.7282 0.99545 0.77731 0.0
H2563 H 0.7138 0.01829 0.76548 0.0
H2564 H 0.73647 0.96029 0.75107 0.0
H2565 H 0.6909 0.94555 0.80372 0.0
H2566 H 0.68202 0.94867 0.78146 0.0
H2567 H 0.69636 0.96822 0.79669 0.0
C2568 C 0.68561 0.97766 0.74283 0.0
C2569 C 0.69264 0.99698 0.74868 0.0
C2570 C 0.69373 0.96484 0.74956 0.0
C2571 C 0.70884 0.97125 0.76226 0.0
C2572 C 0.71637 0.99049 0.7676 0.0
H2573 H 0.77567 0.90728 0.80511 0.0
H2574 H 0.76012 0.93197 0.80255 0.0
C2575 C 0.70828 1.00341 0.76076 0.0
C2576 C 0.71678 0.95756 0.76963 0.0
H2577 H 0.71069 0.92584 0.79861 0.0
C2578 C 0.73108 0.9529 0.76165 0.0
C2579 C 0.70928 0.94795 0.78315 0.0
C2580 C 0.69382 0.95281 0.79188 0.0
C2581 C 0.738 0.93837 0.76665 0.0
C2582 C 0.73052 0.92871 0.78018 0.0
C2583 C 0.71631 0.93349 0.78832 0.0
C2584 C 0.73741 0.9134 0.78566 0.0
C2585 C 0.75292 0.93304 0.75713 0.0
C2586 C 0.72914 0.89484 0.77773 0.0
C2587 C 0.73787 0.88062 0.77933 0.0
C2588 C 0.75496 0.88502 0.78872 0.0
C2589 C 0.76247 0.90345 0.79794 0.0
C2590 C 0.75368 0.91758 0.79645 0.0
H2591 H 0.75565 0.94039 0.74531 0.0
H2592 H 0.76501 0.93672 0.76711 0.0
H2593 H 0.74987 0.91764 0.75204 0.0
H2594 H 0.71653 0.89157 0.76934 0.0
H2595 H 0.73171 0.86643 0.77237 0.0
H2596 H 0.75753 0.93236 0.5452 0.0
H2597 H 0.73227 0.94515 0.53736 0.0
H2598 H 0.71336 0.89874 0.4921 0.0
H2599 H 0.73808 0.88534 0.50065 0.0
H2600 H 0.72335 0.95784 0.50814 0.0
H2601 H 0.66887 0.89762 0.51349 0.0
H2602 H 0.69142 0.8984 0.52122 0.0
H2603 H 0.68332 0.89216 0.49705 0.0
C2604 C 0.74782 0.92475 0.53376 0.0
C2605 C 0.74966 0.90776 0.5237 0.0
C2606 C 0.73341 0.9321 0.52921 0.0
C2607 C 0.72065 0.92282 0.51427 0.0
C2608 C 0.72261 0.90591 0.50404 0.0
H2609 H 0.62998 0.96812 0.47816 0.0
H2610 H 0.65295 0.95021 0.4765 0.0
C2611 C 0.73683 0.8983 0.50888 0.0
C2612 C 0.70578 0.9314 0.50931 0.0
H2613 H 0.66096 0.92411 0.50446 0.0
C2614 C 0.70973 0.95036 0.50726 0.0
C2615 C 0.6879 0.92164 0.50781 0.0
C2616 C 0.68258 0.90138 0.51015 0.0
C2617 C 0.69647 0.96002 0.50468 0.0
C2618 C 0.67873 0.95052 0.50405 0.0
C2619 C 0.67462 0.93132 0.50499 0.0
C2620 C 0.66459 0.9609 0.50472 0.0
C2621 C 0.7015 0.98052 0.50318 0.0
C2622 C 0.66348 0.97263 0.52114 0.0
C2623 C 0.65043 0.98273 0.52217 0.0
C2624 C 0.63817 0.98138 0.50676 0.0
C2625 C 0.63927 0.96953 0.49025 0.0
C2626 C 0.65231 0.95925 0.48929 0.0
H2627 H 0.71519 0.98473 0.49989 0.0
H2628 H 0.69245 0.98369 0.4924 0.0
H2629 H 0.70046 0.98917 0.51652 0.0
H2630 H 0.6728 0.97404 0.5332 0.0
H2631 H 0.65017 0.99192 0.53499 0.0
H2632 H 0.41193 0.48407 0.77143 0.0
H2633 H 0.39443 0.45285 0.77325 0.0
H2634 H 0.35178 0.46204 0.73822 0.0
H2635 H 0.36924 0.49376 0.73677 0.0
H2636 H 0.36018 0.43975 0.78535 0.0
H2637 H 0.36073 0.41117 0.71166 0.0
H2638 H 0.37582 0.43255 0.72347 0.0
H2639 H 0.35351 0.4327 0.71612 0.0
C2640 C 0.39874 0.47964 0.76422 0.0
C2641 C 0.39216 0.49182 0.75398 0.0
C2642 C 0.38865 0.46158 0.76529 0.0
C2643 C 0.37163 0.45453 0.75574 0.0
C2644 C 0.36486 0.46674 0.74567 0.0
H2645 H 0.29456 0.34506 0.73439 0.0
H2646 H 0.31222 0.37672 0.73521 0.0
C2647 C 0.37485 0.4851 0.74495 0.0
C2648 C 0.36135 0.43447 0.75614 0.0
H2649 H 0.34373 0.39126 0.72873 0.0
C2650 C 0.35661 0.42919 0.77292 0.0
C2651 C 0.35664 0.42024 0.74013 0.0
C2652 C 0.36202 0.42427 0.7218 0.0
C2653 C 0.34701 0.41073 0.774 0.0
C2654 C 0.34217 0.39648 0.75792 0.0
C2655 C 0.34715 0.40177 0.74119 0.0
C2656 C 0.33139 0.37641 0.75782 0.0
C2657 C 0.34162 0.40695 0.7924 0.0
C2658 C 0.33594 0.36474 0.77004 0.0
C2659 C 0.3256 0.34626 0.76961 0.0
C2660 C 0.31036 0.33862 0.75685 0.0
C2661 C 0.30608 0.35017 0.74449 0.0
C2662 C 0.31632 0.36852 0.74494 0.0
H2663 H 0.34177 0.42016 0.80192 0.0
H2664 H 0.32827 0.39761 0.79079 0.0
H2665 H 0.35101 0.39996 0.79891 0.0
H2666 H 0.34764 0.36981 0.77988 0.0
H2667 H 0.32954 0.33798 0.77934 0.0
H2668 H 0.18902 0.5945 0.22125 0.0
H2669 H 0.20962 0.62487 0.23234 0.0
H2670 H 0.17904 0.6362 0.27678 0.0
H2671 H 0.15808 0.60566 0.26544 0.0
H2672 H 0.19616 0.66624 0.24812 0.0
H2673 H 0.23822 0.63351 0.2909 0.0
H2674 H 0.22651 0.61918 0.26971 0.0
H2675 H 0.21448 0.62648 0.28796 0.0
C2676 C 0.18649 0.60374 0.23306 0.0
C2677 C 0.1721 0.59816 0.24248 0.0
C2678 C 0.19822 0.62088 0.23943 0.0
C2679 C 0.19576 0.63237 0.2554 0.0
C2680 C 0.18096 0.62728 0.26443 0.0
H2681 H 0.27918 0.73104 0.29396 0.0
H2682 H 0.26026 0.70059 0.29506 0.0
C2683 C 0.16904 0.6101 0.2579 0.0
C2684 C 0.20941 0.64926 0.26262 0.0
H2685 H 0.25241 0.66147 0.28084 0.0
C2686 C 0.20833 0.66552 0.25575 0.0
C2687 C 0.22505 0.64806 0.27269 0.0
C2688 C 0.22622 0.63092 0.2809 0.0
C2689 C 0.22313 0.68024 0.25741 0.0
C2690 C 0.23934 0.6781 0.26561 0.0
C2691 C 0.24002 0.66259 0.274 0.0
C2692 C 0.25553 0.6921 0.26541 0.0
C2693 C 0.22139 0.6976 0.24977 0.0
C2694 C 0.26051 0.69623 0.24848 0.0
C2695 C 0.27067 0.7139 0.24777 0.0
C2696 C 0.27604 0.72715 0.26408 0.0
C2697 C 0.27413 0.72142 0.28117 0.0
C2698 C 0.26361 0.70393 0.28186 0.0
H2699 H 0.20763 0.69921 0.24891 0.0
H2700 H 0.23001 0.71048 0.25839 0.0
H2701 H 0.22525 0.69643 0.23562 0.0
H2702 H 0.25474 0.68677 0.2357 0.0
H2703 H 0.27263 0.71773 0.23442 0.0
H2704 H 0.50324 0.69056 0.40982 0.0
H2705 H 0.50896 0.66562 0.42593 0.0
H2706 H 0.52449 0.70557 0.47672 0.0
H2707 H 0.51851 0.7305 0.46079 0.0
H2708 H 0.54014 0.66293 0.44408 0.0
H2709 H 0.49004 0.66357 0.4928 0.0
H2710 H 0.49003 0.67547 0.47328 0.0
H2711 H 0.50511 0.6858 0.49376 0.0
C2712 C 0.50761 0.694 0.42447 0.0
C2713 C 0.51023 0.71253 0.43401 0.0
C2714 C 0.51098 0.67973 0.43366 0.0
C2715 C 0.51698 0.68361 0.45261 0.0
C2716 C 0.51953 0.70209 0.4622 0.0
H2717 H 0.55487 0.60615 0.51725 0.0
H2718 H 0.55173 0.63488 0.5059 0.0
C2719 C 0.51613 0.71636 0.45303 0.0
C2720 C 0.52096 0.66837 0.46209 0.0
H2721 H 0.50903 0.64325 0.49602 0.0
C2722 C 0.53337 0.65871 0.45549 0.0
C2723 C 0.51223 0.66287 0.47708 0.0
C2724 C 0.4985 0.67234 0.48459 0.0
C2725 C 0.53704 0.64359 0.46324 0.0
C2726 C 0.52803 0.63789 0.47789 0.0
C2727 C 0.51594 0.64774 0.48481 0.0
C2728 C 0.52994 0.62075 0.48512 0.0
C2729 C 0.55022 0.63343 0.45551 0.0
C2730 C 0.51862 0.6034 0.47732 0.0
C2731 C 0.52024 0.58706 0.48386 0.0
C2732 C 0.53333 0.58769 0.49828 0.0
C2733 C 0.54467 0.60516 0.50612 0.0
C2734 C 0.54291 0.62158 0.49966 0.0
H2735 H 0.55704 0.64035 0.44495 0.0
H2736 H 0.56017 0.63273 0.46678 0.0
H2737 H 0.54344 0.61877 0.44914 0.0
H2738 H 0.50858 0.60249 0.46604 0.0
H2739 H 0.51143 0.57385 0.47734 0.0
H2740 H 0.62295 0.32759 0.66976 0.0
H2741 H 0.64869 0.3222 0.68719 0.0
H2742 H 0.65507 0.2824 0.6406 0.0
H2743 H 0.62999 0.28866 0.62282 0.0
H2744 H 0.65406 0.29286 0.69885 0.0
H2745 H 0.7045 0.30981 0.652 0.0
H2746 H 0.68312 0.31471 0.64841 0.0
H2747 H 0.68604 0.2913 0.64144 0.0
C2748 C 0.63006 0.31796 0.66313 0.0
C2749 C 0.62454 0.30878 0.64481 0.0
C2750 C 0.64476 0.31478 0.67313 0.0
C2751 C 0.65423 0.30209 0.66524 0.0
C2752 C 0.64857 0.29276 0.64694 0.0
H2753 H 0.74472 0.26863 0.72113 0.0
H2754 H 0.71965 0.26837 0.69852 0.0
C2755 C 0.63409 0.29627 0.63677 0.0
C2756 C 0.66937 0.29818 0.67658 0.0
H2757 H 0.71302 0.29762 0.67815 0.0
C2758 C 0.66692 0.29395 0.69423 0.0
C2759 C 0.68625 0.2992 0.67063 0.0
C2760 C 0.69022 0.30416 0.65216 0.0
C2761 C 0.68073 0.29128 0.70613 0.0
C2762 C 0.69768 0.29296 0.70044 0.0
C2763 C 0.70006 0.29635 0.68255 0.0
C2764 C 0.71329 0.29304 0.71354 0.0
C2765 C 0.67707 0.28683 0.72485 0.0
C2766 C 0.71837 0.30718 0.72923 0.0
C2767 C 0.73261 0.3074 0.74197 0.0
C2768 C 0.74229 0.2935 0.73945 0.0
C2769 C 0.73753 0.27952 0.72351 0.0
C2770 C 0.7232 0.27936 0.7106 0.0
H2771 H 0.66291 0.28053 0.72506 0.0
H2772 H 0.68484 0.27702 0.72909 0.0
H2773 H 0.68076 0.30001 0.73518 0.0
H2774 H 0.71122 0.3181 0.73169 0.0
H2775 H 0.73593 0.31846 0.754 0.0
H2776 H 0.0044 0.31095 0.9534 0.0
H2777 H 0.00474 0.34079 0.9735 0.0
H2778 H 0.04124 0.37055 0.94176 0.0
H2779 H 0.04104 0.34111 0.92173 0.0
H2780 H 0.04164 0.37709 0.99048 0.0
H2781 H 0.98753 0.3852 0.94094 0.0
H2782 H 0.98994 0.3624 0.94499 0.0
H2783 H 0.00485 0.37541 0.93198 0.0
C2784 C 0.01277 0.32381 0.95097 0.0
C2785 C 0.02247 0.32372 0.93582 0.0
C2786 C 0.01294 0.34078 0.96243 0.0
C2787 C 0.02291 0.35773 0.95891 0.0
C2788 C 0.03344 0.35754 0.94458 0.0
H2789 H 0.05413 0.47435 0.99047 0.0
H2790 H 0.05027 0.44048 0.98173 0.0
C2791 C 0.03323 0.3407 0.93313 0.0
C2792 C 0.0212 0.37594 0.96881 0.0
H2793 H 0.00186 0.41195 0.96307 0.0
C2794 C 0.0327 0.38462 0.98479 0.0
C2795 C 0.00956 0.38561 0.96118 0.0
C2796 C 0.99717 0.37675 0.94385 0.0
C2797 C 0.03335 0.40319 0.99294 0.0
C2798 C 0.02231 0.41318 0.98477 0.0
C2799 C 0.01021 0.40415 0.96932 0.0
C2800 C 0.02453 0.43356 0.99076 0.0
C2801 C 0.04617 0.41224 0.00991 0.0
C2802 C 0.01107 0.44083 0.99823 0.0
C2803 C 0.01315 0.46028 0.00306 0.0
C2804 C 0.02876 0.47257 1.00053 0.0
C2805 C 0.04213 0.46518 0.99296 0.0
C2806 C 0.03997 0.44585 0.98799 0.0
H2807 H 0.05085 0.40163 0.01682 0.0
H2808 H 0.05775 0.42163 0.00593 0.0
H2809 H 0.04007 0.42092 0.01988 0.0
H2810 H 0.999 0.43148 1.00027 0.0
H2811 H 0.00266 0.46568 0.00884 0.0
H2812 H 0.02066 0.76081 0.15141 0.0
H2813 H 0.99053 0.75536 0.15877 0.0
H2814 H 0.98703 0.80949 0.14623 0.0
H2815 H 0.01714 0.81456 0.13788 0.0
H2816 H 0.98048 0.7742 0.18625 0.0
H2817 H 0.93929 0.77947 0.12383 0.0
H2818 H 0.96171 0.77738 0.12342 0.0
H2819 H 0.957 0.79986 0.13109 0.0
C2820 C 0.01339 0.77146 0.14995 0.0
C2821 C 0.02134 0.78824 0.14432 0.0
C2822 C 0.99611 0.7683 0.15412 0.0
C2823 C 0.98636 0.78196 0.15309 0.0
C2824 C 0.99406 0.79852 0.1468 0.0
H2825 H 0.89689 0.80484 0.20415 0.0
H2826 H 0.9215 0.80442 0.18607 0.0
C2827 C 0.01133 0.80151 0.1422 0.0
C2828 C 0.96914 0.77963 0.16069 0.0
H2829 H 0.92614 0.78148 0.15204 0.0
C2830 C 0.96858 0.77556 0.17861 0.0
C2831 C 0.95351 0.78139 0.15083 0.0
C2832 C 0.95283 0.78457 0.13116 0.0
C2833 C 0.95312 0.77369 0.18709 0.0
C2834 C 0.93763 0.77591 0.17743 0.0
C2835 C 0.93804 0.7798 0.15944 0.0
C2836 C 0.92126 0.77524 0.18633 0.0
C2837 C 0.95365 0.76991 0.20658 0.0
C2838 C 0.91259 0.75881 0.19207 0.0
C2839 C 0.89848 0.75899 0.20246 0.0
C2840 C 0.89265 0.77558 0.20719 0.0
C2841 C 0.90088 0.79176 0.20065 0.0
C2842 C 0.915 0.79158 0.19032 0.0
H2843 H 0.96732 0.77228 0.21332 0.0
H2844 H 0.94671 0.77899 0.21507 0.0
H2845 H 0.94695 0.75505 0.20637 0.0
H2846 H 0.91701 0.74596 0.1889 0.0
H2847 H 0.89227 0.74619 0.20697 0.0
H2848 H 0.51311 0.28615 0.08713 0.0
H2849 H 0.52688 0.31438 0.07586 0.0
H2850 H 0.50315 0.34785 0.11479 0.0
H2851 H 0.48978 0.3197 0.12662 0.0
H2852 H 0.51213 0.33818 0.06039 0.0
H2853 H 0.55403 0.37645 0.12487 0.0
H2854 H 0.54288 0.35197 0.12194 0.0
H2855 H 0.53115 0.36999 0.12759 0.0
C2856 C 0.5106 0.29947 0.09311 0.0
C2857 C 0.50036 0.30077 0.10771 0.0
C2858 C 0.51863 0.31559 0.0868 0.0
C2859 C 0.51641 0.3332 0.09487 0.0
C2860 C 0.50548 0.33444 0.10883 0.0
H2861 H 0.53642 0.4418 0.06636 0.0
H2862 H 0.53165 0.41559 0.08315 0.0
C2863 C 0.49761 0.31833 0.11532 0.0
C2864 C 0.5248 0.35009 0.08788 0.0
H2865 H 0.55177 0.39392 0.10051 0.0
C2866 C 0.52096 0.35028 0.06911 0.0
C2867 C 0.53629 0.36581 0.09938 0.0
C2868 C 0.54148 0.36602 0.11953 0.0
C2869 C 0.52785 0.36601 0.06152 0.0
C2870 C 0.53916 0.38185 0.07302 0.0
C2871 C 0.54321 0.38164 0.09179 0.0
C2872 C 0.54569 0.39915 0.06584 0.0
C2873 C 0.52243 0.36576 0.04138 0.0
C2874 C 0.55599 0.39891 0.05127 0.0
C2875 C 0.55832 0.41358 0.04134 0.0
C2876 C 0.55063 0.42883 0.04611 0.0
C2877 C 0.54202 0.42995 0.06203 0.0
C2878 C 0.53947 0.41513 0.07177 0.0
H2879 H 0.51078 0.35418 0.03562 0.0
H2880 H 0.51933 0.37927 0.03932 0.0
H2881 H 0.53339 0.36367 0.03339 0.0
H2882 H 0.56113 0.38676 0.04677 0.0
H2883 H 0.56505 0.41228 0.02919 0.0
H2884 H 0.04545 0.30277 0.31335 0.0
H2885 H 0.01399 0.29473 0.30195 0.0
H2886 H 0.0019 0.3102 0.35723 0.0
H2887 H 0.03327 0.3178 0.36877 0.0
H2888 H 0.97927 0.27186 0.32673 0.0
H2889 H 0.98941 0.3441 0.30991 0.0
H2890 H 0.0062 0.3311 0.30711 0.0
H2891 H 0.00173 0.33968 0.32979 0.0
C2892 C 0.036 0.30424 0.32302 0.0
C2893 C 0.04156 0.31102 0.34181 0.0
C2894 C 0.01817 0.2995 0.31657 0.0
C2895 C 0.00587 0.30185 0.32885 0.0
C2896 C 0.01134 0.30809 0.3477 0.0
H2897 H 0.90136 0.31538 0.31848 0.0
H2898 H 0.93021 0.3111 0.32941 0.0
C2899 C 0.02915 0.31251 0.35421 0.0
C2900 C 0.98758 0.30012 0.32168 0.0
H2901 H 0.96076 0.32512 0.30407 0.0
C2902 C 0.97514 0.28339 0.32166 0.0
C2903 C 0.98251 0.31533 0.31524 0.0
C2904 C 0.99558 0.33364 0.31545 0.0
C2905 C 0.95745 0.28156 0.31529 0.0
C2906 C 0.95242 0.29683 0.30895 0.0
C2907 C 0.96489 0.31347 0.30889 0.0
C2908 C 0.9341 0.29635 0.30305 0.0
C2909 C 0.94414 0.26361 0.31558 0.0
C2910 C 0.92695 0.28925 0.2847 0.0
C2911 C 0.91057 0.2918 0.27839 0.0
C2912 C 0.9013 0.3014 0.29045 0.0
C2913 C 0.90823 0.30776 0.30902 0.0
C2914 C 0.92462 0.30533 0.31526 0.0
H2915 H 0.95012 0.25321 0.32149 0.0
H2916 H 0.9336 0.26672 0.32381 0.0
H2917 H 0.9379 0.25729 0.30133 0.0
H2918 H 0.93432 0.28246 0.27514 0.0
H2919 H 0.90534 0.28669 0.26404 0.0
H2920 H 0.98499 0.67803 0.63655 0.0
H2921 H 0.98999 0.65011 0.6172 0.0
H2922 H 0.00426 0.6827 0.57488 0.0
H2923 H 0.99873 0.71035 0.5938 0.0
H2924 H 0.98345 0.64691 0.56176 0.0
H2925 H 0.04111 0.64684 0.61086 0.0
H2926 H 0.0209 0.64712 0.62052 0.0
H2927 H 0.03154 0.6669 0.61105 0.0
C2928 C 0.98877 0.679 0.62292 0.0
C2929 C 0.99153 0.69616 0.61656 0.0
C2930 C 0.99177 0.66321 0.61204 0.0
C2931 C 0.99788 0.66467 0.59496 0.0
C2932 C 0.99959 0.68148 0.58813 0.0
H2933 H 0.05637 0.59923 0.53032 0.0
H2934 H 0.04736 0.6221 0.5531 0.0
C2935 C 0.99631 0.69716 0.59884 0.0
C2936 C 0.00323 0.64897 0.58436 0.0
H2937 H 0.03404 0.62303 0.58449 0.0
C2938 C 0.99443 0.64155 0.5667 0.0
C2939 C 0.01787 0.64259 0.59087 0.0
C2940 C 0.02855 0.65133 0.6093 0.0
C2941 C 0.99997 0.62787 0.5551 0.0
C2942 C 0.01418 0.62086 0.56183 0.0
C2943 C 0.02298 0.62828 0.57958 0.0
C2944 C 0.02032 0.60621 0.5503 0.0
C2945 C 0.99096 0.62176 0.53555 0.0
C2946 C 0.00828 0.58959 0.54187 0.0
C2947 C 0.0131 0.57737 0.5282 0.0
C2948 C 0.03036 0.5809 0.52384 0.0
C2949 C 0.04293 0.59653 0.5335 0.0
C2950 C 0.03785 0.60939 0.54653 0.0
H2951 H 0.98459 0.6326 0.53111 0.0
H2952 H 1.00035 0.61886 0.5257 0.0
H2953 H 0.98051 0.60879 0.53473 0.0
H2954 H 0.99491 0.58656 0.54518 0.0
H2955 H 0.00324 0.56531 0.52091 0.0
H2956 H 0.62576 0.83229 0.84017 0.0
H2957 H 0.64674 0.82998 0.81805 0.0
H2958 H 0.67417 0.80125 0.85287 0.0
H2959 H 0.65308 0.80364 0.87542 0.0
H2960 H 0.69339 0.83487 0.83088 0.0
H2961 H 0.6452 0.77087 0.79229 0.0
H2962 H 0.63758 0.79078 0.80289 0.0
H2963 H 0.64697 0.77707 0.81708 0.0
C2964 C 0.63648 0.82587 0.84337 0.0
C2965 C 0.63781 0.81798 0.85935 0.0
C2966 C 0.6484 0.8246 0.83074 0.0
C2967 C 0.66167 0.81531 0.83392 0.0
C2968 C 0.66385 0.80848 0.8504 0.0
H2969 H 0.72699 0.76114 0.77756 0.0
H2970 H 0.70183 0.76981 0.79033 0.0
C2971 C 0.65194 0.80991 0.86322 0.0
C2972 C 0.67219 0.81124 0.8192 0.0
H2973 H 0.67198 0.77974 0.78047 0.0
C2974 C 0.6888 0.82295 0.81972 0.0
C2975 C 0.66577 0.79575 0.80479 0.0
C2976 C 0.64791 0.78279 0.80409 0.0
C2977 C 0.69974 0.81902 0.80646 0.0
C2978 C 0.6935 0.8032 0.79218 0.0
C2979 C 0.67652 0.79198 0.79129 0.0
C2980 C 0.70549 0.79619 0.78027 0.0
C2981 C 0.71819 0.83114 0.80855 0.0
C2982 C 0.71509 0.80764 0.76945 0.0
C2983 C 0.72982 0.80296 0.76259 0.0
C2984 C 0.73456 0.78652 0.76604 0.0
C2985 C 0.72362 0.77397 0.77485 0.0
C2986 C 0.70922 0.77886 0.78208 0.0
H2987 H 0.7217 0.84072 0.82212 0.0
H2988 H 0.72791 0.82232 0.8071 0.0
H2989 H 0.71932 0.83993 0.79766 0.0
H2990 H 0.71199 0.8208 0.76751 0.0
H2991 H 0.73796 0.81262 0.75545 0.0
H2992 H 0.47354 0.56374 0.71261 0.0
H2993 H 0.48844 0.56169 0.68466 0.0
H2994 H 0.43824 0.54411 0.65122 0.0
H2995 H 0.42342 0.54665 0.67905 0.0
H2996 H 0.49194 0.53631 0.65786 0.0
H2997 H 0.45894 0.58156 0.62226 0.0
H2998 H 0.45652 0.57941 0.64589 0.0
H2999 H 0.44323 0.56211 0.62731 0.0
C3000 C 0.46558 0.55958 0.69933 0.0
C3001 C 0.44702 0.55557 0.69854 0.0
C3002 C 0.47422 0.55833 0.6831 0.0
C3003 C 0.46482 0.55313 0.66513 0.0
C3004 C 0.44627 0.54882 0.66442 0.0
H3005 H 0.49606 0.53355 0.54938 0.0
H3006 H 0.47963 0.53474 0.57661 0.0
C3007 C 0.43763 0.55011 0.68062 0.0
C3008 C 0.47427 0.55178 0.64746 0.0
H3009 H 0.47498 0.56353 0.60392 0.0
C3010 C 0.48813 0.54241 0.6462 0.0
C3011 C 0.46989 0.55964 0.6317 0.0
C3012 C 0.45648 0.57142 0.63189 0.0
C3013 C 0.49705 0.54031 0.63015 0.0
C3014 C 0.49245 0.5479 0.61431 0.0
C3015 C 0.47865 0.55732 0.61555 0.0
C3016 C 0.50232 0.54705 0.59697 0.0
C3017 C 0.51121 0.52948 0.6303 0.0
C3018 C 0.5207 0.55378 0.59852 0.0
C3019 C 0.53004 0.55321 0.58293 0.0
C3020 C 0.52171 0.54589 0.56469 0.0
C3021 C 0.50323 0.53923 0.56292 0.0
C3022 C 0.49375 0.53996 0.57871 0.0
H3023 H 0.50936 0.51957 0.6402 0.0
H3024 H 0.51149 0.5214 0.61642 0.0
H3025 H 0.52415 0.53947 0.63469 0.0
H3026 H 0.52801 0.55983 0.61194 0.0
H3027 H 0.54414 0.55864 0.58533 0.0
H3028 H 0.7988 0.17006 0.95452 0.0
H3029 H 0.78428 0.17614 0.92616 0.0
H3030 H 0.74835 0.20014 0.95783 0.0
H3031 H 0.76343 0.19535 0.98605 0.0
H3032 H 0.75017 0.1621 0.91093 0.0
H3033 H 0.76447 0.23994 0.92859 0.0
H3034 H 0.77526 0.22616 0.94163 0.0
H3035 H 0.75348 0.22855 0.94548 0.0
C3036 C 0.7883 0.17738 0.9554 0.0
C3037 C 0.78254 0.18275 0.97244 0.0
C3038 C 0.77982 0.1805 0.93925 0.0
C3039 C 0.76535 0.18871 0.94 0.0
C3040 C 0.75979 0.19427 0.95704 0.0
H3041 H 0.71893 0.23563 0.85692 0.0
H3042 H 0.71471 0.21469 0.87937 0.0
C3043 C 0.76855 0.1917 0.97317 0.0
C3044 C 0.75602 0.19154 0.92299 0.0
H3045 H 0.74505 0.22568 0.90194 0.0
C3046 C 0.74893 0.17597 0.90893 0.0
C3047 C 0.7543 0.20961 0.92059 0.0
C3048 C 0.76242 0.22703 0.93479 0.0
C3049 C 0.74059 0.17816 0.89218 0.0
C3050 C 0.73934 0.19632 0.88963 0.0
C3051 C 0.74568 0.21167 0.90407 0.0
C3052 C 0.73517 0.20084 0.87135 0.0
C3053 C 0.73366 0.16119 0.87722 0.0
C3054 C 0.7469 0.19865 0.85835 0.0
C3055 C 0.74926 0.21052 0.84547 0.0
C3056 C 0.74001 0.22471 0.84564 0.0
C3057 C 0.7263 0.22485 0.85663 0.0
C3058 C 0.72382 0.21283 0.8694 0.0
H3059 H 0.72927 0.14834 0.88319 0.0
H3060 H 0.72254 0.16306 0.86796 0.0
H3061 H 0.74434 0.15896 0.86883 0.0
H3062 H 0.75592 0.18964 0.85968 0.0
H3063 H 0.75965 0.20996 0.83679 0.0
H3064 H 0.1134 0.5102 0.18469 0.0
H3065 H 0.09657 0.51951 0.16003 0.0
H3066 H 0.14243 0.56087 0.15303 0.0
H3067 H 0.15953 0.55138 0.17758 0.0
H3068 H 0.0907 0.5559 0.15601 0.0
H3069 H 0.1275 0.5246 0.10285 0.0
H3070 H 0.12885 0.51993 0.12606 0.0
H3071 H 0.14003 0.54228 0.12146 0.0
C3072 C 0.11992 0.52109 0.1777 0.0
C3073 C 0.13776 0.52977 0.18257 0.0
C3074 C 0.11029 0.52658 0.16392 0.0
C3075 C 0.11839 0.54083 0.15495 0.0
C3076 C 0.13614 0.54975 0.15989 0.0
H3077 H 0.06946 0.55808 0.05265 0.0
H3078 H 0.08904 0.56348 0.08112 0.0
C3079 C 0.14588 0.54413 0.17361 0.0
C3080 C 0.10842 0.54472 0.13917 0.0
H3081 H 0.10247 0.53397 0.09243 0.0
C3082 C 0.09338 0.55151 0.14206 0.0
C3083 C 0.1121 0.53876 0.12118 0.0
C3084 C 0.12792 0.53087 0.11757 0.0
C3085 C 0.08136 0.55171 0.12717 0.0
C3086 C 0.08466 0.54489 0.10927 0.0
C3087 C 0.10015 0.53909 0.10635 0.0
C3088 C 0.07195 0.54286 0.09323 0.0
C3089 C 0.06505 0.55866 0.1306 0.0
C3090 C 0.05603 0.52931 0.09084 0.0
C3091 C 0.04479 0.5261 0.07452 0.0
C3092 C 0.0496 0.53635 0.06062 0.0
C3093 C 0.06551 0.54996 0.0632 0.0
C3094 C 0.07664 0.55318 0.07943 0.0
H3095 H 0.06643 0.56733 0.14455 0.0
H3096 H 0.062 0.56709 0.12012 0.0
H3097 H 0.05375 0.54643 0.12954 0.0
H3098 H 0.05255 0.52096 0.10136 0.0
H3099 H 0.03257 0.51551 0.07267 0.0
H3100 H 0.81476 0.85018 0.47749 0.0
H3101 H 0.81587 0.83311 0.44656 0.0
H3102 H 0.76517 0.84192 0.4285 0.0
H3103 H 0.76448 0.8598 0.45903 0.0
H3104 H 0.79639 0.80299 0.42194 0.0
H3105 H 0.79548 0.86869 0.39519 0.0
H3106 H 0.79776 0.86806 0.41951 0.0
H3107 H 0.77642 0.86082 0.40615 0.0
C3108 C 0.80372 0.84809 0.46699 0.0
C3109 C 0.78966 0.85647 0.47045 0.0
C3110 C 0.80437 0.8384 0.44934 0.0
C3111 C 0.79086 0.83681 0.43509 0.0
C3112 C 0.77601 0.84357 0.43913 0.0
H3113 H 0.76656 0.79191 0.32075 0.0
H3114 H 0.76737 0.80117 0.35387 0.0
C3115 C 0.77555 0.85362 0.45658 0.0
C3116 C 0.79288 0.82952 0.41577 0.0
H3117 H 0.7924 0.84106 0.37282 0.0
C3118 C 0.79567 0.81136 0.41123 0.0
C3119 C 0.79221 0.84059 0.40184 0.0
C3120 C 0.79049 0.86068 0.40593 0.0
C3121 C 0.79715 0.80375 0.39296 0.0
C3122 C 0.79578 0.81459 0.37907 0.0
C3123 C 0.79339 0.83283 0.38363 0.0
C3124 C 0.79563 0.80696 0.35943 0.0
C3125 C 0.79971 0.78406 0.38841 0.0
C3126 C 0.81134 0.80705 0.35169 0.0
C3127 C 0.81099 0.80183 0.33261 0.0
C3128 C 0.79491 0.7966 0.32108 0.0
C3129 C 0.77921 0.79603 0.32911 0.0
C3130 C 0.7796 0.80122 0.34808 0.0
H3131 H 0.80021 0.77728 0.40077 0.0
H3132 H 0.78882 0.77536 0.37805 0.0
H3133 H 0.81212 0.78437 0.3822 0.0
H3134 H 0.82384 0.81166 0.36034 0.0
H3135 H 0.82329 0.80241 0.32687 0.0
H3136 H 0.43147 0.54559 0.82062 0.0
H3137 H 0.44378 0.54322 0.85176 0.0
H3138 H 0.49554 0.56825 0.8402 0.0
H3139 H 0.48341 0.57012 0.80906 0.0
H3140 H 0.47482 0.52297 0.85859 0.0
H3141 H 0.48911 0.59744 0.8937 0.0
H3142 H 0.47228 0.58825 0.87426 0.0
H3143 H 0.49499 0.59248 0.87074 0.0
C3144 C 0.44539 0.55114 0.82487 0.0
C3145 C 0.45628 0.5585 0.81221 0.0
C3146 C 0.45252 0.54955 0.84272 0.0
C3147 C 0.47074 0.55559 0.8487 0.0
C3148 C 0.48149 0.56356 0.83629 0.0
H3149 H 0.53667 0.56493 0.95516 0.0
H3150 H 0.52394 0.56862 0.92492 0.0
C3151 C 0.47445 0.56476 0.81839 0.0
C3152 C 0.47868 0.55271 0.86731 0.0
H3153 H 0.49835 0.57606 0.91035 0.0
C3154 C 0.47986 0.53459 0.86995 0.0
C3155 C 0.48584 0.56776 0.88219 0.0
C3156 C 0.48551 0.58763 0.88028 0.0
C3157 C 0.48805 0.53116 0.88659 0.0
C3158 C 0.49461 0.54612 0.90192 0.0
C3159 C 0.49341 0.56431 0.89912 0.0
C3160 C 0.50286 0.54343 0.92069 0.0
C3161 C 0.4903 0.5115 0.88692 0.0
C3162 C 0.49567 0.52815 0.92926 0.0
C3163 C 0.5035 0.52564 0.94638 0.0
C3164 C 0.51838 0.53878 0.95622 0.0
C3165 C 0.52525 0.55444 0.94813 0.0
C3166 C 0.51781 0.55658 0.93067 0.0
H3167 H 0.49092 0.50404 0.87283 0.0
H3168 H 0.50244 0.51154 0.89573 0.0
H3169 H 0.47878 0.50335 0.89219 0.0
H3170 H 0.48374 0.51813 0.92291 0.0
H3171 H 0.49755 0.51357 0.95218 0.0
H3172 H 0.75146 0.15555 0.08068 0.0
H3173 H 0.74909 0.17834 0.10747 0.0
H3174 H 0.80093 0.21092 0.10362 0.0
H3175 H 0.80313 0.18856 0.07641 0.0
H3176 H 0.76902 0.18904 0.14029 0.0
H3177 H 0.77257 0.25027 0.10514 0.0
H3178 H 0.76907 0.22657 0.09265 0.0
H3179 H 0.79088 0.2398 0.10209 0.0
C3180 C 0.76241 0.16749 0.08569 0.0
C3181 C 0.77749 0.17039 0.07657 0.0
C3182 C 0.76097 0.18053 0.10084 0.0
C3183 C 0.77464 0.1965 0.10712 0.0
C3184 C 0.79001 0.19898 0.09853 0.0
H3185 H 0.80966 0.28351 0.19846 0.0
H3186 H 0.80343 0.26239 0.16855 0.0
C3187 C 0.79135 0.18612 0.08319 0.0
C3188 C 0.77317 0.21022 0.12316 0.0
H3189 H 0.77775 0.25703 0.13824 0.0
C3190 C 0.77063 0.20387 0.13984 0.0
C3191 C 0.77515 0.22948 0.12234 0.0
C3192 C 0.77689 0.2369 0.10453 0.0
C3193 C 0.77107 0.2165 0.15608 0.0
C3194 C 0.77385 0.23587 0.1554 0.0
C3195 C 0.77565 0.24213 0.13859 0.0
C3196 C 0.77662 0.24998 0.17228 0.0
C3197 C 0.76949 0.20912 0.17394 0.0
C3198 C 0.76341 0.25024 0.18387 0.0
C3199 C 0.76708 0.26203 0.201 0.0
C3200 C 0.78375 0.27396 0.20634 0.0
C3201 C 0.79662 0.27454 0.19432 0.0
C3202 C 0.79309 0.26251 0.17736 0.0
H3203 H 0.77068 0.19431 0.17248 0.0
H3204 H 0.77975 0.21786 0.18496 0.0
H3205 H 0.75647 0.2097 0.17841 0.0
H3206 H 0.75053 0.24089 0.17993 0.0
H3207 H 0.75708 0.26154 0.2102 0.0
H3208 H 0.10002 0.54015 0.28126 0.0
H3209 H 0.09832 0.55031 0.31402 0.0
H3210 H 0.15414 0.55657 0.32604 0.0
H3211 H 0.15605 0.54632 0.29347 0.0
H3212 H 0.11292 0.53468 0.34651 0.0
H3213 H 0.14138 0.60995 0.34385 0.0
H3214 H 0.13127 0.59315 0.32335 0.0
H3215 H 0.15223 0.59228 0.33422 0.0
C3216 C 0.11187 0.54342 0.29091 0.0
C3217 C 0.12815 0.54259 0.28482 0.0
C3218 C 0.11089 0.54924 0.30952 0.0
C3219 C 0.12618 0.55442 0.32213 0.0
C3220 C 0.1423 0.55278 0.31631 0.0
H3221 H 0.11209 0.57673 0.43691 0.0
H3222 H 0.13081 0.57974 0.41224 0.0
C3223 C 0.14329 0.54681 0.29775 0.0
C3224 C 0.12514 0.56198 0.34135 0.0
H3225 H 0.12977 0.60326 0.37111 0.0
C3226 C 0.11697 0.54959 0.35213 0.0
C3227 C 0.13045 0.58146 0.34832 0.0
C3228 C 0.13929 0.59511 0.3369 0.0
C3229 C 0.11312 0.55631 0.36962 0.0
C3230 C 0.11765 0.57591 0.37631 0.0
C3231 C 0.12657 0.58827 0.36587 0.0
C3232 C 0.11044 0.58344 0.39266 0.0
C3233 C 0.10313 0.54254 0.3803 0.0
C3234 C 0.09346 0.58634 0.3901 0.0
C3235 C 0.08264 0.58418 0.40393 0.0
C3236 C 0.08886 0.57921 0.42038 0.0
C3237 C 0.10687 0.57995 0.42409 0.0
C3238 C 0.11764 0.58189 0.41013 0.0
H3239 H 0.10094 0.52774 0.37316 0.0
H3240 H 0.11045 0.54395 0.39412 0.0
H3241 H 0.09016 0.54564 0.38232 0.0
H3242 H 0.08779 0.58757 0.37661 0.0
H3243 H 0.06888 0.58384 0.40066 0.0
H3244 H 0.78482 0.88147 0.59698 0.0
H3245 H 0.78141 0.86593 0.62382 0.0
H3246 H 0.79837 0.81893 0.59534 0.0
H3247 H 0.80162 0.83432 0.56824 0.0
H3248 H 0.76492 0.8119 0.61629 0.0
H3249 H 0.8263 0.85752 0.65664 0.0
H3250 H 0.81248 0.86841 0.64336 0.0
H3251 H 0.82348 0.85206 0.63175 0.0
C3252 C 0.78791 0.86787 0.59644 0.0
C3253 C 0.79367 0.85921 0.58056 0.0
C3254 C 0.78588 0.85898 0.61175 0.0
C3255 C 0.78975 0.84136 0.61159 0.0
C3256 C 0.79528 0.83252 0.5957 0.0
H3257 H 0.80748 0.79376 0.71015 0.0
H3258 H 0.80979 0.8061 0.68138 0.0
C3259 C 0.79717 0.84134 0.58027 0.0
C3260 C 0.78844 0.83254 0.62828 0.0
H3261 H 0.80809 0.83712 0.67217 0.0
C3262 C 0.77437 0.81729 0.62851 0.0
C3263 C 0.80093 0.83946 0.64406 0.0
C3264 C 0.81675 0.8552 0.64408 0.0
C3265 C 0.7723 0.80892 0.64429 0.0
C3266 C 0.78442 0.81637 0.66045 0.0
C3267 C 0.79868 0.83144 0.65996 0.0
C3268 C 0.78282 0.80871 0.67794 0.0
C3269 C 0.75735 0.79195 0.6432 0.0
C3270 C 0.76702 0.8063 0.68592 0.0
C3271 C 0.76558 0.79873 0.70209 0.0
C3272 C 0.7801 0.79415 0.71102 0.0
C3273 C 0.79611 0.7973 0.70357 0.0
C3274 C 0.79741 0.80432 0.6871 0.0
H3275 H 0.75321 0.78447 0.62876 0.0
H3276 H 0.76097 0.78188 0.65162 0.0
H3277 H 0.74585 0.79656 0.64835 0.0
H3278 H 0.75576 0.81027 0.67968 0.0
H3279 H 0.75314 0.79657 0.70771 0.0
H3280 H 0.7338 0.41681 0.50769 0.0
H3281 H 0.70934 0.42892 0.51918 0.0
H3282 H 0.73729 0.48539 0.51722 0.0
H3283 H 0.76176 0.47354 0.50576 0.0
H3284 H 0.7196 0.47311 0.55365 0.0
H3285 H 0.67939 0.45885 0.48489 0.0
H3286 H 0.69172 0.44238 0.49113 0.0
H3287 H 0.70308 0.46477 0.48696 0.0
C3288 C 0.73461 0.43177 0.50948 0.0
C3289 C 0.74955 0.44427 0.50575 0.0
C3290 C 0.72078 0.43863 0.5162 0.0
C3291 C 0.72179 0.45795 0.51911 0.0
C3292 C 0.73653 0.47043 0.51516 0.0
H3293 H 0.6647 0.539 0.54347 0.0
H3294 H 0.68702 0.52061 0.5423 0.0
C3295 C 0.75036 0.46363 0.50852 0.0
C3296 C 0.70717 0.46528 0.5256 0.0
H3297 H 0.66902 0.47524 0.50983 0.0
C3298 C 0.70837 0.47338 0.54422 0.0
C3299 C 0.69278 0.46556 0.51307 0.0
C3300 C 0.69151 0.45747 0.49285 0.0
C3301 C 0.6955 0.48232 0.55058 0.0
C3302 C 0.68133 0.48301 0.53793 0.0
C3303 C 0.67989 0.47438 0.51945 0.0
C3304 C 0.66876 0.49431 0.54291 0.0
C3305 C 0.69719 0.49134 0.57055 0.0
C3306 C 0.65131 0.48549 0.54394 0.0
C3307 C 0.63855 0.49593 0.54459 0.0
C3308 C 0.64318 0.51524 0.54408 0.0
C3309 C 0.66087 0.52419 0.54412 0.0
C3310 C 0.6736 0.51374 0.54348 0.0
H3311 H 0.70781 0.48762 0.57904 0.0
H3312 H 0.70012 0.50685 0.57169 0.0
H3313 H 0.68459 0.48697 0.57622 0.0
H3314 H 0.64745 0.47043 0.54334 0.0
H3315 H 0.62498 0.48881 0.54473 0.0
H3316 H 0.21123 0.17351 0.49199 0.0
H3317 H 0.18233 0.15574 0.49694 0.0
H3318 H 0.20124 0.105 0.49156 0.0
H3319 H 0.23017 0.12268 0.48685 0.0
H3320 H 0.15871 0.12586 0.47494 0.0
H3321 H 0.1804 0.10475 0.53996 0.0
H3322 H 0.19403 0.12278 0.53022 0.0
H3323 H 0.19265 0.09837 0.52157 0.0
C3324 C 0.20924 0.15856 0.49184 0.0
C3325 C 0.22309 0.14956 0.48908 0.0
C3326 C 0.19269 0.14841 0.49469 0.0
C3327 C 0.18962 0.12906 0.49499 0.0
C3328 C 0.20333 0.11998 0.49185 0.0
H3329 H 0.10491 0.03516 0.49647 0.0
H3330 H 0.13231 0.05797 0.49582 0.0
C3331 C 0.21986 0.1301 0.48899 0.0
C3332 C 0.17204 0.11823 0.49817 0.0
H3333 H 0.15182 0.08833 0.52498 0.0
C3334 C 0.15717 0.11786 0.48603 0.0
C3335 C 0.16993 0.10786 0.51273 0.0
C3336 C 0.18506 0.10858 0.52699 0.0
C3337 C 0.1405 0.10677 0.48753 0.0
C3338 C 0.13854 0.09587 0.50167 0.0
C3339 C 0.1533 0.09666 0.51412 0.0
C3340 C 0.12168 0.08235 0.50279 0.0
C3341 C 0.12521 0.10613 0.47352 0.0
C3342 C 0.10651 0.08841 0.50721 0.0
C3343 C 0.09071 0.07528 0.50777 0.0
C3344 C 0.08982 0.0559 0.50373 0.0
C3345 C 0.10509 0.04998 0.49954 0.0
C3346 C 0.12082 0.06302 0.4992 0.0
H3347 H 0.12939 0.11324 0.46192 0.0
H3348 H 0.11825 0.09134 0.46787 0.0
H3349 H 0.11574 0.1132 0.4803 0.0
H3350 H 0.10689 0.10328 0.51022 0.0
H3351 H 0.07919 0.08027 0.51109 0.0
H3352 H 0.21117 0.96988 0.75064 0.0
H3353 H 0.22534 0.94332 0.74894 0.0
H3354 H 0.1822 0.91192 0.77186 0.0
H3355 H 0.16769 0.93809 0.77266 0.0
H3356 H 0.2398 0.92612 0.76984 0.0
H3357 H 0.18388 0.86907 0.73555 0.0
H3358 H 0.18285 0.89335 0.73801 0.0
H3359 H 0.17888 0.88071 0.75681 0.0
C3360 C 0.20452 0.95729 0.75521 0.0
C3361 C 0.18796 0.95661 0.76172 0.0
C3362 C 0.21278 0.94182 0.75426 0.0
C3363 C 0.20508 0.92467 0.75983 0.0
C3364 C 0.18862 0.92416 0.76664 0.0
H3365 H 0.23813 0.81594 0.76737 0.0
H3366 H 0.22292 0.84171 0.76788 0.0
C3367 C 0.18024 0.93954 0.76735 0.0
C3368 C 0.21454 0.90803 0.75915 0.0
H3369 H 0.2086 0.85965 0.74807 0.0
C3370 C 0.2328 0.91165 0.76492 0.0
C3371 C 0.20606 0.8886 0.7529 0.0
C3372 C 0.18689 0.88268 0.74529 0.0
C3373 C 0.24233 0.89719 0.76513 0.0
C3374 C 0.23389 0.87774 0.75885 0.0
C3375 C 0.21561 0.87411 0.75303 0.0
C3376 C 0.24353 0.86122 0.75831 0.0
C3377 C 0.26144 0.90326 0.77296 0.0
C3378 C 0.26041 0.86233 0.75238 0.0
C3379 C 0.26942 0.84758 0.75262 0.0
C3380 C 0.26191 0.83035 0.75804 0.0
C3381 C 0.24471 0.82875 0.76314 0.0
C3382 C 0.23585 0.84377 0.76338 0.0
H3383 H 0.26425 0.91681 0.78278 0.0
H3384 H 0.26551 0.89263 0.78028 0.0
H3385 H 0.26957 0.90547 0.76158 0.0
H3386 H 0.26679 0.87465 0.74728 0.0
H3387 H 0.28238 0.84963 0.74817 0.0
H3388 H 0.35966 0.92332 0.99065 0.0
H3389 H 0.39149 0.9345 0.99657 0.0
H3390 H 0.38687 0.96282 0.0508 0.0
H3391 H 0.35502 0.95195 0.04487 0.0
H3392 H 0.39057 0.98418 0.01989 0.0
H3393 H 0.44151 0.94326 0.02789 0.0
H3394 H 0.42139 0.93149 0.01331 0.0
H3395 H 0.42098 0.93815 0.0376 0.0
C3396 C 0.36551 0.93105 0.00419 0.0
C3397 C 0.35512 0.93762 0.01703 0.0
C3398 C 0.3837 0.93721 0.00766 0.0
C3399 C 0.39131 0.94978 0.02395 0.0
C3400 C 0.38108 0.95319 0.03813 0.0
H3401 H 0.4826 0.03984 0.03296 0.0
H3402 H 0.45322 0.02324 0.03725 0.0
C3403 C 0.36292 0.94724 0.03461 0.0
C3404 C 0.40676 0.96444 0.02282 0.0
H3405 H 0.45011 0.97244 0.01766 0.0
C3406 C 0.40371 0.9818 0.0198 0.0
C3407 C 0.42358 0.96094 0.02227 0.0
C3408 C 0.4272 0.94249 0.02554 0.0
C3409 C 0.41713 0.99572 0.01574 0.0
C3410 C 0.43384 0.99206 0.01484 0.0
C3411 C 0.43706 0.97493 0.0183 0.0
C3412 C 0.44838 1.00573 0.01024 0.0
C3413 C 0.41334 0.01389 0.01171 0.0
C3414 C 0.45457 1.002 0.9932 0.0
C3415 C 0.47134 0.01127 0.99075 0.0
C3416 C 0.48199 0.02409 0.00547 0.0
C3417 C 0.4748 0.02957 0.02162 0.0
C3418 C 0.45802 0.02026 0.02406 0.0
H3419 H 0.39927 0.01406 0.01198 0.0
H3420 H 0.42137 0.02581 0.02206 0.0
H3421 H 0.41711 0.01615 0.99795 0.0
H3422 H 0.44705 0.99083 0.98242 0.0
H3423 H 0.47645 0.00709 0.97801 0.0
H3424 H 0.90897 0.60021 0.793 0.0
H3425 H 0.89358 0.62162 0.78046 0.0
H3426 H 0.84712 0.57672 0.76434 0.0
H3427 H 0.86242 0.555 0.77665 0.0
H3428 H 0.87599 0.60923 0.73851 0.0
H3429 H 0.83455 0.62768 0.79294 0.0
H3430 H 0.85504 0.62123 0.79825 0.0
H3431 H 0.83612 0.60359 0.78717 0.0
C3432 C 0.89529 0.59499 0.78736 0.0
C3433 C 0.88694 0.57588 0.78562 0.0
C3434 C 0.88663 0.60719 0.78002 0.0
C3435 C 0.86945 0.60052 0.77126 0.0
C3436 C 0.86049 0.58193 0.77098 0.0
H3437 H 0.79629 0.65167 0.72016 0.0
H3438 H 0.81291 0.62853 0.72565 0.0
C3439 C 0.86918 0.56965 0.77819 0.0
C3440 C 0.8612 0.61277 0.76155 0.0
H3441 H 0.83136 0.63967 0.76549 0.0
C3442 C 0.86623 0.61595 0.74432 0.0
C3443 C 0.84857 0.62133 0.76934 0.0
C3444 C 0.84321 0.61844 0.78798 0.0
C3445 C 0.8587 0.62761 0.73455 0.0
C3446 C 0.84603 0.63613 0.74237 0.0
C3447 C 0.84106 0.63291 0.75958 0.0
C3448 C 0.83775 0.64883 0.73333 0.0
C3449 C 0.86409 0.63068 0.71597 0.0
C3450 C 0.84653 0.66771 0.73498 0.0
C3451 C 0.83708 0.68103 0.73179 0.0
C3452 C 0.81875 0.67556 0.72708 0.0
C3453 C 0.81039 0.65635 0.72364 0.0
C3454 C 0.81985 0.64308 0.7268 0.0
H3455 H 0.87294 0.62164 0.71105 0.0
H3456 H 0.85227 0.62773 0.70568 0.0
H3457 H 0.87096 0.64561 0.71684 0.0
H3458 H 0.86036 0.67232 0.74018 0.0
H3459 H 0.84389 0.69573 0.73426 0.0
H3460 H 0.83222 0.65784 0.9813 0.0
H3461 H 0.86082 0.64935 0.98485 0.0
H3462 H 0.85328 0.64142 0.04041 0.0
H3463 H 0.82477 0.64918 0.03677 0.0
H3464 H 0.89243 0.66209 0.01124 0.0
H3465 H 0.85652 0.58953 0.01448 0.0
H3466 H 0.84563 0.60658 0.00692 0.0
H3467 H 0.85143 0.60731 0.03111 0.0
C3468 C 0.83681 0.65447 0.99429 0.0
C3469 C 0.82611 0.65369 0.00859 0.0
C3470 C 0.85313 0.64967 0.99633 0.0
C3471 C 0.85895 0.6443 0.01275 0.0
C3472 C 0.84885 0.64502 0.02747 0.0
H3473 H 0.94125 0.59071 0.0472 0.0
H3474 H 0.91891 0.60916 0.04713 0.0
C3475 C 0.83254 0.64945 0.02534 0.0
C3476 C 0.87473 0.63639 0.0142 0.0
H3477 H 0.88742 0.59647 0.02104 0.0
C3478 C 0.89136 0.64772 0.01328 0.0
C3479 C 0.87331 0.61765 0.01695 0.0
C3480 C 0.85576 0.60448 0.01726 0.0
C3481 C 0.90662 0.64082 0.01527 0.0
C3482 C 0.90513 0.62211 0.01806 0.0
C3483 C 0.88853 0.61086 0.01905 0.0
C3484 C 0.9204 0.61339 0.01898 0.0
C3485 C 0.92427 0.6536 0.01469 0.0
C3486 C 0.92876 0.60981 0.00323 0.0
C3487 C 0.94136 0.59909 0.00314 0.0
C3488 C 0.94586 0.59168 0.0188 0.0
C3489 C 0.93795 0.59596 0.03481 0.0
C3490 C 0.92527 0.60662 0.03486 0.0
H3491 H 0.92362 0.66858 0.01635 0.0
H3492 H 0.93407 0.65201 0.02569 0.0
H3493 H 0.92896 0.64969 1.00122 0.0
H3494 H 0.92492 0.61455 0.99071 0.0
H3495 H 0.94692 0.59584 0.99046 0.0
H3496 H 0.20859 0.06765 0.75387 0.0
H3497 H 0.22639 0.09928 0.75253 0.0
H3498 H 0.18892 0.12436 0.78015 0.0
H3499 H 0.1713 0.09322 0.78141 0.0
H3500 H 0.21791 0.12916 0.73575 0.0
H3501 H 0.23446 0.15452 0.81087 0.0
H3502 H 0.22601 0.12997 0.80115 0.0
H3503 H 0.21136 0.14549 0.80381 0.0
C3504 C 0.20432 0.07988 0.76002 0.0
C3505 C 0.18844 0.07751 0.76802 0.0
C3506 C 0.21448 0.09813 0.75908 0.0
C3507 C 0.20936 0.11471 0.76645 0.0
C3508 C 0.19364 0.11222 0.77461 0.0
H3509 H 0.2508 0.23903 0.77272 0.0
H3510 H 0.23224 0.20765 0.77369 0.0
C3511 C 0.18344 0.09415 0.7753 0.0
C3512 C 0.21995 0.13448 0.76535 0.0
H3513 H 0.2406 0.17756 0.79176 0.0
C3514 C 0.22296 0.13961 0.74807 0.0
C3515 C 0.22654 0.14867 0.78123 0.0
C3516 C 0.2246 0.14441 0.80033 0.0
C3517 C 0.23195 0.15806 0.7463 0.0
C3518 C 0.23868 0.17218 0.76219 0.0
C3519 C 0.23556 0.1671 0.77944 0.0
C3520 C 0.24967 0.19179 0.76117 0.0
C3521 C 0.2338 0.16246 0.72723 0.0
C3522 C 0.26588 0.19393 0.75394 0.0
C3523 C 0.27662 0.21188 0.75368 0.0
C3524 C 0.27158 0.22864 0.76032 0.0
C3525 C 0.25518 0.22663 0.76726 0.0
C3526 C 0.24454 0.20854 0.7679 0.0
H3527 H 0.2241 0.15224 0.71664 0.0
H3528 H 0.23208 0.17682 0.72652 0.0
H3529 H 0.24715 0.1618 0.7238 0.0
H3530 H 0.27053 0.1816 0.74882 0.0
H3531 H 0.2891 0.21262 0.7483 0.0
H3532 H 0.40432 0.97222 0.29769 0.0
H3533 H 0.38224 0.94274 0.29495 0.0
H3534 H 0.38155 0.93403 0.23575 0.0
H3535 H 0.40433 0.96302 0.23861 0.0
H3536 H 0.35073 0.94182 0.27717 0.0
H3537 H 0.37585 0.88126 0.24578 0.0
H3538 H 0.39023 0.90367 0.25603 0.0
H3539 H 0.37906 0.90024 0.23309 0.0
C3540 C 0.3999 0.96354 0.28422 0.0
C3541 C 0.4057 0.96964 0.26833 0.0
C3542 C 0.38736 0.94683 0.28265 0.0
C3543 C 0.38029 0.9364 0.26516 0.0
C3544 C 0.38711 0.94178 0.24937 0.0
H3545 H 0.29386 0.84106 0.23351 0.0
H3546 H 0.31006 0.87274 0.23211 0.0
C3547 C 0.40001 0.9583 0.25098 0.0
C3548 C 0.36395 0.92198 0.26332 0.0
H3549 H 0.34509 0.87604 0.24657 0.0
C3550 C 0.34946 0.9274 0.27049 0.0
C3551 C 0.36242 0.90338 0.25438 0.0
C3552 C 0.37777 0.89673 0.24703 0.0
C3553 C 0.33342 0.91447 0.26929 0.0
C3554 C 0.33196 0.89586 0.26057 0.0
C3555 C 0.34628 0.89055 0.25291 0.0
C3556 C 0.31686 0.8808 0.26165 0.0
C3557 C 0.31832 0.92068 0.27764 0.0
C3558 C 0.31444 0.87559 0.27882 0.0
C3559 C 0.30536 0.85751 0.27967 0.0
C3560 C 0.29891 0.84457 0.26331 0.0
C3561 C 0.29922 0.85067 0.24628 0.0
C3562 C 0.30826 0.86878 0.24545 0.0
H3563 H 0.31969 0.93606 0.27864 0.0
H3564 H 0.30556 0.91315 0.26948 0.0
H3565 H 0.31813 0.91748 0.2918 0.0
H3566 H 0.32119 0.88468 0.29144 0.0
H3567 H 0.30495 0.85324 0.29302 0.0
H3568 H 0.55897 0.33605 0.5594 0.0
H3569 H 0.55381 0.36151 0.54354 0.0
H3570 H 0.57108 0.40126 0.59421 0.0
H3571 H 0.57601 0.37595 0.61022 0.0
H3572 H 0.53104 0.39073 0.55845 0.0
H3573 H 0.6008 0.41984 0.55003 0.0
H3574 H 0.59251 0.39548 0.55169 0.0
H3575 H 0.59619 0.41332 0.5719 0.0
C3576 C 0.56175 0.35023 0.56715 0.0
C3577 C 0.56794 0.35397 0.58609 0.0
C3578 C 0.55872 0.36473 0.55807 0.0
C3579 C 0.5621 0.38326 0.5677 0.0
C3580 C 0.56842 0.38706 0.58653 0.0
H3581 H 0.56687 0.49511 0.54826 0.0
H3582 H 0.56995 0.46602 0.55826 0.0
C3583 C 0.57123 0.37257 0.59565 0.0
C3584 C 0.55898 0.39877 0.55828 0.0
H3585 H 0.58052 0.43768 0.54306 0.0
C3586 C 0.54179 0.40096 0.55491 0.0
C3587 C 0.57305 0.41203 0.55373 0.0
C3588 C 0.59172 0.41012 0.55688 0.0
C3589 C 0.53835 0.41659 0.54786 0.0
C3590 C 0.55251 0.43014 0.54358 0.0
C3591 C 0.56964 0.42746 0.5464 0.0
C3592 C 0.55018 0.44777 0.53724 0.0
C3593 C 0.51967 0.41878 0.54596 0.0
C3594 C 0.53812 0.44741 0.52194 0.0
C3595 C 0.53606 0.46417 0.51644 0.0
C3596 C 0.54639 0.48162 0.52576 0.0
C3597 C 0.55877 0.48192 0.5407 0.0
C3598 C 0.56054 0.46524 0.54645 0.0
H3599 H 0.51146 0.41038 0.55464 0.0
H3600 H 0.51913 0.4337 0.54986 0.0
H3601 H 0.51376 0.41369 0.53141 0.0
H3602 H 0.53036 0.43418 0.51415 0.0
H3603 H 0.52651 0.46345 0.50475 0.0
H3604 H 0.44535 0.7425 0.37184 0.0
H3605 H 0.41613 0.74374 0.35752 0.0
H3606 H 0.43689 0.80085 0.351 0.0
H3607 H 0.46566 0.7997 0.36482 0.0
H3608 H 0.39297 0.77119 0.3655 0.0
H3609 H 0.41832 0.77164 0.2978 0.0
H3610 H 0.42926 0.76408 0.31669 0.0
H3611 H 0.4318 0.7887 0.31624 0.0
C3612 C 0.44358 0.75534 0.3675 0.0
C3613 C 0.45799 0.77085 0.36913 0.0
C3614 C 0.42689 0.75605 0.35933 0.0
C3615 C 0.42439 0.7723 0.35282 0.0
C3616 C 0.43852 0.78804 0.35551 0.0
H3617 H 0.34834 0.81097 0.28565 0.0
H3618 H 0.37346 0.8083 0.30646 0.0
C3619 C 0.45504 0.7873 0.36343 0.0
C3620 C 0.40754 0.77295 0.34222 0.0
H3621 H 0.39113 0.78026 0.30036 0.0
C3622 C 0.39247 0.77293 0.3512 0.0
C3623 C 0.40687 0.77536 0.32357 0.0
C3624 C 0.42236 0.77479 0.31292 0.0
C3625 C 0.377 0.7759 0.34219 0.0
C3626 C 0.3765 0.77872 0.32363 0.0
C3627 C 0.39149 0.77835 0.31462 0.0
C3628 C 0.36052 0.78156 0.31298 0.0
C3629 C 0.36152 0.77659 0.35282 0.0
C3630 C 0.34479 0.76759 0.3098 0.0
C3631 C 0.33056 0.76907 0.29784 0.0
C3632 C 0.33162 0.78467 0.289 0.0
C3633 C 0.34705 0.79903 0.29266 0.0
C3634 C 0.36143 0.79742 0.30443 0.0
H3635 H 0.36557 0.77974 0.36794 0.0
H3636 H 0.35469 0.78735 0.34904 0.0
H3637 H 0.35204 0.76271 0.34951 0.0
H3638 H 0.34378 0.75505 0.31584 0.0
H3639 H 0.31888 0.75768 0.29499 0.0
H3640 H 0.07619 0.72878 0.11159 0.0
H3641 H 0.06917 0.69808 0.09199 0.0
H3642 H 0.04868 0.72122 0.0472 0.0
H3643 H 0.05583 0.75247 0.06688 0.0
H3644 H 0.03566 0.67743 0.0743 0.0
H3645 H 0.08467 0.69295 0.02513 0.0
H3646 H 0.08588 0.70812 0.04703 0.0
H3647 H 0.06963 0.708 0.02847 0.0
C3648 C 0.07026 0.72751 0.09756 0.0
C3649 C 0.06664 0.74317 0.0908 0.0
C3650 C 0.06621 0.70987 0.08639 0.0
C3651 C 0.05849 0.70741 0.06817 0.0
C3652 C 0.05482 0.72292 0.06121 0.0
H3653 H 0.02477 0.59341 0.00264 0.0
H3654 H 0.02667 0.62693 0.01316 0.0
C3655 C 0.0589 0.74073 0.07246 0.0
C3656 C 0.05445 0.68842 0.0568 0.0
H3657 H 0.06905 0.66156 0.02242 0.0
C3658 C 0.04269 0.67398 0.06272 0.0
C3659 C 0.0638 0.68402 0.04184 0.0
C3660 C 0.0768 0.699 0.03521 0.0
C3661 C 0.04051 0.65516 0.05447 0.0
C3662 C 0.05033 0.65075 0.03998 0.0
C3663 C 0.06157 0.66515 0.03355 0.0
C3664 C 0.05002 0.6311 0.03239 0.0
C3665 C 0.02842 0.63996 0.06182 0.0
C3666 C 0.06276 0.62264 0.03954 0.0
C3667 C 0.06181 0.60361 0.03349 0.0
C3668 C 0.048 0.59278 0.02032 0.0
C3669 C 0.03552 0.60145 0.01284 0.0
C3670 C 0.03658 0.62053 0.01879 0.0
H3671 H 0.02117 0.64578 0.0727 0.0
H3672 H 0.01877 0.63089 0.05044 0.0
H3673 H 0.03619 0.63092 0.06767 0.0
H3674 H 0.07314 0.63066 0.05017 0.0
H3675 H 0.07145 0.59724 0.0397 0.0
H3676 H 0.0763 0.27047 0.90959 0.0
H3677 H 0.10477 0.27797 0.89765 0.0
H3678 H 0.07838 0.27894 0.8445 0.0
H3679 H 0.04989 0.27111 0.85618 0.0
H3680 H 0.11255 0.25401 0.86154 0.0
H3681 H 0.11984 0.33045 0.86189 0.0
H3682 H 0.10747 0.31828 0.87775 0.0
H3683 H 0.09848 0.3151 0.85409 0.0
C3684 C 0.07657 0.2723 0.89536 0.0
C3685 C 0.06083 0.27004 0.88378 0.0
C3686 C 0.09284 0.27663 0.88859 0.0
C3687 C 0.09367 0.27915 0.87024 0.0
C3688 C 0.07802 0.27718 0.85874 0.0
H3689 H 0.16887 0.30009 0.79386 0.0
H3690 H 0.14431 0.29812 0.81217 0.0
C3691 C 0.06175 0.27257 0.8654 0.0
C3692 C 0.11078 0.28268 0.86268 0.0
H3693 H 0.14016 0.31602 0.84679 0.0
C3694 C 0.11873 0.2676 0.85849 0.0
C3695 C 0.11871 0.3004 0.85868 0.0
C3696 C 0.11082 0.3171 0.86338 0.0
C3697 C 0.13409 0.26958 0.84976 0.0
C3698 C 0.14198 0.28726 0.84548 0.0
C3699 C 0.13418 0.30248 0.85008 0.0
C3700 C 0.15762 0.28985 0.83518 0.0
C3701 C 0.14127 0.25246 0.84445 0.0
C3702 C 0.17352 0.28626 0.84214 0.0
C3703 C 0.18767 0.28737 0.83165 0.0
C3704 C 0.18631 0.29229 0.81404 0.0
C3705 C 0.17053 0.29644 0.80741 0.0
C3706 C 0.15641 0.29528 0.81786 0.0
H3707 H 0.13148 0.23924 0.84476 0.0
H3708 H 0.14542 0.25185 0.83042 0.0
H3709 H 0.15292 0.25318 0.85433 0.0
H3710 H 0.17494 0.28246 0.85565 0.0
H3711 H 0.1997 0.28444 0.83737 0.0
H3712 H 0.56712 0.74737 0.88191 0.0
H3713 H 0.55458 0.71856 0.89296 0.0
H3714 H 0.56533 0.74871 0.94896 0.0
H3715 H 0.57797 0.77776 0.93806 0.0
H3716 H 0.57315 0.70235 0.91973 0.0
H3717 H 0.51198 0.72001 0.94167 0.0
H3718 H 0.52423 0.7315 0.92533 0.0
H3719 H 0.53178 0.73794 0.94955 0.0
C3720 C 0.5668 0.74792 0.89659 0.0
C3721 C 0.57351 0.7648 0.90917 0.0
C3722 C 0.55959 0.73146 0.90283 0.0
C3723 C 0.55884 0.7317 0.92167 0.0
C3724 C 0.56558 0.74846 0.93431 0.0
H3725 H 0.53974 0.66275 0.99989 0.0
H3726 H 0.54198 0.6867 0.98058 0.0
C3727 C 0.5729 0.76494 0.92809 0.0
C3728 C 0.55182 0.71418 0.92826 0.0
H3729 H 0.51985 0.69368 0.95198 0.0
C3730 C 0.56136 0.70023 0.92654 0.0
C3731 C 0.53637 0.71161 0.93695 0.0
C3732 C 0.52536 0.72597 0.93839 0.0
C3733 C 0.55644 0.68415 0.93439 0.0
C3734 C 0.54137 0.68191 0.94378 0.0
C3735 C 0.53136 0.69547 0.9447 0.0
C3736 C 0.53723 0.66699 0.95484 0.0
C3737 C 0.56799 0.67028 0.9335 0.0
C3738 C 0.53314 0.64796 0.94665 0.0
C3739 C 0.53178 0.63416 0.95769 0.0
C3740 C 0.53442 0.63927 0.97703 0.0
C3741 C 0.53744 0.65832 0.98507 0.0
C3742 C 0.53881 0.67204 0.97405 0.0
H3743 H 0.58074 0.67583 0.92855 0.0
H3744 H 0.57068 0.66659 0.94727 0.0
H3745 H 0.56116 0.6572 0.92387 0.0
H3746 H 0.53159 0.64384 0.9318 0.0
H3747 H 0.52914 0.61955 0.95112 0.0
H3748 H 0.05625 0.75056 0.6433 0.0
H3749 H 0.08386 0.75108 0.66153 0.0
H3750 H 0.06996 0.78625 0.70744 0.0
H3751 H 0.04223 0.78545 0.68952 0.0
H3752 H 0.10971 0.78315 0.6768 0.0
H3753 H 0.08326 0.74367 0.73049 0.0
H3754 H 0.07032 0.74342 0.70908 0.0
H3755 H 0.07401 0.76328 0.72746 0.0
C3756 C 0.05919 0.75849 0.65722 0.0
C3757 C 0.04732 0.76807 0.66507 0.0
C3758 C 0.0748 0.75865 0.66761 0.0
C3759 C 0.07862 0.76848 0.68581 0.0
C3760 C 0.06692 0.77828 0.69354 0.0
H3761 H 0.17849 0.78441 0.75606 0.0
H3762 H 0.14962 0.78961 0.74535 0.0
C3763 C 0.05126 0.77797 0.68325 0.0
C3764 C 0.09536 0.76934 0.69637 0.0
H3765 H 0.11388 0.75657 0.73418 0.0
C3766 C 0.11066 0.7775 0.68943 0.0
C3767 C 0.09632 0.76197 0.71283 0.0
C3768 C 0.08012 0.75244 0.72037 0.0
C3769 C 0.12711 0.77804 0.69834 0.0
C3770 C 0.12808 0.77027 0.71451 0.0
C3771 C 0.11284 0.76275 0.72188 0.0
C3772 C 0.14456 0.76688 0.72194 0.0
C3773 C 0.14334 0.78612 0.69001 0.0
C3774 C 0.15061 0.75221 0.71238 0.0
C3775 C 0.16675 0.74928 0.71838 0.0
C3776 C 0.17686 0.76092 0.73404 0.0
C3777 C 0.1706 0.77525 0.74404 0.0
C3778 C 0.15434 0.77825 0.73795 0.0
H3779 H 0.14056 0.79499 0.67984 0.0
H3780 H 0.15382 0.79463 0.70091 0.0
H3781 H 0.14839 0.77444 0.68279 0.0
H3782 H 0.143 0.74333 0.70005 0.0
H3783 H 0.17156 0.7382 0.71057 0.0
H3784 H 0.08329 0.35898 0.42874 0.0
H3785 H 0.07284 0.38367 0.44686 0.0
H3786 H 0.08793 0.42019 0.40792 0.0
H3787 H 0.09809 0.39528 0.38924 0.0
H3788 H 0.08982 0.41959 0.46321 0.0
H3789 H 0.03569 0.41897 0.40944 0.0
H3790 H 0.04777 0.40079 0.40819 0.0
H3791 H 0.05725 0.4231 0.40221 0.0
C3792 C 0.0846 0.37231 0.42407 0.0
C3793 C 0.09134 0.37513 0.40744 0.0
C3794 C 0.07857 0.38636 0.43443 0.0
C3795 C 0.07927 0.40346 0.42842 0.0
C3796 C 0.08691 0.40681 0.41244 0.0
H3797 H 0.0622 0.50566 0.48279 0.0
H3798 H 0.0693 0.48044 0.46192 0.0
C3799 C 0.09286 0.39267 0.40193 0.0
C3800 C 0.07182 0.41764 0.43899 0.0
H3801 H 0.03977 0.44194 0.43663 0.0
C3802 C 0.07883 0.42442 0.45745 0.0
C3803 C 0.05739 0.42367 0.43133 0.0
C3804 C 0.04895 0.41616 0.41175 0.0
C3805 C 0.0719 0.43738 0.46848 0.0
C3806 C 0.05768 0.44359 0.46077 0.0
C3807 C 0.05059 0.43683 0.44237 0.0
C3808 C 0.05121 0.45843 0.47134 0.0
C3809 C 0.07992 0.44468 0.48823 0.0
C3810 C 0.03847 0.45419 0.48318 0.0
C3811 C 0.03412 0.46871 0.4949 0.0
C3812 C 0.04258 0.48738 0.49477 0.0
C3813 C 0.05511 0.49147 0.4827 0.0
C3814 C 0.05925 0.47708 0.47086 0.0
H3815 H 0.09083 0.43819 0.49218 0.0
H3816 H 0.08504 0.46014 0.49032 0.0
H3817 H 0.06971 0.44181 0.49759 0.0
H3818 H 0.03239 0.43972 0.48376 0.0
H3819 H 0.02462 0.46539 0.50442 0.0
H3820 H 0.43256 0.22256 0.16562 0.0
H3821 H 0.40721 0.22885 0.18077 0.0
H3822 H 0.43572 0.28632 0.2006 0.0
H3823 H 0.46058 0.28021 0.18494 0.0
H3824 H 0.41139 0.24029 0.21889 0.0
H3825 H 0.38716 0.29226 0.18331 0.0
H3826 H 0.40058 0.27757 0.17296 0.0
H3827 H 0.41044 0.29808 0.19 0.0
C3828 C 0.43302 0.23659 0.1728 0.0
C3829 C 0.4481 0.25102 0.17421 0.0
C3830 C 0.41871 0.24017 0.18137 0.0
C3831 C 0.41967 0.2581 0.19148 0.0
C3832 C 0.43463 0.2726 0.19237 0.0
H3833 H 0.34981 0.30218 0.26097 0.0
H3834 H 0.37699 0.29843 0.24862 0.0
C3835 C 0.44877 0.26909 0.1836 0.0
C3836 C 0.40613 0.26107 0.20316 0.0
H3837 H 0.3768 0.28787 0.21195 0.0
C3838 C 0.40372 0.25061 0.21736 0.0
C3839 C 0.3966 0.27485 0.20122 0.0
C3840 C 0.39869 0.28624 0.18596 0.0
C3841 C 0.39181 0.25351 0.2298 0.0
C3842 C 0.38195 0.26698 0.22763 0.0
C3843 C 0.3846 0.2777 0.21361 0.0
C3844 C 0.36734 0.26864 0.23825 0.0
C3845 C 0.38992 0.24217 0.2451 0.0
C3846 C 0.35333 0.25299 0.23688 0.0
C3847 C 0.33801 0.25499 0.24408 0.0
C3848 C 0.33635 0.27281 0.2523 0.0
C3849 C 0.35076 0.28831 0.25459 0.0
C3850 C 0.36623 0.28622 0.24758 0.0
H3851 H 0.40228 0.23795 0.24888 0.0
H3852 H 0.38628 0.25012 0.2576 0.0
H3853 H 0.37949 0.22912 0.24032 0.0
H3854 H 0.35381 0.23943 0.22925 0.0
H3855 H 0.3271 0.24279 0.24198 0.0
H3856 H 0.64749 0.51216 0.33738 0.0
H3857 H 0.63545 0.51296 0.36735 0.0
H3858 H 0.58671 0.51985 0.34167 0.0
H3859 H 0.59847 0.51913 0.31222 0.0
H3860 H 0.6219 0.54097 0.38983 0.0
H3861 H 0.56822 0.47724 0.3685 0.0
H3862 H 0.58621 0.48274 0.35509 0.0
H3863 H 0.56823 0.49407 0.3535 0.0
C3864 C 0.63414 0.51361 0.338 0.0
C3865 C 0.62415 0.51546 0.32182 0.0
C3866 C 0.62719 0.51421 0.35536 0.0
C3867 C 0.60983 0.51628 0.3573 0.0
C3868 C 0.59992 0.51791 0.34109 0.0
H3869 H 0.53498 0.51888 0.44004 0.0
H3870 H 0.55094 0.51769 0.41333 0.0
C3871 C 0.60686 0.51757 0.32397 0.0
C3872 C 0.60198 0.51706 0.37589 0.0
H3873 H 0.5666 0.49681 0.39654 0.0
C3874 C 0.60989 0.53114 0.39127 0.0
C3875 C 0.58609 0.50459 0.37833 0.0
C3876 C 0.57674 0.4887 0.36306 0.0
C3877 C 0.60228 0.53347 0.40822 0.0
C3878 C 0.58633 0.52096 0.4107 0.0
C3879 C 0.57867 0.50667 0.39532 0.0
C3880 C 0.57683 0.52273 0.42837 0.0
C3881 C 0.61113 0.55007 0.42295 0.0
C3882 C 0.58544 0.52619 0.44676 0.0
C3883 C 0.57606 0.52733 0.46259 0.0
C3884 C 0.55758 0.52462 0.46077 0.0
C3885 C 0.54913 0.52109 0.44245 0.0
C3886 C 0.55841 0.52028 0.42683 0.0
H3887 H 0.61952 0.56129 0.41709 0.0
H3888 H 0.60137 0.55615 0.43029 0.0
H3889 H 0.61973 0.54546 0.43307 0.0
H3890 H 0.59946 0.52759 0.44903 0.0
H3891 H 0.58327 0.52978 0.47621 0.0
H3892 H 0.30796 0.92975 0.06855 0.0
H3893 H 0.31873 0.91917 0.09612 0.0
H3894 H 0.31084 0.8631 0.06515 0.0
H3895 H 0.29986 0.87347 0.03747 0.0
H3896 H 0.29591 0.87991 0.10746 0.0
H3897 H 0.3662 0.88797 0.09605 0.0
H3898 H 0.35314 0.90318 0.08822 0.0
H3899 H 0.34931 0.87932 0.07665 0.0
C3900 C 0.30837 0.91512 0.06767 0.0
C3901 C 0.30297 0.90234 0.05099 0.0
C3902 C 0.31465 0.9092 0.08332 0.0
C3903 C 0.3158 0.89054 0.08237 0.0
C3904 C 0.31017 0.87764 0.06589 0.0
H3905 H 0.33323 0.81357 0.14753 0.0
H3906 H 0.33655 0.83434 0.12494 0.0
C3907 C 0.30372 0.8835 0.05024 0.0
C3908 C 0.32175 0.88415 0.09896 0.0
H3909 H 0.35699 0.87332 0.12106 0.0
C3910 C 0.3093 0.87869 0.11066 0.0
C3911 C 0.33922 0.88265 0.10277 0.0
C3912 C 0.35286 0.88862 0.09035 0.0
C3913 C 0.31371 0.87102 0.12596 0.0
C3914 C 0.33115 0.86921 0.12972 0.0
C3915 C 0.34375 0.87508 0.1182 0.0
C3916 C 0.33555 0.85905 0.14426 0.0
C3917 C 0.29949 0.86404 0.13746 0.0
C3918 C 0.33509 0.86652 0.16275 0.0
C3919 C 0.33319 0.85469 0.17573 0.0
C3920 C 0.33173 0.83533 0.17026 0.0
C3921 C 0.33433 0.82842 0.15217 0.0
C3922 C 0.33626 0.84026 0.13923 0.0
H3923 H 0.28621 0.86406 0.13103 0.0
H3924 H 0.29956 0.84954 0.13956 0.0
H3925 H 0.30196 0.87323 0.15121 0.0
H3926 H 0.33462 0.88108 0.16678 0.0
H3927 H 0.3316 0.86042 0.18971 0.0
H3928 H 0.98405 0.52872 0.82183 0.0
H3929 H 0.99257 0.52798 0.85419 0.0
H3930 H 0.93991 0.52844 0.86621 0.0
H3931 H 0.93112 0.52909 0.83385 0.0
H3932 H 0.9758 0.55914 0.88749 0.0
H3933 H 0.96917 0.48238 0.88492 0.0
H3934 H 0.97682 0.49217 0.8654 0.0
H3935 H 0.95481 0.49166 0.87039 0.0
C3936 C 0.97425 0.52853 0.83131 0.0
C3937 C 0.95701 0.5292 0.82543 0.0
C3938 C 0.97911 0.52807 0.84968 0.0
C3939 C 0.96677 0.52816 0.86226 0.0
C3940 C 0.94949 0.52841 0.85649 0.0
H3941 H 0.00578 0.51259 0.96978 0.0
H3942 H 0.98452 0.51401 0.94454 0.0
C3943 C 0.94459 0.52888 0.8381 0.0
C3944 C 0.97252 0.52912 0.88165 0.0
H3945 H 0.98687 0.50289 0.91059 0.0
C3946 C 0.9779 0.54687 0.89285 0.0
C3947 C 0.97487 0.51297 0.88834 0.0
C3948 C 0.96854 0.49364 0.87674 0.0
C3949 C 0.9868 0.54906 0.91047 0.0
C3950 C 0.99062 0.53307 0.91657 0.0
C3951 C 0.98404 0.51515 0.90578 0.0
C3952 C 0.00262 0.53456 0.93326 0.0
C3953 C 0.99242 0.56846 0.92207 0.0
C3954 C 0.0198 0.54574 0.93524 0.0
C3955 C 0.03182 0.54543 0.95005 0.0
C3956 C 0.02683 0.53357 0.96263 0.0
C3957 C 0.00977 0.52218 0.96043 0.0
C3958 C 0.99764 0.52293 0.94603 0.0
H3959 H 0.98321 0.57725 0.91877 0.0
H3960 H 0.99315 0.56793 0.93702 0.0
H3961 H 0.00557 0.57546 0.919 0.0
H3962 H 0.02407 0.55425 0.92508 0.0
H3963 H 0.04501 0.55417 0.95146 0.0
H3964 H 0.30253 0.19808 0.56452 0.0
H3965 H 0.30483 0.21676 0.5954 0.0
H3966 H 0.26852 0.24702 0.57499 0.0
H3967 H 0.26651 0.22857 0.54384 0.0
H3968 H 0.30889 0.26306 0.60858 0.0
H3969 H 0.24842 0.21039 0.61593 0.0
H3970 H 0.26397 0.20443 0.60077 0.0
H3971 H 0.25026 0.2195 0.59474 0.0
C3972 C 0.2955 0.20915 0.56654 0.0
C3973 C 0.28439 0.21202 0.55195 0.0
C3974 C 0.29683 0.21978 0.58412 0.0
C3975 C 0.2868 0.23316 0.58738 0.0
C3976 C 0.27644 0.23682 0.57261 0.0
H3977 H 0.25871 0.27432 0.69595 0.0
H3978 H 0.25871 0.26624 0.66241 0.0
C3979 C 0.27533 0.22636 0.55489 0.0
C3980 C 0.28538 0.24126 0.60655 0.0
H3981 H 0.26123 0.23315 0.64194 0.0
C3982 C 0.29839 0.25673 0.61587 0.0
C3983 C 0.27171 0.23281 0.61594 0.0
C3984 C 0.25775 0.21582 0.60647 0.0
C3985 C 0.29811 0.26394 0.63454 0.0
C3986 C 0.28463 0.25517 0.64409 0.0
C3987 C 0.27145 0.23994 0.63458 0.0
C3988 C 0.28465 0.26063 0.66424 0.0
C3989 C 0.31228 0.28082 0.64384 0.0
C3990 C 0.29899 0.25968 0.67631 0.0
C3991 C 0.29903 0.26429 0.69528 0.0
C3992 C 0.2846 0.26972 0.7027 0.0
C3993 C 0.27 0.27021 0.69065 0.0
C3994 C 0.27003 0.26569 0.67153 0.0
H3995 H 0.31786 0.28933 0.63369 0.0
H3996 H 0.30722 0.28993 0.65442 0.0
H3997 H 0.32313 0.27599 0.65071 0.0
H3998 H 0.31012 0.25516 0.67106 0.0
H3999 H 0.31042 0.26346 0.70414 0.0
H4000 H 0.60969 0.48212 0.20549 0.0
H4001 H 0.59518 0.48509 0.17564 0.0
H4002 H 0.63054 0.53914 0.17884 0.0
H4003 H 0.64591 0.53528 0.20753 0.0
H4004 H 0.57677 0.50331 0.16127 0.0
H4005 H 0.6371 0.52294 0.12885 0.0
H4006 H 0.63772 0.51574 0.15096 0.0
H4007 H 0.63782 0.53983 0.14912 0.0
C4008 C 0.61453 0.49454 0.19969 0.0
C4009 C 0.62934 0.50825 0.20899 0.0
C4010 C 0.60612 0.49631 0.18246 0.0
C4011 C 0.6119 0.51209 0.17395 0.0
C4012 C 0.62611 0.52623 0.18394 0.0
H4013 H 0.57011 0.55499 0.07795 0.0
H4014 H 0.58311 0.55064 0.10784 0.0
C4015 C 0.63488 0.52414 0.20074 0.0
C4016 C 0.60304 0.51392 0.15508 0.0
H4017 H 0.61123 0.52852 0.11382 0.0
C4018 C 0.5845 0.50865 0.15095 0.0
C4019 C 0.6126 0.52073 0.14092 0.0
C4020 C 0.63238 0.52492 0.14261 0.0
C4021 C 0.57563 0.51037 0.13389 0.0
C4022 C 0.58523 0.51781 0.1202 0.0
C4023 C 0.60364 0.52302 0.12418 0.0
C4024 C 0.57652 0.52029 0.10173 0.0
C4025 C 0.55587 0.50447 0.13066 0.0
C4026 C 0.56835 0.5048 0.08778 0.0
C4027 C 0.56107 0.50726 0.07035 0.0
C4028 C 0.56141 0.52535 0.06623 0.0
C4029 C 0.56938 0.54081 0.08034 0.0
C4030 C 0.57692 0.53833 0.09762 0.0
H4031 H 0.55005 0.50144 0.14336 0.0
H4032 H 0.55043 0.51561 0.12552 0.0
H4033 H 0.5518 0.4916 0.11993 0.0
H4034 H 0.56786 0.49067 0.09023 0.0
H4035 H 0.55515 0.49491 0.06006 0.0
H4036 H 0.3266 0.91763 0.93751 0.0
H4037 H 0.33058 0.8971 0.90962 0.0
H4038 H 0.28702 0.85411 0.91859 0.0
H4039 H 0.28292 0.87439 0.94645 0.0
H4040 H 0.32293 0.84424 0.90832 0.0
H4041 H 0.28901 0.88277 0.8632 0.0
H4042 H 0.3049 0.89577 0.88235 0.0
H4043 H 0.28432 0.8821 0.8866 0.0
C4044 C 0.31783 0.90383 0.93347 0.0
C4045 C 0.30431 0.89764 0.94395 0.0
C4046 C 0.32025 0.89213 0.91773 0.0
C4047 C 0.30913 0.87423 0.91232 0.0
C4048 C 0.29579 0.8679 0.92282 0.0
H4049 H 0.27001 0.78796 0.82385 0.0
H4050 H 0.27936 0.80916 0.85347 0.0
C4051 C 0.2934 0.87952 0.93858 0.0
C4052 C 0.31035 0.86252 0.89488 0.0
H4053 H 0.29582 0.85504 0.84912 0.0
C4054 C 0.31736 0.84672 0.89528 0.0
C4055 C 0.3029 0.86592 0.87811 0.0
C4056 C 0.29478 0.88251 0.87736 0.0
C4057 C 0.31653 0.83375 0.87913 0.0
C4058 C 0.3085 0.83684 0.86252 0.0
C4059 C 0.30213 0.853 0.86201 0.0
C4060 C 0.30447 0.82241 0.84593 0.0
C4061 C 0.32346 0.81642 0.87989 0.0
C4062 C 0.31573 0.82288 0.83224 0.0
C4063 C 0.31041 0.81081 0.81533 0.0
C4064 C 0.29379 0.79841 0.81203 0.0
C4065 C 0.28291 0.79744 0.82611 0.0
C4066 C 0.28821 0.80945 0.84298 0.0
H4067 H 0.3306 0.81681 0.89361 0.0
H4068 H 0.31236 0.80381 0.87679 0.0
H4069 H 0.33243 0.81493 0.8692 0.0
H4070 H 0.32831 0.83293 0.83445 0.0
H4071 H 0.31908 0.81143 0.80477 0.0
H4072 H 0.96199 0.55121 0.72875 0.0
H4073 H 0.97082 0.53158 0.70305 0.0
H4074 H 0.91934 0.49406 0.69437 0.0
H4075 H 0.91024 0.51393 0.71938 0.0
H4076 H 0.97059 0.49245 0.69867 0.0
H4077 H 0.92564 0.50831 0.64393 0.0
H4078 H 0.93007 0.52197 0.66691 0.0
H4079 H 0.9161 0.49872 0.66263 0.0
C4080 C 0.9525 0.53903 0.72101 0.0
C4081 C 0.93535 0.53439 0.72556 0.0
C4082 C 0.95758 0.52772 0.7066 0.0
C4083 C 0.94563 0.51152 0.69685 0.0
C4084 C 0.92857 0.50672 0.70154 0.0
H4085 H 0.97616 0.47746 0.59028 0.0
H4086 H 0.95937 0.46891 0.61558 0.0
C4087 C 0.92338 0.5182 0.71568 0.0
C4088 C 0.95101 0.50021 0.68126 0.0
H4089 H 0.94717 0.49316 0.63452 0.0
C4090 C 0.96526 0.49216 0.68459 0.0
C4091 C 0.94361 0.49939 0.66302 0.0
C4092 C 0.92806 0.5076 0.65878 0.0
C4093 C 0.97345 0.4849 0.67001 0.0
C4094 C 0.96744 0.48627 0.65183 0.0
C4095 C 0.95189 0.49225 0.64847 0.0
C4096 C 0.97905 0.48644 0.63716 0.0
C4097 C 0.98912 0.47698 0.67439 0.0
C4098 C 0.9958 0.49864 0.64095 0.0
C4099 C 0.00541 0.50304 0.62671 0.0
C4100 C 0.99825 0.49579 0.60842 0.0
C4101 C 0.98188 0.48298 0.60443 0.0
C4102 C 0.97238 0.47811 0.61881 0.0
H4103 H 0.98685 0.46862 0.68557 0.0
H4104 H 0.99203 0.46796 0.66216 0.0
H4105 H 1.00078 0.4887 0.67956 0.0
H4106 H 1.00094 0.50604 0.65478 0.0
H4107 H 0.01788 0.51331 0.62992 0.0
H4108 H 0.27646 0.23302 0.45111 0.0
H4109 H 0.27843 0.24644 0.42289 0.0
H4110 H 0.29753 0.1997 0.39714 0.0
H4111 H 0.29512 0.18594 0.42511 0.0
H4112 H 0.30568 0.25788 0.40348 0.0
H4113 H 0.25679 0.19843 0.35973 0.0
H4114 H 0.26005 0.20102 0.38451 0.0
H4115 H 0.27504 0.1917 0.37076 0.0
C4116 C 0.28109 0.22559 0.43944 0.0
C4117 C 0.28543 0.20826 0.44032 0.0
C4118 C 0.28223 0.2333 0.4233 0.0
C4119 C 0.28774 0.2239 0.40766 0.0
C4120 C 0.29273 0.20697 0.40877 0.0
H4121 H 0.29532 0.24918 0.29567 0.0
H4122 H 0.29593 0.23449 0.32329 0.0
C4123 C 0.29146 0.19917 0.42485 0.0
C4124 C 0.28814 0.23177 0.39022 0.0
H4125 H 0.27144 0.22205 0.34462 0.0
C4126 C 0.29817 0.25004 0.39062 0.0
C4127 C 0.27844 0.22155 0.37334 0.0
C4128 C 0.26684 0.20216 0.37202 0.0
C4129 C 0.29887 0.25829 0.37469 0.0
C4130 C 0.2889 0.24819 0.35788 0.0
C4131 C 0.27909 0.22982 0.35743 0.0
C4132 C 0.28795 0.25663 0.34082 0.0
C4133 C 0.31057 0.27765 0.37604 0.0
C4134 C 0.28273 0.27363 0.34121 0.0
C4135 C 0.28234 0.28192 0.32548 0.0
C4136 C 0.28671 0.27322 0.30882 0.0
C4137 C 0.29134 0.25589 0.30815 0.0
C4138 C 0.29192 0.24765 0.32401 0.0
H4139 H 0.32142 0.28064 0.38751 0.0
H4140 H 0.31634 0.27931 0.36303 0.0
H4141 H 0.30271 0.28829 0.3789 0.0
H4142 H 0.27905 0.2806 0.35375 0.0
H4143 H 0.27878 0.29533 0.32642 0.0
H4144 H 0.33746 0.6402 0.52956 0.0
H4145 H 0.36446 0.63215 0.52031 0.0
H4146 H 0.33548 0.57549 0.49796 0.0
H4147 H 0.30839 0.58338 0.50744 0.0
H4148 H 0.37729 0.5978 0.53034 0.0
H4149 H 0.36395 0.60048 0.45578 0.0
H4150 H 0.35462 0.6136 0.47346 0.0
H4151 H 0.34618 0.58873 0.46678 0.0
C4152 C 0.33696 0.62595 0.52296 0.0
C4153 C 0.32102 0.61231 0.51931 0.0
C4154 C 0.35226 0.62146 0.51756 0.0
C4155 C 0.35169 0.60341 0.50821 0.0
C4156 C 0.33594 0.58957 0.50501 0.0
H4157 H 0.41768 0.53547 0.47167 0.0
H4158 H 0.39475 0.55282 0.47388 0.0
C4159 C 0.32063 0.59397 0.51065 0.0
C4160 C 0.36782 0.5988 0.5025 0.0
H4161 H 0.38854 0.58872 0.46485 0.0
C4162 C 0.37994 0.59604 0.51609 0.0
C4163 C 0.371 0.59667 0.48389 0.0
C4164 C 0.35834 0.60011 0.46906 0.0
C4165 C 0.395 0.59026 0.51143 0.0
C4166 C 0.39806 0.58764 0.49273 0.0
C4167 C 0.38615 0.59098 0.47917 0.0
C4168 C 0.41237 0.57912 0.48703 0.0
C4169 C 0.40705 0.58607 0.5264 0.0
C4170 C 0.4299 0.58855 0.49286 0.0
C4171 C 0.44309 0.57868 0.49159 0.0
C4172 C 0.43882 0.5593 0.48449 0.0
C4173 C 0.42141 0.55039 0.47715 0.0
C4174 C 0.40828 0.56027 0.47839 0.0
H4175 H 0.40129 0.58608 0.53962 0.0
H4176 H 0.41005 0.57218 0.52215 0.0
H4177 H 0.41961 0.59689 0.52886 0.0
H4178 H 0.43321 0.60319 0.49943 0.0
H4179 H 0.45647 0.586 0.49695 0.0
H4180 H 0.86119 0.92567 0.5518 0.0
H4181 H 0.89241 0.94087 0.55188 0.0
H4182 H 0.88292 0.94157 0.49376 0.0
H4183 H 0.85191 0.92737 0.49383 0.0
H4184 H 0.91965 0.93311 0.53407 0.0
H4185 H 0.90314 0.99615 0.51255 0.0
H4186 H 0.88698 0.97814 0.51957 0.0
H4187 H 0.89292 0.97512 0.49647 0.0
C4188 C 0.86584 0.92904 0.53908 0.0
C4189 C 0.85402 0.92572 0.52292 0.0
C4190 C 0.88367 0.93772 0.5391 0.0
C4191 C 0.88998 0.94299 0.52294 0.0
C4192 C 0.87834 0.93839 0.50658 0.0
H4193 H 0.99137 0.99917 0.49362 0.0
H4194 H 0.96228 0.97834 0.49328 0.0
C4195 C 0.86059 0.93015 0.50662 0.0
C4196 C 0.90846 0.95379 0.52308 0.0
H4197 H 0.93275 0.99378 0.51159 0.0
C4198 C 0.92249 0.94642 0.52926 0.0
C4199 C 0.91229 0.97125 0.51685 0.0
C4200 C 0.89804 0.98073 0.51117 0.0
C4201 C 0.9401 0.95586 0.52907 0.0
C4202 C 0.94381 0.97308 0.52254 0.0
C4203 C 0.92986 0.98045 0.51639 0.0
C4204 C 0.96209 0.98422 0.52282 0.0
C4205 C 0.95471 0.94735 0.53566 0.0
C4206 C 0.97165 0.99437 0.53952 0.0
C4207 C 0.98814 0.00641 0.53973 0.0
C4208 C 0.99546 0.00845 0.52324 0.0
C4209 C 0.98612 0.99781 0.50656 0.0
C4210 C 0.9695 0.98594 0.50634 0.0
H4211 H 0.94974 0.93272 0.53784 0.0
H4212 H 0.96439 0.9474 0.52554 0.0
H4213 H 0.96169 0.95597 0.54889 0.0
H4214 H 0.96612 0.99341 0.55237 0.0
H4215 H 0.995 0.01443 0.55279 0.0
H4216 H 0.91428 0.13254 0.27167 0.0
H4217 H 0.89998 0.15909 0.27372 0.0
H4218 H 0.85348 0.12278 0.24169 0.0
H4219 H 0.86753 0.09622 0.24017 0.0
H4220 H 0.88832 0.1796 0.25265 0.0
H4221 H 0.82811 0.14556 0.27865 0.0
H4222 H 0.84651 0.13482 0.27694 0.0
H4223 H 0.83077 0.13248 0.25702 0.0
C4224 C 0.90093 0.13003 0.26514 0.0
C4225 C 0.89227 0.11166 0.25586 0.0
C4226 C 0.89262 0.1455 0.26629 0.0
C4227 C 0.8751 0.14357 0.25829 0.0
C4228 C 0.86661 0.12524 0.24873 0.0
H4229 H 0.79907 0.21678 0.24727 0.0
H4230 H 0.81491 0.1918 0.24709 0.0
C4231 C 0.87487 0.10978 0.24767 0.0
C4232 C 0.86605 0.16052 0.25955 0.0
H4233 H 0.82746 0.17394 0.26783 0.0
C4234 C 0.87501 0.1782 0.25607 0.0
C4235 C 0.84858 0.1596 0.26413 0.0
C4236 C 0.83799 0.14218 0.26959 0.0
C4237 C 0.86716 0.19404 0.25624 0.0
C4238 C 0.84954 0.19301 0.26048 0.0
C4239 C 0.84073 0.1754 0.2643 0.0
C4240 C 0.83981 0.20942 0.26062 0.0
C4241 C 0.87792 0.21154 0.25107 0.0
C4242 C 0.84773 0.22855 0.26839 0.0
C4243 C 0.83855 0.24326 0.26811 0.0
C4244 C 0.82071 0.23969 0.26055 0.0
C4245 C 0.81268 0.22058 0.25326 0.0
C4246 C 0.82192 0.20598 0.25322 0.0
H4247 H 0.88833 0.20835 0.24269 0.0
H4248 H 0.8696 0.21864 0.24313 0.0
H4249 H 0.88453 0.22138 0.26382 0.0
H4250 H 0.86108 0.23231 0.27508 0.0
H4251 H 0.84545 0.2575 0.27419 0.0
H4252 H 0.73029 0.10637 0.97793 0.0
H4253 H 0.69949 0.08923 0.97273 0.0
H4254 H 0.68704 0.13102 0.01371 0.0
H4255 H 0.71756 0.14851 0.01846 0.0
H4256 H 0.68711 0.0752 0.00174 0.0
H4257 H 0.64371 0.11813 0.97688 0.0
H4258 H 0.66697 0.12324 0.97494 0.0
H4259 H 0.65906 0.13102 0.99627 0.0
C4260 C 0.72083 0.11214 0.98539 0.0
C4261 C 0.7262 0.12845 0.99885 0.0
C4262 C 0.70331 0.10244 0.98233 0.0
C4263 C 0.69111 0.10892 0.99282 0.0
C4264 C 0.69622 0.12603 0.00521 0.0
H4265 H 0.59775 0.06705 0.03592 0.0
H4266 H 0.62801 0.08068 0.03173 0.0
C4267 C 0.71369 0.13588 0.00806 0.0
C4268 C 0.67424 0.09618 0.99371 0.0
H4269 H 0.63056 0.09396 0.99342 0.0
C4270 C 0.67467 0.07908 0.9995 0.0
C4271 C 0.65818 0.10151 0.99105 0.0
C4272 C 0.65693 0.11941 0.98427 0.0
C4273 C 0.65943 0.06743 0.00338 0.0
C4274 C 0.64358 0.07314 0.00136 0.0
C4275 C 0.64297 0.08989 0.99505 0.0
C4276 C 0.62733 0.0621 0.00593 0.0
C4277 C 0.66036 0.04953 0.01029 0.0
C4278 C 0.61754 0.04667 0.99316 0.0
C4279 C 0.60029 0.03884 0.99549 0.0
C4280 C 0.59275 0.04663 0.01045 0.0
C4281 C 0.60319 0.06094 0.02412 0.0
C4282 C 0.62043 0.06874 0.02178 0.0
H4283 H 0.67402 0.04769 0.01217 0.0
H4284 H 0.65489 0.0495 0.02366 0.0
H4285 H 0.65223 0.03732 1.00035 0.0
H4286 H 0.62286 0.0415 0.98086 0.0
H4287 H 0.59261 0.02746 0.98503 0.0
H4288 H 0.16383 0.47428 0.25285 0.0
H4289 H 0.17778 0.4517 0.26491 0.0
H4290 H 0.22883 0.48754 0.26395 0.0
H4291 H 0.21493 0.5106 0.252 0.0
H4292 H 0.20269 0.43415 0.24786 0.0
H4293 H 0.22821 0.47624 0.31763 0.0
H4294 H 0.21115 0.48144 0.30278 0.0
H4295 H 0.23363 0.48781 0.2985 0.0
C4296 C 0.17804 0.47742 0.25519 0.0
C4297 C 0.18836 0.49422 0.25165 0.0
C4298 C 0.18593 0.46453 0.2621 0.0
C4299 C 0.20419 0.46827 0.26555 0.0
C4300 C 0.21464 0.48478 0.26166 0.0
H4301 H 0.28142 0.4133 0.29058 0.0
H4302 H 0.26295 0.43561 0.29024 0.0
C4303 C 0.20673 0.49779 0.25475 0.0
C4304 C 0.21223 0.45445 0.27272 0.0
H4305 H 0.23723 0.44771 0.30972 0.0
C4306 C 0.21011 0.43693 0.26145 0.0
C4307 C 0.22167 0.45837 0.29048 0.0
C4308 C 0.22373 0.47693 0.30316 0.0
C4309 C 0.218 0.42333 0.26717 0.0
C4310 C 0.22783 0.42736 0.28483 0.0
C4311 C 0.22944 0.4447 0.29633 0.0
C4312 C 0.23876 0.41498 0.29022 0.0
C4313 C 0.21653 0.40522 0.25389 0.0
C4314 C 0.23124 0.39635 0.29153 0.0
C4315 C 0.2418 0.38353 0.29173 0.0
C4316 C 0.2599 0.38936 0.2907 0.0
C4317 C 0.26754 0.40846 0.29148 0.0
C4318 C 0.257 0.42121 0.29123 0.0
H4319 H 0.21104 0.40586 0.23973 0.0
H4320 H 0.22957 0.40184 0.25324 0.0
H4321 H 0.2077 0.39355 0.25871 0.0
H4322 H 0.21715 0.39149 0.29107 0.0
H4323 H 0.23568 0.36887 0.29142 0.0
H4324 H 0.25605 0.43035 0.0465 0.0
H4325 H 0.23092 0.44331 0.03862 0.0
H4326 H 0.21447 0.39981 0.99043 0.0
H4327 H 0.23904 0.38618 0.99894 0.0
H4328 H 0.22348 0.45823 0.0104 0.0
H4329 H 0.16856 0.39628 0.0093 0.0
H4330 H 0.19083 0.39682 0.01794 0.0
H4331 H 0.18399 0.39228 0.9935 0.0
C4332 C 0.24691 0.4234 0.03439 0.0
C4333 C 0.24941 0.40717 0.02346 0.0
C4334 C 0.23256 0.43085 0.02982 0.0
C4335 C 0.22054 0.42244 0.01404 0.0
C4336 C 0.22314 0.40627 0.00298 0.0
H4337 H 0.13144 0.46934 0.9766 0.0
H4338 H 0.15463 0.45172 0.97529 0.0
C4339 C 0.23728 0.39854 0.00781 0.0
C4340 C 0.20581 0.43122 0.00906 0.0
H4341 H 0.16101 0.4235 0.00165 0.0
C4342 C 0.20984 0.45054 0.00843 0.0
C4343 C 0.18794 0.42121 0.00611 0.0
C4344 C 0.18252 0.40055 0.00688 0.0
C4345 C 0.19662 0.46024 0.00583 0.0
C4346 C 0.17884 0.45042 0.00375 0.0
C4347 C 0.1747 0.43096 0.0033 0.0
C4348 C 0.16453 0.46059 0.0042 0.0
C4349 C 0.20171 0.48108 0.00585 0.0
C4350 C 0.16235 0.4712 0.02089 0.0
C4351 C 0.14917 0.48113 0.02171 0.0
C4352 C 0.13784 0.48073 0.00582 0.0
C4353 C 0.14 0.47 0.98906 0.0
C4354 C 0.15317 0.45989 0.98829 0.0
H4355 H 0.21566 0.4858 0.0036 0.0
H4356 H 0.19323 0.48493 0.99502 0.0
H4357 H 0.19984 0.48876 0.01939 0.0
H4358 H 0.17097 0.47187 0.03332 0.0
H4359 H 0.14808 0.48945 0.03476 0.0
H4360 H 0.90465 0.97463 0.23131 0.0
H4361 H 0.88737 0.94389 0.23428 0.0
H4362 H 0.85817 0.9705 0.27267 0.0
H4363 H 0.87518 1.00159 0.26913 0.0
H4364 H 0.88397 0.92409 0.2595 0.0
H4365 H 0.81724 0.93464 0.24389 0.0
H4366 H 0.83654 0.95154 0.24074 0.0
H4367 H 0.82957 0.95115 0.26331 0.0
C4368 C 0.89435 0.97413 0.24021 0.0
C4369 C 0.89137 0.99107 0.24971 0.0
C4370 C 0.88441 0.95625 0.24201 0.0
C4371 C 0.87092 0.95418 0.25351 0.0
C4372 C 0.86791 0.97112 0.26316 0.0
H4373 H 0.79582 0.85607 0.27957 0.0
H4374 H 0.81429 0.88677 0.27816 0.0
C4375 C 0.87779 0.98916 0.26117 0.0
C4376 C 0.86063 0.93442 0.25551 0.0
H4377 H 0.81909 0.90661 0.25446 0.0
C4378 C 0.86975 0.92039 0.25832 0.0
C4379 C 0.84196 0.9289 0.25408 0.0
C4380 C 0.83073 0.94227 0.25016 0.0
C4381 C 0.8611 0.90177 0.2601 0.0
C4382 C 0.84239 0.89622 0.2586 0.0
C4383 C 0.83331 0.91028 0.25575 0.0
C4384 C 0.8319 0.87643 0.26039 0.0
C4385 C 0.87238 0.88851 0.2642 0.0
C4386 C 0.83525 0.85942 0.25125 0.0
C4387 C 0.82476 0.84142 0.25257 0.0
C4388 C 0.81021 0.83966 0.26271 0.0
C4389 C 0.80693 0.85658 0.27177 0.0
C4390 C 0.81754 0.8744 0.2708 0.0
H4391 H 0.88572 0.89625 0.27082 0.0
H4392 H 0.86641 0.87905 0.2734 0.0
H4393 H 0.87393 0.87983 0.25108 0.0
H4394 H 0.84562 0.85994 0.24249 0.0
H4395 H 0.82754 0.82896 0.24485 0.0
H4396 H 0.66021 0.10989 0.72768 0.0
H4397 H 0.68135 0.14029 0.73734 0.0
H4398 H 0.70001 0.12192 0.78625 0.0
H4399 H 0.67917 0.0915 0.77656 0.0
H4400 H 0.69355 0.16929 0.77233 0.0
H4401 H 0.73961 0.12475 0.75049 0.0
H4402 H 0.71612 0.11671 0.74475 0.0
H4403 H 0.72601 0.11776 0.76776 0.0
C4404 C 0.66839 0.11266 0.7408 0.0
C4405 C 0.66855 0.09843 0.7512 0.0
C4406 C 0.68039 0.12993 0.7463 0.0
C4407 C 0.69232 0.13296 0.76226 0.0
C4408 C 0.69096 0.11958 0.77379 0.0
H4409 H 0.77842 0.23116 0.79245 0.0
H4410 H 0.76054 0.2001 0.79379 0.0
C4411 C 0.67917 0.10229 0.7682 0.0
C4412 C 0.70802 0.1483 0.76492 0.0
H4413 H 0.75136 0.15728 0.75866 0.0
C4414 C 0.70626 0.16674 0.76966 0.0
C4415 C 0.72444 0.14465 0.76118 0.0
C4416 C 0.72675 0.12492 0.75564 0.0
C4417 C 0.72062 0.18185 0.77041 0.0
C4418 C 0.73688 0.17817 0.76621 0.0
C4419 C 0.73878 0.15977 0.76194 0.0
C4420 C 0.75147 0.19353 0.76462 0.0
C4421 C 0.71825 0.20167 0.77493 0.0
C4422 C 0.75297 0.19922 0.74752 0.0
C4423 C 0.76311 0.21689 0.74667 0.0
C4424 C 0.77157 0.22889 0.76299 0.0
C4425 C 0.77169 0.2222 0.77975 0.0
C4426 C 0.76162 0.20451 0.78055 0.0
H4427 H 0.7047 0.20204 0.77792 0.0
H4428 H 0.72758 0.20955 0.78712 0.0
H4429 H 0.72121 0.20905 0.76319 0.0
H4430 H 0.74509 0.19073 0.73515 0.0
H4431 H 0.7629 0.22175 0.7336 0.0
loop_
_geom_bond_atom_site_label_1
_geom_bond_atom_site_label_2
_geom_bond_distance
_geom_bond_site_symmetry_2
_ccdc_geom_bond_type
C0 O1 1.306 . S
C0 O3 1.160 . S
O1 C0 1.306 . S
O1 Cd2 2.228 . S
Cd2 O1 2.228 . S
Cd2 O6 2.273 . S
Cd2 O10 2.277 . S
O3 C0 1.160 . S
O3 Cd4 2.203 . S
Cd4 O3 2.203 . S
Cd4 O6 2.411 . S
Cd4 O7 2.333 . S
Cd4 O8 2.352 . S
Cd4 O12 2.277 . S
Cd4 O13 2.356 . S
C5 O10 1.209 . S
C5 O12 1.226 . S
O6 Cd2 2.273 . S
O6 Cd4 2.411 . S
O6 C9 1.320 . S
O7 Cd4 2.333 . S
O7 C9 1.214 . S
O8 Cd4 2.352 . S
O8 C11 1.258 . S
C9 O6 1.320 . S
C9 O7 1.214 . S
O10 Cd2 2.277 . S
O10 C5 1.209 . S
C11 O8 1.258 . S
C11 O13 1.282 . S
O12 Cd4 2.277 . S
O12 C5 1.226 . S
O13 Cd4 2.356 . S
O13 C11 1.282 . S
C14 O15 1.306 . S
C14 O17 1.160 . S
O15 C14 1.306 . S
O15 Cd16 2.228 1_655 S
Cd16 O15 2.228 1_455 S
Cd16 O20 2.273 . S
Cd16 O24 2.277 1_455 S
O17 C14 1.160 . S
O17 Cd18 2.148 1_655 S
Cd18 O17 2.148 1_455 S
Cd18 O20 2.439 . S
Cd18 O21 2.389 . S
Cd18 O22 2.343 . S
Cd18 O26 2.281 1_455 S
Cd18 O27 2.360 . S
C19 O24 1.209 . S
C19 O26 1.226 . S
O20 Cd16 2.273 . S
O20 Cd18 2.439 . S
O20 C23 1.320 . S
O21 Cd18 2.389 . S
O21 C23 1.214 . S
O22 Cd18 2.343 . S
O22 C25 1.258 . S
C23 O20 1.320 . S
C23 O21 1.214 . S
O24 Cd16 2.277 1_655 S
O24 C19 1.209 . S
C25 O22 1.258 . S
C25 O27 1.282 . S
O26 Cd18 2.281 1_655 S
O26 C19 1.226 . S
O27 Cd18 2.360 . S
O27 C25 1.282 . S
C28 O29 1.306 . S
C28 O31 1.160 . S
O29 C28 1.306 . S
O29 Cd30 2.228 . S
Cd30 O29 2.228 . S
Cd30 O34 2.273 . S
Cd30 O38 2.277 . S
O31 C28 1.160 . S
O31 Cd32 2.203 . S
Cd32 O31 2.203 . S
Cd32 O34 2.411 . S
Cd32 O35 2.333 . S
Cd32 O36 2.352 . S
Cd32 O40 2.277 . S
Cd32 O41 2.356 . S
C33 O38 1.209 . S
C33 O40 1.226 . S
O34 Cd30 2.273 . S
O34 Cd32 2.411 . S
O34 C37 1.320 . S
O35 Cd32 2.333 . S
O35 C37 1.214 . S
O36 Cd32 2.352 . S
O36 C39 1.258 . S
C37 O34 1.320 . S
C37 O35 1.214 . S
O38 Cd30 2.277 . S
O38 C33 1.209 . S
C39 O36 1.258 . S
C39 O41 1.282 . S
O40 Cd32 2.277 . S
O40 C33 1.226 . S
O41 Cd32 2.356 . S
O41 C39 1.282 . S
C42 O43 1.306 . S
C42 O45 1.160 . S
O43 C42 1.306 . S
O43 Cd44 2.228 . S
Cd44 O43 2.228 . S
Cd44 O48 2.273 . S
Cd44 O52 2.277 . S
O45 C42 1.160 . S
O45 Cd46 2.203 . S
Cd46 O45 2.203 . S
Cd46 O48 2.411 . S
Cd46 O49 2.333 . S
Cd46 O50 2.352 . S
Cd46 O54 2.277 . S
Cd46 O55 2.356 . S
C47 O52 1.209 . S
C47 O54 1.226 . S
O48 Cd44 2.273 . S
O48 Cd46 2.411 . S
O48 C51 1.320 . S
O49 Cd46 2.333 . S
O49 C51 1.214 . S
O50 Cd46 2.352 . S
O50 C53 1.258 . S
C51 O48 1.320 . S
C51 O49 1.214 . S
O52 Cd44 2.277 . S
O52 C47 1.209 . S
C53 O50 1.258 . S
C53 O55 1.282 . S
O54 Cd46 2.277 . S
O54 C47 1.226 . S
O55 Cd46 2.356 . S
O55 C53 1.282 . S
C56 O57 1.306 . S
C56 O59 1.160 . S
O57 C56 1.306 . S
O57 Cd58 2.228 . S
Cd58 O57 2.228 . S
Cd58 O62 2.273 . S
Cd58 O66 2.277 . S
O59 C56 1.160 . S
O59 Cd60 2.203 . S
Cd60 O59 2.203 . S
Cd60 O62 2.411 . S
Cd60 O63 2.333 . S
Cd60 O64 2.352 . S
Cd60 O68 2.277 . S
Cd60 O69 2.356 . S
C61 O66 1.209 . S
C61 O68 1.226 . S
O62 Cd58 2.273 . S
O62 Cd60 2.411 . S
O62 C65 1.320 . S
O63 Cd60 2.333 . S
O63 C65 1.214 . S
O64 Cd60 2.352 . S
O64 C67 1.258 . S
C65 O62 1.320 . S
C65 O63 1.214 . S
O66 Cd58 2.277 . S
O66 C61 1.209 . S
C67 O64 1.258 . S
C67 O69 1.282 . S
O68 Cd60 2.277 . S
O68 C61 1.226 . S
O69 Cd60 2.356 . S
O69 C67 1.282 . S
C70 O71 1.306 . S
C70 O73 1.160 . S
O71 C70 1.306 . S
O71 Cd72 2.228 . S
Cd72 O71 2.228 . S
Cd72 O76 2.273 . S
Cd72 O80 2.277 . S
O73 C70 1.160 . S
O73 Cd74 2.203 . S
Cd74 O73 2.203 . S
Cd74 O76 2.411 . S
Cd74 O77 2.333 . S
Cd74 O78 2.352 . S
Cd74 O82 2.277 . S
Cd74 O83 2.356 . S
C75 O80 1.209 . S
C75 O82 1.226 . S
O76 Cd72 2.273 . S
O76 Cd74 2.411 . S
O76 C79 1.320 . S
O77 Cd74 2.333 . S
O77 C79 1.214 . S
O78 Cd74 2.352 . S
O78 C81 1.258 . S
C79 O76 1.320 . S
C79 O77 1.214 . S
O80 Cd72 2.277 . S
O80 C75 1.209 . S
C81 O78 1.258 . S
C81 O83 1.282 . S
O82 Cd74 2.277 . S
O82 C75 1.226 . S
O83 Cd74 2.356 . S
O83 C81 1.282 . S
C84 O85 1.306 . S
C84 O87 1.160 . S
O85 C84 1.306 . S
O85 Cd86 2.228 . S
Cd86 O85 2.228 . S
Cd86 O90 2.273 . S
Cd86 O94 2.277 . S
O87 C84 1.160 . S
O87 Cd88 2.203 . S
Cd88 O87 2.203 . S
Cd88 O90 2.411 . S
Cd88 O91 2.333 . S
Cd88 O92 2.352 . S
Cd88 O96 2.277 . S
Cd88 O97 2.356 . S
C89 O94 1.209 . S
C89 O96 1.226 . S
O90 Cd86 2.273 . S
O90 Cd88 2.411 . S
O90 C93 1.320 . S
O91 Cd88 2.333 . S
O91 C93 1.214 . S
O92 Cd88 2.352 . S
O92 C95 1.258 . S
C93 O90 1.320 . S
C93 O91 1.214 . S
O94 Cd86 2.277 . S
O94 C89 1.209 . S
C95 O92 1.258 . S
C95 O97 1.282 . S
O96 Cd88 2.277 . S
O96 C89 1.226 . S
O97 Cd88 2.356 . S
O97 C95 1.282 . S
C98 O99 1.306 . S
C98 O101 1.160 . S
O99 C98 1.306 . S
O99 Cd100 2.228 1_655 S
Cd100 O99 2.228 1_455 S
Cd100 O104 2.273 . S
Cd100 O108 2.277 . S
O101 C98 1.160 . S
O101 Cd102 2.203 1_655 S
Cd102 O101 2.203 1_455 S
Cd102 O104 2.411 . S
Cd102 O105 2.333 . S
Cd102 O106 2.352 . S
Cd102 O110 2.277 . S
Cd102 O111 2.356 . S
C103 O108 1.209 . S
C103 O110 1.226 . S
O104 Cd100 2.273 . S
O104 Cd102 2.411 . S
O104 C107 1.320 . S
O105 Cd102 2.333 . S
O105 C107 1.214 . S
O106 Cd102 2.352 . S
O106 C109 1.258 . S
C107 O104 1.320 . S
C107 O105 1.214 . S
O108 Cd100 2.277 . S
O108 C103 1.209 . S
C109 O106 1.258 . S
C109 O111 1.282 . S
O110 Cd102 2.277 . S
O110 C103 1.226 . S
O111 Cd102 2.356 . S
O111 C109 1.282 . S
C112 O113 1.306 . S
C112 O115 1.160 . S
O113 C112 1.306 . S
O113 Cd114 2.228 1_545 S
Cd114 O113 2.228 1_565 S
Cd114 O118 2.273 1_565 S
Cd114 O122 2.277 . S
O115 C112 1.160 . S
O115 Cd116 2.203 . S
Cd116 O115 2.203 . S
Cd116 O118 2.411 . S
Cd116 O119 2.333 . S
Cd116 O120 2.352 . S
Cd116 O124 2.277 1_545 S
Cd116 O125 2.356 . S
C117 O122 1.209 . S
C117 O124 1.226 . S
O118 Cd114 2.273 1_545 S
O118 Cd116 2.411 . S
O118 C121 1.320 . S
O119 Cd116 2.333 . S
O119 C121 1.214 . S
O120 Cd116 2.352 . S
O120 C123 1.258 . S
C121 O118 1.320 . S
C121 O119 1.214 . S
O122 Cd114 2.277 . S
O122 C117 1.209 . S
C123 O120 1.258 . S
C123 O125 1.282 . S
O124 Cd116 2.277 1_565 S
O124 C117 1.226 . S
O125 Cd116 2.356 . S
O125 C123 1.282 . S
C126 O127 1.306 . S
C126 O129 1.160 . S
O127 C126 1.306 . S
O127 Cd128 2.228 . S
Cd128 O127 2.228 . S
Cd128 O132 2.273 . S
Cd128 O136 2.277 . S
O129 C126 1.160 . S
O129 Cd130 2.203 . S
Cd130 O129 2.203 . S
Cd130 O132 2.411 . S
Cd130 O133 2.333 . S
Cd130 O134 2.352 . S
Cd130 O138 2.277 . S
Cd130 O139 2.356 . S
C131 O136 1.209 . S
C131 O138 1.226 . S
O132 Cd128 2.273 . S
O132 Cd130 2.411 . S
O132 C135 1.320 . S
O133 Cd130 2.333 . S
O133 C135 1.214 . S
O134 Cd130 2.352 . S
O134 C137 1.258 . S
C135 O132 1.320 . S
C135 O133 1.214 . S
O136 Cd128 2.277 . S
O136 C131 1.209 . S
C137 O134 1.258 . S
C137 O139 1.282 . S
O138 Cd130 2.277 . S
O138 C131 1.226 . S
O139 Cd130 2.356 . S
O139 C137 1.282 . S
C140 O141 1.306 . S
C140 O143 1.172 . S
O141 C140 1.306 . S
O141 Cd142 2.228 . S
Cd142 O141 2.228 . S
Cd142 O146 2.273 1_545 S
Cd142 O150 2.277 . S
O143 C140 1.172 . S
O143 Cd144 2.205 1_545 S
Cd144 O143 2.205 1_565 S
Cd144 O146 2.411 . S
Cd144 O147 2.333 . S
Cd144 O148 2.352 . S
Cd144 O152 2.277 1_565 S
Cd144 O153 2.356 . S
C145 O150 1.209 . S
C145 O152 1.226 . S
O146 Cd142 2.273 1_565 S
O146 Cd144 2.411 . S
O146 C149 1.320 . S
O147 Cd144 2.333 . S
O147 C149 1.214 . S
O148 Cd144 2.352 . S
O148 C151 1.258 . S
C149 O146 1.320 . S
C149 O147 1.214 . S
O150 Cd142 2.277 . S
O150 C145 1.209 . S
C151 O148 1.258 . S
C151 O153 1.282 . S
O152 Cd144 2.277 1_545 S
O152 C145 1.226 . S
O153 Cd144 2.356 . S
O153 C151 1.282 . S
C154 O155 1.306 . S
C154 O157 1.160 . S
O155 C154 1.306 . S
O155 Cd156 2.228 1_554 S
Cd156 O155 2.228 1_556 S
Cd156 O160 2.273 1_556 S
Cd156 O164 2.277 . S
O157 C154 1.160 . S
O157 Cd158 2.203 . S
Cd158 O157 2.203 . S
Cd158 O160 2.411 . S
Cd158 O161 2.333 . S
Cd158 O162 2.352 . S
Cd158 O166 2.277 1_554 S
Cd158 O167 2.356 . S
C159 O164 1.209 . S
C159 O166 1.226 . S
O160 Cd156 2.273 1_554 S
O160 Cd158 2.411 . S
O160 C163 1.320 . S
O161 Cd158 2.333 . S
O161 C163 1.214 . S
O162 Cd158 2.352 . S
O162 C165 1.258 . S
C163 O160 1.320 . S
C163 O161 1.214 . S
O164 Cd156 2.277 . S
O164 C159 1.209 . S
C165 O162 1.258 . S
C165 O167 1.282 . S
O166 Cd158 2.277 1_556 S
O166 C159 1.226 . S
O167 Cd158 2.356 . S
O167 C165 1.282 . S
C168 O169 1.306 . S
C168 O171 1.160 . S
O169 C168 1.306 . S
O169 Cd170 2.228 1_554 S
Cd170 O169 2.228 1_556 S
Cd170 O174 2.273 1_556 S
Cd170 O178 2.277 . S
O171 C168 1.160 . S
O171 Cd172 2.203 . S
Cd172 O171 2.203 . S
Cd172 O174 2.411 . S
Cd172 O175 2.333 . S
Cd172 O176 2.352 . S
Cd172 O180 2.277 1_554 S
Cd172 O181 2.356 . S
C173 O178 1.209 . S
C173 O180 1.226 . S
O174 Cd170 2.273 1_554 S
O174 Cd172 2.411 . S
O174 C177 1.320 . S
O175 Cd172 2.333 . S
O175 C177 1.214 . S
O176 Cd172 2.352 . S
O176 C179 1.258 . S
C177 O174 1.320 . S
C177 O175 1.214 . S
O178 Cd170 2.277 . S
O178 C173 1.209 . S
C179 O176 1.258 . S
C179 O181 1.282 . S
O180 Cd172 2.277 1_556 S
O180 C173 1.226 . S
O181 Cd172 2.356 . S
O181 C179 1.282 . S
C182 O183 1.306 . S
C182 O185 1.160 . S
O183 C182 1.306 . S
O183 Cd184 2.228 . S
Cd184 O183 2.228 . S
Cd184 O188 2.273 . S
Cd184 O192 2.277 . S
O185 C182 1.160 . S
O185 Cd186 2.203 . S
Cd186 O185 2.203 . S
Cd186 O188 2.411 . S
Cd186 O189 2.333 . S
Cd186 O190 2.352 1_554 S
Cd186 O194 2.277 . S
Cd186 O195 2.356 1_554 S
C187 O192 1.209 . S
C187 O194 1.226 . S
O188 Cd184 2.273 . S
O188 Cd186 2.411 . S
O188 C191 1.320 . S
O189 Cd186 2.333 . S
O189 C191 1.214 . S
O190 Cd186 2.352 1_556 S
O190 C193 1.258 . S
C191 O188 1.320 . S
C191 O189 1.214 . S
O192 Cd184 2.277 . S
O192 C187 1.209 . S
C193 O190 1.258 . S
C193 O195 1.282 . S
O194 Cd186 2.277 . S
O194 C187 1.226 . S
O195 Cd186 2.356 1_556 S
O195 C193 1.282 . S
C196 O197 1.306 . S
C196 O199 1.160 . S
O197 C196 1.306 . S
O197 Cd198 2.228 . S
Cd198 O197 2.228 . S
Cd198 O202 2.273 . S
Cd198 O206 2.277 . S
O199 C196 1.160 . S
O199 Cd200 2.203 . S
Cd200 O199 2.203 . S
Cd200 O202 2.411 . S
Cd200 O203 2.333 . S
Cd200 O204 2.352 . S
Cd200 O208 2.277 . S
Cd200 O209 2.356 . S
C201 O206 1.209 . S
C201 O208 1.226 . S
O202 Cd198 2.273 . S
O202 Cd200 2.411 . S
O202 C205 1.320 . S
O203 Cd200 2.333 . S
O203 C205 1.214 . S
O204 Cd200 2.352 . S
O204 C207 1.258 . S
C205 O202 1.320 . S
C205 O203 1.214 . S
O206 Cd198 2.277 . S
O206 C201 1.209 . S
C207 O204 1.258 . S
C207 O209 1.282 . S
O208 Cd200 2.277 . S
O208 C201 1.226 . S
O209 Cd200 2.356 . S
O209 C207 1.282 . S
C210 O211 1.306 . S
C210 O213 1.160 . S
O211 C210 1.306 . S
O211 Cd212 2.228 . S
Cd212 O211 2.228 . S
Cd212 O216 2.273 . S
Cd212 O220 2.277 . S
O213 C210 1.160 . S
O213 Cd214 2.203 . S
Cd214 O213 2.203 . S
Cd214 O216 2.411 . S
Cd214 O217 2.333 . S
Cd214 O218 2.352 . S
Cd214 O222 2.277 . S
Cd214 O223 2.356 . S
C215 O220 1.209 . S
C215 O222 1.226 . S
O216 Cd212 2.273 . S
O216 Cd214 2.411 . S
O216 C219 1.320 . S
O217 Cd214 2.333 . S
O217 C219 1.214 . S
O218 Cd214 2.352 . S
O218 C221 1.258 . S
C219 O216 1.320 . S
C219 O217 1.214 . S
O220 Cd212 2.277 . S
O220 C215 1.209 . S
C221 O218 1.258 . S
C221 O223 1.282 . S
O222 Cd214 2.277 . S
O222 C215 1.226 . S
O223 Cd214 2.356 . S
O223 C221 1.282 . S
C224 O225 1.306 . S
C224 O227 1.160 . S
O225 C224 1.306 . S
O225 Cd226 2.228 . S
Cd226 O225 2.228 . S
Cd226 O230 2.273 . S
Cd226 O234 2.277 . S
O227 C224 1.160 . S
O227 Cd228 2.203 . S
Cd228 O227 2.203 . S
Cd228 O230 2.411 . S
Cd228 O231 2.333 . S
Cd228 O232 2.352 . S
Cd228 O236 2.277 . S
Cd228 O237 2.356 . S
C229 O234 1.209 . S
C229 O236 1.226 . S
O230 Cd226 2.273 . S
O230 Cd228 2.411 . S
O230 C233 1.320 . S
O231 Cd228 2.333 . S
O231 C233 1.214 . S
O232 Cd228 2.352 . S
O232 C235 1.258 . S
C233 O230 1.320 . S
C233 O231 1.214 . S
O234 Cd226 2.277 . S
O234 C229 1.209 . S
C235 O232 1.258 . S
C235 O237 1.282 . S
O236 Cd228 2.277 . S
O236 C229 1.226 . S
O237 Cd228 2.356 . S
O237 C235 1.282 . S
C238 O239 1.306 . S
C238 O241 1.160 . S
O239 C238 1.306 . S
O239 Cd240 2.228 . S
Cd240 O239 2.228 . S
Cd240 O244 2.273 . S
Cd240 O248 2.277 . S
O241 C238 1.160 . S
O241 Cd242 2.203 . S
Cd242 O241 2.203 . S
Cd242 O244 2.411 . S
Cd242 O245 2.333 . S
Cd242 O246 2.352 . S
Cd242 O250 2.277 . S
Cd242 O251 2.356 . S
C243 O248 1.209 . S
C243 O250 1.226 . S
O244 Cd240 2.273 . S
O244 Cd242 2.411 . S
O244 C247 1.320 . S
O245 Cd242 2.333 . S
O245 C247 1.214 . S
O246 Cd242 2.352 . S
O246 C249 1.258 . S
C247 O244 1.320 . S
C247 O245 1.214 . S
O248 Cd240 2.277 . S
O248 C243 1.209 . S
C249 O246 1.258 . S
C249 O251 1.282 . S
O250 Cd242 2.277 . S
O250 C243 1.226 . S
O251 Cd242 2.356 . S
O251 C249 1.282 . S
C252 O253 1.306 . S
C252 O255 1.160 . S
O253 C252 1.306 . S
O253 Cd254 2.228 . S
Cd254 O253 2.228 . S
Cd254 O258 2.273 . S
Cd254 O262 2.277 . S
O255 C252 1.160 . S
O255 Cd256 2.203 . S
Cd256 O255 2.203 . S
Cd256 O258 2.411 . S
Cd256 O259 2.333 . S
Cd256 O260 2.352 . S
Cd256 O264 2.277 . S
Cd256 O265 2.356 . S
C257 O262 1.209 . S
C257 O264 1.226 . S
O258 Cd254 2.273 . S
O258 Cd256 2.411 . S
O258 C261 1.320 . S
O259 Cd256 2.333 . S
O259 C261 1.214 . S
O260 Cd256 2.352 . S
O260 C263 1.258 . S
C261 O258 1.320 . S
C261 O259 1.214 . S
O262 Cd254 2.277 . S
O262 C257 1.209 . S
C263 O260 1.258 . S
C263 O265 1.282 . S
O264 Cd256 2.277 . S
O264 C257 1.226 . S
O265 Cd256 2.356 . S
O265 C263 1.282 . S
C266 O267 1.306 . S
C266 O269 1.160 . S
O267 C266 1.306 . S
O267 Cd268 2.228 . S
Cd268 O267 2.228 . S
Cd268 O272 2.273 . S
Cd268 O276 2.277 . S
O269 C266 1.160 . S
O269 Cd270 2.203 . S
Cd270 O269 2.203 . S
Cd270 O272 2.411 . S
Cd270 O273 2.333 . S
Cd270 O274 2.352 . S
Cd270 O278 2.277 . S
Cd270 O279 2.356 . S
C271 O276 1.209 . S
C271 O278 1.226 . S
O272 Cd268 2.273 . S
O272 Cd270 2.411 . S
O272 C275 1.320 . S
O273 Cd270 2.333 . S
O273 C275 1.214 . S
O274 Cd270 2.352 . S
O274 C277 1.258 . S
C275 O272 1.320 . S
C275 O273 1.214 . S
O276 Cd268 2.277 . S
O276 C271 1.209 . S
C277 O274 1.258 . S
C277 O279 1.282 . S
O278 Cd270 2.277 . S
O278 C271 1.226 . S
O279 Cd270 2.356 . S
O279 C277 1.282 . S
C280 O281 1.306 . S
C280 O283 1.160 . S
O281 C280 1.306 . S
O281 Cd282 2.228 . S
Cd282 O281 2.228 . S
Cd282 O286 2.273 1_554 S
Cd282 O290 2.277 . S
O283 C280 1.160 . S
O283 Cd284 2.203 . S
Cd284 O283 2.203 . S
Cd284 O286 2.413 1_554 S
Cd284 O287 2.333 1_554 S
Cd284 O288 2.341 1_554 S
Cd284 O292 2.285 . S
Cd284 O293 2.349 1_554 S
C285 O290 1.209 . S
C285 O292 1.226 . S
O286 Cd282 2.273 1_556 S
O286 Cd284 2.413 1_556 S
O286 C289 1.320 . S
O287 Cd284 2.333 1_556 S
O287 C289 1.214 . S
O288 Cd284 2.341 1_556 S
O288 C291 1.258 . S
C289 O286 1.320 . S
C289 O287 1.214 . S
O290 Cd282 2.277 . S
O290 C285 1.209 . S
C291 O288 1.258 . S
C291 O293 1.282 . S
O292 Cd284 2.285 . S
O292 C285 1.226 . S
O293 Cd284 2.349 1_556 S
O293 C291 1.282 . S
C294 O295 1.306 . S
C294 O297 1.160 . S
O295 C294 1.306 . S
O295 Cd296 2.228 . S
Cd296 O295 2.228 . S
Cd296 O300 2.273 . S
Cd296 O304 2.277 . S
O297 C294 1.160 . S
O297 Cd298 2.203 . S
Cd298 O297 2.203 . S
Cd298 O300 2.411 . S
Cd298 O301 2.333 . S
Cd298 O302 2.352 . S
Cd298 O306 2.277 . S
Cd298 O307 2.356 . S
C299 O304 1.209 . S
C299 O306 1.226 . S
O300 Cd296 2.273 . S
O300 Cd298 2.411 . S
O300 C303 1.320 . S
O301 Cd298 2.333 . S
O301 C303 1.214 . S
O302 Cd298 2.352 . S
O302 C305 1.258 . S
C303 O300 1.320 . S
C303 O301 1.214 . S
O304 Cd296 2.277 . S
O304 C299 1.209 . S
C305 O302 1.258 . S
C305 O307 1.282 . S
O306 Cd298 2.277 . S
O306 C299 1.226 . S
O307 Cd298 2.356 . S
O307 C305 1.282 . S
C308 O309 1.306 . S
C308 O311 1.160 . S
O309 C308 1.306 . S
O309 Cd310 2.228 . S
Cd310 O309 2.228 . S
Cd310 O314 2.273 . S
Cd310 O318 2.277 . S
O311 C308 1.160 . S
O311 Cd312 2.203 . S
Cd312 O311 2.203 . S
Cd312 O314 2.411 . S
Cd312 O315 2.333 . S
Cd312 O316 2.352 . S
Cd312 O320 2.277 . S
Cd312 O321 2.356 . S
C313 O318 1.209 . S
C313 O320 1.226 . S
O314 Cd310 2.273 . S
O314 Cd312 2.411 . S
O314 C317 1.320 . S
O315 Cd312 2.333 . S
O315 C317 1.214 . S
O316 Cd312 2.352 . S
O316 C319 1.258 . S
C317 O314 1.320 . S
C317 O315 1.214 . S
O318 Cd310 2.277 . S
O318 C313 1.209 . S
C319 O316 1.258 . S
C319 O321 1.282 . S
O320 Cd312 2.277 . S
O320 C313 1.226 . S
O321 Cd312 2.356 . S
O321 C319 1.282 . S
C322 O323 1.306 . S
C322 O325 1.160 . S
O323 C322 1.306 . S
O323 Cd324 2.228 . S
Cd324 O323 2.228 . S
Cd324 O328 2.273 . S
Cd324 O332 2.277 . S
O325 C322 1.160 . S
O325 Cd326 2.203 . S
Cd326 O325 2.203 . S
Cd326 O328 2.411 . S
Cd326 O329 2.333 . S
Cd326 O330 2.352 . S
Cd326 O334 2.277 . S
Cd326 O335 2.356 . S
C327 O332 1.209 . S
C327 O334 1.226 . S
O328 Cd324 2.273 . S
O328 Cd326 2.411 . S
O328 C331 1.320 . S
O329 Cd326 2.333 . S
O329 C331 1.214 . S
O330 Cd326 2.352 . S
O330 C333 1.258 . S
C331 O328 1.320 . S
C331 O329 1.214 . S
O332 Cd324 2.277 . S
O332 C327 1.209 . S
C333 O330 1.258 . S
C333 O335 1.282 . S
O334 Cd326 2.277 . S
O334 C327 1.226 . S
O335 Cd326 2.356 . S
O335 C333 1.282 . S
Gd336 C339 2.816 1_454 S
Gd336 O356 2.374 1_554 S
Gd336 O358 2.442 1_454 S
Gd336 O359 2.509 1_455 S
Gd336 O360 2.425 1_554 S
Gd336 O361 2.714 1_554 S
Gd336 O363 2.399 1_545 S
Gd336 O367 2.335 . S
Gd337 C348 2.818 . S
Gd337 O357 2.395 . S
Gd337 O361 2.327 1_554 S
Gd337 O362 2.377 . S
Gd337 O364 2.448 . S
Gd337 O365 2.506 . S
Gd337 O366 2.435 . S
Gd337 O367 2.717 . S
C338 O356 1.240 1_554 S
C338 O357 1.240 . S
C339 Gd336 2.816 1_656 S
C339 C340 1.510 . S
C339 O358 1.249 . S
C339 O359 1.252 1_556 S
C340 C339 1.510 . S
C340 C341 1.404 . S
C340 C342 1.352 1_556 S
C341 C340 1.404 . S
C341 C345 1.389 . S
C341 H368 0.930 . S
C342 C340 1.352 1_554 S
C342 C344 1.366 1_554 S
C342 H369 0.931 . S
C343 C344 1.395 . S
C343 C345 1.364 . S
C344 C342 1.366 1_556 S
C344 C343 1.395 . S
C344 H370 0.904 1_556 S
C345 C341 1.389 . S
C345 C343 1.364 . S
C345 H371 0.931 . S
C346 O360 1.256 . S
C346 O361 1.257 . S
C347 O362 1.240 1_565 S
C347 O363 1.240 . S
C348 Gd337 2.818 . S
C348 C349 1.510 . S
C348 O364 1.249 . S
C348 O365 1.252 . S
C349 C348 1.510 . S
C349 C350 1.404 . S
C349 C351 1.352 . S
C350 C349 1.404 . S
C350 C354 1.389 . S
C350 H372 0.930 . S
C351 C349 1.352 . S
C351 C353 1.374 1_545 S
C351 H373 0.931 1_545 S
C352 C353 1.360 1_545 S
C352 C354 1.392 . S
C353 C351 1.374 1_565 S
C353 C352 1.360 1_565 S
C353 H374 0.931 . S
C354 C350 1.389 . S
C354 C352 1.392 . S
C354 H375 0.931 . S
C355 O366 1.256 . S
C355 O367 1.257 . S
O356 Gd336 2.374 1_556 S
O356 C338 1.240 1_556 S
O357 Gd337 2.395 . S
O357 C338 1.240 . S
O358 Gd336 2.442 1_656 S
O358 C339 1.249 . S
O359 Gd336 2.509 1_655 S
O359 C339 1.252 1_554 S
O360 Gd336 2.425 1_556 S
O360 C346 1.256 . S
O361 Gd336 2.714 1_556 S
O361 Gd337 2.327 1_556 S
O361 C346 1.257 . S
O362 Gd337 2.377 . S
O362 C347 1.240 1_545 S
O363 Gd336 2.399 1_565 S
O363 C347 1.240 . S
O364 Gd337 2.448 . S
O364 C348 1.249 . S
O365 Gd337 2.506 . S
O365 C348 1.252 . S
O366 Gd337 2.435 . S
O366 C355 1.256 . S
O367 Gd336 2.335 . S
O367 Gd337 2.717 . S
O367 C355 1.257 . S
H368 C341 0.930 . S
H369 C342 0.931 . S
H370 C344 0.904 1_554 S
H371 C345 0.931 . S
H372 C350 0.930 . S
H373 C351 0.931 1_565 S
H374 C353 0.931 . S
H375 C354 0.931 . S
Gd376 C379 2.818 . S
Gd376 O396 2.377 . S
Gd376 O398 2.448 . S
Gd376 O399 2.506 . S
Gd376 O400 2.435 . S
Gd376 O401 2.717 . S
Gd376 O403 2.395 . S
Gd376 O407 2.327 . S
Gd377 C388 2.818 . S
Gd377 O397 2.395 . S
Gd377 O401 2.327 . S
Gd377 O402 2.377 . S
Gd377 O404 2.448 . S
Gd377 O405 2.506 . S
Gd377 O406 2.435 . S
Gd377 O407 2.717 . S
C378 O396 1.240 . S
C378 O397 1.240 . S
C379 Gd376 2.818 . S
C379 C380 1.510 . S
C379 O398 1.249 . S
C379 O399 1.252 . S
C380 C379 1.510 . S
C380 C381 1.404 . S
C380 C382 1.352 . S
C381 C380 1.404 . S
C381 C385 1.389 . S
C381 H408 0.930 . S
C382 C380 1.352 . S
C382 C384 1.374 . S
C382 H409 0.931 . S
C383 C384 1.359 . S
C383 C385 1.364 . S
C384 C382 1.374 . S
C384 C383 1.359 . S
C384 H410 0.931 . S
C385 C381 1.389 . S
C385 C383 1.364 . S
C385 H411 0.931 . S
C386 O400 1.256 . S
C386 O401 1.257 . S
C387 O402 1.240 . S
C387 O403 1.240 . S
C388 Gd377 2.818 . S
C388 C389 1.510 . S
C388 O404 1.249 . S
C388 O405 1.252 . S
C389 C388 1.510 . S
C389 C390 1.404 . S
C389 C391 1.352 . S
C390 C389 1.404 . S
C390 C394 1.389 . S
C390 H412 0.930 . S
C391 C389 1.352 . S
C391 C393 1.374 . S
C391 H413 0.931 . S
C392 C393 1.359 . S
C392 C394 1.364 . S
C393 C391 1.374 . S
C393 C392 1.359 . S
C393 H414 0.931 . S
C394 C390 1.389 . S
C394 C392 1.364 . S
C394 H415 0.931 . S
C395 O406 1.256 . S
C395 O407 1.257 . S
O396 Gd376 2.377 . S
O396 C378 1.240 . S
O397 Gd377 2.395 . S
O397 C378 1.240 . S
O398 Gd376 2.448 . S
O398 C379 1.249 . S
O399 Gd376 2.506 . S
O399 C379 1.252 . S
O400 Gd376 2.435 . S
O400 C386 1.256 . S
O401 Gd376 2.717 . S
O401 Gd377 2.327 . S
O401 C386 1.257 . S
O402 Gd377 2.377 . S
O402 C387 1.240 . S
O403 Gd376 2.395 . S
O403 C387 1.240 . S
O404 Gd377 2.448 . S
O404 C388 1.249 . S
O405 Gd377 2.506 . S
O405 C388 1.252 . S
O406 Gd377 2.435 . S
O406 C395 1.256 . S
O407 Gd376 2.327 . S
O407 Gd377 2.717 . S
O407 C395 1.257 . S
H408 C381 0.930 . S
H409 C382 0.931 . S
H410 C384 0.931 . S
H411 C385 0.931 . S
H412 C390 0.930 . S
H413 C391 0.931 . S
H414 C393 0.931 . S
H415 C394 0.931 . S
Gd416 C419 2.818 . S
Gd416 O436 2.356 1_545 S
Gd416 O438 2.448 . S
Gd416 O439 2.506 . S
Gd416 O440 2.435 . S
Gd416 O441 2.717 . S
Gd416 O443 2.395 . S
Gd416 O447 2.327 . S
Gd417 C428 2.818 . S
Gd417 O437 2.395 1_545 S
Gd417 O441 2.327 . S
Gd417 O442 2.377 . S
Gd417 O444 2.448 . S
Gd417 O445 2.506 . S
Gd417 O446 2.435 . S
Gd417 O447 2.717 . S
C418 O436 1.254 . S
C418 O437 1.240 . S
C419 Gd416 2.818 . S
C419 C420 1.510 1_545 S
C419 O438 1.249 . S
C419 O439 1.252 . S
C420 C419 1.510 1_565 S
C420 C421 1.404 . S
C420 C422 1.352 . S
C421 C420 1.404 . S
C421 C425 1.389 . S
C421 H448 0.930 1_565 S
C422 C420 1.352 . S
C422 C424 1.374 . S
C422 H449 0.931 . S
C423 C424 1.359 . S
C423 C425 1.364 . S
C424 C422 1.374 . S
C424 C423 1.359 . S
C424 H450 0.931 . S
C425 C421 1.389 . S
C425 C423 1.364 . S
C425 H451 0.931 . S
C426 O440 1.256 . S
C426 O441 1.257 . S
C427 O442 1.240 . S
C427 O443 1.240 . S
C428 Gd417 2.818 . S
C428 C429 1.510 . S
C428 O444 1.249 . S
C428 O445 1.252 . S
C429 C428 1.510 . S
C429 C430 1.404 . S
C429 C431 1.352 . S
C430 C429 1.404 . S
C430 C434 1.389 . S
C430 H452 0.930 . S
C431 C429 1.352 . S
C431 C433 1.374 . S
C431 H453 0.931 . S
C432 C433 1.359 . S
C432 C434 1.364 . S
C433 C431 1.374 . S
C433 C432 1.359 . S
C433 H454 0.931 . S
C434 C430 1.389 . S
C434 C432 1.364 . S
C434 H455 0.931 . S
C435 O446 1.256 . S
C435 O447 1.257 . S
O436 Gd416 2.356 1_565 S
O436 C418 1.254 . S
O437 Gd417 2.395 1_565 S
O437 C418 1.240 . S
O438 Gd416 2.448 . S
O438 C419 1.249 . S
O439 Gd416 2.506 . S
O439 C419 1.252 . S
O440 Gd416 2.435 . S
O440 C426 1.256 . S
O441 Gd416 2.717 . S
O441 Gd417 2.327 . S
O441 C426 1.257 . S
O442 Gd417 2.377 . S
O442 C427 1.240 . S
O443 Gd416 2.395 . S
O443 C427 1.240 . S
O444 Gd417 2.448 . S
O444 C428 1.249 . S
O445 Gd417 2.506 . S
O445 C428 1.252 . S
O446 Gd417 2.435 . S
O446 C435 1.256 . S
O447 Gd416 2.327 . S
O447 Gd417 2.717 . S
O447 C435 1.257 . S
H448 C421 0.930 1_545 S
H449 C422 0.931 . S
H450 C424 0.931 . S
H451 C425 0.931 . S
H452 C430 0.930 . S
H453 C431 0.931 . S
H454 C433 0.931 . S
H455 C434 0.931 . S
Gd456 C459 2.818 . S
Gd456 O476 2.377 . S
Gd456 O478 2.448 . S
Gd456 O479 2.506 . S
Gd456 O480 2.435 . S
Gd456 O481 2.717 . S
Gd456 O483 2.395 . S
Gd456 O487 2.327 . S
Gd457 C468 2.818 . S
Gd457 O477 2.395 . S
Gd457 O481 2.327 . S
Gd457 O482 2.377 . S
Gd457 O484 2.448 . S
Gd457 O485 2.506 . S
Gd457 O486 2.435 . S
Gd457 O487 2.717 . S
C458 O476 1.240 . S
C458 O477 1.240 . S
C459 Gd456 2.818 . S
C459 C460 1.510 . S
C459 O478 1.249 . S
C459 O479 1.252 . S
C460 C459 1.510 . S
C460 C461 1.404 . S
C460 C462 1.352 . S
C461 C460 1.404 . S
C461 C465 1.389 . S
C461 H488 0.930 . S
C462 C460 1.352 . S
C462 C464 1.374 . S
C462 H489 0.931 . S
C463 C464 1.359 . S
C463 C465 1.364 . S
C464 C462 1.374 . S
C464 C463 1.359 . S
C464 H490 0.931 . S
C465 C461 1.389 . S
C465 C463 1.364 . S
C465 H491 0.931 . S
C466 O480 1.256 . S
C466 O481 1.257 . S
C467 O482 1.240 . S
C467 O483 1.240 . S
C468 Gd457 2.818 . S
C468 C469 1.510 . S
C468 O484 1.249 . S
C468 O485 1.252 . S
C469 C468 1.510 . S
C469 C470 1.404 . S
C469 C471 1.352 . S
C470 C469 1.404 . S
C470 C474 1.389 . S
C470 H492 0.930 . S
C471 C469 1.352 . S
C471 C473 1.374 . S
C471 H493 0.931 . S
C472 C473 1.359 . S
C472 C474 1.364 . S
C473 C471 1.374 . S
C473 C472 1.359 . S
C473 H494 0.931 . S
C474 C470 1.389 . S
C474 C472 1.364 . S
C474 H495 0.931 . S
C475 O486 1.256 . S
C475 O487 1.257 . S
O476 Gd456 2.377 . S
O476 C458 1.240 . S
O477 Gd457 2.395 . S
O477 C458 1.240 . S
O478 Gd456 2.448 . S
O478 C459 1.249 . S
O479 Gd456 2.506 . S
O479 C459 1.252 . S
O480 Gd456 2.435 . S
O480 C466 1.256 . S
O481 Gd456 2.717 . S
O481 Gd457 2.327 . S
O481 C466 1.257 . S
O482 Gd457 2.377 . S
O482 C467 1.240 . S
O483 Gd456 2.395 . S
O483 C467 1.240 . S
O484 Gd457 2.448 . S
O484 C468 1.249 . S
O485 Gd457 2.506 . S
O485 C468 1.252 . S
O486 Gd457 2.435 . S
O486 C475 1.256 . S
O487 Gd456 2.327 . S
O487 Gd457 2.717 . S
O487 C475 1.257 . S
H488 C461 0.930 . S
H489 C462 0.931 . S
H490 C464 0.931 . S
H491 C465 0.931 . S
H492 C470 0.930 . S
H493 C471 0.931 . S
H494 C473 0.931 . S
H495 C474 0.931 . S
Gd496 C499 2.818 . S
Gd496 O516 2.377 . S
Gd496 O518 2.448 . S
Gd496 O519 2.506 . S
Gd496 O520 2.435 . S
Gd496 O521 2.717 . S
Gd496 O523 2.395 . S
Gd496 O527 2.327 . S
Gd497 C508 2.818 1_545 S
Gd497 O517 2.395 . S
Gd497 O521 2.327 . S
Gd497 O522 2.377 . S
Gd497 O524 2.448 1_545 S
Gd497 O525 2.506 1_545 S
Gd497 O526 2.435 . S
Gd497 O527 2.717 . S
C498 O516 1.240 . S
C498 O517 1.240 . S
C499 Gd496 2.818 . S
C499 C500 1.510 . S
C499 O518 1.249 . S
C499 O519 1.252 . S
C500 C499 1.510 . S
C500 C501 1.404 . S
C500 C502 1.352 . S
C501 C500 1.404 . S
C501 C505 1.389 . S
C501 H528 0.930 . S
C502 C500 1.352 . S
C502 C504 1.374 . S
C502 H529 0.931 . S
C503 C504 1.359 . S
C503 C505 1.364 . S
C504 C502 1.374 . S
C504 C503 1.359 . S
C504 H530 0.931 . S
C505 C501 1.389 . S
C505 C503 1.364 . S
C505 H531 0.931 . S
C506 O520 1.256 . S
C506 O521 1.257 . S
C507 O522 1.240 . S
C507 O523 1.240 . S
C508 Gd497 2.818 1_565 S
C508 C509 1.510 . S
C508 O524 1.249 . S
C508 O525 1.252 . S
C509 C508 1.510 . S
C509 C510 1.404 . S
C509 C511 1.352 . S
C510 C509 1.404 . S
C510 C514 1.389 . S
C510 H532 0.930 . S
C511 C509 1.352 . S
C511 C513 1.374 . S
C511 H533 0.931 . S
C512 C513 1.359 . S
C512 C514 1.364 . S
C513 C511 1.374 . S
C513 C512 1.359 . S
C513 H534 0.931 . S
C514 C510 1.389 . S
C514 C512 1.364 . S
C514 H535 0.931 . S
C515 O526 1.256 . S
C515 O527 1.257 . S
O516 Gd496 2.377 . S
O516 C498 1.240 . S
O517 Gd497 2.395 . S
O517 C498 1.240 . S
O518 Gd496 2.448 . S
O518 C499 1.249 . S
O519 Gd496 2.506 . S
O519 C499 1.252 . S
O520 Gd496 2.435 . S
O520 C506 1.256 . S
O521 Gd496 2.717 . S
O521 Gd497 2.327 . S
O521 C506 1.257 . S
O522 Gd497 2.377 . S
O522 C507 1.240 . S
O523 Gd496 2.395 . S
O523 C507 1.240 . S
O524 Gd497 2.448 1_565 S
O524 C508 1.249 . S
O525 Gd497 2.506 1_565 S
O525 C508 1.252 . S
O526 Gd497 2.435 . S
O526 C515 1.256 . S
O527 Gd496 2.327 . S
O527 Gd497 2.717 . S
O527 C515 1.257 . S
H528 C501 0.930 . S
H529 C502 0.931 . S
H530 C504 0.931 . S
H531 C505 0.931 . S
H532 C510 0.930 . S
H533 C511 0.931 . S
H534 C513 0.931 . S
H535 C514 0.931 . S
Gd536 C539 2.818 . S
Gd536 O556 2.377 . S
Gd536 O558 2.448 . S
Gd536 O559 2.506 . S
Gd536 O560 2.435 . S
Gd536 O561 2.717 . S
Gd536 O563 2.395 . S
Gd536 O567 2.327 . S
Gd537 C548 2.818 . S
Gd537 O557 2.395 . S
Gd537 O561 2.327 . S
Gd537 O562 2.377 . S
Gd537 O564 2.448 . S
Gd537 O565 2.506 . S
Gd537 O566 2.435 . S
Gd537 O567 2.717 . S
C538 O556 1.240 . S
C538 O557 1.240 . S
C539 Gd536 2.818 . S
C539 C540 1.510 . S
C539 O558 1.249 . S
C539 O559 1.252 . S
C540 C539 1.510 . S
C540 C541 1.404 . S
C540 C542 1.352 . S
C541 C540 1.404 . S
C541 C545 1.389 . S
C541 H568 0.930 . S
C542 C540 1.352 . S
C542 C544 1.374 . S
C542 H569 0.931 . S
C543 C544 1.359 . S
C543 C545 1.364 . S
C544 C542 1.374 . S
C544 C543 1.359 . S
C544 H570 0.931 . S
C545 C541 1.389 . S
C545 C543 1.364 . S
C545 H571 0.931 . S
C546 O560 1.256 . S
C546 O561 1.257 . S
C547 O562 1.240 . S
C547 O563 1.240 . S
C548 Gd537 2.818 . S
C548 C549 1.510 . S
C548 O564 1.249 . S
C548 O565 1.252 . S
C549 C548 1.510 . S
C549 C550 1.404 . S
C549 C551 1.352 . S
C550 C549 1.404 . S
C550 C554 1.389 . S
C550 H572 0.930 . S
C551 C549 1.352 . S
C551 C553 1.374 . S
C551 H573 0.931 . S
C552 C553 1.359 . S
C552 C554 1.364 . S
C553 C551 1.374 . S
C553 C552 1.359 . S
C553 H574 0.931 . S
C554 C550 1.389 . S
C554 C552 1.364 . S
C554 H575 0.931 . S
C555 O566 1.256 . S
C555 O567 1.257 . S
O556 Gd536 2.377 . S
O556 C538 1.240 . S
O557 Gd537 2.395 . S
O557 C538 1.240 . S
O558 Gd536 2.448 . S
O558 C539 1.249 . S
O559 Gd536 2.506 . S
O559 C539 1.252 . S
O560 Gd536 2.435 . S
O560 C546 1.256 . S
O561 Gd536 2.717 . S
O561 Gd537 2.327 . S
O561 C546 1.257 . S
O562 Gd537 2.377 . S
O562 C547 1.240 . S
O563 Gd536 2.395 . S
O563 C547 1.240 . S
O564 Gd537 2.448 . S
O564 C548 1.249 . S
O565 Gd537 2.506 . S
O565 C548 1.252 . S
O566 Gd537 2.435 . S
O566 C555 1.256 . S
O567 Gd536 2.327 . S
O567 Gd537 2.717 . S
O567 C555 1.257 . S
H568 C541 0.930 . S
H569 C542 0.931 . S
H570 C544 0.931 . S
H571 C545 0.931 . S
H572 C550 0.930 . S
H573 C551 0.931 . S
H574 C553 0.931 . S
H575 C554 0.931 . S
Gd576 C579 2.818 . S
Gd576 O596 2.377 . S
Gd576 O598 2.448 . S
Gd576 O599 2.506 . S
Gd576 O600 2.435 1_545 S
Gd576 O601 2.717 1_554 S
Gd576 O603 2.395 . S
Gd576 O607 2.327 . S
Gd577 C588 2.818 . S
Gd577 O597 2.395 . S
Gd577 O601 2.327 . S
Gd577 O602 2.377 . S
Gd577 O604 2.448 . S
Gd577 O605 2.506 . S
Gd577 O606 2.435 1_556 S
Gd577 O607 2.717 1_556 S
C578 O596 1.240 . S
C578 O597 1.240 1_554 S
C579 Gd576 2.818 . S
C579 C580 1.510 . S
C579 O598 1.249 . S
C579 O599 1.252 . S
C580 C579 1.510 . S
C580 C581 1.404 1_545 S
C580 C582 1.352 . S
C581 C580 1.404 1_565 S
C581 C585 1.389 . S
C581 H608 0.930 . S
C582 C580 1.352 . S
C582 C584 1.374 . S
C582 H609 0.931 . S
C583 C584 1.359 1_565 S
C583 C585 1.364 . S
C584 C582 1.374 . S
C584 C583 1.359 1_545 S
C584 H610 0.931 . S
C585 C581 1.389 . S
C585 C583 1.364 . S
C585 H611 0.931 . S
C586 O600 1.246 1_556 S
C586 O601 1.261 1_565 S
C587 O602 1.240 1_554 S
C587 O603 1.240 . S
C588 Gd577 2.818 . S
C588 C589 1.510 . S
C588 O604 1.249 . S
C588 O605 1.252 . S
C589 C588 1.510 . S
C589 C590 1.404 . S
C589 C591 1.352 . S
C590 C589 1.404 . S
C590 C594 1.389 . S
C590 H612 0.930 . S
C591 C589 1.352 . S
C591 C593 1.374 . S
C591 H613 0.931 . S
C592 C593 1.359 . S
C592 C594 1.364 . S
C593 C591 1.374 . S
C593 C592 1.359 . S
C593 H614 0.931 . S
C594 C590 1.389 . S
C594 C592 1.364 . S
C594 H615 0.931 . S
C595 O606 1.256 . S
C595 O607 1.257 . S
O596 Gd576 2.377 . S
O596 C578 1.240 . S
O597 Gd577 2.395 . S
O597 C578 1.240 1_556 S
O598 Gd576 2.448 . S
O598 C579 1.249 . S
O599 Gd576 2.506 . S
O599 C579 1.252 . S
O600 Gd576 2.435 1_565 S
O600 C586 1.246 1_554 S
O601 Gd576 2.717 1_556 S
O601 Gd577 2.327 . S
O601 C586 1.261 1_545 S
O602 Gd577 2.377 . S
O602 C587 1.240 1_556 S
O603 Gd576 2.395 . S
O603 C587 1.240 . S
O604 Gd577 2.448 . S
O604 C588 1.249 . S
O605 Gd577 2.506 . S
O605 C588 1.252 . S
O606 Gd577 2.435 1_554 S
O606 C595 1.256 . S
O607 Gd576 2.327 . S
O607 Gd577 2.717 1_554 S
O607 C595 1.257 . S
H608 C581 0.930 . S
H609 C582 0.931 . S
H610 C584 0.931 . S
H611 C585 0.931 . S
H612 C590 0.930 . S
H613 C591 0.931 . S
H614 C593 0.931 . S
H615 C594 0.931 . S
Gd616 C619 2.818 . S
Gd616 O636 2.377 . S
Gd616 O638 2.448 . S
Gd616 O639 2.506 . S
Gd616 O640 2.435 . S
Gd616 O641 2.717 . S
Gd616 O643 2.395 . S
Gd616 O647 2.327 . S
Gd617 C628 2.818 . S
Gd617 O637 2.395 . S
Gd617 O641 2.327 . S
Gd617 O642 2.377 . S
Gd617 O644 2.448 . S
Gd617 O645 2.506 . S
Gd617 O646 2.435 . S
Gd617 O647 2.717 . S
C618 O636 1.240 . S
C618 O637 1.240 . S
C619 Gd616 2.818 . S
C619 C620 1.510 . S
C619 O638 1.249 . S
C619 O639 1.252 . S
C620 C619 1.510 . S
C620 C621 1.404 . S
C620 C622 1.352 . S
C621 C620 1.404 . S
C621 C625 1.389 . S
C621 H648 0.930 . S
C622 C620 1.352 . S
C622 C624 1.374 . S
C622 H649 0.931 . S
C623 C624 1.359 . S
C623 C625 1.364 . S
C624 C622 1.374 . S
C624 C623 1.359 . S
C624 H650 0.931 . S
C625 C621 1.389 . S
C625 C623 1.364 . S
C625 H651 0.931 . S
C626 O640 1.256 . S
C626 O641 1.257 . S
C627 O642 1.240 . S
C627 O643 1.240 . S
C628 Gd617 2.818 . S
C628 C629 1.510 . S
C628 O644 1.249 . S
C628 O645 1.252 . S
C629 C628 1.510 . S
C629 C630 1.404 . S
C629 C631 1.352 . S
C630 C629 1.404 . S
C630 C634 1.389 . S
C630 H652 0.930 . S
C631 C629 1.352 . S
C631 C633 1.374 . S
C631 H653 0.931 . S
C632 C633 1.359 . S
C632 C634 1.364 . S
C633 C631 1.374 . S
C633 C632 1.359 . S
C633 H654 0.931 . S
C634 C630 1.389 . S
C634 C632 1.364 . S
C634 H655 0.931 . S
C635 O646 1.256 . S
C635 O647 1.257 . S
O636 Gd616 2.377 . S
O636 C618 1.240 . S
O637 Gd617 2.395 . S
O637 C618 1.240 . S
O638 Gd616 2.448 . S
O638 C619 1.249 . S
O639 Gd616 2.506 . S
O639 C619 1.252 . S
O640 Gd616 2.435 . S
O640 C626 1.256 . S
O641 Gd616 2.717 . S
O641 Gd617 2.327 . S
O641 C626 1.257 . S
O642 Gd617 2.377 . S
O642 C627 1.240 . S
O643 Gd616 2.395 . S
O643 C627 1.240 . S
O644 Gd617 2.448 . S
O644 C628 1.249 . S
O645 Gd617 2.506 . S
O645 C628 1.252 . S
O646 Gd617 2.435 . S
O646 C635 1.256 . S
O647 Gd616 2.327 . S
O647 Gd617 2.717 . S
O647 C635 1.257 . S
H648 C621 0.930 . S
H649 C622 0.931 . S
H650 C624 0.931 . S
H651 C625 0.931 . S
H652 C630 0.930 . S
H653 C631 0.931 . S
H654 C633 0.931 . S
H655 C634 0.931 . S
Gd656 C659 2.816 . S
Gd656 O676 2.377 1_554 S
Gd656 O678 2.448 . S
Gd656 O679 2.486 1_554 S
Gd656 O680 2.435 . S
Gd656 O681 2.717 . S
Gd656 O683 2.395 . S
Gd656 O687 2.327 . S
Gd657 C668 2.823 . S
Gd657 O677 2.389 1_554 S
Gd657 O681 2.330 . S
Gd657 O682 2.384 . S
Gd657 O684 2.451 . S
Gd657 O685 2.511 . S
Gd657 O686 2.438 . S
Gd657 O687 2.717 . S
C658 O676 1.240 . S
C658 O677 1.240 . S
C659 Gd656 2.816 . S
C659 C660 1.512 1_554 S
C659 O678 1.247 . S
C659 O679 1.250 1_554 S
C660 C659 1.512 1_556 S
C660 C661 1.404 . S
C660 C662 1.352 . S
C661 C660 1.404 . S
C661 C665 1.389 . S
C661 H688 0.910 1_556 S
C662 C660 1.352 . S
C662 C664 1.374 . S
C662 H689 0.931 . S
C663 C664 1.359 . S
C663 C665 1.364 . S
C664 C662 1.374 . S
C664 C663 1.359 . S
C664 H690 0.931 . S
C665 C661 1.389 . S
C665 C663 1.364 . S
C665 H691 0.931 . S
C666 O680 1.256 . S
C666 O681 1.257 . S
C667 O682 1.240 . S
C667 O683 1.240 . S
C668 Gd657 2.823 . S
C668 C669 1.510 . S
C668 O684 1.249 . S
C668 O685 1.252 . S
C669 C668 1.510 . S
C669 C670 1.404 . S
C669 C671 1.352 . S
C670 C669 1.404 . S
C670 C674 1.389 . S
C670 H692 0.930 . S
C671 C669 1.352 . S
C671 C673 1.374 . S
C671 H693 0.931 . S
C672 C673 1.359 . S
C672 C674 1.364 . S
C673 C671 1.374 . S
C673 C672 1.359 . S
C673 H694 0.931 . S
C674 C670 1.389 . S
C674 C672 1.364 . S
C674 H695 0.931 . S
C675 O686 1.256 . S
C675 O687 1.257 . S
O676 Gd656 2.377 1_556 S
O676 C658 1.240 . S
O677 Gd657 2.389 1_556 S
O677 C658 1.240 . S
O678 Gd656 2.448 . S
O678 C659 1.247 . S
O679 Gd656 2.486 1_556 S
O679 C659 1.250 1_556 S
O680 Gd656 2.435 . S
O680 C666 1.256 . S
O681 Gd656 2.717 . S
O681 Gd657 2.330 . S
O681 C666 1.257 . S
O682 Gd657 2.384 . S
O682 C667 1.240 . S
O683 Gd656 2.395 . S
O683 C667 1.240 . S
O684 Gd657 2.451 . S
O684 C668 1.249 . S
O685 Gd657 2.511 . S
O685 C668 1.252 . S
O686 Gd657 2.438 . S
O686 C675 1.256 . S
O687 Gd656 2.327 . S
O687 Gd657 2.717 . S
O687 C675 1.257 . S
H688 C661 0.910 1_554 S
H689 C662 0.931 . S
H690 C664 0.931 . S
H691 C665 0.931 . S
H692 C670 0.930 . S
H693 C671 0.931 . S
H694 C673 0.931 . S
H695 C674 0.931 . S
Gd696 C699 2.818 . S
Gd696 O716 2.377 . S
Gd696 O718 2.448 . S
Gd696 O719 2.506 . S
Gd696 O720 2.435 . S
Gd696 O721 2.717 . S
Gd696 O723 2.395 . S
Gd696 O727 2.327 . S
Gd697 C708 2.818 . S
Gd697 O717 2.395 . S
Gd697 O721 2.327 . S
Gd697 O722 2.377 . S
Gd697 O724 2.448 . S
Gd697 O725 2.506 . S
Gd697 O726 2.435 . S
Gd697 O727 2.717 . S
C698 O716 1.240 . S
C698 O717 1.240 . S
C699 Gd696 2.818 . S
C699 C700 1.510 . S
C699 O718 1.249 . S
C699 O719 1.252 . S
C700 C699 1.510 . S
C700 C701 1.404 . S
C700 C702 1.352 . S
C701 C700 1.404 . S
C701 C705 1.389 . S
C701 H728 0.930 . S
C702 C700 1.352 . S
C702 C704 1.374 . S
C702 H729 0.931 . S
C703 C704 1.359 . S
C703 C705 1.364 . S
C704 C702 1.374 . S
C704 C703 1.359 . S
C704 H730 0.931 . S
C705 C701 1.389 . S
C705 C703 1.364 . S
C705 H731 0.931 . S
C706 O720 1.256 . S
C706 O721 1.257 . S
C707 O722 1.240 . S
C707 O723 1.240 . S
C708 Gd697 2.818 . S
C708 C709 1.510 . S
C708 O724 1.249 . S
C708 O725 1.252 . S
C709 C708 1.510 . S
C709 C710 1.404 . S
C709 C711 1.352 . S
C710 C709 1.404 . S
C710 C714 1.389 . S
C710 H732 0.930 . S
C711 C709 1.352 . S
C711 C713 1.374 . S
C711 H733 0.931 . S
C712 C713 1.359 . S
C712 C714 1.364 . S
C713 C711 1.374 . S
C713 C712 1.359 . S
C713 H734 0.931 . S
C714 C710 1.389 . S
C714 C712 1.364 . S
C714 H735 0.931 . S
C715 O726 1.256 . S
C715 O727 1.257 . S
O716 Gd696 2.377 . S
O716 C698 1.240 . S
O717 Gd697 2.395 . S
O717 C698 1.240 . S
O718 Gd696 2.448 . S
O718 C699 1.249 . S
O719 Gd696 2.506 . S
O719 C699 1.252 . S
O720 Gd696 2.435 . S
O720 C706 1.256 . S
O721 Gd696 2.717 . S
O721 Gd697 2.327 . S
O721 C706 1.257 . S
O722 Gd697 2.377 . S
O722 C707 1.240 . S
O723 Gd696 2.395 . S
O723 C707 1.240 . S
O724 Gd697 2.448 . S
O724 C708 1.249 . S
O725 Gd697 2.506 . S
O725 C708 1.252 . S
O726 Gd697 2.435 . S
O726 C715 1.256 . S
O727 Gd696 2.327 . S
O727 Gd697 2.717 . S
O727 C715 1.257 . S
H728 C701 0.930 . S
H729 C702 0.931 . S
H730 C704 0.931 . S
H731 C705 0.931 . S
H732 C710 0.930 . S
H733 C711 0.931 . S
H734 C713 0.931 . S
H735 C714 0.931 . S
Gd736 C739 2.818 . S
Gd736 O756 2.377 . S
Gd736 O758 2.448 . S
Gd736 O759 2.506 . S
Gd736 O760 2.435 . S
Gd736 O761 2.717 . S
Gd736 O763 2.395 . S
Gd736 O767 2.327 . S
Gd737 C748 2.818 . S
Gd737 O757 2.395 . S
Gd737 O761 2.327 . S
Gd737 O762 2.377 . S
Gd737 O764 2.448 . S
Gd737 O765 2.506 . S
Gd737 O766 2.435 . S
Gd737 O767 2.717 . S
C738 O756 1.240 . S
C738 O757 1.240 . S
C739 Gd736 2.818 . S
C739 C740 1.510 . S
C739 O758 1.249 . S
C739 O759 1.252 . S
C740 C739 1.510 . S
C740 C741 1.404 . S
C740 C742 1.349 . S
C741 C740 1.404 . S
C741 C745 1.389 . S
C741 H768 0.930 . S
C742 C740 1.349 . S
C742 C744 1.376 1_455 S
C742 H769 0.917 1_455 S
C743 C744 1.359 . S
C743 C745 1.364 1_655 S
C744 C742 1.376 1_655 S
C744 C743 1.359 . S
C744 H770 0.931 . S
C745 C741 1.389 . S
C745 C743 1.364 1_455 S
C745 H771 0.931 . S
C746 O760 1.256 . S
C746 O761 1.257 . S
C747 O762 1.240 . S
C747 O763 1.240 . S
C748 Gd737 2.818 . S
C748 C749 1.510 . S
C748 O764 1.249 . S
C748 O765 1.252 . S
C749 C748 1.510 . S
C749 C750 1.404 . S
C749 C751 1.352 . S
C750 C749 1.404 . S
C750 C754 1.389 . S
C750 H772 0.930 . S
C751 C749 1.352 . S
C751 C753 1.374 . S
C751 H773 0.931 . S
C752 C753 1.359 . S
C752 C754 1.364 . S
C753 C751 1.374 . S
C753 C752 1.359 . S
C753 H774 0.931 . S
C754 C750 1.389 . S
C754 C752 1.364 . S
C754 H775 0.931 . S
C755 O766 1.256 . S
C755 O767 1.257 . S
O756 Gd736 2.377 . S
O756 C738 1.240 . S
O757 Gd737 2.395 . S
O757 C738 1.240 . S
O758 Gd736 2.448 . S
O758 C739 1.249 . S
O759 Gd736 2.506 . S
O759 C739 1.252 . S
O760 Gd736 2.435 . S
O760 C746 1.256 . S
O761 Gd736 2.717 . S
O761 Gd737 2.327 . S
O761 C746 1.257 . S
O762 Gd737 2.377 . S
O762 C747 1.240 . S
O763 Gd736 2.395 . S
O763 C747 1.240 . S
O764 Gd737 2.448 . S
O764 C748 1.249 . S
O765 Gd737 2.506 . S
O765 C748 1.252 . S
O766 Gd737 2.435 . S
O766 C755 1.256 . S
O767 Gd736 2.327 . S
O767 Gd737 2.717 . S
O767 C755 1.257 . S
H768 C741 0.930 . S
H769 C742 0.917 1_655 S
H770 C744 0.931 . S
H771 C745 0.931 . S
H772 C750 0.930 . S
H773 C751 0.931 . S
H774 C753 0.931 . S
H775 C754 0.931 . S
Gd776 C779 2.818 . S
Gd776 O796 2.377 . S
Gd776 O798 2.448 . S
Gd776 O799 2.506 . S
Gd776 O800 2.435 . S
Gd776 O801 2.717 . S
Gd776 O803 2.395 . S
Gd776 O807 2.327 . S
Gd777 C788 2.818 . S
Gd777 O797 2.395 . S
Gd777 O801 2.327 . S
Gd777 O802 2.377 . S
Gd777 O804 2.448 . S
Gd777 O805 2.506 . S
Gd777 O806 2.435 . S
Gd777 O807 2.717 . S
C778 O796 1.240 . S
C778 O797 1.240 . S
C779 Gd776 2.818 . S
C779 C780 1.510 . S
C779 O798 1.249 . S
C779 O799 1.252 . S
C780 C779 1.510 . S
C780 C781 1.404 . S
C780 C782 1.352 . S
C781 C780 1.404 . S
C781 C785 1.389 . S
C781 H808 0.930 . S
C782 C780 1.352 . S
C782 C784 1.374 . S
C782 H809 0.931 . S
C783 C784 1.359 . S
C783 C785 1.364 . S
C784 C782 1.374 . S
C784 C783 1.359 . S
C784 H810 0.931 . S
C785 C781 1.389 . S
C785 C783 1.364 . S
C785 H811 0.931 . S
C786 O800 1.256 . S
C786 O801 1.257 . S
C787 O802 1.240 . S
C787 O803 1.240 . S
C788 Gd777 2.818 . S
C788 C789 1.510 . S
C788 O804 1.249 . S
C788 O805 1.252 . S
C789 C788 1.510 . S
C789 C790 1.404 . S
C789 C791 1.352 . S
C790 C789 1.404 . S
C790 C794 1.389 . S
C790 H812 0.930 . S
C791 C789 1.352 . S
C791 C793 1.374 . S
C791 H813 0.931 . S
C792 C793 1.359 . S
C792 C794 1.364 . S
C793 C791 1.374 . S
C793 C792 1.359 . S
C793 H814 0.931 . S
C794 C790 1.389 . S
C794 C792 1.364 . S
C794 H815 0.931 . S
C795 O806 1.256 . S
C795 O807 1.257 . S
O796 Gd776 2.377 . S
O796 C778 1.240 . S
O797 Gd777 2.395 . S
O797 C778 1.240 . S
O798 Gd776 2.448 . S
O798 C779 1.249 . S
O799 Gd776 2.506 . S
O799 C779 1.252 . S
O800 Gd776 2.435 . S
O800 C786 1.256 . S
O801 Gd776 2.717 . S
O801 Gd777 2.327 . S
O801 C786 1.257 . S
O802 Gd777 2.377 . S
O802 C787 1.240 . S
O803 Gd776 2.395 . S
O803 C787 1.240 . S
O804 Gd777 2.448 . S
O804 C788 1.249 . S
O805 Gd777 2.506 . S
O805 C788 1.252 . S
O806 Gd777 2.435 . S
O806 C795 1.256 . S
O807 Gd776 2.327 . S
O807 Gd777 2.717 . S
O807 C795 1.257 . S
H808 C781 0.930 . S
H809 C782 0.931 . S
H810 C784 0.931 . S
H811 C785 0.931 . S
H812 C790 0.930 . S
H813 C791 0.931 . S
H814 C793 0.931 . S
H815 C794 0.931 . S
Gd816 C819 2.818 . S
Gd816 O836 2.377 . S
Gd816 O838 2.448 . S
Gd816 O839 2.506 . S
Gd816 O840 2.435 . S
Gd816 O841 2.717 . S
Gd816 O843 2.395 . S
Gd816 O847 2.327 . S
Gd817 C828 2.818 . S
Gd817 O837 2.395 . S
Gd817 O841 2.327 . S
Gd817 O842 2.377 . S
Gd817 O844 2.448 . S
Gd817 O845 2.506 . S
Gd817 O846 2.435 . S
Gd817 O847 2.717 . S
C818 O836 1.240 . S
C818 O837 1.240 . S
C819 Gd816 2.818 . S
C819 C820 1.510 . S
C819 O838 1.249 . S
C819 O839 1.252 . S
C820 C819 1.510 . S
C820 C821 1.404 . S
C820 C822 1.352 . S
C821 C820 1.404 . S
C821 C825 1.389 . S
C821 H848 0.930 . S
C822 C820 1.352 . S
C822 C824 1.374 . S
C822 H849 0.931 . S
C823 C824 1.359 . S
C823 C825 1.364 . S
C824 C822 1.374 . S
C824 C823 1.359 . S
C824 H850 0.931 . S
C825 C821 1.389 . S
C825 C823 1.364 . S
C825 H851 0.931 . S
C826 O840 1.256 . S
C826 O841 1.257 . S
C827 O842 1.240 . S
C827 O843 1.240 . S
C828 Gd817 2.818 . S
C828 C829 1.510 . S
C828 O844 1.249 . S
C828 O845 1.252 . S
C829 C828 1.510 . S
C829 C830 1.404 . S
C829 C831 1.352 . S
C830 C829 1.404 . S
C830 C834 1.389 . S
C830 H852 0.930 . S
C831 C829 1.352 . S
C831 C833 1.374 . S
C831 H853 0.931 . S
C832 C833 1.359 . S
C832 C834 1.364 . S
C833 C831 1.374 . S
C833 C832 1.359 . S
C833 H854 0.931 . S
C834 C830 1.389 . S
C834 C832 1.364 . S
C834 H855 0.931 . S
C835 O846 1.256 . S
C835 O847 1.257 . S
O836 Gd816 2.377 . S
O836 C818 1.240 . S
O837 Gd817 2.395 . S
O837 C818 1.240 . S
O838 Gd816 2.448 . S
O838 C819 1.249 . S
O839 Gd816 2.506 . S
O839 C819 1.252 . S
O840 Gd816 2.435 . S
O840 C826 1.256 . S
O841 Gd816 2.717 . S
O841 Gd817 2.327 . S
O841 C826 1.257 . S
O842 Gd817 2.377 . S
O842 C827 1.240 . S
O843 Gd816 2.395 . S
O843 C827 1.240 . S
O844 Gd817 2.448 . S
O844 C828 1.249 . S
O845 Gd817 2.506 . S
O845 C828 1.252 . S
O846 Gd817 2.435 . S
O846 C835 1.256 . S
O847 Gd816 2.327 . S
O847 Gd817 2.717 . S
O847 C835 1.257 . S
H848 C821 0.930 . S
H849 C822 0.931 . S
H850 C824 0.931 . S
H851 C825 0.931 . S
H852 C830 0.930 . S
H853 C831 0.931 . S
H854 C833 0.931 . S
H855 C834 0.931 . S
Gd856 C859 2.818 . S
Gd856 O876 2.377 . S
Gd856 O878 2.448 . S
Gd856 O879 2.506 . S
Gd856 O880 2.435 . S
Gd856 O881 2.717 . S
Gd856 O883 2.395 . S
Gd856 O887 2.327 . S
Gd857 C868 2.818 . S
Gd857 O877 2.395 . S
Gd857 O881 2.327 . S
Gd857 O882 2.377 . S
Gd857 O884 2.448 . S
Gd857 O885 2.506 . S
Gd857 O886 2.435 . S
Gd857 O887 2.717 . S
C858 O876 1.240 . S
C858 O877 1.240 . S
C859 Gd856 2.818 . S
C859 C860 1.510 . S
C859 O878 1.249 . S
C859 O879 1.252 . S
C860 C859 1.510 . S
C860 C861 1.404 . S
C860 C862 1.352 . S
C861 C860 1.404 . S
C861 C865 1.389 . S
C861 H888 0.930 . S
C862 C860 1.352 . S
C862 C864 1.374 . S
C862 H889 0.931 . S
C863 C864 1.359 . S
C863 C865 1.364 . S
C864 C862 1.374 . S
C864 C863 1.359 . S
C864 H890 0.931 . S
C865 C861 1.389 . S
C865 C863 1.364 . S
C865 H891 0.931 . S
C866 O880 1.256 . S
C866 O881 1.257 . S
C867 O882 1.240 . S
C867 O883 1.240 . S
C868 Gd857 2.818 . S
C868 C869 1.510 . S
C868 O884 1.249 . S
C868 O885 1.252 . S
C869 C868 1.510 . S
C869 C870 1.404 . S
C869 C871 1.352 . S
C870 C869 1.404 . S
C870 C874 1.389 . S
C870 H892 0.930 . S
C871 C869 1.352 . S
C871 C873 1.374 . S
C871 H893 0.931 . S
C872 C873 1.359 . S
C872 C874 1.364 . S
C873 C871 1.374 . S
C873 C872 1.359 . S
C873 H894 0.931 . S
C874 C870 1.389 . S
C874 C872 1.364 . S
C874 H895 0.931 . S
C875 O886 1.256 . S
C875 O887 1.257 . S
O876 Gd856 2.377 . S
O876 C858 1.240 . S
O877 Gd857 2.395 . S
O877 C858 1.240 . S
O878 Gd856 2.448 . S
O878 C859 1.249 . S
O879 Gd856 2.506 . S
O879 C859 1.252 . S
O880 Gd856 2.435 . S
O880 C866 1.256 . S
O881 Gd856 2.717 . S
O881 Gd857 2.327 . S
O881 C866 1.257 . S
O882 Gd857 2.377 . S
O882 C867 1.240 . S
O883 Gd856 2.395 . S
O883 C867 1.240 . S
O884 Gd857 2.448 . S
O884 C868 1.249 . S
O885 Gd857 2.506 . S
O885 C868 1.252 . S
O886 Gd857 2.435 . S
O886 C875 1.256 . S
O887 Gd856 2.327 . S
O887 Gd857 2.717 . S
O887 C875 1.257 . S
H888 C861 0.930 . S
H889 C862 0.931 . S
H890 C864 0.931 . S
H891 C865 0.931 . S
H892 C870 0.930 . S
H893 C871 0.931 . S
H894 C873 0.931 . S
H895 C874 0.931 . S
Gd896 C899 2.818 . S
Gd896 O916 2.377 . S
Gd896 O918 2.448 . S
Gd896 O919 2.506 . S
Gd896 O920 2.435 . S
Gd896 O921 2.717 . S
Gd896 O923 2.395 . S
Gd896 O927 2.327 . S
Gd897 C908 2.818 . S
Gd897 O917 2.395 . S
Gd897 O921 2.327 . S
Gd897 O922 2.377 . S
Gd897 O924 2.448 . S
Gd897 O925 2.506 . S
Gd897 O926 2.435 . S
Gd897 O927 2.717 . S
C898 O916 1.240 . S
C898 O917 1.240 . S
C899 Gd896 2.818 . S
C899 C900 1.510 . S
C899 O918 1.249 . S
C899 O919 1.252 . S
C900 C899 1.510 . S
C900 C901 1.404 . S
C900 C902 1.352 . S
C901 C900 1.404 . S
C901 C905 1.389 . S
C901 H928 0.930 . S
C902 C900 1.352 . S
C902 C904 1.374 . S
C902 H929 0.931 . S
C903 C904 1.359 . S
C903 C905 1.364 . S
C904 C902 1.374 . S
C904 C903 1.359 . S
C904 H930 0.931 . S
C905 C901 1.389 . S
C905 C903 1.364 . S
C905 H931 0.931 . S
C906 O920 1.256 . S
C906 O921 1.257 . S
C907 O922 1.240 . S
C907 O923 1.240 . S
C908 Gd897 2.818 . S
C908 C909 1.510 . S
C908 O924 1.249 . S
C908 O925 1.252 . S
C909 C908 1.510 . S
C909 C910 1.404 . S
C909 C911 1.352 . S
C910 C909 1.404 . S
C910 C914 1.389 . S
C910 H932 0.930 . S
C911 C909 1.352 . S
C911 C913 1.374 . S
C911 H933 0.931 . S
C912 C913 1.359 . S
C912 C914 1.364 . S
C913 C911 1.374 . S
C913 C912 1.359 . S
C913 H934 0.931 . S
C914 C910 1.389 . S
C914 C912 1.364 . S
C914 H935 0.931 . S
C915 O926 1.256 . S
C915 O927 1.257 . S
O916 Gd896 2.377 . S
O916 C898 1.240 . S
O917 Gd897 2.395 . S
O917 C898 1.240 . S
O918 Gd896 2.448 . S
O918 C899 1.249 . S
O919 Gd896 2.506 . S
O919 C899 1.252 . S
O920 Gd896 2.435 . S
O920 C906 1.256 . S
O921 Gd896 2.717 . S
O921 Gd897 2.327 . S
O921 C906 1.257 . S
O922 Gd897 2.377 . S
O922 C907 1.240 . S
O923 Gd896 2.395 . S
O923 C907 1.240 . S
O924 Gd897 2.448 . S
O924 C908 1.249 . S
O925 Gd897 2.506 . S
O925 C908 1.252 . S
O926 Gd897 2.435 . S
O926 C915 1.256 . S
O927 Gd896 2.327 . S
O927 Gd897 2.717 . S
O927 C915 1.257 . S
H928 C901 0.930 . S
H929 C902 0.931 . S
H930 C904 0.931 . S
H931 C905 0.931 . S
H932 C910 0.930 . S
H933 C911 0.931 . S
H934 C913 0.931 . S
H935 C914 0.931 . S
Gd936 C939 2.818 1_554 S
Gd936 O956 2.377 1_554 S
Gd936 O958 2.448 1_554 S
Gd936 O959 2.506 . S
Gd936 O960 2.435 1_554 S
Gd936 O961 2.717 1_554 S
Gd936 O963 2.395 . S
Gd936 O967 2.327 . S
Gd937 C948 2.818 1_455 S
Gd937 O957 2.395 . S
Gd937 O961 2.327 1_554 S
Gd937 O962 2.377 . S
Gd937 O964 2.448 1_455 S
Gd937 O965 2.506 1_455 S
Gd937 O966 2.435 . S
Gd937 O967 2.717 . S
C938 O956 1.240 1_554 S
C938 O957 1.240 . S
C939 Gd936 2.818 1_556 S
C939 C940 1.510 . S
C939 O958 1.249 . S
C939 O959 1.252 1_556 S
C940 C939 1.510 . S
C940 C941 1.404 . S
C940 C942 1.352 1_556 S
C941 C940 1.404 . S
C941 C945 1.389 . S
C941 H968 0.930 . S
C942 C940 1.352 1_554 S
C942 C944 1.374 . S
C942 H969 0.931 . S
C943 C944 1.359 1_556 S
C943 C945 1.364 . S
C944 C942 1.374 . S
C944 C943 1.359 1_554 S
C944 H970 0.931 . S
C945 C941 1.389 . S
C945 C943 1.364 . S
C945 H971 0.931 . S
C946 O960 1.256 . S
C946 O961 1.257 . S
C947 O962 1.240 . S
C947 O963 1.240 . S
C948 Gd937 2.818 1_655 S
C948 C949 1.510 . S
C948 O964 1.249 . S
C948 O965 1.252 . S
C949 C948 1.510 . S
C949 C950 1.404 . S
C949 C951 1.352 . S
C950 C949 1.404 . S
C950 C954 1.389 . S
C950 H972 0.930 . S
C951 C949 1.352 . S
C951 C953 1.374 . S
C951 H973 0.931 . S
C952 C953 1.359 . S
C952 C954 1.364 . S
C953 C951 1.374 . S
C953 C952 1.359 . S
C953 H974 0.931 . S
C954 C950 1.389 . S
C954 C952 1.364 . S
C954 H975 0.931 . S
C955 O966 1.256 . S
C955 O967 1.257 . S
O956 Gd936 2.377 1_556 S
O956 C938 1.240 1_556 S
O957 Gd937 2.395 . S
O957 C938 1.240 . S
O958 Gd936 2.448 1_556 S
O958 C939 1.249 . S
O959 Gd936 2.506 . S
O959 C939 1.252 1_554 S
O960 Gd936 2.435 1_556 S
O960 C946 1.256 . S
O961 Gd936 2.717 1_556 S
O961 Gd937 2.327 1_556 S
O961 C946 1.257 . S
O962 Gd937 2.377 . S
O962 C947 1.240 . S
O963 Gd936 2.395 . S
O963 C947 1.240 . S
O964 Gd937 2.448 1_655 S
O964 C948 1.249 . S
O965 Gd937 2.506 1_655 S
O965 C948 1.252 . S
O966 Gd937 2.435 . S
O966 C955 1.256 . S
O967 Gd936 2.327 . S
O967 Gd937 2.717 . S
O967 C955 1.257 . S
H968 C941 0.930 . S
H969 C942 0.931 . S
H970 C944 0.931 . S
H971 C945 0.931 . S
H972 C950 0.930 . S
H973 C951 0.931 . S
H974 C953 0.931 . S
H975 C954 0.931 . S
H976 C984 0.929 . S
H977 C986 0.930 . S
H978 C988 0.930 1_655 S
H979 C991 0.982 . S
H980 C994 0.930 . S
H981 C996 0.960 . S
H982 C996 0.960 1_455 S
H983 C996 0.960 . S
C984 H976 0.929 . S
C984 C985 1.377 . S
C984 C986 1.384 . S
C985 C984 1.377 . S
C985 C991 1.355 1_455 S
C986 H977 0.930 . S
C986 C984 1.384 . S
C986 C987 1.372 . S
C987 C986 1.372 . S
C987 C988 1.400 . S
C987 C992 1.490 . S
C988 H978 0.930 1_455 S
C988 C987 1.400 . S
C988 C991 1.369 1_455 S
H989 C1005 0.930 . S
H990 C1006 0.931 . S
C991 H979 0.982 . S
C991 C985 1.355 1_655 S
C991 C988 1.369 1_655 S
C992 C987 1.490 . S
C992 C994 1.395 . S
C992 C995 1.403 . S
H993 C999 0.930 . S
C994 H980 0.930 . S
C994 C992 1.395 . S
C994 C997 1.403 . S
C995 C992 1.403 . S
C995 C996 1.524 1_455 S
C995 C999 1.400 . S
C996 H981 0.960 . S
C996 H982 0.960 1_655 S
C996 H983 0.960 . S
C996 C995 1.524 1_655 S
C997 C994 1.403 . S
C997 C998 1.392 . S
C997 C1001 1.495 1_556 S
C998 C997 1.392 . S
C998 C999 1.385 . S
C998 C1000 1.478 . S
C999 H993 0.930 . S
C999 C995 1.400 . S
C999 C998 1.385 . S
C1000 C998 1.478 . S
C1000 C1002 1.381 . S
C1000 C1006 1.383 . S
C1001 C997 1.495 1_554 S
C1001 H1007 0.959 . S
C1001 H1008 0.961 . S
C1001 H1009 0.960 1_554 S
C1002 C1000 1.381 . S
C1002 C1003 1.394 . S
C1002 H1010 0.930 . S
C1003 C1002 1.394 . S
C1003 C1004 1.386 . S
C1003 H1011 0.929 . S
C1004 C1003 1.386 . S
C1004 C1005 1.376 1_556 S
C1005 H989 0.930 . S
C1005 C1004 1.376 1_554 S
C1005 C1006 1.379 1_554 S
C1006 H990 0.931 . S
C1006 C1000 1.383 . S
C1006 C1005 1.379 1_556 S
H1007 C1001 0.959 . S
H1008 C1001 0.961 . S
H1009 C1001 0.960 1_556 S
H1010 C1002 0.930 . S
H1011 C1003 0.929 . S
H1012 C1020 0.929 . S
H1013 C1022 0.930 . S
H1014 C1024 0.930 . S
H1015 C1027 0.929 . S
H1016 C1030 0.930 . S
H1017 C1032 0.960 . S
H1018 C1032 0.960 . S
H1019 C1032 0.960 . S
C1020 H1012 0.929 . S
C1020 C1021 1.377 . S
C1020 C1022 1.384 . S
C1021 C1020 1.377 . S
C1021 C1027 1.390 . S
C1022 H1013 0.930 . S
C1022 C1020 1.384 . S
C1022 C1023 1.372 . S
C1023 C1022 1.372 . S
C1023 C1024 1.400 . S
C1023 C1028 1.490 . S
C1024 H1014 0.930 . S
C1024 C1023 1.400 . S
C1024 C1027 1.386 . S
H1025 C1041 0.930 . S
H1026 C1042 0.931 . S
C1027 H1015 0.929 . S
C1027 C1021 1.390 . S
C1027 C1024 1.386 . S
C1028 C1023 1.490 . S
C1028 C1030 1.395 . S
C1028 C1031 1.403 . S
H1029 C1035 0.930 . S
C1030 H1016 0.930 . S
C1030 C1028 1.395 . S
C1030 C1033 1.403 . S
C1031 C1028 1.403 . S
C1031 C1032 1.524 . S
C1031 C1035 1.400 . S
C1032 H1017 0.960 . S
C1032 H1018 0.960 . S
C1032 H1019 0.960 . S
C1032 C1031 1.524 . S
C1033 C1030 1.403 . S
C1033 C1034 1.392 . S
C1033 C1037 1.495 . S
C1034 C1033 1.392 . S
C1034 C1035 1.385 . S
C1034 C1036 1.478 . S
C1035 H1029 0.930 . S
C1035 C1031 1.400 . S
C1035 C1034 1.385 . S
C1036 C1034 1.478 . S
C1036 C1038 1.381 . S
C1036 C1042 1.383 . S
C1037 C1033 1.495 . S
C1037 H1043 0.959 . S
C1037 H1044 0.961 . S
C1037 H1045 0.960 . S
C1038 C1036 1.381 . S
C1038 C1039 1.394 . S
C1038 H1046 0.930 . S
C1039 C1038 1.394 . S
C1039 C1040 1.383 . S
C1039 H1047 0.929 . S
C1040 C1039 1.383 . S
C1040 C1041 1.377 . S
C1041 H1025 0.930 . S
C1041 C1040 1.377 . S
C1041 C1042 1.379 . S
C1042 H1026 0.931 . S
C1042 C1036 1.383 . S
C1042 C1041 1.379 . S
H1043 C1037 0.959 . S
H1044 C1037 0.961 . S
H1045 C1037 0.960 . S
H1046 C1038 0.930 . S
H1047 C1039 0.929 . S
H1048 C1056 0.929 . S
H1049 C1058 0.930 . S
H1050 C1060 0.930 . S
H1051 C1063 0.929 . S
H1052 C1066 0.930 . S
H1053 C1068 0.960 . S
H1054 C1068 0.960 . S
H1055 C1068 0.960 . S
C1056 H1048 0.929 . S
C1056 C1057 1.377 . S
C1056 C1058 1.384 . S
C1057 C1056 1.377 . S
C1057 C1063 1.390 . S
C1058 H1049 0.930 . S
C1058 C1056 1.384 . S
C1058 C1059 1.372 . S
C1059 C1058 1.372 . S
C1059 C1060 1.400 . S
C1059 C1064 1.490 . S
C1060 H1050 0.930 . S
C1060 C1059 1.400 . S
C1060 C1063 1.386 . S
H1061 C1077 0.930 . S
H1062 C1078 0.931 . S
C1063 H1051 0.929 . S
C1063 C1057 1.390 . S
C1063 C1060 1.386 . S
C1064 C1059 1.490 . S
C1064 C1066 1.395 . S
C1064 C1067 1.403 . S
H1065 C1071 0.930 . S
C1066 H1052 0.930 . S
C1066 C1064 1.395 . S
C1066 C1069 1.403 . S
C1067 C1064 1.403 . S
C1067 C1068 1.524 . S
C1067 C1071 1.400 . S
C1068 H1053 0.960 . S
C1068 H1054 0.960 . S
C1068 H1055 0.960 . S
C1068 C1067 1.524 . S
C1069 C1066 1.403 . S
C1069 C1070 1.392 . S
C1069 C1073 1.495 . S
C1070 C1069 1.392 . S
C1070 C1071 1.385 . S
C1070 C1072 1.478 . S
C1071 H1065 0.930 . S
C1071 C1067 1.400 . S
C1071 C1070 1.385 . S
C1072 C1070 1.478 . S
C1072 C1074 1.381 . S
C1072 C1078 1.383 . S
C1073 C1069 1.495 . S
C1073 H1079 0.959 . S
C1073 H1080 0.961 . S
C1073 H1081 0.960 . S
C1074 C1072 1.381 . S
C1074 C1075 1.394 . S
C1074 H1082 0.930 . S
C1075 C1074 1.394 . S
C1075 C1076 1.383 . S
C1075 H1083 0.929 . S
C1076 C1075 1.383 . S
C1076 C1077 1.377 . S
C1077 H1061 0.930 . S
C1077 C1076 1.377 . S
C1077 C1078 1.379 . S
C1078 H1062 0.931 . S
C1078 C1072 1.383 . S
C1078 C1077 1.379 . S
H1079 C1073 0.959 . S
H1080 C1073 0.961 . S
H1081 C1073 0.960 . S
H1082 C1074 0.930 . S
H1083 C1075 0.929 . S
H1084 C1092 0.929 . S
H1085 C1094 0.930 . S
H1086 C1096 0.930 . S
H1087 C1099 0.929 . S
H1088 C1102 0.930 . S
H1089 C1104 0.960 . S
H1090 C1104 0.960 . S
H1091 C1104 0.960 . S
C1092 H1084 0.929 . S
C1092 C1093 1.377 . S
C1092 C1094 1.384 . S
C1093 C1092 1.377 . S
C1093 C1099 1.390 . S
C1094 H1085 0.930 . S
C1094 C1092 1.384 . S
C1094 C1095 1.372 . S
C1095 C1094 1.372 . S
C1095 C1096 1.400 . S
C1095 C1100 1.490 . S
C1096 H1086 0.930 . S
C1096 C1095 1.400 . S
C1096 C1099 1.386 . S
H1097 C1113 0.930 . S
H1098 C1114 0.931 . S
C1099 H1087 0.929 . S
C1099 C1093 1.390 . S
C1099 C1096 1.386 . S
C1100 C1095 1.490 . S
C1100 C1102 1.395 . S
C1100 C1103 1.403 . S
H1101 C1107 0.930 . S
C1102 H1088 0.930 . S
C1102 C1100 1.395 . S
C1102 C1105 1.403 . S
C1103 C1100 1.403 . S
C1103 C1104 1.524 . S
C1103 C1107 1.400 . S
C1104 H1089 0.960 . S
C1104 H1090 0.960 . S
C1104 H1091 0.960 . S
C1104 C1103 1.524 . S
C1105 C1102 1.403 . S
C1105 C1106 1.392 . S
C1105 C1109 1.495 . S
C1106 C1105 1.392 . S
C1106 C1107 1.385 . S
C1106 C1108 1.478 . S
C1107 H1101 0.930 . S
C1107 C1103 1.400 . S
C1107 C1106 1.385 . S
C1108 C1106 1.478 . S
C1108 C1110 1.381 . S
C1108 C1114 1.383 . S
C1109 C1105 1.495 . S
C1109 H1115 0.959 . S
C1109 H1116 0.961 . S
C1109 H1117 0.960 . S
C1110 C1108 1.381 . S
C1110 C1111 1.394 . S
C1110 H1118 0.930 . S
C1111 C1110 1.394 . S
C1111 C1112 1.383 . S
C1111 H1119 0.929 . S
C1112 C1111 1.383 . S
C1112 C1113 1.377 . S
C1113 H1097 0.930 . S
C1113 C1112 1.377 . S
C1113 C1114 1.379 . S
C1114 H1098 0.931 . S
C1114 C1108 1.383 . S
C1114 C1113 1.379 . S
H1115 C1109 0.959 . S
H1116 C1109 0.961 . S
H1117 C1109 0.960 . S
H1118 C1110 0.930 . S
H1119 C1111 0.929 . S
H1120 C1128 0.947 . S
H1121 C1130 0.920 1_655 S
H1122 C1132 0.930 . S
H1123 C1135 0.929 . S
H1124 C1138 0.886 1_655 S
H1125 C1140 0.960 . S
H1126 C1140 0.960 . S
H1127 C1140 0.960 . S
C1128 H1120 0.947 . S
C1128 C1129 1.366 1_655 S
C1128 C1130 1.379 1_655 S
C1129 C1128 1.366 1_455 S
C1129 C1135 1.390 . S
C1130 H1121 0.920 1_455 S
C1130 C1128 1.379 1_455 S
C1130 C1131 1.372 . S
C1131 C1130 1.372 . S
C1131 C1132 1.400 . S
C1131 C1136 1.490 . S
C1132 H1122 0.930 . S
C1132 C1131 1.400 . S
C1132 C1135 1.386 . S
H1133 C1149 0.930 . S
H1134 C1150 0.931 . S
C1135 H1123 0.929 . S
C1135 C1129 1.390 . S
C1135 C1132 1.386 . S
C1136 C1131 1.490 . S
C1136 C1138 1.395 . S
C1136 C1139 1.403 . S
H1137 C1143 0.930 . S
C1138 H1124 0.886 1_455 S
C1138 C1136 1.395 . S
C1138 C1141 1.403 . S
C1139 C1136 1.403 . S
C1139 C1140 1.524 . S
C1139 C1143 1.400 . S
C1140 H1125 0.960 . S
C1140 H1126 0.960 . S
C1140 H1127 0.960 . S
C1140 C1139 1.524 . S
C1141 C1138 1.403 . S
C1141 C1142 1.392 . S
C1141 C1145 1.495 . S
C1142 C1141 1.392 . S
C1142 C1143 1.385 . S
C1142 C1144 1.478 . S
C1143 H1137 0.930 . S
C1143 C1139 1.400 . S
C1143 C1142 1.385 . S
C1144 C1142 1.478 . S
C1144 C1146 1.381 . S
C1144 C1150 1.383 . S
C1145 C1141 1.495 . S
C1145 H1151 0.959 1_455 S
C1145 H1152 0.961 . S
C1145 H1153 0.960 . S
C1146 C1144 1.381 . S
C1146 C1147 1.394 . S
C1146 H1154 0.930 . S
C1147 C1146 1.394 . S
C1147 C1148 1.383 . S
C1147 H1155 0.929 . S
C1148 C1147 1.383 . S
C1148 C1149 1.377 . S
C1149 H1133 0.930 . S
C1149 C1148 1.377 . S
C1149 C1150 1.379 . S
C1150 H1134 0.931 . S
C1150 C1144 1.383 . S
C1150 C1149 1.379 . S
H1151 C1145 0.959 1_655 S
H1152 C1145 0.961 . S
H1153 C1145 0.960 . S
H1154 C1146 0.930 . S
H1155 C1147 0.929 . S
H1156 C1164 0.929 . S
H1157 C1166 0.930 . S
H1158 C1168 0.930 . S
H1159 C1171 0.929 . S
H1160 C1174 0.930 . S
H1161 C1176 0.960 . S
H1162 C1176 0.960 . S
H1163 C1176 0.960 . S
C1164 H1156 0.929 . S
C1164 C1165 1.377 . S
C1164 C1166 1.384 . S
C1165 C1164 1.377 . S
C1165 C1171 1.390 . S
C1166 H1157 0.930 . S
C1166 C1164 1.384 . S
C1166 C1167 1.372 . S
C1167 C1166 1.372 . S
C1167 C1168 1.400 . S
C1167 C1172 1.490 . S
C1168 H1158 0.930 . S
C1168 C1167 1.400 . S
C1168 C1171 1.386 . S
H1169 C1185 0.930 . S
H1170 C1186 0.931 . S
C1171 H1159 0.929 . S
C1171 C1165 1.390 . S
C1171 C1168 1.386 . S
C1172 C1167 1.490 . S
C1172 C1174 1.395 . S
C1172 C1175 1.403 . S
H1173 C1179 0.930 . S
C1174 H1160 0.930 . S
C1174 C1172 1.395 . S
C1174 C1177 1.403 . S
C1175 C1172 1.403 . S
C1175 C1176 1.524 . S
C1175 C1179 1.400 . S
C1176 H1161 0.960 . S
C1176 H1162 0.960 . S
C1176 H1163 0.960 . S
C1176 C1175 1.524 . S
C1177 C1174 1.403 . S
C1177 C1178 1.392 . S
C1177 C1181 1.495 . S
C1178 C1177 1.392 . S
C1178 C1179 1.385 . S
C1178 C1180 1.478 . S
C1179 H1173 0.930 . S
C1179 C1175 1.400 . S
C1179 C1178 1.385 . S
C1180 C1178 1.478 . S
C1180 C1182 1.381 . S
C1180 C1186 1.383 . S
C1181 C1177 1.495 . S
C1181 H1187 0.959 . S
C1181 H1188 0.961 . S
C1181 H1189 0.960 . S
C1182 C1180 1.381 . S
C1182 C1183 1.394 . S
C1182 H1190 0.930 . S
C1183 C1182 1.394 . S
C1183 C1184 1.383 . S
C1183 H1191 0.929 . S
C1184 C1183 1.383 . S
C1184 C1185 1.377 . S
C1185 H1169 0.930 . S
C1185 C1184 1.377 . S
C1185 C1186 1.379 . S
C1186 H1170 0.931 . S
C1186 C1180 1.383 . S
C1186 C1185 1.379 . S
H1187 C1181 0.959 . S
H1188 C1181 0.961 . S
H1189 C1181 0.960 . S
H1190 C1182 0.930 . S
H1191 C1183 0.929 . S
H1192 C1200 0.929 . S
H1193 C1202 0.930 . S
H1194 C1204 0.930 . S
H1195 C1207 0.929 . S
H1196 C1210 0.930 . S
H1197 C1212 0.960 . S
H1198 C1212 0.960 . S
H1199 C1212 0.960 . S
C1200 H1192 0.929 . S
C1200 C1201 1.377 . S
C1200 C1202 1.384 . S
C1201 C1200 1.377 . S
C1201 C1207 1.390 . S
C1202 H1193 0.930 . S
C1202 C1200 1.384 . S
C1202 C1203 1.372 . S
C1203 C1202 1.372 . S
C1203 C1204 1.400 . S
C1203 C1208 1.490 . S
C1204 H1194 0.930 . S
C1204 C1203 1.400 . S
C1204 C1207 1.386 . S
H1205 C1221 0.930 . S
H1206 C1222 0.931 . S
C1207 H1195 0.929 . S
C1207 C1201 1.390 . S
C1207 C1204 1.386 . S
C1208 C1203 1.490 . S
C1208 C1210 1.395 . S
C1208 C1211 1.403 . S
H1209 C1215 0.930 . S
C1210 H1196 0.930 . S
C1210 C1208 1.395 . S
C1210 C1213 1.403 . S
C1211 C1208 1.403 . S
C1211 C1212 1.524 . S
C1211 C1215 1.400 . S
C1212 H1197 0.960 . S
C1212 H1198 0.960 . S
C1212 H1199 0.960 . S
C1212 C1211 1.524 . S
C1213 C1210 1.403 . S
C1213 C1214 1.392 . S
C1213 C1217 1.495 . S
C1214 C1213 1.392 . S
C1214 C1215 1.385 . S
C1214 C1216 1.478 . S
C1215 H1209 0.930 . S
C1215 C1211 1.400 . S
C1215 C1214 1.385 . S
C1216 C1214 1.478 . S
C1216 C1218 1.381 . S
C1216 C1222 1.383 . S
C1217 C1213 1.495 . S
C1217 H1223 0.959 . S
C1217 H1224 0.961 . S
C1217 H1225 0.960 . S
C1218 C1216 1.381 . S
C1218 C1219 1.394 . S
C1218 H1226 0.930 . S
C1219 C1218 1.394 . S
C1219 C1220 1.383 . S
C1219 H1227 0.929 . S
C1220 C1219 1.383 . S
C1220 C1221 1.377 . S
C1221 H1205 0.930 . S
C1221 C1220 1.377 . S
C1221 C1222 1.379 . S
C1222 H1206 0.931 . S
C1222 C1216 1.383 . S
C1222 C1221 1.379 . S
H1223 C1217 0.959 . S
H1224 C1217 0.961 . S
H1225 C1217 0.960 . S
H1226 C1218 0.930 . S
H1227 C1219 0.929 . S
H1228 C1236 0.929 . S
H1229 C1238 0.930 . S
H1230 C1240 0.930 . S
H1231 C1243 0.929 . S
H1232 C1246 0.930 . S
H1233 C1248 0.960 . S
H1234 C1248 0.960 . S
H1235 C1248 0.960 . S
C1236 H1228 0.929 . S
C1236 C1237 1.377 . S
C1236 C1238 1.384 . S
C1237 C1236 1.377 . S
C1237 C1243 1.390 . S
C1238 H1229 0.930 . S
C1238 C1236 1.384 . S
C1238 C1239 1.372 . S
C1239 C1238 1.372 . S
C1239 C1240 1.400 . S
C1239 C1244 1.490 . S
C1240 H1230 0.930 . S
C1240 C1239 1.400 . S
C1240 C1243 1.386 . S
H1241 C1257 0.930 . S
H1242 C1258 0.931 . S
C1243 H1231 0.929 . S
C1243 C1237 1.390 . S
C1243 C1240 1.386 . S
C1244 C1239 1.490 . S
C1244 C1246 1.395 . S
C1244 C1247 1.403 . S
H1245 C1251 0.930 . S
C1246 H1232 0.930 . S
C1246 C1244 1.395 . S
C1246 C1249 1.403 . S
C1247 C1244 1.403 . S
C1247 C1248 1.524 . S
C1247 C1251 1.400 . S
C1248 H1233 0.960 . S
C1248 H1234 0.960 . S
C1248 H1235 0.960 . S
C1248 C1247 1.524 . S
C1249 C1246 1.403 . S
C1249 C1250 1.392 . S
C1249 C1253 1.495 . S
C1250 C1249 1.392 . S
C1250 C1251 1.385 . S
C1250 C1252 1.478 . S
C1251 H1245 0.930 . S
C1251 C1247 1.400 . S
C1251 C1250 1.385 . S
C1252 C1250 1.478 . S
C1252 C1254 1.381 . S
C1252 C1258 1.383 . S
C1253 C1249 1.495 . S
C1253 H1259 0.959 . S
C1253 H1260 0.961 . S
C1253 H1261 0.960 . S
C1254 C1252 1.381 . S
C1254 C1255 1.394 . S
C1254 H1262 0.930 . S
C1255 C1254 1.394 . S
C1255 C1256 1.383 . S
C1255 H1263 0.929 . S
C1256 C1255 1.383 . S
C1256 C1257 1.377 . S
C1257 H1241 0.930 . S
C1257 C1256 1.377 . S
C1257 C1258 1.379 . S
C1258 H1242 0.931 . S
C1258 C1252 1.383 . S
C1258 C1257 1.379 . S
H1259 C1253 0.959 . S
H1260 C1253 0.961 . S
H1261 C1253 0.960 . S
H1262 C1254 0.930 . S
H1263 C1255 0.929 . S
H1264 C1272 0.929 . S
H1265 C1274 0.930 . S
H1266 C1276 0.930 . S
H1267 C1279 0.929 . S
H1268 C1282 0.915 1_455 S
H1269 C1284 0.960 . S
H1270 C1284 0.960 . S
H1271 C1284 0.960 . S
C1272 H1264 0.929 . S
C1272 C1273 1.377 . S
C1272 C1274 1.384 . S
C1273 C1272 1.377 . S
C1273 C1279 1.390 . S
C1274 H1265 0.930 . S
C1274 C1272 1.384 . S
C1274 C1275 1.372 . S
C1275 C1274 1.372 . S
C1275 C1276 1.400 . S
C1275 C1280 1.490 . S
C1276 H1266 0.930 . S
C1276 C1275 1.400 . S
C1276 C1279 1.386 . S
H1277 C1293 0.930 . S
H1278 C1294 0.931 1_655 S
C1279 H1267 0.929 . S
C1279 C1273 1.390 . S
C1279 C1276 1.386 . S
C1280 C1275 1.490 . S
C1280 C1282 1.434 . S
C1280 C1283 1.403 . S
H1281 C1287 0.930 . S
C1282 H1268 0.915 1_655 S
C1282 C1280 1.434 . S
C1282 C1285 1.380 1_655 S
C1283 C1280 1.403 . S
C1283 C1284 1.524 . S
C1283 C1287 1.400 . S
C1284 H1269 0.960 . S
C1284 H1270 0.960 . S
C1284 H1271 0.960 . S
C1284 C1283 1.524 . S
C1285 C1282 1.380 1_455 S
C1285 C1286 1.380 1_455 S
C1285 C1289 1.495 . S
C1286 C1285 1.380 1_655 S
C1286 C1287 1.416 . S
C1286 C1288 1.461 1_655 S
C1287 H1281 0.930 . S
C1287 C1283 1.400 . S
C1287 C1286 1.416 . S
C1288 C1286 1.461 1_455 S
C1288 C1290 1.381 . S
C1288 C1294 1.383 . S
C1289 C1285 1.495 . S
C1289 H1295 0.959 . S
C1289 H1296 0.961 . S
C1289 H1297 0.960 . S
C1290 C1288 1.381 . S
C1290 C1291 1.394 . S
C1290 H1298 0.930 . S
C1291 C1290 1.394 . S
C1291 C1292 1.383 . S
C1291 H1299 0.929 . S
C1292 C1291 1.383 . S
C1292 C1293 1.377 . S
C1293 H1277 0.930 . S
C1293 C1292 1.377 . S
C1293 C1294 1.379 . S
C1294 H1278 0.931 1_455 S
C1294 C1288 1.383 . S
C1294 C1293 1.379 . S
H1295 C1289 0.959 . S
H1296 C1289 0.961 . S
H1297 C1289 0.960 . S
H1298 C1290 0.930 . S
H1299 C1291 0.929 . S
H1300 C1308 0.929 . S
H1301 C1310 0.930 . S
H1302 C1312 0.930 . S
H1303 C1315 0.929 . S
H1304 C1318 0.930 . S
H1305 C1320 0.960 . S
H1306 C1320 0.960 . S
H1307 C1320 0.960 . S
C1308 H1300 0.929 . S
C1308 C1309 1.377 . S
C1308 C1310 1.384 . S
C1309 C1308 1.377 . S
C1309 C1315 1.390 . S
C1310 H1301 0.930 . S
C1310 C1308 1.384 . S
C1310 C1311 1.372 . S
C1311 C1310 1.372 . S
C1311 C1312 1.400 . S
C1311 C1316 1.490 . S
C1312 H1302 0.930 . S
C1312 C1311 1.400 . S
C1312 C1315 1.386 . S
H1313 C1329 0.930 . S
H1314 C1330 0.931 . S
C1315 H1303 0.929 . S
C1315 C1309 1.390 . S
C1315 C1312 1.386 . S
C1316 C1311 1.490 . S
C1316 C1318 1.395 . S
C1316 C1319 1.403 . S
H1317 C1323 0.930 . S
C1318 H1304 0.930 . S
C1318 C1316 1.395 . S
C1318 C1321 1.403 . S
C1319 C1316 1.403 . S
C1319 C1320 1.524 . S
C1319 C1323 1.400 . S
C1320 H1305 0.960 . S
C1320 H1306 0.960 . S
C1320 H1307 0.960 . S
C1320 C1319 1.524 . S
C1321 C1318 1.403 . S
C1321 C1322 1.392 . S
C1321 C1325 1.495 . S
C1322 C1321 1.392 . S
C1322 C1323 1.385 . S
C1322 C1324 1.478 . S
C1323 H1317 0.930 . S
C1323 C1319 1.400 . S
C1323 C1322 1.385 . S
C1324 C1322 1.478 . S
C1324 C1326 1.381 . S
C1324 C1330 1.383 . S
C1325 C1321 1.495 . S
C1325 H1331 0.959 . S
C1325 H1332 0.961 . S
C1325 H1333 0.960 . S
C1326 C1324 1.381 . S
C1326 C1327 1.394 . S
C1326 H1334 0.930 . S
C1327 C1326 1.394 . S
C1327 C1328 1.383 . S
C1327 H1335 0.929 . S
C1328 C1327 1.383 . S
C1328 C1329 1.377 . S
C1329 H1313 0.930 . S
C1329 C1328 1.377 . S
C1329 C1330 1.379 . S
C1330 H1314 0.931 . S
C1330 C1324 1.383 . S
C1330 C1329 1.379 . S
H1331 C1325 0.959 . S
H1332 C1325 0.961 . S
H1333 C1325 0.960 . S
H1334 C1326 0.930 . S
H1335 C1327 0.929 . S
H1336 C1344 0.929 . S
H1337 C1346 0.930 . S
H1338 C1348 0.930 . S
H1339 C1351 0.929 . S
H1340 C1354 0.930 . S
H1341 C1356 0.960 . S
H1342 C1356 0.960 . S
H1343 C1356 0.960 . S
C1344 H1336 0.929 . S
C1344 C1345 1.377 . S
C1344 C1346 1.384 . S
C1345 C1344 1.377 . S
C1345 C1351 1.390 . S
C1346 H1337 0.930 . S
C1346 C1344 1.384 . S
C1346 C1347 1.372 . S
C1347 C1346 1.372 . S
C1347 C1348 1.400 . S
C1347 C1352 1.490 . S
C1348 H1338 0.930 . S
C1348 C1347 1.400 . S
C1348 C1351 1.386 . S
H1349 C1365 0.930 . S
H1350 C1366 0.931 . S
C1351 H1339 0.929 . S
C1351 C1345 1.390 . S
C1351 C1348 1.386 . S
C1352 C1347 1.490 . S
C1352 C1354 1.395 . S
C1352 C1355 1.403 . S
H1353 C1359 0.930 . S
C1354 H1340 0.930 . S
C1354 C1352 1.395 . S
C1354 C1357 1.403 . S
C1355 C1352 1.403 . S
C1355 C1356 1.524 . S
C1355 C1359 1.400 . S
C1356 H1341 0.960 . S
C1356 H1342 0.960 . S
C1356 H1343 0.960 . S
C1356 C1355 1.524 . S
C1357 C1354 1.403 . S
C1357 C1358 1.392 . S
C1357 C1361 1.495 . S
C1358 C1357 1.392 . S
C1358 C1359 1.385 . S
C1358 C1360 1.478 . S
C1359 H1353 0.930 . S
C1359 C1355 1.400 . S
C1359 C1358 1.385 . S
C1360 C1358 1.478 . S
C1360 C1362 1.381 . S
C1360 C1366 1.383 . S
C1361 C1357 1.495 . S
C1361 H1367 0.959 . S
C1361 H1368 0.961 . S
C1361 H1369 0.960 . S
C1362 C1360 1.381 . S
C1362 C1363 1.394 . S
C1362 H1370 0.930 . S
C1363 C1362 1.394 . S
C1363 C1364 1.383 . S
C1363 H1371 0.929 . S
C1364 C1363 1.383 . S
C1364 C1365 1.377 . S
C1365 H1349 0.930 . S
C1365 C1364 1.377 . S
C1365 C1366 1.379 . S
C1366 H1350 0.931 . S
C1366 C1360 1.383 . S
C1366 C1365 1.379 . S
H1367 C1361 0.959 . S
H1368 C1361 0.961 . S
H1369 C1361 0.960 . S
H1370 C1362 0.930 . S
H1371 C1363 0.929 . S
H1372 C1380 0.929 . S
H1373 C1382 0.930 . S
H1374 C1384 0.930 . S
H1375 C1387 0.929 . S
H1376 C1390 0.930 . S
H1377 C1392 0.960 . S
H1378 C1392 0.960 . S
H1379 C1392 0.960 . S
C1380 H1372 0.929 . S
C1380 C1381 1.377 . S
C1380 C1382 1.384 . S
C1381 C1380 1.377 . S
C1381 C1387 1.390 . S
C1382 H1373 0.930 . S
C1382 C1380 1.384 . S
C1382 C1383 1.372 . S
C1383 C1382 1.372 . S
C1383 C1384 1.400 . S
C1383 C1388 1.490 . S
C1384 H1374 0.930 . S
C1384 C1383 1.400 . S
C1384 C1387 1.386 . S
H1385 C1401 0.930 . S
H1386 C1402 0.931 . S
C1387 H1375 0.929 . S
C1387 C1381 1.390 . S
C1387 C1384 1.386 . S
C1388 C1383 1.490 . S
C1388 C1390 1.395 . S
C1388 C1391 1.403 . S
H1389 C1395 0.930 . S
C1390 H1376 0.930 . S
C1390 C1388 1.395 . S
C1390 C1393 1.403 . S
C1391 C1388 1.403 . S
C1391 C1392 1.524 . S
C1391 C1395 1.400 . S
C1392 H1377 0.960 . S
C1392 H1378 0.960 . S
C1392 H1379 0.960 . S
C1392 C1391 1.524 . S
C1393 C1390 1.403 . S
C1393 C1394 1.392 . S
C1393 C1397 1.495 . S
C1394 C1393 1.392 . S
C1394 C1395 1.385 . S
C1394 C1396 1.478 . S
C1395 H1389 0.930 . S
C1395 C1391 1.400 . S
C1395 C1394 1.385 . S
C1396 C1394 1.478 . S
C1396 C1398 1.381 . S
C1396 C1402 1.383 . S
C1397 C1393 1.495 . S
C1397 H1403 0.959 . S
C1397 H1404 0.961 . S
C1397 H1405 0.960 . S
C1398 C1396 1.381 . S
C1398 C1399 1.394 . S
C1398 H1406 0.930 . S
C1399 C1398 1.394 . S
C1399 C1400 1.383 . S
C1399 H1407 0.929 . S
C1400 C1399 1.383 . S
C1400 C1401 1.377 . S
C1401 H1385 0.930 . S
C1401 C1400 1.377 . S
C1401 C1402 1.379 . S
C1402 H1386 0.931 . S
C1402 C1396 1.383 . S
C1402 C1401 1.379 . S
H1403 C1397 0.959 . S
H1404 C1397 0.961 . S
H1405 C1397 0.960 . S
H1406 C1398 0.930 . S
H1407 C1399 0.929 . S
H1408 C1416 0.929 . S
H1409 C1418 0.930 . S
H1410 C1420 0.930 . S
H1411 C1423 0.929 . S
H1412 C1426 0.930 . S
H1413 C1428 0.960 . S
H1414 C1428 0.960 . S
H1415 C1428 0.960 . S
C1416 H1408 0.929 . S
C1416 C1417 1.377 . S
C1416 C1418 1.384 . S
C1417 C1416 1.377 . S
C1417 C1423 1.390 . S
C1418 H1409 0.930 . S
C1418 C1416 1.384 . S
C1418 C1419 1.372 . S
C1419 C1418 1.372 . S
C1419 C1420 1.400 . S
C1419 C1424 1.490 . S
C1420 H1410 0.930 . S
C1420 C1419 1.400 . S
C1420 C1423 1.386 . S
H1421 C1437 0.930 . S
H1422 C1438 0.931 . S
C1423 H1411 0.929 . S
C1423 C1417 1.390 . S
C1423 C1420 1.386 . S
C1424 C1419 1.490 . S
C1424 C1426 1.395 . S
C1424 C1427 1.403 . S
H1425 C1431 0.930 . S
C1426 H1412 0.930 . S
C1426 C1424 1.395 . S
C1426 C1429 1.404 . S
C1427 C1424 1.403 . S
C1427 C1428 1.524 . S
C1427 C1431 1.400 . S
C1428 H1413 0.960 . S
C1428 H1414 0.960 . S
C1428 H1415 0.960 . S
C1428 C1427 1.524 . S
C1429 C1426 1.404 . S
C1429 C1430 1.382 . S
C1429 C1433 1.494 1_655 S
C1430 C1429 1.382 . S
C1430 C1431 1.418 . S
C1430 C1432 1.458 1_655 S
C1431 H1425 0.930 . S
C1431 C1427 1.400 . S
C1431 C1430 1.418 . S
C1432 C1430 1.458 1_455 S
C1432 C1434 1.381 . S
C1432 C1438 1.383 . S
C1433 C1429 1.494 1_455 S
C1433 H1439 0.959 . S
C1433 H1440 0.961 . S
C1433 H1441 0.960 . S
C1434 C1432 1.381 . S
C1434 C1435 1.394 . S
C1434 H1442 0.930 1_455 S
C1435 C1434 1.394 . S
C1435 C1436 1.383 . S
C1435 H1443 0.929 . S
C1436 C1435 1.383 . S
C1436 C1437 1.377 . S
C1437 H1421 0.930 . S
C1437 C1436 1.377 . S
C1437 C1438 1.379 . S
C1438 H1422 0.931 . S
C1438 C1432 1.383 . S
C1438 C1437 1.379 . S
H1439 C1433 0.959 . S
H1440 C1433 0.961 . S
H1441 C1433 0.960 . S
H1442 C1434 0.930 1_655 S
H1443 C1435 0.929 . S
H1444 C1452 0.929 . S
H1445 C1454 0.930 . S
H1446 C1456 0.930 . S
H1447 C1459 0.929 . S
H1448 C1462 0.930 . S
H1449 C1464 0.960 . S
H1450 C1464 0.960 . S
H1451 C1464 0.960 . S
C1452 H1444 0.929 . S
C1452 C1453 1.377 . S
C1452 C1454 1.384 . S
C1453 C1452 1.377 . S
C1453 C1459 1.390 . S
C1454 H1445 0.930 . S
C1454 C1452 1.384 . S
C1454 C1455 1.372 . S
C1455 C1454 1.372 . S
C1455 C1456 1.400 . S
C1455 C1460 1.490 . S
C1456 H1446 0.930 . S
C1456 C1455 1.400 . S
C1456 C1459 1.386 . S
H1457 C1473 0.930 . S
H1458 C1474 0.931 . S
C1459 H1447 0.929 . S
C1459 C1453 1.390 . S
C1459 C1456 1.386 . S
C1460 C1455 1.490 . S
C1460 C1462 1.395 . S
C1460 C1463 1.403 . S
H1461 C1467 0.930 . S
C1462 H1448 0.930 . S
C1462 C1460 1.395 . S
C1462 C1465 1.403 . S
C1463 C1460 1.403 . S
C1463 C1464 1.524 . S
C1463 C1467 1.400 . S
C1464 H1449 0.960 . S
C1464 H1450 0.960 . S
C1464 H1451 0.960 . S
C1464 C1463 1.524 . S
C1465 C1462 1.403 . S
C1465 C1466 1.392 . S
C1465 C1469 1.495 . S
C1466 C1465 1.392 . S
C1466 C1467 1.385 . S
C1466 C1468 1.478 . S
C1467 H1461 0.930 . S
C1467 C1463 1.400 . S
C1467 C1466 1.385 . S
C1468 C1466 1.478 . S
C1468 C1470 1.381 . S
C1468 C1474 1.383 . S
C1469 C1465 1.495 . S
C1469 H1475 0.959 . S
C1469 H1476 0.961 . S
C1469 H1477 0.960 . S
C1470 C1468 1.381 . S
C1470 C1471 1.394 . S
C1470 H1478 0.930 . S
C1471 C1470 1.394 . S
C1471 C1472 1.383 . S
C1471 H1479 0.929 . S
C1472 C1471 1.383 . S
C1472 C1473 1.377 . S
C1473 H1457 0.930 . S
C1473 C1472 1.377 . S
C1473 C1474 1.379 . S
C1474 H1458 0.931 . S
C1474 C1468 1.383 . S
C1474 C1473 1.379 . S
H1475 C1469 0.959 . S
H1476 C1469 0.961 . S
H1477 C1469 0.960 . S
H1478 C1470 0.930 . S
H1479 C1471 0.929 . S
H1480 C1488 0.929 . S
H1481 C1490 0.930 . S
H1482 C1492 0.930 . S
H1483 C1495 0.929 . S
H1484 C1498 0.930 . S
H1485 C1500 0.960 . S
H1486 C1500 0.960 . S
H1487 C1500 0.960 . S
C1488 H1480 0.929 . S
C1488 C1489 1.377 . S
C1488 C1490 1.384 . S
C1489 C1488 1.377 . S
C1489 C1495 1.390 . S
C1490 H1481 0.930 . S
C1490 C1488 1.384 . S
C1490 C1491 1.372 . S
C1491 C1490 1.372 . S
C1491 C1492 1.400 . S
C1491 C1496 1.490 . S
C1492 H1482 0.930 . S
C1492 C1491 1.400 . S
C1492 C1495 1.386 . S
H1493 C1509 0.930 . S
H1494 C1510 0.931 . S
C1495 H1483 0.929 . S
C1495 C1489 1.390 . S
C1495 C1492 1.386 . S
C1496 C1491 1.490 . S
C1496 C1498 1.395 . S
C1496 C1499 1.403 . S
H1497 C1503 0.930 . S
C1498 H1484 0.930 . S
C1498 C1496 1.395 . S
C1498 C1501 1.403 . S
C1499 C1496 1.403 . S
C1499 C1500 1.524 . S
C1499 C1503 1.400 . S
C1500 H1485 0.960 . S
C1500 H1486 0.960 . S
C1500 H1487 0.960 . S
C1500 C1499 1.524 . S
C1501 C1498 1.403 . S
C1501 C1502 1.392 . S
C1501 C1505 1.495 . S
C1502 C1501 1.392 . S
C1502 C1503 1.385 . S
C1502 C1504 1.478 . S
C1503 H1497 0.930 . S
C1503 C1499 1.400 . S
C1503 C1502 1.385 . S
C1504 C1502 1.478 . S
C1504 C1506 1.381 . S
C1504 C1510 1.383 . S
C1505 C1501 1.495 . S
C1505 H1511 0.959 . S
C1505 H1512 0.961 . S
C1505 H1513 0.960 . S
C1506 C1504 1.381 . S
C1506 C1507 1.394 . S
C1506 H1514 0.930 . S
C1507 C1506 1.394 . S
C1507 C1508 1.383 . S
C1507 H1515 0.929 . S
C1508 C1507 1.383 . S
C1508 C1509 1.377 . S
C1509 H1493 0.930 . S
C1509 C1508 1.377 . S
C1509 C1510 1.379 . S
C1510 H1494 0.931 . S
C1510 C1504 1.383 . S
C1510 C1509 1.379 . S
H1511 C1505 0.959 . S
H1512 C1505 0.961 . S
H1513 C1505 0.960 . S
H1514 C1506 0.930 . S
H1515 C1507 0.929 . S
H1516 C1524 0.929 . S
H1517 C1526 0.930 . S
H1518 C1528 0.930 . S
H1519 C1531 0.929 . S
H1520 C1534 0.930 . S
H1521 C1536 0.960 . S
H1522 C1536 0.960 . S
H1523 C1536 0.960 . S
C1524 H1516 0.929 . S
C1524 C1525 1.377 . S
C1524 C1526 1.384 . S
C1525 C1524 1.377 . S
C1525 C1531 1.390 . S
C1526 H1517 0.930 . S
C1526 C1524 1.384 . S
C1526 C1527 1.372 . S
C1527 C1526 1.372 . S
C1527 C1528 1.400 . S
C1527 C1532 1.490 . S
C1528 H1518 0.930 . S
C1528 C1527 1.400 . S
C1528 C1531 1.386 . S
H1529 C1545 0.930 . S
H1530 C1546 0.931 . S
C1531 H1519 0.929 . S
C1531 C1525 1.390 . S
C1531 C1528 1.386 . S
C1532 C1527 1.490 . S
C1532 C1534 1.395 . S
C1532 C1535 1.403 . S
H1533 C1539 0.930 . S
C1534 H1520 0.930 . S
C1534 C1532 1.395 . S
C1534 C1537 1.403 . S
C1535 C1532 1.403 . S
C1535 C1536 1.524 . S
C1535 C1539 1.400 . S
C1536 H1521 0.960 . S
C1536 H1522 0.960 . S
C1536 H1523 0.960 . S
C1536 C1535 1.524 . S
C1537 C1534 1.403 . S
C1537 C1538 1.392 . S
C1537 C1541 1.495 . S
C1538 C1537 1.392 . S
C1538 C1539 1.385 . S
C1538 C1540 1.478 . S
C1539 H1533 0.930 . S
C1539 C1535 1.400 . S
C1539 C1538 1.385 . S
C1540 C1538 1.478 . S
C1540 C1542 1.381 . S
C1540 C1546 1.383 . S
C1541 C1537 1.495 . S
C1541 H1547 0.959 . S
C1541 H1548 0.961 . S
C1541 H1549 0.960 . S
C1542 C1540 1.381 . S
C1542 C1543 1.394 . S
C1542 H1550 0.930 . S
C1543 C1542 1.394 . S
C1543 C1544 1.383 . S
C1543 H1551 0.929 . S
C1544 C1543 1.383 . S
C1544 C1545 1.377 . S
C1545 H1529 0.930 . S
C1545 C1544 1.377 . S
C1545 C1546 1.379 . S
C1546 H1530 0.931 . S
C1546 C1540 1.383 . S
C1546 C1545 1.379 . S
H1547 C1541 0.959 . S
H1548 C1541 0.961 . S
H1549 C1541 0.960 . S
H1550 C1542 0.930 . S
H1551 C1543 0.929 . S
H1552 C1560 0.929 . S
H1553 C1562 0.930 . S
H1554 C1564 0.930 1_556 S
H1555 C1567 0.929 . S
H1556 C1570 0.930 . S
H1557 C1572 0.960 . S
H1558 C1572 0.960 . S
H1559 C1572 0.983 . S
C1560 H1552 0.929 . S
C1560 C1561 1.377 . S
C1560 C1562 1.384 . S
C1561 C1560 1.377 . S
C1561 C1567 1.390 1_554 S
C1562 H1553 0.930 . S
C1562 C1560 1.384 . S
C1562 C1563 1.372 . S
C1563 C1562 1.372 . S
C1563 C1564 1.400 . S
C1563 C1568 1.490 . S
C1564 H1554 0.930 1_554 S
C1564 C1563 1.400 . S
C1564 C1567 1.386 1_554 S
H1565 C1581 0.930 . S
H1566 C1582 0.931 . S
C1567 H1555 0.929 . S
C1567 C1561 1.390 1_556 S
C1567 C1564 1.386 1_556 S
C1568 C1563 1.490 . S
C1568 C1570 1.395 . S
C1568 C1571 1.403 . S
H1569 C1575 0.930 . S
C1570 H1556 0.930 . S
C1570 C1568 1.395 . S
C1570 C1573 1.403 . S
C1571 C1568 1.403 . S
C1571 C1572 1.524 . S
C1571 C1575 1.400 . S
C1572 H1557 0.960 . S
C1572 H1558 0.960 . S
C1572 H1559 0.983 . S
C1572 C1571 1.524 . S
C1573 C1570 1.403 . S
C1573 C1574 1.392 . S
C1573 C1577 1.495 1_565 S
C1574 C1573 1.392 . S
C1574 C1575 1.385 . S
C1574 C1576 1.478 . S
C1575 H1569 0.930 . S
C1575 C1571 1.400 . S
C1575 C1574 1.385 . S
C1576 C1574 1.478 . S
C1576 C1578 1.381 . S
C1576 C1582 1.383 . S
C1577 C1573 1.495 1_545 S
C1577 H1583 0.959 . S
C1577 H1584 0.961 . S
C1577 H1585 0.960 . S
C1578 C1576 1.381 . S
C1578 C1579 1.394 . S
C1578 H1586 0.930 . S
C1579 C1578 1.394 . S
C1579 C1580 1.383 . S
C1579 H1587 0.929 . S
C1580 C1579 1.383 . S
C1580 C1581 1.377 . S
C1581 H1565 0.930 . S
C1581 C1580 1.377 . S
C1581 C1582 1.379 . S
C1582 H1566 0.931 . S
C1582 C1576 1.383 . S
C1582 C1581 1.379 . S
H1583 C1577 0.959 . S
H1584 C1577 0.961 . S
H1585 C1577 0.960 . S
H1586 C1578 0.930 . S
H1587 C1579 0.929 . S
H1588 C1596 0.929 . S
H1589 C1598 0.930 . S
H1590 C1600 0.930 . S
H1591 C1603 0.929 . S
H1592 C1606 0.930 . S
H1593 C1608 0.960 . S
H1594 C1608 0.960 . S
H1595 C1608 0.960 . S
C1596 H1588 0.929 . S
C1596 C1597 1.377 . S
C1596 C1598 1.384 . S
C1597 C1596 1.377 . S
C1597 C1603 1.390 1_556 S
C1598 H1589 0.930 . S
C1598 C1596 1.384 . S
C1598 C1599 1.372 . S
C1599 C1598 1.372 . S
C1599 C1600 1.400 1_556 S
C1599 C1604 1.490 . S
C1600 H1590 0.930 . S
C1600 C1599 1.400 1_554 S
C1600 C1603 1.386 . S
H1601 C1617 0.930 . S
H1602 C1618 0.931 . S
C1603 H1591 0.929 . S
C1603 C1597 1.390 1_554 S
C1603 C1600 1.386 . S
C1604 C1599 1.490 . S
C1604 C1606 1.395 . S
C1604 C1607 1.403 1_556 S
H1605 C1611 0.930 . S
C1606 H1592 0.930 . S
C1606 C1604 1.395 . S
C1606 C1609 1.403 . S
C1607 C1604 1.403 1_554 S
C1607 C1608 1.524 . S
C1607 C1611 1.400 . S
C1608 H1593 0.960 . S
C1608 H1594 0.960 . S
C1608 H1595 0.960 . S
C1608 C1607 1.524 . S
C1609 C1606 1.403 . S
C1609 C1610 1.392 . S
C1609 C1613 1.495 . S
C1610 C1609 1.392 . S
C1610 C1611 1.385 1_556 S
C1610 C1612 1.478 . S
C1611 H1605 0.930 . S
C1611 C1607 1.400 . S
C1611 C1610 1.385 1_554 S
C1612 C1610 1.478 . S
C1612 C1614 1.381 . S
C1612 C1618 1.383 1_556 S
C1613 C1609 1.495 . S
C1613 H1619 0.959 . S
C1613 H1620 0.961 . S
C1613 H1621 0.960 . S
C1614 C1612 1.381 . S
C1614 C1615 1.394 . S
C1614 H1622 0.930 . S
C1615 C1614 1.394 . S
C1615 C1616 1.383 1_556 S
C1615 H1623 0.929 . S
C1616 C1615 1.383 1_554 S
C1616 C1617 1.377 . S
C1617 H1601 0.930 . S
C1617 C1616 1.377 . S
C1617 C1618 1.379 . S
C1618 H1602 0.931 . S
C1618 C1612 1.383 1_554 S
C1618 C1617 1.379 . S
H1619 C1613 0.959 . S
H1620 C1613 0.961 . S
H1621 C1613 0.960 . S
H1622 C1614 0.930 . S
H1623 C1615 0.929 . S
H1624 C1632 0.929 . S
H1625 C1634 0.930 . S
H1626 C1636 0.930 . S
H1627 C1639 0.929 . S
H1628 C1642 0.930 . S
H1629 C1644 0.960 . S
H1630 C1644 0.960 . S
H1631 C1644 0.960 . S
C1632 H1624 0.929 . S
C1632 C1633 1.377 . S
C1632 C1634 1.384 . S
C1633 C1632 1.377 . S
C1633 C1639 1.390 . S
C1634 H1625 0.930 . S
C1634 C1632 1.384 . S
C1634 C1635 1.372 . S
C1635 C1634 1.372 . S
C1635 C1636 1.400 . S
C1635 C1640 1.490 . S
C1636 H1626 0.930 . S
C1636 C1635 1.400 . S
C1636 C1639 1.386 . S
H1637 C1653 0.930 . S
H1638 C1654 0.931 . S
C1639 H1627 0.929 . S
C1639 C1633 1.390 . S
C1639 C1636 1.386 . S
C1640 C1635 1.490 . S
C1640 C1642 1.395 . S
C1640 C1643 1.403 . S
H1641 C1647 0.930 . S
C1642 H1628 0.930 . S
C1642 C1640 1.395 . S
C1642 C1645 1.403 . S
C1643 C1640 1.403 . S
C1643 C1644 1.524 . S
C1643 C1647 1.400 . S
C1644 H1629 0.960 . S
C1644 H1630 0.960 . S
C1644 H1631 0.960 . S
C1644 C1643 1.524 . S
C1645 C1642 1.403 . S
C1645 C1646 1.392 . S
C1645 C1649 1.495 . S
C1646 C1645 1.392 . S
C1646 C1647 1.385 . S
C1646 C1648 1.478 . S
C1647 H1641 0.930 . S
C1647 C1643 1.400 . S
C1647 C1646 1.385 . S
C1648 C1646 1.478 . S
C1648 C1650 1.381 . S
C1648 C1654 1.383 . S
C1649 C1645 1.495 . S
C1649 H1655 0.959 . S
C1649 H1656 0.961 . S
C1649 H1657 0.960 . S
C1650 C1648 1.381 . S
C1650 C1651 1.394 . S
C1650 H1658 0.930 . S
C1651 C1650 1.394 . S
C1651 C1652 1.383 . S
C1651 H1659 0.929 . S
C1652 C1651 1.383 . S
C1652 C1653 1.377 . S
C1653 H1637 0.930 . S
C1653 C1652 1.377 . S
C1653 C1654 1.379 . S
C1654 H1638 0.931 . S
C1654 C1648 1.383 . S
C1654 C1653 1.379 . S
H1655 C1649 0.959 . S
H1656 C1649 0.961 . S
H1657 C1649 0.960 . S
H1658 C1650 0.930 . S
H1659 C1651 0.929 . S
H1660 C1668 0.929 . S
H1661 C1670 0.930 . S
H1662 C1672 0.930 . S
H1663 C1675 0.929 . S
H1664 C1678 0.930 . S
H1665 C1680 0.960 . S
H1666 C1680 0.960 . S
H1667 C1680 0.960 . S
C1668 H1660 0.929 . S
C1668 C1669 1.377 . S
C1668 C1670 1.384 . S
C1669 C1668 1.377 . S
C1669 C1675 1.390 . S
C1670 H1661 0.930 . S
C1670 C1668 1.384 . S
C1670 C1671 1.372 . S
C1671 C1670 1.372 . S
C1671 C1672 1.400 . S
C1671 C1676 1.490 . S
C1672 H1662 0.930 . S
C1672 C1671 1.400 . S
C1672 C1675 1.386 . S
H1673 C1689 0.930 . S
H1674 C1690 0.931 . S
C1675 H1663 0.929 . S
C1675 C1669 1.390 . S
C1675 C1672 1.386 . S
C1676 C1671 1.490 . S
C1676 C1678 1.395 . S
C1676 C1679 1.403 . S
H1677 C1683 0.930 . S
C1678 H1664 0.930 . S
C1678 C1676 1.395 . S
C1678 C1681 1.403 . S
C1679 C1676 1.403 . S
C1679 C1680 1.524 . S
C1679 C1683 1.400 . S
C1680 H1665 0.960 . S
C1680 H1666 0.960 . S
C1680 H1667 0.960 . S
C1680 C1679 1.524 . S
C1681 C1678 1.403 . S
C1681 C1682 1.392 . S
C1681 C1685 1.495 . S
C1682 C1681 1.392 . S
C1682 C1683 1.385 . S
C1682 C1684 1.478 . S
C1683 H1677 0.930 . S
C1683 C1679 1.400 . S
C1683 C1682 1.385 . S
C1684 C1682 1.478 . S
C1684 C1686 1.381 . S
C1684 C1690 1.383 . S
C1685 C1681 1.495 . S
C1685 H1691 0.959 . S
C1685 H1692 0.961 . S
C1685 H1693 0.960 . S
C1686 C1684 1.381 . S
C1686 C1687 1.394 . S
C1686 H1694 0.930 . S
C1687 C1686 1.394 . S
C1687 C1688 1.383 . S
C1687 H1695 0.929 . S
C1688 C1687 1.383 . S
C1688 C1689 1.377 . S
C1689 H1673 0.930 . S
C1689 C1688 1.377 . S
C1689 C1690 1.379 . S
C1690 H1674 0.931 . S
C1690 C1684 1.383 . S
C1690 C1689 1.379 . S
H1691 C1685 0.959 . S
H1692 C1685 0.961 . S
H1693 C1685 0.960 . S
H1694 C1686 0.930 . S
H1695 C1687 0.929 . S
H1696 C1704 0.929 . S
H1697 C1706 0.930 . S
H1698 C1708 0.930 . S
H1699 C1711 0.929 . S
H1700 C1714 0.930 . S
H1701 C1716 0.960 . S
H1702 C1716 0.960 . S
H1703 C1716 0.960 . S
C1704 H1696 0.929 . S
C1704 C1705 1.377 . S
C1704 C1706 1.384 . S
C1705 C1704 1.377 . S
C1705 C1711 1.390 . S
C1706 H1697 0.930 . S
C1706 C1704 1.384 . S
C1706 C1707 1.372 . S
C1707 C1706 1.372 . S
C1707 C1708 1.400 . S
C1707 C1712 1.490 . S
C1708 H1698 0.930 . S
C1708 C1707 1.400 . S
C1708 C1711 1.386 . S
H1709 C1725 0.930 . S
H1710 C1726 0.931 . S
C1711 H1699 0.929 . S
C1711 C1705 1.390 . S
C1711 C1708 1.386 . S
C1712 C1707 1.490 . S
C1712 C1714 1.395 . S
C1712 C1715 1.403 . S
H1713 C1719 0.930 . S
C1714 H1700 0.930 . S
C1714 C1712 1.395 . S
C1714 C1717 1.403 . S
C1715 C1712 1.403 . S
C1715 C1716 1.524 . S
C1715 C1719 1.400 . S
C1716 H1701 0.960 . S
C1716 H1702 0.960 . S
C1716 H1703 0.960 . S
C1716 C1715 1.524 . S
C1717 C1714 1.403 . S
C1717 C1718 1.392 . S
C1717 C1721 1.495 . S
C1718 C1717 1.392 . S
C1718 C1719 1.385 . S
C1718 C1720 1.478 . S
C1719 H1713 0.930 . S
C1719 C1715 1.400 . S
C1719 C1718 1.385 . S
C1720 C1718 1.478 . S
C1720 C1722 1.381 . S
C1720 C1726 1.383 . S
C1721 C1717 1.495 . S
C1721 H1727 0.959 . S
C1721 H1728 0.961 . S
C1721 H1729 0.960 . S
C1722 C1720 1.381 . S
C1722 C1723 1.394 . S
C1722 H1730 0.930 . S
C1723 C1722 1.394 . S
C1723 C1724 1.383 . S
C1723 H1731 0.929 . S
C1724 C1723 1.383 . S
C1724 C1725 1.377 . S
C1725 H1709 0.930 . S
C1725 C1724 1.377 . S
C1725 C1726 1.379 . S
C1726 H1710 0.931 . S
C1726 C1720 1.383 . S
C1726 C1725 1.379 . S
H1727 C1721 0.959 . S
H1728 C1721 0.961 . S
H1729 C1721 0.960 . S
H1730 C1722 0.930 . S
H1731 C1723 0.929 . S
H1732 C1740 0.929 . S
H1733 C1742 0.930 . S
H1734 C1744 0.930 . S
H1735 C1747 0.929 . S
H1736 C1750 0.930 . S
H1737 C1752 0.960 . S
H1738 C1752 0.960 . S
H1739 C1752 0.960 . S
C1740 H1732 0.929 . S
C1740 C1741 1.377 . S
C1740 C1742 1.384 . S
C1741 C1740 1.377 . S
C1741 C1747 1.390 . S
C1742 H1733 0.930 . S
C1742 C1740 1.384 . S
C1742 C1743 1.372 . S
C1743 C1742 1.372 . S
C1743 C1744 1.400 . S
C1743 C1748 1.490 . S
C1744 H1734 0.930 . S
C1744 C1743 1.400 . S
C1744 C1747 1.386 . S
H1745 C1761 0.930 . S
H1746 C1762 0.931 . S
C1747 H1735 0.929 . S
C1747 C1741 1.390 . S
C1747 C1744 1.386 . S
C1748 C1743 1.490 . S
C1748 C1750 1.395 . S
C1748 C1751 1.403 . S
H1749 C1755 0.930 . S
C1750 H1736 0.930 . S
C1750 C1748 1.395 . S
C1750 C1753 1.403 . S
C1751 C1748 1.403 . S
C1751 C1752 1.524 . S
C1751 C1755 1.400 . S
C1752 H1737 0.960 . S
C1752 H1738 0.960 . S
C1752 H1739 0.960 . S
C1752 C1751 1.524 . S
C1753 C1750 1.403 . S
C1753 C1754 1.392 . S
C1753 C1757 1.495 . S
C1754 C1753 1.392 . S
C1754 C1755 1.385 . S
C1754 C1756 1.478 . S
C1755 H1749 0.930 . S
C1755 C1751 1.400 . S
C1755 C1754 1.385 . S
C1756 C1754 1.478 . S
C1756 C1758 1.381 . S
C1756 C1762 1.383 . S
C1757 C1753 1.495 . S
C1757 H1763 0.959 . S
C1757 H1764 0.961 . S
C1757 H1765 0.960 . S
C1758 C1756 1.381 . S
C1758 C1759 1.394 . S
C1758 H1766 0.930 . S
C1759 C1758 1.394 . S
C1759 C1760 1.383 . S
C1759 H1767 0.929 . S
C1760 C1759 1.383 . S
C1760 C1761 1.377 . S
C1761 H1745 0.930 . S
C1761 C1760 1.377 . S
C1761 C1762 1.379 . S
C1762 H1746 0.931 . S
C1762 C1756 1.383 . S
C1762 C1761 1.379 . S
H1763 C1757 0.959 . S
H1764 C1757 0.961 . S
H1765 C1757 0.960 . S
H1766 C1758 0.930 . S
H1767 C1759 0.929 . S
H1768 C1776 0.929 . S
H1769 C1778 0.930 . S
H1770 C1780 0.930 . S
H1771 C1783 0.929 . S
H1772 C1786 0.930 . S
H1773 C1788 0.960 . S
H1774 C1788 0.960 . S
H1775 C1788 0.960 . S
C1776 H1768 0.929 . S
C1776 C1777 1.377 . S
C1776 C1778 1.384 . S
C1777 C1776 1.377 . S
C1777 C1783 1.390 . S
C1778 H1769 0.930 . S
C1778 C1776 1.384 . S
C1778 C1779 1.372 . S
C1779 C1778 1.372 . S
C1779 C1780 1.400 . S
C1779 C1784 1.490 . S
C1780 H1770 0.930 . S
C1780 C1779 1.400 . S
C1780 C1783 1.386 . S
H1781 C1797 0.930 . S
H1782 C1798 0.931 . S
C1783 H1771 0.929 . S
C1783 C1777 1.390 . S
C1783 C1780 1.386 . S
C1784 C1779 1.490 . S
C1784 C1786 1.395 . S
C1784 C1787 1.403 . S
H1785 C1791 0.930 . S
C1786 H1772 0.930 . S
C1786 C1784 1.395 . S
C1786 C1789 1.403 . S
C1787 C1784 1.403 . S
C1787 C1788 1.524 . S
C1787 C1791 1.400 . S
C1788 H1773 0.960 . S
C1788 H1774 0.960 . S
C1788 H1775 0.960 . S
C1788 C1787 1.524 . S
C1789 C1786 1.403 . S
C1789 C1790 1.392 . S
C1789 C1793 1.495 . S
C1790 C1789 1.392 . S
C1790 C1791 1.385 . S
C1790 C1792 1.478 . S
C1791 H1785 0.930 . S
C1791 C1787 1.400 . S
C1791 C1790 1.385 . S
C1792 C1790 1.478 . S
C1792 C1794 1.381 . S
C1792 C1798 1.383 . S
C1793 C1789 1.495 . S
C1793 H1799 0.959 . S
C1793 H1800 0.961 . S
C1793 H1801 0.960 . S
C1794 C1792 1.381 . S
C1794 C1795 1.394 . S
C1794 H1802 0.930 . S
C1795 C1794 1.394 . S
C1795 C1796 1.383 . S
C1795 H1803 0.929 . S
C1796 C1795 1.383 . S
C1796 C1797 1.377 . S
C1797 H1781 0.930 . S
C1797 C1796 1.377 . S
C1797 C1798 1.379 . S
C1798 H1782 0.931 . S
C1798 C1792 1.383 . S
C1798 C1797 1.379 . S
H1799 C1793 0.959 . S
H1800 C1793 0.961 . S
H1801 C1793 0.960 . S
H1802 C1794 0.930 . S
H1803 C1795 0.929 . S
H1804 C1812 0.929 . S
H1805 C1814 0.930 . S
H1806 C1816 0.930 . S
H1807 C1819 0.929 . S
H1808 C1822 0.930 . S
H1809 C1824 0.960 . S
H1810 C1824 0.960 . S
H1811 C1824 0.960 . S
C1812 H1804 0.929 . S
C1812 C1813 1.377 . S
C1812 C1814 1.384 . S
C1813 C1812 1.377 . S
C1813 C1819 1.390 . S
C1814 H1805 0.930 . S
C1814 C1812 1.384 . S
C1814 C1815 1.372 . S
C1815 C1814 1.372 . S
C1815 C1816 1.400 . S
C1815 C1820 1.490 . S
C1816 H1806 0.930 . S
C1816 C1815 1.400 . S
C1816 C1819 1.386 . S
H1817 C1833 0.930 . S
H1818 C1834 0.931 . S
C1819 H1807 0.929 . S
C1819 C1813 1.390 . S
C1819 C1816 1.386 . S
C1820 C1815 1.490 . S
C1820 C1822 1.395 . S
C1820 C1823 1.403 . S
H1821 C1827 0.930 . S
C1822 H1808 0.930 . S
C1822 C1820 1.395 . S
C1822 C1825 1.403 . S
C1823 C1820 1.403 . S
C1823 C1824 1.524 . S
C1823 C1827 1.400 . S
C1824 H1809 0.960 . S
C1824 H1810 0.960 . S
C1824 H1811 0.960 . S
C1824 C1823 1.524 . S
C1825 C1822 1.403 . S
C1825 C1826 1.392 . S
C1825 C1829 1.495 . S
C1826 C1825 1.392 . S
C1826 C1827 1.385 . S
C1826 C1828 1.478 . S
C1827 H1821 0.930 . S
C1827 C1823 1.400 . S
C1827 C1826 1.385 . S
C1828 C1826 1.478 . S
C1828 C1830 1.381 . S
C1828 C1834 1.383 . S
C1829 C1825 1.495 . S
C1829 H1835 0.959 . S
C1829 H1836 0.961 . S
C1829 H1837 0.960 . S
C1830 C1828 1.381 . S
C1830 C1831 1.394 . S
C1830 H1838 0.930 . S
C1831 C1830 1.394 . S
C1831 C1832 1.383 . S
C1831 H1839 0.929 . S
C1832 C1831 1.383 . S
C1832 C1833 1.377 . S
C1833 H1817 0.930 . S
C1833 C1832 1.377 . S
C1833 C1834 1.379 . S
C1834 H1818 0.931 . S
C1834 C1828 1.383 . S
C1834 C1833 1.379 . S
H1835 C1829 0.959 . S
H1836 C1829 0.961 . S
H1837 C1829 0.960 . S
H1838 C1830 0.930 . S
H1839 C1831 0.929 . S
H1840 C1848 0.929 . S
H1841 C1850 0.930 . S
H1842 C1852 0.930 . S
H1843 C1855 0.929 . S
H1844 C1858 0.930 . S
H1845 C1860 0.960 . S
H1846 C1860 0.960 . S
H1847 C1860 0.960 . S
C1848 H1840 0.929 . S
C1848 C1849 1.377 . S
C1848 C1850 1.384 . S
C1849 C1848 1.377 . S
C1849 C1855 1.390 . S
C1850 H1841 0.930 . S
C1850 C1848 1.384 . S
C1850 C1851 1.372 . S
C1851 C1850 1.372 . S
C1851 C1852 1.400 . S
C1851 C1856 1.490 . S
C1852 H1842 0.930 . S
C1852 C1851 1.400 . S
C1852 C1855 1.386 . S
H1853 C1869 0.930 . S
H1854 C1870 0.931 . S
C1855 H1843 0.929 . S
C1855 C1849 1.390 . S
C1855 C1852 1.386 . S
C1856 C1851 1.490 . S
C1856 C1858 1.395 . S
C1856 C1859 1.403 . S
H1857 C1863 0.930 . S
C1858 H1844 0.930 . S
C1858 C1856 1.395 . S
C1858 C1861 1.403 . S
C1859 C1856 1.403 . S
C1859 C1860 1.524 . S
C1859 C1863 1.400 . S
C1860 H1845 0.960 . S
C1860 H1846 0.960 . S
C1860 H1847 0.960 . S
C1860 C1859 1.524 . S
C1861 C1858 1.403 . S
C1861 C1862 1.392 . S
C1861 C1865 1.495 . S
C1862 C1861 1.392 . S
C1862 C1863 1.385 . S
C1862 C1864 1.478 . S
C1863 H1857 0.930 . S
C1863 C1859 1.400 . S
C1863 C1862 1.385 . S
C1864 C1862 1.478 . S
C1864 C1866 1.381 . S
C1864 C1870 1.383 . S
C1865 C1861 1.495 . S
C1865 H1871 0.959 . S
C1865 H1872 0.961 . S
C1865 H1873 0.960 . S
C1866 C1864 1.381 . S
C1866 C1867 1.394 . S
C1866 H1874 0.930 . S
C1867 C1866 1.394 . S
C1867 C1868 1.383 . S
C1867 H1875 0.929 . S
C1868 C1867 1.383 . S
C1868 C1869 1.377 . S
C1869 H1853 0.930 . S
C1869 C1868 1.377 . S
C1869 C1870 1.379 . S
C1870 H1854 0.931 . S
C1870 C1864 1.383 . S
C1870 C1869 1.379 . S
H1871 C1865 0.959 . S
H1872 C1865 0.961 . S
H1873 C1865 0.960 . S
H1874 C1866 0.930 . S
H1875 C1867 0.929 . S
H1876 C1884 0.929 . S
H1877 C1886 0.930 . S
H1878 C1888 0.930 . S
H1879 C1891 0.929 . S
H1880 C1894 0.930 . S
H1881 C1896 0.960 . S
H1882 C1896 0.960 . S
H1883 C1896 0.960 . S
C1884 H1876 0.929 . S
C1884 C1885 1.377 . S
C1884 C1886 1.384 . S
C1885 C1884 1.377 . S
C1885 C1891 1.390 . S
C1886 H1877 0.930 . S
C1886 C1884 1.384 . S
C1886 C1887 1.372 . S
C1887 C1886 1.372 . S
C1887 C1888 1.400 . S
C1887 C1892 1.490 . S
C1888 H1878 0.930 . S
C1888 C1887 1.400 . S
C1888 C1891 1.386 . S
H1889 C1905 0.930 . S
H1890 C1906 0.931 . S
C1891 H1879 0.929 . S
C1891 C1885 1.390 . S
C1891 C1888 1.386 . S
C1892 C1887 1.490 . S
C1892 C1894 1.395 . S
C1892 C1895 1.403 . S
H1893 C1899 0.930 . S
C1894 H1880 0.930 . S
C1894 C1892 1.395 . S
C1894 C1897 1.403 . S
C1895 C1892 1.403 . S
C1895 C1896 1.524 . S
C1895 C1899 1.400 . S
C1896 H1881 0.960 . S
C1896 H1882 0.960 . S
C1896 H1883 0.960 . S
C1896 C1895 1.524 . S
C1897 C1894 1.403 . S
C1897 C1898 1.392 . S
C1897 C1901 1.495 . S
C1898 C1897 1.392 . S
C1898 C1899 1.385 . S
C1898 C1900 1.478 . S
C1899 H1893 0.930 . S
C1899 C1895 1.400 . S
C1899 C1898 1.385 . S
C1900 C1898 1.478 . S
C1900 C1902 1.381 . S
C1900 C1906 1.383 . S
C1901 C1897 1.495 . S
C1901 H1907 0.959 . S
C1901 H1908 0.961 . S
C1901 H1909 0.960 . S
C1902 C1900 1.381 . S
C1902 C1903 1.394 . S
C1902 H1910 0.930 . S
C1903 C1902 1.394 . S
C1903 C1904 1.383 . S
C1903 H1911 0.929 . S
C1904 C1903 1.383 . S
C1904 C1905 1.377 . S
C1905 H1889 0.930 . S
C1905 C1904 1.377 . S
C1905 C1906 1.379 . S
C1906 H1890 0.931 . S
C1906 C1900 1.383 . S
C1906 C1905 1.379 . S
H1907 C1901 0.959 . S
H1908 C1901 0.961 . S
H1909 C1901 0.960 . S
H1910 C1902 0.930 . S
H1911 C1903 0.929 . S
H1912 C1920 0.929 . S
H1913 C1922 0.930 . S
H1914 C1924 0.930 . S
H1915 C1927 0.929 . S
H1916 C1930 0.930 . S
H1917 C1932 0.960 . S
H1918 C1932 0.960 . S
H1919 C1932 0.960 . S
C1920 H1912 0.929 . S
C1920 C1921 1.377 . S
C1920 C1922 1.384 . S
C1921 C1920 1.377 . S
C1921 C1927 1.390 . S
C1922 H1913 0.930 . S
C1922 C1920 1.384 . S
C1922 C1923 1.372 . S
C1923 C1922 1.372 . S
C1923 C1924 1.400 . S
C1923 C1928 1.490 . S
C1924 H1914 0.930 . S
C1924 C1923 1.400 . S
C1924 C1927 1.386 . S
H1925 C1941 0.930 . S
H1926 C1942 0.931 . S
C1927 H1915 0.929 . S
C1927 C1921 1.390 . S
C1927 C1924 1.386 . S
C1928 C1923 1.490 . S
C1928 C1930 1.395 . S
C1928 C1931 1.403 . S
H1929 C1935 0.930 . S
C1930 H1916 0.930 . S
C1930 C1928 1.395 . S
C1930 C1933 1.403 . S
C1931 C1928 1.403 . S
C1931 C1932 1.524 . S
C1931 C1935 1.400 . S
C1932 H1917 0.960 . S
C1932 H1918 0.960 . S
C1932 H1919 0.960 . S
C1932 C1931 1.524 . S
C1933 C1930 1.403 . S
C1933 C1934 1.392 . S
C1933 C1937 1.495 . S
C1934 C1933 1.392 . S
C1934 C1935 1.385 . S
C1934 C1936 1.478 . S
C1935 H1929 0.930 . S
C1935 C1931 1.400 . S
C1935 C1934 1.385 . S
C1936 C1934 1.478 . S
C1936 C1938 1.381 . S
C1936 C1942 1.383 . S
C1937 C1933 1.495 . S
C1937 H1943 0.959 . S
C1937 H1944 0.961 . S
C1937 H1945 0.960 . S
C1938 C1936 1.381 . S
C1938 C1939 1.394 . S
C1938 H1946 0.930 . S
C1939 C1938 1.394 . S
C1939 C1940 1.383 . S
C1939 H1947 0.929 . S
C1940 C1939 1.383 . S
C1940 C1941 1.377 . S
C1941 H1925 0.930 . S
C1941 C1940 1.377 . S
C1941 C1942 1.379 . S
C1942 H1926 0.931 . S
C1942 C1936 1.383 . S
C1942 C1941 1.379 . S
H1943 C1937 0.959 . S
H1944 C1937 0.961 . S
H1945 C1937 0.960 . S
H1946 C1938 0.930 . S
H1947 C1939 0.929 . S
H1948 C1956 0.929 . S
H1949 C1958 0.930 . S
H1950 C1960 0.930 . S
H1951 C1963 0.929 . S
H1952 C1966 0.930 . S
H1953 C1968 0.960 . S
H1954 C1968 0.960 . S
H1955 C1968 0.960 . S
C1956 H1948 0.929 . S
C1956 C1957 1.377 . S
C1956 C1958 1.384 . S
C1957 C1956 1.377 . S
C1957 C1963 1.390 . S
C1958 H1949 0.930 . S
C1958 C1956 1.384 . S
C1958 C1959 1.372 . S
C1959 C1958 1.372 . S
C1959 C1960 1.400 . S
C1959 C1964 1.490 . S
C1960 H1950 0.930 . S
C1960 C1959 1.400 . S
C1960 C1963 1.386 . S
H1961 C1977 0.930 . S
H1962 C1978 0.931 . S
C1963 H1951 0.929 . S
C1963 C1957 1.390 . S
C1963 C1960 1.386 . S
C1964 C1959 1.490 . S
C1964 C1966 1.395 . S
C1964 C1967 1.403 . S
H1965 C1971 0.930 . S
C1966 H1952 0.930 . S
C1966 C1964 1.395 . S
C1966 C1969 1.403 . S
C1967 C1964 1.403 . S
C1967 C1968 1.524 . S
C1967 C1971 1.400 . S
C1968 H1953 0.960 . S
C1968 H1954 0.960 . S
C1968 H1955 0.960 . S
C1968 C1967 1.524 . S
C1969 C1966 1.403 . S
C1969 C1970 1.392 . S
C1969 C1973 1.495 . S
C1970 C1969 1.392 . S
C1970 C1971 1.385 . S
C1970 C1972 1.478 . S
C1971 H1965 0.930 . S
C1971 C1967 1.400 . S
C1971 C1970 1.385 . S
C1972 C1970 1.478 . S
C1972 C1974 1.381 . S
C1972 C1978 1.383 . S
C1973 C1969 1.495 . S
C1973 H1979 0.959 . S
C1973 H1980 0.961 . S
C1973 H1981 0.960 . S
C1974 C1972 1.381 . S
C1974 C1975 1.394 . S
C1974 H1982 0.930 . S
C1975 C1974 1.394 . S
C1975 C1976 1.383 . S
C1975 H1983 0.929 . S
C1976 C1975 1.383 . S
C1976 C1977 1.377 . S
C1977 H1961 0.930 . S
C1977 C1976 1.377 . S
C1977 C1978 1.379 . S
C1978 H1962 0.931 . S
C1978 C1972 1.383 . S
C1978 C1977 1.379 . S
H1979 C1973 0.959 . S
H1980 C1973 0.961 . S
H1981 C1973 0.960 . S
H1982 C1974 0.930 . S
H1983 C1975 0.929 . S
H1984 C1992 0.929 . S
H1985 C1994 0.930 . S
H1986 C1996 0.930 . S
H1987 C1999 0.929 . S
H1988 C2002 0.930 . S
H1989 C2004 0.960 . S
H1990 C2004 0.960 . S
H1991 C2004 0.960 . S
C1992 H1984 0.929 . S
C1992 C1993 1.377 . S
C1992 C1994 1.384 . S
C1993 C1992 1.377 . S
C1993 C1999 1.390 . S
C1994 H1985 0.930 . S
C1994 C1992 1.384 . S
C1994 C1995 1.372 . S
C1995 C1994 1.372 . S
C1995 C1996 1.400 . S
C1995 C2000 1.490 . S
C1996 H1986 0.930 . S
C1996 C1995 1.400 . S
C1996 C1999 1.386 . S
H1997 C2013 0.930 . S
H1998 C2014 0.931 . S
C1999 H1987 0.929 . S
C1999 C1993 1.390 . S
C1999 C1996 1.386 . S
C2000 C1995 1.490 . S
C2000 C2002 1.395 . S
C2000 C2003 1.403 . S
H2001 C2007 0.930 . S
C2002 H1988 0.930 . S
C2002 C2000 1.395 . S
C2002 C2005 1.403 . S
C2003 C2000 1.403 . S
C2003 C2004 1.524 . S
C2003 C2007 1.400 . S
C2004 H1989 0.960 . S
C2004 H1990 0.960 . S
C2004 H1991 0.960 . S
C2004 C2003 1.524 . S
C2005 C2002 1.403 . S
C2005 C2006 1.392 . S
C2005 C2009 1.495 . S
C2006 C2005 1.392 . S
C2006 C2007 1.385 . S
C2006 C2008 1.478 . S
C2007 H2001 0.930 . S
C2007 C2003 1.400 . S
C2007 C2006 1.385 . S
C2008 C2006 1.478 . S
C2008 C2010 1.381 . S
C2008 C2014 1.383 . S
C2009 C2005 1.495 . S
C2009 H2015 0.959 . S
C2009 H2016 0.961 . S
C2009 H2017 0.960 . S
C2010 C2008 1.381 . S
C2010 C2011 1.394 . S
C2010 H2018 0.930 . S
C2011 C2010 1.394 . S
C2011 C2012 1.383 . S
C2011 H2019 0.929 . S
C2012 C2011 1.383 . S
C2012 C2013 1.377 . S
C2013 H1997 0.930 . S
C2013 C2012 1.377 . S
C2013 C2014 1.379 . S
C2014 H1998 0.931 . S
C2014 C2008 1.383 . S
C2014 C2013 1.379 . S
H2015 C2009 0.959 . S
H2016 C2009 0.961 . S
H2017 C2009 0.960 . S
H2018 C2010 0.930 . S
H2019 C2011 0.929 . S
H2020 C2028 0.929 . S
H2021 C2030 0.930 . S
H2022 C2032 0.930 . S
H2023 C2035 0.929 . S
H2024 C2038 0.930 . S
H2025 C2040 0.960 . S
H2026 C2040 0.960 . S
H2027 C2040 0.960 . S
C2028 H2020 0.929 . S
C2028 C2029 1.377 . S
C2028 C2030 1.384 . S
C2029 C2028 1.377 . S
C2029 C2035 1.390 . S
C2030 H2021 0.930 . S
C2030 C2028 1.384 . S
C2030 C2031 1.372 . S
C2031 C2030 1.372 . S
C2031 C2032 1.400 . S
C2031 C2036 1.490 . S
C2032 H2022 0.930 . S
C2032 C2031 1.400 . S
C2032 C2035 1.386 . S
H2033 C2049 0.930 . S
H2034 C2050 0.931 . S
C2035 H2023 0.929 . S
C2035 C2029 1.390 . S
C2035 C2032 1.386 . S
C2036 C2031 1.490 . S
C2036 C2038 1.395 . S
C2036 C2039 1.403 . S
H2037 C2043 0.930 . S
C2038 H2024 0.930 . S
C2038 C2036 1.395 . S
C2038 C2041 1.403 . S
C2039 C2036 1.403 . S
C2039 C2040 1.524 . S
C2039 C2043 1.400 . S
C2040 H2025 0.960 . S
C2040 H2026 0.960 . S
C2040 H2027 0.960 . S
C2040 C2039 1.524 . S
C2041 C2038 1.403 . S
C2041 C2042 1.392 . S
C2041 C2045 1.495 . S
C2042 C2041 1.392 . S
C2042 C2043 1.385 . S
C2042 C2044 1.478 . S
C2043 H2037 0.930 . S
C2043 C2039 1.400 . S
C2043 C2042 1.385 . S
C2044 C2042 1.478 . S
C2044 C2046 1.381 . S
C2044 C2050 1.383 . S
C2045 C2041 1.495 . S
C2045 H2051 0.959 . S
C2045 H2052 0.961 . S
C2045 H2053 0.960 . S
C2046 C2044 1.381 . S
C2046 C2047 1.394 . S
C2046 H2054 0.930 . S
C2047 C2046 1.394 . S
C2047 C2048 1.383 . S
C2047 H2055 0.929 . S
C2048 C2047 1.383 . S
C2048 C2049 1.377 . S
C2049 H2033 0.930 . S
C2049 C2048 1.377 . S
C2049 C2050 1.379 . S
C2050 H2034 0.931 . S
C2050 C2044 1.383 . S
C2050 C2049 1.379 . S
H2051 C2045 0.959 . S
H2052 C2045 0.961 . S
H2053 C2045 0.960 . S
H2054 C2046 0.930 . S
H2055 C2047 0.929 . S
H2056 C2064 0.929 . S
H2057 C2066 0.930 . S
H2058 C2068 0.930 . S
H2059 C2071 0.929 . S
H2060 C2074 0.930 . S
H2061 C2076 0.960 . S
H2062 C2076 0.960 . S
H2063 C2076 0.960 . S
C2064 H2056 0.929 . S
C2064 C2065 1.377 . S
C2064 C2066 1.384 . S
C2065 C2064 1.377 . S
C2065 C2071 1.390 . S
C2066 H2057 0.930 . S
C2066 C2064 1.384 . S
C2066 C2067 1.372 . S
C2067 C2066 1.372 . S
C2067 C2068 1.400 . S
C2067 C2072 1.490 . S
C2068 H2058 0.930 . S
C2068 C2067 1.400 . S
C2068 C2071 1.386 . S
H2069 C2085 0.930 1_554 S
H2070 C2086 0.931 . S
C2071 H2059 0.929 . S
C2071 C2065 1.390 . S
C2071 C2068 1.386 . S
C2072 C2067 1.490 . S
C2072 C2074 1.395 . S
C2072 C2075 1.403 . S
H2073 C2079 0.930 . S
C2074 H2060 0.930 . S
C2074 C2072 1.395 . S
C2074 C2077 1.403 . S
C2075 C2072 1.403 . S
C2075 C2076 1.524 . S
C2075 C2079 1.400 . S
C2076 H2061 0.960 . S
C2076 H2062 0.960 . S
C2076 H2063 0.960 . S
C2076 C2075 1.524 . S
C2077 C2074 1.403 . S
C2077 C2078 1.392 . S
C2077 C2081 1.495 . S
C2078 C2077 1.392 . S
C2078 C2079 1.385 . S
C2078 C2080 1.478 . S
C2079 H2073 0.930 . S
C2079 C2075 1.400 . S
C2079 C2078 1.385 . S
C2080 C2078 1.478 . S
C2080 C2082 1.381 . S
C2080 C2086 1.383 . S
C2081 C2077 1.495 . S
C2081 H2087 0.959 . S
C2081 H2088 0.961 . S
C2081 H2089 0.960 . S
C2082 C2080 1.381 . S
C2082 C2083 1.394 . S
C2082 H2090 0.930 . S
C2083 C2082 1.394 . S
C2083 C2084 1.383 . S
C2083 H2091 0.929 . S
C2084 C2083 1.383 . S
C2084 C2085 1.377 . S
C2085 H2069 0.930 1_556 S
C2085 C2084 1.377 . S
C2085 C2086 1.379 . S
C2086 H2070 0.931 . S
C2086 C2080 1.383 . S
C2086 C2085 1.379 . S
H2087 C2081 0.959 . S
H2088 C2081 0.961 . S
H2089 C2081 0.960 . S
H2090 C2082 0.930 . S
H2091 C2083 0.929 . S
H2092 C2100 0.929 . S
H2093 C2102 0.930 . S
H2094 C2104 0.930 . S
H2095 C2107 0.929 . S
H2096 C2110 0.930 . S
H2097 C2112 0.960 . S
H2098 C2112 0.960 . S
H2099 C2112 0.960 . S
C2100 H2092 0.929 . S
C2100 C2101 1.377 . S
C2100 C2102 1.384 . S
C2101 C2100 1.377 . S
C2101 C2107 1.390 . S
C2102 H2093 0.930 . S
C2102 C2100 1.384 . S
C2102 C2103 1.372 . S
C2103 C2102 1.372 . S
C2103 C2104 1.400 . S
C2103 C2108 1.490 . S
C2104 H2094 0.930 . S
C2104 C2103 1.400 . S
C2104 C2107 1.386 . S
H2105 C2121 0.930 . S
H2106 C2122 0.931 . S
C2107 H2095 0.929 . S
C2107 C2101 1.390 . S
C2107 C2104 1.386 . S
C2108 C2103 1.490 . S
C2108 C2110 1.395 . S
C2108 C2111 1.403 . S
H2109 C2115 0.930 . S
C2110 H2096 0.930 . S
C2110 C2108 1.395 . S
C2110 C2113 1.403 . S
C2111 C2108 1.403 . S
C2111 C2112 1.524 . S
C2111 C2115 1.400 . S
C2112 H2097 0.960 . S
C2112 H2098 0.960 . S
C2112 H2099 0.960 . S
C2112 C2111 1.524 . S
C2113 C2110 1.403 . S
C2113 C2114 1.392 . S
C2113 C2117 1.495 . S
C2114 C2113 1.392 . S
C2114 C2115 1.385 . S
C2114 C2116 1.478 . S
C2115 H2109 0.930 . S
C2115 C2111 1.400 . S
C2115 C2114 1.385 . S
C2116 C2114 1.478 . S
C2116 C2118 1.381 . S
C2116 C2122 1.383 . S
C2117 C2113 1.495 . S
C2117 H2123 0.959 . S
C2117 H2124 0.961 . S
C2117 H2125 0.960 . S
C2118 C2116 1.381 . S
C2118 C2119 1.394 . S
C2118 H2126 0.930 . S
C2119 C2118 1.394 . S
C2119 C2120 1.383 . S
C2119 H2127 0.929 . S
C2120 C2119 1.383 . S
C2120 C2121 1.377 . S
C2121 H2105 0.930 . S
C2121 C2120 1.377 . S
C2121 C2122 1.379 . S
C2122 H2106 0.931 . S
C2122 C2116 1.383 . S
C2122 C2121 1.379 . S
H2123 C2117 0.959 . S
H2124 C2117 0.961 . S
H2125 C2117 0.960 . S
H2126 C2118 0.930 . S
H2127 C2119 0.929 . S
H2128 C2136 0.929 . S
H2129 C2138 0.930 . S
H2130 C2140 0.930 . S
H2131 C2143 0.929 . S
H2132 C2146 0.930 . S
H2133 C2148 0.960 . S
H2134 C2148 0.960 . S
H2135 C2148 0.960 . S
C2136 H2128 0.929 . S
C2136 C2137 1.377 1_565 S
C2136 C2138 1.384 . S
C2137 C2136 1.377 1_545 S
C2137 C2143 1.390 . S
C2138 H2129 0.930 . S
C2138 C2136 1.384 . S
C2138 C2139 1.372 1_565 S
C2139 C2138 1.372 1_545 S
C2139 C2140 1.400 . S
C2139 C2144 1.490 . S
C2140 H2130 0.930 . S
C2140 C2139 1.400 . S
C2140 C2143 1.386 . S
H2141 C2157 0.930 . S
H2142 C2158 0.931 . S
C2143 H2131 0.929 . S
C2143 C2137 1.390 . S
C2143 C2140 1.386 . S
C2144 C2139 1.490 . S
C2144 C2146 1.395 1_545 S
C2144 C2147 1.403 . S
H2145 C2151 0.930 . S
C2146 H2132 0.930 . S
C2146 C2144 1.395 1_565 S
C2146 C2149 1.403 . S
C2147 C2144 1.403 . S
C2147 C2148 1.524 . S
C2147 C2151 1.400 . S
C2148 H2133 0.960 . S
C2148 H2134 0.960 . S
C2148 H2135 0.960 . S
C2148 C2147 1.524 . S
C2149 C2146 1.403 . S
C2149 C2150 1.392 1_565 S
C2149 C2153 1.495 . S
C2150 C2149 1.392 1_545 S
C2150 C2151 1.385 . S
C2150 C2152 1.478 . S
C2151 H2145 0.930 . S
C2151 C2147 1.400 . S
C2151 C2150 1.385 . S
C2152 C2150 1.478 . S
C2152 C2154 1.381 1_545 S
C2152 C2158 1.383 . S
C2153 C2149 1.495 . S
C2153 H2159 0.959 . S
C2153 H2160 0.961 . S
C2153 H2161 0.960 . S
C2154 C2152 1.381 1_565 S
C2154 C2155 1.394 . S
C2154 H2162 0.930 . S
C2155 C2154 1.394 . S
C2155 C2156 1.383 1_565 S
C2155 H2163 0.929 . S
C2156 C2155 1.383 1_545 S
C2156 C2157 1.377 . S
C2157 H2141 0.930 . S
C2157 C2156 1.377 . S
C2157 C2158 1.379 . S
C2158 H2142 0.931 . S
C2158 C2152 1.383 . S
C2158 C2157 1.379 . S
H2159 C2153 0.959 . S
H2160 C2153 0.961 . S
H2161 C2153 0.960 . S
H2162 C2154 0.930 . S
H2163 C2155 0.929 . S
H2164 C2172 0.929 . S
H2165 C2174 0.930 . S
H2166 C2176 0.930 . S
H2167 C2179 0.929 . S
H2168 C2182 0.930 . S
H2169 C2184 0.960 . S
H2170 C2184 0.960 . S
H2171 C2184 0.960 . S
C2172 H2164 0.929 . S
C2172 C2173 1.377 . S
C2172 C2174 1.384 . S
C2173 C2172 1.377 . S
C2173 C2179 1.390 . S
C2174 H2165 0.930 . S
C2174 C2172 1.384 . S
C2174 C2175 1.372 . S
C2175 C2174 1.372 . S
C2175 C2176 1.400 . S
C2175 C2180 1.490 . S
C2176 H2166 0.930 . S
C2176 C2175 1.400 . S
C2176 C2179 1.386 . S
H2177 C2193 0.930 . S
H2178 C2194 0.931 . S
C2179 H2167 0.929 . S
C2179 C2173 1.390 . S
C2179 C2176 1.386 . S
C2180 C2175 1.490 . S
C2180 C2182 1.395 . S
C2180 C2183 1.403 . S
H2181 C2187 0.930 . S
C2182 H2168 0.930 . S
C2182 C2180 1.395 . S
C2182 C2185 1.403 . S
C2183 C2180 1.403 . S
C2183 C2184 1.524 . S
C2183 C2187 1.400 . S
C2184 H2169 0.960 . S
C2184 H2170 0.960 . S
C2184 H2171 0.960 . S
C2184 C2183 1.524 . S
C2185 C2182 1.403 . S
C2185 C2186 1.392 . S
C2185 C2189 1.495 . S
C2186 C2185 1.392 . S
C2186 C2187 1.385 . S
C2186 C2188 1.478 . S
C2187 H2181 0.930 . S
C2187 C2183 1.400 . S
C2187 C2186 1.385 . S
C2188 C2186 1.478 . S
C2188 C2190 1.381 . S
C2188 C2194 1.383 . S
C2189 C2185 1.495 . S
C2189 H2195 0.959 . S
C2189 H2196 0.961 . S
C2189 H2197 0.960 . S
C2190 C2188 1.381 . S
C2190 C2191 1.394 . S
C2190 H2198 0.930 . S
C2191 C2190 1.394 . S
C2191 C2192 1.383 . S
C2191 H2199 0.929 . S
C2192 C2191 1.383 . S
C2192 C2193 1.377 . S
C2193 H2177 0.930 . S
C2193 C2192 1.377 . S
C2193 C2194 1.379 . S
C2194 H2178 0.931 . S
C2194 C2188 1.383 . S
C2194 C2193 1.379 . S
H2195 C2189 0.959 . S
H2196 C2189 0.961 . S
H2197 C2189 0.960 . S
H2198 C2190 0.930 . S
H2199 C2191 0.929 . S
H2200 C2208 0.929 1_565 S
H2201 C2210 0.930 1_565 S
H2202 C2212 0.930 . S
H2203 C2215 0.929 . S
H2204 C2218 0.930 . S
H2205 C2220 0.960 . S
H2206 C2220 0.960 1_565 S
H2207 C2220 0.960 . S
C2208 H2200 0.929 1_545 S
C2208 C2209 1.377 . S
C2208 C2210 1.384 . S
C2209 C2208 1.377 . S
C2209 C2215 1.390 . S
C2210 H2201 0.930 1_545 S
C2210 C2208 1.384 . S
C2210 C2211 1.372 . S
C2211 C2210 1.372 . S
C2211 C2212 1.400 . S
C2211 C2216 1.490 . S
C2212 H2202 0.930 . S
C2212 C2211 1.400 . S
C2212 C2215 1.386 . S
H2213 C2229 0.930 . S
H2214 C2230 0.931 . S
C2215 H2203 0.929 . S
C2215 C2209 1.390 . S
C2215 C2212 1.386 . S
C2216 C2211 1.490 . S
C2216 C2218 1.395 . S
C2216 C2219 1.403 . S
H2217 C2223 0.930 . S
C2218 H2204 0.930 . S
C2218 C2216 1.395 . S
C2218 C2221 1.403 . S
C2219 C2216 1.403 . S
C2219 C2220 1.524 . S
C2219 C2223 1.400 . S
C2220 H2205 0.960 . S
C2220 H2206 0.960 1_545 S
C2220 H2207 0.960 . S
C2220 C2219 1.524 . S
C2221 C2218 1.403 . S
C2221 C2222 1.392 . S
C2221 C2225 1.495 . S
C2222 C2221 1.392 . S
C2222 C2223 1.385 . S
C2222 C2224 1.478 . S
C2223 H2217 0.930 . S
C2223 C2219 1.400 . S
C2223 C2222 1.385 . S
C2224 C2222 1.478 . S
C2224 C2226 1.381 . S
C2224 C2230 1.383 . S
C2225 C2221 1.495 . S
C2225 H2231 0.959 . S
C2225 H2232 0.961 . S
C2225 H2233 0.960 . S
C2226 C2224 1.381 . S
C2226 C2227 1.394 . S
C2226 H2234 0.930 . S
C2227 C2226 1.394 . S
C2227 C2228 1.383 . S
C2227 H2235 0.929 . S
C2228 C2227 1.383 . S
C2228 C2229 1.377 . S
C2229 H2213 0.930 . S
C2229 C2228 1.377 . S
C2229 C2230 1.379 . S
C2230 H2214 0.931 . S
C2230 C2224 1.383 . S
C2230 C2229 1.379 . S
H2231 C2225 0.959 . S
H2232 C2225 0.961 . S
H2233 C2225 0.960 . S
H2234 C2226 0.930 . S
H2235 C2227 0.929 . S
H2236 C2244 0.929 . S
H2237 C2246 0.930 . S
H2238 C2248 0.930 . S
H2239 C2251 0.929 . S
H2240 C2254 0.930 . S
H2241 C2256 0.960 . S
H2242 C2256 0.960 . S
H2243 C2256 0.960 . S
C2244 H2236 0.929 . S
C2244 C2245 1.377 . S
C2244 C2246 1.384 . S
C2245 C2244 1.377 . S
C2245 C2251 1.390 . S
C2246 H2237 0.930 . S
C2246 C2244 1.384 . S
C2246 C2247 1.372 . S
C2247 C2246 1.372 . S
C2247 C2248 1.400 . S
C2247 C2252 1.490 . S
C2248 H2238 0.930 . S
C2248 C2247 1.400 . S
C2248 C2251 1.386 . S
H2249 C2265 0.930 . S
H2250 C2266 0.931 . S
C2251 H2239 0.929 . S
C2251 C2245 1.390 . S
C2251 C2248 1.386 . S
C2252 C2247 1.490 . S
C2252 C2254 1.395 . S
C2252 C2255 1.403 . S
H2253 C2259 0.930 . S
C2254 H2240 0.930 . S
C2254 C2252 1.395 . S
C2254 C2257 1.403 . S
C2255 C2252 1.403 . S
C2255 C2256 1.524 . S
C2255 C2259 1.400 . S
C2256 H2241 0.960 . S
C2256 H2242 0.960 . S
C2256 H2243 0.960 . S
C2256 C2255 1.524 . S
C2257 C2254 1.403 . S
C2257 C2258 1.392 . S
C2257 C2261 1.495 . S
C2258 C2257 1.392 . S
C2258 C2259 1.385 . S
C2258 C2260 1.478 . S
C2259 H2253 0.930 . S
C2259 C2255 1.400 . S
C2259 C2258 1.385 . S
C2260 C2258 1.478 . S
C2260 C2262 1.381 . S
C2260 C2266 1.383 . S
C2261 C2257 1.495 . S
C2261 H2267 0.959 . S
C2261 H2268 0.961 . S
C2261 H2269 0.960 . S
C2262 C2260 1.381 . S
C2262 C2263 1.394 . S
C2262 H2270 0.930 . S
C2263 C2262 1.394 . S
C2263 C2264 1.383 . S
C2263 H2271 0.929 . S
C2264 C2263 1.383 . S
C2264 C2265 1.377 . S
C2265 H2249 0.930 . S
C2265 C2264 1.377 . S
C2265 C2266 1.379 . S
C2266 H2250 0.931 . S
C2266 C2260 1.383 . S
C2266 C2265 1.379 . S
H2267 C2261 0.959 . S
H2268 C2261 0.961 . S
H2269 C2261 0.960 . S
H2270 C2262 0.930 . S
H2271 C2263 0.929 . S
H2272 C2280 0.929 . S
H2273 C2282 0.943 . S
H2274 C2284 0.928 . S
H2275 C2287 0.929 . S
H2276 C2290 0.930 . S
H2277 C2292 0.960 . S
H2278 C2292 0.960 . S
H2279 C2292 0.960 . S
C2280 H2272 0.929 . S
C2280 C2281 1.377 . S
C2280 C2282 1.368 1_565 S
C2281 C2280 1.377 . S
C2281 C2287 1.390 . S
C2282 H2273 0.943 . S
C2282 C2280 1.368 1_545 S
C2282 C2283 1.377 . S
C2283 C2282 1.377 . S
C2283 C2284 1.403 . S
C2283 C2288 1.490 . S
C2284 H2274 0.928 . S
C2284 C2283 1.403 . S
C2284 C2287 1.382 1_545 S
H2285 C2301 0.930 . S
H2286 C2302 0.931 . S
C2287 H2275 0.929 . S
C2287 C2281 1.390 . S
C2287 C2284 1.382 1_565 S
C2288 C2283 1.490 . S
C2288 C2290 1.395 . S
C2288 C2291 1.403 1_545 S
H2289 C2295 0.930 . S
C2290 H2276 0.930 . S
C2290 C2288 1.395 . S
C2290 C2293 1.403 . S
C2291 C2288 1.403 1_565 S
C2291 C2292 1.524 . S
C2291 C2295 1.400 . S
C2292 H2277 0.960 . S
C2292 H2278 0.960 . S
C2292 H2279 0.960 . S
C2292 C2291 1.524 . S
C2293 C2290 1.403 . S
C2293 C2294 1.392 . S
C2293 C2297 1.495 . S
C2294 C2293 1.392 . S
C2294 C2295 1.385 1_545 S
C2294 C2296 1.478 . S
C2295 H2289 0.930 . S
C2295 C2291 1.400 . S
C2295 C2294 1.385 1_565 S
C2296 C2294 1.478 . S
C2296 C2298 1.381 . S
C2296 C2302 1.383 . S
C2297 C2293 1.495 . S
C2297 H2303 0.959 . S
C2297 H2304 0.961 . S
C2297 H2305 0.960 . S
C2298 C2296 1.381 . S
C2298 C2299 1.394 . S
C2298 H2306 0.930 . S
C2299 C2298 1.394 . S
C2299 C2300 1.383 . S
C2299 H2307 0.929 . S
C2300 C2299 1.383 . S
C2300 C2301 1.377 . S
C2301 H2285 0.930 . S
C2301 C2300 1.377 . S
C2301 C2302 1.379 . S
C2302 H2286 0.931 . S
C2302 C2296 1.383 . S
C2302 C2301 1.379 . S
H2303 C2297 0.959 . S
H2304 C2297 0.961 . S
H2305 C2297 0.960 . S
H2306 C2298 0.930 . S
H2307 C2299 0.929 . S
H2308 C2316 0.929 . S
H2309 C2318 0.930 . S
H2310 C2320 0.930 . S
H2311 C2323 0.929 . S
H2312 C2326 0.930 . S
H2313 C2328 0.960 . S
H2314 C2328 0.960 . S
H2315 C2328 0.960 . S
C2316 H2308 0.929 . S
C2316 C2317 1.377 . S
C2316 C2318 1.384 . S
C2317 C2316 1.377 . S
C2317 C2323 1.390 . S
C2318 H2309 0.930 . S
C2318 C2316 1.384 . S
C2318 C2319 1.372 . S
C2319 C2318 1.372 . S
C2319 C2320 1.400 . S
C2319 C2324 1.490 . S
C2320 H2310 0.930 . S
C2320 C2319 1.400 . S
C2320 C2323 1.386 . S
H2321 C2337 0.930 . S
H2322 C2338 0.931 . S
C2323 H2311 0.929 . S
C2323 C2317 1.390 . S
C2323 C2320 1.386 . S
C2324 C2319 1.490 . S
C2324 C2326 1.395 . S
C2324 C2327 1.403 . S
H2325 C2331 0.930 . S
C2326 H2312 0.930 . S
C2326 C2324 1.395 . S
C2326 C2329 1.403 . S
C2327 C2324 1.403 . S
C2327 C2328 1.524 . S
C2327 C2331 1.400 . S
C2328 H2313 0.960 . S
C2328 H2314 0.960 . S
C2328 H2315 0.960 . S
C2328 C2327 1.524 . S
C2329 C2326 1.403 . S
C2329 C2330 1.392 . S
C2329 C2333 1.495 . S
C2330 C2329 1.392 . S
C2330 C2331 1.385 . S
C2330 C2332 1.478 . S
C2331 H2325 0.930 . S
C2331 C2327 1.400 . S
C2331 C2330 1.385 . S
C2332 C2330 1.478 . S
C2332 C2334 1.381 . S
C2332 C2338 1.383 . S
C2333 C2329 1.495 . S
C2333 H2339 0.959 . S
C2333 H2340 0.961 . S
C2333 H2341 0.960 . S
C2334 C2332 1.381 . S
C2334 C2335 1.394 . S
C2334 H2342 0.930 . S
C2335 C2334 1.394 . S
C2335 C2336 1.383 . S
C2335 H2343 0.929 . S
C2336 C2335 1.383 . S
C2336 C2337 1.377 . S
C2337 H2321 0.930 . S
C2337 C2336 1.377 . S
C2337 C2338 1.379 . S
C2338 H2322 0.931 . S
C2338 C2332 1.383 . S
C2338 C2337 1.379 . S
H2339 C2333 0.959 . S
H2340 C2333 0.961 . S
H2341 C2333 0.960 . S
H2342 C2334 0.930 . S
H2343 C2335 0.929 . S
H2344 C2352 0.929 . S
H2345 C2354 0.930 . S
H2346 C2356 0.930 . S
H2347 C2359 0.929 . S
H2348 C2362 0.930 . S
H2349 C2364 0.960 . S
H2350 C2364 0.960 . S
H2351 C2364 0.960 . S
C2352 H2344 0.929 . S
C2352 C2353 1.377 . S
C2352 C2354 1.384 . S
C2353 C2352 1.377 . S
C2353 C2359 1.390 1_545 S
C2354 H2345 0.930 . S
C2354 C2352 1.384 . S
C2354 C2355 1.372 . S
C2355 C2354 1.372 . S
C2355 C2356 1.400 1_545 S
C2355 C2360 1.490 . S
C2356 H2346 0.930 . S
C2356 C2355 1.400 1_565 S
C2356 C2359 1.386 . S
H2357 C2373 0.930 . S
H2358 C2374 0.931 . S
C2359 H2347 0.929 . S
C2359 C2353 1.390 1_565 S
C2359 C2356 1.386 . S
C2360 C2355 1.490 . S
C2360 C2362 1.395 . S
C2360 C2363 1.403 1_545 S
H2361 C2367 0.930 . S
C2362 H2348 0.930 . S
C2362 C2360 1.395 . S
C2362 C2365 1.403 . S
C2363 C2360 1.403 1_565 S
C2363 C2364 1.524 . S
C2363 C2367 1.400 . S
C2364 H2349 0.960 . S
C2364 H2350 0.960 . S
C2364 H2351 0.960 . S
C2364 C2363 1.524 . S
C2365 C2362 1.403 . S
C2365 C2366 1.392 . S
C2365 C2369 1.495 . S
C2366 C2365 1.392 . S
C2366 C2367 1.385 1_545 S
C2366 C2368 1.477 . S
C2367 H2361 0.930 . S
C2367 C2363 1.400 . S
C2367 C2366 1.385 1_565 S
C2368 C2366 1.477 . S
C2368 C2370 1.377 . S
C2368 C2374 1.387 1_545 S
C2369 C2365 1.495 . S
C2369 H2375 0.959 . S
C2369 H2376 0.961 . S
C2369 H2377 0.960 . S
C2370 C2368 1.377 . S
C2370 C2371 1.394 . S
C2370 H2378 0.930 . S
C2371 C2370 1.394 . S
C2371 C2372 1.383 1_545 S
C2371 H2379 0.929 . S
C2372 C2371 1.383 1_565 S
C2372 C2373 1.377 . S
C2373 H2357 0.930 . S
C2373 C2372 1.377 . S
C2373 C2374 1.379 . S
C2374 H2358 0.931 . S
C2374 C2368 1.387 1_565 S
C2374 C2373 1.379 . S
H2375 C2369 0.959 . S
H2376 C2369 0.961 . S
H2377 C2369 0.960 . S
H2378 C2370 0.930 . S
H2379 C2371 0.929 . S
H2380 C2388 0.929 . S
H2381 C2390 0.930 . S
H2382 C2392 0.930 . S
H2383 C2395 0.929 . S
H2384 C2398 0.930 . S
H2385 C2400 0.960 . S
H2386 C2400 0.960 . S
H2387 C2400 0.960 . S
C2388 H2380 0.929 . S
C2388 C2389 1.377 . S
C2388 C2390 1.384 . S
C2389 C2388 1.377 . S
C2389 C2395 1.390 . S
C2390 H2381 0.930 . S
C2390 C2388 1.384 . S
C2390 C2391 1.372 . S
C2391 C2390 1.372 . S
C2391 C2392 1.400 . S
C2391 C2396 1.490 . S
C2392 H2382 0.930 . S
C2392 C2391 1.400 . S
C2392 C2395 1.386 . S
H2393 C2409 0.930 . S
H2394 C2410 0.931 . S
C2395 H2383 0.929 . S
C2395 C2389 1.390 . S
C2395 C2392 1.386 . S
C2396 C2391 1.490 . S
C2396 C2398 1.395 . S
C2396 C2399 1.403 . S
H2397 C2403 0.930 . S
C2398 H2384 0.930 . S
C2398 C2396 1.395 . S
C2398 C2401 1.403 . S
C2399 C2396 1.403 . S
C2399 C2400 1.524 . S
C2399 C2403 1.400 . S
C2400 H2385 0.960 . S
C2400 H2386 0.960 . S
C2400 H2387 0.960 . S
C2400 C2399 1.524 . S
C2401 C2398 1.403 . S
C2401 C2402 1.392 . S
C2401 C2405 1.495 . S
C2402 C2401 1.392 . S
C2402 C2403 1.385 . S
C2402 C2404 1.478 . S
C2403 H2397 0.930 . S
C2403 C2399 1.400 . S
C2403 C2402 1.385 . S
C2404 C2402 1.478 . S
C2404 C2406 1.381 . S
C2404 C2410 1.383 . S
C2405 C2401 1.495 . S
C2405 H2411 0.959 . S
C2405 H2412 0.961 . S
C2405 H2413 0.960 . S
C2406 C2404 1.381 . S
C2406 C2407 1.394 . S
C2406 H2414 0.930 . S
C2407 C2406 1.394 . S
C2407 C2408 1.383 . S
C2407 H2415 0.929 . S
C2408 C2407 1.383 . S
C2408 C2409 1.377 . S
C2409 H2393 0.930 . S
C2409 C2408 1.377 . S
C2409 C2410 1.379 . S
C2410 H2394 0.931 . S
C2410 C2404 1.383 . S
C2410 C2409 1.379 . S
H2411 C2405 0.959 . S
H2412 C2405 0.961 . S
H2413 C2405 0.960 . S
H2414 C2406 0.930 . S
H2415 C2407 0.929 . S
H2416 C2424 0.929 . S
H2417 C2426 0.930 . S
H2418 C2428 0.930 . S
H2419 C2431 0.929 . S
H2420 C2434 0.930 . S
H2421 C2436 0.960 . S
H2422 C2436 0.960 . S
H2423 C2436 0.960 . S
C2424 H2416 0.929 . S
C2424 C2425 1.377 . S
C2424 C2426 1.384 . S
C2425 C2424 1.377 . S
C2425 C2431 1.390 1_554 S
C2426 H2417 0.930 . S
C2426 C2424 1.384 . S
C2426 C2427 1.372 . S
C2427 C2426 1.372 . S
C2427 C2428 1.400 1_554 S
C2427 C2432 1.490 1_554 S
C2428 H2418 0.930 . S
C2428 C2427 1.400 1_556 S
C2428 C2431 1.386 . S
H2429 C2445 0.930 . S
H2430 C2446 0.931 . S
C2431 H2419 0.929 . S
C2431 C2425 1.390 1_556 S
C2431 C2428 1.386 . S
C2432 C2427 1.490 1_556 S
C2432 C2434 1.395 . S
C2432 C2435 1.403 1_556 S
H2433 C2439 0.930 1_554 S
C2434 H2420 0.930 . S
C2434 C2432 1.395 . S
C2434 C2437 1.403 . S
C2435 C2432 1.403 1_554 S
C2435 C2436 1.524 . S
C2435 C2439 1.400 1_554 S
C2436 H2421 0.960 . S
C2436 H2422 0.960 . S
C2436 H2423 0.960 . S
C2436 C2435 1.524 . S
C2437 C2434 1.403 . S
C2437 C2438 1.392 . S
C2437 C2441 1.495 . S
C2438 C2437 1.392 . S
C2438 C2439 1.385 . S
C2438 C2440 1.478 . S
C2439 H2433 0.930 1_556 S
C2439 C2435 1.400 1_556 S
C2439 C2438 1.385 . S
C2440 C2438 1.478 . S
C2440 C2442 1.381 . S
C2440 C2446 1.383 . S
C2441 C2437 1.495 . S
C2441 H2447 0.959 . S
C2441 H2448 0.961 . S
C2441 H2449 0.960 . S
C2442 C2440 1.381 . S
C2442 C2443 1.394 . S
C2442 H2450 0.930 1_556 S
C2443 C2442 1.394 . S
C2443 C2444 1.383 . S
C2443 H2451 0.889 1_556 S
C2444 C2443 1.383 . S
C2444 C2445 1.377 . S
C2445 H2429 0.930 . S
C2445 C2444 1.377 . S
C2445 C2446 1.379 . S
C2446 H2430 0.931 . S
C2446 C2440 1.383 . S
C2446 C2445 1.379 . S
H2447 C2441 0.959 . S
H2448 C2441 0.961 . S
H2449 C2441 0.960 . S
H2450 C2442 0.930 1_554 S
H2451 C2443 0.889 1_554 S
H2452 C2460 0.929 . S
H2453 C2462 0.930 . S
H2454 C2464 0.930 . S
H2455 C2467 0.929 . S
H2456 C2470 0.948 . S
H2457 C2472 0.960 . S
H2458 C2472 0.960 . S
H2459 C2472 0.960 . S
C2460 H2452 0.929 . S
C2460 C2461 1.377 . S
C2460 C2462 1.384 . S
C2461 C2460 1.377 . S
C2461 C2467 1.390 . S
C2462 H2453 0.930 . S
C2462 C2460 1.384 . S
C2462 C2463 1.372 . S
C2463 C2462 1.372 . S
C2463 C2464 1.400 . S
C2463 C2468 1.490 . S
C2464 H2454 0.930 . S
C2464 C2463 1.400 . S
C2464 C2467 1.386 . S
H2465 C2481 0.930 . S
H2466 C2482 0.931 . S
C2467 H2455 0.929 . S
C2467 C2461 1.390 . S
C2467 C2464 1.386 . S
C2468 C2463 1.490 . S
C2468 C2470 1.369 1_554 S
C2468 C2471 1.403 . S
H2469 C2475 0.930 . S
C2470 H2456 0.948 . S
C2470 C2468 1.369 1_556 S
C2470 C2473 1.411 . S
C2471 C2468 1.403 . S
C2471 C2472 1.524 . S
C2471 C2475 1.400 . S
C2472 H2457 0.960 . S
C2472 H2458 0.960 . S
C2472 H2459 0.960 . S
C2472 C2471 1.524 . S
C2473 C2470 1.411 . S
C2473 C2474 1.392 1_556 S
C2473 C2477 1.495 . S
C2474 C2473 1.392 1_554 S
C2474 C2475 1.385 . S
C2474 C2476 1.478 . S
C2475 H2469 0.930 . S
C2475 C2471 1.400 . S
C2475 C2474 1.385 . S
C2476 C2474 1.478 . S
C2476 C2478 1.381 . S
C2476 C2482 1.383 . S
C2477 C2473 1.495 . S
C2477 H2483 0.959 . S
C2477 H2484 0.961 . S
C2477 H2485 0.960 . S
C2478 C2476 1.381 . S
C2478 C2479 1.394 . S
C2478 H2486 0.930 . S
C2479 C2478 1.394 . S
C2479 C2480 1.383 . S
C2479 H2487 0.929 . S
C2480 C2479 1.383 . S
C2480 C2481 1.377 . S
C2481 H2465 0.930 . S
C2481 C2480 1.377 . S
C2481 C2482 1.379 . S
C2482 H2466 0.931 . S
C2482 C2476 1.383 . S
C2482 C2481 1.379 . S
H2483 C2477 0.959 . S
H2484 C2477 0.961 . S
H2485 C2477 0.960 . S
H2486 C2478 0.930 . S
H2487 C2479 0.929 . S
H2488 C2496 0.929 . S
H2489 C2498 0.930 . S
H2490 C2500 0.930 . S
H2491 C2503 0.929 . S
H2492 C2506 0.930 . S
H2493 C2508 0.960 . S
H2494 C2508 0.960 . S
H2495 C2508 0.960 . S
C2496 H2488 0.929 . S
C2496 C2497 1.377 . S
C2496 C2498 1.384 . S
C2497 C2496 1.377 . S
C2497 C2503 1.390 . S
C2498 H2489 0.930 . S
C2498 C2496 1.384 . S
C2498 C2499 1.372 . S
C2499 C2498 1.372 . S
C2499 C2500 1.400 . S
C2499 C2504 1.490 . S
C2500 H2490 0.930 . S
C2500 C2499 1.400 . S
C2500 C2503 1.386 . S
H2501 C2517 0.930 . S
H2502 C2518 0.931 . S
C2503 H2491 0.929 . S
C2503 C2497 1.390 . S
C2503 C2500 1.386 . S
C2504 C2499 1.490 . S
C2504 C2506 1.395 . S
C2504 C2507 1.403 . S
H2505 C2511 0.930 . S
C2506 H2492 0.930 . S
C2506 C2504 1.395 . S
C2506 C2509 1.403 . S
C2507 C2504 1.403 . S
C2507 C2508 1.524 . S
C2507 C2511 1.400 . S
C2508 H2493 0.960 . S
C2508 H2494 0.960 . S
C2508 H2495 0.960 . S
C2508 C2507 1.524 . S
C2509 C2506 1.403 . S
C2509 C2510 1.392 . S
C2509 C2513 1.495 . S
C2510 C2509 1.392 . S
C2510 C2511 1.385 . S
C2510 C2512 1.478 . S
C2511 H2505 0.930 . S
C2511 C2507 1.400 . S
C2511 C2510 1.385 . S
C2512 C2510 1.478 . S
C2512 C2514 1.381 . S
C2512 C2518 1.383 . S
C2513 C2509 1.495 . S
C2513 H2519 0.959 . S
C2513 H2520 0.961 . S
C2513 H2521 0.960 . S
C2514 C2512 1.381 . S
C2514 C2515 1.394 . S
C2514 H2522 0.930 . S
C2515 C2514 1.394 . S
C2515 C2516 1.383 . S
C2515 H2523 0.929 . S
C2516 C2515 1.383 . S
C2516 C2517 1.377 . S
C2517 H2501 0.930 . S
C2517 C2516 1.377 . S
C2517 C2518 1.379 . S
C2518 H2502 0.931 . S
C2518 C2512 1.383 . S
C2518 C2517 1.379 . S
H2519 C2513 0.959 . S
H2520 C2513 0.961 . S
H2521 C2513 0.960 . S
H2522 C2514 0.930 . S
H2523 C2515 0.929 . S
H2524 C2532 0.929 . S
H2525 C2534 0.930 . S
H2526 C2536 0.930 . S
H2527 C2539 0.929 . S
H2528 C2542 0.930 . S
H2529 C2544 0.960 . S
H2530 C2544 0.960 . S
H2531 C2544 0.960 . S
C2532 H2524 0.929 . S
C2532 C2533 1.377 . S
C2532 C2534 1.384 . S
C2533 C2532 1.377 . S
C2533 C2539 1.390 . S
C2534 H2525 0.930 . S
C2534 C2532 1.384 . S
C2534 C2535 1.372 . S
C2535 C2534 1.372 . S
C2535 C2536 1.400 . S
C2535 C2540 1.490 . S
C2536 H2526 0.930 . S
C2536 C2535 1.400 . S
C2536 C2539 1.386 . S
H2537 C2553 0.930 . S
H2538 C2554 0.931 . S
C2539 H2527 0.929 . S
C2539 C2533 1.390 . S
C2539 C2536 1.386 . S
C2540 C2535 1.490 . S
C2540 C2542 1.395 . S
C2540 C2543 1.403 . S
H2541 C2547 0.930 . S
C2542 H2528 0.930 . S
C2542 C2540 1.395 . S
C2542 C2545 1.403 . S
C2543 C2540 1.403 . S
C2543 C2544 1.524 . S
C2543 C2547 1.400 . S
C2544 H2529 0.960 . S
C2544 H2530 0.960 . S
C2544 H2531 0.960 . S
C2544 C2543 1.524 . S
C2545 C2542 1.403 . S
C2545 C2546 1.392 . S
C2545 C2549 1.495 . S
C2546 C2545 1.392 . S
C2546 C2547 1.385 . S
C2546 C2548 1.478 . S
C2547 H2541 0.930 . S
C2547 C2543 1.400 . S
C2547 C2546 1.385 . S
C2548 C2546 1.478 . S
C2548 C2550 1.381 . S
C2548 C2554 1.383 . S
C2549 C2545 1.495 . S
C2549 H2555 0.959 . S
C2549 H2556 0.961 . S
C2549 H2557 0.960 . S
C2550 C2548 1.381 . S
C2550 C2551 1.394 . S
C2550 H2558 0.930 . S
C2551 C2550 1.394 . S
C2551 C2552 1.383 . S
C2551 H2559 0.929 . S
C2552 C2551 1.383 . S
C2552 C2553 1.377 . S
C2553 H2537 0.930 . S
C2553 C2552 1.377 . S
C2553 C2554 1.379 . S
C2554 H2538 0.931 . S
C2554 C2548 1.383 . S
C2554 C2553 1.379 . S
H2555 C2549 0.959 . S
H2556 C2549 0.961 . S
H2557 C2549 0.960 . S
H2558 C2550 0.930 . S
H2559 C2551 0.929 . S
H2560 C2568 0.929 . S
H2561 C2570 0.930 . S
H2562 C2572 0.930 . S
H2563 C2575 0.929 . S
H2564 C2578 0.930 . S
H2565 C2580 0.960 . S
H2566 C2580 0.960 . S
H2567 C2580 0.960 . S
C2568 H2560 0.929 . S
C2568 C2569 1.361 1_565 S
C2568 C2570 1.384 . S
C2569 C2568 1.361 1_545 S
C2569 C2575 1.386 . S
C2570 H2561 0.930 . S
C2570 C2568 1.384 . S
C2570 C2571 1.372 . S
C2571 C2570 1.372 . S
C2571 C2572 1.400 . S
C2571 C2576 1.490 . S
C2572 H2562 0.930 . S
C2572 C2571 1.400 . S
C2572 C2575 1.386 1_565 S
H2573 C2589 0.930 . S
H2574 C2590 0.931 . S
C2575 H2563 0.929 . S
C2575 C2569 1.386 . S
C2575 C2572 1.386 1_545 S
C2576 C2571 1.490 . S
C2576 C2578 1.395 . S
C2576 C2579 1.403 . S
H2577 C2583 0.930 . S
C2578 H2564 0.930 . S
C2578 C2576 1.395 . S
C2578 C2581 1.403 . S
C2579 C2576 1.403 . S
C2579 C2580 1.524 . S
C2579 C2583 1.400 . S
C2580 H2565 0.960 . S
C2580 H2566 0.960 . S
C2580 H2567 0.960 . S
C2580 C2579 1.524 . S
C2581 C2578 1.403 . S
C2581 C2582 1.392 . S
C2581 C2585 1.495 . S
C2582 C2581 1.392 . S
C2582 C2583 1.385 . S
C2582 C2584 1.478 . S
C2583 H2577 0.930 . S
C2583 C2579 1.400 . S
C2583 C2582 1.385 . S
C2584 C2582 1.478 . S
C2584 C2586 1.381 . S
C2584 C2590 1.383 . S
C2585 C2581 1.495 . S
C2585 H2591 0.959 . S
C2585 H2592 0.961 . S
C2585 H2593 0.960 . S
C2586 C2584 1.381 . S
C2586 C2587 1.394 . S
C2586 H2594 0.930 . S
C2587 C2586 1.394 . S
C2587 C2588 1.383 . S
C2587 H2595 0.929 . S
C2588 C2587 1.383 . S
C2588 C2589 1.377 . S
C2589 H2573 0.930 . S
C2589 C2588 1.377 . S
C2589 C2590 1.379 . S
C2590 H2574 0.931 . S
C2590 C2584 1.383 . S
C2590 C2589 1.379 . S
H2591 C2585 0.959 . S
H2592 C2585 0.961 . S
H2593 C2585 0.960 . S
H2594 C2586 0.930 . S
H2595 C2587 0.929 . S
H2596 C2604 0.929 . S
H2597 C2606 0.930 . S
H2598 C2608 0.930 . S
H2599 C2611 0.929 . S
H2600 C2614 0.930 . S
H2601 C2616 0.960 . S
H2602 C2616 0.960 . S
H2603 C2616 0.960 . S
C2604 H2596 0.929 . S
C2604 C2605 1.377 . S
C2604 C2606 1.384 . S
C2605 C2604 1.377 . S
C2605 C2611 1.390 . S
C2606 H2597 0.930 . S
C2606 C2604 1.384 . S
C2606 C2607 1.372 . S
C2607 C2606 1.372 . S
C2607 C2608 1.400 . S
C2607 C2612 1.490 . S
C2608 H2598 0.930 . S
C2608 C2607 1.400 . S
C2608 C2611 1.386 . S
H2609 C2625 0.930 . S
H2610 C2626 0.931 . S
C2611 H2599 0.929 . S
C2611 C2605 1.390 . S
C2611 C2608 1.386 . S
C2612 C2607 1.490 . S
C2612 C2614 1.395 . S
C2612 C2615 1.403 . S
H2613 C2619 0.930 . S
C2614 H2600 0.930 . S
C2614 C2612 1.395 . S
C2614 C2617 1.403 . S
C2615 C2612 1.403 . S
C2615 C2616 1.524 . S
C2615 C2619 1.400 . S
C2616 H2601 0.960 . S
C2616 H2602 0.960 . S
C2616 H2603 0.960 . S
C2616 C2615 1.524 . S
C2617 C2614 1.403 . S
C2617 C2618 1.392 . S
C2617 C2621 1.495 . S
C2618 C2617 1.392 . S
C2618 C2619 1.385 . S
C2618 C2620 1.478 . S
C2619 H2613 0.930 . S
C2619 C2615 1.400 . S
C2619 C2618 1.385 . S
C2620 C2618 1.478 . S
C2620 C2622 1.381 . S
C2620 C2626 1.383 . S
C2621 C2617 1.495 . S
C2621 H2627 0.959 . S
C2621 H2628 0.961 . S
C2621 H2629 0.960 . S
C2622 C2620 1.381 . S
C2622 C2623 1.394 . S
C2622 H2630 0.930 . S
C2623 C2622 1.394 . S
C2623 C2624 1.383 . S
C2623 H2631 0.929 . S
C2624 C2623 1.383 . S
C2624 C2625 1.377 . S
C2625 H2609 0.930 . S
C2625 C2624 1.377 . S
C2625 C2626 1.379 . S
C2626 H2610 0.931 . S
C2626 C2620 1.383 . S
C2626 C2625 1.379 . S
H2627 C2621 0.959 . S
H2628 C2621 0.961 . S
H2629 C2621 0.960 . S
H2630 C2622 0.930 . S
H2631 C2623 0.929 . S
H2632 C2640 0.929 . S
H2633 C2642 0.930 . S
H2634 C2644 0.930 . S
H2635 C2647 0.929 . S
H2636 C2650 0.930 . S
H2637 C2652 0.960 . S
H2638 C2652 0.960 . S
H2639 C2652 0.960 . S
C2640 H2632 0.929 . S
C2640 C2641 1.377 . S
C2640 C2642 1.384 . S
C2641 C2640 1.377 . S
C2641 C2647 1.390 . S
C2642 H2633 0.930 . S
C2642 C2640 1.384 . S
C2642 C2643 1.372 . S
C2643 C2642 1.372 . S
C2643 C2644 1.400 . S
C2643 C2648 1.490 . S
C2644 H2634 0.930 . S
C2644 C2643 1.400 . S
C2644 C2647 1.386 . S
H2645 C2661 0.930 . S
H2646 C2662 0.931 . S
C2647 H2635 0.929 . S
C2647 C2641 1.390 . S
C2647 C2644 1.386 . S
C2648 C2643 1.490 . S
C2648 C2650 1.395 . S
C2648 C2651 1.403 . S
H2649 C2655 0.930 . S
C2650 H2636 0.930 . S
C2650 C2648 1.395 . S
C2650 C2653 1.403 . S
C2651 C2648 1.403 . S
C2651 C2652 1.524 . S
C2651 C2655 1.400 . S
C2652 H2637 0.960 . S
C2652 H2638 0.960 . S
C2652 H2639 0.960 . S
C2652 C2651 1.524 . S
C2653 C2650 1.403 . S
C2653 C2654 1.392 . S
C2653 C2657 1.495 . S
C2654 C2653 1.392 . S
C2654 C2655 1.385 . S
C2654 C2656 1.478 . S
C2655 H2649 0.930 . S
C2655 C2651 1.400 . S
C2655 C2654 1.385 . S
C2656 C2654 1.478 . S
C2656 C2658 1.381 . S
C2656 C2662 1.383 . S
C2657 C2653 1.495 . S
C2657 H2663 0.959 . S
C2657 H2664 0.961 . S
C2657 H2665 0.960 . S
C2658 C2656 1.381 . S
C2658 C2659 1.394 . S
C2658 H2666 0.930 . S
C2659 C2658 1.394 . S
C2659 C2660 1.383 . S
C2659 H2667 0.929 . S
C2660 C2659 1.383 . S
C2660 C2661 1.377 . S
C2661 H2645 0.930 . S
C2661 C2660 1.377 . S
C2661 C2662 1.379 . S
C2662 H2646 0.931 . S
C2662 C2656 1.383 . S
C2662 C2661 1.379 . S
H2663 C2657 0.959 . S
H2664 C2657 0.961 . S
H2665 C2657 0.960 . S
H2666 C2658 0.930 . S
H2667 C2659 0.929 . S
H2668 C2676 0.929 . S
H2669 C2678 0.930 . S
H2670 C2680 0.930 . S
H2671 C2683 0.929 . S
H2672 C2686 0.930 . S
H2673 C2688 0.960 . S
H2674 C2688 0.960 . S
H2675 C2688 0.960 . S
C2676 H2668 0.929 . S
C2676 C2677 1.377 . S
C2676 C2678 1.384 . S
C2677 C2676 1.377 . S
C2677 C2683 1.390 . S
C2678 H2669 0.930 . S
C2678 C2676 1.384 . S
C2678 C2679 1.372 . S
C2679 C2678 1.372 . S
C2679 C2680 1.400 . S
C2679 C2684 1.490 . S
C2680 H2670 0.930 . S
C2680 C2679 1.400 . S
C2680 C2683 1.386 . S
H2681 C2697 0.930 . S
H2682 C2698 0.931 . S
C2683 H2671 0.929 . S
C2683 C2677 1.390 . S
C2683 C2680 1.386 . S
C2684 C2679 1.490 . S
C2684 C2686 1.395 . S
C2684 C2687 1.403 . S
H2685 C2691 0.930 . S
C2686 H2672 0.930 . S
C2686 C2684 1.395 . S
C2686 C2689 1.403 . S
C2687 C2684 1.403 . S
C2687 C2688 1.524 . S
C2687 C2691 1.400 . S
C2688 H2673 0.960 . S
C2688 H2674 0.960 . S
C2688 H2675 0.960 . S
C2688 C2687 1.524 . S
C2689 C2686 1.403 . S
C2689 C2690 1.392 . S
C2689 C2693 1.495 . S
C2690 C2689 1.392 . S
C2690 C2691 1.385 . S
C2690 C2692 1.478 . S
C2691 H2685 0.930 . S
C2691 C2687 1.400 . S
C2691 C2690 1.385 . S
C2692 C2690 1.478 . S
C2692 C2694 1.381 . S
C2692 C2698 1.383 . S
C2693 C2689 1.495 . S
C2693 H2699 0.959 . S
C2693 H2700 0.961 . S
C2693 H2701 0.960 . S
C2694 C2692 1.381 . S
C2694 C2695 1.394 . S
C2694 H2702 0.930 . S
C2695 C2694 1.394 . S
C2695 C2696 1.383 . S
C2695 H2703 0.929 . S
C2696 C2695 1.383 . S
C2696 C2697 1.377 . S
C2697 H2681 0.930 . S
C2697 C2696 1.377 . S
C2697 C2698 1.379 . S
C2698 H2682 0.931 . S
C2698 C2692 1.383 . S
C2698 C2697 1.379 . S
H2699 C2693 0.959 . S
H2700 C2693 0.961 . S
H2701 C2693 0.960 . S
H2702 C2694 0.930 . S
H2703 C2695 0.929 . S
H2704 C2712 0.929 . S
H2705 C2714 0.930 . S
H2706 C2716 0.930 . S
H2707 C2719 0.929 . S
H2708 C2722 0.930 . S
H2709 C2724 0.960 . S
H2710 C2724 0.960 . S
H2711 C2724 0.960 . S
C2712 H2704 0.929 . S
C2712 C2713 1.377 . S
C2712 C2714 1.384 . S
C2713 C2712 1.377 . S
C2713 C2719 1.390 . S
C2714 H2705 0.930 . S
C2714 C2712 1.384 . S
C2714 C2715 1.372 . S
C2715 C2714 1.372 . S
C2715 C2716 1.400 . S
C2715 C2720 1.490 . S
C2716 H2706 0.930 . S
C2716 C2715 1.400 . S
C2716 C2719 1.386 . S
H2717 C2733 0.930 . S
H2718 C2734 0.931 . S
C2719 H2707 0.929 . S
C2719 C2713 1.390 . S
C2719 C2716 1.386 . S
C2720 C2715 1.490 . S
C2720 C2722 1.395 . S
C2720 C2723 1.403 . S
H2721 C2727 0.930 . S
C2722 H2708 0.930 . S
C2722 C2720 1.395 . S
C2722 C2725 1.403 . S
C2723 C2720 1.403 . S
C2723 C2724 1.524 . S
C2723 C2727 1.400 . S
C2724 H2709 0.960 . S
C2724 H2710 0.960 . S
C2724 H2711 0.960 . S
C2724 C2723 1.524 . S
C2725 C2722 1.403 . S
C2725 C2726 1.392 . S
C2725 C2729 1.495 . S
C2726 C2725 1.392 . S
C2726 C2727 1.385 . S
C2726 C2728 1.478 . S
C2727 H2721 0.930 . S
C2727 C2723 1.400 . S
C2727 C2726 1.385 . S
C2728 C2726 1.478 . S
C2728 C2730 1.381 . S
C2728 C2734 1.383 . S
C2729 C2725 1.495 . S
C2729 H2735 0.959 . S
C2729 H2736 0.961 . S
C2729 H2737 0.960 . S
C2730 C2728 1.381 . S
C2730 C2731 1.394 . S
C2730 H2738 0.930 . S
C2731 C2730 1.394 . S
C2731 C2732 1.383 . S
C2731 H2739 0.929 . S
C2732 C2731 1.383 . S
C2732 C2733 1.377 . S
C2733 H2717 0.930 . S
C2733 C2732 1.377 . S
C2733 C2734 1.379 . S
C2734 H2718 0.931 . S
C2734 C2728 1.383 . S
C2734 C2733 1.379 . S
H2735 C2729 0.959 . S
H2736 C2729 0.961 . S
H2737 C2729 0.960 . S
H2738 C2730 0.930 . S
H2739 C2731 0.929 . S
H2740 C2748 0.929 . S
H2741 C2750 0.930 . S
H2742 C2752 0.930 . S
H2743 C2755 0.929 . S
H2744 C2758 0.930 . S
H2745 C2760 0.960 . S
H2746 C2760 0.960 . S
H2747 C2760 0.960 . S
C2748 H2740 0.929 . S
C2748 C2749 1.377 . S
C2748 C2750 1.384 . S
C2749 C2748 1.377 . S
C2749 C2755 1.390 . S
C2750 H2741 0.930 . S
C2750 C2748 1.384 . S
C2750 C2751 1.372 . S
C2751 C2750 1.372 . S
C2751 C2752 1.400 . S
C2751 C2756 1.490 . S
C2752 H2742 0.930 . S
C2752 C2751 1.400 . S
C2752 C2755 1.386 . S
H2753 C2769 0.930 . S
H2754 C2770 0.931 . S
C2755 H2743 0.929 . S
C2755 C2749 1.390 . S
C2755 C2752 1.386 . S
C2756 C2751 1.490 . S
C2756 C2758 1.395 . S
C2756 C2759 1.403 . S
H2757 C2763 0.930 . S
C2758 H2744 0.930 . S
C2758 C2756 1.395 . S
C2758 C2761 1.403 . S
C2759 C2756 1.403 . S
C2759 C2760 1.524 . S
C2759 C2763 1.400 . S
C2760 H2745 0.960 . S
C2760 H2746 0.960 . S
C2760 H2747 0.960 . S
C2760 C2759 1.524 . S
C2761 C2758 1.403 . S
C2761 C2762 1.392 . S
C2761 C2765 1.495 . S
C2762 C2761 1.392 . S
C2762 C2763 1.385 . S
C2762 C2764 1.478 . S
C2763 H2757 0.930 . S
C2763 C2759 1.400 . S
C2763 C2762 1.385 . S
C2764 C2762 1.478 . S
C2764 C2766 1.381 . S
C2764 C2770 1.383 . S
C2765 C2761 1.495 . S
C2765 H2771 0.959 . S
C2765 H2772 0.961 . S
C2765 H2773 0.960 . S
C2766 C2764 1.381 . S
C2766 C2767 1.394 . S
C2766 H2774 0.930 . S
C2767 C2766 1.394 . S
C2767 C2768 1.383 . S
C2767 H2775 0.929 . S
C2768 C2767 1.383 . S
C2768 C2769 1.377 . S
C2769 H2753 0.930 . S
C2769 C2768 1.377 . S
C2769 C2770 1.379 . S
C2770 H2754 0.931 . S
C2770 C2764 1.383 . S
C2770 C2769 1.379 . S
H2771 C2765 0.959 . S
H2772 C2765 0.961 . S
H2773 C2765 0.960 . S
H2774 C2766 0.930 . S
H2775 C2767 0.929 . S
H2776 C2784 0.929 . S
H2777 C2786 0.930 . S
H2778 C2788 0.930 . S
H2779 C2791 0.929 . S
H2780 C2794 0.930 . S
H2781 C2796 0.949 1_655 S
H2782 C2796 0.960 1_655 S
H2783 C2796 0.960 . S
C2784 H2776 0.929 . S
C2784 C2785 1.377 . S
C2784 C2786 1.384 . S
C2785 C2784 1.377 . S
C2785 C2791 1.390 . S
C2786 H2777 0.930 . S
C2786 C2784 1.384 . S
C2786 C2787 1.372 . S
C2787 C2786 1.372 . S
C2787 C2788 1.400 . S
C2787 C2792 1.490 . S
C2788 H2778 0.930 . S
C2788 C2787 1.400 . S
C2788 C2791 1.386 . S
H2789 C2805 0.930 . S
H2790 C2806 0.931 . S
C2791 H2779 0.929 . S
C2791 C2785 1.390 . S
C2791 C2788 1.386 . S
C2792 C2787 1.490 . S
C2792 C2794 1.395 . S
C2792 C2795 1.403 . S
H2793 C2799 0.930 . S
C2794 H2780 0.930 . S
C2794 C2792 1.395 . S
C2794 C2797 1.403 . S
C2795 C2792 1.403 . S
C2795 C2796 1.524 . S
C2795 C2799 1.400 . S
C2796 H2781 0.949 1_455 S
C2796 H2782 0.960 1_455 S
C2796 H2783 0.960 . S
C2796 C2795 1.524 . S
C2797 C2794 1.403 . S
C2797 C2798 1.392 . S
C2797 C2801 1.495 1_556 S
C2798 C2797 1.392 . S
C2798 C2799 1.385 . S
C2798 C2800 1.478 . S
C2799 H2793 0.930 . S
C2799 C2795 1.400 . S
C2799 C2798 1.385 . S
C2800 C2798 1.478 . S
C2800 C2802 1.381 1_556 S
C2800 C2806 1.383 . S
C2801 C2797 1.495 1_554 S
C2801 H2807 0.959 . S
C2801 H2808 0.961 . S
C2801 H2809 0.960 . S
C2802 C2800 1.381 1_554 S
C2802 C2803 1.394 . S
C2802 H2810 0.930 . S
C2803 C2802 1.394 . S
C2803 C2804 1.383 . S
C2803 H2811 0.929 . S
C2804 C2803 1.383 . S
C2804 C2805 1.377 1_554 S
C2805 H2789 0.930 . S
C2805 C2804 1.377 1_556 S
C2805 C2806 1.379 . S
C2806 H2790 0.931 . S
C2806 C2800 1.383 . S
C2806 C2805 1.379 . S
H2807 C2801 0.959 . S
H2808 C2801 0.961 . S
H2809 C2801 0.960 . S
H2810 C2802 0.930 . S
H2811 C2803 0.929 . S
H2812 C2820 0.929 . S
H2813 C2822 0.930 . S
H2814 C2824 0.930 . S
H2815 C2827 0.929 . S
H2816 C2830 0.930 . S
H2817 C2832 0.960 . S
H2818 C2832 0.960 . S
H2819 C2832 0.960 . S
C2820 H2812 0.929 . S
C2820 C2821 1.377 . S
C2820 C2822 1.384 1_455 S
C2821 C2820 1.377 . S
C2821 C2827 1.390 . S
C2822 H2813 0.930 . S
C2822 C2820 1.384 1_655 S
C2822 C2823 1.372 . S
C2823 C2822 1.372 . S
C2823 C2824 1.400 . S
C2823 C2828 1.490 . S
C2824 H2814 0.930 . S
C2824 C2823 1.400 . S
C2824 C2827 1.386 1_655 S
H2825 C2841 0.930 . S
H2826 C2842 0.931 . S
C2827 H2815 0.929 . S
C2827 C2821 1.390 . S
C2827 C2824 1.386 1_455 S
C2828 C2823 1.490 . S
C2828 C2830 1.395 . S
C2828 C2831 1.403 . S
H2829 C2835 0.930 . S
C2830 H2816 0.930 . S
C2830 C2828 1.395 . S
C2830 C2833 1.403 . S
C2831 C2828 1.403 . S
C2831 C2832 1.524 . S
C2831 C2835 1.400 . S
C2832 H2817 0.960 . S
C2832 H2818 0.960 . S
C2832 H2819 0.960 . S
C2832 C2831 1.524 . S
C2833 C2830 1.403 . S
C2833 C2834 1.392 . S
C2833 C2837 1.495 . S
C2834 C2833 1.392 . S
C2834 C2835 1.385 . S
C2834 C2836 1.478 . S
C2835 H2829 0.930 . S
C2835 C2831 1.400 . S
C2835 C2834 1.385 . S
C2836 C2834 1.478 . S
C2836 C2838 1.381 . S
C2836 C2842 1.383 . S
C2837 C2833 1.495 . S
C2837 H2843 0.959 . S
C2837 H2844 0.961 . S
C2837 H2845 0.960 . S
C2838 C2836 1.381 . S
C2838 C2839 1.394 . S
C2838 H2846 0.930 . S
C2839 C2838 1.394 . S
C2839 C2840 1.383 . S
C2839 H2847 0.929 . S
C2840 C2839 1.383 . S
C2840 C2841 1.377 . S
C2841 H2825 0.930 . S
C2841 C2840 1.377 . S
C2841 C2842 1.379 . S
C2842 H2826 0.931 . S
C2842 C2836 1.383 . S
C2842 C2841 1.379 . S
H2843 C2837 0.959 . S
H2844 C2837 0.961 . S
H2845 C2837 0.960 . S
H2846 C2838 0.930 . S
H2847 C2839 0.929 . S
H2848 C2856 0.929 . S
H2849 C2858 0.930 . S
H2850 C2860 0.930 . S
H2851 C2863 0.929 . S
H2852 C2866 0.930 . S
H2853 C2868 0.960 . S
H2854 C2868 0.960 . S
H2855 C2868 0.960 . S
C2856 H2848 0.929 . S
C2856 C2857 1.377 . S
C2856 C2858 1.384 . S
C2857 C2856 1.377 . S
C2857 C2863 1.390 . S
C2858 H2849 0.930 . S
C2858 C2856 1.384 . S
C2858 C2859 1.372 . S
C2859 C2858 1.372 . S
C2859 C2860 1.400 . S
C2859 C2864 1.490 . S
C2860 H2850 0.930 . S
C2860 C2859 1.400 . S
C2860 C2863 1.386 . S
H2861 C2877 0.930 . S
H2862 C2878 0.931 . S
C2863 H2851 0.929 . S
C2863 C2857 1.390 . S
C2863 C2860 1.386 . S
C2864 C2859 1.490 . S
C2864 C2866 1.395 . S
C2864 C2867 1.403 . S
H2865 C2871 0.930 . S
C2866 H2852 0.930 . S
C2866 C2864 1.395 . S
C2866 C2869 1.403 . S
C2867 C2864 1.403 . S
C2867 C2868 1.524 . S
C2867 C2871 1.400 . S
C2868 H2853 0.960 . S
C2868 H2854 0.960 . S
C2868 H2855 0.960 . S
C2868 C2867 1.524 . S
C2869 C2866 1.403 . S
C2869 C2870 1.392 . S
C2869 C2873 1.495 . S
C2870 C2869 1.392 . S
C2870 C2871 1.385 . S
C2870 C2872 1.478 . S
C2871 H2865 0.930 . S
C2871 C2867 1.400 . S
C2871 C2870 1.385 . S
C2872 C2870 1.478 . S
C2872 C2874 1.381 . S
C2872 C2878 1.383 . S
C2873 C2869 1.495 . S
C2873 H2879 0.959 . S
C2873 H2880 0.961 . S
C2873 H2881 0.960 . S
C2874 C2872 1.381 . S
C2874 C2875 1.394 . S
C2874 H2882 0.930 . S
C2875 C2874 1.394 . S
C2875 C2876 1.383 . S
C2875 H2883 0.929 . S
C2876 C2875 1.383 . S
C2876 C2877 1.377 . S
C2877 H2861 0.930 . S
C2877 C2876 1.377 . S
C2877 C2878 1.379 . S
C2878 H2862 0.931 . S
C2878 C2872 1.383 . S
C2878 C2877 1.379 . S
H2879 C2873 0.959 . S
H2880 C2873 0.961 . S
H2881 C2873 0.960 . S
H2882 C2874 0.930 . S
H2883 C2875 0.929 . S
H2884 C2892 0.929 . S
H2885 C2894 0.930 . S
H2886 C2896 0.930 . S
H2887 C2899 0.929 . S
H2888 C2902 0.930 . S
H2889 C2904 0.960 . S
H2890 C2904 0.960 1_455 S
H2891 C2904 0.960 1_455 S
C2892 H2884 0.929 . S
C2892 C2893 1.377 . S
C2892 C2894 1.384 . S
C2893 C2892 1.377 . S
C2893 C2899 1.390 . S
C2894 H2885 0.930 . S
C2894 C2892 1.384 . S
C2894 C2895 1.372 . S
C2895 C2894 1.372 . S
C2895 C2896 1.400 . S
C2895 C2900 1.490 1_455 S
C2896 H2886 0.930 . S
C2896 C2895 1.400 . S
C2896 C2899 1.386 . S
H2897 C2913 0.930 . S
H2898 C2914 0.931 . S
C2899 H2887 0.929 . S
C2899 C2893 1.390 . S
C2899 C2896 1.386 . S
C2900 C2895 1.490 1_655 S
C2900 C2902 1.395 . S
C2900 C2903 1.403 . S
H2901 C2907 0.930 . S
C2902 H2888 0.930 . S
C2902 C2900 1.395 . S
C2902 C2905 1.403 . S
C2903 C2900 1.403 . S
C2903 C2904 1.524 . S
C2903 C2907 1.400 . S
C2904 H2889 0.960 . S
C2904 H2890 0.960 1_655 S
C2904 H2891 0.960 1_655 S
C2904 C2903 1.524 . S
C2905 C2902 1.403 . S
C2905 C2906 1.392 . S
C2905 C2909 1.495 . S
C2906 C2905 1.392 . S
C2906 C2907 1.385 . S
C2906 C2908 1.478 . S
C2907 H2901 0.930 . S
C2907 C2903 1.400 . S
C2907 C2906 1.385 . S
C2908 C2906 1.478 . S
C2908 C2910 1.381 . S
C2908 C2914 1.383 . S
C2909 C2905 1.495 . S
C2909 H2915 0.959 . S
C2909 H2916 0.961 . S
C2909 H2917 0.960 . S
C2910 C2908 1.381 . S
C2910 C2911 1.394 . S
C2910 H2918 0.930 . S
C2911 C2910 1.394 . S
C2911 C2912 1.383 . S
C2911 H2919 0.929 . S
C2912 C2911 1.383 . S
C2912 C2913 1.377 . S
C2913 H2897 0.930 . S
C2913 C2912 1.377 . S
C2913 C2914 1.379 . S
C2914 H2898 0.931 . S
C2914 C2908 1.383 . S
C2914 C2913 1.379 . S
H2915 C2909 0.959 . S
H2916 C2909 0.961 . S
H2917 C2909 0.960 . S
H2918 C2910 0.930 . S
H2919 C2911 0.929 . S
H2920 C2928 0.929 . S
H2921 C2930 0.930 . S
H2922 C2932 0.930 . S
H2923 C2935 0.929 . S
H2924 C2938 0.930 . S
H2925 C2940 0.960 . S
H2926 C2940 0.960 . S
H2927 C2940 0.960 . S
C2928 H2920 0.929 . S
C2928 C2929 1.377 . S
C2928 C2930 1.384 . S
C2929 C2928 1.377 . S
C2929 C2935 1.390 1_655 S
C2930 H2921 0.930 . S
C2930 C2928 1.384 . S
C2930 C2931 1.372 1_655 S
C2931 C2930 1.372 1_455 S
C2931 C2932 1.400 . S
C2931 C2936 1.490 . S
C2932 H2922 0.930 . S
C2932 C2931 1.400 . S
C2932 C2935 1.386 . S
H2933 C2949 0.930 . S
H2934 C2950 0.931 . S
C2935 H2923 0.929 . S
C2935 C2929 1.390 1_455 S
C2935 C2932 1.386 . S
C2936 C2931 1.490 . S
C2936 C2938 1.395 1_455 S
C2936 C2939 1.403 . S
H2937 C2943 0.930 . S
C2938 H2924 0.930 . S
C2938 C2936 1.395 1_655 S
C2938 C2941 1.403 . S
C2939 C2936 1.403 . S
C2939 C2940 1.524 . S
C2939 C2943 1.400 . S
C2940 H2925 0.960 . S
C2940 H2926 0.960 . S
C2940 H2927 0.960 . S
C2940 C2939 1.524 . S
C2941 C2938 1.403 . S
C2941 C2942 1.392 1_655 S
C2941 C2945 1.495 . S
C2942 C2941 1.392 1_455 S
C2942 C2943 1.385 . S
C2942 C2944 1.478 . S
C2943 H2937 0.930 . S
C2943 C2939 1.400 . S
C2943 C2942 1.385 . S
C2944 C2942 1.478 . S
C2944 C2946 1.381 . S
C2944 C2950 1.383 . S
C2945 C2941 1.495 . S
C2945 H2951 0.959 . S
C2945 H2952 0.961 . S
C2945 H2953 0.960 . S
C2946 C2944 1.381 . S
C2946 C2947 1.394 . S
C2946 H2954 0.930 1_455 S
C2947 C2946 1.394 . S
C2947 C2948 1.383 . S
C2947 H2955 0.929 . S
C2948 C2947 1.383 . S
C2948 C2949 1.377 . S
C2949 H2933 0.930 . S
C2949 C2948 1.377 . S
C2949 C2950 1.379 . S
C2950 H2934 0.931 . S
C2950 C2944 1.383 . S
C2950 C2949 1.379 . S
H2951 C2945 0.959 . S
H2952 C2945 0.961 . S
H2953 C2945 0.960 . S
H2954 C2946 0.930 1_655 S
H2955 C2947 0.929 . S
H2956 C2964 0.929 . S
H2957 C2966 0.930 . S
H2958 C2968 0.930 . S
H2959 C2971 0.929 . S
H2960 C2974 0.930 . S
H2961 C2976 0.960 . S
H2962 C2976 0.960 . S
H2963 C2976 0.960 . S
C2964 H2956 0.929 . S
C2964 C2965 1.377 . S
C2964 C2966 1.384 . S
C2965 C2964 1.377 . S
C2965 C2971 1.390 . S
C2966 H2957 0.930 . S
C2966 C2964 1.384 . S
C2966 C2967 1.372 . S
C2967 C2966 1.372 . S
C2967 C2968 1.400 . S
C2967 C2972 1.490 . S
C2968 H2958 0.930 . S
C2968 C2967 1.400 . S
C2968 C2971 1.386 . S
H2969 C2985 0.930 . S
H2970 C2986 0.931 . S
C2971 H2959 0.929 . S
C2971 C2965 1.390 . S
C2971 C2968 1.386 . S
C2972 C2967 1.490 . S
C2972 C2974 1.395 . S
C2972 C2975 1.403 . S
H2973 C2979 0.930 . S
C2974 H2960 0.930 . S
C2974 C2972 1.395 . S
C2974 C2977 1.403 . S
C2975 C2972 1.403 . S
C2975 C2976 1.524 . S
C2975 C2979 1.400 . S
C2976 H2961 0.960 . S
C2976 H2962 0.960 . S
C2976 H2963 0.960 . S
C2976 C2975 1.524 . S
C2977 C2974 1.403 . S
C2977 C2978 1.392 . S
C2977 C2981 1.495 . S
C2978 C2977 1.392 . S
C2978 C2979 1.385 . S
C2978 C2980 1.478 . S
C2979 H2973 0.930 . S
C2979 C2975 1.400 . S
C2979 C2978 1.385 . S
C2980 C2978 1.478 . S
C2980 C2982 1.381 . S
C2980 C2986 1.383 . S
C2981 C2977 1.495 . S
C2981 H2987 0.959 . S
C2981 H2988 0.961 . S
C2981 H2989 0.960 . S
C2982 C2980 1.381 . S
C2982 C2983 1.394 . S
C2982 H2990 0.930 . S
C2983 C2982 1.394 . S
C2983 C2984 1.383 . S
C2983 H2991 0.929 . S
C2984 C2983 1.383 . S
C2984 C2985 1.377 . S
C2985 H2969 0.930 . S
C2985 C2984 1.377 . S
C2985 C2986 1.379 . S
C2986 H2970 0.931 . S
C2986 C2980 1.383 . S
C2986 C2985 1.379 . S
H2987 C2981 0.959 . S
H2988 C2981 0.961 . S
H2989 C2981 0.960 . S
H2990 C2982 0.930 . S
H2991 C2983 0.929 . S
H2992 C3000 0.929 . S
H2993 C3002 0.930 . S
H2994 C3004 0.930 . S
H2995 C3007 0.929 . S
H2996 C3010 0.930 . S
H2997 C3012 0.960 . S
H2998 C3012 0.960 . S
H2999 C3012 0.960 . S
C3000 H2992 0.929 . S
C3000 C3001 1.377 . S
C3000 C3002 1.384 . S
C3001 C3000 1.377 . S
C3001 C3007 1.390 . S
C3002 H2993 0.930 . S
C3002 C3000 1.384 . S
C3002 C3003 1.372 . S
C3003 C3002 1.372 . S
C3003 C3004 1.400 . S
C3003 C3008 1.490 . S
C3004 H2994 0.930 . S
C3004 C3003 1.400 . S
C3004 C3007 1.386 . S
H3005 C3021 0.930 . S
H3006 C3022 0.931 . S
C3007 H2995 0.929 . S
C3007 C3001 1.390 . S
C3007 C3004 1.386 . S
C3008 C3003 1.490 . S
C3008 C3010 1.395 . S
C3008 C3011 1.403 . S
H3009 C3015 0.930 . S
C3010 H2996 0.930 . S
C3010 C3008 1.395 . S
C3010 C3013 1.403 . S
C3011 C3008 1.403 . S
C3011 C3012 1.524 . S
C3011 C3015 1.400 . S
C3012 H2997 0.960 . S
C3012 H2998 0.960 . S
C3012 H2999 0.960 . S
C3012 C3011 1.524 . S
C3013 C3010 1.403 . S
C3013 C3014 1.392 . S
C3013 C3017 1.495 . S
C3014 C3013 1.392 . S
C3014 C3015 1.385 . S
C3014 C3016 1.478 . S
C3015 H3009 0.930 . S
C3015 C3011 1.400 . S
C3015 C3014 1.385 . S
C3016 C3014 1.478 . S
C3016 C3018 1.381 . S
C3016 C3022 1.383 . S
C3017 C3013 1.495 . S
C3017 H3023 0.959 . S
C3017 H3024 0.961 . S
C3017 H3025 0.960 . S
C3018 C3016 1.381 . S
C3018 C3019 1.394 . S
C3018 H3026 0.930 . S
C3019 C3018 1.394 . S
C3019 C3020 1.383 . S
C3019 H3027 0.929 . S
C3020 C3019 1.383 . S
C3020 C3021 1.377 . S
C3021 H3005 0.930 . S
C3021 C3020 1.377 . S
C3021 C3022 1.379 . S
C3022 H3006 0.931 . S
C3022 C3016 1.383 . S
C3022 C3021 1.379 . S
H3023 C3017 0.959 . S
H3024 C3017 0.961 . S
H3025 C3017 0.960 . S
H3026 C3018 0.930 . S
H3027 C3019 0.929 . S
H3028 C3036 0.929 . S
H3029 C3038 0.930 . S
H3030 C3040 0.930 . S
H3031 C3043 0.929 . S
H3032 C3046 0.930 . S
H3033 C3048 0.960 . S
H3034 C3048 0.960 . S
H3035 C3048 0.960 . S
C3036 H3028 0.929 . S
C3036 C3037 1.377 . S
C3036 C3038 1.384 . S
C3037 C3036 1.377 . S
C3037 C3043 1.390 . S
C3038 H3029 0.930 . S
C3038 C3036 1.384 . S
C3038 C3039 1.372 . S
C3039 C3038 1.372 . S
C3039 C3040 1.400 . S
C3039 C3044 1.490 . S
C3040 H3030 0.930 . S
C3040 C3039 1.400 . S
C3040 C3043 1.386 . S
H3041 C3057 0.930 . S
H3042 C3058 0.931 . S
C3043 H3031 0.929 . S
C3043 C3037 1.390 . S
C3043 C3040 1.386 . S
C3044 C3039 1.490 . S
C3044 C3046 1.395 . S
C3044 C3047 1.403 . S
H3045 C3051 0.930 . S
C3046 H3032 0.930 . S
C3046 C3044 1.395 . S
C3046 C3049 1.403 . S
C3047 C3044 1.403 . S
C3047 C3048 1.524 . S
C3047 C3051 1.400 . S
C3048 H3033 0.960 . S
C3048 H3034 0.960 . S
C3048 H3035 0.960 . S
C3048 C3047 1.524 . S
C3049 C3046 1.403 . S
C3049 C3050 1.392 . S
C3049 C3053 1.495 . S
C3050 C3049 1.392 . S
C3050 C3051 1.385 . S
C3050 C3052 1.478 . S
C3051 H3045 0.930 . S
C3051 C3047 1.400 . S
C3051 C3050 1.385 . S
C3052 C3050 1.478 . S
C3052 C3054 1.381 . S
C3052 C3058 1.383 . S
C3053 C3049 1.495 . S
C3053 H3059 0.959 . S
C3053 H3060 0.961 . S
C3053 H3061 0.960 . S
C3054 C3052 1.381 . S
C3054 C3055 1.394 . S
C3054 H3062 0.930 . S
C3055 C3054 1.394 . S
C3055 C3056 1.383 . S
C3055 H3063 0.929 . S
C3056 C3055 1.383 . S
C3056 C3057 1.377 . S
C3057 H3041 0.930 . S
C3057 C3056 1.377 . S
C3057 C3058 1.379 . S
C3058 H3042 0.931 . S
C3058 C3052 1.383 . S
C3058 C3057 1.379 . S
H3059 C3053 0.959 . S
H3060 C3053 0.961 . S
H3061 C3053 0.960 . S
H3062 C3054 0.930 . S
H3063 C3055 0.929 . S
H3064 C3072 0.929 . S
H3065 C3074 0.930 . S
H3066 C3076 0.930 . S
H3067 C3079 0.929 . S
H3068 C3082 0.930 . S
H3069 C3084 0.960 . S
H3070 C3084 0.960 . S
H3071 C3084 0.960 . S
C3072 H3064 0.929 . S
C3072 C3073 1.377 . S
C3072 C3074 1.384 . S
C3073 C3072 1.377 . S
C3073 C3079 1.390 . S
C3074 H3065 0.930 . S
C3074 C3072 1.384 . S
C3074 C3075 1.372 . S
C3075 C3074 1.372 . S
C3075 C3076 1.400 . S
C3075 C3080 1.490 . S
C3076 H3066 0.930 . S
C3076 C3075 1.400 . S
C3076 C3079 1.386 . S
H3077 C3093 0.930 . S
H3078 C3094 0.931 . S
C3079 H3067 0.929 . S
C3079 C3073 1.390 . S
C3079 C3076 1.386 . S
C3080 C3075 1.490 . S
C3080 C3082 1.395 . S
C3080 C3083 1.403 . S
H3081 C3087 0.930 . S
C3082 H3068 0.930 . S
C3082 C3080 1.395 . S
C3082 C3085 1.403 . S
C3083 C3080 1.403 . S
C3083 C3084 1.524 . S
C3083 C3087 1.400 . S
C3084 H3069 0.960 . S
C3084 H3070 0.960 . S
C3084 H3071 0.960 . S
C3084 C3083 1.524 . S
C3085 C3082 1.403 . S
C3085 C3086 1.392 . S
C3085 C3089 1.495 . S
C3086 C3085 1.392 . S
C3086 C3087 1.385 . S
C3086 C3088 1.478 . S
C3087 H3081 0.930 . S
C3087 C3083 1.400 . S
C3087 C3086 1.385 . S
C3088 C3086 1.478 . S
C3088 C3090 1.381 . S
C3088 C3094 1.383 . S
C3089 C3085 1.495 . S
C3089 H3095 0.959 . S
C3089 H3096 0.961 . S
C3089 H3097 0.960 . S
C3090 C3088 1.381 . S
C3090 C3091 1.394 . S
C3090 H3098 0.930 . S
C3091 C3090 1.394 . S
C3091 C3092 1.383 . S
C3091 H3099 0.929 . S
C3092 C3091 1.383 . S
C3092 C3093 1.377 . S
C3093 H3077 0.930 . S
C3093 C3092 1.377 . S
C3093 C3094 1.379 . S
C3094 H3078 0.931 . S
C3094 C3088 1.383 . S
C3094 C3093 1.379 . S
H3095 C3089 0.959 . S
H3096 C3089 0.961 . S
H3097 C3089 0.960 . S
H3098 C3090 0.930 . S
H3099 C3091 0.929 . S
H3100 C3108 0.929 . S
H3101 C3110 0.930 . S
H3102 C3112 0.930 . S
H3103 C3115 0.929 . S
H3104 C3118 0.930 . S
H3105 C3120 0.960 . S
H3106 C3120 0.960 . S
H3107 C3120 0.960 . S
C3108 H3100 0.929 . S
C3108 C3109 1.377 . S
C3108 C3110 1.384 . S
C3109 C3108 1.377 . S
C3109 C3115 1.390 . S
C3110 H3101 0.930 . S
C3110 C3108 1.384 . S
C3110 C3111 1.372 . S
C3111 C3110 1.372 . S
C3111 C3112 1.400 . S
C3111 C3116 1.490 . S
C3112 H3102 0.930 . S
C3112 C3111 1.400 . S
C3112 C3115 1.386 . S
H3113 C3129 0.930 . S
H3114 C3130 0.931 . S
C3115 H3103 0.929 . S
C3115 C3109 1.390 . S
C3115 C3112 1.386 . S
C3116 C3111 1.490 . S
C3116 C3118 1.395 . S
C3116 C3119 1.403 . S
H3117 C3123 0.930 . S
C3118 H3104 0.930 . S
C3118 C3116 1.395 . S
C3118 C3121 1.403 . S
C3119 C3116 1.403 . S
C3119 C3120 1.524 . S
C3119 C3123 1.400 . S
C3120 H3105 0.960 . S
C3120 H3106 0.960 . S
C3120 H3107 0.960 . S
C3120 C3119 1.524 . S
C3121 C3118 1.403 . S
C3121 C3122 1.392 . S
C3121 C3125 1.495 . S
C3122 C3121 1.392 . S
C3122 C3123 1.385 . S
C3122 C3124 1.478 . S
C3123 H3117 0.930 . S
C3123 C3119 1.400 . S
C3123 C3122 1.385 . S
C3124 C3122 1.478 . S
C3124 C3126 1.381 . S
C3124 C3130 1.383 . S
C3125 C3121 1.495 . S
C3125 H3131 0.959 . S
C3125 H3132 0.961 . S
C3125 H3133 0.960 . S
C3126 C3124 1.381 . S
C3126 C3127 1.394 . S
C3126 H3134 0.930 . S
C3127 C3126 1.394 . S
C3127 C3128 1.383 . S
C3127 H3135 0.929 . S
C3128 C3127 1.383 . S
C3128 C3129 1.377 . S
C3129 H3113 0.930 . S
C3129 C3128 1.377 . S
C3129 C3130 1.379 . S
C3130 H3114 0.931 . S
C3130 C3124 1.383 . S
C3130 C3129 1.379 . S
H3131 C3125 0.959 . S
H3132 C3125 0.961 . S
H3133 C3125 0.960 . S
H3134 C3126 0.930 . S
H3135 C3127 0.929 . S
H3136 C3144 0.929 . S
H3137 C3146 0.930 . S
H3138 C3148 0.930 . S
H3139 C3151 0.929 . S
H3140 C3154 0.930 . S
H3141 C3156 0.960 . S
H3142 C3156 0.960 . S
H3143 C3156 0.960 . S
C3144 H3136 0.929 . S
C3144 C3145 1.377 . S
C3144 C3146 1.384 . S
C3145 C3144 1.377 . S
C3145 C3151 1.390 . S
C3146 H3137 0.930 . S
C3146 C3144 1.384 . S
C3146 C3147 1.372 . S
C3147 C3146 1.372 . S
C3147 C3148 1.400 . S
C3147 C3152 1.490 . S
C3148 H3138 0.930 . S
C3148 C3147 1.400 . S
C3148 C3151 1.386 . S
H3149 C3165 0.930 . S
H3150 C3166 0.931 . S
C3151 H3139 0.929 . S
C3151 C3145 1.390 . S
C3151 C3148 1.386 . S
C3152 C3147 1.490 . S
C3152 C3154 1.395 . S
C3152 C3155 1.403 . S
H3153 C3159 0.930 . S
C3154 H3140 0.930 . S
C3154 C3152 1.395 . S
C3154 C3157 1.403 . S
C3155 C3152 1.403 . S
C3155 C3156 1.524 . S
C3155 C3159 1.400 . S
C3156 H3141 0.960 . S
C3156 H3142 0.960 . S
C3156 H3143 0.960 . S
C3156 C3155 1.524 . S
C3157 C3154 1.403 . S
C3157 C3158 1.392 . S
C3157 C3161 1.495 . S
C3158 C3157 1.392 . S
C3158 C3159 1.385 . S
C3158 C3160 1.478 . S
C3159 H3153 0.930 . S
C3159 C3155 1.400 . S
C3159 C3158 1.385 . S
C3160 C3158 1.478 . S
C3160 C3162 1.381 . S
C3160 C3166 1.383 . S
C3161 C3157 1.495 . S
C3161 H3167 0.959 . S
C3161 H3168 0.961 . S
C3161 H3169 0.960 . S
C3162 C3160 1.381 . S
C3162 C3163 1.394 . S
C3162 H3170 0.930 . S
C3163 C3162 1.394 . S
C3163 C3164 1.383 . S
C3163 H3171 0.929 . S
C3164 C3163 1.383 . S
C3164 C3165 1.377 . S
C3165 H3149 0.930 . S
C3165 C3164 1.377 . S
C3165 C3166 1.379 . S
C3166 H3150 0.931 . S
C3166 C3160 1.383 . S
C3166 C3165 1.379 . S
H3167 C3161 0.959 . S
H3168 C3161 0.961 . S
H3169 C3161 0.960 . S
H3170 C3162 0.930 . S
H3171 C3163 0.929 . S
H3172 C3180 0.929 . S
H3173 C3182 0.930 . S
H3174 C3184 0.930 . S
H3175 C3187 0.929 . S
H3176 C3190 0.930 . S
H3177 C3192 0.960 . S
H3178 C3192 0.960 . S
H3179 C3192 0.960 . S
C3180 H3172 0.929 . S
C3180 C3181 1.377 . S
C3180 C3182 1.384 . S
C3181 C3180 1.377 . S
C3181 C3187 1.390 . S
C3182 H3173 0.930 . S
C3182 C3180 1.384 . S
C3182 C3183 1.372 . S
C3183 C3182 1.372 . S
C3183 C3184 1.400 . S
C3183 C3188 1.490 . S
C3184 H3174 0.930 . S
C3184 C3183 1.400 . S
C3184 C3187 1.386 . S
H3185 C3201 0.930 . S
H3186 C3202 0.931 . S
C3187 H3175 0.929 . S
C3187 C3181 1.390 . S
C3187 C3184 1.386 . S
C3188 C3183 1.490 . S
C3188 C3190 1.395 . S
C3188 C3191 1.403 . S
H3189 C3195 0.930 . S
C3190 H3176 0.930 . S
C3190 C3188 1.395 . S
C3190 C3193 1.403 . S
C3191 C3188 1.403 . S
C3191 C3192 1.524 . S
C3191 C3195 1.400 . S
C3192 H3177 0.960 . S
C3192 H3178 0.960 . S
C3192 H3179 0.960 . S
C3192 C3191 1.524 . S
C3193 C3190 1.403 . S
C3193 C3194 1.392 . S
C3193 C3197 1.495 . S
C3194 C3193 1.392 . S
C3194 C3195 1.385 . S
C3194 C3196 1.478 . S
C3195 H3189 0.930 . S
C3195 C3191 1.400 . S
C3195 C3194 1.385 . S
C3196 C3194 1.478 . S
C3196 C3198 1.381 . S
C3196 C3202 1.383 . S
C3197 C3193 1.495 . S
C3197 H3203 0.959 . S
C3197 H3204 0.961 . S
C3197 H3205 0.960 . S
C3198 C3196 1.381 . S
C3198 C3199 1.394 . S
C3198 H3206 0.930 . S
C3199 C3198 1.394 . S
C3199 C3200 1.383 . S
C3199 H3207 0.929 . S
C3200 C3199 1.383 . S
C3200 C3201 1.377 . S
C3201 H3185 0.930 . S
C3201 C3200 1.377 . S
C3201 C3202 1.379 . S
C3202 H3186 0.931 . S
C3202 C3196 1.383 . S
C3202 C3201 1.379 . S
H3203 C3197 0.959 . S
H3204 C3197 0.961 . S
H3205 C3197 0.960 . S
H3206 C3198 0.930 . S
H3207 C3199 0.929 . S
H3208 C3216 0.929 . S
H3209 C3218 0.930 . S
H3210 C3220 0.930 . S
H3211 C3223 0.929 . S
H3212 C3226 0.930 . S
H3213 C3228 0.960 . S
H3214 C3228 0.960 . S
H3215 C3228 0.960 . S
C3216 H3208 0.929 . S
C3216 C3217 1.377 . S
C3216 C3218 1.384 . S
C3217 C3216 1.377 . S
C3217 C3223 1.390 . S
C3218 H3209 0.930 . S
C3218 C3216 1.384 . S
C3218 C3219 1.372 . S
C3219 C3218 1.372 . S
C3219 C3220 1.400 . S
C3219 C3224 1.490 . S
C3220 H3210 0.930 . S
C3220 C3219 1.400 . S
C3220 C3223 1.386 . S
H3221 C3237 0.930 . S
H3222 C3238 0.931 . S
C3223 H3211 0.929 . S
C3223 C3217 1.390 . S
C3223 C3220 1.386 . S
C3224 C3219 1.490 . S
C3224 C3226 1.395 . S
C3224 C3227 1.403 . S
H3225 C3231 0.930 . S
C3226 H3212 0.930 . S
C3226 C3224 1.395 . S
C3226 C3229 1.403 . S
C3227 C3224 1.403 . S
C3227 C3228 1.524 . S
C3227 C3231 1.400 . S
C3228 H3213 0.960 . S
C3228 H3214 0.960 . S
C3228 H3215 0.960 . S
C3228 C3227 1.524 . S
C3229 C3226 1.403 . S
C3229 C3230 1.392 . S
C3229 C3233 1.495 . S
C3230 C3229 1.392 . S
C3230 C3231 1.385 . S
C3230 C3232 1.478 . S
C3231 H3225 0.930 . S
C3231 C3227 1.400 . S
C3231 C3230 1.385 . S
C3232 C3230 1.478 . S
C3232 C3234 1.381 . S
C3232 C3238 1.383 . S
C3233 C3229 1.495 . S
C3233 H3239 0.959 . S
C3233 H3240 0.961 . S
C3233 H3241 0.960 . S
C3234 C3232 1.381 . S
C3234 C3235 1.394 . S
C3234 H3242 0.930 . S
C3235 C3234 1.394 . S
C3235 C3236 1.383 . S
C3235 H3243 0.929 . S
C3236 C3235 1.383 . S
C3236 C3237 1.377 . S
C3237 H3221 0.930 . S
C3237 C3236 1.377 . S
C3237 C3238 1.379 . S
C3238 H3222 0.931 . S
C3238 C3232 1.383 . S
C3238 C3237 1.379 . S
H3239 C3233 0.959 . S
H3240 C3233 0.961 . S
H3241 C3233 0.960 . S
H3242 C3234 0.930 . S
H3243 C3235 0.929 . S
H3244 C3252 0.929 . S
H3245 C3254 0.930 . S
H3246 C3256 0.930 . S
H3247 C3259 0.929 . S
H3248 C3262 0.930 . S
H3249 C3264 0.960 . S
H3250 C3264 0.960 . S
H3251 C3264 0.960 . S
C3252 H3244 0.929 . S
C3252 C3253 1.377 . S
C3252 C3254 1.384 . S
C3253 C3252 1.377 . S
C3253 C3259 1.390 . S
C3254 H3245 0.930 . S
C3254 C3252 1.384 . S
C3254 C3255 1.372 . S
C3255 C3254 1.372 . S
C3255 C3256 1.400 . S
C3255 C3260 1.490 . S
C3256 H3246 0.930 . S
C3256 C3255 1.400 . S
C3256 C3259 1.386 . S
H3257 C3273 0.930 . S
H3258 C3274 0.931 . S
C3259 H3247 0.929 . S
C3259 C3253 1.390 . S
C3259 C3256 1.386 . S
C3260 C3255 1.490 . S
C3260 C3262 1.395 . S
C3260 C3263 1.403 . S
H3261 C3267 0.930 . S
C3262 H3248 0.930 . S
C3262 C3260 1.395 . S
C3262 C3265 1.403 . S
C3263 C3260 1.403 . S
C3263 C3264 1.524 . S
C3263 C3267 1.400 . S
C3264 H3249 0.960 . S
C3264 H3250 0.960 . S
C3264 H3251 0.960 . S
C3264 C3263 1.524 . S
C3265 C3262 1.403 . S
C3265 C3266 1.392 . S
C3265 C3269 1.495 . S
C3266 C3265 1.392 . S
C3266 C3267 1.385 . S
C3266 C3268 1.478 . S
C3267 H3261 0.930 . S
C3267 C3263 1.400 . S
C3267 C3266 1.385 . S
C3268 C3266 1.478 . S
C3268 C3270 1.381 . S
C3268 C3274 1.383 . S
C3269 C3265 1.495 . S
C3269 H3275 0.959 . S
C3269 H3276 0.961 . S
C3269 H3277 0.960 . S
C3270 C3268 1.381 . S
C3270 C3271 1.394 . S
C3270 H3278 0.930 . S
C3271 C3270 1.394 . S
C3271 C3272 1.383 . S
C3271 H3279 0.929 . S
C3272 C3271 1.383 . S
C3272 C3273 1.377 . S
C3273 H3257 0.930 . S
C3273 C3272 1.377 . S
C3273 C3274 1.379 . S
C3274 H3258 0.931 . S
C3274 C3268 1.383 . S
C3274 C3273 1.379 . S
H3275 C3269 0.959 . S
H3276 C3269 0.961 . S
H3277 C3269 0.960 . S
H3278 C3270 0.930 . S
H3279 C3271 0.929 . S
H3280 C3288 0.929 . S
H3281 C3290 0.930 . S
H3282 C3292 0.930 . S
H3283 C3295 0.929 . S
H3284 C3298 0.930 . S
H3285 C3300 0.960 . S
H3286 C3300 0.960 . S
H3287 C3300 0.960 . S
C3288 H3280 0.929 . S
C3288 C3289 1.377 . S
C3288 C3290 1.384 . S
C3289 C3288 1.377 . S
C3289 C3295 1.390 . S
C3290 H3281 0.930 . S
C3290 C3288 1.384 . S
C3290 C3291 1.372 . S
C3291 C3290 1.372 . S
C3291 C3292 1.400 . S
C3291 C3296 1.490 . S
C3292 H3282 0.930 . S
C3292 C3291 1.400 . S
C3292 C3295 1.386 . S
H3293 C3309 0.930 . S
H3294 C3310 0.931 . S
C3295 H3283 0.929 . S
C3295 C3289 1.390 . S
C3295 C3292 1.386 . S
C3296 C3291 1.490 . S
C3296 C3298 1.395 . S
C3296 C3299 1.403 . S
H3297 C3303 0.930 . S
C3298 H3284 0.930 . S
C3298 C3296 1.395 . S
C3298 C3301 1.403 . S
C3299 C3296 1.403 . S
C3299 C3300 1.524 . S
C3299 C3303 1.400 . S
C3300 H3285 0.960 . S
C3300 H3286 0.960 . S
C3300 H3287 0.960 . S
C3300 C3299 1.524 . S
C3301 C3298 1.403 . S
C3301 C3302 1.392 . S
C3301 C3305 1.495 . S
C3302 C3301 1.392 . S
C3302 C3303 1.385 . S
C3302 C3304 1.478 . S
C3303 H3297 0.930 . S
C3303 C3299 1.400 . S
C3303 C3302 1.385 . S
C3304 C3302 1.478 . S
C3304 C3306 1.381 . S
C3304 C3310 1.383 . S
C3305 C3301 1.495 . S
C3305 H3311 0.959 . S
C3305 H3312 0.961 . S
C3305 H3313 0.960 . S
C3306 C3304 1.381 . S
C3306 C3307 1.394 . S
C3306 H3314 0.930 . S
C3307 C3306 1.394 . S
C3307 C3308 1.383 . S
C3307 H3315 0.929 . S
C3308 C3307 1.383 . S
C3308 C3309 1.377 . S
C3309 H3293 0.930 . S
C3309 C3308 1.377 . S
C3309 C3310 1.379 . S
C3310 H3294 0.931 . S
C3310 C3304 1.383 . S
C3310 C3309 1.379 . S
H3311 C3305 0.959 . S
H3312 C3305 0.961 . S
H3313 C3305 0.960 . S
H3314 C3306 0.930 . S
H3315 C3307 0.929 . S
H3316 C3324 0.929 . S
H3317 C3326 0.930 . S
H3318 C3328 0.930 . S
H3319 C3331 0.929 . S
H3320 C3334 0.930 . S
H3321 C3336 0.960 . S
H3322 C3336 0.960 . S
H3323 C3336 0.960 . S
C3324 H3316 0.929 . S
C3324 C3325 1.377 . S
C3324 C3326 1.384 . S
C3325 C3324 1.377 . S
C3325 C3331 1.390 . S
C3326 H3317 0.930 . S
C3326 C3324 1.384 . S
C3326 C3327 1.372 . S
C3327 C3326 1.372 . S
C3327 C3328 1.400 . S
C3327 C3332 1.490 . S
C3328 H3318 0.930 . S
C3328 C3327 1.400 . S
C3328 C3331 1.386 . S
H3329 C3345 0.930 . S
H3330 C3346 0.931 . S
C3331 H3319 0.929 . S
C3331 C3325 1.390 . S
C3331 C3328 1.386 . S
C3332 C3327 1.490 . S
C3332 C3334 1.395 . S
C3332 C3335 1.403 . S
H3333 C3339 0.930 . S
C3334 H3320 0.930 . S
C3334 C3332 1.395 . S
C3334 C3337 1.403 . S
C3335 C3332 1.403 . S
C3335 C3336 1.524 . S
C3335 C3339 1.400 . S
C3336 H3321 0.960 . S
C3336 H3322 0.960 . S
C3336 H3323 0.960 . S
C3336 C3335 1.524 . S
C3337 C3334 1.403 . S
C3337 C3338 1.392 . S
C3337 C3341 1.495 . S
C3338 C3337 1.392 . S
C3338 C3339 1.385 . S
C3338 C3340 1.478 . S
C3339 H3333 0.930 . S
C3339 C3335 1.400 . S
C3339 C3338 1.385 . S
C3340 C3338 1.478 . S
C3340 C3342 1.381 . S
C3340 C3346 1.383 . S
C3341 C3337 1.495 . S
C3341 H3347 0.959 . S
C3341 H3348 0.961 . S
C3341 H3349 0.960 . S
C3342 C3340 1.381 . S
C3342 C3343 1.394 . S
C3342 H3350 0.930 . S
C3343 C3342 1.394 . S
C3343 C3344 1.383 . S
C3343 H3351 0.929 . S
C3344 C3343 1.383 . S
C3344 C3345 1.377 . S
C3345 H3329 0.930 . S
C3345 C3344 1.377 . S
C3345 C3346 1.379 . S
C3346 H3330 0.931 . S
C3346 C3340 1.383 . S
C3346 C3345 1.379 . S
H3347 C3341 0.959 . S
H3348 C3341 0.961 . S
H3349 C3341 0.960 . S
H3350 C3342 0.930 . S
H3351 C3343 0.929 . S
H3352 C3360 0.929 . S
H3353 C3362 0.930 . S
H3354 C3364 0.930 . S
H3355 C3367 0.929 . S
H3356 C3370 0.930 . S
H3357 C3372 0.960 . S
H3358 C3372 0.960 . S
H3359 C3372 0.960 . S
C3360 H3352 0.929 . S
C3360 C3361 1.377 . S
C3360 C3362 1.384 . S
C3361 C3360 1.377 . S
C3361 C3367 1.390 . S
C3362 H3353 0.930 . S
C3362 C3360 1.384 . S
C3362 C3363 1.372 . S
C3363 C3362 1.372 . S
C3363 C3364 1.400 . S
C3363 C3368 1.490 . S
C3364 H3354 0.930 . S
C3364 C3363 1.400 . S
C3364 C3367 1.386 . S
H3365 C3381 0.930 . S
H3366 C3382 0.931 . S
C3367 H3355 0.929 . S
C3367 C3361 1.390 . S
C3367 C3364 1.386 . S
C3368 C3363 1.490 . S
C3368 C3370 1.395 . S
C3368 C3371 1.403 . S
H3369 C3375 0.930 . S
C3370 H3356 0.930 . S
C3370 C3368 1.395 . S
C3370 C3373 1.403 . S
C3371 C3368 1.403 . S
C3371 C3372 1.524 . S
C3371 C3375 1.400 . S
C3372 H3357 0.960 . S
C3372 H3358 0.960 . S
C3372 H3359 0.960 . S
C3372 C3371 1.524 . S
C3373 C3370 1.403 . S
C3373 C3374 1.392 . S
C3373 C3377 1.495 . S
C3374 C3373 1.392 . S
C3374 C3375 1.385 . S
C3374 C3376 1.478 . S
C3375 H3369 0.930 . S
C3375 C3371 1.400 . S
C3375 C3374 1.385 . S
C3376 C3374 1.478 . S
C3376 C3378 1.381 . S
C3376 C3382 1.383 . S
C3377 C3373 1.495 . S
C3377 H3383 0.959 . S
C3377 H3384 0.961 . S
C3377 H3385 0.960 . S
C3378 C3376 1.381 . S
C3378 C3379 1.394 . S
C3378 H3386 0.930 . S
C3379 C3378 1.394 . S
C3379 C3380 1.383 . S
C3379 H3387 0.929 . S
C3380 C3379 1.383 . S
C3380 C3381 1.377 . S
C3381 H3365 0.930 . S
C3381 C3380 1.377 . S
C3381 C3382 1.379 . S
C3382 H3366 0.931 . S
C3382 C3376 1.383 . S
C3382 C3381 1.379 . S
H3383 C3377 0.959 . S
H3384 C3377 0.961 . S
H3385 C3377 0.960 . S
H3386 C3378 0.930 . S
H3387 C3379 0.929 . S
H3388 C3396 0.929 . S
H3389 C3398 0.930 . S
H3390 C3400 0.930 . S
H3391 C3403 0.929 . S
H3392 C3406 0.930 . S
H3393 C3408 0.960 . S
H3394 C3408 0.960 . S
H3395 C3408 0.960 . S
C3396 H3388 0.929 . S
C3396 C3397 1.377 1_556 S
C3396 C3398 1.384 . S
C3397 C3396 1.377 1_554 S
C3397 C3403 1.390 . S
C3398 H3389 0.930 . S
C3398 C3396 1.384 . S
C3398 C3399 1.372 1_556 S
C3399 C3398 1.372 1_554 S
C3399 C3400 1.400 . S
C3399 C3404 1.490 . S
C3400 H3390 0.930 . S
C3400 C3399 1.400 . S
C3400 C3403 1.386 . S
H3401 C3417 0.930 . S
H3402 C3418 0.931 . S
C3403 H3391 0.929 . S
C3403 C3397 1.390 . S
C3403 C3400 1.386 . S
C3404 C3399 1.490 . S
C3404 C3406 1.395 . S
C3404 C3407 1.403 . S
H3405 C3411 0.930 . S
C3406 H3392 0.930 . S
C3406 C3404 1.395 . S
C3406 C3409 1.403 . S
C3407 C3404 1.403 . S
C3407 C3408 1.524 . S
C3407 C3411 1.400 . S
C3408 H3393 0.960 . S
C3408 H3394 0.960 . S
C3408 H3395 0.960 . S
C3408 C3407 1.524 . S
C3409 C3406 1.403 . S
C3409 C3410 1.392 . S
C3409 C3413 1.494 1_564 S
C3410 C3409 1.392 . S
C3410 C3411 1.385 . S
C3410 C3412 1.478 . S
C3411 H3405 0.930 . S
C3411 C3407 1.400 . S
C3411 C3410 1.385 . S
C3412 C3410 1.478 . S
C3412 C3414 1.373 1_564 S
C3412 C3418 1.383 1_565 S
C3413 C3409 1.494 1_546 S
C3413 H3419 0.959 . S
C3413 H3420 0.960 1_556 S
C3413 H3421 0.961 . S
C3414 C3412 1.373 1_546 S
C3414 C3415 1.405 . S
C3414 H3422 0.931 1_545 S
C3415 C3414 1.405 . S
C3415 C3416 1.383 1_556 S
C3415 H3423 0.929 . S
C3416 C3415 1.383 1_554 S
C3416 C3417 1.377 . S
C3417 H3401 0.930 . S
C3417 C3416 1.377 . S
C3417 C3418 1.379 . S
C3418 H3402 0.931 . S
C3418 C3412 1.383 1_545 S
C3418 C3417 1.379 . S
H3419 C3413 0.959 . S
H3420 C3413 0.960 1_554 S
H3421 C3413 0.961 . S
H3422 C3414 0.931 1_565 S
H3423 C3415 0.929 . S
H3424 C3432 0.929 . S
H3425 C3434 0.930 . S
H3426 C3436 0.930 . S
H3427 C3439 0.929 . S
H3428 C3442 0.930 . S
H3429 C3444 0.960 . S
H3430 C3444 0.960 . S
H3431 C3444 0.960 . S
C3432 H3424 0.929 . S
C3432 C3433 1.377 . S
C3432 C3434 1.384 . S
C3433 C3432 1.377 . S
C3433 C3439 1.390 . S
C3434 H3425 0.930 . S
C3434 C3432 1.384 . S
C3434 C3435 1.372 . S
C3435 C3434 1.372 . S
C3435 C3436 1.400 . S
C3435 C3440 1.490 . S
C3436 H3426 0.930 . S
C3436 C3435 1.400 . S
C3436 C3439 1.386 . S
H3437 C3453 0.930 . S
H3438 C3454 0.931 . S
C3439 H3427 0.929 . S
C3439 C3433 1.390 . S
C3439 C3436 1.386 . S
C3440 C3435 1.490 . S
C3440 C3442 1.395 . S
C3440 C3443 1.403 . S
H3441 C3447 0.930 . S
C3442 H3428 0.930 . S
C3442 C3440 1.395 . S
C3442 C3445 1.403 . S
C3443 C3440 1.403 . S
C3443 C3444 1.524 . S
C3443 C3447 1.400 . S
C3444 H3429 0.960 . S
C3444 H3430 0.960 . S
C3444 H3431 0.960 . S
C3444 C3443 1.524 . S
C3445 C3442 1.403 . S
C3445 C3446 1.392 . S
C3445 C3449 1.495 . S
C3446 C3445 1.392 . S
C3446 C3447 1.385 . S
C3446 C3448 1.478 . S
C3447 H3441 0.930 . S
C3447 C3443 1.400 . S
C3447 C3446 1.385 . S
C3448 C3446 1.478 . S
C3448 C3450 1.381 . S
C3448 C3454 1.383 . S
C3449 C3445 1.495 . S
C3449 H3455 0.959 . S
C3449 H3456 0.961 . S
C3449 H3457 0.960 . S
C3450 C3448 1.381 . S
C3450 C3451 1.394 . S
C3450 H3458 0.930 . S
C3451 C3450 1.394 . S
C3451 C3452 1.383 . S
C3451 H3459 0.929 . S
C3452 C3451 1.383 . S
C3452 C3453 1.377 . S
C3453 H3437 0.930 . S
C3453 C3452 1.377 . S
C3453 C3454 1.379 . S
C3454 H3438 0.931 . S
C3454 C3448 1.383 . S
C3454 C3453 1.379 . S
H3455 C3449 0.959 . S
H3456 C3449 0.961 . S
H3457 C3449 0.960 . S
H3458 C3450 0.930 . S
H3459 C3451 0.929 . S
H3460 C3468 0.929 . S
H3461 C3470 0.930 . S
H3462 C3472 0.930 . S
H3463 C3475 0.929 . S
H3464 C3478 0.930 . S
H3465 C3480 0.960 . S
H3466 C3480 0.960 . S
H3467 C3480 0.960 . S
C3468 H3460 0.929 . S
C3468 C3469 1.377 1_556 S
C3468 C3470 1.384 . S
C3469 C3468 1.377 1_554 S
C3469 C3475 1.390 . S
C3470 H3461 0.930 . S
C3470 C3468 1.384 . S
C3470 C3471 1.372 1_556 S
C3471 C3470 1.372 1_554 S
C3471 C3472 1.400 . S
C3471 C3476 1.490 . S
C3472 H3462 0.930 . S
C3472 C3471 1.400 . S
C3472 C3475 1.386 . S
H3473 C3489 0.930 . S
H3474 C3490 0.931 . S
C3475 H3463 0.929 . S
C3475 C3469 1.390 . S
C3475 C3472 1.386 . S
C3476 C3471 1.490 . S
C3476 C3478 1.395 . S
C3476 C3479 1.403 . S
H3477 C3483 0.930 . S
C3478 H3464 0.930 . S
C3478 C3476 1.395 . S
C3478 C3481 1.403 . S
C3479 C3476 1.403 . S
C3479 C3480 1.524 . S
C3479 C3483 1.400 . S
C3480 H3465 0.960 . S
C3480 H3466 0.960 . S
C3480 H3467 0.960 . S
C3480 C3479 1.524 . S
C3481 C3478 1.403 . S
C3481 C3482 1.392 . S
C3481 C3485 1.495 . S
C3482 C3481 1.392 . S
C3482 C3483 1.385 . S
C3482 C3484 1.478 . S
C3483 H3477 0.930 . S
C3483 C3479 1.400 . S
C3483 C3482 1.385 . S
C3484 C3482 1.478 . S
C3484 C3486 1.381 . S
C3484 C3490 1.383 . S
C3485 C3481 1.495 . S
C3485 H3491 0.959 . S
C3485 H3492 0.961 . S
C3485 H3493 0.960 . S
C3486 C3484 1.381 . S
C3486 C3487 1.394 . S
C3486 H3494 0.930 . S
C3487 C3486 1.394 . S
C3487 C3488 1.383 . S
C3487 H3495 0.929 . S
C3488 C3487 1.383 . S
C3488 C3489 1.377 . S
C3489 H3473 0.930 . S
C3489 C3488 1.377 . S
C3489 C3490 1.379 . S
C3490 H3474 0.931 . S
C3490 C3484 1.383 . S
C3490 C3489 1.379 . S
H3491 C3485 0.959 . S
H3492 C3485 0.961 . S
H3493 C3485 0.960 . S
H3494 C3486 0.930 . S
H3495 C3487 0.929 . S
H3496 C3504 0.929 . S
H3497 C3506 0.930 . S
H3498 C3508 0.930 . S
H3499 C3511 0.929 . S
H3500 C3514 0.930 . S
H3501 C3516 0.960 . S
H3502 C3516 0.960 . S
H3503 C3516 0.960 . S
C3504 H3496 0.929 . S
C3504 C3505 1.377 . S
C3504 C3506 1.384 . S
C3505 C3504 1.377 . S
C3505 C3511 1.390 . S
C3506 H3497 0.930 . S
C3506 C3504 1.384 . S
C3506 C3507 1.372 . S
C3507 C3506 1.372 . S
C3507 C3508 1.400 . S
C3507 C3512 1.490 . S
C3508 H3498 0.930 . S
C3508 C3507 1.400 . S
C3508 C3511 1.386 . S
H3509 C3525 0.930 . S
H3510 C3526 0.931 . S
C3511 H3499 0.929 . S
C3511 C3505 1.390 . S
C3511 C3508 1.386 . S
C3512 C3507 1.490 . S
C3512 C3514 1.395 . S
C3512 C3515 1.403 . S
H3513 C3519 0.930 . S
C3514 H3500 0.930 . S
C3514 C3512 1.395 . S
C3514 C3517 1.403 . S
C3515 C3512 1.403 . S
C3515 C3516 1.524 . S
C3515 C3519 1.400 . S
C3516 H3501 0.960 . S
C3516 H3502 0.960 . S
C3516 H3503 0.960 . S
C3516 C3515 1.524 . S
C3517 C3514 1.403 . S
C3517 C3518 1.392 . S
C3517 C3521 1.495 . S
C3518 C3517 1.392 . S
C3518 C3519 1.385 . S
C3518 C3520 1.478 . S
C3519 H3513 0.930 . S
C3519 C3515 1.400 . S
C3519 C3518 1.385 . S
C3520 C3518 1.478 . S
C3520 C3522 1.381 . S
C3520 C3526 1.383 . S
C3521 C3517 1.495 . S
C3521 H3527 0.959 . S
C3521 H3528 0.961 . S
C3521 H3529 0.960 . S
C3522 C3520 1.381 . S
C3522 C3523 1.394 . S
C3522 H3530 0.930 . S
C3523 C3522 1.394 . S
C3523 C3524 1.383 . S
C3523 H3531 0.929 . S
C3524 C3523 1.383 . S
C3524 C3525 1.377 . S
C3525 H3509 0.930 . S
C3525 C3524 1.377 . S
C3525 C3526 1.379 . S
C3526 H3510 0.931 . S
C3526 C3520 1.383 . S
C3526 C3525 1.379 . S
H3527 C3521 0.959 . S
H3528 C3521 0.961 . S
H3529 C3521 0.960 . S
H3530 C3522 0.930 . S
H3531 C3523 0.929 . S
H3532 C3540 0.929 . S
H3533 C3542 0.930 . S
H3534 C3544 0.930 . S
H3535 C3547 0.929 . S
H3536 C3550 0.930 . S
H3537 C3552 0.960 . S
H3538 C3552 0.960 . S
H3539 C3552 0.960 . S
C3540 H3532 0.929 . S
C3540 C3541 1.377 . S
C3540 C3542 1.384 . S
C3541 C3540 1.377 . S
C3541 C3547 1.390 . S
C3542 H3533 0.930 . S
C3542 C3540 1.384 . S
C3542 C3543 1.372 . S
C3543 C3542 1.372 . S
C3543 C3544 1.400 . S
C3543 C3548 1.490 . S
C3544 H3534 0.930 . S
C3544 C3543 1.400 . S
C3544 C3547 1.386 . S
H3545 C3561 0.930 . S
H3546 C3562 0.931 . S
C3547 H3535 0.929 . S
C3547 C3541 1.390 . S
C3547 C3544 1.386 . S
C3548 C3543 1.490 . S
C3548 C3550 1.395 . S
C3548 C3551 1.403 . S
H3549 C3555 0.930 . S
C3550 H3536 0.930 . S
C3550 C3548 1.395 . S
C3550 C3553 1.403 . S
C3551 C3548 1.403 . S
C3551 C3552 1.524 . S
C3551 C3555 1.400 . S
C3552 H3537 0.960 . S
C3552 H3538 0.960 . S
C3552 H3539 0.960 . S
C3552 C3551 1.524 . S
C3553 C3550 1.403 . S
C3553 C3554 1.392 . S
C3553 C3557 1.495 . S
C3554 C3553 1.392 . S
C3554 C3555 1.385 . S
C3554 C3556 1.478 . S
C3555 H3549 0.930 . S
C3555 C3551 1.400 . S
C3555 C3554 1.385 . S
C3556 C3554 1.478 . S
C3556 C3558 1.381 . S
C3556 C3562 1.383 . S
C3557 C3553 1.495 . S
C3557 H3563 0.959 . S
C3557 H3564 0.961 . S
C3557 H3565 0.960 . S
C3558 C3556 1.381 . S
C3558 C3559 1.394 . S
C3558 H3566 0.930 . S
C3559 C3558 1.394 . S
C3559 C3560 1.383 . S
C3559 H3567 0.929 . S
C3560 C3559 1.383 . S
C3560 C3561 1.377 . S
C3561 H3545 0.930 . S
C3561 C3560 1.377 . S
C3561 C3562 1.379 . S
C3562 H3546 0.931 . S
C3562 C3556 1.383 . S
C3562 C3561 1.379 . S
H3563 C3557 0.959 . S
H3564 C3557 0.961 . S
H3565 C3557 0.960 . S
H3566 C3558 0.930 . S
H3567 C3559 0.929 . S
H3568 C3576 0.929 . S
H3569 C3578 0.930 . S
H3570 C3580 0.930 . S
H3571 C3583 0.929 . S
H3572 C3586 0.930 . S
H3573 C3588 0.960 . S
H3574 C3588 0.960 . S
H3575 C3588 0.960 . S
C3576 H3568 0.929 . S
C3576 C3577 1.377 . S
C3576 C3578 1.384 . S
C3577 C3576 1.377 . S
C3577 C3583 1.390 . S
C3578 H3569 0.930 . S
C3578 C3576 1.384 . S
C3578 C3579 1.372 . S
C3579 C3578 1.372 . S
C3579 C3580 1.400 . S
C3579 C3584 1.490 . S
C3580 H3570 0.930 . S
C3580 C3579 1.400 . S
C3580 C3583 1.386 . S
H3581 C3597 0.930 . S
H3582 C3598 0.931 . S
C3583 H3571 0.929 . S
C3583 C3577 1.390 . S
C3583 C3580 1.386 . S
C3584 C3579 1.490 . S
C3584 C3586 1.395 . S
C3584 C3587 1.403 . S
H3585 C3591 0.930 . S
C3586 H3572 0.930 . S
C3586 C3584 1.395 . S
C3586 C3589 1.403 . S
C3587 C3584 1.403 . S
C3587 C3588 1.524 . S
C3587 C3591 1.400 . S
C3588 H3573 0.960 . S
C3588 H3574 0.960 . S
C3588 H3575 0.960 . S
C3588 C3587 1.524 . S
C3589 C3586 1.403 . S
C3589 C3590 1.392 . S
C3589 C3593 1.495 . S
C3590 C3589 1.392 . S
C3590 C3591 1.385 . S
C3590 C3592 1.478 . S
C3591 H3585 0.930 . S
C3591 C3587 1.400 . S
C3591 C3590 1.385 . S
C3592 C3590 1.478 . S
C3592 C3594 1.381 . S
C3592 C3598 1.383 . S
C3593 C3589 1.495 . S
C3593 H3599 0.959 . S
C3593 H3600 0.961 . S
C3593 H3601 0.960 . S
C3594 C3592 1.381 . S
C3594 C3595 1.394 . S
C3594 H3602 0.930 . S
C3595 C3594 1.394 . S
C3595 C3596 1.383 . S
C3595 H3603 0.929 . S
C3596 C3595 1.383 . S
C3596 C3597 1.377 . S
C3597 H3581 0.930 . S
C3597 C3596 1.377 . S
C3597 C3598 1.379 . S
C3598 H3582 0.931 . S
C3598 C3592 1.383 . S
C3598 C3597 1.379 . S
H3599 C3593 0.959 . S
H3600 C3593 0.961 . S
H3601 C3593 0.960 . S
H3602 C3594 0.930 . S
H3603 C3595 0.929 . S
H3604 C3612 0.929 . S
H3605 C3614 0.930 . S
H3606 C3616 0.930 . S
H3607 C3619 0.929 . S
H3608 C3622 0.930 . S
H3609 C3624 0.960 . S
H3610 C3624 0.960 . S
H3611 C3624 0.960 . S
C3612 H3604 0.929 . S
C3612 C3613 1.377 . S
C3612 C3614 1.384 . S
C3613 C3612 1.377 . S
C3613 C3619 1.390 . S
C3614 H3605 0.930 . S
C3614 C3612 1.384 . S
C3614 C3615 1.372 . S
C3615 C3614 1.372 . S
C3615 C3616 1.400 . S
C3615 C3620 1.490 . S
C3616 H3606 0.930 . S
C3616 C3615 1.400 . S
C3616 C3619 1.386 . S
H3617 C3633 0.930 . S
H3618 C3634 0.931 . S
C3619 H3607 0.929 . S
C3619 C3613 1.390 . S
C3619 C3616 1.386 . S
C3620 C3615 1.490 . S
C3620 C3622 1.395 . S
C3620 C3623 1.403 . S
H3621 C3627 0.930 . S
C3622 H3608 0.930 . S
C3622 C3620 1.395 . S
C3622 C3625 1.403 . S
C3623 C3620 1.403 . S
C3623 C3624 1.524 . S
C3623 C3627 1.400 . S
C3624 H3609 0.960 . S
C3624 H3610 0.960 . S
C3624 H3611 0.960 . S
C3624 C3623 1.524 . S
C3625 C3622 1.403 . S
C3625 C3626 1.392 . S
C3625 C3629 1.495 . S
C3626 C3625 1.392 . S
C3626 C3627 1.385 . S
C3626 C3628 1.478 . S
C3627 H3621 0.930 . S
C3627 C3623 1.400 . S
C3627 C3626 1.385 . S
C3628 C3626 1.478 . S
C3628 C3630 1.381 . S
C3628 C3634 1.383 . S
C3629 C3625 1.495 . S
C3629 H3635 0.959 . S
C3629 H3636 0.961 . S
C3629 H3637 0.960 . S
C3630 C3628 1.381 . S
C3630 C3631 1.394 . S
C3630 H3638 0.930 . S
C3631 C3630 1.394 . S
C3631 C3632 1.383 . S
C3631 H3639 0.929 . S
C3632 C3631 1.383 . S
C3632 C3633 1.377 . S
C3633 H3617 0.930 . S
C3633 C3632 1.377 . S
C3633 C3634 1.379 . S
C3634 H3618 0.931 . S
C3634 C3628 1.383 . S
C3634 C3633 1.379 . S
H3635 C3629 0.959 . S
H3636 C3629 0.961 . S
H3637 C3629 0.960 . S
H3638 C3630 0.930 . S
H3639 C3631 0.929 . S
H3640 C3648 0.929 . S
H3641 C3650 0.930 . S
H3642 C3652 0.930 . S
H3643 C3655 0.929 . S
H3644 C3658 0.930 . S
H3645 C3660 0.960 . S
H3646 C3660 0.960 . S
H3647 C3660 0.960 . S
C3648 H3640 0.929 . S
C3648 C3649 1.377 . S
C3648 C3650 1.384 . S
C3649 C3648 1.377 . S
C3649 C3655 1.390 . S
C3650 H3641 0.930 . S
C3650 C3648 1.384 . S
C3650 C3651 1.372 . S
C3651 C3650 1.372 . S
C3651 C3652 1.400 . S
C3651 C3656 1.490 . S
C3652 H3642 0.930 . S
C3652 C3651 1.400 . S
C3652 C3655 1.386 . S
H3653 C3669 0.907 1_556 S
H3654 C3670 0.931 . S
C3655 H3643 0.929 . S
C3655 C3649 1.390 . S
C3655 C3652 1.386 . S
C3656 C3651 1.490 . S
C3656 C3658 1.395 . S
C3656 C3659 1.403 . S
H3657 C3663 0.930 . S
C3658 H3644 0.930 . S
C3658 C3656 1.395 . S
C3658 C3661 1.403 . S
C3659 C3656 1.403 . S
C3659 C3660 1.524 . S
C3659 C3663 1.400 . S
C3660 H3645 0.960 . S
C3660 H3646 0.960 . S
C3660 H3647 0.960 . S
C3660 C3659 1.524 . S
C3661 C3658 1.403 . S
C3661 C3662 1.392 . S
C3661 C3665 1.495 . S
C3662 C3661 1.392 . S
C3662 C3663 1.385 . S
C3662 C3664 1.478 . S
C3663 H3657 0.930 . S
C3663 C3659 1.400 . S
C3663 C3662 1.385 . S
C3664 C3662 1.478 . S
C3664 C3666 1.381 . S
C3664 C3670 1.383 . S
C3665 C3661 1.495 . S
C3665 H3671 0.959 . S
C3665 H3672 0.961 . S
C3665 H3673 0.960 . S
C3666 C3664 1.381 . S
C3666 C3667 1.394 . S
C3666 H3674 0.930 . S
C3667 C3666 1.394 . S
C3667 C3668 1.383 . S
C3667 H3675 0.929 . S
C3668 C3667 1.383 . S
C3668 C3669 1.377 . S
C3669 H3653 0.907 1_554 S
C3669 C3668 1.377 . S
C3669 C3670 1.379 . S
C3670 H3654 0.931 . S
C3670 C3664 1.383 . S
C3670 C3669 1.379 . S
H3671 C3665 0.959 . S
H3672 C3665 0.961 . S
H3673 C3665 0.960 . S
H3674 C3666 0.930 . S
H3675 C3667 0.929 . S
H3676 C3684 0.929 . S
H3677 C3686 0.930 . S
H3678 C3688 0.930 . S
H3679 C3691 0.929 . S
H3680 C3694 0.930 . S
H3681 C3696 0.960 . S
H3682 C3696 0.960 . S
H3683 C3696 0.960 . S
C3684 H3676 0.929 . S
C3684 C3685 1.377 . S
C3684 C3686 1.384 . S
C3685 C3684 1.377 . S
C3685 C3691 1.390 . S
C3686 H3677 0.930 . S
C3686 C3684 1.384 . S
C3686 C3687 1.372 . S
C3687 C3686 1.372 . S
C3687 C3688 1.400 . S
C3687 C3692 1.490 . S
C3688 H3678 0.930 . S
C3688 C3687 1.400 . S
C3688 C3691 1.386 . S
H3689 C3705 0.930 . S
H3690 C3706 0.931 . S
C3691 H3679 0.929 . S
C3691 C3685 1.390 . S
C3691 C3688 1.386 . S
C3692 C3687 1.490 . S
C3692 C3694 1.395 . S
C3692 C3695 1.403 . S
H3693 C3699 0.930 . S
C3694 H3680 0.930 . S
C3694 C3692 1.395 . S
C3694 C3697 1.403 . S
C3695 C3692 1.403 . S
C3695 C3696 1.524 . S
C3695 C3699 1.400 . S
C3696 H3681 0.960 . S
C3696 H3682 0.960 . S
C3696 H3683 0.960 . S
C3696 C3695 1.524 . S
C3697 C3694 1.403 . S
C3697 C3698 1.392 . S
C3697 C3701 1.495 . S
C3698 C3697 1.392 . S
C3698 C3699 1.385 . S
C3698 C3700 1.478 . S
C3699 H3693 0.930 . S
C3699 C3695 1.400 . S
C3699 C3698 1.385 . S
C3700 C3698 1.478 . S
C3700 C3702 1.381 . S
C3700 C3706 1.383 . S
C3701 C3697 1.495 . S
C3701 H3707 0.959 . S
C3701 H3708 0.961 . S
C3701 H3709 0.960 . S
C3702 C3700 1.381 . S
C3702 C3703 1.394 . S
C3702 H3710 0.930 . S
C3703 C3702 1.394 . S
C3703 C3704 1.383 . S
C3703 H3711 0.929 . S
C3704 C3703 1.383 . S
C3704 C3705 1.377 . S
C3705 H3689 0.930 . S
C3705 C3704 1.377 . S
C3705 C3706 1.379 . S
C3706 H3690 0.931 . S
C3706 C3700 1.383 . S
C3706 C3705 1.379 . S
H3707 C3701 0.959 . S
H3708 C3701 0.961 . S
H3709 C3701 0.960 . S
H3710 C3702 0.930 . S
H3711 C3703 0.929 . S
H3712 C3720 0.929 . S
H3713 C3722 0.930 . S
H3714 C3724 0.930 . S
H3715 C3727 0.929 . S
H3716 C3730 0.930 . S
H3717 C3732 0.960 . S
H3718 C3732 0.960 . S
H3719 C3732 0.960 . S
C3720 H3712 0.929 . S
C3720 C3721 1.377 . S
C3720 C3722 1.384 . S
C3721 C3720 1.377 . S
C3721 C3727 1.390 . S
C3722 H3713 0.930 . S
C3722 C3720 1.384 . S
C3722 C3723 1.372 . S
C3723 C3722 1.372 . S
C3723 C3724 1.400 . S
C3723 C3728 1.490 . S
C3724 H3714 0.930 . S
C3724 C3723 1.400 . S
C3724 C3727 1.386 . S
H3725 C3741 0.930 . S
H3726 C3742 0.931 . S
C3727 H3715 0.929 . S
C3727 C3721 1.390 . S
C3727 C3724 1.386 . S
C3728 C3723 1.490 . S
C3728 C3730 1.395 . S
C3728 C3731 1.403 . S
H3729 C3735 0.930 . S
C3730 H3716 0.930 . S
C3730 C3728 1.395 . S
C3730 C3733 1.403 . S
C3731 C3728 1.403 . S
C3731 C3732 1.524 . S
C3731 C3735 1.400 . S
C3732 H3717 0.960 . S
C3732 H3718 0.960 . S
C3732 H3719 0.960 . S
C3732 C3731 1.524 . S
C3733 C3730 1.403 . S
C3733 C3734 1.392 . S
C3733 C3737 1.495 . S
C3734 C3733 1.392 . S
C3734 C3735 1.385 . S
C3734 C3736 1.478 . S
C3735 H3729 0.930 . S
C3735 C3731 1.400 . S
C3735 C3734 1.385 . S
C3736 C3734 1.478 . S
C3736 C3738 1.381 . S
C3736 C3742 1.383 . S
C3737 C3733 1.495 . S
C3737 H3743 0.959 . S
C3737 H3744 0.961 . S
C3737 H3745 0.960 . S
C3738 C3736 1.381 . S
C3738 C3739 1.394 . S
C3738 H3746 0.930 . S
C3739 C3738 1.394 . S
C3739 C3740 1.383 . S
C3739 H3747 0.929 . S
C3740 C3739 1.383 . S
C3740 C3741 1.377 . S
C3741 H3725 0.930 . S
C3741 C3740 1.377 . S
C3741 C3742 1.379 . S
C3742 H3726 0.931 . S
C3742 C3736 1.383 . S
C3742 C3741 1.379 . S
H3743 C3737 0.959 . S
H3744 C3737 0.961 . S
H3745 C3737 0.960 . S
H3746 C3738 0.930 . S
H3747 C3739 0.929 . S
H3748 C3756 0.929 . S
H3749 C3758 0.930 . S
H3750 C3760 0.930 . S
H3751 C3763 0.929 . S
H3752 C3766 0.930 . S
H3753 C3768 0.960 . S
H3754 C3768 0.960 . S
H3755 C3768 0.960 . S
C3756 H3748 0.929 . S
C3756 C3757 1.377 . S
C3756 C3758 1.384 . S
C3757 C3756 1.377 . S
C3757 C3763 1.390 . S
C3758 H3749 0.930 . S
C3758 C3756 1.384 . S
C3758 C3759 1.372 . S
C3759 C3758 1.372 . S
C3759 C3760 1.400 . S
C3759 C3764 1.490 . S
C3760 H3750 0.930 . S
C3760 C3759 1.400 . S
C3760 C3763 1.386 . S
H3761 C3777 0.930 . S
H3762 C3778 0.931 . S
C3763 H3751 0.929 . S
C3763 C3757 1.390 . S
C3763 C3760 1.386 . S
C3764 C3759 1.490 . S
C3764 C3766 1.395 . S
C3764 C3767 1.403 . S
H3765 C3771 0.930 . S
C3766 H3752 0.930 . S
C3766 C3764 1.395 . S
C3766 C3769 1.403 . S
C3767 C3764 1.403 . S
C3767 C3768 1.524 . S
C3767 C3771 1.400 . S
C3768 H3753 0.960 . S
C3768 H3754 0.960 . S
C3768 H3755 0.960 . S
C3768 C3767 1.524 . S
C3769 C3766 1.403 . S
C3769 C3770 1.392 . S
C3769 C3773 1.495 . S
C3770 C3769 1.392 . S
C3770 C3771 1.385 . S
C3770 C3772 1.478 . S
C3771 H3765 0.930 . S
C3771 C3767 1.400 . S
C3771 C3770 1.385 . S
C3772 C3770 1.478 . S
C3772 C3774 1.381 . S
C3772 C3778 1.383 . S
C3773 C3769 1.495 . S
C3773 H3779 0.959 . S
C3773 H3780 0.961 . S
C3773 H3781 0.960 . S
C3774 C3772 1.381 . S
C3774 C3775 1.394 . S
C3774 H3782 0.930 . S
C3775 C3774 1.394 . S
C3775 C3776 1.383 . S
C3775 H3783 0.929 . S
C3776 C3775 1.383 . S
C3776 C3777 1.377 . S
C3777 H3761 0.930 . S
C3777 C3776 1.377 . S
C3777 C3778 1.379 . S
C3778 H3762 0.931 . S
C3778 C3772 1.383 . S
C3778 C3777 1.379 . S
H3779 C3773 0.959 . S
H3780 C3773 0.961 . S
H3781 C3773 0.960 . S
H3782 C3774 0.930 . S
H3783 C3775 0.929 . S
H3784 C3792 0.929 . S
H3785 C3794 0.930 . S
H3786 C3796 0.930 . S
H3787 C3799 0.929 . S
H3788 C3802 0.930 . S
H3789 C3804 0.960 . S
H3790 C3804 0.960 . S
H3791 C3804 0.960 . S
C3792 H3784 0.929 . S
C3792 C3793 1.377 . S
C3792 C3794 1.384 . S
C3793 C3792 1.377 . S
C3793 C3799 1.390 . S
C3794 H3785 0.930 . S
C3794 C3792 1.384 . S
C3794 C3795 1.372 . S
C3795 C3794 1.372 . S
C3795 C3796 1.400 . S
C3795 C3800 1.490 . S
C3796 H3786 0.930 . S
C3796 C3795 1.400 . S
C3796 C3799 1.386 . S
H3797 C3813 0.930 . S
H3798 C3814 0.931 . S
C3799 H3787 0.929 . S
C3799 C3793 1.390 . S
C3799 C3796 1.386 . S
C3800 C3795 1.490 . S
C3800 C3802 1.395 . S
C3800 C3803 1.403 . S
H3801 C3807 0.930 . S
C3802 H3788 0.930 . S
C3802 C3800 1.395 . S
C3802 C3805 1.403 . S
C3803 C3800 1.403 . S
C3803 C3804 1.524 . S
C3803 C3807 1.400 . S
C3804 H3789 0.960 . S
C3804 H3790 0.960 . S
C3804 H3791 0.960 . S
C3804 C3803 1.524 . S
C3805 C3802 1.403 . S
C3805 C3806 1.392 . S
C3805 C3809 1.495 . S
C3806 C3805 1.392 . S
C3806 C3807 1.385 . S
C3806 C3808 1.478 . S
C3807 H3801 0.930 . S
C3807 C3803 1.400 . S
C3807 C3806 1.385 . S
C3808 C3806 1.478 . S
C3808 C3810 1.381 . S
C3808 C3814 1.383 . S
C3809 C3805 1.495 . S
C3809 H3815 0.959 . S
C3809 H3816 0.961 . S
C3809 H3817 0.960 . S
C3810 C3808 1.381 . S
C3810 C3811 1.394 . S
C3810 H3818 0.930 . S
C3811 C3810 1.394 . S
C3811 C3812 1.383 . S
C3811 H3819 0.929 . S
C3812 C3811 1.383 . S
C3812 C3813 1.377 . S
C3813 H3797 0.930 . S
C3813 C3812 1.377 . S
C3813 C3814 1.379 . S
C3814 H3798 0.931 . S
C3814 C3808 1.383 . S
C3814 C3813 1.379 . S
H3815 C3809 0.959 . S
H3816 C3809 0.961 . S
H3817 C3809 0.960 . S
H3818 C3810 0.930 . S
H3819 C3811 0.929 . S
H3820 C3828 0.929 . S
H3821 C3830 0.930 . S
H3822 C3832 0.930 . S
H3823 C3835 0.929 . S
H3824 C3838 0.930 . S
H3825 C3840 0.960 . S
H3826 C3840 0.960 . S
H3827 C3840 0.960 . S
C3828 H3820 0.929 . S
C3828 C3829 1.377 . S
C3828 C3830 1.384 . S
C3829 C3828 1.377 . S
C3829 C3835 1.390 . S
C3830 H3821 0.930 . S
C3830 C3828 1.384 . S
C3830 C3831 1.372 . S
C3831 C3830 1.372 . S
C3831 C3832 1.400 . S
C3831 C3836 1.490 . S
C3832 H3822 0.930 . S
C3832 C3831 1.400 . S
C3832 C3835 1.386 . S
H3833 C3849 0.930 . S
H3834 C3850 0.931 . S
C3835 H3823 0.929 . S
C3835 C3829 1.390 . S
C3835 C3832 1.386 . S
C3836 C3831 1.490 . S
C3836 C3838 1.395 . S
C3836 C3839 1.403 . S
H3837 C3843 0.930 . S
C3838 H3824 0.930 . S
C3838 C3836 1.395 . S
C3838 C3841 1.403 . S
C3839 C3836 1.403 . S
C3839 C3840 1.524 . S
C3839 C3843 1.400 . S
C3840 H3825 0.960 . S
C3840 H3826 0.960 . S
C3840 H3827 0.960 . S
C3840 C3839 1.524 . S
C3841 C3838 1.403 . S
C3841 C3842 1.392 . S
C3841 C3845 1.495 . S
C3842 C3841 1.392 . S
C3842 C3843 1.385 . S
C3842 C3844 1.478 . S
C3843 H3837 0.930 . S
C3843 C3839 1.400 . S
C3843 C3842 1.385 . S
C3844 C3842 1.478 . S
C3844 C3846 1.381 . S
C3844 C3850 1.383 . S
C3845 C3841 1.495 . S
C3845 H3851 0.959 . S
C3845 H3852 0.961 . S
C3845 H3853 0.960 . S
C3846 C3844 1.381 . S
C3846 C3847 1.394 . S
C3846 H3854 0.930 . S
C3847 C3846 1.394 . S
C3847 C3848 1.383 . S
C3847 H3855 0.929 . S
C3848 C3847 1.383 . S
C3848 C3849 1.377 . S
C3849 H3833 0.930 . S
C3849 C3848 1.377 . S
C3849 C3850 1.379 . S
C3850 H3834 0.931 . S
C3850 C3844 1.383 . S
C3850 C3849 1.379 . S
H3851 C3845 0.959 . S
H3852 C3845 0.961 . S
H3853 C3845 0.960 . S
H3854 C3846 0.930 . S
H3855 C3847 0.929 . S
H3856 C3864 0.929 . S
H3857 C3866 0.930 . S
H3858 C3868 0.930 . S
H3859 C3871 0.929 . S
H3860 C3874 0.930 . S
H3861 C3876 0.960 . S
H3862 C3876 0.960 . S
H3863 C3876 0.960 . S
C3864 H3856 0.929 . S
C3864 C3865 1.377 . S
C3864 C3866 1.384 . S
C3865 C3864 1.377 . S
C3865 C3871 1.390 . S
C3866 H3857 0.930 . S
C3866 C3864 1.384 . S
C3866 C3867 1.372 . S
C3867 C3866 1.372 . S
C3867 C3868 1.400 . S
C3867 C3872 1.490 . S
C3868 H3858 0.930 . S
C3868 C3867 1.400 . S
C3868 C3871 1.386 . S
H3869 C3885 0.930 . S
H3870 C3886 0.931 . S
C3871 H3859 0.929 . S
C3871 C3865 1.390 . S
C3871 C3868 1.386 . S
C3872 C3867 1.490 . S
C3872 C3874 1.395 . S
C3872 C3875 1.403 . S
H3873 C3879 0.930 . S
C3874 H3860 0.930 . S
C3874 C3872 1.395 . S
C3874 C3877 1.403 . S
C3875 C3872 1.403 . S
C3875 C3876 1.524 . S
C3875 C3879 1.400 . S
C3876 H3861 0.960 . S
C3876 H3862 0.960 . S
C3876 H3863 0.960 . S
C3876 C3875 1.524 . S
C3877 C3874 1.403 . S
C3877 C3878 1.392 . S
C3877 C3881 1.495 . S
C3878 C3877 1.392 . S
C3878 C3879 1.385 . S
C3878 C3880 1.478 . S
C3879 H3873 0.930 . S
C3879 C3875 1.400 . S
C3879 C3878 1.385 . S
C3880 C3878 1.478 . S
C3880 C3882 1.381 . S
C3880 C3886 1.383 . S
C3881 C3877 1.495 . S
C3881 H3887 0.959 . S
C3881 H3888 0.961 . S
C3881 H3889 0.960 . S
C3882 C3880 1.381 . S
C3882 C3883 1.394 . S
C3882 H3890 0.930 . S
C3883 C3882 1.394 . S
C3883 C3884 1.383 . S
C3883 H3891 0.929 . S
C3884 C3883 1.383 . S
C3884 C3885 1.377 . S
C3885 H3869 0.930 . S
C3885 C3884 1.377 . S
C3885 C3886 1.379 . S
C3886 H3870 0.931 . S
C3886 C3880 1.383 . S
C3886 C3885 1.379 . S
H3887 C3881 0.959 . S
H3888 C3881 0.961 . S
H3889 C3881 0.960 . S
H3890 C3882 0.930 . S
H3891 C3883 0.929 . S
H3892 C3900 0.929 . S
H3893 C3902 0.930 . S
H3894 C3904 0.930 . S
H3895 C3907 0.929 . S
H3896 C3910 0.930 . S
H3897 C3912 0.960 . S
H3898 C3912 0.960 . S
H3899 C3912 0.960 . S
C3900 H3892 0.929 . S
C3900 C3901 1.377 . S
C3900 C3902 1.384 . S
C3901 C3900 1.377 . S
C3901 C3907 1.390 . S
C3902 H3893 0.930 . S
C3902 C3900 1.384 . S
C3902 C3903 1.372 . S
C3903 C3902 1.372 . S
C3903 C3904 1.400 . S
C3903 C3908 1.490 . S
C3904 H3894 0.930 . S
C3904 C3903 1.400 . S
C3904 C3907 1.386 . S
H3905 C3921 0.930 . S
H3906 C3922 0.931 . S
C3907 H3895 0.929 . S
C3907 C3901 1.390 . S
C3907 C3904 1.386 . S
C3908 C3903 1.490 . S
C3908 C3910 1.395 . S
C3908 C3911 1.403 . S
H3909 C3915 0.930 . S
C3910 H3896 0.930 . S
C3910 C3908 1.395 . S
C3910 C3913 1.403 . S
C3911 C3908 1.403 . S
C3911 C3912 1.524 . S
C3911 C3915 1.400 . S
C3912 H3897 0.960 . S
C3912 H3898 0.960 . S
C3912 H3899 0.960 . S
C3912 C3911 1.524 . S
C3913 C3910 1.403 . S
C3913 C3914 1.392 . S
C3913 C3917 1.495 . S
C3914 C3913 1.392 . S
C3914 C3915 1.385 . S
C3914 C3916 1.478 . S
C3915 H3909 0.930 . S
C3915 C3911 1.400 . S
C3915 C3914 1.385 . S
C3916 C3914 1.478 . S
C3916 C3918 1.381 . S
C3916 C3922 1.383 . S
C3917 C3913 1.495 . S
C3917 H3923 0.959 . S
C3917 H3924 0.961 . S
C3917 H3925 0.960 . S
C3918 C3916 1.381 . S
C3918 C3919 1.394 . S
C3918 H3926 0.930 . S
C3919 C3918 1.394 . S
C3919 C3920 1.383 . S
C3919 H3927 0.929 . S
C3920 C3919 1.383 . S
C3920 C3921 1.377 . S
C3921 H3905 0.930 . S
C3921 C3920 1.377 . S
C3921 C3922 1.379 . S
C3922 H3906 0.931 . S
C3922 C3916 1.383 . S
C3922 C3921 1.379 . S
H3923 C3917 0.959 . S
H3924 C3917 0.961 . S
H3925 C3917 0.960 . S
H3926 C3918 0.930 . S
H3927 C3919 0.929 . S
H3928 C3936 0.929 . S
H3929 C3938 0.930 . S
H3930 C3940 0.930 . S
H3931 C3943 0.929 . S
H3932 C3946 0.930 . S
H3933 C3948 0.960 . S
H3934 C3948 0.960 . S
H3935 C3948 0.960 . S
C3936 H3928 0.929 . S
C3936 C3937 1.377 . S
C3936 C3938 1.384 . S
C3937 C3936 1.377 . S
C3937 C3943 1.390 . S
C3938 H3929 0.930 . S
C3938 C3936 1.384 . S
C3938 C3939 1.372 . S
C3939 C3938 1.372 . S
C3939 C3940 1.400 . S
C3939 C3944 1.490 . S
C3940 H3930 0.930 . S
C3940 C3939 1.400 . S
C3940 C3943 1.386 . S
H3941 C3957 0.930 1_655 S
H3942 C3958 0.931 . S
C3943 H3931 0.929 . S
C3943 C3937 1.390 . S
C3943 C3940 1.386 . S
C3944 C3939 1.490 . S
C3944 C3946 1.395 . S
C3944 C3947 1.403 . S
H3945 C3951 0.930 . S
C3946 H3932 0.930 . S
C3946 C3944 1.395 . S
C3946 C3949 1.403 . S
C3947 C3944 1.403 . S
C3947 C3948 1.524 . S
C3947 C3951 1.400 . S
C3948 H3933 0.960 . S
C3948 H3934 0.960 . S
C3948 H3935 0.960 . S
C3948 C3947 1.524 . S
C3949 C3946 1.403 . S
C3949 C3950 1.392 . S
C3949 C3953 1.504 . S
C3950 C3949 1.392 . S
C3950 C3951 1.385 . S
C3950 C3952 1.478 1_655 S
C3951 H3945 0.930 . S
C3951 C3947 1.400 . S
C3951 C3950 1.385 . S
C3952 C3950 1.478 1_455 S
C3952 C3954 1.381 . S
C3952 C3958 1.383 1_455 S
C3953 C3949 1.504 . S
C3953 H3959 0.973 . S
C3953 H3960 0.984 . S
C3953 H3961 0.917 1_655 S
C3954 C3952 1.381 . S
C3954 C3955 1.394 . S
C3954 H3962 0.930 . S
C3955 C3954 1.394 . S
C3955 C3956 1.383 . S
C3955 H3963 0.929 . S
C3956 C3955 1.383 . S
C3956 C3957 1.377 . S
C3957 H3941 0.930 1_455 S
C3957 C3956 1.377 . S
C3957 C3958 1.379 1_455 S
C3958 H3942 0.931 . S
C3958 C3952 1.383 1_655 S
C3958 C3957 1.379 1_655 S
H3959 C3953 0.973 . S
H3960 C3953 0.984 . S
H3961 C3953 0.917 1_455 S
H3962 C3954 0.930 . S
H3963 C3955 0.929 . S
H3964 C3972 0.929 . S
H3965 C3974 0.930 . S
H3966 C3976 0.930 . S
H3967 C3979 0.929 . S
H3968 C3982 0.930 . S
H3969 C3984 0.960 . S
H3970 C3984 0.960 . S
H3971 C3984 0.960 . S
C3972 H3964 0.929 . S
C3972 C3973 1.377 . S
C3972 C3974 1.384 . S
C3973 C3972 1.377 . S
C3973 C3979 1.390 . S
C3974 H3965 0.930 . S
C3974 C3972 1.384 . S
C3974 C3975 1.372 . S
C3975 C3974 1.372 . S
C3975 C3976 1.400 . S
C3975 C3980 1.490 . S
C3976 H3966 0.930 . S
C3976 C3975 1.400 . S
C3976 C3979 1.386 . S
H3977 C3993 0.930 . S
H3978 C3994 0.931 . S
C3979 H3967 0.929 . S
C3979 C3973 1.390 . S
C3979 C3976 1.386 . S
C3980 C3975 1.490 . S
C3980 C3982 1.395 . S
C3980 C3983 1.403 . S
H3981 C3987 0.930 . S
C3982 H3968 0.930 . S
C3982 C3980 1.395 . S
C3982 C3985 1.403 . S
C3983 C3980 1.403 . S
C3983 C3984 1.524 . S
C3983 C3987 1.400 . S
C3984 H3969 0.960 . S
C3984 H3970 0.960 . S
C3984 H3971 0.960 . S
C3984 C3983 1.524 . S
C3985 C3982 1.403 . S
C3985 C3986 1.392 . S
C3985 C3989 1.495 . S
C3986 C3985 1.392 . S
C3986 C3987 1.385 . S
C3986 C3988 1.478 . S
C3987 H3981 0.930 . S
C3987 C3983 1.400 . S
C3987 C3986 1.385 . S
C3988 C3986 1.478 . S
C3988 C3990 1.381 . S
C3988 C3994 1.383 . S
C3989 C3985 1.495 . S
C3989 H3995 0.959 . S
C3989 H3996 0.961 . S
C3989 H3997 0.960 . S
C3990 C3988 1.381 . S
C3990 C3991 1.394 . S
C3990 H3998 0.930 . S
C3991 C3990 1.394 . S
C3991 C3992 1.383 . S
C3991 H3999 0.929 . S
C3992 C3991 1.383 . S
C3992 C3993 1.377 . S
C3993 H3977 0.930 . S
C3993 C3992 1.377 . S
C3993 C3994 1.379 . S
C3994 H3978 0.931 . S
C3994 C3988 1.383 . S
C3994 C3993 1.379 . S
H3995 C3989 0.959 . S
H3996 C3989 0.961 . S
H3997 C3989 0.960 . S
H3998 C3990 0.930 . S
H3999 C3991 0.929 . S
H4000 C4008 0.929 . S
H4001 C4010 0.930 . S
H4002 C4012 0.930 . S
H4003 C4015 0.929 . S
H4004 C4018 0.930 . S
H4005 C4020 0.960 . S
H4006 C4020 0.960 . S
H4007 C4020 0.960 . S
C4008 H4000 0.929 . S
C4008 C4009 1.377 . S
C4008 C4010 1.384 . S
C4009 C4008 1.377 . S
C4009 C4015 1.390 . S
C4010 H4001 0.930 . S
C4010 C4008 1.384 . S
C4010 C4011 1.372 . S
C4011 C4010 1.372 . S
C4011 C4012 1.400 . S
C4011 C4016 1.490 . S
C4012 H4002 0.930 . S
C4012 C4011 1.400 . S
C4012 C4015 1.386 . S
H4013 C4029 0.930 . S
H4014 C4030 0.931 . S
C4015 H4003 0.929 . S
C4015 C4009 1.390 . S
C4015 C4012 1.386 . S
C4016 C4011 1.490 . S
C4016 C4018 1.395 . S
C4016 C4019 1.403 . S
H4017 C4023 0.930 . S
C4018 H4004 0.930 . S
C4018 C4016 1.395 . S
C4018 C4021 1.403 . S
C4019 C4016 1.403 . S
C4019 C4020 1.524 . S
C4019 C4023 1.400 . S
C4020 H4005 0.960 . S
C4020 H4006 0.960 . S
C4020 H4007 0.960 . S
C4020 C4019 1.524 . S
C4021 C4018 1.403 . S
C4021 C4022 1.392 . S
C4021 C4025 1.495 . S
C4022 C4021 1.392 . S
C4022 C4023 1.385 . S
C4022 C4024 1.478 . S
C4023 H4017 0.930 . S
C4023 C4019 1.400 . S
C4023 C4022 1.385 . S
C4024 C4022 1.478 . S
C4024 C4026 1.381 . S
C4024 C4030 1.383 . S
C4025 C4021 1.495 . S
C4025 H4031 0.959 . S
C4025 H4032 0.961 . S
C4025 H4033 0.960 . S
C4026 C4024 1.381 . S
C4026 C4027 1.394 . S
C4026 H4034 0.930 . S
C4027 C4026 1.394 . S
C4027 C4028 1.383 . S
C4027 H4035 0.929 . S
C4028 C4027 1.383 . S
C4028 C4029 1.377 . S
C4029 H4013 0.930 . S
C4029 C4028 1.377 . S
C4029 C4030 1.379 . S
C4030 H4014 0.931 . S
C4030 C4024 1.383 . S
C4030 C4029 1.379 . S
H4031 C4025 0.959 . S
H4032 C4025 0.961 . S
H4033 C4025 0.960 . S
H4034 C4026 0.930 . S
H4035 C4027 0.929 . S
H4036 C4044 0.929 . S
H4037 C4046 0.930 . S
H4038 C4048 0.930 . S
H4039 C4051 0.929 . S
H4040 C4054 0.930 . S
H4041 C4056 0.960 . S
H4042 C4056 0.960 . S
H4043 C4056 0.960 . S
C4044 H4036 0.929 . S
C4044 C4045 1.377 . S
C4044 C4046 1.384 . S
C4045 C4044 1.377 . S
C4045 C4051 1.390 . S
C4046 H4037 0.930 . S
C4046 C4044 1.384 . S
C4046 C4047 1.372 . S
C4047 C4046 1.372 . S
C4047 C4048 1.400 . S
C4047 C4052 1.490 . S
C4048 H4038 0.930 . S
C4048 C4047 1.400 . S
C4048 C4051 1.386 . S
H4049 C4065 0.930 . S
H4050 C4066 0.931 . S
C4051 H4039 0.929 . S
C4051 C4045 1.390 . S
C4051 C4048 1.386 . S
C4052 C4047 1.490 . S
C4052 C4054 1.395 . S
C4052 C4055 1.403 . S
H4053 C4059 0.930 . S
C4054 H4040 0.930 . S
C4054 C4052 1.395 . S
C4054 C4057 1.403 . S
C4055 C4052 1.403 . S
C4055 C4056 1.524 . S
C4055 C4059 1.400 . S
C4056 H4041 0.960 . S
C4056 H4042 0.960 . S
C4056 H4043 0.960 . S
C4056 C4055 1.524 . S
C4057 C4054 1.403 . S
C4057 C4058 1.392 . S
C4057 C4061 1.495 . S
C4058 C4057 1.392 . S
C4058 C4059 1.385 . S
C4058 C4060 1.478 . S
C4059 H4053 0.930 . S
C4059 C4055 1.400 . S
C4059 C4058 1.385 . S
C4060 C4058 1.478 . S
C4060 C4062 1.381 . S
C4060 C4066 1.383 . S
C4061 C4057 1.495 . S
C4061 H4067 0.959 . S
C4061 H4068 0.961 . S
C4061 H4069 0.960 . S
C4062 C4060 1.381 . S
C4062 C4063 1.394 . S
C4062 H4070 0.930 . S
C4063 C4062 1.394 . S
C4063 C4064 1.383 . S
C4063 H4071 0.929 . S
C4064 C4063 1.383 . S
C4064 C4065 1.377 . S
C4065 H4049 0.930 . S
C4065 C4064 1.377 . S
C4065 C4066 1.379 . S
C4066 H4050 0.931 . S
C4066 C4060 1.383 . S
C4066 C4065 1.379 . S
H4067 C4061 0.959 . S
H4068 C4061 0.961 . S
H4069 C4061 0.960 . S
H4070 C4062 0.930 . S
H4071 C4063 0.929 . S
H4072 C4080 0.929 . S
H4073 C4082 0.930 . S
H4074 C4084 0.930 . S
H4075 C4087 0.929 . S
H4076 C4090 0.930 . S
H4077 C4092 0.960 . S
H4078 C4092 0.960 . S
H4079 C4092 0.960 . S
C4080 H4072 0.929 . S
C4080 C4081 1.377 . S
C4080 C4082 1.384 . S
C4081 C4080 1.377 . S
C4081 C4087 1.390 . S
C4082 H4073 0.930 . S
C4082 C4080 1.384 . S
C4082 C4083 1.372 . S
C4083 C4082 1.372 . S
C4083 C4084 1.400 . S
C4083 C4088 1.490 . S
C4084 H4074 0.930 . S
C4084 C4083 1.400 . S
C4084 C4087 1.386 . S
H4085 C4101 0.930 . S
H4086 C4102 0.931 . S
C4087 H4075 0.929 . S
C4087 C4081 1.390 . S
C4087 C4084 1.386 . S
C4088 C4083 1.490 . S
C4088 C4090 1.395 . S
C4088 C4091 1.403 . S
H4089 C4095 0.930 . S
C4090 H4076 0.930 . S
C4090 C4088 1.395 . S
C4090 C4093 1.403 . S
C4091 C4088 1.403 . S
C4091 C4092 1.524 . S
C4091 C4095 1.400 . S
C4092 H4077 0.960 . S
C4092 H4078 0.960 . S
C4092 H4079 0.960 . S
C4092 C4091 1.524 . S
C4093 C4090 1.403 . S
C4093 C4094 1.392 . S
C4093 C4097 1.495 . S
C4094 C4093 1.392 . S
C4094 C4095 1.385 . S
C4094 C4096 1.478 . S
C4095 H4089 0.930 . S
C4095 C4091 1.400 . S
C4095 C4094 1.385 . S
C4096 C4094 1.478 . S
C4096 C4098 1.381 . S
C4096 C4102 1.383 . S
C4097 C4093 1.495 . S
C4097 H4103 0.952 1_655 S
C4097 H4104 0.961 . S
C4097 H4105 0.960 1_655 S
C4098 C4096 1.381 . S
C4098 C4099 1.410 . S
C4098 H4106 0.930 . S
C4099 C4098 1.410 . S
C4099 C4100 1.391 . S
C4099 H4107 0.907 1_655 S
C4100 C4099 1.391 . S
C4100 C4101 1.377 . S
C4101 H4085 0.930 . S
C4101 C4100 1.377 . S
C4101 C4102 1.379 . S
C4102 H4086 0.931 . S
C4102 C4096 1.383 . S
C4102 C4101 1.379 . S
H4103 C4097 0.952 1_455 S
H4104 C4097 0.961 . S
H4105 C4097 0.960 1_455 S
H4106 C4098 0.930 . S
H4107 C4099 0.907 1_455 S
H4108 C4116 0.929 . S
H4109 C4118 0.930 . S
H4110 C4120 0.930 . S
H4111 C4123 0.929 . S
H4112 C4126 0.930 . S
H4113 C4128 0.960 . S
H4114 C4128 0.960 . S
H4115 C4128 0.960 . S
C4116 H4108 0.929 . S
C4116 C4117 1.377 . S
C4116 C4118 1.384 . S
C4117 C4116 1.377 . S
C4117 C4123 1.390 . S
C4118 H4109 0.930 . S
C4118 C4116 1.384 . S
C4118 C4119 1.372 . S
C4119 C4118 1.372 . S
C4119 C4120 1.400 . S
C4119 C4124 1.490 . S
C4120 H4110 0.930 . S
C4120 C4119 1.400 . S
C4120 C4123 1.386 . S
H4121 C4137 0.930 . S
H4122 C4138 0.931 . S
C4123 H4111 0.929 . S
C4123 C4117 1.390 . S
C4123 C4120 1.386 . S
C4124 C4119 1.490 . S
C4124 C4126 1.395 . S
C4124 C4127 1.403 . S
H4125 C4131 0.930 . S
C4126 H4112 0.930 . S
C4126 C4124 1.395 . S
C4126 C4129 1.403 . S
C4127 C4124 1.403 . S
C4127 C4128 1.524 . S
C4127 C4131 1.400 . S
C4128 H4113 0.960 . S
C4128 H4114 0.960 . S
C4128 H4115 0.960 . S
C4128 C4127 1.524 . S
C4129 C4126 1.403 . S
C4129 C4130 1.392 . S
C4129 C4133 1.495 . S
C4130 C4129 1.392 . S
C4130 C4131 1.385 . S
C4130 C4132 1.478 . S
C4131 H4125 0.930 . S
C4131 C4127 1.400 . S
C4131 C4130 1.385 . S
C4132 C4130 1.478 . S
C4132 C4134 1.381 . S
C4132 C4138 1.383 . S
C4133 C4129 1.495 . S
C4133 H4139 0.959 . S
C4133 H4140 0.961 . S
C4133 H4141 0.960 . S
C4134 C4132 1.381 . S
C4134 C4135 1.394 . S
C4134 H4142 0.930 . S
C4135 C4134 1.394 . S
C4135 C4136 1.383 . S
C4135 H4143 0.929 . S
C4136 C4135 1.383 . S
C4136 C4137 1.377 . S
C4137 H4121 0.930 . S
C4137 C4136 1.377 . S
C4137 C4138 1.379 . S
C4138 H4122 0.931 . S
C4138 C4132 1.383 . S
C4138 C4137 1.379 . S
H4139 C4133 0.959 . S
H4140 C4133 0.961 . S
H4141 C4133 0.960 . S
H4142 C4134 0.930 . S
H4143 C4135 0.929 . S
H4144 C4152 0.929 . S
H4145 C4154 0.930 . S
H4146 C4156 0.930 . S
H4147 C4159 0.929 . S
H4148 C4162 0.930 . S
H4149 C4164 0.960 . S
H4150 C4164 0.960 . S
H4151 C4164 0.960 . S
C4152 H4144 0.929 . S
C4152 C4153 1.377 . S
C4152 C4154 1.384 . S
C4153 C4152 1.377 . S
C4153 C4159 1.390 . S
C4154 H4145 0.930 . S
C4154 C4152 1.384 . S
C4154 C4155 1.372 . S
C4155 C4154 1.372 . S
C4155 C4156 1.400 . S
C4155 C4160 1.490 . S
C4156 H4146 0.930 . S
C4156 C4155 1.400 . S
C4156 C4159 1.386 . S
H4157 C4173 0.930 . S
H4158 C4174 0.931 . S
C4159 H4147 0.929 . S
C4159 C4153 1.390 . S
C4159 C4156 1.386 . S
C4160 C4155 1.490 . S
C4160 C4162 1.395 . S
C4160 C4163 1.403 . S
H4161 C4167 0.930 . S
C4162 H4148 0.930 . S
C4162 C4160 1.395 . S
C4162 C4165 1.403 . S
C4163 C4160 1.403 . S
C4163 C4164 1.524 . S
C4163 C4167 1.400 . S
C4164 H4149 0.960 . S
C4164 H4150 0.960 . S
C4164 H4151 0.960 . S
C4164 C4163 1.524 . S
C4165 C4162 1.403 . S
C4165 C4166 1.392 . S
C4165 C4169 1.495 . S
C4166 C4165 1.392 . S
C4166 C4167 1.385 . S
C4166 C4168 1.478 . S
C4167 H4161 0.930 . S
C4167 C4163 1.400 . S
C4167 C4166 1.385 . S
C4168 C4166 1.478 . S
C4168 C4170 1.381 . S
C4168 C4174 1.383 . S
C4169 C4165 1.495 . S
C4169 H4175 0.959 . S
C4169 H4176 0.961 . S
C4169 H4177 0.960 . S
C4170 C4168 1.381 . S
C4170 C4171 1.394 . S
C4170 H4178 0.930 . S
C4171 C4170 1.394 . S
C4171 C4172 1.383 . S
C4171 H4179 0.929 . S
C4172 C4171 1.383 . S
C4172 C4173 1.377 . S
C4173 H4157 0.930 . S
C4173 C4172 1.377 . S
C4173 C4174 1.379 . S
C4174 H4158 0.931 . S
C4174 C4168 1.383 . S
C4174 C4173 1.379 . S
H4175 C4169 0.959 . S
H4176 C4169 0.961 . S
H4177 C4169 0.960 . S
H4178 C4170 0.930 . S
H4179 C4171 0.929 . S
H4180 C4188 0.929 . S
H4181 C4190 0.930 . S
H4182 C4192 0.930 . S
H4183 C4195 0.929 . S
H4184 C4198 0.930 . S
H4185 C4200 0.960 . S
H4186 C4200 0.960 . S
H4187 C4200 0.960 . S
C4188 H4180 0.929 . S
C4188 C4189 1.377 . S
C4188 C4190 1.384 . S
C4189 C4188 1.377 . S
C4189 C4195 1.390 . S
C4190 H4181 0.930 . S
C4190 C4188 1.384 . S
C4190 C4191 1.372 . S
C4191 C4190 1.372 . S
C4191 C4192 1.400 . S
C4191 C4196 1.490 . S
C4192 H4182 0.930 . S
C4192 C4191 1.400 . S
C4192 C4195 1.386 . S
H4193 C4209 0.930 . S
H4194 C4210 0.931 . S
C4195 H4183 0.929 . S
C4195 C4189 1.390 . S
C4195 C4192 1.386 . S
C4196 C4191 1.490 . S
C4196 C4198 1.395 . S
C4196 C4199 1.403 . S
H4197 C4203 0.930 . S
C4198 H4184 0.930 . S
C4198 C4196 1.395 . S
C4198 C4201 1.403 . S
C4199 C4196 1.403 . S
C4199 C4200 1.524 . S
C4199 C4203 1.400 . S
C4200 H4185 0.960 . S
C4200 H4186 0.960 . S
C4200 H4187 0.960 . S
C4200 C4199 1.524 . S
C4201 C4198 1.403 . S
C4201 C4202 1.392 . S
C4201 C4205 1.495 . S
C4202 C4201 1.392 . S
C4202 C4203 1.385 . S
C4202 C4204 1.478 . S
C4203 H4197 0.930 . S
C4203 C4199 1.400 . S
C4203 C4202 1.385 . S
C4204 C4202 1.478 . S
C4204 C4206 1.381 . S
C4204 C4210 1.383 . S
C4205 C4201 1.495 . S
C4205 H4211 0.959 . S
C4205 H4212 0.961 . S
C4205 H4213 0.960 . S
C4206 C4204 1.381 . S
C4206 C4207 1.394 . S
C4206 H4214 0.930 . S
C4207 C4206 1.394 . S
C4207 C4208 1.394 . S
C4207 H4215 0.929 1_565 S
C4208 C4207 1.394 . S
C4208 C4209 1.386 . S
C4209 H4193 0.930 . S
C4209 C4208 1.386 . S
C4209 C4210 1.379 . S
C4210 H4194 0.931 . S
C4210 C4204 1.383 . S
C4210 C4209 1.379 . S
H4211 C4205 0.959 . S
H4212 C4205 0.961 . S
H4213 C4205 0.960 . S
H4214 C4206 0.930 . S
H4215 C4207 0.929 1_545 S
H4216 C4224 0.929 . S
H4217 C4226 0.930 . S
H4218 C4228 0.930 . S
H4219 C4231 0.929 . S
H4220 C4234 0.930 . S
H4221 C4236 0.960 . S
H4222 C4236 0.960 . S
H4223 C4236 0.960 . S
C4224 H4216 0.929 . S
C4224 C4225 1.377 . S
C4224 C4226 1.384 . S
C4225 C4224 1.377 . S
C4225 C4231 1.390 . S
C4226 H4217 0.930 . S
C4226 C4224 1.384 . S
C4226 C4227 1.372 . S
C4227 C4226 1.372 . S
C4227 C4228 1.400 . S
C4227 C4232 1.490 . S
C4228 H4218 0.930 . S
C4228 C4227 1.400 . S
C4228 C4231 1.386 . S
H4229 C4245 0.930 . S
H4230 C4246 0.931 . S
C4231 H4219 0.929 . S
C4231 C4225 1.390 . S
C4231 C4228 1.386 . S
C4232 C4227 1.490 . S
C4232 C4234 1.395 . S
C4232 C4235 1.403 . S
H4233 C4239 0.930 . S
C4234 H4220 0.930 . S
C4234 C4232 1.395 . S
C4234 C4237 1.403 . S
C4235 C4232 1.403 . S
C4235 C4236 1.524 . S
C4235 C4239 1.400 . S
C4236 H4221 0.960 . S
C4236 H4222 0.960 . S
C4236 H4223 0.960 . S
C4236 C4235 1.524 . S
C4237 C4234 1.403 . S
C4237 C4238 1.392 . S
C4237 C4241 1.495 . S
C4238 C4237 1.392 . S
C4238 C4239 1.385 . S
C4238 C4240 1.478 . S
C4239 H4233 0.930 . S
C4239 C4235 1.400 . S
C4239 C4238 1.385 . S
C4240 C4238 1.478 . S
C4240 C4242 1.381 . S
C4240 C4246 1.383 . S
C4241 C4237 1.495 . S
C4241 H4247 0.959 . S
C4241 H4248 0.961 . S
C4241 H4249 0.960 . S
C4242 C4240 1.381 . S
C4242 C4243 1.394 . S
C4242 H4250 0.930 . S
C4243 C4242 1.394 . S
C4243 C4244 1.383 . S
C4243 H4251 0.929 . S
C4244 C4243 1.383 . S
C4244 C4245 1.377 . S
C4245 H4229 0.930 . S
C4245 C4244 1.377 . S
C4245 C4246 1.379 . S
C4246 H4230 0.931 . S
C4246 C4240 1.383 . S
C4246 C4245 1.379 . S
H4247 C4241 0.959 . S
H4248 C4241 0.961 . S
H4249 C4241 0.960 . S
H4250 C4242 0.930 . S
H4251 C4243 0.929 . S
H4252 C4260 0.929 . S
H4253 C4262 0.930 . S
H4254 C4264 0.930 . S
H4255 C4267 0.929 . S
H4256 C4270 0.930 . S
H4257 C4272 0.960 . S
H4258 C4272 0.960 . S
H4259 C4272 0.960 1_554 S
C4260 H4252 0.929 . S
C4260 C4261 1.377 1_556 S
C4260 C4262 1.384 . S
C4261 C4260 1.377 1_554 S
C4261 C4267 1.390 . S
C4262 H4253 0.930 . S
C4262 C4260 1.384 . S
C4262 C4263 1.372 1_556 S
C4263 C4262 1.372 1_554 S
C4263 C4264 1.400 . S
C4263 C4268 1.490 . S
C4264 H4254 0.930 . S
C4264 C4263 1.400 . S
C4264 C4267 1.386 . S
H4265 C4281 0.930 . S
H4266 C4282 0.931 . S
C4267 H4255 0.929 . S
C4267 C4261 1.390 . S
C4267 C4264 1.386 . S
C4268 C4263 1.490 . S
C4268 C4270 1.395 . S
C4268 C4271 1.403 . S
H4269 C4275 0.932 . S
C4270 H4256 0.930 . S
C4270 C4268 1.395 . S
C4270 C4273 1.403 . S
C4271 C4268 1.403 . S
C4271 C4272 1.524 1_554 S
C4271 C4275 1.400 . S
C4272 H4257 0.960 . S
C4272 H4258 0.960 . S
C4272 H4259 0.960 1_556 S
C4272 C4271 1.524 1_556 S
C4273 C4270 1.403 . S
C4273 C4274 1.392 . S
C4273 C4277 1.495 . S
C4274 C4273 1.392 . S
C4274 C4275 1.385 . S
C4274 C4276 1.478 . S
C4275 H4269 0.932 . S
C4275 C4271 1.400 . S
C4275 C4274 1.385 . S
C4276 C4274 1.478 . S
C4276 C4278 1.381 1_554 S
C4276 C4282 1.383 . S
C4277 C4273 1.495 . S
C4277 H4283 0.959 . S
C4277 H4284 0.961 . S
C4277 H4285 0.960 . S
C4278 C4276 1.381 1_556 S
C4278 C4279 1.394 . S
C4278 H4286 0.930 . S
C4279 C4278 1.394 . S
C4279 C4280 1.383 1_556 S
C4279 H4287 0.929 . S
C4280 C4279 1.383 1_554 S
C4280 C4281 1.377 . S
C4281 H4265 0.930 . S
C4281 C4280 1.377 . S
C4281 C4282 1.379 . S
C4282 H4266 0.931 . S
C4282 C4276 1.383 . S
C4282 C4281 1.379 . S
H4283 C4277 0.959 . S
H4284 C4277 0.961 . S
H4285 C4277 0.960 . S
H4286 C4278 0.930 . S
H4287 C4279 0.929 . S
H4288 C4296 0.929 . S
H4289 C4298 0.930 . S
H4290 C4300 0.930 . S
H4291 C4303 0.929 . S
H4292 C4306 0.930 . S
H4293 C4308 0.960 . S
H4294 C4308 0.960 . S
H4295 C4308 0.960 . S
C4296 H4288 0.929 . S
C4296 C4297 1.377 . S
C4296 C4298 1.384 . S
C4297 C4296 1.377 . S
C4297 C4303 1.390 . S
C4298 H4289 0.930 . S
C4298 C4296 1.384 . S
C4298 C4299 1.372 . S
C4299 C4298 1.372 . S
C4299 C4300 1.400 . S
C4299 C4304 1.490 . S
C4300 H4290 0.930 . S
C4300 C4299 1.400 . S
C4300 C4303 1.386 . S
H4301 C4317 0.930 . S
H4302 C4318 0.931 . S
C4303 H4291 0.929 . S
C4303 C4297 1.390 . S
C4303 C4300 1.386 . S
C4304 C4299 1.490 . S
C4304 C4306 1.395 . S
C4304 C4307 1.403 . S
H4305 C4311 0.930 . S
C4306 H4292 0.930 . S
C4306 C4304 1.395 . S
C4306 C4309 1.403 . S
C4307 C4304 1.403 . S
C4307 C4308 1.524 . S
C4307 C4311 1.400 . S
C4308 H4293 0.960 . S
C4308 H4294 0.960 . S
C4308 H4295 0.960 . S
C4308 C4307 1.524 . S
C4309 C4306 1.403 . S
C4309 C4310 1.392 . S
C4309 C4313 1.495 . S
C4310 C4309 1.392 . S
C4310 C4311 1.385 . S
C4310 C4312 1.478 . S
C4311 H4305 0.930 . S
C4311 C4307 1.400 . S
C4311 C4310 1.385 . S
C4312 C4310 1.478 . S
C4312 C4314 1.381 . S
C4312 C4318 1.383 . S
C4313 C4309 1.495 . S
C4313 H4319 0.959 . S
C4313 H4320 0.961 . S
C4313 H4321 0.960 . S
C4314 C4312 1.381 . S
C4314 C4315 1.394 . S
C4314 H4322 0.930 . S
C4315 C4314 1.394 . S
C4315 C4316 1.383 . S
C4315 H4323 0.929 . S
C4316 C4315 1.383 . S
C4316 C4317 1.377 . S
C4317 H4301 0.930 . S
C4317 C4316 1.377 . S
C4317 C4318 1.379 . S
C4318 H4302 0.931 . S
C4318 C4312 1.383 . S
C4318 C4317 1.379 . S
H4319 C4313 0.959 . S
H4320 C4313 0.961 . S
H4321 C4313 0.960 . S
H4322 C4314 0.930 . S
H4323 C4315 0.929 . S
H4324 C4332 0.929 . S
H4325 C4334 0.930 . S
H4326 C4336 0.930 . S
H4327 C4339 0.929 . S
H4328 C4342 0.930 . S
H4329 C4344 0.967 . S
H4330 C4344 0.918 1_554 S
H4331 C4344 0.990 . S
C4332 H4324 0.929 . S
C4332 C4333 1.377 . S
C4332 C4334 1.384 . S
C4333 C4332 1.377 . S
C4333 C4339 1.390 1_554 S
C4334 H4325 0.930 . S
C4334 C4332 1.384 . S
C4334 C4335 1.372 . S
C4335 C4334 1.372 . S
C4335 C4336 1.400 1_554 S
C4335 C4340 1.490 . S
C4336 H4326 0.930 . S
C4336 C4335 1.400 1_556 S
C4336 C4339 1.386 . S
H4337 C4353 0.930 . S
H4338 C4354 0.931 . S
C4339 H4327 0.929 . S
C4339 C4333 1.390 1_556 S
C4339 C4336 1.386 . S
C4340 C4335 1.490 . S
C4340 C4342 1.395 . S
C4340 C4343 1.406 . S
H4341 C4347 0.930 . S
C4342 H4328 0.930 . S
C4342 C4340 1.395 . S
C4342 C4345 1.403 . S
C4343 C4340 1.406 . S
C4343 C4344 1.538 1_554 S
C4343 C4347 1.392 1_554 S
C4344 H4329 0.967 . S
C4344 H4330 0.918 1_556 S
C4344 H4331 0.990 . S
C4344 C4343 1.538 1_556 S
C4345 C4342 1.403 . S
C4345 C4346 1.387 1_554 S
C4345 C4349 1.495 . S
C4346 C4345 1.387 1_556 S
C4346 C4347 1.379 . S
C4346 C4348 1.493 . S
C4347 H4341 0.930 . S
C4347 C4343 1.392 1_556 S
C4347 C4346 1.379 . S
C4348 C4346 1.493 . S
C4348 C4350 1.381 1_556 S
C4348 C4354 1.383 . S
C4349 C4345 1.495 . S
C4349 H4355 0.959 . S
C4349 H4356 0.961 1_554 S
C4349 H4357 0.960 . S
C4350 C4348 1.381 1_554 S
C4350 C4351 1.394 . S
C4350 H4358 0.930 . S
C4351 C4350 1.394 . S
C4351 C4352 1.383 1_554 S
C4351 H4359 0.929 . S
C4352 C4351 1.383 1_556 S
C4352 C4353 1.377 . S
C4353 H4337 0.930 . S
C4353 C4352 1.377 . S
C4353 C4354 1.379 . S
C4354 H4338 0.931 . S
C4354 C4348 1.383 . S
C4354 C4353 1.379 . S
H4355 C4349 0.959 . S
H4356 C4349 0.961 1_556 S
H4357 C4349 0.960 . S
H4358 C4350 0.930 . S
H4359 C4351 0.929 . S
H4360 C4368 0.929 . S
H4361 C4370 0.930 . S
H4362 C4372 0.930 . S
H4363 C4375 0.929 . S
H4364 C4378 0.930 . S
H4365 C4380 0.960 . S
H4366 C4380 0.960 . S
H4367 C4380 0.960 . S
C4368 H4360 0.929 . S
C4368 C4369 1.377 . S
C4368 C4370 1.384 . S
C4369 C4368 1.377 . S
C4369 C4375 1.390 . S
C4370 H4361 0.930 . S
C4370 C4368 1.384 . S
C4370 C4371 1.372 . S
C4371 C4370 1.372 . S
C4371 C4372 1.400 . S
C4371 C4376 1.490 . S
C4372 H4362 0.930 . S
C4372 C4371 1.400 . S
C4372 C4375 1.386 . S
H4373 C4389 0.930 . S
H4374 C4390 0.931 . S
C4375 H4363 0.929 . S
C4375 C4369 1.390 . S
C4375 C4372 1.386 . S
C4376 C4371 1.490 . S
C4376 C4378 1.395 . S
C4376 C4379 1.403 . S
H4377 C4383 0.930 . S
C4378 H4364 0.930 . S
C4378 C4376 1.395 . S
C4378 C4381 1.403 . S
C4379 C4376 1.403 . S
C4379 C4380 1.524 . S
C4379 C4383 1.400 . S
C4380 H4365 0.960 . S
C4380 H4366 0.960 . S
C4380 H4367 0.960 . S
C4380 C4379 1.524 . S
C4381 C4378 1.403 . S
C4381 C4382 1.392 . S
C4381 C4385 1.495 . S
C4382 C4381 1.392 . S
C4382 C4383 1.385 . S
C4382 C4384 1.478 . S
C4383 H4377 0.930 . S
C4383 C4379 1.400 . S
C4383 C4382 1.385 . S
C4384 C4382 1.478 . S
C4384 C4386 1.381 . S
C4384 C4390 1.383 . S
C4385 C4381 1.495 . S
C4385 H4391 0.959 . S
C4385 H4392 0.961 . S
C4385 H4393 0.960 . S
C4386 C4384 1.381 . S
C4386 C4387 1.394 . S
C4386 H4394 0.930 . S
C4387 C4386 1.394 . S
C4387 C4388 1.383 . S
C4387 H4395 0.929 . S
C4388 C4387 1.383 . S
C4388 C4389 1.377 . S
C4389 H4373 0.930 . S
C4389 C4388 1.377 . S
C4389 C4390 1.379 . S
C4390 H4374 0.931 . S
C4390 C4384 1.383 . S
C4390 C4389 1.379 . S
H4391 C4385 0.959 . S
H4392 C4385 0.961 . S
H4393 C4385 0.960 . S
H4394 C4386 0.930 . S
H4395 C4387 0.929 . S
H4396 C4404 0.929 . S
H4397 C4406 0.930 . S
H4398 C4408 0.930 . S
H4399 C4411 0.929 . S
H4400 C4414 0.930 . S
H4401 C4416 0.960 . S
H4402 C4416 0.960 . S
H4403 C4416 0.960 . S
C4404 H4396 0.929 . S
C4404 C4405 1.377 . S
C4404 C4406 1.384 . S
C4405 C4404 1.377 . S
C4405 C4411 1.390 . S
C4406 H4397 0.930 . S
C4406 C4404 1.384 . S
C4406 C4407 1.372 . S
C4407 C4406 1.372 . S
C4407 C4408 1.400 . S
C4407 C4412 1.490 . S
C4408 H4398 0.930 . S
C4408 C4407 1.400 . S
C4408 C4411 1.386 . S
H4409 C4425 0.930 . S
H4410 C4426 0.931 . S
C4411 H4399 0.929 . S
C4411 C4405 1.390 . S
C4411 C4408 1.386 . S
C4412 C4407 1.490 . S
C4412 C4414 1.395 . S
C4412 C4415 1.403 . S
H4413 C4419 0.930 . S
C4414 H4400 0.930 . S
C4414 C4412 1.395 . S
C4414 C4417 1.403 . S
C4415 C4412 1.403 . S
C4415 C4416 1.524 . S
C4415 C4419 1.400 . S
C4416 H4401 0.960 . S
C4416 H4402 0.960 . S
C4416 H4403 0.960 . S
C4416 C4415 1.524 . S
C4417 C4414 1.403 . S
C4417 C4418 1.392 . S
C4417 C4421 1.495 . S
C4418 C4417 1.392 . S
C4418 C4419 1.385 . S
C4418 C4420 1.478 . S
C4419 H4413 0.930 . S
C4419 C4415 1.400 . S
C4419 C4418 1.385 . S
C4420 C4418 1.478 . S
C4420 C4422 1.381 . S
C4420 C4426 1.383 . S
C4421 C4417 1.495 . S
C4421 H4427 0.959 . S
C4421 H4428 0.961 . S
C4421 H4429 0.960 . S
C4422 C4420 1.381 . S
C4422 C4423 1.394 . S
C4422 H4430 0.930 . S
C4423 C4422 1.394 . S
C4423 C4424 1.383 . S
C4423 H4431 0.929 . S
C4424 C4423 1.383 . S
C4424 C4425 1.377 . S
C4425 H4409 0.930 . S
C4425 C4424 1.377 . S
C4425 C4426 1.379 . S
C4426 H4410 0.931 . S
C4426 C4420 1.383 . S
C4426 C4425 1.379 . S
H4427 C4421 0.959 . S
H4428 C4421 0.961 . S
H4429 C4421 0.960 . S
H4430 C4422 0.930 . S
H4431 C4423 0.929 . S
C985 C109 2.118 . S
C1004 C338 2.099 1_556 S
C1021 C65 2.093 . S
C1040 C395 2.075 . S
C1057 C75 1.067 . S
C1076 C418 1.038 . S
C1112 C472 1.454 . S
C1093 C84 1.458 . S
C1129 C25 1.221 . S
C1148 C512 1.171 . S
C1184 C543 0.281 . S
C1165 C28 0.302 . S
C1220 C595 1.133 . S
C1201 C47 1.141 . S
C1237 C9 1.713 . S
C1256 C618 1.688 . S
C1292 C355 2.470 . S
C1273 C233 2.499 . S
C1309 C249 0.308 . S
C1328 C392 0.474 . S
C1364 C435 1.360 . S
C1345 C275 1.389 . S
C1400 C458 1.199 . S
C1381 C173 1.216 . S
C1417 C224 1.808 . S
C1436 C498 1.828 . S
C1472 C546 1.455 . S
C1453 C243 1.471 . S
C1508 C592 0.297 . S
C1489 C266 0.199 . S
C1544 C635 1.878 . S
C1525 C179 1.897 . S
C1580 C352 1.452 1_565 S
C1561 C163 1.491 . S
C1597 C289 2.011 . S
C1616 C675 1.992 . S
C1652 C707 2.538 . S
C1633 C333 2.566 . S
C1688 C738 0.484 1_655 S
C1669 C308 0.448 . S
C1705 C123 1.284 . S
C1724 C632 1.287 . S
C1741 C126 1.539 . S
C1760 C432 1.531 . S
C1777 C327 2.363 . S
C1796 C795 2.330 . S
C1832 C818 0.551 . S
C1813 C299 0.528 . S
C1868 C347 2.116 . S
C1849 C67 2.140 . S
C1904 C826 2.113 . S
C1885 C98 2.090 . S
C1921 C89 1.105 . S
C1940 C427 1.110 . S
C1957 C79 1.517 . S
C1976 C783 1.485 . S
C2012 C503 1.201 . S
C1993 C11 1.238 . S
C2029 C51 0.317 . S
C2048 C712 0.395 . S
C2084 C586 1.234 . S
C2065 C33 1.215 . S
C2120 C867 1.653 . S
C2101 C14 1.719 . S
C2156 C346 2.472 . S
C2137 C140 2.476 . S
C2192 C823 0.290 . S
C2173 C319 0.270 . S
C2209 C112 1.401 . S
C2228 C426 1.385 . S
C2245 C285 1.246 . S
C2264 C787 1.250 . S
C2281 C149 1.869 . S
C2300 C507 1.848 . S
C2336 C715 1.464 . S
C2317 C313 1.512 . S
C2353 C121 0.167 . S
C2372 C583 0.268 . S
C2389 C291 1.937 . S
C2408 C866 1.924 . S
C2425 C182 1.502 . S
C2444 C343 1.470 . S
C2461 C168 2.013 . S
C2480 C666 2.023 . S
C2497 C263 2.618 . S
C2516 C538 2.604 . S
C2533 C247 0.523 . S
C2552 C747 0.556 . S
C2588 C863 1.226 . S
C2569 C277 1.299 . S
C2605 C219 1.591 . S
C2624 C423 1.558 . S
C2660 C466 2.380 . S
C2641 C257 2.413 . S
C2696 C387 0.505 . S
C2677 C201 0.529 . S
C2713 C81 2.120 . S
C2732 C898 2.082 . S
C2768 C835 2.074 . S
C2749 C93 2.093 . S
C2785 C103 1.064 . S
C2804 C938 1.073 . S
C2821 C56 1.455 . S
C2840 C792 1.449 . S
C2857 C53 1.222 . S
C2876 C672 1.199 . S
C2912 C703 0.309 . S
C2893 C0 0.297 . S
C2948 C755 1.135 . S
C2929 C19 1.138 . S
C2984 C858 1.662 . S
C2965 C37 1.715 . S
C3020 C915 2.471 . S
C3001 C261 2.499 . S
C3037 C193 0.299 . S
C3056 C832 0.386 . S
C3092 C955 1.360 . S
C3073 C205 1.389 . S
C3128 C778 1.220 . S
C3109 C215 1.216 . S
C3164 C658 1.819 . S
C3145 C252 1.810 . S
C3181 C187 1.470 . S
C3200 C706 1.440 . S
C3236 C752 0.205 . S
C3217 C196 0.175 . S
C3253 C221 1.897 . S
C3272 C875 1.873 . S
C3308 C912 1.492 . S
C3289 C317 1.494 . S
C3325 C135 2.010 . S
C3344 C515 2.001 . S
C3380 C547 2.535 . S
C3361 C151 2.573 . S
C3416 C578 0.487 . S
C3397 C154 0.448 . S
C3452 C872 1.287 . S
C3433 C305 1.287 . S
C3469 C280 1.543 . S
C3488 C952 1.533 . S
C3524 C475 2.337 . S
C3505 C145 2.354 . S
C3560 C378 0.596 . S
C3541 C117 0.525 . S
C3577 C95 2.139 . S
C3596 C907 2.101 . S
C3632 C386 2.129 . S
C3613 C70 2.092 . S
C3649 C61 1.103 . S
C3668 C947 1.081 . S
C3685 C107 1.517 . S
C3704 C463 1.481 . S
C3721 C39 1.234 . S
C3740 C663 1.176 . S
C3776 C552 0.301 . S
C3757 C23 0.313 . S
C3793 C5 1.207 . S
C3812 C746 1.209 . S
C3829 C42 1.716 . S
C3848 C627 1.681 . S
C3884 C906 2.468 . S
C3865 C322 2.478 . S
C3901 C165 0.276 . S
C3920 C383 0.280 . S
C3956 C946 1.402 . S
C3937 C294 1.400 . S
C3973 C131 1.247 . S
C3992 C467 1.254 . S
C4009 C331 1.868 . S
C4028 C667 1.862 . S
C4064 C555 1.492 . S
C4045 C159 1.513 . S
C4081 C303 0.172 . S
C4100 C743 0.347 . S
C4136 C626 1.906 . S
C4117 C137 1.937 . S
C4172 C903 1.440 . S
C4153 C238 1.503 . S
C4208 C506 2.011 1_665 S
C4189 C210 2.011 . S
C4225 C235 2.620 . S
C4244 C698 2.589 . S
C4280 C587 0.552 . S
C4261 C191 0.524 . S
C4297 C207 1.273 . S
C4316 C623 1.215 . S
C4333 C177 1.591 . S
C4352 C943 1.556 . S
C4388 C786 2.396 . S
C4369 C229 2.413 1_565 S
C4424 C827 0.514 . S
C4405 C271 0.530 . S
