# Generated by pormake.
# Topology gar, (4,6)-cn, num edge types: 1
# Building blocks:
#     Node 0, Type 0, BuildingBlock: QUQFOY_clean_sbu_1, # of connection points: 4
#     Node 1, Type 0, BuildingBlock: QUQFOY_clean_sbu_1, # of connection points: 4
#     Node 2, Type 0, BuildingBlock: QUQFOY_clean_sbu_1, # of connection points: 4
#     Node 3, Type 0, BuildingBlock: QUQFOY_clean_sbu_1, # of connection points: 4
#     Node 4, Type 0, BuildingBlock: QUQFOY_clean_sbu_1, # of connection points: 4
#     Node 5, Type 0, BuildingBlock: QUQFOY_clean_sbu_1, # of connection points: 4
#     Node 6, Type 0, BuildingBlock: QUQFOY_clean_sbu_1, # of connection points: 4
#     Node 7, Type 0, BuildingBlock: QUQFOY_clean_sbu_1, # of connection points: 4
#     Node 8, Type 0, BuildingBlock: QUQFOY_clean_sbu_1, # of connection points: 4
#     Node 9, Type 0, BuildingBlock: QUQFOY_clean_sbu_1, # of connection points: 4
#     Node 10, Type 0, BuildingBlock: QUQFOY_clean_sbu_1, # of connection points: 4
#     Node 11, Type 0, BuildingBlock: QUQFOY_clean_sbu_1, # of connection points: 4
#     Node 12, Type 0, BuildingBlock: QUQFOY_clean_sbu_1, # of connection points: 4
#     Node 13, Type 0, BuildingBlock: QUQFOY_clean_sbu_1, # of connection points: 4
#     Node 14, Type 0, BuildingBlock: QUQFOY_clean_sbu_1, # of connection points: 4
#     Node 15, Type 0, BuildingBlock: QUQFOY_clean_sbu_1, # of connection points: 4
#     Node 16, Type 0, BuildingBlock: QUQFOY_clean_sbu_1, # of connection points: 4
#     Node 17, Type 0, BuildingBlock: QUQFOY_clean_sbu_1, # of connection points: 4
#     Node 18, Type 0, BuildingBlock: QUQFOY_clean_sbu_1, # of connection points: 4
#     Node 19, Type 0, BuildingBlock: QUQFOY_clean_sbu_1, # of connection points: 4
#     Node 20, Type 0, BuildingBlock: QUQFOY_clean_sbu_1, # of connection points: 4
#     Node 21, Type 0, BuildingBlock: QUQFOY_clean_sbu_1, # of connection points: 4
#     Node 22, Type 0, BuildingBlock: QUQFOY_clean_sbu_1, # of connection points: 4
#     Node 23, Type 0, BuildingBlock: QUQFOY_clean_sbu_1, # of connection points: 4
#     Node 24, Type 1, BuildingBlock: BETDEL_clean_sbu_0, # of connection points: 6
#     Node 25, Type 1, BuildingBlock: BETDEL_clean_sbu_0, # of connection points: 6
#     Node 26, Type 1, BuildingBlock: BETDEL_clean_sbu_0, # of connection points: 6
#     Node 27, Type 1, BuildingBlock: BETDEL_clean_sbu_0, # of connection points: 6
#     Node 28, Type 1, BuildingBlock: BETDEL_clean_sbu_0, # of connection points: 6
#     Node 29, Type 1, BuildingBlock: BETDEL_clean_sbu_0, # of connection points: 6
#     Node 30, Type 1, BuildingBlock: BETDEL_clean_sbu_0, # of connection points: 6
#     Node 31, Type 1, BuildingBlock: BETDEL_clean_sbu_0, # of connection points: 6
#     Node 32, Type 1, BuildingBlock: BETDEL_clean_sbu_0, # of connection points: 6
#     Node 33, Type 1, BuildingBlock: BETDEL_clean_sbu_0, # of connection points: 6
#     Node 34, Type 1, BuildingBlock: BETDEL_clean_sbu_0, # of connection points: 6
#     Node 35, Type 1, BuildingBlock: BETDEL_clean_sbu_0, # of connection points: 6
#     Node 36, Type 1, BuildingBlock: BETDEL_clean_sbu_0, # of connection points: 6
#     Node 37, Type 1, BuildingBlock: BETDEL_clean_sbu_0, # of connection points: 6
#     Node 38, Type 1, BuildingBlock: BETDEL_clean_sbu_0, # of connection points: 6
#     Node 39, Type 1, BuildingBlock: BETDEL_clean_sbu_0, # of connection points: 6
#     Edge 40, Type (0, 1), BuildingBlock: XIVTED_clean_linker_0, # of connection points: 2
#     Edge 41, Type (0, 1), BuildingBlock: XIVTED_clean_linker_0, # of connection points: 2
#     Edge 42, Type (0, 1), BuildingBlock: XIVTED_clean_linker_0, # of connection points: 2
#     Edge 43, Type (0, 1), BuildingBlock: XIVTED_clean_linker_0, # of connection points: 2
#     Edge 44, Type (0, 1), BuildingBlock: XIVTED_clean_linker_0, # of connection points: 2
#     Edge 45, Type (0, 1), BuildingBlock: XIVTED_clean_linker_0, # of connection points: 2
#     Edge 46, Type (0, 1), BuildingBlock: XIVTED_clean_linker_0, # of connection points: 2
#     Edge 47, Type (0, 1), BuildingBlock: XIVTED_clean_linker_0, # of connection points: 2
#     Edge 48, Type (0, 1), BuildingBlock: XIVTED_clean_linker_0, # of connection points: 2
#     Edge 49, Type (0, 1), BuildingBlock: XIVTED_clean_linker_0, # of connection points: 2
#     Edge 50, Type (0, 1), BuildingBlock: XIVTED_clean_linker_0, # of connection points: 2
#     Edge 51, Type (0, 1), BuildingBlock: XIVTED_clean_linker_0, # of connection points: 2
#     Edge 52, Type (0, 1), BuildingBlock: XIVTED_clean_linker_0, # of connection points: 2
#     Edge 53, Type (0, 1), BuildingBlock: XIVTED_clean_linker_0, # of connection points: 2
#     Edge 54, Type (0, 1), BuildingBlock: XIVTED_clean_linker_0, # of connection points: 2
#     Edge 55, Type (0, 1), BuildingBlock: XIVTED_clean_linker_0, # of connection points: 2
#     Edge 56, Type (0, 1), BuildingBlock: XIVTED_clean_linker_0, # of connection points: 2
#     Edge 57, Type (0, 1), BuildingBlock: XIVTED_clean_linker_0, # of connection points: 2
#     Edge 58, Type (0, 1), BuildingBlock: XIVTED_clean_linker_0, # of connection points: 2
#     Edge 59, Type (0, 1), BuildingBlock: XIVTED_clean_linker_0, # of connection points: 2
#     Edge 60, Type (0, 1), BuildingBlock: XIVTED_clean_linker_0, # of connection points: 2
#     Edge 61, Type (0, 1), BuildingBlock: XIVTED_clean_linker_0, # of connection points: 2
#     Edge 62, Type (0, 1), BuildingBlock: XIVTED_clean_linker_0, # of connection points: 2
#     Edge 63, Type (0, 1), BuildingBlock: XIVTED_clean_linker_0, # of connection points: 2
#     Edge 64, Type (0, 1), BuildingBlock: XIVTED_clean_linker_0, # of connection points: 2
#     Edge 65, Type (0, 1), BuildingBlock: XIVTED_clean_linker_0, # of connection points: 2
#     Edge 66, Type (0, 1), BuildingBlock: XIVTED_clean_linker_0, # of connection points: 2
#     Edge 67, Type (0, 1), BuildingBlock: XIVTED_clean_linker_0, # of connection points: 2
#     Edge 68, Type (0, 1), BuildingBlock: XIVTED_clean_linker_0, # of connection points: 2
#     Edge 69, Type (0, 1), BuildingBlock: XIVTED_clean_linker_0, # of connection points: 2
#     Edge 70, Type (0, 1), BuildingBlock: XIVTED_clean_linker_0, # of connection points: 2
#     Edge 71, Type (0, 1), BuildingBlock: XIVTED_clean_linker_0, # of connection points: 2
#     Edge 72, Type (0, 1), BuildingBlock: XIVTED_clean_linker_0, # of connection points: 2
#     Edge 73, Type (0, 1), BuildingBlock: XIVTED_clean_linker_0, # of connection points: 2
#     Edge 74, Type (0, 1), BuildingBlock: XIVTED_clean_linker_0, # of connection points: 2
#     Edge 75, Type (0, 1), BuildingBlock: XIVTED_clean_linker_0, # of connection points: 2
#     Edge 76, Type (0, 1), BuildingBlock: XIVTED_clean_linker_0, # of connection points: 2
#     Edge 77, Type (0, 1), BuildingBlock: XIVTED_clean_linker_0, # of connection points: 2
#     Edge 78, Type (0, 1), BuildingBlock: XIVTED_clean_linker_0, # of connection points: 2
#     Edge 79, Type (0, 1), BuildingBlock: XIVTED_clean_linker_0, # of connection points: 2
#     Edge 80, Type (0, 1), BuildingBlock: XIVTED_clean_linker_0, # of connection points: 2
#     Edge 81, Type (0, 1), BuildingBlock: XIVTED_clean_linker_0, # of connection points: 2
#     Edge 82, Type (0, 1), BuildingBlock: XIVTED_clean_linker_0, # of connection points: 2
#     Edge 83, Type (0, 1), BuildingBlock: XIVTED_clean_linker_0, # of connection points: 2
#     Edge 84, Type (0, 1), BuildingBlock: XIVTED_clean_linker_0, # of connection points: 2
#     Edge 85, Type (0, 1), BuildingBlock: XIVTED_clean_linker_0, # of connection points: 2
#     Edge 86, Type (0, 1), BuildingBlock: XIVTED_clean_linker_0, # of connection points: 2
#     Edge 87, Type (0, 1), BuildingBlock: XIVTED_clean_linker_0, # of connection points: 2
#     Edge 88, Type (0, 1), BuildingBlock: XIVTED_clean_linker_0, # of connection points: 2
#     Edge 89, Type (0, 1), BuildingBlock: XIVTED_clean_linker_0, # of connection points: 2
#     Edge 90, Type (0, 1), BuildingBlock: XIVTED_clean_linker_0, # of connection points: 2
#     Edge 91, Type (0, 1), BuildingBlock: XIVTED_clean_linker_0, # of connection points: 2
#     Edge 92, Type (0, 1), BuildingBlock: XIVTED_clean_linker_0, # of connection points: 2
#     Edge 93, Type (0, 1), BuildingBlock: XIVTED_clean_linker_0, # of connection points: 2
#     Edge 94, Type (0, 1), BuildingBlock: XIVTED_clean_linker_0, # of connection points: 2
#     Edge 95, Type (0, 1), BuildingBlock: XIVTED_clean_linker_0, # of connection points: 2
#     Edge 96, Type (0, 1), BuildingBlock: XIVTED_clean_linker_0, # of connection points: 2
#     Edge 97, Type (0, 1), BuildingBlock: XIVTED_clean_linker_0, # of connection points: 2
#     Edge 98, Type (0, 1), BuildingBlock: XIVTED_clean_linker_0, # of connection points: 2
#     Edge 99, Type (0, 1), BuildingBlock: XIVTED_clean_linker_0, # of connection points: 2
#     Edge 100, Type (0, 1), BuildingBlock: XIVTED_clean_linker_0, # of connection points: 2
#     Edge 101, Type (0, 1), BuildingBlock: XIVTED_clean_linker_0, # of connection points: 2
#     Edge 102, Type (0, 1), BuildingBlock: XIVTED_clean_linker_0, # of connection points: 2
#     Edge 103, Type (0, 1), BuildingBlock: XIVTED_clean_linker_0, # of connection points: 2
#     Edge 104, Type (0, 1), BuildingBlock: XIVTED_clean_linker_0, # of connection points: 2
#     Edge 105, Type (0, 1), BuildingBlock: XIVTED_clean_linker_0, # of connection points: 2
#     Edge 106, Type (0, 1), BuildingBlock: XIVTED_clean_linker_0, # of connection points: 2
#     Edge 107, Type (0, 1), BuildingBlock: XIVTED_clean_linker_0, # of connection points: 2
#     Edge 108, Type (0, 1), BuildingBlock: XIVTED_clean_linker_0, # of connection points: 2
#     Edge 109, Type (0, 1), BuildingBlock: XIVTED_clean_linker_0, # of connection points: 2
#     Edge 110, Type (0, 1), BuildingBlock: XIVTED_clean_linker_0, # of connection points: 2
#     Edge 111, Type (0, 1), BuildingBlock: XIVTED_clean_linker_0, # of connection points: 2
#     Edge 112, Type (0, 1), BuildingBlock: XIVTED_clean_linker_0, # of connection points: 2
#     Edge 113, Type (0, 1), BuildingBlock: XIVTED_clean_linker_0, # of connection points: 2
#     Edge 114, Type (0, 1), BuildingBlock: XIVTED_clean_linker_0, # of connection points: 2
#     Edge 115, Type (0, 1), BuildingBlock: XIVTED_clean_linker_0, # of connection points: 2
#     Edge 116, Type (0, 1), BuildingBlock: XIVTED_clean_linker_0, # of connection points: 2
#     Edge 117, Type (0, 1), BuildingBlock: XIVTED_clean_linker_0, # of connection points: 2
#     Edge 118, Type (0, 1), BuildingBlock: XIVTED_clean_linker_0, # of connection points: 2
#     Edge 119, Type (0, 1), BuildingBlock: XIVTED_clean_linker_0, # of connection points: 2
#     Edge 120, Type (0, 1), BuildingBlock: XIVTED_clean_linker_0, # of connection points: 2
#     Edge 121, Type (0, 1), BuildingBlock: XIVTED_clean_linker_0, # of connection points: 2
#     Edge 122, Type (0, 1), BuildingBlock: XIVTED_clean_linker_0, # of connection points: 2
#     Edge 123, Type (0, 1), BuildingBlock: XIVTED_clean_linker_0, # of connection points: 2
#     Edge 124, Type (0, 1), BuildingBlock: XIVTED_clean_linker_0, # of connection points: 2
#     Edge 125, Type (0, 1), BuildingBlock: XIVTED_clean_linker_0, # of connection points: 2
#     Edge 126, Type (0, 1), BuildingBlock: XIVTED_clean_linker_0, # of connection points: 2
#     Edge 127, Type (0, 1), BuildingBlock: XIVTED_clean_linker_0, # of connection points: 2
#     Edge 128, Type (0, 1), BuildingBlock: XIVTED_clean_linker_0, # of connection points: 2
#     Edge 129, Type (0, 1), BuildingBlock: XIVTED_clean_linker_0, # of connection points: 2
#     Edge 130, Type (0, 1), BuildingBlock: XIVTED_clean_linker_0, # of connection points: 2
#     Edge 131, Type (0, 1), BuildingBlock: XIVTED_clean_linker_0, # of connection points: 2
#     Edge 132, Type (0, 1), BuildingBlock: XIVTED_clean_linker_0, # of connection points: 2
#     Edge 133, Type (0, 1), BuildingBlock: XIVTED_clean_linker_0, # of connection points: 2
#     Edge 134, Type (0, 1), BuildingBlock: XIVTED_clean_linker_0, # of connection points: 2
#     Edge 135, Type (0, 1), BuildingBlock: XIVTED_clean_linker_0, # of connection points: 2
# Relax obj value: 0.156
# Max RMSD: 0.275
# Mean RMSD: 0.181
data_MOF--net-gar--node1-QUQFOY_clean_sbu_1--node2-BETDEL_clean_sbu_0--edge1-XIVTED_clean_linker_0
_symmetry_space_group_name_H-M    P1
_symmetry_Int_Tables_number       1
_symmetry_cell_setting            triclinic
loop_
_symmetry_equiv_pos_as_xyz
'x, y, z'
_cell_length_a     57.33812
_cell_length_b     54.526332
_cell_length_c     56.026666
_cell_angle_alpha  95.956834
_cell_angle_beta   92.994756
_cell_angle_gamma 103.59518
loop_
_atom_site_label
_atom_site_type_symbol
_atom_site_fract_x
_atom_site_fract_y
_atom_site_fract_z
_atom_type_partial_charge
O0 O 0.0294 0.22947 0.3971 0.0
Cd1 Cd 0.03131 0.25978 0.3772 0.0
Cd2 Cd 0.02282 0.28191 0.42104 0.0
O3 O 0.02999 0.25004 0.43319 0.0
O4 O 0.04493 0.24894 0.34698 0.0
O5 O 0.06386 0.28201 0.37276 0.0
C6 C 0.06368 0.26732 0.35307 0.0
C7 C 0.03931 0.3215 0.4425 0.0
C8 C 0.03044 0.2299 0.41987 0.0
C9 C 0.9851 0.27627 0.38056 0.0
O10 O 0.98983 0.27952 0.40323 0.0
O11 O 0.00015 0.27005 0.36668 0.0
O12 O 0.02292 0.30487 0.45088 0.0
O13 O 0.04727 0.31523 0.42217 0.0
O14 O 0.97403 0.71828 0.6179 0.0
Cd15 Cd 0.9856 0.74966 0.64336 0.0
Cd16 Cd 0.00683 0.77124 0.6063 0.0
O17 O 0.98942 0.73702 0.58731 0.0
O18 O 0.96533 0.7425 0.67081 0.0
O19 O 0.96544 0.77501 0.65027 0.0
C20 C 0.95725 0.76213 0.66743 0.0
C21 C 0.00375 0.80751 0.58908 0.0
C22 C 0.97764 0.71747 0.59567 0.0
C23 C 0.03964 0.76421 0.64721 0.0
O24 O 0.03815 0.77176 0.62658 0.0
O25 O 0.02069 0.75564 0.65753 0.0
O26 O 0.01684 0.793 0.58048 0.0
O27 O 0.99252 0.80161 0.60787 0.0
O28 O 0.58107 0.77493 0.893 0.0
Cd29 Cd 0.55655 0.77538 0.91866 0.0
Cd30 Cd 0.5317 0.7885 0.88126 0.0
O31 O 0.55656 0.77534 0.8614 0.0
O32 O 0.56431 0.75484 0.94389 0.0
O33 O 0.53016 0.74429 0.92063 0.0
C34 C 0.54365 0.73928 0.93778 0.0
C35 C 0.49228 0.78353 0.86488 0.0
C36 C 0.57679 0.77342 0.87033 0.0
C37 C 0.55034 0.82747 0.92478 0.0
O38 O 0.54291 0.82285 0.90265 0.0
O39 O 0.55526 0.81004 0.93598 0.0
O40 O 0.51036 0.79796 0.85655 0.0
O41 O 0.49665 0.77031 0.88167 0.0
O42 O 0.47476 0.21838 0.11793 0.0
Cd43 Cd 0.48561 0.24999 0.14324 0.0
Cd44 Cd 0.50766 0.2707 0.1052 0.0
O45 O 0.49009 0.23609 0.08675 0.0
O46 O 0.46558 0.24136 0.17069 0.0
O47 O 0.46436 0.27414 0.15103 0.0
C48 C 0.45669 0.26058 0.1679 0.0
C49 C 0.5047 0.30735 0.0883 0.0
C50 C 0.47843 0.21686 0.0957 0.0
C51 C 0.5398 0.26439 0.14724 0.0
O52 O 0.53864 0.27108 0.12619 0.0
O53 O 0.52068 0.25663 0.15761 0.0
O54 O 0.5177 0.29283 0.07948 0.0
O55 O 0.49337 0.30112 0.10695 0.0
O56 O 0.0251 0.75014 0.151 0.0
Cd57 Cd 0.02668 0.78358 0.17301 0.0
Cd58 Cd 0.04528 0.80543 0.13526 0.0
O59 O 0.03766 0.76842 0.11915 0.0
O60 O 0.00543 0.77415 0.19917 0.0
O61 O -0.0006 0.80102 0.17384 0.0
C62 C 0.99296 0.78932 0.19223 0.0
C63 C 0.0336 0.83507 0.11295 0.0
C64 C 0.03031 0.74849 0.1292 0.0
C65 C 0.07759 0.81386 0.18087 0.0
O66 O 0.07593 0.81724 0.15879 0.0
O67 O 0.05953 0.80164 0.19043 0.0
O68 O 0.05188 0.82605 0.10804 0.0
O69 O 0.02187 0.82743 0.13095 0.0
O70 O 0.53742 0.75278 0.36587 0.0
Cd71 Cd 0.51321 0.75698 0.39107 0.0
Cd72 Cd 0.49088 0.77216 0.3493 0.0
O73 O 0.52025 0.76371 0.33377 0.0
O74 O 0.52663 0.74391 0.4192 0.0
O75 O 0.49098 0.7255 0.40048 0.0
C76 C 0.50741 0.72578 0.41725 0.0
C77 C 0.45435 0.76115 0.32597 0.0
C78 C 0.53717 0.75604 0.34374 0.0
C79 C 0.50254 0.80905 0.39507 0.0
O80 O 0.4946 0.80458 0.37309 0.0
O81 O 0.51055 0.7926 0.40527 0.0
O82 O 0.47162 0.77969 0.32187 0.0
O83 O 0.45807 0.74799 0.34305 0.0
O84 O 0.52535 0.25022 0.64652 0.0
Cd85 Cd 0.53102 0.28405 0.66911 0.0
Cd86 Cd 0.55344 0.30325 0.63141 0.0
O87 O 0.54519 0.26582 0.61658 0.0
O88 O 0.50989 0.27591 0.69579 0.0
O89 O 0.50553 0.30404 0.6713 0.0
C90 C 0.49846 0.29218 0.68942 0.0
C91 C 0.54258 0.33336 0.60919 0.0
C92 C 0.53342 0.24698 0.62601 0.0
C93 C 0.58407 0.30938 0.67739 0.0
O94 O 0.5833 0.31394 0.65562 0.0
O95 O 0.56511 0.2981 0.68632 0.0
O96 O 0.56069 0.32401 0.60429 0.0
O97 O 0.53049 0.32559 0.62695 0.0
O98 O 0.00271 0.21202 0.88493 0.0
Cd99 Cd -0.00094 0.233 0.85696 0.0
Cd100 Cd 0.9808 0.26119 0.89493 0.0
O101 O 0.99057 0.23488 0.91449 0.0
O102 O 0.01735 0.21944 0.8316 0.0
O103 O 0.02803 0.25901 0.8494 0.0
C104 C 0.03231 0.24141 0.83419 0.0
C105 C 0.9876 0.30277 0.91377 0.0
C106 C 0.99876 0.21606 0.90693 0.0
C107 C 0.94817 0.23832 0.84976 0.0
O108 O 0.95086 0.2497 0.87105 0.0
O109 O 0.96541 0.23083 0.84043 0.0
O110 O 0.9715 0.28457 0.92039 0.0
O111 O 0.00025 0.29744 0.89644 0.0
O112 O 0.41149 0.05987 0.24026 0.0
Cd113 Cd 0.38927 0.05494 0.26821 0.0
Cd114 Cd 0.43095 0.04449 0.28927 0.0
O115 O 0.44495 0.05475 0.25802 0.0
O116 O 0.35954 0.06133 0.25306 0.0
O117 O 0.37927 0.08447 0.28586 0.0
C118 C 0.36121 0.0797 0.26989 0.0
C119 C 0.45346 0.06166 0.32526 0.0
C120 C 0.43353 0.0595 0.23976 0.0
C121 C 0.38652 0.00305 0.28437 0.0
O122 O 0.40924 0.0085 0.28834 0.0
O123 O 0.37573 0.01929 0.27774 0.0
O124 O 0.45972 0.04501 0.31056 0.0
O125 O 0.43429 0.06896 0.3194 0.0
O126 O 0.27777 0.1674 0.54284 0.0
Cd127 Cd 0.27219 0.13868 0.5146 0.0
Cd128 Cd 0.25298 0.17446 0.49176 0.0
O129 O 0.25913 0.19349 0.52645 0.0
O130 O 0.28867 0.11377 0.52733 0.0
O131 O 0.2991 0.1318 0.49477 0.0
C132 C 0.30234 0.11626 0.5098 0.0
C133 C 0.26196 0.19752 0.45878 0.0
C134 C 0.26994 0.18744 0.54455 0.0
C135 C 0.22026 0.12278 0.49469 0.0
O136 O 0.22348 0.14378 0.48589 0.0
O137 O 0.23719 0.11746 0.50709 0.0
O138 O 0.24369 0.19874 0.47088 0.0
O139 O 0.2758 0.18362 0.46575 0.0
O140 O 0.14222 0.00856 0.73625 0.0
Cd141 Cd 0.16638 0.00944 0.76526 0.0
Cd142 Cd 0.12906 0.02469 0.78948 0.0
O143 O 0.11214 0.01813 0.75525 0.0
O144 O 0.19 0.99171 0.7508 0.0
O145 O 0.16909 0.97835 0.78097 0.0
C146 C 0.1848 0.97538 0.76592 0.0
C147 C 0.10513 0.01604 0.82192 0.0
C148 C 0.12131 0.01278 0.73579 0.0
C149 C 0.17796 0.06228 0.79044 0.0
O150 O 0.15623 0.05752 0.79584 0.0
O151 O 0.18629 0.04516 0.77918 0.0
O152 O 0.10453 0.03471 0.80983 0.0
O153 O 0.119 0.00149 0.8153 0.0
O154 O 0.24333 0.90665 0.04889 0.0
Cd155 Cd 0.24681 0.92417 0.01782 0.0
Cd156 Cd 0.24421 0.87701 0.99836 0.0
O157 O 0.23068 0.8679 0.03006 0.0
O158 O 0.23942 0.95765 0.02571 0.0
O159 O 0.2178 0.92739 0.99835 0.0
C160 C 0.22141 0.94999 0.00976 0.0
C161 C 0.2261 0.85241 0.96314 0.0
C162 C 0.23458 0.88305 0.04936 0.0
C163 C 0.29091 0.91472 0.99811 0.0
O164 O 0.28087 0.8913 0.99777 0.0
O165 O 0.27942 0.93148 0.00351 0.0
O166 O 0.23824 0.84356 0.97869 0.0
O167 O 0.22346 0.87524 0.96803 0.0
O168 O 0.24835 0.39041 0.07848 0.0
Cd169 Cd 0.25179 0.41484 0.05223 0.0
Cd170 Cd 0.26381 0.3733 0.02654 0.0
O171 O 0.25126 0.35557 0.05614 0.0
O172 O 0.2355 0.44199 0.06374 0.0
O173 O 0.22339 0.41619 0.02999 0.0
C174 C 0.22063 0.4349 0.04484 0.0
C175 C 0.25549 0.35313 0.98702 0.0
C176 C 0.24774 0.3668 0.07623 0.0
C177 C 0.30209 0.42267 0.03747 0.0
O178 O 0.29698 0.39891 0.03071 0.0
O179 O 0.28615 0.43328 0.0456 0.0
O180 O 0.26871 0.3455 0.00255 0.0
O181 O 0.24557 0.37124 0.99429 0.0
O182 O 0.80179 0.16647 0.07123 0.0
Cd183 Cd 0.78781 0.13921 0.04241 0.0
Cd184 Cd 0.77627 0.17956 0.02485 0.0
O185 O 0.79596 0.19978 0.05487 0.0
O186 O 0.8001 0.10947 0.04946 0.0
O187 O 0.8087 0.12925 0.0173 0.0
C188 C 0.81081 0.11117 0.02984 0.0
C189 C 0.78221 0.19657 0.98884 0.0
C190 C 0.80393 0.19032 0.07236 0.0
C191 C 0.73552 0.13677 0.03311 0.0
O192 O 0.74177 0.15959 0.02855 0.0
O193 O 0.75122 0.12467 0.03788 0.0
O194 O 0.77125 0.20633 0.00542 0.0
O195 O 0.79026 0.17701 0.99285 0.0
O196 O 0.11337 0.47476 0.18833 0.0
Cd197 Cd 0.13745 0.48977 0.21787 0.0
Cd198 Cd 0.09907 0.50145 0.23652 0.0
O199 O 0.08124 0.48125 0.20537 0.0
O200 O 0.16656 0.47719 0.21204 0.0
O201 O 0.1453 0.46921 0.24347 0.0
C202 C 0.16388 0.46734 0.23196 0.0
C203 C 0.08305 0.49292 0.27274 0.0
C204 C 0.09081 0.47282 0.18737 0.0
C205 C 0.13969 0.54497 0.23034 0.0
O206 O 0.11795 0.53846 0.23538 0.0
O207 O 0.15089 0.5283 0.22367 0.0
O208 O 0.07321 0.50459 0.25773 0.0
O209 O 0.102 0.48547 0.26691 0.0
O210 O 0.75366 0.89484 0.58337 0.0
Cd211 Cd 0.75637 0.92062 0.55829 0.0
Cd212 Cd 0.76827 0.88054 0.52984 0.0
O213 O 0.75859 0.86174 0.55969 0.0
O214 O 0.73861 0.94637 0.57018 0.0
O215 O 0.72774 0.92097 0.53601 0.0
C216 C 0.724 0.93898 0.55111 0.0
C217 C 0.75801 0.86121 0.4901 0.0
C218 C 0.75455 0.87163 0.58022 0.0
C219 C 0.80581 0.93066 0.54088 0.0
O220 O 0.80064 0.90726 0.53263 0.0
O221 O 0.79035 0.94034 0.55132 0.0
O222 O 0.77263 0.85378 0.50432 0.0
O223 O 0.74784 0.87858 0.49885 0.0
O224 O 0.89036 0.04936 0.18781 0.0
Cd225 Cd 0.86414 0.0446 0.21261 0.0
Cd226 Cd 0.89977 0.0272 0.23723 0.0
O227 O 0.92015 0.04266 0.21089 0.0
O228 O 0.84065 0.06495 0.20449 0.0
O229 O 0.86354 0.07283 0.23874 0.0
C230 C 0.84696 0.0783 0.22521 0.0
C231 C 0.91725 0.02719 0.27594 0.0
C232 C 0.91236 0.04869 0.19121 0.0
C233 C 0.8524 0.98995 0.22051 0.0
O234 O 0.87449 0.99377 0.2275 0.0
O235 O 0.84375 0.00825 0.21511 0.0
O236 O 0.92299 0.01454 0.25742 0.0
O237 O 0.90271 0.04152 0.27236 0.0
O238 O 0.30816 0.66773 0.57399 0.0
Cd239 Cd 0.29365 0.63998 0.54568 0.0
Cd240 Cd 0.2796 0.68019 0.52829 0.0
O241 O 0.29929 0.70022 0.55841 0.0
O242 O 0.30591 0.61046 0.55347 0.0
O243 O 0.3136 0.62853 0.52025 0.0
C244 C 0.31572 0.61088 0.53333 0.0
C245 C 0.28341 0.69975 0.49339 0.0
C246 C 0.30883 0.69131 0.57538 0.0
C247 C 0.24072 0.6358 0.53763 0.0
O248 O 0.24585 0.65837 0.53224 0.0
O249 O 0.25721 0.6248 0.54265 0.0
O250 O 0.2722 0.70748 0.51086 0.0
O251 O 0.29281 0.68073 0.49579 0.0
O252 O 0.38964 0.55371 0.69385 0.0
Cd253 Cd 0.36602 0.54785 0.72057 0.0
Cd254 Cd 0.40614 0.53645 0.74351 0.0
O255 O 0.42287 0.55242 0.71504 0.0
O256 O 0.33949 0.56439 0.71261 0.0
O257 O 0.36403 0.57641 0.74571 0.0
C258 C 0.34591 0.57926 0.73249 0.0
C259 C 0.42649 0.54027 0.78155 0.0
C260 C 0.41228 0.55592 0.69561 0.0
C261 C 0.36081 0.49439 0.73008 0.0
O262 O 0.38319 0.50098 0.73641 0.0
O263 O 0.34964 0.51071 0.72431 0.0
O264 O 0.43271 0.52812 0.76299 0.0
O265 O 0.40977 0.55212 0.77825 0.0
O266 O 0.61079 0.97246 0.6856 0.0
Cd267 Cd 0.63744 0.98942 0.71244 0.0
Cd268 Cd 0.60131 0.00675 0.73261 0.0
O269 O 0.58146 0.9856 0.70279 0.0
O270 O 0.66491 0.97425 0.7057 0.0
O271 O 0.64672 0.9714 0.73957 0.0
C272 C 0.66375 0.96692 0.72683 0.0
C273 C 0.58521 0.00242 0.7696 0.0
C274 C 0.58883 0.97335 0.68543 0.0
C275 C 0.64371 0.0459 0.72098 0.0
O276 O 0.62291 0.04186 0.72874 0.0
O277 O 0.6527 0.02753 0.7139 0.0
O278 O 0.57689 0.01457 0.75397 0.0
O279 O 0.6028 0.99236 0.76412 0.0
O280 O 0.77873 0.67032 0.0459 0.0
Cd281 Cd 0.77341 0.64357 0.01577 0.0
Cd282 Cd 0.75612 0.68158 0.99598 0.0
O283 O 0.76452 0.70019 0.03059 0.0
O284 O 0.78988 0.61741 0.02577 0.0
O285 O 0.80079 0.63942 0.99558 0.0
C286 C 0.80393 0.62221 0.00878 0.0
C287 C 0.7664 0.70337 0.96245 0.0
C288 C 0.77344 0.6918 0.04842 0.0
C289 C 0.72123 0.63062 0.99719 0.0
O290 O 0.72475 0.65315 0.99165 0.0
O291 O 0.73846 0.62277 0.00636 0.0
O292 O 0.74893 0.70678 0.97493 0.0
O293 O 0.77871 0.68797 0.96934 0.0
O294 O 0.90272 0.55689 0.73933 0.0
Cd295 Cd 0.88444 0.55204 0.77009 0.0
Cd296 Cd 0.92835 0.54979 0.78772 0.0
O297 O 0.93938 0.56332 0.75656 0.0
O298 O 0.85231 0.5569 0.76007 0.0
O299 O 0.87648 0.58153 0.78966 0.0
C300 C 0.85619 0.57582 0.77673 0.0
C301 C 0.94866 0.56945 0.82396 0.0
C302 C 0.92539 0.56268 0.73811 0.0
C303 C 0.88988 0.50288 0.78586 0.0
O304 O 0.91251 0.51146 0.78646 0.0
O305 O 0.87574 0.51691 0.78174 0.0
O306 O 0.95834 0.55613 0.80889 0.0
O307 O 0.92738 0.57221 0.81817 0.0
O308 O 0.74629 0.41019 0.55017 0.0
Cd309 Cd 0.74873 0.43348 0.52345 0.0
Cd310 Cd 0.75181 0.38946 0.49449 0.0
O311 O 0.74546 0.37502 0.5265 0.0
O312 O 0.73859 0.46379 0.53757 0.0
O313 O 0.71962 0.43857 0.50531 0.0
C314 C 0.72145 0.45848 0.52065 0.0
C315 C 0.73563 0.36099 0.46055 0.0
C316 C 0.74467 0.38645 0.54722 0.0
C317 C 0.79385 0.43561 0.49874 0.0
O318 O 0.78517 0.41249 0.49043 0.0
O319 O 0.78193 0.44751 0.51209 0.0
O320 O 0.753 0.35778 0.47435 0.0
O321 O 0.72702 0.38051 0.46607 0.0
O322 O 0.63901 0.50482 0.24155 0.0
Cd323 Cd 0.66579 0.50741 0.26826 0.0
Cd324 Cd 0.63343 0.52807 0.29582 0.0
O325 O 0.61526 0.52403 0.2622 0.0
O326 O 0.68743 0.48851 0.25169 0.0
O327 O 0.67088 0.47766 0.28495 0.0
C328 C 0.68452 0.47349 0.26813 0.0
C329 C 0.60975 0.52051 0.32851 0.0
C330 C 0.62055 0.51391 0.24237 0.0
C331 C 0.68309 0.56118 0.29225 0.0
O332 O 0.66347 0.5581 0.30239 0.0
O333 O 0.68726 0.54343 0.27781 0.0
O334 O 0.61104 0.54028 0.3175 0.0
O335 O 0.62177 0.50444 0.32082 0.0
Dy336 Dy 0.98254 0.01671 0.00169 0.0
C337 C 0.08528 0.02939 0.00474 0.0
C338 C 0.93518 0.01717 0.99774 0.0
Dy339 Dy 0.0402 0.03199 0.01466 0.0
O340 O 0.95014 0.02307 0.98145 0.0
O341 O 0.94596 0.01027 0.01597 0.0
O342 O 0.9888 0.99212 0.96852 0.0
O343 O 0.01492 0.0246 0.98305 0.0
C344 C 0.01061 0.00569 0.96727 0.0
C345 C 0.01561 0.03958 0.05337 0.0
O346 O 0.03525 0.06717 0.00059 0.0
O347 O 0.99344 0.0595 0.0026 0.0
O348 O 0.08052 0.04617 0.02093 0.0
O349 O 0.06557 0.01434 0.9944 0.0
O350 O 0.03911 0.04435 0.05475 0.0
O351 O 0.00806 0.03107 0.03201 0.0
O352 O 0.98698 0.98357 0.02045 0.0
O353 O 0.02882 0.99067 0.0194 0.0
C354 C 0.01474 0.07449 -0.00074 0.0
C355 C 0.00749 0.9765 0.02347 0.0
Dy356 Dy 0.25685 0.77833 0.23559 0.0
C357 C 0.26827 0.76529 0.3355 0.0
C358 C 0.25124 0.79207 0.19077 0.0
Dy359 Dy 0.25769 0.77709 0.29099 0.0
O360 O 0.27154 0.7967 0.20374 0.0
O361 O 0.23414 0.77915 0.20193 0.0
O362 O 0.28366 0.75406 0.23341 0.0
O363 O 0.28392 0.7796 0.26429 0.0
C364 C 0.29286 0.76208 0.25538 0.0
C365 C 0.22145 0.79338 0.27145 0.0
O366 O 0.28196 0.81516 0.29 0.0
O367 O 0.26834 0.81948 0.2512 0.0
O368 O 0.25307 0.77876 0.33065 0.0
O369 O 0.27756 0.75827 0.31609 0.0
O370 O 0.23 0.80056 0.29373 0.0
O371 O 0.23079 0.77631 0.26236 0.0
O372 O 0.23361 0.73945 0.23552 0.0
O373 O 0.24112 0.73626 0.27635 0.0
C374 C 0.28057 0.82903 0.2722 0.0
C375 C 0.23192 0.72628 0.25422 0.0
Dy376 Dy 0.53981 0.0272 0.5173 0.0
C377 C 0.43881 0.03067 0.50497 0.0
C378 C 0.58411 0.01738 0.52481 0.0
Dy379 Dy 0.48356 0.02191 0.51188 0.0
O380 O 0.5721 0.0149 0.50405 0.0
O381 O 0.57221 0.026 0.54157 0.0
O382 O 0.54675 0.05882 0.49394 0.0
O383 O 0.51365 0.03175 0.48968 0.0
C384 C 0.52478 0.05296 0.48413 0.0
C385 C 0.49882 0.99583 0.5445 0.0
O386 O 0.48566 0.98857 0.48596 0.0
O387 O 0.52381 0.98685 0.50125 0.0
O388 O 0.44827 0.02619 0.52513 0.0
O389 O 0.45356 0.02964 0.48825 0.0
O390 O 0.47705 0.98924 0.5342 0.0
O391 O 0.50974 0.01726 0.53926 0.0
O392 O 0.53815 0.0611 0.54253 0.0
O393 O 0.49864 0.06156 0.53034 0.0
C394 C 0.50342 0.97683 0.48768 0.0
C395 C 0.51973 0.072 0.54258 0.0
Dy396 Dy 0.24124 0.27576 0.76182 0.0
C397 C 0.34415 0.29836 0.7613 0.0
C398 C 0.19314 0.26813 0.76746 0.0
Dy399 Dy 0.29627 0.28341 0.76824 0.0
O400 O 0.2086 0.28996 0.7702 0.0
O401 O 0.20386 0.25017 0.76126 0.0
O402 O 0.24653 0.30785 0.7391 0.0
O403 O 0.27209 0.30845 0.76763 0.0
C404 C 0.26726 0.31958 0.75008 0.0
C405 C 0.27129 0.2388 0.77946 0.0
O406 O 0.28971 0.30317 0.80347 0.0
O407 O 0.24996 0.28037 0.80194 0.0
O408 O 0.33503 0.28273 0.77629 0.0
O409 O 0.32716 0.30629 0.75063 0.0
O410 O 0.2928 0.24993 0.78905 0.0
O411 O 0.26558 0.25051 0.76264 0.0
O412 O 0.24579 0.25857 0.72486 0.0
O413 O 0.28773 0.27083 0.72848 0.0
C414 C 0.26959 0.29517 0.81405 0.0
C415 C 0.26692 0.26091 0.71554 0.0
Dy416 Dy 0.00086 0.00668 0.4807 0.0
C417 C 0.04766 0.04196 0.57835 0.0
C418 C 0.96958 0.99596 0.44072 0.0
Dy419 Dy 0.02261 0.03268 0.53424 0.0
O420 O 0.9871 0.98491 0.44439 0.0
O421 O 0.96853 0.01177 0.45945 0.0
O422 O 0.03649 0.01147 0.46374 0.0
O423 O 0.03507 0.0229 0.49983 0.0
C424 C 0.04925 0.02224 0.48357 0.0
C425 C 0.97481 0.02381 0.52423 0.0
O426 O 0.02964 0.06714 0.51497 0.0
O427 O 0.00312 0.04846 0.48131 0.0
O428 O 0.02483 0.04058 0.57461 0.0
O429 O 0.05701 0.03933 0.55789 0.0
O430 O 0.98696 0.04249 0.53977 0.0
O431 O 0.98856 0.01042 0.51658 0.0
O432 O 0.99855 0.97136 0.49855 0.0
O433 O 0.01993 0.99096 0.53519 0.0
C434 C 0.01767 0.06851 0.49439 0.0
C435 C 0.00878 0.97045 0.52025 0.0
Dy436 Dy 0.28716 0.78701 0.77891 0.0
C437 C 0.19713 0.75032 0.72355 0.0
C438 C 0.32853 0.79884 0.80861 0.0
Dy439 Dy 0.23813 0.76225 0.75384 0.0
O440 O 0.32543 0.80873 0.78892 0.0
O441 O 0.3086 0.78328 0.81264 0.0
O442 O 0.30102 0.79774 0.74364 0.0
O443 O 0.27471 0.76435 0.74434 0.0
C444 C 0.28682 0.77834 0.7307 0.0
C445 C 0.23878 0.77045 0.80205 0.0
O446 O 0.25276 0.72757 0.7529 0.0
O447 O 0.28348 0.74529 0.78255 0.0
O448 O 0.19915 0.74254 0.74452 0.0
O449 O 0.21781 0.76387 0.71875 0.0
O450 O 0.22459 0.75105 0.78909 0.0
O451 O 0.25057 0.7848 0.78849 0.0
O452 O 0.27216 0.82147 0.78025 0.0
O453 O 0.2424 0.8039 0.74963 0.0
C454 C 0.27019 0.72526 0.76843 0.0
C455 C 0.25541 0.82386 0.764 0.0
Dy456 Dy 0.51134 0.02497 0.03545 0.0
C457 C 0.52499 0.01273 0.93356 0.0
C458 C 0.49866 0.03749 0.08029 0.0
Dy459 Dy 0.51352 0.02219 0.97962 0.0
O460 O 0.51623 0.02679 0.07576 0.0
O461 O 0.48797 0.04102 0.0604 0.0
O462 O 0.53147 0.99418 0.03718 0.0
O463 O 0.50992 0.99552 0.0061 0.0
C464 C 0.52521 0.98505 0.01475 0.0
C465 C 0.49986 0.06226 0.00092 0.0
O466 O 0.47721 0.99633 0.98081 0.0
O467 O 0.47301 0.00628 0.02167 0.0
O468 O 0.50968 0.0258 0.9401 0.0
O469 O 0.53404 0.00483 0.95217 0.0
O470 O 0.49314 0.05293 0.97868 0.0
O471 O 0.51528 0.05174 0.00915 0.0
O472 O 0.5475 0.05079 0.03341 0.0
O473 O 0.55232 0.03702 0.99362 0.0
C474 C 0.46414 0.9954 -0.0003 0.0
C475 C 0.56112 0.04907 0.01519 0.0
Dy476 Dy 0.27295 0.31023 0.27231 0.0
C477 C 0.26118 0.20347 0.26594 0.0
C478 C 0.27192 0.36003 0.27294 0.0
Dy479 Dy 0.25934 0.25192 0.26032 0.0
O480 O 0.27189 0.34815 0.29185 0.0
O481 O 0.27341 0.3449 0.25396 0.0
O482 O 0.29368 0.30596 0.30648 0.0
O483 O 0.26258 0.27836 0.29256 0.0
C484 C 0.27966 0.28387 0.30873 0.0
C485 C 0.25132 0.2771 0.22352 0.0
O486 O 0.22417 0.25618 0.27284 0.0
O487 O 0.23228 0.29989 0.27167 0.0
O488 O 0.25528 0.21094 0.24562 0.0
O489 O 0.26539 0.2223 0.28297 0.0
O490 O 0.23875 0.25423 0.22565 0.0
O491 O 0.2686 0.28374 0.23962 0.0
O492 O 0.30791 0.30643 0.2585 0.0
O493 O 0.29961 0.26242 0.25762 0.0
C494 C 0.21731 0.27783 0.27428 0.0
C495 C 0.31453 0.28466 0.25545 0.0
Dy496 Dy 0.50421 0.51388 0.99002 0.0
C497 C 0.54485 0.54359 0.08637 0.0
C498 C 0.48074 0.50621 0.94513 0.0
Dy499 Dy 0.51964 0.53511 0.04244 0.0
O500 O 0.50179 0.50207 0.95003 0.0
O501 O 0.47211 0.51336 0.96492 0.0
O502 O 0.54175 0.50967 0.98456 0.0
O503 O 0.53647 0.53935 0.00876 0.0
C504 C 0.55205 0.52856 0.00066 0.0
C505 C 0.47195 0.52139 0.03168 0.0
O506 O 0.52322 0.57231 0.02807 0.0
O507 O 0.50115 0.55468 0.99192 0.0
O508 O 0.52322 0.54669 0.08255 0.0
O509 O 0.55291 0.53689 0.0661 0.0
O510 O 0.4824 0.5399 0.04815 0.0
O511 O 0.48724 0.51014 0.02361 0.0
O512 O 0.50026 0.47641 0.00456 0.0
O513 O 0.52151 0.4942 0.04113 0.0
C514 C 0.51171 0.5747 0.00763 0.0
C515 C 0.51097 0.47413 0.02554 0.0
Dy516 Dy 0.78853 0.28603 0.2777 0.0
C517 C 0.69733 0.24992 0.22357 0.0
C518 C 0.82982 0.29838 0.30748 0.0
Dy519 Dy 0.7386 0.26113 0.25345 0.0
O520 O 0.82779 0.30486 0.28596 0.0
O521 O 0.80901 0.28585 0.31309 0.0
O522 O 0.80132 0.29708 0.24213 0.0
O523 O 0.77499 0.2637 0.24336 0.0
C524 C 0.78661 0.27778 0.22947 0.0
C525 C 0.7407 0.26967 0.30173 0.0
O526 O 0.75321 0.22641 0.25194 0.0
O527 O 0.78543 0.24407 0.28016 0.0
O528 O 0.69917 0.2428 0.24485 0.0
O529 O 0.71827 0.26233 0.21824 0.0
O530 O 0.72606 0.25026 0.28919 0.0
O531 O 0.75208 0.28375 0.28772 0.0
O532 O 0.77396 0.32074 0.27877 0.0
O533 O 0.74283 0.30282 0.24948 0.0
C534 C 0.77152 0.22409 0.26637 0.0
C535 C 0.75651 0.3229 0.26321 0.0
Dy536 Dy 0.01391 0.5289 0.53906 0.0
C537 C 0.03178 0.51246 0.43864 0.0
C538 C 0.99686 0.53767 0.58278 0.0
Dy539 Dy 0.02079 0.52549 0.4841 0.0
O540 O 0.98543 0.52145 0.56503 0.0
O541 O 0.01807 0.54875 0.57699 0.0
O542 O 0.03033 0.4956 0.54265 0.0
O543 O 0.01196 0.4985 0.51011 0.0
C544 C 0.02521 0.48657 0.5201 0.0
C545 C 0.00996 0.56829 0.50305 0.0
O546 O 0.98285 0.50358 0.48487 0.0
O547 O 0.97757 0.52601 0.52065 0.0
O548 O 0.01494 0.52383 0.44407 0.0
O549 O 0.04293 0.50843 0.45808 0.0
O550 O 0.00538 0.55972 0.48038 0.0
O551 O 0.02249 0.55561 0.51293 0.0
O552 O 0.0522 0.55054 0.54028 0.0
O553 O 0.05888 0.53725 0.5008 0.0
C554 C 0.96869 0.51139 0.50032 0.0
C555 C 0.06675 0.54823 0.52298 0.0
Dy556 Dy 0.73534 0.77412 0.26394 0.0
C557 C 0.84152 0.79576 0.26921 0.0
C558 C 0.68828 0.75205 0.26827 0.0
Dy559 Dy 0.79299 0.78529 0.27282 0.0
O560 O 0.696 0.76664 0.25192 0.0
O561 O 0.70634 0.74907 0.28171 0.0
O562 O 0.73394 0.81334 0.25405 0.0
O563 O 0.76598 0.80473 0.26392 0.0
C564 C 0.75722 0.82191 0.25678 0.0
C565 C 0.76665 0.74171 0.28513 0.0
O566 O 0.7847 0.80654 0.30646 0.0
O567 O 0.74362 0.7864 0.3038 0.0
O568 O 0.82829 0.77432 0.27396 0.0
O569 O 0.82832 0.81193 0.26702 0.0
O570 O 0.78673 0.7543 0.29697 0.0
O571 O 0.76247 0.75227 0.26697 0.0
O572 O 0.74391 0.7582 0.22791 0.0
O573 O 0.78588 0.77382 0.23271 0.0
C574 C 0.76356 0.80082 0.31591 0.0
C575 C 0.76554 0.76251 0.21934 0.0
Dy576 Dy 0.77243 0.27626 0.72896 0.0
C577 C 0.77359 0.25838 0.82819 0.0
C578 C 0.77054 0.29156 0.68437 0.0
Dy579 Dy 0.76788 0.27222 0.78351 0.0
O580 O 0.78741 0.30125 0.70133 0.0
O581 O 0.75499 0.27294 0.69147 0.0
O582 O 0.80033 0.2529 0.72835 0.0
O583 O 0.7966 0.2758 0.75961 0.0
C584 C 0.80671 0.25913 0.75123 0.0
C585 C 0.73357 0.2902 0.76218 0.0
O586 O 0.79419 0.30961 0.78476 0.0
O587 O 0.78214 0.31672 0.74645 0.0
O588 O 0.76447 0.27717 0.82337 0.0
O589 O 0.77932 0.24707 0.80864 0.0
O590 O 0.73954 0.29469 0.78521 0.0
O591 O 0.74356 0.27367 0.75295 0.0
O592 O 0.74752 0.23783 0.72637 0.0
O593 O 0.75211 0.23203 0.76686 0.0
C594 C 0.79379 0.32488 0.76794 0.0
C595 C 0.74427 0.22344 0.74413 0.0
Dy596 Dy 0.77477 0.81259 0.77439 0.0
C597 C 0.7651 0.70572 0.77553 0.0
C598 C 0.77229 0.86191 0.77517 0.0
Dy599 Dy 0.76181 0.75147 0.76305 0.0
O600 O 0.76653 0.84793 0.79237 0.0
O601 O 0.78043 0.84918 0.75796 0.0
O602 O 0.79582 0.80893 0.80877 0.0
O603 O 0.76616 0.7801 0.79401 0.0
C604 C 0.78297 0.78608 0.81043 0.0
C605 C 0.75757 0.77398 0.72291 0.0
O606 O 0.72652 0.75651 0.77466 0.0
O607 O 0.7342 0.80059 0.77354 0.0
O608 O 0.75054 0.70864 0.7579 0.0
O609 O 0.77753 0.72758 0.78593 0.0
O610 O 0.75345 0.74931 0.72251 0.0
O611 O 0.76356 0.78375 0.74431 0.0
O612 O 0.808 0.80742 0.75736 0.0
O613 O 0.80152 0.76361 0.75898 0.0
C614 C 0.71962 0.77822 0.77623 0.0
C615 C 0.81515 0.78587 0.75487 0.0
Dy616 Dy 0.48283 0.51569 0.50613 0.0
C617 C 0.58545 0.53998 0.51739 0.0
C618 C 0.43435 0.51116 0.50149 0.0
Dy619 Dy 0.53747 0.53598 0.51966 0.0
O620 O 0.4486 0.51498 0.48429 0.0
O621 O 0.44654 0.50893 0.52098 0.0
O622 O 0.49128 0.49185 0.47365 0.0
O623 O 0.5143 0.52712 0.48676 0.0
C624 C 0.5117 0.50782 0.47161 0.0
C625 C 0.5099 0.54628 0.55429 0.0
O626 O 0.53063 0.57 0.50471 0.0
O627 O 0.48902 0.5582 0.50606 0.0
O628 O 0.57523 0.54427 0.53708 0.0
O629 O 0.56953 0.53412 0.49914 0.0
O630 O 0.53121 0.56056 0.5521 0.0
O631 O 0.50584 0.52618 0.53965 0.0
O632 O 0.489 0.48173 0.52215 0.0
O633 O 0.53084 0.49418 0.52345 0.0
C634 C 0.50916 0.57509 0.5029 0.0
C635 C 0.51055 0.47718 0.52584 0.0
Dy636 Dy 0.04116 0.53123 0.01472 0.0
C637 C 0.94217 0.53963 0.00189 0.0
C638 C 0.08496 0.5197 0.02042 0.0
Dy639 Dy 0.98531 0.52794 0.01124 0.0
O640 O 0.07229 0.51748 9e-05 0.0
O641 O 0.07403 0.52896 0.03763 0.0
O642 O 0.04574 0.55838 0.98659 0.0
O643 O 0.01346 0.53042 0.98662 0.0
C644 C 0.02372 0.5496 0.97716 0.0
C645 C 0.00248 0.51013 0.04937 0.0
O646 O 0.98649 0.49295 0.98722 0.0
O647 O 0.0226 0.48965 0.00597 0.0
O648 O 0.94519 0.52132 0.01396 0.0
O649 O 0.96256 0.55112 0.99469 0.0
O650 O 0.98027 0.50183 0.04044 0.0
O651 O 0.01283 0.52871 0.03921 0.0
O652 O 0.04212 0.56824 0.03672 0.0
O653 O 0.00212 0.56857 0.02639 0.0
C654 C 0.00255 0.47971 0.99184 0.0
C655 C 0.02407 0.57973 0.03646 0.0
H656 H 0.97844 0.20732 0.94931 0.0
H657 H 0.05087 0.10423 0.9778 0.0
H658 H 0.02919 0.18443 0.90281 0.0
H659 H 0.9796 0.10113 0.00084 0.0
H660 H 0.04902 0.1417 0.95819 0.0
H661 H 0.98445 0.17577 0.97572 0.0
C662 C 0.99102 0.19585 0.9448 0.0
C663 C 0.00321 0.1983 0.92376 0.0
C664 C 0.03393 0.13296 0.96779 0.0
C665 C 0.01034 0.16267 0.95395 0.0
C666 C 0.03499 0.11167 0.97915 0.0
C667 C 0.01523 0.09935 0.9908 0.0
C668 C 0.01311 0.1422 0.96833 0.0
C669 C 0.99514 0.10988 0.99185 0.0
C670 C 0.99435 0.17786 0.95981 0.0
C671 C 0.01925 0.18295 0.91872 0.0
N672 N 0.99453 0.13069 0.98063 0.0
N673 N 0.02239 0.16579 0.93375 0.0
H674 H 0.12174 0.81946 0.16326 0.0
H675 H 0.19809 0.8297 0.28809 0.0
H676 H 0.08728 0.82268 0.22981 0.0
H677 H 0.19962 0.77516 0.22708 0.0
H678 H 0.16486 0.84209 0.26632 0.0
H679 H 0.15948 0.8202 0.18622 0.0
C680 C 0.12228 0.82112 0.18273 0.0
C681 C 0.1013 0.82062 0.19467 0.0
C682 C 0.17296 0.8278 0.25768 0.0
C683 C 0.14428 0.82167 0.22083 0.0
C684 C 0.19174 0.82068 0.27002 0.0
C685 C 0.20193 0.80178 0.25905 0.0
C686 C 0.16497 0.81633 0.23415 0.0
C687 C 0.19296 0.79048 0.23576 0.0
C688 C 0.14374 0.82139 0.19575 0.0
C689 C 0.10302 0.82269 0.21994 0.0
N690 N 0.17512 0.79805 0.224 0.0
N691 N 0.12415 0.82289 0.23226 0.0
H692 H 0.52291 0.82783 0.44054 0.0
H693 H 0.47255 0.95336 0.44818 0.0
H694 H 0.48054 0.8457 0.38173 0.0
H695 H 0.52869 0.94212 0.49723 0.0
H696 H 0.47119 0.91182 0.42563 0.0
H697 H 0.52137 0.86781 0.46359 0.0
C698 C 0.51328 0.84015 0.43245 0.0
C699 C 0.50195 0.83342 0.4091 0.0
C700 C 0.48374 0.91851 0.44138 0.0
C701 C 0.49998 0.87926 0.43551 0.0
C702 C 0.48443 0.94212 0.45429 0.0
C703 C 0.50087 0.9513 0.47449 0.0
C704 C 0.49939 0.90398 0.44895 0.0
C705 C 0.5159 0.93597 0.48161 0.0
C706 C 0.51242 0.86301 0.44563 0.0
C707 C 0.48968 0.85019 0.39961 0.0
N708 N 0.51479 0.91314 0.46888 0.0
N709 N 0.48898 0.87233 0.41287 0.0
H710 H 0.48213 0.2726 0.73002 0.0
H711 H 0.36423 0.32704 0.72705 0.0
H712 H 0.46731 0.32157 0.6784 0.0
H713 H 0.38037 0.27877 0.77869 0.0
H714 H 0.4036 0.32879 0.71134 0.0
H715 H 0.44663 0.2778 0.7501 0.0
C716 C 0.47145 0.28455 0.72294 0.0
C717 C 0.47763 0.2965 0.70235 0.0
C718 C 0.39866 0.31805 0.72628 0.0
C719 C 0.43674 0.30252 0.72533 0.0
C720 C 0.37624 0.31712 0.73531 0.0
C721 C 0.36904 0.30262 0.7541 0.0
C722 C 0.41392 0.30428 0.73607 0.0
C723 C 0.38522 0.29012 0.76413 0.0
C724 C 0.45116 0.28755 0.73447 0.0
C725 C 0.46317 0.3119 0.69415 0.0
N726 N 0.40681 0.29105 0.75486 0.0
N727 N 0.44329 0.31433 0.70556 0.0
H728 H 0.0147 0.81792 0.5438 0.0
H729 H 0.00934 0.96173 0.56707 0.0
H730 H 0.98896 0.84895 0.60847 0.0
H731 H 0.00218 0.9229 0.49491 0.0
H732 H 0.00574 0.92127 0.58303 0.0
H733 H 0.01372 0.85679 0.52587 0.0
C734 C 0.00878 0.83289 0.5542 0.0
C735 C 0.00204 0.83032 0.57772 0.0
C736 C 0.00484 0.92155 0.56371 0.0
C737 C 0.00111 0.87476 0.5574 0.0
C738 C 0.00708 0.94466 0.55454 0.0
C739 C 0.00624 0.94569 0.52958 0.0
C740 C 0.00215 0.89926 0.54787 0.0
C741 C 0.00295 0.92291 0.51425 0.0
C742 C 0.00811 0.85496 0.5439 0.0
C743 C 0.99433 0.85018 0.59031 0.0
N744 N 0.00129 0.90057 0.52366 0.0
N745 N 0.99435 0.87172 0.58008 0.0
H746 H 0.44945 0.759 0.88118 0.0
H747 H 0.37175 0.82835 0.79984 0.0
H748 H 0.47869 0.81037 0.83055 0.0
H749 H 0.33943 0.771 0.84371 0.0
H750 H 0.4115 0.82462 0.81429 0.0
H751 H 0.40917 0.76441 0.86985 0.0
C752 C 0.44739 0.77119 0.86754 0.0
C753 C 0.46748 0.7842 0.85677 0.0
C754 C 0.39576 0.81297 0.82096 0.0
C755 C 0.42165 0.79083 0.84408 0.0
C756 C 0.37306 0.81527 0.81285 0.0
C757 C 0.35233 0.79994 0.82057 0.0
C758 C 0.39777 0.79511 0.83685 0.0
C759 C 0.35503 0.78321 0.83737 0.0
C760 C 0.42444 0.7744 0.8612 0.0
C761 C 0.46377 0.79991 0.83934 0.0
N762 N 0.37737 0.78108 0.84483 0.0
N763 N 0.44138 0.80283 0.83363 0.0
H764 H 0.47174 0.17037 0.11181 0.0
H765 H 0.46981 0.09021 0.98438 0.0
H766 H 0.4736 0.2062 0.0465 0.0
H767 H 0.51321 0.08295 0.0473 0.0
H768 H 0.45838 0.12624 0.00706 0.0
H769 H 0.4725 0.13038 0.08799 0.0
C770 C 0.4716 0.16968 0.09241 0.0
C771 C 0.47293 0.19172 0.08112 0.0
C772 C 0.47012 0.1164 0.01586 0.0
C773 C 0.47371 0.14611 0.05396 0.0
C774 C 0.47666 0.09598 0.00301 0.0
C775 C 0.49225 0.08348 0.01413 0.0
C776 C 0.4788 0.12378 0.04004 0.0
C777 C 0.50078 0.09174 0.03821 0.0
C778 C 0.47222 0.14692 0.07891 0.0
C779 C 0.47283 0.18969 0.05591 0.0
N780 N 0.49381 0.11127 0.05043 0.0
N781 N 0.47343 0.16727 0.04312 0.0
H782 H 0.07141 0.23453 0.31577 0.0
H783 H 0.20078 0.31851 0.29284 0.0
H784 H 0.10391 0.30706 0.35699 0.0
H785 H 0.17839 0.23728 0.2732 0.0
H786 H 0.16206 0.31738 0.3097 0.0
H787 H 0.10735 0.23825 0.29354 0.0
C788 C 0.08601 0.25137 0.32002 0.0
C789 C 0.08471 0.27046 0.3384 0.0
C790 C 0.16559 0.29987 0.30151 0.0
C791 C 0.12588 0.27482 0.31288 0.0
C792 C 0.18761 0.30048 0.29172 0.0
C793 C 0.19291 0.2779 0.2817 0.0
C794 C 0.14862 0.27657 0.30098 0.0
C795 C 0.17516 0.25512 0.28089 0.0
C796 C 0.10655 0.25341 0.30735 0.0
C797 C 0.10422 0.29183 0.34307 0.0
N798 N 0.15384 0.25503 0.29045 0.0
N799 N 0.12404 0.29343 0.3304 0.0
H800 H 0.96104 0.05331 0.19359 0.0
H801 H 0.96845 0.04175 0.05075 0.0
H802 H 0.90077 0.05182 0.14349 0.0
H803 H 0.02915 0.04774 0.10148 0.0
H804 H 0.94362 0.04711 0.08429 0.0
H805 H 0.98665 0.05374 0.16017 0.0
C806 C 0.95321 0.05335 0.17558 0.0
C807 C 0.92861 0.05238 0.17139 0.0
C808 C 0.96237 0.04727 0.08813 0.0
C809 C 0.95795 0.05256 0.13283 0.0
C810 C 0.97644 0.04393 0.06897 0.0
C811 C 0.00067 0.04373 0.07339 0.0
C812 C 0.97265 0.05044 0.11192 0.0
C813 C 0.01045 0.04758 0.09732 0.0
C814 C 0.96788 0.05354 0.15646 0.0
C815 C 0.91959 0.05256 0.14761 0.0
N816 N 0.99638 0.0506 0.11569 0.0
N817 N 0.9342 0.05238 0.12922 0.0
H818 H 0.26576 0.74031 0.48433 0.0
H819 H 0.29749 0.7348 0.34703 0.0
H820 H 0.3033 0.68705 0.45174 0.0
H821 H 0.25086 0.77911 0.3778 0.0
H822 H 0.30419 0.72083 0.3864 0.0
H823 H 0.26474 0.75858 0.44661 0.0
C824 C 0.27393 0.73253 0.46925 0.0
C825 C 0.28445 0.71196 0.47109 0.0
C826 C 0.29258 0.73369 0.38456 0.0
C827 C 0.28325 0.73279 0.42777 0.0
C828 C 0.28878 0.74168 0.36215 0.0
C829 C 0.27348 0.75795 0.35928 0.0
C830 C 0.28103 0.74215 0.40414 0.0
C831 C 0.26269 0.76643 0.37932 0.0
C832 C 0.2733 0.74297 0.4477 0.0
C833 C 0.29489 0.7028 0.45103 0.0
N834 N 0.26661 0.75835 0.40094 0.0
N835 N 0.2939 0.71321 0.43009 0.0
H836 H 0.60056 0.95838 0.64035 0.0
H837 H 0.47632 0.97397 0.58134 0.0
H838 H 0.53996 0.96655 0.68041 0.0
H839 H 0.54272 0.98538 0.54691 0.0
H840 H 0.49526 0.95708 0.61425 0.0
H841 H 0.57517 0.95354 0.60295 0.0
C842 C 0.58176 0.95848 0.64133 0.0
C843 C 0.57252 0.9636 0.6635 0.0
C844 C 0.50559 0.96299 0.59931 0.0
C845 C 0.54353 0.9583 0.62085 0.0
C846 C 0.49481 0.97256 0.58061 0.0
C847 C 0.50846 0.98195 0.56209 0.0
C848 C 0.53002 0.96263 0.59913 0.0
C849 C 0.53214 0.97948 0.56159 0.0
C850 C 0.56731 0.95584 0.61996 0.0
C851 C 0.54797 0.96326 0.66367 0.0
N852 N 0.54233 0.97031 0.58002 0.0
N853 N 0.53441 0.96117 0.64263 0.0
H854 H 0.25569 0.30508 0.96776 0.0
H855 H 0.29082 0.34128 0.83975 0.0
H856 H 0.25354 0.37892 0.94802 0.0
H857 H 0.24481 0.26787 0.84665 0.0
H858 H 0.28537 0.35531 0.88188 0.0
H859 H 0.25877 0.29049 0.92529 0.0
C860 C 0.25558 0.3181 0.95443 0.0
C861 C 0.2541 0.34314 0.9613 0.0
C862 C 0.27657 0.33613 0.87409 0.0
C863 C 0.25862 0.32694 0.91311 0.0
C864 C 0.27985 0.32806 0.85023 0.0
C865 C 0.26826 0.3034 0.83981 0.0
C866 C 0.26219 0.31916 0.88772 0.0
C867 C 0.25399 0.28707 0.85405 0.0
C868 C 0.25739 0.3098 0.9303 0.0
C869 C 0.25429 0.35936 0.94338 0.0
N870 N 0.25154 0.29514 0.87737 0.0
N871 N 0.25691 0.35111 0.92012 0.0
H872 H 0.94794 0.99834 0.28815 0.0
H873 H 0.936 0.02197 0.42983 0.0
H874 H 0.90459 0.04621 0.3195 0.0
H875 H 0.97676 0.97199 0.3974 0.0
H876 H 0.9225 0.02944 0.38966 0.0
H877 H 0.9581 0.98815 0.3281 0.0
C878 C 0.94071 0.00692 0.30348 0.0
C879 C 0.92542 0.02324 0.30045 0.0
C880 C 0.93416 0.01661 0.3913 0.0
C881 C 0.9368 0.01132 0.34639 0.0
C882 C 0.94172 0.01217 0.41422 0.0
C883 C 0.95755 0.99637 0.4169 0.0
C884 C 0.94262 0.00526 0.37093 0.0
C885 C 0.96452 0.98428 0.39611 0.0
C886 C 0.94641 0.00093 0.32631 0.0
C887 C 0.91654 0.03366 0.32101 0.0
N888 N 0.95719 0.98916 0.37401 0.0
N889 N 0.92233 0.02749 0.34312 0.0
H890 H 0.31572 0.74302 0.5843 0.0
H891 H 0.27657 0.7286 0.71277 0.0
H892 H 0.31844 0.67666 0.61926 0.0
H893 H 0.3127 0.80319 0.69668 0.0
H894 H 0.29019 0.70986 0.67662 0.0
H895 H 0.31563 0.76688 0.62376 0.0
C896 C 0.31697 0.73365 0.60029 0.0
C897 C 0.31639 0.7076 0.59848 0.0
C898 C 0.29531 0.73033 0.68102 0.0
C899 C 0.31586 0.73462 0.64331 0.0
C900 C 0.28724 0.74111 0.70151 0.0
C901 C 0.29343 0.76753 0.70764 0.0
C902 C 0.3092 0.74604 0.66614 0.0
C903 C 0.30749 0.78273 0.69242 0.0
C904 C 0.31691 0.74731 0.62275 0.0
C905 C 0.3184 0.69655 0.61976 0.0
N906 N 0.31472 0.77175 0.67206 0.0
N907 N 0.3174 0.70996 0.64129 0.0
H908 H 0.5999 0.98088 0.80818 0.0
H909 H 0.50748 0.02851 0.89336 0.0
H910 H 0.54753 0.02061 0.78492 0.0
H911 H 0.55843 0.98778 0.91782 0.0
H912 H 0.52074 0.02359 0.85282 0.0
H913 H 0.58384 0.98099 0.84789 0.0
C914 C 0.58496 0.98948 0.81138 0.0
C915 C 0.57513 0.00088 0.79327 0.0
C916 C 0.52898 0.0156 0.86699 0.0
C917 C 0.55675 0.00113 0.83852 0.0
C918 C 0.5214 0.01841 0.89012 0.0
C919 C 0.53199 0.00864 0.90887 0.0
C920 C 0.54737 0.00301 0.86262 0.0
C921 C 0.5499 0.99566 0.90377 0.0
C922 C 0.57582 0.98955 0.83402 0.0
C923 C 0.55577 0.01172 0.79836 0.0
N924 N 0.55714 0.99332 0.8811 0.0
N925 N 0.54731 0.01166 0.82051 0.0
H926 H 0.23273 0.31525 0.07824 0.0
H927 H 0.2799 0.32206 0.21399 0.0
H928 H 0.2574 0.38687 0.12338 0.0
H929 H 0.21909 0.26213 0.18372 0.0
H930 H 0.27656 0.34418 0.17863 0.0
H931 H 0.23179 0.29314 0.11445 0.0
C932 C 0.23779 0.32632 0.09573 0.0
C933 C 0.24512 0.35296 0.09778 0.0
C934 C 0.26381 0.32629 0.17984 0.0
C935 C 0.24461 0.32781 0.13899 0.0
C936 C 0.26558 0.31376 0.20011 0.0
C937 C 0.24936 0.29055 0.20212 0.0
C938 C 0.24618 0.31517 0.16103 0.0
C939 C 0.23181 0.28013 0.183 0.0
C940 C 0.23719 0.3137 0.11633 0.0
C941 C 0.25149 0.36634 0.12092 0.0
N942 N 0.23079 0.2924 0.16311 0.0
N943 N 0.25142 0.35362 0.14055 0.0
H944 H 0.22168 0.9962 0.0341 0.0
H945 H 0.09684 0.00038 0.96727 0.0
H946 H 0.18378 0.9413 0.97542 0.0
H947 H 0.12744 0.04771 0.03322 0.0
H948 H 0.13362 0.98551 0.96459 0.0
H949 H 0.19205 0.02131 0.02895 0.0
C950 C 0.20726 0.98954 0.01997 0.0
C951 C 0.20495 0.96642 0.00539 0.0
C952 C 0.13249 -0.00059 0.97949 0.0
C953 C 0.17113 0.99511 -0.00062 0.0
C954 C 0.11154 0.00796 0.98099 0.0
C955 C 0.10909 0.02492 0.00072 0.0
C956 C 0.151 0.00771 0.998 0.0
C957 C 0.12867 0.03445 0.01783 0.0
C958 C 0.19038 0.00391 0.01705 0.0
C959 C 0.18606 0.95884 0.98726 0.0
N960 N 0.14876 0.02536 0.0163 0.0
N961 N 0.16976 0.97305 0.9849 0.0
H962 H 0.6792 0.64551 0.99239 0.0
H963 H 0.58944 0.50939 0.98492 0.0
H964 H 0.70662 0.5789 0.99817 0.0
H965 H 0.57293 0.57784 0.01766 0.0
H966 H 0.63137 0.53333 0.98307 0.0
H967 H 0.6384 0.61961 0.99365 0.0
C968 C 0.67665 0.62537 0.9936 0.0
C969 C 0.6964 0.61438 0.99525 0.0
C970 C 0.61852 0.54295 0.99078 0.0
C971 C 0.64966 0.58466 0.99671 0.0
C972 C 0.59469 0.52936 0.99186 0.0
C973 C 0.57776 0.54169 0.00143 0.0
C974 C 0.62513 0.56909 0.9988 0.0
C975 C 0.5854 0.56758 0.01017 0.0
C976 C 0.65336 0.61066 0.99453 0.0
C977 C 0.69191 0.58816 0.99695 0.0
N978 N 0.60844 0.58048 0.00837 0.0
N979 N 0.66896 0.57412 0.99757 0.0
H980 H 0.70098 0.4508 0.22907 0.0
H981 H 0.763 0.36115 0.3005 0.0
H982 H 0.69526 0.44775 0.30525 0.0
H983 H 0.73331 0.33978 0.22685 0.0
H984 H 0.74635 0.39883 0.30206 0.0
H985 H 0.72066 0.41547 0.22762 0.0
C986 C 0.70395 0.44275 0.24552 0.0
C987 C 0.69639 0.45213 0.26731 0.0
C988 C 0.7437 0.38594 0.28554 0.0
C989 C 0.71925 0.41205 0.26578 0.0
C990 C 0.75335 0.36461 0.28454 0.0
C991 C 0.74949 0.34733 0.2635 0.0
C992 C 0.7306 0.39027 0.26519 0.0
C993 C 0.73664 0.3526 0.24344 0.0
C994 C 0.71512 0.42259 0.24464 0.0
C995 C 0.70066 0.44095 0.28806 0.0
N996 N 0.72772 0.37365 0.24474 0.0
N997 N 0.71198 0.42156 0.28683 0.0
H998 H 0.82572 0.41625 0.47216 0.0
H999 H 0.93516 0.53259 0.52108 0.0
H1000 H 0.81818 0.48441 0.51453 0.0
H1001 H 0.94246 0.47117 0.46907 0.0
H1002 H 0.89169 0.51627 0.51647 0.0
H1003 H 0.86785 0.43692 0.46824 0.0
C1004 C 0.83284 0.43562 0.48044 0.0
C1005 C 0.81851 0.44849 0.494 0.0
C1006 C 0.90272 0.50645 0.50586 0.0
C1007 C 0.86659 0.47213 0.48964 0.0
C1008 C 0.92757 0.51571 0.50856 0.0
C1009 C 0.94239 0.50299 0.49566 0.0
C1010 C 0.89261 0.48408 0.49039 0.0
C1011 C 0.93161 0.48145 0.47943 0.0
C1012 C 0.85687 0.44741 0.47815 0.0
C1013 C 0.82861 0.47363 0.50415 0.0
N1014 N 0.90731 0.47243 0.47748 0.0
N1015 N 0.85208 0.48451 0.50197 0.0
H1016 H 0.32474 0.07721 0.23583 0.0
H1017 H 0.27797 0.18859 0.30685 0.0
H1018 H 0.35566 0.11589 0.30552 0.0
H1019 H 0.26188 0.16506 0.23065 0.0
H1020 H 0.29897 0.15472 0.30941 0.0
H1021 H 0.29507 0.10281 0.23641 0.0
C1022 C 0.32523 0.09102 0.25132 0.0
C1023 C 0.34287 0.09465 0.27056 0.0
C1024 C 0.29053 0.15672 0.2922 0.0
C1025 C 0.30881 0.12378 0.27138 0.0
C1026 C 0.2784 0.1759 0.29075 0.0
C1027 C 0.2685 0.17974 0.26842 0.0
C1028 C 0.2927 0.1413 0.2712 0.0
C1029 C 0.26945 0.16277 0.24816 0.0
C1030 C 0.30826 0.10557 0.25163 0.0
C1031 C 0.34254 0.11268 0.2902 0.0
N1032 N 0.28166 0.1444 0.24996 0.0
N1033 N 0.32581 0.12666 0.29007 0.0
H1034 H 0.31297 0.08319 0.53949 0.0
H1035 H 0.42189 0.05219 0.46761 0.0
H1036 H 0.33436 0.11589 0.47472 0.0
H1037 H 0.40544 0.0301 0.5377 0.0
H1038 H 0.38724 0.07153 0.46703 0.0
H1039 H 0.34419 0.05983 0.53637 0.0
C1040 C 0.32422 0.08545 0.52454 0.0
C1041 C 0.3211 0.1017 0.50742 0.0
C1042 C 0.39111 0.06225 0.48242 0.0
C1043 C 0.35709 0.0748 0.50371 0.0
C1044 C 0.41076 0.05108 0.48269 0.0
C1045 C 0.41648 0.03957 0.50275 0.0
C1046 C 0.37711 0.06174 0.50232 0.0
C1047 C 0.40166 0.03882 0.5219 0.0
C1048 C 0.34209 0.07206 0.52277 0.0
C1049 C 0.33621 0.10369 0.48839 0.0
N1050 N 0.38274 0.04982 0.52124 0.0
N1051 N 0.35361 0.09045 0.48708 0.0
H1052 H 0.71449 0.58044 0.26021 0.0
H1053 H 0.76506 0.71915 0.32659 0.0
H1054 H 0.68804 0.60053 0.32847 0.0
H1055 H 0.74084 0.70493 0.25112 0.0
H1056 H 0.74647 0.67427 0.33068 0.0
H1057 H 0.7357 0.6249 0.26001 0.0
C1058 C 0.71359 0.59406 0.27543 0.0
C1059 C 0.69937 0.58682 0.29434 0.0
C1060 C 0.74527 0.68116 0.31332 0.0
C1061 C 0.72363 0.63753 0.29415 0.0
C1062 C 0.75578 0.70659 0.31097 0.0
C1063 C 0.75437 0.71558 0.28851 0.0
C1064 C 0.73408 0.6647 0.29289 0.0
C1065 C 0.7422 0.69871 0.26876 0.0
C1066 C 0.7255 0.61941 0.27516 0.0
C1067 C 0.69871 0.60539 0.31349 0.0
N1068 N 0.73279 0.67395 0.27134 0.0
N1069 N 0.7107 0.63001 0.31294 0.0
H1070 H 0.85248 0.48375 0.81159 0.0
H1071 H 0.81772 0.35226 0.73511 0.0
H1072 H 0.90288 0.46152 0.7644 0.0
H1073 H 0.80473 0.35617 0.81043 0.0
H1074 H 0.84466 0.39487 0.74265 0.0
H1075 H 0.83071 0.43898 0.80969 0.0
C1076 C 0.85915 0.46932 0.80119 0.0
C1077 C 0.87942 0.47608 0.78816 0.0
C1078 C 0.83594 0.38628 0.75749 0.0
C1079 C 0.85435 0.42549 0.78527 0.0
C1080 C 0.8204 0.36221 0.75318 0.0
C1081 C 0.80894 0.35091 0.77219 0.0
C1082 C 0.83946 0.39932 0.78079 0.0
C1083 C 0.81325 0.36437 0.79534 0.0
C1084 C 0.84679 0.44393 0.80014 0.0
C1085 C 0.88739 0.45689 0.77481 0.0
N1086 N 0.82796 0.38816 0.79898 0.0
N1087 N 0.87447 0.43238 0.77325 0.0
H1088 H 0.99698 0.85965 0.11865 0.0
H1089 H 0.03912 0.94714 0.01545 0.0
H1090 H 0.05445 0.85276 0.07356 0.0
H1091 H 0.9763 0.95097 0.05346 0.0
H1092 H 0.04299 0.91062 0.03537 0.0
H1093 H 0.98739 0.89154 0.09435 0.0
C1094 C 0.0075 0.86474 0.10362 0.0
C1095 C 0.02668 0.85367 0.09826 0.0
C1096 C 0.02818 0.9192 0.03928 0.0
C1097 C 0.01579 0.88995 0.07045 0.0
C1098 C 0.02596 0.94009 0.02787 0.0
C1099 C 0.00745 0.9522 0.03294 0.0
C1100 C 0.01199 0.91043 0.05625 0.0
C1101 C 0.9908 0.94211 0.04901 0.0
C1102 C 0.00198 0.88287 0.08974 0.0
C1103 C 0.03963 0.86088 0.07852 0.0
N1104 N 0.99364 0.92195 0.06039 0.0
N1105 N 0.03402 0.87859 0.06547 0.0
H1106 H 0.90652 0.24723 0.86568 0.0
H1107 H 0.83554 0.22766 0.7357 0.0
H1108 H 0.93712 0.22278 0.80122 0.0
H1109 H 0.8216 0.27379 0.79815 0.0
H1110 H 0.86858 0.2176 0.75981 0.0
H1111 H 0.87021 0.24765 0.84154 0.0
C1112 C 0.90556 0.24177 0.84644 0.0
C1113 C 0.92509 0.2354 0.83541 0.0
C1114 C 0.85803 0.22969 0.76817 0.0
C1115 C 0.88345 0.23603 0.80757 0.0
C1116 C 0.83926 0.2354 0.75448 0.0
C1117 C 0.8258 0.25145 0.76503 0.0
C1118 C 0.86298 0.23991 0.7925 0.0
C1119 C 0.83132 0.26111 0.78935 0.0
C1120 C 0.8848 0.24205 0.83265 0.0
C1121 C 0.92257 0.22806 0.81042 0.0
N1122 N 0.84942 0.25517 0.80222 0.0
N1123 N 0.90217 0.22884 0.79724 0.0
H1124 H 0.49947 0.20381 0.63196 0.0
H1125 H 0.56109 0.10952 0.5543 0.0
H1126 H 0.56126 0.23088 0.59259 0.0
H1127 H 0.48467 0.09188 0.56211 0.0
H1128 H 0.56445 0.15234 0.57502 0.0
H1129 H 0.49645 0.16057 0.61257 0.0
C1130 C 0.51234 0.20067 0.61922 0.0
C1131 C 0.53054 0.22097 0.61374 0.0
C1132 C 0.54699 0.13899 0.57222 0.0
C1133 C 0.52751 0.17167 0.59203 0.0
C1134 C 0.5451 0.11457 0.56058 0.0
C1135 C 0.52257 0.09723 0.55642 0.0
C1136 C 0.5263 0.14583 0.58017 0.0
C1137 C 0.50237 0.10477 0.5648 0.0
C1138 C 0.5106 0.17605 0.60818 0.0
C1139 C 0.5468 0.21582 0.59714 0.0
N1140 N 0.50471 0.12848 0.57639 0.0
N1141 N 0.54503 0.19164 0.58702 0.0
H1142 H 0.54614 0.76611 0.2976 0.0
H1143 H 0.67046 0.72378 0.30338 0.0
H1144 H 0.57327 0.7342 0.35751 0.0
H1145 H 0.64929 0.76528 0.24792 0.0
H1146 H 0.63105 0.72003 0.31918 0.0
H1147 H 0.5803 0.75944 0.27554 0.0
C1148 C 0.55917 0.75757 0.30607 0.0
C1149 C 0.55698 0.751 0.32958 0.0
C1150 C 0.63486 0.72967 0.30335 0.0
C1151 C 0.59598 0.74318 0.30436 0.0
C1152 C 0.65731 0.73167 0.29425 0.0
C1153 C 0.66315 0.74511 0.27452 0.0
C1154 C 0.61822 0.74132 0.29271 0.0
C1155 C 0.64547 0.75489 0.26328 0.0
C1156 C 0.57864 0.75374 0.29344 0.0
C1157 C 0.57435 0.73985 0.33956 0.0
N1158 N 0.62386 0.7531 0.27275 0.0
N1159 N 0.59315 0.73643 0.32695 0.0
H1160 H 0.02511 0.18185 0.3971 0.0
H1161 H 0.03796 0.11683 0.51719 0.0
H1162 H 0.03722 0.22468 0.46779 0.0
H1163 H 0.00522 0.0762 0.44875 0.0
H1164 H 0.04315 0.15689 0.49928 0.0
H1165 H 0.02371 0.14309 0.41567 0.0
C1166 C 0.02762 0.18315 0.41653 0.0
C1167 C 0.0311 0.20654 0.4309 0.0
C1168 C 0.03482 0.13913 0.4883 0.0
C1169 C 0.02949 0.16215 0.45232 0.0
C1170 C 0.03188 0.11631 0.49848 0.0
C1171 C 0.02098 0.09313 0.48453 0.0
C1172 C 0.02713 0.13862 0.46397 0.0
C1173 C 0.0135 0.09357 0.46033 0.0
C1174 C 0.02673 0.16098 0.42713 0.0
C1175 C 0.03431 0.20702 0.45602 0.0
N1176 N 0.01677 0.11589 0.45086 0.0
N1177 N 0.03339 0.18512 0.46596 0.0
H1178 H 0.5485 0.24782 0.19055 0.0
H1179 H 0.69045 0.26829 0.18083 0.0
H1180 H 0.5847 0.27791 0.13037 0.0
H1181 H 0.65196 0.23043 0.23604 0.0
H1182 H 0.65215 0.27201 0.1618 0.0
H1183 H 0.58662 0.24252 0.20788 0.0
C1184 C 0.56449 0.25352 0.18104 0.0
C1185 C 0.56332 0.26336 0.15893 0.0
C1186 C 0.65206 0.26269 0.17795 0.0
C1187 C 0.60717 0.25706 0.17867 0.0
C1188 C 0.67388 0.26043 0.18873 0.0
C1189 C 0.67432 0.24903 0.21001 0.0
C1190 C 0.63057 0.25363 0.18867 0.0
C1191 C 0.65241 0.23932 0.21961 0.0
C1192 C 0.58627 0.25033 0.1909 0.0
C1193 C 0.58471 0.27029 0.14746 0.0
N1194 N 0.63145 0.242 0.20897 0.0
N1195 N 0.60574 0.26699 0.15745 0.0
H1196 H 0.54005 0.86826 0.90607 0.0
H1197 H 0.55552 0.95726 0.03129 0.0
H1198 H 0.56297 0.84451 0.97279 0.0
H1199 H 0.51025 0.96313 0.96921 0.0
H1200 H 0.56556 0.92016 0.00913 0.0
H1201 H 0.53728 0.90824 0.92795 0.0
C1202 C 0.54471 0.87151 0.92531 0.0
C1203 C 0.55143 0.85282 0.93766 0.0
C1204 C 0.55359 0.92978 0.0004 0.0
C1205 C 0.54816 0.89865 0.96285 0.0
C1206 C 0.54788 0.95086 0.01298 0.0
C1207 C 0.53218 0.96327 0.00195 0.0
C1208 C 0.54369 0.92145 0.97665 0.0
C1209 C 0.52267 0.95429 0.97827 0.0
C1210 C 0.54305 0.89434 0.9378 0.0
C1211 C 0.55749 0.8583 0.96259 0.0
N1212 N 0.52861 0.93398 0.96641 0.0
N1213 N 0.55554 0.88072 0.97445 0.0
H1214 H 0.93462 0.80122 0.66451 0.0
H1215 H 0.84172 0.7512 0.76032 0.0
H1216 H 0.93749 0.73848 0.70472 0.0
H1217 H 0.84248 0.81999 0.72826 0.0
H1218 H 0.8782 0.74793 0.74126 0.0
H1219 H 0.90219 0.80999 0.68845 0.0
C1220 C 0.92856 0.7894 0.67844 0.0
C1221 C 0.93868 0.76895 0.68247 0.0
C1222 C 0.87059 0.7639 0.7385 0.0
C1223 C 0.90163 0.77884 0.70985 0.0
C1224 C 0.8497 0.76578 0.7494 0.0
C1225 C 0.83892 0.78582 0.74577 0.0
C1226 C 0.88076 0.78201 0.72351 0.0
C1227 C 0.85022 0.80425 0.73158 0.0
C1228 C 0.91008 0.79444 0.69212 0.0
C1229 C 0.93017 0.75433 0.70082 0.0
N1230 N 0.87039 0.80174 0.72071 0.0
N1231 N 0.9121 0.75946 0.71366 0.0
H1232 H 0.08909 0.05201 0.84873 0.0
H1233 H 0.00699 0.96594 0.93127 0.0
H1234 H 0.08947 0.9726 0.84389 0.0
H1235 H 0.04816 0.04207 0.95641 0.0
H1236 H 0.03086 0.96637 0.89572 0.0
H1237 H 0.06684 0.04744 0.88454 0.0
C1238 C 0.08437 0.03353 0.85513 0.0
C1239 C 0.09119 0.01265 0.84334 0.0
C1240 C 0.03469 0.98278 0.90925 0.0
C1241 C 0.06543 0.00728 0.88429 0.0
C1242 C 0.0211 0.98259 0.9294 0.0
C1243 C 0.02555 0.00404 0.9467 0.0
C1244 C 0.05228 0.0048 0.9063 0.0
C1245 C 0.04405 0.02513 0.94351 0.0
C1246 C 0.07178 0.03099 0.87565 0.0
C1247 C 0.08464 0.98918 0.85257 0.0
N1248 N 0.05647 0.0251 0.92359 0.0
N1249 N 0.07188 0.98703 0.87247 0.0
H1250 H 0.75886 0.40572 0.59401 0.0
H1251 H 0.7377 0.27272 0.64587 0.0
H1252 H 0.73093 0.33506 0.54802 0.0
H1253 H 0.79437 0.338 0.67442 0.0
H1254 H 0.72885 0.29574 0.61238 0.0
H1255 H 0.76452 0.3816 0.62737 0.0
C1256 C 0.75354 0.38515 0.59104 0.0
C1257 C 0.74461 0.37233 0.56822 0.0
C1258 C 0.74331 0.30485 0.62594 0.0
C1259 C 0.75114 0.3448 0.60612 0.0
C1260 C 0.74842 0.29175 0.64489 0.0
C1261 C 0.76685 0.30352 0.66271 0.0
C1262 C 0.75641 0.32996 0.62529 0.0
C1263 C 0.78012 0.32824 0.66089 0.0
C1264 C 0.75699 0.37144 0.60999 0.0
C1265 C 0.73808 0.34565 0.56533 0.0
N1266 N 0.77449 0.34078 0.6426 0.0
N1267 N 0.74152 0.33269 0.5841 0.0
H1268 H 0.50035 0.06288 0.33676 0.0
H1269 H 0.48262 0.06624 0.47541 0.0
H1270 H 0.43754 0.07972 0.36727 0.0
H1271 H 0.55008 0.06518 0.44564 0.0
H1272 H 0.46725 0.07664 0.43705 0.0
H1273 H 0.52073 0.06954 0.377 0.0
C1274 C 0.49099 0.06839 0.35197 0.0
C1275 C 0.46713 0.07038 0.3488 0.0
C1276 C 0.48553 0.07448 0.43896 0.0
C1277 C 0.49015 0.07757 0.39498 0.0
C1278 C 0.49409 0.06818 0.46069 0.0
C1279 C 0.51716 0.06394 0.46316 0.0
C1280 C 0.5002 0.07626 0.41958 0.0
C1281 C 0.53201 0.06801 0.4442 0.0
C1282 C 0.50264 0.07224 0.37495 0.0
C1283 C 0.45592 0.07785 0.36902 0.0
N1284 N 0.52311 0.07348 0.42299 0.0
N1285 N 0.46736 0.08067 0.39137 0.0
H1286 H 0.80278 0.68893 0.08769 0.0
H1287 H 0.73075 0.75377 0.18186 0.0
H1288 H 0.74773 0.72554 0.06509 0.0
H1289 H 0.8045 0.75142 0.19842 0.0
H1290 H 0.73434 0.73919 0.13959 0.0
H1291 H 0.80193 0.708 0.12914 0.0
C1292 C 0.79071 0.7012 0.0914 0.0
C1293 C 0.77534 0.70569 0.07289 0.0
C1294 C 0.74974 0.74201 0.1525 0.0
C1295 C 0.77386 0.72699 0.12031 0.0
C1296 C 0.74766 0.75015 0.17663 0.0
C1297 C 0.76734 0.75379 0.1937 0.0
C1298 C 0.77147 0.73694 0.1455 0.0
C1299 C 0.78889 0.74896 0.18586 0.0
C1300 C 0.79024 0.71206 0.11503 0.0
C1301 C 0.76001 0.72171 0.07876 0.0
N1302 N 0.79031 0.74053 0.16239 0.0
N1303 N 0.75941 0.73149 0.10201 0.0
H1304 H 0.07686 0.02236 0.72736 0.0
H1305 H 0.09336 0.03698 0.58797 0.0
H1306 H 0.13781 0.00833 0.69089 0.0
H1307 H 0.02894 0.04312 0.62212 0.0
H1308 H 0.1109 0.02885 0.62625 0.0
H1309 H 0.05929 0.03092 0.68934 0.0
C1310 C 0.08643 0.02078 0.71133 0.0
C1311 C 0.10889 0.01463 0.71239 0.0
C1312 C 0.09298 0.03213 0.62544 0.0
C1313 C 0.08902 0.02485 0.66884 0.0
C1314 C 0.08306 0.03698 0.60364 0.0
C1315 C 0.05971 0.04075 0.60195 0.0
C1316 C 0.07943 0.03105 0.64567 0.0
C1317 C 0.04704 0.04036 0.62272 0.0
C1318 C 0.07644 0.02581 0.68964 0.0
C1319 C 0.12046 0.01297 0.69099 0.0
N1320 N 0.05703 0.03549 0.64371 0.0
N1321 N 0.11047 0.0182 0.67017 0.0
H1322 H 0.71462 0.37124 0.41906 0.0
H1323 H 0.7276 0.24464 0.34074 0.0
H1324 H 0.73922 0.31214 0.4509 0.0
H1325 H 0.74068 0.31857 0.31587 0.0
H1326 H 0.71926 0.26393 0.38026 0.0
H1327 H 0.71008 0.34576 0.37963 0.0
C1328 C 0.71845 0.35264 0.41784 0.0
C1329 C 0.7277 0.3439 0.43806 0.0
C1330 C 0.72377 0.27574 0.36597 0.0
C1331 C 0.72258 0.31488 0.39337 0.0
C1332 C 0.7286 0.26483 0.34362 0.0
C1333 C 0.73528 0.2802 0.32538 0.0
C1334 C 0.72502 0.30193 0.36958 0.0
C1335 C 0.7361 0.30619 0.32969 0.0
C1336 C 0.71601 0.33822 0.39539 0.0
C1337 C 0.73242 0.31967 0.43557 0.0
N1338 N 0.731 0.31624 0.35134 0.0
N1339 N 0.73003 0.30604 0.41352 0.0
H1340 H 0.41543 0.0706 0.19701 0.0
H1341 H 0.51957 0.03224 0.12375 0.0
H1342 H 0.4786 0.0541 0.23071 0.0
H1343 H 0.4616 0.05873 0.09131 0.0
H1344 H 0.506 0.04233 0.16349 0.0
H1345 H 0.43333 0.06911 0.15847 0.0
C1346 C 0.43317 0.06695 0.19638 0.0
C1347 C 0.44539 0.06216 0.21708 0.0
C1348 C 0.49634 0.04611 0.1477 0.0
C1349 C 0.46587 0.06016 0.17299 0.0
C1350 C 0.50405 0.04028 0.12506 0.0
C1351 C 0.4915 0.04445 0.10435 0.0
C1352 C 0.47587 0.05599 0.14951 0.0
C1353 C 0.47162 0.05505 0.10691 0.0
C1354 C 0.44338 0.06608 0.17435 0.0
C1355 C 0.46842 0.05771 0.21519 0.0
N1356 N 0.46429 0.06028 0.12909 0.0
N1357 N 0.47778 0.05652 0.19348 0.0
H1358 H 0.80866 0.71509 0.93993 0.0
H1359 H 0.74679 0.7487 0.8224 0.0
H1360 H 0.73454 0.71975 0.93434 0.0
H1361 H 0.81828 0.79256 0.84771 0.0
H1362 H 0.74434 0.72847 0.85933 0.0
H1363 H 0.81477 0.73522 0.90246 0.0
C1364 C 0.79373 0.72031 0.93084 0.0
C1365 C 0.77107 0.71582 0.94028 0.0
C1366 C 0.76062 0.74241 0.85674 0.0
C1367 C 0.7778 0.7381 0.89747 0.0
C1368 C 0.76211 0.75392 0.83564 0.0
C1369 C 0.78273 0.77251 0.83205 0.0
C1370 C 0.78003 0.7491 0.87433 0.0
C1371 C 0.80202 0.77842 0.84988 0.0
C1372 C 0.79726 0.73185 0.90961 0.0
C1373 C 0.75233 0.72299 0.92783 0.0
N1374 N 0.80026 0.76667 0.87032 0.0
N1375 N 0.75604 0.73346 0.90697 0.0
H1376 H 0.81825 0.07174 0.05295 0.0
H1377 H 0.91376 0.03893 0.96389 0.0
H1378 H 0.83614 0.10911 0.98973 0.0
H1379 H 0.90395 0.0112 0.03294 0.0
H1380 H 0.87947 0.05797 0.9689 0.0
H1381 H 0.84406 0.04338 0.04192 0.0
C1382 C 0.82752 0.07391 0.03665 0.0
C1383 C 0.8253 0.09305 0.02239 0.0
C1384 C 0.88457 0.04738 0.98279 0.0
C1385 C 0.85485 0.06054 0.00965 0.0
C1386 C 0.90403 0.03637 0.97987 0.0
C1387 C 0.91175 0.02372 0.99816 0.0
C1388 C 0.87285 0.04569 0.00415 0.0
C1389 C 0.89859 0.02094 0.01848 0.0
C1390 C 0.84223 0.05766 0.03036 0.0
C1391 C 0.83754 0.09478 0.00137 0.0
N1392 N 0.87992 0.03212 0.02107 0.0
N1393 N 0.85196 0.07884 0.99571 0.0
H1394 H 0.33857 0.40757 0.01524 0.0
H1395 H 0.43645 0.53832 0.05416 0.0
H1396 H 0.3217 0.47286 0.05444 0.0
H1397 H 0.44846 0.47702 0.00496 0.0
H1398 H 0.39423 0.51529 0.05422 0.0
H1399 H 0.37899 0.43298 0.01158 0.0
C1400 C 0.34336 0.42726 0.02313 0.0
C1401 C 0.32671 0.43804 0.03528 0.0
C1402 C 0.40606 0.50699 0.04325 0.0
C1403 C 0.37311 0.46735 0.03108 0.0
C1404 C 0.43012 0.52015 0.04318 0.0
C1405 C 0.44595 0.50942 0.0297 0.0
C1406 C 0.39791 0.48291 0.02988 0.0
C1407 C 0.43686 0.48588 0.01574 0.0
C1408 C 0.36645 0.44181 0.02092 0.0
C1409 C 0.33395 0.46373 0.04497 0.0
N1410 N 0.4135 0.47331 0.01636 0.0
N1411 N 0.35667 0.47748 0.04276 0.0
H1412 H 0.30572 0.58754 0.70952 0.0
H1413 H 0.30559 0.71335 0.79663 0.0
H1414 H 0.35619 0.61594 0.77169 0.0
H1415 H 0.25341 0.68241 0.7362 0.0
H1416 H 0.32252 0.67631 0.78973 0.0
H1417 H 0.28497 0.6208 0.72057 0.0
C1418 C 0.31243 0.60074 0.72556 0.0
C1419 C 0.33285 0.599 0.73962 0.0
C1420 C 0.3072 0.67749 0.77814 0.0
C1421 C 0.30906 0.6373 0.75242 0.0
C1422 C 0.29744 0.69862 0.78212 0.0
C1423 C 0.27808 0.70114 0.76689 0.0
C1424 C 0.29766 0.65874 0.75872 0.0
C1425 C 0.26832 0.68136 0.7484 0.0
C1426 C 0.30051 0.61973 0.73189 0.0
C1427 C 0.34059 0.61661 0.76027 0.0
N1428 N 0.27835 0.66116 0.74471 0.0
N1429 N 0.32877 0.6351 0.76597 0.0
H1430 H 0.22213 0.58457 0.53033 0.0
H1431 H 0.0882 0.58968 0.55488 0.0
H1432 H 0.20188 0.65573 0.54502 0.0
H1433 H 0.10385 0.53342 0.50215 0.0
H1434 H 0.13126 0.61068 0.56055 0.0
H1435 H 0.17963 0.56202 0.52892 0.0
C1436 C 0.20875 0.5954 0.53345 0.0
C1437 C 0.21539 0.62202 0.53764 0.0
C1438 C 0.12517 0.59364 0.54788 0.0
C1439 C 0.16716 0.59643 0.53644 0.0
C1440 C 0.10074 0.5816 0.54474 0.0
C1441 C 0.09259 0.55993 0.52793 0.0
C1442 C 0.14145 0.58353 0.53452 0.0
C1443 C 0.10948 0.55026 0.51512 0.0
C1444 C 0.1846 0.58256 0.53256 0.0
C1445 C 0.19741 0.6352 0.54151 0.0
N1446 N 0.13321 0.56209 0.51875 0.0
N1447 N 0.17403 0.62223 0.54093 0.0
H1448 H 0.66789 0.95019 0.77108 0.0
H1449 H 0.77767 0.88994 0.73743 0.0
H1450 H 0.70173 0.95627 0.70417 0.0
H1451 H 0.74549 0.88444 0.80518 0.0
H1452 H 0.75389 0.91977 0.72758 0.0
H1453 H 0.69893 0.9302 0.78597 0.0
C1454 C 0.68182 0.94731 0.75953 0.0
C1455 C 0.68207 0.95463 0.73626 0.0
C1456 C 0.75231 0.91241 0.7448 0.0
C1457 C 0.71771 0.93208 0.75321 0.0
C1458 C 0.76605 0.89555 0.7505 0.0
C1459 C 0.76331 0.88458 0.77202 0.0
C1460 C 0.73557 0.91807 0.76065 0.0
C1461 C 0.74799 0.89242 0.78832 0.0
C1462 C 0.69961 0.93606 0.76808 0.0
C1463 C 0.70068 0.95071 0.72215 0.0
N1464 N 0.73436 0.90839 0.78213 0.0
N1465 N 0.71766 0.9396 0.7308 0.0
H1466 H 0.69345 0.9326 0.51035 0.0
H1467 H 0.61093 0.01976 0.56733 0.0
H1468 H 0.70829 0.97278 0.5821 0.0
H1469 H 0.60695 0.99358 0.49157 0.0
H1470 H 0.64554 0.00128 0.57377 0.0
H1471 H 0.66025 0.95294 0.50376 0.0
C1472 C 0.68972 0.94566 0.52473 0.0
C1473 C 0.7037 0.95097 0.54681 0.0
C1474 C 0.6372 -0.00026 0.55571 0.0
C1475 C 0.66565 0.97431 0.53942 0.0
C1476 C 0.6175 0.01034 0.55204 0.0
C1477 C 0.60616 0.00827 0.52888 0.0
C1478 C 0.64542 0.98676 0.53611 0.0
C1479 C 0.61525 0.99569 0.50971 0.0
C1480 C 0.67081 0.95735 0.52093 0.0
C1481 C 0.69804 0.96813 0.56477 0.0
N1482 N 0.63423 0.98529 0.51376 0.0
N1483 N 0.67942 0.9791 0.56072 0.0
H1484 H 0.37775 0.45694 0.74849 0.0
H1485 H 0.25608 0.34902 0.7168 0.0
H1486 H 0.31417 0.47094 0.71313 0.0
H1487 H 0.31057 0.34647 0.77196 0.0
H1488 H 0.2794 0.39117 0.70984 0.0
H1489 H 0.35559 0.41355 0.75149 0.0
C1490 C 0.35915 0.45087 0.7412 0.0
C1491 C 0.34774 0.46768 0.73066 0.0
C1492 C 0.28625 0.3813 0.72338 0.0
C1493 C 0.32231 0.41794 0.73407 0.0
C1494 C 0.27302 0.35729 0.72732 0.0
C1495 C 0.28148 0.34436 0.74497 0.0
C1496 C 0.30815 0.3922 0.73704 0.0
C1497 C 0.30348 0.35582 0.75813 0.0
C1498 C 0.34651 0.4261 0.74302 0.0
C1499 C 0.32362 0.45867 0.72153 0.0
N1500 N 0.3161 0.3791 0.75387 0.0
N1501 N 0.31166 0.43436 0.72347 0.0
H1502 H 0.12111 0.5864 0.22621 0.0
H1503 H 0.23984 0.68769 0.27812 0.0
H1504 H 0.18754 0.56465 0.24137 0.0
H1505 H 0.19323 0.70445 0.22229 0.0
H1506 H 0.21686 0.64321 0.27199 0.0
H1507 H 0.1436 0.63124 0.23164 0.0
C1508 C 0.14037 0.59109 0.23071 0.0
C1509 C 0.15258 0.57193 0.23326 0.0
C1510 C 0.21175 0.65669 0.26111 0.0
C1511 C 0.17801 0.62266 0.23991 0.0
C1512 C 0.22473 0.68197 0.26463 0.0
C1513 C 0.21841 0.69957 0.25057 0.0
C1514 C 0.19201 0.64923 0.24388 0.0
C1515 C 0.19875 0.6913 0.2333 0.0
C1516 C 0.15313 0.61653 0.23369 0.0
C1517 C 0.17753 0.57889 0.23906 0.0
N1518 N 0.18602 0.66666 0.23056 0.0
N1519 N 0.18942 0.60376 0.24244 0.0
H1520 H 0.46955 0.68426 0.41839 0.0
H1521 H 0.54521 0.61804 0.5034 0.0
H1522 H 0.54028 0.72094 0.45224 0.0
H1523 H 0.46925 0.58788 0.48377 0.0
H1524 H 0.54313 0.65648 0.48558 0.0
H1525 H 0.46828 0.6492 0.44279 0.0
C1526 C 0.4847 0.68506 0.43108 0.0
C1527 C 0.50513 0.70545 0.43313 0.0
C1528 C 0.52683 0.64159 0.48538 0.0
C1529 C 0.50387 0.66545 0.46092 0.0
C1530 C 0.52803 0.61961 0.49555 0.0
C1531 C 0.50742 0.59964 0.49494 0.0
C1532 C 0.50495 0.64353 0.47417 0.0
C1533 C 0.4856 0.60281 0.48464 0.0
C1534 C 0.48395 0.66508 0.44502 0.0
C1535 C 0.52421 0.70554 0.44992 0.0
N1536 N 0.48499 0.62421 0.47437 0.0
N1537 N 0.5232 0.68577 0.46298 0.0
H1538 H 0.59294 0.31024 0.7261 0.0
H1539 H 0.72185 0.28619 0.71403 0.0
H1540 H 0.6288 0.31834 0.66049 0.0
H1541 H 0.69998 0.31211 0.78264 0.0
H1542 H 0.6873 0.29684 0.69396 0.0
H1543 H 0.63135 0.31053 0.74756 0.0
C1544 C 0.60895 0.31249 0.71629 0.0
C1545 C 0.60761 0.31406 0.69142 0.0
C1546 C 0.69019 0.30049 0.7134 0.0
C1547 C 0.6514 0.31388 0.71574 0.0
C1548 C 0.70987 0.29432 0.72482 0.0
C1549 C 0.71368 0.29817 0.74995 0.0
C1550 C 0.6739 0.31006 0.72728 0.0
C1551 C 0.6976 0.30879 0.76318 0.0
C1552 C 0.63085 0.31268 0.72855 0.0
C1553 C 0.62895 0.31703 0.67964 0.0
N1554 N 0.67816 0.31403 0.7517 0.0
N1555 N 0.64988 0.31638 0.69181 0.0
H1556 H 0.98195 0.31735 0.96053 0.0
H1557 H 0.98247 0.45973 0.94657 0.0
H1558 H 3e-05 0.34734 0.8938 0.0
H1559 H 0.01478 0.44022 0.01097 0.0
H1560 H 0.97961 0.41643 0.92697 0.0
H1561 H 0.98526 0.36068 0.97973 0.0
C1562 C 0.98666 0.3331 0.94996 0.0
C1563 C 0.99088 0.3289 0.92562 0.0
C1564 C 0.98723 0.42173 0.94541 0.0
C1565 C 0.99395 0.37813 0.94722 0.0
C1566 C 0.98866 0.44623 0.95663 0.0
C1567 C 0.99884 0.4534 0.98037 0.0
C1568 C 0.9954 0.40425 0.95832 0.0
C1569 C 0.00687 0.43537 0.9926 0.0
C1570 C 0.98855 0.35771 0.96091 0.0
C1571 C 0.99689 0.3499 0.91268 0.0
N1572 N 0.00477 0.4115 0.98151 0.0
N1573 N 0.99796 0.37369 0.92358 0.0
H1574 H 0.96398 0.82188 0.18445 0.0
H1575 H 0.87206 0.76625 0.27869 0.0
H1576 H 0.97447 0.76551 0.22993 0.0
H1577 H 0.86715 0.83197 0.24389 0.0
H1578 H 0.91065 0.76712 0.26202 0.0
H1579 H 0.9291 0.82691 0.2063 0.0
C1580 C 0.95899 0.8106 0.19903 0.0
C1581 C 0.97205 0.7931 0.20524 0.0
C1582 C 0.90136 0.78159 0.25822 0.0
C1583 C 0.93231 0.79881 0.23031 0.0
C1584 C 0.87936 0.78113 0.26781 0.0
C1585 C 0.86647 0.79902 0.26258 0.0
C1586 C 0.91038 0.79985 0.24293 0.0
C1587 C 0.87664 0.81788 0.24838 0.0
C1588 C 0.93916 0.81357 0.21156 0.0
C1589 C 0.96488 0.77912 0.22439 0.0
N1590 N 0.89791 0.81762 0.23874 0.0
N1591 N 0.94545 0.78217 0.23611 0.0
H1592 H 0.51607 0.31918 0.04335 0.0
H1593 H 0.51339 0.46336 0.07167 0.0
H1594 H 0.49042 0.34867 0.10873 0.0
H1595 H 0.50362 0.42724 0.99833 0.0
H1596 H 0.50982 0.4221 0.08589 0.0
H1597 H 0.51584 0.35901 0.02668 0.0
C1598 C 0.51032 0.33399 0.05416 0.0
C1599 C 0.50336 0.33068 0.07753 0.0
C1600 C 0.50839 0.42314 0.06668 0.0
C1601 C 0.50337 0.37623 0.05867 0.0
C1602 C 0.51062 0.44674 0.05849 0.0
C1603 C 0.50895 0.4488 0.03371 0.0
C1604 C 0.50488 0.40132 0.05006 0.0
C1605 C 0.50503 0.42648 0.01757 0.0
C1606 C 0.51009 0.35662 0.04458 0.0
C1607 C 0.49593 0.35041 0.09067 0.0
N1608 N 0.50338 0.4036 0.02603 0.0
N1609 N 0.49641 0.37246 0.08117 0.0
H1610 H 0.97352 0.28287 0.33404 0.0
H1611 H 0.83745 0.28496 0.35243 0.0
H1612 H 0.94498 0.28021 0.40379 0.0
H1613 H 0.87472 0.31411 0.29256 0.0
H1614 H 0.87583 0.28124 0.37138 0.0
H1615 H 0.93627 0.29145 0.31772 0.0
C1616 C 0.95939 0.28398 0.34591 0.0
C1617 C 0.96236 0.28074 0.37031 0.0
C1618 C 0.87562 0.28875 0.35425 0.0
C1619 C 0.91967 0.29059 0.35173 0.0
C1620 C 0.85377 0.29095 0.34349 0.0
C1621 C 0.85298 0.29982 0.32092 0.0
C1622 C 0.89665 0.29506 0.3421 0.0
C1623 C 0.87458 0.3072 0.31 0.0
C1624 C 0.9382 0.28907 0.33662 0.0
C1625 C 0.94347 0.28259 0.38487 0.0
N1626 N 0.8955 0.30436 0.32055 0.0
N1627 N 0.92285 0.28722 0.37532 0.0
H1628 H 0.97469 0.70888 0.54645 0.0
H1629 H 0.01425 0.58279 0.55106 0.0
H1630 H 0.96929 0.67001 0.60999 0.0
H1631 H 0.98384 0.59898 0.48425 0.0
H1632 H 0.9982 0.61542 0.5728 0.0
H1633 H 0.97685 0.66939 0.52253 0.0
C1634 C 0.97334 0.69189 0.55526 0.0
C1635 C 0.97222 0.69282 0.58032 0.0
C1636 C 0.99471 0.61164 0.55341 0.0
C1637 C 0.97525 0.64796 0.5532 0.0
C1638 C 0.00394 0.59306 0.54102 0.0
C1639 C 0.00024 0.58813 0.51593 0.0
C1640 C 0.98227 0.62598 0.54053 0.0
C1641 C 0.98711 0.60231 0.50366 0.0
C1642 C 0.97459 0.66939 0.5416 0.0
C1643 C 0.97035 0.67022 0.59078 0.0
N1644 N 0.97886 0.62094 0.51608 0.0
N1645 N 0.97253 0.64884 0.57726 0.0
H1646 H 0.5734 0.75064 0.82375 0.0
H1647 H 0.70589 0.81797 0.80003 0.0
H1648 H 0.6245 0.79417 0.88082 0.0
H1649 H 0.67949 0.73844 0.77341 0.0
H1650 H 0.6695 0.81608 0.82128 0.0
H1651 H 0.6067 0.75161 0.79738 0.0
C1652 C 0.59159 0.76029 0.8307 0.0
C1653 C 0.59633 0.77219 0.8545 0.0
C1654 C 0.67158 0.7992 0.81044 0.0
C1655 C 0.63383 0.77412 0.82444 0.0
C1656 C 0.6922 0.80026 0.79814 0.0
C1657 C 0.69579 0.77825 0.78504 0.0
C1658 C 0.65419 0.77618 0.80921 0.0
C1659 C 0.67746 0.75578 0.78345 0.0
C1660 C 0.61044 0.76082 0.81571 0.0
C1661 C 0.62014 0.78453 0.86268 0.0
N1662 N 0.65735 0.75527 0.79548 0.0
N1663 N 0.63798 0.78547 0.84757 0.0
H1664 H 0.39482 0.54402 0.64852 0.0
H1665 H 0.52016 0.58476 0.59143 0.0
H1666 H 0.46082 0.57491 0.69348 0.0
H1667 H 0.46634 0.51696 0.56335 0.0
H1668 H 0.49594 0.59045 0.62557 0.0
H1669 H 0.41821 0.5439 0.61317 0.0
C1670 C 0.41418 0.55125 0.65092 0.0
C1671 C 0.42592 0.55938 0.674 0.0
C1672 C 0.48939 0.57452 0.61172 0.0
C1673 C 0.45262 0.5594 0.63365 0.0
C1674 C 0.50312 0.57126 0.59228 0.0
C1675 C 0.49506 0.55048 0.57439 0.0
C1676 C 0.46726 0.5572 0.61295 0.0
C1677 C 0.47294 0.5335 0.57643 0.0
C1678 C 0.42747 0.55097 0.63077 0.0
C1679 C 0.45108 0.56835 0.67603 0.0
N1680 N 0.4597 0.5373 0.59529 0.0
N1681 N 0.46364 0.56815 0.65608 0.0
H1682 H 0.79998 0.17817 0.94795 0.0
H1683 H 0.76232 0.28016 0.87057 0.0
H1684 H 0.76927 0.23893 0.97703 0.0
H1685 H 0.7927 0.21974 0.84032 0.0
H1686 H 0.7672 0.26669 0.91038 0.0
H1687 H 0.80021 0.1946 0.90887 0.0
C1688 C 0.79348 0.19505 0.94616 0.0
C1689 C 0.78443 0.20709 0.96567 0.0
C1690 C 0.77288 0.25639 0.89507 0.0
C1691 C 0.78452 0.22586 0.9212 0.0
C1692 C 0.77006 0.26408 0.87238 0.0
C1693 C 0.77697 0.25089 0.85227 0.0
C1694 C 0.78263 0.23534 0.89757 0.0
C1695 C 0.78702 0.23027 0.85547 0.0
C1696 C 0.79357 0.20439 0.92388 0.0
C1697 C 0.77625 0.22892 0.96242 0.0
N1698 N 0.78947 0.22302 0.87774 0.0
N1699 N 0.77638 0.23751 0.94058 0.0
H1700 H 0.04171 0.45779 0.1793 0.0
H1701 H 0.04712 0.5291 0.07105 0.0
H1702 H 0.10694 0.47272 0.14244 0.0
H1703 H 0.98483 0.46669 0.07029 0.0
H1704 H 0.06848 0.51016 0.09997 0.0
H1705 H 0.0187 0.45988 0.14175 0.0
C1706 C 0.05109 0.46069 0.16315 0.0
C1707 C 0.07633 0.46567 0.16408 0.0
C1708 C 0.05029 0.50034 0.09315 0.0
C1709 C 0.05027 0.46861 0.12162 0.0
C1710 C 0.03816 0.51107 0.07658 0.0
C1711 C 0.01454 0.499 0.06774 0.0
C1712 C 0.03835 0.47792 0.10178 0.0
C1713 C 0.00317 0.47642 0.0766 0.0
C1714 C 0.03794 0.46183 0.14179 0.0
C1715 C 0.08756 0.4691 0.14262 0.0
N1716 N 0.0151 0.46671 0.09354 0.0
N1717 N 0.07453 0.47132 0.1224 0.0
H1718 H 0.75272 0.88772 0.4522 0.0
H1719 H 0.73827 0.77426 0.3485 0.0
H1720 H 0.75794 0.81372 0.46903 0.0
H1721 H 0.78489 0.84728 0.34138 0.0
H1722 H 0.73512 0.78872 0.39093 0.0
H1723 H 0.75388 0.87338 0.40921 0.0
C1724 C 0.75359 0.86832 0.4468 0.0
C1725 C 0.75512 0.8518 0.46412 0.0
C1726 C 0.74597 0.80155 0.38002 0.0
C1727 C 0.75626 0.83539 0.41527 0.0
C1728 C 0.74774 0.79339 0.35587 0.0
C1729 C 0.76194 0.80961 0.34151 0.0
C1730 C 0.75785 0.82637 0.38968 0.0
C1731 C 0.77392 0.83416 0.35195 0.0
C1732 C 0.75451 0.86029 0.42238 0.0
C1733 C 0.75666 0.82699 0.45621 0.0
N1734 N 0.7714 0.84194 0.37539 0.0
N1735 N 0.75699 0.81945 0.43233 0.0
H1736 H 0.46458 0.52062 0.79336 0.0
H1737 H 0.44064 0.52244 0.93303 0.0
H1738 H 0.41043 0.55371 0.82521 0.0
H1739 H 0.49917 0.49645 0.90215 0.0
H1740 H 0.42802 0.53216 0.89338 0.0
H1741 H 0.47713 0.51118 0.83296 0.0
C1742 C 0.4555 0.5262 0.80875 0.0
C1743 C 0.43641 0.53799 0.80594 0.0
C1744 C 0.44354 0.52419 0.89523 0.0
C1745 C 0.45045 0.52678 0.8514 0.0
C1746 C 0.45062 0.51842 0.91781 0.0
C1747 C 0.47094 0.50857 0.92082 0.0
C1748 C 0.45688 0.52003 0.87551 0.0
C1749 C 0.48334 0.50395 0.90057 0.0
C1750 C 0.46261 0.52067 0.83137 0.0
C1751 C 0.4253 0.54471 0.82655 0.0
N1752 N 0.47617 0.50979 0.8788 0.0
N1753 N 0.43237 0.53884 0.84838 0.0
H1754 H 0.81157 0.24214 0.08144 0.0
H1755 H 0.7726 0.22864 0.20983 0.0
H1756 H 0.81301 0.17534 0.1162 0.0
H1757 H 0.81314 0.30232 0.19558 0.0
H1758 H 0.78461 0.20962 0.17294 0.0
H1759 H 0.81221 0.26614 0.12102 0.0
C1760 C 0.81267 0.23268 0.09738 0.0
C1761 C 0.81154 0.2065 0.09551 0.0
C1762 C 0.79102 0.22994 0.17791 0.0
C1763 C 0.81188 0.23368 0.14042 0.0
C1764 C 0.78391 0.24091 0.19883 0.0
C1765 C 0.79192 0.26713 0.20577 0.0
C1766 C 0.80576 0.2453 0.16338 0.0
C1767 C 0.8066 0.28201 0.19075 0.0
C1768 C 0.81304 0.24641 0.1199 0.0
C1769 C 0.81336 0.19533 0.11674 0.0
N1770 N 0.81291 0.27089 0.16996 0.0
N1771 N 0.81281 0.20884 0.13832 0.0
H1772 H 0.1036 0.47769 0.31228 0.0
H1773 H 0.00752 0.5171 0.3972 0.0
H1774 H 0.04084 0.50146 0.28722 0.0
H1775 H 0.06861 0.49182 0.42419 0.0
H1776 H 0.01782 0.50744 0.35623 0.0
H1777 H 0.08938 0.47835 0.35282 0.0
C1778 C 0.08669 0.4827 0.31523 0.0
C1779 C 0.07352 0.48984 0.29646 0.0
C1780 C 0.02896 0.50385 0.37105 0.0
C1781 C 0.0573 0.49078 0.34259 0.0
C1782 C 0.02309 0.50942 0.39443 0.0
C1783 C 0.03741 0.50548 0.41398 0.0
C1784 C 0.04943 0.49444 0.36718 0.0
C1785 C 0.05726 0.49529 0.40949 0.0
C1786 C 0.07863 0.48314 0.33836 0.0
C1787 C 0.05174 0.49612 0.30122 0.0
N1788 N 0.06285 0.4903 0.38649 0.0
N1789 N 0.04443 0.49664 0.32383 0.0
H1790 H 0.74864 0.88737 0.62721 0.0
H1791 H 0.75582 0.75559 0.67552 0.0
H1792 H 0.75602 0.82159 0.58105 0.0
H1793 H 0.75451 0.82325 0.72192 0.0
H1794 H 0.75344 0.77858 0.64047 0.0
H1795 H 0.7482 0.8634 0.66174 0.0
C1796 C 0.74999 0.86783 0.62425 0.0
C1797 C 0.75243 0.85656 0.60106 0.0
C1798 C 0.75376 0.78848 0.65831 0.0
C1799 C 0.75205 0.82894 0.64079 0.0
C1800 C 0.7551 0.77535 0.67832 0.0
C1801 C 0.75582 0.78772 0.70168 0.0
C1802 C 0.75293 0.81416 0.66166 0.0
C1803 C 0.75467 0.81325 0.70428 0.0
C1804 C 0.74982 0.85416 0.64405 0.0
C1805 C 0.75414 0.83113 0.59851 0.0
N1806 N 0.7533 0.82564 0.68455 0.0
N1807 N 0.75398 0.81824 0.61809 0.0
H1808 H 0.7162 0.49646 0.55417 0.0
H1809 H 0.60625 0.52511 0.47777 0.0
H1810 H 0.68804 0.45779 0.48371 0.0
H1811 H 0.61954 0.54477 0.55469 0.0
H1812 H 0.64274 0.50934 0.47723 0.0
H1813 H 0.68672 0.52222 0.55216 0.0
C1814 C 0.70391 0.49349 0.53821 0.0
C1815 C 0.70436 0.47476 0.51917 0.0
C1816 C 0.63786 0.51745 0.49418 0.0
C1817 C 0.67086 0.50434 0.5167 0.0
C1818 C 0.61716 0.5266 0.49448 0.0
C1819 C 0.60982 0.53592 0.51637 0.0
C1820 C 0.65128 0.5177 0.5159 0.0
C1821 C 0.62458 0.53754 0.53748 0.0
C1822 C 0.68713 0.50821 0.53709 0.0
C1823 C 0.68812 0.47182 0.49889 0.0
N1824 N 0.64454 0.5282 0.53678 0.0
N1825 N 0.67195 0.48642 0.49822 0.0
H1826 H 0.20157 0.08611 0.52302 0.0
H1827 H 0.0745 0.04005 0.447 0.0
H1828 H 0.18362 0.12007 0.46048 0.0
H1829 H 0.08238 0.03351 0.5228 0.0
H1830 H 0.11683 0.06289 0.44885 0.0
H1831 H 0.16011 0.06011 0.5203 0.0
C1832 C 0.18901 0.08786 0.50855 0.0
C1833 C 0.19603 0.10531 0.49196 0.0
C1834 C 0.1093 0.05649 0.4651 0.0
C1835 C 0.14878 0.07563 0.48876 0.0
C1836 C 0.08521 0.04339 0.46406 0.0
C1837 C 0.07495 0.03526 0.48491 0.0
C1838 C 0.12336 0.06105 0.48708 0.0
C1839 C 0.08956 0.04 0.50651 0.0
C1840 C 0.16535 0.07318 0.50714 0.0
C1841 C 0.17895 0.10695 0.4737 0.0
N1842 N 0.11315 0.05254 0.50706 0.0
N1843 N 0.15614 0.09225 0.47254 0.0
H1844 H 0.2047 0.95436 0.72831 0.0
H1845 H 0.25972 0.86127 0.80171 0.0
H1846 H 0.19151 0.94755 0.80273 0.0
H1847 H 0.23436 0.84157 0.72671 0.0
H1848 H 0.24326 0.89905 0.80257 0.0
H1849 H 0.22384 0.91861 0.72769 0.0
C1850 C 0.20593 0.94541 0.74455 0.0
C1851 C 0.19642 0.95384 0.76559 0.0
C1852 C 0.24151 0.8865 0.78593 0.0
C1853 C 0.21868 0.91333 0.76507 0.0
C1854 C 0.25105 0.8651 0.78534 0.0
C1855 C 0.24836 0.84827 0.7641 0.0
C1856 C 0.22975 0.89138 0.76498 0.0
C1857 C 0.23676 0.85403 0.74347 0.0
C1858 C 0.21679 0.92501 0.74414 0.0
C1859 C 0.19846 0.9415 0.7861 0.0
N1860 N 0.22798 0.87518 0.74438 0.0
N1861 N 0.20956 0.92195 0.7854 0.0
H1862 H 0.31201 0.95515 0.97573 0.0
H1863 H 0.44049 0.9663 0.03152 0.0
H1864 H 0.32737 0.893 0.01035 0.0
H1865 H 0.43151 0.98986 0.96114 0.0
H1866 H 0.3983 0.94235 0.02714 0.0
H1867 H 0.35522 0.97149 0.9724 0.0
C1868 C 0.32452 0.94484 0.98238 0.0
C1869 C 0.31633 0.92284 0.99345 0.0
C1870 C 0.4057 0.95255 0.01258 0.0
C1871 C 0.36535 0.94159 0.99017 0.0
C1872 C 0.42959 0.96635 0.01514 0.0
C1873 C 0.43924 0.98012 0.99671 0.0
C1874 C 0.39131 0.95322 0.99178 0.0
C1875 C 0.42458 0.97943 0.97572 0.0
C1876 C 0.34903 0.95406 0.98035 0.0
C1877 C 0.3331 0.91002 0.00168 0.0
N1878 N 0.40108 0.96654 0.97397 0.0
N1879 N 0.35699 0.91991 0.00035 0.0
H1880 H 0.81332 0.56968 0.75045 0.0
H1881 H 0.78987 0.69769 0.81516 0.0
H1882 H 0.8576 0.61585 0.81109 0.0
H1883 H 0.75352 0.65977 0.74727 0.0
H1884 H 0.80759 0.66172 0.81943 0.0
H1885 H 0.78507 0.59683 0.75423 0.0
C1886 C 0.81701 0.58541 0.7647 0.0
C1887 C 0.83807 0.59081 0.78024 0.0
C1888 C 0.79543 0.66102 0.80377 0.0
C1889 C 0.80573 0.6218 0.7847 0.0
C1890 C 0.78524 0.68148 0.80137 0.0
C1891 C 0.77061 0.68175 0.78062 0.0
C1892 C 0.79112 0.64084 0.78516 0.0
C1893 C 0.7649 0.66027 0.76344 0.0
C1894 C 0.80084 0.60085 0.76686 0.0
C1895 C 0.84177 0.61123 0.79852 0.0
N1896 N 0.77555 0.64077 0.76587 0.0
N1897 N 0.82586 0.62614 0.80011 0.0
H1898 H 0.84005 0.6308 0.97798 0.0
H1899 H 0.89972 0.5222 0.02174 0.0
H1900 H 0.8114 0.5821 0.0309 0.0
H1901 H 0.93411 0.57755 0.97691 0.0
H1902 H 0.86461 0.54056 0.02113 0.0
H1903 H 0.87232 0.60846 0.97352 0.0
C1904 C 0.84047 0.61535 0.98857 0.0
C1905 C 0.82309 0.60843 0.00495 0.0
C1906 C 0.87976 0.54859 0.01127 0.0
C1907 C 0.85987 0.58275 -0.00011 0.0
C1908 C 0.89973 0.53803 0.01154 0.0
C1909 C 0.91983 0.54849 -0.00052 0.0
C1910 C 0.87991 0.56973 0.99882 0.0
C1911 C 0.91898 0.56901 0.98655 0.0
C1912 C 0.8589 0.60262 0.98603 0.0
C1913 C 0.8245 0.58822 0.01816 0.0
N1914 N 0.8994 0.57906 0.98666 0.0
N1915 N 0.84256 0.57617 0.01538 0.0
H1916 H 0.16156 0.10529 0.79708 0.0
H1917 H 0.28752 0.20535 0.80512 0.0
H1918 H 0.22715 0.07983 0.79164 0.0
H1919 H 0.22514 0.21414 0.76366 0.0
H1920 H 0.26535 0.16232 0.81124 0.0
H1921 H 0.1847 0.14903 0.79685 0.0
C1922 C 0.18089 0.10891 0.79634 0.0
C1923 C 0.19245 0.08884 0.79423 0.0
C1924 C 0.25656 0.17386 0.80099 0.0
C1925 C 0.21888 0.13884 0.79412 0.0
C1926 C 0.26909 0.19833 0.79752 0.0
C1927 C 0.25801 0.21331 0.78396 0.0
C1928 C 0.23265 0.16472 0.79136 0.0
C1929 C 0.23419 0.20331 0.77442 0.0
C1930 C 0.194 0.13385 0.79603 0.0
C1931 C 0.21754 0.09473 0.79315 0.0
N1932 N 0.2222 0.17968 0.77845 0.0
N1933 N 0.22999 0.11928 0.79311 0.0
H1934 H 0.34404 0.98976 0.30456 0.0
H1935 H 0.30485 0.85326 0.23779 0.0
H1936 H 0.39638 0.95829 0.26748 0.0
H1937 H 0.29039 0.86363 0.3125 0.0
H1938 H 0.33243 0.89563 0.24304 0.0
H1939 H 0.31813 0.94665 0.30334 0.0
C1940 C 0.35011 0.9737 0.2964 0.0
C1941 C 0.37228 0.97732 0.28618 0.0
C1942 C 0.32311 0.88855 0.25819 0.0
C1943 C 0.34269 0.92871 0.28402 0.0
C1944 C 0.30725 0.86464 0.25519 0.0
C1945 C 0.29537 0.85517 0.27476 0.0
C1946 C 0.32647 0.90325 0.28069 0.0
C1947 C 0.29929 0.87041 0.29703 0.0
C1948 C 0.33543 0.94929 0.29576 0.0
C1949 C 0.37945 0.95609 0.27571 0.0
N1950 N 0.31438 0.89398 0.29938 0.0
N1951 N 0.36443 0.9326 0.27446 0.0
H1952 H 0.56701 0.35565 0.57347 0.0
H1953 H 0.47719 0.44416 0.5482 0.0
H1954 H 0.50381 0.35494 0.61227 0.0
H1955 H 0.54893 0.45568 0.52437 0.0
H1956 H 0.48339 0.40722 0.567 0.0
H1957 H 0.55741 0.38825 0.55079 0.0
C1958 C 0.55104 0.36229 0.57719 0.0
C1959 C 0.53628 0.35264 0.59495 0.0
C1960 C 0.49766 0.41777 0.55749 0.0
C1961 C 0.52512 0.39007 0.56887 0.0
C1962 C 0.49409 0.43872 0.54661 0.0
C1963 C 0.51263 0.45312 0.5348 0.0
C1964 C 0.51982 0.41105 0.55629 0.0
C1965 C 0.53421 0.4453 0.53345 0.0
C1966 C 0.54558 0.38096 0.56422 0.0
C1967 C 0.51577 0.36196 0.59886 0.0
N1968 N 0.53721 0.42487 0.5441 0.0
N1969 N 0.5108 0.38021 0.58595 0.0
H1970 H 0.43969 0.79194 0.29638 0.0
H1971 H 0.31472 0.72392 0.24078 0.0
H1972 H 0.4147 0.72099 0.32568 0.0
H1973 H 0.32143 0.789 0.29388 0.0
H1974 H 0.35413 0.71915 0.25704 0.0
H1975 H 0.399 0.78794 0.27857 0.0
C1976 C 0.42579 0.77527 0.29872 0.0
C1977 C 0.43053 0.75684 0.31272 0.0
C1978 C 0.3466 0.73415 0.26518 0.0
C1979 C 0.38428 0.75217 0.29203 0.0
C1980 C 0.32434 0.73696 0.25595 0.0
C1981 C 0.31501 0.75698 0.26594 0.0
C1982 C 0.35948 0.75179 0.28405 0.0
C1983 C 0.32803 0.77337 0.2856 0.0
C1984 C 0.40266 0.77309 0.28857 0.0
C1985 C 0.41171 0.73568 0.31514 0.0
N1986 N 0.34985 0.7707 0.29375 0.0
N1987 N 0.38919 0.73392 0.30494 0.0
H1988 H 0.0339 0.70457 0.14722 0.0
H1989 H 0.00437 0.61709 0.02258 0.0
H1990 H 0.02473 0.7355 0.08048 0.0
H1991 H 0.0509 0.60093 0.07874 0.0
H1992 H 0.00649 0.65859 0.04509 0.0
H1993 H 0.03451 0.66391 0.12414 0.0
C1994 C 0.03179 0.70273 0.12774 0.0
C1995 C 0.02918 0.72339 0.11571 0.0
C1996 C 0.01641 0.64606 0.05238 0.0
C1997 C 0.0298 0.67711 0.08939 0.0
C1998 C 0.01521 0.62242 0.03959 0.0
C1999 C 0.02758 0.6057 0.04882 0.0
C2000 C 0.02954 0.65276 0.07488 0.0
C2001 C 0.04132 0.61345 0.07094 0.0
C2002 C 0.03238 0.67966 0.11463 0.0
C2003 C 0.02679 0.72006 0.09045 0.0
N2004 N 0.04168 0.63636 0.08345 0.0
N2005 N 0.02695 0.69729 0.07812 0.0
H2006 H 0.04822 0.20658 0.80477 0.0
H2007 H 0.17051 0.30472 0.78264 0.0
H2008 H 0.06657 0.28588 0.83352 0.0
H2009 H 0.15859 0.2235 0.76595 0.0
H2010 H 0.12996 0.29877 0.79609 0.0
H2011 H 0.08604 0.21316 0.78542 0.0
C2012 C 0.0601 0.22544 0.80686 0.0
C2013 C 0.05428 0.2457 0.82092 0.0
C2014 C 0.13611 0.28224 0.78936 0.0
C2015 C 0.09762 0.25331 0.79879 0.0
C2016 C 0.15923 0.28562 0.7816 0.0
C2017 C 0.16789 0.26454 0.77331 0.0
C2018 C 0.1215 0.25758 0.78879 0.0
C2019 C 0.15256 0.24023 0.77229 0.0
C2020 C 0.08173 0.22914 0.79584 0.0
C2021 C 0.07037 0.2697 0.82296 0.0
N2022 N 0.13009 0.23739 0.78008 0.0
N2023 N 0.09135 0.27281 0.81208 0.0
H2024 H 0.50445 0.69907 0.92557 0.0
H2025 H 0.53961 0.62036 0.02921 0.0
H2026 H 0.56568 0.72685 0.97761 0.0
H2027 H 0.48714 0.58744 0.96944 0.0
H2028 H 0.54507 0.66164 0.01411 0.0
H2029 H 0.49386 0.66002 0.94481 0.0
C2030 C 0.51556 0.69704 0.94112 0.0
C2031 C 0.53609 0.71616 0.94988 0.0
C2032 C 0.53222 0.64541 0.00441 0.0
C2033 C 0.52405 0.67163 0.97199 0.0
C2034 C 0.529 0.62185 0.0131 0.0
C2035 C 0.51304 0.60034 0.00047 0.0
C2036 C 0.51933 0.64752 0.983 0.0
C2037 C 0.49981 0.60345 0.97966 0.0
C2038 C 0.50954 0.67474 0.95207 0.0
C2039 C 0.54981 0.71253 0.97012 0.0
N2040 N 0.50335 0.62656 0.9715 0.0
N2041 N 0.54359 0.69069 0.98044 0.0
H2042 H 0.08429 0.78085 0.63076 0.0
H2043 H 0.15225 0.7269 0.73452 0.0
H2044 H 0.04912 0.74465 0.68872 0.0
H2045 H 0.18945 0.77124 0.68243 0.0
H2046 H 0.11389 0.73007 0.71555 0.0
H2047 H 0.12273 0.77557 0.64778 0.0
C2048 C 0.08464 0.77197 0.64715 0.0
C2049 C 0.06339 0.76323 0.65834 0.0
C2050 C 0.13041 0.73897 0.70813 0.0
C2051 C 0.10731 0.75681 0.6777 0.0
C2052 C 0.1523 0.73699 0.71885 0.0
C2053 C 0.174 0.74886 0.71003 0.0
C2054 C 0.13022 0.75294 0.68843 0.0
C2055 C 0.17307 0.76179 0.68975 0.0
C2056 C 0.1066 0.76887 0.65679 0.0
C2057 C 0.06499 0.75177 0.67949 0.0
N2058 N 0.15152 0.76362 0.6797 0.0
N2059 N 0.08653 0.74882 0.6884 0.0
H2060 H 0.05631 0.36517 0.42241 0.0
H2061 H 0.01672 0.46737 0.47286 0.0
H2062 H 0.03725 0.33743 0.48989 0.0
H2063 H 0.04914 0.45505 0.54039 0.0
H2064 H 0.02765 0.42998 0.4533 0.0
H2065 H 0.05834 0.40852 0.44089 0.0
C2066 C 0.05314 0.36828 0.44125 0.0
C2067 C 0.04622 0.34775 0.45459 0.0
C2068 C 0.03291 0.43581 0.47227 0.0
C2069 C 0.04816 0.39687 0.47556 0.0
C2070 C 0.02656 0.45705 0.48346 0.0
C2071 C 0.03232 0.46442 0.50818 0.0
C2072 C 0.04457 0.42149 0.48605 0.0
C2073 C 0.04448 0.44999 0.52125 0.0
C2074 C 0.05403 0.39291 0.45166 0.0
C2075 C 0.04229 0.35277 0.47893 0.0
N2076 N 0.04985 0.42886 0.51008 0.0
N2077 N 0.04315 0.37687 0.48863 0.0
H2078 H 0.43598 0.23367 0.20297 0.0
H2079 H 0.34487 0.32145 0.23405 0.0
H2080 H 0.43452 0.30031 0.16808 0.0
H2081 H 0.33828 0.24672 0.25605 0.0
H2082 H 0.38143 0.31759 0.21466 0.0
H2083 H 0.40381 0.2417 0.22708 0.0
C2084 C 0.42897 0.25009 0.20043 0.0
C2085 C 0.43789 0.26624 0.18332 0.0
C2086 C 0.37207 0.30216 0.22393 0.0
C2087 C 0.40089 0.27559 0.21104 0.0
C2088 C 0.3513 0.30442 0.23517 0.0
C2089 C 0.33839 0.28432 0.24661 0.0
C2090 C 0.38009 0.27975 0.22433 0.0
C2091 C 0.34751 0.26264 0.2473 0.0
C2092 C 0.41055 0.25465 0.21423 0.0
C2093 C 0.42811 0.28728 0.18096 0.0
N2094 N 0.3677 0.2609 0.23625 0.0
N2095 N 0.41007 0.29131 0.19461 0.0
H2096 H 0.59359 0.55668 0.35501 0.0
H2097 H 0.51268 0.46747 0.43781 0.0
H2098 H 0.59311 0.47703 0.35012 0.0
H2099 H 0.54474 0.54725 0.4585 0.0
H2100 H 0.53724 0.46894 0.40278 0.0
H2101 H 0.57014 0.55206 0.38991 0.0
C2102 C 0.58849 0.53814 0.36125 0.0
C2103 C 0.59538 0.51721 0.34965 0.0
C2104 C 0.53892 0.48599 0.41518 0.0
C2105 C 0.56829 0.51177 0.38971 0.0
C2106 C 0.52491 0.48518 0.43504 0.0
C2107 C 0.5267 0.50727 0.45101 0.0
C2108 C 0.55429 0.50914 0.4112 0.0
C2109 C 0.54281 0.52974 0.4467 0.0
C2110 C 0.57518 0.53556 0.38127 0.0
C2111 C 0.58826 0.49368 0.35864 0.0
N2112 N 0.55578 0.53014 0.42715 0.0
N2113 N 0.57491 0.49151 0.37813 0.0
H2114 H 0.25819 0.9039 0.09294 0.0
H2115 H 0.21087 0.78192 0.1599 0.0
H2116 H 0.20641 0.83752 0.05783 0.0
H2117 H 0.28234 0.83087 0.17398 0.0
H2118 H 0.20346 0.80602 0.12677 0.0
H2119 H 0.26059 0.88185 0.12853 0.0
C2120 C 0.24691 0.88494 0.09294 0.0
C2121 C 0.23228 0.87236 0.07239 0.0
C2122 C 0.22076 0.81134 0.13712 0.0
C2123 C 0.2351 0.84714 0.11274 0.0
C2124 C 0.22503 0.79757 0.15582 0.0
C2125 C 0.24731 0.80434 0.16937 0.0
C2126 C 0.23873 0.83225 0.13244 0.0
C2127 C 0.26502 0.82491 0.16371 0.0
C2128 C 0.24849 0.8723 0.11311 0.0
C2129 C 0.21812 0.84774 0.07328 0.0
N2130 N 0.26029 0.83829 0.14574 0.0
N2131 N 0.21997 0.83581 0.09312 0.0
H2132 H 0.99679 0.58313 0.83692 0.0
H2133 H 0.97819 0.53193 0.95669 0.0
H2134 H 0.92755 0.57461 0.86602 0.0
H2135 H 0.04395 0.58833 0.95145 0.0
H2136 H 0.9596 0.54674 0.92271 0.0
H2137 H 0.01565 0.58626 0.87773 0.0
C2138 C 0.98568 0.58264 0.852 0.0
C2139 C 0.96059 0.57828 0.84821 0.0
C2140 C 0.97793 0.55625 0.9293 0.0
C2141 C 0.98184 0.58111 0.89449 0.0
C2142 C 0.98856 0.54782 0.94868 0.0
C2143 C 0.01249 0.55923 0.95709 0.0
C2144 C 0.99163 0.57551 0.91757 0.0
C2145 C 0.02539 0.57914 0.94549 0.0
C2146 C 0.99643 0.58449 0.87522 0.0
C2147 C 0.94695 0.57787 0.86825 0.0
N2148 N 0.01493 0.58638 0.92591 0.0
N2149 N 0.95768 0.57848 0.89056 0.0
H2150 H 0.24111 0.21835 0.56058 0.0
H2151 H 0.30536 0.25002 0.69381 0.0
H2152 H 0.30146 0.18941 0.5834 0.0
H2153 H 0.23094 0.25077 0.67871 0.0
H2154 H 0.30724 0.23484 0.65163 0.0
H2155 H 0.24051 0.23778 0.60203 0.0
C2156 C 0.25448 0.21645 0.57419 0.0
C2157 C 0.27135 0.2022 0.56854 0.0
C2158 C 0.2905 0.23834 0.65753 0.0
C2159 C 0.2707 0.2243 0.61584 0.0
C2160 C 0.28939 0.24707 0.68162 0.0
C2161 C 0.26789 0.25158 0.68989 0.0
C2162 C 0.27009 0.23439 0.64137 0.0
C2163 C 0.24781 0.24735 0.67317 0.0
C2164 C 0.25397 0.22733 0.59785 0.0
C2165 C 0.28809 0.20014 0.58696 0.0
N2166 N 0.24942 0.23907 0.64965 0.0
N2167 N 0.28735 0.21107 0.60975 0.0
H2168 H 0.62892 0.4973 0.19661 0.0
H2169 H 0.52858 0.55249 0.13084 0.0
H2170 H 0.58183 0.53497 0.23595 0.0
H2171 H 0.58689 0.53034 0.09571 0.0
H2172 H 0.54569 0.54408 0.16939 0.0
H2173 H 0.61053 0.50554 0.15908 0.0
C2174 C 0.61451 0.50705 0.19739 0.0
C2175 C 0.60703 0.51557 0.21956 0.0
C2176 C 0.55481 0.54127 0.15326 0.0
C2177 C 0.58603 0.52537 0.17644 0.0
C2178 C 0.54515 0.54621 0.13132 0.0
C2179 C 0.5564 0.54215 0.11014 0.0
C2180 C 0.57569 0.53197 0.15385 0.0
C2181 C 0.57769 0.53379 0.11165 0.0
C2182 C 0.60413 0.51194 0.1759 0.0
C2183 C 0.58822 0.5281 0.21931 0.0
N2184 N 0.58654 0.52881 0.13309 0.0
N2185 N 0.57843 0.53272 0.19808 0.0
H2186 H 0.21515 0.87041 0.9214 0.0
H2187 H 0.21641 0.74368 0.83671 0.0
H2188 H 0.22043 0.80153 0.95061 0.0
H2189 H 0.24747 0.8198 0.82099 0.0
H2190 H 0.20589 0.76169 0.87577 0.0
H2191 H 0.21292 0.84818 0.8808 0.0
C2192 C 0.21515 0.85044 0.91927 0.0
C2193 C 0.21847 0.83788 0.93929 0.0
C2194 C 0.21487 0.7743 0.86357 0.0
C2195 C 0.21609 0.81256 0.89317 0.0
C2196 C 0.22098 0.76409 0.84149 0.0
C2197 C 0.23307 0.7803 0.82586 0.0
C2198 C 0.22041 0.80079 0.86951 0.0
C2199 C 0.23844 0.80661 0.83265 0.0
C2200 C 0.21408 0.83785 0.89615 0.0
C2201 C 0.21832 0.81197 0.93555 0.0
N2202 N 0.23198 0.81604 0.85393 0.0
N2203 N 0.21749 0.80017 0.91285 0.0
H2204 H 0.97244 0.58121 0.72956 0.0
H2205 H 0.95063 0.5206 0.59311 0.0
H2206 H 0.90172 0.55004 0.69325 0.0
H2207 H 0.01867 0.56948 0.62285 0.0
H2208 H 0.93255 0.53147 0.62995 0.0
H2209 H 0.98987 0.57851 0.6908 0.0
C2210 C 0.96054 0.57416 0.71339 0.0
C2211 C 0.93561 0.56551 0.71465 0.0
C2212 C 0.9514 0.53996 0.62842 0.0
C2213 C 0.95548 0.56204 0.67039 0.0
C2214 C 0.96177 0.53361 0.60748 0.0
C2215 C 0.9862 0.544 0.60515 0.0
C2216 C 0.96565 0.55662 0.64727 0.0
C2217 C -0.00021 0.56094 0.62413 0.0
C2218 C 0.97052 0.57261 0.69129 0.0
C2219 C 0.92104 0.55677 0.69314 0.0
N2220 N 0.98936 0.56659 0.64456 0.0
N2221 N 0.93124 0.55488 0.67191 0.0
H2222 H 0.22903 0.21395 0.43213 0.0
H2223 H 0.31602 0.28822 0.34433 0.0
H2224 H 0.30371 0.21119 0.43571 0.0
H2225 H 0.24213 0.24942 0.32272 0.0
H2226 H 0.31321 0.26682 0.38123 0.0
H2227 H 0.23469 0.23457 0.39553 0.0
C2228 C 0.24669 0.21783 0.4253 0.0
C2229 C 0.26592 0.21077 0.43698 0.0
C2230 C 0.29775 0.26298 0.36825 0.0
C2231 C 0.27254 0.23467 0.39509 0.0
C2232 C 0.2993 0.27519 0.34731 0.0
C2233 C 0.27927 0.27061 0.33051 0.0
C2234 C 0.27584 0.24669 0.37253 0.0
C2235 C 0.25803 0.25352 0.33517 0.0
C2236 C 0.24986 0.22949 0.40433 0.0
C2237 C 0.28839 0.21622 0.42718 0.0
N2238 N 0.2568 0.24245 0.35582 0.0
N2239 N 0.29117 0.22804 0.40684 0.0
H2240 H 0.32157 0.57124 0.5569 0.0
H2241 H 0.41196 0.53021 0.46613 0.0
H2242 H 0.33945 0.60613 0.49236 0.0
H2243 H 0.4034 0.5063 0.53684 0.0
H2244 H 0.37824 0.55027 0.47088 0.0
H2245 H 0.34485 0.54047 0.54547 0.0
C2246 C 0.33034 0.57239 0.54025 0.0
C2247 C 0.32889 0.59155 0.52574 0.0
C2248 C 0.38344 0.5402 0.48514 0.0
C2249 C 0.35553 0.55622 0.51251 0.0
C2250 C 0.40252 0.52856 0.48236 0.0
C2251 C 0.41057 0.5169 0.50127 0.0
C2252 C 0.37243 0.54006 0.50695 0.0
C2253 C 0.39782 0.51531 0.52193 0.0
C2254 C 0.34356 0.55473 0.5337 0.0
C2255 C 0.34035 0.59186 0.50421 0.0
N2256 N 0.37956 0.52709 0.52436 0.0
N2257 N 0.3534 0.57457 0.49833 0.0
H2258 H 0.82643 0.9802 0.56006 0.0
H2259 H 0.94809 0.98284 0.49529 0.0
H2260 H 0.83989 0.91768 0.51339 0.0
H2261 H 0.94183 0.04167 0.55057 0.0
H2262 H 0.90588 0.96212 0.4975 0.0
H2263 H 0.86646 0.00574 0.5535 0.0
C2264 C 0.83774 0.97185 0.54844 0.0
C2265 C 0.82983 0.94667 0.53741 0.0
C2266 C 0.9136 0.97968 0.50904 0.0
C2267 C 0.87539 0.97583 0.52965 0.0
C2268 C 0.93768 0.99162 0.50765 0.0
C2269 C 0.94847 0.0139 0.52289 0.0
C2270 C 0.90014 0.98996 0.5259 0.0
C2271 C 0.93415 0.02445 0.53857 0.0
C2272 C 0.86054 0.98645 0.54469 0.0
C2273 C 0.84523 0.93689 0.52246 0.0
N2274 N 0.9107 0.01222 0.53987 0.0
N2275 N 0.86718 0.95146 0.51905 0.0
H2276 H 0.85816 0.11291 0.26602 0.0
H2277 H 0.75308 0.1816 0.23417 0.0
H2278 H 0.80856 0.09053 0.20257 0.0
H2279 H 0.80887 0.2119 0.29158 0.0
H2280 H 0.77037 0.14511 0.2256 0.0
H2281 H 0.83806 0.14671 0.27835 0.0
C2282 C 0.84305 0.11506 0.2547 0.0
C2283 C 0.83514 0.09891 0.23315 0.0
C2284 C 0.77873 0.15962 0.24022 0.0
C2285 C 0.81192 0.13741 0.24726 0.0
C2286 C 0.76874 0.18043 0.24526 0.0
C2287 C 0.77955 0.20001 0.26359 0.0
C2288 C 0.7997 0.15822 0.25359 0.0
C2289 C 0.79992 0.19736 0.27722 0.0
C2290 C 0.83157 0.13435 0.26175 0.0
C2291 C 0.81541 0.10258 0.21925 0.0
N2292 N 0.80941 0.17697 0.27186 0.0
N2293 N 0.80452 0.12138 0.22653 0.0
H2294 H 0.69774 0.15857 0.04007 0.0
H2295 H 0.59745 0.03515 0.99229 0.0
H2296 H 0.71497 0.08599 0.02398 0.0
H2297 H 0.58316 0.09129 0.04603 0.0
H2298 H 0.64038 0.05628 0.99814 0.0
H2299 H 0.65489 0.1368 0.03708 0.0
C2300 C 0.69249 0.13807 0.03593 0.0
C2301 C 0.70982 0.124 0.03222 0.0
C2302 C 0.6278 0.06387 0.00868 0.0
C2303 C 0.66118 0.09927 0.02845 0.0
C2304 C 0.60338 0.05197 0.00526 0.0
C2305 C 0.58688 0.06159 0.01869 0.0
C2306 C 0.6356 0.08581 0.02521 0.0
C2307 C 0.59542 0.08329 0.03541 0.0
C2308 C 0.66814 0.12572 0.03436 0.0
C2309 C 0.70214 0.0975 0.02704 0.0
N2310 N 0.61926 0.09491 0.03803 0.0
N2311 N 0.6783 0.08597 0.02501 0.0
H2312 H 0.16465 0.44508 0.27367 0.0
H2313 H 0.25369 0.38633 0.30863 0.0
H2314 H 0.20494 0.46197 0.21194 0.0
H2315 H 0.26975 0.3857 0.23424 0.0
H2316 H 0.22978 0.41723 0.30284 0.0
H2317 H 0.19504 0.42437 0.2883 0.0
C2318 C 0.18001 0.44462 0.26332 0.0
C2319 C 0.18215 0.45504 0.24146 0.0
C2320 C 0.23851 0.4104 0.28777 0.0
C2321 C 0.2175 0.43212 0.25843 0.0
C2322 C 0.25255 0.39313 0.29121 0.0
C2323 C 0.26332 0.38324 0.27176 0.0
C2324 C 0.2352 0.41754 0.26466 0.0
C2325 C 0.26146 0.39268 0.24962 0.0
C2326 C 0.19761 0.43311 0.27187 0.0
C2327 C 0.20244 0.45401 0.22881 0.0
N2328 N 0.24737 0.40908 0.24659 0.0
N2329 N 0.21918 0.44256 0.23738 0.0
H2330 H 0.18959 0.42901 0.00445 0.0
H2331 H 0.11294 0.52219 0.06209 0.0
H2332 H 0.2072 0.47064 0.07545 0.0
H2333 H 0.10569 0.49392 0.9866 0.0
H2334 H 0.14666 0.5023 0.06783 0.0
H2335 H 0.15757 0.45106 0.99803 0.0
C2336 C 0.18672 0.44276 0.01869 0.0
C2337 C 0.20111 0.44795 0.04053 0.0
C2338 C 0.13782 0.50061 0.04996 0.0
C2339 C 0.16445 0.47323 0.03333 0.0
C2340 C 0.11863 0.51201 0.04669 0.0
C2341 C 0.10661 0.50975 0.02383 0.0
C2342 C 0.14486 0.48661 0.03028 0.0
C2343 C 0.11455 0.49619 0.00452 0.0
C2344 C 0.1685 0.45541 0.01499 0.0
C2345 C 0.19659 0.46603 0.05832 0.0
N2346 N 0.13307 0.48499 0.0082 0.0
N2347 N 0.17863 0.47791 0.05437 0.0
H2348 H 0.80303 0.97579 0.22042 0.0
H2349 H 0.8032 0.83348 0.24413 0.0
H2350 H 0.86624 0.94565 0.2219 0.0
H2351 H 0.74106 0.86435 0.25111 0.0
H2352 H 0.82555 0.87353 0.23206 0.0
H2353 H 0.77866 0.93392 0.22691 0.0
C2354 C 0.81171 0.9603 0.22173 0.0
C2355 C 0.83673 0.96427 0.22085 0.0
C2356 C 0.80707 0.8717 0.23635 0.0
C2357 C 0.80909 0.91656 0.22844 0.0
C2358 C 0.7945 0.84895 0.24361 0.0
C2359 C 0.77067 0.84601 0.24941 0.0
C2360 C 0.79563 0.89168 0.23475 0.0
C2361 C 0.75961 0.8661 0.24709 0.0
C2362 C 0.79783 0.93648 0.22559 0.0
C2363 C 0.84705 0.94356 0.22273 0.0
N2364 N 0.77224 0.88822 0.24007 0.0
N2365 N 0.83323 0.9207 0.22658 0.0
H2366 H 0.62815 0.08934 0.71784 0.0
H2367 H 0.75137 0.18268 0.76488 0.0
H2368 H 0.69248 0.06181 0.72594 0.0
H2369 H 0.70555 0.20441 0.71153 0.0
H2370 H 0.72699 0.13882 0.75694 0.0
H2371 H 0.65338 0.13299 0.72124 0.0
C2372 C 0.64754 0.0925 0.72023 0.0
C2373 C 0.65832 0.07206 0.72161 0.0
C2374 C 0.72242 0.15322 0.74692 0.0
C2375 C 0.6869 0.12147 0.72597 0.0
C2376 C 0.73618 0.17814 0.75148 0.0
C2377 C 0.73039 0.19698 0.73876 0.0
C2378 C 0.70238 0.14738 0.73006 0.0
C2379 C 0.71062 0.19026 0.72154 0.0
C2380 C 0.66184 0.11727 0.72205 0.0
C2381 C 0.6835 0.07707 0.72467 0.0
N2382 N 0.69702 0.16596 0.71789 0.0
N2383 N 0.69696 0.10135 0.72711 0.0
loop_
_geom_bond_atom_site_label_1
_geom_bond_atom_site_label_2
_geom_bond_distance
_geom_bond_site_symmetry_2
_ccdc_geom_bond_type
O0 Cd1 2.223 . S
O0 C8 1.315 . S
Cd1 O0 2.223 . S
Cd1 O4 2.297 . S
Cd1 O5 2.439 . S
Cd1 O11 2.240 1_455 S
Cd2 O3 2.240 . S
Cd2 O10 2.223 1_455 S
Cd2 O12 2.320 . S
Cd2 O13 2.439 . S
O3 Cd2 2.240 . S
O3 C8 1.279 . S
O4 Cd1 2.297 . S
O4 C6 1.247 . S
O5 Cd1 2.439 . S
O5 C6 1.208 . S
C6 O4 1.247 . S
C6 O5 1.208 . S
C7 O12 1.283 . S
C7 O13 1.208 . S
C8 O0 1.315 . S
C8 O3 1.279 . S
C9 O10 1.315 . S
C9 O11 1.279 . S
O10 Cd2 2.223 1_655 S
O10 C9 1.315 . S
O11 Cd1 2.240 1_655 S
O11 C9 1.279 . S
O12 Cd2 2.320 . S
O12 C7 1.283 . S
O13 Cd2 2.439 . S
O13 C7 1.208 . S
O14 Cd15 2.223 1_455 S
O14 C22 1.317 . S
Cd15 O14 2.223 1_655 S
Cd15 O18 2.297 . S
Cd15 O19 2.439 . S
Cd15 O25 2.240 1_655 S
Cd16 O17 2.240 1_455 S
Cd16 O24 2.223 . S
Cd16 O26 2.297 . S
Cd16 O27 2.439 . S
O17 Cd16 2.240 1_655 S
O17 C22 1.272 1_655 S
O18 Cd15 2.297 . S
O18 C20 1.247 . S
O19 Cd15 2.439 . S
O19 C20 1.208 . S
C20 O18 1.247 . S
C20 O19 1.208 . S
C21 O26 1.247 . S
C21 O27 1.208 . S
C22 O14 1.317 . S
C22 O17 1.272 1_455 S
C23 O24 1.315 . S
C23 O25 1.279 . S
O24 Cd16 2.223 . S
O24 C23 1.315 . S
O25 Cd15 2.240 1_455 S
O25 C23 1.279 . S
O26 Cd16 2.297 . S
O26 C21 1.247 . S
O27 Cd16 2.439 . S
O27 C21 1.208 . S
O28 Cd29 2.223 . S
O28 C36 1.315 . S
Cd29 O28 2.223 . S
Cd29 O32 2.297 . S
Cd29 O33 2.439 . S
Cd29 O39 2.240 . S
Cd30 O31 2.240 . S
Cd30 O38 2.223 . S
Cd30 O40 2.297 . S
Cd30 O41 2.439 . S
O31 Cd30 2.240 . S
O31 C36 1.279 . S
O32 Cd29 2.297 . S
O32 C34 1.247 . S
O33 Cd29 2.439 . S
O33 C34 1.208 . S
C34 O32 1.247 . S
C34 O33 1.208 . S
C35 O40 1.247 . S
C35 O41 1.208 . S
C36 O28 1.315 . S
C36 O31 1.279 . S
C37 O38 1.315 . S
C37 O39 1.279 . S
O38 Cd30 2.223 . S
O38 C37 1.315 . S
O39 Cd29 2.240 . S
O39 C37 1.279 . S
O40 Cd30 2.297 . S
O40 C35 1.247 . S
O41 Cd30 2.439 . S
O41 C35 1.208 . S
O42 Cd43 2.223 . S
O42 C50 1.315 . S
Cd43 O42 2.223 . S
Cd43 O46 2.297 . S
Cd43 O47 2.439 . S
Cd43 O53 2.240 . S
Cd44 O45 2.240 . S
Cd44 O52 2.223 . S
Cd44 O54 2.297 . S
Cd44 O55 2.439 . S
O45 Cd44 2.240 . S
O45 C50 1.279 . S
O46 Cd43 2.297 . S
O46 C48 1.247 . S
O47 Cd43 2.439 . S
O47 C48 1.208 . S
C48 O46 1.247 . S
C48 O47 1.208 . S
C49 O54 1.247 . S
C49 O55 1.208 . S
C50 O42 1.315 . S
C50 O45 1.279 . S
C51 O52 1.315 . S
C51 O53 1.279 . S
O52 Cd44 2.223 . S
O52 C51 1.315 . S
O53 Cd43 2.240 . S
O53 C51 1.279 . S
O54 Cd44 2.297 . S
O54 C49 1.247 . S
O55 Cd44 2.439 . S
O55 C49 1.208 . S
O56 Cd57 2.223 . S
O56 C64 1.315 . S
Cd57 O56 2.223 . S
Cd57 O60 2.297 1_455 S
Cd57 O61 2.439 1_455 S
Cd57 O67 2.240 . S
Cd58 O59 2.240 . S
Cd58 O66 2.223 . S
Cd58 O68 2.297 . S
Cd58 O69 2.439 . S
O59 Cd58 2.240 . S
O59 C64 1.279 . S
O60 Cd57 2.297 1_655 S
O60 C62 1.247 . S
O61 Cd57 2.439 1_655 S
O61 C62 1.208 . S
C62 O60 1.247 . S
C62 O61 1.208 . S
C63 O68 1.247 . S
C63 O69 1.208 . S
C64 O56 1.315 . S
C64 O59 1.279 . S
C65 O66 1.315 . S
C65 O67 1.279 . S
O66 Cd58 2.223 . S
O66 C65 1.315 . S
O67 Cd57 2.240 . S
O67 C65 1.279 . S
O68 Cd58 2.297 . S
O68 C63 1.247 . S
O69 Cd58 2.439 . S
O69 C63 1.208 . S
O70 Cd71 2.223 . S
O70 C78 1.315 . S
Cd71 O70 2.223 . S
Cd71 O74 2.297 . S
Cd71 O75 2.439 . S
Cd71 O81 2.240 . S
Cd72 O73 2.240 . S
Cd72 O80 2.223 . S
Cd72 O82 2.297 . S
Cd72 O83 2.439 . S
O73 Cd72 2.240 . S
O73 C78 1.279 . S
O74 Cd71 2.297 . S
O74 C76 1.247 . S
O75 Cd71 2.439 . S
O75 C76 1.208 . S
C76 O74 1.247 . S
C76 O75 1.208 . S
C77 O82 1.247 . S
C77 O83 1.208 . S
C78 O70 1.315 . S
C78 O73 1.279 . S
C79 O80 1.315 . S
C79 O81 1.279 . S
O80 Cd72 2.223 . S
O80 C79 1.315 . S
O81 Cd71 2.240 . S
O81 C79 1.279 . S
O82 Cd72 2.297 . S
O82 C77 1.247 . S
O83 Cd72 2.439 . S
O83 C77 1.208 . S
O84 Cd85 2.223 . S
O84 C92 1.315 . S
Cd85 O84 2.223 . S
Cd85 O88 2.297 . S
Cd85 O89 2.439 . S
Cd85 O95 2.240 . S
Cd86 O87 2.240 . S
Cd86 O94 2.223 . S
Cd86 O96 2.297 . S
Cd86 O97 2.439 . S
O87 Cd86 2.240 . S
O87 C92 1.279 . S
O88 Cd85 2.297 . S
O88 C90 1.247 . S
O89 Cd85 2.439 . S
O89 C90 1.208 . S
C90 O88 1.247 . S
C90 O89 1.208 . S
C91 O96 1.247 . S
C91 O97 1.208 . S
C92 O84 1.315 . S
C92 O87 1.279 . S
C93 O94 1.315 . S
C93 O95 1.279 . S
O94 Cd86 2.223 . S
O94 C93 1.315 . S
O95 Cd85 2.240 . S
O95 C93 1.279 . S
O96 Cd86 2.297 . S
O96 C91 1.247 . S
O97 Cd86 2.439 . S
O97 C91 1.208 . S
O98 Cd99 2.223 1_655 S
O98 C106 1.315 . S
Cd99 O98 2.223 1_455 S
Cd99 O102 2.297 . S
Cd99 O103 2.439 . S
Cd99 O109 2.240 1_455 S
Cd100 O101 2.240 1_655 S
Cd100 O108 2.223 . S
Cd100 O110 2.297 . S
Cd100 O111 2.439 1_655 S
O101 Cd100 2.240 1_455 S
O101 C106 1.279 1_455 S
O102 Cd99 2.297 . S
O102 C104 1.247 . S
O103 Cd99 2.439 . S
O103 C104 1.208 . S
C104 O102 1.247 . S
C104 O103 1.208 . S
C105 O110 1.247 1_455 S
C105 O111 1.208 . S
C106 O98 1.315 . S
C106 O101 1.279 1_655 S
C107 O108 1.315 . S
C107 O109 1.279 . S
O108 Cd100 2.223 . S
O108 C107 1.315 . S
O109 Cd99 2.240 1_655 S
O109 C107 1.279 . S
O110 Cd100 2.297 . S
O110 C105 1.247 1_655 S
O111 Cd100 2.439 1_455 S
O111 C105 1.208 . S
O112 Cd113 2.223 . S
O112 C120 1.315 . S
Cd113 O112 2.223 . S
Cd113 O116 2.297 . S
Cd113 O117 2.439 . S
Cd113 O123 2.240 . S
Cd114 O115 2.240 . S
Cd114 O122 2.223 1_545 S
Cd114 O124 2.297 . S
Cd114 O125 2.439 . S
O115 Cd114 2.240 . S
O115 C120 1.279 . S
O116 Cd113 2.297 . S
O116 C118 1.247 . S
O117 Cd113 2.439 . S
O117 C118 1.208 . S
C118 O116 1.247 . S
C118 O117 1.208 . S
C119 O124 1.247 . S
C119 O125 1.208 . S
C120 O112 1.315 . S
C120 O115 1.279 . S
C121 O122 1.315 . S
C121 O123 1.279 1_565 S
O122 Cd114 2.223 1_565 S
O122 C121 1.315 . S
O123 Cd113 2.240 . S
O123 C121 1.279 1_545 S
O124 Cd114 2.297 . S
O124 C119 1.247 . S
O125 Cd114 2.439 . S
O125 C119 1.208 . S
O126 Cd127 2.223 . S
O126 C134 1.315 . S
Cd127 O126 2.223 . S
Cd127 O130 2.297 . S
Cd127 O131 2.439 . S
Cd127 O137 2.240 . S
Cd128 O129 2.240 . S
Cd128 O136 2.223 . S
Cd128 O138 2.297 . S
Cd128 O139 2.439 . S
O129 Cd128 2.240 . S
O129 C134 1.279 . S
O130 Cd127 2.297 . S
O130 C132 1.247 . S
O131 Cd127 2.439 . S
O131 C132 1.208 . S
C132 O130 1.247 . S
C132 O131 1.208 . S
C133 O138 1.247 . S
C133 O139 1.208 . S
C134 O126 1.315 . S
C134 O129 1.279 . S
C135 O136 1.315 . S
C135 O137 1.279 . S
O136 Cd128 2.223 . S
O136 C135 1.315 . S
O137 Cd127 2.240 . S
O137 C135 1.279 . S
O138 Cd128 2.297 . S
O138 C133 1.247 . S
O139 Cd128 2.439 . S
O139 C133 1.208 . S
O140 Cd141 2.223 1_545 S
O140 C148 1.315 1_545 S
Cd141 O140 2.223 1_565 S
Cd141 O144 2.297 . S
Cd141 O145 2.439 . S
Cd141 O151 2.240 1_565 S
Cd142 O143 2.240 1_545 S
Cd142 O150 2.223 . S
Cd142 O152 2.297 . S
Cd142 O153 2.439 1_545 S
O143 Cd142 2.240 1_565 S
O143 C148 1.279 . S
O144 Cd141 2.297 . S
O144 C146 1.247 . S
O145 Cd141 2.439 . S
O145 C146 1.208 . S
C146 O144 1.247 . S
C146 O145 1.208 . S
C147 O152 1.247 . S
C147 O153 1.208 1_545 S
C148 O140 1.315 1_565 S
C148 O143 1.279 . S
C149 O150 1.315 . S
C149 O151 1.279 . S
O150 Cd142 2.223 . S
O150 C149 1.315 . S
O151 Cd141 2.240 1_545 S
O151 C149 1.279 . S
O152 Cd142 2.297 . S
O152 C147 1.247 . S
O153 Cd142 2.439 1_565 S
O153 C147 1.208 1_565 S
O154 Cd155 2.223 . S
O154 C162 1.315 . S
Cd155 O154 2.223 . S
Cd155 O158 2.297 . S
Cd155 O159 2.439 . S
Cd155 O165 2.240 . S
Cd156 O157 2.240 . S
Cd156 O164 2.223 . S
Cd156 O166 2.297 1_554 S
Cd156 O167 2.439 1_554 S
O157 Cd156 2.240 . S
O157 C162 1.279 . S
O158 Cd155 2.297 . S
O158 C160 1.247 . S
O159 Cd155 2.439 . S
O159 C160 1.208 . S
C160 O158 1.247 . S
C160 O159 1.208 . S
C161 O166 1.247 . S
C161 O167 1.208 . S
C162 O154 1.315 . S
C162 O157 1.279 . S
C163 O164 1.315 . S
C163 O165 1.279 . S
O164 Cd156 2.223 . S
O164 C163 1.315 . S
O165 Cd155 2.240 . S
O165 C163 1.279 . S
O166 Cd156 2.297 1_556 S
O166 C161 1.247 . S
O167 Cd156 2.439 1_556 S
O167 C161 1.208 . S
O168 Cd169 2.223 . S
O168 C176 1.315 . S
Cd169 O168 2.223 . S
Cd169 O172 2.297 . S
Cd169 O173 2.439 . S
Cd169 O179 2.240 . S
Cd170 O171 2.240 . S
Cd170 O178 2.223 . S
Cd170 O180 2.297 1_554 S
Cd170 O181 2.439 1_554 S
O171 Cd170 2.240 . S
O171 C176 1.279 . S
O172 Cd169 2.297 . S
O172 C174 1.247 . S
O173 Cd169 2.439 . S
O173 C174 1.208 . S
C174 O172 1.247 . S
C174 O173 1.208 . S
C175 O180 1.247 . S
C175 O181 1.208 . S
C176 O168 1.315 . S
C176 O171 1.279 . S
C177 O178 1.315 . S
C177 O179 1.279 . S
O178 Cd170 2.223 . S
O178 C177 1.315 . S
O179 Cd169 2.240 . S
O179 C177 1.279 . S
O180 Cd170 2.297 1_556 S
O180 C175 1.247 . S
O181 Cd170 2.439 1_556 S
O181 C175 1.208 . S
O182 Cd183 2.223 . S
O182 C190 1.315 . S
Cd183 O182 2.223 . S
Cd183 O186 2.297 . S
Cd183 O187 2.439 1_554 S
Cd183 O193 2.240 1_554 S
Cd184 O185 2.240 1_556 S
Cd184 O192 2.223 1_556 S
Cd184 O194 2.297 . S
Cd184 O195 2.439 . S
O185 Cd184 2.240 1_554 S
O185 C190 1.279 . S
O186 Cd183 2.297 . S
O186 C188 1.247 . S
O187 Cd183 2.439 1_556 S
O187 C188 1.208 1_556 S
C188 O186 1.247 . S
C188 O187 1.208 1_554 S
C189 O194 1.247 . S
C189 O195 1.208 . S
C190 O182 1.315 . S
C190 O185 1.279 . S
C191 O192 1.315 . S
C191 O193 1.281 1_554 S
O192 Cd184 2.223 1_554 S
O192 C191 1.315 . S
O193 Cd183 2.240 1_556 S
O193 C191 1.281 1_556 S
O194 Cd184 2.297 . S
O194 C189 1.247 . S
O195 Cd184 2.439 . S
O195 C189 1.208 . S
O196 Cd197 2.223 . S
O196 C204 1.315 . S
Cd197 O196 2.223 . S
Cd197 O200 2.297 . S
Cd197 O201 2.439 . S
Cd197 O207 2.240 . S
Cd198 O199 2.240 . S
Cd198 O206 2.223 . S
Cd198 O208 2.297 . S
Cd198 O209 2.439 . S
O199 Cd198 2.240 . S
O199 C204 1.279 . S
O200 Cd197 2.297 . S
O200 C202 1.247 . S
O201 Cd197 2.439 . S
O201 C202 1.208 . S
C202 O200 1.247 . S
C202 O201 1.208 . S
C203 O208 1.247 . S
C203 O209 1.208 . S
C204 O196 1.315 . S
C204 O199 1.279 . S
C205 O206 1.315 . S
C205 O207 1.279 . S
O206 Cd198 2.223 . S
O206 C205 1.315 . S
O207 Cd197 2.240 . S
O207 C205 1.279 . S
O208 Cd198 2.297 . S
O208 C203 1.247 . S
O209 Cd198 2.439 . S
O209 C203 1.208 . S
O210 Cd211 2.223 . S
O210 C218 1.315 . S
Cd211 O210 2.223 . S
Cd211 O214 2.297 . S
Cd211 O215 2.439 . S
Cd211 O221 2.240 . S
Cd212 O213 2.240 . S
Cd212 O220 2.223 . S
Cd212 O222 2.297 . S
Cd212 O223 2.439 . S
O213 Cd212 2.240 . S
O213 C218 1.279 . S
O214 Cd211 2.297 . S
O214 C216 1.247 . S
O215 Cd211 2.439 . S
O215 C216 1.208 . S
C216 O214 1.247 . S
C216 O215 1.208 . S
C217 O222 1.247 . S
C217 O223 1.208 . S
C218 O210 1.315 . S
C218 O213 1.279 . S
C219 O220 1.315 . S
C219 O221 1.279 . S
O220 Cd212 2.223 . S
O220 C219 1.315 . S
O221 Cd211 2.240 . S
O221 C219 1.279 . S
O222 Cd212 2.297 . S
O222 C217 1.247 . S
O223 Cd212 2.439 . S
O223 C217 1.208 . S
O224 Cd225 2.223 . S
O224 C232 1.315 . S
Cd225 O224 2.223 . S
Cd225 O228 2.297 . S
Cd225 O229 2.439 . S
Cd225 O235 2.240 . S
Cd226 O227 2.240 . S
Cd226 O234 2.223 . S
Cd226 O236 2.297 . S
Cd226 O237 2.439 . S
O227 Cd226 2.240 . S
O227 C232 1.279 . S
O228 Cd225 2.297 . S
O228 C230 1.247 . S
O229 Cd225 2.439 . S
O229 C230 1.208 . S
C230 O228 1.247 . S
C230 O229 1.208 . S
C231 O236 1.247 . S
C231 O237 1.208 . S
C232 O224 1.315 . S
C232 O227 1.279 . S
C233 O234 1.315 . S
C233 O235 1.279 . S
O234 Cd226 2.223 . S
O234 C233 1.315 . S
O235 Cd225 2.240 . S
O235 C233 1.279 . S
O236 Cd226 2.297 . S
O236 C231 1.247 . S
O237 Cd226 2.439 . S
O237 C231 1.208 . S
O238 Cd239 2.223 . S
O238 C246 1.315 . S
Cd239 O238 2.223 . S
Cd239 O242 2.297 . S
Cd239 O243 2.439 . S
Cd239 O249 2.240 . S
Cd240 O241 2.240 . S
Cd240 O248 2.223 . S
Cd240 O250 2.297 . S
Cd240 O251 2.439 . S
O241 Cd240 2.240 . S
O241 C246 1.279 . S
O242 Cd239 2.297 . S
O242 C244 1.247 . S
O243 Cd239 2.439 . S
O243 C244 1.208 . S
C244 O242 1.247 . S
C244 O243 1.208 . S
C245 O250 1.247 . S
C245 O251 1.208 . S
C246 O238 1.315 . S
C246 O241 1.279 . S
C247 O248 1.315 . S
C247 O249 1.279 . S
O248 Cd240 2.223 . S
O248 C247 1.315 . S
O249 Cd239 2.240 . S
O249 C247 1.279 . S
O250 Cd240 2.297 . S
O250 C245 1.247 . S
O251 Cd240 2.439 . S
O251 C245 1.208 . S
O252 Cd253 2.223 . S
O252 C260 1.315 . S
Cd253 O252 2.223 . S
Cd253 O256 2.297 . S
Cd253 O257 2.439 . S
Cd253 O263 2.240 . S
Cd254 O255 2.240 . S
Cd254 O262 2.223 . S
Cd254 O264 2.297 . S
Cd254 O265 2.439 . S
O255 Cd254 2.240 . S
O255 C260 1.279 . S
O256 Cd253 2.297 . S
O256 C258 1.247 . S
O257 Cd253 2.439 . S
O257 C258 1.208 . S
C258 O256 1.247 . S
C258 O257 1.208 . S
C259 O264 1.247 . S
C259 O265 1.208 . S
C260 O252 1.315 . S
C260 O255 1.279 . S
C261 O262 1.315 . S
C261 O263 1.279 . S
O262 Cd254 2.223 . S
O262 C261 1.315 . S
O263 Cd253 2.240 . S
O263 C261 1.279 . S
O264 Cd254 2.297 . S
O264 C259 1.247 . S
O265 Cd254 2.439 . S
O265 C259 1.208 . S
O266 Cd267 2.223 . S
O266 C274 1.315 . S
Cd267 O266 2.223 . S
Cd267 O270 2.297 1_545 S
Cd267 O271 2.439 1_545 S
Cd267 O277 2.240 . S
Cd268 O269 2.240 . S
Cd268 O276 2.223 . S
Cd268 O278 2.297 . S
Cd268 O279 2.439 . S
O269 Cd268 2.240 . S
O269 C274 1.279 . S
O270 Cd267 2.297 1_565 S
O270 C272 1.247 . S
O271 Cd267 2.439 1_565 S
O271 C272 1.208 . S
C272 O270 1.247 . S
C272 O271 1.208 . S
C273 O278 1.247 . S
C273 O279 1.208 . S
C274 O266 1.315 . S
C274 O269 1.279 . S
C275 O276 1.315 . S
C275 O277 1.279 . S
O276 Cd268 2.223 . S
O276 C275 1.315 . S
O277 Cd267 2.240 . S
O277 C275 1.279 . S
O278 Cd268 2.297 . S
O278 C273 1.247 . S
O279 Cd268 2.439 . S
O279 C273 1.208 . S
O280 Cd281 2.223 . S
O280 C288 1.315 . S
Cd281 O280 2.223 . S
Cd281 O284 2.297 . S
Cd281 O285 2.439 . S
Cd281 O291 2.240 . S
Cd282 O283 2.240 . S
Cd282 O290 2.223 . S
Cd282 O292 2.297 1_554 S
Cd282 O293 2.439 1_554 S
O283 Cd282 2.240 . S
O283 C288 1.279 . S
O284 Cd281 2.297 . S
O284 C286 1.247 . S
O285 Cd281 2.439 . S
O285 C286 1.208 . S
C286 O284 1.247 . S
C286 O285 1.208 . S
C287 O292 1.247 . S
C287 O293 1.208 . S
C288 O280 1.315 . S
C288 O283 1.279 . S
C289 O290 1.315 . S
C289 O291 1.279 . S
O290 Cd282 2.223 . S
O290 C289 1.315 . S
O291 Cd281 2.240 . S
O291 C289 1.279 . S
O292 Cd282 2.297 1_556 S
O292 C287 1.247 . S
O293 Cd282 2.439 1_556 S
O293 C287 1.208 . S
O294 Cd295 2.223 . S
O294 C302 1.315 . S
Cd295 O294 2.223 . S
Cd295 O298 2.297 . S
Cd295 O299 2.439 . S
Cd295 O305 2.240 . S
Cd296 O297 2.240 . S
Cd296 O304 2.223 . S
Cd296 O306 2.297 . S
Cd296 O307 2.439 . S
O297 Cd296 2.240 . S
O297 C302 1.279 . S
O298 Cd295 2.297 . S
O298 C300 1.247 . S
O299 Cd295 2.439 . S
O299 C300 1.208 . S
C300 O298 1.247 . S
C300 O299 1.208 . S
C301 O306 1.247 . S
C301 O307 1.208 . S
C302 O294 1.315 . S
C302 O297 1.279 . S
C303 O304 1.315 . S
C303 O305 1.279 . S
O304 Cd296 2.223 . S
O304 C303 1.315 . S
O305 Cd295 2.240 . S
O305 C303 1.279 . S
O306 Cd296 2.297 . S
O306 C301 1.247 . S
O307 Cd296 2.439 . S
O307 C301 1.208 . S
O308 Cd309 2.223 . S
O308 C316 1.315 . S
Cd309 O308 2.223 . S
Cd309 O312 2.297 . S
Cd309 O313 2.439 . S
Cd309 O319 2.240 . S
Cd310 O311 2.240 . S
Cd310 O318 2.223 . S
Cd310 O320 2.297 . S
Cd310 O321 2.439 . S
O311 Cd310 2.240 . S
O311 C316 1.279 . S
O312 Cd309 2.297 . S
O312 C314 1.247 . S
O313 Cd309 2.439 . S
O313 C314 1.208 . S
C314 O312 1.247 . S
C314 O313 1.208 . S
C315 O320 1.247 . S
C315 O321 1.208 . S
C316 O308 1.315 . S
C316 O311 1.279 . S
C317 O318 1.315 . S
C317 O319 1.279 . S
O318 Cd310 2.223 . S
O318 C317 1.315 . S
O319 Cd309 2.240 . S
O319 C317 1.279 . S
O320 Cd310 2.297 . S
O320 C315 1.247 . S
O321 Cd310 2.439 . S
O321 C315 1.208 . S
O322 Cd323 2.223 . S
O322 C330 1.315 . S
Cd323 O322 2.223 . S
Cd323 O326 2.297 . S
Cd323 O327 2.439 . S
Cd323 O333 2.240 . S
Cd324 O325 2.240 . S
Cd324 O332 2.223 . S
Cd324 O334 2.297 . S
Cd324 O335 2.439 . S
O325 Cd324 2.240 . S
O325 C330 1.279 . S
O326 Cd323 2.297 . S
O326 C328 1.247 . S
O327 Cd323 2.439 . S
O327 C328 1.208 . S
C328 O326 1.247 . S
C328 O327 1.208 . S
C329 O334 1.247 . S
C329 O335 1.208 . S
C330 O322 1.315 . S
C330 O325 1.279 . S
C331 O332 1.315 . S
C331 O333 1.279 . S
O332 Cd324 2.223 . S
O332 C331 1.315 . S
O333 Cd323 2.240 . S
O333 C331 1.279 . S
O334 Cd324 2.297 . S
O334 C329 1.247 . S
O335 Cd324 2.439 . S
O335 C329 1.208 . S
Dy336 O340 2.398 1_554 S
Dy336 O341 2.491 . S
Dy336 O342 2.403 1_554 S
Dy336 O343 2.664 1_654 S
Dy336 O347 2.319 1_654 S
Dy336 O351 2.310 1_655 S
Dy336 O352 2.351 1_545 S
C337 O348 1.185 . S
C337 O349 1.355 . S
C338 O340 1.185 . S
C338 O341 1.355 1_556 S
Dy339 O343 2.310 1_554 S
Dy339 O346 2.351 . S
Dy339 O348 2.398 . S
Dy339 O349 2.491 . S
Dy339 O350 2.403 . S
Dy339 O351 2.664 . S
Dy339 O353 2.326 . S
O340 Dy336 2.398 1_556 S
O340 C338 1.185 . S
O341 Dy336 2.491 . S
O341 C338 1.355 1_554 S
O342 Dy336 2.403 1_556 S
O342 C344 1.254 1_655 S
O343 Dy336 2.664 1_456 S
O343 Dy339 2.310 1_556 S
O343 C344 1.268 . S
C344 O342 1.254 1_455 S
C344 O343 1.268 . S
C345 O350 1.254 . S
C345 O351 1.268 . S
O346 Dy339 2.351 . S
O346 C354 1.249 . S
O347 Dy336 2.319 1_456 S
O347 C354 1.284 1_556 S
O348 C337 1.185 . S
O348 Dy339 2.398 . S
O349 C337 1.355 . S
O349 Dy339 2.491 . S
O350 Dy339 2.403 . S
O350 C345 1.254 . S
O351 Dy336 2.310 1_455 S
O351 Dy339 2.664 . S
O351 C345 1.268 . S
O352 Dy336 2.351 1_565 S
O352 C355 1.249 1_655 S
O353 Dy339 2.326 . S
O353 C355 1.267 1_545 S
C354 O346 1.249 . S
C354 O347 1.284 1_554 S
C355 O352 1.249 1_455 S
C355 O353 1.267 1_565 S
Dy356 O360 2.398 . S
Dy356 O361 2.491 . S
Dy356 O362 2.403 . S
Dy356 O363 2.664 . S
Dy356 O367 2.326 . S
Dy356 O371 2.310 . S
Dy356 O372 2.351 . S
C357 O368 1.185 . S
C357 O369 1.355 . S
C358 O360 1.185 . S
C358 O361 1.355 . S
Dy359 O363 2.310 . S
Dy359 O366 2.351 . S
Dy359 O368 2.398 . S
Dy359 O369 2.491 . S
Dy359 O370 2.403 . S
Dy359 O371 2.664 . S
Dy359 O373 2.326 . S
O360 Dy356 2.398 . S
O360 C358 1.185 . S
O361 Dy356 2.491 . S
O361 C358 1.355 . S
O362 Dy356 2.403 . S
O362 C364 1.254 . S
O363 Dy356 2.664 . S
O363 Dy359 2.310 . S
O363 C364 1.268 . S
C364 O362 1.254 . S
C364 O363 1.268 . S
C365 O370 1.254 . S
C365 O371 1.268 . S
O366 Dy359 2.351 . S
O366 C374 1.249 . S
O367 Dy356 2.326 . S
O367 C374 1.267 . S
O368 C357 1.185 . S
O368 Dy359 2.398 . S
O369 C357 1.355 . S
O369 Dy359 2.491 . S
O370 Dy359 2.403 . S
O370 C365 1.254 . S
O371 Dy356 2.310 . S
O371 Dy359 2.664 . S
O371 C365 1.268 . S
O372 Dy356 2.351 . S
O372 C375 1.249 . S
O373 Dy359 2.326 . S
O373 C375 1.267 . S
C374 O366 1.249 . S
C374 O367 1.267 . S
C375 O372 1.249 . S
C375 O373 1.267 . S
Dy376 O380 2.398 . S
Dy376 O381 2.491 . S
Dy376 O382 2.403 . S
Dy376 O383 2.664 . S
Dy376 O387 2.326 1_545 S
Dy376 O391 2.310 . S
Dy376 O392 2.351 . S
C377 O388 1.185 . S
C377 O389 1.355 . S
C378 O380 1.185 . S
C378 O381 1.355 . S
Dy379 O383 2.310 . S
Dy379 O386 2.351 1_545 S
Dy379 O388 2.398 . S
Dy379 O389 2.491 . S
Dy379 O390 2.403 . S
Dy379 O391 2.664 . S
Dy379 O393 2.326 . S
O380 Dy376 2.398 . S
O380 C378 1.185 . S
O381 Dy376 2.491 . S
O381 C378 1.355 . S
O382 Dy376 2.403 . S
O382 C384 1.254 . S
O383 Dy376 2.664 . S
O383 Dy379 2.310 . S
O383 C384 1.268 . S
C384 O382 1.254 . S
C384 O383 1.268 . S
C385 O390 1.254 . S
C385 O391 1.268 . S
O386 Dy379 2.351 1_565 S
O386 C394 1.249 . S
O387 Dy376 2.326 1_565 S
O387 C394 1.267 . S
O388 C377 1.185 . S
O388 Dy379 2.398 . S
O389 C377 1.355 . S
O389 Dy379 2.491 . S
O390 Dy379 2.403 . S
O390 C385 1.254 . S
O391 Dy376 2.310 . S
O391 Dy379 2.664 . S
O391 C385 1.268 . S
O392 Dy376 2.351 . S
O392 C395 1.249 . S
O393 Dy379 2.326 . S
O393 C395 1.267 . S
C394 O386 1.249 . S
C394 O387 1.267 . S
C395 O392 1.249 . S
C395 O393 1.267 . S
Dy396 O400 2.398 . S
Dy396 O401 2.491 . S
Dy396 O402 2.403 . S
Dy396 O403 2.664 . S
Dy396 O407 2.326 . S
Dy396 O411 2.310 . S
Dy396 O412 2.351 . S
C397 O408 1.185 . S
C397 O409 1.355 . S
C398 O400 1.185 . S
C398 O401 1.355 . S
Dy399 O403 2.310 . S
Dy399 O406 2.351 . S
Dy399 O408 2.398 . S
Dy399 O409 2.491 . S
Dy399 O410 2.403 . S
Dy399 O411 2.664 . S
Dy399 O413 2.326 . S
O400 Dy396 2.398 . S
O400 C398 1.185 . S
O401 Dy396 2.491 . S
O401 C398 1.355 . S
O402 Dy396 2.403 . S
O402 C404 1.254 . S
O403 Dy396 2.664 . S
O403 Dy399 2.310 . S
O403 C404 1.268 . S
C404 O402 1.254 . S
C404 O403 1.268 . S
C405 O410 1.254 . S
C405 O411 1.268 . S
O406 Dy399 2.351 . S
O406 C414 1.249 . S
O407 Dy396 2.326 . S
O407 C414 1.267 . S
O408 C397 1.185 . S
O408 Dy399 2.398 . S
O409 C397 1.355 . S
O409 Dy399 2.491 . S
O410 Dy399 2.403 . S
O410 C405 1.254 . S
O411 Dy396 2.310 . S
O411 Dy399 2.664 . S
O411 C405 1.268 . S
O412 Dy396 2.351 . S
O412 C415 1.249 . S
O413 Dy399 2.326 . S
O413 C415 1.267 . S
C414 O406 1.249 . S
C414 O407 1.267 . S
C415 O412 1.249 . S
C415 O413 1.267 . S
Dy416 O420 2.398 . S
Dy416 O421 2.491 1_455 S
Dy416 O422 2.403 . S
Dy416 O423 2.664 . S
Dy416 O427 2.326 . S
Dy416 O431 2.310 1_455 S
Dy416 O432 2.351 1_545 S
C417 O428 1.185 . S
C417 O429 1.355 . S
C418 O420 1.185 . S
C418 O421 1.355 1_455 S
Dy419 O423 2.310 . S
Dy419 O426 2.351 . S
Dy419 O428 2.398 . S
Dy419 O429 2.491 . S
Dy419 O430 2.403 1_455 S
Dy419 O431 2.664 1_455 S
Dy419 O433 2.326 . S
O420 Dy416 2.398 . S
O420 C418 1.185 . S
O421 Dy416 2.491 1_655 S
O421 C418 1.355 1_655 S
O422 Dy416 2.403 . S
O422 C424 1.254 . S
O423 Dy416 2.664 . S
O423 Dy419 2.310 . S
O423 C424 1.268 . S
C424 O422 1.254 . S
C424 O423 1.268 . S
C425 O430 1.254 . S
C425 O431 1.268 . S
O426 Dy419 2.351 . S
O426 C434 1.249 . S
O427 Dy416 2.326 . S
O427 C434 1.267 . S
O428 C417 1.185 . S
O428 Dy419 2.398 . S
O429 C417 1.355 . S
O429 Dy419 2.491 . S
O430 Dy419 2.403 1_655 S
O430 C425 1.254 . S
O431 Dy416 2.310 1_655 S
O431 Dy419 2.664 1_655 S
O431 C425 1.268 . S
O432 Dy416 2.351 1_565 S
O432 C435 1.249 . S
O433 Dy419 2.326 . S
O433 C435 1.267 1_545 S
C434 O426 1.249 . S
C434 O427 1.267 . S
C435 O432 1.249 . S
C435 O433 1.267 1_565 S
Dy436 O440 2.398 . S
Dy436 O441 2.491 . S
Dy436 O442 2.403 . S
Dy436 O443 2.664 . S
Dy436 O447 2.326 . S
Dy436 O451 2.310 . S
Dy436 O452 2.351 . S
C437 O448 1.185 . S
C437 O449 1.355 . S
C438 O440 1.185 . S
C438 O441 1.355 . S
Dy439 O443 2.310 . S
Dy439 O446 2.351 . S
Dy439 O448 2.398 . S
Dy439 O449 2.491 . S
Dy439 O450 2.403 . S
Dy439 O451 2.664 . S
Dy439 O453 2.326 . S
O440 Dy436 2.398 . S
O440 C438 1.185 . S
O441 Dy436 2.491 . S
O441 C438 1.355 . S
O442 Dy436 2.403 . S
O442 C444 1.254 . S
O443 Dy436 2.664 . S
O443 Dy439 2.310 . S
O443 C444 1.268 . S
C444 O442 1.254 . S
C444 O443 1.268 . S
C445 O450 1.254 . S
C445 O451 1.268 . S
O446 Dy439 2.351 . S
O446 C454 1.249 . S
O447 Dy436 2.326 . S
O447 C454 1.267 . S
O448 C437 1.185 . S
O448 Dy439 2.398 . S
O449 C437 1.355 . S
O449 Dy439 2.491 . S
O450 Dy439 2.403 . S
O450 C445 1.254 . S
O451 Dy436 2.310 . S
O451 Dy439 2.664 . S
O451 C445 1.268 . S
O452 Dy436 2.351 . S
O452 C455 1.249 . S
O453 Dy439 2.326 . S
O453 C455 1.267 . S
C454 O446 1.249 . S
C454 O447 1.267 . S
C455 O452 1.249 . S
C455 O453 1.267 . S
Dy456 O460 2.398 1_545 S
Dy456 O461 2.491 . S
Dy456 O462 2.403 1_545 S
Dy456 O463 2.664 . S
Dy456 O467 2.326 . S
Dy456 O471 2.310 . S
Dy456 O472 2.351 . S
C457 O468 1.185 . S
C457 O469 1.355 . S
C458 O460 1.185 1_545 S
C458 O461 1.355 . S
Dy459 O463 2.310 1_556 S
Dy459 O466 2.351 1_556 S
Dy459 O468 2.398 . S
Dy459 O469 2.491 . S
Dy459 O470 2.403 1_556 S
Dy459 O471 2.664 1_556 S
Dy459 O473 2.326 1_556 S
O460 Dy456 2.398 1_565 S
O460 C458 1.185 1_565 S
O461 Dy456 2.491 . S
O461 C458 1.355 . S
O462 Dy456 2.403 1_565 S
O462 C464 1.254 . S
O463 Dy456 2.664 . S
O463 Dy459 2.310 1_554 S
O463 C464 1.268 1_545 S
C464 O462 1.254 . S
C464 O463 1.268 1_565 S
C465 O470 1.254 . S
C465 O471 1.268 . S
O466 Dy459 2.351 1_554 S
O466 C474 1.249 . S
O467 Dy456 2.326 . S
O467 C474 1.267 . S
O468 C457 1.185 . S
O468 Dy459 2.398 . S
O469 C457 1.355 . S
O469 Dy459 2.491 . S
O470 Dy459 2.403 1_554 S
O470 C465 1.254 . S
O471 Dy456 2.310 . S
O471 Dy459 2.664 1_554 S
O471 C465 1.268 . S
O472 Dy456 2.351 . S
O472 C475 1.249 . S
O473 Dy459 2.326 1_554 S
O473 C475 1.267 . S
C474 O466 1.249 . S
C474 O467 1.267 . S
C475 O472 1.249 . S
C475 O473 1.267 . S
Dy476 O480 2.398 . S
Dy476 O481 2.491 . S
Dy476 O482 2.403 . S
Dy476 O483 2.664 . S
Dy476 O487 2.326 . S
Dy476 O491 2.310 . S
Dy476 O492 2.351 . S
C477 O488 1.185 . S
C477 O489 1.355 . S
C478 O480 1.185 . S
C478 O481 1.355 . S
Dy479 O483 2.310 . S
Dy479 O486 2.351 . S
Dy479 O488 2.398 . S
Dy479 O489 2.491 . S
Dy479 O490 2.403 . S
Dy479 O491 2.664 . S
Dy479 O493 2.326 . S
O480 Dy476 2.398 . S
O480 C478 1.185 . S
O481 Dy476 2.491 . S
O481 C478 1.355 . S
O482 Dy476 2.403 . S
O482 C484 1.254 . S
O483 Dy476 2.664 . S
O483 Dy479 2.310 . S
O483 C484 1.268 . S
C484 O482 1.254 . S
C484 O483 1.268 . S
C485 O490 1.254 . S
C485 O491 1.268 . S
O486 Dy479 2.351 . S
O486 C494 1.249 . S
O487 Dy476 2.326 . S
O487 C494 1.267 . S
O488 C477 1.185 . S
O488 Dy479 2.398 . S
O489 C477 1.355 . S
O489 Dy479 2.491 . S
O490 Dy479 2.403 . S
O490 C485 1.254 . S
O491 Dy476 2.310 . S
O491 Dy479 2.664 . S
O491 C485 1.268 . S
O492 Dy476 2.351 . S
O492 C495 1.249 . S
O493 Dy479 2.326 . S
O493 C495 1.267 . S
C494 O486 1.249 . S
C494 O487 1.267 . S
C495 O492 1.249 . S
C495 O493 1.267 . S
Dy496 O500 2.398 . S
Dy496 O501 2.491 . S
Dy496 O502 2.403 . S
Dy496 O503 2.664 1_556 S
Dy496 O507 2.326 . S
Dy496 O511 2.310 1_556 S
Dy496 O512 2.351 1_556 S
C497 O508 1.185 . S
C497 O509 1.355 . S
C498 O500 1.185 . S
C498 O501 1.355 . S
Dy499 O503 2.310 . S
Dy499 O506 2.351 . S
Dy499 O508 2.398 . S
Dy499 O509 2.491 . S
Dy499 O510 2.403 . S
Dy499 O511 2.664 . S
Dy499 O513 2.326 . S
O500 Dy496 2.398 . S
O500 C498 1.185 . S
O501 Dy496 2.491 . S
O501 C498 1.355 . S
O502 Dy496 2.403 . S
O502 C504 1.254 1_556 S
O503 Dy496 2.664 1_554 S
O503 Dy499 2.310 . S
O503 C504 1.268 . S
C504 O502 1.254 1_554 S
C504 O503 1.268 . S
C505 O510 1.254 . S
C505 O511 1.268 . S
O506 Dy499 2.351 . S
O506 C514 1.249 . S
O507 Dy496 2.326 . S
O507 C514 1.267 1_556 S
O508 C497 1.185 . S
O508 Dy499 2.398 . S
O509 C497 1.355 . S
O509 Dy499 2.491 . S
O510 Dy499 2.403 . S
O510 C505 1.254 . S
O511 Dy496 2.310 1_554 S
O511 Dy499 2.664 . S
O511 C505 1.268 . S
O512 Dy496 2.351 1_554 S
O512 C515 1.249 . S
O513 Dy499 2.326 . S
O513 C515 1.267 . S
C514 O506 1.249 . S
C514 O507 1.267 1_554 S
C515 O512 1.249 . S
C515 O513 1.267 . S
Dy516 O520 2.398 . S
Dy516 O521 2.491 . S
Dy516 O522 2.403 . S
Dy516 O523 2.664 . S
Dy516 O527 2.326 . S
Dy516 O531 2.310 . S
Dy516 O532 2.351 . S
C517 O528 1.185 . S
C517 O529 1.355 . S
C518 O520 1.185 . S
C518 O521 1.355 . S
Dy519 O523 2.310 . S
Dy519 O526 2.351 . S
Dy519 O528 2.398 . S
Dy519 O529 2.491 . S
Dy519 O530 2.403 . S
Dy519 O531 2.664 . S
Dy519 O533 2.326 . S
O520 Dy516 2.398 . S
O520 C518 1.185 . S
O521 Dy516 2.491 . S
O521 C518 1.355 . S
O522 Dy516 2.403 . S
O522 C524 1.254 . S
O523 Dy516 2.664 . S
O523 Dy519 2.310 . S
O523 C524 1.268 . S
C524 O522 1.254 . S
C524 O523 1.268 . S
C525 O530 1.254 . S
C525 O531 1.268 . S
O526 Dy519 2.351 . S
O526 C534 1.249 . S
O527 Dy516 2.326 . S
O527 C534 1.267 . S
O528 C517 1.185 . S
O528 Dy519 2.398 . S
O529 C517 1.355 . S
O529 Dy519 2.491 . S
O530 Dy519 2.403 . S
O530 C525 1.254 . S
O531 Dy516 2.310 . S
O531 Dy519 2.664 . S
O531 C525 1.268 . S
O532 Dy516 2.351 . S
O532 C535 1.249 . S
O533 Dy519 2.326 . S
O533 C535 1.267 . S
C534 O526 1.249 . S
C534 O527 1.267 . S
C535 O532 1.249 . S
C535 O533 1.267 . S
Dy536 O540 2.398 1_455 S
Dy536 O541 2.491 1_455 S
Dy536 O542 2.403 . S
Dy536 O543 2.664 . S
Dy536 O547 2.326 1_455 S
Dy536 O551 2.310 . S
Dy536 O552 2.351 . S
C537 O548 1.185 . S
C537 O549 1.355 . S
C538 O540 1.185 . S
C538 O541 1.355 . S
Dy539 O543 2.310 . S
Dy539 O546 2.351 1_455 S
Dy539 O548 2.398 . S
Dy539 O549 2.491 . S
Dy539 O550 2.403 . S
Dy539 O551 2.664 . S
Dy539 O553 2.326 . S
O540 Dy536 2.398 1_655 S
O540 C538 1.185 . S
O541 Dy536 2.491 1_655 S
O541 C538 1.355 . S
O542 Dy536 2.403 . S
O542 C544 1.254 . S
O543 Dy536 2.664 . S
O543 Dy539 2.310 . S
O543 C544 1.268 . S
C544 O542 1.254 . S
C544 O543 1.268 . S
C545 O550 1.254 . S
C545 O551 1.268 . S
O546 Dy539 2.351 1_655 S
O546 C554 1.249 . S
O547 Dy536 2.326 1_655 S
O547 C554 1.267 . S
O548 C537 1.185 . S
O548 Dy539 2.398 . S
O549 C537 1.355 . S
O549 Dy539 2.491 . S
O550 Dy539 2.403 . S
O550 C545 1.254 . S
O551 Dy536 2.310 . S
O551 Dy539 2.664 . S
O551 C545 1.268 . S
O552 Dy536 2.351 . S
O552 C555 1.249 . S
O553 Dy539 2.326 . S
O553 C555 1.267 . S
C554 O546 1.249 . S
C554 O547 1.267 . S
C555 O552 1.249 . S
C555 O553 1.267 . S
Dy556 O560 2.398 . S
Dy556 O561 2.491 . S
Dy556 O562 2.403 . S
Dy556 O563 2.664 . S
Dy556 O567 2.326 . S
Dy556 O571 2.310 . S
Dy556 O572 2.351 . S
C557 O568 1.185 . S
C557 O569 1.355 . S
C558 O560 1.185 . S
C558 O561 1.355 . S
Dy559 O563 2.310 . S
Dy559 O566 2.351 . S
Dy559 O568 2.398 . S
Dy559 O569 2.491 . S
Dy559 O570 2.403 . S
Dy559 O571 2.664 . S
Dy559 O573 2.326 . S
O560 Dy556 2.398 . S
O560 C558 1.185 . S
O561 Dy556 2.491 . S
O561 C558 1.355 . S
O562 Dy556 2.403 . S
O562 C564 1.254 . S
O563 Dy556 2.664 . S
O563 Dy559 2.310 . S
O563 C564 1.268 . S
C564 O562 1.254 . S
C564 O563 1.268 . S
C565 O570 1.254 . S
C565 O571 1.268 . S
O566 Dy559 2.351 . S
O566 C574 1.249 . S
O567 Dy556 2.326 . S
O567 C574 1.267 . S
O568 C557 1.185 . S
O568 Dy559 2.398 . S
O569 C557 1.355 . S
O569 Dy559 2.491 . S
O570 Dy559 2.403 . S
O570 C565 1.254 . S
O571 Dy556 2.310 . S
O571 Dy559 2.664 . S
O571 C565 1.268 . S
O572 Dy556 2.351 . S
O572 C575 1.249 . S
O573 Dy559 2.326 . S
O573 C575 1.267 . S
C574 O566 1.249 . S
C574 O567 1.267 . S
C575 O572 1.249 . S
C575 O573 1.267 . S
Dy576 O580 2.398 . S
Dy576 O581 2.491 . S
Dy576 O582 2.403 . S
Dy576 O583 2.664 . S
Dy576 O587 2.326 . S
Dy576 O591 2.310 . S
Dy576 O592 2.351 . S
C577 O588 1.185 . S
C577 O589 1.355 . S
C578 O580 1.185 . S
C578 O581 1.355 . S
Dy579 O583 2.310 . S
Dy579 O586 2.351 . S
Dy579 O588 2.398 . S
Dy579 O589 2.491 . S
Dy579 O590 2.403 . S
Dy579 O591 2.664 . S
Dy579 O593 2.326 . S
O580 Dy576 2.398 . S
O580 C578 1.185 . S
O581 Dy576 2.491 . S
O581 C578 1.355 . S
O582 Dy576 2.403 . S
O582 C584 1.254 . S
O583 Dy576 2.664 . S
O583 Dy579 2.310 . S
O583 C584 1.268 . S
C584 O582 1.254 . S
C584 O583 1.268 . S
C585 O590 1.254 . S
C585 O591 1.268 . S
O586 Dy579 2.351 . S
O586 C594 1.249 . S
O587 Dy576 2.326 . S
O587 C594 1.267 . S
O588 C577 1.185 . S
O588 Dy579 2.398 . S
O589 C577 1.355 . S
O589 Dy579 2.491 . S
O590 Dy579 2.403 . S
O590 C585 1.254 . S
O591 Dy576 2.310 . S
O591 Dy579 2.664 . S
O591 C585 1.268 . S
O592 Dy576 2.351 . S
O592 C595 1.249 . S
O593 Dy579 2.326 . S
O593 C595 1.267 . S
C594 O586 1.249 . S
C594 O587 1.267 . S
C595 O592 1.249 . S
C595 O593 1.267 . S
Dy596 O600 2.398 . S
Dy596 O601 2.491 . S
Dy596 O602 2.403 . S
Dy596 O603 2.664 . S
Dy596 O607 2.326 . S
Dy596 O611 2.310 . S
Dy596 O612 2.351 . S
C597 O608 1.185 . S
C597 O609 1.355 . S
C598 O600 1.185 . S
C598 O601 1.355 . S
Dy599 O603 2.310 . S
Dy599 O606 2.351 . S
Dy599 O608 2.398 . S
Dy599 O609 2.491 . S
Dy599 O610 2.403 . S
Dy599 O611 2.664 . S
Dy599 O613 2.326 . S
O600 Dy596 2.398 . S
O600 C598 1.185 . S
O601 Dy596 2.491 . S
O601 C598 1.355 . S
O602 Dy596 2.403 . S
O602 C604 1.254 . S
O603 Dy596 2.664 . S
O603 Dy599 2.310 . S
O603 C604 1.268 . S
C604 O602 1.254 . S
C604 O603 1.268 . S
C605 O610 1.254 . S
C605 O611 1.268 . S
O606 Dy599 2.351 . S
O606 C614 1.249 . S
O607 Dy596 2.326 . S
O607 C614 1.267 . S
O608 C597 1.185 . S
O608 Dy599 2.398 . S
O609 C597 1.355 . S
O609 Dy599 2.491 . S
O610 Dy599 2.403 . S
O610 C605 1.254 . S
O611 Dy596 2.310 . S
O611 Dy599 2.664 . S
O611 C605 1.268 . S
O612 Dy596 2.351 . S
O612 C615 1.249 . S
O613 Dy599 2.326 . S
O613 C615 1.267 . S
C614 O606 1.249 . S
C614 O607 1.267 . S
C615 O612 1.249 . S
C615 O613 1.267 . S
Dy616 O620 2.398 . S
Dy616 O621 2.491 . S
Dy616 O622 2.403 . S
Dy616 O623 2.664 . S
Dy616 O627 2.326 . S
Dy616 O631 2.310 . S
Dy616 O632 2.351 . S
C617 O628 1.185 . S
C617 O629 1.355 . S
C618 O620 1.185 . S
C618 O621 1.355 . S
Dy619 O623 2.310 . S
Dy619 O626 2.351 . S
Dy619 O628 2.398 . S
Dy619 O629 2.491 . S
Dy619 O630 2.403 . S
Dy619 O631 2.664 . S
Dy619 O633 2.326 . S
O620 Dy616 2.398 . S
O620 C618 1.185 . S
O621 Dy616 2.491 . S
O621 C618 1.355 . S
O622 Dy616 2.403 . S
O622 C624 1.254 . S
O623 Dy616 2.664 . S
O623 Dy619 2.310 . S
O623 C624 1.268 . S
C624 O622 1.254 . S
C624 O623 1.268 . S
C625 O630 1.254 . S
C625 O631 1.268 . S
O626 Dy619 2.351 . S
O626 C634 1.249 . S
O627 Dy616 2.326 . S
O627 C634 1.267 . S
O628 C617 1.185 . S
O628 Dy619 2.398 . S
O629 C617 1.355 . S
O629 Dy619 2.491 . S
O630 Dy619 2.403 . S
O630 C625 1.254 . S
O631 Dy616 2.310 . S
O631 Dy619 2.664 . S
O631 C625 1.268 . S
O632 Dy616 2.351 . S
O632 C635 1.249 . S
O633 Dy619 2.326 . S
O633 C635 1.267 . S
C634 O626 1.249 . S
C634 O627 1.267 . S
C635 O632 1.249 . S
C635 O633 1.267 . S
Dy636 O640 2.398 . S
Dy636 O641 2.491 . S
Dy636 O642 2.403 1_554 S
Dy636 O643 2.664 . S
Dy636 O647 2.326 . S
Dy636 O651 2.310 . S
Dy636 O652 2.351 . S
C637 O648 1.185 . S
C637 O649 1.355 . S
C638 O640 1.185 . S
C638 O641 1.355 . S
Dy639 O643 2.310 1_655 S
Dy639 O646 2.351 . S
Dy639 O648 2.398 . S
Dy639 O649 2.491 . S
Dy639 O650 2.403 . S
Dy639 O651 2.664 1_655 S
Dy639 O653 2.326 1_655 S
O640 Dy636 2.398 . S
O640 C638 1.185 . S
O641 Dy636 2.491 . S
O641 C638 1.355 . S
O642 Dy636 2.403 1_556 S
O642 C644 1.254 . S
O643 Dy636 2.664 . S
O643 Dy639 2.310 1_455 S
O643 C644 1.268 1_554 S
C644 O642 1.254 . S
C644 O643 1.268 1_556 S
C645 O650 1.254 1_455 S
C645 O651 1.268 . S
O646 Dy639 2.351 . S
O646 C654 1.249 1_655 S
O647 Dy636 2.326 . S
O647 C654 1.267 . S
O648 C637 1.185 . S
O648 Dy639 2.398 . S
O649 C637 1.355 . S
O649 Dy639 2.491 . S
O650 Dy639 2.403 . S
O650 C645 1.254 1_655 S
O651 Dy636 2.310 . S
O651 Dy639 2.664 1_455 S
O651 C645 1.268 . S
O652 Dy636 2.351 . S
O652 C655 1.249 . S
O653 Dy639 2.326 1_455 S
O653 C655 1.267 . S
C654 O646 1.249 1_455 S
C654 O647 1.267 . S
C655 O652 1.249 . S
C655 O653 1.267 . S
H656 C662 0.930 . S
H657 C666 0.930 . S
H658 C671 0.929 . S
H659 C669 0.929 . S
H660 C664 0.929 . S
H661 C670 0.929 . S
C662 H656 0.930 . S
C662 C663 1.367 . S
C662 C670 1.378 . S
C663 C662 1.367 . S
C663 C671 1.433 1_655 S
C664 H660 0.929 . S
C664 C666 1.378 . S
C664 C668 1.350 . S
C665 C668 1.463 . S
C665 C670 1.350 1_455 S
C665 N673 1.427 . S
C666 H657 0.930 . S
C666 C664 1.378 . S
C666 C667 1.367 . S
C667 C666 1.367 . S
C667 C669 1.433 1_556 S
C668 C664 1.350 . S
C668 C665 1.463 . S
C668 N672 1.427 . S
C669 H659 0.929 . S
C669 C667 1.433 1_554 S
C669 N672 1.384 1_554 S
C670 H661 0.929 . S
C670 C662 1.378 . S
C670 C665 1.350 1_655 S
C671 H658 0.929 . S
C671 C663 1.433 1_455 S
C671 N673 1.384 . S
N672 C668 1.427 . S
N672 C669 1.384 1_556 S
N673 C665 1.427 . S
N673 C671 1.384 . S
H674 C680 0.930 . S
H675 C684 0.930 . S
H676 C689 0.929 . S
H677 C687 0.929 . S
H678 C682 0.929 . S
H679 C688 0.929 . S
C680 H674 0.930 . S
C680 C681 1.367 . S
C680 C688 1.378 . S
C681 C680 1.367 . S
C681 C689 1.433 . S
C682 H678 0.929 . S
C682 C684 1.378 . S
C682 C686 1.350 . S
C683 C686 1.463 . S
C683 C688 1.350 . S
C683 N691 1.427 . S
C684 H675 0.930 . S
C684 C682 1.378 . S
C684 C685 1.367 . S
C685 C684 1.367 . S
C685 C687 1.433 . S
C686 C682 1.350 . S
C686 C683 1.463 . S
C686 N690 1.427 . S
C687 H677 0.929 . S
C687 C685 1.433 . S
C687 N690 1.384 . S
C688 H679 0.929 . S
C688 C680 1.378 . S
C688 C683 1.350 . S
C689 H676 0.929 . S
C689 C681 1.433 . S
C689 N691 1.384 . S
N690 C686 1.427 . S
N690 C687 1.384 . S
N691 C683 1.427 . S
N691 C689 1.384 . S
H692 C698 0.930 . S
H693 C702 0.930 . S
H694 C707 0.929 . S
H695 C705 0.929 . S
H696 C700 0.929 . S
H697 C706 0.929 . S
C698 H692 0.930 . S
C698 C699 1.367 . S
C698 C706 1.378 . S
C699 C698 1.367 . S
C699 C707 1.433 . S
C700 H696 0.929 . S
C700 C702 1.378 . S
C700 C704 1.350 . S
C701 C704 1.463 . S
C701 C706 1.350 . S
C701 N709 1.427 . S
C702 H693 0.930 . S
C702 C700 1.378 . S
C702 C703 1.367 . S
C703 C702 1.367 . S
C703 C705 1.433 . S
C704 C700 1.350 . S
C704 C701 1.463 . S
C704 N708 1.427 . S
C705 H695 0.929 . S
C705 C703 1.433 . S
C705 N708 1.384 . S
C706 H697 0.929 . S
C706 C698 1.378 . S
C706 C701 1.350 . S
C707 H694 0.929 . S
C707 C699 1.433 . S
C707 N709 1.384 . S
N708 C704 1.427 . S
N708 C705 1.384 . S
N709 C701 1.427 . S
N709 C707 1.384 . S
H710 C716 0.930 . S
H711 C720 0.930 . S
H712 C725 0.929 . S
H713 C723 0.929 . S
H714 C718 0.929 . S
H715 C724 0.929 . S
C716 H710 0.930 . S
C716 C717 1.367 . S
C716 C724 1.378 . S
C717 C716 1.367 . S
C717 C725 1.433 . S
C718 H714 0.929 . S
C718 C720 1.378 . S
C718 C722 1.350 . S
C719 C722 1.463 . S
C719 C724 1.350 . S
C719 N727 1.427 . S
C720 H711 0.930 . S
C720 C718 1.378 . S
C720 C721 1.367 . S
C721 C720 1.367 . S
C721 C723 1.433 . S
C722 C718 1.350 . S
C722 C719 1.463 . S
C722 N726 1.427 . S
C723 H713 0.929 . S
C723 C721 1.433 . S
C723 N726 1.384 . S
C724 H715 0.929 . S
C724 C716 1.378 . S
C724 C719 1.350 . S
C725 H712 0.929 . S
C725 C717 1.433 . S
C725 N727 1.384 . S
N726 C722 1.427 . S
N726 C723 1.384 . S
N727 C719 1.427 . S
N727 C725 1.384 . S
H728 C734 0.930 1_655 S
H729 C738 0.930 . S
H730 C743 0.929 . S
H731 C741 0.929 . S
H732 C736 0.929 . S
H733 C742 0.930 . S
C734 H728 0.930 1_455 S
C734 C735 1.367 . S
C734 C742 1.378 . S
C735 C734 1.367 . S
C735 C743 1.433 . S
C736 H732 0.929 . S
C736 C738 1.378 . S
C736 C740 1.350 . S
C737 C740 1.463 . S
C737 C742 1.350 . S
C737 N745 1.427 . S
C738 H729 0.930 . S
C738 C736 1.378 . S
C738 C739 1.367 . S
C739 C738 1.367 . S
C739 C741 1.433 . S
C740 C736 1.350 . S
C740 C737 1.463 . S
C740 N744 1.427 . S
C741 H731 0.929 . S
C741 C739 1.433 . S
C741 N744 1.384 . S
C742 H733 0.930 . S
C742 C734 1.378 . S
C742 C737 1.350 . S
C743 H730 0.929 . S
C743 C735 1.433 . S
C743 N745 1.384 . S
N744 C740 1.427 . S
N744 C741 1.384 . S
N745 C737 1.427 . S
N745 C743 1.384 . S
H746 C752 0.930 . S
H747 C756 0.930 . S
H748 C761 0.929 . S
H749 C759 0.929 . S
H750 C754 0.929 . S
H751 C760 0.929 . S
C752 H746 0.930 . S
C752 C753 1.367 . S
C752 C760 1.378 . S
C753 C752 1.367 . S
C753 C761 1.433 . S
C754 H750 0.929 . S
C754 C756 1.378 . S
C754 C758 1.350 . S
C755 C758 1.463 . S
C755 C760 1.350 . S
C755 N763 1.427 . S
C756 H747 0.930 . S
C756 C754 1.378 . S
C756 C757 1.367 . S
C757 C756 1.367 . S
C757 C759 1.433 . S
C758 C754 1.350 . S
C758 C755 1.463 . S
C758 N762 1.427 . S
C759 H749 0.929 . S
C759 C757 1.433 . S
C759 N762 1.384 . S
C760 H751 0.929 . S
C760 C752 1.378 . S
C760 C755 1.350 . S
C761 H748 0.929 . S
C761 C753 1.433 . S
C761 N763 1.384 . S
N762 C758 1.427 . S
N762 C759 1.384 . S
N763 C755 1.427 . S
N763 C761 1.384 . S
H764 C770 0.930 . S
H765 C774 0.930 . S
H766 C779 0.929 . S
H767 C777 0.929 . S
H768 C772 0.929 . S
H769 C778 0.929 . S
C770 H764 0.930 . S
C770 C771 1.367 . S
C770 C778 1.378 . S
C771 C770 1.367 . S
C771 C779 1.433 . S
C772 H768 0.929 . S
C772 C774 1.378 . S
C772 C776 1.350 . S
C773 C776 1.463 . S
C773 C778 1.350 . S
C773 N781 1.427 . S
C774 H765 0.930 . S
C774 C772 1.378 . S
C774 C775 1.367 . S
C775 C774 1.367 . S
C775 C777 1.433 . S
C776 C772 1.350 . S
C776 C773 1.463 . S
C776 N780 1.427 . S
C777 H767 0.929 . S
C777 C775 1.433 . S
C777 N780 1.384 . S
C778 H769 0.929 . S
C778 C770 1.378 . S
C778 C773 1.350 . S
C779 H766 0.929 . S
C779 C771 1.433 . S
C779 N781 1.384 . S
N780 C776 1.427 . S
N780 C777 1.384 . S
N781 C773 1.427 . S
N781 C779 1.384 . S
H782 C788 0.930 . S
H783 C792 0.930 . S
H784 C797 0.929 . S
H785 C795 0.929 . S
H786 C790 0.929 . S
H787 C796 0.929 . S
C788 H782 0.930 . S
C788 C789 1.367 . S
C788 C796 1.378 . S
C789 C788 1.367 . S
C789 C797 1.433 . S
C790 H786 0.929 . S
C790 C792 1.378 . S
C790 C794 1.350 . S
C791 C794 1.463 . S
C791 C796 1.350 . S
C791 N799 1.427 . S
C792 H783 0.930 . S
C792 C790 1.378 . S
C792 C793 1.367 . S
C793 C792 1.367 . S
C793 C795 1.433 . S
C794 C790 1.350 . S
C794 C791 1.463 . S
C794 N798 1.427 . S
C795 H785 0.929 . S
C795 C793 1.433 . S
C795 N798 1.384 . S
C796 H787 0.929 . S
C796 C788 1.378 . S
C796 C791 1.350 . S
C797 H784 0.929 . S
C797 C789 1.433 . S
C797 N799 1.384 . S
N798 C794 1.427 . S
N798 C795 1.384 . S
N799 C791 1.427 . S
N799 C797 1.384 . S
H800 C806 0.930 . S
H801 C810 0.930 . S
H802 C815 0.929 . S
H803 C813 0.929 1_455 S
H804 C808 0.929 . S
H805 C814 0.929 . S
C806 H800 0.930 . S
C806 C807 1.367 . S
C806 C814 1.378 . S
C807 C806 1.367 . S
C807 C815 1.433 . S
C808 H804 0.929 . S
C808 C810 1.378 . S
C808 C812 1.350 . S
C809 C812 1.463 . S
C809 C814 1.350 . S
C809 N817 1.427 . S
C810 H801 0.930 . S
C810 C808 1.378 . S
C810 C811 1.367 . S
C811 C810 1.367 . S
C811 C813 1.433 . S
C812 C808 1.350 . S
C812 C809 1.463 . S
C812 N816 1.427 . S
C813 H803 0.929 1_655 S
C813 C811 1.433 . S
C813 N816 1.384 . S
C814 H805 0.929 . S
C814 C806 1.378 . S
C814 C809 1.350 . S
C815 H802 0.929 . S
C815 C807 1.433 . S
C815 N817 1.384 . S
N816 C812 1.427 . S
N816 C813 1.384 . S
N817 C809 1.427 . S
N817 C815 1.384 . S
H818 C824 0.930 . S
H819 C828 0.930 . S
H820 C833 0.929 . S
H821 C831 0.929 . S
H822 C826 0.929 . S
H823 C832 0.929 . S
C824 H818 0.930 . S
C824 C825 1.367 . S
C824 C832 1.378 . S
C825 C824 1.367 . S
C825 C833 1.433 . S
C826 H822 0.929 . S
C826 C828 1.378 . S
C826 C830 1.350 . S
C827 C830 1.463 . S
C827 C832 1.350 . S
C827 N835 1.427 . S
C828 H819 0.930 . S
C828 C826 1.378 . S
C828 C829 1.367 . S
C829 C828 1.367 . S
C829 C831 1.433 . S
C830 C826 1.350 . S
C830 C827 1.463 . S
C830 N834 1.427 . S
C831 H821 0.929 . S
C831 C829 1.433 . S
C831 N834 1.384 . S
C832 H823 0.929 . S
C832 C824 1.378 . S
C832 C827 1.350 . S
C833 H820 0.929 . S
C833 C825 1.433 . S
C833 N835 1.384 . S
N834 C830 1.427 . S
N834 C831 1.384 . S
N835 C827 1.427 . S
N835 C833 1.384 . S
H836 C842 0.930 . S
H837 C846 0.930 1_565 S
H838 C851 0.931 1_565 S
H839 C849 0.929 . S
H840 C844 0.929 1_565 S
H841 C850 0.929 . S
C842 H836 0.930 . S
C842 C843 1.367 . S
C842 C850 1.378 . S
C843 C842 1.367 . S
C843 C851 1.433 . S
C844 H840 0.929 1_545 S
C844 C846 1.378 . S
C844 C848 1.350 . S
C845 C848 1.463 . S
C845 C850 1.350 . S
C845 N853 1.427 . S
C846 H837 0.930 1_545 S
C846 C844 1.378 . S
C846 C847 1.367 . S
C847 C846 1.367 . S
C847 C849 1.433 . S
C848 C844 1.350 . S
C848 C845 1.463 . S
C848 N852 1.427 . S
C849 H839 0.929 . S
C849 C847 1.433 . S
C849 N852 1.384 . S
C850 H841 0.929 . S
C850 C842 1.378 . S
C850 C845 1.350 . S
C851 H838 0.931 1_545 S
C851 C843 1.433 . S
C851 N853 1.384 . S
N852 C848 1.427 . S
N852 C849 1.384 . S
N853 C845 1.427 . S
N853 C851 1.384 . S
H854 C860 0.930 . S
H855 C864 0.930 . S
H856 C869 0.929 . S
H857 C867 0.929 . S
H858 C862 0.929 . S
H859 C868 0.929 . S
C860 H854 0.930 . S
C860 C861 1.367 . S
C860 C868 1.378 . S
C861 C860 1.367 . S
C861 C869 1.433 . S
C862 H858 0.929 . S
C862 C864 1.378 . S
C862 C866 1.350 . S
C863 C866 1.463 . S
C863 C868 1.350 . S
C863 N871 1.427 . S
C864 H855 0.930 . S
C864 C862 1.378 . S
C864 C865 1.367 . S
C865 C864 1.367 . S
C865 C867 1.433 . S
C866 C862 1.350 . S
C866 C863 1.463 . S
C866 N870 1.427 . S
C867 H857 0.929 . S
C867 C865 1.433 . S
C867 N870 1.384 . S
C868 H859 0.929 . S
C868 C860 1.378 . S
C868 C863 1.350 . S
C869 H856 0.929 . S
C869 C861 1.433 . S
C869 N871 1.384 . S
N870 C866 1.427 . S
N870 C867 1.384 . S
N871 C863 1.427 . S
N871 C869 1.384 . S
H872 C878 0.930 . S
H873 C882 0.930 . S
H874 C887 0.929 . S
H875 C885 0.929 1_565 S
H876 C880 0.929 . S
H877 C886 0.929 . S
C878 H872 0.930 . S
C878 C879 1.367 . S
C878 C886 1.378 . S
C879 C878 1.367 . S
C879 C887 1.433 . S
C880 H876 0.929 . S
C880 C882 1.378 . S
C880 C884 1.350 . S
C881 C884 1.463 . S
C881 C886 1.350 . S
C881 N889 1.427 . S
C882 H873 0.930 . S
C882 C880 1.378 . S
C882 C883 1.367 . S
C883 C882 1.367 . S
C883 C885 1.433 . S
C884 C880 1.350 . S
C884 C881 1.463 . S
C884 N888 1.427 . S
C885 H875 0.929 1_545 S
C885 C883 1.433 . S
C885 N888 1.384 . S
C886 H877 0.929 . S
C886 C878 1.378 . S
C886 C881 1.350 . S
C887 H874 0.929 . S
C887 C879 1.433 . S
C887 N889 1.384 . S
N888 C884 1.427 . S
N888 C885 1.384 . S
N889 C881 1.427 . S
N889 C887 1.384 . S
H890 C896 0.930 . S
H891 C900 0.930 . S
H892 C905 0.929 . S
H893 C903 0.929 . S
H894 C898 0.929 . S
H895 C904 0.929 . S
C896 H890 0.930 . S
C896 C897 1.367 . S
C896 C904 1.378 . S
C897 C896 1.367 . S
C897 C905 1.433 . S
C898 H894 0.929 . S
C898 C900 1.378 . S
C898 C902 1.350 . S
C899 C902 1.463 . S
C899 C904 1.350 . S
C899 N907 1.427 . S
C900 H891 0.930 . S
C900 C898 1.378 . S
C900 C901 1.367 . S
C901 C900 1.367 . S
C901 C903 1.433 . S
C902 C898 1.350 . S
C902 C899 1.463 . S
C902 N906 1.427 . S
C903 H893 0.929 . S
C903 C901 1.433 . S
C903 N906 1.384 . S
C904 H895 0.929 . S
C904 C896 1.378 . S
C904 C899 1.350 . S
C905 H892 0.929 . S
C905 C897 1.433 . S
C905 N907 1.384 . S
N906 C902 1.427 . S
N906 C903 1.384 . S
N907 C899 1.427 . S
N907 C905 1.384 . S
H908 C914 0.930 . S
H909 C918 0.930 . S
H910 C923 0.929 . S
H911 C921 0.929 . S
H912 C916 0.929 . S
H913 C922 0.929 . S
C914 H908 0.930 . S
C914 C915 1.367 . S
C914 C922 1.378 . S
C915 C914 1.367 . S
C915 C923 1.433 . S
C916 H912 0.929 . S
C916 C918 1.378 . S
C916 C920 1.350 . S
C917 C920 1.463 . S
C917 C922 1.350 . S
C917 N925 1.427 . S
C918 H909 0.930 . S
C918 C916 1.378 . S
C918 C919 1.367 . S
C919 C918 1.367 . S
C919 C921 1.433 . S
C920 C916 1.350 . S
C920 C917 1.463 . S
C920 N924 1.427 . S
C921 H911 0.929 . S
C921 C919 1.433 . S
C921 N924 1.384 . S
C922 H913 0.929 . S
C922 C914 1.378 . S
C922 C917 1.350 . S
C923 H910 0.929 . S
C923 C915 1.433 . S
C923 N925 1.384 . S
N924 C920 1.427 . S
N924 C921 1.384 . S
N925 C917 1.427 . S
N925 C923 1.384 . S
H926 C932 0.930 . S
H927 C936 0.930 . S
H928 C941 0.929 . S
H929 C939 0.929 . S
H930 C934 0.929 . S
H931 C940 0.929 . S
C932 H926 0.930 . S
C932 C933 1.367 . S
C932 C940 1.378 . S
C933 C932 1.367 . S
C933 C941 1.433 . S
C934 H930 0.929 . S
C934 C936 1.378 . S
C934 C938 1.350 . S
C935 C938 1.463 . S
C935 C940 1.350 . S
C935 N943 1.427 . S
C936 H927 0.930 . S
C936 C934 1.378 . S
C936 C937 1.367 . S
C937 C936 1.367 . S
C937 C939 1.433 . S
C938 C934 1.350 . S
C938 C935 1.463 . S
C938 N942 1.427 . S
C939 H929 0.929 . S
C939 C937 1.433 . S
C939 N942 1.384 . S
C940 H931 0.929 . S
C940 C932 1.378 . S
C940 C935 1.350 . S
C941 H928 0.929 . S
C941 C933 1.433 . S
C941 N943 1.384 . S
N942 C938 1.427 . S
N942 C939 1.384 . S
N943 C935 1.427 . S
N943 C941 1.384 . S
H944 C950 0.930 . S
H945 C954 0.930 . S
H946 C959 0.929 . S
H947 C957 0.929 . S
H948 C952 0.929 . S
H949 C958 0.929 . S
C950 H944 0.930 . S
C950 C951 1.367 . S
C950 C958 1.378 . S
C951 C950 1.367 . S
C951 C959 1.433 . S
C952 H948 0.929 . S
C952 C954 1.378 . S
C952 C956 1.350 . S
C953 C956 1.463 . S
C953 C958 1.350 . S
C953 N961 1.427 . S
C954 H945 0.930 . S
C954 C952 1.378 . S
C954 C955 1.367 1_565 S
C955 C954 1.367 1_545 S
C955 C957 1.433 . S
C956 C952 1.350 . S
C956 C953 1.463 . S
C956 N960 1.427 1_565 S
C957 H947 0.929 . S
C957 C955 1.433 . S
C957 N960 1.384 . S
C958 H949 0.929 . S
C958 C950 1.378 . S
C958 C953 1.350 . S
C959 H946 0.929 . S
C959 C951 1.433 . S
C959 N961 1.384 . S
N960 C956 1.427 1_545 S
N960 C957 1.384 . S
N961 C953 1.427 . S
N961 C959 1.384 . S
H962 C968 0.930 . S
H963 C972 0.930 1_556 S
H964 C977 0.929 1_556 S
H965 C975 0.929 . S
H966 C970 0.929 1_556 S
H967 C976 0.929 . S
C968 H962 0.930 . S
C968 C969 1.367 . S
C968 C976 1.378 . S
C969 C968 1.367 . S
C969 C977 1.433 . S
C970 H966 0.929 1_554 S
C970 C972 1.378 . S
C970 C974 1.350 . S
C971 C974 1.463 . S
C971 C976 1.350 . S
C971 N979 1.427 . S
C972 H963 0.930 1_554 S
C972 C970 1.378 . S
C972 C973 1.367 . S
C973 C972 1.367 . S
C973 C975 1.433 . S
C974 C970 1.350 . S
C974 C971 1.463 . S
C974 N978 1.427 . S
C975 H965 0.929 . S
C975 C973 1.433 . S
C975 N978 1.384 . S
C976 H967 0.929 . S
C976 C968 1.378 . S
C976 C971 1.350 . S
C977 H964 0.929 1_554 S
C977 C969 1.433 . S
C977 N979 1.384 . S
N978 C974 1.427 . S
N978 C975 1.384 . S
N979 C971 1.427 . S
N979 C977 1.384 . S
H980 C986 0.930 . S
H981 C990 0.930 . S
H982 C995 0.929 . S
H983 C993 0.929 . S
H984 C988 0.929 . S
H985 C994 0.929 . S
C986 H980 0.930 . S
C986 C987 1.367 . S
C986 C994 1.378 . S
C987 C986 1.367 . S
C987 C995 1.433 . S
C988 H984 0.929 . S
C988 C990 1.378 . S
C988 C992 1.350 . S
C989 C992 1.463 . S
C989 C994 1.350 . S
C989 N997 1.427 . S
C990 H981 0.930 . S
C990 C988 1.378 . S
C990 C991 1.367 . S
C991 C990 1.367 . S
C991 C993 1.433 . S
C992 C988 1.350 . S
C992 C989 1.463 . S
C992 N996 1.427 . S
C993 H983 0.929 . S
C993 C991 1.433 . S
C993 N996 1.384 . S
C994 H985 0.929 . S
C994 C986 1.378 . S
C994 C989 1.350 . S
C995 H982 0.929 . S
C995 C987 1.433 . S
C995 N997 1.384 . S
N996 C992 1.427 . S
N996 C993 1.384 . S
N997 C989 1.427 . S
N997 C995 1.384 . S
H998 C1004 0.930 . S
H999 C1008 0.930 . S
H1000 C1013 0.929 . S
H1001 C1011 0.929 . S
H1002 C1006 0.929 . S
H1003 C1012 0.929 . S
C1004 H998 0.930 . S
C1004 C1005 1.367 . S
C1004 C1012 1.378 . S
C1005 C1004 1.367 . S
C1005 C1013 1.433 . S
C1006 H1002 0.929 . S
C1006 C1008 1.378 . S
C1006 C1010 1.350 . S
C1007 C1010 1.463 . S
C1007 C1012 1.350 . S
C1007 N1015 1.427 . S
C1008 H999 0.930 . S
C1008 C1006 1.378 . S
C1008 C1009 1.367 . S
C1009 C1008 1.367 . S
C1009 C1011 1.433 . S
C1010 C1006 1.350 . S
C1010 C1007 1.463 . S
C1010 N1014 1.427 . S
C1011 H1001 0.929 . S
C1011 C1009 1.433 . S
C1011 N1014 1.384 . S
C1012 H1003 0.929 . S
C1012 C1004 1.378 . S
C1012 C1007 1.350 . S
C1013 H1000 0.929 . S
C1013 C1005 1.433 . S
C1013 N1015 1.384 . S
N1014 C1010 1.427 . S
N1014 C1011 1.384 . S
N1015 C1007 1.427 . S
N1015 C1013 1.384 . S
H1016 C1022 0.930 . S
H1017 C1026 0.930 . S
H1018 C1031 0.929 . S
H1019 C1029 0.929 . S
H1020 C1024 0.929 . S
H1021 C1030 0.929 . S
C1022 H1016 0.930 . S
C1022 C1023 1.367 . S
C1022 C1030 1.378 . S
C1023 C1022 1.367 . S
C1023 C1031 1.433 . S
C1024 H1020 0.929 . S
C1024 C1026 1.378 . S
C1024 C1028 1.350 . S
C1025 C1028 1.463 . S
C1025 C1030 1.350 . S
C1025 N1033 1.427 . S
C1026 H1017 0.930 . S
C1026 C1024 1.378 . S
C1026 C1027 1.367 . S
C1027 C1026 1.367 . S
C1027 C1029 1.433 . S
C1028 C1024 1.350 . S
C1028 C1025 1.463 . S
C1028 N1032 1.427 . S
C1029 H1019 0.929 . S
C1029 C1027 1.433 . S
C1029 N1032 1.384 . S
C1030 H1021 0.929 . S
C1030 C1022 1.378 . S
C1030 C1025 1.350 . S
C1031 H1018 0.929 . S
C1031 C1023 1.433 . S
C1031 N1033 1.384 . S
N1032 C1028 1.427 . S
N1032 C1029 1.384 . S
N1033 C1025 1.427 . S
N1033 C1031 1.384 . S
H1034 C1040 0.930 . S
H1035 C1044 0.930 . S
H1036 C1049 0.929 . S
H1037 C1047 0.929 . S
H1038 C1042 0.929 . S
H1039 C1048 0.929 . S
C1040 H1034 0.930 . S
C1040 C1041 1.367 . S
C1040 C1048 1.378 . S
C1041 C1040 1.367 . S
C1041 C1049 1.433 . S
C1042 H1038 0.929 . S
C1042 C1044 1.378 . S
C1042 C1046 1.350 . S
C1043 C1046 1.463 . S
C1043 C1048 1.350 . S
C1043 N1051 1.427 . S
C1044 H1035 0.930 . S
C1044 C1042 1.378 . S
C1044 C1045 1.367 . S
C1045 C1044 1.367 . S
C1045 C1047 1.433 . S
C1046 C1042 1.350 . S
C1046 C1043 1.463 . S
C1046 N1050 1.427 . S
C1047 H1037 0.929 . S
C1047 C1045 1.433 . S
C1047 N1050 1.384 . S
C1048 H1039 0.929 . S
C1048 C1040 1.378 . S
C1048 C1043 1.350 . S
C1049 H1036 0.929 . S
C1049 C1041 1.433 . S
C1049 N1051 1.384 . S
N1050 C1046 1.427 . S
N1050 C1047 1.384 . S
N1051 C1043 1.427 . S
N1051 C1049 1.384 . S
H1052 C1058 0.930 . S
H1053 C1062 0.930 . S
H1054 C1067 0.929 . S
H1055 C1065 0.929 . S
H1056 C1060 0.929 . S
H1057 C1066 0.929 . S
C1058 H1052 0.930 . S
C1058 C1059 1.367 . S
C1058 C1066 1.378 . S
C1059 C1058 1.367 . S
C1059 C1067 1.433 . S
C1060 H1056 0.929 . S
C1060 C1062 1.378 . S
C1060 C1064 1.350 . S
C1061 C1064 1.463 . S
C1061 C1066 1.350 . S
C1061 N1069 1.427 . S
C1062 H1053 0.930 . S
C1062 C1060 1.378 . S
C1062 C1063 1.367 . S
C1063 C1062 1.367 . S
C1063 C1065 1.433 . S
C1064 C1060 1.350 . S
C1064 C1061 1.463 . S
C1064 N1068 1.427 . S
C1065 H1055 0.929 . S
C1065 C1063 1.433 . S
C1065 N1068 1.384 . S
C1066 H1057 0.929 . S
C1066 C1058 1.378 . S
C1066 C1061 1.350 . S
C1067 H1054 0.929 . S
C1067 C1059 1.433 . S
C1067 N1069 1.384 . S
N1068 C1064 1.427 . S
N1068 C1065 1.384 . S
N1069 C1061 1.427 . S
N1069 C1067 1.384 . S
H1070 C1076 0.930 . S
H1071 C1080 0.930 . S
H1072 C1085 0.929 . S
H1073 C1083 0.929 . S
H1074 C1078 0.929 . S
H1075 C1084 0.929 . S
C1076 H1070 0.930 . S
C1076 C1077 1.367 . S
C1076 C1084 1.378 . S
C1077 C1076 1.367 . S
C1077 C1085 1.433 . S
C1078 H1074 0.929 . S
C1078 C1080 1.378 . S
C1078 C1082 1.350 . S
C1079 C1082 1.463 . S
C1079 C1084 1.350 . S
C1079 N1087 1.427 . S
C1080 H1071 0.930 . S
C1080 C1078 1.378 . S
C1080 C1081 1.367 . S
C1081 C1080 1.367 . S
C1081 C1083 1.433 . S
C1082 C1078 1.350 . S
C1082 C1079 1.463 . S
C1082 N1086 1.427 . S
C1083 H1073 0.929 . S
C1083 C1081 1.433 . S
C1083 N1086 1.384 . S
C1084 H1075 0.929 . S
C1084 C1076 1.378 . S
C1084 C1079 1.350 . S
C1085 H1072 0.929 . S
C1085 C1077 1.433 . S
C1085 N1087 1.384 . S
N1086 C1082 1.427 . S
N1086 C1083 1.384 . S
N1087 C1079 1.427 . S
N1087 C1085 1.384 . S
H1088 C1094 0.930 . S
H1089 C1098 0.930 . S
H1090 C1103 0.929 . S
H1091 C1101 0.953 . S
H1092 C1096 0.929 . S
H1093 C1102 0.929 1_655 S
C1094 H1088 0.930 . S
C1094 C1095 1.367 . S
C1094 C1102 1.378 . S
C1095 C1094 1.367 . S
C1095 C1103 1.433 . S
C1096 H1092 0.929 . S
C1096 C1098 1.378 . S
C1096 C1100 1.350 . S
C1097 C1100 1.463 . S
C1097 C1102 1.350 . S
C1097 N1105 1.427 . S
C1098 H1089 0.930 . S
C1098 C1096 1.378 . S
C1098 C1099 1.367 . S
C1099 C1098 1.367 . S
C1099 C1101 1.418 1_455 S
C1100 C1096 1.350 . S
C1100 C1097 1.463 . S
C1100 N1104 1.427 . S
C1101 H1091 0.953 . S
C1101 C1099 1.418 1_655 S
C1101 N1104 1.374 1_655 S
C1102 H1093 0.929 1_455 S
C1102 C1094 1.378 . S
C1102 C1097 1.350 . S
C1103 H1090 0.929 . S
C1103 C1095 1.433 . S
C1103 N1105 1.384 . S
N1104 C1100 1.427 . S
N1104 C1101 1.374 1_455 S
N1105 C1097 1.427 . S
N1105 C1103 1.384 . S
H1106 C1112 0.930 . S
H1107 C1116 0.930 . S
H1108 C1121 0.929 . S
H1109 C1119 0.929 . S
H1110 C1114 0.929 . S
H1111 C1120 0.929 . S
C1112 H1106 0.930 . S
C1112 C1113 1.367 . S
C1112 C1120 1.378 . S
C1113 C1112 1.367 . S
C1113 C1121 1.433 . S
C1114 H1110 0.929 . S
C1114 C1116 1.378 . S
C1114 C1118 1.350 . S
C1115 C1118 1.463 . S
C1115 C1120 1.350 . S
C1115 N1123 1.427 . S
C1116 H1107 0.930 . S
C1116 C1114 1.378 . S
C1116 C1117 1.367 . S
C1117 C1116 1.367 . S
C1117 C1119 1.433 . S
C1118 C1114 1.350 . S
C1118 C1115 1.463 . S
C1118 N1122 1.427 . S
C1119 H1109 0.929 . S
C1119 C1117 1.433 . S
C1119 N1122 1.384 . S
C1120 H1111 0.929 . S
C1120 C1112 1.378 . S
C1120 C1115 1.350 . S
C1121 H1108 0.929 . S
C1121 C1113 1.433 . S
C1121 N1123 1.384 . S
N1122 C1118 1.427 . S
N1122 C1119 1.384 . S
N1123 C1115 1.427 . S
N1123 C1121 1.384 . S
H1124 C1130 0.930 . S
H1125 C1134 0.930 . S
H1126 C1139 0.929 . S
H1127 C1137 0.929 . S
H1128 C1132 0.929 . S
H1129 C1138 0.929 . S
C1130 H1124 0.930 . S
C1130 C1131 1.367 . S
C1130 C1138 1.378 . S
C1131 C1130 1.367 . S
C1131 C1139 1.433 . S
C1132 H1128 0.929 . S
C1132 C1134 1.378 . S
C1132 C1136 1.350 . S
C1133 C1136 1.463 . S
C1133 C1138 1.350 . S
C1133 N1141 1.427 . S
C1134 H1125 0.930 . S
C1134 C1132 1.378 . S
C1134 C1135 1.367 . S
C1135 C1134 1.367 . S
C1135 C1137 1.433 . S
C1136 C1132 1.350 . S
C1136 C1133 1.463 . S
C1136 N1140 1.427 . S
C1137 H1127 0.929 . S
C1137 C1135 1.433 . S
C1137 N1140 1.384 . S
C1138 H1129 0.929 . S
C1138 C1130 1.378 . S
C1138 C1133 1.350 . S
C1139 H1126 0.929 . S
C1139 C1131 1.433 . S
C1139 N1141 1.384 . S
N1140 C1136 1.427 . S
N1140 C1137 1.384 . S
N1141 C1133 1.427 . S
N1141 C1139 1.384 . S
H1142 C1148 0.930 . S
H1143 C1152 0.930 . S
H1144 C1157 0.929 . S
H1145 C1155 0.929 . S
H1146 C1150 0.929 . S
H1147 C1156 0.929 . S
C1148 H1142 0.930 . S
C1148 C1149 1.367 . S
C1148 C1156 1.378 . S
C1149 C1148 1.367 . S
C1149 C1157 1.433 . S
C1150 H1146 0.929 . S
C1150 C1152 1.378 . S
C1150 C1154 1.350 . S
C1151 C1154 1.463 . S
C1151 C1156 1.350 . S
C1151 N1159 1.427 . S
C1152 H1143 0.930 . S
C1152 C1150 1.378 . S
C1152 C1153 1.367 . S
C1153 C1152 1.367 . S
C1153 C1155 1.433 . S
C1154 C1150 1.350 . S
C1154 C1151 1.463 . S
C1154 N1158 1.427 . S
C1155 H1145 0.929 . S
C1155 C1153 1.433 . S
C1155 N1158 1.384 . S
C1156 H1147 0.929 . S
C1156 C1148 1.378 . S
C1156 C1151 1.350 . S
C1157 H1144 0.929 . S
C1157 C1149 1.433 . S
C1157 N1159 1.384 . S
N1158 C1154 1.427 . S
N1158 C1155 1.384 . S
N1159 C1151 1.427 . S
N1159 C1157 1.384 . S
H1160 C1166 0.930 . S
H1161 C1170 0.921 1_655 S
H1162 C1175 0.929 1_655 S
H1163 C1173 0.929 . S
H1164 C1168 0.904 1_655 S
H1165 C1174 0.929 . S
C1166 H1160 0.930 . S
C1166 C1167 1.367 . S
C1166 C1174 1.378 . S
C1167 C1166 1.367 . S
C1167 C1175 1.433 . S
C1168 H1164 0.904 1_455 S
C1168 C1170 1.381 . S
C1168 C1172 1.370 . S
C1169 C1172 1.463 . S
C1169 C1174 1.350 . S
C1169 N1177 1.427 . S
C1170 H1161 0.921 1_455 S
C1170 C1168 1.381 . S
C1170 C1171 1.380 . S
C1171 C1170 1.380 . S
C1171 C1173 1.433 . S
C1172 C1168 1.370 . S
C1172 C1169 1.463 . S
C1172 N1176 1.427 . S
C1173 H1163 0.929 . S
C1173 C1171 1.433 . S
C1173 N1176 1.384 . S
C1174 H1165 0.929 . S
C1174 C1166 1.378 . S
C1174 C1169 1.350 . S
C1175 H1162 0.929 1_455 S
C1175 C1167 1.433 . S
C1175 N1177 1.384 . S
N1176 C1172 1.427 . S
N1176 C1173 1.384 . S
N1177 C1169 1.427 . S
N1177 C1175 1.384 . S
H1178 C1184 0.930 . S
H1179 C1188 0.930 . S
H1180 C1193 0.929 . S
H1181 C1191 0.929 . S
H1182 C1186 0.929 . S
H1183 C1192 0.929 . S
C1184 H1178 0.930 . S
C1184 C1185 1.367 . S
C1184 C1192 1.378 . S
C1185 C1184 1.367 . S
C1185 C1193 1.433 . S
C1186 H1182 0.929 . S
C1186 C1188 1.378 . S
C1186 C1190 1.350 . S
C1187 C1190 1.463 . S
C1187 C1192 1.350 . S
C1187 N1195 1.427 . S
C1188 H1179 0.930 . S
C1188 C1186 1.378 . S
C1188 C1189 1.367 . S
C1189 C1188 1.367 . S
C1189 C1191 1.433 . S
C1190 C1186 1.350 . S
C1190 C1187 1.463 . S
C1190 N1194 1.427 . S
C1191 H1181 0.929 . S
C1191 C1189 1.433 . S
C1191 N1194 1.384 . S
C1192 H1183 0.929 . S
C1192 C1184 1.378 . S
C1192 C1187 1.350 . S
C1193 H1180 0.929 . S
C1193 C1185 1.433 . S
C1193 N1195 1.384 . S
N1194 C1190 1.427 . S
N1194 C1191 1.384 . S
N1195 C1187 1.427 . S
N1195 C1193 1.384 . S
H1196 C1202 0.930 . S
H1197 C1206 0.930 . S
H1198 C1211 0.929 . S
H1199 C1209 0.929 . S
H1200 C1204 0.929 . S
H1201 C1210 0.929 . S
C1202 H1196 0.930 . S
C1202 C1203 1.367 . S
C1202 C1210 1.378 . S
C1203 C1202 1.367 . S
C1203 C1211 1.433 . S
C1204 H1200 0.929 . S
C1204 C1206 1.378 1_556 S
C1204 C1208 1.350 . S
C1205 C1208 1.463 . S
C1205 C1210 1.350 . S
C1205 N1213 1.427 . S
C1206 H1197 0.930 . S
C1206 C1204 1.378 1_554 S
C1206 C1207 1.367 1_554 S
C1207 C1206 1.367 1_556 S
C1207 C1209 1.433 . S
C1208 C1204 1.350 . S
C1208 C1205 1.463 . S
C1208 N1212 1.427 . S
C1209 H1199 0.929 . S
C1209 C1207 1.433 . S
C1209 N1212 1.384 . S
C1210 H1201 0.929 . S
C1210 C1202 1.378 . S
C1210 C1205 1.350 . S
C1211 H1198 0.929 . S
C1211 C1203 1.433 . S
C1211 N1213 1.384 . S
N1212 C1208 1.427 . S
N1212 C1209 1.384 . S
N1213 C1205 1.427 . S
N1213 C1211 1.384 . S
H1214 C1220 0.930 . S
H1215 C1224 0.930 . S
H1216 C1229 0.929 . S
H1217 C1227 0.929 . S
H1218 C1222 0.929 . S
H1219 C1228 0.929 . S
C1220 H1214 0.930 . S
C1220 C1221 1.367 . S
C1220 C1228 1.378 . S
C1221 C1220 1.367 . S
C1221 C1229 1.433 . S
C1222 H1218 0.929 . S
C1222 C1224 1.378 . S
C1222 C1226 1.350 . S
C1223 C1226 1.463 . S
C1223 C1228 1.350 . S
C1223 N1231 1.427 . S
C1224 H1215 0.930 . S
C1224 C1222 1.378 . S
C1224 C1225 1.367 . S
C1225 C1224 1.367 . S
C1225 C1227 1.433 . S
C1226 C1222 1.350 . S
C1226 C1223 1.463 . S
C1226 N1230 1.427 . S
C1227 H1217 0.929 . S
C1227 C1225 1.433 . S
C1227 N1230 1.384 . S
C1228 H1219 0.929 . S
C1228 C1220 1.378 . S
C1228 C1223 1.350 . S
C1229 H1216 0.929 . S
C1229 C1221 1.433 . S
C1229 N1231 1.384 . S
N1230 C1226 1.427 . S
N1230 C1227 1.384 . S
N1231 C1223 1.427 . S
N1231 C1229 1.384 . S
H1232 C1238 0.930 . S
H1233 C1242 0.930 . S
H1234 C1247 0.929 . S
H1235 C1245 0.929 . S
H1236 C1240 0.929 . S
H1237 C1246 0.929 . S
C1238 H1232 0.930 . S
C1238 C1239 1.367 . S
C1238 C1246 1.378 . S
C1239 C1238 1.367 . S
C1239 C1247 1.433 1_545 S
C1240 H1236 0.929 . S
C1240 C1242 1.378 . S
C1240 C1244 1.350 1_565 S
C1241 C1244 1.463 . S
C1241 C1246 1.350 . S
C1241 N1249 1.427 1_545 S
C1242 H1233 0.930 . S
C1242 C1240 1.378 . S
C1242 C1243 1.367 1_565 S
C1243 C1242 1.367 1_545 S
C1243 C1245 1.433 . S
C1244 C1240 1.350 1_545 S
C1244 C1241 1.463 . S
C1244 N1248 1.427 . S
C1245 H1235 0.929 . S
C1245 C1243 1.433 . S
C1245 N1248 1.384 . S
C1246 H1237 0.929 . S
C1246 C1238 1.378 . S
C1246 C1241 1.350 . S
C1247 H1234 0.929 . S
C1247 C1239 1.433 1_565 S
C1247 N1249 1.384 . S
N1248 C1244 1.427 . S
N1248 C1245 1.384 . S
N1249 C1241 1.427 1_565 S
N1249 C1247 1.384 . S
H1250 C1256 0.930 . S
H1251 C1260 0.930 . S
H1252 C1265 0.929 . S
H1253 C1263 0.929 . S
H1254 C1258 0.929 . S
H1255 C1264 0.929 . S
C1256 H1250 0.930 . S
C1256 C1257 1.367 . S
C1256 C1264 1.378 . S
C1257 C1256 1.367 . S
C1257 C1265 1.433 . S
C1258 H1254 0.929 . S
C1258 C1260 1.378 . S
C1258 C1262 1.350 . S
C1259 C1262 1.463 . S
C1259 C1264 1.350 . S
C1259 N1267 1.427 . S
C1260 H1251 0.930 . S
C1260 C1258 1.378 . S
C1260 C1261 1.367 . S
C1261 C1260 1.367 . S
C1261 C1263 1.433 . S
C1262 C1258 1.350 . S
C1262 C1259 1.463 . S
C1262 N1266 1.427 . S
C1263 H1253 0.929 . S
C1263 C1261 1.433 . S
C1263 N1266 1.384 . S
C1264 H1255 0.929 . S
C1264 C1256 1.378 . S
C1264 C1259 1.350 . S
C1265 H1252 0.929 . S
C1265 C1257 1.433 . S
C1265 N1267 1.384 . S
N1266 C1262 1.427 . S
N1266 C1263 1.384 . S
N1267 C1259 1.427 . S
N1267 C1265 1.384 . S
H1268 C1274 0.930 . S
H1269 C1278 0.930 . S
H1270 C1283 0.929 . S
H1271 C1281 0.929 . S
H1272 C1276 0.929 . S
H1273 C1282 0.929 . S
C1274 H1268 0.930 . S
C1274 C1275 1.367 . S
C1274 C1282 1.378 . S
C1275 C1274 1.367 . S
C1275 C1283 1.433 . S
C1276 H1272 0.929 . S
C1276 C1278 1.378 . S
C1276 C1280 1.350 . S
C1277 C1280 1.463 . S
C1277 C1282 1.350 . S
C1277 N1285 1.427 . S
C1278 H1269 0.930 . S
C1278 C1276 1.378 . S
C1278 C1279 1.367 . S
C1279 C1278 1.367 . S
C1279 C1281 1.433 . S
C1280 C1276 1.350 . S
C1280 C1277 1.463 . S
C1280 N1284 1.427 . S
C1281 H1271 0.929 . S
C1281 C1279 1.433 . S
C1281 N1284 1.384 . S
C1282 H1273 0.929 . S
C1282 C1274 1.378 . S
C1282 C1277 1.350 . S
C1283 H1270 0.929 . S
C1283 C1275 1.433 . S
C1283 N1285 1.384 . S
N1284 C1280 1.427 . S
N1284 C1281 1.384 . S
N1285 C1277 1.427 . S
N1285 C1283 1.384 . S
H1286 C1292 0.930 . S
H1287 C1296 0.930 . S
H1288 C1301 0.929 . S
H1289 C1299 0.929 . S
H1290 C1294 0.929 . S
H1291 C1300 0.929 . S
C1292 H1286 0.930 . S
C1292 C1293 1.367 . S
C1292 C1300 1.378 . S
C1293 C1292 1.367 . S
C1293 C1301 1.433 . S
C1294 H1290 0.929 . S
C1294 C1296 1.378 . S
C1294 C1298 1.350 . S
C1295 C1298 1.463 . S
C1295 C1300 1.350 . S
C1295 N1303 1.427 . S
C1296 H1287 0.930 . S
C1296 C1294 1.378 . S
C1296 C1297 1.367 . S
C1297 C1296 1.367 . S
C1297 C1299 1.433 . S
C1298 C1294 1.350 . S
C1298 C1295 1.463 . S
C1298 N1302 1.427 . S
C1299 H1289 0.929 . S
C1299 C1297 1.433 . S
C1299 N1302 1.384 . S
C1300 H1291 0.929 . S
C1300 C1292 1.378 . S
C1300 C1295 1.350 . S
C1301 H1288 0.929 . S
C1301 C1293 1.433 . S
C1301 N1303 1.384 . S
N1302 C1298 1.427 . S
N1302 C1299 1.384 . S
N1303 C1295 1.427 . S
N1303 C1301 1.384 . S
H1304 C1310 0.930 . S
H1305 C1314 0.930 . S
H1306 C1319 0.929 . S
H1307 C1317 0.929 1_565 S
H1308 C1312 0.929 . S
H1309 C1318 0.929 . S
C1310 H1304 0.930 . S
C1310 C1311 1.359 1_565 S
C1310 C1318 1.378 . S
C1311 C1310 1.359 1_545 S
C1311 C1319 1.448 . S
C1312 H1308 0.929 . S
C1312 C1314 1.378 . S
C1312 C1316 1.350 . S
C1313 C1316 1.463 . S
C1313 C1318 1.350 1_545 S
C1313 N1321 1.427 . S
C1314 H1305 0.930 . S
C1314 C1312 1.378 . S
C1314 C1315 1.367 . S
C1315 C1314 1.367 . S
C1315 C1317 1.433 . S
C1316 C1312 1.350 . S
C1316 C1313 1.463 . S
C1316 N1320 1.420 1_545 S
C1317 H1307 0.929 1_545 S
C1317 C1315 1.433 . S
C1317 N1320 1.377 1_545 S
C1318 H1309 0.929 . S
C1318 C1310 1.378 . S
C1318 C1313 1.350 1_565 S
C1319 H1306 0.929 . S
C1319 C1311 1.448 . S
C1319 N1321 1.384 . S
N1320 C1316 1.420 1_565 S
N1320 C1317 1.377 1_565 S
N1321 C1313 1.427 . S
N1321 C1319 1.384 . S
H1322 C1328 0.930 . S
H1323 C1332 0.930 . S
H1324 C1337 0.929 . S
H1325 C1335 0.929 . S
H1326 C1330 0.929 . S
H1327 C1336 0.929 . S
C1328 H1322 0.930 . S
C1328 C1329 1.367 . S
C1328 C1336 1.378 . S
C1329 C1328 1.367 . S
C1329 C1337 1.433 . S
C1330 H1326 0.929 . S
C1330 C1332 1.378 . S
C1330 C1334 1.350 . S
C1331 C1334 1.463 . S
C1331 C1336 1.350 . S
C1331 N1339 1.427 . S
C1332 H1323 0.930 . S
C1332 C1330 1.378 . S
C1332 C1333 1.367 . S
C1333 C1332 1.367 . S
C1333 C1335 1.433 . S
C1334 C1330 1.350 . S
C1334 C1331 1.463 . S
C1334 N1338 1.427 . S
C1335 H1325 0.929 . S
C1335 C1333 1.433 . S
C1335 N1338 1.384 . S
C1336 H1327 0.929 . S
C1336 C1328 1.378 . S
C1336 C1331 1.350 . S
C1337 H1324 0.929 . S
C1337 C1329 1.433 . S
C1337 N1339 1.384 . S
N1338 C1334 1.427 . S
N1338 C1335 1.384 . S
N1339 C1331 1.427 . S
N1339 C1337 1.384 . S
H1340 C1346 0.930 . S
H1341 C1350 0.930 . S
H1342 C1355 0.929 . S
H1343 C1353 0.929 1_565 S
H1344 C1348 0.929 . S
H1345 C1354 0.929 . S
C1346 H1340 0.930 . S
C1346 C1347 1.367 . S
C1346 C1354 1.378 . S
C1347 C1346 1.367 . S
C1347 C1355 1.433 . S
C1348 H1344 0.929 . S
C1348 C1350 1.378 . S
C1348 C1352 1.350 . S
C1349 C1352 1.463 . S
C1349 C1354 1.350 . S
C1349 N1357 1.427 . S
C1350 H1341 0.930 . S
C1350 C1348 1.378 . S
C1350 C1351 1.367 . S
C1351 C1350 1.367 . S
C1351 C1353 1.433 . S
C1352 C1348 1.350 . S
C1352 C1349 1.463 . S
C1352 N1356 1.427 . S
C1353 H1343 0.929 1_545 S
C1353 C1351 1.433 . S
C1353 N1356 1.384 . S
C1354 H1345 0.929 . S
C1354 C1346 1.378 . S
C1354 C1349 1.350 . S
C1355 H1342 0.929 . S
C1355 C1347 1.433 . S
C1355 N1357 1.384 . S
N1356 C1352 1.427 . S
N1356 C1353 1.384 . S
N1357 C1349 1.427 . S
N1357 C1355 1.384 . S
H1358 C1364 0.930 . S
H1359 C1368 0.930 . S
H1360 C1373 0.929 . S
H1361 C1371 0.929 . S
H1362 C1366 0.929 . S
H1363 C1372 0.929 . S
C1364 H1358 0.930 . S
C1364 C1365 1.367 . S
C1364 C1372 1.378 . S
C1365 C1364 1.367 . S
C1365 C1373 1.433 . S
C1366 H1362 0.929 . S
C1366 C1368 1.378 . S
C1366 C1370 1.350 . S
C1367 C1370 1.463 . S
C1367 C1372 1.350 . S
C1367 N1375 1.427 . S
C1368 H1359 0.930 . S
C1368 C1366 1.378 . S
C1368 C1369 1.367 . S
C1369 C1368 1.367 . S
C1369 C1371 1.433 . S
C1370 C1366 1.350 . S
C1370 C1367 1.463 . S
C1370 N1374 1.427 . S
C1371 H1361 0.929 . S
C1371 C1369 1.433 . S
C1371 N1374 1.384 . S
C1372 H1363 0.929 . S
C1372 C1364 1.378 . S
C1372 C1367 1.350 . S
C1373 H1360 0.929 . S
C1373 C1365 1.433 . S
C1373 N1375 1.384 . S
N1374 C1370 1.427 . S
N1374 C1371 1.384 . S
N1375 C1367 1.427 . S
N1375 C1373 1.384 . S
H1376 C1382 0.930 . S
H1377 C1386 0.930 . S
H1378 C1391 0.929 . S
H1379 C1389 0.929 . S
H1380 C1384 0.929 . S
H1381 C1390 0.929 . S
C1382 H1376 0.930 . S
C1382 C1383 1.367 . S
C1382 C1390 1.378 . S
C1383 C1382 1.367 . S
C1383 C1391 1.433 1_554 S
C1384 H1380 0.929 . S
C1384 C1386 1.378 . S
C1384 C1388 1.350 . S
C1385 C1388 1.463 1_554 S
C1385 C1390 1.350 . S
C1385 N1393 1.427 1_554 S
C1386 H1377 0.930 . S
C1386 C1384 1.378 . S
C1386 C1387 1.367 . S
C1387 C1386 1.367 . S
C1387 C1389 1.433 1_556 S
C1388 C1384 1.350 . S
C1388 C1385 1.463 1_556 S
C1388 N1392 1.427 1_556 S
C1389 H1379 0.929 . S
C1389 C1387 1.433 1_554 S
C1389 N1392 1.384 . S
C1390 H1381 0.929 . S
C1390 C1382 1.378 . S
C1390 C1385 1.350 . S
C1391 H1378 0.929 . S
C1391 C1383 1.433 1_556 S
C1391 N1393 1.384 . S
N1392 C1388 1.427 1_554 S
N1392 C1389 1.384 . S
N1393 C1385 1.427 1_556 S
N1393 C1391 1.384 . S
H1394 C1400 0.930 . S
H1395 C1404 0.930 . S
H1396 C1409 0.929 . S
H1397 C1407 0.929 . S
H1398 C1402 0.929 . S
H1399 C1408 0.929 . S
C1400 H1394 0.930 . S
C1400 C1401 1.367 . S
C1400 C1408 1.378 . S
C1401 C1400 1.367 . S
C1401 C1409 1.433 . S
C1402 H1398 0.929 . S
C1402 C1404 1.378 . S
C1402 C1406 1.350 . S
C1403 C1406 1.463 . S
C1403 C1408 1.350 . S
C1403 N1411 1.427 . S
C1404 H1395 0.930 . S
C1404 C1402 1.378 . S
C1404 C1405 1.367 . S
C1405 C1404 1.367 . S
C1405 C1407 1.433 . S
C1406 C1402 1.350 . S
C1406 C1403 1.463 . S
C1406 N1410 1.427 . S
C1407 H1397 0.929 . S
C1407 C1405 1.433 . S
C1407 N1410 1.384 . S
C1408 H1399 0.929 . S
C1408 C1400 1.378 . S
C1408 C1403 1.350 . S
C1409 H1396 0.929 . S
C1409 C1401 1.433 . S
C1409 N1411 1.384 . S
N1410 C1406 1.427 . S
N1410 C1407 1.384 . S
N1411 C1403 1.427 . S
N1411 C1409 1.384 . S
H1412 C1418 0.930 . S
H1413 C1422 0.930 . S
H1414 C1427 0.929 . S
H1415 C1425 0.929 . S
H1416 C1420 0.929 . S
H1417 C1426 0.929 . S
C1418 H1412 0.930 . S
C1418 C1419 1.367 . S
C1418 C1426 1.378 . S
C1419 C1418 1.367 . S
C1419 C1427 1.433 . S
C1420 H1416 0.929 . S
C1420 C1422 1.378 . S
C1420 C1424 1.350 . S
C1421 C1424 1.463 . S
C1421 C1426 1.350 . S
C1421 N1429 1.427 . S
C1422 H1413 0.930 . S
C1422 C1420 1.378 . S
C1422 C1423 1.367 . S
C1423 C1422 1.367 . S
C1423 C1425 1.433 . S
C1424 C1420 1.350 . S
C1424 C1421 1.463 . S
C1424 N1428 1.427 . S
C1425 H1415 0.929 . S
C1425 C1423 1.433 . S
C1425 N1428 1.384 . S
C1426 H1417 0.929 . S
C1426 C1418 1.378 . S
C1426 C1421 1.350 . S
C1427 H1414 0.929 . S
C1427 C1419 1.433 . S
C1427 N1429 1.384 . S
N1428 C1424 1.427 . S
N1428 C1425 1.384 . S
N1429 C1421 1.427 . S
N1429 C1427 1.384 . S
H1430 C1436 0.930 . S
H1431 C1440 0.930 . S
H1432 C1445 0.929 . S
H1433 C1443 0.929 . S
H1434 C1438 0.929 . S
H1435 C1444 0.929 . S
C1436 H1430 0.930 . S
C1436 C1437 1.367 . S
C1436 C1444 1.378 . S
C1437 C1436 1.367 . S
C1437 C1445 1.433 . S
C1438 H1434 0.929 . S
C1438 C1440 1.378 . S
C1438 C1442 1.350 . S
C1439 C1442 1.463 . S
C1439 C1444 1.350 . S
C1439 N1447 1.427 . S
C1440 H1431 0.930 . S
C1440 C1438 1.378 . S
C1440 C1441 1.367 . S
C1441 C1440 1.367 . S
C1441 C1443 1.433 . S
C1442 C1438 1.350 . S
C1442 C1439 1.463 . S
C1442 N1446 1.427 . S
C1443 H1433 0.929 . S
C1443 C1441 1.433 . S
C1443 N1446 1.384 . S
C1444 H1435 0.929 . S
C1444 C1436 1.378 . S
C1444 C1439 1.350 . S
C1445 H1432 0.929 . S
C1445 C1437 1.433 . S
C1445 N1447 1.384 . S
N1446 C1442 1.427 . S
N1446 C1443 1.384 . S
N1447 C1439 1.427 . S
N1447 C1445 1.384 . S
H1448 C1454 0.930 . S
H1449 C1458 0.930 . S
H1450 C1463 0.929 . S
H1451 C1461 0.929 . S
H1452 C1456 0.929 . S
H1453 C1462 0.929 . S
C1454 H1448 0.930 . S
C1454 C1455 1.367 . S
C1454 C1462 1.378 . S
C1455 C1454 1.367 . S
C1455 C1463 1.433 . S
C1456 H1452 0.929 . S
C1456 C1458 1.378 . S
C1456 C1460 1.350 . S
C1457 C1460 1.463 . S
C1457 C1462 1.350 . S
C1457 N1465 1.427 . S
C1458 H1449 0.930 . S
C1458 C1456 1.378 . S
C1458 C1459 1.367 . S
C1459 C1458 1.367 . S
C1459 C1461 1.433 . S
C1460 C1456 1.350 . S
C1460 C1457 1.463 . S
C1460 N1464 1.427 . S
C1461 H1451 0.929 . S
C1461 C1459 1.433 . S
C1461 N1464 1.384 . S
C1462 H1453 0.929 . S
C1462 C1454 1.378 . S
C1462 C1457 1.350 . S
C1463 H1450 0.929 . S
C1463 C1455 1.433 . S
C1463 N1465 1.384 . S
N1464 C1460 1.427 . S
N1464 C1461 1.384 . S
N1465 C1457 1.427 . S
N1465 C1463 1.384 . S
H1466 C1472 0.930 . S
H1467 C1476 0.930 1_545 S
H1468 C1481 0.929 . S
H1469 C1479 0.929 . S
H1470 C1474 0.929 . S
H1471 C1480 0.929 . S
C1472 H1466 0.930 . S
C1472 C1473 1.367 . S
C1472 C1480 1.378 . S
C1473 C1472 1.367 . S
C1473 C1481 1.433 . S
C1474 H1470 0.929 . S
C1474 C1476 1.378 . S
C1474 C1478 1.350 . S
C1475 C1478 1.463 . S
C1475 C1480 1.350 . S
C1475 N1483 1.427 . S
C1476 H1467 0.930 1_565 S
C1476 C1474 1.378 . S
C1476 C1477 1.367 . S
C1477 C1476 1.367 . S
C1477 C1479 1.433 . S
C1478 C1474 1.350 . S
C1478 C1475 1.463 . S
C1478 N1482 1.427 . S
C1479 H1469 0.929 . S
C1479 C1477 1.433 . S
C1479 N1482 1.384 . S
C1480 H1471 0.929 . S
C1480 C1472 1.378 . S
C1480 C1475 1.350 . S
C1481 H1468 0.929 . S
C1481 C1473 1.433 . S
C1481 N1483 1.384 . S
N1482 C1478 1.427 . S
N1482 C1479 1.384 . S
N1483 C1475 1.427 . S
N1483 C1481 1.384 . S
H1484 C1490 0.930 . S
H1485 C1494 0.930 . S
H1486 C1499 0.929 . S
H1487 C1497 0.929 . S
H1488 C1492 0.929 . S
H1489 C1498 0.929 . S
C1490 H1484 0.930 . S
C1490 C1491 1.367 . S
C1490 C1498 1.378 . S
C1491 C1490 1.367 . S
C1491 C1499 1.433 . S
C1492 H1488 0.929 . S
C1492 C1494 1.378 . S
C1492 C1496 1.350 . S
C1493 C1496 1.463 . S
C1493 C1498 1.350 . S
C1493 N1501 1.427 . S
C1494 H1485 0.930 . S
C1494 C1492 1.378 . S
C1494 C1495 1.367 . S
C1495 C1494 1.367 . S
C1495 C1497 1.433 . S
C1496 C1492 1.350 . S
C1496 C1493 1.463 . S
C1496 N1500 1.427 . S
C1497 H1487 0.929 . S
C1497 C1495 1.433 . S
C1497 N1500 1.384 . S
C1498 H1489 0.929 . S
C1498 C1490 1.378 . S
C1498 C1493 1.350 . S
C1499 H1486 0.929 . S
C1499 C1491 1.433 . S
C1499 N1501 1.384 . S
N1500 C1496 1.427 . S
N1500 C1497 1.384 . S
N1501 C1493 1.427 . S
N1501 C1499 1.384 . S
H1502 C1508 0.930 . S
H1503 C1512 0.930 . S
H1504 C1517 0.929 . S
H1505 C1515 0.929 . S
H1506 C1510 0.929 . S
H1507 C1516 0.929 . S
C1508 H1502 0.930 . S
C1508 C1509 1.367 . S
C1508 C1516 1.378 . S
C1509 C1508 1.367 . S
C1509 C1517 1.433 . S
C1510 H1506 0.929 . S
C1510 C1512 1.378 . S
C1510 C1514 1.350 . S
C1511 C1514 1.463 . S
C1511 C1516 1.350 . S
C1511 N1519 1.427 . S
C1512 H1503 0.930 . S
C1512 C1510 1.378 . S
C1512 C1513 1.367 . S
C1513 C1512 1.367 . S
C1513 C1515 1.433 . S
C1514 C1510 1.350 . S
C1514 C1511 1.463 . S
C1514 N1518 1.427 . S
C1515 H1505 0.929 . S
C1515 C1513 1.433 . S
C1515 N1518 1.384 . S
C1516 H1507 0.929 . S
C1516 C1508 1.378 . S
C1516 C1511 1.350 . S
C1517 H1504 0.929 . S
C1517 C1509 1.433 . S
C1517 N1519 1.384 . S
N1518 C1514 1.427 . S
N1518 C1515 1.384 . S
N1519 C1511 1.427 . S
N1519 C1517 1.384 . S
H1520 C1526 0.930 . S
H1521 C1530 0.930 . S
H1522 C1535 0.929 . S
H1523 C1533 0.929 . S
H1524 C1528 0.929 . S
H1525 C1534 0.929 . S
C1526 H1520 0.930 . S
C1526 C1527 1.367 . S
C1526 C1534 1.378 . S
C1527 C1526 1.367 . S
C1527 C1535 1.433 . S
C1528 H1524 0.929 . S
C1528 C1530 1.378 . S
C1528 C1532 1.350 . S
C1529 C1532 1.463 . S
C1529 C1534 1.350 . S
C1529 N1537 1.427 . S
C1530 H1521 0.930 . S
C1530 C1528 1.378 . S
C1530 C1531 1.367 . S
C1531 C1530 1.367 . S
C1531 C1533 1.433 . S
C1532 C1528 1.350 . S
C1532 C1529 1.463 . S
C1532 N1536 1.427 . S
C1533 H1523 0.929 . S
C1533 C1531 1.433 . S
C1533 N1536 1.384 . S
C1534 H1525 0.929 . S
C1534 C1526 1.378 . S
C1534 C1529 1.350 . S
C1535 H1522 0.929 . S
C1535 C1527 1.433 . S
C1535 N1537 1.384 . S
N1536 C1532 1.427 . S
N1536 C1533 1.384 . S
N1537 C1529 1.427 . S
N1537 C1535 1.384 . S
H1538 C1544 0.930 . S
H1539 C1548 0.930 . S
H1540 C1553 0.929 . S
H1541 C1551 0.929 . S
H1542 C1546 0.929 . S
H1543 C1552 0.929 . S
C1544 H1538 0.930 . S
C1544 C1545 1.367 . S
C1544 C1552 1.378 . S
C1545 C1544 1.367 . S
C1545 C1553 1.433 . S
C1546 H1542 0.929 . S
C1546 C1548 1.378 . S
C1546 C1550 1.350 . S
C1547 C1550 1.463 . S
C1547 C1552 1.350 . S
C1547 N1555 1.427 . S
C1548 H1539 0.930 . S
C1548 C1546 1.378 . S
C1548 C1549 1.367 . S
C1549 C1548 1.367 . S
C1549 C1551 1.433 . S
C1550 C1546 1.350 . S
C1550 C1547 1.463 . S
C1550 N1554 1.427 . S
C1551 H1541 0.929 . S
C1551 C1549 1.433 . S
C1551 N1554 1.384 . S
C1552 H1543 0.929 . S
C1552 C1544 1.378 . S
C1552 C1547 1.350 . S
C1553 H1540 0.929 . S
C1553 C1545 1.433 . S
C1553 N1555 1.384 . S
N1554 C1550 1.427 . S
N1554 C1551 1.384 . S
N1555 C1547 1.427 . S
N1555 C1553 1.384 . S
H1556 C1562 0.930 . S
H1557 C1566 0.930 . S
H1558 C1571 0.929 . S
H1559 C1569 0.929 . S
H1560 C1564 0.929 . S
H1561 C1570 0.929 . S
C1562 H1556 0.930 . S
C1562 C1563 1.367 . S
C1562 C1570 1.378 . S
C1563 C1562 1.367 . S
C1563 C1571 1.433 . S
C1564 H1560 0.929 . S
C1564 C1566 1.378 . S
C1564 C1568 1.350 . S
C1565 C1568 1.463 . S
C1565 C1570 1.350 . S
C1565 N1573 1.427 . S
C1566 H1557 0.930 . S
C1566 C1564 1.378 . S
C1566 C1567 1.367 1_556 S
C1567 C1566 1.367 1_554 S
C1567 C1569 1.433 . S
C1568 C1564 1.350 . S
C1568 C1565 1.463 . S
C1568 N1572 1.427 1_556 S
C1569 H1559 0.929 . S
C1569 C1567 1.433 . S
C1569 N1572 1.384 . S
C1570 H1561 0.929 . S
C1570 C1562 1.378 . S
C1570 C1565 1.350 . S
C1571 H1558 0.929 . S
C1571 C1563 1.433 . S
C1571 N1573 1.384 . S
N1572 C1568 1.427 1_554 S
N1572 C1569 1.384 . S
N1573 C1565 1.427 . S
N1573 C1571 1.384 . S
H1574 C1580 0.930 . S
H1575 C1584 0.930 . S
H1576 C1589 0.929 . S
H1577 C1587 0.929 . S
H1578 C1582 0.929 . S
H1579 C1588 0.929 . S
C1580 H1574 0.930 . S
C1580 C1581 1.367 . S
C1580 C1588 1.378 . S
C1581 C1580 1.367 . S
C1581 C1589 1.433 . S
C1582 H1578 0.929 . S
C1582 C1584 1.378 . S
C1582 C1586 1.350 . S
C1583 C1586 1.463 . S
C1583 C1588 1.350 . S
C1583 N1591 1.427 . S
C1584 H1575 0.930 . S
C1584 C1582 1.378 . S
C1584 C1585 1.367 . S
C1585 C1584 1.367 . S
C1585 C1587 1.433 . S
C1586 C1582 1.350 . S
C1586 C1583 1.463 . S
C1586 N1590 1.427 . S
C1587 H1577 0.929 . S
C1587 C1585 1.433 . S
C1587 N1590 1.384 . S
C1588 H1579 0.929 . S
C1588 C1580 1.378 . S
C1588 C1583 1.350 . S
C1589 H1576 0.929 . S
C1589 C1581 1.433 . S
C1589 N1591 1.384 . S
N1590 C1586 1.427 . S
N1590 C1587 1.384 . S
N1591 C1583 1.427 . S
N1591 C1589 1.384 . S
H1592 C1598 0.930 . S
H1593 C1602 0.930 . S
H1594 C1607 0.929 . S
H1595 C1605 0.929 . S
H1596 C1600 0.929 . S
H1597 C1606 0.929 . S
C1598 H1592 0.930 . S
C1598 C1599 1.367 . S
C1598 C1606 1.378 . S
C1599 C1598 1.367 . S
C1599 C1607 1.433 . S
C1600 H1596 0.929 . S
C1600 C1602 1.378 . S
C1600 C1604 1.350 . S
C1601 C1604 1.463 . S
C1601 C1606 1.350 . S
C1601 N1609 1.427 . S
C1602 H1593 0.930 . S
C1602 C1600 1.378 . S
C1602 C1603 1.367 . S
C1603 C1602 1.367 . S
C1603 C1605 1.433 . S
C1604 C1600 1.350 . S
C1604 C1601 1.463 . S
C1604 N1608 1.427 . S
C1605 H1595 0.929 . S
C1605 C1603 1.433 . S
C1605 N1608 1.384 . S
C1606 H1597 0.929 . S
C1606 C1598 1.378 . S
C1606 C1601 1.350 . S
C1607 H1594 0.929 . S
C1607 C1599 1.433 . S
C1607 N1609 1.384 . S
N1608 C1604 1.427 . S
N1608 C1605 1.384 . S
N1609 C1601 1.427 . S
N1609 C1607 1.384 . S
H1610 C1616 0.930 . S
H1611 C1620 0.930 . S
H1612 C1625 0.929 . S
H1613 C1623 0.929 . S
H1614 C1618 0.929 . S
H1615 C1624 0.929 . S
C1616 H1610 0.930 . S
C1616 C1617 1.367 . S
C1616 C1624 1.378 . S
C1617 C1616 1.367 . S
C1617 C1625 1.433 . S
C1618 H1614 0.929 . S
C1618 C1620 1.378 . S
C1618 C1622 1.350 . S
C1619 C1622 1.463 . S
C1619 C1624 1.350 . S
C1619 N1627 1.427 . S
C1620 H1611 0.930 . S
C1620 C1618 1.378 . S
C1620 C1621 1.367 . S
C1621 C1620 1.367 . S
C1621 C1623 1.433 . S
C1622 C1618 1.350 . S
C1622 C1619 1.463 . S
C1622 N1626 1.427 . S
C1623 H1613 0.929 . S
C1623 C1621 1.433 . S
C1623 N1626 1.384 . S
C1624 H1615 0.929 . S
C1624 C1616 1.378 . S
C1624 C1619 1.350 . S
C1625 H1612 0.929 . S
C1625 C1617 1.433 . S
C1625 N1627 1.384 . S
N1626 C1622 1.427 . S
N1626 C1623 1.384 . S
N1627 C1619 1.427 . S
N1627 C1625 1.384 . S
H1628 C1634 0.930 . S
H1629 C1638 0.930 . S
H1630 C1643 0.929 . S
H1631 C1641 0.929 . S
H1632 C1636 0.929 . S
H1633 C1642 0.929 . S
C1634 H1628 0.930 . S
C1634 C1635 1.367 . S
C1634 C1642 1.378 . S
C1635 C1634 1.367 . S
C1635 C1643 1.433 1_455 S
C1636 H1632 0.929 . S
C1636 C1638 1.378 . S
C1636 C1640 1.350 1_655 S
C1637 C1640 1.463 . S
C1637 C1642 1.350 . S
C1637 N1645 1.427 1_455 S
C1638 H1629 0.930 . S
C1638 C1636 1.378 . S
C1638 C1639 1.367 1_655 S
C1639 C1638 1.367 1_455 S
C1639 C1641 1.433 . S
C1640 C1636 1.350 1_455 S
C1640 C1637 1.463 . S
C1640 N1644 1.427 . S
C1641 H1631 0.929 . S
C1641 C1639 1.433 . S
C1641 N1644 1.384 . S
C1642 H1633 0.929 . S
C1642 C1634 1.378 . S
C1642 C1637 1.350 . S
C1643 H1630 0.929 . S
C1643 C1635 1.433 1_655 S
C1643 N1645 1.384 . S
N1644 C1640 1.427 . S
N1644 C1641 1.384 . S
N1645 C1637 1.427 1_655 S
N1645 C1643 1.384 . S
H1646 C1652 0.930 . S
H1647 C1656 0.930 . S
H1648 C1661 0.929 . S
H1649 C1659 0.929 . S
H1650 C1654 0.929 . S
H1651 C1660 0.929 . S
C1652 H1646 0.930 . S
C1652 C1653 1.367 . S
C1652 C1660 1.378 . S
C1653 C1652 1.367 . S
C1653 C1661 1.433 . S
C1654 H1650 0.929 . S
C1654 C1656 1.378 . S
C1654 C1658 1.350 . S
C1655 C1658 1.463 . S
C1655 C1660 1.350 . S
C1655 N1663 1.427 . S
C1656 H1647 0.930 . S
C1656 C1654 1.378 . S
C1656 C1657 1.367 . S
C1657 C1656 1.367 . S
C1657 C1659 1.433 . S
C1658 C1654 1.350 . S
C1658 C1655 1.463 . S
C1658 N1662 1.427 . S
C1659 H1649 0.929 . S
C1659 C1657 1.433 . S
C1659 N1662 1.384 . S
C1660 H1651 0.929 . S
C1660 C1652 1.378 . S
C1660 C1655 1.350 . S
C1661 H1648 0.929 . S
C1661 C1653 1.433 . S
C1661 N1663 1.384 . S
N1662 C1658 1.427 . S
N1662 C1659 1.384 . S
N1663 C1655 1.427 . S
N1663 C1661 1.384 . S
H1664 C1670 0.930 . S
H1665 C1674 0.930 . S
H1666 C1679 0.929 . S
H1667 C1677 0.929 . S
H1668 C1672 0.929 . S
H1669 C1678 0.929 . S
C1670 H1664 0.930 . S
C1670 C1671 1.367 . S
C1670 C1678 1.378 . S
C1671 C1670 1.367 . S
C1671 C1679 1.433 . S
C1672 H1668 0.929 . S
C1672 C1674 1.378 . S
C1672 C1676 1.350 . S
C1673 C1676 1.463 . S
C1673 C1678 1.350 . S
C1673 N1681 1.427 . S
C1674 H1665 0.930 . S
C1674 C1672 1.378 . S
C1674 C1675 1.367 . S
C1675 C1674 1.367 . S
C1675 C1677 1.433 . S
C1676 C1672 1.350 . S
C1676 C1673 1.463 . S
C1676 N1680 1.427 . S
C1677 H1667 0.929 . S
C1677 C1675 1.433 . S
C1677 N1680 1.384 . S
C1678 H1669 0.929 . S
C1678 C1670 1.378 . S
C1678 C1673 1.350 . S
C1679 H1666 0.929 . S
C1679 C1671 1.433 . S
C1679 N1681 1.384 . S
N1680 C1676 1.427 . S
N1680 C1677 1.384 . S
N1681 C1673 1.427 . S
N1681 C1679 1.384 . S
H1682 C1688 0.930 . S
H1683 C1692 0.930 . S
H1684 C1697 0.929 . S
H1685 C1695 0.929 . S
H1686 C1690 0.929 . S
H1687 C1696 0.929 . S
C1688 H1682 0.930 . S
C1688 C1689 1.367 . S
C1688 C1696 1.378 . S
C1689 C1688 1.367 . S
C1689 C1697 1.433 . S
C1690 H1686 0.929 . S
C1690 C1692 1.378 . S
C1690 C1694 1.350 . S
C1691 C1694 1.463 . S
C1691 C1696 1.350 . S
C1691 N1699 1.427 . S
C1692 H1683 0.930 . S
C1692 C1690 1.378 . S
C1692 C1693 1.367 . S
C1693 C1692 1.367 . S
C1693 C1695 1.433 . S
C1694 C1690 1.350 . S
C1694 C1691 1.463 . S
C1694 N1698 1.427 . S
C1695 H1685 0.929 . S
C1695 C1693 1.433 . S
C1695 N1698 1.384 . S
C1696 H1687 0.929 . S
C1696 C1688 1.378 . S
C1696 C1691 1.350 . S
C1697 H1684 0.929 . S
C1697 C1689 1.433 . S
C1697 N1699 1.384 . S
N1698 C1694 1.427 . S
N1698 C1695 1.384 . S
N1699 C1691 1.427 . S
N1699 C1697 1.384 . S
H1700 C1706 0.930 . S
H1701 C1710 0.930 . S
H1702 C1715 0.929 . S
H1703 C1713 0.929 . S
H1704 C1708 0.929 . S
H1705 C1714 0.929 . S
C1706 H1700 0.930 . S
C1706 C1707 1.367 . S
C1706 C1714 1.378 . S
C1707 C1706 1.367 . S
C1707 C1715 1.433 . S
C1708 H1704 0.929 . S
C1708 C1710 1.378 . S
C1708 C1712 1.350 . S
C1709 C1712 1.463 . S
C1709 C1714 1.350 . S
C1709 N1717 1.427 . S
C1710 H1701 0.930 . S
C1710 C1708 1.378 . S
C1710 C1711 1.367 . S
C1711 C1710 1.367 . S
C1711 C1713 1.433 . S
C1712 C1708 1.350 . S
C1712 C1709 1.463 . S
C1712 N1716 1.427 . S
C1713 H1703 0.929 . S
C1713 C1711 1.433 . S
C1713 N1716 1.384 . S
C1714 H1705 0.929 . S
C1714 C1706 1.378 . S
C1714 C1709 1.350 . S
C1715 H1702 0.929 . S
C1715 C1707 1.433 . S
C1715 N1717 1.384 . S
N1716 C1712 1.427 . S
N1716 C1713 1.384 . S
N1717 C1709 1.427 . S
N1717 C1715 1.384 . S
H1718 C1724 0.930 . S
H1719 C1728 0.930 . S
H1720 C1733 0.929 . S
H1721 C1731 0.929 . S
H1722 C1726 0.929 . S
H1723 C1732 0.929 . S
C1724 H1718 0.930 . S
C1724 C1725 1.367 . S
C1724 C1732 1.378 . S
C1725 C1724 1.367 . S
C1725 C1733 1.433 . S
C1726 H1722 0.929 . S
C1726 C1728 1.378 . S
C1726 C1730 1.350 . S
C1727 C1730 1.463 . S
C1727 C1732 1.350 . S
C1727 N1735 1.427 . S
C1728 H1719 0.930 . S
C1728 C1726 1.378 . S
C1728 C1729 1.367 . S
C1729 C1728 1.367 . S
C1729 C1731 1.433 . S
C1730 C1726 1.350 . S
C1730 C1727 1.463 . S
C1730 N1734 1.427 . S
C1731 H1721 0.929 . S
C1731 C1729 1.433 . S
C1731 N1734 1.384 . S
C1732 H1723 0.929 . S
C1732 C1724 1.378 . S
C1732 C1727 1.350 . S
C1733 H1720 0.929 . S
C1733 C1725 1.433 . S
C1733 N1735 1.384 . S
N1734 C1730 1.427 . S
N1734 C1731 1.384 . S
N1735 C1727 1.427 . S
N1735 C1733 1.384 . S
H1736 C1742 0.930 . S
H1737 C1746 0.930 . S
H1738 C1751 0.929 . S
H1739 C1749 0.929 . S
H1740 C1744 0.929 . S
H1741 C1750 0.929 . S
C1742 H1736 0.930 . S
C1742 C1743 1.367 . S
C1742 C1750 1.378 . S
C1743 C1742 1.367 . S
C1743 C1751 1.433 . S
C1744 H1740 0.929 . S
C1744 C1746 1.378 . S
C1744 C1748 1.350 . S
C1745 C1748 1.463 . S
C1745 C1750 1.350 . S
C1745 N1753 1.427 . S
C1746 H1737 0.930 . S
C1746 C1744 1.378 . S
C1746 C1747 1.367 . S
C1747 C1746 1.367 . S
C1747 C1749 1.433 . S
C1748 C1744 1.350 . S
C1748 C1745 1.463 . S
C1748 N1752 1.427 . S
C1749 H1739 0.929 . S
C1749 C1747 1.433 . S
C1749 N1752 1.384 . S
C1750 H1741 0.929 . S
C1750 C1742 1.378 . S
C1750 C1745 1.350 . S
C1751 H1738 0.929 . S
C1751 C1743 1.433 . S
C1751 N1753 1.384 . S
N1752 C1748 1.427 . S
N1752 C1749 1.384 . S
N1753 C1745 1.427 . S
N1753 C1751 1.384 . S
H1754 C1760 0.930 . S
H1755 C1764 0.930 . S
H1756 C1769 0.929 . S
H1757 C1767 0.929 . S
H1758 C1762 0.929 . S
H1759 C1768 0.929 . S
C1760 H1754 0.930 . S
C1760 C1761 1.367 . S
C1760 C1768 1.378 . S
C1761 C1760 1.367 . S
C1761 C1769 1.433 . S
C1762 H1758 0.929 . S
C1762 C1764 1.378 . S
C1762 C1766 1.350 . S
C1763 C1766 1.463 . S
C1763 C1768 1.350 . S
C1763 N1771 1.427 . S
C1764 H1755 0.930 . S
C1764 C1762 1.378 . S
C1764 C1765 1.367 . S
C1765 C1764 1.367 . S
C1765 C1767 1.433 . S
C1766 C1762 1.350 . S
C1766 C1763 1.463 . S
C1766 N1770 1.427 . S
C1767 H1757 0.929 . S
C1767 C1765 1.433 . S
C1767 N1770 1.384 . S
C1768 H1759 0.929 . S
C1768 C1760 1.378 . S
C1768 C1763 1.350 . S
C1769 H1756 0.929 . S
C1769 C1761 1.433 . S
C1769 N1771 1.384 . S
N1770 C1766 1.427 . S
N1770 C1767 1.384 . S
N1771 C1763 1.427 . S
N1771 C1769 1.384 . S
H1772 C1778 0.930 . S
H1773 C1782 0.930 . S
H1774 C1787 0.929 . S
H1775 C1785 0.929 . S
H1776 C1780 0.929 . S
H1777 C1786 0.929 . S
C1778 H1772 0.930 . S
C1778 C1779 1.367 . S
C1778 C1786 1.378 . S
C1779 C1778 1.367 . S
C1779 C1787 1.433 . S
C1780 H1776 0.929 . S
C1780 C1782 1.378 . S
C1780 C1784 1.350 . S
C1781 C1784 1.463 . S
C1781 C1786 1.350 . S
C1781 N1789 1.427 . S
C1782 H1773 0.930 . S
C1782 C1780 1.378 . S
C1782 C1783 1.367 . S
C1783 C1782 1.367 . S
C1783 C1785 1.433 . S
C1784 C1780 1.350 . S
C1784 C1781 1.463 . S
C1784 N1788 1.427 . S
C1785 H1775 0.929 . S
C1785 C1783 1.433 . S
C1785 N1788 1.384 . S
C1786 H1777 0.929 . S
C1786 C1778 1.378 . S
C1786 C1781 1.350 . S
C1787 H1774 0.929 . S
C1787 C1779 1.433 . S
C1787 N1789 1.384 . S
N1788 C1784 1.427 . S
N1788 C1785 1.384 . S
N1789 C1781 1.427 . S
N1789 C1787 1.384 . S
H1790 C1796 0.930 . S
H1791 C1800 0.930 . S
H1792 C1805 0.929 . S
H1793 C1803 0.929 . S
H1794 C1798 0.929 . S
H1795 C1804 0.929 . S
C1796 H1790 0.930 . S
C1796 C1797 1.367 . S
C1796 C1804 1.378 . S
C1797 C1796 1.367 . S
C1797 C1805 1.433 . S
C1798 H1794 0.929 . S
C1798 C1800 1.378 . S
C1798 C1802 1.350 . S
C1799 C1802 1.463 . S
C1799 C1804 1.350 . S
C1799 N1807 1.427 . S
C1800 H1791 0.930 . S
C1800 C1798 1.378 . S
C1800 C1801 1.367 . S
C1801 C1800 1.367 . S
C1801 C1803 1.433 . S
C1802 C1798 1.350 . S
C1802 C1799 1.463 . S
C1802 N1806 1.427 . S
C1803 H1793 0.929 . S
C1803 C1801 1.433 . S
C1803 N1806 1.384 . S
C1804 H1795 0.929 . S
C1804 C1796 1.378 . S
C1804 C1799 1.350 . S
C1805 H1792 0.929 . S
C1805 C1797 1.433 . S
C1805 N1807 1.384 . S
N1806 C1802 1.427 . S
N1806 C1803 1.384 . S
N1807 C1799 1.427 . S
N1807 C1805 1.384 . S
H1808 C1814 0.930 . S
H1809 C1818 0.930 . S
H1810 C1823 0.929 . S
H1811 C1821 0.929 . S
H1812 C1816 0.929 . S
H1813 C1822 0.929 . S
C1814 H1808 0.930 . S
C1814 C1815 1.367 . S
C1814 C1822 1.378 . S
C1815 C1814 1.367 . S
C1815 C1823 1.433 . S
C1816 H1812 0.929 . S
C1816 C1818 1.378 . S
C1816 C1820 1.350 . S
C1817 C1820 1.463 . S
C1817 C1822 1.350 . S
C1817 N1825 1.427 . S
C1818 H1809 0.930 . S
C1818 C1816 1.378 . S
C1818 C1819 1.367 . S
C1819 C1818 1.367 . S
C1819 C1821 1.433 . S
C1820 C1816 1.350 . S
C1820 C1817 1.463 . S
C1820 N1824 1.427 . S
C1821 H1811 0.929 . S
C1821 C1819 1.433 . S
C1821 N1824 1.384 . S
C1822 H1813 0.929 . S
C1822 C1814 1.378 . S
C1822 C1817 1.350 . S
C1823 H1810 0.929 . S
C1823 C1815 1.433 . S
C1823 N1825 1.384 . S
N1824 C1820 1.427 . S
N1824 C1821 1.384 . S
N1825 C1817 1.427 . S
N1825 C1823 1.384 . S
H1826 C1832 0.930 . S
H1827 C1836 0.930 . S
H1828 C1841 0.929 . S
H1829 C1839 0.929 . S
H1830 C1834 0.929 . S
H1831 C1840 0.929 . S
C1832 H1826 0.930 . S
C1832 C1833 1.367 . S
C1832 C1840 1.378 . S
C1833 C1832 1.367 . S
C1833 C1841 1.433 . S
C1834 H1830 0.929 . S
C1834 C1836 1.378 . S
C1834 C1838 1.350 . S
C1835 C1838 1.463 . S
C1835 C1840 1.350 . S
C1835 N1843 1.427 . S
C1836 H1827 0.930 . S
C1836 C1834 1.378 . S
C1836 C1837 1.367 . S
C1837 C1836 1.367 . S
C1837 C1839 1.433 . S
C1838 C1834 1.350 . S
C1838 C1835 1.463 . S
C1838 N1842 1.427 . S
C1839 H1829 0.929 . S
C1839 C1837 1.433 . S
C1839 N1842 1.384 . S
C1840 H1831 0.929 . S
C1840 C1832 1.378 . S
C1840 C1835 1.350 . S
C1841 H1828 0.929 . S
C1841 C1833 1.433 . S
C1841 N1843 1.384 . S
N1842 C1838 1.427 . S
N1842 C1839 1.384 . S
N1843 C1835 1.427 . S
N1843 C1841 1.384 . S
H1844 C1850 0.930 . S
H1845 C1854 0.930 . S
H1846 C1859 0.929 . S
H1847 C1857 0.929 . S
H1848 C1852 0.929 . S
H1849 C1858 0.929 . S
C1850 H1844 0.930 . S
C1850 C1851 1.367 . S
C1850 C1858 1.378 . S
C1851 C1850 1.367 . S
C1851 C1859 1.433 . S
C1852 H1848 0.929 . S
C1852 C1854 1.378 . S
C1852 C1856 1.350 . S
C1853 C1856 1.463 . S
C1853 C1858 1.350 . S
C1853 N1861 1.427 . S
C1854 H1845 0.930 . S
C1854 C1852 1.378 . S
C1854 C1855 1.367 . S
C1855 C1854 1.367 . S
C1855 C1857 1.433 . S
C1856 C1852 1.350 . S
C1856 C1853 1.463 . S
C1856 N1860 1.427 . S
C1857 H1847 0.929 . S
C1857 C1855 1.433 . S
C1857 N1860 1.384 . S
C1858 H1849 0.929 . S
C1858 C1850 1.378 . S
C1858 C1853 1.350 . S
C1859 H1846 0.929 . S
C1859 C1851 1.433 . S
C1859 N1861 1.384 . S
N1860 C1856 1.427 . S
N1860 C1857 1.384 . S
N1861 C1853 1.427 . S
N1861 C1859 1.384 . S
H1862 C1868 0.930 1_556 S
H1863 C1872 0.930 . S
H1864 C1877 0.929 . S
H1865 C1875 0.929 1_556 S
H1866 C1870 0.929 . S
H1867 C1876 0.929 1_556 S
C1868 H1862 0.930 1_554 S
C1868 C1869 1.367 . S
C1868 C1876 1.378 . S
C1869 C1868 1.367 . S
C1869 C1877 1.433 . S
C1870 H1866 0.929 . S
C1870 C1872 1.378 . S
C1870 C1874 1.350 . S
C1871 C1874 1.463 . S
C1871 C1876 1.350 . S
C1871 N1879 1.427 . S
C1872 H1863 0.930 . S
C1872 C1870 1.378 . S
C1872 C1873 1.367 1_565 S
C1873 C1872 1.367 1_545 S
C1873 C1875 1.433 . S
C1874 C1870 1.350 . S
C1874 C1871 1.463 . S
C1874 N1878 1.427 . S
C1875 H1865 0.929 1_554 S
C1875 C1873 1.433 . S
C1875 N1878 1.384 1_545 S
C1876 H1867 0.929 1_554 S
C1876 C1868 1.378 . S
C1876 C1871 1.350 . S
C1877 H1864 0.929 . S
C1877 C1869 1.433 . S
C1877 N1879 1.384 . S
N1878 C1874 1.427 . S
N1878 C1875 1.384 1_565 S
N1879 C1871 1.427 . S
N1879 C1877 1.384 . S
H1880 C1886 0.930 . S
H1881 C1890 0.930 . S
H1882 C1895 0.929 . S
H1883 C1893 0.929 . S
H1884 C1888 0.929 . S
H1885 C1894 0.929 . S
C1886 H1880 0.930 . S
C1886 C1887 1.367 . S
C1886 C1894 1.378 . S
C1887 C1886 1.367 . S
C1887 C1895 1.433 . S
C1888 H1884 0.929 . S
C1888 C1890 1.378 . S
C1888 C1892 1.350 . S
C1889 C1892 1.463 . S
C1889 C1894 1.350 . S
C1889 N1897 1.427 . S
C1890 H1881 0.930 . S
C1890 C1888 1.378 . S
C1890 C1891 1.367 . S
C1891 C1890 1.367 . S
C1891 C1893 1.433 . S
C1892 C1888 1.350 . S
C1892 C1889 1.463 . S
C1892 N1896 1.427 . S
C1893 H1883 0.929 . S
C1893 C1891 1.433 . S
C1893 N1896 1.384 . S
C1894 H1885 0.929 . S
C1894 C1886 1.378 . S
C1894 C1889 1.350 . S
C1895 H1882 0.929 . S
C1895 C1887 1.433 . S
C1895 N1897 1.384 . S
N1896 C1892 1.427 . S
N1896 C1893 1.384 . S
N1897 C1889 1.427 . S
N1897 C1895 1.384 . S
H1898 C1904 0.930 1_556 S
H1899 C1908 0.930 . S
H1900 C1913 0.929 . S
H1901 C1911 0.929 . S
H1902 C1906 0.929 . S
H1903 C1912 0.955 . S
C1904 H1898 0.930 1_554 S
C1904 C1905 1.367 . S
C1904 C1912 1.378 . S
C1905 C1904 1.367 . S
C1905 C1913 1.433 . S
C1906 H1902 0.929 . S
C1906 C1908 1.378 . S
C1906 C1910 1.350 . S
C1907 C1910 1.463 . S
C1907 C1912 1.350 . S
C1907 N1915 1.427 . S
C1908 H1899 0.930 . S
C1908 C1906 1.378 . S
C1908 C1909 1.367 . S
C1909 C1908 1.367 . S
C1909 C1911 1.433 . S
C1910 C1906 1.350 . S
C1910 C1907 1.463 . S
C1910 N1914 1.427 . S
C1911 H1901 0.929 . S
C1911 C1909 1.433 . S
C1911 N1914 1.384 . S
C1912 H1903 0.955 . S
C1912 C1904 1.378 . S
C1912 C1907 1.350 . S
C1913 H1900 0.929 . S
C1913 C1905 1.433 . S
C1913 N1915 1.384 . S
N1914 C1910 1.427 . S
N1914 C1911 1.384 . S
N1915 C1907 1.427 . S
N1915 C1913 1.384 . S
H1916 C1922 0.930 . S
H1917 C1926 0.930 . S
H1918 C1931 0.929 . S
H1919 C1929 0.929 . S
H1920 C1924 0.929 . S
H1921 C1930 0.929 . S
C1922 H1916 0.930 . S
C1922 C1923 1.367 . S
C1922 C1930 1.378 . S
C1923 C1922 1.367 . S
C1923 C1931 1.433 . S
C1924 H1920 0.929 . S
C1924 C1926 1.378 . S
C1924 C1928 1.350 . S
C1925 C1928 1.463 . S
C1925 C1930 1.350 . S
C1925 N1933 1.427 . S
C1926 H1917 0.930 . S
C1926 C1924 1.378 . S
C1926 C1927 1.367 . S
C1927 C1926 1.367 . S
C1927 C1929 1.433 . S
C1928 C1924 1.350 . S
C1928 C1925 1.463 . S
C1928 N1932 1.427 . S
C1929 H1919 0.929 . S
C1929 C1927 1.433 . S
C1929 N1932 1.384 . S
C1930 H1921 0.929 . S
C1930 C1922 1.378 . S
C1930 C1925 1.350 . S
C1931 H1918 0.929 . S
C1931 C1923 1.433 . S
C1931 N1933 1.384 . S
N1932 C1928 1.427 . S
N1932 C1929 1.384 . S
N1933 C1925 1.427 . S
N1933 C1931 1.384 . S
H1934 C1940 0.930 . S
H1935 C1944 0.930 . S
H1936 C1949 0.929 . S
H1937 C1947 0.929 . S
H1938 C1942 0.929 . S
H1939 C1948 0.929 . S
C1940 H1934 0.930 . S
C1940 C1941 1.367 . S
C1940 C1948 1.378 . S
C1941 C1940 1.367 . S
C1941 C1949 1.433 . S
C1942 H1938 0.929 . S
C1942 C1944 1.378 . S
C1942 C1946 1.350 . S
C1943 C1946 1.463 . S
C1943 C1948 1.350 . S
C1943 N1951 1.427 . S
C1944 H1935 0.930 . S
C1944 C1942 1.378 . S
C1944 C1945 1.367 . S
C1945 C1944 1.367 . S
C1945 C1947 1.433 . S
C1946 C1942 1.350 . S
C1946 C1943 1.463 . S
C1946 N1950 1.427 . S
C1947 H1937 0.929 . S
C1947 C1945 1.433 . S
C1947 N1950 1.384 . S
C1948 H1939 0.929 . S
C1948 C1940 1.378 . S
C1948 C1943 1.350 . S
C1949 H1936 0.929 . S
C1949 C1941 1.433 . S
C1949 N1951 1.384 . S
N1950 C1946 1.427 . S
N1950 C1947 1.384 . S
N1951 C1943 1.427 . S
N1951 C1949 1.384 . S
H1952 C1958 0.930 . S
H1953 C1962 0.930 . S
H1954 C1967 0.929 . S
H1955 C1965 0.929 . S
H1956 C1960 0.929 . S
H1957 C1966 0.929 . S
C1958 H1952 0.930 . S
C1958 C1959 1.367 . S
C1958 C1966 1.378 . S
C1959 C1958 1.367 . S
C1959 C1967 1.433 . S
C1960 H1956 0.929 . S
C1960 C1962 1.378 . S
C1960 C1964 1.350 . S
C1961 C1964 1.463 . S
C1961 C1966 1.350 . S
C1961 N1969 1.427 . S
C1962 H1953 0.930 . S
C1962 C1960 1.378 . S
C1962 C1963 1.367 . S
C1963 C1962 1.367 . S
C1963 C1965 1.433 . S
C1964 C1960 1.350 . S
C1964 C1961 1.463 . S
C1964 N1968 1.427 . S
C1965 H1955 0.929 . S
C1965 C1963 1.433 . S
C1965 N1968 1.384 . S
C1966 H1957 0.929 . S
C1966 C1958 1.378 . S
C1966 C1961 1.350 . S
C1967 H1954 0.929 . S
C1967 C1959 1.433 . S
C1967 N1969 1.384 . S
N1968 C1964 1.427 . S
N1968 C1965 1.384 . S
N1969 C1961 1.427 . S
N1969 C1967 1.384 . S
H1970 C1976 0.930 . S
H1971 C1980 0.930 . S
H1972 C1985 0.929 . S
H1973 C1983 0.929 . S
H1974 C1978 0.929 . S
H1975 C1984 0.929 . S
C1976 H1970 0.930 . S
C1976 C1977 1.367 . S
C1976 C1984 1.378 . S
C1977 C1976 1.367 . S
C1977 C1985 1.433 . S
C1978 H1974 0.929 . S
C1978 C1980 1.378 . S
C1978 C1982 1.350 . S
C1979 C1982 1.463 . S
C1979 C1984 1.350 . S
C1979 N1987 1.427 . S
C1980 H1971 0.930 . S
C1980 C1978 1.378 . S
C1980 C1981 1.367 . S
C1981 C1980 1.367 . S
C1981 C1983 1.433 . S
C1982 C1978 1.350 . S
C1982 C1979 1.463 . S
C1982 N1986 1.427 . S
C1983 H1973 0.929 . S
C1983 C1981 1.433 . S
C1983 N1986 1.384 . S
C1984 H1975 0.929 . S
C1984 C1976 1.378 . S
C1984 C1979 1.350 . S
C1985 H1972 0.929 . S
C1985 C1977 1.433 . S
C1985 N1987 1.384 . S
N1986 C1982 1.427 . S
N1986 C1983 1.384 . S
N1987 C1979 1.427 . S
N1987 C1985 1.384 . S
H1988 C1994 0.930 . S
H1989 C1998 0.930 . S
H1990 C2003 0.929 . S
H1991 C2001 0.929 . S
H1992 C1996 0.929 . S
H1993 C2002 0.929 . S
C1994 H1988 0.930 . S
C1994 C1995 1.367 . S
C1994 C2002 1.378 . S
C1995 C1994 1.367 . S
C1995 C2003 1.433 . S
C1996 H1992 0.929 . S
C1996 C1998 1.378 . S
C1996 C2000 1.350 . S
C1997 C2000 1.463 . S
C1997 C2002 1.350 . S
C1997 N2005 1.427 . S
C1998 H1989 0.930 . S
C1998 C1996 1.378 . S
C1998 C1999 1.367 . S
C1999 C1998 1.367 . S
C1999 C2001 1.433 . S
C2000 C1996 1.350 . S
C2000 C1997 1.463 . S
C2000 N2004 1.427 . S
C2001 H1991 0.929 . S
C2001 C1999 1.433 . S
C2001 N2004 1.384 . S
C2002 H1993 0.929 . S
C2002 C1994 1.378 . S
C2002 C1997 1.350 . S
C2003 H1990 0.929 . S
C2003 C1995 1.433 . S
C2003 N2005 1.384 . S
N2004 C2000 1.427 . S
N2004 C2001 1.384 . S
N2005 C1997 1.427 . S
N2005 C2003 1.384 . S
H2006 C2012 0.930 . S
H2007 C2016 0.930 . S
H2008 C2021 0.929 . S
H2009 C2019 0.929 . S
H2010 C2014 0.929 . S
H2011 C2020 0.929 . S
C2012 H2006 0.930 . S
C2012 C2013 1.367 . S
C2012 C2020 1.378 . S
C2013 C2012 1.367 . S
C2013 C2021 1.433 . S
C2014 H2010 0.929 . S
C2014 C2016 1.378 . S
C2014 C2018 1.350 . S
C2015 C2018 1.463 . S
C2015 C2020 1.350 . S
C2015 N2023 1.427 . S
C2016 H2007 0.930 . S
C2016 C2014 1.378 . S
C2016 C2017 1.367 . S
C2017 C2016 1.367 . S
C2017 C2019 1.433 . S
C2018 C2014 1.350 . S
C2018 C2015 1.463 . S
C2018 N2022 1.427 . S
C2019 H2009 0.929 . S
C2019 C2017 1.433 . S
C2019 N2022 1.384 . S
C2020 H2011 0.929 . S
C2020 C2012 1.378 . S
C2020 C2015 1.350 . S
C2021 H2008 0.929 . S
C2021 C2013 1.433 . S
C2021 N2023 1.384 . S
N2022 C2018 1.427 . S
N2022 C2019 1.384 . S
N2023 C2015 1.427 . S
N2023 C2021 1.384 . S
H2024 C2030 0.930 . S
H2025 C2034 0.930 . S
H2026 C2039 0.929 . S
H2027 C2037 0.918 1_554 S
H2028 C2032 0.929 . S
H2029 C2038 0.929 . S
C2030 H2024 0.930 . S
C2030 C2031 1.367 . S
C2030 C2038 1.378 . S
C2031 C2030 1.367 . S
C2031 C2039 1.433 . S
C2032 H2028 0.929 . S
C2032 C2034 1.378 . S
C2032 C2036 1.350 . S
C2033 C2036 1.463 . S
C2033 C2038 1.350 . S
C2033 N2041 1.427 . S
C2034 H2025 0.930 . S
C2034 C2032 1.378 . S
C2034 C2035 1.367 . S
C2035 C2034 1.367 . S
C2035 C2037 1.433 . S
C2036 C2032 1.350 . S
C2036 C2033 1.463 . S
C2036 N2040 1.427 . S
C2037 H2027 0.918 1_556 S
C2037 C2035 1.433 . S
C2037 N2040 1.384 . S
C2038 H2029 0.929 . S
C2038 C2030 1.378 . S
C2038 C2033 1.350 . S
C2039 H2026 0.929 . S
C2039 C2031 1.433 . S
C2039 N2041 1.384 . S
N2040 C2036 1.427 . S
N2040 C2037 1.384 . S
N2041 C2033 1.427 . S
N2041 C2039 1.384 . S
H2042 C2048 0.930 . S
H2043 C2052 0.930 . S
H2044 C2057 0.929 . S
H2045 C2055 0.929 . S
H2046 C2050 0.929 . S
H2047 C2056 0.929 . S
C2048 H2042 0.930 . S
C2048 C2049 1.367 . S
C2048 C2056 1.378 . S
C2049 C2048 1.367 . S
C2049 C2057 1.433 . S
C2050 H2046 0.929 . S
C2050 C2052 1.378 . S
C2050 C2054 1.350 . S
C2051 C2054 1.463 . S
C2051 C2056 1.350 . S
C2051 N2059 1.427 . S
C2052 H2043 0.930 . S
C2052 C2050 1.378 . S
C2052 C2053 1.367 . S
C2053 C2052 1.367 . S
C2053 C2055 1.433 . S
C2054 C2050 1.350 . S
C2054 C2051 1.463 . S
C2054 N2058 1.427 . S
C2055 H2045 0.929 . S
C2055 C2053 1.433 . S
C2055 N2058 1.384 . S
C2056 H2047 0.929 . S
C2056 C2048 1.378 . S
C2056 C2051 1.350 . S
C2057 H2044 0.929 . S
C2057 C2049 1.433 . S
C2057 N2059 1.384 . S
N2058 C2054 1.427 . S
N2058 C2055 1.384 . S
N2059 C2051 1.427 . S
N2059 C2057 1.384 . S
H2060 C2066 0.930 . S
H2061 C2070 0.930 . S
H2062 C2075 0.929 1_655 S
H2063 C2073 0.929 . S
H2064 C2068 0.954 . S
H2065 C2074 0.929 . S
C2066 H2060 0.930 . S
C2066 C2067 1.367 . S
C2066 C2074 1.378 . S
C2067 C2066 1.367 . S
C2067 C2075 1.433 . S
C2068 H2064 0.954 . S
C2068 C2070 1.390 . S
C2068 C2072 1.313 1_655 S
C2069 C2072 1.463 . S
C2069 C2074 1.350 . S
C2069 N2077 1.456 . S
C2070 H2061 0.930 . S
C2070 C2068 1.390 . S
C2070 C2071 1.367 1_655 S
C2071 C2070 1.367 1_455 S
C2071 C2073 1.433 . S
C2072 C2068 1.313 1_455 S
C2072 C2069 1.463 . S
C2072 N2076 1.427 . S
C2073 H2063 0.929 . S
C2073 C2071 1.433 . S
C2073 N2076 1.384 . S
C2074 H2065 0.929 . S
C2074 C2066 1.378 . S
C2074 C2069 1.350 . S
C2075 H2062 0.929 1_455 S
C2075 C2067 1.433 . S
C2075 N2077 1.396 . S
N2076 C2072 1.427 . S
N2076 C2073 1.384 . S
N2077 C2069 1.456 . S
N2077 C2075 1.396 . S
H2078 C2084 0.930 . S
H2079 C2088 0.930 . S
H2080 C2093 0.929 . S
H2081 C2091 0.929 . S
H2082 C2086 0.929 . S
H2083 C2092 0.929 . S
C2084 H2078 0.930 . S
C2084 C2085 1.367 . S
C2084 C2092 1.378 . S
C2085 C2084 1.367 . S
C2085 C2093 1.433 . S
C2086 H2082 0.929 . S
C2086 C2088 1.378 . S
C2086 C2090 1.350 . S
C2087 C2090 1.463 . S
C2087 C2092 1.350 . S
C2087 N2095 1.427 . S
C2088 H2079 0.930 . S
C2088 C2086 1.378 . S
C2088 C2089 1.367 . S
C2089 C2088 1.367 . S
C2089 C2091 1.433 . S
C2090 C2086 1.350 . S
C2090 C2087 1.463 . S
C2090 N2094 1.427 . S
C2091 H2081 0.929 . S
C2091 C2089 1.433 . S
C2091 N2094 1.384 . S
C2092 H2083 0.929 . S
C2092 C2084 1.378 . S
C2092 C2087 1.350 . S
C2093 H2080 0.929 . S
C2093 C2085 1.433 . S
C2093 N2095 1.384 . S
N2094 C2090 1.427 . S
N2094 C2091 1.384 . S
N2095 C2087 1.427 . S
N2095 C2093 1.384 . S
H2096 C2102 0.930 . S
H2097 C2106 0.930 . S
H2098 C2111 0.929 . S
H2099 C2109 0.929 . S
H2100 C2104 0.929 . S
H2101 C2110 0.929 . S
C2102 H2096 0.930 . S
C2102 C2103 1.367 . S
C2102 C2110 1.378 . S
C2103 C2102 1.367 . S
C2103 C2111 1.433 . S
C2104 H2100 0.929 . S
C2104 C2106 1.378 . S
C2104 C2108 1.350 . S
C2105 C2108 1.463 . S
C2105 C2110 1.350 . S
C2105 N2113 1.427 . S
C2106 H2097 0.930 . S
C2106 C2104 1.378 . S
C2106 C2107 1.367 . S
C2107 C2106 1.367 . S
C2107 C2109 1.433 . S
C2108 C2104 1.350 . S
C2108 C2105 1.463 . S
C2108 N2112 1.427 . S
C2109 H2099 0.929 . S
C2109 C2107 1.433 . S
C2109 N2112 1.384 . S
C2110 H2101 0.929 . S
C2110 C2102 1.378 . S
C2110 C2105 1.350 . S
C2111 H2098 0.929 . S
C2111 C2103 1.433 . S
C2111 N2113 1.384 . S
N2112 C2108 1.427 . S
N2112 C2109 1.384 . S
N2113 C2105 1.427 . S
N2113 C2111 1.384 . S
H2114 C2120 0.930 . S
H2115 C2124 0.930 . S
H2116 C2129 0.929 . S
H2117 C2127 0.929 . S
H2118 C2122 0.929 . S
H2119 C2128 0.929 . S
C2120 H2114 0.930 . S
C2120 C2121 1.367 . S
C2120 C2128 1.378 . S
C2121 C2120 1.367 . S
C2121 C2129 1.433 . S
C2122 H2118 0.929 . S
C2122 C2124 1.378 . S
C2122 C2126 1.350 . S
C2123 C2126 1.463 . S
C2123 C2128 1.350 . S
C2123 N2131 1.427 . S
C2124 H2115 0.930 . S
C2124 C2122 1.378 . S
C2124 C2125 1.367 . S
C2125 C2124 1.367 . S
C2125 C2127 1.433 . S
C2126 C2122 1.350 . S
C2126 C2123 1.463 . S
C2126 N2130 1.427 . S
C2127 H2117 0.929 . S
C2127 C2125 1.433 . S
C2127 N2130 1.384 . S
C2128 H2119 0.929 . S
C2128 C2120 1.378 . S
C2128 C2123 1.350 . S
C2129 H2116 0.929 . S
C2129 C2121 1.433 . S
C2129 N2131 1.384 . S
N2130 C2126 1.427 . S
N2130 C2127 1.384 . S
N2131 C2123 1.427 . S
N2131 C2129 1.384 . S
H2132 C2138 0.930 . S
H2133 C2142 0.930 . S
H2134 C2147 0.929 . S
H2135 C2145 0.955 . S
H2136 C2140 0.929 . S
H2137 C2146 0.929 . S
C2138 H2132 0.930 . S
C2138 C2139 1.367 . S
C2138 C2146 1.378 . S
C2139 C2138 1.367 . S
C2139 C2147 1.433 . S
C2140 H2136 0.929 . S
C2140 C2142 1.378 . S
C2140 C2144 1.350 . S
C2141 C2144 1.463 . S
C2141 C2146 1.350 . S
C2141 N2149 1.427 . S
C2142 H2133 0.930 . S
C2142 C2140 1.378 . S
C2142 C2143 1.367 . S
C2143 C2142 1.367 . S
C2143 C2145 1.430 1_655 S
C2144 C2140 1.350 . S
C2144 C2141 1.463 . S
C2144 N2148 1.427 . S
C2145 H2135 0.955 . S
C2145 C2143 1.430 1_455 S
C2145 N2148 1.362 1_455 S
C2146 H2137 0.929 . S
C2146 C2138 1.378 . S
C2146 C2141 1.350 . S
C2147 H2134 0.929 . S
C2147 C2139 1.433 . S
C2147 N2149 1.384 . S
N2148 C2144 1.427 . S
N2148 C2145 1.362 1_655 S
N2149 C2141 1.427 . S
N2149 C2147 1.384 . S
H2150 C2156 0.930 . S
H2151 C2160 0.930 . S
H2152 C2165 0.929 . S
H2153 C2163 0.929 . S
H2154 C2158 0.929 . S
H2155 C2164 0.929 . S
C2156 H2150 0.930 . S
C2156 C2157 1.367 . S
C2156 C2164 1.378 . S
C2157 C2156 1.367 . S
C2157 C2165 1.433 . S
C2158 H2154 0.929 . S
C2158 C2160 1.378 . S
C2158 C2162 1.350 . S
C2159 C2162 1.463 . S
C2159 C2164 1.350 . S
C2159 N2167 1.427 . S
C2160 H2151 0.930 . S
C2160 C2158 1.378 . S
C2160 C2161 1.367 . S
C2161 C2160 1.367 . S
C2161 C2163 1.433 . S
C2162 C2158 1.350 . S
C2162 C2159 1.463 . S
C2162 N2166 1.427 . S
C2163 H2153 0.929 . S
C2163 C2161 1.433 . S
C2163 N2166 1.384 . S
C2164 H2155 0.929 . S
C2164 C2156 1.378 . S
C2164 C2159 1.350 . S
C2165 H2152 0.929 . S
C2165 C2157 1.433 . S
C2165 N2167 1.384 . S
N2166 C2162 1.427 . S
N2166 C2163 1.384 . S
N2167 C2159 1.427 . S
N2167 C2165 1.384 . S
H2168 C2174 0.930 . S
H2169 C2178 0.930 . S
H2170 C2183 0.929 . S
H2171 C2181 0.929 . S
H2172 C2176 0.929 . S
H2173 C2182 0.929 . S
C2174 H2168 0.930 . S
C2174 C2175 1.367 . S
C2174 C2182 1.378 . S
C2175 C2174 1.367 . S
C2175 C2183 1.433 . S
C2176 H2172 0.929 . S
C2176 C2178 1.378 . S
C2176 C2180 1.350 . S
C2177 C2180 1.463 . S
C2177 C2182 1.350 . S
C2177 N2185 1.427 . S
C2178 H2169 0.930 . S
C2178 C2176 1.378 . S
C2178 C2179 1.367 . S
C2179 C2178 1.367 . S
C2179 C2181 1.433 . S
C2180 C2176 1.350 . S
C2180 C2177 1.463 . S
C2180 N2184 1.427 . S
C2181 H2171 0.929 . S
C2181 C2179 1.433 . S
C2181 N2184 1.384 . S
C2182 H2173 0.929 . S
C2182 C2174 1.378 . S
C2182 C2177 1.350 . S
C2183 H2170 0.929 . S
C2183 C2175 1.433 . S
C2183 N2185 1.384 . S
N2184 C2180 1.427 . S
N2184 C2181 1.384 . S
N2185 C2177 1.427 . S
N2185 C2183 1.384 . S
H2186 C2192 0.930 . S
H2187 C2196 0.930 . S
H2188 C2201 0.929 . S
H2189 C2199 0.929 . S
H2190 C2194 0.929 . S
H2191 C2200 0.929 . S
C2192 H2186 0.930 . S
C2192 C2193 1.367 . S
C2192 C2200 1.378 . S
C2193 C2192 1.367 . S
C2193 C2201 1.433 . S
C2194 H2190 0.929 . S
C2194 C2196 1.378 . S
C2194 C2198 1.350 . S
C2195 C2198 1.463 . S
C2195 C2200 1.350 . S
C2195 N2203 1.427 . S
C2196 H2187 0.930 . S
C2196 C2194 1.378 . S
C2196 C2197 1.367 . S
C2197 C2196 1.367 . S
C2197 C2199 1.433 . S
C2198 C2194 1.350 . S
C2198 C2195 1.463 . S
C2198 N2202 1.427 . S
C2199 H2189 0.929 . S
C2199 C2197 1.433 . S
C2199 N2202 1.384 . S
C2200 H2191 0.929 . S
C2200 C2192 1.378 . S
C2200 C2195 1.350 . S
C2201 H2188 0.929 . S
C2201 C2193 1.433 . S
C2201 N2203 1.384 . S
N2202 C2198 1.427 . S
N2202 C2199 1.384 . S
N2203 C2195 1.427 . S
N2203 C2201 1.384 . S
H2204 C2210 0.930 . S
H2205 C2214 0.930 . S
H2206 C2219 0.929 . S
H2207 C2217 0.929 1_455 S
H2208 C2212 0.929 . S
H2209 C2218 0.929 . S
C2210 H2204 0.930 . S
C2210 C2211 1.367 . S
C2210 C2218 1.378 . S
C2211 C2210 1.367 . S
C2211 C2219 1.433 . S
C2212 H2208 0.929 . S
C2212 C2214 1.378 . S
C2212 C2216 1.350 . S
C2213 C2216 1.463 . S
C2213 C2218 1.350 . S
C2213 N2221 1.427 . S
C2214 H2205 0.930 . S
C2214 C2212 1.378 . S
C2214 C2215 1.367 . S
C2215 C2214 1.367 . S
C2215 C2217 1.433 . S
C2216 C2212 1.350 . S
C2216 C2213 1.463 . S
C2216 N2220 1.427 . S
C2217 H2207 0.929 1_655 S
C2217 C2215 1.433 . S
C2217 N2220 1.384 . S
C2218 H2209 0.929 . S
C2218 C2210 1.378 . S
C2218 C2213 1.350 . S
C2219 H2206 0.929 . S
C2219 C2211 1.433 . S
C2219 N2221 1.384 . S
N2220 C2216 1.427 . S
N2220 C2217 1.384 . S
N2221 C2213 1.427 . S
N2221 C2219 1.384 . S
H2222 C2228 0.930 . S
H2223 C2232 0.930 . S
H2224 C2237 0.929 . S
H2225 C2235 0.929 . S
H2226 C2230 0.929 . S
H2227 C2236 0.929 . S
C2228 H2222 0.930 . S
C2228 C2229 1.367 . S
C2228 C2236 1.378 . S
C2229 C2228 1.367 . S
C2229 C2237 1.433 . S
C2230 H2226 0.929 . S
C2230 C2232 1.378 . S
C2230 C2234 1.350 . S
C2231 C2234 1.463 . S
C2231 C2236 1.350 . S
C2231 N2239 1.427 . S
C2232 H2223 0.930 . S
C2232 C2230 1.378 . S
C2232 C2233 1.367 . S
C2233 C2232 1.367 . S
C2233 C2235 1.433 . S
C2234 C2230 1.350 . S
C2234 C2231 1.463 . S
C2234 N2238 1.427 . S
C2235 H2225 0.929 . S
C2235 C2233 1.433 . S
C2235 N2238 1.384 . S
C2236 H2227 0.929 . S
C2236 C2228 1.378 . S
C2236 C2231 1.350 . S
C2237 H2224 0.929 . S
C2237 C2229 1.433 . S
C2237 N2239 1.384 . S
N2238 C2234 1.427 . S
N2238 C2235 1.384 . S
N2239 C2231 1.427 . S
N2239 C2237 1.384 . S
H2240 C2246 0.930 . S
H2241 C2250 0.930 . S
H2242 C2255 0.929 . S
H2243 C2253 0.929 . S
H2244 C2248 0.929 . S
H2245 C2254 0.929 . S
C2246 H2240 0.930 . S
C2246 C2247 1.367 . S
C2246 C2254 1.378 . S
C2247 C2246 1.367 . S
C2247 C2255 1.433 . S
C2248 H2244 0.929 . S
C2248 C2250 1.378 . S
C2248 C2252 1.350 . S
C2249 C2252 1.463 . S
C2249 C2254 1.350 . S
C2249 N2257 1.427 . S
C2250 H2241 0.930 . S
C2250 C2248 1.378 . S
C2250 C2251 1.367 . S
C2251 C2250 1.367 . S
C2251 C2253 1.433 . S
C2252 C2248 1.350 . S
C2252 C2249 1.463 . S
C2252 N2256 1.427 . S
C2253 H2243 0.929 . S
C2253 C2251 1.433 . S
C2253 N2256 1.384 . S
C2254 H2245 0.929 . S
C2254 C2246 1.378 . S
C2254 C2249 1.350 . S
C2255 H2242 0.929 . S
C2255 C2247 1.433 . S
C2255 N2257 1.384 . S
N2256 C2252 1.427 . S
N2256 C2253 1.384 . S
N2257 C2249 1.427 . S
N2257 C2255 1.384 . S
H2258 C2264 0.930 . S
H2259 C2268 0.930 . S
H2260 C2273 0.929 . S
H2261 C2271 0.929 . S
H2262 C2266 0.929 . S
H2263 C2272 0.929 . S
C2264 H2258 0.930 . S
C2264 C2265 1.367 . S
C2264 C2272 1.378 . S
C2265 C2264 1.367 . S
C2265 C2273 1.433 . S
C2266 H2262 0.929 . S
C2266 C2268 1.378 . S
C2266 C2270 1.350 . S
C2267 C2270 1.463 . S
C2267 C2272 1.350 . S
C2267 N2275 1.427 . S
C2268 H2259 0.930 . S
C2268 C2266 1.378 . S
C2268 C2269 1.367 . S
C2269 C2268 1.367 . S
C2269 C2271 1.433 1_565 S
C2270 C2266 1.350 . S
C2270 C2267 1.463 . S
C2270 N2274 1.427 . S
C2271 H2261 0.929 . S
C2271 C2269 1.433 1_545 S
C2271 N2274 1.384 1_545 S
C2272 H2263 0.929 . S
C2272 C2264 1.378 . S
C2272 C2267 1.350 . S
C2273 H2260 0.929 . S
C2273 C2265 1.433 . S
C2273 N2275 1.384 . S
N2274 C2270 1.427 . S
N2274 C2271 1.384 1_565 S
N2275 C2267 1.427 . S
N2275 C2273 1.384 . S
H2276 C2282 0.930 . S
H2277 C2286 0.930 . S
H2278 C2291 0.929 . S
H2279 C2289 0.929 . S
H2280 C2284 0.929 . S
H2281 C2290 0.929 . S
C2282 H2276 0.930 . S
C2282 C2283 1.367 . S
C2282 C2290 1.378 . S
C2283 C2282 1.367 . S
C2283 C2291 1.433 . S
C2284 H2280 0.929 . S
C2284 C2286 1.378 . S
C2284 C2288 1.350 . S
C2285 C2288 1.463 . S
C2285 C2290 1.350 . S
C2285 N2293 1.427 . S
C2286 H2277 0.930 . S
C2286 C2284 1.378 . S
C2286 C2287 1.367 . S
C2287 C2286 1.367 . S
C2287 C2289 1.433 . S
C2288 C2284 1.350 . S
C2288 C2285 1.463 . S
C2288 N2292 1.427 . S
C2289 H2279 0.929 . S
C2289 C2287 1.433 . S
C2289 N2292 1.384 . S
C2290 H2281 0.929 . S
C2290 C2282 1.378 . S
C2290 C2285 1.350 . S
C2291 H2278 0.929 . S
C2291 C2283 1.433 . S
C2291 N2293 1.384 . S
N2292 C2288 1.427 . S
N2292 C2289 1.384 . S
N2293 C2285 1.427 . S
N2293 C2291 1.384 . S
H2294 C2300 0.930 . S
H2295 C2304 0.930 . S
H2296 C2309 0.924 1_556 S
H2297 C2307 0.929 . S
H2298 C2302 0.929 . S
H2299 C2308 0.929 . S
C2300 H2294 0.930 . S
C2300 C2301 1.367 . S
C2300 C2308 1.378 . S
C2301 C2300 1.367 . S
C2301 C2309 1.432 . S
C2302 H2298 0.929 . S
C2302 C2304 1.378 . S
C2302 C2306 1.350 . S
C2303 C2306 1.463 . S
C2303 C2308 1.350 . S
C2303 N2311 1.427 . S
C2304 H2295 0.930 . S
C2304 C2302 1.378 . S
C2304 C2305 1.367 . S
C2305 C2304 1.367 . S
C2305 C2307 1.433 . S
C2306 C2302 1.350 . S
C2306 C2303 1.463 . S
C2306 N2310 1.427 . S
C2307 H2297 0.929 . S
C2307 C2305 1.433 . S
C2307 N2310 1.384 . S
C2308 H2299 0.929 . S
C2308 C2300 1.378 . S
C2308 C2303 1.350 . S
C2309 H2296 0.924 1_554 S
C2309 C2301 1.432 . S
C2309 N2311 1.391 . S
N2310 C2306 1.427 . S
N2310 C2307 1.384 . S
N2311 C2303 1.427 . S
N2311 C2309 1.391 . S
H2312 C2318 0.930 . S
H2313 C2322 0.930 . S
H2314 C2327 0.929 . S
H2315 C2325 0.929 . S
H2316 C2320 0.929 . S
H2317 C2326 0.929 . S
C2318 H2312 0.930 . S
C2318 C2319 1.367 . S
C2318 C2326 1.378 . S
C2319 C2318 1.367 . S
C2319 C2327 1.433 . S
C2320 H2316 0.929 . S
C2320 C2322 1.378 . S
C2320 C2324 1.350 . S
C2321 C2324 1.463 . S
C2321 C2326 1.350 . S
C2321 N2329 1.427 . S
C2322 H2313 0.930 . S
C2322 C2320 1.378 . S
C2322 C2323 1.367 . S
C2323 C2322 1.367 . S
C2323 C2325 1.433 . S
C2324 C2320 1.350 . S
C2324 C2321 1.463 . S
C2324 N2328 1.427 . S
C2325 H2315 0.929 . S
C2325 C2323 1.433 . S
C2325 N2328 1.384 . S
C2326 H2317 0.929 . S
C2326 C2318 1.378 . S
C2326 C2321 1.350 . S
C2327 H2314 0.929 . S
C2327 C2319 1.433 . S
C2327 N2329 1.384 . S
N2328 C2324 1.427 . S
N2328 C2325 1.384 . S
N2329 C2321 1.427 . S
N2329 C2327 1.384 . S
H2330 C2336 0.930 1_556 S
H2331 C2340 0.930 . S
H2332 C2345 0.929 . S
H2333 C2343 0.929 . S
H2334 C2338 0.929 . S
H2335 C2344 0.886 1_556 S
C2336 H2330 0.930 1_554 S
C2336 C2337 1.367 . S
C2336 C2344 1.384 . S
C2337 C2336 1.367 . S
C2337 C2345 1.433 . S
C2338 H2334 0.929 . S
C2338 C2340 1.378 . S
C2338 C2342 1.350 . S
C2339 C2342 1.463 . S
C2339 C2344 1.388 . S
C2339 N2347 1.427 . S
C2340 H2331 0.930 . S
C2340 C2338 1.378 . S
C2340 C2341 1.367 . S
C2341 C2340 1.367 . S
C2341 C2343 1.433 1_554 S
C2342 C2338 1.350 . S
C2342 C2339 1.463 . S
C2342 N2346 1.427 1_554 S
C2343 H2333 0.929 . S
C2343 C2341 1.433 1_556 S
C2343 N2346 1.384 . S
C2344 H2335 0.886 1_554 S
C2344 C2336 1.384 . S
C2344 C2339 1.388 . S
C2345 H2332 0.929 . S
C2345 C2337 1.433 . S
C2345 N2347 1.384 . S
N2346 C2342 1.427 1_556 S
N2346 C2343 1.384 . S
N2347 C2339 1.427 . S
N2347 C2345 1.384 . S
H2348 C2354 0.930 . S
H2349 C2358 0.930 . S
H2350 C2363 0.929 . S
H2351 C2361 0.929 . S
H2352 C2356 0.929 . S
H2353 C2362 0.929 . S
C2354 H2348 0.930 . S
C2354 C2355 1.367 . S
C2354 C2362 1.378 . S
C2355 C2354 1.367 . S
C2355 C2363 1.433 . S
C2356 H2352 0.929 . S
C2356 C2358 1.378 . S
C2356 C2360 1.350 . S
C2357 C2360 1.463 . S
C2357 C2362 1.350 . S
C2357 N2365 1.427 . S
C2358 H2349 0.930 . S
C2358 C2356 1.378 . S
C2358 C2359 1.367 . S
C2359 C2358 1.367 . S
C2359 C2361 1.433 . S
C2360 C2356 1.350 . S
C2360 C2357 1.463 . S
C2360 N2364 1.427 . S
C2361 H2351 0.929 . S
C2361 C2359 1.433 . S
C2361 N2364 1.384 . S
C2362 H2353 0.929 . S
C2362 C2354 1.378 . S
C2362 C2357 1.350 . S
C2363 H2350 0.929 . S
C2363 C2355 1.433 . S
C2363 N2365 1.384 . S
N2364 C2360 1.427 . S
N2364 C2361 1.384 . S
N2365 C2357 1.427 . S
N2365 C2363 1.384 . S
H2366 C2372 0.930 . S
H2367 C2376 0.930 . S
H2368 C2381 0.929 . S
H2369 C2379 0.929 . S
H2370 C2374 0.929 . S
H2371 C2380 0.929 . S
C2372 H2366 0.930 . S
C2372 C2373 1.367 . S
C2372 C2380 1.378 . S
C2373 C2372 1.367 . S
C2373 C2381 1.433 . S
C2374 H2370 0.929 . S
C2374 C2376 1.378 . S
C2374 C2378 1.350 . S
C2375 C2378 1.463 . S
C2375 C2380 1.350 . S
C2375 N2383 1.427 . S
C2376 H2367 0.930 . S
C2376 C2374 1.378 . S
C2376 C2377 1.367 . S
C2377 C2376 1.367 . S
C2377 C2379 1.433 . S
C2378 C2374 1.350 . S
C2378 C2375 1.463 . S
C2378 N2382 1.427 . S
C2379 H2369 0.929 . S
C2379 C2377 1.433 . S
C2379 N2382 1.384 . S
C2380 H2371 0.929 . S
C2380 C2372 1.378 . S
C2380 C2375 1.350 . S
C2381 H2368 0.929 . S
C2381 C2373 1.433 . S
C2381 N2383 1.384 . S
N2382 C2378 1.427 . S
N2382 C2379 1.384 . S
N2383 C2375 1.427 . S
N2383 C2381 1.384 . S
C663 C106 1.907 . S
C667 C354 1.854 1_556 S
C681 C65 1.607 . S
C685 C365 1.605 . S
C699 C79 1.409 . S
C703 C394 1.351 . S
C721 C397 1.225 . S
C717 C90 1.202 . S
C735 C21 1.366 . S
C739 C435 1.370 . S
C757 C438 1.053 . S
C753 C35 1.020 . S
C775 C465 1.509 . S
C771 C50 1.514 . S
C789 C6 1.633 . S
C793 C494 1.619 . S
C811 C345 1.785 1_655 S
C807 C232 1.782 . S
C825 C245 0.879 . S
C829 C357 0.901 . S
C847 C385 1.623 . S
C843 C274 1.624 . S
C865 C414 1.130 . S
C861 C175 1.131 . S
C879 C231 0.846 . S
C883 C418 0.877 1_655 S
C901 C444 1.574 . S
C897 C246 1.600 . S
C919 C457 0.658 . S
C915 C273 0.678 . S
C937 C485 1.756 . S
C933 C176 1.753 . S
C955 C337 1.550 . S
C951 C160 1.510 . S
C969 C289 1.750 . S
C973 C504 1.721 . S
C991 C535 1.578 . S
C987 C328 1.581 . S
C1009 C554 1.084 . S
C1005 C317 1.100 . S
C1023 C118 1.321 . S
C1027 C477 1.387 . S
C1041 C132 1.451 . S
C1045 C377 1.511 . S
C1059 C331 1.663 . S
C1063 C565 1.655 . S
C1081 C594 1.110 . S
C1077 C303 1.141 . S
C1099 C355 1.473 . S
C1095 C63 1.482 . S
C1117 C584 1.987 . S
C1113 C107 1.951 . S
C1131 C92 1.163 . S
C1135 C395 1.141 . S
C1149 C78 1.736 . S
C1153 C558 1.744 . S
C1171 C434 1.900 . S
C1167 C8 1.929 . S
C1185 C51 1.138 . S
C1189 C517 1.135 . S
C1207 C464 1.830 1_556 S
C1203 C37 1.799 . S
C1225 C615 1.545 . S
C1221 C20 1.565 . S
C1243 C344 1.558 . S
C1239 C147 1.508 . S
C1261 C578 1.038 . S
C1257 C316 1.055 . S
C1275 C119 1.512 . S
C1279 C384 1.557 . S
C1293 C288 1.239 . S
C1297 C575 1.236 . S
C1311 C148 1.156 1_545 S
C1315 C417 1.156 . S
C1333 C525 1.580 . S
C1329 C315 1.564 . S
C1347 C120 0.938 . S
C1351 C458 0.928 . S
C1365 C287 1.597 . S
C1369 C604 1.608 . S
C1383 C188 1.394 . S
C1387 C338 1.410 . S
C1401 C177 1.981 . S
C1405 C505 1.971 . S
C1419 C258 1.648 . S
C1423 C454 1.655 . S
C1437 C247 1.156 . S
C1441 C555 1.138 . S
C1459 C598 1.265 . S
C1455 C272 1.251 . S
C1473 C216 1.340 . S
C1477 C378 1.372 1_565 S
C1495 C404 1.858 . S
C1491 C261 1.849 . S
C1513 C375 1.102 . S
C1509 C205 1.127 . S
C1527 C76 1.508 . S
C1531 C634 1.509 . S
C1549 C585 1.677 . S
C1545 C93 1.677 . S
C1563 C105 1.022 . S
C1567 C654 1.014 . S
C1581 C62 1.238 . S
C1585 C557 1.262 . S
C1599 C49 1.330 . S
C1603 C515 1.333 . S
C1621 C518 1.400 . S
C1617 C9 1.386 . S
C1639 C545 1.449 . S
C1635 C22 1.457 . S
C1657 C614 1.943 . S
C1653 C36 2.024 . S
C1675 C625 1.719 . S
C1671 C260 1.717 . S
C1689 C189 0.762 . S
C1693 C577 0.773 . S
C1711 C645 1.560 . S
C1707 C204 1.559 . S
C1729 C574 0.982 . S
C1725 C217 0.980 . S
C1747 C498 1.058 . S
C1743 C259 1.002 . S
C1761 C190 1.670 . S
C1765 C524 1.650 . S
C1783 C537 0.797 . S
C1779 C203 0.807 . S
C1797 C218 1.805 . S
C1801 C605 1.809 . S
C1819 C617 1.504 . S
C1815 C314 1.469 . S
C1833 C135 1.806 . S
C1837 C424 1.776 . S
C1855 C455 1.515 . S
C1851 C146 1.516 . S
C1873 C474 1.132 . S
C1869 C163 1.145 . S
C1891 C597 1.421 . S
C1887 C300 1.355 . S
C1905 C286 1.411 . S
C1909 C637 1.483 . S
C1927 C405 1.587 . S
C1923 C149 1.589 . S
C1945 C374 1.074 . S
C1941 C121 1.109 . S
C1959 C91 1.465 . S
C1963 C635 1.462 . S
C1981 C364 1.603 . S
C1977 C77 1.524 . S
C1995 C64 1.125 . S
C1999 C655 1.119 . S
C2013 C104 1.391 . S
C2017 C398 1.430 . S
C2031 C34 1.544 . S
C2035 C514 1.544 1_556 S
C2053 C437 1.101 . S
C2049 C23 1.094 . S
C2067 C7 1.399 . S
C2071 C544 1.456 . S
C2085 C48 1.534 . S
C2089 C495 1.519 . S
C2107 C624 1.529 . S
C2103 C329 1.493 . S
C2121 C162 1.042 . S
C2125 C358 1.024 . S
C2143 C644 1.541 1_655 S
C2139 C301 1.511 . S
C2157 C134 1.251 . S
C2161 C415 1.234 . S
C2175 C330 1.145 . S
C2179 C497 1.152 . S
C2197 C445 1.565 . S
C2193 C161 1.553 . S
C2211 C302 0.943 . S
C2215 C538 0.934 . S
C2233 C484 1.586 . S
C2229 C133 1.576 . S
C2251 C618 1.606 . S
C2247 C244 1.586 . S
C2269 C425 1.948 1_565 S
C2265 C219 1.966 . S
C2283 C230 1.444 . S
C2287 C534 1.424 . S
C2305 C475 1.108 . S
C2301 C191 1.119 . S
C2319 C202 1.433 . S
C2323 C478 1.462 . S
C2337 C174 1.520 . S
C2341 C638 1.569 . S
C2359 C564 1.839 . S
C2355 C233 1.815 1_565 S
C2377 C595 1.089 . S
C2373 C275 1.121 . S
