# Generated by pormake.
# Topology anh, (6,3)-cn, num edge types: 1
# Building blocks:
#     Node 0, Type 0, BuildingBlock: BETDIP_clean_sbu_0, # of connection points: 6
#     Node 1, Type 0, BuildingBlock: BETDIP_clean_sbu_0, # of connection points: 6
#     Node 2, Type 0, BuildingBlock: BETDIP_clean_sbu_0, # of connection points: 6
#     Node 3, Type 1, BuildingBlock: OLANEW_clean_sbu_2, # of connection points: 3
#     Node 4, Type 1, BuildingBlock: OLANEW_clean_sbu_2, # of connection points: 3
#     Node 5, Type 1, BuildingBlock: OLANEW_clean_sbu_2, # of connection points: 3
#     Node 6, Type 1, BuildingBlock: OLANEW_clean_sbu_2, # of connection points: 3
#     Node 7, Type 1, BuildingBlock: OLANEW_clean_sbu_2, # of connection points: 3
#     Node 8, Type 1, BuildingBlock: OLANEW_clean_sbu_2, # of connection points: 3
#     Edge 9, Type (0, 1), BuildingBlock: XIVTED_clean_linker_0, # of connection points: 2
#     Edge 10, Type (0, 1), BuildingBlock: XIVTED_clean_linker_0, # of connection points: 2
#     Edge 11, Type (0, 1), BuildingBlock: XIVTED_clean_linker_0, # of connection points: 2
#     Edge 12, Type (0, 1), BuildingBlock: XIVTED_clean_linker_0, # of connection points: 2
#     Edge 13, Type (0, 1), BuildingBlock: XIVTED_clean_linker_0, # of connection points: 2
#     Edge 14, Type (0, 1), BuildingBlock: XIVTED_clean_linker_0, # of connection points: 2
#     Edge 15, Type (0, 1), BuildingBlock: XIVTED_clean_linker_0, # of connection points: 2
#     Edge 16, Type (0, 1), BuildingBlock: XIVTED_clean_linker_0, # of connection points: 2
#     Edge 17, Type (0, 1), BuildingBlock: XIVTED_clean_linker_0, # of connection points: 2
#     Edge 18, Type (0, 1), BuildingBlock: XIVTED_clean_linker_0, # of connection points: 2
#     Edge 19, Type (0, 1), BuildingBlock: XIVTED_clean_linker_0, # of connection points: 2
#     Edge 20, Type (0, 1), BuildingBlock: XIVTED_clean_linker_0, # of connection points: 2
#     Edge 21, Type (0, 1), BuildingBlock: XIVTED_clean_linker_0, # of connection points: 2
#     Edge 22, Type (0, 1), BuildingBlock: XIVTED_clean_linker_0, # of connection points: 2
#     Edge 23, Type (0, 1), BuildingBlock: XIVTED_clean_linker_0, # of connection points: 2
#     Edge 24, Type (0, 1), BuildingBlock: XIVTED_clean_linker_0, # of connection points: 2
#     Edge 25, Type (0, 1), BuildingBlock: XIVTED_clean_linker_0, # of connection points: 2
#     Edge 26, Type (0, 1), BuildingBlock: XIVTED_clean_linker_0, # of connection points: 2
# Relax obj value: 0.227
# Max RMSD: 0.127
# Mean RMSD: 0.113
data_MOF--net-anh--node1-BETDIP_clean_sbu_0--node2-OLANEW_clean_sbu_2--edge1-XIVTED_clean_linker_0
_symmetry_space_group_name_H-M    P1
_symmetry_Int_Tables_number       1
_symmetry_cell_setting            triclinic
loop_
_symmetry_equiv_pos_as_xyz
'x, y, z'
_cell_length_a     37.5517
_cell_length_b     37.617179
_cell_length_c     50.319709
_cell_angle_alpha  89.319193
_cell_angle_beta   90.225896
_cell_angle_gamma 119.75042
loop_
_atom_site_label
_atom_site_type_symbol
_atom_site_fract_x
_atom_site_fract_y
_atom_site_fract_z
_atom_type_partial_charge
Tb0 Tb 0.0303 0.54044 0.18235 0.0
Tb1 Tb 0.98934 0.45175 0.17457 0.0
C2 C 0.07481 0.61074 0.20077 0.0
C3 C 0.11796 0.64269 0.19782 0.0
C4 C 0.14917 0.63278 0.1948 0.0
C5 C 0.18961 0.66362 0.19028 0.0
C6 C 0.19949 0.70487 0.18869 0.0
C7 C 0.16814 0.7146 0.19206 0.0
C8 C 0.12775 0.68375 0.19653 0.0
C9 C 0.01197 0.51897 0.13273 0.0
C10 C 0.0855 0.49667 0.17157 0.0
C11 C 0.94488 0.37984 0.15835 0.0
C12 C 0.9017 0.35495 0.15058 0.0
C13 C 0.88032 0.37288 0.13884 0.0
C14 C 0.83818 0.34939 0.13424 0.0
C15 C 0.81693 0.30753 0.14101 0.0
C16 C 0.83887 0.28941 0.15173 0.0
C17 C 0.88087 0.31299 0.15655 0.0
C18 C 1.00619 0.47483 0.22483 0.0
C19 C 0.9352 0.49661 0.17622 0.0
O20 O 0.06748 0.57702 0.21332 0.0
O21 O 0.05256 0.60356 0.17936 0.0
O22 O 0.02534 0.50316 0.14937 0.0
O23 O 0.01213 0.55035 0.14315 0.0
O24 O 0.08428 0.53059 0.17742 0.0
O25 O 0.05108 0.46156 0.16845 0.0
O26 O 0.96812 0.41087 0.14278 0.0
O27 O 0.95115 0.3894 0.18347 0.0
O28 O 0.99291 0.4896 0.20735 0.0
O29 O 0.00894 0.44487 0.21453 0.0
O30 O 0.93843 0.46479 0.16833 0.0
O31 O 0.96722 0.52877 0.18676 0.0
H32 H 0.14232 0.60127 0.19571 0.0
H33 H 0.213 0.6551 0.1876 0.0
H34 H 0.17485 0.74611 0.19147 0.0
H35 H 0.10405 0.69195 0.19878 0.0
H36 H 0.89593 0.40518 0.13379 0.0
H37 H 0.8221 0.36406 0.12577 0.0
H38 H 0.82325 0.25735 0.15748 0.0
H39 H 0.89689 0.29868 0.16566 0.0
Tb40 Tb 0.54328 0.01327 0.51602 0.0
Tb41 Tb 0.49692 0.05616 0.50397 0.0
C42 C 0.56626 0.96857 0.53913 0.0
C43 C 0.55039 0.92438 0.54196 0.0
C44 C 0.56412 0.90969 0.563 0.0
C45 C 0.5504 0.86786 0.56558 0.0
C46 C 0.52264 0.83998 0.5471 0.0
C47 C 0.50827 0.85482 0.5263 0.0
C48 C 0.52201 0.89672 0.52377 0.0
C49 C 0.53997 0.02789 0.46546 0.0
C50 C 0.44489 0.96008 0.50383 0.0
C51 C 0.4756 0.10528 0.48592 0.0
C52 C 0.49665 0.14999 0.48843 0.0
C53 C 0.49067 0.17438 0.46968 0.0
C54 C 0.51392 0.21716 0.47102 0.0
C55 C 0.54377 0.23587 0.49093 0.0
C56 C 0.54903 0.21116 0.50988 0.0
C57 C 0.52569 0.16869 0.50867 0.0
C58 C 0.50335 0.0437 0.55531 0.0
C59 C 0.59646 0.10787 0.50631 0.0
O60 O 0.54467 0.9826 0.55075 0.0
O61 O 0.57832 0.98404 0.51527 0.0
O62 O 0.51145 0.01737 0.48211 0.0
O63 O 0.57055 0.02639 0.47638 0.0
O64 O 0.47855 0.96117 0.5136 0.0
O65 O 0.44607 0.99444 0.49592 0.0
O66 O 0.49547 0.09164 0.47192 0.0
O67 O 0.46124 0.0845 0.50807 0.0
O68 O 0.53104 0.05415 0.53793 0.0
O69 O 0.47148 0.04212 0.54424 0.0
O70 O 0.56142 0.1057 0.49903 0.0
O71 O 0.59656 0.07559 0.51717 0.0
H72 H 0.58597 0.93066 0.57723 0.0
H73 H 0.56256 0.85755 0.58158 0.0
H74 H 0.48661 0.8341 0.51191 0.0
H75 H 0.51091 0.90758 0.50745 0.0
H76 H 0.46864 0.16038 0.45379 0.0
H77 H 0.50932 0.23556 0.45616 0.0
H78 H 0.57127 0.2247 0.52572 0.0
H79 H 0.53092 0.1504 0.52329 0.0
Tb80 Tb 0.4697 0.48502 0.83962 0.0
Tb81 Tb 0.55943 0.53462 0.8422 0.0
C82 C 0.39467 0.45613 0.84904 0.0
C83 C 0.36638 0.47174 0.84426 0.0
C84 C 0.32963 0.45552 0.85858 0.0
C85 C 0.30357 0.47176 0.85506 0.0
C86 C 0.31407 0.50462 0.83723 0.0
C87 C 0.35067 0.52028 0.82257 0.0
C88 C 0.37657 0.50391 0.82603 0.0
C89 C 0.50637 0.49965 0.79321 0.0
C90 C 0.51351 0.58474 0.83568 0.0
C91 C 0.63552 0.56522 0.83547 0.0
C92 C 0.66268 0.54907 0.82856 0.0
C93 C 0.64752 0.51145 0.81557 0.0
C94 C 0.67258 0.49417 0.81197 0.0
C95 C 0.71345 0.51494 0.8206 0.0
C96 C 0.72913 0.55357 0.83232 0.0
C97 C 0.70379 0.57035 0.83647 0.0
C98 C 0.52193 0.52186 0.88863 0.0
C99 C 0.51572 0.43591 0.83747 0.0
O100 O 0.42345 0.47626 0.86656 0.0
O101 O 0.40882 0.4478 0.82772 0.0
O102 O 0.51594 0.52396 0.81223 0.0
O103 O 0.47272 0.46624 0.7989 0.0
O104 O 0.47916 0.54875 0.83859 0.0
O105 O 0.5496 0.58651 0.83478 0.0
O106 O 0.61038 0.56357 0.81688 0.0
O107 O 0.61749 0.55359 0.85864 0.0
O108 O 0.51314 0.49555 0.8706 0.0
O109 O 0.55299 0.55619 0.88091 0.0
O110 O 0.54884 0.47228 0.83344 0.0
O111 O 0.48066 0.43342 0.84453 0.0
H112 H 0.32144 0.43078 0.8728 0.0
H113 H 0.27586 0.45944 0.86692 0.0
H114 H 0.35938 0.54531 0.80853 0.0
H115 H 0.40479 0.51667 0.81467 0.0
H116 H 0.61614 0.49506 0.8087 0.0
H117 H 0.65998 0.46443 0.80278 0.0
H118 H 0.7605 0.56996 0.83934 0.0
H119 H 0.716 0.59945 0.84646 0.0
O120 O 0.48244 0.06637 0.26161 0.0
Cd121 Cd 0.46141 0.06591 0.215 0.0
O122 O 0.53565 0.05724 0.25619 0.0
Cd123 Cd 0.51799 0.03536 0.2161 0.0
O124 O 0.47503 0.98386 0.1925 0.0
C125 C 0.47418 0.95014 0.19695 0.0
O126 O 0.50149 0.94972 0.21317 0.0
C127 C 0.51298 0.06458 0.27121 0.0
C128 C 0.52666 0.12256 0.18365 0.0
O129 O 0.50699 0.13417 0.19869 0.0
O130 O 0.51453 0.08426 0.18274 0.0
O131 O 0.69706 0.57759 0.62087 0.0
Cd132 Cd 0.73231 0.59523 0.57797 0.0
O133 O 0.64108 0.56058 0.5982 0.0
Cd134 Cd 0.57814 0.54881 0.59481 0.0
O135 O 0.53818 0.57501 0.58987 0.0
C136 C 0.53259 0.58479 0.56661 0.0
O137 O 0.54779 0.5751 0.54626 0.0
C138 C 0.65862 0.56408 0.62045 0.0
C139 C 0.69886 0.52546 0.54684 0.0
O140 O 0.73056 0.53531 0.56128 0.0
O141 O 0.68356 0.54926 0.5466 0.0
O142 O 0.08095 0.62035 0.9406 0.0
Cd143 Cd 0.09146 0.65166 0.89649 0.0
O144 O 0.03534 0.56381 0.92168 0.0
Cd145 Cd 0.9868 0.49997 0.91966 0.0
O146 O 0.92922 0.46344 0.89883 0.0
C147 C 0.9311 0.46664 0.87365 0.0
O148 O 0.96736 0.48698 0.86229 0.0
C149 C 0.05424 0.58264 0.94247 0.0
C150 C 0.13755 0.62632 0.86779 0.0
O151 O 0.15474 0.66031 0.88027 0.0
O152 O 0.09829 0.60504 0.86805 0.0
O153 O 0.06359 0.56508 0.42746 0.0
Cd154 Cd 0.10584 0.61113 0.46664 0.0
O155 O 0.00827 0.50657 0.4405 0.0
Cd156 Cd 0.94786 0.44425 0.44261 0.0
O157 O 0.89041 0.38249 0.45405 0.0
C158 C 0.85401 0.37723 0.45598 0.0
O159 O 0.84891 0.40874 0.45081 0.0
C160 C 0.03137 0.53066 0.42182 0.0
C161 C 0.18286 0.68887 0.46773 0.0
O162 O 0.18198 0.65438 0.46955 0.0
O163 O 0.14828 0.6872 0.46366 0.0
O164 O 0.515 0.97471 0.759 0.0
Cd165 Cd 0.51064 0.92886 0.79885 0.0
O166 O 0.51086 0.02934 0.77187 0.0
Cd167 Cd 0.5096 0.09004 0.77332 0.0
O168 O 0.50385 0.14672 0.78366 0.0
C169 C 0.53416 0.18198 0.78945 0.0
O170 O 0.57118 0.18652 0.78915 0.0
C171 C 0.51448 0.00802 0.75332 0.0
C172 C 0.51098 0.85165 0.79989 0.0
O173 O 0.47746 0.8528 0.79811 0.0
O174 O 0.54432 0.88632 0.7995 0.0
O175 O 0.54876 0.49794 0.09334 0.0
Cd176 Cd 0.5918 0.49955 0.13399 0.0
O177 O 0.49455 0.5043 0.10466 0.0
Cd178 Cd 0.43477 0.50778 0.1056 0.0
O179 O 0.37803 0.51401 0.11594 0.0
C180 C 0.34332 0.48364 0.12303 0.0
O181 O 0.33994 0.44717 0.12406 0.0
C182 C 0.51649 0.49991 0.08676 0.0
C183 C 0.66968 0.50029 0.13671 0.0
O184 O 0.63539 0.46677 0.13481 0.0
O185 O 0.66796 0.53352 0.13563 0.0
H186 H 0.16441 0.5639 0.16459 0.0
H187 H 0.26578 0.42258 0.13548 0.0
H188 H 0.09888 0.43189 0.16491 0.0
H189 H 0.3357 0.55407 0.12753 0.0
H190 H 0.20582 0.42745 0.14778 0.0
H191 H 0.2278 0.56299 0.15299 0.0
C192 C 0.16321 0.53473 0.16249 0.0
C193 C 0.1257 0.4979 0.16592 0.0
C194 C 0.23412 0.45543 0.14337 0.0
C195 C 0.19873 0.49668 0.15234 0.0
C196 C 0.26876 0.4527 0.13628 0.0
C197 C 0.30649 0.48794 0.1303 0.0
C198 C 0.23633 0.4938 0.14478 0.0
C199 C 0.30754 0.52593 0.13185 0.0
C200 C 0.19954 0.53426 0.15569 0.0
C201 C 0.12658 0.46119 0.16254 0.0
N202 N 0.27318 0.52784 0.13893 0.0
N203 N 0.16207 0.46161 0.15604 0.0
H204 H 0.67756 0.12496 0.51134 0.0
H205 H 0.77357 0.35828 0.45851 0.0
H206 H 0.60656 0.1817 0.4882 0.0
H207 H 0.84898 0.30306 0.47208 0.0
H208 H 0.71329 0.29421 0.4716 0.0
H209 H 0.74071 0.18917 0.49967 0.0
C210 C 0.67506 0.15084 0.50406 0.0
C211 C 0.63611 0.14741 0.50097 0.0
C212 C 0.74288 0.29579 0.47175 0.0
C213 C 0.70896 0.22158 0.48736 0.0
C214 C 0.7777 0.33271 0.46422 0.0
C215 C 0.81707 0.33672 0.46401 0.0
C216 C 0.74659 0.26169 0.4794 0.0
C217 C 0.81957 0.30182 0.47178 0.0
C218 C 0.71129 0.18757 0.49726 0.0
C219 C 0.63542 0.18234 0.49115 0.0
N220 N 0.78503 0.26601 0.47915 0.0
N221 N 0.67087 0.21748 0.48482 0.0
H222 H 0.44537 0.59538 0.83209 0.0
H223 H 0.57738 0.83925 0.80409 0.0
H224 H 0.57748 0.66351 0.82821 0.0
H225 H 0.44518 0.77269 0.80521 0.0
H226 H 0.57743 0.77505 0.81286 0.0
H227 H 0.44405 0.65906 0.82276 0.0
C228 C 0.47414 0.62359 0.82939 0.0
C229 C 0.51161 0.62356 0.83103 0.0
C230 C 0.54832 0.77432 0.81112 0.0
C231 C 0.51028 0.69731 0.82015 0.0
C232 C 0.54827 0.81116 0.80601 0.0
C233 C 0.51122 0.81185 0.80376 0.0
C234 C 0.51105 0.73727 0.81418 0.0
C235 C 0.47458 0.77402 0.80664 0.0
C236 C 0.47334 0.6601 0.82398 0.0
C237 C 0.54775 0.66153 0.82722 0.0
N238 N 0.47544 0.73857 0.81172 0.0
N239 N 0.54615 0.69647 0.82201 0.0
H240 H 0.85943 0.43197 0.16278 0.0
H241 H 0.7468 0.5662 0.14635 0.0
H242 H 0.91934 0.56117 0.1789 0.0
H243 H 0.68421 0.43494 0.13863 0.0
H244 H 0.81047 0.56552 0.15654 0.0
H245 H 0.79606 0.43291 0.15268 0.0
C246 C 0.85943 0.46063 0.16424 0.0
C247 C 0.89534 0.49656 0.17172 0.0
C248 C 0.78288 0.53683 0.15256 0.0
C249 C 0.82184 0.4979 0.15995 0.0
C250 C 0.74634 0.53719 0.14659 0.0
C251 C 0.70961 0.50057 0.14147 0.0
C252 C 0.78326 0.49958 0.15339 0.0
C253 C 0.71146 0.46403 0.14233 0.0
C254 C 0.82296 0.46111 0.15847 0.0
C255 C 0.8927 0.53258 0.17338 0.0
N256 N 0.74737 0.4645 0.14811 0.0
N257 N 0.85692 0.53235 0.16747 0.0
H258 H 0.43156 0.88112 0.51175 0.0
H259 H 0.19545 0.76767 0.46309 0.0
H260 H 0.36961 0.9455 0.48493 0.0
H261 H 0.26013 0.70278 0.48202 0.0
H262 H 0.25828 0.83254 0.4719 0.0
H263 H 0.3692 0.81589 0.50241 0.0
C264 C 0.40494 0.88175 0.50399 0.0
C265 C 0.40638 0.91944 0.4992 0.0
C266 C 0.2589 0.80418 0.47406 0.0
C267 C 0.33401 0.84393 0.48833 0.0
C268 C 0.22285 0.7669 0.46895 0.0
C269 C 0.22203 0.72918 0.47165 0.0
C270 C 0.29493 0.80435 0.4822 0.0
C271 C 0.25893 0.73078 0.4795 0.0
C272 C 0.36918 0.84426 0.49858 0.0
C273 C 0.37043 0.91761 0.48903 0.0
N274 N 0.29352 0.76741 0.48454 0.0
N275 N 0.33608 0.88084 0.48403 0.0
H276 H 0.5841 0.42755 0.83095 0.0
H277 H 0.46255 0.18668 0.7956 0.0
H278 H 0.45215 0.35587 0.83159 0.0
H279 H 0.59419 0.26062 0.80027 0.0
H280 H 0.45701 0.24701 0.80812 0.0
H281 H 0.5874 0.36632 0.81943 0.0
C282 C 0.55571 0.39901 0.82866 0.0
C283 C 0.5178 0.39748 0.8322 0.0
C284 C 0.48709 0.24998 0.80641 0.0
C285 C 0.52131 0.32597 0.81885 0.0
C286 C 0.49029 0.21542 0.79919 0.0
C287 C 0.52893 0.21807 0.79677 0.0
C288 C 0.52277 0.28782 0.81123 0.0
C289 C 0.56365 0.25655 0.8018 0.0
C290 C 0.55761 0.36375 0.82211 0.0
C291 C 0.48217 0.35891 0.82921 0.0
N292 N 0.55972 0.28946 0.80868 0.0
N293 N 0.48479 0.32498 0.82264 0.0
H294 H 0.51584 0.78924 0.50639 0.0
H295 H 0.50485 0.61657 0.60482 0.0
H296 H 0.50333 0.79079 0.59154 0.0
H297 H 0.52425 0.61865 0.52017 0.0
H298 H 0.49081 0.67299 0.59927 0.0
H299 H 0.50568 0.72005 0.5101 0.0
C300 C 0.5102 0.77476 0.52583 0.0
C301 C 0.51101 0.79609 0.54874 0.0
C302 C 0.49759 0.66075 0.58185 0.0
C303 C 0.50001 0.71705 0.55316 0.0
C304 C 0.50552 0.62842 0.585 0.0
C305 C 0.51653 0.61335 0.56298 0.0
C306 C 0.50085 0.67825 0.55653 0.0
C307 C 0.51647 0.62967 0.53776 0.0
C308 C 0.50465 0.7353 0.52795 0.0
C309 C 0.50387 0.77584 0.57342 0.0
N310 N 0.50937 0.66162 0.53527 0.0
N311 N 0.49911 0.73764 0.575 0.0
H312 H 0.69589 0.44071 0.84119 0.0
H313 H 0.9266 0.48959 0.82255 0.0
H314 H 0.7894 0.5454 0.79852 0.0
H315 H 0.85081 0.42331 0.88993 0.0
H316 H 0.86761 0.48976 0.80207 0.0
H317 H 0.74432 0.41528 0.84744 0.0
C318 C 0.72627 0.45768 0.83251 0.0
C319 C 0.73908 0.49537 0.81961 0.0
C320 C 0.86375 0.47439 0.82107 0.0
C321 C 0.7941 0.4666 0.82655 0.0
C322 C 0.89733 0.47411 0.83276 0.0
C323 C 0.89387 0.45736 0.85833 0.0
C324 C 0.82646 0.45748 0.83494 0.0
C325 C 0.85503 0.43734 0.87043 0.0
C326 C 0.75382 0.44329 0.83617 0.0
C327 C 0.7787 0.51643 0.80885 0.0
N328 N 0.8229 0.43851 0.85881 0.0
N329 N 0.805 0.50193 0.81276 0.0
H330 H 0.22672 0.77317 0.15692 0.0
H331 H 0.45732 0.87214 0.20885 0.0
H332 H 0.27003 0.71171 0.20985 0.0
H333 H 0.40951 0.93948 0.16597 0.0
H334 H 0.39265 0.80907 0.20154 0.0
H335 H 0.29678 0.83032 0.15295 0.0
C336 C 0.25099 0.77164 0.16766 0.0
C337 C 0.24238 0.73787 0.18408 0.0
C338 C 0.39651 0.83757 0.19344 0.0
C339 C 0.32271 0.80298 0.17938 0.0
C340 C 0.43349 0.87361 0.19751 0.0
C341 C 0.43856 0.91126 0.18841 0.0
C342 C 0.36438 0.83922 0.18018 0.0
C343 C 0.40674 0.91121 0.17365 0.0
C344 C 0.29101 0.80416 0.16524 0.0
C345 C 0.27521 0.73706 0.19695 0.0
N346 N 0.3708 0.8758 0.17028 0.0
N347 N 0.31387 0.76934 0.19453 0.0
H348 H 0.62644 0.28058 0.49873 0.0
H349 H 0.62568 0.49039 0.52012 0.0
H350 H 0.51971 0.29366 0.48649 0.0
H351 H 0.72679 0.47139 0.54064 0.0
H352 H 0.59008 0.42207 0.50069 0.0
H353 H 0.66713 0.35392 0.50692 0.0
C354 C 0.61164 0.29902 0.49764 0.0
C355 C 0.56951 0.28098 0.4924 0.0
C356 C 0.62023 0.43305 0.5092 0.0
C357 C 0.61588 0.36497 0.50173 0.0
C358 C 0.64062 0.47208 0.52024 0.0
C359 C 0.67907 0.48642 0.53229 0.0
C360 C 0.63848 0.40828 0.51018 0.0
C361 C 0.69702 0.46143 0.53182 0.0
C362 C 0.63489 0.34089 0.50224 0.0
C363 C 0.55209 0.30638 0.49055 0.0
N364 N 0.67644 0.42349 0.52115 0.0
N365 N 0.57526 0.34709 0.49555 0.0
H366 H 0.33884 0.5863 0.835 0.0
H367 H 0.11118 0.55018 0.84728 0.0
H368 H 0.23014 0.46693 0.83481 0.0
H369 H 0.2207 0.66606 0.86093 0.0
H370 H 0.15397 0.52137 0.83373 0.0
H371 H 0.29551 0.61772 0.83563 0.0
C372 C 0.30583 0.56669 0.83468 0.0
C373 C 0.28804 0.52391 0.8351 0.0
C374 C 0.16858 0.55323 0.83939 0.0
C375 C 0.23829 0.55969 0.83616 0.0
C376 C 0.14419 0.56976 0.84702 0.0
C377 C 0.16246 0.61044 0.85559 0.0
C378 C 0.21148 0.5776 0.84029 0.0
C379 C 0.20535 0.63441 0.85477 0.0
C380 C 0.28112 0.58466 0.8352 0.0
C381 C 0.2451 0.50003 0.83496 0.0
N382 N 0.22842 0.61752 0.84751 0.0
N383 N 0.22166 0.51825 0.83569 0.0
H384 H 0.77 0.22968 0.12233 0.0
H385 H 0.56511 0.20642 0.18501 0.0
H386 H 0.76092 0.33011 0.15557 0.0
H387 H 0.57478 0.10684 0.15077 0.0
H388 H 0.63334 0.25447 0.16767 0.0
H389 H 0.6956 0.18669 0.12592 0.0
C390 C 0.75223 0.24277 0.13011 0.0
C391 C 0.77166 0.2833 0.13901 0.0
C392 C 0.62028 0.22217 0.16362 0.0
C393 C 0.68657 0.2343 0.14334 0.0
C394 C 0.58128 0.19472 0.17348 0.0
C395 C 0.56451 0.1525 0.16969 0.0
C396 C 0.64267 0.20722 0.15001 0.0
C397 C 0.58673 0.13909 0.15447 0.0
C398 C 0.70976 0.21829 0.1321 0.0
C399 C 0.74717 0.299 0.14848 0.0
N400 N 0.62486 0.1663 0.14549 0.0
N401 N 0.70593 0.27428 0.15077 0.0
H402 H 0.06315 0.5029 0.10323 0.0
H403 H 0.97865 0.53109 0.96347 0.0
H404 H 0.96159 0.52559 0.09702 0.0
H405 H 0.1079 0.58829 0.98077 0.0
H406 H 0.96352 0.50393 0.00927 0.0
H407 H 0.07058 0.50878 0.05451 0.0
C408 C 0.04175 0.50794 0.09151 0.0
C409 C 0.0119 0.5141 0.10387 0.0
C410 C 0.99512 0.52176 0.00276 0.0
C411 C 0.01981 0.52018 0.04878 0.0
C412 C 1.00376 0.53705 0.97674 0.0
C413 C 0.04454 0.56197 0.96857 0.0
C414 C 0.02755 0.53073 0.02032 0.0
C415 C 0.07606 0.56939 0.98651 0.0
C416 C 0.04614 0.5115 0.06389 0.0
C417 C 0.98511 0.52096 0.08803 0.0
N418 N 0.06693 0.5538 0.01163 0.0
N419 N 0.98973 0.52393 0.0612 0.0
H420 H 0.60038 0.05291 0.42835 0.0
H421 H 0.46315 0.06566 0.31052 0.0
H422 H 0.47526 0.02542 0.43873 0.0
H423 H 0.57837 0.06867 0.29817 0.0
H424 H 0.47137 0.06124 0.35845 0.0
H425 H 0.59656 0.0681 0.38137 0.0
C426 C 0.57213 0.05017 0.4207 0.0
C427 C 0.53803 0.03778 0.43731 0.0
C428 C 0.49497 0.06317 0.34524 0.0
C429 C 0.53346 0.05529 0.38374 0.0
C430 C 0.49043 0.06592 0.31787 0.0
C431 C 0.51995 0.06717 0.30025 0.0
C432 C 0.52936 0.06188 0.35507 0.0
C433 C 0.55466 0.06742 0.31096 0.0
C434 C 0.56997 0.05889 0.39393 0.0
C435 C 0.50224 0.03494 0.42653 0.0
N436 N 0.55828 0.06456 0.33765 0.0
N437 N 0.50084 0.04356 0.40037 0.0
H438 H 0.57071 0.57278 0.7772 0.0
H439 H 0.58029 0.50266 0.62993 0.0
H440 H 0.49061 0.44959 0.75057 0.0
H441 H 0.6842 0.60265 0.66803 0.0
H442 H 0.54208 0.48687 0.67185 0.0
H443 H 0.6081 0.5884 0.73511 0.0
C444 C 0.56124 0.54891 0.76256 0.0
C445 C 0.52806 0.50962 0.7675 0.0
C446 C 0.5732 0.51231 0.67098 0.0
C447 C 0.56989 0.52761 0.71907 0.0
C448 C 0.59483 0.5216 0.64704 0.0
C449 C 0.63518 0.55438 0.64549 0.0
C450 C 0.59196 0.5363 0.6934 0.0
C451 C 0.65308 0.57719 0.66843 0.0
C452 C 0.58247 0.5579 0.73852 0.0
C453 C 0.51622 0.4802 0.74754 0.0
N454 N 0.63123 0.56793 0.69142 0.0
N455 N 0.53708 0.48982 0.72411 0.0
H456 H 0.56796 0.04602 0.58321 0.0
H457 H 0.47935 0.04834 0.72761 0.0
H458 H 0.45109 0.03952 0.59435 0.0
H459 H 0.55584 0.99478 0.71373 0.0
H460 H 0.47898 0.06048 0.6794 0.0
H461 H 0.57375 0.04146 0.63173 0.0
C462 C 0.54352 0.04358 0.59581 0.0
C463 C 0.50867 0.04246 0.58462 0.0
C464 C 0.49614 0.04642 0.68701 0.0
C465 C 0.51573 0.03864 0.64018 0.0
C466 C 0.49664 0.03981 0.71453 0.0
C467 C 0.51757 0.02042 0.72477 0.0
C468 C 0.51749 0.03442 0.66966 0.0
C469 C 0.53907 0.00959 0.70674 0.0
C470 C 0.5469 0.04113 0.62349 0.0
C471 C 0.47833 0.0401 0.60204 0.0
N472 N 0.53859 0.01682 0.68018 0.0
N473 N 0.48261 0.03844 0.62886 0.0
H474 H 0.49555 0.4497 0.91682 0.0
H475 H 0.48616 0.54229 0.05817 0.0
H476 H 0.52266 0.57448 0.92555 0.0
H477 H 0.52459 0.45245 0.04949 0.0
H478 H 0.47993 0.54423 0.00938 0.0
H479 H 0.48651 0.44017 0.96538 0.0
C480 C 0.49873 0.47478 0.92887 0.0
C481 C 0.51002 0.51299 0.91715 0.0
C482 C 0.48913 0.52368 0.01827 0.0
C483 C 0.49933 0.50221 0.97259 0.0
C484 C 0.49239 0.52235 0.04609 0.0
C485 C 0.50605 0.49728 0.05794 0.0
C486 C 0.49859 0.499 1.00226 0.0
C487 C 0.51417 0.4724 0.04122 0.0
C488 C 0.49384 0.46943 0.95657 0.0
C489 C 0.51412 0.54457 0.9338 0.0
N490 N 0.51027 0.47382 0.01435 0.0
N491 N 0.50878 0.53853 0.96059 0.0
H492 H 1.00487 0.53868 0.2499 0.0
H493 H 0.99423 0.45433 0.3984 0.0
H494 H 0.01029 0.42868 0.2661 0.0
H495 H 0.0483 0.58301 0.37973 0.0
H496 H 0.98621 0.43969 0.35041 0.0
H497 H 0.00785 0.5511 0.29792 0.0
C498 C 1.00674 0.51717 0.26353 0.0
C499 C 0.00781 0.48284 0.25389 0.0
C500 C 0.99956 0.47107 0.35692 0.0
C501 C 0.01005 0.49625 0.309 0.0
C502 C 1.00382 0.47941 0.38429 0.0
C503 C 0.02203 0.51998 0.39317 0.0
C504 C 0.01269 0.50344 0.3383 0.0
C505 C 0.0343 0.55128 0.37386 0.0
C506 C 0.00836 0.52423 0.29094 0.0
C507 C 0.00973 0.45573 0.2726 0.0
N508 N 0.02926 0.54239 0.34748 0.0
N509 N 0.01054 0.46285 0.29919 0.0
loop_
_geom_bond_atom_site_label_1
_geom_bond_atom_site_label_2
_geom_bond_distance
_geom_bond_site_symmetry_2
_ccdc_geom_bond_type
Tb0 C2 2.809 . S
Tb0 O20 2.484 . S
Tb0 O21 2.440 . S
Tb0 O22 2.660 . S
Tb0 O23 2.409 . S
Tb0 O24 2.378 . S
Tb0 O28 2.325 . S
Tb0 O31 2.341 1_455 S
Tb1 C11 2.809 . S
Tb1 O22 2.328 1_655 S
Tb1 O25 2.341 1_655 S
Tb1 O26 2.484 . S
Tb1 O27 2.440 . S
Tb1 O28 2.658 1_655 S
Tb1 O29 2.409 . S
Tb1 O30 2.378 . S
C2 Tb0 2.809 . S
C2 C3 1.514 . S
C2 O20 1.248 . S
C2 O21 1.266 . S
C3 C2 1.514 . S
C3 C4 1.359 . S
C3 C8 1.348 . S
C4 C3 1.359 . S
C4 C5 1.380 . S
C4 H32 0.929 . S
C5 C4 1.380 . S
C5 C6 1.347 . S
C5 H33 0.931 . S
C6 C5 1.347 . S
C6 C7 1.369 . S
C7 C6 1.369 . S
C7 C8 1.408 . S
C7 H34 0.930 . S
C8 C3 1.348 . S
C8 C7 1.408 . S
C8 H35 0.930 . S
C9 O22 1.285 . S
C9 O23 1.254 . S
C10 O24 1.236 . S
C10 O25 1.266 . S
C11 Tb1 2.809 . S
C11 C12 1.514 . S
C11 O26 1.248 . S
C11 O27 1.266 . S
C12 C11 1.514 . S
C12 C13 1.359 . S
C12 C17 1.348 . S
C13 C12 1.359 . S
C13 C14 1.380 . S
C13 H36 0.929 . S
C14 C13 1.380 . S
C14 C15 1.347 . S
C14 H37 0.931 . S
C15 C14 1.347 . S
C15 C16 1.369 . S
C16 C15 1.369 . S
C16 C17 1.408 . S
C16 H38 0.930 . S
C17 C12 1.348 . S
C17 C16 1.408 . S
C17 H39 0.930 . S
C18 O28 1.281 . S
C18 O29 1.254 1_455 S
C19 O30 1.236 . S
C19 O31 1.266 . S
O20 Tb0 2.484 . S
O20 C2 1.248 . S
O21 Tb0 2.440 . S
O21 C2 1.266 . S
O22 Tb0 2.660 . S
O22 Tb1 2.328 1_455 S
O22 C9 1.285 . S
O23 Tb0 2.409 . S
O23 C9 1.254 . S
O24 Tb0 2.378 . S
O24 C10 1.236 . S
O25 Tb1 2.341 1_455 S
O25 C10 1.266 . S
O26 Tb1 2.484 . S
O26 C11 1.248 . S
O27 Tb1 2.440 . S
O27 C11 1.266 . S
O28 Tb0 2.325 . S
O28 Tb1 2.658 1_455 S
O28 C18 1.281 . S
O29 Tb1 2.409 . S
O29 C18 1.254 1_655 S
O30 Tb1 2.378 . S
O30 C19 1.236 . S
O31 Tb0 2.341 1_655 S
O31 C19 1.266 . S
H32 C4 0.929 . S
H33 C5 0.931 . S
H34 C7 0.930 . S
H35 C8 0.930 . S
H36 C13 0.929 . S
H37 C14 0.931 . S
H38 C16 0.930 . S
H39 C17 0.930 . S
Tb40 C42 2.809 . S
Tb40 O60 2.484 . S
Tb40 O61 2.440 . S
Tb40 O62 2.658 1_565 S
Tb40 O63 2.409 . S
Tb40 O64 2.378 . S
Tb40 O68 2.325 1_565 S
Tb40 O71 2.341 1_565 S
Tb41 C51 2.809 . S
Tb41 O62 2.325 . S
Tb41 O65 2.341 1_545 S
Tb41 O66 2.484 . S
Tb41 O67 2.440 . S
Tb41 O68 2.658 . S
Tb41 O69 2.409 . S
Tb41 O70 2.378 . S
C42 Tb40 2.809 . S
C42 C43 1.514 . S
C42 O60 1.248 . S
C42 O61 1.266 . S
C43 C42 1.514 . S
C43 C44 1.359 . S
C43 C48 1.348 . S
C44 C43 1.359 . S
C44 C45 1.380 . S
C44 H72 0.929 . S
C45 C44 1.380 . S
C45 C46 1.347 . S
C45 H73 0.931 . S
C46 C45 1.347 . S
C46 C47 1.369 . S
C47 C46 1.369 . S
C47 C48 1.408 . S
C47 H74 0.930 . S
C48 C43 1.348 . S
C48 C47 1.408 . S
C48 H75 0.930 . S
C49 O62 1.281 . S
C49 O63 1.253 1_545 S
C50 O64 1.236 . S
C50 O65 1.266 . S
C51 Tb41 2.809 . S
C51 C52 1.514 . S
C51 O66 1.248 . S
C51 O67 1.266 . S
C52 C51 1.514 . S
C52 C53 1.359 . S
C52 C57 1.348 . S
C53 C52 1.359 . S
C53 C54 1.380 . S
C53 H76 0.929 . S
C54 C53 1.380 . S
C54 C55 1.347 . S
C54 H77 0.931 . S
C55 C54 1.347 . S
C55 C56 1.369 . S
C56 C55 1.369 . S
C56 C57 1.408 . S
C56 H78 0.930 . S
C57 C52 1.348 . S
C57 C56 1.408 . S
C57 H79 0.930 . S
C58 O68 1.281 . S
C58 O69 1.254 . S
C59 O70 1.236 . S
C59 O71 1.266 . S
O60 Tb40 2.484 . S
O60 C42 1.248 . S
O61 Tb40 2.440 . S
O61 C42 1.266 . S
O62 Tb40 2.658 1_545 S
O62 Tb41 2.325 . S
O62 C49 1.281 . S
O63 Tb40 2.409 . S
O63 C49 1.253 1_565 S
O64 Tb40 2.378 . S
O64 C50 1.236 . S
O65 Tb41 2.341 1_565 S
O65 C50 1.266 . S
O66 Tb41 2.484 . S
O66 C51 1.248 . S
O67 Tb41 2.440 . S
O67 C51 1.266 . S
O68 Tb40 2.325 1_545 S
O68 Tb41 2.658 . S
O68 C58 1.281 . S
O69 Tb41 2.409 . S
O69 C58 1.254 . S
O70 Tb41 2.378 . S
O70 C59 1.236 . S
O71 Tb40 2.341 1_545 S
O71 C59 1.266 . S
H72 C44 0.929 . S
H73 C45 0.931 . S
H74 C47 0.930 . S
H75 C48 0.930 . S
H76 C53 0.929 . S
H77 C54 0.931 . S
H78 C56 0.930 . S
H79 C57 0.930 . S
Tb80 C82 2.809 . S
Tb80 O100 2.484 . S
Tb80 O101 2.440 . S
Tb80 O102 2.658 . S
Tb80 O103 2.409 . S
Tb80 O104 2.378 . S
Tb80 O108 2.325 . S
Tb80 O111 2.341 . S
Tb81 C91 2.809 . S
Tb81 O102 2.325 . S
Tb81 O105 2.341 . S
Tb81 O106 2.484 . S
Tb81 O107 2.440 . S
Tb81 O108 2.658 . S
Tb81 O109 2.409 . S
Tb81 O110 2.378 . S
C82 Tb80 2.809 . S
C82 C83 1.514 . S
C82 O100 1.248 . S
C82 O101 1.266 . S
C83 C82 1.514 . S
C83 C84 1.359 . S
C83 C88 1.348 . S
C84 C83 1.359 . S
C84 C85 1.380 . S
C84 H112 0.929 . S
C85 C84 1.380 . S
C85 C86 1.347 . S
C85 H113 0.931 . S
C86 C85 1.347 . S
C86 C87 1.369 . S
C87 C86 1.369 . S
C87 C88 1.408 . S
C87 H114 0.930 . S
C88 C83 1.348 . S
C88 C87 1.408 . S
C88 H115 0.930 . S
C89 O102 1.281 . S
C89 O103 1.254 . S
C90 O104 1.236 . S
C90 O105 1.266 . S
C91 Tb81 2.809 . S
C91 C92 1.514 . S
C91 O106 1.248 . S
C91 O107 1.266 . S
C92 C91 1.514 . S
C92 C93 1.359 . S
C92 C97 1.348 . S
C93 C92 1.359 . S
C93 C94 1.380 . S
C93 H116 0.929 . S
C94 C93 1.380 . S
C94 C95 1.347 . S
C94 H117 0.931 . S
C95 C94 1.347 . S
C95 C96 1.369 . S
C96 C95 1.369 . S
C96 C97 1.408 . S
C96 H118 0.930 . S
C97 C92 1.348 . S
C97 C96 1.408 . S
C97 H119 0.930 . S
C98 O108 1.281 . S
C98 O109 1.254 . S
C99 O110 1.236 . S
C99 O111 1.266 . S
O100 Tb80 2.484 . S
O100 C82 1.248 . S
O101 Tb80 2.440 . S
O101 C82 1.266 . S
O102 Tb80 2.658 . S
O102 Tb81 2.325 . S
O102 C89 1.281 . S
O103 Tb80 2.409 . S
O103 C89 1.254 . S
O104 Tb80 2.378 . S
O104 C90 1.236 . S
O105 Tb81 2.341 . S
O105 C90 1.266 . S
O106 Tb81 2.484 . S
O106 C91 1.248 . S
O107 Tb81 2.440 . S
O107 C91 1.266 . S
O108 Tb80 2.325 . S
O108 Tb81 2.658 . S
O108 C98 1.281 . S
O109 Tb81 2.409 . S
O109 C98 1.254 . S
O110 Tb81 2.378 . S
O110 C99 1.236 . S
O111 Tb80 2.341 . S
O111 C99 1.266 . S
H112 C84 0.929 . S
H113 C85 0.931 . S
H114 C87 0.930 . S
H115 C88 0.930 . S
H116 C93 0.929 . S
H117 C94 0.931 . S
H118 C96 0.930 . S
H119 C97 0.930 . S
O120 Cd121 2.300 . S
O120 C127 1.275 . S
Cd121 O120 2.300 . S
Cd121 O129 2.381 . S
Cd121 O130 2.378 . S
O122 Cd123 2.385 1_545 S
O122 C127 1.255 . S
Cd123 O122 2.385 1_565 S
Cd123 O124 2.317 . S
O124 Cd123 2.317 . S
O124 C125 1.232 . S
C125 O124 1.232 . S
C125 O126 1.218 . S
O126 C125 1.218 . S
C127 O120 1.275 . S
C127 O122 1.255 . S
C128 O129 1.258 . S
C128 O130 1.256 . S
O129 Cd121 2.381 . S
O129 C128 1.258 . S
O130 Cd121 2.378 . S
O130 C128 1.256 . S
O131 Cd132 2.300 . S
O131 C138 1.275 . S
Cd132 O131 2.300 . S
Cd132 O140 2.381 . S
Cd132 O141 2.378 . S
O133 Cd134 2.385 . S
O133 C138 1.255 . S
Cd134 O133 2.385 . S
Cd134 O135 2.317 . S
O135 Cd134 2.317 . S
O135 C136 1.232 . S
C136 O135 1.232 . S
C136 O137 1.218 . S
O137 C136 1.218 . S
C138 O131 1.275 . S
C138 O133 1.255 . S
C139 O140 1.258 . S
C139 O141 1.256 . S
O140 Cd132 2.381 . S
O140 C139 1.258 . S
O141 Cd132 2.378 . S
O141 C139 1.256 . S
O142 Cd143 2.300 . S
O142 C149 1.275 1_455 S
Cd143 O142 2.300 . S
Cd143 O151 2.381 . S
Cd143 O152 2.378 . S
O144 Cd145 2.385 . S
O144 C149 1.255 . S
Cd145 O144 2.385 . S
Cd145 O146 2.317 . S
O146 Cd145 2.317 . S
O146 C147 1.232 . S
C147 O146 1.232 . S
C147 O148 1.218 . S
O148 C147 1.218 . S
C149 O142 1.275 1_655 S
C149 O144 1.255 . S
C150 O151 1.258 . S
C150 O152 1.256 . S
O151 Cd143 2.381 . S
O151 C150 1.258 . S
O152 Cd143 2.378 . S
O152 C150 1.256 . S
O153 Cd154 2.300 . S
O153 C160 1.275 . S
Cd154 O153 2.300 . S
Cd154 O162 2.381 . S
Cd154 O163 2.378 . S
O155 Cd156 2.385 . S
O155 C160 1.255 1_655 S
Cd156 O155 2.385 . S
Cd156 O157 2.317 . S
O157 Cd156 2.317 . S
O157 C158 1.232 . S
C158 O157 1.232 . S
C158 O159 1.218 . S
O159 C158 1.218 . S
C160 O153 1.275 . S
C160 O155 1.255 1_455 S
C161 O162 1.258 . S
C161 O163 1.256 . S
O162 Cd154 2.381 . S
O162 C161 1.258 . S
O163 Cd154 2.378 . S
O163 C161 1.256 . S
O164 Cd165 2.300 . S
O164 C171 1.275 1_565 S
Cd165 O164 2.300 . S
Cd165 O173 2.381 . S
Cd165 O174 2.378 . S
O166 Cd167 2.385 . S
O166 C171 1.255 . S
Cd167 O166 2.385 . S
Cd167 O168 2.317 . S
O168 Cd167 2.317 . S
O168 C169 1.232 . S
C169 O168 1.232 . S
C169 O170 1.218 . S
O170 C169 1.218 . S
C171 O164 1.275 1_545 S
C171 O166 1.255 . S
C172 O173 1.258 . S
C172 O174 1.256 . S
O173 Cd165 2.381 . S
O173 C172 1.258 . S
O174 Cd165 2.378 . S
O174 C172 1.256 . S
O175 Cd176 2.300 . S
O175 C182 1.275 . S
Cd176 O175 2.300 . S
Cd176 O184 2.381 . S
Cd176 O185 2.378 . S
O177 Cd178 2.385 . S
O177 C182 1.255 . S
Cd178 O177 2.385 . S
Cd178 O179 2.317 . S
O179 Cd178 2.317 . S
O179 C180 1.232 . S
C180 O179 1.232 . S
C180 O181 1.218 . S
O181 C180 1.218 . S
C182 O175 1.275 . S
C182 O177 1.255 . S
C183 O184 1.258 . S
C183 O185 1.256 . S
O184 Cd176 2.381 . S
O184 C183 1.258 . S
O185 Cd176 2.378 . S
O185 C183 1.256 . S
H186 C192 0.930 . S
H187 C196 0.930 . S
H188 C201 0.929 . S
H189 C199 0.929 . S
H190 C194 0.929 . S
H191 C200 0.929 . S
C192 H186 0.930 . S
C192 C193 1.367 . S
C192 C200 1.378 . S
C193 C192 1.367 . S
C193 C201 1.433 . S
C194 H190 0.929 . S
C194 C196 1.378 . S
C194 C198 1.350 . S
C195 C198 1.463 . S
C195 C200 1.350 . S
C195 N203 1.427 . S
C196 H187 0.930 . S
C196 C194 1.378 . S
C196 C197 1.367 . S
C197 C196 1.367 . S
C197 C199 1.433 . S
C198 C194 1.350 . S
C198 C195 1.463 . S
C198 N202 1.427 . S
C199 H189 0.929 . S
C199 C197 1.433 . S
C199 N202 1.384 . S
C200 H191 0.929 . S
C200 C192 1.378 . S
C200 C195 1.350 . S
C201 H188 0.929 . S
C201 C193 1.433 . S
C201 N203 1.384 . S
N202 C198 1.427 . S
N202 C199 1.384 . S
N203 C195 1.427 . S
N203 C201 1.384 . S
H204 C210 0.930 . S
H205 C214 0.930 . S
H206 C219 0.929 . S
H207 C217 0.929 . S
H208 C212 0.929 . S
H209 C218 0.929 . S
C210 H204 0.930 . S
C210 C211 1.367 . S
C210 C218 1.378 . S
C211 C210 1.367 . S
C211 C219 1.433 . S
C212 H208 0.929 . S
C212 C214 1.378 . S
C212 C216 1.350 . S
C213 C216 1.463 . S
C213 C218 1.350 . S
C213 N221 1.427 . S
C214 H205 0.930 . S
C214 C212 1.378 . S
C214 C215 1.367 . S
C215 C214 1.367 . S
C215 C217 1.433 . S
C216 C212 1.350 . S
C216 C213 1.463 . S
C216 N220 1.427 . S
C217 H207 0.929 . S
C217 C215 1.433 . S
C217 N220 1.384 . S
C218 H209 0.929 . S
C218 C210 1.378 . S
C218 C213 1.350 . S
C219 H206 0.929 . S
C219 C211 1.433 . S
C219 N221 1.384 . S
N220 C216 1.427 . S
N220 C217 1.384 . S
N221 C213 1.427 . S
N221 C219 1.384 . S
H222 C228 0.930 . S
H223 C232 0.930 . S
H224 C237 0.929 . S
H225 C235 0.929 . S
H226 C230 0.929 . S
H227 C236 0.929 . S
C228 H222 0.930 . S
C228 C229 1.367 . S
C228 C236 1.378 . S
C229 C228 1.367 . S
C229 C237 1.433 . S
C230 H226 0.929 . S
C230 C232 1.378 . S
C230 C234 1.350 . S
C231 C234 1.463 . S
C231 C236 1.350 . S
C231 N239 1.427 . S
C232 H223 0.930 . S
C232 C230 1.378 . S
C232 C233 1.367 . S
C233 C232 1.367 . S
C233 C235 1.433 . S
C234 C230 1.350 . S
C234 C231 1.463 . S
C234 N238 1.427 . S
C235 H225 0.929 . S
C235 C233 1.433 . S
C235 N238 1.384 . S
C236 H227 0.929 . S
C236 C228 1.378 . S
C236 C231 1.350 . S
C237 H224 0.929 . S
C237 C229 1.433 . S
C237 N239 1.384 . S
N238 C234 1.427 . S
N238 C235 1.384 . S
N239 C231 1.427 . S
N239 C237 1.384 . S
H240 C246 0.930 . S
H241 C250 0.930 . S
H242 C255 0.929 . S
H243 C253 0.929 . S
H244 C248 0.929 . S
H245 C254 0.929 . S
C246 H240 0.930 . S
C246 C247 1.367 . S
C246 C254 1.378 . S
C247 C246 1.367 . S
C247 C255 1.433 . S
C248 H244 0.929 . S
C248 C250 1.378 . S
C248 C252 1.350 . S
C249 C252 1.463 . S
C249 C254 1.350 . S
C249 N257 1.427 . S
C250 H241 0.930 . S
C250 C248 1.378 . S
C250 C251 1.367 . S
C251 C250 1.367 . S
C251 C253 1.433 . S
C252 C248 1.350 . S
C252 C249 1.463 . S
C252 N256 1.427 . S
C253 H243 0.929 . S
C253 C251 1.433 . S
C253 N256 1.384 . S
C254 H245 0.929 . S
C254 C246 1.378 . S
C254 C249 1.350 . S
C255 H242 0.929 . S
C255 C247 1.433 . S
C255 N257 1.384 . S
N256 C252 1.427 . S
N256 C253 1.384 . S
N257 C249 1.427 . S
N257 C255 1.384 . S
H258 C264 0.930 . S
H259 C268 0.930 . S
H260 C273 0.929 . S
H261 C271 0.929 . S
H262 C266 0.929 . S
H263 C272 0.929 . S
C264 H258 0.930 . S
C264 C265 1.367 . S
C264 C272 1.378 . S
C265 C264 1.367 . S
C265 C273 1.433 . S
C266 H262 0.929 . S
C266 C268 1.378 . S
C266 C270 1.350 . S
C267 C270 1.463 . S
C267 C272 1.350 . S
C267 N275 1.427 . S
C268 H259 0.930 . S
C268 C266 1.378 . S
C268 C269 1.367 . S
C269 C268 1.367 . S
C269 C271 1.433 . S
C270 C266 1.350 . S
C270 C267 1.463 . S
C270 N274 1.427 . S
C271 H261 0.929 . S
C271 C269 1.433 . S
C271 N274 1.384 . S
C272 H263 0.929 . S
C272 C264 1.378 . S
C272 C267 1.350 . S
C273 H260 0.929 . S
C273 C265 1.433 . S
C273 N275 1.384 . S
N274 C270 1.427 . S
N274 C271 1.384 . S
N275 C267 1.427 . S
N275 C273 1.384 . S
H276 C282 0.930 . S
H277 C286 0.930 . S
H278 C291 0.929 . S
H279 C289 0.929 . S
H280 C284 0.929 . S
H281 C290 0.929 . S
C282 H276 0.930 . S
C282 C283 1.367 . S
C282 C290 1.378 . S
C283 C282 1.367 . S
C283 C291 1.433 . S
C284 H280 0.929 . S
C284 C286 1.378 . S
C284 C288 1.350 . S
C285 C288 1.463 . S
C285 C290 1.350 . S
C285 N293 1.427 . S
C286 H277 0.930 . S
C286 C284 1.378 . S
C286 C287 1.367 . S
C287 C286 1.367 . S
C287 C289 1.433 . S
C288 C284 1.350 . S
C288 C285 1.463 . S
C288 N292 1.427 . S
C289 H279 0.929 . S
C289 C287 1.433 . S
C289 N292 1.384 . S
C290 H281 0.929 . S
C290 C282 1.378 . S
C290 C285 1.350 . S
C291 H278 0.929 . S
C291 C283 1.433 . S
C291 N293 1.384 . S
N292 C288 1.427 . S
N292 C289 1.384 . S
N293 C285 1.427 . S
N293 C291 1.384 . S
H294 C300 0.930 . S
H295 C304 0.930 . S
H296 C309 0.929 . S
H297 C307 0.929 . S
H298 C302 0.929 . S
H299 C308 0.929 . S
C300 H294 0.930 . S
C300 C301 1.367 . S
C300 C308 1.378 . S
C301 C300 1.367 . S
C301 C309 1.433 . S
C302 H298 0.929 . S
C302 C304 1.378 . S
C302 C306 1.350 . S
C303 C306 1.463 . S
C303 C308 1.350 . S
C303 N311 1.427 . S
C304 H295 0.930 . S
C304 C302 1.378 . S
C304 C305 1.367 . S
C305 C304 1.367 . S
C305 C307 1.433 . S
C306 C302 1.350 . S
C306 C303 1.463 . S
C306 N310 1.427 . S
C307 H297 0.929 . S
C307 C305 1.433 . S
C307 N310 1.384 . S
C308 H299 0.929 . S
C308 C300 1.378 . S
C308 C303 1.350 . S
C309 H296 0.929 . S
C309 C301 1.433 . S
C309 N311 1.384 . S
N310 C306 1.427 . S
N310 C307 1.384 . S
N311 C303 1.427 . S
N311 C309 1.384 . S
H312 C318 0.930 . S
H313 C322 0.930 . S
H314 C327 0.929 . S
H315 C325 0.929 . S
H316 C320 0.929 . S
H317 C326 0.929 . S
C318 H312 0.930 . S
C318 C319 1.367 . S
C318 C326 1.378 . S
C319 C318 1.367 . S
C319 C327 1.433 . S
C320 H316 0.929 . S
C320 C322 1.378 . S
C320 C324 1.350 . S
C321 C324 1.463 . S
C321 C326 1.350 . S
C321 N329 1.427 . S
C322 H313 0.930 . S
C322 C320 1.378 . S
C322 C323 1.367 . S
C323 C322 1.367 . S
C323 C325 1.433 . S
C324 C320 1.350 . S
C324 C321 1.463 . S
C324 N328 1.427 . S
C325 H315 0.929 . S
C325 C323 1.433 . S
C325 N328 1.384 . S
C326 H317 0.929 . S
C326 C318 1.378 . S
C326 C321 1.350 . S
C327 H314 0.929 . S
C327 C319 1.433 . S
C327 N329 1.384 . S
N328 C324 1.427 . S
N328 C325 1.384 . S
N329 C321 1.427 . S
N329 C327 1.384 . S
H330 C336 0.930 . S
H331 C340 0.930 . S
H332 C345 0.929 . S
H333 C343 0.929 . S
H334 C338 0.929 . S
H335 C344 0.929 . S
C336 H330 0.930 . S
C336 C337 1.367 . S
C336 C344 1.378 . S
C337 C336 1.367 . S
C337 C345 1.433 . S
C338 H334 0.929 . S
C338 C340 1.378 . S
C338 C342 1.350 . S
C339 C342 1.463 . S
C339 C344 1.350 . S
C339 N347 1.427 . S
C340 H331 0.930 . S
C340 C338 1.378 . S
C340 C341 1.367 . S
C341 C340 1.367 . S
C341 C343 1.433 . S
C342 C338 1.350 . S
C342 C339 1.463 . S
C342 N346 1.427 . S
C343 H333 0.929 . S
C343 C341 1.433 . S
C343 N346 1.384 . S
C344 H335 0.929 . S
C344 C336 1.378 . S
C344 C339 1.350 . S
C345 H332 0.929 . S
C345 C337 1.433 . S
C345 N347 1.384 . S
N346 C342 1.427 . S
N346 C343 1.384 . S
N347 C339 1.427 . S
N347 C345 1.384 . S
H348 C354 0.930 . S
H349 C358 0.930 . S
H350 C363 0.929 . S
H351 C361 0.929 . S
H352 C356 0.929 . S
H353 C362 0.929 . S
C354 H348 0.930 . S
C354 C355 1.367 . S
C354 C362 1.378 . S
C355 C354 1.367 . S
C355 C363 1.433 . S
C356 H352 0.929 . S
C356 C358 1.378 . S
C356 C360 1.350 . S
C357 C360 1.463 . S
C357 C362 1.350 . S
C357 N365 1.427 . S
C358 H349 0.930 . S
C358 C356 1.378 . S
C358 C359 1.367 . S
C359 C358 1.367 . S
C359 C361 1.433 . S
C360 C356 1.350 . S
C360 C357 1.463 . S
C360 N364 1.427 . S
C361 H351 0.929 . S
C361 C359 1.433 . S
C361 N364 1.384 . S
C362 H353 0.929 . S
C362 C354 1.378 . S
C362 C357 1.350 . S
C363 H350 0.929 . S
C363 C355 1.433 . S
C363 N365 1.384 . S
N364 C360 1.427 . S
N364 C361 1.384 . S
N365 C357 1.427 . S
N365 C363 1.384 . S
H366 C372 0.930 . S
H367 C376 0.930 . S
H368 C381 0.929 . S
H369 C379 0.929 . S
H370 C374 0.929 . S
H371 C380 0.929 . S
C372 H366 0.930 . S
C372 C373 1.367 . S
C372 C380 1.378 . S
C373 C372 1.367 . S
C373 C381 1.433 . S
C374 H370 0.929 . S
C374 C376 1.378 . S
C374 C378 1.350 . S
C375 C378 1.463 . S
C375 C380 1.350 . S
C375 N383 1.427 . S
C376 H367 0.930 . S
C376 C374 1.378 . S
C376 C377 1.367 . S
C377 C376 1.367 . S
C377 C379 1.433 . S
C378 C374 1.350 . S
C378 C375 1.463 . S
C378 N382 1.427 . S
C379 H369 0.929 . S
C379 C377 1.433 . S
C379 N382 1.384 . S
C380 H371 0.929 . S
C380 C372 1.378 . S
C380 C375 1.350 . S
C381 H368 0.929 . S
C381 C373 1.433 . S
C381 N383 1.384 . S
N382 C378 1.427 . S
N382 C379 1.384 . S
N383 C375 1.427 . S
N383 C381 1.384 . S
H384 C390 0.930 . S
H385 C394 0.930 . S
H386 C399 0.929 . S
H387 C397 0.929 . S
H388 C392 0.929 . S
H389 C398 0.929 . S
C390 H384 0.930 . S
C390 C391 1.367 . S
C390 C398 1.378 . S
C391 C390 1.367 . S
C391 C399 1.433 . S
C392 H388 0.929 . S
C392 C394 1.378 . S
C392 C396 1.350 . S
C393 C396 1.463 . S
C393 C398 1.350 . S
C393 N401 1.427 . S
C394 H385 0.930 . S
C394 C392 1.378 . S
C394 C395 1.367 . S
C395 C394 1.367 . S
C395 C397 1.433 . S
C396 C392 1.350 . S
C396 C393 1.463 . S
C396 N400 1.427 . S
C397 H387 0.929 . S
C397 C395 1.433 . S
C397 N400 1.384 . S
C398 H389 0.929 . S
C398 C390 1.378 . S
C398 C393 1.350 . S
C399 H386 0.929 . S
C399 C391 1.433 . S
C399 N401 1.384 . S
N400 C396 1.427 . S
N400 C397 1.384 . S
N401 C393 1.427 . S
N401 C399 1.384 . S
H402 C408 0.930 . S
H403 C412 0.930 . S
H404 C417 0.929 . S
H405 C415 0.929 . S
H406 C410 0.930 1_554 S
H407 C416 0.929 . S
C408 H402 0.930 . S
C408 C409 1.367 . S
C408 C416 1.378 . S
C409 C408 1.367 . S
C409 C417 1.433 1_455 S
C410 H406 0.930 1_556 S
C410 C412 1.375 . S
C410 C414 1.363 1_556 S
C411 C414 1.462 1_455 S
C411 C416 1.350 . S
C411 N419 1.427 1_455 S
C412 H403 0.930 . S
C412 C410 1.375 . S
C412 C413 1.367 . S
C413 C412 1.367 . S
C413 C415 1.433 1_655 S
C414 C410 1.363 1_554 S
C414 C411 1.462 1_655 S
C414 N418 1.416 1_654 S
C415 H405 0.929 . S
C415 C413 1.433 1_455 S
C415 N418 1.384 . S
C416 H407 0.929 . S
C416 C408 1.378 . S
C416 C411 1.350 . S
C417 H404 0.929 . S
C417 C409 1.433 1_655 S
C417 N419 1.384 . S
N418 C414 1.416 1_456 S
N418 C415 1.384 . S
N419 C411 1.427 1_655 S
N419 C417 1.384 . S
H420 C426 0.930 . S
H421 C430 0.930 . S
H422 C435 0.929 . S
H423 C433 0.929 . S
H424 C428 0.929 . S
H425 C434 0.929 . S
C426 H420 0.930 . S
C426 C427 1.367 . S
C426 C434 1.378 . S
C427 C426 1.367 . S
C427 C435 1.433 1_545 S
C428 H424 0.929 . S
C428 C430 1.378 . S
C428 C432 1.350 1_565 S
C429 C432 1.463 . S
C429 C434 1.350 . S
C429 N437 1.427 1_545 S
C430 H421 0.930 . S
C430 C428 1.378 . S
C430 C431 1.367 1_565 S
C431 C430 1.367 1_545 S
C431 C433 1.433 . S
C432 C428 1.350 1_545 S
C432 C429 1.463 . S
C432 N436 1.427 . S
C433 H423 0.929 . S
C433 C431 1.433 . S
C433 N436 1.384 . S
C434 H425 0.929 . S
C434 C426 1.378 . S
C434 C429 1.350 . S
C435 H422 0.929 . S
C435 C427 1.433 1_565 S
C435 N437 1.384 . S
N436 C432 1.427 . S
N436 C433 1.384 . S
N437 C429 1.427 1_565 S
N437 C435 1.384 . S
H438 C444 0.930 . S
H439 C448 0.930 . S
H440 C453 0.929 . S
H441 C451 0.929 . S
H442 C446 0.929 . S
H443 C452 0.929 . S
C444 H438 0.930 . S
C444 C445 1.367 . S
C444 C452 1.378 . S
C445 C444 1.367 . S
C445 C453 1.433 . S
C446 H442 0.929 . S
C446 C448 1.378 . S
C446 C450 1.350 . S
C447 C450 1.463 . S
C447 C452 1.350 . S
C447 N455 1.427 . S
C448 H439 0.930 . S
C448 C446 1.378 . S
C448 C449 1.367 . S
C449 C448 1.367 . S
C449 C451 1.433 . S
C450 C446 1.350 . S
C450 C447 1.463 . S
C450 N454 1.427 . S
C451 H441 0.929 . S
C451 C449 1.433 . S
C451 N454 1.384 . S
C452 H443 0.929 . S
C452 C444 1.378 . S
C452 C447 1.350 . S
C453 H440 0.929 . S
C453 C445 1.433 . S
C453 N455 1.384 . S
N454 C450 1.427 . S
N454 C451 1.384 . S
N455 C447 1.427 . S
N455 C453 1.384 . S
H456 C462 0.930 . S
H457 C466 0.930 . S
H458 C471 0.929 . S
H459 C469 0.929 . S
H460 C464 0.929 . S
H461 C470 0.929 . S
C462 H456 0.930 . S
C462 C463 1.367 1_565 S
C462 C470 1.378 . S
C463 C462 1.367 1_545 S
C463 C471 1.433 . S
C464 H460 0.929 . S
C464 C466 1.378 . S
C464 C468 1.350 . S
C465 C468 1.463 . S
C465 C470 1.350 1_545 S
C465 N473 1.427 . S
C466 H457 0.930 . S
C466 C464 1.378 . S
C466 C467 1.367 . S
C467 C466 1.367 . S
C467 C469 1.433 1_545 S
C468 C464 1.350 . S
C468 C465 1.463 . S
C468 N472 1.427 1_545 S
C469 H459 0.929 . S
C469 C467 1.433 1_565 S
C469 N472 1.384 . S
C470 H461 0.929 . S
C470 C462 1.378 . S
C470 C465 1.350 1_565 S
C471 H458 0.929 . S
C471 C463 1.433 . S
C471 N473 1.384 . S
N472 C468 1.427 1_565 S
N472 C469 1.384 . S
N473 C465 1.427 . S
N473 C471 1.384 . S
H474 C480 0.930 . S
H475 C484 0.930 . S
H476 C489 0.929 . S
H477 C487 0.929 . S
H478 C482 0.929 1_556 S
H479 C488 0.929 . S
C480 H474 0.930 . S
C480 C481 1.367 . S
C480 C488 1.378 . S
C481 C480 1.367 . S
C481 C489 1.433 . S
C482 H478 0.929 1_554 S
C482 C484 1.378 . S
C482 C486 1.350 1_554 S
C483 C486 1.463 . S
C483 C488 1.350 . S
C483 N491 1.427 . S
C484 H475 0.930 . S
C484 C482 1.378 . S
C484 C485 1.367 . S
C485 C484 1.367 . S
C485 C487 1.433 . S
C486 C482 1.350 1_556 S
C486 C483 1.463 . S
C486 N490 1.427 1_556 S
C487 H477 0.929 . S
C487 C485 1.433 . S
C487 N490 1.384 . S
C488 H479 0.929 . S
C488 C480 1.378 . S
C488 C483 1.350 . S
C489 H476 0.929 . S
C489 C481 1.433 . S
C489 N491 1.384 . S
N490 C486 1.427 1_554 S
N490 C487 1.384 . S
N491 C483 1.427 . S
N491 C489 1.384 . S
H492 C498 0.930 . S
H493 C502 0.930 . S
H494 C507 0.929 . S
H495 C505 0.929 . S
H496 C500 0.929 . S
H497 C506 0.929 . S
C498 H492 0.930 . S
C498 C499 1.367 . S
C498 C506 1.378 . S
C499 C498 1.367 . S
C499 C507 1.433 . S
C500 H496 0.929 . S
C500 C502 1.378 . S
C500 C504 1.350 . S
C501 C504 1.463 . S
C501 C506 1.350 . S
C501 N509 1.427 . S
C502 H493 0.930 . S
C502 C500 1.378 . S
C502 C503 1.367 . S
C503 C502 1.367 . S
C503 C505 1.433 . S
C504 C500 1.350 . S
C504 C501 1.463 . S
C504 N508 1.427 . S
C505 H495 0.929 . S
C505 C503 1.433 . S
C505 N508 1.384 . S
C506 H497 0.929 . S
C506 C498 1.378 . S
C506 C501 1.350 . S
C507 H494 0.929 . S
C507 C499 1.433 . S
C507 N509 1.384 . S
N508 C504 1.427 . S
N508 C505 1.384 . S
N509 C501 1.427 . S
N509 C507 1.384 . S
C193 C10 3.181 . S
C197 C180 2.842 . S
C211 C59 3.253 . S
C215 C158 2.899 . S
C229 C90 2.895 . S
C233 C172 2.840 . S
C247 C19 2.961 . S
C251 C183 2.895 . S
C269 C161 2.836 . S
C265 C50 2.895 . S
C287 C169 2.905 . S
C283 C99 3.253 . S
C301 C46 0.516 . S
C305 C136 0.696 . S
C319 C95 0.461 . S
C323 C147 0.660 . S
C337 C6 0.527 . S
C341 C125 0.710 . S
C359 C139 0.277 . S
C355 C55 0.225 . S
C377 C150 0.263 . S
C373 C86 0.307 . S
C391 C15 0.226 . S
C395 C128 0.286 . S
C413 C149 1.184 . S
C409 C9 1.191 . S
C427 C49 1.216 . S
C431 C127 1.185 . S
C445 C89 1.221 . S
C449 C138 1.166 . S
C467 C171 1.673 . S
C463 C58 1.667 . S
C485 C182 1.669 . S
C481 C98 1.692 . S
C499 C18 1.667 . S
C503 C160 1.676 . S
