# Generated by pormake.
# Topology ocu, (6,8)-cn, num edge types: 1
# Building blocks:
#     Node 0, Type 0, BuildingBlock: CUWYAW_clean_sbu_0, # of connection points: 6
#     Node 1, Type 0, BuildingBlock: CUWYAW_clean_sbu_0, # of connection points: 6
#     Node 2, Type 0, BuildingBlock: CUWYAW_clean_sbu_0, # of connection points: 6
#     Node 3, Type 0, BuildingBlock: CUWYAW_clean_sbu_0, # of connection points: 6
#     Node 4, Type 0, BuildingBlock: CUWYAW_clean_sbu_0, # of connection points: 6
#     Node 5, Type 0, BuildingBlock: CUWYAW_clean_sbu_0, # of connection points: 6
#     Node 6, Type 0, BuildingBlock: CUWYAW_clean_sbu_0, # of connection points: 6
#     Node 7, Type 0, BuildingBlock: CUWYAW_clean_sbu_0, # of connection points: 6
#     Node 8, Type 1, BuildingBlock: AJUNOK_clean_sbu_0, # of connection points: 8
#     Node 9, Type 1, BuildingBlock: AJUNOK_clean_sbu_0, # of connection points: 8
#     Node 10, Type 1, BuildingBlock: AJUNOK_clean_sbu_0, # of connection points: 8
#     Node 11, Type 1, BuildingBlock: AJUNOK_clean_sbu_0, # of connection points: 8
#     Node 12, Type 1, BuildingBlock: AJUNOK_clean_sbu_0, # of connection points: 8
#     Node 13, Type 1, BuildingBlock: AJUNOK_clean_sbu_0, # of connection points: 8
#     Edge 14, Type (0, 1), BuildingBlock: XIVTED_clean_linker_0, # of connection points: 2
#     Edge 15, Type (0, 1), BuildingBlock: XIVTED_clean_linker_0, # of connection points: 2
#     Edge 16, Type (0, 1), BuildingBlock: XIVTED_clean_linker_0, # of connection points: 2
#     Edge 17, Type (0, 1), BuildingBlock: XIVTED_clean_linker_0, # of connection points: 2
#     Edge 18, Type (0, 1), BuildingBlock: XIVTED_clean_linker_0, # of connection points: 2
#     Edge 19, Type (0, 1), BuildingBlock: XIVTED_clean_linker_0, # of connection points: 2
#     Edge 20, Type (0, 1), BuildingBlock: XIVTED_clean_linker_0, # of connection points: 2
#     Edge 21, Type (0, 1), BuildingBlock: XIVTED_clean_linker_0, # of connection points: 2
#     Edge 22, Type (0, 1), BuildingBlock: XIVTED_clean_linker_0, # of connection points: 2
#     Edge 23, Type (0, 1), BuildingBlock: XIVTED_clean_linker_0, # of connection points: 2
#     Edge 24, Type (0, 1), BuildingBlock: XIVTED_clean_linker_0, # of connection points: 2
#     Edge 25, Type (0, 1), BuildingBlock: XIVTED_clean_linker_0, # of connection points: 2
#     Edge 26, Type (0, 1), BuildingBlock: XIVTED_clean_linker_0, # of connection points: 2
#     Edge 27, Type (0, 1), BuildingBlock: XIVTED_clean_linker_0, # of connection points: 2
#     Edge 28, Type (0, 1), BuildingBlock: XIVTED_clean_linker_0, # of connection points: 2
#     Edge 29, Type (0, 1), BuildingBlock: XIVTED_clean_linker_0, # of connection points: 2
#     Edge 30, Type (0, 1), BuildingBlock: XIVTED_clean_linker_0, # of connection points: 2
#     Edge 31, Type (0, 1), BuildingBlock: XIVTED_clean_linker_0, # of connection points: 2
#     Edge 32, Type (0, 1), BuildingBlock: XIVTED_clean_linker_0, # of connection points: 2
#     Edge 33, Type (0, 1), BuildingBlock: XIVTED_clean_linker_0, # of connection points: 2
#     Edge 34, Type (0, 1), BuildingBlock: XIVTED_clean_linker_0, # of connection points: 2
#     Edge 35, Type (0, 1), BuildingBlock: XIVTED_clean_linker_0, # of connection points: 2
#     Edge 36, Type (0, 1), BuildingBlock: XIVTED_clean_linker_0, # of connection points: 2
#     Edge 37, Type (0, 1), BuildingBlock: XIVTED_clean_linker_0, # of connection points: 2
#     Edge 38, Type (0, 1), BuildingBlock: XIVTED_clean_linker_0, # of connection points: 2
#     Edge 39, Type (0, 1), BuildingBlock: XIVTED_clean_linker_0, # of connection points: 2
#     Edge 40, Type (0, 1), BuildingBlock: XIVTED_clean_linker_0, # of connection points: 2
#     Edge 41, Type (0, 1), BuildingBlock: XIVTED_clean_linker_0, # of connection points: 2
#     Edge 42, Type (0, 1), BuildingBlock: XIVTED_clean_linker_0, # of connection points: 2
#     Edge 43, Type (0, 1), BuildingBlock: XIVTED_clean_linker_0, # of connection points: 2
#     Edge 44, Type (0, 1), BuildingBlock: XIVTED_clean_linker_0, # of connection points: 2
#     Edge 45, Type (0, 1), BuildingBlock: XIVTED_clean_linker_0, # of connection points: 2
#     Edge 46, Type (0, 1), BuildingBlock: XIVTED_clean_linker_0, # of connection points: 2
#     Edge 47, Type (0, 1), BuildingBlock: XIVTED_clean_linker_0, # of connection points: 2
#     Edge 48, Type (0, 1), BuildingBlock: XIVTED_clean_linker_0, # of connection points: 2
#     Edge 49, Type (0, 1), BuildingBlock: XIVTED_clean_linker_0, # of connection points: 2
#     Edge 50, Type (0, 1), BuildingBlock: XIVTED_clean_linker_0, # of connection points: 2
#     Edge 51, Type (0, 1), BuildingBlock: XIVTED_clean_linker_0, # of connection points: 2
#     Edge 52, Type (0, 1), BuildingBlock: XIVTED_clean_linker_0, # of connection points: 2
#     Edge 53, Type (0, 1), BuildingBlock: XIVTED_clean_linker_0, # of connection points: 2
#     Edge 54, Type (0, 1), BuildingBlock: XIVTED_clean_linker_0, # of connection points: 2
#     Edge 55, Type (0, 1), BuildingBlock: XIVTED_clean_linker_0, # of connection points: 2
#     Edge 56, Type (0, 1), BuildingBlock: XIVTED_clean_linker_0, # of connection points: 2
#     Edge 57, Type (0, 1), BuildingBlock: XIVTED_clean_linker_0, # of connection points: 2
#     Edge 58, Type (0, 1), BuildingBlock: XIVTED_clean_linker_0, # of connection points: 2
#     Edge 59, Type (0, 1), BuildingBlock: XIVTED_clean_linker_0, # of connection points: 2
#     Edge 60, Type (0, 1), BuildingBlock: XIVTED_clean_linker_0, # of connection points: 2
#     Edge 61, Type (0, 1), BuildingBlock: XIVTED_clean_linker_0, # of connection points: 2
# Relax obj value: 0.182
# Max RMSD: 0.216
# Mean RMSD: 0.167
data_MOF--net-ocu--node1-CUWYAW_clean_sbu_0--node2-AJUNOK_clean_sbu_0--edge1-XIVTED_clean_linker_0
_symmetry_space_group_name_H-M    P1
_symmetry_Int_Tables_number       1
_symmetry_cell_setting            triclinic
loop_
_symmetry_equiv_pos_as_xyz
'x, y, z'
_cell_length_a     45.804038
_cell_length_b     45.580573
_cell_length_c     36.926237
_cell_angle_alpha  92.645875
_cell_angle_beta   108.17838
_cell_angle_gamma 109.10259
loop_
_atom_site_label
_atom_site_type_symbol
_atom_site_fract_x
_atom_site_fract_y
_atom_site_fract_z
_atom_type_partial_charge
C0 C 0.31364 0.32894 0.38245 0.0
Eu1 Eu 0.29924 0.29536 0.31705 0.0
C2 C 0.29345 0.34464 0.39227 0.0
C3 C 0.30813 0.37584 0.41133 0.0
C4 C 0.28868 0.39163 0.4186 0.0
C5 C 0.25441 0.37621 0.40694 0.0
C6 C 0.23956 0.34578 0.38543 0.0
C7 C 0.25897 0.33009 0.37798 0.0
C8 C 0.33023 0.31463 0.26525 0.0
C9 C 0.23606 0.30923 0.2518 0.0
C10 C 0.24636 0.21619 0.17899 0.0
Eu11 Eu 0.25936 0.24875 0.24449 0.0
C12 C 0.26568 0.19864 0.17031 0.0
C13 C 0.25391 0.16573 0.16708 0.0
C14 C 0.27324 0.14888 0.16245 0.0
C15 C 0.30426 0.16463 0.15984 0.0
C16 C 0.31671 0.19769 0.16511 0.0
C17 C 0.29765 0.21455 0.17045 0.0
C18 C 0.227 0.22851 0.29449 0.0
C19 C 0.32246 0.23462 0.30965 0.0
O20 O 0.30193 0.29809 0.37712 0.0
O21 O 0.32482 0.34021 0.35564 0.0
O22 O 0.34118 0.3279 0.30087 0.0
O23 O 0.3044 0.29071 0.25952 0.0
O24 O 0.25936 0.31708 0.28698 0.0
O25 O 0.23162 0.28353 0.22887 0.0
O26 O 0.26 0.24697 0.18569 0.0
O27 O 0.23227 0.2052 0.20373 0.0
O28 O 0.21701 0.21676 0.2584 0.0
O29 O 0.25331 0.25285 0.30267 0.0
O30 O 0.29861 0.22639 0.27482 0.0
O31 O 0.32741 0.26074 0.33228 0.0
H32 H 0.3346 0.38778 0.42096 0.0
H33 H 0.3006 0.41514 0.43535 0.0
H34 H 0.2131 0.33371 0.37588 0.0
H35 H 0.24704 0.30649 0.36147 0.0
H36 H 0.22974 0.15303 0.16822 0.0
H37 H 0.26333 0.12344 0.1592 0.0
H38 H 0.34039 0.2106 0.16285 0.0
H39 H 0.30791 0.24 0.1742 0.0
C40 C 0.84024 0.31565 0.22965 0.0
Eu41 Eu 0.80187 0.28333 0.26284 0.0
C42 C 0.83114 0.33094 0.19585 0.0
C43 C 0.82079 0.31474 0.15807 0.0
C44 C 0.81334 0.32997 0.12635 0.0
C45 C 0.81671 0.3618 0.13199 0.0
C46 C 0.8227 0.37628 0.16961 0.0
C47 C 0.8306 0.36133 0.2011 0.0
C48 C 0.75219 0.22958 0.22407 0.0
C49 C 0.73971 0.30797 0.24308 0.0
C50 C 0.7155 0.22715 0.33183 0.0
Eu51 Eu 0.75314 0.26123 0.29918 0.0
C52 C 0.72593 0.21151 0.36478 0.0
C53 C 0.74608 0.22893 0.40178 0.0
C54 C 0.7552 0.21356 0.43285 0.0
C55 C 0.74398 0.18053 0.42754 0.0
C56 C 0.72797 0.16375 0.38924 0.0
C57 C 0.71829 0.17899 0.35852 0.0
C58 C 0.80273 0.31503 0.3384 0.0
C59 C 0.81619 0.23796 0.32015 0.0
O60 O 0.83813 0.32754 0.26133 0.0
O61 O 0.82865 0.28486 0.22323 0.0
O62 O 0.7827 0.2338 0.22972 0.0
O63 O 0.74921 0.25334 0.23855 0.0
O64 O 0.77059 0.31416 0.24538 0.0
O65 O 0.72451 0.28434 0.25758 0.0
O66 O 0.71743 0.21616 0.2996 0.0
O67 O 0.72621 0.25791 0.33888 0.0
O68 O 0.77227 0.31031 0.33367 0.0
O69 O 0.80565 0.29139 0.32351 0.0
O70 O 0.78456 0.2301 0.31524 0.0
O71 O 0.83131 0.26287 0.30749 0.0
H72 H 0.81978 0.29077 0.15305 0.0
H73 H 0.8083 0.31795 0.09785 0.0
H74 H 0.82499 0.40053 0.1758 0.0
H75 H 0.83742 0.37418 0.22973 0.0
H76 H 0.75379 0.25433 0.40718 0.0
H77 H 0.76808 0.22725 0.46162 0.0
H78 H 0.71961 0.13836 0.38295 0.0
H79 H 0.70398 0.16514 0.32998 0.0
C80 C 0.79538 0.73776 0.37691 0.0
Eu81 Eu 0.78091 0.75668 0.31178 0.0
C82 C 0.81681 0.71959 0.38779 0.0
C83 C 0.80289 0.68739 0.38883 0.0
C84 C 0.82234 0.66901 0.39492 0.0
C85 C 0.85572 0.68274 0.39997 0.0
C86 C 0.86944 0.71441 0.39712 0.0
C87 C 0.8501 0.73282 0.39106 0.0
C88 C 0.72509 0.72864 0.25362 0.0
C89 C 0.8108 0.73165 0.24958 0.0
C90 C 0.76428 0.80835 0.18125 0.0
Eu91 Eu 0.778 0.78814 0.24533 0.0
C92 C 0.74086 0.82444 0.17164 0.0
C93 C 0.75118 0.85513 0.1638 0.0
C94 C 0.73127 0.87282 0.16128 0.0
C95 C 0.70071 0.85982 0.16624 0.0
C96 C 0.69105 0.82973 0.17592 0.0
C97 C 0.71108 0.8122 0.1788 0.0
C98 C 0.83272 0.81657 0.30493 0.0
C99 C 0.74658 0.81192 0.30673 0.0
O100 O 0.80956 0.7669 0.3731 0.0
O101 O 0.76768 0.72281 0.34863 0.0
O102 O 0.74137 0.71352 0.27497 0.0
O103 O 0.73852 0.75794 0.26328 0.0
O104 O 0.80749 0.7304 0.28431 0.0
O105 O 0.79973 0.75138 0.22845 0.0
O106 O 0.75208 0.77839 0.1832 0.0
O107 O 0.79094 0.824 0.21057 0.0
O108 O 0.81644 0.83165 0.28364 0.0
O109 O 0.81989 0.78737 0.29415 0.0
O110 O 0.74905 0.81236 0.27153 0.0
O111 O 0.75914 0.79338 0.32864 0.0
H112 H 0.77705 0.67652 0.38509 0.0
H113 H 0.81186 0.64458 0.3978 0.0
H114 H 0.89553 0.72529 0.40195 0.0
H115 H 0.86135 0.75737 0.38923 0.0
H116 H 0.77479 0.86551 0.16014 0.0
H117 H 0.73898 0.89599 0.15338 0.0
H118 H 0.66754 0.81944 0.1799 0.0
H119 H 0.70337 0.78933 0.18725 0.0
C120 C 0.23955 0.83696 0.30502 0.0
Eu121 Eu 0.26059 0.79427 0.28733 0.0
C122 C 0.22166 0.83874 0.33132 0.0
C123 C 0.18762 0.82211 0.31995 0.0
C124 C 0.17061 0.82514 0.34429 0.0
C125 C 0.18723 0.84533 0.38003 0.0
C126 C 0.22163 0.86002 0.39266 0.0
C127 C 0.23872 0.8568 0.36841 0.0
C128 C 0.23194 0.75033 0.22317 0.0
C129 C 0.24233 0.73039 0.32355 0.0
C130 C 0.31648 0.70773 0.26239 0.0
Eu131 Eu 0.29769 0.75197 0.2808 0.0
C132 C 0.33163 0.7033 0.23395 0.0
C133 C 0.36546 0.70869 0.24641 0.0
C134 C 0.37996 0.70339 0.22006 0.0
C135 C 0.36075 0.69238 0.18089 0.0
C136 C 0.32733 0.68874 0.16805 0.0
C137 C 0.31281 0.69408 0.19438 0.0
C138 C 0.32637 0.7948 0.34561 0.0
C139 C 0.31618 0.81608 0.24519 0.0
O140 O 0.26985 0.83846 0.32153 0.0
O141 O 0.22341 0.81572 0.27372 0.0
O142 O 0.21572 0.75763 0.24307 0.0
O143 O 0.26202 0.76645 0.23802 0.0
O144 O 0.24189 0.75935 0.32447 0.0
O145 O 0.25976 0.72149 0.30552 0.0
O146 O 0.2858 0.70602 0.24872 0.0
O147 O 0.33491 0.73071 0.29144 0.0
O148 O 0.34294 0.78671 0.32685 0.0
O149 O 0.29612 0.77961 0.33012 0.0
O150 O 0.31679 0.78721 0.24418 0.0
O151 O 0.29854 0.82496 0.26287 0.0
H152 H 0.17384 0.80752 0.2918 0.0
H153 H 0.1441 0.81332 0.3341 0.0
H154 H 0.23505 0.87596 0.41993 0.0
H155 H 0.26509 0.8694 0.37813 0.0
H156 H 0.38054 0.71613 0.27672 0.0
H157 H 0.4057 0.70602 0.23076 0.0
H158 H 0.31214 0.68048 0.13787 0.0
H159 H 0.28675 0.69021 0.18378 0.0
C160 C 0.33277 0.79906 0.71946 0.0
Eu161 Eu 0.29604 0.78043 0.75913 0.0
C162 C 0.32254 0.81577 0.68807 0.0
C163 C 0.32232 0.80706 0.65115 0.0
C164 C 0.31489 0.82528 0.62278 0.0
C165 C 0.31012 0.85305 0.6329 0.0
C166 C 0.30059 0.85574 0.66488 0.0
C167 C 0.30929 0.83873 0.69388 0.0
C168 C 0.23844 0.73414 0.72741 0.0
C169 C 0.23799 0.80749 0.74715 0.0
C170 C 0.21515 0.74036 0.84683 0.0
Eu171 Eu 0.2542 0.7624 0.81037 0.0
C172 C 0.2216 0.71948 0.87493 0.0
C173 C 0.24055 0.73228 0.91379 0.0
C174 C 0.25024 0.7132 0.93974 0.0
C175 C 0.23956 0.68039 0.92799 0.0
C176 C 0.22405 0.6686 0.88796 0.0
C177 C 0.21459 0.6877 0.86204 0.0
C178 C 0.31144 0.80986 0.84105 0.0
C179 C 0.31275 0.7365 0.82304 0.0
O180 O 0.34043 0.81405 0.75427 0.0
O181 O 0.31362 0.76953 0.71373 0.0
O182 O 0.25041 0.75499 0.70826 0.0
O183 O 0.25785 0.73742 0.76114 0.0
O184 O 0.26643 0.8117 0.74259 0.0
O185 O 0.22691 0.78805 0.76938 0.0
O186 O 0.20802 0.72874 0.81068 0.0
O187 O 0.2363 0.76937 0.85683 0.0
O188 O 0.3002 0.7893 0.86108 0.0
O189 O 0.29158 0.80549 0.80747 0.0
O190 O 0.28279 0.72981 0.82443 0.0
O191 O 0.32475 0.75822 0.80368 0.0
H192 H 0.33005 0.78784 0.64521 0.0
H193 H 0.31993 0.82156 0.59649 0.0
H194 H 0.29504 0.87617 0.67203 0.0
H195 H 0.30837 0.84565 0.72173 0.0
H196 H 0.24798 0.75713 0.92428 0.0
H197 H 0.26408 0.72411 0.96954 0.0
H198 H 0.21669 0.64404 0.87641 0.0
H199 H 0.20156 0.67733 0.83185 0.0
C200 C 0.31285 0.24032 0.69761 0.0
Eu201 Eu 0.29422 0.26606 0.74695 0.0
C202 C 0.33018 0.21953 0.68963 0.0
C203 C 0.36313 0.23321 0.69172 0.0
C204 C 0.37903 0.21525 0.6797 0.0
C205 C 0.36264 0.18282 0.66527 0.0
C206 C 0.32972 0.16896 0.66371 0.0
C207 C 0.31364 0.18712 0.67552 0.0
C208 C 0.33015 0.32151 0.79359 0.0
C209 C 0.30735 0.23849 0.82846 0.0
C210 C 0.25947 0.3122 0.87196 0.0
Eu211 Eu 0.26859 0.28684 0.81353 0.0
C212 C 0.23885 0.32905 0.88072 0.0
C213 C 0.20695 0.31271 0.8809 0.0
C214 C 0.18907 0.32888 0.89237 0.0
C215 C 0.20264 0.3618 0.90415 0.0
C216 C 0.23424 0.37808 0.90305 0.0
C217 C 0.2521 0.36196 0.89173 0.0
C218 C 0.22501 0.2421 0.75417 0.0
C219 C 0.25478 0.31202 0.7323 0.0
O220 O 0.28317 0.22838 0.69956 0.0
O221 O 0.3311 0.26662 0.72173 0.0
O222 O 0.32896 0.3166 0.75827 0.0
O223 O 0.31513 0.29671 0.80313 0.0
O224 O 0.30803 0.23764 0.7928 0.0
O225 O 0.29598 0.25705 0.84413 0.0
O226 O 0.28124 0.32731 0.85673 0.0
O227 O 0.24547 0.28202 0.85768 0.0
O228 O 0.21612 0.25986 0.77364 0.0
O229 O 0.25464 0.24613 0.76993 0.0
O230 O 0.26301 0.31942 0.77019 0.0
O231 O 0.2586 0.28793 0.71551 0.0
H232 H 0.3765 0.25824 0.70153 0.0
H233 H 0.40398 0.22725 0.68063 0.0
H234 H 0.31622 0.14406 0.65327 0.0
H235 H 0.28811 0.17587 0.67294 0.0
H236 H 0.196 0.28734 0.87291 0.0
H237 H 0.16497 0.31538 0.89307 0.0
H238 H 0.24538 0.40344 0.91103 0.0
H239 H 0.27663 0.37534 0.89217 0.0
C240 C 0.74106 0.33858 0.79734 0.0
Eu241 Eu 0.76313 0.29674 0.77941 0.0
C242 C 0.72113 0.33973 0.82132 0.0
C243 C 0.68706 0.32291 0.80777 0.0
C244 C 0.66835 0.32556 0.83018 0.0
C245 C 0.68331 0.3455 0.86618 0.0
C246 C 0.71771 0.36056 0.8808 0.0
C247 C 0.73644 0.35773 0.85852 0.0
C248 C 0.73514 0.24862 0.71939 0.0
C249 C 0.74097 0.23725 0.82504 0.0
C250 C 0.81933 0.20818 0.7698 0.0
Eu251 Eu 0.79623 0.24926 0.78734 0.0
C252 C 0.84217 0.20814 0.74938 0.0
C253 C 0.87464 0.2113 0.77042 0.0
C254 C 0.89512 0.20722 0.75122 0.0
C255 C 0.88321 0.1995 0.71078 0.0
C256 C 0.85182 0.19916 0.68956 0.0
C257 C 0.83135 0.20336 0.70872 0.0
C258 C 0.82413 0.29766 0.847 0.0
C259 C 0.81822 0.30884 0.74168 0.0
O260 O 0.77049 0.33878 0.81617 0.0
O261 O 0.72645 0.3189 0.76458 0.0
O262 O 0.73733 0.27736 0.71518 0.0
O263 O 0.74603 0.24667 0.75468 0.0
O264 O 0.7426 0.26629 0.81992 0.0
O265 O 0.75755 0.22355 0.81147 0.0
O266 O 0.791 0.20931 0.74874 0.0
O267 O 0.83186 0.2259 0.80387 0.0
O268 O 0.82183 0.26896 0.85168 0.0
O269 O 0.81331 0.29922 0.81164 0.0
O270 O 0.81859 0.28075 0.74895 0.0
O271 O 0.80033 0.32198 0.75326 0.0
H272 H 0.67464 0.30837 0.77947 0.0
H273 H 0.64192 0.31329 0.81844 0.0
H274 H 0.73002 0.37637 0.90823 0.0
H275 H 0.7628 0.37055 0.86988 0.0
H276 H 0.88368 0.21534 0.80172 0.0
H277 H 0.91938 0.20767 0.76804 0.0
H278 H 0.842 0.19288 0.65834 0.0
H279 H 0.80653 0.20117 0.69161 0.0
C280 C 0.781 0.8302 0.87374 0.0
Eu281 Eu 0.78726 0.79935 0.81772 0.0
C282 C 0.76147 0.84968 0.87636 0.0
C283 C 0.77766 0.88146 0.89344 0.0
C284 C 0.75962 0.89984 0.89809 0.0
C285 C 0.72513 0.88668 0.88558 0.0
C286 C 0.70882 0.85524 0.86718 0.0
C287 C 0.72683 0.83683 0.86263 0.0
C288 C 0.82439 0.81952 0.77104 0.0
C289 C 0.73213 0.79389 0.7328 0.0
C290 C 0.7767 0.71439 0.68983 0.0
Eu291 Eu 0.76938 0.7442 0.74589 0.0
C292 C 0.79745 0.69614 0.68687 0.0
C293 C 0.78532 0.66315 0.68351 0.0
C294 C 0.80431 0.64586 0.67838 0.0
C295 C 0.83551 0.6613 0.67608 0.0
C296 C 0.84811 0.69425 0.6808 0.0
C297 C 0.82929 0.71153 0.68614 0.0
C298 C 0.73284 0.72272 0.79283 0.0
C299 C 0.82517 0.75016 0.83042 0.0
O300 O 0.76466 0.80008 0.86111 0.0
O301 O 0.80464 0.84193 0.85986 0.0
O302 O 0.8281 0.83656 0.80253 0.0
O303 O 0.80231 0.79318 0.76809 0.0
O304 O 0.7466 0.80688 0.76985 0.0
O305 O 0.73715 0.77031 0.71668 0.0
O306 O 0.79193 0.7447 0.70217 0.0
O307 O 0.75339 0.70185 0.70398 0.0
O308 O 0.731 0.70585 0.76225 0.0
O309 O 0.7537 0.74998 0.79569 0.0
O310 O 0.81196 0.73908 0.79279 0.0
O311 O 0.81849 0.77223 0.84728 0.0
H312 H 0.80431 0.8919 0.90387 0.0
H313 H 0.77259 0.92416 0.91209 0.0
H314 H 0.68221 0.84459 0.85769 0.0
H315 H 0.71359 0.81243 0.84906 0.0
H316 H 0.76089 0.65063 0.68398 0.0
H317 H 0.7941 0.6204 0.67465 0.0
H318 H 0.87234 0.70663 0.67962 0.0
H319 H 0.83951 0.73691 0.68888 0.0
Cd320 Cd 1.00537 0.97571 0.57766 0.0
Cd321 Cd 0.04742 0.06652 0.48689 0.0
C322 C 0.07496 0.96841 0.62028 0.0
N323 N 0.04603 0.95239 0.59115 0.0
C324 C 0.06267 0.90795 0.58712 0.0
C325 C 0.09241 0.92379 0.61798 0.0
C326 C 0.09869 0.95485 0.63353 0.0
C327 C 0.03972 0.92279 0.57407 0.0
H328 H 0.07939 0.99135 0.6347 0.0
H329 H 0.01629 0.91018 0.5515 0.0
C330 C 0.98677 0.99796 0.48268 0.0
C331 C 0.98525 0.08004 0.43231 0.0
C332 C 0.96223 0.09436 0.4179 0.0
C333 C 0.96186 0.11938 0.44131 0.0
C334 C 0.98486 0.12892 0.4793 0.0
C335 C 1.00751 0.11387 0.49256 0.0
N336 N 1.00731 0.08994 0.46899 0.0
H337 H 0.98605 0.06141 0.41383 0.0
H338 H 0.02561 0.12162 0.52143 0.0
C339 C 0.04985 1.00287 0.45106 0.0
N340 N 0.06659 0.02748 0.48061 0.0
C341 C 0.10835 0.00639 0.5072 0.0
C342 C 0.09181 0.98114 0.47662 0.0
C343 C 0.06186 0.97891 0.4489 0.0
C344 C 0.09509 0.02963 0.50861 0.0
H345 H 0.02764 1.00215 0.42876 0.0
H346 H 0.10784 0.04981 0.53144 0.0
C347 C 0.06615 0.04837 0.5877 0.0
C348 C 0.9623 0.93585 0.61587 0.0
N349 N 0.98389 0.01239 0.58618 0.0
C350 C 0.99858 0.03527 0.61779 0.0
C351 C 0.98672 0.05942 0.6197 0.0
C352 C 0.95912 0.05911 0.58933 0.0
C353 C 0.94373 0.03478 0.55769 0.0
C354 C 0.95681 0.0114 0.55664 0.0
C355 C 0.09228 0.10551 0.44993 0.0
O356 O 1.00452 0.99996 0.51744 0.0
O357 O 0.99582 0.01933 0.4629 0.0
O358 O 0.05397 0.04901 0.55182 0.0
O359 O 0.0531 0.02524 0.60297 0.0
O360 O 0.95323 0.93322 0.57899 0.0
O361 O 0.99088 0.95612 0.63449 0.0
O362 O 0.09753 0.11223 0.48599 0.0
O363 O 0.06686 0.08133 0.43169 0.0
H364 H 0.01954 0.03485 0.6413 0.0
H365 H 0.94541 0.99238 0.53241 0.0
H366 H 0.05645 0.88386 0.5744 0.0
H367 H 0.12139 0.96842 0.65672 0.0
H368 H 0.9456 0.08648 0.38825 0.0
H369 H 0.98545 0.14785 0.49864 0.0
H370 H 0.13196 0.00894 0.52832 0.0
H371 H 0.04896 0.95972 0.42466 0.0
H372 H 0.99814 0.0775 0.64513 0.0
H373 H 0.92165 0.03362 0.53465 0.0
Cd374 Cd 0.47035 1.00232 0.05022 0.0
Cd375 Cd 0.53444 0.07069 0.97548 0.0
C376 C 0.52696 0.98051 0.07339 0.0
N377 N 0.50222 0.97682 0.03985 0.0
C378 C 0.52724 0.95478 0.00405 0.0
C379 C 0.55394 0.96024 0.03796 0.0
C380 C 0.5535 0.97272 0.07312 0.0
C381 C 0.50151 0.96379 0.00559 0.0
H382 H 0.52633 0.9903 0.10024 0.0
H383 H 0.48174 0.96072 0.97944 0.0
C384 C 0.46583 0.01334 0.95166 0.0
C385 C 0.47925 0.09128 0.92398 0.0
C386 C 0.45494 0.104 0.91294 0.0
C387 C 0.45274 0.12509 0.94001 0.0
C388 C 0.47419 0.13125 0.97858 0.0
C389 C 0.49703 0.11631 0.98889 0.0
N390 N 0.49899 0.0969 0.96149 0.0
H391 H 0.48204 0.07645 0.90258 0.0
H392 H 0.5134 0.12039 0.01849 0.0
C393 C 0.54078 0.00775 0.9426 0.0
N394 N 0.55583 0.03204 0.97271 0.0
C395 C 0.60453 0.01968 0.99145 0.0
C396 C 0.59003 0.99515 0.95961 0.0
C397 C 0.55727 0.98856 0.93595 0.0
C398 C 0.58677 0.0379 0.99755 0.0
H399 H 0.51674 0.00412 0.92228 0.0
H400 H 0.59837 0.05804 0.02048 0.0
C401 C 0.53962 0.06161 0.07431 0.0
C402 C 0.43286 0.96035 0.09114 0.0
N403 N 0.4455 0.03758 0.03544 0.0
C404 C 0.45882 0.06339 0.06305 0.0
C405 C 0.44617 0.08712 0.05855 0.0
C406 C 0.41897 0.08383 0.02555 0.0
C407 C 0.40735 0.05804 0.99595 0.0
C408 C 0.42083 0.03467 0.00181 0.0
C409 C 0.58054 0.10974 0.94398 0.0
O410 O 0.47488 0.01903 0.9882 0.0
O411 O 0.48305 0.0313 0.93486 0.0
O412 O 0.52818 0.0574 0.03773 0.0
O413 O 0.52279 0.0441 0.09222 0.0
O414 O 0.42314 0.95577 0.05422 0.0
O415 O 0.45894 0.98416 0.10825 0.0
O416 O 0.58271 0.11756 0.97868 0.0
O417 O 0.55709 0.08465 0.92466 0.0
H418 H 0.47826 0.06483 0.0895 0.0
H419 H 0.41095 0.01395 0.98012 0.0
H420 H 0.52638 0.94377 0.97692 0.0
H421 H 0.57303 0.97561 0.10029 0.0
H422 H 0.43831 0.09739 0.88325 0.0
H423 H 0.47378 0.14763 0.0004 0.0
H424 H 0.6299 0.02603 0.01011 0.0
H425 H 0.54479 0.96949 0.91162 0.0
H426 H 0.45556 0.10614 0.08261 0.0
H427 H 0.38644 0.0548 0.97012 0.0
Cd428 Cd 1.01362 0.52704 0.14102 0.0
Cd429 Cd 0.02263 0.55893 0.0197 0.0
C430 C 0.0817 0.50133 0.17902 0.0
N431 N 0.05137 0.4915 0.15031 0.0
C432 C 0.06023 0.44214 0.13636 0.0
C433 C 0.09154 0.45129 0.1665 0.0
C434 C 0.10162 0.48215 0.18731 0.0
C435 C 0.04098 0.4621 0.12897 0.0
H436 H 0.09073 0.52425 0.19656 0.0
H437 H 0.01716 0.45342 0.10611 0.0
C438 C 0.96381 0.49571 0.03255 0.0
C439 C 0.9569 0.57281 0.97688 0.0
C440 C 0.93831 0.59119 0.96206 0.0
C441 C 0.9505 0.62359 0.9767 0.0
C442 C 0.98033 0.63616 0.00802 0.0
C443 C 0.99797 0.61677 0.02228 0.0
N444 N 0.98632 0.58592 0.00604 0.0
H445 H 0.94872 0.54851 0.96369 0.0
H446 H 0.02196 0.62678 0.04469 0.0
C447 C 0.03475 0.50527 0.97063 0.0
N448 N 0.04801 0.52397 0.00582 0.0
C449 C 0.09365 0.50613 0.02285 0.0
C450 C 0.08063 0.48653 0.98665 0.0
C451 C 0.05066 0.48639 0.96042 0.0
C452 C 0.07697 0.52474 0.03176 0.0
H453 H 1.01206 0.50547 0.9501 0.0
H454 H 0.08734 0.54004 0.0593 0.0
C455 C 0.06642 0.57426 0.11649 0.0
C456 C 0.99544 0.50081 0.20018 0.0
N457 N 0.9786 0.56386 0.14861 0.0
C458 C 0.99367 0.59372 0.16991 0.0
C459 C 0.97554 0.61226 0.17797 0.0
C460 C 0.94045 0.60108 0.16488 0.0
C461 C 0.92562 0.57027 0.1425 0.0
C462 C 0.94465 0.55252 0.13487 0.0
C463 C 0.05357 0.59808 0.97705 0.0
O464 O 0.97668 0.50156 0.06972 0.0
O465 O 0.97603 0.51342 0.01124 0.0
O466 O 0.03986 0.5631 0.08802 0.0
O467 O 0.06586 0.56769 0.1492 0.0
O468 O 0.98806 0.48536 0.16698 0.0
O469 O 1.01378 0.52967 0.20706 0.0
O470 O 0.06215 0.60471 0.01361 0.0
O471 O 0.02927 0.57282 0.95978 0.0
H472 H 0.02029 0.60346 0.18187 0.0
H473 H 0.93165 0.52901 0.11832 0.0
H474 H 0.04999 0.41936 0.11824 0.0
H475 H 0.12487 0.49192 0.21084 0.0
H476 H 0.91523 0.58036 0.93826 0.0
H477 H 0.9909 0.66103 0.01982 0.0
H478 H 0.11642 0.50703 0.04432 0.0
H479 H 0.03985 0.47237 0.93185 0.0
H480 H 0.98949 0.63523 0.19562 0.0
H481 H 0.89905 0.5595 0.13062 0.0
Cd482 Cd 0.51122 0.48255 0.08196 0.0
Cd483 Cd 0.54755 0.56821 0.98359 0.0
C484 C 0.57934 0.47361 0.12739 0.0
N485 N 0.55083 0.45843 0.09734 0.0
C486 C 0.56644 0.41348 0.09248 0.0
C487 C 0.59602 0.42855 0.12385 0.0
C488 C 0.60253 0.45941 0.14054 0.0
C489 C 0.54415 0.42898 0.07957 0.0
H490 H 0.58382 0.49648 0.14219 0.0
H491 H 0.52097 0.41707 0.0563 0.0
C492 C 0.49189 0.49398 0.98034 0.0
C493 C 0.48137 0.57904 0.93393 0.0
C494 C 0.45871 0.59408 0.92143 0.0
C495 C 0.4622 0.62142 0.94431 0.0
C496 C 0.48825 0.63232 0.98006 0.0
C497 C 0.51034 0.61649 0.99147 0.0
N498 N 0.50668 0.59055 0.96824 0.0
H499 H 0.4794 0.55874 0.91566 0.0
H500 H 0.53095 0.62538 0.0184 0.0
C501 C 0.55665 0.51308 0.94264 0.0
N502 N 0.57172 0.53358 0.97628 0.0
C503 C 0.6113 0.50926 0.99906 0.0
C504 C 0.59564 0.48742 0.96466 0.0
C505 C 0.56756 0.48907 0.93674 0.0
C506 C 0.59866 0.53245 0.00436 0.0
H507 H 0.53577 0.51519 0.92059 0.0
H508 H 0.61037 0.54964 0.03053 0.0
C509 C 0.56987 0.55017 0.07957 0.0
C510 C 0.46651 0.44241 0.1173 0.0
N511 N 0.4943 0.52261 0.09149 0.0
C512 C 0.50991 0.54729 0.1211 0.0
C513 C 0.49791 0.57171 0.12108 0.0
C514 C 0.4698 0.57023 0.09033 0.0
C515 C 0.45493 0.54478 0.05987 0.0
C516 C 0.46737 0.52088 0.06142 0.0
C517 C 0.59095 0.60807 0.94566 0.0
O518 O 0.50394 0.49851 0.01682 0.0
O519 O 0.50084 0.51568 0.96076 0.0
O520 O 0.55103 0.54757 0.04535 0.0
O521 O 0.56138 0.53028 0.10119 0.0
O522 O 0.45917 0.43923 0.08059 0.0
O523 O 0.49399 0.46371 0.1372 0.0
O524 O 0.59501 0.6163 0.98107 0.0
O525 O 0.56708 0.58248 0.92836 0.0
H526 H 0.53149 0.54797 0.14451 0.0
H527 H 0.45565 0.50087 0.03847 0.0
H528 H 0.55991 0.38956 0.07894 0.0
H529 H 0.62511 0.47244 0.16419 0.0
H530 H 0.43943 0.58504 0.89342 0.0
H531 H 0.49177 0.65307 0.99888 0.0
H532 H 0.63329 0.50886 0.02093 0.0
H533 H 0.55439 0.47224 0.91016 0.0
H534 H 0.5097 0.59083 0.14535 0.0
H535 H 0.4334 0.54298 0.03553 0.0
Cd536 Cd 0.02156 0.47032 0.58721 0.0
Cd537 Cd 0.0864 0.53899 0.51328 0.0
C538 C 0.07566 0.44761 0.6371 0.0
N539 N 0.05732 0.44515 0.59951 0.0
C540 C 0.08543 0.41649 0.5782 0.0
C541 C 0.10545 0.4196 0.61667 0.0
C542 C 0.10036 0.43516 0.64644 0.0
C543 C 0.06143 0.42995 0.57012 0.0
H544 H 0.07144 0.45979 0.6597 0.0
H545 H 0.04638 0.42871 0.54057 0.0
C546 C 0.01713 0.47876 0.48847 0.0
C547 C 0.03475 0.55832 0.53634 0.0
C548 C 0.01688 0.57667 0.54034 0.0
C549 C 0.03059 0.60905 0.54162 0.0
C550 C 0.06347 0.62303 0.54444 0.0
C551 C 0.08038 0.60368 0.53988 0.0
N552 N 0.06518 0.57194 0.53431 0.0
H553 H 0.02307 0.5332 0.53113 0.0
H554 H 0.10464 0.61388 0.53816 0.0
C555 C 0.10342 0.4798 0.51572 0.0
N556 N 0.11701 0.5095 0.53562 0.0
C557 C 0.16487 0.50058 0.57337 0.0
C558 C 0.15279 0.47092 0.5504 0.0
C559 C 0.12093 0.45984 0.5228 0.0
C560 C 0.14643 0.51992 0.56512 0.0
H561 H 0.07988 0.47237 0.4926 0.0
H562 H 0.15646 0.5437 0.58058 0.0
C563 C 0.08757 0.52857 0.61006 0.0
C564 C 0.97642 0.43048 0.61819 0.0
N565 N 1.00031 0.50879 0.59285 0.0
C566 C 1.01347 0.52984 0.62616 0.0
C567 C 0.99739 0.54941 0.63298 0.0
C568 C 0.96686 0.54636 0.60593 0.0
C569 C 0.95398 0.52479 0.57148 0.0
C570 C 0.97132 0.50606 0.56547 0.0
C571 C 0.12485 0.58001 0.47205 0.0
O572 O 0.02836 0.48263 0.52499 0.0
O573 O 0.03358 0.49733 0.471 0.0
O574 O 0.08019 0.52042 0.57407 0.0
O575 O 0.07174 0.51035 0.62794 0.0
O576 O 0.9704 0.42687 0.58172 0.0
O577 O 1.00355 0.45142 0.63924 0.0
O578 O 0.13263 0.58575 0.50861 0.0
O579 O 0.10015 0.55501 0.45481 0.0
H580 H 0.03531 0.53022 0.64861 0.0
H581 H 0.961 0.48831 0.5399 0.0
H582 H 0.08879 0.40438 0.55475 0.0
H583 H 0.11507 0.43736 0.67649 0.0
H584 H 0.99105 0.56538 0.53627 0.0
H585 H 0.07424 0.64808 0.54478 0.0
H586 H 0.18955 0.50979 0.59456 0.0
H587 H 0.11108 0.43736 0.50392 0.0
H588 H 1.00798 0.56574 0.65994 0.0
H589 H 0.9302 0.5215 0.55026 0.0
Cd590 Cd 0.54218 0.98995 0.5394 0.0
Cd591 Cd 0.54742 0.01861 0.41836 0.0
C592 C 0.60369 0.97205 0.58973 0.0
N593 N 0.57592 0.96066 0.55795 0.0
C594 C 0.58049 0.9099 0.55407 0.0
C595 C 0.60902 0.92082 0.58714 0.0
C596 C 0.62083 0.95248 0.60477 0.0
C597 C 0.56427 0.93034 0.5399 0.0
H598 H 0.61179 0.99597 0.60422 0.0
H599 H 0.54177 0.92176 0.51522 0.0
C600 C 0.49928 0.96883 0.44314 0.0
C601 C 0.47846 0.0433 0.38178 0.0
C602 C 0.45828 0.06226 0.37338 0.0
C603 C 0.46771 0.09275 0.39476 0.0
C604 C 0.4986 0.10171 0.42563 0.0
C605 C 0.51819 0.08204 0.43302 0.0
N606 N 0.50849 0.05304 0.41107 0.0
H607 H 0.47 0.02074 0.36364 0.0
H608 H 0.54179 0.09072 0.45625 0.0
C609 C 0.56359 0.94958 0.38537 0.0
N610 N 0.57898 0.97968 0.40616 0.0
C611 C 0.63166 0.9729 0.41198 0.0
C612 C 0.61657 0.942 0.39016 0.0
C613 C 0.58155 0.93068 0.37758 0.0
C614 C 0.61291 0.9908 0.41974 0.0
H615 H 0.53695 0.93984 0.37393 0.0
H616 H 0.62609 0.01424 0.43643 0.0
C617 C 0.59708 0.05411 0.52656 0.0
C618 C 0.50313 0.95771 0.57739 0.0
N619 N 0.51737 0.02606 0.55166 0.0
C620 C 0.53017 0.04452 0.58695 0.0
C621 C 0.51305 0.0618 0.59774 0.0
C622 C 0.48231 0.06038 0.57203 0.0
C623 C 0.46995 0.04133 0.53551 0.0
C624 C 0.48785 0.02427 0.526 0.0
C625 C 0.56755 0.05577 0.36811 0.0
O626 O 0.52584 0.98324 0.47081 0.0
O627 O 0.49805 0.97405 0.4095 0.0
O628 O 0.58354 0.04659 0.4895 0.0
O629 O 0.58715 0.03635 0.54912 0.0
O630 O 0.49569 0.95127 0.54102 0.0
O631 O 0.53158 0.97736 0.59738 0.0
O632 O 0.58656 0.05305 0.40012 0.0
O633 O 0.53752 0.03779 0.35627 0.0
H634 H 0.55312 0.04484 0.60742 0.0
H635 H 0.47769 0.00885 0.49852 0.0
H636 H 0.57066 0.88576 0.53948 0.0
H637 H 0.6424 0.96172 0.63074 0.0
H638 H 0.43541 0.05264 0.34927 0.0
H639 H 0.50833 0.1242 0.44425 0.0
H640 H 0.65827 0.9835 0.42339 0.0
H641 H 0.56772 0.90742 0.36056 0.0
H642 H 0.52346 0.0753 0.62658 0.0
H643 H 0.44661 0.03944 0.5144 0.0
H644 H 0.17033 0.178 0.27216 0.0
H645 H 0.15095 0.15751 0.48013 0.0
H646 H 0.2413 0.24158 0.37544 0.0
H647 H 0.08397 0.09767 0.37247 0.0
H648 H 0.18502 0.18835 0.4449 0.0
H649 H 0.13982 0.1491 0.31023 0.0
C650 C 0.17961 0.18618 0.30303 0.0
C651 C 0.20868 0.21274 0.32022 0.0
C652 C 0.16286 0.1685 0.42902 0.0
C653 C 0.17287 0.1787 0.36511 0.0
C654 C 0.14328 0.15079 0.44916 0.0
C655 C 0.11416 0.12478 0.4295 0.0
C656 C 0.1534 0.16038 0.38867 0.0
C657 C 0.10595 0.11738 0.38924 0.0
C658 C 0.16194 0.16936 0.32494 0.0
C659 C 0.21903 0.22153 0.36062 0.0
N660 N 0.12521 0.13495 0.37047 0.0
N661 N 0.20118 0.20461 0.38162 0.0
H662 H 0.87667 0.26154 0.37564 0.0
H663 H 0.89776 0.09432 0.39027 0.0
H664 H 0.79973 0.17398 0.31292 0.0
H665 H 0.97228 0.18249 0.45611 0.0
H666 H 0.86102 0.12243 0.36278 0.0
H667 H 0.9109 0.23235 0.4077 0.0
C668 C 0.86704 0.23607 0.36872 0.0
C669 C 0.83549 0.22005 0.34162 0.0
C670 C 0.88533 0.13557 0.38346 0.0
C671 C 0.8747 0.18642 0.37751 0.0
C672 C 0.90651 0.11956 0.39902 0.0
C673 C 0.93841 0.13594 0.42567 0.0
C674 C 0.89597 0.16828 0.39452 0.0
C675 C 0.94789 0.16863 0.43621 0.0
C676 C 0.88655 0.2194 0.38699 0.0
C677 C 0.82391 0.18709 0.3339 0.0
N678 N 0.92686 0.18364 0.42055 0.0
N679 N 0.84368 0.17133 0.35144 0.0
H680 H 0.89605 0.8468 0.3154 0.0
H681 H 0.96533 0.94555 0.51382 0.0
H682 H 0.82483 0.82462 0.37305 0.0
H683 H 0.94216 0.98666 0.41024 0.0
H684 H 0.92626 0.8942 0.47713 0.0
H685 H 0.9321 0.89103 0.36775 0.0
C686 C 0.88909 0.85009 0.34036 0.0
C687 C 0.8583 0.8319 0.34114 0.0
C688 C 0.92939 0.91478 0.46305 0.0
C689 C 0.89803 0.8818 0.39917 0.0
C690 C 0.95135 0.94399 0.48375 0.0
C691 C 0.95748 0.97005 0.4646 0.0
C692 C 0.91446 0.91214 0.42334 0.0
C693 C 0.93872 0.96691 0.42573 0.0
C694 C 0.90922 0.87532 0.36963 0.0
C695 C 0.8492 0.83749 0.37284 0.0
N696 N 0.91849 0.93802 0.40588 0.0
N697 N 0.86899 0.86257 0.40084 0.0
H698 H 0.19849 0.85778 0.45812 0.0
H699 H 0.10989 0.97835 0.41526 0.0
H700 H 0.13464 0.86115 0.34528 0.0
H701 H 0.11192 0.93905 0.51972 0.0
H702 H 0.13201 0.94115 0.3958 0.0
H703 H 0.17543 0.8904 0.48738 0.0
C704 C 0.17908 0.86461 0.43969 0.0
C705 C 0.16852 0.85692 0.39926 0.0
C706 C 0.12755 0.94053 0.42295 0.0
C707 C 0.14309 0.89404 0.43207 0.0
C708 C 0.11512 0.96172 0.43403 0.0
C709 C 0.10848 0.96085 0.46842 0.0
C710 C 0.13334 0.91832 0.44644 0.0
C711 C 0.11644 0.93973 0.49262 0.0
C712 C 0.16607 0.88307 0.45634 0.0
C713 C 0.1433 0.86612 0.37653 0.0
N714 N 0.1284 0.91877 0.48095 0.0
N715 N 0.13187 0.88465 0.39326 0.0
H716 H 0.21625 0.80928 0.66992 0.0
H717 H 0.12901 0.93114 0.6947 0.0
H718 H 0.21464 0.84575 0.7787 0.0
H719 H 0.1088 0.87912 0.58335 0.0
H720 H 0.16615 0.90467 0.72471 0.0
H721 H 0.18147 0.83813 0.63673 0.0
C722 C 0.20872 0.82361 0.68673 0.0
C723 C 0.21802 0.82523 0.72694 0.0
C724 C 0.1536 0.89896 0.6937 0.0
C725 C 0.17905 0.8585 0.68962 0.0
C726 C 0.13255 0.91441 0.6763 0.0
C727 C 0.11566 0.90766 0.63614 0.0
C728 C 0.15787 0.87621 0.6711 0.0
C729 C 0.12092 0.88495 0.61439 0.0
C730 C 0.18887 0.83993 0.66785 0.0
C731 C 0.20763 0.84378 0.74759 0.0
N732 N 0.14155 0.87002 0.63214 0.0
N733 N 0.18888 0.85986 0.72873 0.0
H734 H 0.21502 0.22939 0.67855 0.0
H735 H 0.09496 0.05559 0.66518 0.0
H736 H 0.18983 0.19007 0.77343 0.0
H737 H 0.10571 0.09755 0.56515 0.0
H738 H 0.14088 0.10061 0.70649 0.0
H739 H 0.18447 0.17762 0.63759 0.0
C740 C 0.20235 0.20981 0.69025 0.0
C741 C 0.20304 0.21361 0.72824 0.0
C742 C 0.13354 0.09978 0.67548 0.0
C743 C 0.17002 0.15504 0.68316 0.0
C744 C 0.10732 0.07412 0.65187 0.0
C745 C 0.09617 0.07341 0.61187 0.0
C746 C 0.14827 0.1249 0.65886 0.0
C747 C 0.11323 0.0977 0.59603 0.0
C748 C 0.18554 0.18039 0.66732 0.0
C749 C 0.18808 0.18785 0.74341 0.0
N750 N 0.13835 0.12291 0.61979 0.0
N751 N 0.17189 0.15943 0.72061 0.0
H752 H 0.90427 0.15268 0.73379 0.0
H753 H 0.97623 0.12069 0.58 0.0
H754 H 0.89665 0.20999 0.6438 0.0
H755 H 0.908 0.0466 0.61345 0.0
H756 H 0.95758 0.15922 0.60638 0.0
H757 H 0.92052 0.11951 0.69677 0.0
C758 C 0.90699 0.15883 0.70672 0.0
C759 C 0.89944 0.18419 0.69183 0.0
C760 C 0.94621 0.13439 0.60682 0.0
C761 C 0.91704 0.14591 0.64915 0.0
C762 C 0.95664 0.11264 0.59183 0.0
C763 C 0.94327 0.08088 0.59476 0.0
C764 C 0.92337 0.12389 0.62562 0.0
C765 C 0.91844 0.07104 0.61061 0.0
C766 C 0.91567 0.13961 0.6854 0.0
C767 C 0.90243 0.1906 0.65606 0.0
N768 N 0.90969 0.09267 0.6263 0.0
N769 N 0.9111 0.17141 0.63562 0.0
H770 H 0.88872 0.82801 0.78112 0.0
H771 H 0.89419 0.9124 0.59389 0.0
H772 H 0.80375 0.84029 0.70191 0.0
H773 H 0.9811 0.91583 0.68601 0.0
H774 H 0.86008 0.8827 0.62961 0.0
H775 H 0.92176 0.85518 0.74303 0.0
C776 C 0.87683 0.83587 0.75523 0.0
C777 C 0.84308 0.83095 0.74423 0.0
C778 C 0.88659 0.8897 0.64193 0.0
C779 C 0.88132 0.86348 0.70078 0.0
C780 C 0.90615 0.90662 0.62139 0.0
C781 C 0.94077 0.91665 0.63663 0.0
C782 C 0.90147 0.8819 0.67788 0.0
C783 C 0.95463 0.90875 0.67291 0.0
C784 C 0.89583 0.85175 0.73364 0.0
C785 C 0.82938 0.84263 0.71094 0.0
N786 N 0.9351 0.89181 0.69194 0.0
N787 N 0.84841 0.85827 0.69058 0.0
H788 H 0.27447 0.11357 0.10278 0.0
H789 H 0.4374 0.1462 0.0542 0.0
H790 H 0.37049 0.17652 0.17835 0.0
H791 H 0.35245 0.06042 0.00619 0.0
H792 H 0.40805 0.16452 0.08966 0.0
H793 H 0.3001 0.09635 0.06206 0.0
C794 C 0.30106 0.12315 0.11156 0.0
C795 C 0.32035 0.14716 0.14353 0.0
C796 C 0.39573 0.14196 0.0707 0.0
C797 C 0.34937 0.12867 0.09582 0.0
C798 C 0.41213 0.13181 0.04993 0.0
C799 C 0.39781 0.10128 0.02858 0.0
C800 C 0.36469 0.12165 0.06903 0.0
C801 C 0.36475 0.08389 0.02294 0.0
C802 C 0.31556 0.11371 0.08777 0.0
C803 C 0.35467 0.15871 0.1532 0.0
N804 N 0.3495 0.094 0.044 0.0
N805 N 0.36815 0.14979 0.12886 0.0
H806 H 0.85576 0.35837 0.08889 0.0
H807 H 0.95411 0.52576 0.21831 0.0
H808 H 0.80326 0.41615 0.10753 0.0
H809 H 0.98247 0.44517 0.23015 0.0
H810 H 0.89965 0.49245 0.17315 0.0
H811 H 0.90762 0.40095 0.12366 0.0
C812 C 0.85492 0.38068 0.09901 0.0
C813 C 0.82633 0.38226 0.10419 0.0
C814 C 0.91769 0.48193 0.18594 0.0
C815 C 0.88395 0.43132 0.13957 0.0
C816 C 0.94833 0.50056 0.21295 0.0
C817 C 0.97375 0.4884 0.22187 0.0
C818 C 0.91259 0.45064 0.17298 0.0
C819 C 0.9641 0.45572 0.21922 0.0
C820 C 0.88472 0.40464 0.11985 0.0
C821 C 0.82606 0.41289 0.10964 0.0
N822 N 0.93486 0.43776 0.19202 0.0
N823 N 0.85491 0.4362 0.13108 0.0
H824 H 0.70793 0.92113 0.1843 0.0
H825 H 0.54567 0.90121 0.01058 0.0
H826 H 0.63944 0.83186 0.11475 0.0
H827 H 0.61984 0.99121 0.07027 0.0
H828 H 0.58292 0.87543 0.04284 0.0
H829 H 0.67497 0.94755 0.14306 0.0
C830 C 0.68549 0.90717 0.16091 0.0
C831 C 0.67646 0.87456 0.15226 0.0
C832 C 0.59148 0.90089 0.04813 0.0
C833 C 0.63993 0.90415 0.10455 0.0
C834 C 0.5705 0.91561 0.02901 0.0
C835 C 0.57968 0.94808 0.03911 0.0
C836 C 0.62138 0.91911 0.07709 0.0
C837 C 0.61193 0.96589 0.06291 0.0
C838 C 0.66713 0.92215 0.13701 0.0
C839 C 0.64714 0.85715 0.12219 0.0
N840 N 0.63153 0.95102 0.08227 0.0
N841 N 0.63008 0.87229 0.09888 0.0
H842 H 0.21118 0.69374 0.24393 0.0
H843 H 0.08013 0.62676 0.08361 0.0
H844 H 0.22478 0.73853 0.14715 0.0
H845 H 0.12329 0.56315 0.14116 0.0
H846 H 0.13511 0.66392 0.09269 0.0
H847 H 0.18468 0.64311 0.20223 0.0
C848 C 0.20924 0.69268 0.21393 0.0
C849 C 0.21969 0.71998 0.19862 0.0
C850 C 0.1326 0.64114 0.10153 0.0
C851 C 0.18787 0.66242 0.15017 0.0
C852 C 0.10118 0.61998 0.09629 0.0
C853 C 0.09757 0.59235 0.11214 0.0
C854 C 0.16007 0.63523 0.12504 0.0
C855 C 0.12548 0.58488 0.12962 0.0
C856 C 0.19442 0.66375 0.19008 0.0
C857 C 0.21637 0.71764 0.15949 0.0
N858 N 0.15582 0.60667 0.13663 0.0
N859 N 0.19937 0.68925 0.13595 0.0
H860 H 0.33579 0.85271 0.80048 0.0
H861 H 0.42333 0.96926 0.97672 0.0
H862 H 0.36039 0.82068 0.91042 0.0
H863 H 0.4568 0.98729 0.87969 0.0
H864 H 0.39911 0.91357 0.95025 0.0
H865 H 0.3853 0.89875 0.82552 0.0
C866 C 0.35238 0.85482 0.82952 0.0
C867 C 0.34397 0.83357 0.85392 0.0
C868 C 0.41216 0.92982 0.93514 0.0
C869 C 0.39885 0.88695 0.88327 0.0
C870 C 0.42464 0.96168 0.94926 0.0
C871 C 0.44232 0.98276 0.93054 0.0
C872 C 0.41641 0.91943 0.90151 0.0
C873 C 0.44381 0.97164 0.89536 0.0
C874 C 0.38065 0.88114 0.84382 0.0
C875 C 0.3658 0.83744 0.89141 0.0
N876 N 0.43109 0.94047 0.88193 0.0
N877 N 0.39205 0.86459 0.90568 0.0
H878 H 0.22791 0.41277 0.96247 0.0
H879 H 0.05397 0.4276 0.94175 0.0
H880 H 0.13568 0.35049 0.87884 0.0
H881 H 0.14771 0.49973 0.0074 0.0
H882 H 0.083 0.39657 0.92296 0.0
H883 H 0.19848 0.44204 0.9837 0.0
C884 C 0.2015 0.40528 0.94827 0.0
C885 C 0.18448 0.37918 0.9183 0.0
C886 C 0.0972 0.41918 0.94152 0.0
C887 C 0.15033 0.41259 0.94332 0.0
C888 C 0.08062 0.43711 0.95213 0.0
C889 C 0.09821 0.46669 0.97608 0.0
C890 C 0.13179 0.43062 0.95501 0.0
C891 C 0.13286 0.47706 0.98928 0.0
C892 C 0.18466 0.42199 0.96069 0.0
C893 C 0.15001 0.37026 0.90212 0.0
N894 N 0.1484 0.45914 0.97856 0.0
N895 N 0.13417 0.38693 0.91473 0.0
H896 H 0.70913 0.25886 0.8658 0.0
H897 H 0.59784 0.08866 0.88619 0.0
H898 H 0.71988 0.17363 0.82634 0.0
H899 H 0.61706 0.17311 0.9615 0.0
H900 H 0.63708 0.11943 0.85733 0.0
H901 H 0.66991 0.22785 0.89439 0.0
C902 C 0.70341 0.23367 0.86329 0.0
C903 C 0.71812 0.21894 0.84388 0.0
C904 C 0.63273 0.13122 0.88018 0.0
C905 C 0.67281 0.18322 0.87619 0.0
C906 C 0.61027 0.11372 0.8966 0.0
C907 C 0.60434 0.12835 0.92652 0.0
C908 C 0.6489 0.16377 0.89315 0.0
C909 C 0.62117 0.16086 0.93884 0.0
C910 C 0.68102 0.21599 0.87966 0.0
C911 C 0.70945 0.18611 0.84134 0.0
N912 N 0.64248 0.17751 0.92192 0.0
N913 N 0.68727 0.16936 0.85709 0.0
H914 H 0.85812 0.76292 0.90979 0.0
H915 H 0.92199 0.62003 0.89927 0.0
H916 H 0.84162 0.70279 0.80582 0.0
H917 H 0.94176 0.67517 0.00829 0.0
H918 H 0.89378 0.65259 0.86589 0.0
H919 H 0.89069 0.73402 0.94771 0.0
C920 C 0.86149 0.74391 0.89491 0.0
C921 C 0.84705 0.73533 0.85446 0.0
C922 C 0.90415 0.65774 0.89715 0.0
C923 C 0.88381 0.70225 0.8975 0.0
C924 C 0.92007 0.63882 0.91634 0.0
C925 C 0.93368 0.64431 0.95678 0.0
C926 C 0.90177 0.68274 0.91825 0.0
C927 C 0.93144 0.66996 0.97706 0.0
C928 C 0.87997 0.72742 0.91657 0.0
C929 C 0.85217 0.71047 0.83679 0.0
N930 N 0.91558 0.68821 0.95757 0.0
N931 N 0.8699 0.69489 0.85838 0.0
H932 H 0.24582 0.37078 0.28215 0.0
H933 H 0.07813 0.38717 0.13562 0.0
H934 H 0.17641 0.29662 0.18864 0.0
H935 H 0.15598 0.46342 0.22115 0.0
H936 H 0.1115 0.35397 0.15364 0.0
H937 H 0.21244 0.40363 0.26028 0.0
C938 C 0.22352 0.36103 0.25709 0.0
C939 C 0.21465 0.33007 0.23787 0.0
C940 C 0.12133 0.37799 0.16858 0.0
C941 C 0.17461 0.36891 0.21197 0.0
C942 C 0.10197 0.39755 0.15816 0.0
C943 C 0.11285 0.4294 0.17657 0.0
C944 C 0.15266 0.38939 0.19828 0.0
C945 C 0.14488 0.43964 0.2056 0.0
C946 C 0.2042 0.38015 0.2444 0.0
C947 C 0.185 0.31995 0.20506 0.0
N948 N 0.16288 0.42015 0.21525 0.0
N949 N 0.16641 0.33884 0.19364 0.0
H950 H 0.24947 0.6921 0.00857 0.0
H951 H 0.06439 0.57367 0.91596 0.0
H952 H 0.21976 0.61308 0.9215 0.0
H953 H 0.09633 0.65858 0.99718 0.0
H954 H 0.11991 0.58842 0.91356 0.0
H955 H 0.19436 0.67481 0.01182 0.0
C956 C 0.23112 0.67092 0.98955 0.0
C957 C 0.23527 0.65853 0.95668 0.0
C958 C 0.11462 0.60404 0.93148 0.0
C959 C 0.17454 0.63623 0.96348 0.0
C960 C 0.08275 0.5961 0.93202 0.0
C961 C 0.07662 0.61425 0.95842 0.0
C962 C 0.13972 0.63029 0.95722 0.0
C963 C 0.10076 0.64341 0.97769 0.0
C964 C 0.19949 0.6614 0.99116 0.0
C965 C 0.2144 0.62712 0.94123 0.0
N966 N 0.13178 0.65015 0.97772 0.0
N967 N 0.18317 0.61798 0.94158 0.0
H968 H 0.34093 0.24808 0.90655 0.0
H969 H 0.43125 0.14186 0.86909 0.0
H970 H 0.304 0.18158 0.80112 0.0
H971 H 0.42094 0.14679 0.98149 0.0
H972 H 0.38955 0.16447 0.8463 0.0
H973 H 0.3737 0.21713 0.93884 0.0
C974 C 0.33904 0.22656 0.89066 0.0
C975 C 0.32064 0.21756 0.85109 0.0
C976 C 0.39623 0.16028 0.87592 0.0
C977 C 0.3575 0.18307 0.88702 0.0
C978 C 0.41991 0.14707 0.88901 0.0
C979 C 0.42891 0.14114 0.92711 0.0
C980 C 0.38209 0.16873 0.90128 0.0
C981 C 0.41457 0.15058 0.95191 0.0
C982 C 0.35761 0.20908 0.90896 0.0
C983 C 0.31868 0.18963 0.83147 0.0
N984 N 0.39181 0.16418 0.93861 0.0
N985 N 0.33747 0.17364 0.84949 0.0
H986 H 0.85357 0.3006 0.92525 0.0
H987 H 0.91504 0.48887 0.96497 0.0
H988 H 0.83546 0.35881 0.8383 0.0
H989 H 0.95011 0.4361 0.0514 0.0
H990 H 0.87782 0.43986 0.92197 0.0
H991 H 0.88308 0.3484 0.97467 0.0
C992 C 0.85552 0.32336 0.91663 0.0
C993 C 0.84166 0.32572 0.8777 0.0
C994 C 0.89323 0.4388 0.9505 0.0
C995 C 0.87494 0.3802 0.93385 0.0
C996 C 0.91431 0.46684 0.97525 0.0
C997 C 0.93575 0.46652 0.01181 0.0
C998 C 0.89365 0.40999 0.96207 0.0
C999 C 0.93378 0.43732 0.02357 0.0
C1000 C 0.87229 0.35057 0.9448 0.0
C1001 C 0.84519 0.35577 0.86802 0.0
N1002 N 0.9134 0.41011 0.9985 0.0
N1003 N 0.86135 0.38171 0.89583 0.0
H1004 H 0.67099 0.89522 0.83674 0.0
H1005 H 0.63982 0.97923 0.00778 0.0
H1006 H 0.73624 0.91814 0.95549 0.0
H1007 H 0.58617 0.97399 0.88693 0.0
H1008 H 0.67326 0.95385 0.98924 0.0
H1009 H 0.63757 0.92179 0.8545 0.0
C1010 C 0.67828 0.90605 0.86647 0.0
C1011 C 0.7063 0.90472 0.89475 0.0
C1012 C 0.65404 0.95814 0.96681 0.0
C1013 C 0.66831 0.9345 0.91533 0.0
C1014 C 0.63481 0.97257 0.9774 0.0
C1015 C 0.60968 0.97839 0.94902 0.0
C1016 C 0.64817 0.94951 0.92752 0.0
C1017 C 0.6046 0.96928 0.90998 0.0
C1018 C 0.65932 0.92115 0.8766 0.0
C1019 C 0.71496 0.91906 0.93285 0.0
N1020 N 0.62368 0.95527 0.90039 0.0
N1021 N 0.69586 0.9332 0.94212 0.0
H1022 H 0.79695 0.6659 0.23938 0.0
H1023 H 0.95798 0.66722 0.18606 0.0
H1024 H 0.86585 0.75067 0.22479 0.0
H1025 H 0.8749 0.58176 0.16718 0.0
H1026 H 0.92705 0.69721 0.20365 0.0
H1027 H 0.82555 0.63522 0.21677 0.0
C1028 C 0.8182 0.6784 0.23182 0.0
C1029 C 0.82844 0.71169 0.23477 0.0
C1030 C 0.91538 0.67188 0.19573 0.0
C1031 C 0.86312 0.67545 0.20887 0.0
C1032 C 0.93341 0.65424 0.18565 0.0
C1033 C 0.9202 0.62083 0.17496 0.0
C1034 C 0.8831 0.65685 0.19624 0.0
C1035 C 0.88727 0.607 0.1749 0.0
C1036 C 0.83474 0.66055 0.21862 0.0
C1037 C 0.85635 0.72541 0.22347 0.0
N1038 N 0.87057 0.62462 0.18548 0.0
N1039 N 0.8725 0.7077 0.21187 0.0
H1040 H 0.29017 0.82238 0.16985 0.0
H1041 H 0.45476 0.95878 0.16894 0.0
H1042 H 0.37956 0.85903 0.26869 0.0
H1043 H 0.37092 0.91296 0.0654 0.0
H1044 H 0.42661 0.92439 0.20614 0.0
H1045 H 0.31776 0.85714 0.13191 0.0
C1046 C 0.31564 0.83782 0.18355 0.0
C1047 C 0.33262 0.83777 0.22246 0.0
C1048 C 0.41425 0.9218 0.17531 0.0
C1049 C 0.36457 0.87778 0.17915 0.0
C1050 C 0.43034 0.94156 0.15392 0.0
C1051 C 0.41532 0.93902 0.11375 0.0
C1052 C 0.38249 0.8992 0.15678 0.0
C1053 C 0.38363 0.91591 0.09619 0.0
C1054 C 0.33143 0.85764 0.16187 0.0
C1055 C 0.36557 0.85829 0.23879 0.0
N1056 N 0.36831 0.89711 0.11774 0.0
N1057 N 0.38039 0.8774 0.21716 0.0
H1058 H 0.70475 0.23436 0.16224 0.0
H1059 H 0.58141 0.06306 0.14598 0.0
H1060 H 0.73605 0.16718 0.22709 0.0
H1061 H 0.5717 0.11359 0.04951 0.0
H1062 H 0.63624 0.10282 0.1797 0.0
H1063 H 0.6538 0.19178 0.1226 0.0
C1064 C 0.70089 0.21044 0.16761 0.0
C1065 C 0.72424 0.20381 0.19743 0.0
C1066 C 0.62212 0.10501 0.15104 0.0
C1067 C 0.66621 0.15564 0.15359 0.0
C1068 C 0.59084 0.0826 0.13204 0.0
C1069 C 0.57219 0.08533 0.09516 0.0
C1070 C 0.63432 0.13045 0.1332 0.0
C1071 C 0.58547 0.11076 0.07798 0.0
C1072 C 0.672 0.18627 0.14513 0.0
C1073 C 0.71848 0.17279 0.20385 0.0
N1074 N 0.61571 0.13261 0.09736 0.0
N1075 N 0.6896 0.14971 0.18239 0.0
H1076 H 0.71008 0.7512 0.84225 0.0
H1077 H 0.61227 0.58478 0.89319 0.0
H1078 H 0.71291 0.66193 0.80363 0.0
H1079 H 0.62086 0.673 0.95102 0.0
H1080 H 0.64786 0.61355 0.85905 0.0
H1081 H 0.67678 0.72466 0.88086 0.0
C1082 C 0.70443 0.72627 0.84248 0.0
C1083 C 0.71497 0.70904 0.81987 0.0
C1084 C 0.64203 0.62682 0.87909 0.0
C1085 C 0.67597 0.6781 0.86358 0.0
C1086 C 0.62153 0.61028 0.89865 0.0
C1087 C 0.61342 0.6263 0.92533 0.0
C1088 C 0.65434 0.66002 0.8852 0.0
C1089 C 0.62659 0.65951 0.93113 0.0
C1090 C 0.68506 0.71097 0.8643 0.0
C1091 C 0.70558 0.6764 0.82048 0.0
N1092 N 0.64603 0.67517 0.91111 0.0
N1093 N 0.68686 0.66223 0.84166 0.0
H1094 H 0.29369 0.67574 0.83637 0.0
H1095 H 0.47756 0.68556 0.95185 0.0
H1096 H 0.37961 0.75915 0.85699 0.0
H1097 H 0.39546 0.59773 0.90383 0.0
H1098 H 0.44083 0.71393 0.92533 0.0
H1099 H 0.32961 0.64777 0.86837 0.0
C1100 C 0.3201 0.68819 0.84794 0.0
C1101 C 0.33377 0.71965 0.84379 0.0
C1102 C 0.43087 0.68845 0.92065 0.0
C1103 C 0.37492 0.68807 0.8808 0.0
C1104 C 0.45177 0.67218 0.9361 0.0
C1105 C 0.43971 0.63909 0.93005 0.0
C1106 C 0.39752 0.6716 0.89912 0.0
C1107 C 0.40605 0.62318 0.90883 0.0
C1108 C 0.34058 0.67223 0.86605 0.0
C1109 C 0.36814 0.73473 0.85915 0.0
N1110 N 0.3862 0.63955 0.89415 0.0
N1111 N 0.38753 0.71885 0.87709 0.0
H1112 H 0.39336 0.32751 0.81525 0.0
H1113 H 0.44143 0.45393 0.99806 0.0
H1114 H 0.32579 0.36583 0.83962 0.0
H1115 H 0.49659 0.46246 0.92087 0.0
H1116 H 0.40403 0.40185 0.96071 0.0
H1117 H 0.43656 0.35946 0.87532 0.0
C1118 C 0.38802 0.34315 0.83312 0.0
C1119 C 0.35686 0.34527 0.82278 0.0
C1120 C 0.42502 0.41499 0.95298 0.0
C1121 C 0.40427 0.3792 0.89124 0.0
C1122 C 0.44579 0.44463 0.97358 0.0
C1123 C 0.47071 0.46264 0.96081 0.0
C1124 C 0.43039 0.40367 0.92068 0.0
C1125 C 0.47664 0.44957 0.93024 0.0
C1126 C 0.41202 0.36028 0.86759 0.0
C1127 C 0.34992 0.36418 0.84711 0.0
N1128 N 0.45629 0.42072 0.9108 0.0
N1129 N 0.37374 0.38086 0.88047 0.0
H1130 H 0.62786 0.35707 0.8297 0.0
H1131 H 0.62145 0.45009 0.01199 0.0
H1132 H 0.69346 0.35891 0.94386 0.0
H1133 H 0.60177 0.47299 0.89663 0.0
H1134 H 0.63866 0.40801 0.99135 0.0
H1135 H 0.60331 0.38679 0.85811 0.0
C1136 C 0.63645 0.36275 0.86091 0.0
C1137 C 0.66311 0.35579 0.88441 0.0
C1138 C 0.63025 0.42227 0.97081 0.0
C1139 C 0.63606 0.39141 0.9169 0.0
C1140 C 0.62079 0.44629 0.98253 0.0
C1141 C 0.60932 0.46429 0.95556 0.0
C1142 C 0.6275 0.41641 0.93203 0.0
C1143 C 0.60923 0.45887 0.91794 0.0
C1144 C 0.62272 0.38023 0.87708 0.0
C1145 C 0.67344 0.3645 0.92471 0.0
N1146 N 0.61777 0.43521 0.90723 0.0
N1147 N 0.66029 0.38258 0.93984 0.0
H1148 H 0.70903 0.30417 0.1659 0.0
H1149 H 0.63426 0.4349 0.19994 0.0
H1150 H 0.72892 0.35518 0.27725 0.0
H1151 H 0.61049 0.38362 0.08684 0.0
H1152 H 0.67163 0.40802 0.22738 0.0
H1153 H 0.67508 0.33453 0.13526 0.0
C1154 C 0.7065 0.32211 0.18371 0.0
C1155 C 0.72172 0.32754 0.22394 0.0
C1156 C 0.6583 0.4026 0.19654 0.0
C1157 C 0.6831 0.36199 0.18956 0.0
C1158 C 0.63705 0.41827 0.1806 0.0
C1159 C 0.61912 0.41192 0.14069 0.0
C1160 C 0.6616 0.37991 0.17273 0.0
C1161 C 0.62338 0.38919 0.11775 0.0
C1162 C 0.6871 0.33929 0.16634 0.0
C1163 C 0.71755 0.35055 0.24607 0.0
N1164 N 0.64409 0.37397 0.1341 0.0
N1165 N 0.69863 0.36694 0.2286 0.0
H1166 H 0.70112 0.73831 0.18002 0.0
H1167 H 0.62258 0.55677 0.1427 0.0
H1168 H 0.67674 0.68143 0.26371 0.0
H1169 H 0.58456 0.6054 0.05226 0.0
H1170 H 0.65842 0.60739 0.18297 0.0
H1171 H 0.6642 0.69431 0.12826 0.0
C1172 C 0.68676 0.71718 0.1873 0.0
C1173 C 0.69273 0.7126 0.22567 0.0
C1174 C 0.64246 0.60681 0.15402 0.0
C1175 C 0.65243 0.66291 0.1682 0.0
C1176 C 0.62252 0.57815 0.13103 0.0
C1177 C 0.59965 0.57745 0.09543 0.0
C1178 C 0.63896 0.63424 0.14085 0.0
C1179 C 0.60125 0.60542 0.08047 0.0
C1180 C 0.66623 0.69199 0.15794 0.0
C1181 C 0.67331 0.6851 0.23411 0.0
N1182 N 0.62006 0.63325 0.104 0.0
N1183 N 0.6546 0.66055 0.20539 0.0
H1184 H 0.33119 0.63645 0.13306 0.0
H1185 H 0.49745 0.63442 0.11307 0.0
H1186 H 0.42099 0.71816 0.17232 0.0
H1187 H 0.40441 0.55637 0.07295 0.0
H1188 H 0.4689 0.66894 0.12501 0.0
H1189 H 0.35617 0.6104 0.10005 0.0
C1190 C 0.3559 0.64931 0.13367 0.0
C1191 C 0.37406 0.67951 0.15526 0.0
C1192 C 0.45477 0.64437 0.11286 0.0
C1193 C 0.40338 0.64939 0.11855 0.0
C1194 C 0.47103 0.62473 0.10629 0.0
C1195 C 0.45325 0.59258 0.09235 0.0
C1196 C 0.42073 0.63146 0.10557 0.0
C1197 C 0.41906 0.58109 0.08337 0.0
C1198 C 0.37034 0.6343 0.11509 0.0
C1199 C 0.40635 0.69471 0.15611 0.0
N1200 N 0.40401 0.60048 0.09054 0.0
N1201 N 0.42025 0.67926 0.13837 0.0
H1202 H 0.31953 0.3619 0.22655 0.0
H1203 H 0.47821 0.39796 0.16132 0.0
H1204 H 0.37738 0.30274 0.24212 0.0
H1205 H 0.4058 0.44055 0.11813 0.0
H1206 H 0.4433 0.36505 0.19395 0.0
H1207 H 0.3516 0.39256 0.18951 0.0
C1208 C 0.33834 0.35475 0.22113 0.0
C1209 C 0.34487 0.32888 0.23626 0.0
C1210 C 0.43488 0.38147 0.17726 0.0
C1211 C 0.38296 0.36492 0.19509 0.0
C1212 C 0.45488 0.40032 0.15861 0.0
C1213 C 0.44479 0.42179 0.13645 0.0
C1214 C 0.40464 0.38443 0.17466 0.0
C1215 C 0.41437 0.42398 0.13436 0.0
C1216 C 0.35692 0.3725 0.20029 0.0
C1217 C 0.37071 0.32177 0.22994 0.0
N1218 N 0.39558 0.4058 0.15333 0.0
N1219 N 0.38877 0.33965 0.21009 0.0
H1220 H 0.85028 0.61297 0.70911 0.0
H1221 H 0.93295 0.57811 0.55962 0.0
H1222 H 0.86211 0.66841 0.61952 0.0
H1223 H 0.95567 0.55257 0.67348 0.0
H1224 H 0.89962 0.60539 0.57623 0.0
H1225 H 0.88183 0.58394 0.69128 0.0
C1226 C 0.85949 0.61891 0.68568 0.0
C1227 C 0.85402 0.6432 0.66593 0.0
C1228 C 0.91205 0.59389 0.59756 0.0
C1229 C 0.88951 0.61028 0.64534 0.0
C1230 C 0.93094 0.57835 0.58809 0.0
C1231 C 0.94727 0.56349 0.6154 0.0
C1232 C 0.90909 0.59395 0.63429 0.0
C1233 C 0.94386 0.56425 0.65186 0.0
C1234 C 0.87752 0.60253 0.67566 0.0
C1235 C 0.86631 0.65011 0.63576 0.0
N1236 N 0.92499 0.57916 0.66024 0.0
N1237 N 0.88344 0.63364 0.62628 0.0
H1238 H 0.31086 0.88519 0.57226 0.0
H1239 H 0.50273 0.94005 0.64754 0.0
H1240 H 0.36809 0.88309 0.68912 0.0
H1241 H 0.44487 0.96166 0.54272 0.0
H1242 H 0.45486 0.92654 0.66899 0.0
H1243 H 0.36054 0.92275 0.566 0.0
C1244 C 0.33364 0.89352 0.59681 0.0
C1245 C 0.33565 0.88142 0.631 0.0
C1246 C 0.45295 0.93478 0.64159 0.0
C1247 C 0.39234 0.92244 0.62393 0.0
C1248 C 0.47999 0.94201 0.62935 0.0
C1249 C 0.4767 0.95034 0.59276 0.0
C1250 C 0.42323 0.93649 0.61696 0.0
C1251 C 0.44754 0.95378 0.57041 0.0
C1252 C 0.36201 0.91473 0.59343 0.0
C1253 C 0.36569 0.89233 0.66227 0.0
N1254 N 0.42177 0.94656 0.58274 0.0
N1255 N 0.39316 0.9117 0.65767 0.0
H1256 H 0.26647 0.37388 0.7497 0.0
H1257 H 0.09921 0.36044 0.59093 0.0
H1258 H 0.20711 0.29217 0.66132 0.0
H1259 H 0.16913 0.44762 0.66407 0.0
H1260 H 0.14045 0.33606 0.61235 0.0
H1261 H 0.23366 0.40288 0.71477 0.0
C1262 C 0.24676 0.3623 0.72252 0.0
C1263 C 0.23906 0.33073 0.70828 0.0
C1264 C 0.147 0.36068 0.62317 0.0
C1265 C 0.20135 0.36331 0.6686 0.0
C1266 C 0.12353 0.37453 0.61094 0.0
C1267 C 0.13098 0.40584 0.62609 0.0
C1268 C 0.17787 0.37838 0.65079 0.0
C1269 C 0.16251 0.4232 0.65226 0.0
C1270 C 0.22812 0.3788 0.70256 0.0
C1271 C 0.21367 0.31662 0.67297 0.0
N1272 N 0.18482 0.40909 0.66413 0.0
N1273 N 0.1952 0.33294 0.6545 0.0
H1274 H 0.72586 0.18728 0.72598 0.0
H1275 H 0.6028 0.11384 0.51064 0.0
H1276 H 0.70326 0.24658 0.64199 0.0
H1277 H 0.65103 0.06295 0.58874 0.0
H1278 H 0.63906 0.16314 0.55598 0.0
H1279 H 0.69707 0.1415 0.67499 0.0
C1280 C 0.71512 0.19072 0.69666 0.0
C1281 C 0.71747 0.22088 0.68814 0.0
C1282 C 0.64218 0.14124 0.56266 0.0
C1283 C 0.6836 0.16819 0.62932 0.0
C1284 C 0.62181 0.11322 0.53654 0.0
C1285 C 0.6241 0.08438 0.54587 0.0
C1286 C 0.66465 0.14014 0.59825 0.0
C1287 C 0.64852 0.08473 0.58039 0.0
C1288 C 0.69858 0.1645 0.66746 0.0
C1289 C 0.70227 0.22374 0.64971 0.0
N1290 N 0.66747 0.11199 0.60542 0.0
N1291 N 0.68578 0.19769 0.62169 0.0
H1292 H 0.85157 0.30781 0.39626 0.0
H1293 H 0.97365 0.47961 0.41896 0.0
H1294 H 0.81722 0.37813 0.34284 0.0
H1295 H 0.98629 0.42551 0.51177 0.0
H1296 H 0.91782 0.44102 0.38668 0.0
H1297 H 0.90278 0.34941 0.43696 0.0
C1298 C 0.85481 0.33218 0.39365 0.0
C1299 C 0.83064 0.33995 0.36645 0.0
C1300 C 0.93285 0.43782 0.41425 0.0
C1301 C 0.88893 0.38709 0.41155 0.0
C1302 C 0.96468 0.45951 0.43233 0.0
C1303 C 0.98438 0.45544 0.46777 0.0
C1304 C 0.92122 0.41174 0.43147 0.0
C1305 C 0.9717 0.42934 0.48435 0.0
C1306 C 0.88385 0.35578 0.41677 0.0
C1307 C 0.83554 0.37156 0.3638 0.0
N1308 N 0.94093 0.40819 0.46581 0.0
N1309 N 0.86463 0.39418 0.38568 0.0
H1310 H 0.7152 0.80206 0.36266 0.0
H1311 H 0.67277 0.96203 0.36798 0.0
H1312 H 0.73457 0.86683 0.2846 0.0
H1313 H 0.60845 0.87692 0.38846 0.0
H1314 H 0.70331 0.93178 0.34941 0.0
H1315 H 0.68479 0.83171 0.38326 0.0
C1316 C 0.71343 0.82254 0.34973 0.0
C1317 C 0.72807 0.83113 0.32111 0.0
C1318 C 0.68257 0.91951 0.35798 0.0
C1319 C 0.69267 0.86689 0.34622 0.0
C1320 C 0.66486 0.93704 0.36893 0.0
C1321 C 0.63692 0.92275 0.3798 0.0
C1322 C 0.67378 0.88674 0.35861 0.0
C1323 C 0.62907 0.88974 0.38001 0.0
C1324 C 0.69567 0.83964 0.36165 0.0
C1325 C 0.72409 0.85845 0.30635 0.0
N1326 N 0.6472 0.87341 0.37019 0.0
N1327 N 0.70755 0.87505 0.31913 0.0
H1328 H 0.22337 0.74473 0.38383 0.0
H1329 H 0.12731 0.56665 0.39981 0.0
H1330 H 0.22152 0.66538 0.31376 0.0
H1331 H 0.16363 0.64317 0.49432 0.0
H1332 H 0.15611 0.60264 0.36408 0.0
H1333 H 0.19602 0.70851 0.4204 0.0
C1334 C 0.21708 0.71969 0.37591 0.0
C1335 C 0.22489 0.70826 0.34547 0.0
C1336 C 0.15787 0.61157 0.39267 0.0
C1337 C 0.19299 0.66632 0.38735 0.0
C1338 C 0.14134 0.59101 0.41312 0.0
C1339 C 0.14305 0.60169 0.45036 0.0
C1340 C 0.17579 0.64346 0.40898 0.0
C1341 C 0.16172 0.63367 0.46591 0.0
C1342 C 0.20157 0.69899 0.39703 0.0
C1343 C 0.21618 0.67542 0.33697 0.0
N1344 N 0.17702 0.65337 0.44511 0.0
N1345 N 0.20055 0.65571 0.35748 0.0
H1346 H 0.3133 0.17342 0.27842 0.0
H1347 H 0.47985 0.15615 0.42705 0.0
H1348 H 0.38177 0.24676 0.37335 0.0
H1349 H 0.40406 0.08104 0.33824 0.0
H1350 H 0.44635 0.18921 0.40892 0.0
H1351 H 0.34677 0.14059 0.29998 0.0
C1352 C 0.33539 0.18299 0.30376 0.0
C1353 C 0.34394 0.21374 0.32346 0.0
C1354 C 0.43698 0.16548 0.39327 0.0
C1355 C 0.38411 0.17485 0.34905 0.0
C1356 C 0.45644 0.14599 0.40376 0.0
C1357 C 0.44619 0.1145 0.38453 0.0
C1358 C 0.40614 0.15437 0.36269 0.0
C1359 C 0.41465 0.10453 0.35453 0.0
C1360 C 0.35478 0.16387 0.31627 0.0
C1361 C 0.37338 0.22362 0.35655 0.0
N1362 N 0.39653 0.12394 0.34488 0.0
N1363 N 0.39201 0.20471 0.36783 0.0
H1364 H 0.75669 0.8508 0.71477 0.0
H1365 H 0.58166 0.85939 0.5964 0.0
H1366 H 0.6656 0.77315 0.69271 0.0
H1367 H 0.67522 0.93322 0.61577 0.0
H1368 H 0.61091 0.82569 0.62734 0.0
H1369 H 0.72652 0.87948 0.67408 0.0
C1370 C 0.73019 0.83992 0.70123 0.0
C1371 C 0.71338 0.80996 0.70719 0.0
C1372 C 0.62498 0.84919 0.62455 0.0
C1373 C 0.67847 0.84264 0.66116 0.0
C1374 C 0.60833 0.8684 0.60677 0.0
C1375 C 0.62606 0.89931 0.60378 0.0
C1376 C 0.65956 0.86101 0.63938 0.0
C1377 C 0.66055 0.90981 0.61806 0.0
C1378 C 0.71294 0.8562 0.67799 0.0
C1379 C 0.67919 0.79643 0.68879 0.0
N1380 N 0.67609 0.89078 0.63533 0.0
N1381 N 0.66266 0.81308 0.66682 0.0
H1382 H 0.74631 0.12149 0.44853 0.0
H1383 H 0.56246 0.11355 0.3805 0.0
H1384 H 0.72421 0.19833 0.48721 0.0
H1385 H 0.60529 0.06719 0.3206 0.0
H1386 H 0.61709 0.14232 0.42915 0.0
H1387 H 0.68765 0.08925 0.42396 0.0
C1388 C 0.72915 0.13143 0.45354 0.0
C1389 C 0.73774 0.16425 0.46003 0.0
C1390 C 0.61462 0.12587 0.40528 0.0
C1391 C 0.67292 0.12851 0.43584 0.0
C1392 C 0.58379 0.11039 0.37654 0.0
C1393 C 0.57977 0.08378 0.35192 0.0
C1394 C 0.64105 0.11709 0.40416 0.0
C1395 C 0.60761 0.08431 0.34365 0.0
C1396 C 0.69553 0.1132 0.43836 0.0
C1397 C 0.71651 0.17417 0.4737 0.0
N1398 N 0.63745 0.09853 0.37181 0.0
N1399 N 0.68369 0.15761 0.45706 0.0
H1400 H 0.8766 0.68259 0.47517 0.0
H1401 H 0.01803 0.62181 0.47021 0.0
H1402 H 0.88543 0.65046 0.36879 0.0
H1403 H 0.98931 0.62578 0.57045 0.0
H1404 H 0.97162 0.63551 0.43307 0.0
H1405 H 0.91954 0.66408 0.51131 0.0
C1406 C 0.88726 0.67081 0.4596 0.0
C1407 C 0.87778 0.66746 0.41944 0.0
C1408 C 0.97569 0.63385 0.46329 0.0
C1409 C 0.92665 0.64684 0.45996 0.0
C1410 C 1.00244 0.62678 0.48461 0.0
C1411 C 1.00777 0.62409 0.52355 0.0
C1412 C 0.95451 0.63845 0.48135 0.0
C1413 C 0.98624 0.62881 0.54074 0.0
C1414 C 0.91167 0.66039 0.48005 0.0
C1415 C 0.89237 0.65302 0.39994 0.0
N1416 N 0.96038 0.63602 0.5194 0.0
N1417 N 0.9165 0.6432 0.42062 0.0
H1418 H 0.35672 0.79811 0.42238 0.0
H1419 H 0.44146 0.97794 0.4256 0.0
H1420 H 0.32982 0.85356 0.33547 0.0
H1421 H 0.49005 0.91503 0.47387 0.0
H1422 H 0.38876 0.93902 0.42269 0.0
H1423 H 0.39216 0.84703 0.46849 0.0
C1424 C 0.35719 0.82059 0.41368 0.0
C1425 C 0.34047 0.82227 0.37551 0.0
C1426 C 0.4112 0.93436 0.43557 0.0
C1427 C 0.3801 0.87737 0.42719 0.0
C1428 C 0.44104 0.95627 0.43674 0.0
C1429 C 0.46969 0.94917 0.44956 0.0
C1430 C 0.41016 0.90488 0.44591 0.0
C1431 C 0.4683 0.92107 0.46372 0.0
C1432 C 0.37703 0.84829 0.4399 0.0
C1433 C 0.34172 0.8515 0.36499 0.0
N1434 N 0.4388 0.89958 0.46098 0.0
N1435 N 0.36156 0.87803 0.39064 0.0
H1436 H 0.25289 0.43579 0.40969 0.0
H1437 H 0.14664 0.40906 0.54716 0.0
H1438 H 0.21486 0.34619 0.44482 0.0
H1439 H 0.20865 0.50044 0.53695 0.0
H1440 H 0.17059 0.38455 0.50965 0.0
H1441 H 0.23149 0.4592 0.45184 0.0
C1442 C 0.23958 0.42107 0.42585 0.0
C1443 C 0.23562 0.38921 0.42415 0.0
C1444 C 0.17952 0.40998 0.51652 0.0
C1445 C 0.21235 0.41561 0.47285 0.0
C1446 C 0.16633 0.42385 0.53848 0.0
C1447 C 0.17569 0.45665 0.54489 0.0
C1448 C 0.20182 0.42922 0.50091 0.0
C1449 C 0.20097 0.47502 0.53279 0.0
C1450 C 0.22779 0.43438 0.45015 0.0
C1451 C 0.21807 0.37084 0.4452 0.0
N1452 N 0.21267 0.461 0.5105 0.0
N1453 N 0.20732 0.38441 0.46909 0.0
H1454 H 0.42861 0.19068 0.69285 0.0
H1455 H 0.41454 0.0444 0.55119 0.0
H1456 H 0.33648 0.1318 0.60583 0.0
H1457 H 0.50648 0.11779 0.6195 0.0
H1458 H 0.38493 0.07386 0.57224 0.0
H1459 H 0.45669 0.16194 0.66836 0.0
C1460 C 0.41412 0.17187 0.66843 0.0
C1461 C 0.37986 0.16406 0.65141 0.0
C1462 C 0.41159 0.08345 0.58256 0.0
C1463 C 0.41233 0.13011 0.62361 0.0
C1464 C 0.42865 0.06673 0.57034 0.0
C1465 C 0.46337 0.07831 0.58363 0.0
C1466 C 0.42925 0.11193 0.6086 0.0
C1467 C 0.47989 0.10728 0.609 0.0
C1468 C 0.43031 0.15525 0.65457 0.0
C1469 C 0.36275 0.13863 0.62044 0.0
N1470 N 0.46277 0.12285 0.62069 0.0
N1471 N 0.3791 0.1226 0.60763 0.0
H1472 H 0.88284 0.34393 0.77763 0.0
H1473 H 0.91282 0.38971 0.58174 0.0
H1474 H 0.80556 0.31651 0.66634 0.0
H1475 H 0.98576 0.43039 0.6951 0.0
H1476 H 0.87372 0.36137 0.61204 0.0
H1477 H 0.92154 0.37491 0.74808 0.0
C1478 C 0.87419 0.34443 0.74688 0.0
C1479 C 0.84131 0.3275 0.72408 0.0
C1480 C 0.8983 0.37649 0.63028 0.0
C1481 C 0.88508 0.36258 0.69007 0.0
C1482 C 0.92067 0.39253 0.61297 0.0
C1483 C 0.95268 0.41223 0.63583 0.0
C1484 C 0.90804 0.37996 0.67079 0.0
C1485 C 0.96139 0.41529 0.67626 0.0
C1486 C 0.89615 0.36213 0.73005 0.0
C1487 C 0.83091 0.32909 0.68461 0.0
N1488 N 0.93927 0.39925 0.69242 0.0
N1489 N 0.8528 0.34617 0.66875 0.0
H1490 H 0.2117 0.68933 0.76445 0.0
H1491 H 0.12606 0.57458 0.5827 0.0
H1492 H 0.19336 0.72372 0.65558 0.0
H1493 H 0.09283 0.55618 0.67964 0.0
H1494 H 0.15051 0.63037 0.60962 0.0
H1495 H 0.16295 0.64294 0.73537 0.0
C1496 C 0.1966 0.68759 0.73474 0.0
C1497 C 0.20641 0.70979 0.71203 0.0
C1498 C 0.13706 0.61406 0.62434 0.0
C1499 C 0.15241 0.65622 0.67817 0.0
C1500 C 0.12398 0.58224 0.60961 0.0
C1501 C 0.1071 0.56092 0.62866 0.0
C1502 C 0.13355 0.62422 0.65857 0.0
C1503 C 0.10517 0.57195 0.6636 0.0
C1504 C 0.16883 0.66109 0.71808 0.0
C1505 C 0.18668 0.70637 0.6735 0.0
N1506 N 0.11829 0.60302 0.67752 0.0
N1507 N 0.16085 0.67921 0.65713 0.0
loop_
_geom_bond_atom_site_label_1
_geom_bond_atom_site_label_2
_geom_bond_distance
_geom_bond_site_symmetry_2
_ccdc_geom_bond_type
C0 Eu1 2.835 . S
C0 C2 1.500 . S
C0 O20 1.257 . S
C0 O21 1.260 . S
Eu1 C0 2.835 . S
Eu1 O20 2.473 . S
Eu1 O21 2.480 . S
Eu1 O22 2.430 . S
Eu1 O23 2.670 . S
Eu1 O24 2.394 . S
Eu1 O29 2.355 . S
Eu1 O31 2.374 . S
C2 C0 1.500 . S
C2 C3 1.377 . S
C2 C7 1.377 . S
C3 C2 1.377 . S
C3 C4 1.395 . S
C3 H32 0.931 . S
C4 C3 1.395 . S
C4 C5 1.383 . S
C4 H33 0.931 . S
C5 C4 1.383 . S
C5 C6 1.394 . S
C6 C5 1.394 . S
C6 C7 1.378 . S
C6 H34 0.931 . S
C7 C2 1.377 . S
C7 C6 1.378 . S
C7 H35 0.931 . S
C8 O22 1.259 . S
C8 O23 1.270 . S
C9 O24 1.251 . S
C9 O25 1.251 . S
C10 Eu11 2.835 . S
C10 C12 1.500 . S
C10 O26 1.257 . S
C10 O27 1.260 . S
Eu11 C10 2.835 . S
Eu11 O23 2.355 . S
Eu11 O25 2.374 . S
Eu11 O26 2.473 . S
Eu11 O27 2.480 . S
Eu11 O28 2.430 . S
Eu11 O29 2.670 . S
Eu11 O30 2.394 . S
C12 C10 1.500 . S
C12 C13 1.377 . S
C12 C17 1.377 . S
C13 C12 1.377 . S
C13 C14 1.395 . S
C13 H36 0.931 . S
C14 C13 1.395 . S
C14 C15 1.383 . S
C14 H37 0.931 . S
C15 C14 1.383 . S
C15 C16 1.394 . S
C16 C15 1.394 . S
C16 C17 1.378 . S
C16 H38 0.931 . S
C17 C12 1.377 . S
C17 C16 1.378 . S
C17 H39 0.931 . S
C18 O28 1.259 . S
C18 O29 1.270 . S
C19 O30 1.251 . S
C19 O31 1.251 . S
O20 C0 1.257 . S
O20 Eu1 2.473 . S
O21 C0 1.260 . S
O21 Eu1 2.480 . S
O22 Eu1 2.430 . S
O22 C8 1.259 . S
O23 Eu1 2.670 . S
O23 C8 1.270 . S
O23 Eu11 2.355 . S
O24 Eu1 2.394 . S
O24 C9 1.251 . S
O25 C9 1.251 . S
O25 Eu11 2.374 . S
O26 C10 1.257 . S
O26 Eu11 2.473 . S
O27 C10 1.260 . S
O27 Eu11 2.480 . S
O28 Eu11 2.430 . S
O28 C18 1.259 . S
O29 Eu1 2.355 . S
O29 Eu11 2.670 . S
O29 C18 1.270 . S
O30 Eu11 2.394 . S
O30 C19 1.251 . S
O31 Eu1 2.374 . S
O31 C19 1.251 . S
H32 C3 0.931 . S
H33 C4 0.931 . S
H34 C6 0.931 . S
H35 C7 0.931 . S
H36 C13 0.931 . S
H37 C14 0.931 . S
H38 C16 0.931 . S
H39 C17 0.931 . S
C40 Eu41 2.835 . S
C40 C42 1.500 . S
C40 O60 1.257 . S
C40 O61 1.260 . S
Eu41 C40 2.835 . S
Eu41 O60 2.473 . S
Eu41 O61 2.480 . S
Eu41 O62 2.430 . S
Eu41 O63 2.670 . S
Eu41 O64 2.394 . S
Eu41 O69 2.355 . S
Eu41 O71 2.374 . S
C42 C40 1.500 . S
C42 C43 1.377 . S
C42 C47 1.377 . S
C43 C42 1.377 . S
C43 C44 1.395 . S
C43 H72 0.931 . S
C44 C43 1.395 . S
C44 C45 1.383 . S
C44 H73 0.931 . S
C45 C44 1.383 . S
C45 C46 1.394 . S
C46 C45 1.394 . S
C46 C47 1.378 . S
C46 H74 0.931 . S
C47 C42 1.377 . S
C47 C46 1.378 . S
C47 H75 0.931 . S
C48 O62 1.259 . S
C48 O63 1.270 . S
C49 O64 1.251 . S
C49 O65 1.251 . S
C50 Eu51 2.835 . S
C50 C52 1.500 . S
C50 O66 1.257 . S
C50 O67 1.260 . S
Eu51 C50 2.835 . S
Eu51 O63 2.355 . S
Eu51 O65 2.374 . S
Eu51 O66 2.473 . S
Eu51 O67 2.480 . S
Eu51 O68 2.430 . S
Eu51 O69 2.670 . S
Eu51 O70 2.394 . S
C52 C50 1.500 . S
C52 C53 1.377 . S
C52 C57 1.377 . S
C53 C52 1.377 . S
C53 C54 1.395 . S
C53 H76 0.931 . S
C54 C53 1.395 . S
C54 C55 1.383 . S
C54 H77 0.931 . S
C55 C54 1.383 . S
C55 C56 1.394 . S
C56 C55 1.394 . S
C56 C57 1.378 . S
C56 H78 0.931 . S
C57 C52 1.377 . S
C57 C56 1.378 . S
C57 H79 0.931 . S
C58 O68 1.259 . S
C58 O69 1.270 . S
C59 O70 1.251 . S
C59 O71 1.251 . S
O60 C40 1.257 . S
O60 Eu41 2.473 . S
O61 C40 1.260 . S
O61 Eu41 2.480 . S
O62 Eu41 2.430 . S
O62 C48 1.259 . S
O63 Eu41 2.670 . S
O63 C48 1.270 . S
O63 Eu51 2.355 . S
O64 Eu41 2.394 . S
O64 C49 1.251 . S
O65 C49 1.251 . S
O65 Eu51 2.374 . S
O66 C50 1.257 . S
O66 Eu51 2.473 . S
O67 C50 1.260 . S
O67 Eu51 2.480 . S
O68 Eu51 2.430 . S
O68 C58 1.259 . S
O69 Eu41 2.355 . S
O69 Eu51 2.670 . S
O69 C58 1.270 . S
O70 Eu51 2.394 . S
O70 C59 1.251 . S
O71 Eu41 2.374 . S
O71 C59 1.251 . S
H72 C43 0.931 . S
H73 C44 0.931 . S
H74 C46 0.931 . S
H75 C47 0.931 . S
H76 C53 0.931 . S
H77 C54 0.931 . S
H78 C56 0.931 . S
H79 C57 0.931 . S
C80 Eu81 2.835 . S
C80 C82 1.500 . S
C80 O100 1.257 . S
C80 O101 1.260 . S
Eu81 C80 2.835 . S
Eu81 O100 2.473 . S
Eu81 O101 2.480 . S
Eu81 O102 2.430 . S
Eu81 O103 2.670 . S
Eu81 O104 2.394 . S
Eu81 O109 2.355 . S
Eu81 O111 2.374 . S
C82 C80 1.500 . S
C82 C83 1.377 . S
C82 C87 1.377 . S
C83 C82 1.377 . S
C83 C84 1.395 . S
C83 H112 0.931 . S
C84 C83 1.395 . S
C84 C85 1.383 . S
C84 H113 0.931 . S
C85 C84 1.383 . S
C85 C86 1.394 . S
C86 C85 1.394 . S
C86 C87 1.378 . S
C86 H114 0.931 . S
C87 C82 1.377 . S
C87 C86 1.378 . S
C87 H115 0.931 . S
C88 O102 1.259 . S
C88 O103 1.270 . S
C89 O104 1.251 . S
C89 O105 1.251 . S
C90 Eu91 2.835 . S
C90 C92 1.500 . S
C90 O106 1.257 . S
C90 O107 1.260 . S
Eu91 C90 2.835 . S
Eu91 O103 2.355 . S
Eu91 O105 2.374 . S
Eu91 O106 2.473 . S
Eu91 O107 2.480 . S
Eu91 O108 2.430 . S
Eu91 O109 2.670 . S
Eu91 O110 2.394 . S
C92 C90 1.500 . S
C92 C93 1.377 . S
C92 C97 1.377 . S
C93 C92 1.377 . S
C93 C94 1.395 . S
C93 H116 0.931 . S
C94 C93 1.395 . S
C94 C95 1.383 . S
C94 H117 0.931 . S
C95 C94 1.383 . S
C95 C96 1.394 . S
C96 C95 1.394 . S
C96 C97 1.378 . S
C96 H118 0.931 . S
C97 C92 1.377 . S
C97 C96 1.378 . S
C97 H119 0.931 . S
C98 O108 1.259 . S
C98 O109 1.270 . S
C99 O110 1.251 . S
C99 O111 1.251 . S
O100 C80 1.257 . S
O100 Eu81 2.473 . S
O101 C80 1.260 . S
O101 Eu81 2.480 . S
O102 Eu81 2.430 . S
O102 C88 1.259 . S
O103 Eu81 2.670 . S
O103 C88 1.270 . S
O103 Eu91 2.355 . S
O104 Eu81 2.394 . S
O104 C89 1.251 . S
O105 C89 1.251 . S
O105 Eu91 2.374 . S
O106 C90 1.257 . S
O106 Eu91 2.473 . S
O107 C90 1.260 . S
O107 Eu91 2.480 . S
O108 Eu91 2.430 . S
O108 C98 1.259 . S
O109 Eu81 2.355 . S
O109 Eu91 2.670 . S
O109 C98 1.270 . S
O110 Eu91 2.394 . S
O110 C99 1.251 . S
O111 Eu81 2.374 . S
O111 C99 1.251 . S
H112 C83 0.931 . S
H113 C84 0.931 . S
H114 C86 0.931 . S
H115 C87 0.931 . S
H116 C93 0.931 . S
H117 C94 0.931 . S
H118 C96 0.931 . S
H119 C97 0.931 . S
C120 Eu121 2.835 . S
C120 C122 1.500 . S
C120 O140 1.257 . S
C120 O141 1.260 . S
Eu121 C120 2.835 . S
Eu121 O140 2.473 . S
Eu121 O141 2.480 . S
Eu121 O142 2.430 . S
Eu121 O143 2.670 . S
Eu121 O144 2.394 . S
Eu121 O149 2.355 . S
Eu121 O151 2.374 . S
C122 C120 1.500 . S
C122 C123 1.377 . S
C122 C127 1.377 . S
C123 C122 1.377 . S
C123 C124 1.395 . S
C123 H152 0.931 . S
C124 C123 1.395 . S
C124 C125 1.383 . S
C124 H153 0.931 . S
C125 C124 1.383 . S
C125 C126 1.394 . S
C126 C125 1.394 . S
C126 C127 1.378 . S
C126 H154 0.931 . S
C127 C122 1.377 . S
C127 C126 1.378 . S
C127 H155 0.931 . S
C128 O142 1.259 . S
C128 O143 1.270 . S
C129 O144 1.251 . S
C129 O145 1.251 . S
C130 Eu131 2.835 . S
C130 C132 1.500 . S
C130 O146 1.257 . S
C130 O147 1.260 . S
Eu131 C130 2.835 . S
Eu131 O143 2.355 . S
Eu131 O145 2.374 . S
Eu131 O146 2.473 . S
Eu131 O147 2.480 . S
Eu131 O148 2.430 . S
Eu131 O149 2.670 . S
Eu131 O150 2.394 . S
C132 C130 1.500 . S
C132 C133 1.377 . S
C132 C137 1.377 . S
C133 C132 1.377 . S
C133 C134 1.395 . S
C133 H156 0.931 . S
C134 C133 1.395 . S
C134 C135 1.383 . S
C134 H157 0.931 . S
C135 C134 1.383 . S
C135 C136 1.394 . S
C136 C135 1.394 . S
C136 C137 1.378 . S
C136 H158 0.931 . S
C137 C132 1.377 . S
C137 C136 1.378 . S
C137 H159 0.931 . S
C138 O148 1.259 . S
C138 O149 1.270 . S
C139 O150 1.251 . S
C139 O151 1.251 . S
O140 C120 1.257 . S
O140 Eu121 2.473 . S
O141 C120 1.260 . S
O141 Eu121 2.480 . S
O142 Eu121 2.430 . S
O142 C128 1.259 . S
O143 Eu121 2.670 . S
O143 C128 1.270 . S
O143 Eu131 2.355 . S
O144 Eu121 2.394 . S
O144 C129 1.251 . S
O145 C129 1.251 . S
O145 Eu131 2.374 . S
O146 C130 1.257 . S
O146 Eu131 2.473 . S
O147 C130 1.260 . S
O147 Eu131 2.480 . S
O148 Eu131 2.430 . S
O148 C138 1.259 . S
O149 Eu121 2.355 . S
O149 Eu131 2.670 . S
O149 C138 1.270 . S
O150 Eu131 2.394 . S
O150 C139 1.251 . S
O151 Eu121 2.374 . S
O151 C139 1.251 . S
H152 C123 0.931 . S
H153 C124 0.931 . S
H154 C126 0.931 . S
H155 C127 0.931 . S
H156 C133 0.931 . S
H157 C134 0.931 . S
H158 C136 0.931 . S
H159 C137 0.931 . S
C160 Eu161 2.835 . S
C160 C162 1.500 . S
C160 O180 1.257 . S
C160 O181 1.260 . S
Eu161 C160 2.835 . S
Eu161 O180 2.473 . S
Eu161 O181 2.480 . S
Eu161 O182 2.430 . S
Eu161 O183 2.670 . S
Eu161 O184 2.394 . S
Eu161 O189 2.355 . S
Eu161 O191 2.374 . S
C162 C160 1.500 . S
C162 C163 1.377 . S
C162 C167 1.377 . S
C163 C162 1.377 . S
C163 C164 1.395 . S
C163 H192 0.931 . S
C164 C163 1.395 . S
C164 C165 1.383 . S
C164 H193 0.931 . S
C165 C164 1.383 . S
C165 C166 1.394 . S
C166 C165 1.394 . S
C166 C167 1.378 . S
C166 H194 0.931 . S
C167 C162 1.377 . S
C167 C166 1.378 . S
C167 H195 0.931 . S
C168 O182 1.259 . S
C168 O183 1.270 . S
C169 O184 1.251 . S
C169 O185 1.251 . S
C170 Eu171 2.835 . S
C170 C172 1.500 . S
C170 O186 1.257 . S
C170 O187 1.260 . S
Eu171 C170 2.835 . S
Eu171 O183 2.355 . S
Eu171 O185 2.374 . S
Eu171 O186 2.473 . S
Eu171 O187 2.480 . S
Eu171 O188 2.430 . S
Eu171 O189 2.670 . S
Eu171 O190 2.394 . S
C172 C170 1.500 . S
C172 C173 1.377 . S
C172 C177 1.377 . S
C173 C172 1.377 . S
C173 C174 1.395 . S
C173 H196 0.931 . S
C174 C173 1.395 . S
C174 C175 1.383 . S
C174 H197 0.931 . S
C175 C174 1.383 . S
C175 C176 1.394 . S
C176 C175 1.394 . S
C176 C177 1.378 . S
C176 H198 0.931 . S
C177 C172 1.377 . S
C177 C176 1.378 . S
C177 H199 0.931 . S
C178 O188 1.259 . S
C178 O189 1.270 . S
C179 O190 1.251 . S
C179 O191 1.251 . S
O180 C160 1.257 . S
O180 Eu161 2.473 . S
O181 C160 1.260 . S
O181 Eu161 2.480 . S
O182 Eu161 2.430 . S
O182 C168 1.259 . S
O183 Eu161 2.670 . S
O183 C168 1.270 . S
O183 Eu171 2.355 . S
O184 Eu161 2.394 . S
O184 C169 1.251 . S
O185 C169 1.251 . S
O185 Eu171 2.374 . S
O186 C170 1.257 . S
O186 Eu171 2.473 . S
O187 C170 1.260 . S
O187 Eu171 2.480 . S
O188 Eu171 2.430 . S
O188 C178 1.259 . S
O189 Eu161 2.355 . S
O189 Eu171 2.670 . S
O189 C178 1.270 . S
O190 Eu171 2.394 . S
O190 C179 1.251 . S
O191 Eu161 2.374 . S
O191 C179 1.251 . S
H192 C163 0.931 . S
H193 C164 0.931 . S
H194 C166 0.931 . S
H195 C167 0.931 . S
H196 C173 0.931 . S
H197 C174 0.931 . S
H198 C176 0.931 . S
H199 C177 0.931 . S
C200 Eu201 2.835 . S
C200 C202 1.500 . S
C200 O220 1.257 . S
C200 O221 1.260 . S
Eu201 C200 2.835 . S
Eu201 O220 2.473 . S
Eu201 O221 2.480 . S
Eu201 O222 2.430 . S
Eu201 O223 2.670 . S
Eu201 O224 2.394 . S
Eu201 O229 2.355 . S
Eu201 O231 2.374 . S
C202 C200 1.500 . S
C202 C203 1.377 . S
C202 C207 1.377 . S
C203 C202 1.377 . S
C203 C204 1.395 . S
C203 H232 0.931 . S
C204 C203 1.395 . S
C204 C205 1.383 . S
C204 H233 0.931 . S
C205 C204 1.383 . S
C205 C206 1.394 . S
C206 C205 1.394 . S
C206 C207 1.378 . S
C206 H234 0.931 . S
C207 C202 1.377 . S
C207 C206 1.378 . S
C207 H235 0.931 . S
C208 O222 1.259 . S
C208 O223 1.270 . S
C209 O224 1.251 . S
C209 O225 1.251 . S
C210 Eu211 2.835 . S
C210 C212 1.500 . S
C210 O226 1.257 . S
C210 O227 1.260 . S
Eu211 C210 2.835 . S
Eu211 O223 2.355 . S
Eu211 O225 2.374 . S
Eu211 O226 2.473 . S
Eu211 O227 2.480 . S
Eu211 O228 2.430 . S
Eu211 O229 2.670 . S
Eu211 O230 2.394 . S
C212 C210 1.500 . S
C212 C213 1.377 . S
C212 C217 1.377 . S
C213 C212 1.377 . S
C213 C214 1.395 . S
C213 H236 0.931 . S
C214 C213 1.395 . S
C214 C215 1.383 . S
C214 H237 0.931 . S
C215 C214 1.383 . S
C215 C216 1.394 . S
C216 C215 1.394 . S
C216 C217 1.378 . S
C216 H238 0.931 . S
C217 C212 1.377 . S
C217 C216 1.378 . S
C217 H239 0.931 . S
C218 O228 1.259 . S
C218 O229 1.270 . S
C219 O230 1.251 . S
C219 O231 1.251 . S
O220 C200 1.257 . S
O220 Eu201 2.473 . S
O221 C200 1.260 . S
O221 Eu201 2.480 . S
O222 Eu201 2.430 . S
O222 C208 1.259 . S
O223 Eu201 2.670 . S
O223 C208 1.270 . S
O223 Eu211 2.355 . S
O224 Eu201 2.394 . S
O224 C209 1.251 . S
O225 C209 1.251 . S
O225 Eu211 2.374 . S
O226 C210 1.257 . S
O226 Eu211 2.473 . S
O227 C210 1.260 . S
O227 Eu211 2.480 . S
O228 Eu211 2.430 . S
O228 C218 1.259 . S
O229 Eu201 2.355 . S
O229 Eu211 2.670 . S
O229 C218 1.270 . S
O230 Eu211 2.394 . S
O230 C219 1.251 . S
O231 Eu201 2.374 . S
O231 C219 1.251 . S
H232 C203 0.931 . S
H233 C204 0.931 . S
H234 C206 0.931 . S
H235 C207 0.931 . S
H236 C213 0.931 . S
H237 C214 0.931 . S
H238 C216 0.931 . S
H239 C217 0.931 . S
C240 Eu241 2.835 . S
C240 C242 1.500 . S
C240 O260 1.257 . S
C240 O261 1.260 . S
Eu241 C240 2.835 . S
Eu241 O260 2.473 . S
Eu241 O261 2.480 . S
Eu241 O262 2.430 . S
Eu241 O263 2.670 . S
Eu241 O264 2.394 . S
Eu241 O269 2.355 . S
Eu241 O271 2.374 . S
C242 C240 1.500 . S
C242 C243 1.377 . S
C242 C247 1.377 . S
C243 C242 1.377 . S
C243 C244 1.395 . S
C243 H272 0.931 . S
C244 C243 1.395 . S
C244 C245 1.383 . S
C244 H273 0.931 . S
C245 C244 1.383 . S
C245 C246 1.394 . S
C246 C245 1.394 . S
C246 C247 1.378 . S
C246 H274 0.931 . S
C247 C242 1.377 . S
C247 C246 1.378 . S
C247 H275 0.931 . S
C248 O262 1.259 . S
C248 O263 1.270 . S
C249 O264 1.251 . S
C249 O265 1.251 . S
C250 Eu251 2.835 . S
C250 C252 1.500 . S
C250 O266 1.257 . S
C250 O267 1.260 . S
Eu251 C250 2.835 . S
Eu251 O263 2.355 . S
Eu251 O265 2.374 . S
Eu251 O266 2.473 . S
Eu251 O267 2.480 . S
Eu251 O268 2.430 . S
Eu251 O269 2.670 . S
Eu251 O270 2.394 . S
C252 C250 1.500 . S
C252 C253 1.377 . S
C252 C257 1.377 . S
C253 C252 1.377 . S
C253 C254 1.395 . S
C253 H276 0.931 . S
C254 C253 1.395 . S
C254 C255 1.383 . S
C254 H277 0.931 . S
C255 C254 1.383 . S
C255 C256 1.394 . S
C256 C255 1.394 . S
C256 C257 1.378 . S
C256 H278 0.931 . S
C257 C252 1.377 . S
C257 C256 1.378 . S
C257 H279 0.931 . S
C258 O268 1.259 . S
C258 O269 1.270 . S
C259 O270 1.251 . S
C259 O271 1.251 . S
O260 C240 1.257 . S
O260 Eu241 2.473 . S
O261 C240 1.260 . S
O261 Eu241 2.480 . S
O262 Eu241 2.430 . S
O262 C248 1.259 . S
O263 Eu241 2.670 . S
O263 C248 1.270 . S
O263 Eu251 2.355 . S
O264 Eu241 2.394 . S
O264 C249 1.251 . S
O265 C249 1.251 . S
O265 Eu251 2.374 . S
O266 C250 1.257 . S
O266 Eu251 2.473 . S
O267 C250 1.260 . S
O267 Eu251 2.480 . S
O268 Eu251 2.430 . S
O268 C258 1.259 . S
O269 Eu241 2.355 . S
O269 Eu251 2.670 . S
O269 C258 1.270 . S
O270 Eu251 2.394 . S
O270 C259 1.251 . S
O271 Eu241 2.374 . S
O271 C259 1.251 . S
H272 C243 0.931 . S
H273 C244 0.931 . S
H274 C246 0.931 . S
H275 C247 0.931 . S
H276 C253 0.931 . S
H277 C254 0.931 . S
H278 C256 0.931 . S
H279 C257 0.931 . S
C280 Eu281 2.835 . S
C280 C282 1.500 . S
C280 O300 1.257 . S
C280 O301 1.260 . S
Eu281 C280 2.835 . S
Eu281 O300 2.473 . S
Eu281 O301 2.480 . S
Eu281 O302 2.430 . S
Eu281 O303 2.670 . S
Eu281 O304 2.394 . S
Eu281 O309 2.355 . S
Eu281 O311 2.374 . S
C282 C280 1.500 . S
C282 C283 1.377 . S
C282 C287 1.377 . S
C283 C282 1.377 . S
C283 C284 1.395 . S
C283 H312 0.931 . S
C284 C283 1.395 . S
C284 C285 1.383 . S
C284 H313 0.931 . S
C285 C284 1.383 . S
C285 C286 1.394 . S
C286 C285 1.394 . S
C286 C287 1.378 . S
C286 H314 0.931 . S
C287 C282 1.377 . S
C287 C286 1.378 . S
C287 H315 0.931 . S
C288 O302 1.259 . S
C288 O303 1.270 . S
C289 O304 1.251 . S
C289 O305 1.251 . S
C290 Eu291 2.835 . S
C290 C292 1.500 . S
C290 O306 1.257 . S
C290 O307 1.260 . S
Eu291 C290 2.835 . S
Eu291 O303 2.355 . S
Eu291 O305 2.374 . S
Eu291 O306 2.473 . S
Eu291 O307 2.480 . S
Eu291 O308 2.430 . S
Eu291 O309 2.670 . S
Eu291 O310 2.394 . S
C292 C290 1.500 . S
C292 C293 1.377 . S
C292 C297 1.377 . S
C293 C292 1.377 . S
C293 C294 1.395 . S
C293 H316 0.931 . S
C294 C293 1.395 . S
C294 C295 1.383 . S
C294 H317 0.931 . S
C295 C294 1.383 . S
C295 C296 1.394 . S
C296 C295 1.394 . S
C296 C297 1.378 . S
C296 H318 0.931 . S
C297 C292 1.377 . S
C297 C296 1.378 . S
C297 H319 0.931 . S
C298 O308 1.259 . S
C298 O309 1.270 . S
C299 O310 1.251 . S
C299 O311 1.251 . S
O300 C280 1.257 . S
O300 Eu281 2.473 . S
O301 C280 1.260 . S
O301 Eu281 2.480 . S
O302 Eu281 2.430 . S
O302 C288 1.259 . S
O303 Eu281 2.670 . S
O303 C288 1.270 . S
O303 Eu291 2.355 . S
O304 Eu281 2.394 . S
O304 C289 1.251 . S
O305 C289 1.251 . S
O305 Eu291 2.374 . S
O306 C290 1.257 . S
O306 Eu291 2.473 . S
O307 C290 1.260 . S
O307 Eu291 2.480 . S
O308 Eu291 2.430 . S
O308 C298 1.259 . S
O309 Eu281 2.355 . S
O309 Eu291 2.670 . S
O309 C298 1.270 . S
O310 Eu291 2.394 . S
O310 C299 1.251 . S
O311 Eu281 2.374 . S
O311 C299 1.251 . S
H312 C283 0.931 . S
H313 C284 0.931 . S
H314 C286 0.931 . S
H315 C287 0.931 . S
H316 C293 0.931 . S
H317 C294 0.931 . S
H318 C296 0.931 . S
H319 C297 0.931 . S
Cd320 N323 2.334 1_545 S
Cd320 N349 2.304 1_455 S
Cd320 O356 2.268 1_445 S
Cd320 O359 2.273 . S
Cd320 O360 2.417 1_445 S
Cd320 O361 2.330 1_445 S
Cd321 N336 2.276 1_455 S
Cd321 N340 2.334 . S
Cd321 O357 2.273 1_445 S
Cd321 O358 2.268 . S
Cd321 O362 2.417 . S
Cd321 O363 2.330 . S
C322 N323 1.332 . S
C322 C326 1.381 . S
C322 H328 0.952 . S
N323 Cd320 2.334 1_565 S
N323 C322 1.332 . S
N323 C327 1.328 . S
C324 C325 1.396 . S
C324 C327 1.378 . S
C324 H366 0.931 . S
C325 C324 1.396 . S
C325 C326 1.382 . S
C326 C322 1.381 . S
C326 C325 1.382 . S
C326 H367 0.930 . S
C327 N323 1.328 . S
C327 C324 1.378 . S
C327 H329 0.930 . S
H328 C322 0.952 . S
H329 C327 0.930 . S
C330 O356 1.238 . S
C330 O357 1.253 . S
C331 C332 1.379 . S
C331 N336 1.358 . S
C331 H337 0.929 . S
C332 C331 1.379 . S
C332 C333 1.380 . S
C332 H368 0.929 . S
C333 C332 1.380 . S
C333 C334 1.399 . S
C334 C333 1.399 . S
C334 C335 1.376 1_655 S
C334 H369 0.931 . S
C335 C334 1.376 1_455 S
C335 N336 1.348 1_455 S
C335 H338 0.930 . S
N336 Cd321 2.276 1_655 S
N336 C331 1.358 . S
N336 C335 1.348 1_655 S
H337 C331 0.929 . S
H338 C335 0.930 . S
C339 N340 1.332 1_565 S
C339 C343 1.381 . S
C339 H345 0.931 . S
N340 Cd321 2.334 . S
N340 C339 1.332 1_545 S
N340 C344 1.328 . S
C341 C342 1.396 . S
C341 C344 1.378 1_565 S
C341 H370 0.931 1_565 S
C342 C341 1.396 . S
C342 C343 1.382 . S
C343 C339 1.381 . S
C343 C342 1.382 . S
C343 H371 0.930 . S
C344 N340 1.328 . S
C344 C341 1.378 1_545 S
C344 H346 0.930 . S
H345 C339 0.931 . S
H346 C344 0.930 . S
C347 O358 1.238 . S
C347 O359 1.253 . S
C348 O360 1.239 . S
C348 O361 1.230 . S
N349 Cd320 2.304 1_655 S
N349 C350 1.337 . S
N349 C354 1.338 . S
C350 N349 1.337 . S
C350 C351 1.379 . S
C350 H364 0.911 1_655 S
C351 C350 1.379 . S
C351 C352 1.380 . S
C351 H372 0.929 . S
C352 C351 1.380 . S
C352 C353 1.399 . S
C353 C352 1.399 . S
C353 C354 1.376 . S
C353 H373 0.931 . S
C354 N349 1.338 . S
C354 C353 1.376 . S
C354 H365 0.930 . S
C355 O362 1.239 . S
C355 O363 1.230 . S
O356 Cd320 2.268 1_665 S
O356 C330 1.238 . S
O357 Cd321 2.273 1_665 S
O357 C330 1.253 . S
O358 Cd321 2.268 . S
O358 C347 1.238 . S
O359 Cd320 2.273 . S
O359 C347 1.253 . S
O360 Cd320 2.417 1_665 S
O360 C348 1.239 . S
O361 Cd320 2.330 1_665 S
O361 C348 1.230 . S
O362 Cd321 2.417 . S
O362 C355 1.239 . S
O363 Cd321 2.330 . S
O363 C355 1.230 . S
H364 C350 0.911 1_455 S
H365 C354 0.930 . S
H366 C324 0.931 . S
H367 C326 0.930 . S
H368 C332 0.929 . S
H369 C334 0.931 . S
H370 C341 0.931 1_545 S
H371 C343 0.930 . S
H372 C351 0.929 . S
H373 C353 0.931 . S
Cd374 N377 2.334 1_545 S
Cd374 N403 2.304 . S
Cd374 O410 2.268 1_544 S
Cd374 O413 2.273 . S
Cd374 O414 2.417 1_545 S
Cd374 O415 2.330 . S
Cd375 N390 2.304 . S
Cd375 N394 2.334 . S
Cd375 O411 2.273 . S
Cd375 O412 2.268 1_556 S
Cd375 O416 2.417 . S
Cd375 O417 2.330 . S
C376 N377 1.332 . S
C376 C380 1.381 . S
C376 H382 0.931 1_565 S
N377 Cd374 2.334 1_565 S
N377 C376 1.332 . S
N377 C381 1.328 . S
C378 C379 1.396 . S
C378 C381 1.378 . S
C378 H420 0.916 1_554 S
C379 C378 1.396 . S
C379 C380 1.382 . S
C380 C376 1.381 . S
C380 C379 1.382 . S
C380 H421 0.930 . S
C381 N377 1.328 . S
C381 C378 1.378 . S
C381 H383 0.930 1_554 S
H382 C376 0.931 1_545 S
H383 C381 0.930 1_556 S
C384 O410 1.238 . S
C384 O411 1.253 1_565 S
C385 C386 1.379 . S
C385 N390 1.337 . S
C385 H391 0.929 . S
C386 C385 1.379 . S
C386 C387 1.380 . S
C386 H422 0.929 . S
C387 C386 1.380 . S
C387 C388 1.399 . S
C388 C387 1.399 . S
C388 C389 1.376 . S
C388 H423 0.931 1_556 S
C389 C388 1.376 . S
C389 N390 1.338 . S
C389 H392 0.930 1_556 S
N390 Cd375 2.304 . S
N390 C385 1.337 . S
N390 C389 1.338 . S
H391 C385 0.929 . S
H392 C389 0.930 1_554 S
C393 N394 1.332 1_565 S
C393 C397 1.381 . S
C393 H399 0.931 . S
N394 Cd375 2.334 . S
N394 C393 1.332 1_545 S
N394 C398 1.328 . S
C395 C396 1.412 1_545 S
C395 C398 1.376 . S
C395 H424 0.918 1_556 S
C396 C395 1.412 1_565 S
C396 C397 1.382 . S
C397 C393 1.381 . S
C397 C396 1.382 . S
C397 H425 0.930 . S
C398 N394 1.328 . S
C398 C395 1.376 . S
C398 H400 0.930 1_556 S
H399 C393 0.931 . S
H400 C398 0.930 1_554 S
C401 O412 1.238 . S
C401 O413 1.253 . S
C402 O414 1.239 . S
C402 O415 1.230 1_565 S
N403 Cd374 2.304 . S
N403 C404 1.337 . S
N403 C408 1.338 . S
C404 N403 1.337 . S
C404 C405 1.379 . S
C404 H418 0.929 . S
C405 C404 1.379 . S
C405 C406 1.380 . S
C405 H426 0.929 . S
C406 C405 1.380 . S
C406 C407 1.383 1_554 S
C407 C406 1.383 1_556 S
C407 C408 1.378 1_556 S
C407 H427 0.945 . S
C408 N403 1.338 . S
C408 C407 1.378 1_554 S
C408 H419 0.930 1_554 S
C409 O416 1.239 . S
C409 O417 1.230 . S
O410 Cd374 2.268 1_566 S
O410 C384 1.238 . S
O411 Cd375 2.273 . S
O411 C384 1.253 1_545 S
O412 Cd375 2.268 1_554 S
O412 C401 1.238 . S
O413 Cd374 2.273 . S
O413 C401 1.253 . S
O414 Cd374 2.417 1_565 S
O414 C402 1.239 . S
O415 Cd374 2.330 . S
O415 C402 1.230 1_545 S
O416 Cd375 2.417 . S
O416 C409 1.239 . S
O417 Cd375 2.330 . S
O417 C409 1.230 . S
H418 C404 0.929 . S
H419 C408 0.930 1_556 S
H420 C378 0.916 1_556 S
H421 C380 0.930 . S
H422 C386 0.929 . S
H423 C388 0.931 1_554 S
H424 C395 0.918 1_554 S
H425 C397 0.930 . S
H426 C405 0.929 . S
H427 C407 0.945 . S
Cd428 N431 2.334 1_655 S
Cd428 N457 2.304 . S
Cd428 O464 2.268 . S
Cd428 O467 2.273 1_655 S
Cd428 O468 2.417 . S
Cd428 O469 2.330 . S
Cd429 N444 2.304 1_455 S
Cd429 N448 2.334 . S
Cd429 O465 2.273 1_454 S
Cd429 O466 2.268 . S
Cd429 O470 2.417 . S
Cd429 O471 2.330 1_554 S
C430 N431 1.332 . S
C430 C434 1.381 . S
C430 H436 0.931 . S
N431 Cd428 2.334 1_455 S
N431 C430 1.332 . S
N431 C435 1.328 . S
C432 C433 1.396 . S
C432 C435 1.378 . S
C432 H474 0.931 . S
C433 C432 1.396 . S
C433 C434 1.382 . S
C434 C430 1.381 . S
C434 C433 1.382 . S
C434 H475 0.930 . S
C435 N431 1.328 . S
C435 C432 1.378 . S
C435 H437 0.906 1_455 S
H436 C430 0.931 . S
H437 C435 0.906 1_655 S
C438 O464 1.238 1_556 S
C438 O465 1.253 . S
C439 C440 1.379 . S
C439 N444 1.337 1_556 S
C439 H445 0.929 . S
C440 C439 1.379 . S
C440 C441 1.380 1_556 S
C440 H476 0.929 . S
C441 C440 1.380 1_554 S
C441 C442 1.399 . S
C442 C441 1.399 . S
C442 C443 1.404 . S
C442 H477 0.931 . S
C443 C442 1.404 . S
C443 N444 1.329 . S
C443 H446 0.910 1_655 S
N444 Cd429 2.304 1_655 S
N444 C439 1.337 1_554 S
N444 C443 1.329 . S
H445 C439 0.929 . S
H446 C443 0.910 1_455 S
C447 N448 1.332 1_556 S
C447 C451 1.381 . S
C447 H453 0.931 . S
N448 Cd429 2.334 . S
N448 C447 1.332 1_554 S
N448 C452 1.328 . S
C449 C450 1.396 . S
C449 C452 1.378 . S
C449 H478 0.931 . S
C450 C449 1.396 . S
C450 C451 1.382 1_554 S
C451 C447 1.381 . S
C451 C450 1.382 1_556 S
C451 H479 0.930 . S
C452 N448 1.328 . S
C452 C449 1.378 . S
C452 H454 0.930 . S
H453 C447 0.931 . S
H454 C452 0.930 . S
C455 O466 1.238 . S
C455 O467 1.253 . S
C456 O468 1.239 . S
C456 O469 1.230 . S
N457 Cd428 2.304 . S
N457 C458 1.337 . S
N457 C462 1.338 . S
C458 N457 1.337 . S
C458 C459 1.379 . S
C458 H472 0.929 . S
C459 C458 1.379 . S
C459 C460 1.380 . S
C459 H480 0.929 . S
C460 C459 1.380 . S
C460 C461 1.399 . S
C461 C460 1.399 . S
C461 C462 1.376 . S
C461 H481 0.931 . S
C462 N457 1.338 . S
C462 C461 1.376 . S
C462 H473 0.930 . S
C463 O470 1.239 1_556 S
C463 O471 1.230 . S
O464 Cd428 2.268 . S
O464 C438 1.238 1_554 S
O465 Cd429 2.273 1_656 S
O465 C438 1.253 . S
O466 Cd429 2.268 . S
O466 C455 1.238 . S
O467 Cd428 2.273 1_455 S
O467 C455 1.253 . S
O468 Cd428 2.417 . S
O468 C456 1.239 . S
O469 Cd428 2.330 . S
O469 C456 1.230 . S
O470 Cd429 2.417 . S
O470 C463 1.239 1_554 S
O471 Cd429 2.330 1_556 S
O471 C463 1.230 . S
H472 C458 0.929 . S
H473 C462 0.930 . S
H474 C432 0.931 . S
H475 C434 0.930 . S
H476 C440 0.929 . S
H477 C442 0.931 . S
H478 C449 0.931 . S
H479 C451 0.930 . S
H480 C459 0.929 . S
H481 C461 0.931 . S
Cd482 N485 2.334 . S
Cd482 N511 2.304 . S
Cd482 O518 2.268 . S
Cd482 O521 2.273 . S
Cd482 O522 2.417 . S
Cd482 O523 2.330 . S
Cd483 N498 2.304 . S
Cd483 N502 2.334 . S
Cd483 O519 2.273 . S
Cd483 O520 2.268 1_556 S
Cd483 O524 2.417 . S
Cd483 O525 2.330 . S
C484 N485 1.332 . S
C484 C488 1.381 . S
C484 H490 0.931 . S
N485 Cd482 2.334 . S
N485 C484 1.332 . S
N485 C489 1.328 . S
C486 C487 1.396 . S
C486 C489 1.378 . S
C486 H528 0.931 . S
C487 C486 1.396 . S
C487 C488 1.382 . S
C488 C484 1.381 . S
C488 C487 1.382 . S
C488 H529 0.930 . S
C489 N485 1.328 . S
C489 C486 1.378 . S
C489 H491 0.930 . S
H490 C484 0.931 . S
H491 C489 0.930 . S
C492 O518 1.238 1_556 S
C492 O519 1.253 . S
C493 C494 1.379 . S
C493 N498 1.337 . S
C493 H499 0.929 . S
C494 C493 1.379 . S
C494 C495 1.380 . S
C494 H530 0.929 . S
C495 C494 1.380 . S
C495 C496 1.399 1_556 S
C496 C495 1.399 1_554 S
C496 C497 1.376 . S
C496 H531 0.931 . S
C497 C496 1.376 . S
C497 N498 1.338 1_554 S
C497 H500 0.930 . S
N498 Cd483 2.304 . S
N498 C493 1.337 . S
N498 C497 1.338 1_556 S
H499 C493 0.929 . S
H500 C497 0.930 . S
C501 N502 1.332 . S
C501 C505 1.381 . S
C501 H507 0.931 . S
N502 Cd483 2.334 . S
N502 C501 1.332 . S
N502 C506 1.328 1_556 S
C503 C504 1.396 . S
C503 C506 1.378 . S
C503 H532 0.931 . S
C504 C503 1.396 . S
C504 C505 1.382 1_554 S
C505 C501 1.381 . S
C505 C504 1.382 1_556 S
C505 H533 0.930 . S
C506 N502 1.328 1_554 S
C506 C503 1.378 . S
C506 H508 0.930 . S
H507 C501 0.931 . S
H508 C506 0.930 . S
C509 O520 1.238 . S
C509 O521 1.253 . S
C510 O522 1.239 . S
C510 O523 1.230 . S
N511 Cd482 2.304 . S
N511 C512 1.337 . S
N511 C516 1.338 . S
C512 N511 1.337 . S
C512 C513 1.379 . S
C512 H526 0.929 . S
C513 C512 1.379 . S
C513 C514 1.380 . S
C513 H534 0.929 . S
C514 C513 1.380 . S
C514 C515 1.399 . S
C515 C514 1.399 . S
C515 C516 1.376 . S
C515 H535 0.931 . S
C516 N511 1.338 . S
C516 C515 1.376 . S
C516 H527 0.930 . S
C517 O524 1.239 . S
C517 O525 1.230 . S
O518 Cd482 2.268 . S
O518 C492 1.238 1_554 S
O519 Cd483 2.273 . S
O519 C492 1.253 . S
O520 Cd483 2.268 1_554 S
O520 C509 1.238 . S
O521 Cd482 2.273 . S
O521 C509 1.253 . S
O522 Cd482 2.417 . S
O522 C510 1.239 . S
O523 Cd482 2.330 . S
O523 C510 1.230 . S
O524 Cd483 2.417 . S
O524 C517 1.239 . S
O525 Cd483 2.330 . S
O525 C517 1.230 . S
H526 C512 0.929 . S
H527 C516 0.930 . S
H528 C486 0.931 . S
H529 C488 0.930 . S
H530 C494 0.929 . S
H531 C496 0.931 . S
H532 C503 0.931 . S
H533 C505 0.930 . S
H534 C513 0.929 . S
H535 C515 0.931 . S
Cd536 N539 2.334 . S
Cd536 N565 2.304 1_455 S
Cd536 O572 2.268 . S
Cd536 O575 2.273 . S
Cd536 O576 2.417 1_455 S
Cd536 O577 2.330 . S
Cd537 N552 2.304 . S
Cd537 N556 2.334 . S
Cd537 O573 2.273 . S
Cd537 O574 2.268 . S
Cd537 O578 2.417 . S
Cd537 O579 2.330 . S
C538 N539 1.332 . S
C538 C542 1.381 . S
C538 H544 0.931 . S
N539 Cd536 2.334 . S
N539 C538 1.332 . S
N539 C543 1.328 . S
C540 C541 1.396 . S
C540 C543 1.378 . S
C540 H582 0.931 . S
C541 C540 1.396 . S
C541 C542 1.382 . S
C542 C538 1.381 . S
C542 C541 1.382 . S
C542 H583 0.930 . S
C543 N539 1.328 . S
C543 C540 1.378 . S
C543 H545 0.930 . S
H544 C538 0.931 . S
H545 C543 0.930 . S
C546 O572 1.238 1_655 S
C546 O573 1.253 1_655 S
C547 C548 1.379 . S
C547 N552 1.337 1_655 S
C547 H553 0.929 . S
C548 C547 1.379 . S
C548 C549 1.380 . S
C548 H584 0.929 . S
C549 C548 1.380 . S
C549 C550 1.399 1_655 S
C550 C549 1.399 1_455 S
C550 C551 1.376 . S
C550 H585 0.931 . S
C551 C550 1.376 . S
C551 N552 1.338 . S
C551 H554 0.930 . S
N552 Cd537 2.304 . S
N552 C547 1.337 1_455 S
N552 C551 1.338 . S
H553 C547 0.929 . S
H554 C551 0.930 . S
C555 N556 1.332 . S
C555 C559 1.381 . S
C555 H561 0.931 . S
N556 Cd537 2.334 . S
N556 C555 1.332 . S
N556 C560 1.328 . S
C557 C558 1.396 . S
C557 C560 1.378 . S
C557 H586 0.931 . S
C558 C557 1.396 . S
C558 C559 1.382 . S
C559 C555 1.381 . S
C559 C558 1.382 . S
C559 H587 0.930 . S
C560 N556 1.328 . S
C560 C557 1.378 . S
C560 H562 0.930 . S
H561 C555 0.931 . S
H562 C560 0.930 . S
C563 O574 1.238 . S
C563 O575 1.253 . S
C564 O576 1.239 . S
C564 O577 1.230 1_655 S
N565 Cd536 2.304 1_655 S
N565 C566 1.337 1_655 S
N565 C570 1.338 . S
C566 N565 1.337 1_455 S
C566 C567 1.379 1_455 S
C566 H580 0.929 . S
C567 C566 1.379 1_655 S
C567 C568 1.380 . S
C567 H588 0.929 . S
C568 C567 1.380 . S
C568 C569 1.399 . S
C569 C568 1.399 . S
C569 C570 1.376 . S
C569 H589 0.931 . S
C570 N565 1.338 . S
C570 C569 1.376 . S
C570 H581 0.930 . S
C571 O578 1.239 . S
C571 O579 1.230 . S
O572 Cd536 2.268 . S
O572 C546 1.238 1_455 S
O573 Cd537 2.273 . S
O573 C546 1.253 1_455 S
O574 Cd537 2.268 . S
O574 C563 1.238 . S
O575 Cd536 2.273 . S
O575 C563 1.253 . S
O576 Cd536 2.417 1_655 S
O576 C564 1.239 . S
O577 Cd536 2.330 . S
O577 C564 1.230 1_455 S
O578 Cd537 2.417 . S
O578 C571 1.239 . S
O579 Cd537 2.330 . S
O579 C571 1.230 . S
H580 C566 0.929 . S
H581 C570 0.930 . S
H582 C540 0.931 . S
H583 C542 0.930 . S
H584 C548 0.929 . S
H585 C550 0.931 . S
H586 C557 0.931 . S
H587 C559 0.930 . S
H588 C567 0.929 . S
H589 C569 0.931 . S
Cd590 N593 2.334 . S
Cd590 N619 2.304 1_565 S
Cd590 O626 2.268 . S
Cd590 O629 2.273 1_565 S
Cd590 O630 2.417 . S
Cd590 O631 2.330 . S
Cd591 N606 2.304 . S
Cd591 N610 2.334 1_545 S
Cd591 O627 2.273 1_545 S
Cd591 O628 2.268 . S
Cd591 O632 2.417 . S
Cd591 O633 2.330 . S
C592 N593 1.332 . S
C592 C596 1.381 . S
C592 H598 0.931 . S
N593 Cd590 2.334 . S
N593 C592 1.332 . S
N593 C597 1.328 . S
C594 C595 1.396 . S
C594 C597 1.378 . S
C594 H636 0.931 . S
C595 C594 1.396 . S
C595 C596 1.382 . S
C596 C592 1.381 . S
C596 C595 1.382 . S
C596 H637 0.930 . S
C597 N593 1.328 . S
C597 C594 1.378 . S
C597 H599 0.930 . S
H598 C592 0.931 . S
H599 C597 0.930 . S
C600 O626 1.238 . S
C600 O627 1.253 . S
C601 C602 1.379 . S
C601 N606 1.337 . S
C601 H607 0.929 . S
C602 C601 1.379 . S
C602 C603 1.380 . S
C602 H638 0.929 . S
C603 C602 1.380 . S
C603 C604 1.399 . S
C604 C603 1.399 . S
C604 C605 1.376 . S
C604 H639 0.931 . S
C605 C604 1.376 . S
C605 N606 1.338 . S
C605 H608 0.930 . S
N606 Cd591 2.304 . S
N606 C601 1.337 . S
N606 C605 1.338 . S
H607 C601 0.929 . S
H608 C605 0.930 . S
C609 N610 1.332 . S
C609 C613 1.381 . S
C609 H615 0.931 . S
N610 Cd591 2.334 1_565 S
N610 C609 1.332 . S
N610 C614 1.328 . S
C611 C612 1.396 . S
C611 C614 1.378 . S
C611 H640 0.931 . S
C612 C611 1.396 . S
C612 C613 1.382 . S
C613 C609 1.381 . S
C613 C612 1.382 . S
C613 H641 0.930 . S
C614 N610 1.328 . S
C614 C611 1.378 . S
C614 H616 0.930 1_565 S
H615 C609 0.931 . S
H616 C614 0.930 1_545 S
C617 O628 1.238 . S
C617 O629 1.253 . S
C618 O630 1.239 . S
C618 O631 1.230 . S
N619 Cd590 2.304 1_545 S
N619 C620 1.337 . S
N619 C624 1.338 . S
C620 N619 1.337 . S
C620 C621 1.379 . S
C620 H634 0.929 . S
C621 C620 1.379 . S
C621 C622 1.380 . S
C621 H642 0.929 . S
C622 C621 1.380 . S
C622 C623 1.399 . S
C623 C622 1.399 . S
C623 C624 1.376 . S
C623 H643 0.931 . S
C624 N619 1.338 . S
C624 C623 1.376 . S
C624 H635 0.930 1_545 S
C625 O632 1.239 . S
C625 O633 1.230 . S
O626 Cd590 2.268 . S
O626 C600 1.238 . S
O627 Cd591 2.273 1_565 S
O627 C600 1.253 . S
O628 Cd591 2.268 . S
O628 C617 1.238 . S
O629 Cd590 2.273 1_545 S
O629 C617 1.253 . S
O630 Cd590 2.417 . S
O630 C618 1.239 . S
O631 Cd590 2.330 . S
O631 C618 1.230 . S
O632 Cd591 2.417 . S
O632 C625 1.239 . S
O633 Cd591 2.330 . S
O633 C625 1.230 . S
H634 C620 0.929 . S
H635 C624 0.930 1_565 S
H636 C594 0.931 . S
H637 C596 0.930 . S
H638 C602 0.929 . S
H639 C604 0.931 . S
H640 C611 0.931 . S
H641 C613 0.930 . S
H642 C621 0.929 . S
H643 C623 0.931 . S
H644 C650 0.930 . S
H645 C654 0.930 . S
H646 C659 0.929 . S
H647 C657 0.929 . S
H648 C652 0.929 . S
H649 C658 0.929 . S
C650 H644 0.930 . S
C650 C651 1.367 . S
C650 C658 1.378 . S
C651 C650 1.367 . S
C651 C659 1.433 . S
C652 H648 0.929 . S
C652 C654 1.378 . S
C652 C656 1.350 . S
C653 C656 1.463 . S
C653 C658 1.350 . S
C653 N661 1.427 . S
C654 H645 0.930 . S
C654 C652 1.378 . S
C654 C655 1.367 . S
C655 C654 1.367 . S
C655 C657 1.433 . S
C656 C652 1.350 . S
C656 C653 1.463 . S
C656 N660 1.427 . S
C657 H647 0.929 . S
C657 C655 1.433 . S
C657 N660 1.384 . S
C658 H649 0.929 . S
C658 C650 1.378 . S
C658 C653 1.350 . S
C659 H646 0.929 . S
C659 C651 1.433 . S
C659 N661 1.384 . S
N660 C656 1.427 . S
N660 C657 1.384 . S
N661 C653 1.427 . S
N661 C659 1.384 . S
H662 C668 0.930 . S
H663 C672 0.930 . S
H664 C677 0.929 . S
H665 C675 0.929 . S
H666 C670 0.929 . S
H667 C676 0.929 . S
C668 H662 0.930 . S
C668 C669 1.367 . S
C668 C676 1.378 . S
C669 C668 1.367 . S
C669 C677 1.433 . S
C670 H666 0.929 . S
C670 C672 1.378 . S
C670 C674 1.350 . S
C671 C674 1.463 . S
C671 C676 1.350 . S
C671 N679 1.427 . S
C672 H663 0.930 . S
C672 C670 1.378 . S
C672 C673 1.367 . S
C673 C672 1.367 . S
C673 C675 1.433 . S
C674 C670 1.350 . S
C674 C671 1.463 . S
C674 N678 1.427 . S
C675 H665 0.929 . S
C675 C673 1.433 . S
C675 N678 1.384 . S
C676 H667 0.929 . S
C676 C668 1.378 . S
C676 C671 1.350 . S
C677 H664 0.929 . S
C677 C669 1.433 . S
C677 N679 1.384 . S
N678 C674 1.427 . S
N678 C675 1.384 . S
N679 C671 1.427 . S
N679 C677 1.384 . S
H680 C686 0.930 . S
H681 C690 0.930 . S
H682 C695 0.929 . S
H683 C693 0.929 . S
H684 C688 0.929 . S
H685 C694 0.929 . S
C686 H680 0.930 . S
C686 C687 1.367 . S
C686 C694 1.378 . S
C687 C686 1.367 . S
C687 C695 1.433 . S
C688 H684 0.929 . S
C688 C690 1.378 . S
C688 C692 1.350 . S
C689 C692 1.463 . S
C689 C694 1.350 . S
C689 N697 1.427 . S
C690 H681 0.930 . S
C690 C688 1.378 . S
C690 C691 1.367 . S
C691 C690 1.367 . S
C691 C693 1.433 . S
C692 C688 1.350 . S
C692 C689 1.463 . S
C692 N696 1.427 . S
C693 H683 0.929 . S
C693 C691 1.433 . S
C693 N696 1.384 . S
C694 H685 0.929 . S
C694 C686 1.378 . S
C694 C689 1.350 . S
C695 H682 0.929 . S
C695 C687 1.433 . S
C695 N697 1.384 . S
N696 C692 1.427 . S
N696 C693 1.384 . S
N697 C689 1.427 . S
N697 C695 1.384 . S
H698 C704 0.930 . S
H699 C708 0.930 . S
H700 C713 0.929 . S
H701 C711 0.929 . S
H702 C706 0.929 . S
H703 C712 0.929 . S
C704 H698 0.930 . S
C704 C705 1.367 . S
C704 C712 1.378 . S
C705 C704 1.367 . S
C705 C713 1.433 . S
C706 H702 0.929 . S
C706 C708 1.378 . S
C706 C710 1.350 . S
C707 C710 1.463 . S
C707 C712 1.350 . S
C707 N715 1.427 . S
C708 H699 0.930 . S
C708 C706 1.378 . S
C708 C709 1.367 . S
C709 C708 1.367 . S
C709 C711 1.433 . S
C710 C706 1.350 . S
C710 C707 1.463 . S
C710 N714 1.427 . S
C711 H701 0.929 . S
C711 C709 1.433 . S
C711 N714 1.384 . S
C712 H703 0.929 . S
C712 C704 1.378 . S
C712 C707 1.350 . S
C713 H700 0.929 . S
C713 C705 1.433 . S
C713 N715 1.384 . S
N714 C710 1.427 . S
N714 C711 1.384 . S
N715 C707 1.427 . S
N715 C713 1.384 . S
H716 C722 0.930 . S
H717 C726 0.930 . S
H718 C731 0.929 . S
H719 C729 0.929 . S
H720 C724 0.929 . S
H721 C730 0.929 . S
C722 H716 0.930 . S
C722 C723 1.367 . S
C722 C730 1.378 . S
C723 C722 1.367 . S
C723 C731 1.433 . S
C724 H720 0.929 . S
C724 C726 1.378 . S
C724 C728 1.350 . S
C725 C728 1.463 . S
C725 C730 1.350 . S
C725 N733 1.427 . S
C726 H717 0.930 . S
C726 C724 1.378 . S
C726 C727 1.367 . S
C727 C726 1.367 . S
C727 C729 1.433 . S
C728 C724 1.350 . S
C728 C725 1.463 . S
C728 N732 1.427 . S
C729 H719 0.929 . S
C729 C727 1.433 . S
C729 N732 1.384 . S
C730 H721 0.929 . S
C730 C722 1.378 . S
C730 C725 1.350 . S
C731 H718 0.929 . S
C731 C723 1.433 . S
C731 N733 1.384 . S
N732 C728 1.427 . S
N732 C729 1.384 . S
N733 C725 1.427 . S
N733 C731 1.384 . S
H734 C740 0.930 . S
H735 C744 0.930 . S
H736 C749 0.929 . S
H737 C747 0.929 . S
H738 C742 0.929 . S
H739 C748 0.929 . S
C740 H734 0.930 . S
C740 C741 1.367 . S
C740 C748 1.378 . S
C741 C740 1.367 . S
C741 C749 1.433 . S
C742 H738 0.929 . S
C742 C744 1.378 . S
C742 C746 1.350 . S
C743 C746 1.463 . S
C743 C748 1.350 . S
C743 N751 1.427 . S
C744 H735 0.930 . S
C744 C742 1.378 . S
C744 C745 1.367 . S
C745 C744 1.367 . S
C745 C747 1.433 . S
C746 C742 1.350 . S
C746 C743 1.463 . S
C746 N750 1.427 . S
C747 H737 0.929 . S
C747 C745 1.433 . S
C747 N750 1.384 . S
C748 H739 0.929 . S
C748 C740 1.378 . S
C748 C743 1.350 . S
C749 H736 0.929 . S
C749 C741 1.433 . S
C749 N751 1.384 . S
N750 C746 1.427 . S
N750 C747 1.384 . S
N751 C743 1.427 . S
N751 C749 1.384 . S
H752 C758 0.930 . S
H753 C762 0.930 . S
H754 C767 0.929 . S
H755 C765 0.929 . S
H756 C760 0.929 . S
H757 C766 0.929 . S
C758 H752 0.930 . S
C758 C759 1.367 . S
C758 C766 1.378 . S
C759 C758 1.367 . S
C759 C767 1.433 . S
C760 H756 0.929 . S
C760 C762 1.378 . S
C760 C764 1.350 . S
C761 C764 1.463 . S
C761 C766 1.350 . S
C761 N769 1.427 . S
C762 H753 0.930 . S
C762 C760 1.378 . S
C762 C763 1.367 . S
C763 C762 1.367 . S
C763 C765 1.433 . S
C764 C760 1.350 . S
C764 C761 1.463 . S
C764 N768 1.427 . S
C765 H755 0.929 . S
C765 C763 1.433 . S
C765 N768 1.384 . S
C766 H757 0.929 . S
C766 C758 1.378 . S
C766 C761 1.350 . S
C767 H754 0.929 . S
C767 C759 1.433 . S
C767 N769 1.384 . S
N768 C764 1.427 . S
N768 C765 1.384 . S
N769 C761 1.427 . S
N769 C767 1.384 . S
H770 C776 0.930 . S
H771 C780 0.930 . S
H772 C785 0.929 . S
H773 C783 0.929 . S
H774 C778 0.929 . S
H775 C784 0.929 . S
C776 H770 0.930 . S
C776 C777 1.367 . S
C776 C784 1.378 . S
C777 C776 1.367 . S
C777 C785 1.433 . S
C778 H774 0.929 . S
C778 C780 1.378 . S
C778 C782 1.350 . S
C779 C782 1.463 . S
C779 C784 1.350 . S
C779 N787 1.427 . S
C780 H771 0.930 . S
C780 C778 1.378 . S
C780 C781 1.367 . S
C781 C780 1.367 . S
C781 C783 1.433 . S
C782 C778 1.350 . S
C782 C779 1.463 . S
C782 N786 1.427 . S
C783 H773 0.929 . S
C783 C781 1.433 . S
C783 N786 1.384 . S
C784 H775 0.929 . S
C784 C776 1.378 . S
C784 C779 1.350 . S
C785 H772 0.929 . S
C785 C777 1.433 . S
C785 N787 1.384 . S
N786 C782 1.427 . S
N786 C783 1.384 . S
N787 C779 1.427 . S
N787 C785 1.384 . S
H788 C794 0.930 . S
H789 C798 0.930 . S
H790 C803 0.929 . S
H791 C801 0.929 . S
H792 C796 0.929 . S
H793 C802 0.929 . S
C794 H788 0.930 . S
C794 C795 1.367 . S
C794 C802 1.378 . S
C795 C794 1.367 . S
C795 C803 1.433 . S
C796 H792 0.929 . S
C796 C798 1.378 . S
C796 C800 1.350 . S
C797 C800 1.463 . S
C797 C802 1.350 . S
C797 N805 1.427 . S
C798 H789 0.930 . S
C798 C796 1.378 . S
C798 C799 1.367 . S
C799 C798 1.367 . S
C799 C801 1.433 . S
C800 C796 1.350 . S
C800 C797 1.463 . S
C800 N804 1.427 . S
C801 H791 0.929 . S
C801 C799 1.433 . S
C801 N804 1.384 . S
C802 H793 0.929 . S
C802 C794 1.378 . S
C802 C797 1.350 . S
C803 H790 0.929 . S
C803 C795 1.433 . S
C803 N805 1.384 . S
N804 C800 1.427 . S
N804 C801 1.384 . S
N805 C797 1.427 . S
N805 C803 1.384 . S
H806 C812 0.930 . S
H807 C816 0.930 . S
H808 C821 0.929 . S
H809 C819 0.943 . S
H810 C814 0.929 . S
H811 C820 0.929 . S
C812 H806 0.930 . S
C812 C813 1.367 . S
C812 C820 1.378 . S
C813 C812 1.367 . S
C813 C821 1.433 . S
C814 H810 0.929 . S
C814 C816 1.378 . S
C814 C818 1.350 . S
C815 C818 1.463 . S
C815 C820 1.350 . S
C815 N823 1.427 . S
C816 H807 0.930 . S
C816 C814 1.378 . S
C816 C817 1.367 . S
C817 C816 1.367 . S
C817 C819 1.433 . S
C818 C814 1.350 . S
C818 C815 1.463 . S
C818 N822 1.427 . S
C819 H809 0.943 . S
C819 C817 1.433 . S
C819 N822 1.384 . S
C820 H811 0.929 . S
C820 C812 1.378 . S
C820 C815 1.350 . S
C821 H808 0.929 . S
C821 C813 1.433 . S
C821 N823 1.384 . S
N822 C818 1.427 . S
N822 C819 1.384 . S
N823 C815 1.427 . S
N823 C821 1.384 . S
H824 C830 0.930 . S
H825 C834 0.930 . S
H826 C839 0.929 . S
H827 C837 0.929 . S
H828 C832 0.929 . S
H829 C838 0.929 . S
C830 H824 0.930 . S
C830 C831 1.367 . S
C830 C838 1.378 . S
C831 C830 1.367 . S
C831 C839 1.433 . S
C832 H828 0.929 . S
C832 C834 1.378 . S
C832 C836 1.350 . S
C833 C836 1.463 . S
C833 C838 1.350 . S
C833 N841 1.427 . S
C834 H825 0.930 . S
C834 C832 1.378 . S
C834 C835 1.367 . S
C835 C834 1.367 . S
C835 C837 1.433 . S
C836 C832 1.350 . S
C836 C833 1.463 . S
C836 N840 1.427 . S
C837 H827 0.929 . S
C837 C835 1.433 . S
C837 N840 1.384 . S
C838 H829 0.929 . S
C838 C830 1.378 . S
C838 C833 1.350 . S
C839 H826 0.929 . S
C839 C831 1.433 . S
C839 N841 1.384 . S
N840 C836 1.427 . S
N840 C837 1.384 . S
N841 C833 1.427 . S
N841 C839 1.384 . S
H842 C848 0.930 . S
H843 C852 0.930 . S
H844 C857 0.929 . S
H845 C855 0.929 . S
H846 C850 0.929 . S
H847 C856 0.929 . S
C848 H842 0.930 . S
C848 C849 1.367 . S
C848 C856 1.378 . S
C849 C848 1.367 . S
C849 C857 1.433 . S
C850 H846 0.929 . S
C850 C852 1.378 . S
C850 C854 1.350 . S
C851 C854 1.463 . S
C851 C856 1.350 . S
C851 N859 1.427 . S
C852 H843 0.930 . S
C852 C850 1.378 . S
C852 C853 1.367 . S
C853 C852 1.367 . S
C853 C855 1.433 . S
C854 C850 1.350 . S
C854 C851 1.463 . S
C854 N858 1.427 . S
C855 H845 0.929 . S
C855 C853 1.433 . S
C855 N858 1.384 . S
C856 H847 0.929 . S
C856 C848 1.378 . S
C856 C851 1.350 . S
C857 H844 0.929 . S
C857 C849 1.433 . S
C857 N859 1.384 . S
N858 C854 1.427 . S
N858 C855 1.384 . S
N859 C851 1.427 . S
N859 C857 1.384 . S
H860 C866 0.930 . S
H861 C870 0.930 . S
H862 C875 0.929 . S
H863 C873 0.929 . S
H864 C868 0.929 . S
H865 C874 0.929 . S
C866 H860 0.930 . S
C866 C867 1.367 . S
C866 C874 1.378 . S
C867 C866 1.367 . S
C867 C875 1.433 . S
C868 H864 0.929 . S
C868 C870 1.378 . S
C868 C872 1.350 . S
C869 C872 1.463 . S
C869 C874 1.350 . S
C869 N877 1.427 . S
C870 H861 0.930 . S
C870 C868 1.378 . S
C870 C871 1.367 . S
C871 C870 1.367 . S
C871 C873 1.433 . S
C872 C868 1.350 . S
C872 C869 1.463 . S
C872 N876 1.427 . S
C873 H863 0.929 . S
C873 C871 1.433 . S
C873 N876 1.384 . S
C874 H865 0.929 . S
C874 C866 1.378 . S
C874 C869 1.350 . S
C875 H862 0.929 . S
C875 C867 1.433 . S
C875 N877 1.384 . S
N876 C872 1.427 . S
N876 C873 1.384 . S
N877 C869 1.427 . S
N877 C875 1.384 . S
H878 C884 0.930 . S
H879 C888 0.930 . S
H880 C893 0.929 . S
H881 C891 0.929 . S
H882 C886 0.929 . S
H883 C892 0.929 . S
C884 H878 0.930 . S
C884 C885 1.367 . S
C884 C892 1.378 . S
C885 C884 1.367 . S
C885 C893 1.433 . S
C886 H882 0.929 . S
C886 C888 1.378 . S
C886 C890 1.350 . S
C887 C890 1.463 . S
C887 C892 1.350 . S
C887 N895 1.427 . S
C888 H879 0.930 . S
C888 C886 1.378 . S
C888 C889 1.367 1_556 S
C889 C888 1.367 1_554 S
C889 C891 1.433 . S
C890 C886 1.350 . S
C890 C887 1.463 . S
C890 N894 1.427 1_556 S
C891 H881 0.929 . S
C891 C889 1.433 . S
C891 N894 1.384 . S
C892 H883 0.929 . S
C892 C884 1.378 . S
C892 C887 1.350 . S
C893 H880 0.929 . S
C893 C885 1.433 . S
C893 N895 1.384 . S
N894 C890 1.427 1_554 S
N894 C891 1.384 . S
N895 C887 1.427 . S
N895 C893 1.384 . S
H896 C902 0.930 . S
H897 C906 0.930 . S
H898 C911 0.929 . S
H899 C909 0.929 . S
H900 C904 0.929 . S
H901 C910 0.929 . S
C902 H896 0.930 . S
C902 C903 1.367 . S
C902 C910 1.378 . S
C903 C902 1.367 . S
C903 C911 1.433 . S
C904 H900 0.929 . S
C904 C906 1.378 . S
C904 C908 1.350 . S
C905 C908 1.463 . S
C905 C910 1.350 . S
C905 N913 1.427 . S
C906 H897 0.930 . S
C906 C904 1.378 . S
C906 C907 1.367 . S
C907 C906 1.367 . S
C907 C909 1.433 . S
C908 C904 1.350 . S
C908 C905 1.463 . S
C908 N912 1.427 . S
C909 H899 0.929 . S
C909 C907 1.433 . S
C909 N912 1.384 . S
C910 H901 0.929 . S
C910 C902 1.378 . S
C910 C905 1.350 . S
C911 H898 0.929 . S
C911 C903 1.433 . S
C911 N913 1.384 . S
N912 C908 1.427 . S
N912 C909 1.384 . S
N913 C905 1.427 . S
N913 C911 1.384 . S
H914 C920 0.930 . S
H915 C924 0.930 . S
H916 C929 0.929 . S
H917 C927 0.929 1_554 S
H918 C922 0.929 . S
H919 C928 0.929 . S
C920 H914 0.930 . S
C920 C921 1.367 . S
C920 C928 1.378 . S
C921 C920 1.367 . S
C921 C929 1.433 . S
C922 H918 0.929 . S
C922 C924 1.378 . S
C922 C926 1.350 . S
C923 C926 1.463 . S
C923 C928 1.350 . S
C923 N931 1.427 . S
C924 H915 0.930 . S
C924 C922 1.378 . S
C924 C925 1.367 . S
C925 C924 1.367 . S
C925 C927 1.433 . S
C926 C922 1.350 . S
C926 C923 1.463 . S
C926 N930 1.427 . S
C927 H917 0.929 1_556 S
C927 C925 1.433 . S
C927 N930 1.384 . S
C928 H919 0.929 . S
C928 C920 1.378 . S
C928 C923 1.350 . S
C929 H916 0.929 . S
C929 C921 1.433 . S
C929 N931 1.384 . S
N930 C926 1.427 . S
N930 C927 1.384 . S
N931 C923 1.427 . S
N931 C929 1.384 . S
H932 C938 0.930 . S
H933 C942 0.930 . S
H934 C947 0.929 . S
H935 C945 0.929 . S
H936 C940 0.929 . S
H937 C946 0.929 . S
C938 H932 0.930 . S
C938 C939 1.367 . S
C938 C946 1.378 . S
C939 C938 1.367 . S
C939 C947 1.433 . S
C940 H936 0.929 . S
C940 C942 1.378 . S
C940 C944 1.350 . S
C941 C944 1.463 . S
C941 C946 1.350 . S
C941 N949 1.427 . S
C942 H933 0.930 . S
C942 C940 1.378 . S
C942 C943 1.367 . S
C943 C942 1.367 . S
C943 C945 1.433 . S
C944 C940 1.350 . S
C944 C941 1.463 . S
C944 N948 1.427 . S
C945 H935 0.929 . S
C945 C943 1.433 . S
C945 N948 1.384 . S
C946 H937 0.929 . S
C946 C938 1.378 . S
C946 C941 1.350 . S
C947 H934 0.929 . S
C947 C939 1.433 . S
C947 N949 1.384 . S
N948 C944 1.427 . S
N948 C945 1.384 . S
N949 C941 1.427 . S
N949 C947 1.384 . S
H950 C956 0.930 1_554 S
H951 C960 0.930 . S
H952 C965 0.929 . S
H953 C963 0.929 1_554 S
H954 C958 0.929 . S
H955 C964 0.929 1_554 S
C956 H950 0.930 1_556 S
C956 C957 1.367 . S
C956 C964 1.378 . S
C957 C956 1.367 . S
C957 C965 1.433 . S
C958 H954 0.929 . S
C958 C960 1.378 . S
C958 C962 1.350 . S
C959 C962 1.463 . S
C959 C964 1.350 . S
C959 N967 1.427 . S
C960 H951 0.930 . S
C960 C958 1.378 . S
C960 C961 1.367 . S
C961 C960 1.367 . S
C961 C963 1.433 . S
C962 C958 1.350 . S
C962 C959 1.463 . S
C962 N966 1.427 . S
C963 H953 0.929 1_556 S
C963 C961 1.433 . S
C963 N966 1.384 . S
C964 H955 0.929 1_556 S
C964 C956 1.378 . S
C964 C959 1.350 . S
C965 H952 0.929 . S
C965 C957 1.433 . S
C965 N967 1.384 . S
N966 C962 1.427 . S
N966 C963 1.384 . S
N967 C959 1.427 . S
N967 C965 1.384 . S
H968 C974 0.930 . S
H969 C978 0.930 . S
H970 C983 0.929 . S
H971 C981 0.929 . S
H972 C976 0.929 . S
H973 C982 0.929 . S
C974 H968 0.930 . S
C974 C975 1.367 . S
C974 C982 1.378 . S
C975 C974 1.367 . S
C975 C983 1.433 . S
C976 H972 0.929 . S
C976 C978 1.378 . S
C976 C980 1.350 . S
C977 C980 1.463 . S
C977 C982 1.350 . S
C977 N985 1.427 . S
C978 H969 0.930 . S
C978 C976 1.378 . S
C978 C979 1.367 . S
C979 C978 1.367 . S
C979 C981 1.433 . S
C980 C976 1.350 . S
C980 C977 1.463 . S
C980 N984 1.427 . S
C981 H971 0.929 . S
C981 C979 1.433 . S
C981 N984 1.384 . S
C982 H973 0.929 . S
C982 C974 1.378 . S
C982 C977 1.350 . S
C983 H970 0.929 . S
C983 C975 1.433 . S
C983 N985 1.384 . S
N984 C980 1.427 . S
N984 C981 1.384 . S
N985 C977 1.427 . S
N985 C983 1.384 . S
H986 C992 0.930 . S
H987 C996 0.930 . S
H988 C1001 0.929 . S
H989 C999 0.929 1_554 S
H990 C994 0.929 . S
H991 C1000 0.929 . S
C992 H986 0.930 . S
C992 C993 1.367 . S
C992 C1000 1.378 . S
C993 C992 1.367 . S
C993 C1001 1.433 . S
C994 H990 0.929 . S
C994 C996 1.378 . S
C994 C998 1.350 . S
C995 C998 1.463 . S
C995 C1000 1.350 . S
C995 N1003 1.427 . S
C996 H987 0.930 . S
C996 C994 1.378 . S
C996 C997 1.367 . S
C997 C996 1.367 . S
C997 C999 1.433 . S
C998 C994 1.350 . S
C998 C995 1.463 . S
C998 N1002 1.427 . S
C999 H989 0.929 1_556 S
C999 C997 1.433 . S
C999 N1002 1.384 . S
C1000 H991 0.929 . S
C1000 C992 1.378 . S
C1000 C995 1.350 . S
C1001 H988 0.929 . S
C1001 C993 1.433 . S
C1001 N1003 1.384 . S
N1002 C998 1.427 . S
N1002 C999 1.384 . S
N1003 C995 1.427 . S
N1003 C1001 1.384 . S
H1004 C1010 0.930 . S
H1005 C1014 0.930 1_554 S
H1006 C1019 0.929 . S
H1007 C1017 0.929 . S
H1008 C1012 0.929 . S
H1009 C1018 0.929 . S
C1010 H1004 0.930 . S
C1010 C1011 1.367 . S
C1010 C1018 1.378 . S
C1011 C1010 1.367 . S
C1011 C1019 1.433 . S
C1012 H1008 0.929 . S
C1012 C1014 1.378 . S
C1012 C1016 1.350 . S
C1013 C1016 1.463 . S
C1013 C1018 1.350 . S
C1013 N1021 1.427 . S
C1014 H1005 0.930 1_556 S
C1014 C1012 1.378 . S
C1014 C1015 1.367 . S
C1015 C1014 1.367 . S
C1015 C1017 1.433 . S
C1016 C1012 1.350 . S
C1016 C1013 1.463 . S
C1016 N1020 1.427 . S
C1017 H1007 0.929 . S
C1017 C1015 1.433 . S
C1017 N1020 1.384 . S
C1018 H1009 0.929 . S
C1018 C1010 1.378 . S
C1018 C1013 1.350 . S
C1019 H1006 0.929 . S
C1019 C1011 1.433 . S
C1019 N1021 1.384 . S
N1020 C1016 1.427 . S
N1020 C1017 1.384 . S
N1021 C1013 1.427 . S
N1021 C1019 1.384 . S
H1022 C1028 0.930 . S
H1023 C1032 0.930 . S
H1024 C1037 0.929 . S
H1025 C1035 0.929 . S
H1026 C1030 0.929 . S
H1027 C1036 0.929 . S
C1028 H1022 0.930 . S
C1028 C1029 1.367 . S
C1028 C1036 1.378 . S
C1029 C1028 1.367 . S
C1029 C1037 1.433 . S
C1030 H1026 0.929 . S
C1030 C1032 1.378 . S
C1030 C1034 1.350 . S
C1031 C1034 1.463 . S
C1031 C1036 1.350 . S
C1031 N1039 1.427 . S
C1032 H1023 0.930 . S
C1032 C1030 1.378 . S
C1032 C1033 1.367 . S
C1033 C1032 1.367 . S
C1033 C1035 1.433 . S
C1034 C1030 1.350 . S
C1034 C1031 1.463 . S
C1034 N1038 1.427 . S
C1035 H1025 0.929 . S
C1035 C1033 1.433 . S
C1035 N1038 1.384 . S
C1036 H1027 0.929 . S
C1036 C1028 1.378 . S
C1036 C1031 1.350 . S
C1037 H1024 0.929 . S
C1037 C1029 1.433 . S
C1037 N1039 1.384 . S
N1038 C1034 1.427 . S
N1038 C1035 1.384 . S
N1039 C1031 1.427 . S
N1039 C1037 1.384 . S
H1040 C1046 0.930 . S
H1041 C1050 0.930 . S
H1042 C1055 0.929 . S
H1043 C1053 0.929 . S
H1044 C1048 0.929 . S
H1045 C1054 0.929 . S
C1046 H1040 0.930 . S
C1046 C1047 1.367 . S
C1046 C1054 1.378 . S
C1047 C1046 1.367 . S
C1047 C1055 1.433 . S
C1048 H1044 0.929 . S
C1048 C1050 1.378 . S
C1048 C1052 1.350 . S
C1049 C1052 1.463 . S
C1049 C1054 1.350 . S
C1049 N1057 1.427 . S
C1050 H1041 0.930 . S
C1050 C1048 1.378 . S
C1050 C1051 1.367 . S
C1051 C1050 1.367 . S
C1051 C1053 1.433 . S
C1052 C1048 1.350 . S
C1052 C1049 1.463 . S
C1052 N1056 1.427 . S
C1053 H1043 0.929 . S
C1053 C1051 1.433 . S
C1053 N1056 1.384 . S
C1054 H1045 0.929 . S
C1054 C1046 1.378 . S
C1054 C1049 1.350 . S
C1055 H1042 0.929 . S
C1055 C1047 1.433 . S
C1055 N1057 1.384 . S
N1056 C1052 1.427 . S
N1056 C1053 1.384 . S
N1057 C1049 1.427 . S
N1057 C1055 1.384 . S
H1058 C1064 0.930 . S
H1059 C1068 0.930 . S
H1060 C1073 0.929 . S
H1061 C1071 0.929 . S
H1062 C1066 0.929 . S
H1063 C1072 0.929 . S
C1064 H1058 0.930 . S
C1064 C1065 1.367 . S
C1064 C1072 1.378 . S
C1065 C1064 1.367 . S
C1065 C1073 1.433 . S
C1066 H1062 0.929 . S
C1066 C1068 1.378 . S
C1066 C1070 1.350 . S
C1067 C1070 1.463 . S
C1067 C1072 1.350 . S
C1067 N1075 1.427 . S
C1068 H1059 0.930 . S
C1068 C1066 1.378 . S
C1068 C1069 1.367 . S
C1069 C1068 1.367 . S
C1069 C1071 1.433 . S
C1070 C1066 1.350 . S
C1070 C1067 1.463 . S
C1070 N1074 1.427 . S
C1071 H1061 0.929 . S
C1071 C1069 1.433 . S
C1071 N1074 1.384 . S
C1072 H1063 0.929 . S
C1072 C1064 1.378 . S
C1072 C1067 1.350 . S
C1073 H1060 0.929 . S
C1073 C1065 1.433 . S
C1073 N1075 1.384 . S
N1074 C1070 1.427 . S
N1074 C1071 1.384 . S
N1075 C1067 1.427 . S
N1075 C1073 1.384 . S
H1076 C1082 0.930 . S
H1077 C1086 0.930 . S
H1078 C1091 0.929 . S
H1079 C1089 0.929 . S
H1080 C1084 0.929 . S
H1081 C1090 0.929 . S
C1082 H1076 0.930 . S
C1082 C1083 1.367 . S
C1082 C1090 1.378 . S
C1083 C1082 1.367 . S
C1083 C1091 1.433 . S
C1084 H1080 0.929 . S
C1084 C1086 1.378 . S
C1084 C1088 1.350 . S
C1085 C1088 1.463 . S
C1085 C1090 1.350 . S
C1085 N1093 1.427 . S
C1086 H1077 0.930 . S
C1086 C1084 1.378 . S
C1086 C1087 1.367 . S
C1087 C1086 1.367 . S
C1087 C1089 1.433 . S
C1088 C1084 1.350 . S
C1088 C1085 1.463 . S
C1088 N1092 1.427 . S
C1089 H1079 0.929 . S
C1089 C1087 1.433 . S
C1089 N1092 1.384 . S
C1090 H1081 0.929 . S
C1090 C1082 1.378 . S
C1090 C1085 1.350 . S
C1091 H1078 0.929 . S
C1091 C1083 1.433 . S
C1091 N1093 1.384 . S
N1092 C1088 1.427 . S
N1092 C1089 1.384 . S
N1093 C1085 1.427 . S
N1093 C1091 1.384 . S
H1094 C1100 0.930 . S
H1095 C1104 0.930 . S
H1096 C1109 0.929 . S
H1097 C1107 0.929 . S
H1098 C1102 0.929 . S
H1099 C1108 0.929 . S
C1100 H1094 0.930 . S
C1100 C1101 1.367 . S
C1100 C1108 1.378 . S
C1101 C1100 1.367 . S
C1101 C1109 1.433 . S
C1102 H1098 0.929 . S
C1102 C1104 1.378 . S
C1102 C1106 1.350 . S
C1103 C1106 1.463 . S
C1103 C1108 1.350 . S
C1103 N1111 1.427 . S
C1104 H1095 0.930 . S
C1104 C1102 1.378 . S
C1104 C1105 1.367 . S
C1105 C1104 1.367 . S
C1105 C1107 1.433 . S
C1106 C1102 1.350 . S
C1106 C1103 1.463 . S
C1106 N1110 1.427 . S
C1107 H1097 0.929 . S
C1107 C1105 1.433 . S
C1107 N1110 1.384 . S
C1108 H1099 0.929 . S
C1108 C1100 1.378 . S
C1108 C1103 1.350 . S
C1109 H1096 0.929 . S
C1109 C1101 1.433 . S
C1109 N1111 1.384 . S
N1110 C1106 1.427 . S
N1110 C1107 1.384 . S
N1111 C1103 1.427 . S
N1111 C1109 1.384 . S
H1112 C1118 0.930 . S
H1113 C1122 0.930 . S
H1114 C1127 0.929 . S
H1115 C1125 0.929 . S
H1116 C1120 0.929 . S
H1117 C1126 0.929 . S
C1118 H1112 0.930 . S
C1118 C1119 1.367 . S
C1118 C1126 1.378 . S
C1119 C1118 1.367 . S
C1119 C1127 1.433 . S
C1120 H1116 0.929 . S
C1120 C1122 1.378 . S
C1120 C1124 1.350 . S
C1121 C1124 1.463 . S
C1121 C1126 1.350 . S
C1121 N1129 1.427 . S
C1122 H1113 0.930 . S
C1122 C1120 1.378 . S
C1122 C1123 1.367 . S
C1123 C1122 1.367 . S
C1123 C1125 1.433 . S
C1124 C1120 1.350 . S
C1124 C1121 1.463 . S
C1124 N1128 1.427 . S
C1125 H1115 0.929 . S
C1125 C1123 1.433 . S
C1125 N1128 1.384 . S
C1126 H1117 0.929 . S
C1126 C1118 1.378 . S
C1126 C1121 1.350 . S
C1127 H1114 0.929 . S
C1127 C1119 1.433 . S
C1127 N1129 1.384 . S
N1128 C1124 1.427 . S
N1128 C1125 1.384 . S
N1129 C1121 1.427 . S
N1129 C1127 1.384 . S
H1130 C1136 0.930 . S
H1131 C1140 0.930 . S
H1132 C1145 0.929 . S
H1133 C1143 0.929 . S
H1134 C1138 0.929 . S
H1135 C1144 0.929 . S
C1136 H1130 0.930 . S
C1136 C1137 1.367 . S
C1136 C1144 1.378 . S
C1137 C1136 1.367 . S
C1137 C1145 1.433 . S
C1138 H1134 0.929 . S
C1138 C1140 1.378 1_556 S
C1138 C1142 1.350 . S
C1139 C1142 1.463 . S
C1139 C1144 1.350 . S
C1139 N1147 1.427 . S
C1140 H1131 0.930 . S
C1140 C1138 1.378 1_554 S
C1140 C1141 1.367 1_554 S
C1141 C1140 1.367 1_556 S
C1141 C1143 1.433 . S
C1142 C1138 1.350 . S
C1142 C1139 1.463 . S
C1142 N1146 1.427 . S
C1143 H1133 0.929 . S
C1143 C1141 1.433 . S
C1143 N1146 1.384 . S
C1144 H1135 0.929 . S
C1144 C1136 1.378 . S
C1144 C1139 1.350 . S
C1145 H1132 0.929 . S
C1145 C1137 1.433 . S
C1145 N1147 1.384 . S
N1146 C1142 1.427 . S
N1146 C1143 1.384 . S
N1147 C1139 1.427 . S
N1147 C1145 1.384 . S
H1148 C1154 0.930 . S
H1149 C1158 0.930 . S
H1150 C1163 0.929 . S
H1151 C1161 0.929 . S
H1152 C1156 0.929 . S
H1153 C1162 0.929 . S
C1154 H1148 0.930 . S
C1154 C1155 1.367 . S
C1154 C1162 1.378 . S
C1155 C1154 1.367 . S
C1155 C1163 1.433 . S
C1156 H1152 0.929 . S
C1156 C1158 1.378 . S
C1156 C1160 1.350 . S
C1157 C1160 1.463 . S
C1157 C1162 1.350 . S
C1157 N1165 1.427 . S
C1158 H1149 0.930 . S
C1158 C1156 1.378 . S
C1158 C1159 1.367 . S
C1159 C1158 1.367 . S
C1159 C1161 1.433 . S
C1160 C1156 1.350 . S
C1160 C1157 1.463 . S
C1160 N1164 1.427 . S
C1161 H1151 0.929 . S
C1161 C1159 1.433 . S
C1161 N1164 1.384 . S
C1162 H1153 0.929 . S
C1162 C1154 1.378 . S
C1162 C1157 1.350 . S
C1163 H1150 0.929 . S
C1163 C1155 1.433 . S
C1163 N1165 1.384 . S
N1164 C1160 1.427 . S
N1164 C1161 1.384 . S
N1165 C1157 1.427 . S
N1165 C1163 1.384 . S
H1166 C1172 0.930 . S
H1167 C1176 0.930 . S
H1168 C1181 0.929 . S
H1169 C1179 0.929 . S
H1170 C1174 0.929 . S
H1171 C1180 0.929 . S
C1172 H1166 0.930 . S
C1172 C1173 1.367 . S
C1172 C1180 1.378 . S
C1173 C1172 1.367 . S
C1173 C1181 1.433 . S
C1174 H1170 0.929 . S
C1174 C1176 1.378 . S
C1174 C1178 1.350 . S
C1175 C1178 1.463 . S
C1175 C1180 1.350 . S
C1175 N1183 1.427 . S
C1176 H1167 0.930 . S
C1176 C1174 1.378 . S
C1176 C1177 1.367 . S
C1177 C1176 1.367 . S
C1177 C1179 1.433 . S
C1178 C1174 1.350 . S
C1178 C1175 1.463 . S
C1178 N1182 1.427 . S
C1179 H1169 0.929 . S
C1179 C1177 1.433 . S
C1179 N1182 1.384 . S
C1180 H1171 0.929 . S
C1180 C1172 1.378 . S
C1180 C1175 1.350 . S
C1181 H1168 0.929 . S
C1181 C1173 1.433 . S
C1181 N1183 1.384 . S
N1182 C1178 1.427 . S
N1182 C1179 1.384 . S
N1183 C1175 1.427 . S
N1183 C1181 1.384 . S
H1184 C1190 0.930 . S
H1185 C1194 0.930 . S
H1186 C1199 0.929 . S
H1187 C1197 0.929 . S
H1188 C1192 0.929 . S
H1189 C1198 0.929 . S
C1190 H1184 0.930 . S
C1190 C1191 1.367 . S
C1190 C1198 1.378 . S
C1191 C1190 1.367 . S
C1191 C1199 1.433 . S
C1192 H1188 0.929 . S
C1192 C1194 1.378 . S
C1192 C1196 1.350 . S
C1193 C1196 1.463 . S
C1193 C1198 1.350 . S
C1193 N1201 1.427 . S
C1194 H1185 0.930 . S
C1194 C1192 1.378 . S
C1194 C1195 1.367 . S
C1195 C1194 1.367 . S
C1195 C1197 1.433 . S
C1196 C1192 1.350 . S
C1196 C1193 1.463 . S
C1196 N1200 1.427 . S
C1197 H1187 0.929 . S
C1197 C1195 1.433 . S
C1197 N1200 1.384 . S
C1198 H1189 0.929 . S
C1198 C1190 1.378 . S
C1198 C1193 1.350 . S
C1199 H1186 0.929 . S
C1199 C1191 1.433 . S
C1199 N1201 1.384 . S
N1200 C1196 1.427 . S
N1200 C1197 1.384 . S
N1201 C1193 1.427 . S
N1201 C1199 1.384 . S
H1202 C1208 0.930 . S
H1203 C1212 0.930 . S
H1204 C1217 0.929 . S
H1205 C1215 0.929 . S
H1206 C1210 0.929 . S
H1207 C1216 0.929 . S
C1208 H1202 0.930 . S
C1208 C1209 1.367 . S
C1208 C1216 1.378 . S
C1209 C1208 1.367 . S
C1209 C1217 1.433 . S
C1210 H1206 0.929 . S
C1210 C1212 1.378 . S
C1210 C1214 1.350 . S
C1211 C1214 1.463 . S
C1211 C1216 1.350 . S
C1211 N1219 1.427 . S
C1212 H1203 0.930 . S
C1212 C1210 1.378 . S
C1212 C1213 1.367 . S
C1213 C1212 1.367 . S
C1213 C1215 1.433 . S
C1214 C1210 1.350 . S
C1214 C1211 1.463 . S
C1214 N1218 1.427 . S
C1215 H1205 0.929 . S
C1215 C1213 1.433 . S
C1215 N1218 1.384 . S
C1216 H1207 0.929 . S
C1216 C1208 1.378 . S
C1216 C1211 1.350 . S
C1217 H1204 0.929 . S
C1217 C1209 1.433 . S
C1217 N1219 1.384 . S
N1218 C1214 1.427 . S
N1218 C1215 1.384 . S
N1219 C1211 1.427 . S
N1219 C1217 1.384 . S
H1220 C1226 0.930 . S
H1221 C1230 0.930 . S
H1222 C1235 0.929 . S
H1223 C1233 0.929 . S
H1224 C1228 0.929 . S
H1225 C1234 0.929 . S
C1226 H1220 0.930 . S
C1226 C1227 1.367 . S
C1226 C1234 1.378 . S
C1227 C1226 1.367 . S
C1227 C1235 1.433 . S
C1228 H1224 0.929 . S
C1228 C1230 1.378 . S
C1228 C1232 1.350 . S
C1229 C1232 1.463 . S
C1229 C1234 1.350 . S
C1229 N1237 1.427 . S
C1230 H1221 0.930 . S
C1230 C1228 1.378 . S
C1230 C1231 1.367 . S
C1231 C1230 1.367 . S
C1231 C1233 1.433 . S
C1232 C1228 1.350 . S
C1232 C1229 1.463 . S
C1232 N1236 1.427 . S
C1233 H1223 0.929 . S
C1233 C1231 1.433 . S
C1233 N1236 1.384 . S
C1234 H1225 0.929 . S
C1234 C1226 1.378 . S
C1234 C1229 1.350 . S
C1235 H1222 0.929 . S
C1235 C1227 1.433 . S
C1235 N1237 1.384 . S
N1236 C1232 1.427 . S
N1236 C1233 1.384 . S
N1237 C1229 1.427 . S
N1237 C1235 1.384 . S
H1238 C1244 0.930 . S
H1239 C1248 0.930 . S
H1240 C1253 0.929 . S
H1241 C1251 0.929 . S
H1242 C1246 0.929 . S
H1243 C1252 0.929 . S
C1244 H1238 0.930 . S
C1244 C1245 1.367 . S
C1244 C1252 1.378 . S
C1245 C1244 1.367 . S
C1245 C1253 1.433 . S
C1246 H1242 0.929 . S
C1246 C1248 1.378 . S
C1246 C1250 1.350 . S
C1247 C1250 1.463 . S
C1247 C1252 1.350 . S
C1247 N1255 1.427 . S
C1248 H1239 0.930 . S
C1248 C1246 1.378 . S
C1248 C1249 1.367 . S
C1249 C1248 1.367 . S
C1249 C1251 1.433 . S
C1250 C1246 1.350 . S
C1250 C1247 1.463 . S
C1250 N1254 1.427 . S
C1251 H1241 0.929 . S
C1251 C1249 1.433 . S
C1251 N1254 1.384 . S
C1252 H1243 0.929 . S
C1252 C1244 1.378 . S
C1252 C1247 1.350 . S
C1253 H1240 0.929 . S
C1253 C1245 1.433 . S
C1253 N1255 1.384 . S
N1254 C1250 1.427 . S
N1254 C1251 1.384 . S
N1255 C1247 1.427 . S
N1255 C1253 1.384 . S
H1256 C1262 0.930 . S
H1257 C1266 0.930 . S
H1258 C1271 0.929 . S
H1259 C1269 0.929 . S
H1260 C1264 0.929 . S
H1261 C1270 0.929 . S
C1262 H1256 0.930 . S
C1262 C1263 1.367 . S
C1262 C1270 1.378 . S
C1263 C1262 1.367 . S
C1263 C1271 1.433 . S
C1264 H1260 0.929 . S
C1264 C1266 1.378 . S
C1264 C1268 1.350 . S
C1265 C1268 1.463 . S
C1265 C1270 1.350 . S
C1265 N1273 1.427 . S
C1266 H1257 0.930 . S
C1266 C1264 1.378 . S
C1266 C1267 1.367 . S
C1267 C1266 1.367 . S
C1267 C1269 1.433 . S
C1268 C1264 1.350 . S
C1268 C1265 1.463 . S
C1268 N1272 1.427 . S
C1269 H1259 0.929 . S
C1269 C1267 1.433 . S
C1269 N1272 1.384 . S
C1270 H1261 0.929 . S
C1270 C1262 1.378 . S
C1270 C1265 1.350 . S
C1271 H1258 0.929 . S
C1271 C1263 1.433 . S
C1271 N1273 1.384 . S
N1272 C1268 1.427 . S
N1272 C1269 1.384 . S
N1273 C1265 1.427 . S
N1273 C1271 1.384 . S
H1274 C1280 0.930 . S
H1275 C1284 0.930 . S
H1276 C1289 0.929 . S
H1277 C1287 0.929 . S
H1278 C1282 0.929 . S
H1279 C1288 0.929 . S
C1280 H1274 0.930 . S
C1280 C1281 1.367 . S
C1280 C1288 1.378 . S
C1281 C1280 1.367 . S
C1281 C1289 1.433 . S
C1282 H1278 0.929 . S
C1282 C1284 1.378 . S
C1282 C1286 1.350 . S
C1283 C1286 1.463 . S
C1283 C1288 1.350 . S
C1283 N1291 1.427 . S
C1284 H1275 0.930 . S
C1284 C1282 1.378 . S
C1284 C1285 1.367 . S
C1285 C1284 1.367 . S
C1285 C1287 1.433 . S
C1286 C1282 1.350 . S
C1286 C1283 1.463 . S
C1286 N1290 1.427 . S
C1287 H1277 0.929 . S
C1287 C1285 1.433 . S
C1287 N1290 1.384 . S
C1288 H1279 0.929 . S
C1288 C1280 1.378 . S
C1288 C1283 1.350 . S
C1289 H1276 0.929 . S
C1289 C1281 1.433 . S
C1289 N1291 1.384 . S
N1290 C1286 1.427 . S
N1290 C1287 1.384 . S
N1291 C1283 1.427 . S
N1291 C1289 1.384 . S
H1292 C1298 0.930 . S
H1293 C1302 0.930 . S
H1294 C1307 0.929 . S
H1295 C1305 0.929 . S
H1296 C1300 0.929 . S
H1297 C1306 0.929 . S
C1298 H1292 0.930 . S
C1298 C1299 1.367 . S
C1298 C1306 1.378 . S
C1299 C1298 1.367 . S
C1299 C1307 1.433 . S
C1300 H1296 0.929 . S
C1300 C1302 1.378 . S
C1300 C1304 1.350 . S
C1301 C1304 1.463 . S
C1301 C1306 1.350 . S
C1301 N1309 1.427 . S
C1302 H1293 0.930 . S
C1302 C1300 1.378 . S
C1302 C1303 1.367 . S
C1303 C1302 1.367 . S
C1303 C1305 1.433 . S
C1304 C1300 1.350 . S
C1304 C1301 1.463 . S
C1304 N1308 1.427 . S
C1305 H1295 0.929 . S
C1305 C1303 1.433 . S
C1305 N1308 1.384 . S
C1306 H1297 0.929 . S
C1306 C1298 1.378 . S
C1306 C1301 1.350 . S
C1307 H1294 0.929 . S
C1307 C1299 1.433 . S
C1307 N1309 1.384 . S
N1308 C1304 1.427 . S
N1308 C1305 1.384 . S
N1309 C1301 1.427 . S
N1309 C1307 1.384 . S
H1310 C1316 0.930 . S
H1311 C1320 0.930 . S
H1312 C1325 0.929 . S
H1313 C1323 0.929 . S
H1314 C1318 0.929 . S
H1315 C1324 0.929 . S
C1316 H1310 0.930 . S
C1316 C1317 1.367 . S
C1316 C1324 1.378 . S
C1317 C1316 1.367 . S
C1317 C1325 1.433 . S
C1318 H1314 0.929 . S
C1318 C1320 1.378 . S
C1318 C1322 1.350 . S
C1319 C1322 1.463 . S
C1319 C1324 1.350 . S
C1319 N1327 1.427 . S
C1320 H1311 0.930 . S
C1320 C1318 1.378 . S
C1320 C1321 1.367 . S
C1321 C1320 1.367 . S
C1321 C1323 1.433 . S
C1322 C1318 1.350 . S
C1322 C1319 1.463 . S
C1322 N1326 1.427 . S
C1323 H1313 0.929 . S
C1323 C1321 1.433 . S
C1323 N1326 1.384 . S
C1324 H1315 0.929 . S
C1324 C1316 1.378 . S
C1324 C1319 1.350 . S
C1325 H1312 0.929 . S
C1325 C1317 1.433 . S
C1325 N1327 1.384 . S
N1326 C1322 1.427 . S
N1326 C1323 1.384 . S
N1327 C1319 1.427 . S
N1327 C1325 1.384 . S
H1328 C1334 0.930 . S
H1329 C1338 0.930 . S
H1330 C1343 0.929 . S
H1331 C1341 0.929 . S
H1332 C1336 0.929 . S
H1333 C1342 0.929 . S
C1334 H1328 0.930 . S
C1334 C1335 1.367 . S
C1334 C1342 1.378 . S
C1335 C1334 1.367 . S
C1335 C1343 1.433 . S
C1336 H1332 0.929 . S
C1336 C1338 1.378 . S
C1336 C1340 1.350 . S
C1337 C1340 1.463 . S
C1337 C1342 1.350 . S
C1337 N1345 1.427 . S
C1338 H1329 0.930 . S
C1338 C1336 1.378 . S
C1338 C1339 1.367 . S
C1339 C1338 1.367 . S
C1339 C1341 1.433 . S
C1340 C1336 1.350 . S
C1340 C1337 1.463 . S
C1340 N1344 1.427 . S
C1341 H1331 0.929 . S
C1341 C1339 1.433 . S
C1341 N1344 1.384 . S
C1342 H1333 0.929 . S
C1342 C1334 1.378 . S
C1342 C1337 1.350 . S
C1343 H1330 0.929 . S
C1343 C1335 1.433 . S
C1343 N1345 1.384 . S
N1344 C1340 1.427 . S
N1344 C1341 1.384 . S
N1345 C1337 1.427 . S
N1345 C1343 1.384 . S
H1346 C1352 0.930 . S
H1347 C1356 0.930 . S
H1348 C1361 0.929 . S
H1349 C1359 0.929 . S
H1350 C1354 0.929 . S
H1351 C1360 0.929 . S
C1352 H1346 0.930 . S
C1352 C1353 1.367 . S
C1352 C1360 1.378 . S
C1353 C1352 1.367 . S
C1353 C1361 1.433 . S
C1354 H1350 0.929 . S
C1354 C1356 1.378 . S
C1354 C1358 1.350 . S
C1355 C1358 1.463 . S
C1355 C1360 1.350 . S
C1355 N1363 1.427 . S
C1356 H1347 0.930 . S
C1356 C1354 1.378 . S
C1356 C1357 1.367 . S
C1357 C1356 1.367 . S
C1357 C1359 1.433 . S
C1358 C1354 1.350 . S
C1358 C1355 1.463 . S
C1358 N1362 1.427 . S
C1359 H1349 0.929 . S
C1359 C1357 1.433 . S
C1359 N1362 1.384 . S
C1360 H1351 0.929 . S
C1360 C1352 1.378 . S
C1360 C1355 1.350 . S
C1361 H1348 0.929 . S
C1361 C1353 1.433 . S
C1361 N1363 1.384 . S
N1362 C1358 1.427 . S
N1362 C1359 1.384 . S
N1363 C1355 1.427 . S
N1363 C1361 1.384 . S
H1364 C1370 0.930 . S
H1365 C1374 0.930 . S
H1366 C1379 0.929 . S
H1367 C1377 0.929 . S
H1368 C1372 0.929 . S
H1369 C1378 0.929 . S
C1370 H1364 0.930 . S
C1370 C1371 1.367 . S
C1370 C1378 1.378 . S
C1371 C1370 1.367 . S
C1371 C1379 1.433 . S
C1372 H1368 0.929 . S
C1372 C1374 1.378 . S
C1372 C1376 1.350 . S
C1373 C1376 1.463 . S
C1373 C1378 1.350 . S
C1373 N1381 1.427 . S
C1374 H1365 0.930 . S
C1374 C1372 1.378 . S
C1374 C1375 1.367 . S
C1375 C1374 1.367 . S
C1375 C1377 1.433 . S
C1376 C1372 1.350 . S
C1376 C1373 1.463 . S
C1376 N1380 1.427 . S
C1377 H1367 0.929 . S
C1377 C1375 1.433 . S
C1377 N1380 1.384 . S
C1378 H1369 0.929 . S
C1378 C1370 1.378 . S
C1378 C1373 1.350 . S
C1379 H1366 0.929 . S
C1379 C1371 1.433 . S
C1379 N1381 1.384 . S
N1380 C1376 1.427 . S
N1380 C1377 1.384 . S
N1381 C1373 1.427 . S
N1381 C1379 1.384 . S
H1382 C1388 0.930 . S
H1383 C1392 0.930 . S
H1384 C1397 0.929 . S
H1385 C1395 0.929 . S
H1386 C1390 0.929 . S
H1387 C1396 0.929 . S
C1388 H1382 0.930 . S
C1388 C1389 1.367 . S
C1388 C1396 1.378 . S
C1389 C1388 1.367 . S
C1389 C1397 1.433 . S
C1390 H1386 0.929 . S
C1390 C1392 1.378 . S
C1390 C1394 1.350 . S
C1391 C1394 1.463 . S
C1391 C1396 1.350 . S
C1391 N1399 1.427 . S
C1392 H1383 0.930 . S
C1392 C1390 1.378 . S
C1392 C1393 1.367 . S
C1393 C1392 1.367 . S
C1393 C1395 1.433 . S
C1394 C1390 1.350 . S
C1394 C1391 1.463 . S
C1394 N1398 1.427 . S
C1395 H1385 0.929 . S
C1395 C1393 1.433 . S
C1395 N1398 1.384 . S
C1396 H1387 0.929 . S
C1396 C1388 1.378 . S
C1396 C1391 1.350 . S
C1397 H1384 0.929 . S
C1397 C1389 1.433 . S
C1397 N1399 1.384 . S
N1398 C1394 1.427 . S
N1398 C1395 1.384 . S
N1399 C1391 1.427 . S
N1399 C1397 1.384 . S
H1400 C1406 0.930 . S
H1401 C1410 0.930 . S
H1402 C1415 0.929 . S
H1403 C1413 0.929 . S
H1404 C1408 0.929 . S
H1405 C1414 0.929 . S
C1406 H1400 0.930 . S
C1406 C1407 1.367 . S
C1406 C1414 1.378 . S
C1407 C1406 1.367 . S
C1407 C1415 1.433 . S
C1408 H1404 0.929 . S
C1408 C1410 1.378 . S
C1408 C1412 1.350 . S
C1409 C1412 1.463 . S
C1409 C1414 1.350 . S
C1409 N1417 1.427 . S
C1410 H1401 0.930 . S
C1410 C1408 1.378 . S
C1410 C1411 1.367 . S
C1411 C1410 1.367 . S
C1411 C1413 1.433 . S
C1412 C1408 1.350 . S
C1412 C1409 1.463 . S
C1412 N1416 1.427 . S
C1413 H1403 0.929 . S
C1413 C1411 1.433 . S
C1413 N1416 1.384 . S
C1414 H1405 0.929 . S
C1414 C1406 1.378 . S
C1414 C1409 1.350 . S
C1415 H1402 0.929 . S
C1415 C1407 1.433 . S
C1415 N1417 1.384 . S
N1416 C1412 1.427 . S
N1416 C1413 1.384 . S
N1417 C1409 1.427 . S
N1417 C1415 1.384 . S
H1418 C1424 0.930 . S
H1419 C1428 0.930 . S
H1420 C1433 0.929 . S
H1421 C1431 0.929 . S
H1422 C1426 0.929 . S
H1423 C1432 0.929 . S
C1424 H1418 0.930 . S
C1424 C1425 1.367 . S
C1424 C1432 1.378 . S
C1425 C1424 1.367 . S
C1425 C1433 1.433 . S
C1426 H1422 0.929 . S
C1426 C1428 1.378 . S
C1426 C1430 1.350 . S
C1427 C1430 1.463 . S
C1427 C1432 1.350 . S
C1427 N1435 1.427 . S
C1428 H1419 0.930 . S
C1428 C1426 1.378 . S
C1428 C1429 1.367 . S
C1429 C1428 1.367 . S
C1429 C1431 1.433 . S
C1430 C1426 1.350 . S
C1430 C1427 1.463 . S
C1430 N1434 1.427 . S
C1431 H1421 0.929 . S
C1431 C1429 1.433 . S
C1431 N1434 1.384 . S
C1432 H1423 0.929 . S
C1432 C1424 1.378 . S
C1432 C1427 1.350 . S
C1433 H1420 0.929 . S
C1433 C1425 1.433 . S
C1433 N1435 1.384 . S
N1434 C1430 1.427 . S
N1434 C1431 1.384 . S
N1435 C1427 1.427 . S
N1435 C1433 1.384 . S
H1436 C1442 0.930 . S
H1437 C1446 0.930 . S
H1438 C1451 0.929 . S
H1439 C1449 0.929 . S
H1440 C1444 0.929 . S
H1441 C1450 0.929 . S
C1442 H1436 0.930 . S
C1442 C1443 1.367 . S
C1442 C1450 1.378 . S
C1443 C1442 1.367 . S
C1443 C1451 1.433 . S
C1444 H1440 0.929 . S
C1444 C1446 1.378 . S
C1444 C1448 1.350 . S
C1445 C1448 1.463 . S
C1445 C1450 1.350 . S
C1445 N1453 1.427 . S
C1446 H1437 0.930 . S
C1446 C1444 1.378 . S
C1446 C1447 1.367 . S
C1447 C1446 1.367 . S
C1447 C1449 1.433 . S
C1448 C1444 1.350 . S
C1448 C1445 1.463 . S
C1448 N1452 1.427 . S
C1449 H1439 0.929 . S
C1449 C1447 1.433 . S
C1449 N1452 1.384 . S
C1450 H1441 0.929 . S
C1450 C1442 1.378 . S
C1450 C1445 1.350 . S
C1451 H1438 0.929 . S
C1451 C1443 1.433 . S
C1451 N1453 1.384 . S
N1452 C1448 1.427 . S
N1452 C1449 1.384 . S
N1453 C1445 1.427 . S
N1453 C1451 1.384 . S
H1454 C1460 0.930 . S
H1455 C1464 0.930 . S
H1456 C1469 0.929 . S
H1457 C1467 0.929 . S
H1458 C1462 0.929 . S
H1459 C1468 0.929 . S
C1460 H1454 0.930 . S
C1460 C1461 1.367 . S
C1460 C1468 1.378 . S
C1461 C1460 1.367 . S
C1461 C1469 1.433 . S
C1462 H1458 0.929 . S
C1462 C1464 1.378 . S
C1462 C1466 1.350 . S
C1463 C1466 1.463 . S
C1463 C1468 1.350 . S
C1463 N1471 1.427 . S
C1464 H1455 0.930 . S
C1464 C1462 1.378 . S
C1464 C1465 1.367 . S
C1465 C1464 1.367 . S
C1465 C1467 1.433 . S
C1466 C1462 1.350 . S
C1466 C1463 1.463 . S
C1466 N1470 1.427 . S
C1467 H1457 0.929 . S
C1467 C1465 1.433 . S
C1467 N1470 1.384 . S
C1468 H1459 0.929 . S
C1468 C1460 1.378 . S
C1468 C1463 1.350 . S
C1469 H1456 0.929 . S
C1469 C1461 1.433 . S
C1469 N1471 1.384 . S
N1470 C1466 1.427 . S
N1470 C1467 1.384 . S
N1471 C1463 1.427 . S
N1471 C1469 1.384 . S
H1472 C1478 0.930 . S
H1473 C1482 0.930 . S
H1474 C1487 0.929 . S
H1475 C1485 0.929 . S
H1476 C1480 0.929 . S
H1477 C1486 0.929 . S
C1478 H1472 0.930 . S
C1478 C1479 1.367 . S
C1478 C1486 1.378 . S
C1479 C1478 1.367 . S
C1479 C1487 1.433 . S
C1480 H1476 0.929 . S
C1480 C1482 1.378 . S
C1480 C1484 1.350 . S
C1481 C1484 1.463 . S
C1481 C1486 1.350 . S
C1481 N1489 1.427 . S
C1482 H1473 0.930 . S
C1482 C1480 1.378 . S
C1482 C1483 1.367 . S
C1483 C1482 1.367 . S
C1483 C1485 1.433 . S
C1484 C1480 1.350 . S
C1484 C1481 1.463 . S
C1484 N1488 1.427 . S
C1485 H1475 0.929 . S
C1485 C1483 1.433 . S
C1485 N1488 1.384 . S
C1486 H1477 0.929 . S
C1486 C1478 1.378 . S
C1486 C1481 1.350 . S
C1487 H1474 0.929 . S
C1487 C1479 1.433 . S
C1487 N1489 1.384 . S
N1488 C1484 1.427 . S
N1488 C1485 1.384 . S
N1489 C1481 1.427 . S
N1489 C1487 1.384 . S
H1490 C1496 0.930 . S
H1491 C1500 0.930 . S
H1492 C1505 0.929 . S
H1493 C1503 0.929 . S
H1494 C1498 0.929 . S
H1495 C1504 0.929 . S
C1496 H1490 0.930 . S
C1496 C1497 1.367 . S
C1496 C1504 1.378 . S
C1497 C1496 1.367 . S
C1497 C1505 1.433 . S
C1498 H1494 0.929 . S
C1498 C1500 1.378 . S
C1498 C1502 1.350 . S
C1499 C1502 1.463 . S
C1499 C1504 1.350 . S
C1499 N1507 1.427 . S
C1500 H1491 0.930 . S
C1500 C1498 1.378 . S
C1500 C1501 1.367 . S
C1501 C1500 1.367 . S
C1501 C1503 1.433 . S
C1502 C1498 1.350 . S
C1502 C1499 1.463 . S
C1502 N1506 1.427 . S
C1503 H1493 0.929 . S
C1503 C1501 1.433 . S
C1503 N1506 1.384 . S
C1504 H1495 0.929 . S
C1504 C1496 1.378 . S
C1504 C1499 1.350 . S
C1505 H1492 0.929 . S
C1505 C1497 1.433 . S
C1505 N1507 1.384 . S
N1506 C1502 1.427 . S
N1506 C1503 1.384 . S
N1507 C1499 1.427 . S
N1507 C1505 1.384 . S
C655 C355 2.409 . S
C651 C18 2.386 . S
C673 C333 2.603 . S
C669 C59 2.594 . S
C691 C330 0.702 . S
C687 C98 0.689 . S
C705 C125 1.088 . S
C709 C342 1.039 . S
C723 C169 2.518 . S
C727 C325 2.507 . S
C745 C347 0.698 . S
C741 C218 0.721 . S
C759 C255 1.314 . S
C763 C352 1.264 . S
C777 C288 2.392 . S
C781 C348 2.414 . S
C799 C406 1.010 . S
C795 C15 1.064 . S
C813 C45 0.772 . S
C817 C456 0.799 . S
C835 C379 0.489 . S
C831 C95 0.401 . S
C853 C455 0.478 . S
C849 C128 0.524 . S
C867 C178 0.545 . S
C871 C384 0.514 . S
C889 C450 1.680 . S
C885 C215 1.760 . S
C903 C249 2.163 . S
C907 C409 2.218 . S
C921 C299 2.305 . S
C925 C441 2.280 1_556 S
C939 C9 2.867 . S
C943 C433 2.879 . S
C957 C175 0.551 . S
C961 C463 0.529 . S
C979 C387 1.790 . S
C975 C209 1.812 . S
C997 C438 1.070 . S
C993 C258 1.068 . S
C1011 C285 1.483 . S
C1015 C396 1.455 . S
C1029 C89 3.344 . S
C1033 C460 3.312 . S
C1051 C402 2.550 . S
C1047 C139 2.469 . S
C1065 C48 1.041 . S
C1069 C401 1.044 . S
C1083 C298 2.391 . S
C1087 C517 2.410 . S
C1101 C179 2.521 . S
C1105 C495 2.513 . S
C1123 C492 0.716 . S
C1119 C208 0.703 . S
C1141 C504 1.261 1_556 S
C1137 C245 1.317 . S
C1155 C49 2.596 . S
C1159 C487 2.600 . S
C1177 C509 0.696 . S
C1173 C88 0.721 . S
C1191 C135 1.087 . S
C1195 C514 1.056 . S
C1209 C8 2.391 . S
C1213 C510 2.415 . S
C1227 C295 1.478 . S
C1231 C568 1.447 . S
C1249 C618 0.527 . S
C1245 C165 0.562 . S
C1263 C219 1.809 . S
C1267 C541 1.787 . S
C1281 C248 1.061 . S
C1285 C617 1.054 . S
C1303 C546 1.035 . S
C1299 C58 1.032 . S
C1317 C99 3.337 . S
C1321 C612 3.295 . S
C1339 C571 2.544 . S
C1335 C129 2.467 . S
C1357 C603 2.873 . S
C1353 C19 2.861 . S
C1375 C595 2.283 . S
C1371 C289 2.303 . S
C1389 C55 0.767 . S
C1393 C625 0.797 . S
C1407 C85 0.405 . S
C1411 C549 0.460 . S
C1429 C600 0.489 . S
C1425 C138 0.526 . S
C1443 C5 1.074 . S
C1447 C558 1.027 . S
C1461 C205 1.777 . S
C1465 C622 1.707 . S
C1483 C564 2.224 . S
C1479 C259 2.165 . S
C1501 C563 0.523 . S
C1497 C168 0.555 . S
