# Generated by pormake.
# Topology pth, (4,4)-cn, num edge types: 1
# Building blocks:
#     Node 0, Type 0, BuildingBlock: AZAVOO_clean_sbu_0, # of connection points: 4
#     Node 1, Type 0, BuildingBlock: AZAVOO_clean_sbu_0, # of connection points: 4
#     Node 2, Type 0, BuildingBlock: AZAVOO_clean_sbu_0, # of connection points: 4
#     Node 3, Type 1, BuildingBlock: KOZSID_clean_sbu_0, # of connection points: 4
#     Node 4, Type 1, BuildingBlock: KOZSID_clean_sbu_0, # of connection points: 4
#     Node 5, Type 1, BuildingBlock: KOZSID_clean_sbu_0, # of connection points: 4
#     Edge 6, Type (0, 1), BuildingBlock: UVAHIK_clean_linker_0, # of connection points: 2
#     Edge 7, Type (0, 1), BuildingBlock: UVAHIK_clean_linker_0, # of connection points: 2
#     Edge 8, Type (0, 1), BuildingBlock: UVAHIK_clean_linker_0, # of connection points: 2
#     Edge 9, Type (0, 1), BuildingBlock: UVAHIK_clean_linker_0, # of connection points: 2
#     Edge 10, Type (0, 1), BuildingBlock: UVAHIK_clean_linker_0, # of connection points: 2
#     Edge 11, Type (0, 1), BuildingBlock: UVAHIK_clean_linker_0, # of connection points: 2
#     Edge 12, Type (0, 1), BuildingBlock: UVAHIK_clean_linker_0, # of connection points: 2
#     Edge 13, Type (0, 1), BuildingBlock: UVAHIK_clean_linker_0, # of connection points: 2
#     Edge 14, Type (0, 1), BuildingBlock: UVAHIK_clean_linker_0, # of connection points: 2
#     Edge 15, Type (0, 1), BuildingBlock: UVAHIK_clean_linker_0, # of connection points: 2
#     Edge 16, Type (0, 1), BuildingBlock: UVAHIK_clean_linker_0, # of connection points: 2
#     Edge 17, Type (0, 1), BuildingBlock: UVAHIK_clean_linker_0, # of connection points: 2
# Relax obj value: 0.065
# Max RMSD: 0.213
# Mean RMSD: 0.106
data_MOF--net-pth--node1-AZAVOO_clean_sbu_0--node2-KOZSID_clean_sbu_0--edge1-UVAHIK_clean_linker_0
_symmetry_space_group_name_H-M    P1
_symmetry_Int_Tables_number       1
_symmetry_cell_setting            triclinic
loop_
_symmetry_equiv_pos_as_xyz
'x, y, z'
_cell_length_a     33.311013
_cell_length_b     33.956561
_cell_length_c     75.009482
_cell_angle_alpha  88.727329
_cell_angle_beta   90.374508
_cell_angle_gamma 121.85865
loop_
_atom_site_label
_atom_site_type_symbol
_atom_site_fract_x
_atom_site_fract_y
_atom_site_fract_z
_atom_type_partial_charge
Mg0 Mg 0.12505 0.07632 0.03655 0.0
O1 O 0.06819 0.02665 0.01727 0.0
O2 O 0.05776 0.06712 0.99592 0.0
Mg3 Mg 0.10814 0.14386 0.00185 0.0
C4 C 0.04784 0.02856 0.00311 0.0
C5 C 0.1029 0.98029 0.04969 0.0
O6 O 0.11519 0.98138 0.03299 0.0
O7 O 0.07386 0.09296 0.04923 0.0
O8 O 0.06748 0.13598 0.0277 0.0
O9 O 0.18084 0.07924 0.01923 0.0
O10 O 0.15529 0.12732 0.01651 0.0
C11 C 0.05759 0.11739 0.04333 0.0
C12 C 0.18176 0.11324 0.01067 0.0
O13 O 0.10325 0.01518 0.05572 0.0
Mg14 Mg 0.98818 0.04451 0.35558 0.0
O15 O 0.06082 0.07535 0.36849 0.0
O16 O 0.08722 0.14843 0.37588 0.0
Mg17 Mg 0.02998 0.16356 0.36841 0.0
C18 C 0.09234 0.11382 0.37508 0.0
C19 C 0.97159 0.94444 0.34972 0.0
O20 O 0.93991 0.93164 0.36246 0.0
O21 O 0.02044 0.08739 0.32999 0.0
O22 O 0.04259 0.15858 0.33877 0.0
O23 O 0.95363 0.02132 0.38263 0.0
O24 O 0.97579 0.08883 0.36966 0.0
C25 C 0.03843 0.13062 0.32674 0.0
C26 C 0.95791 0.06147 0.38332 0.0
O27 O 0.99556 0.98673 0.34465 0.0
Mg28 Mg 0.04558 0.0319 0.68565 0.0
O29 O 0.09706 0.08986 0.70389 0.0
O30 O 0.05621 0.10144 0.72433 0.0
Mg31 Mg 0.97774 0.04894 0.71951 0.0
C32 C 0.09536 0.1113 0.71733 0.0
C33 C 0.10309 0.05371 0.64949 0.0
O34 O 0.06188 0.04039 0.64229 0.0
O35 O 0.02576 0.0799 0.67181 0.0
O36 O 0.98065 0.08403 0.69267 0.0
O37 O 0.04535 0.97869 0.70389 0.0
O38 O 0.99569 0.00278 0.70623 0.0
C39 C 0.99869 0.09352 0.67702 0.0
C40 C 0.01112 0.97758 0.71244 0.0
O41 O 0.1066 0.05361 0.66637 0.0
C42 C 0.05343 0.60047 0.17173 0.0
C43 C 0.09848 0.63473 0.16605 0.0
C44 C 0.12954 0.62807 0.17556 0.0
C45 C 0.10189 0.59029 0.18644 0.0
N46 N 0.05496 0.57241 0.18448 0.0
Co47 Co 0.00223 0.51674 0.19731 0.0
N48 N 0.04803 0.50687 0.211 0.0
C49 C 0.09556 0.53527 0.21148 0.0
C50 C 0.11727 0.51825 0.22189 0.0
C51 C 0.08153 0.47595 0.22803 0.0
C52 C 0.04007 0.46959 0.22085 0.0
N53 N 0.94966 0.45953 0.20952 0.0
C54 C 0.95143 0.42544 0.21855 0.0
C55 C 0.90655 0.38827 0.22281 0.0
C56 C 0.87528 0.39898 0.21599 0.0
C57 C 0.9027 0.44164 0.20784 0.0
N58 N 0.95633 0.52757 0.18406 0.0
C59 C 0.90875 0.5033 0.18602 0.0
C60 C 0.88671 0.51977 0.17552 0.0
C61 C 0.92233 0.55704 0.16643 0.0
C62 C 0.96423 0.56115 0.17194 0.0
N63 N 0.00086 0.47696 0.17818 0.0
C64 C 0.9959 0.411 0.15484 0.0
C65 C 0.95601 0.41312 0.15839 0.0
C66 C 0.95924 0.44616 0.17002 0.0
C67 C 0.03885 0.44397 0.16243 0.0
C68 C 0.04065 0.4768 0.17383 0.0
N69 N 0.00345 0.55659 0.21672 0.0
C70 C 0.96224 0.57653 0.23768 0.0
C71 C 0.00448 0.6161 0.24272 0.0
C72 C 0.04634 0.62463 0.2349 0.0
C73 C 0.04504 0.59477 0.22209 0.0
C74 C 0.96255 0.54752 0.22485 0.0
H75 H 0.07823 0.60382 0.21665 0.0
H76 H 0.92903 0.51843 0.2216 0.0
H77 H 0.92734 0.44527 0.17265 0.0
H78 H 0.0743 0.50102 0.17937 0.0
C79 C 0.11895 0.57266 0.19942 0.0
C80 C 0.01053 0.59739 0.16522 0.0
C81 C 0.9948 0.4259 0.22208 0.0
C82 C 0.88564 0.46352 0.19697 0.0
H83 H 0.10798 0.66225 0.15628 0.0
H84 H 0.16775 0.64887 0.17488 0.0
H85 H 0.15482 0.53321 0.22374 0.0
H86 H 0.08568 0.45142 0.23603 0.0
H87 H 0.8971 0.35593 0.22948 0.0
H88 H 0.83711 0.37711 0.21609 0.0
H89 H 0.84917 0.50597 0.17445 0.0
H90 H 0.91798 0.57865 0.15678 0.0
H91 H 0.92201 0.38832 0.15274 0.0
H92 H 0.0709 0.44426 0.1597 0.0
H93 H 0.92871 0.5685 0.24321 0.0
H94 H 0.08017 0.65439 0.23859 0.0
C95 C 0.50401 0.1005 0.54389 0.0
C96 C 0.46763 0.05747 0.55009 0.0
C97 C 0.47186 0.02503 0.54136 0.0
C98 C 0.5104 0.05001 0.5304 0.0
N99 N 0.53175 0.09649 0.53187 0.0
Co100 Co 0.58689 0.14568 0.51758 0.0
N101 N 0.59217 0.09797 0.50437 0.0
C102 C 0.56457 0.05132 0.5063 0.0
C103 C 0.57848 0.02774 0.49599 0.0
C104 C 0.6183 0.06138 0.48738 0.0
C105 C 0.62639 0.10361 0.49306 0.0
N106 N 0.64093 0.19473 0.50278 0.0
C107 C 0.67052 0.19095 0.49162 0.0
C108 C 0.70545 0.23395 0.48482 0.0
C109 C 0.69791 0.266 0.49212 0.0
C110 C 0.65915 0.24098 0.50299 0.0
N111 N 0.58293 0.19347 0.5314 0.0
C112 C 0.61165 0.24008 0.52976 0.0
C113 C 0.59969 0.26389 0.54086 0.0
C114 C 0.56069 0.23051 0.54999 0.0
C115 C 0.55107 0.18812 0.54387 0.0
N116 N 0.63205 0.14735 0.53536 0.0
C117 C 0.70104 0.14916 0.55765 0.0
C118 C 0.7082 0.1898 0.54967 0.0
C119 C 0.6732 0.18825 0.53888 0.0
C120 C 0.65826 0.10775 0.55486 0.0
C121 C 0.62454 0.10753 0.5436 0.0
N122 N 0.54179 0.14414 0.49967 0.0
C123 C 0.50832 0.1828 0.48372 0.0
C124 C 0.47475 0.14147 0.47585 0.0
C125 C 0.47573 0.10165 0.47972 0.0
C126 C 0.50904 0.10365 0.4917 0.0
C127 C 0.54156 0.18348 0.49532 0.0
H128 H 0.507 0.07179 0.49445 0.0
H129 H 0.56634 0.21624 0.50071 0.0
H130 H 0.68063 0.22053 0.5333 0.0
H131 H 0.59312 0.07471 0.54148 0.0
C132 C 0.52707 0.03086 0.51846 0.0
C133 C 0.50928 0.14399 0.54919 0.0
C134 C 0.66899 0.1479 0.48852 0.0
C135 C 0.6453 0.26024 0.51606 0.0
H136 H 0.44032 0.05034 0.55968 0.0
H137 H 0.44904 0.9877 0.54261 0.0
H138 H 0.56253 0.99059 0.49529 0.0
H139 H 0.63996 0.05557 0.47844 0.0
H140 H 0.7348 0.24186 0.47622 0.0
H141 H 0.72019 0.30335 0.4907 0.0
H142 H 0.61597 0.30108 0.5416 0.0
H143 H 0.54057 0.2367 0.55956 0.0
H144 H 0.74067 0.22272 0.5518 0.0
H145 H 0.65144 0.07551 0.56094 0.0
H146 H 0.50904 0.2146 0.48089 0.0
H147 H 0.45005 0.0688 0.47393 0.0
C148 C 0.69845 0.57473 0.83596 0.0
C149 C 0.7337 0.57053 0.82819 0.0
C150 C 0.72851 0.5304 0.83485 0.0
C151 C 0.69039 0.51233 0.84615 0.0
N152 N 0.67066 0.53832 0.84706 0.0
Co153 Co 0.61398 0.52432 0.86152 0.0
N154 N 0.60861 0.46708 0.87228 0.0
C155 C 0.63807 0.4516 0.86964 0.0
C156 C 0.62523 0.41124 0.87881 0.0
C157 C 0.58493 0.4 0.88777 0.0
C158 C 0.57553 0.43434 0.8835 0.0
N159 N 0.55624 0.50936 0.87551 0.0
C160 C 0.52721 0.4717 0.88588 0.0
C161 C 0.48955 0.47375 0.89252 0.0
C162 C 0.49458 0.51386 0.88591 0.0
C163 C 0.53479 0.53389 0.87566 0.0
N164 N 0.62035 0.58247 0.85122 0.0
C165 C 0.59297 0.59981 0.85492 0.0
C166 C 0.60748 0.64156 0.84658 0.0
C167 C 0.64683 0.65188 0.83713 0.0
C168 C 0.65389 0.61548 0.84019 0.0
N169 N 0.57235 0.48773 0.84159 0.0
C170 C 0.50841 0.43215 0.81502 0.0
C171 C 0.50709 0.46922 0.82199 0.0
C172 C 0.53908 0.49629 0.83511 0.0
C173 C 0.54318 0.42412 0.82123 0.0
C174 C 0.57473 0.45229 0.83436 0.0
N175 N 0.65561 0.56115 0.88144 0.0
C176 C 0.67725 0.61932 0.90372 0.0
C177 C 0.71971 0.62161 0.90701 0.0
C178 C 0.72853 0.59148 0.89787 0.0
C179 C 0.69608 0.56152 0.88533 0.0
C180 C 0.64597 0.58905 0.89108 0.0
H181 H 0.70496 0.53965 0.87872 0.0
H182 H 0.61483 0.58985 0.88904 0.0
H183 H 0.53551 0.52342 0.84001 0.0
H184 H 0.60033 0.44436 0.83861 0.0
C185 C 0.67469 0.47316 0.85714 0.0
C186 C 0.69368 0.61452 0.83274 0.0
C187 C 0.53346 0.43299 0.88964 0.0
C188 C 0.5535 0.57578 0.8661 0.0
H189 H 0.76087 0.5944 0.81889 0.0
H190 H 0.7506 0.51662 0.83211 0.0
H191 H 0.6422 0.39148 0.87851 0.0
H192 H 0.56413 0.36934 0.89611 0.0
H193 H 0.46119 0.44864 0.90116 0.0
H194 H 0.47148 0.52672 0.8882 0.0
H195 H 0.59157 0.66223 0.84739 0.0
H196 H 0.6682 0.68297 0.82907 0.0
H197 H 0.48049 0.47656 0.81777 0.0
H198 H 0.546 0.39616 0.81604 0.0
H199 H 0.66881 0.64211 0.91035 0.0
H200 H 0.76056 0.59132 0.90023 0.0
C201 C 0.03919 0.13097 0.07405 0.0
C202 C 0.03176 0.13007 0.05557 0.0
C203 C 0.02351 0.15267 0.08521 0.0
C204 C 0.99794 0.2457 0.08201 0.0
H205 H 0.96816 0.21689 0.1323 0.0
C206 C 0.96726 0.36215 0.1276 0.0
C207 C 0.99243 0.37386 0.14369 0.0
C208 C 0.9642 0.32718 0.11711 0.0
C209 C 0.97648 0.22532 0.11827 0.0
H210 H 0.99782 0.14674 0.03453 0.0
H211 H 0.96891 0.18293 0.05405 0.0
H212 H 0.97286 0.16157 0.11349 0.0
H213 H 0.03287 0.35728 0.1617 0.0
H214 H 0.0278 0.29635 0.1433 0.0
H215 H 0.00207 0.30958 0.08683 0.0
C216 C 0.98848 0.16862 0.05987 0.0
C217 C 0.97922 0.1937 0.10749 0.0
C218 C 0.00473 0.14756 0.04869 0.0
C219 C 0.01378 0.34938 0.14923 0.0
C220 C 0.01036 0.31413 0.13883 0.0
C221 C 0.99479 0.27702 0.09274 0.0
C222 C -0.00045 0.17335 0.07813 0.0
C223 C 0.99084 0.20388 0.08928 0.0
C224 C 0.98583 0.30291 0.12259 0.0
C225 C 0.98489 0.26758 0.11103 0.0
H226 H 0.05999 0.11788 0.07975 0.0
H227 H 0.03293 0.15578 0.09917 0.0
H228 H 0.00797 0.25533 0.06816 0.0
H229 H 0.95057 0.38054 0.12299 0.0
H230 H 0.94488 0.31908 0.10469 0.0
C231 C 0.93935 0.11569 0.39739 0.0
C232 C 0.94179 0.07571 0.39884 0.0
C233 C 0.91984 0.12749 0.41106 0.0
C234 C 0.83586 0.07396 0.44861 0.0
H235 H 0.87001 0.2013 0.45434 0.0
C236 C 0.73145 0.12895 0.4927 0.0
C237 C 0.71108 0.14822 0.48196 0.0
C238 C 0.76725 0.12366 0.4859 0.0
C239 C 0.86049 0.16568 0.453 0.0
H240 H 0.92761 0.01778 0.41616 0.0
H241 H 0.89444 0.03913 0.44045 0.0
H242 H 0.9218 0.18519 0.43733 0.0
H243 H 0.71179 0.17711 0.45588 0.0
H244 H 0.77628 0.17006 0.44423 0.0
H245 H 0.77449 0.05487 0.46441 0.0
C246 C 0.90676 0.06084 0.4285 0.0
C247 C 0.88983 0.1563 0.44316 0.0
C248 C 0.92598 0.04869 0.41464 0.0
C249 C 0.72789 0.16333 0.46452 0.0
C250 C 0.76447 0.15909 0.45787 0.0
C251 C 0.80707 0.08347 0.45878 0.0
C252 C 0.90262 0.09996 0.42671 0.0
C253 C 0.87685 0.11021 0.44018 0.0
C254 C 0.78378 0.13848 0.4684 0.0
C255 C 0.81836 0.12927 0.46049 0.0
H256 H 0.95073 0.13708 0.38534 0.0
H257 H 0.91635 0.15718 0.4089 0.0
H258 H 0.82436 0.03806 0.44652 0.0
H259 H 0.71856 0.11668 0.50615 0.0
H260 H 0.78157 0.10747 0.49418 0.0
C261 C 0.9932 0.90847 0.73145 0.0
C262 C 0.98892 0.94706 0.72832 0.0
C263 C 0.96627 0.8757 0.74485 0.0
C264 C 0.91471 0.8179 0.77835 0.0
H265 H 0.78497 0.78758 0.77979 0.0
C266 C 0.77492 0.68441 0.8287 0.0
C267 C 0.72975 0.65432 0.82181 0.0
C268 C 0.80915 0.72167 0.81831 0.0
C269 C 0.82099 0.79544 0.7795 0.0
H270 H 0.95611 0.98342 0.7378 0.0
H271 H 0.91051 0.92746 0.7613 0.0
H272 H 0.8419 0.85055 0.76044 0.0
H273 H 0.68449 0.63832 0.79888 0.0
H274 H 0.74424 0.70337 0.78056 0.0
H275 H 0.89297 0.76148 0.79708 0.0
C276 C 0.93332 0.92151 0.75306 0.0
C277 C 0.85386 0.832 0.76859 0.0
C278 C 0.95972 0.95383 0.73959 0.0
C279 C 0.71913 0.66157 0.80442 0.0
C280 C 0.75323 0.6988 0.79403 0.0
C281 C 0.88168 0.78118 0.78932 0.0
C282 C 0.93491 0.88122 0.75543 0.0
C283 C 0.90106 0.84358 0.7678 0.0
C284 C 0.79858 0.72936 0.80088 0.0
C285 C 0.83436 0.76932 0.78985 0.0
H286 H 0.01544 0.9023 0.72297 0.0
H287 H 0.96822 0.84496 0.74628 0.0
H288 H 0.95086 0.82614 0.77811 0.0
H289 H 0.78357 0.67907 0.84214 0.0
H290 H 0.84359 0.74483 0.824 0.0
C291 C 0.0773 0.93786 0.07924 0.0
C292 C 0.08956 0.93923 0.06124 0.0
C293 C 0.06575 0.8993 0.09015 0.0
C294 C 0.08304 0.80083 0.09378 0.0
H295 H 0.97971 0.75138 0.12789 0.0
C296 C 0.02418 0.6331 0.13465 0.0
C297 C 0.01451 0.63372 0.15275 0.0
C298 C 0.03053 0.66882 0.12309 0.0
C299 C 0.00894 0.76505 0.11854 0.0
H300 H 0.09841 0.9008 0.04051 0.0
H301 H 0.07802 0.83363 0.05948 0.0
H302 H 0.99631 0.81711 0.10852 0.0
H303 H 0.00329 0.67093 0.17316 0.0
H304 H 0.01478 0.7339 0.15302 0.0
H305 H 0.09604 0.74921 0.10387 0.0
C306 C 0.07797 0.86257 0.06524 0.0
C307 C 0.01844 0.8027 0.10745 0.0
C308 C 0.08944 0.90103 0.05434 0.0
C309 C 0.01049 0.66994 0.15916 0.0
C310 C 0.01685 0.7057 0.14763 0.0
C311 C 0.07359 0.76328 0.10487 0.0
C312 C 0.06629 0.86137 0.08329 0.0
C313 C 0.05566 0.82105 0.09497 0.0
C314 C 0.02738 0.70579 0.12948 0.0
C315 C 0.03649 0.74498 0.1174 0.0
H316 H 0.07705 0.96673 0.08496 0.0
H317 H 0.05735 0.89961 0.10405 0.0
H318 H 0.11246 0.81463 0.08451 0.0
H319 H 0.02733 0.60526 0.12954 0.0
H320 H 0.03795 0.66752 0.10916 0.0
C321 C 0.13448 0.07791 0.38882 0.0
C322 C 0.1352 0.11774 0.38281 0.0
C323 C 0.1738 0.08171 0.39729 0.0
C324 C 0.28331 0.1674 0.42079 0.0
H325 H 0.31002 0.06956 0.41823 0.0
C326 C 0.4107 0.15727 0.46995 0.0
C327 C 0.4381 0.13979 0.4641 0.0
C328 C 0.3757 0.15547 0.45904 0.0
C329 C 0.30365 0.09763 0.41893 0.0
H330 H 0.17837 0.19265 0.38021 0.0
H331 H 0.24774 0.19928 0.39425 0.0
H332 H 0.24771 0.06586 0.39999 0.0
H333 H 0.4512 0.10736 0.44227 0.0
H334 H 0.39133 0.10582 0.42279 0.0
H335 H 0.34054 0.20023 0.4391 0.0
C336 C 0.21627 0.16512 0.39306 0.0
C337 C 0.26724 0.0951 0.40865 0.0
C338 C 0.1766 0.16136 0.38489 0.0
C339 C 0.43018 0.12073 0.44709 0.0
C340 C 0.3957 0.11968 0.43601 0.0
C341 C 0.32019 0.17032 0.43083 0.0
C342 C 0.21515 0.12541 0.39967 0.0
C343 C 0.25606 0.12959 0.40964 0.0
C344 C 0.36786 0.13691 0.44186 0.0
C345 C 0.33039 0.13509 0.43028 0.0
H346 H 0.10293 0.04381 0.38752 0.0
H347 H 0.17109 0.05036 0.40245 0.0
H348 H 0.27557 0.1944 0.42215 0.0
H349 H 0.41579 0.17159 0.48313 0.0
H350 H 0.35433 0.16802 0.46424 0.0
C351 C 0.13999 0.17169 0.74035 0.0
C352 C 0.14029 0.14775 0.72534 0.0
C353 C 0.18234 0.20469 0.74831 0.0
C354 C 0.30634 0.23814 0.75307 0.0
H355 H 0.32281 0.3519 0.77108 0.0
C356 C 0.45048 0.35268 0.8038 0.0
C357 C 0.4722 0.40104 0.80202 0.0
C358 C 0.41306 0.32321 0.79272 0.0
C359 C 0.31903 0.32056 0.76595 0.0
H360 H 0.18563 0.14056 0.70674 0.0
H361 H 0.25938 0.19831 0.7206 0.0
H362 H 0.25127 0.29882 0.75481 0.0
H363 H 0.47341 0.45642 0.78657 0.0
H364 H 0.40811 0.40495 0.76722 0.0
H365 H 0.37416 0.25994 0.7642 0.0
C366 C 0.22632 0.19109 0.72632 0.0
C367 C 0.27778 0.28989 0.75681 0.0
C368 C 0.184 0.15816 0.71833 0.0
C369 C 0.45685 0.41929 0.78848 0.0
C370 C 0.41944 0.38983 0.77741 0.0
C371 C 0.34755 0.26876 0.76225 0.0
C372 C 0.22595 0.21449 0.74147 0.0
C373 C 0.27078 0.24814 0.75041 0.0
C374 C 0.39657 0.34145 0.77961 0.0
C375 C 0.35418 0.31013 0.76893 0.0
H376 H 0.10703 0.16456 0.74612 0.0
H377 H 0.18084 0.22174 0.7601 0.0
H378 H 0.30184 0.20607 0.74843 0.0
H379 H 0.46106 0.33751 0.81424 0.0
H380 H 0.39585 0.28609 0.79489 0.0
C381 C 0.94836 0.12566 0.66919 0.0
C382 C 0.98286 0.11614 0.66407 0.0
C383 C 0.92704 0.13943 0.65658 0.0
C384 C 0.90134 0.13057 0.60839 0.0
H385 H 0.84396 0.20016 0.62118 0.0
C386 C 0.78361 0.16742 0.56155 0.0
C387 C 0.73833 0.15024 0.56874 0.0
C388 C 0.81924 0.16916 0.57211 0.0
C389 C 0.86 0.18085 0.61744 0.0
H390 H 0.0246 0.11721 0.64176 0.0
H391 H 0.98837 0.14288 0.61975 0.0
H392 H 0.90071 0.19811 0.64129 0.0
H393 H 0.69452 0.12185 0.5924 0.0
H394 H 0.75744 0.12619 0.61109 0.0
H395 H 0.86065 0.11401 0.58437 0.0
C396 C 0.97674 0.13819 0.63351 0.0
C397 C 0.89231 0.17941 0.62896 0.0
C398 C 0.99784 0.12386 0.64616 0.0
C399 C 0.72919 0.13506 0.58662 0.0
C400 C 0.76509 0.1378 0.59727 0.0
C401 C 0.86972 0.13285 0.5967 0.0
C402 C 0.94001 0.14476 0.63848 0.0
C403 C 0.91221 0.15295 0.62489 0.0
C404 C 0.81034 0.1548 0.59009 0.0
C405 C 0.84781 0.15687 0.6014 0.0
H406 H 0.93592 0.12025 0.68286 0.0
H407 H 0.89853 0.14342 0.66099 0.0
H408 H 0.91534 0.10937 0.60484 0.0
H409 H 0.79125 0.17915 0.54775 0.0
H410 H 0.85389 0.18231 0.56632 0.0
C411 C 0.98971 0.98524 0.97882 0.0
C412 C 0.01298 0.98468 0.99444 0.0
C413 C 0.95847 0.94402 0.97023 0.0
C414 C 0.91894 0.8567 0.94883 0.0
H415 H 0.8308 0.74507 0.9757 0.0
C416 C 0.80347 0.68281 0.91406 0.0
C417 C 0.75547 0.65727 0.91901 0.0
C418 C 0.83637 0.72012 0.92421 0.0
C419 C 0.85512 0.77599 0.96801 0.0
H420 H 0.021 0.94002 0.0134 0.0
H421 H 0.96689 0.8683 -0.00171 0.0
H422 H 0.88364 0.81639 0.99144 0.0
H423 H 0.70488 0.64925 0.93905 0.0
H424 H 0.76209 0.71487 0.95656 0.0
H425 H 0.88961 0.81685 0.92538 0.0
C426 C 0.97245 0.90059 0.9928 0.0
C427 C 0.88569 0.81674 0.97703 0.0
C428 C 0.00367 0.94181 0.00141 0.0
C429 C 0.7415 0.66863 0.93476 0.0
C430 C 0.77439 0.70595 0.9449 0.0
C431 C 0.88842 0.81602 0.93981 0.0
C432 C 0.94978 0.90126 0.97703 0.0
C433 C 0.91773 0.85765 0.96753 0.0
C434 C 0.82203 0.73276 0.93953 0.0
C435 C 0.85599 0.77523 0.94928 0.0
H436 H 0.99583 0.01756 0.97312 0.0
H437 H 0.94096 0.94565 0.95827 0.0
H438 H 0.94363 0.88742 0.94111 0.0
H439 H 0.81537 0.67523 0.90194 0.0
H440 H 0.87295 0.73963 0.91987 0.0
C441 C 0.94955 0.86235 0.34492 0.0
C442 C 0.978 0.90991 0.34058 0.0
C443 C 0.95418 0.82985 0.33546 0.0
C444 C 0.99496 0.81595 0.29194 0.0
H445 H 0.99181 0.71066 0.31467 0.0
C446 C 0.0342 0.69722 0.25237 0.0
C447 C 0.0046 0.64916 0.25542 0.0
C448 C 0.03253 0.72847 0.26365 0.0
C449 C 0.9923 0.73966 0.30812 0.0
H450 H 0.03478 0.96071 0.32333 0.0
H451 H 0.04295 0.90426 0.30702 0.0
H452 H 0.98568 0.76613 0.3329 0.0
H453 H 0.95116 0.59634 0.27314 0.0
H454 H 0.94751 0.651 0.29263 0.0
H455 H 0.00112 0.78958 0.26719 0.0
C456 C 0.01653 0.89195 0.31751 0.0
C457 C 0.9888 0.7714 0.31856 0.0
C458 C 0.01197 0.92433 0.32693 0.0
C459 C 0.97401 0.63313 0.27028 0.0
C460 C 0.9723 0.66446 0.28157 0.0
C461 C 0.99836 0.78429 0.28153 0.0
C462 C 0.98726 0.84431 0.32147 0.0
C463 C 0.99037 0.81003 0.31057 0.0
C464 C 0.0011 0.71249 0.27823 0.0
C465 C 0.99734 0.7459 0.28949 0.0
H466 H 0.9231 0.85011 0.35538 0.0
H467 H 0.93093 0.79334 0.33876 0.0
H468 H 0.99529 0.84481 0.28534 0.0
H469 H 0.05785 0.71081 0.24097 0.0
H470 H 0.05571 0.76527 0.26085 0.0
C471 C 0.18933 0.08372 0.64607 0.0
C472 C 0.14514 0.06813 0.63819 0.0
C473 C 0.22895 0.09639 0.63555 0.0
C474 C 0.26311 0.07741 0.59159 0.0
H475 H 0.38615 0.18283 0.60372 0.0
C476 C 0.42874 0.132 0.54906 0.0
C477 C 0.46964 0.14287 0.55851 0.0
C478 C 0.3896 0.12704 0.55798 0.0
C479 C 0.35209 0.1531 0.60024 0.0
H480 H 0.10811 0.05428 0.61301 0.0
H481 H 0.17751 0.07661 0.59461 0.0
H482 H 0.3165 0.16648 0.62066 0.0
H483 H 0.50266 0.15745 0.58441 0.0
H484 H 0.43406 0.14854 0.6002 0.0
H485 H 0.29871 0.06356 0.57136 0.0
C486 C 0.18129 0.07858 0.60897 0.0
C487 C 0.31219 0.14375 0.60994 0.0
C488 C 0.14159 0.06599 0.61951 0.0
C489 C 0.47142 0.14951 0.57693 0.0
C490 C 0.43227 0.14455 0.58588 0.0
C491 C 0.303 0.08675 0.5819 0.0
C492 C 0.22538 0.09375 0.61689 0.0
C493 C 0.26731 0.10549 0.60585 0.0
C494 C 0.39069 0.1327 0.57654 0.0
C495 C 0.34803 0.12443 0.58623 0.0
H496 H 0.19335 0.0858 0.66042 0.0
H497 H 0.2622 0.10729 0.64209 0.0
H498 H 0.22917 0.0473 0.58827 0.0
H499 H 0.42689 0.12665 0.53482 0.0
H500 H 0.35838 0.11849 0.55037 0.0
C501 C 0.21471 0.17435 0.98657 0.0
C502 C 0.21212 0.13547 0.99477 0.0
C503 C 0.24612 0.19798 0.97251 0.0
C504 C 0.3591 0.22225 0.95491 0.0
H505 H 0.33016 0.28147 0.91647 0.0
C506 C 0.5022 0.3866 0.91793 0.0
C507 C 0.49653 0.39184 0.8997 0.0
C508 C 0.46662 0.34861 0.92758 0.0
C509 C 0.33874 0.26466 0.92693 0.0
H510 H 0.23939 0.08992 0.99424 0.0
H511 H 0.29446 0.13138 0.96954 0.0
H512 H 0.26699 0.22475 0.93606 0.0
H513 H 0.45064 0.36219 0.87699 0.0
H514 H 0.38809 0.29515 0.89381 0.0
H515 H 0.43093 0.26252 0.94588 0.0
C516 C 0.27231 0.14368 0.97414 0.0
C517 C 0.3026 0.2325 0.93827 0.0
C518 C 0.24068 0.11988 0.98823 0.0
C519 C 0.45532 0.3585 0.8911 0.0
C520 C 0.41968 0.32043 0.90074 0.0
C521 C 0.39525 0.2544 0.94356 0.0
C522 C 0.27582 0.1834 0.9663 0.0
C523 C 0.3126 0.21191 0.95268 0.0
C524 C 0.42477 0.31527 0.91913 0.0
C525 C 0.38568 0.27689 0.92974 0.0
H526 H 0.1936 0.1876 0.99137 0.0
H527 H 0.24848 0.22889 0.96699 0.0
H528 H 0.36804 0.20719 0.96594 0.0
H529 H 0.53385 0.41228 0.92472 0.0
H530 H 0.47133 0.34613 0.94177 0.0
C531 C 0.01872 0.12021 0.29432 0.0
C532 C 0.04781 0.1483 0.30812 0.0
C533 C 0.01713 0.14033 0.27806 0.0
C534 C 0.06959 0.25158 0.25199 0.0
H535 H 0.93989 0.22103 0.24923 0.0
C536 C 0.0167 0.3683 0.21454 0.0
C537 C 0.9941 0.38263 0.22614 0.0
C538 C 0.02148 0.33093 0.21929 0.0
C539 C 0.97611 0.22944 0.24959 0.0
H540 H 0.1025 0.21818 0.31499 0.0
H541 H 0.10028 0.2531 0.28666 0.0
H542 H 0.958 0.17003 0.26598 0.0
H543 H 0.95891 0.36976 0.25164 0.0
H544 H 0.96575 0.3034 0.25974 0.0
H545 H 0.08785 0.31269 0.23651 0.0
C546 C 0.07833 0.21576 0.28833 0.0
C547 C 0.9865 0.20004 0.25902 0.0
C548 C 0.07942 0.1958 0.30463 0.0
C549 C 0.97529 0.35844 0.24231 0.0
C550 C 0.97931 0.32063 0.24692 0.0
C551 C 0.05909 0.28076 0.24236 0.0
C552 C 0.04516 0.18865 0.2753 0.0
C553 C 0.0336 0.21199 0.26105 0.0
C554 C 0.00316 0.30703 0.2356 0.0
C555 C 0.01254 0.27101 0.24184 0.0
H556 H 0.99402 0.08344 0.29664 0.0
H557 H 0.99158 0.11861 0.26816 0.0
H558 H 0.10616 0.26149 0.25328 0.0
H559 H 0.03187 0.38696 0.20206 0.0
H560 H 0.04018 0.32122 0.2104 0.0
loop_
_geom_bond_atom_site_label_1
_geom_bond_atom_site_label_2
_geom_bond_distance
_geom_bond_site_symmetry_2
_ccdc_geom_bond_type
Mg0 O1 2.028 . S
Mg0 O7 1.986 . S
Mg0 O9 2.114 . S
Mg0 O10 2.251 . S
Mg0 O13 2.010 . S
O1 Mg0 2.028 . S
O1 C4 1.250 . S
O2 Mg3 2.038 . S
O2 C4 1.275 . S
Mg3 O2 2.038 . S
Mg3 O8 2.032 . S
Mg3 O10 2.079 . S
C4 O1 1.250 . S
C4 O2 1.275 . S
C5 O6 1.264 . S
C5 O13 1.249 . S
O6 C5 1.264 . S
O7 Mg0 1.986 . S
O7 C11 1.246 . S
O8 Mg3 2.032 . S
O8 C11 1.259 . S
O9 Mg0 2.114 . S
O9 C12 1.252 . S
O10 Mg0 2.251 . S
O10 Mg3 2.079 . S
O10 C12 1.273 . S
C11 O7 1.246 . S
C11 O8 1.259 . S
C12 O9 1.252 . S
C12 O10 1.273 . S
O13 Mg0 2.010 . S
O13 C5 1.249 . S
Mg14 O15 2.028 . S
Mg14 O21 1.986 . S
Mg14 O23 2.114 1_455 S
Mg14 O24 2.251 1_455 S
Mg14 O27 2.010 1_455 S
O15 Mg14 2.028 . S
O15 C18 1.250 . S
O16 Mg17 2.028 . S
O16 C18 1.248 . S
Mg17 O16 2.028 . S
Mg17 O22 2.032 . S
Mg17 O24 2.079 1_455 S
C18 O15 1.250 . S
C18 O16 1.248 . S
C19 O20 1.264 . S
C19 O27 1.249 1_565 S
O20 C19 1.264 . S
O21 Mg14 1.986 . S
O21 C25 1.246 . S
O22 Mg17 2.032 . S
O22 C25 1.259 . S
O23 Mg14 2.114 1_655 S
O23 C26 1.252 . S
O24 Mg14 2.251 1_655 S
O24 Mg17 2.079 1_655 S
O24 C26 1.273 . S
C25 O21 1.246 . S
C25 O22 1.259 . S
C26 O23 1.252 . S
C26 O24 1.273 . S
O27 Mg14 2.010 1_655 S
O27 C19 1.249 1_545 S
Mg28 O29 2.028 . S
Mg28 O35 1.986 . S
Mg28 O37 2.114 1_545 S
Mg28 O38 2.251 1_545 S
Mg28 O41 2.010 . S
O29 Mg28 2.028 . S
O29 C32 1.250 . S
O30 Mg31 2.028 1_455 S
O30 C32 1.248 . S
Mg31 O30 2.028 1_655 S
Mg31 O36 2.032 . S
Mg31 O38 2.079 1_645 S
C32 O29 1.250 . S
C32 O30 1.248 . S
C33 O34 1.264 1_545 S
C33 O41 1.249 . S
O34 C33 1.264 1_565 S
O35 Mg28 1.986 . S
O35 C39 1.246 . S
O36 Mg31 2.032 . S
O36 C39 1.259 1_655 S
O37 Mg28 2.114 1_565 S
O37 C40 1.252 . S
O38 Mg28 2.251 1_565 S
O38 Mg31 2.079 1_465 S
O38 C40 1.273 . S
C39 O35 1.246 . S
C39 O36 1.259 1_455 S
C40 O37 1.252 . S
C40 O38 1.273 . S
O41 Mg28 2.010 . S
O41 C33 1.249 . S
C42 C43 1.443 . S
C42 N46 1.376 . S
C42 C80 1.389 . S
C43 C42 1.443 . S
C43 C44 1.340 . S
C43 H83 0.951 . S
C44 C43 1.340 . S
C44 C45 1.439 . S
C44 H84 0.950 . S
C45 C44 1.439 . S
C45 N46 1.374 . S
C45 C79 1.395 . S
N46 C42 1.376 . S
N46 C45 1.374 . S
N46 Co47 2.008 . S
Co47 N46 2.008 . S
Co47 N48 1.995 . S
Co47 N53 2.008 1_455 S
Co47 N58 1.995 . S
Co47 N63 2.282 . S
Co47 N69 2.282 . S
N48 Co47 1.995 . S
N48 C49 1.376 . S
N48 C52 1.383 . S
C49 N48 1.376 . S
C49 C50 1.446 . S
C49 C79 1.391 . S
C50 C49 1.446 . S
C50 C51 1.339 . S
C50 H85 0.949 . S
C51 C50 1.339 . S
C51 C52 1.439 . S
C51 H86 0.950 . S
C52 N48 1.383 . S
C52 C51 1.439 . S
C52 C81 1.392 . S
N53 Co47 2.008 1_655 S
N53 C54 1.376 . S
N53 C57 1.374 . S
C54 N53 1.376 . S
C54 C55 1.443 . S
C54 C81 1.389 1_655 S
C55 C54 1.443 . S
C55 C56 1.340 . S
C55 H87 0.951 . S
C56 C55 1.340 . S
C56 C57 1.439 . S
C56 H88 0.950 . S
C57 N53 1.374 . S
C57 C56 1.439 . S
C57 C82 1.395 . S
N58 Co47 1.995 . S
N58 C59 1.376 1_455 S
N58 C62 1.383 . S
C59 N58 1.376 1_655 S
C59 C60 1.446 . S
C59 C82 1.391 . S
C60 C59 1.446 . S
C60 C61 1.339 . S
C60 H89 0.949 . S
C61 C60 1.339 . S
C61 C62 1.439 1_655 S
C61 H90 0.950 . S
C62 N58 1.383 . S
C62 C61 1.439 1_455 S
C62 C80 1.392 . S
N63 Co47 2.282 . S
N63 C66 1.332 . S
N63 C68 1.332 . S
C64 C65 1.386 . S
C64 C67 1.388 . S
C65 C64 1.386 . S
C65 C66 1.382 . S
C65 H91 0.950 1_455 S
C66 N63 1.332 . S
C66 C65 1.382 . S
C66 H77 0.952 1_455 S
C67 C64 1.388 . S
C67 C68 1.382 . S
C67 H92 0.950 . S
C68 N63 1.332 . S
C68 C67 1.382 . S
C68 H78 0.948 . S
N69 Co47 2.282 . S
N69 C73 1.332 . S
N69 C74 1.332 . S
C70 C71 1.374 1_655 S
C70 C74 1.368 1_655 S
C70 H93 0.978 . S
C71 C70 1.374 1_455 S
C71 C72 1.386 . S
C72 C71 1.386 . S
C72 C73 1.382 . S
C72 H94 0.950 . S
C73 N69 1.332 . S
C73 C72 1.382 . S
C73 H75 0.952 . S
C74 N69 1.332 . S
C74 C70 1.368 1_455 S
C74 H76 0.948 1_455 S
H75 C73 0.952 . S
H76 C74 0.948 1_655 S
H77 C66 0.952 1_655 S
H78 C68 0.948 . S
C79 C45 1.395 . S
C79 C49 1.391 . S
C80 C42 1.389 . S
C80 C62 1.392 . S
C81 C52 1.392 . S
C81 C54 1.389 1_455 S
C82 C57 1.395 . S
C82 C59 1.391 . S
H83 C43 0.951 . S
H84 C44 0.950 . S
H85 C50 0.949 . S
H86 C51 0.950 . S
H87 C55 0.951 . S
H88 C56 0.950 . S
H89 C60 0.949 . S
H90 C61 0.950 . S
H91 C65 0.950 1_655 S
H92 C67 0.950 . S
H93 C70 0.978 . S
H94 C72 0.950 . S
C95 C96 1.443 . S
C95 N99 1.376 . S
C95 C133 1.389 . S
C96 C95 1.443 . S
C96 C97 1.340 1_545 S
C96 H136 0.951 . S
C97 C96 1.340 1_565 S
C97 C98 1.439 . S
C97 H137 0.950 . S
C98 C97 1.439 . S
C98 N99 1.362 1_565 S
C98 C132 1.406 . S
N99 C95 1.376 . S
N99 C98 1.362 1_545 S
N99 Co100 2.008 . S
Co100 N99 2.008 . S
Co100 N101 1.995 . S
Co100 N106 2.008 . S
Co100 N111 1.995 . S
Co100 N116 2.282 . S
Co100 N122 2.282 . S
N101 Co100 1.995 . S
N101 C102 1.376 . S
N101 C105 1.383 . S
C102 N101 1.376 . S
C102 C103 1.446 1_545 S
C102 C132 1.391 1_545 S
C103 C102 1.446 1_565 S
C103 C104 1.339 1_565 S
C103 H138 0.949 . S
C104 C103 1.339 1_545 S
C104 C105 1.439 . S
C104 H139 0.950 . S
C105 N101 1.383 . S
C105 C104 1.439 . S
C105 C134 1.392 . S
N106 Co100 2.008 . S
N106 C107 1.376 . S
N106 C110 1.374 . S
C107 N106 1.376 . S
C107 C108 1.443 . S
C107 C134 1.389 . S
C108 C107 1.443 . S
C108 C109 1.340 . S
C108 H140 0.951 . S
C109 C108 1.340 . S
C109 C110 1.439 . S
C109 H141 0.950 . S
C110 N106 1.374 . S
C110 C109 1.439 . S
C110 C135 1.395 . S
N111 Co100 1.995 . S
N111 C112 1.376 . S
N111 C115 1.383 . S
C112 N111 1.376 . S
C112 C113 1.446 . S
C112 C135 1.391 . S
C113 C112 1.446 . S
C113 C114 1.339 . S
C113 H142 0.949 . S
C114 C113 1.339 . S
C114 C115 1.439 . S
C114 H143 0.950 . S
C115 N111 1.383 . S
C115 C114 1.439 . S
C115 C133 1.392 . S
N116 Co100 2.282 . S
N116 C119 1.332 . S
N116 C121 1.332 . S
C117 C118 1.386 . S
C117 C120 1.388 . S
C118 C117 1.386 . S
C118 C119 1.382 . S
C118 H144 0.950 . S
C119 N116 1.332 . S
C119 C118 1.382 . S
C119 H130 0.952 . S
C120 C117 1.388 . S
C120 C121 1.382 . S
C120 H145 0.950 . S
C121 N116 1.332 . S
C121 C120 1.382 . S
C121 H131 0.948 . S
N122 Co100 2.282 . S
N122 C126 1.332 . S
N122 C127 1.332 . S
C123 C124 1.388 . S
C123 C127 1.382 . S
C123 H146 0.950 . S
C124 C123 1.388 . S
C124 C125 1.386 . S
C125 C124 1.386 . S
C125 C126 1.382 . S
C125 H147 0.950 . S
C126 N122 1.332 . S
C126 C125 1.382 . S
C126 H128 0.952 . S
C127 N122 1.332 . S
C127 C123 1.382 . S
C127 H129 0.948 . S
H128 C126 0.952 . S
H129 C127 0.948 . S
H130 C119 0.952 . S
H131 C121 0.948 . S
C132 C98 1.406 . S
C132 C102 1.391 1_565 S
C133 C95 1.389 . S
C133 C115 1.392 . S
C134 C105 1.392 . S
C134 C107 1.389 . S
C135 C110 1.395 . S
C135 C112 1.391 . S
H136 C96 0.951 . S
H137 C97 0.950 . S
H138 C103 0.949 . S
H139 C104 0.950 . S
H140 C108 0.951 . S
H141 C109 0.950 . S
H142 C113 0.949 . S
H143 C114 0.950 . S
H144 C118 0.950 . S
H145 C120 0.950 . S
H146 C123 0.950 . S
H147 C125 0.950 . S
C148 C149 1.443 . S
C148 N152 1.376 . S
C148 C186 1.389 . S
C149 C148 1.443 . S
C149 C150 1.340 . S
C149 H189 0.951 . S
C150 C149 1.340 . S
C150 C151 1.439 . S
C150 H190 0.950 . S
C151 C150 1.439 . S
C151 N152 1.374 . S
C151 C185 1.395 . S
N152 C148 1.376 . S
N152 C151 1.374 . S
N152 Co153 2.008 . S
Co153 N152 2.008 . S
Co153 N154 1.995 . S
Co153 N159 2.008 . S
Co153 N164 1.995 . S
Co153 N169 2.282 . S
Co153 N175 2.282 . S
N154 Co153 1.995 . S
N154 C155 1.376 . S
N154 C158 1.383 . S
C155 N154 1.376 . S
C155 C156 1.446 . S
C155 C185 1.391 . S
C156 C155 1.446 . S
C156 C157 1.339 . S
C156 H191 0.949 . S
C157 C156 1.339 . S
C157 C158 1.439 . S
C157 H192 0.950 . S
C158 N154 1.383 . S
C158 C157 1.439 . S
C158 C187 1.392 . S
N159 Co153 2.008 . S
N159 C160 1.376 . S
N159 C163 1.374 . S
C160 N159 1.376 . S
C160 C161 1.443 . S
C160 C187 1.389 . S
C161 C160 1.443 . S
C161 C162 1.340 . S
C161 H193 0.951 . S
C162 C161 1.340 . S
C162 C163 1.439 . S
C162 H194 0.950 . S
C163 N159 1.374 . S
C163 C162 1.439 . S
C163 C188 1.395 . S
N164 Co153 1.995 . S
N164 C165 1.376 . S
N164 C168 1.383 . S
C165 N164 1.376 . S
C165 C166 1.446 . S
C165 C188 1.391 . S
C166 C165 1.446 . S
C166 C167 1.339 . S
C166 H195 0.949 . S
C167 C166 1.339 . S
C167 C168 1.439 . S
C167 H196 0.950 . S
C168 N164 1.383 . S
C168 C167 1.439 . S
C168 C186 1.392 . S
N169 Co153 2.282 . S
N169 C172 1.332 . S
N169 C174 1.332 . S
C170 C171 1.386 . S
C170 C173 1.388 . S
C171 C170 1.386 . S
C171 C172 1.382 . S
C171 H197 0.950 . S
C172 N169 1.332 . S
C172 C171 1.382 . S
C172 H183 0.952 . S
C173 C170 1.388 . S
C173 C174 1.382 . S
C173 H198 0.950 . S
C174 N169 1.332 . S
C174 C173 1.382 . S
C174 H184 0.948 . S
N175 Co153 2.282 . S
N175 C179 1.332 . S
N175 C180 1.332 . S
C176 C177 1.388 . S
C176 C180 1.382 . S
C176 H199 0.950 . S
C177 C176 1.388 . S
C177 C178 1.386 . S
C178 C177 1.386 . S
C178 C179 1.382 . S
C178 H200 0.950 . S
C179 N175 1.332 . S
C179 C178 1.382 . S
C179 H181 0.952 . S
C180 N175 1.332 . S
C180 C176 1.382 . S
C180 H182 0.948 . S
H181 C179 0.952 . S
H182 C180 0.948 . S
H183 C172 0.952 . S
H184 C174 0.948 . S
C185 C151 1.395 . S
C185 C155 1.391 . S
C186 C148 1.389 . S
C186 C168 1.392 . S
C187 C158 1.392 . S
C187 C160 1.389 . S
C188 C163 1.395 . S
C188 C165 1.391 . S
H189 C149 0.951 . S
H190 C150 0.950 . S
H191 C156 0.949 . S
H192 C157 0.950 . S
H193 C161 0.951 . S
H194 C162 0.950 . S
H195 C166 0.949 . S
H196 C167 0.950 . S
H197 C171 0.950 . S
H198 C173 0.950 . S
H199 C176 0.950 . S
H200 C178 0.950 . S
C201 C202 1.349 . S
C201 C203 1.327 . S
C201 H226 0.950 . S
C202 C201 1.349 . S
C202 C218 1.349 . S
C203 C201 1.327 . S
C203 C222 1.429 . S
C203 H227 0.950 . S
C204 C221 1.574 . S
C204 C223 1.368 . S
C204 H228 0.949 . S
H205 C209 0.949 . S
C206 C207 1.349 . S
C206 C208 1.327 . S
C206 H229 0.950 . S
C207 C206 1.349 . S
C207 C219 1.349 . S
C208 C206 1.327 . S
C208 C224 1.429 . S
C208 H230 0.950 . S
C209 H205 0.949 . S
C209 C217 1.574 . S
C209 C225 1.368 . S
H210 C218 0.950 . S
H211 C216 0.950 . S
H212 C217 0.949 . S
H213 C219 0.950 . S
H214 C220 0.950 . S
H215 C221 0.949 . S
C216 H211 0.950 . S
C216 C218 1.327 . S
C216 C222 1.429 . S
C217 C209 1.574 . S
C217 H212 0.949 . S
C217 C223 1.368 . S
C218 C202 1.349 . S
C218 H210 0.950 . S
C218 C216 1.327 . S
C219 C207 1.349 . S
C219 H213 0.950 . S
C219 C220 1.327 . S
C220 H214 0.950 . S
C220 C219 1.327 . S
C220 C224 1.429 . S
C221 C204 1.574 . S
C221 H215 0.949 . S
C221 C225 1.368 . S
C222 C203 1.429 . S
C222 C216 1.429 . S
C222 C223 1.523 . S
C223 C204 1.368 . S
C223 C217 1.368 . S
C223 C222 1.523 . S
C224 C208 1.429 . S
C224 C220 1.429 . S
C224 C225 1.523 . S
C225 C209 1.368 . S
C225 C221 1.368 . S
C225 C224 1.523 . S
H226 C201 0.950 . S
H227 C203 0.950 . S
H228 C204 0.949 . S
H229 C206 0.950 . S
H230 C208 0.950 . S
C231 C232 1.349 . S
C231 C233 1.327 . S
C231 H256 0.950 . S
C232 C231 1.349 . S
C232 C248 1.349 . S
C233 C231 1.327 . S
C233 C252 1.429 . S
C233 H257 0.950 . S
C234 C251 1.574 . S
C234 C253 1.368 . S
C234 H258 0.949 . S
H235 C239 0.949 . S
C236 C237 1.349 . S
C236 C238 1.327 . S
C236 H259 0.950 . S
C237 C236 1.349 . S
C237 C249 1.349 . S
C238 C236 1.327 . S
C238 C254 1.429 . S
C238 H260 0.950 . S
C239 H235 0.949 . S
C239 C247 1.574 . S
C239 C255 1.368 . S
H240 C248 0.950 . S
H241 C246 0.950 . S
H242 C247 0.949 . S
H243 C249 0.950 . S
H244 C250 0.950 . S
H245 C251 0.949 . S
C246 H241 0.950 . S
C246 C248 1.327 . S
C246 C252 1.429 . S
C247 C239 1.574 . S
C247 H242 0.949 . S
C247 C253 1.368 . S
C248 C232 1.349 . S
C248 H240 0.950 . S
C248 C246 1.327 . S
C249 C237 1.349 . S
C249 H243 0.950 . S
C249 C250 1.327 . S
C250 H244 0.950 . S
C250 C249 1.327 . S
C250 C254 1.429 . S
C251 C234 1.574 . S
C251 H245 0.949 . S
C251 C255 1.368 . S
C252 C233 1.429 . S
C252 C246 1.429 . S
C252 C253 1.523 . S
C253 C234 1.368 . S
C253 C247 1.368 . S
C253 C252 1.523 . S
C254 C238 1.429 . S
C254 C250 1.429 . S
C254 C255 1.523 . S
C255 C239 1.368 . S
C255 C251 1.368 . S
C255 C254 1.523 . S
H256 C231 0.950 . S
H257 C233 0.950 . S
H258 C234 0.949 . S
H259 C236 0.950 . S
H260 C238 0.950 . S
C261 C262 1.349 . S
C261 C263 1.327 . S
C261 H286 0.950 . S
C262 C261 1.349 . S
C262 C278 1.349 . S
C263 C261 1.327 . S
C263 C282 1.429 . S
C263 H287 0.950 . S
C264 C281 1.574 . S
C264 C283 1.368 . S
C264 H288 0.949 . S
H265 C269 0.949 . S
C266 C267 1.349 . S
C266 C268 1.327 . S
C266 H289 0.950 . S
C267 C266 1.349 . S
C267 C279 1.349 . S
C268 C266 1.327 . S
C268 C284 1.429 . S
C268 H290 0.950 . S
C269 H265 0.949 . S
C269 C277 1.574 . S
C269 C285 1.368 . S
H270 C278 0.950 1_455 S
H271 C276 0.950 . S
H272 C277 0.949 . S
H273 C279 0.950 . S
H274 C280 0.950 . S
H275 C281 0.949 . S
C276 H271 0.950 . S
C276 C278 1.327 . S
C276 C282 1.429 . S
C277 C269 1.574 . S
C277 H272 0.949 . S
C277 C283 1.368 . S
C278 C262 1.349 . S
C278 H270 0.950 1_655 S
C278 C276 1.327 . S
C279 C267 1.349 . S
C279 H273 0.950 . S
C279 C280 1.327 . S
C280 H274 0.950 . S
C280 C279 1.327 . S
C280 C284 1.429 . S
C281 C264 1.574 . S
C281 H275 0.949 . S
C281 C285 1.368 . S
C282 C263 1.429 . S
C282 C276 1.429 . S
C282 C283 1.523 . S
C283 C264 1.368 . S
C283 C277 1.368 . S
C283 C282 1.523 . S
C284 C268 1.429 . S
C284 C280 1.429 . S
C284 C285 1.523 . S
C285 C269 1.368 . S
C285 C281 1.368 . S
C285 C284 1.523 . S
H286 C261 0.950 . S
H287 C263 0.950 . S
H288 C264 0.949 . S
H289 C266 0.950 . S
H290 C268 0.950 . S
C291 C292 1.349 . S
C291 C293 1.327 . S
C291 H316 0.950 . S
C292 C291 1.349 . S
C292 C308 1.349 . S
C293 C291 1.327 . S
C293 C312 1.429 . S
C293 H317 0.950 . S
C294 C311 1.574 . S
C294 C313 1.368 . S
C294 H318 0.949 . S
H295 C299 0.949 . S
C296 C297 1.349 . S
C296 C298 1.327 . S
C296 H319 0.950 . S
C297 C296 1.349 . S
C297 C309 1.349 . S
C298 C296 1.327 . S
C298 C314 1.429 . S
C298 H320 0.950 . S
C299 H295 0.949 . S
C299 C307 1.574 . S
C299 C315 1.368 . S
H300 C308 0.950 . S
H301 C306 0.950 . S
H302 C307 0.949 . S
H303 C309 0.950 . S
H304 C310 0.950 . S
H305 C311 0.949 . S
C306 H301 0.950 . S
C306 C308 1.327 . S
C306 C312 1.429 . S
C307 C299 1.574 . S
C307 H302 0.949 . S
C307 C313 1.368 . S
C308 C292 1.349 . S
C308 H300 0.950 . S
C308 C306 1.327 . S
C309 C297 1.349 . S
C309 H303 0.950 . S
C309 C310 1.327 . S
C310 H304 0.950 . S
C310 C309 1.327 . S
C310 C314 1.429 . S
C311 C294 1.574 . S
C311 H305 0.949 . S
C311 C315 1.368 . S
C312 C293 1.429 . S
C312 C306 1.429 . S
C312 C313 1.523 . S
C313 C294 1.368 . S
C313 C307 1.368 . S
C313 C312 1.523 . S
C314 C298 1.429 . S
C314 C310 1.429 . S
C314 C315 1.523 . S
C315 C299 1.368 . S
C315 C311 1.368 . S
C315 C314 1.523 . S
H316 C291 0.950 . S
H317 C293 0.950 . S
H318 C294 0.949 . S
H319 C296 0.950 . S
H320 C298 0.950 . S
C321 C322 1.349 . S
C321 C323 1.327 . S
C321 H346 0.950 . S
C322 C321 1.349 . S
C322 C338 1.349 . S
C323 C321 1.327 . S
C323 C342 1.429 . S
C323 H347 0.950 . S
C324 C341 1.574 . S
C324 C343 1.368 . S
C324 H348 0.949 . S
H325 C329 0.949 . S
C326 C327 1.349 . S
C326 C328 1.327 . S
C326 H349 0.950 . S
C327 C326 1.349 . S
C327 C339 1.349 . S
C328 C326 1.327 . S
C328 C344 1.429 . S
C328 H350 0.950 . S
C329 H325 0.949 . S
C329 C337 1.574 . S
C329 C345 1.368 . S
H330 C338 0.950 . S
H331 C336 0.950 . S
H332 C337 0.949 . S
H333 C339 0.950 . S
H334 C340 0.950 . S
H335 C341 0.949 . S
C336 H331 0.950 . S
C336 C338 1.327 . S
C336 C342 1.429 . S
C337 C329 1.574 . S
C337 H332 0.949 . S
C337 C343 1.368 . S
C338 C322 1.349 . S
C338 H330 0.950 . S
C338 C336 1.327 . S
C339 C327 1.349 . S
C339 H333 0.950 . S
C339 C340 1.327 . S
C340 H334 0.950 . S
C340 C339 1.327 . S
C340 C344 1.429 . S
C341 C324 1.574 . S
C341 H335 0.949 . S
C341 C345 1.368 . S
C342 C323 1.429 . S
C342 C336 1.429 . S
C342 C343 1.523 . S
C343 C324 1.368 . S
C343 C337 1.368 . S
C343 C342 1.523 . S
C344 C328 1.429 . S
C344 C340 1.429 . S
C344 C345 1.523 . S
C345 C329 1.368 . S
C345 C341 1.368 . S
C345 C344 1.523 . S
H346 C321 0.950 . S
H347 C323 0.950 . S
H348 C324 0.949 . S
H349 C326 0.950 . S
H350 C328 0.950 . S
C351 C352 1.349 . S
C351 C353 1.327 . S
C351 H376 0.950 . S
C352 C351 1.349 . S
C352 C368 1.349 . S
C353 C351 1.327 . S
C353 C372 1.429 . S
C353 H377 0.950 . S
C354 C371 1.574 . S
C354 C373 1.368 . S
C354 H378 0.949 . S
H355 C359 0.949 . S
C356 C357 1.349 . S
C356 C358 1.327 . S
C356 H379 0.950 . S
C357 C356 1.349 . S
C357 C369 1.349 . S
C358 C356 1.327 . S
C358 C374 1.429 . S
C358 H380 0.950 . S
C359 H355 0.949 . S
C359 C367 1.574 . S
C359 C375 1.368 . S
H360 C368 0.950 . S
H361 C366 0.950 . S
H362 C367 0.949 . S
H363 C369 0.950 . S
H364 C370 0.950 . S
H365 C371 0.949 . S
C366 H361 0.950 . S
C366 C368 1.327 . S
C366 C372 1.429 . S
C367 C359 1.574 . S
C367 H362 0.949 . S
C367 C373 1.368 . S
C368 C352 1.349 . S
C368 H360 0.950 . S
C368 C366 1.327 . S
C369 C357 1.349 . S
C369 H363 0.950 . S
C369 C370 1.327 . S
C370 H364 0.950 . S
C370 C369 1.327 . S
C370 C374 1.429 . S
C371 C354 1.574 . S
C371 H365 0.949 . S
C371 C375 1.368 . S
C372 C353 1.429 . S
C372 C366 1.429 . S
C372 C373 1.523 . S
C373 C354 1.368 . S
C373 C367 1.368 . S
C373 C372 1.523 . S
C374 C358 1.429 . S
C374 C370 1.429 . S
C374 C375 1.523 . S
C375 C359 1.368 . S
C375 C371 1.368 . S
C375 C374 1.523 . S
H376 C351 0.950 . S
H377 C353 0.950 . S
H378 C354 0.949 . S
H379 C356 0.950 . S
H380 C358 0.950 . S
C381 C382 1.349 . S
C381 C383 1.327 . S
C381 H406 0.950 . S
C382 C381 1.349 . S
C382 C398 1.349 . S
C383 C381 1.327 . S
C383 C402 1.429 . S
C383 H407 0.950 . S
C384 C401 1.574 . S
C384 C403 1.368 . S
C384 H408 0.949 . S
H385 C389 0.949 . S
C386 C387 1.349 . S
C386 C388 1.327 . S
C386 H409 0.950 . S
C387 C386 1.349 . S
C387 C399 1.349 . S
C388 C386 1.327 . S
C388 C404 1.429 . S
C388 H410 0.950 . S
C389 H385 0.949 . S
C389 C397 1.574 . S
C389 C405 1.368 . S
H390 C398 0.950 1_455 S
H391 C396 0.950 . S
H392 C397 0.949 . S
H393 C399 0.950 . S
H394 C400 0.950 . S
H395 C401 0.949 . S
C396 H391 0.950 . S
C396 C398 1.327 . S
C396 C402 1.429 . S
C397 C389 1.574 . S
C397 H392 0.949 . S
C397 C403 1.368 . S
C398 C382 1.349 . S
C398 H390 0.950 1_655 S
C398 C396 1.327 . S
C399 C387 1.349 . S
C399 H393 0.950 . S
C399 C400 1.327 . S
C400 H394 0.950 . S
C400 C399 1.327 . S
C400 C404 1.429 . S
C401 C384 1.574 . S
C401 H395 0.949 . S
C401 C405 1.368 . S
C402 C383 1.429 . S
C402 C396 1.429 . S
C402 C403 1.523 . S
C403 C384 1.368 . S
C403 C397 1.368 . S
C403 C402 1.523 . S
C404 C388 1.429 . S
C404 C400 1.429 . S
C404 C405 1.523 . S
C405 C389 1.368 . S
C405 C401 1.368 . S
C405 C404 1.523 . S
H406 C381 0.950 . S
H407 C383 0.950 . S
H408 C384 0.949 . S
H409 C386 0.950 . S
H410 C388 0.950 . S
C411 C412 1.344 1_654 S
C411 C413 1.327 1_554 S
C411 H436 0.950 . S
C412 C411 1.344 1_456 S
C412 C428 1.375 . S
C413 C411 1.327 1_556 S
C413 C432 1.429 . S
C413 H437 0.950 . S
C414 C431 1.574 . S
C414 C433 1.368 . S
C414 H438 0.949 . S
H415 C419 0.949 . S
C416 C417 1.349 . S
C416 C418 1.327 . S
C416 H439 0.950 . S
C417 C416 1.349 . S
C417 C429 1.349 . S
C418 C416 1.327 . S
C418 C434 1.429 . S
C418 H440 0.950 . S
C419 H415 0.949 . S
C419 C427 1.574 . S
C419 C435 1.368 . S
H420 C428 0.950 . S
H421 C426 0.950 1_455 S
H422 C427 0.949 . S
H423 C429 0.950 . S
H424 C430 0.950 . S
H425 C431 0.949 . S
C426 H421 0.950 1_655 S
C426 C428 1.327 1_655 S
C426 C432 1.429 . S
C427 C419 1.574 . S
C427 H422 0.949 . S
C427 C433 1.368 . S
C428 C412 1.375 . S
C428 H420 0.950 . S
C428 C426 1.327 1_455 S
C429 C417 1.349 . S
C429 H423 0.950 . S
C429 C430 1.327 . S
C430 H424 0.950 . S
C430 C429 1.327 . S
C430 C434 1.429 . S
C431 C414 1.574 . S
C431 H425 0.949 . S
C431 C435 1.368 . S
C432 C413 1.429 . S
C432 C426 1.429 . S
C432 C433 1.523 . S
C433 C414 1.368 . S
C433 C427 1.368 . S
C433 C432 1.523 . S
C434 C418 1.429 . S
C434 C430 1.429 . S
C434 C435 1.523 . S
C435 C419 1.368 . S
C435 C431 1.368 . S
C435 C434 1.523 . S
H436 C411 0.950 . S
H437 C413 0.950 . S
H438 C414 0.949 . S
H439 C416 0.950 . S
H440 C418 0.950 . S
C441 C442 1.349 1_655 S
C441 C443 1.327 . S
C441 H466 0.950 . S
C442 C441 1.349 1_455 S
C442 C458 1.349 . S
C443 C441 1.327 . S
C443 C462 1.429 1_655 S
C443 H467 0.950 . S
C444 C461 1.574 . S
C444 C463 1.368 . S
C444 H468 0.949 . S
H445 C449 0.949 1_655 S
C446 C447 1.349 . S
C446 C448 1.327 . S
C446 H469 0.950 . S
C447 C446 1.349 . S
C447 C459 1.349 . S
C448 C446 1.327 . S
C448 C464 1.429 . S
C448 H470 0.950 . S
C449 H445 0.949 1_455 S
C449 C457 1.588 . S
C449 C465 1.368 . S
H450 C458 0.950 . S
H451 C456 0.950 . S
H452 C457 0.941 1_655 S
H453 C459 0.950 . S
H454 C460 0.954 . S
H455 C461 0.949 . S
C456 H451 0.950 . S
C456 C458 1.327 . S
C456 C462 1.429 . S
C457 C449 1.588 . S
C457 H452 0.941 1_455 S
C457 C463 1.364 . S
C458 C442 1.349 . S
C458 H450 0.950 . S
C458 C456 1.327 . S
C459 C447 1.349 . S
C459 H453 0.950 . S
C459 C460 1.327 . S
C460 H454 0.954 . S
C460 C459 1.327 . S
C460 C464 1.429 . S
C461 C444 1.574 . S
C461 H455 0.949 . S
C461 C465 1.368 . S
C462 C443 1.429 1_455 S
C462 C456 1.429 . S
C462 C463 1.523 . S
C463 C444 1.368 . S
C463 C457 1.364 . S
C463 C462 1.523 . S
C464 C448 1.429 . S
C464 C460 1.429 . S
C464 C465 1.523 . S
C465 C449 1.368 . S
C465 C461 1.368 . S
C465 C464 1.523 . S
H466 C441 0.950 . S
H467 C443 0.950 . S
H468 C444 0.949 . S
H469 C446 0.950 . S
H470 C448 0.950 . S
C471 C472 1.349 . S
C471 C473 1.327 . S
C471 H496 0.950 . S
C472 C471 1.349 . S
C472 C488 1.349 . S
C473 C471 1.327 . S
C473 C492 1.429 . S
C473 H497 0.950 . S
C474 C491 1.574 . S
C474 C493 1.368 . S
C474 H498 0.949 . S
H475 C479 0.949 . S
C476 C477 1.349 . S
C476 C478 1.327 . S
C476 H499 0.950 . S
C477 C476 1.349 . S
C477 C489 1.349 . S
C478 C476 1.327 . S
C478 C494 1.429 . S
C478 H500 0.950 . S
C479 H475 0.949 . S
C479 C487 1.574 . S
C479 C495 1.368 . S
H480 C488 0.950 1_565 S
H481 C486 0.945 1_565 S
H482 C487 0.949 . S
H483 C489 0.950 . S
H484 C490 0.950 . S
H485 C491 0.949 . S
C486 H481 0.945 1_545 S
C486 C488 1.327 . S
C486 C492 1.429 . S
C487 C479 1.574 . S
C487 H482 0.949 . S
C487 C493 1.368 . S
C488 C472 1.349 . S
C488 H480 0.950 1_545 S
C488 C486 1.327 . S
C489 C477 1.349 . S
C489 H483 0.950 . S
C489 C490 1.327 . S
C490 H484 0.950 . S
C490 C489 1.327 . S
C490 C494 1.429 . S
C491 C474 1.574 . S
C491 H485 0.949 . S
C491 C495 1.368 . S
C492 C473 1.429 . S
C492 C486 1.429 . S
C492 C493 1.523 . S
C493 C474 1.368 . S
C493 C487 1.368 . S
C493 C492 1.523 . S
C494 C478 1.429 . S
C494 C490 1.429 . S
C494 C495 1.523 . S
C495 C479 1.368 . S
C495 C491 1.368 . S
C495 C494 1.523 . S
H496 C471 0.950 . S
H497 C473 0.950 . S
H498 C474 0.949 . S
H499 C476 0.950 . S
H500 C478 0.950 . S
C501 C502 1.349 . S
C501 C503 1.327 . S
C501 H526 0.950 . S
C502 C501 1.349 . S
C502 C518 1.355 . S
C503 C501 1.327 . S
C503 C522 1.429 . S
C503 H527 0.950 . S
C504 C521 1.574 . S
C504 C523 1.368 . S
C504 H528 0.949 . S
H505 C509 0.949 . S
C506 C507 1.349 . S
C506 C508 1.327 . S
C506 H529 0.950 . S
C507 C506 1.349 . S
C507 C519 1.349 . S
C508 C506 1.327 . S
C508 C524 1.429 . S
C508 H530 0.950 . S
C509 H505 0.949 . S
C509 C517 1.574 . S
C509 C525 1.368 . S
H510 C518 0.932 1_554 S
H511 C516 0.950 . S
H512 C517 0.949 . S
H513 C519 0.950 . S
H514 C520 0.950 . S
H515 C521 0.949 . S
C516 H511 0.950 . S
C516 C518 1.339 . S
C516 C522 1.429 . S
C517 C509 1.574 . S
C517 H512 0.949 . S
C517 C523 1.368 . S
C518 C502 1.355 . S
C518 H510 0.932 1_556 S
C518 C516 1.339 . S
C519 C507 1.349 . S
C519 H513 0.950 . S
C519 C520 1.327 . S
C520 H514 0.950 . S
C520 C519 1.327 . S
C520 C524 1.429 . S
C521 C504 1.574 . S
C521 H515 0.949 . S
C521 C525 1.368 . S
C522 C503 1.429 . S
C522 C516 1.429 . S
C522 C523 1.523 . S
C523 C504 1.368 . S
C523 C517 1.368 . S
C523 C522 1.523 . S
C524 C508 1.429 . S
C524 C520 1.429 . S
C524 C525 1.523 . S
C525 C509 1.368 . S
C525 C521 1.368 . S
C525 C524 1.523 . S
H526 C501 0.950 . S
H527 C503 0.950 . S
H528 C504 0.949 . S
H529 C506 0.950 . S
H530 C508 0.950 . S
C531 C532 1.349 . S
C531 C533 1.327 . S
C531 H556 0.950 1_455 S
C532 C531 1.349 . S
C532 C548 1.349 . S
C533 C531 1.327 . S
C533 C552 1.429 . S
C533 H557 0.950 1_455 S
C534 C551 1.574 . S
C534 C553 1.368 . S
C534 H558 0.949 . S
H535 C539 0.949 1_655 S
C536 C537 1.349 . S
C536 C538 1.327 . S
C536 H559 0.950 . S
C537 C536 1.349 . S
C537 C549 1.358 . S
C538 C536 1.327 . S
C538 C554 1.429 . S
C538 H560 0.950 . S
C539 H535 0.949 1_455 S
C539 C547 1.574 . S
C539 C555 1.368 . S
H540 C548 0.950 . S
H541 C546 0.950 . S
H542 C547 0.949 1_655 S
H543 C549 0.932 1_655 S
H544 C550 0.950 1_655 S
H545 C551 0.949 . S
C546 H541 0.950 . S
C546 C548 1.327 . S
C546 C552 1.429 . S
C547 C539 1.574 . S
C547 H542 0.949 1_455 S
C547 C553 1.368 . S
C548 C532 1.349 . S
C548 H540 0.950 . S
C548 C546 1.327 . S
C549 C537 1.358 . S
C549 H543 0.932 1_455 S
C549 C550 1.336 . S
C550 H544 0.950 1_455 S
C550 C549 1.336 . S
C550 C554 1.429 . S
C551 C534 1.574 . S
C551 H545 0.949 . S
C551 C555 1.368 . S
C552 C533 1.429 . S
C552 C546 1.429 . S
C552 C553 1.523 . S
C553 C534 1.368 . S
C553 C547 1.368 . S
C553 C552 1.523 . S
C554 C538 1.429 . S
C554 C550 1.429 . S
C554 C555 1.523 . S
C555 C539 1.368 . S
C555 C551 1.368 . S
C555 C554 1.523 . S
H556 C531 0.950 1_655 S
H557 C533 0.950 1_655 S
H558 C534 0.949 . S
H559 C536 0.950 . S
H560 C538 0.950 . S
C207 C64 1.364 . S
C202 C11 1.344 . S
C232 C26 1.517 . S
C237 C134 1.530 . S
C262 C40 1.384 1_655 S
C267 C186 1.391 . S
C292 C5 1.212 1_565 S
C297 C80 1.362 . S
C327 C124 1.520 . S
C322 C18 1.503 . S
C352 C32 1.371 . S
C357 C170 1.389 . S
C387 C117 1.251 . S
C382 C39 1.238 1_655 S
C412 C4 1.364 1_566 S
C417 C177 1.397 . S
C447 C71 1.359 . S
C442 C19 1.197 1_455 S
C477 C133 1.273 . S
C472 C33 1.134 . S
C507 C187 1.406 . S
C502 C12 1.395 1_556 S
C532 C25 1.342 . S
C537 C81 1.364 . S
