# Generated by pormake.
# Topology zzz, (3,6)-cn, num edge types: 1
# Building blocks:
#     Node 0, Type 0, BuildingBlock: WUSLED_clean_sbu_0, # of connection points: 3
#     Node 1, Type 0, BuildingBlock: WUSLED_clean_sbu_0, # of connection points: 3
#     Node 2, Type 0, BuildingBlock: WUSLED_clean_sbu_0, # of connection points: 3
#     Node 3, Type 0, BuildingBlock: WUSLED_clean_sbu_0, # of connection points: 3
#     Node 4, Type 0, BuildingBlock: WUSLED_clean_sbu_0, # of connection points: 3
#     Node 5, Type 0, BuildingBlock: WUSLED_clean_sbu_0, # of connection points: 3
#     Node 6, Type 0, BuildingBlock: WUSLED_clean_sbu_0, # of connection points: 3
#     Node 7, Type 0, BuildingBlock: WUSLED_clean_sbu_0, # of connection points: 3
#     Node 8, Type 1, BuildingBlock: FUNLAD_clean_sbu_0, # of connection points: 6
#     Node 9, Type 1, BuildingBlock: FUNLAD_clean_sbu_0, # of connection points: 6
#     Node 10, Type 1, BuildingBlock: FUNLAD_clean_sbu_0, # of connection points: 6
#     Node 11, Type 1, BuildingBlock: FUNLAD_clean_sbu_0, # of connection points: 6
#     Edge 12, Type (0, 1), BuildingBlock: UVAHIK_clean_linker_0, # of connection points: 2
#     Edge 13, Type (0, 1), BuildingBlock: UVAHIK_clean_linker_0, # of connection points: 2
#     Edge 14, Type (0, 1), BuildingBlock: UVAHIK_clean_linker_0, # of connection points: 2
#     Edge 15, Type (0, 1), BuildingBlock: UVAHIK_clean_linker_0, # of connection points: 2
#     Edge 16, Type (0, 1), BuildingBlock: UVAHIK_clean_linker_0, # of connection points: 2
#     Edge 17, Type (0, 1), BuildingBlock: UVAHIK_clean_linker_0, # of connection points: 2
#     Edge 18, Type (0, 1), BuildingBlock: UVAHIK_clean_linker_0, # of connection points: 2
#     Edge 19, Type (0, 1), BuildingBlock: UVAHIK_clean_linker_0, # of connection points: 2
#     Edge 20, Type (0, 1), BuildingBlock: UVAHIK_clean_linker_0, # of connection points: 2
#     Edge 21, Type (0, 1), BuildingBlock: UVAHIK_clean_linker_0, # of connection points: 2
#     Edge 22, Type (0, 1), BuildingBlock: UVAHIK_clean_linker_0, # of connection points: 2
#     Edge 23, Type (0, 1), BuildingBlock: UVAHIK_clean_linker_0, # of connection points: 2
#     Edge 24, Type (0, 1), BuildingBlock: UVAHIK_clean_linker_0, # of connection points: 2
#     Edge 25, Type (0, 1), BuildingBlock: UVAHIK_clean_linker_0, # of connection points: 2
#     Edge 26, Type (0, 1), BuildingBlock: UVAHIK_clean_linker_0, # of connection points: 2
#     Edge 27, Type (0, 1), BuildingBlock: UVAHIK_clean_linker_0, # of connection points: 2
#     Edge 28, Type (0, 1), BuildingBlock: UVAHIK_clean_linker_0, # of connection points: 2
#     Edge 29, Type (0, 1), BuildingBlock: UVAHIK_clean_linker_0, # of connection points: 2
#     Edge 30, Type (0, 1), BuildingBlock: UVAHIK_clean_linker_0, # of connection points: 2
#     Edge 31, Type (0, 1), BuildingBlock: UVAHIK_clean_linker_0, # of connection points: 2
#     Edge 32, Type (0, 1), BuildingBlock: UVAHIK_clean_linker_0, # of connection points: 2
#     Edge 33, Type (0, 1), BuildingBlock: UVAHIK_clean_linker_0, # of connection points: 2
#     Edge 34, Type (0, 1), BuildingBlock: UVAHIK_clean_linker_0, # of connection points: 2
#     Edge 35, Type (0, 1), BuildingBlock: UVAHIK_clean_linker_0, # of connection points: 2
# Relax obj value: 0.274
# Max RMSD: 0.209
# Mean RMSD: 0.184
data_MOF--net-zzz--node1-WUSLED_clean_sbu_0--node2-FUNLAD_clean_sbu_0--edge1-UVAHIK_clean_linker_0
_symmetry_space_group_name_H-M    P1
_symmetry_Int_Tables_number       1
_symmetry_cell_setting            triclinic
loop_
_symmetry_equiv_pos_as_xyz
'x, y, z'
_cell_length_a     76.21507
_cell_length_b     80.128639
_cell_length_c     29.451955
_cell_angle_alpha  87.69331
_cell_angle_beta   88.0875
_cell_angle_gamma 91.857969
loop_
_atom_site_label
_atom_site_type_symbol
_atom_site_fract_x
_atom_site_fract_y
_atom_site_fract_z
_atom_type_partial_charge
C0 C 0.81477 0.45122 0.29399 0.0
C1 C 0.83206 0.44824 0.27911 0.0
C2 C 0.84308 0.45608 0.35219 0.0
C3 C 0.84607 0.45064 0.30787 0.0
C4 C 0.82564 0.45848 0.36744 0.0
C5 C 0.81162 0.4561 0.33853 0.0
U6 U 0.80299 0.44316 0.17609 0.0
O7 O 0.78075 0.43146 0.14184 0.0
O8 O 0.78912 0.45767 0.12417 0.0
C9 C 0.77881 0.44483 0.11529 0.0
C10 C 0.80049 0.45045 0.26159 0.0
C11 C 0.76158 0.44793 0.09661 0.0
C12 C 0.73043 0.45332 0.1033 0.0
C13 C 0.74652 0.45052 0.1238 0.0
C14 C 0.74446 0.45066 0.02892 0.0
C15 C 0.72937 0.45332 0.05571 0.0
C16 C 0.76043 0.44806 0.04921 0.0
C17 C 0.83905 0.43209 0.0969 0.0
C18 C 0.83356 0.43611 0.01663 0.0
C19 C 0.86243 0.42855 0.04145 0.0
C20 C 0.85638 0.42816 0.08658 0.0
C21 C 0.85121 0.43307 0.00632 0.0
C22 C 0.82747 0.43549 0.06181 0.0
C23 C 0.83359 0.43484 0.14373 0.0
O24 O 0.80206 0.46191 0.22836 0.0
O25 O 0.79645 0.43545 0.24749 0.0
O26 O 0.82205 0.4238 0.16204 0.0
O27 O 0.82957 0.45037 0.15051 0.0
H28 H 0.83478 0.44453 0.24469 0.0
H29 H 0.85929 0.44883 0.29479 0.0
H30 H 0.82285 0.4624 0.40162 0.0
H31 H 0.79838 0.45844 0.3506 0.0
H32 H 0.71886 0.4554 0.12439 0.0
H33 H 0.74722 0.45041 0.16047 0.0
H34 H 0.7439 0.45077 0.99219 0.0
H35 H 0.77196 0.4461 0.02775 0.0
H36 H 0.82477 0.43968 0.99003 0.0
H37 H 0.8762 0.42648 0.03428 0.0
H38 H 0.86545 0.42567 0.1134 0.0
H39 H 0.814 0.4386 0.06954 0.0
C40 C 0.93921 0.8065 0.16315 0.0
C41 C 0.94161 0.82333 0.14805 0.0
C42 C 0.9434 0.83192 0.22615 0.0
C43 C 0.94379 0.83591 0.17928 0.0
C44 C 0.94052 0.81518 0.24136 0.0
C45 C 0.93846 0.80256 0.21006 0.0
U46 U 0.93099 0.7943 0.04338 0.0
O47 O 0.94567 0.7791 0.99552 0.0
O48 O 0.91778 0.77274 0.01281 0.0
C49 C 0.93183 0.76951 0.98797 0.0
C50 C 0.93803 0.79313 0.13 0.0
C51 C 0.93461 0.75231 0.97436 0.0
C52 C 0.94433 0.72392 0.98719 0.0
C53 C 0.94072 0.73973 0.00378 0.0
C54 C 0.93561 0.73329 0.91226 0.0
C55 C 0.94213 0.72073 0.94099 0.0
C56 C 0.93184 0.74886 0.92884 0.0
C57 C 0.91994 0.82961 0.96036 0.0
C58 C 0.92299 0.82714 0.87859 0.0
C59 C 0.91532 0.85353 0.91011 0.0
C60 C 0.91535 0.84623 0.95381 0.0
C61 C 0.91999 0.84431 0.87199 0.0
C62 C 0.92307 0.81986 0.92257 0.0
C63 C 0.92333 0.82332 0.00648 0.0
O64 O 0.92225 0.78976 0.11519 0.0
O65 O 0.95024 0.79407 0.0973 0.0
O66 O 0.9395 0.81869 0.01245 0.0
O67 O 0.91139 0.81285 0.02546 0.0
H68 H 0.94212 0.82671 0.11202 0.0
H69 H 0.94604 0.84874 0.16685 0.0
H70 H 0.94025 0.81185 0.27739 0.0
H71 H 0.93658 0.78969 0.22245 0.0
H72 H 0.9494 0.71442 0.00995 0.0
H73 H 0.94299 0.7422 0.03902 0.0
H74 H 0.93364 0.73111 0.87668 0.0
H75 H 0.92711 0.75842 0.90565 0.0
H76 H 0.92647 0.81964 0.85007 0.0
H77 H 0.91323 0.86681 0.9069 0.0
H78 H 0.9129 0.8539 0.98269 0.0
H79 H 0.92656 0.80691 0.9272 0.0
C80 C 0.72578 0.00636 0.24612 0.0
C81 C 0.70913 0.01063 0.23118 0.0
C82 C 0.69637 0.0052 0.30773 0.0
C83 C 0.69459 0.01014 0.26173 0.0
C84 C 0.71311 1.00093 0.32241 0.0
C85 C 0.72765 1.00154 0.29192 0.0
U86 U 0.74375 0.0069 0.12477 0.0
O87 O 0.76719 0.01971 0.09135 0.0
O88 O 0.76392 0.99199 0.09092 0.0
C89 C 0.77349 0.00548 0.0786 0.0
C90 C 0.74107 0.00631 0.21392 0.0
C91 C 0.7903 0.00468 0.05254 0.0
C92 C 0.82197 0.00978 0.04633 0.0
C93 C 0.80599 0.01042 0.07106 0.0
C94 C 0.80675 0.99781 0.98387 0.0
C95 C 0.82258 0.00352 0.00229 0.0
C96 C 0.79079 0.99833 0.00884 0.0
C97 C 0.70832 0.00754 0.03493 0.0
C98 C 0.71352 0.0029 0.95462 0.0
C99 C 0.68382 0.00552 0.98529 0.0
C100 C 0.69026 0.0079 0.02824 0.0
C101 C 0.69537 0.00279 0.94845 0.0
C102 C 0.72001 0.00521 0.99797 0.0
C103 C 0.71433 0.00819 0.08141 0.0
O104 O 0.74232 0.99276 0.19053 0.0
O105 O 0.7441 0.02013 0.18886 0.0
O106 O 0.72352 0.02162 0.09146 0.0
O107 O 0.72071 0.99423 0.09762 0.0
H108 H 0.70735 0.01422 0.19581 0.0
H109 H 0.68188 0.01332 0.24914 0.0
H110 H 0.715 0.99725 0.35765 0.0
H111 H 0.74037 0.99814 0.30407 0.0
H112 H 0.83389 0.01404 0.0619 0.0
H113 H 0.80589 0.01527 0.10487 0.0
H114 H 0.80664 0.99318 0.94984 0.0
H115 H 0.77879 0.99399 0.99374 0.0
H116 H 0.72254 1.00091 0.92632 0.0
H117 H 0.66976 0.00561 0.98082 0.0
H118 H 0.6811 0.00962 0.05649 0.0
H119 H 0.73401 0.00482 0.0029 0.0
C120 C 0.57231 0.69233 0.24318 0.0
C121 C 0.57178 0.67577 0.22906 0.0
C122 C 0.57019 0.66514 0.3079 0.0
C123 C 0.57072 0.66233 0.26102 0.0
C124 C 0.571 0.68176 0.32187 0.0
C125 C 0.57207 0.69522 0.28979 0.0
U126 U 0.57978 0.70597 0.12142 0.0
O127 O 0.5654 0.72181 0.0736 0.0
O128 O 0.59348 0.72734 0.08431 0.0
C129 C 0.57946 0.73111 0.06167 0.0
C130 C 0.57305 0.70641 0.20907 0.0
C131 C 0.57715 0.74861 0.04672 0.0
C132 C 0.56534 0.77618 0.05536 0.0
C133 C 0.56836 0.76006 0.0734 0.0
C134 C 0.58029 0.76955 0.98475 0.0
C135 C 0.57123 0.78097 0.01077 0.0
C136 C 0.58314 0.75351 0.00251 0.0
C137 C 0.59069 0.6718 0.04198 0.0
C138 C 0.58538 0.6744 0.96138 0.0
C139 C 0.59884 0.64969 0.9929 0.0
C140 C 0.59836 0.65643 0.03577 0.0
C141 C 0.59151 0.65822 0.95578 0.0
C142 C 0.58494 0.68114 0.00433 0.0
C143 C 0.58726 0.67721 0.08812 0.0
O144 O 0.58871 0.71016 0.19061 0.0
O145 O 0.56067 0.70586 0.17903 0.0
O146 O 0.57111 0.6818 0.09636 0.0
O147 O 0.59926 0.68737 0.10386 0.0
H148 H 0.57199 0.67324 0.19319 0.0
H149 H 0.56992 0.64975 0.24898 0.0
H150 H 0.57086 0.68438 0.35766 0.0
H151 H 0.57262 0.70788 0.30138 0.0
H152 H 0.55833 0.78486 0.07595 0.0
H153 H 0.56361 0.75645 0.10758 0.0
H154 H 0.58474 0.77291 0.95016 0.0
H155 H 0.58976 0.74477 0.98123 0.0
H156 H 0.57978 0.68131 0.93331 0.0
H157 H 0.60348 0.63713 0.98994 0.0
H158 H 0.60298 0.64917 0.06455 0.0
H159 H 0.57915 0.69318 0.00862 0.0
C160 C 0.21995 0.54124 0.09062 0.0
C161 C 0.20233 0.53968 0.10618 0.0
C162 C 0.19262 0.53973 0.02835 0.0
C163 C 0.18881 0.53893 0.07542 0.0
C164 C 0.21031 0.54151 0.01286 0.0
C165 C 0.22387 0.54231 0.0438 0.0
U166 U 0.22943 0.54471 0.2115 0.0
O167 O 0.2474 0.53318 0.25952 0.0
O168 O 0.2473 0.56065 0.24973 0.0
C169 C 0.25355 0.54775 0.2721 0.0
C170 C 0.2339 0.5422 0.12389 0.0
C171 C 0.27164 0.54892 0.28727 0.0
C172 C 0.30281 0.54385 0.27966 0.0
C173 C 0.28606 0.54381 0.26119 0.0
C174 C 0.29069 0.55441 0.34961 0.0
C175 C 0.30523 0.54899 0.32432 0.0
C176 C 0.27411 0.55437 0.33123 0.0
C177 C 0.19143 0.5485 0.29101 0.0
C178 C 0.19869 0.55454 0.36836 0.0
C179 C 0.16864 0.55618 0.34406 0.0
C180 C 0.17381 0.5515 0.30075 0.0
C181 C 0.18109 0.55802 0.37797 0.0
C182 C 0.20384 0.54988 0.32499 0.0
C183 C 0.19733 0.54567 0.24453 0.0
O184 O 0.23511 0.55658 0.14376 0.0
O185 O 0.23429 0.52921 0.15267 0.0
O186 O 0.20532 0.53157 0.23885 0.0
O187 O 0.2057 0.5587 0.22472 0.0
H188 H 0.19903 0.53894 0.14228 0.0
H189 H 0.17538 0.53736 0.08855 0.0
H190 H 0.21365 0.54236 0.9768 0.0
H191 H 0.23738 0.54374 0.03121 0.0
H192 H 0.31379 0.53965 0.25935 0.0
H193 H 0.28432 0.53951 0.22719 0.0
H194 H 0.29197 0.55807 0.38439 0.0
H195 H 0.26304 0.55816 0.35203 0.0
H196 H 0.20842 0.55561 0.39417 0.0
H197 H 0.15484 0.55819 0.35119 0.0
H198 H 0.16413 0.55047 0.27478 0.0
H199 H 0.21757 0.54767 0.31764 0.0
C200 C 0.10446 0.19669 0.21392 0.0
C201 C 0.10494 0.17978 0.22841 0.0
C202 C 0.09936 0.17101 0.15157 0.0
C203 C 0.10237 0.16709 0.19764 0.0
C204 C 0.09951 0.188 0.13696 0.0
C205 C 0.10198 0.20069 0.16787 0.0
U206 U 0.11258 0.20836 0.33389 0.0
O207 O 0.12457 0.23023 0.36598 0.0
O208 O 0.09711 0.22227 0.38323 0.0
C209 C 0.11031 0.23261 0.391 0.0
C210 C 0.10548 0.21 0.24731 0.0
C211 C 0.1062 0.24967 0.40392 0.0
C212 C 0.09993 0.27889 0.38773 0.0
C213 C 0.10443 0.2631 0.37243 0.0
C214 C 0.09917 0.26784 0.46556 0.0
C215 C 0.09697 0.28129 0.43451 0.0
C216 C 0.10376 0.25226 0.45042 0.0
C217 C 0.12364 0.17101 0.41225 0.0
C218 C 0.12263 0.17147 0.49473 0.0
C219 C 0.124 0.14515 0.45721 0.0
C220 C 0.12468 0.15365 0.41507 0.0
C221 C 0.12229 0.15386 0.49771 0.0
C222 C 0.12316 0.18 0.45218 0.0
C223 C 0.12065 0.17895 0.36769 0.0
O224 O 0.09331 0.20869 0.28003 0.0
O225 O 0.12121 0.21354 0.26223 0.0
O226 O 0.13253 0.19011 0.35168 0.0
O227 O 0.10445 0.18347 0.3619 0.0
H228 H 0.10694 0.17639 0.2638 0.0
H229 H 0.10264 0.1542 0.21002 0.0
H230 H 0.09712 0.19152 0.10189 0.0
H231 H 0.10154 0.21363 0.15596 0.0
H232 H 0.0983 0.28907 0.36308 0.0
H233 H 0.1063 0.26134 0.33635 0.0
H234 H 0.09727 0.26936 0.50177 0.0
H235 H 0.10523 0.2421 0.47529 0.0
H236 H 0.1215 0.1786 0.52507 0.0
H237 H 0.12334 0.13163 0.45746 0.0
H238 H 0.12487 0.14654 0.38452 0.0
H239 H 0.12228 0.19348 0.45043 0.0
C240 C 0.30995 0.00616 0.12588 0.0
C241 C 0.32661 0.0113 0.14019 0.0
C242 C 0.33961 0.00609 0.06544 0.0
C243 C 0.34128 0.01136 0.11017 0.0
C244 C 0.32287 1.00098 0.05136 0.0
C245 C 0.30819 1.00107 0.08127 0.0
U246 U 0.29145 0.00765 0.24623 0.0
O247 O 0.2679 0.01955 0.27474 0.0
O248 O 0.27116 0.99213 0.28487 0.0
C249 C 0.26154 0.00515 0.29217 0.0
C250 C 0.29451 0.00555 0.15765 0.0
C251 C 0.24498 0.00363 0.31962 0.0
C252 C 0.21313 0.00467 0.3243 0.0
C253 C 0.22896 0.00592 0.2987 0.0
C254 C 0.22918 0.99912 0.39252 0.0
C255 C 0.21295 1.0014 0.37173 0.0
C256 C 0.24501 1.00012 0.36665 0.0
C257 C 0.3262 0.01327 0.33609 0.0
C258 C 0.32165 0.00727 0.41719 0.0
C259 C 0.35013 0.01745 0.38641 0.0
C260 C 0.34364 0.01814 0.34291 0.0
C261 C 0.33931 0.01174 0.42365 0.0
C262 C 0.31503 0.00822 0.37341 0.0
C263 C 0.32057 0.01215 0.28942 0.0
O264 O 0.29329 0.9924 0.18583 0.0
O265 O 0.29124 0.01956 0.17759 0.0
O266 O 0.31144 0.02459 0.27356 0.0
O267 O 0.3144 0.99738 0.2788 0.0
H268 H 0.32828 0.01514 0.17468 0.0
H269 H 0.35401 0.01521 0.1222 0.0
H270 H 0.32111 0.99702 0.01704 0.0
H271 H 0.29546 0.99704 0.06962 0.0
H272 H 0.20101 0.00615 0.30665 0.0
H273 H 0.22868 0.00856 0.26237 0.0
H274 H 0.22974 0.99687 0.42892 0.0
H275 H 0.25729 0.99842 0.38349 0.0
H276 H 0.31324 0.00257 0.44555 0.0
H277 H 0.36394 0.02047 0.39066 0.0
H278 H 0.35244 0.02184 0.31434 0.0
H279 H 0.3015 0.00436 0.36839 0.0
C280 C 0.45387 0.31108 0.13279 0.0
C281 C 0.45244 0.32751 0.14715 0.0
C282 C 0.45821 0.33863 0.06961 0.0
C283 C 0.45464 0.34112 0.11598 0.0
C284 C 0.45898 0.32211 0.05507 0.0
C285 C 0.45692 0.30847 0.08645 0.0
U286 U 0.44587 0.29692 0.25424 0.0
O287 O 0.43452 0.27434 0.29092 0.0
O288 O 0.4618 0.28278 0.30263 0.0
C289 C 0.44878 0.27213 0.31412 0.0
C290 C 0.45329 0.29694 0.16674 0.0
C291 C 0.45286 0.2552 0.33103 0.0
C292 C 0.45864 0.22581 0.32173 0.0
C293 C 0.4551 0.2417 0.30272 0.0
C294 C 0.45754 0.23692 0.39702 0.0
C295 C 0.45975 0.22326 0.36923 0.0
C296 C 0.45417 0.25267 0.37811 0.0
C297 C 0.4335 0.3313 0.33281 0.0
C298 C 0.43975 0.32896 0.41293 0.0
C299 C 0.43041 0.35522 0.37953 0.0
C300 C 0.42882 0.34787 0.33772 0.0
C301 C 0.43684 0.3461 0.41689 0.0
C302 C 0.43815 0.32161 0.37101 0.0
C303 C 0.43647 0.32531 0.28705 0.0
O304 O 0.46536 0.29798 0.19745 0.0
O305 O 0.43764 0.29253 0.18442 0.0
O306 O 0.42507 0.31407 0.27353 0.0
O307 O 0.45285 0.32175 0.27774 0.0
H308 H 0.45 0.32982 0.18276 0.0
H309 H 0.4537 0.35364 0.12824 0.0
H310 H 0.46179 0.31975 0.01966 0.0
H311 H 0.4581 0.29591 0.07467 0.0
H312 H 0.46024 0.2155 0.29947 0.0
H313 H 0.45408 0.24342 0.26625 0.0
H314 H 0.45863 0.2355 0.43354 0.0
H315 H 0.45252 0.26295 0.40052 0.0
H316 H 0.44454 0.32159 0.44128 0.0
H317 H 0.42822 0.36847 0.38121 0.0
H318 H 0.42526 0.35549 0.30844 0.0
H319 H 0.44179 0.30874 0.36764 0.0
C320 C 0.02287 0.97601 0.74271 0.0
N321 N 0.00242 0.97936 0.61163 0.0
C322 C 0.01133 0.96517 0.6047 0.0
C323 C 0.00569 0.95371 0.57319 0.0
C324 C 0.99075 0.9568 0.54774 0.0
C325 C 0.98172 0.97153 0.55575 0.0
C326 C 0.98777 0.98264 0.58796 0.0
Zn327 Zn 0.01207 0.99576 0.65887 0.0
C328 C 0.98484 0.00516 0.72849 0.0
N329 N 0.03395 0.02701 0.76246 0.0
C330 C 0.04568 0.0217 0.79351 0.0
C331 C 0.0283 0.043 0.76251 0.0
C332 C 0.03458 0.05429 0.79378 0.0
C333 C 0.0464 0.04902 0.82643 0.0
C334 C 0.05189 0.03248 0.82627 0.0
Zn335 Zn 0.02391 0.01062 0.71496 0.0
O336 O 0.01748 0.97541 0.70244 0.0
C337 C 0.05112 1.00121 0.64524 0.0
O338 O 0.02689 0.98995 0.75912 0.0
H339 H 0.01876 0.04711 0.73855 0.0
H340 H 0.02295 0.96269 0.6236 0.0
H341 H 0.0502 0.00906 0.79317 0.0
O342 O 0.03745 0.99531 0.6272 0.0
O343 O 0.04978 0.00787 0.68381 0.0
H344 H 0.98082 0.99395 0.59377 0.0
O345 O 0.0199 0.0306 0.66965 0.0
O346 O 0.00707 0.01667 0.61622 0.0
O347 O 0.99816 0.01282 0.74379 0.0
O348 O 0.98666 0.99678 0.69277 0.0
C349 C 0.01251 0.0304 0.63167 0.0
H350 H 0.01295 0.94245 0.56914 0.0
H351 H 0.97027 0.97464 0.53676 0.0
H352 H 0.02996 0.06694 0.79304 0.0
H353 H 0.06106 0.028 0.85093 0.0
C354 C 0.49621 0.9893 0.62813 0.0
N355 N 0.51141 0.03906 0.64949 0.0
C356 C 0.51136 0.04082 0.60333 0.0
C357 C 0.50808 0.05623 0.58205 0.0
C358 C 0.50485 0.07012 0.60831 0.0
C359 C 0.50491 0.06797 0.65597 0.0
C360 C 0.50825 0.05226 0.67594 0.0
Zn361 Zn 0.51652 0.01578 0.67732 0.0
C362 C 0.48987 0.00395 0.75019 0.0
N363 N 0.52557 0.96559 0.72803 0.0
C364 C 0.52624 0.9521 0.70134 0.0
C365 C 0.52855 0.96398 0.77337 0.0
C366 C 0.53278 0.94855 0.79316 0.0
C367 C 0.53348 0.93451 0.76644 0.0
C368 C 0.52998 0.9363 0.7201 0.0
Zn369 Zn 0.52027 0.98907 0.70038 0.0
O370 O 0.49953 0.00483 0.63137 0.0
C371 C 0.54688 1.00087 0.62738 0.0
O372 O 0.50348 0.97876 0.65397 0.0
H373 H 0.52769 0.97467 0.79446 0.0
H374 H 0.51385 0.03021 0.58278 0.0
H375 H 0.52395 0.95356 0.66539 0.0
O376 O 0.53806 0.01402 0.63027 0.0
O377 O 0.54241 0.98809 0.65288 0.0
H378 H 0.50836 0.05063 0.71256 0.0
O379 O 0.53655 1.00013 0.74664 0.0
O380 O 0.53375 0.02629 0.72345 0.0
O381 O 0.49826 0.99055 0.74651 0.0
O382 O 0.49483 0.0169 0.72591 0.0
C383 C 0.54033 0.01556 0.75014 0.0
H384 H 0.50785 0.05717 0.54529 0.0
H385 H 0.50262 0.07836 0.67759 0.0
H386 H 0.53531 0.94755 0.82913 0.0
H387 H 0.53042 0.92567 0.69855 0.0
C388 C 0.52321 0.47578 0.62869 0.0
N389 N 0.47989 0.50563 0.6504 0.0
C390 C 0.47879 0.50457 0.60457 0.0
C391 C 0.46288 0.50681 0.5837 0.0
C392 C 0.44797 0.51059 0.60992 0.0
C393 C 0.44936 0.51173 0.6571 0.0
C394 C 0.46554 0.509 0.67688 0.0
Zn395 Zn 0.50426 0.50292 0.67679 0.0
C396 C 0.50499 0.4768 0.75157 0.0
N397 N 0.55627 0.49614 0.7234 0.0
C398 C 0.57018 0.49146 0.69716 0.0
C399 C 0.55798 0.49875 0.76849 0.0
C400 C 0.57404 0.49667 0.7888 0.0
C401 C 0.58839 0.49139 0.76289 0.0
C402 C 0.58644 0.48877 0.71653 0.0
Zn403 Zn 0.53175 0.49857 0.69729 0.0
O404 O 0.5095 0.4843 0.63063 0.0
C405 C 0.53097 0.52494 0.62308 0.0
O406 O 0.53571 0.47873 0.6548 0.0
H407 H 0.54677 0.50211 0.78921 0.0
H408 H 0.49035 0.50229 0.58383 0.0
H409 H 0.56859 0.48948 0.6614 0.0
O410 O 0.5146 0.52186 0.62991 0.0
O411 O 0.54189 0.5164 0.64526 0.0
H412 H 0.46669 0.50981 0.71323 0.0
O413 O 0.52711 0.51806 0.73981 0.0
O414 O 0.49952 0.52157 0.72317 0.0
O415 O 0.52121 0.48112 0.74842 0.0
O416 O 0.49434 0.48378 0.72491 0.0
C417 C 0.5128 0.5254 0.74584 0.0
H418 H 0.46237 0.50612 0.54709 0.0
H419 H 0.43808 0.51468 0.67831 0.0
H420 H 0.5751 0.49858 0.82484 0.0
H421 H 0.59731 0.48461 0.69573 0.0
C422 C 0.03794 0.51384 0.6093 0.0
N423 N 0.03114 0.465 0.66152 0.0
C424 C 0.0318 0.46185 0.61639 0.0
C425 C 0.0375 0.44658 0.60146 0.0
C426 C 0.04218 0.43415 0.63317 0.0
C427 C 0.0408 0.43736 0.67966 0.0
C428 C 0.03538 0.45305 0.69319 0.0
Zn429 Zn 0.0235 0.48859 0.67854 0.0
C430 C 0.04806 0.50643 0.73656 0.0
N431 N 0.00701 0.53824 0.70596 0.0
C432 C 0.00221 0.55022 0.67508 0.0
C433 C 0.00693 0.54121 0.75117 0.0
C434 C 0.00127 0.55633 0.7671 0.0
C435 C 0.99584 0.56876 0.73636 0.0
C436 C 0.99667 0.56575 0.68965 0.0
Zn437 Zn 0.01458 0.51471 0.68864 0.0
O438 O 0.03753 0.49865 0.62296 0.0
C439 C 0.99001 0.49687 0.63079 0.0
O440 O 0.0293 0.52439 0.63125 0.0
H441 H 0.0111 0.53174 0.77526 0.0
H442 H 0.02802 0.47125 0.5916 0.0
H443 H 0.00248 0.5477 0.63927 0.0
O444 O 0.00107 0.48562 0.63848 0.0
O445 O 0.99223 0.51113 0.64776 0.0
H446 H 0.03469 0.45571 0.72891 0.0
O447 O -0.00018 0.5043 0.74478 0.0
O448 O 0.00896 0.47896 0.7342 0.0
O449 O 0.03693 0.51762 0.72916 0.0
O450 O 0.04599 0.49224 0.71909 0.0
C451 C -0.0005 0.48886 0.75603 0.0
H452 H 0.03818 0.44446 0.56535 0.0
H453 H 0.0443 0.42802 0.70508 0.0
H454 H 0.00111 0.55828 0.8033 0.0
H455 H 0.99262 0.57508 0.66488 0.0
C456 C 0.19355 0.98987 0.43808 0.0
C457 C 0.19599 1.00065 0.39926 0.0
C458 C 0.17784 0.98956 0.46438 0.0
C459 C 0.13816 0.01491 0.48599 0.0
H460 H 0.12049 0.97437 0.55058 0.0
C461 C 0.06901 0.00842 0.57446 0.0
C462 C 0.06806 1.00151 0.6191 0.0
C463 C 0.08467 0.00836 0.54829 0.0
C464 C 0.12535 0.98582 0.53302 0.0
H465 H 0.18335 0.01953 0.35796 0.0
H466 H 0.15589 0.01834 0.40196 0.0
H467 H 0.14707 0.97371 0.50212 0.0
H468 H 0.08262 0.98893 0.67135 0.0
H469 H 0.11004 0.98826 0.62487 0.0
H470 H 0.11605 0.02682 0.51592 0.0
C471 C 0.16628 0.01041 0.41306 0.0
C472 C 0.14066 0.98549 0.50526 0.0
C473 C 0.18205 0.01088 0.38715 0.0
C474 C 0.08308 0.99444 0.63713 0.0
C475 C 0.09868 0.99397 0.61044 0.0
C476 C 0.12273 0.01516 0.51312 0.0
C477 C 0.16397 0.99991 0.45247 0.0
C478 C 0.14737 1.00006 0.48143 0.0
C479 C 0.09966 1.00098 0.56574 0.0
C480 C 0.11618 1.00065 0.53716 0.0
H481 H 0.20376 0.98157 0.44827 0.0
H482 H 0.17677 0.9814 0.49459 0.0
H483 H 0.14297 0.0265 0.46921 0.0
H484 H 0.05759 0.01395 0.55983 0.0
H485 H 0.08496 0.01379 0.51398 0.0
C486 C 0.47697 0.19692 0.37314 0.0
C487 C 0.46344 0.2066 0.39051 0.0
C488 C 0.48155 0.18212 0.39621 0.0
C489 C 0.47808 0.16092 0.51095 0.0
H490 H 0.49164 0.12191 0.4464 0.0
C491 C 0.48806 0.09671 0.60292 0.0
C492 C 0.50128 0.08661 0.58573 0.0
C493 C 0.48396 0.11163 0.57979 0.0
C494 C 0.48812 0.13276 0.46503 0.0
H495 H 0.44347 0.20782 0.44435 0.0
H496 H 0.45124 0.182 0.48406 0.0
H497 H 0.48313 0.14686 0.40377 0.0
H498 H 0.52118 0.08481 0.53192 0.0
H499 H 0.51416 0.1108 0.49194 0.0
H500 H 0.48308 0.14684 0.57222 0.0
C501 C 0.45869 0.18603 0.45339 0.0
C502 C 0.48321 0.14709 0.44049 0.0
C503 C 0.45417 0.20081 0.43048 0.0
C504 C 0.51066 0.09208 0.54564 0.0
C505 C 0.5066 0.107 0.52262 0.0
C506 C 0.48301 0.1466 0.53549 0.0
C507 C 0.47265 0.17662 0.43707 0.0
C508 C 0.47804 0.16135 0.4631 0.0
C509 C 0.49302 0.11686 0.53896 0.0
C510 C 0.48807 0.13229 0.51289 0.0
H511 H 0.48446 0.20111 0.34267 0.0
H512 H 0.49245 0.17528 0.38277 0.0
H513 H 0.47451 0.17176 0.52957 0.0
H514 H 0.48047 0.09282 0.63347 0.0
H515 H 0.47331 0.11879 0.59325 0.0
C516 C 0.33193 0.53291 0.34279 0.0
C517 C 0.32236 0.54751 0.34652 0.0
C518 C 0.34637 0.53021 0.36985 0.0
C519 C 0.36344 0.54222 0.47979 0.0
H520 H 0.40433 0.51862 0.43949 0.0
C521 C 0.42333 0.52944 0.59214 0.0
C522 C 0.43146 0.51412 0.58691 0.0
C523 C 0.40961 0.53399 0.56422 0.0
C524 C 0.39289 0.52505 0.45142 0.0
H525 H 0.32129 0.57132 0.37884 0.0
H526 H 0.34658 0.56665 0.42582 0.0
H527 H 0.38261 0.52674 0.38475 0.0
H528 H 0.43091 0.49104 0.55116 0.0
H529 H 0.40666 0.49873 0.50332 0.0
H530 H 0.37373 0.54044 0.54659 0.0
C531 C 0.34265 0.5571 0.40285 0.0
C532 C 0.38047 0.52975 0.41998 0.0
C533 C 0.32821 0.5598 0.37581 0.0
C534 C 0.42496 0.50301 0.5554 0.0
C535 C 0.4112 0.50748 0.52782 0.0
C536 C 0.37589 0.53752 0.51129 0.0
C537 C 0.35158 0.54206 0.40116 0.0
C538 C 0.36549 0.53822 0.43384 0.0
C539 C 0.40376 0.52324 0.53081 0.0
C540 C 0.39064 0.52868 0.49755 0.0
H541 H 0.32766 0.52313 0.32091 0.0
H542 H 0.35287 0.51843 0.36789 0.0
H543 H 0.35193 0.54853 0.49177 0.0
H544 H 0.42823 0.53826 0.616 0.0
H545 H 0.40419 0.54623 0.56731 0.0
C546 C 0.07664 0.29754 0.48282 0.0
C547 C 0.09103 0.29744 0.45176 0.0
C548 C 0.07163 0.31235 0.50228 0.0
C549 C 0.07687 0.35866 0.49001 0.0
H550 H 0.06058 0.35628 0.61635 0.0
C551 C 0.06338 0.41844 0.58619 0.0
C552 C 0.04889 0.4182 0.61692 0.0
C553 C 0.06906 0.40368 0.56767 0.0
C554 C 0.06489 0.35719 0.58091 0.0
H555 H 0.11136 0.31285 0.41627 0.0
H556 H 0.10287 0.33881 0.45094 0.0
H557 H 0.06936 0.33099 0.58003 0.0
H558 H 0.02903 0.40238 0.65285 0.0
H559 H 0.03856 0.37652 0.6195 0.0
H560 H 0.07233 0.38484 0.49081 0.0
C561 C 0.09521 0.32745 0.45971 0.0
C562 C 0.06995 0.34263 0.55996 0.0
C563 C 0.10012 0.31259 0.43981 0.0
C564 C 0.04035 0.40285 0.62951 0.0
C565 C 0.04587 0.38805 0.61043 0.0
C566 C 0.0718 0.37322 0.51095 0.0
C567 C 0.08099 0.32749 0.49163 0.0
C568 C 0.07595 0.34313 0.51413 0.0
C569 C 0.06021 0.38829 0.57881 0.0
C570 C 0.06571 0.37271 0.55671 0.0
H571 H 0.06924 0.28608 0.49223 0.0
H572 H 0.06035 0.31189 0.5257 0.0
H573 H 0.08115 0.35956 0.45455 0.0
H574 H 0.07027 0.43013 0.57627 0.0
H575 H 0.0804 0.40437 0.54446 0.0
C576 C 0.84352 0.98948 0.94884 0.0
C577 C 0.83959 0.00315 0.9755 0.0
C578 C 0.8593 0.9893 0.923 0.0
C579 C 0.90399 0.0099 0.90925 0.0
H580 H 0.90299 0.99182 0.78928 0.0
C581 C 0.96427 0.01791 0.7846 0.0
C582 C 0.96767 0.00529 0.75401 0.0
C583 C 0.94862 0.01757 0.81101 0.0
C584 C 0.90369 0.99671 0.82291 0.0
H585 H 0.84933 0.02738 0.99561 0.0
H586 H 0.87665 0.02718 0.95035 0.0
H587 H 0.87637 0.991 0.83707 0.0
H588 H 0.95729 0.98231 0.72752 0.0
H589 H 0.93033 0.9813 0.77465 0.0
H590 H 0.93131 0.01545 0.89551 0.0
C591 C 0.86771 0.01641 0.94997 0.0
C592 C 0.8883 0.99625 0.85046 0.0
C593 C 0.85197 0.01655 0.97596 0.0
C594 C 0.95497 0.99235 0.7503 0.0
C595 C 0.93944 0.99183 0.77737 0.0
C596 C 0.91941 0.01026 0.88184 0.0
C597 C 0.87159 0.00283 0.92285 0.0
C598 C 0.88818 0.00292 0.89397 0.0
C599 C 0.93601 0.0044 0.80838 0.0
C600 C 0.91952 0.00377 0.83803 0.0
H601 H 0.83446 0.9788 0.94826 0.0
H602 H 0.86191 0.97846 0.90339 0.0
H603 H 0.90457 0.01491 0.94279 0.0
H604 H 0.97374 0.02811 0.78816 0.0
H605 H 0.94645 0.02774 0.83339 0.0
C606 C 0.55004 0.8012 0.97944 0.0
C607 C 0.56734 0.79747 0.98988 0.0
C608 C 0.54655 0.81592 0.9546 0.0
C609 C 0.56469 0.85812 0.92243 0.0
H610 H 0.5332 0.85559 0.82202 0.0
C611 C 0.5548 0.91566 0.80314 0.0
C612 C 0.53791 0.91814 0.78725 0.0
C613 C 0.55877 0.90059 0.82554 0.0
C614 C 0.54184 0.85662 0.85028 0.0
H615 H 0.59453 0.80609 0.98339 0.0
H616 H 0.58844 0.83211 0.94109 0.0
H617 H 0.53901 0.83039 0.86747 0.0
H618 H 0.5119 0.90698 0.78184 0.0
H619 H 0.5185 0.88084 0.82254 0.0
H620 H 0.56727 0.88433 0.90628 0.0
C621 C 0.57756 0.82369 0.95189 0.0
C622 C 0.5452 0.84213 0.8763 0.0
C623 C 0.58106 0.80884 0.97607 0.0
C624 C 0.52507 0.90524 0.79355 0.0
C625 C 0.52893 0.89025 0.81668 0.0
C626 C 0.5612 0.87264 0.89677 0.0
C627 C 0.56028 0.82729 0.94027 0.0
C628 C 0.55665 0.84271 0.9127 0.0
C629 C 0.5458 0.88776 0.83345 0.0
C630 C 0.54973 0.87213 0.86026 0.0
H631 H 0.5393 0.79247 0.98923 0.0
H632 H 0.53309 0.8184 0.9465 0.0
H633 H 0.57343 0.85903 0.95054 0.0
H634 H 0.56492 0.92544 0.79836 0.0
H635 H 0.57202 0.89906 0.83682 0.0
C636 C 0.70747 0.47296 0.02603 0.0
C637 C 0.71284 0.45653 0.03285 0.0
C638 C 0.69369 0.47643 0.99732 0.0
C639 C 0.67015 0.45849 0.90137 0.0
H640 H 0.63835 0.4943 0.92329 0.0
C641 C 0.6095 0.47097 0.79284 0.0
C642 C 0.60481 0.48761 0.78565 0.0
C643 C 0.62331 0.46707 0.82107 0.0
C644 C 0.64728 0.4844 0.9163 0.0
H645 H 0.70798 0.43075 0.01663 0.0
H646 H 0.68332 0.43662 0.96796 0.0
H647 H 0.6599 0.48728 0.97938 0.0
H648 H 0.61113 0.51332 0.80007 0.0
H649 H 0.63578 0.50665 0.84801 0.0
H650 H 0.65737 0.45556 0.83837 0.0
C651 C 0.68995 0.44693 0.98373 0.0
C652 C 0.65964 0.48034 0.94859 0.0
C653 C 0.70387 0.44351 0.01202 0.0
C654 C 0.61459 0.50039 0.80527 0.0
C655 C 0.62854 0.49653 0.83302 0.0
C656 C 0.65773 0.46252 0.86912 0.0
C657 C 0.68495 0.4635 0.97509 0.0
C658 C 0.67129 0.46738 0.94152 0.0
C659 C 0.63274 0.47979 0.84235 0.0
C660 C 0.6462 0.47559 0.87609 0.0
H661 H 0.7145 0.48319 0.04115 0.0
H662 H 0.69043 0.48935 0.99104 0.0
H663 H 0.67909 0.44862 0.89428 0.0
H664 H 0.60191 0.46093 0.77848 0.0
H665 H 0.62605 0.45404 0.82785 0.0
C666 C 0.95896 0.70512 0.88326 0.0
C667 C 0.94741 0.70479 0.92146 0.0
C668 C 0.9635 0.69034 0.86294 0.0
C669 C 0.96325 0.64416 0.88315 0.0
H670 H 0.97116 0.64478 0.75231 0.0
C671 C 0.97609 0.58373 0.78934 0.0
C672 C 0.98891 0.58447 0.75385 0.0
C673 C 0.97021 0.59832 0.80835 0.0
C674 C 0.96918 0.64441 0.78892 0.0
H675 H 0.93145 0.68877 0.96834 0.0
H676 H 0.93893 0.66282 0.93209 0.0
H677 H 0.96222 0.67003 0.78859 0.0
H678 H 0.00551 0.60109 0.71002 0.0
H679 H 0.99553 0.62671 0.74386 0.0
H680 H 0.97016 0.6185 0.88339 0.0
C681 C 0.94488 0.67449 0.9184 0.0
C682 C 0.96405 0.65893 0.80986 0.0
C683 C 0.94053 0.68933 0.93919 0.0
C684 C 0.9955 0.60018 0.73709 0.0
C685 C 0.98974 0.61483 0.75647 0.0
C686 C 0.96831 0.62962 0.86218 0.0
C687 C 0.9564 0.6748 0.87984 0.0
C688 C 0.96116 0.65908 0.85735 0.0
C689 C 0.97713 0.61407 0.7927 0.0
C690 C 0.97144 0.62955 0.8148 0.0
H691 H 0.96457 0.71689 0.86918 0.0
H692 H 0.97273 0.69115 0.83413 0.0
H693 H 0.96142 0.64377 0.91979 0.0
H694 H 0.97061 0.57179 0.80251 0.0
H695 H 0.96021 0.59723 0.83539 0.0
C696 C 0.1212 0.12761 0.54706 0.0
C697 C 0.11657 0.14436 0.54046 0.0
C698 C 0.10978 0.11627 0.57123 0.0
C699 C 0.06168 0.11508 0.58615 0.0
H700 H 0.06919 0.06802 0.61006 0.0
C701 C 0.01025 0.06063 0.62271 0.0
C702 C 0.01456 0.04559 0.60297 0.0
C703 C 0.02096 0.0749 0.614 0.0
C704 C 0.06701 0.08116 0.60301 0.0
H705 H 0.09914 0.16319 0.56525 0.0
H706 H 0.08039 0.14376 0.61104 0.0
H707 H 0.09343 0.0882 0.61745 0.0
H708 H 0.03119 0.03417 0.55289 0.0
H709 H 0.05 0.05913 0.53759 0.0
H710 H 0.03504 0.10783 0.57312 0.0
C711 C 0.09179 0.13901 0.59357 0.0
C712 C 0.08084 0.09274 0.60749 0.0
C713 C 0.10283 0.15027 0.56786 0.0
C714 C 0.02761 0.0457 0.56828 0.0
C715 C 0.03856 0.05986 0.56021 0.0
C716 C 0.04777 0.10351 0.58271 0.0
C717 C 0.09397 0.12172 0.59079 0.0
C718 C 0.07856 0.10984 0.5975 0.0
C719 C 0.03603 0.07407 0.58568 0.0
C720 C 0.05051 0.08646 0.58956 0.0
H721 H 0.13235 0.12281 0.52861 0.0
H722 H 0.11244 0.10313 0.56944 0.0
H723 H 0.05928 0.12802 0.57733 0.0
H724 H 0.00027 0.0607 0.64981 0.0
H725 H 0.01871 0.08582 0.63364 0.0
C726 C 0.35142 0.99125 0.47727 0.0
C727 C 0.34779 0.00796 0.46662 0.0
C728 C 0.36593 0.98751 0.50287 0.0
C729 C 0.4017 0.00422 0.57042 0.0
H730 H 0.43047 0.97602 0.496 0.0
C731 C 0.46583 0.97883 0.63144 0.0
C732 C 0.4805 0.9845 0.60461 0.0
C733 C 0.44909 0.98011 0.61461 0.0
C734 C 0.42254 0.98388 0.51693 0.0
H735 H 0.35446 0.03376 0.47927 0.0
H736 H 0.37962 0.02723 0.52525 0.0
H737 H 0.40041 0.98161 0.47471 0.0
H738 H 0.48973 0.99465 0.5386 0.0
H739 H 0.4602 0.99583 0.50768 0.0
H740 H 0.424 0.00659 0.61235 0.0
C741 C 0.37154 0.01705 0.51336 0.0
C742 C 0.40534 0.98692 0.50523 0.0
C743 C 0.3571 0.02079 0.4874 0.0
C744 C 0.47848 0.98997 0.55933 0.0
C745 C 0.4617 0.99079 0.54197 0.0
C746 C 0.41884 1.00101 0.58243 0.0
C747 C 0.37677 1.00045 0.51829 0.0
C748 C 0.39471 0.99692 0.53224 0.0
C749 C 0.44691 0.98668 0.57043 0.0
C750 C 0.42924 0.99064 0.55607 0.0
H751 H 0.34444 0.9812 0.46124 0.0
H752 H 0.36957 0.97459 0.50717 0.0
H753 H 0.39387 0.01222 0.5912 0.0
H754 H 0.46715 0.97502 0.66688 0.0
H755 H 0.43779 0.97682 0.63687 0.0
C756 C 0.46125 0.35208 0.46838 0.0
C757 C 0.44409 0.35527 0.45506 0.0
C758 C 0.47048 0.3636 0.49335 0.0
C759 C 0.46828 0.401 0.56026 0.0
H760 H 0.51279 0.41299 0.49709 0.0
C761 C 0.51879 0.44552 0.63355 0.0
C762 C 0.52192 0.46006 0.60606 0.0
C763 C 0.5108 0.4315 0.61568 0.0
C764 C 0.50043 0.40969 0.51498 0.0
H765 H 0.42242 0.37195 0.46227 0.0
H766 H 0.43871 0.39221 0.50612 0.0
H767 H 0.49422 0.39027 0.46999 0.0
H768 H 0.52052 0.47132 0.53837 0.0
H769 H 0.50754 0.44619 0.50597 0.0
H770 H 0.47456 0.42056 0.60509 0.0
C771 C 0.445 0.38086 0.49667 0.0
C772 C 0.48989 0.39668 0.49983 0.0
C773 C 0.43572 0.36931 0.47153 0.0
C774 C 0.51851 0.46002 0.55964 0.0
C775 C 0.51096 0.44579 0.5414 0.0
C776 C 0.47897 0.41387 0.5758 0.0
C777 C 0.46275 0.37847 0.50556 0.0
C778 C 0.4738 0.39215 0.52254 0.0
C779 C 0.50627 0.43179 0.56994 0.0
C780 C 0.49514 0.4182 0.55338 0.0
H781 H 0.46816 0.34146 0.45614 0.0
H782 H 0.48407 0.36136 0.50072 0.0
H783 H 0.45586 0.39783 0.57797 0.0
H784 H 0.52087 0.44557 0.66979 0.0
H785 H 0.50731 0.42077 0.63809 0.0
C786 C 0.1623 0.574 0.42979 0.0
C787 C 0.17509 0.56199 0.42414 0.0
C788 C 0.151 0.57287 0.46791 0.0
C789 C 0.13128 0.53565 0.50226 0.0
H790 H 0.09633 0.56168 0.56286 0.0
C791 C 0.06441 0.50826 0.56301 0.0
C792 C 0.05116 0.51929 0.57424 0.0
C793 C 0.08035 0.51445 0.54445 0.0
C794 C 0.10585 0.55437 0.54506 0.0
H795 H 0.18894 0.54202 0.45774 0.0
H796 H 0.16901 0.53998 0.52418 0.0
H797 H 0.1262 0.57322 0.55067 0.0
H798 H 0.04245 0.54466 0.56578 0.0
H799 H 0.06999 0.55537 0.52926 0.0
H800 H 0.11098 0.51756 0.49212 0.0
C801 C 0.16758 0.55011 0.49921 0.0
C802 C 0.12303 0.56081 0.53944 0.0
C803 C 0.17888 0.55119 0.46097 0.0
C804 C 0.0528 0.53606 0.55893 0.0
C805 C 0.06863 0.54218 0.53872 0.0
C806 C 0.11409 0.52946 0.50658 0.0
C807 C 0.15236 0.55954 0.4998 0.0
C808 C 0.13582 0.55154 0.5176 0.0
C809 C 0.08303 0.53169 0.53508 0.0
C810 C 0.1011 0.53877 0.52772 0.0
H811 H 0.15956 0.58279 0.40222 0.0
H812 H 0.13953 0.58052 0.46807 0.0
H813 H 0.14075 0.52846 0.48382 0.0
H814 H 0.06333 0.49512 0.57327 0.0
H815 H 0.09094 0.50583 0.54181 0.0
C816 C 0.94223 0.84983 0.80898 0.0
C817 C 0.92589 0.85355 0.82911 0.0
C818 C 0.95253 0.86246 0.78653 0.0
C819 C 0.95796 0.9075 0.75774 0.0
H820 H 0.99551 0.9044 0.84373 0.0
C821 C 0.00348 0.96272 0.8015 0.0
C822 C 0.01839 0.96153 0.77263 0.0
C823 C 0.99251 0.94869 0.81115 0.0
C824 C 0.98509 0.90535 0.81969 0.0
H825 H 0.90559 0.87191 0.83034 0.0
H826 H 0.92397 0.89419 0.7929 0.0
H827 H 0.9744 0.88104 0.83834 0.0
H828 H 0.03497 0.94476 0.73644 0.0
H829 H 0.01646 0.91984 0.75656 0.0
H830 H 0.96873 0.93208 0.73992 0.0
C831 C 0.92897 0.88169 0.79533 0.0
C832 C 0.9732 0.89199 0.816 0.0
C833 C 0.9185 0.86894 0.81715 0.0
C834 C 0.02369 0.94582 0.75942 0.0
C835 C 0.013 0.93169 0.77027 0.0
C836 C 0.96992 0.92093 0.76152 0.0
C837 C 0.94664 0.87886 0.78441 0.0
C838 C 0.95968 0.89284 0.78462 0.0
C839 C 0.99684 0.93334 0.79345 0.0
C840 C 0.98353 0.91982 0.79244 0.0
H841 H 0.94827 0.83802 0.81626 0.0
H842 H 0.966 0.85993 0.77683 0.0
H843 H 0.9475 0.90851 0.73386 0.0
H844 H 0.99896 0.97483 0.81107 0.0
H845 H 0.98004 0.95008 0.82911 0.0
C846 C 0.68509 0.01362 0.87474 0.0
C847 C 0.68781 0.99988 0.90424 0.0
C848 C 0.67162 0.01289 0.84389 0.0
C849 C 0.62873 0.99513 0.85971 0.0
H850 H 0.61889 0.02137 0.75106 0.0
C851 C 0.55791 0.00909 0.81611 0.0
C852 C 0.55494 0.01985 0.77882 0.0
C853 C 0.57489 0.00675 0.83007 0.0
C854 C 0.62128 0.0144 0.78229 0.0
H855 H 0.68068 0.97396 0.92092 0.0
H856 H 0.65731 0.97252 0.86633 0.0
H857 H 0.64882 0.01371 0.76492 0.0
H858 H 0.56648 0.03927 0.73299 0.0
H859 H 0.59594 0.03677 0.76081 0.0
H860 H 0.60218 0.99701 0.88045 0.0
C861 C 0.66537 0.98389 0.86713 0.0
C862 C 0.63849 0.00964 0.78943 0.0
C863 C 0.67877 0.98467 0.89817 0.0
C864 C 0.56856 0.03066 0.76147 0.0
C865 C 0.5856 0.02873 0.77648 0.0
C866 C 0.61175 1.00038 0.85355 0.0
C867 C 0.66069 0.99844 0.84283 0.0
C868 C 0.64241 1.00019 0.82866 0.0
C869 C 0.58926 0.01566 0.80809 0.0
C870 C 0.60767 0.01034 0.81506 0.0
H871 H 0.69189 0.02549 0.87934 0.0
H872 H 0.66835 0.02429 0.82555 0.0
H873 H 0.63133 0.98813 0.89086 0.0
H874 H 0.54741 1.00087 0.83062 0.0
H875 H 0.5765 0.99678 0.85513 0.0
C876 C 0.5974 0.63632 0.89924 0.0
C877 C 0.58649 0.64868 0.91603 0.0
C878 C 0.59028 0.62338 0.87444 0.0
C879 C 0.55058 0.59972 0.88296 0.0
H880 H 0.5584 0.58307 0.76253 0.0
C881 C 0.51927 0.53889 0.81667 0.0
C882 C 0.51345 0.54028 0.77211 0.0
C883 C 0.52778 0.55247 0.83548 0.0
C884 C 0.55612 0.58768 0.79622 0.0
H885 H 0.5602 0.6584 0.91483 0.0
H886 H 0.54805 0.6361 0.87117 0.0
H887 H 0.57656 0.60673 0.78699 0.0
H888 H 0.51059 0.55683 0.71313 0.0
H889 H 0.52534 0.58075 0.7462 0.0
H890 H 0.53008 0.58091 0.89232 0.0
C891 C 0.56196 0.63629 0.87782 0.0
C892 C 0.56657 0.60101 0.81017 0.0
C893 C 0.56901 0.64915 0.9024 0.0
C894 C 0.51463 0.55572 0.74805 0.0
C895 C 0.52341 0.56921 0.76649 0.0
C896 C 0.54028 0.58634 0.86925 0.0
C897 C 0.57227 0.62285 0.86628 0.0
C898 C 0.5634 0.60742 0.85304 0.0
C899 C 0.53078 0.56739 0.80937 0.0
C900 C 0.54258 0.5806 0.82528 0.0
H901 H 0.61099 0.63585 0.90868 0.0
H902 H 0.59843 0.61313 0.86525 0.0
H903 H 0.5482 0.60441 0.91654 0.0
H904 H 0.51875 0.5269 0.83514 0.0
H905 H 0.53327 0.55086 0.86877 0.0
C906 C 0.87097 0.42633 0.94197 0.0
C907 C 0.85893 0.43712 0.96077 0.0
C908 C 0.88316 0.43233 0.90875 0.0
C909 C 0.90586 0.47241 0.87805 0.0
H910 H 0.93293 0.44306 0.8041 0.0
C911 C 0.97813 0.48833 0.82203 0.0
C912 C 0.984 0.48198 0.78082 0.0
C913 C 0.96148 0.48344 0.84023 0.0
C914 C 0.92546 0.45174 0.82351 0.0
H915 H 0.84825 0.46186 0.95551 0.0
H916 H 0.86908 0.47221 0.89541 0.0
H917 H 0.9038 0.43437 0.82996 0.0
H918 H 0.97716 0.4668 0.72445 0.0
H919 H 0.94804 0.45949 0.75345 0.0
H920 H 0.92722 0.49031 0.86863 0.0
C921 C 0.86965 0.45932 0.90769 0.0
C922 C 0.90876 0.44655 0.83913 0.0
C923 C 0.85754 0.45332 0.94149 0.0
C924 C 0.97313 0.47117 0.75747 0.0
C925 C 0.95638 0.46697 0.77428 0.0
C926 C 0.92238 0.47796 0.86062 0.0
C927 C 0.88329 0.44919 0.89323 0.0
C928 C 0.89902 0.45648 0.86809 0.0
C929 C 0.95034 0.4728 0.81616 0.0
C930 C 0.93254 0.4675 0.83392 0.0
H931 H 0.87209 0.41374 0.95618 0.0
H932 H 0.89344 0.42408 0.89879 0.0
H933 H 0.89886 0.48035 0.90083 0.0
H934 H 0.98628 0.49712 0.83963 0.0
H935 H 0.95736 0.48809 0.87276 0.0
C936 C 0.10222 0.15853 0.07427 0.0
C937 C 0.09537 0.15752 0.1193 0.0
C938 C 0.09773 0.14632 0.04345 0.0
C939 C 0.07837 0.1031 0.0359 0.0
H940 H 0.06949 0.11806 0.91232 0.0
C941 C 0.04807 0.05824 0.90678 0.0
C942 C 0.05282 0.06078 0.86051 0.0
C943 C 0.05353 0.06973 0.93864 0.0
C944 C 0.07217 0.11351 0.9464 0.0
H945 H 0.07845 0.14266 0.16702 0.0
H946 H 0.07055 0.1215 0.11341 0.0
H947 H 0.07886 0.13821 0.9667 0.0
H948 H 0.0673 0.07704 0.81124 0.0
H949 H 0.07761 0.09665 0.86665 0.0
H950 H 0.07184 0.07838 0.01559 0.0
C951 C 0.07963 0.13159 0.10198 0.0
C952 C 0.07755 0.12517 0.9778 0.0
C953 C 0.08417 0.14378 0.13284 0.0
C954 C 0.06338 0.07486 0.84674 0.0
C955 C 0.06914 0.08619 0.87862 0.0
C956 C 0.07311 0.0914 0.00438 0.0
C957 C 0.0862 0.13277 0.05666 0.0
C958 C 0.08072 0.12017 0.02306 0.0
C959 C 0.06417 0.08393 0.92512 0.0
C960 C 0.0699 0.0964 0.95903 0.0
H961 H 0.11113 0.16876 0.06281 0.0
H962 H 0.10337 0.14751 0.0092 0.0
H963 H 0.08088 0.09869 0.07024 0.0
H964 H 0.03978 0.04754 0.91816 0.0
H965 H 0.04909 0.0676 0.97373 0.0
C966 C 0.3674 0.01934 0.02939 0.0
C967 C 0.35524 0.00576 0.03366 0.0
C968 C 0.38187 0.01913 0.99877 0.0
C969 C 0.3992 0.99637 0.8983 0.0
H970 H 0.44265 0.01998 0.92458 0.0
C971 C 0.46484 0.98938 0.7951 0.0
C972 C 0.47433 0.00426 0.78202 0.0
C973 C 0.45017 0.98957 0.82506 0.0
C974 C 0.43056 0.01342 0.91661 0.0
H975 H 0.34909 0.98107 0.01011 0.0
H976 H 0.37453 0.98036 0.95814 0.0
H977 H 0.41785 0.01991 0.97892 0.0
H978 H 0.47581 0.031 0.7903 0.0
H979 H 0.45046 0.03127 0.84367 0.0
H980 H 0.41231 0.98945 0.83658 0.0
C981 C 0.37268 0.99151 0.97703 0.0
C982 C 0.41623 0.01343 0.94772 0.0
C983 C 0.35807 0.99185 0.00711 0.0
C984 C 0.4688 0.01933 0.79969 0.0
C985 C 0.45433 0.01947 0.83041 0.0
C986 C 0.41365 0.99613 0.8676 0.0
C987 C 0.38478 0.0052 0.97203 0.0
C988 C 0.40025 0.00498 0.93902 0.0
C989 C 0.44482 0.0046 0.84341 0.0
C990 C 0.42947 0.00473 0.87623 0.0
H991 H 0.36552 0.03032 0.04905 0.0
H992 H 0.39058 0.03009 0.99557 0.0
H993 H 0.38713 0.98999 0.88955 0.0
H994 H 0.46867 0.97756 0.78185 0.0
H995 H 0.44318 0.97789 0.83451 0.0
C996 C 0.45468 0.35373 0.99368 0.0
C997 C 0.46185 0.3532 0.03705 0.0
C998 C 0.45842 0.36735 0.96305 0.0
C999 C 0.47704 0.41141 0.95707 0.0
H1000 H 0.48121 0.40394 0.82797 0.0
C1001 C 0.50799 0.46047 0.82515 0.0
C1002 C 0.49886 0.46334 0.78502 0.0
C1003 C 0.50272 0.44737 0.85603 0.0
C1004 C 0.47994 0.40625 0.8639 0.0
H1005 H 0.47885 0.36651 0.08185 0.0
H1006 H 0.48577 0.38991 0.02845 0.0
H1007 H 0.47369 0.38051 0.88124 0.0
H1008 H 0.47722 0.45455 0.74547 0.0
H1009 H 0.46827 0.43135 0.799 0.0
H1010 H 0.48389 0.43709 0.9395 0.0
C1011 C 0.4768 0.38012 0.01824 0.0
C1012 C 0.47554 0.39281 0.89457 0.0
C1013 C 0.47288 0.36662 0.04899 0.0
C1014 C 0.48439 0.45276 0.77634 0.0
C1015 C 0.47936 0.43941 0.80679 0.0
C1016 C 0.48168 0.42478 0.92644 0.0
C1017 C 0.46964 0.38073 0.97473 0.0
C1018 C 0.47403 0.39515 0.94172 0.0
C1019 C 0.48845 0.43658 0.84706 0.0
C1020 C 0.4832 0.42237 0.8795 0.0
H1021 H 0.44597 0.34369 0.98359 0.0
H1022 H 0.45234 0.36742 0.93036 0.0
H1023 H 0.47566 0.41391 0.99283 0.0
H1024 H 0.51921 0.4684 0.83274 0.0
H1025 H 0.51008 0.44546 0.88655 0.0
C1026 C 0.17999 0.52764 0.95873 0.0
C1027 C 0.17819 0.538 0.99583 0.0
C1028 C 0.16608 0.52508 0.92974 0.0
C1029 C 0.11761 0.52823 0.92487 0.0
H1030 H 0.12652 0.52171 0.79647 0.0
C1031 C 0.0622 0.52325 0.79593 0.0
C1032 C 0.06308 0.51012 0.76572 0.0
C1033 C 0.07625 0.52698 0.82353 0.0
C1034 C 0.12385 0.52338 0.83233 0.0
H1035 H 0.1605 0.55429 0.03064 0.0
H1036 H 0.13632 0.5501 0.9796 0.0
H1037 H 0.15096 0.52852 0.84466 0.0
H1038 H 0.07955 0.49077 0.74031 0.0
H1039 H 0.10433 0.49752 0.78815 0.0
H1040 H 0.09043 0.52337 0.91211 0.0
C1041 C 0.14835 0.54359 0.97347 0.0
C1042 C 0.13785 0.52725 0.86005 0.0
C1043 C 0.16224 0.54605 0.00268 0.0
C1044 C 0.07844 0.50089 0.76344 0.0
C1045 C 0.09265 0.50482 0.79058 0.0
C1046 C 0.10359 0.52454 0.89702 0.0
C1047 C 0.15001 0.53292 0.93683 0.0
C1048 C 0.13497 0.52959 0.90682 0.0
C1049 C 0.09165 0.51786 0.8211 0.0
C1050 C 0.10657 0.52195 0.85052 0.0
H1051 H 0.19199 0.52105 0.95291 0.0
H1052 H 0.16781 0.51655 0.9025 0.0
H1053 H 0.11484 0.52965 0.96078 0.0
H1054 H 0.05055 0.5306 0.79855 0.0
H1055 H 0.07514 0.53718 0.8464 0.0
C1056 C 0.9646 0.8499 0.26672 0.0
C1057 C 0.94716 0.84508 0.2588 0.0
C1058 C 0.96839 0.86246 0.29695 0.0
C1059 C 0.94915 0.88582 0.39251 0.0
H1060 H 0.98906 0.91609 0.36408 0.0
C1061 C 0.96689 0.9416 0.50572 0.0
C1062 C 0.98485 0.94481 0.51296 0.0
C1063 C 0.96152 0.9301 0.47375 0.0
C1064 C 0.97797 0.90766 0.37291 0.0
H1065 H 0.91995 0.84954 0.27579 0.0
H1066 H 0.92647 0.87179 0.32829 0.0
H1067 H 0.9811 0.89495 0.3108 0.0
H1068 H 0.01118 0.93854 0.4907 0.0
H1069 H 0.00187 0.91833 0.43637 0.0
H1070 H 0.94609 0.89856 0.4548 0.0
C1071 C 0.93729 0.8657 0.31181 0.0
C1072 C 0.97339 0.89548 0.34223 0.0
C1073 C 0.93351 0.85303 0.28163 0.0
C1074 C 0.99724 0.93628 0.48685 0.0
C1075 C 0.99188 0.92481 0.45502 0.0
C1076 C 0.95373 0.89805 0.42326 0.0
C1077 C 0.95481 0.87065 0.31982 0.0
C1078 C 0.95905 0.88421 0.35177 0.0
C1079 C 0.97394 0.9215 0.44797 0.0
C1080 C 0.96837 0.90902 0.41419 0.0
H1081 H 0.97532 0.84387 0.24957 0.0
H1082 H 0.98203 0.86563 0.30276 0.0
H1083 H 0.93812 0.87732 0.40137 0.0
H1084 H 0.95692 0.94777 0.52529 0.0
H1085 H 0.9476 0.92805 0.46902 0.0
C1086 C 0.67821 0.99084 0.37188 0.0
C1087 C 0.68086 0.00438 0.34024 0.0
C1088 C 0.66372 0.99007 0.40255 0.0
C1089 C 0.6198 0.00844 0.42355 0.0
H1090 H 0.62479 0.98951 0.54548 0.0
C1091 C 0.56617 0.01458 0.56484 0.0
C1092 C 0.56226 1.00073 0.59479 0.0
C1093 C 0.58059 0.01468 0.53412 0.0
C1094 C 0.62309 0.99467 0.51143 0.0
H1095 H 0.67036 0.02785 0.31655 0.0
H1096 H 0.64535 0.02674 0.37048 0.0
H1097 H 0.64982 0.9905 0.49166 0.0
H1098 H 0.57075 0.97615 0.61606 0.0
H1099 H 0.5959 0.97627 0.56218 0.0
H1100 H 0.59312 0.01279 0.44358 0.0
C1101 C 0.6542 0.01645 0.37103 0.0
C1102 C 0.63748 0.99523 0.48038 0.0
C1103 C 0.66862 0.01714 0.34008 0.0
C1104 C 0.5733 0.987 0.5934 0.0
C1105 C 0.58781 0.98713 0.56269 0.0
C1106 C 0.60545 0.00796 0.45465 0.0
C1107 C 0.6515 0.00289 0.40278 0.0
C1108 C 0.63608 0.00216 0.43594 0.0
C1109 C 0.5916 1.00095 0.53243 0.0
C1110 C 0.60689 1.00112 0.4991 0.0
H1111 H 0.68723 0.98066 0.3725 0.0
H1112 H 0.66199 0.97925 0.42567 0.0
H1113 H 0.61799 0.01356 0.38951 0.0
H1114 H 0.55806 0.02544 0.56503 0.0
H1115 H 0.58322 0.02566 0.51199 0.0
C1116 C 0.57752 0.63606 0.33612 0.0
C1117 C 0.56827 0.65079 0.34194 0.0
C1118 C 0.57525 0.62246 0.36749 0.0
C1119 C 0.55678 0.6108 0.48473 0.0
H1120 H 0.55725 0.56575 0.44143 0.0
C1121 C 0.52664 0.55329 0.58758 0.0
C1122 C 0.53693 0.53908 0.59161 0.0
C1123 C 0.53201 0.56683 0.55842 0.0
C1124 C 0.55726 0.57826 0.45407 0.0
H1125 H 0.5492 0.66259 0.38523 0.0
H1126 H 0.54494 0.63893 0.43911 0.0
H1127 H 0.56352 0.58949 0.38811 0.0
H1128 H 0.56084 0.52788 0.56795 0.0
H1129 H 0.56995 0.55143 0.51528 0.0
H1130 H 0.54976 0.59947 0.55032 0.0
C1131 C 0.55436 0.63794 0.41112 0.0
C1132 C 0.56093 0.59192 0.42355 0.0
C1133 C 0.55676 0.65157 0.38003 0.0
C1134 C 0.55269 0.53868 0.56557 0.0
C1135 C 0.55785 0.55211 0.53538 0.0
C1136 C 0.55285 0.59717 0.515 0.0
C1137 C 0.56354 0.62313 0.40538 0.0
C1138 C 0.56057 0.60844 0.43831 0.0
C1139 C 0.5476 0.56638 0.53172 0.0
C1140 C 0.5529 0.58075 0.49997 0.0
H1141 H 0.58665 0.63509 0.30746 0.0
H1142 H 0.58281 0.61146 0.36211 0.0
H1143 H 0.55681 0.62322 0.49789 0.0
H1144 H 0.5145 0.55402 0.6075 0.0
H1145 H 0.52379 0.5776 0.55618 0.0
C1146 C 0.87281 0.44984 0.38286 0.0
C1147 C 0.85812 0.46002 0.38149 0.0
C1148 C 0.88707 0.4539 0.40964 0.0
C1149 C 0.89938 0.47954 0.50706 0.0
H1150 H 0.94693 0.47256 0.46272 0.0
C1151 C 0.96094 0.50417 0.59819 0.0
C1152 C 0.97482 0.49313 0.60217 0.0
C1153 C 0.94663 0.50033 0.57128 0.0
C1154 C 0.93372 0.47446 0.47576 0.0
H1155 H 0.8472 0.48271 0.40635 0.0
H1156 H 0.87198 0.48982 0.45267 0.0
H1157 H 0.92226 0.4653 0.41582 0.0
H1158 H 0.98449 0.46937 0.58097 0.0
H1159 H 0.95969 0.46277 0.53421 0.0
H1160 H 0.9109 0.48882 0.56687 0.0
C1161 C 0.87235 0.47847 0.43397 0.0
C1162 C 0.91955 0.47025 0.44891 0.0
C1163 C 0.8581 0.47438 0.40738 0.0
C1164 C 0.97406 0.4782 0.57863 0.0
C1165 C 0.95988 0.47444 0.55154 0.0
C1166 C 0.91355 0.48383 0.5338 0.0
C1167 C 0.88703 0.46828 0.43559 0.0
C1168 C 0.90218 0.47271 0.46421 0.0
C1169 C 0.94598 0.48545 0.54746 0.0
C1170 C 0.93089 0.48129 0.51856 0.0
H1171 H 0.87322 0.43861 0.36362 0.0
H1172 H 0.89802 0.44563 0.41046 0.0
H1173 H 0.8862 0.48135 0.52036 0.0
H1174 H 0.96108 0.51574 0.61598 0.0
H1175 H 0.93618 0.50913 0.56863 0.0
loop_
_geom_bond_atom_site_label_1
_geom_bond_atom_site_label_2
_geom_bond_distance
_geom_bond_site_symmetry_2
_ccdc_geom_bond_type
C0 C1 1.264 . S
C0 C5 1.479 . S
C0 C10 1.465 . S
C1 C0 1.264 . S
C1 C3 1.339 . S
C1 H28 0.931 . S
C2 C3 1.395 . S
C2 C4 1.320 . S
C3 C1 1.339 . S
C3 C2 1.395 . S
C3 H29 0.929 . S
C4 C2 1.320 . S
C4 C5 1.405 . S
C4 H30 0.930 . S
C5 C0 1.479 . S
C5 C4 1.405 . S
C5 H31 0.931 . S
U6 O7 2.454 . S
U6 O8 2.458 . S
U6 C9 2.984 . S
U6 C10 2.847 . S
U6 C23 2.882 . S
U6 O24 2.441 . S
U6 O25 2.420 . S
U6 O26 2.455 . S
U6 O27 2.449 . S
O7 U6 2.454 . S
O7 C9 1.353 . S
O8 U6 2.458 . S
O8 C9 1.286 . S
C9 U6 2.984 . S
C9 O7 1.353 . S
C9 O8 1.286 . S
C9 C11 1.363 . S
C10 C0 1.465 . S
C10 U6 2.847 . S
C10 O24 1.249 . S
C10 O25 1.202 . S
C11 C9 1.363 . S
C11 C13 1.408 . S
C11 C16 1.342 . S
C12 C13 1.310 . S
C12 C15 1.461 . S
C12 H32 0.932 . S
C13 C11 1.408 . S
C13 C12 1.310 . S
C13 H33 0.930 . S
C14 C15 1.474 . S
C14 C16 1.285 . S
C14 H34 0.929 1_554 S
C15 C12 1.461 . S
C15 C14 1.474 . S
C16 C11 1.342 . S
C16 C14 1.285 . S
C16 H35 0.930 . S
C17 C20 1.424 . S
C17 C22 1.245 1_554 S
C17 C23 1.428 . S
C18 C21 1.260 . S
C18 C22 1.477 . S
C18 H36 0.932 . S
C19 C20 1.384 1_556 S
C19 C21 1.479 . S
C19 H37 0.929 1_556 S
C20 C17 1.424 . S
C20 C19 1.384 1_554 S
C20 H38 0.928 . S
C21 C18 1.260 . S
C21 C19 1.479 . S
C22 C17 1.245 1_556 S
C22 C18 1.477 . S
C22 H39 0.932 . S
C23 U6 2.882 . S
C23 C17 1.428 . S
C23 O26 1.301 . S
C23 O27 1.282 . S
O24 U6 2.441 . S
O24 C10 1.249 . S
O25 U6 2.420 . S
O25 C10 1.202 . S
O26 U6 2.455 . S
O26 C23 1.301 . S
O27 U6 2.449 . S
O27 C23 1.282 . S
H28 C1 0.931 . S
H29 C3 0.929 . S
H30 C4 0.930 . S
H31 C5 0.931 . S
H32 C12 0.932 . S
H33 C13 0.930 . S
H34 C14 0.929 1_556 S
H35 C16 0.930 . S
H36 C18 0.932 . S
H37 C19 0.929 1_554 S
H38 C20 0.928 . S
H39 C22 0.932 . S
C40 C41 1.264 . S
C40 C45 1.479 . S
C40 C50 1.465 . S
C41 C40 1.264 . S
C41 C43 1.339 . S
C41 H68 0.931 . S
C42 C43 1.395 . S
C42 C44 1.320 . S
C43 C41 1.339 . S
C43 C42 1.395 . S
C43 H69 0.929 . S
C44 C42 1.320 . S
C44 C45 1.405 . S
C44 H70 0.930 . S
C45 C40 1.479 . S
C45 C44 1.405 . S
C45 H71 0.931 . S
U46 O47 2.454 . S
U46 O48 2.458 1_554 S
U46 C49 2.984 1_554 S
U46 C50 2.847 . S
U46 C63 2.882 1_554 S
U46 O64 2.441 . S
U46 O65 2.420 . S
U46 O66 2.455 1_554 S
U46 O67 2.449 1_554 S
O47 U46 2.454 . S
O47 C49 1.353 1_554 S
O48 U46 2.458 1_556 S
O48 C49 1.286 . S
C49 U46 2.984 1_556 S
C49 O47 1.353 1_556 S
C49 O48 1.286 . S
C49 C51 1.363 . S
C50 C40 1.465 . S
C50 U46 2.847 . S
C50 O64 1.249 . S
C50 O65 1.202 . S
C51 C49 1.363 . S
C51 C53 1.408 1_556 S
C51 C56 1.342 . S
C52 C53 1.310 1_556 S
C52 C55 1.461 . S
C52 H72 0.932 1_556 S
C53 C51 1.408 1_554 S
C53 C52 1.310 1_554 S
C53 H73 0.930 . S
C54 C55 1.474 . S
C54 C56 1.285 . S
C54 H74 0.929 . S
C55 C52 1.461 . S
C55 C54 1.474 . S
C56 C51 1.342 . S
C56 C54 1.285 . S
C56 H75 0.930 . S
C57 C60 1.424 . S
C57 C62 1.245 . S
C57 C63 1.428 . S
C58 C61 1.260 . S
C58 C62 1.477 . S
C58 H76 0.932 . S
C59 C60 1.384 . S
C59 C61 1.479 . S
C59 H77 0.929 . S
C60 C57 1.424 . S
C60 C59 1.384 . S
C60 H78 0.928 . S
C61 C58 1.260 . S
C61 C59 1.479 . S
C62 C57 1.245 . S
C62 C58 1.477 . S
C62 H79 0.932 . S
C63 U46 2.882 1_556 S
C63 C57 1.428 . S
C63 O66 1.301 . S
C63 O67 1.282 . S
O64 U46 2.441 . S
O64 C50 1.249 . S
O65 U46 2.420 . S
O65 C50 1.202 . S
O66 U46 2.455 1_556 S
O66 C63 1.301 . S
O67 U46 2.449 1_556 S
O67 C63 1.282 . S
H68 C41 0.931 . S
H69 C43 0.929 . S
H70 C44 0.930 . S
H71 C45 0.931 . S
H72 C52 0.932 1_554 S
H73 C53 0.930 . S
H74 C54 0.929 . S
H75 C56 0.930 . S
H76 C58 0.932 . S
H77 C59 0.929 . S
H78 C60 0.928 . S
H79 C62 0.932 . S
C80 C81 1.264 . S
C80 C85 1.479 . S
C80 C90 1.465 . S
C81 C80 1.264 . S
C81 C83 1.339 . S
C81 H108 0.931 . S
C82 C83 1.395 . S
C82 C84 1.320 . S
C83 C81 1.339 . S
C83 C82 1.395 . S
C83 H109 0.929 . S
C84 C82 1.320 . S
C84 C85 1.405 . S
C84 H110 0.921 1_545 S
C85 C80 1.479 . S
C85 C84 1.405 . S
C85 H111 0.931 . S
U86 O87 2.454 . S
U86 O88 2.458 . S
U86 C89 2.984 . S
U86 C90 2.847 . S
U86 C103 2.882 . S
U86 O104 2.441 . S
U86 O105 2.420 . S
U86 O106 2.455 1_554 S
U86 O107 2.449 . S
O87 U86 2.454 . S
O87 C89 1.353 . S
O88 U86 2.458 . S
O88 C89 1.286 . S
C89 U86 2.984 . S
C89 O87 1.353 . S
C89 O88 1.286 . S
C89 C91 1.363 . S
C90 C80 1.465 . S
C90 U86 2.847 . S
C90 O104 1.249 . S
C90 O105 1.202 . S
C91 C89 1.363 . S
C91 C93 1.408 . S
C91 C96 1.342 1_554 S
C92 C93 1.310 . S
C92 C95 1.461 . S
C92 H112 0.936 . S
C93 C91 1.408 . S
C93 C92 1.310 . S
C93 H113 0.930 . S
C94 C95 1.474 1_566 S
C94 C96 1.284 1_565 S
C94 H114 0.931 . S
C95 C92 1.461 . S
C95 C94 1.474 1_544 S
C96 C91 1.342 1_556 S
C96 C94 1.284 1_545 S
C96 H115 0.932 . S
C97 C100 1.424 . S
C97 C102 1.245 . S
C97 C103 1.428 1_556 S
C98 C101 1.260 . S
C98 C102 1.477 . S
C98 H116 0.932 . S
C99 C100 1.384 . S
C99 C101 1.479 . S
C99 H117 0.929 . S
C100 C97 1.424 . S
C100 C99 1.384 . S
C100 H118 0.928 1_556 S
C101 C98 1.260 . S
C101 C99 1.479 . S
C102 C97 1.245 . S
C102 C98 1.477 . S
C102 H119 0.932 . S
C103 U86 2.882 . S
C103 C97 1.428 1_554 S
C103 O106 1.301 1_554 S
C103 O107 1.282 . S
O104 U86 2.441 . S
O104 C90 1.249 . S
O105 U86 2.420 . S
O105 C90 1.202 . S
O106 U86 2.455 1_556 S
O106 C103 1.301 1_556 S
O107 U86 2.449 . S
O107 C103 1.282 . S
H108 C81 0.931 . S
H109 C83 0.929 . S
H110 C84 0.921 1_565 S
H111 C85 0.931 . S
H112 C92 0.936 . S
H113 C93 0.930 . S
H114 C94 0.931 . S
H115 C96 0.932 . S
H116 C98 0.932 . S
H117 C99 0.929 . S
H118 C100 0.928 1_554 S
H119 C102 0.932 . S
C120 C121 1.264 . S
C120 C125 1.479 . S
C120 C130 1.465 . S
C121 C120 1.264 . S
C121 C123 1.339 . S
C121 H148 0.931 . S
C122 C123 1.395 . S
C122 C124 1.320 . S
C123 C121 1.339 . S
C123 C122 1.395 . S
C123 H149 0.929 . S
C124 C122 1.320 . S
C124 C125 1.405 . S
C124 H150 0.930 . S
C125 C120 1.479 . S
C125 C124 1.405 . S
C125 H151 0.931 . S
U126 O127 2.454 . S
U126 O128 2.458 . S
U126 C129 2.984 . S
U126 C130 2.847 . S
U126 C143 2.882 . S
U126 O144 2.441 . S
U126 O145 2.420 . S
U126 O146 2.455 . S
U126 O147 2.449 . S
O127 U126 2.454 . S
O127 C129 1.353 . S
O128 U126 2.458 . S
O128 C129 1.286 . S
C129 U126 2.984 . S
C129 O127 1.353 . S
C129 O128 1.286 . S
C129 C131 1.363 . S
C130 C120 1.465 . S
C130 U126 2.847 . S
C130 O144 1.249 . S
C130 O145 1.202 . S
C131 C129 1.363 . S
C131 C133 1.408 . S
C131 C136 1.320 1_554 S
C132 C133 1.310 . S
C132 C135 1.461 . S
C132 H152 0.932 . S
C133 C131 1.408 . S
C133 C132 1.310 . S
C133 H153 0.930 . S
C134 C135 1.474 1_556 S
C134 C136 1.292 . S
C134 H154 0.929 . S
C135 C132 1.461 . S
C135 C134 1.474 1_554 S
C136 C131 1.320 1_556 S
C136 C134 1.292 . S
C136 H155 0.946 . S
C137 C140 1.424 . S
C137 C142 1.245 . S
C137 C143 1.428 1_556 S
C138 C141 1.260 . S
C138 C142 1.477 . S
C138 H156 0.932 . S
C139 C140 1.384 . S
C139 C141 1.479 . S
C139 H157 0.929 . S
C140 C137 1.424 . S
C140 C139 1.384 . S
C140 H158 0.928 1_556 S
C141 C138 1.260 . S
C141 C139 1.479 . S
C142 C137 1.245 . S
C142 C138 1.477 . S
C142 H159 0.932 . S
C143 U126 2.882 . S
C143 C137 1.428 1_554 S
C143 O146 1.301 . S
C143 O147 1.282 . S
O144 U126 2.441 . S
O144 C130 1.249 . S
O145 U126 2.420 . S
O145 C130 1.202 . S
O146 U126 2.455 . S
O146 C143 1.301 . S
O147 U126 2.449 . S
O147 C143 1.282 . S
H148 C121 0.931 . S
H149 C123 0.929 . S
H150 C124 0.930 . S
H151 C125 0.931 . S
H152 C132 0.932 . S
H153 C133 0.930 . S
H154 C134 0.929 . S
H155 C136 0.946 . S
H156 C138 0.932 . S
H157 C139 0.929 . S
H158 C140 0.928 1_554 S
H159 C142 0.932 . S
C160 C161 1.264 . S
C160 C165 1.479 . S
C160 C170 1.465 . S
C161 C160 1.264 . S
C161 C163 1.339 . S
C161 H188 0.931 . S
C162 C163 1.395 . S
C162 C164 1.320 . S
C163 C161 1.339 . S
C163 C162 1.395 . S
C163 H189 0.929 . S
C164 C162 1.320 . S
C164 C165 1.405 . S
C164 H190 0.930 . S
C165 C160 1.479 . S
C165 C164 1.405 . S
C165 H191 0.931 . S
U166 O167 2.454 . S
U166 O168 2.458 . S
U166 C169 2.984 . S
U166 C170 2.847 . S
U166 C183 2.882 . S
U166 O184 2.441 . S
U166 O185 2.420 . S
U166 O186 2.455 . S
U166 O187 2.449 . S
O167 U166 2.454 . S
O167 C169 1.353 . S
O168 U166 2.458 . S
O168 C169 1.286 . S
C169 U166 2.984 . S
C169 O167 1.353 . S
C169 O168 1.286 . S
C169 C171 1.363 . S
C170 C160 1.465 . S
C170 U166 2.847 . S
C170 O184 1.249 . S
C170 O185 1.202 . S
C171 C169 1.363 . S
C171 C173 1.408 . S
C171 C176 1.342 . S
C172 C173 1.310 . S
C172 C175 1.461 . S
C172 H192 0.932 . S
C173 C171 1.408 . S
C173 C172 1.310 . S
C173 H193 0.930 . S
C174 C175 1.474 . S
C174 C176 1.285 . S
C174 H194 0.929 . S
C175 C172 1.461 . S
C175 C174 1.474 . S
C176 C171 1.342 . S
C176 C174 1.285 . S
C176 H195 0.930 . S
C177 C180 1.424 . S
C177 C182 1.245 . S
C177 C183 1.428 . S
C178 C181 1.260 . S
C178 C182 1.477 . S
C178 H196 0.932 . S
C179 C180 1.384 . S
C179 C181 1.479 . S
C179 H197 0.929 . S
C180 C177 1.424 . S
C180 C179 1.384 . S
C180 H198 0.928 . S
C181 C178 1.260 . S
C181 C179 1.479 . S
C182 C177 1.245 . S
C182 C178 1.477 . S
C182 H199 0.932 . S
C183 U166 2.882 . S
C183 C177 1.428 . S
C183 O186 1.301 . S
C183 O187 1.282 . S
O184 U166 2.441 . S
O184 C170 1.249 . S
O185 U166 2.420 . S
O185 C170 1.202 . S
O186 U166 2.455 . S
O186 C183 1.301 . S
O187 U166 2.449 . S
O187 C183 1.282 . S
H188 C161 0.931 . S
H189 C163 0.929 . S
H190 C164 0.930 . S
H191 C165 0.931 . S
H192 C172 0.932 . S
H193 C173 0.930 . S
H194 C174 0.929 . S
H195 C176 0.930 . S
H196 C178 0.932 . S
H197 C179 0.929 . S
H198 C180 0.928 . S
H199 C182 0.932 . S
C200 C201 1.264 . S
C200 C205 1.479 . S
C200 C210 1.465 . S
C201 C200 1.264 . S
C201 C203 1.339 . S
C201 H228 0.931 . S
C202 C203 1.395 . S
C202 C204 1.320 . S
C203 C201 1.339 . S
C203 C202 1.395 . S
C203 H229 0.929 . S
C204 C202 1.320 . S
C204 C205 1.405 . S
C204 H230 0.930 . S
C205 C200 1.479 . S
C205 C204 1.405 . S
C205 H231 0.931 . S
U206 O207 2.454 . S
U206 O208 2.458 . S
U206 C209 2.984 . S
U206 C210 2.847 . S
U206 C223 2.882 . S
U206 O224 2.441 . S
U206 O225 2.420 . S
U206 O226 2.455 . S
U206 O227 2.449 . S
O207 U206 2.454 . S
O207 C209 1.353 . S
O208 U206 2.458 . S
O208 C209 1.286 . S
C209 U206 2.984 . S
C209 O207 1.353 . S
C209 O208 1.286 . S
C209 C211 1.363 . S
C210 C200 1.465 . S
C210 U206 2.847 . S
C210 O224 1.249 . S
C210 O225 1.202 . S
C211 C209 1.363 . S
C211 C213 1.408 . S
C211 C216 1.342 . S
C212 C213 1.310 . S
C212 C215 1.461 . S
C212 H232 0.932 . S
C213 C211 1.408 . S
C213 C212 1.310 . S
C213 H233 0.930 . S
C214 C215 1.474 . S
C214 C216 1.285 . S
C214 H234 0.929 . S
C215 C212 1.461 . S
C215 C214 1.474 . S
C216 C211 1.342 . S
C216 C214 1.285 . S
C216 H235 0.930 . S
C217 C220 1.424 . S
C217 C222 1.245 . S
C217 C223 1.428 . S
C218 C221 1.260 . S
C218 C222 1.477 . S
C218 H236 0.932 . S
C219 C220 1.384 . S
C219 C221 1.479 . S
C219 H237 0.929 . S
C220 C217 1.424 . S
C220 C219 1.384 . S
C220 H238 0.928 . S
C221 C218 1.260 . S
C221 C219 1.479 . S
C222 C217 1.245 . S
C222 C218 1.477 . S
C222 H239 0.932 . S
C223 U206 2.882 . S
C223 C217 1.428 . S
C223 O226 1.301 . S
C223 O227 1.282 . S
O224 U206 2.441 . S
O224 C210 1.249 . S
O225 U206 2.420 . S
O225 C210 1.202 . S
O226 U206 2.455 . S
O226 C223 1.301 . S
O227 U206 2.449 . S
O227 C223 1.282 . S
H228 C201 0.931 . S
H229 C203 0.929 . S
H230 C204 0.930 . S
H231 C205 0.931 . S
H232 C212 0.932 . S
H233 C213 0.930 . S
H234 C214 0.929 . S
H235 C216 0.930 . S
H236 C218 0.932 . S
H237 C219 0.929 . S
H238 C220 0.928 . S
H239 C222 0.932 . S
C240 C241 1.264 . S
C240 C245 1.479 . S
C240 C250 1.465 . S
C241 C240 1.264 . S
C241 C243 1.339 . S
C241 H268 0.931 . S
C242 C243 1.395 . S
C242 C244 1.320 . S
C243 C241 1.339 . S
C243 C242 1.395 . S
C243 H269 0.929 . S
C244 C242 1.320 . S
C244 C245 1.405 . S
C244 H270 0.923 1_545 S
C245 C240 1.479 . S
C245 C244 1.405 . S
C245 H271 0.931 . S
U246 O247 2.454 . S
U246 O248 2.458 . S
U246 C249 2.984 . S
U246 C250 2.847 . S
U246 C263 2.882 . S
U246 O264 2.441 . S
U246 O265 2.420 . S
U246 O266 2.455 . S
U246 O267 2.449 . S
O247 U246 2.454 . S
O247 C249 1.353 . S
O248 U246 2.458 . S
O248 C249 1.286 . S
C249 U246 2.984 . S
C249 O247 1.353 . S
C249 O248 1.286 . S
C249 C251 1.363 . S
C250 C240 1.465 . S
C250 U246 2.847 . S
C250 O264 1.249 . S
C250 O265 1.202 . S
C251 C249 1.363 . S
C251 C253 1.408 . S
C251 C256 1.342 . S
C252 C253 1.310 . S
C252 C255 1.461 . S
C252 H272 0.932 . S
C253 C251 1.408 . S
C253 C252 1.310 . S
C253 H273 0.930 . S
C254 C255 1.474 1_565 S
C254 C256 1.286 1_565 S
C254 H274 0.929 . S
C255 C252 1.461 . S
C255 C254 1.474 1_545 S
C256 C251 1.342 . S
C256 C254 1.286 1_545 S
C256 H275 0.933 . S
C257 C260 1.424 . S
C257 C262 1.245 . S
C257 C263 1.428 . S
C258 C261 1.260 . S
C258 C262 1.477 . S
C258 H276 0.932 . S
C259 C260 1.384 . S
C259 C261 1.479 . S
C259 H277 0.929 . S
C260 C257 1.424 . S
C260 C259 1.384 . S
C260 H278 0.928 . S
C261 C258 1.260 . S
C261 C259 1.479 . S
C262 C257 1.245 . S
C262 C258 1.477 . S
C262 H279 0.932 . S
C263 U246 2.882 . S
C263 C257 1.428 . S
C263 O266 1.301 . S
C263 O267 1.282 . S
O264 U246 2.441 . S
O264 C250 1.249 . S
O265 U246 2.420 . S
O265 C250 1.202 . S
O266 U246 2.455 . S
O266 C263 1.301 . S
O267 U246 2.449 . S
O267 C263 1.282 . S
H268 C241 0.931 . S
H269 C243 0.929 . S
H270 C244 0.923 1_565 S
H271 C245 0.931 . S
H272 C252 0.932 . S
H273 C253 0.930 . S
H274 C254 0.929 . S
H275 C256 0.933 . S
H276 C258 0.932 . S
H277 C259 0.929 . S
H278 C260 0.928 . S
H279 C262 0.932 . S
C280 C281 1.264 . S
C280 C285 1.479 . S
C280 C290 1.465 . S
C281 C280 1.264 . S
C281 C283 1.339 . S
C281 H308 0.931 . S
C282 C283 1.395 . S
C282 C284 1.320 . S
C283 C281 1.339 . S
C283 C282 1.395 . S
C283 H309 0.929 . S
C284 C282 1.320 . S
C284 C285 1.405 . S
C284 H310 0.930 . S
C285 C280 1.479 . S
C285 C284 1.405 . S
C285 H311 0.931 . S
U286 O287 2.454 . S
U286 O288 2.458 . S
U286 C289 2.984 . S
U286 C290 2.847 . S
U286 C303 2.882 . S
U286 O304 2.441 . S
U286 O305 2.420 . S
U286 O306 2.455 . S
U286 O307 2.449 . S
O287 U286 2.454 . S
O287 C289 1.353 . S
O288 U286 2.458 . S
O288 C289 1.286 . S
C289 U286 2.984 . S
C289 O287 1.353 . S
C289 O288 1.286 . S
C289 C291 1.363 . S
C290 C280 1.465 . S
C290 U286 2.847 . S
C290 O304 1.249 . S
C290 O305 1.202 . S
C291 C289 1.363 . S
C291 C293 1.408 . S
C291 C296 1.342 . S
C292 C293 1.310 . S
C292 C295 1.461 . S
C292 H312 0.932 . S
C293 C291 1.408 . S
C293 C292 1.310 . S
C293 H313 0.930 . S
C294 C295 1.474 . S
C294 C296 1.285 . S
C294 H314 0.929 . S
C295 C292 1.461 . S
C295 C294 1.474 . S
C296 C291 1.342 . S
C296 C294 1.285 . S
C296 H315 0.930 . S
C297 C300 1.424 . S
C297 C302 1.245 . S
C297 C303 1.428 . S
C298 C301 1.260 . S
C298 C302 1.477 . S
C298 H316 0.932 . S
C299 C300 1.384 . S
C299 C301 1.479 . S
C299 H317 0.929 . S
C300 C297 1.424 . S
C300 C299 1.384 . S
C300 H318 0.928 . S
C301 C298 1.260 . S
C301 C299 1.479 . S
C302 C297 1.245 . S
C302 C298 1.477 . S
C302 H319 0.932 . S
C303 U286 2.882 . S
C303 C297 1.428 . S
C303 O306 1.301 . S
C303 O307 1.282 . S
O304 U286 2.441 . S
O304 C290 1.249 . S
O305 U286 2.420 . S
O305 C290 1.202 . S
O306 U286 2.455 . S
O306 C303 1.301 . S
O307 U286 2.449 . S
O307 C303 1.282 . S
H308 C281 0.931 . S
H309 C283 0.929 . S
H310 C284 0.930 . S
H311 C285 0.931 . S
H312 C292 0.932 . S
H313 C293 0.930 . S
H314 C294 0.929 . S
H315 C296 0.930 . S
H316 C298 0.932 . S
H317 C299 0.929 . S
H318 C300 0.928 . S
H319 C302 0.932 . S
C320 O336 1.251 . S
C320 O338 1.254 . S
N321 C322 1.333 . S
N321 C326 1.307 1_455 S
N321 Zn327 2.020 . S
C322 N321 1.333 . S
C322 C323 1.397 . S
C322 H340 0.952 . S
C323 C322 1.397 . S
C323 C324 1.362 1_455 S
C323 H350 0.963 . S
C324 C323 1.362 1_655 S
C324 C325 1.357 . S
C325 C324 1.357 . S
C325 C326 1.370 . S
C325 H351 0.950 . S
C326 N321 1.307 1_655 S
C326 C325 1.370 . S
C326 H344 0.948 . S
Zn327 N321 2.020 . S
Zn327 O336 2.039 . S
Zn327 O342 2.034 . S
Zn327 O346 2.025 1_565 S
Zn327 O348 2.024 1_455 S
C328 O347 1.290 . S
C328 O348 1.249 1_545 S
N329 C330 1.307 . S
N329 C331 1.333 . S
N329 Zn335 2.020 . S
C330 N329 1.307 . S
C330 C334 1.370 . S
C330 H341 0.948 . S
C331 N329 1.333 . S
C331 C332 1.379 . S
C331 H339 0.952 . S
C332 C331 1.379 . S
C332 C333 1.390 . S
C332 H352 0.949 . S
C333 C332 1.390 . S
C333 C334 1.357 . S
C334 C330 1.370 . S
C334 C333 1.357 . S
C334 H353 0.950 . S
Zn335 N329 2.020 . S
Zn335 O338 2.025 1_545 S
Zn335 O343 2.024 . S
Zn335 O345 2.039 . S
Zn335 O347 1.977 1_455 S
O336 C320 1.251 . S
O336 Zn327 2.039 . S
C337 O342 1.246 . S
C337 O343 1.249 1_565 S
O338 C320 1.254 . S
O338 Zn335 2.025 1_565 S
H339 C331 0.952 . S
H340 C322 0.952 . S
H341 C330 0.948 . S
O342 Zn327 2.034 . S
O342 C337 1.246 . S
O343 Zn335 2.024 . S
O343 C337 1.249 1_545 S
H344 C326 0.948 . S
O345 Zn335 2.039 . S
O345 C349 1.251 . S
O346 Zn327 2.025 1_545 S
O346 C349 1.254 . S
O347 C328 1.290 . S
O347 Zn335 1.977 1_655 S
O348 Zn327 2.024 1_655 S
O348 C328 1.249 1_565 S
C349 O345 1.251 . S
C349 O346 1.254 . S
H350 C323 0.963 . S
H351 C325 0.950 . S
H352 C332 0.949 . S
H353 C334 0.950 . S
C354 O370 1.251 1_565 S
C354 O372 1.254 . S
N355 C356 1.333 . S
N355 C360 1.307 . S
N355 Zn361 2.020 . S
C356 N355 1.333 . S
C356 C357 1.379 . S
C356 H374 0.952 . S
C357 C356 1.379 . S
C357 C358 1.390 . S
C357 H384 0.949 . S
C358 C357 1.390 . S
C358 C359 1.357 . S
C359 C358 1.357 . S
C359 C360 1.370 . S
C359 H385 0.950 . S
C360 N355 1.307 . S
C360 C359 1.370 . S
C360 H378 0.948 . S
Zn361 N355 2.020 . S
Zn361 O370 2.039 . S
Zn361 O376 2.034 . S
Zn361 O380 2.025 . S
Zn361 O382 2.024 . S
C362 O381 1.246 1_545 S
C362 O382 1.249 . S
N363 C364 1.307 . S
N363 C365 1.333 . S
N363 Zn369 2.020 . S
C364 N363 1.307 . S
C364 C368 1.370 . S
C364 H375 0.948 . S
C365 N363 1.333 . S
C365 C366 1.379 . S
C365 H373 0.952 . S
C366 C365 1.379 . S
C366 C367 1.390 . S
C366 H386 0.949 . S
C367 C366 1.390 . S
C367 C368 1.357 . S
C368 C364 1.370 . S
C368 C367 1.357 . S
C368 H387 0.950 . S
Zn369 N363 2.020 . S
Zn369 O372 2.025 . S
Zn369 O377 2.024 . S
Zn369 O379 2.039 . S
Zn369 O381 2.034 . S
O370 C354 1.251 1_545 S
O370 Zn361 2.039 . S
C371 O376 1.246 1_565 S
C371 O377 1.249 . S
O372 C354 1.254 . S
O372 Zn369 2.025 . S
H373 C365 0.952 . S
H374 C356 0.952 . S
H375 C364 0.948 . S
O376 Zn361 2.034 . S
O376 C371 1.246 1_545 S
O377 Zn369 2.024 . S
O377 C371 1.249 . S
H378 C360 0.948 . S
O379 Zn369 2.039 . S
O379 C383 1.251 1_565 S
O380 Zn361 2.025 . S
O380 C383 1.254 . S
O381 C362 1.246 1_565 S
O381 Zn369 2.034 . S
O382 Zn361 2.024 . S
O382 C362 1.249 . S
C383 O379 1.251 1_545 S
C383 O380 1.254 . S
H384 C357 0.949 . S
H385 C359 0.950 . S
H386 C366 0.949 . S
H387 C368 0.950 . S
C388 O404 1.251 . S
C388 O406 1.254 . S
N389 C390 1.333 . S
N389 C394 1.307 . S
N389 Zn395 2.020 . S
C390 N389 1.333 . S
C390 C391 1.379 . S
C390 H408 0.952 . S
C391 C390 1.379 . S
C391 C392 1.390 . S
C391 H418 0.949 . S
C392 C391 1.390 . S
C392 C393 1.357 . S
C393 C392 1.357 . S
C393 C394 1.370 . S
C393 H419 0.950 . S
C394 N389 1.307 . S
C394 C393 1.370 . S
C394 H412 0.948 . S
Zn395 N389 2.020 . S
Zn395 O404 2.039 . S
Zn395 O410 2.034 . S
Zn395 O414 2.025 . S
Zn395 O416 2.024 . S
C396 O415 1.246 . S
C396 O416 1.249 . S
N397 C398 1.307 . S
N397 C399 1.333 . S
N397 Zn403 2.020 . S
C398 N397 1.307 . S
C398 C402 1.370 . S
C398 H409 0.948 . S
C399 N397 1.333 . S
C399 C400 1.379 . S
C399 H407 0.952 . S
C400 C399 1.379 . S
C400 C401 1.390 . S
C400 H420 0.949 . S
C401 C400 1.390 . S
C401 C402 1.357 . S
C402 C398 1.370 . S
C402 C401 1.357 . S
C402 H421 0.950 . S
Zn403 N397 2.020 . S
Zn403 O406 2.025 . S
Zn403 O411 2.024 . S
Zn403 O413 2.039 . S
Zn403 O415 2.034 . S
O404 C388 1.251 . S
O404 Zn395 2.039 . S
C405 O410 1.246 . S
C405 O411 1.249 . S
O406 C388 1.254 . S
O406 Zn403 2.025 . S
H407 C399 0.952 . S
H408 C390 0.952 . S
H409 C398 0.948 . S
O410 Zn395 2.034 . S
O410 C405 1.246 . S
O411 Zn403 2.024 . S
O411 C405 1.249 . S
H412 C394 0.948 . S
O413 Zn403 2.039 . S
O413 C417 1.251 . S
O414 Zn395 2.025 . S
O414 C417 1.254 . S
O415 C396 1.246 . S
O415 Zn403 2.034 . S
O416 Zn395 2.024 . S
O416 C396 1.249 . S
C417 O413 1.251 . S
C417 O414 1.254 . S
H418 C391 0.949 . S
H419 C393 0.950 . S
H420 C400 0.949 . S
H421 C402 0.950 . S
C422 O438 1.251 . S
C422 O440 1.254 . S
N423 C424 1.333 . S
N423 C428 1.307 . S
N423 Zn429 2.020 . S
C424 N423 1.333 . S
C424 C425 1.379 . S
C424 H442 0.952 . S
C425 C424 1.379 . S
C425 C426 1.390 . S
C425 H452 0.949 . S
C426 C425 1.390 . S
C426 C427 1.357 . S
C427 C426 1.357 . S
C427 C428 1.370 . S
C427 H453 0.950 . S
C428 N423 1.307 . S
C428 C427 1.370 . S
C428 H446 0.948 . S
Zn429 N423 2.020 . S
Zn429 O438 2.039 . S
Zn429 O444 2.034 . S
Zn429 O448 2.025 . S
Zn429 O450 2.024 . S
C430 O449 1.246 . S
C430 O450 1.249 . S
N431 C432 1.307 . S
N431 C433 1.351 . S
N431 Zn437 2.020 . S
C432 N431 1.307 . S
C432 C436 1.370 . S
C432 H443 0.948 . S
C433 N431 1.351 . S
C433 C434 1.369 1_455 S
C433 H441 0.945 1_455 S
C434 C433 1.369 1_655 S
C434 C435 1.397 . S
C434 H454 0.949 . S
C435 C434 1.397 . S
C435 C436 1.341 1_655 S
C436 C432 1.370 . S
C436 C435 1.341 1_455 S
C436 H455 0.950 . S
Zn437 N431 2.020 . S
Zn437 O440 2.025 . S
Zn437 O445 2.024 1_455 S
Zn437 O447 2.039 1_455 S
Zn437 O449 2.034 . S
O438 C422 1.251 . S
O438 Zn429 2.039 . S
C439 O444 1.246 1_655 S
C439 O445 1.249 . S
O440 C422 1.254 . S
O440 Zn437 2.025 . S
H441 C433 0.945 1_655 S
H442 C424 0.952 . S
H443 C432 0.948 . S
O444 Zn429 2.034 . S
O444 C439 1.246 1_455 S
O445 Zn437 2.024 1_655 S
O445 C439 1.249 . S
H446 C428 0.948 . S
O447 Zn437 2.039 1_655 S
O447 C451 1.251 . S
O448 Zn429 2.025 . S
O448 C451 1.254 1_455 S
O449 C430 1.246 . S
O449 Zn437 2.034 . S
O450 Zn429 2.024 . S
O450 C430 1.249 . S
C451 O447 1.251 . S
C451 O448 1.254 1_655 S
H452 C425 0.949 . S
H453 C427 0.950 . S
H454 C434 0.949 . S
H455 C436 0.950 . S
C456 C457 1.366 . S
C456 C458 1.327 . S
C456 H481 0.950 . S
C457 C456 1.366 . S
C457 C473 1.331 1_565 S
C458 C456 1.327 . S
C458 C477 1.429 . S
C458 H482 0.950 . S
C459 C476 1.574 . S
C459 C478 1.368 1_545 S
C459 H483 0.949 . S
H460 C464 0.949 . S
C461 C462 1.349 1_545 S
C461 C463 1.327 . S
C461 H484 0.950 . S
C462 C461 1.349 1_565 S
C462 C474 1.349 . S
C463 C461 1.327 . S
C463 C479 1.429 1_545 S
C463 H485 0.950 . S
C464 H460 0.949 . S
C464 C472 1.574 . S
C464 C480 1.368 . S
H465 C473 0.950 . S
H466 C471 0.950 . S
H467 C472 0.949 . S
H468 C474 0.950 . S
H469 C475 0.950 . S
H470 C476 0.949 . S
C471 H466 0.950 . S
C471 C473 1.327 . S
C471 C477 1.429 1_545 S
C472 C464 1.574 . S
C472 H467 0.949 . S
C472 C478 1.368 . S
C473 C457 1.331 1_545 S
C473 H465 0.950 . S
C473 C471 1.327 . S
C474 C462 1.349 . S
C474 H468 0.950 . S
C474 C475 1.327 . S
C475 H469 0.950 . S
C475 C474 1.327 . S
C475 C479 1.429 . S
C476 C459 1.574 . S
C476 H470 0.949 . S
C476 C480 1.368 1_545 S
C477 C458 1.429 . S
C477 C471 1.429 1_565 S
C477 C478 1.523 . S
C478 C459 1.368 1_565 S
C478 C472 1.368 . S
C478 C477 1.523 . S
C479 C463 1.429 1_565 S
C479 C475 1.429 . S
C479 C480 1.523 . S
C480 C464 1.368 . S
C480 C476 1.368 1_565 S
C480 C479 1.523 . S
H481 C456 0.950 . S
H482 C458 0.950 . S
H483 C459 0.949 . S
H484 C461 0.950 . S
H485 C463 0.950 . S
C486 C487 1.349 . S
C486 C488 1.327 . S
C486 H511 0.950 . S
C487 C486 1.349 . S
C487 C503 1.349 . S
C488 C486 1.327 . S
C488 C507 1.429 . S
C488 H512 0.950 . S
C489 C506 1.574 . S
C489 C508 1.368 . S
C489 H513 0.949 . S
H490 C494 0.949 . S
C491 C492 1.349 . S
C491 C493 1.327 . S
C491 H514 0.950 . S
C492 C491 1.349 . S
C492 C504 1.349 . S
C493 C491 1.327 . S
C493 C509 1.429 . S
C493 H515 0.950 . S
C494 H490 0.949 . S
C494 C502 1.574 . S
C494 C510 1.368 . S
H495 C503 0.950 . S
H496 C501 0.950 . S
H497 C502 0.949 . S
H498 C504 0.950 . S
H499 C505 0.950 . S
H500 C506 0.949 . S
C501 H496 0.950 . S
C501 C503 1.327 . S
C501 C507 1.429 . S
C502 C494 1.574 . S
C502 H497 0.949 . S
C502 C508 1.368 . S
C503 C487 1.349 . S
C503 H495 0.950 . S
C503 C501 1.327 . S
C504 C492 1.349 . S
C504 H498 0.950 . S
C504 C505 1.327 . S
C505 H499 0.950 . S
C505 C504 1.327 . S
C505 C509 1.429 . S
C506 C489 1.574 . S
C506 H500 0.949 . S
C506 C510 1.368 . S
C507 C488 1.429 . S
C507 C501 1.429 . S
C507 C508 1.523 . S
C508 C489 1.368 . S
C508 C502 1.368 . S
C508 C507 1.523 . S
C509 C493 1.429 . S
C509 C505 1.429 . S
C509 C510 1.523 . S
C510 C494 1.368 . S
C510 C506 1.368 . S
C510 C509 1.523 . S
H511 C486 0.950 . S
H512 C488 0.950 . S
H513 C489 0.949 . S
H514 C491 0.950 . S
H515 C493 0.950 . S
C516 C517 1.349 . S
C516 C518 1.327 . S
C516 H541 0.950 . S
C517 C516 1.349 . S
C517 C533 1.349 . S
C518 C516 1.327 . S
C518 C537 1.429 . S
C518 H542 0.950 . S
C519 C536 1.574 . S
C519 C538 1.368 . S
C519 H543 0.949 . S
H520 C524 0.949 . S
C521 C522 1.349 . S
C521 C523 1.327 . S
C521 H544 0.950 . S
C522 C521 1.349 . S
C522 C534 1.349 . S
C523 C521 1.327 . S
C523 C539 1.429 . S
C523 H545 0.950 . S
C524 H520 0.949 . S
C524 C532 1.574 . S
C524 C540 1.368 . S
H525 C533 0.950 . S
H526 C531 0.950 . S
H527 C532 0.949 . S
H528 C534 0.950 . S
H529 C535 0.950 . S
H530 C536 0.949 . S
C531 H526 0.950 . S
C531 C533 1.327 . S
C531 C537 1.429 . S
C532 C524 1.574 . S
C532 H527 0.949 . S
C532 C538 1.368 . S
C533 C517 1.349 . S
C533 H525 0.950 . S
C533 C531 1.327 . S
C534 C522 1.349 . S
C534 H528 0.950 . S
C534 C535 1.327 . S
C535 H529 0.950 . S
C535 C534 1.327 . S
C535 C539 1.429 . S
C536 C519 1.574 . S
C536 H530 0.949 . S
C536 C540 1.368 . S
C537 C518 1.429 . S
C537 C531 1.429 . S
C537 C538 1.523 . S
C538 C519 1.368 . S
C538 C532 1.368 . S
C538 C537 1.523 . S
C539 C523 1.429 . S
C539 C535 1.429 . S
C539 C540 1.523 . S
C540 C524 1.368 . S
C540 C536 1.368 . S
C540 C539 1.523 . S
H541 C516 0.950 . S
H542 C518 0.950 . S
H543 C519 0.949 . S
H544 C521 0.950 . S
H545 C523 0.950 . S
C546 C547 1.349 . S
C546 C548 1.327 . S
C546 H571 0.950 . S
C547 C546 1.349 . S
C547 C563 1.349 . S
C548 C546 1.327 . S
C548 C567 1.429 . S
C548 H572 0.950 . S
C549 C566 1.574 . S
C549 C568 1.368 . S
C549 H573 0.949 . S
H550 C554 0.949 . S
C551 C552 1.349 . S
C551 C553 1.327 . S
C551 H574 0.950 . S
C552 C551 1.349 . S
C552 C564 1.349 . S
C553 C551 1.327 . S
C553 C569 1.429 . S
C553 H575 0.950 . S
C554 H550 0.949 . S
C554 C562 1.574 . S
C554 C570 1.368 . S
H555 C563 0.950 . S
H556 C561 0.950 . S
H557 C562 0.949 . S
H558 C564 0.950 . S
H559 C565 0.950 . S
H560 C566 0.949 . S
C561 H556 0.950 . S
C561 C563 1.327 . S
C561 C567 1.429 . S
C562 C554 1.574 . S
C562 H557 0.949 . S
C562 C568 1.368 . S
C563 C547 1.349 . S
C563 H555 0.950 . S
C563 C561 1.327 . S
C564 C552 1.349 . S
C564 H558 0.950 . S
C564 C565 1.327 . S
C565 H559 0.950 . S
C565 C564 1.327 . S
C565 C569 1.429 . S
C566 C549 1.574 . S
C566 H560 0.949 . S
C566 C570 1.368 . S
C567 C548 1.429 . S
C567 C561 1.429 . S
C567 C568 1.523 . S
C568 C549 1.368 . S
C568 C562 1.368 . S
C568 C567 1.523 . S
C569 C553 1.429 . S
C569 C565 1.429 . S
C569 C570 1.523 . S
C570 C554 1.368 . S
C570 C566 1.368 . S
C570 C569 1.523 . S
H571 C546 0.950 . S
H572 C548 0.950 . S
H573 C549 0.949 . S
H574 C551 0.950 . S
H575 C553 0.950 . S
C576 C577 1.321 1_565 S
C576 C578 1.327 . S
C576 H601 0.950 . S
C577 C576 1.321 1_545 S
C577 C593 1.377 . S
C578 C576 1.327 . S
C578 C597 1.429 1_565 S
C578 H602 0.950 . S
C579 C596 1.574 . S
C579 C598 1.368 . S
C579 H603 0.949 . S
H580 C584 0.949 . S
C581 C582 1.349 . S
C581 C583 1.327 . S
C581 H604 0.950 . S
C582 C581 1.349 . S
C582 C594 1.349 1_545 S
C583 C581 1.327 . S
C583 C599 1.429 . S
C583 H605 0.950 . S
C584 H580 0.949 . S
C584 C592 1.574 . S
C584 C600 1.368 1_565 S
H585 C593 0.950 1_554 S
H586 C591 0.950 . S
H587 C592 0.949 . S
H588 C594 0.950 . S
H589 C595 0.950 . S
H590 C596 0.949 . S
C591 H586 0.950 . S
C591 C593 1.327 . S
C591 C597 1.429 . S
C592 C584 1.574 . S
C592 H587 0.949 . S
C592 C598 1.368 1_565 S
C593 C577 1.377 . S
C593 H585 0.950 1_556 S
C593 C591 1.327 . S
C594 C582 1.349 1_565 S
C594 H588 0.950 . S
C594 C595 1.327 . S
C595 H589 0.950 . S
C595 C594 1.327 . S
C595 C599 1.429 1_565 S
C596 C579 1.574 . S
C596 H590 0.949 . S
C596 C600 1.368 . S
C597 C578 1.429 1_545 S
C597 C591 1.429 . S
C597 C598 1.523 . S
C598 C579 1.368 . S
C598 C592 1.368 1_545 S
C598 C597 1.523 . S
C599 C583 1.429 . S
C599 C595 1.429 1_545 S
C599 C600 1.523 . S
C600 C584 1.368 1_545 S
C600 C596 1.368 . S
C600 C599 1.523 . S
H601 C576 0.950 . S
H602 C578 0.950 . S
H603 C579 0.949 . S
H604 C581 0.950 . S
H605 C583 0.950 . S
C606 C607 1.349 . S
C606 C608 1.327 . S
C606 H631 0.950 . S
C607 C606 1.349 . S
C607 C623 1.349 . S
C608 C606 1.327 . S
C608 C627 1.429 . S
C608 H632 0.950 . S
C609 C626 1.574 . S
C609 C628 1.368 . S
C609 H633 0.949 . S
H610 C614 0.949 . S
C611 C612 1.349 . S
C611 C613 1.327 . S
C611 H634 0.950 . S
C612 C611 1.349 . S
C612 C624 1.349 . S
C613 C611 1.327 . S
C613 C629 1.429 . S
C613 H635 0.950 . S
C614 H610 0.949 . S
C614 C622 1.574 . S
C614 C630 1.368 . S
H615 C623 0.952 . S
H616 C621 0.950 . S
H617 C622 0.949 . S
H618 C624 0.950 . S
H619 C625 0.950 . S
H620 C626 0.949 . S
C621 H616 0.950 . S
C621 C623 1.327 . S
C621 C627 1.429 . S
C622 C614 1.574 . S
C622 H617 0.949 . S
C622 C628 1.368 . S
C623 C607 1.349 . S
C623 H615 0.952 . S
C623 C621 1.327 . S
C624 C612 1.349 . S
C624 H618 0.950 . S
C624 C625 1.327 . S
C625 H619 0.950 . S
C625 C624 1.327 . S
C625 C629 1.429 . S
C626 C609 1.574 . S
C626 H620 0.949 . S
C626 C630 1.368 . S
C627 C608 1.429 . S
C627 C621 1.429 . S
C627 C628 1.523 . S
C628 C609 1.368 . S
C628 C622 1.368 . S
C628 C627 1.523 . S
C629 C613 1.429 . S
C629 C625 1.429 . S
C629 C630 1.523 . S
C630 C614 1.368 . S
C630 C626 1.368 . S
C630 C629 1.523 . S
H631 C606 0.950 . S
H632 C608 0.950 . S
H633 C609 0.949 . S
H634 C611 0.950 . S
H635 C613 0.950 . S
C636 C637 1.349 . S
C636 C638 1.327 1_554 S
C636 H661 0.950 . S
C637 C636 1.349 . S
C637 C653 1.349 . S
C638 C636 1.327 1_556 S
C638 C657 1.429 . S
C638 H662 0.950 . S
C639 C656 1.574 . S
C639 C658 1.368 . S
C639 H663 0.949 . S
H640 C644 0.949 . S
C641 C642 1.349 . S
C641 C643 1.327 . S
C641 H664 0.950 . S
C642 C641 1.349 . S
C642 C654 1.349 . S
C643 C641 1.327 . S
C643 C659 1.429 . S
C643 H665 0.950 . S
C644 H640 0.949 . S
C644 C652 1.574 . S
C644 C660 1.368 . S
H645 C653 0.950 . S
H646 C651 0.950 . S
H647 C652 0.949 . S
H648 C654 0.950 . S
H649 C655 0.950 . S
H650 C656 0.949 . S
C651 H646 0.950 . S
C651 C653 1.327 1_556 S
C651 C657 1.429 . S
C652 C644 1.574 . S
C652 H647 0.949 . S
C652 C658 1.368 . S
C653 C637 1.349 . S
C653 H645 0.950 . S
C653 C651 1.327 1_554 S
C654 C642 1.349 . S
C654 H648 0.950 . S
C654 C655 1.327 . S
C655 H649 0.950 . S
C655 C654 1.327 . S
C655 C659 1.429 . S
C656 C639 1.574 . S
C656 H650 0.949 . S
C656 C660 1.368 . S
C657 C638 1.429 . S
C657 C651 1.429 . S
C657 C658 1.523 . S
C658 C639 1.368 . S
C658 C652 1.368 . S
C658 C657 1.523 . S
C659 C643 1.429 . S
C659 C655 1.429 . S
C659 C660 1.523 . S
C660 C644 1.368 . S
C660 C656 1.368 . S
C660 C659 1.523 . S
H661 C636 0.950 . S
H662 C638 0.950 . S
H663 C639 0.949 . S
H664 C641 0.950 . S
H665 C643 0.950 . S
C666 C667 1.349 . S
C666 C668 1.327 . S
C666 H691 0.950 . S
C667 C666 1.349 . S
C667 C683 1.349 . S
C668 C666 1.327 . S
C668 C687 1.429 . S
C668 H692 0.950 . S
C669 C686 1.574 . S
C669 C688 1.368 . S
C669 H693 0.949 . S
H670 C674 0.949 . S
C671 C672 1.349 . S
C671 C673 1.327 . S
C671 H694 0.950 . S
C672 C671 1.349 . S
C672 C684 1.349 . S
C673 C671 1.327 . S
C673 C689 1.429 . S
C673 H695 0.950 . S
C674 H670 0.949 . S
C674 C682 1.574 . S
C674 C690 1.368 . S
H675 C683 0.950 . S
H676 C681 0.950 . S
H677 C682 0.949 . S
H678 C684 0.950 1_455 S
H679 C685 0.950 . S
H680 C686 0.949 . S
C681 H676 0.950 . S
C681 C683 1.327 . S
C681 C687 1.429 . S
C682 C674 1.574 . S
C682 H677 0.949 . S
C682 C688 1.368 . S
C683 C667 1.349 . S
C683 H675 0.950 . S
C683 C681 1.327 . S
C684 C672 1.349 . S
C684 H678 0.950 1_655 S
C684 C685 1.327 . S
C685 H679 0.950 . S
C685 C684 1.327 . S
C685 C689 1.429 . S
C686 C669 1.574 . S
C686 H680 0.949 . S
C686 C690 1.368 . S
C687 C668 1.429 . S
C687 C681 1.429 . S
C687 C688 1.523 . S
C688 C669 1.368 . S
C688 C682 1.368 . S
C688 C687 1.523 . S
C689 C673 1.429 . S
C689 C685 1.429 . S
C689 C690 1.523 . S
C690 C674 1.368 . S
C690 C686 1.368 . S
C690 C689 1.523 . S
H691 C666 0.950 . S
H692 C668 0.950 . S
H693 C669 0.949 . S
H694 C671 0.950 . S
H695 C673 0.950 . S
C696 C697 1.349 . S
C696 C698 1.327 . S
C696 H721 0.950 . S
C697 C696 1.349 . S
C697 C713 1.349 . S
C698 C696 1.327 . S
C698 C717 1.429 . S
C698 H722 0.950 . S
C699 C716 1.574 . S
C699 C718 1.368 . S
C699 H723 0.949 . S
H700 C704 0.949 . S
C701 C702 1.349 . S
C701 C703 1.327 . S
C701 H724 0.934 1_455 S
C702 C701 1.349 . S
C702 C714 1.349 . S
C703 C701 1.327 . S
C703 C719 1.429 . S
C703 H725 0.950 . S
C704 H700 0.949 . S
C704 C712 1.574 . S
C704 C720 1.368 . S
H705 C713 0.950 . S
H706 C711 0.950 . S
H707 C712 0.949 . S
H708 C714 0.950 . S
H709 C715 0.950 . S
H710 C716 0.949 . S
C711 H706 0.950 . S
C711 C713 1.327 . S
C711 C717 1.429 . S
C712 C704 1.574 . S
C712 H707 0.949 . S
C712 C718 1.368 . S
C713 C697 1.349 . S
C713 H705 0.950 . S
C713 C711 1.327 . S
C714 C702 1.349 . S
C714 H708 0.950 . S
C714 C715 1.327 . S
C715 H709 0.950 . S
C715 C714 1.327 . S
C715 C719 1.429 . S
C716 C699 1.574 . S
C716 H710 0.949 . S
C716 C720 1.368 . S
C717 C698 1.429 . S
C717 C711 1.429 . S
C717 C718 1.523 . S
C718 C699 1.368 . S
C718 C712 1.368 . S
C718 C717 1.523 . S
C719 C703 1.429 . S
C719 C715 1.429 . S
C719 C720 1.523 . S
C720 C704 1.368 . S
C720 C716 1.368 . S
C720 C719 1.523 . S
H721 C696 0.950 . S
H722 C698 0.950 . S
H723 C699 0.949 . S
H724 C701 0.934 1_655 S
H725 C703 0.950 . S
C726 C727 1.318 1_565 S
C726 C728 1.327 . S
C726 H751 0.950 . S
C727 C726 1.318 1_545 S
C727 C743 1.378 . S
C728 C726 1.327 . S
C728 C747 1.429 . S
C728 H752 0.950 . S
C729 C746 1.574 . S
C729 C748 1.368 1_545 S
C729 H753 0.949 . S
H730 C734 0.949 . S
C731 C732 1.349 1_545 S
C731 C733 1.327 . S
C731 H754 0.950 . S
C732 C731 1.349 1_565 S
C732 C744 1.349 . S
C733 C731 1.327 . S
C733 C749 1.429 1_545 S
C733 H755 0.950 . S
C734 H730 0.949 . S
C734 C742 1.574 . S
C734 C750 1.368 . S
H735 C743 0.950 . S
H736 C741 0.950 . S
H737 C742 0.949 . S
H738 C744 0.950 . S
H739 C745 0.950 . S
H740 C746 0.949 . S
C741 H736 0.950 . S
C741 C743 1.327 . S
C741 C747 1.429 1_545 S
C742 C734 1.574 . S
C742 H737 0.949 . S
C742 C748 1.368 . S
C743 C727 1.378 . S
C743 H735 0.950 . S
C743 C741 1.327 . S
C744 C732 1.349 . S
C744 H738 0.950 . S
C744 C745 1.327 . S
C745 H739 0.950 . S
C745 C744 1.327 . S
C745 C749 1.429 . S
C746 C729 1.574 . S
C746 H740 0.949 . S
C746 C750 1.368 1_545 S
C747 C728 1.429 . S
C747 C741 1.429 1_565 S
C747 C748 1.523 . S
C748 C729 1.368 1_565 S
C748 C742 1.368 . S
C748 C747 1.523 . S
C749 C733 1.429 1_565 S
C749 C745 1.429 . S
C749 C750 1.523 . S
C750 C734 1.368 . S
C750 C746 1.368 1_565 S
C750 C749 1.523 . S
H751 C726 0.950 . S
H752 C728 0.950 . S
H753 C729 0.949 . S
H754 C731 0.950 . S
H755 C733 0.950 . S
C756 C757 1.349 . S
C756 C758 1.327 . S
C756 H781 0.950 . S
C757 C756 1.349 . S
C757 C773 1.349 . S
C758 C756 1.327 . S
C758 C777 1.429 . S
C758 H782 0.950 . S
C759 C776 1.574 . S
C759 C778 1.368 . S
C759 H783 0.949 . S
H760 C764 0.949 . S
C761 C762 1.349 . S
C761 C763 1.327 . S
C761 H784 0.950 . S
C762 C761 1.349 . S
C762 C774 1.349 . S
C763 C761 1.327 . S
C763 C779 1.429 . S
C763 H785 0.950 . S
C764 H760 0.949 . S
C764 C772 1.574 . S
C764 C780 1.368 . S
H765 C773 0.950 . S
H766 C771 0.950 . S
H767 C772 0.949 . S
H768 C774 0.950 . S
H769 C775 0.950 . S
H770 C776 0.949 . S
C771 H766 0.950 . S
C771 C773 1.327 . S
C771 C777 1.429 . S
C772 C764 1.574 . S
C772 H767 0.949 . S
C772 C778 1.368 . S
C773 C757 1.349 . S
C773 H765 0.950 . S
C773 C771 1.327 . S
C774 C762 1.349 . S
C774 H768 0.950 . S
C774 C775 1.327 . S
C775 H769 0.950 . S
C775 C774 1.327 . S
C775 C779 1.429 . S
C776 C759 1.574 . S
C776 H770 0.949 . S
C776 C780 1.368 . S
C777 C758 1.429 . S
C777 C771 1.429 . S
C777 C778 1.523 . S
C778 C759 1.368 . S
C778 C772 1.368 . S
C778 C777 1.523 . S
C779 C763 1.429 . S
C779 C775 1.429 . S
C779 C780 1.523 . S
C780 C764 1.368 . S
C780 C776 1.368 . S
C780 C779 1.523 . S
H781 C756 0.950 . S
H782 C758 0.950 . S
H783 C759 0.949 . S
H784 C761 0.950 . S
H785 C763 0.950 . S
C786 C787 1.349 . S
C786 C788 1.327 . S
C786 H811 0.950 . S
C787 C786 1.349 . S
C787 C803 1.349 . S
C788 C786 1.327 . S
C788 C807 1.429 . S
C788 H812 0.950 . S
C789 C806 1.574 . S
C789 C808 1.368 . S
C789 H813 0.949 . S
H790 C794 0.949 . S
C791 C792 1.349 . S
C791 C793 1.327 . S
C791 H814 0.950 . S
C792 C791 1.349 . S
C792 C804 1.349 . S
C793 C791 1.327 . S
C793 C809 1.429 . S
C793 H815 0.950 . S
C794 H790 0.949 . S
C794 C802 1.574 . S
C794 C810 1.368 . S
H795 C803 0.950 . S
H796 C801 0.950 . S
H797 C802 0.949 . S
H798 C804 0.950 . S
H799 C805 0.950 . S
H800 C806 0.949 . S
C801 H796 0.950 . S
C801 C803 1.327 . S
C801 C807 1.429 . S
C802 C794 1.574 . S
C802 H797 0.949 . S
C802 C808 1.368 . S
C803 C787 1.349 . S
C803 H795 0.950 . S
C803 C801 1.327 . S
C804 C792 1.349 . S
C804 H798 0.950 . S
C804 C805 1.327 . S
C805 H799 0.950 . S
C805 C804 1.327 . S
C805 C809 1.429 . S
C806 C789 1.574 . S
C806 H800 0.949 . S
C806 C810 1.368 . S
C807 C788 1.429 . S
C807 C801 1.429 . S
C807 C808 1.523 . S
C808 C789 1.368 . S
C808 C802 1.368 . S
C808 C807 1.523 . S
C809 C793 1.429 . S
C809 C805 1.429 . S
C809 C810 1.523 . S
C810 C794 1.368 . S
C810 C806 1.368 . S
C810 C809 1.523 . S
H811 C786 0.950 . S
H812 C788 0.950 . S
H813 C789 0.949 . S
H814 C791 0.950 . S
H815 C793 0.950 . S
C816 C817 1.349 . S
C816 C818 1.327 . S
C816 H841 0.950 . S
C817 C816 1.349 . S
C817 C833 1.349 . S
C818 C816 1.327 . S
C818 C837 1.429 . S
C818 H842 0.950 . S
C819 C836 1.574 . S
C819 C838 1.368 . S
C819 H843 0.949 . S
H820 C824 0.949 1_455 S
C821 C822 1.349 . S
C821 C823 1.327 1_455 S
C821 H844 0.950 . S
C822 C821 1.349 . S
C822 C834 1.349 . S
C823 C821 1.327 1_655 S
C823 C839 1.429 . S
C823 H845 0.950 . S
C824 H820 0.949 1_655 S
C824 C832 1.574 . S
C824 C840 1.368 . S
H825 C833 0.950 . S
H826 C831 0.950 . S
H827 C832 0.949 . S
H828 C834 0.950 . S
H829 C835 0.950 . S
H830 C836 0.949 . S
C831 H826 0.950 . S
C831 C833 1.327 . S
C831 C837 1.429 . S
C832 C824 1.574 . S
C832 H827 0.949 . S
C832 C838 1.368 . S
C833 C817 1.349 . S
C833 H825 0.950 . S
C833 C831 1.327 . S
C834 C822 1.349 . S
C834 H828 0.950 . S
C834 C835 1.327 . S
C835 H829 0.950 . S
C835 C834 1.327 . S
C835 C839 1.429 1_455 S
C836 C819 1.574 . S
C836 H830 0.949 . S
C836 C840 1.368 . S
C837 C818 1.429 . S
C837 C831 1.429 . S
C837 C838 1.523 . S
C838 C819 1.368 . S
C838 C832 1.368 . S
C838 C837 1.523 . S
C839 C823 1.429 . S
C839 C835 1.429 1_655 S
C839 C840 1.523 . S
C840 C824 1.368 . S
C840 C836 1.368 . S
C840 C839 1.523 . S
H841 C816 0.950 . S
H842 C818 0.950 . S
H843 C819 0.949 . S
H844 C821 0.950 . S
H845 C823 0.950 . S
C846 C847 1.329 1_545 S
C846 C848 1.327 . S
C846 H871 0.950 . S
C847 C846 1.329 1_565 S
C847 C863 1.367 . S
C848 C846 1.327 . S
C848 C867 1.429 . S
C848 H872 0.950 . S
C849 C866 1.574 . S
C849 C868 1.368 1_565 S
C849 H873 0.949 . S
H850 C854 0.949 . S
C851 C852 1.349 1_565 S
C851 C853 1.327 . S
C851 H874 0.950 . S
C852 C851 1.349 1_545 S
C852 C864 1.349 . S
C853 C851 1.327 . S
C853 C869 1.429 1_565 S
C853 H875 0.950 . S
C854 H850 0.949 . S
C854 C862 1.574 . S
C854 C870 1.368 . S
H855 C863 0.950 . S
H856 C861 0.950 . S
H857 C862 0.949 . S
H858 C864 0.950 . S
H859 C865 0.950 . S
H860 C866 0.949 . S
C861 H856 0.950 . S
C861 C863 1.327 . S
C861 C867 1.429 1_565 S
C862 C854 1.574 . S
C862 H857 0.949 . S
C862 C868 1.368 . S
C863 C847 1.367 . S
C863 H855 0.950 . S
C863 C861 1.327 . S
C864 C852 1.349 . S
C864 H858 0.950 . S
C864 C865 1.327 . S
C865 H859 0.950 . S
C865 C864 1.327 . S
C865 C869 1.429 . S
C866 C849 1.574 . S
C866 H860 0.949 . S
C866 C870 1.368 1_565 S
C867 C848 1.429 . S
C867 C861 1.429 1_545 S
C867 C868 1.523 . S
C868 C849 1.368 1_545 S
C868 C862 1.368 . S
C868 C867 1.523 . S
C869 C853 1.429 1_545 S
C869 C865 1.429 . S
C869 C870 1.523 . S
C870 C854 1.368 . S
C870 C866 1.368 1_545 S
C870 C869 1.523 . S
H871 C846 0.950 . S
H872 C848 0.950 . S
H873 C849 0.949 . S
H874 C851 0.950 . S
H875 C853 0.950 . S
C876 C877 1.349 . S
C876 C878 1.327 . S
C876 H901 0.950 . S
C877 C876 1.349 . S
C877 C893 1.349 . S
C878 C876 1.327 . S
C878 C897 1.429 . S
C878 H902 0.950 . S
C879 C896 1.574 . S
C879 C898 1.368 . S
C879 H903 0.949 . S
H880 C884 0.949 . S
C881 C882 1.349 . S
C881 C883 1.327 . S
C881 H904 0.950 . S
C882 C881 1.349 . S
C882 C894 1.349 . S
C883 C881 1.327 . S
C883 C899 1.429 . S
C883 H905 0.950 . S
C884 H880 0.949 . S
C884 C892 1.574 . S
C884 C900 1.368 . S
H885 C893 0.950 . S
H886 C891 0.950 . S
H887 C892 0.949 . S
H888 C894 0.950 . S
H889 C895 0.950 . S
H890 C896 0.949 . S
C891 H886 0.950 . S
C891 C893 1.327 . S
C891 C897 1.429 . S
C892 C884 1.574 . S
C892 H887 0.949 . S
C892 C898 1.368 . S
C893 C877 1.349 . S
C893 H885 0.950 . S
C893 C891 1.327 . S
C894 C882 1.349 . S
C894 H888 0.950 . S
C894 C895 1.327 . S
C895 H889 0.950 . S
C895 C894 1.327 . S
C895 C899 1.429 . S
C896 C879 1.574 . S
C896 H890 0.949 . S
C896 C900 1.368 . S
C897 C878 1.429 . S
C897 C891 1.429 . S
C897 C898 1.523 . S
C898 C879 1.368 . S
C898 C892 1.368 . S
C898 C897 1.523 . S
C899 C883 1.429 . S
C899 C895 1.429 . S
C899 C900 1.523 . S
C900 C884 1.368 . S
C900 C896 1.368 . S
C900 C899 1.523 . S
H901 C876 0.950 . S
H902 C878 0.950 . S
H903 C879 0.949 . S
H904 C881 0.950 . S
H905 C883 0.950 . S
C906 C907 1.349 . S
C906 C908 1.327 . S
C906 H931 0.950 . S
C907 C906 1.349 . S
C907 C923 1.349 . S
C908 C906 1.327 . S
C908 C927 1.429 . S
C908 H932 0.950 . S
C909 C926 1.574 . S
C909 C928 1.368 . S
C909 H933 0.949 . S
H910 C914 0.949 . S
C911 C912 1.349 . S
C911 C913 1.327 . S
C911 H934 0.950 . S
C912 C911 1.349 . S
C912 C924 1.349 . S
C913 C911 1.327 . S
C913 C929 1.429 . S
C913 H935 0.950 . S
C914 H910 0.949 . S
C914 C922 1.574 . S
C914 C930 1.368 . S
H915 C923 0.950 . S
H916 C921 0.950 . S
H917 C922 0.949 . S
H918 C924 0.950 . S
H919 C925 0.950 . S
H920 C926 0.949 . S
C921 H916 0.950 . S
C921 C923 1.327 . S
C921 C927 1.429 . S
C922 C914 1.574 . S
C922 H917 0.949 . S
C922 C928 1.368 . S
C923 C907 1.349 . S
C923 H915 0.950 . S
C923 C921 1.327 . S
C924 C912 1.349 . S
C924 H918 0.950 . S
C924 C925 1.327 . S
C925 H919 0.950 . S
C925 C924 1.327 . S
C925 C929 1.429 . S
C926 C909 1.574 . S
C926 H920 0.949 . S
C926 C930 1.368 . S
C927 C908 1.429 . S
C927 C921 1.429 . S
C927 C928 1.523 . S
C928 C909 1.368 . S
C928 C922 1.368 . S
C928 C927 1.523 . S
C929 C913 1.429 . S
C929 C925 1.429 . S
C929 C930 1.523 . S
C930 C914 1.368 . S
C930 C926 1.368 . S
C930 C929 1.523 . S
H931 C906 0.950 . S
H932 C908 0.950 . S
H933 C909 0.949 . S
H934 C911 0.950 . S
H935 C913 0.950 . S
C936 C937 1.349 . S
C936 C938 1.327 . S
C936 H961 0.950 . S
C937 C936 1.349 . S
C937 C953 1.349 . S
C938 C936 1.327 . S
C938 C957 1.429 . S
C938 H962 0.950 1_554 S
C939 C956 1.574 . S
C939 C958 1.368 . S
C939 H963 0.949 . S
H940 C944 0.949 . S
C941 C942 1.349 . S
C941 C943 1.327 . S
C941 H964 0.950 . S
C942 C941 1.349 . S
C942 C954 1.349 . S
C943 C941 1.327 . S
C943 C959 1.429 . S
C943 H965 0.950 . S
C944 H940 0.949 . S
C944 C952 1.574 . S
C944 C960 1.368 . S
H945 C953 0.950 . S
H946 C951 0.950 . S
H947 C952 0.949 . S
H948 C954 0.950 . S
H949 C955 0.950 . S
H950 C956 0.949 . S
C951 H946 0.950 . S
C951 C953 1.327 . S
C951 C957 1.429 . S
C952 C944 1.574 . S
C952 H947 0.949 . S
C952 C958 1.368 1_556 S
C953 C937 1.349 . S
C953 H945 0.950 . S
C953 C951 1.327 . S
C954 C942 1.349 . S
C954 H948 0.950 . S
C954 C955 1.327 . S
C955 H949 0.950 . S
C955 C954 1.327 . S
C955 C959 1.429 . S
C956 C939 1.574 . S
C956 H950 0.949 . S
C956 C960 1.368 1_554 S
C957 C938 1.429 . S
C957 C951 1.429 . S
C957 C958 1.523 . S
C958 C939 1.368 . S
C958 C952 1.368 1_554 S
C958 C957 1.523 . S
C959 C943 1.429 . S
C959 C955 1.429 . S
C959 C960 1.523 . S
C960 C944 1.368 . S
C960 C956 1.368 1_556 S
C960 C959 1.523 . S
H961 C936 0.950 . S
H962 C938 0.950 1_556 S
H963 C939 0.949 . S
H964 C941 0.950 . S
H965 C943 0.950 . S
C966 C967 1.367 . S
C966 C968 1.327 1_554 S
C966 H991 0.950 . S
C967 C966 1.367 . S
C967 C983 1.330 1_544 S
C968 C966 1.327 1_556 S
C968 C987 1.429 . S
C968 H992 0.950 1_556 S
C969 C986 1.574 . S
C969 C988 1.368 1_565 S
C969 H993 0.949 . S
H970 C974 0.949 . S
C971 C972 1.349 1_565 S
C971 C973 1.327 . S
C971 H994 0.950 . S
C972 C971 1.349 1_545 S
C972 C984 1.349 . S
C973 C971 1.327 . S
C973 C989 1.429 1_565 S
C973 H995 0.950 . S
C974 H970 0.949 . S
C974 C982 1.574 . S
C974 C990 1.368 . S
H975 C983 0.950 . S
H976 C981 0.950 . S
H977 C982 0.949 . S
H978 C984 0.950 . S
H979 C985 0.950 . S
H980 C986 0.949 . S
C981 H976 0.950 . S
C981 C983 1.327 . S
C981 C987 1.429 1_565 S
C982 C974 1.574 . S
C982 H977 0.949 . S
C982 C988 1.368 . S
C983 C967 1.330 1_566 S
C983 H975 0.950 . S
C983 C981 1.327 . S
C984 C972 1.349 . S
C984 H978 0.950 . S
C984 C985 1.327 . S
C985 H979 0.950 . S
C985 C984 1.327 . S
C985 C989 1.429 . S
C986 C969 1.574 . S
C986 H980 0.949 . S
C986 C990 1.368 1_565 S
C987 C968 1.429 . S
C987 C981 1.429 1_545 S
C987 C988 1.523 . S
C988 C969 1.368 1_545 S
C988 C982 1.368 . S
C988 C987 1.523 . S
C989 C973 1.429 1_545 S
C989 C985 1.429 . S
C989 C990 1.523 . S
C990 C974 1.368 . S
C990 C986 1.368 1_545 S
C990 C989 1.523 . S
H991 C966 0.950 . S
H992 C968 0.950 1_554 S
H993 C969 0.949 . S
H994 C971 0.950 . S
H995 C973 0.950 . S
C996 C997 1.349 1_556 S
C996 C998 1.327 . S
C996 H1021 0.950 . S
C997 C996 1.349 1_554 S
C997 C1013 1.349 . S
C998 C996 1.327 . S
C998 C1017 1.429 . S
C998 H1022 0.950 . S
C999 C1016 1.574 . S
C999 C1018 1.368 . S
C999 H1023 0.949 . S
H1000 C1004 0.949 . S
C1001 C1002 1.349 . S
C1001 C1003 1.327 . S
C1001 H1024 0.950 . S
C1002 C1001 1.349 . S
C1002 C1014 1.349 . S
C1003 C1001 1.327 . S
C1003 C1019 1.429 . S
C1003 H1025 0.950 . S
C1004 H1000 0.949 . S
C1004 C1012 1.574 . S
C1004 C1020 1.368 . S
H1005 C1013 0.950 . S
H1006 C1011 0.950 . S
H1007 C1012 0.949 . S
H1008 C1014 0.950 . S
H1009 C1015 0.950 . S
H1010 C1016 0.949 . S
C1011 H1006 0.950 . S
C1011 C1013 1.327 . S
C1011 C1017 1.429 1_554 S
C1012 C1004 1.574 . S
C1012 H1007 0.949 . S
C1012 C1018 1.368 . S
C1013 C997 1.349 . S
C1013 H1005 0.950 . S
C1013 C1011 1.327 . S
C1014 C1002 1.349 . S
C1014 H1008 0.950 . S
C1014 C1015 1.327 . S
C1015 H1009 0.950 . S
C1015 C1014 1.327 . S
C1015 C1019 1.429 . S
C1016 C999 1.574 . S
C1016 H1010 0.949 . S
C1016 C1020 1.368 . S
C1017 C998 1.429 . S
C1017 C1011 1.429 1_556 S
C1017 C1018 1.523 . S
C1018 C999 1.368 . S
C1018 C1012 1.368 . S
C1018 C1017 1.523 . S
C1019 C1003 1.429 . S
C1019 C1015 1.429 . S
C1019 C1020 1.523 . S
C1020 C1004 1.368 . S
C1020 C1016 1.368 . S
C1020 C1019 1.523 . S
H1021 C996 0.950 . S
H1022 C998 0.950 . S
H1023 C999 0.949 . S
H1024 C1001 0.950 . S
H1025 C1003 0.950 . S
C1026 C1027 1.349 . S
C1026 C1028 1.327 . S
C1026 H1051 0.950 . S
C1027 C1026 1.349 . S
C1027 C1043 1.342 1_556 S
C1028 C1026 1.327 . S
C1028 C1047 1.429 . S
C1028 H1052 0.950 . S
C1029 C1046 1.574 . S
C1029 C1048 1.368 . S
C1029 H1053 0.949 . S
H1030 C1034 0.949 . S
C1031 C1032 1.349 . S
C1031 C1033 1.327 . S
C1031 H1054 0.950 . S
C1032 C1031 1.349 . S
C1032 C1044 1.349 . S
C1033 C1031 1.327 . S
C1033 C1049 1.429 . S
C1033 H1055 0.950 . S
C1034 H1030 0.949 . S
C1034 C1042 1.574 . S
C1034 C1050 1.368 . S
H1035 C1043 0.969 . S
H1036 C1041 0.950 . S
H1037 C1042 0.949 . S
H1038 C1044 0.950 . S
H1039 C1045 0.950 . S
H1040 C1046 0.949 . S
C1041 H1036 0.950 . S
C1041 C1043 1.315 1_556 S
C1041 C1047 1.429 . S
C1042 C1034 1.574 . S
C1042 H1037 0.949 . S
C1042 C1048 1.368 . S
C1043 C1027 1.342 1_554 S
C1043 H1035 0.969 . S
C1043 C1041 1.315 1_554 S
C1044 C1032 1.349 . S
C1044 H1038 0.950 . S
C1044 C1045 1.327 . S
C1045 H1039 0.950 . S
C1045 C1044 1.327 . S
C1045 C1049 1.429 . S
C1046 C1029 1.574 . S
C1046 H1040 0.949 . S
C1046 C1050 1.368 . S
C1047 C1028 1.429 . S
C1047 C1041 1.429 . S
C1047 C1048 1.523 . S
C1048 C1029 1.368 . S
C1048 C1042 1.368 . S
C1048 C1047 1.523 . S
C1049 C1033 1.429 . S
C1049 C1045 1.429 . S
C1049 C1050 1.523 . S
C1050 C1034 1.368 . S
C1050 C1046 1.368 . S
C1050 C1049 1.523 . S
H1051 C1026 0.950 . S
H1052 C1028 0.950 . S
H1053 C1029 0.949 . S
H1054 C1031 0.950 . S
H1055 C1033 0.950 . S
C1056 C1057 1.349 . S
C1056 C1058 1.327 . S
C1056 H1081 0.950 . S
C1057 C1056 1.349 . S
C1057 C1073 1.349 . S
C1058 C1056 1.327 . S
C1058 C1077 1.429 . S
C1058 H1082 0.950 . S
C1059 C1076 1.574 . S
C1059 C1078 1.368 . S
C1059 H1083 0.949 . S
H1060 C1064 0.949 . S
C1061 C1062 1.349 . S
C1061 C1063 1.327 . S
C1061 H1084 0.950 . S
C1062 C1061 1.349 . S
C1062 C1074 1.349 . S
C1063 C1061 1.327 . S
C1063 C1079 1.429 . S
C1063 H1085 0.950 . S
C1064 H1060 0.949 . S
C1064 C1072 1.574 . S
C1064 C1080 1.368 . S
H1065 C1073 0.950 . S
H1066 C1071 0.950 . S
H1067 C1072 0.949 . S
H1068 C1074 0.950 1_455 S
H1069 C1075 0.950 . S
H1070 C1076 0.949 . S
C1071 H1066 0.950 . S
C1071 C1073 1.327 . S
C1071 C1077 1.429 . S
C1072 C1064 1.574 . S
C1072 H1067 0.949 . S
C1072 C1078 1.368 . S
C1073 C1057 1.349 . S
C1073 H1065 0.950 . S
C1073 C1071 1.327 . S
C1074 C1062 1.349 . S
C1074 H1068 0.950 1_655 S
C1074 C1075 1.327 . S
C1075 H1069 0.950 . S
C1075 C1074 1.327 . S
C1075 C1079 1.429 . S
C1076 C1059 1.574 . S
C1076 H1070 0.949 . S
C1076 C1080 1.368 . S
C1077 C1058 1.429 . S
C1077 C1071 1.429 . S
C1077 C1078 1.523 . S
C1078 C1059 1.368 . S
C1078 C1072 1.368 . S
C1078 C1077 1.523 . S
C1079 C1063 1.429 . S
C1079 C1075 1.429 . S
C1079 C1080 1.523 . S
C1080 C1064 1.368 . S
C1080 C1076 1.368 . S
C1080 C1079 1.523 . S
H1081 C1056 0.950 . S
H1082 C1058 0.950 . S
H1083 C1059 0.949 . S
H1084 C1061 0.950 . S
H1085 C1063 0.950 . S
C1086 C1087 1.356 . S
C1086 C1088 1.327 . S
C1086 H1111 0.950 . S
C1087 C1086 1.356 . S
C1087 C1103 1.342 1_565 S
C1088 C1086 1.327 . S
C1088 C1107 1.470 . S
C1088 H1112 0.950 . S
C1089 C1106 1.574 . S
C1089 C1108 1.368 1_545 S
C1089 H1113 0.949 . S
H1090 C1094 0.949 . S
C1091 C1092 1.349 1_545 S
C1091 C1093 1.327 . S
C1091 H1114 0.950 . S
C1092 C1091 1.349 1_565 S
C1092 C1104 1.349 . S
C1093 C1091 1.327 . S
C1093 C1109 1.429 1_545 S
C1093 H1115 0.950 . S
C1094 H1090 0.949 . S
C1094 C1102 1.574 . S
C1094 C1110 1.368 . S
H1095 C1103 0.950 . S
H1096 C1101 0.950 . S
H1097 C1102 0.949 . S
H1098 C1104 0.950 . S
H1099 C1105 0.950 . S
H1100 C1106 0.949 . S
C1101 H1096 0.950 . S
C1101 C1103 1.327 . S
C1101 C1107 1.391 1_545 S
C1102 C1094 1.574 . S
C1102 H1097 0.949 . S
C1102 C1108 1.368 . S
C1103 C1087 1.342 1_545 S
C1103 H1095 0.950 . S
C1103 C1101 1.327 . S
C1104 C1092 1.349 . S
C1104 H1098 0.950 . S
C1104 C1105 1.327 . S
C1105 H1099 0.950 . S
C1105 C1104 1.327 . S
C1105 C1109 1.429 . S
C1106 C1089 1.574 . S
C1106 H1100 0.949 . S
C1106 C1110 1.368 1_545 S
C1107 C1088 1.470 . S
C1107 C1101 1.391 1_565 S
C1107 C1108 1.522 . S
C1108 C1089 1.368 1_565 S
C1108 C1102 1.368 . S
C1108 C1107 1.522 . S
C1109 C1093 1.429 1_565 S
C1109 C1105 1.429 . S
C1109 C1110 1.523 . S
C1110 C1094 1.368 . S
C1110 C1106 1.368 1_565 S
C1110 C1109 1.523 . S
H1111 C1086 0.950 . S
H1112 C1088 0.950 . S
H1113 C1089 0.949 . S
H1114 C1091 0.950 . S
H1115 C1093 0.950 . S
C1116 C1117 1.349 . S
C1116 C1118 1.327 . S
C1116 H1141 0.950 . S
C1117 C1116 1.349 . S
C1117 C1133 1.349 . S
C1118 C1116 1.327 . S
C1118 C1137 1.429 . S
C1118 H1142 0.950 . S
C1119 C1136 1.574 . S
C1119 C1138 1.368 . S
C1119 H1143 0.949 . S
H1120 C1124 0.949 . S
C1121 C1122 1.349 . S
C1121 C1123 1.327 . S
C1121 H1144 0.950 . S
C1122 C1121 1.349 . S
C1122 C1134 1.349 . S
C1123 C1121 1.327 . S
C1123 C1139 1.429 . S
C1123 H1145 0.950 . S
C1124 H1120 0.949 . S
C1124 C1132 1.574 . S
C1124 C1140 1.368 . S
H1125 C1133 0.950 . S
H1126 C1131 0.950 . S
H1127 C1132 0.949 . S
H1128 C1134 0.950 . S
H1129 C1135 0.950 . S
H1130 C1136 0.949 . S
C1131 H1126 0.950 . S
C1131 C1133 1.327 . S
C1131 C1137 1.429 . S
C1132 C1124 1.574 . S
C1132 H1127 0.949 . S
C1132 C1138 1.368 . S
C1133 C1117 1.349 . S
C1133 H1125 0.950 . S
C1133 C1131 1.327 . S
C1134 C1122 1.349 . S
C1134 H1128 0.950 . S
C1134 C1135 1.327 . S
C1135 H1129 0.950 . S
C1135 C1134 1.327 . S
C1135 C1139 1.429 . S
C1136 C1119 1.574 . S
C1136 H1130 0.949 . S
C1136 C1140 1.368 . S
C1137 C1118 1.429 . S
C1137 C1131 1.429 . S
C1137 C1138 1.523 . S
C1138 C1119 1.368 . S
C1138 C1132 1.368 . S
C1138 C1137 1.523 . S
C1139 C1123 1.429 . S
C1139 C1135 1.429 . S
C1139 C1140 1.523 . S
C1140 C1124 1.368 . S
C1140 C1136 1.368 . S
C1140 C1139 1.523 . S
H1141 C1116 0.950 . S
H1142 C1118 0.950 . S
H1143 C1119 0.949 . S
H1144 C1121 0.950 . S
H1145 C1123 0.950 . S
C1146 C1147 1.349 . S
C1146 C1148 1.327 . S
C1146 H1171 0.950 . S
C1147 C1146 1.349 . S
C1147 C1163 1.349 . S
C1148 C1146 1.327 . S
C1148 C1167 1.429 . S
C1148 H1172 0.950 . S
C1149 C1166 1.574 . S
C1149 C1168 1.368 . S
C1149 H1173 0.949 . S
H1150 C1154 0.949 . S
C1151 C1152 1.349 . S
C1151 C1153 1.327 . S
C1151 H1174 0.950 . S
C1152 C1151 1.349 . S
C1152 C1164 1.349 . S
C1153 C1151 1.327 . S
C1153 C1169 1.429 . S
C1153 H1175 0.950 . S
C1154 H1150 0.949 . S
C1154 C1162 1.574 . S
C1154 C1170 1.368 . S
H1155 C1163 0.950 . S
H1156 C1161 0.950 . S
H1157 C1162 0.949 . S
H1158 C1164 0.950 . S
H1159 C1165 0.950 . S
H1160 C1166 0.949 . S
C1161 H1156 0.950 . S
C1161 C1163 1.327 . S
C1161 C1167 1.429 . S
C1162 C1154 1.574 . S
C1162 H1157 0.949 . S
C1162 C1168 1.368 . S
C1163 C1147 1.349 . S
C1163 H1155 0.950 . S
C1163 C1161 1.327 . S
C1164 C1152 1.349 . S
C1164 H1158 0.950 . S
C1164 C1165 1.327 . S
C1165 H1159 0.950 . S
C1165 C1164 1.327 . S
C1165 C1169 1.429 . S
C1166 C1149 1.574 . S
C1166 H1160 0.949 . S
C1166 C1170 1.368 . S
C1167 C1148 1.429 . S
C1167 C1161 1.429 . S
C1167 C1168 1.523 . S
C1168 C1149 1.368 . S
C1168 C1162 1.368 . S
C1168 C1167 1.523 . S
C1169 C1153 1.429 . S
C1169 C1165 1.429 . S
C1169 C1170 1.523 . S
C1170 C1154 1.368 . S
C1170 C1166 1.368 . S
C1170 C1169 1.523 . S
H1171 C1146 0.950 . S
H1172 C1148 0.950 . S
H1173 C1149 0.949 . S
H1174 C1151 0.950 . S
H1175 C1153 0.950 . S
C457 C255 1.838 1_565 S
C462 C337 1.856 . S
C492 C358 1.736 . S
C487 C295 1.704 . S
C522 C392 1.481 . S
C517 C175 1.457 . S
C552 C426 1.715 . S
C547 C215 1.686 . S
C582 C328 1.857 . S
C577 C95 1.838 1_556 S
C607 C135 1.704 1_556 S
C612 C367 1.742 . S
C637 C15 1.460 . S
C642 C401 1.481 . S
C667 C55 1.680 . S
C672 C435 1.733 . S
C702 C349 0.460 . S
C697 C221 0.524 . S
C732 C354 0.202 . S
C727 C261 0.338 . S
C762 C388 0.302 . S
C757 C301 0.294 . S
C787 C181 0.603 . S
C792 C422 0.292 . S
C817 C61 0.801 . S
C822 C320 0.461 . S
C852 C383 0.202 . S
C847 C101 0.338 1_565 S
C882 C417 0.302 . S
C877 C141 0.520 . S
C907 C21 0.357 . S
C912 C451 0.292 . S
C937 C202 1.750 . S
C942 C333 1.782 . S
C967 C242 2.105 . S
C972 C362 2.176 . S
C1002 C396 1.931 . S
C997 C282 1.883 . S
C1032 C430 1.947 . S
C1027 C162 1.836 1_556 S
C1057 C42 1.685 . S
C1062 C324 1.791 . S
C1092 C371 2.176 . S
C1087 C82 2.105 1_565 S
C1122 C405 1.931 . S
C1117 C122 1.827 . S
C1147 C2 1.895 . S
C1152 C439 1.947 . S
