# Generated by pormake.
# Topology ibd, (4,6)-cn, num edge types: 1
# Building blocks:
#     Node 0, Type 0, BuildingBlock: KUFVIS_clean_sbu_0, # of connection points: 4
#     Node 1, Type 0, BuildingBlock: KUFVIS_clean_sbu_0, # of connection points: 4
#     Node 2, Type 0, BuildingBlock: KUFVIS_clean_sbu_0, # of connection points: 4
#     Node 3, Type 0, BuildingBlock: KUFVIS_clean_sbu_0, # of connection points: 4
#     Node 4, Type 0, BuildingBlock: KUFVIS_clean_sbu_0, # of connection points: 4
#     Node 5, Type 0, BuildingBlock: KUFVIS_clean_sbu_0, # of connection points: 4
#     Node 6, Type 0, BuildingBlock: KUFVIS_clean_sbu_0, # of connection points: 4
#     Node 7, Type 0, BuildingBlock: KUFVIS_clean_sbu_0, # of connection points: 4
#     Node 8, Type 0, BuildingBlock: KUFVIS_clean_sbu_0, # of connection points: 4
#     Node 9, Type 0, BuildingBlock: KUFVIS_clean_sbu_0, # of connection points: 4
#     Node 10, Type 0, BuildingBlock: KUFVIS_clean_sbu_0, # of connection points: 4
#     Node 11, Type 0, BuildingBlock: KUFVIS_clean_sbu_0, # of connection points: 4
#     Node 12, Type 0, BuildingBlock: KUFVIS_clean_sbu_0, # of connection points: 4
#     Node 13, Type 0, BuildingBlock: KUFVIS_clean_sbu_0, # of connection points: 4
#     Node 14, Type 0, BuildingBlock: KUFVIS_clean_sbu_0, # of connection points: 4
#     Node 15, Type 0, BuildingBlock: KUFVIS_clean_sbu_0, # of connection points: 4
#     Node 16, Type 0, BuildingBlock: KUFVIS_clean_sbu_0, # of connection points: 4
#     Node 17, Type 0, BuildingBlock: KUFVIS_clean_sbu_0, # of connection points: 4
#     Node 18, Type 0, BuildingBlock: KUFVIS_clean_sbu_0, # of connection points: 4
#     Node 19, Type 0, BuildingBlock: KUFVIS_clean_sbu_0, # of connection points: 4
#     Node 20, Type 0, BuildingBlock: KUFVIS_clean_sbu_0, # of connection points: 4
#     Node 21, Type 0, BuildingBlock: KUFVIS_clean_sbu_0, # of connection points: 4
#     Node 22, Type 0, BuildingBlock: KUFVIS_clean_sbu_0, # of connection points: 4
#     Node 23, Type 0, BuildingBlock: KUFVIS_clean_sbu_0, # of connection points: 4
#     Node 24, Type 1, BuildingBlock: IZENUY_clean_sbu_0, # of connection points: 6
#     Node 25, Type 1, BuildingBlock: IZENUY_clean_sbu_0, # of connection points: 6
#     Node 26, Type 1, BuildingBlock: IZENUY_clean_sbu_0, # of connection points: 6
#     Node 27, Type 1, BuildingBlock: IZENUY_clean_sbu_0, # of connection points: 6
#     Node 28, Type 1, BuildingBlock: IZENUY_clean_sbu_0, # of connection points: 6
#     Node 29, Type 1, BuildingBlock: IZENUY_clean_sbu_0, # of connection points: 6
#     Node 30, Type 1, BuildingBlock: IZENUY_clean_sbu_0, # of connection points: 6
#     Node 31, Type 1, BuildingBlock: IZENUY_clean_sbu_0, # of connection points: 6
#     Node 32, Type 1, BuildingBlock: IZENUY_clean_sbu_0, # of connection points: 6
#     Node 33, Type 1, BuildingBlock: IZENUY_clean_sbu_0, # of connection points: 6
#     Node 34, Type 1, BuildingBlock: IZENUY_clean_sbu_0, # of connection points: 6
#     Node 35, Type 1, BuildingBlock: IZENUY_clean_sbu_0, # of connection points: 6
#     Node 36, Type 1, BuildingBlock: IZENUY_clean_sbu_0, # of connection points: 6
#     Node 37, Type 1, BuildingBlock: IZENUY_clean_sbu_0, # of connection points: 6
#     Node 38, Type 1, BuildingBlock: IZENUY_clean_sbu_0, # of connection points: 6
#     Node 39, Type 1, BuildingBlock: IZENUY_clean_sbu_0, # of connection points: 6
#     Edge 40, Type (0, 1), BuildingBlock: CIFDUS_clean_linker_0, # of connection points: 2
#     Edge 41, Type (0, 1), BuildingBlock: CIFDUS_clean_linker_0, # of connection points: 2
#     Edge 42, Type (0, 1), BuildingBlock: CIFDUS_clean_linker_0, # of connection points: 2
#     Edge 43, Type (0, 1), BuildingBlock: CIFDUS_clean_linker_0, # of connection points: 2
#     Edge 44, Type (0, 1), BuildingBlock: CIFDUS_clean_linker_0, # of connection points: 2
#     Edge 45, Type (0, 1), BuildingBlock: CIFDUS_clean_linker_0, # of connection points: 2
#     Edge 46, Type (0, 1), BuildingBlock: CIFDUS_clean_linker_0, # of connection points: 2
#     Edge 47, Type (0, 1), BuildingBlock: CIFDUS_clean_linker_0, # of connection points: 2
#     Edge 48, Type (0, 1), BuildingBlock: CIFDUS_clean_linker_0, # of connection points: 2
#     Edge 49, Type (0, 1), BuildingBlock: CIFDUS_clean_linker_0, # of connection points: 2
#     Edge 50, Type (0, 1), BuildingBlock: CIFDUS_clean_linker_0, # of connection points: 2
#     Edge 51, Type (0, 1), BuildingBlock: CIFDUS_clean_linker_0, # of connection points: 2
#     Edge 52, Type (0, 1), BuildingBlock: CIFDUS_clean_linker_0, # of connection points: 2
#     Edge 53, Type (0, 1), BuildingBlock: CIFDUS_clean_linker_0, # of connection points: 2
#     Edge 54, Type (0, 1), BuildingBlock: CIFDUS_clean_linker_0, # of connection points: 2
#     Edge 55, Type (0, 1), BuildingBlock: CIFDUS_clean_linker_0, # of connection points: 2
#     Edge 56, Type (0, 1), BuildingBlock: CIFDUS_clean_linker_0, # of connection points: 2
#     Edge 57, Type (0, 1), BuildingBlock: CIFDUS_clean_linker_0, # of connection points: 2
#     Edge 58, Type (0, 1), BuildingBlock: CIFDUS_clean_linker_0, # of connection points: 2
#     Edge 59, Type (0, 1), BuildingBlock: CIFDUS_clean_linker_0, # of connection points: 2
#     Edge 60, Type (0, 1), BuildingBlock: CIFDUS_clean_linker_0, # of connection points: 2
#     Edge 61, Type (0, 1), BuildingBlock: CIFDUS_clean_linker_0, # of connection points: 2
#     Edge 62, Type (0, 1), BuildingBlock: CIFDUS_clean_linker_0, # of connection points: 2
#     Edge 63, Type (0, 1), BuildingBlock: CIFDUS_clean_linker_0, # of connection points: 2
#     Edge 64, Type (0, 1), BuildingBlock: CIFDUS_clean_linker_0, # of connection points: 2
#     Edge 65, Type (0, 1), BuildingBlock: CIFDUS_clean_linker_0, # of connection points: 2
#     Edge 66, Type (0, 1), BuildingBlock: CIFDUS_clean_linker_0, # of connection points: 2
#     Edge 67, Type (0, 1), BuildingBlock: CIFDUS_clean_linker_0, # of connection points: 2
#     Edge 68, Type (0, 1), BuildingBlock: CIFDUS_clean_linker_0, # of connection points: 2
#     Edge 69, Type (0, 1), BuildingBlock: CIFDUS_clean_linker_0, # of connection points: 2
#     Edge 70, Type (0, 1), BuildingBlock: CIFDUS_clean_linker_0, # of connection points: 2
#     Edge 71, Type (0, 1), BuildingBlock: CIFDUS_clean_linker_0, # of connection points: 2
#     Edge 72, Type (0, 1), BuildingBlock: CIFDUS_clean_linker_0, # of connection points: 2
#     Edge 73, Type (0, 1), BuildingBlock: CIFDUS_clean_linker_0, # of connection points: 2
#     Edge 74, Type (0, 1), BuildingBlock: CIFDUS_clean_linker_0, # of connection points: 2
#     Edge 75, Type (0, 1), BuildingBlock: CIFDUS_clean_linker_0, # of connection points: 2
#     Edge 76, Type (0, 1), BuildingBlock: CIFDUS_clean_linker_0, # of connection points: 2
#     Edge 77, Type (0, 1), BuildingBlock: CIFDUS_clean_linker_0, # of connection points: 2
#     Edge 78, Type (0, 1), BuildingBlock: CIFDUS_clean_linker_0, # of connection points: 2
#     Edge 79, Type (0, 1), BuildingBlock: CIFDUS_clean_linker_0, # of connection points: 2
#     Edge 80, Type (0, 1), BuildingBlock: CIFDUS_clean_linker_0, # of connection points: 2
#     Edge 81, Type (0, 1), BuildingBlock: CIFDUS_clean_linker_0, # of connection points: 2
#     Edge 82, Type (0, 1), BuildingBlock: CIFDUS_clean_linker_0, # of connection points: 2
#     Edge 83, Type (0, 1), BuildingBlock: CIFDUS_clean_linker_0, # of connection points: 2
#     Edge 84, Type (0, 1), BuildingBlock: CIFDUS_clean_linker_0, # of connection points: 2
#     Edge 85, Type (0, 1), BuildingBlock: CIFDUS_clean_linker_0, # of connection points: 2
#     Edge 86, Type (0, 1), BuildingBlock: CIFDUS_clean_linker_0, # of connection points: 2
#     Edge 87, Type (0, 1), BuildingBlock: CIFDUS_clean_linker_0, # of connection points: 2
#     Edge 88, Type (0, 1), BuildingBlock: CIFDUS_clean_linker_0, # of connection points: 2
#     Edge 89, Type (0, 1), BuildingBlock: CIFDUS_clean_linker_0, # of connection points: 2
#     Edge 90, Type (0, 1), BuildingBlock: CIFDUS_clean_linker_0, # of connection points: 2
#     Edge 91, Type (0, 1), BuildingBlock: CIFDUS_clean_linker_0, # of connection points: 2
#     Edge 92, Type (0, 1), BuildingBlock: CIFDUS_clean_linker_0, # of connection points: 2
#     Edge 93, Type (0, 1), BuildingBlock: CIFDUS_clean_linker_0, # of connection points: 2
#     Edge 94, Type (0, 1), BuildingBlock: CIFDUS_clean_linker_0, # of connection points: 2
#     Edge 95, Type (0, 1), BuildingBlock: CIFDUS_clean_linker_0, # of connection points: 2
#     Edge 96, Type (0, 1), BuildingBlock: CIFDUS_clean_linker_0, # of connection points: 2
#     Edge 97, Type (0, 1), BuildingBlock: CIFDUS_clean_linker_0, # of connection points: 2
#     Edge 98, Type (0, 1), BuildingBlock: CIFDUS_clean_linker_0, # of connection points: 2
#     Edge 99, Type (0, 1), BuildingBlock: CIFDUS_clean_linker_0, # of connection points: 2
#     Edge 100, Type (0, 1), BuildingBlock: CIFDUS_clean_linker_0, # of connection points: 2
#     Edge 101, Type (0, 1), BuildingBlock: CIFDUS_clean_linker_0, # of connection points: 2
#     Edge 102, Type (0, 1), BuildingBlock: CIFDUS_clean_linker_0, # of connection points: 2
#     Edge 103, Type (0, 1), BuildingBlock: CIFDUS_clean_linker_0, # of connection points: 2
#     Edge 104, Type (0, 1), BuildingBlock: CIFDUS_clean_linker_0, # of connection points: 2
#     Edge 105, Type (0, 1), BuildingBlock: CIFDUS_clean_linker_0, # of connection points: 2
#     Edge 106, Type (0, 1), BuildingBlock: CIFDUS_clean_linker_0, # of connection points: 2
#     Edge 107, Type (0, 1), BuildingBlock: CIFDUS_clean_linker_0, # of connection points: 2
#     Edge 108, Type (0, 1), BuildingBlock: CIFDUS_clean_linker_0, # of connection points: 2
#     Edge 109, Type (0, 1), BuildingBlock: CIFDUS_clean_linker_0, # of connection points: 2
#     Edge 110, Type (0, 1), BuildingBlock: CIFDUS_clean_linker_0, # of connection points: 2
#     Edge 111, Type (0, 1), BuildingBlock: CIFDUS_clean_linker_0, # of connection points: 2
#     Edge 112, Type (0, 1), BuildingBlock: CIFDUS_clean_linker_0, # of connection points: 2
#     Edge 113, Type (0, 1), BuildingBlock: CIFDUS_clean_linker_0, # of connection points: 2
#     Edge 114, Type (0, 1), BuildingBlock: CIFDUS_clean_linker_0, # of connection points: 2
#     Edge 115, Type (0, 1), BuildingBlock: CIFDUS_clean_linker_0, # of connection points: 2
#     Edge 116, Type (0, 1), BuildingBlock: CIFDUS_clean_linker_0, # of connection points: 2
#     Edge 117, Type (0, 1), BuildingBlock: CIFDUS_clean_linker_0, # of connection points: 2
#     Edge 118, Type (0, 1), BuildingBlock: CIFDUS_clean_linker_0, # of connection points: 2
#     Edge 119, Type (0, 1), BuildingBlock: CIFDUS_clean_linker_0, # of connection points: 2
#     Edge 120, Type (0, 1), BuildingBlock: CIFDUS_clean_linker_0, # of connection points: 2
#     Edge 121, Type (0, 1), BuildingBlock: CIFDUS_clean_linker_0, # of connection points: 2
#     Edge 122, Type (0, 1), BuildingBlock: CIFDUS_clean_linker_0, # of connection points: 2
#     Edge 123, Type (0, 1), BuildingBlock: CIFDUS_clean_linker_0, # of connection points: 2
#     Edge 124, Type (0, 1), BuildingBlock: CIFDUS_clean_linker_0, # of connection points: 2
#     Edge 125, Type (0, 1), BuildingBlock: CIFDUS_clean_linker_0, # of connection points: 2
#     Edge 126, Type (0, 1), BuildingBlock: CIFDUS_clean_linker_0, # of connection points: 2
#     Edge 127, Type (0, 1), BuildingBlock: CIFDUS_clean_linker_0, # of connection points: 2
#     Edge 128, Type (0, 1), BuildingBlock: CIFDUS_clean_linker_0, # of connection points: 2
#     Edge 129, Type (0, 1), BuildingBlock: CIFDUS_clean_linker_0, # of connection points: 2
#     Edge 130, Type (0, 1), BuildingBlock: CIFDUS_clean_linker_0, # of connection points: 2
#     Edge 131, Type (0, 1), BuildingBlock: CIFDUS_clean_linker_0, # of connection points: 2
#     Edge 132, Type (0, 1), BuildingBlock: CIFDUS_clean_linker_0, # of connection points: 2
#     Edge 133, Type (0, 1), BuildingBlock: CIFDUS_clean_linker_0, # of connection points: 2
#     Edge 134, Type (0, 1), BuildingBlock: CIFDUS_clean_linker_0, # of connection points: 2
#     Edge 135, Type (0, 1), BuildingBlock: CIFDUS_clean_linker_0, # of connection points: 2
# Relax obj value: 0.306
# Max RMSD: 0.286
# Mean RMSD: 0.260
data_MOF--net-ibd--node1-KUFVIS_clean_sbu_0--node2-IZENUY_clean_sbu_0--edge1-CIFDUS_clean_linker_0
_symmetry_space_group_name_H-M    P1
_symmetry_Int_Tables_number       1
_symmetry_cell_setting            triclinic
loop_
_symmetry_equiv_pos_as_xyz
'x, y, z'
_cell_length_a     42.74858
_cell_length_b     42.761539
_cell_length_c     42.797152
_cell_angle_alpha  91.176543
_cell_angle_beta   91.235683
_cell_angle_gamma 91.268064
loop_
_atom_site_label
_atom_site_type_symbol
_atom_site_fract_x
_atom_site_fract_y
_atom_site_fract_z
_atom_type_partial_charge
Mn0 Mn 0.98527 0.24626 0.38102 0.0
Mn1 Mn 0.01534 0.31406 0.35489 0.0
C2 C 0.01892 0.27689 0.41249 0.0
C3 C 0.94873 0.21611 0.40678 0.0
C4 C 0.03479 0.24991 0.3315 0.0
O5 O 0.95561 0.25663 0.34449 0.0
O6 O 0.97378 0.30563 0.33449 0.0
C7 C 0.97047 0.35885 0.38119 0.0
N8 N 0.00034 0.34892 0.37853 0.0
C9 C 0.01987 0.39032 0.41314 0.0
C10 C 0.98934 0.4012 0.41588 0.0
C11 C 0.96452 0.38531 0.39991 0.0
C12 C 0.02437 0.36388 0.39403 0.0
H13 H 0.95135 0.3465 0.36933 0.0
C14 C 0.95368 0.283 0.33091 0.0
O15 O 0.96664 0.20402 0.38593 0.0
O16 O 0.95032 0.24632 0.41104 0.0
N17 N 0.0553 0.32447 0.374 0.0
C18 C 0.0831 0.30996 0.37039 0.0
C19 C 0.11021 0.32251 0.38545 0.0
C20 C 0.10851 0.34988 0.40397 0.0
C21 C 0.0797 0.36448 0.40725 0.0
C22 C 0.05352 0.35108 0.39142 0.0
H23 H 0.08466 0.28896 0.35615 0.0
O24 O 0.01574 0.24717 0.41751 0.0
O25 O 0.00298 0.28724 0.38907 0.0
O26 O 0.0194 0.23476 0.35138 0.0
O27 O 0.03344 0.27963 0.32921 0.0
C28 C 0.07581 0.3914 0.42617 0.0
C29 C 0.0459 0.40427 0.42918 0.0
H30 H 0.98463 0.42148 0.43046 0.0
H31 H 0.94083 0.39336 0.40215 0.0
H32 H 0.13235 0.31105 0.38286 0.0
H33 H 0.12941 0.3593 0.41582 0.0
H34 H 0.09558 0.40212 0.4389 0.0
H35 H 0.04311 0.42468 0.44419 0.0
Mn36 Mn 0.03772 0.73713 0.621 0.0
Mn37 Mn 0.97065 0.69601 0.63209 0.0
C38 C 0.02156 0.69748 0.58628 0.0
C39 C 0.06352 0.77938 0.5982 0.0
C40 C 0.03021 0.6875 0.67064 0.0
O41 O 0.01468 0.76476 0.65205 0.0
O42 O 0.96933 0.73684 0.65454 0.0
C43 C 0.92534 0.73562 0.59889 0.0
N44 N 0.93898 0.70741 0.60254 0.0
C45 C 0.90489 0.6833 0.56309 0.0
C46 C 0.89038 0.71207 0.559 0.0
C47 C 0.90078 0.73837 0.57686 0.0
C48 C 0.92932 0.68201 0.58531 0.0
H49 H 0.93311 0.75581 0.61277 0.0
C50 C 0.98682 0.76072 0.66189 0.0
O51 O 0.07594 0.76528 0.6219 0.0
O52 O 0.03581 0.76985 0.58898 0.0
N53 N 0.96919 0.65602 0.61114 0.0
C54 C 0.98681 0.6305 0.61675 0.0
C55 C 0.9805 0.60258 0.59968 0.0
C56 C 0.95597 0.60113 0.57727 0.0
C57 C 0.93799 0.62764 0.5721 0.0
C58 C 0.94541 0.65482 0.58977 0.0
H59 H 0.00557 0.63148 0.63407 0.0
O60 O 0.05079 0.70624 0.58794 0.0
O61 O 0.00317 0.71185 0.60514 0.0
O62 O 0.04779 0.7066 0.6561 0.0
O63 O 0.00143 0.68226 0.66337 0.0
C64 C 0.91322 0.62828 0.54986 0.0
C65 C 0.8966 0.65605 0.54545 0.0
H66 H 0.87152 0.71432 0.54194 0.0
H67 H 0.8898 0.76069 0.57371 0.0
H68 H 0.99447 0.58221 0.60381 0.0
H69 H 0.95123 0.57959 0.56409 0.0
H70 H 0.90698 0.60765 0.53578 0.0
H71 H 0.87789 0.65637 0.52799 0.0
Mn72 Mn 0.4863 0.76551 0.90624 0.0
Mn73 Mn 0.53426 0.82349 0.88289 0.0
C74 C 0.52731 0.7839 0.93804 0.0
C75 C 0.44365 0.74743 0.93332 0.0
C76 C 0.53547 0.75684 0.8569 0.0
O77 O 0.46086 0.78521 0.87117 0.0
O78 O 0.49295 0.82654 0.86125 0.0
C79 C 0.50129 0.87743 0.91021 0.0
N80 N 0.52775 0.8605 0.90759 0.0
C81 C 0.55538 0.89427 0.94505 0.0
C82 C 0.52862 0.91243 0.94759 0.0
C83 C 0.50142 0.90389 0.93019 0.0
C84 C 0.55395 0.8683 0.92453 0.0
H85 H 0.48014 0.87055 0.89748 0.0
C86 C 0.46709 0.81092 0.85754 0.0
O87 O 0.45555 0.73055 0.9112 0.0
O88 O 0.45454 0.77584 0.93732 0.0
N89 N 0.57462 0.82293 0.90323 0.0
C90 C 0.59773 0.80176 0.89977 0.0
C91 C 0.62618 0.8063 0.91644 0.0
C92 C 0.63061 0.83253 0.93646 0.0
C93 C 0.60654 0.85405 0.93957 0.0
C94 C 0.57883 0.84852 0.92207 0.0
H95 H 0.59448 0.7815 0.88449 0.0
O96 O 0.51588 0.75589 0.94168 0.0
O97 O 0.51497 0.7994 0.91552 0.0
O98 O 0.51502 0.74575 0.87495 0.0
O99 O 0.54345 0.78587 0.85679 0.0
C100 C 0.6087 0.88037 0.95992 0.0
C101 C 0.58312 0.90043 0.9627 0.0
H102 H 0.52852 0.93269 0.96321 0.0
H103 H 0.48052 0.91752 0.93237 0.0
H104 H 0.64461 0.78953 0.91399 0.0
H105 H 0.65244 0.83574 0.94958 0.0
H106 H 0.62975 0.88511 0.97392 0.0
H107 H 0.58487 0.92029 0.97882 0.0
Mn108 Mn 0.51773 0.23731 0.11209 0.0
Mn109 Mn 0.46259 0.18923 0.14089 0.0
C110 C 0.50109 0.19314 0.0839 0.0
C111 C 0.53247 0.27978 0.08267 0.0
C112 C 0.52925 0.19471 0.16636 0.0
O113 O 0.49747 0.26424 0.14552 0.0
O114 O 0.45767 0.23181 0.1589 0.0
C115 C 0.40428 0.21524 0.11471 0.0
N116 N 0.42417 0.19094 0.11737 0.0
C117 C 0.39034 0.15757 0.08498 0.0
C118 C 0.36944 0.1822 0.08198 0.0
C119 C 0.37646 0.21117 0.09688 0.0
C120 C 0.41749 0.16287 0.1034 0.0
H121 H 0.40962 0.23756 0.12609 0.0
C122 C 0.47251 0.25825 0.16047 0.0
O123 O 0.55068 0.2694 0.1046 0.0
O124 O 0.505 0.26648 0.07899 0.0
N125 N 0.46549 0.14764 0.12399 0.0
C126 C 0.48908 0.12702 0.12757 0.0
C127 C 0.48644 0.09739 0.11288 0.0
C128 C 0.45963 0.08929 0.09466 0.0
C129 C 0.43567 0.11093 0.09129 0.0
C130 C 0.43952 0.14003 0.10666 0.0
H131 H 0.50981 0.13324 0.14137 0.0
O132 O 0.52844 0.2057 0.07906 0.0
O133 O 0.48506 0.20643 0.10567 0.0
O134 O 0.53985 0.21253 0.14555 0.0
O135 O 0.50078 0.18531 0.16735 0.0
C136 C 0.40842 0.10499 0.07282 0.0
C137 C 0.38572 0.12826 0.06975 0.0
H138 H 0.34814 0.17927 0.06795 0.0
H139 H 0.36052 0.23034 0.09454 0.0
H140 H 0.50508 0.08086 0.11548 0.0
H141 H 0.45778 0.06649 0.08319 0.0
H142 H 0.40482 0.08271 0.06062 0.0
H143 H 0.36504 0.12354 0.0552 0.0
Mn144 Mn 0.00412 0.75319 0.14767 0.0
Mn145 Mn 0.06159 0.80041 0.12085 0.0
C146 C 0.04743 0.76709 0.17869 0.0
C147 C 0.95934 0.74108 0.17545 0.0
C148 C 0.05328 0.73286 0.10085 0.0
O149 O 0.98173 0.77445 0.11149 0.0
O150 O 0.02278 0.80345 0.09491 0.0
C151 C 0.03333 0.86174 0.13427 0.0
N152 N 0.05746 0.84177 0.13787 0.0
C153 C 0.08732 0.88011 0.1686 0.0
C154 C 0.06283 0.90113 0.16511 0.0
C155 C 0.0357 0.89187 0.14794 0.0
C156 C 0.08371 0.85046 0.15431 0.0
H157 H 0.01245 0.85475 0.12105 0.0
C158 C 0.99417 0.79373 0.09259 0.0
O159 O 0.96934 0.72258 0.15367 0.0
O160 O 0.97366 0.76811 0.17905 0.0
N161 N 0.10008 0.79974 0.14447 0.0
C162 C 0.12044 0.77589 0.1476 0.0
C163 C 0.1481 0.78075 0.1655 0.0
C164 C 0.15462 0.81012 0.1798 0.0
C165 C 0.13339 0.83436 0.17607 0.0
C166 C 0.10626 0.82816 0.15788 0.0
H167 H 0.11546 0.75325 0.13674 0.0
O168 O 0.0323 0.74098 0.18315 0.0
O169 O 0.03767 0.78357 0.15548 0.0
O170 O 0.02873 0.72794 0.11632 0.0
O171 O 0.06869 0.75873 0.10184 0.0
C172 C 0.13778 0.86424 0.1902 0.0
C173 C 0.11482 0.88713 0.18637 0.0
H174 H 0.06447 0.92431 0.1758 0.0
H175 H 0.01664 0.90791 0.14527 0.0
H176 H 0.16433 0.7619 0.16835 0.0
H177 H 0.17587 0.81371 0.19377 0.0
H178 H 0.15852 0.86971 0.20443 0.0
H179 H 0.11824 0.90985 0.19775 0.0
Mn180 Mn 0.49511 0.7471 0.3845 0.0
Mn181 Mn 0.43236 0.7219 0.42424 0.0
C182 C 0.45763 0.71374 0.36134 0.0
C183 C 0.52048 0.78195 0.35219 0.0
C184 C 0.49855 0.70016 0.43658 0.0
O185 O 0.49315 0.77891 0.42067 0.0
O186 O 0.44719 0.76289 0.4415 0.0
C187 C 0.38612 0.76942 0.40673 0.0
N188 N 0.39479 0.73898 0.40732 0.0
C189 C 0.34649 0.72184 0.3818 0.0
C190 C 0.33705 0.75301 0.38096 0.0
C191 C 0.35696 0.77689 0.39345 0.0
C192 C 0.3758 0.71582 0.39534 0.0
H193 H 0.40136 0.78785 0.41628 0.0
C194 C 0.47053 0.78204 0.43952 0.0
O195 O 0.5359 0.76377 0.37052 0.0
O196 O 0.49013 0.78085 0.35343 0.0
N197 N 0.41608 0.68244 0.40837 0.0
C198 C 0.42923 0.65375 0.40976 0.0
C199 C 0.41239 0.62732 0.39801 0.0
C200 C 0.38226 0.63065 0.38494 0.0
C201 C 0.36922 0.66041 0.38374 0.0
C202 C 0.38698 0.68585 0.3961 0.0
H203 H 0.45232 0.65101 0.41989 0.0
O204 O 0.48576 0.71493 0.35047 0.0
O205 O 0.45294 0.73137 0.38546 0.0
O206 O 0.51087 0.71407 0.41384 0.0
O207 O 0.46967 0.70238 0.44323 0.0
C208 C 0.33947 0.66588 0.37042 0.0
C209 C 0.32814 0.69658 0.36937 0.0
H210 H 0.31466 0.75887 0.37058 0.0
H211 H 0.34987 0.80101 0.39282 0.0
H212 H 0.42263 0.60443 0.39901 0.0
H213 H 0.36943 0.61023 0.37574 0.0
H214 H 0.32522 0.64666 0.36065 0.0
H215 H 0.30536 0.70053 0.35879 0.0
Mn216 Mn 0.50724 0.24942 0.63131 0.0
Mn217 Mn 0.56791 0.29799 0.61498 0.0
C218 C 0.54701 0.2603 0.6677 0.0
C219 C 0.45998 0.235 0.65354 0.0
C220 C 0.5622 0.23186 0.59028 0.0
O221 O 0.48903 0.27374 0.59478 0.0
O222 O 0.53273 0.30213 0.58456 0.0
C223 C 0.53714 0.35818 0.62788 0.0
N224 N 0.56106 0.33835 0.63333 0.0
C225 C 0.58679 0.37564 0.66869 0.0
C226 C 0.56248 0.3965 0.66338 0.0
C227 C 0.5375 0.38767 0.64297 0.0
C228 C 0.58515 0.34656 0.65303 0.0
H229 H 0.51797 0.35158 0.61211 0.0
C230 C 0.50435 0.29335 0.57838 0.0
O231 O 0.47191 0.21852 0.63121 0.0
O232 O 0.47364 0.26182 0.66038 0.0
N233 N 0.60338 0.29657 0.64293 0.0
C234 C 0.624 0.27306 0.6469 0.0
C235 C 0.64968 0.27761 0.66764 0.0
C236 C 0.65408 0.30636 0.68379 0.0
C237 C 0.63275 0.33034 0.67902 0.0
C238 C 0.6076 0.32445 0.65806 0.0
H239 H 0.62071 0.25093 0.63454 0.0
O240 O 0.53133 0.23403 0.66838 0.0
O241 O 0.53992 0.27888 0.64519 0.0
O242 O 0.53529 0.22647 0.60118 0.0
O243 O 0.57775 0.2573 0.59539 0.0
C244 C 0.63519 0.35967 0.69461 0.0
C245 C 0.61227 0.38234 0.68938 0.0
H246 H 0.56262 0.41923 0.67503 0.0
H247 H 0.5186 0.4036 0.63883 0.0
H248 H 0.66602 0.25898 0.67121 0.0
H249 H 0.67381 0.30971 0.6999 0.0
H250 H 0.65436 0.36488 0.71099 0.0
H251 H 0.61416 0.40463 0.70184 0.0
Mn252 Mn 0.00601 0.26516 0.86297 0.0
Mn253 Mn 0.94804 0.21607 0.88396 0.0
C254 C 0.98881 0.2241 0.82998 0.0
C255 C 0.02393 0.30775 0.83495 0.0
C256 C 0.01345 0.21686 0.91382 0.0
O257 O 0.98406 0.2903 0.89734 0.0
O258 O 0.94251 0.25746 0.90481 0.0
C259 C 0.89461 0.24676 0.85292 0.0
N260 N 0.91222 0.22096 0.85702 0.0
C261 C 0.8818 0.19197 0.81776 0.0
C262 C 0.86291 0.21802 0.81371 0.0
C263 C 0.86944 0.24558 0.83127 0.0
C264 C 0.9064 0.19445 0.8399 0.0
H265 H 0.90007 0.26821 0.86569 0.0
C266 C 0.95761 0.28352 0.90954 0.0
O267 O 0.04049 0.29695 0.85795 0.0
O268 O 0.99584 0.2962 0.8308 0.0
N269 N 0.95126 0.17569 0.86412 0.0
C270 C 0.97331 0.15363 0.86879 0.0
C271 C 0.97095 0.12506 0.85202 0.0
C272 C 0.94597 0.11946 0.83064 0.0
C273 C 0.92356 0.14249 0.82622 0.0
C274 C 0.92695 0.17039 0.84383 0.0
H275 H 0.99263 0.1578 0.88511 0.0
O276 O 0.017 0.23553 0.82771 0.0
O277 O 0.9731 0.23583 0.85258 0.0
O278 O 0.02535 0.23692 0.89566 0.0
O279 O 0.98448 0.20852 0.91242 0.0
C280 C 0.89853 0.13921 0.80435 0.0
C281 C 0.87772 0.16397 0.80006 0.0
H282 H 0.84368 0.21731 0.79678 0.0
H283 H 0.85531 0.26598 0.82789 0.0
H284 H 0.98842 0.10746 0.85547 0.0
H285 H 0.94445 0.09755 0.81748 0.0
H286 H 0.89545 0.118 0.79025 0.0
H287 H 0.85896 0.16143 0.7827 0.0
Mn288 Mn 0.39093 0.00601 0.24131 0.0
Mn289 Mn 0.37622 0.04559 0.30788 0.0
C290 C 0.42445 0.04609 0.25926 0.0
C291 C 0.41665 0.96488 0.21709 0.0
C292 C 0.33914 0.05352 0.24675 0.0
O293 O 0.35907 0.97752 0.26271 0.0
O294 O 0.35668 0.00311 0.30946 0.0
C295 C 0.41295 0.00826 0.35252 0.0
N296 N 0.40681 0.03628 0.33942 0.0
C297 C 0.44787 0.06203 0.37031 0.0
C298 C 0.45431 0.03352 0.38444 0.0
C299 C 0.43684 0.0065 0.37542 0.0
C300 C 0.42366 0.06238 0.34774 0.0
H301 H 0.3999 0.98737 0.34533 0.0
C302 C 0.35014 0.97971 0.29105 0.0
O303 O 0.39334 0.9782 0.20308 0.0
O304 O 0.42366 0.97419 0.24533 0.0
N305 N 0.39472 0.08683 0.30898 0.0
C306 C 0.3871 0.11196 0.29152 0.0
C307 C 0.40314 0.14065 0.29689 0.0
C308 C 0.4268 0.14323 0.32015 0.0
C309 C 0.43417 0.11708 0.33789 0.0
C310 C 0.41715 0.08919 0.33173 0.0
H311 H 0.36897 0.11014 0.27358 0.0
O312 O 0.42424 0.03756 0.23003 0.0
O313 O 0.40473 0.03131 0.27639 0.0
O314 O 0.35592 0.03614 0.2295 0.0
O315 O 0.3441 0.05728 0.27624 0.0
C316 C 0.45822 0.11743 0.36095 0.0
C317 C 0.46512 0.0899 0.37709 0.0
H318 H 0.47292 0.03201 0.40189 0.0
H319 H 0.44191 0.98433 0.38594 0.0
H320 H 0.39737 0.1607 0.28304 0.0
H321 H 0.43934 0.16531 0.32399 0.0
H322 H 0.47191 0.1386 0.36607 0.0
H323 H 0.48407 0.0903 0.39432 0.0
Mn324 Mn 0.26891 0.12294 0.52216 0.0
Mn325 Mn 0.21827 0.14289 0.46454 0.0
C326 C 0.22468 0.09235 0.50976 0.0
C327 C 0.31137 0.09588 0.54163 0.0
C328 C 0.22289 0.17604 0.52764 0.0
O329 O 0.29537 0.15303 0.49676 0.0
O330 O 0.25961 0.16323 0.45881 0.0
C331 C 0.24804 0.11317 0.40991 0.0
N332 N 0.22277 0.11637 0.42847 0.0
C333 C 0.19171 0.08102 0.39538 0.0
C334 C 0.21735 0.07751 0.37582 0.0
C335 C 0.24567 0.09356 0.3832 0.0
C336 C 0.19542 0.101 0.4216 0.0
H337 H 0.26981 0.12555 0.4154 0.0
C338 C 0.28708 0.16609 0.47131 0.0
O339 O 0.30117 0.1205 0.556 0.0
O340 O 0.29822 0.08827 0.51481 0.0
N341 N 0.17761 0.12369 0.46761 0.0
C342 C 0.15586 0.128 0.49 0.0
C343 C 0.12673 0.11226 0.48703 0.0
C344 C 0.12024 0.09239 0.46104 0.0
C345 C 0.14299 0.08837 0.43826 0.0
C346 C 0.17156 0.10472 0.44244 0.0
H347 H 0.16081 0.14314 0.51007 0.0
O348 O 0.23736 0.0914 0.53755 0.0
O349 O 0.23756 0.11176 0.49088 0.0
O350 O 0.24437 0.15948 0.53921 0.0
O351 O 0.21112 0.17154 0.50023 0.0
C352 C 0.13861 0.0684 0.41185 0.0
C353 C 0.16291 0.06482 0.39036 0.0
H354 H 0.2157 0.06222 0.35533 0.0
H355 H 0.26561 0.09082 0.36831 0.0
H356 H 0.10935 0.11537 0.50477 0.0
H357 H 0.09782 0.08015 0.45893 0.0
H358 H 0.11679 0.05539 0.40804 0.0
H359 H 0.15942 0.04907 0.37038 0.0
Mn360 Mn 0.13344 0.0178 0.72764 0.0
Mn361 Mn 0.11087 0.08118 0.76875 0.0
C362 C 0.16661 0.06102 0.73496 0.0
C363 C 0.15909 0.97092 0.72254 0.0
C364 C 0.08643 0.06459 0.70363 0.0
O365 O 0.09815 -6e-05 0.7534 0.0
O366 O 0.08501 0.04396 0.77985 0.0
C367 C 0.12866 0.06256 0.83289 0.0
N368 N 0.13144 0.08281 0.8089 0.0
C369 C 0.16747 0.11595 0.83911 0.0
C370 C 0.16485 0.09553 0.86418 0.0
C371 C 0.1454 0.06869 0.86102 0.0
C372 C 0.14993 0.10883 0.81177 0.0
H373 H 0.11379 0.04186 0.83059 0.0
C374 C 0.08181 0.01454 0.77347 0.0
O375 O 0.13762 0.97874 0.70247 0.0
O376 O 0.16395 0.98925 0.74679 0.0
N377 N 0.13523 0.118 0.76015 0.0
C378 C 0.13694 0.13403 0.73303 0.0
C379 C 0.15666 0.16064 0.73172 0.0
C380 C 0.17444 0.17047 0.75826 0.0
C381 C 0.17235 0.15356 0.78589 0.0
C382 C 0.15213 0.12733 0.78587 0.0
H383 H 0.12359 0.12635 0.71249 0.0
O384 O 0.16949 0.04272 0.71068 0.0
O385 O 0.1434 0.05436 0.75281 0.0
O386 O 0.10173 0.03972 0.70013 0.0
O387 O 0.08854 0.08234 0.72793 0.0
C388 C 0.19001 0.16131 0.81324 0.0
C389 C 0.18749 0.1426 0.83987 0.0
H390 H 0.178 0.09998 0.88579 0.0
H391 H 0.1434 0.05271 0.8802 0.0
H392 H 0.1583 0.17345 0.71025 0.0
H393 H 0.18983 0.19085 0.75707 0.0
H394 H 0.2059 0.18142 0.81393 0.0
H395 H 0.2015 0.14857 0.86062 0.0
Mn396 Mn 0.2454 0.87999 0.01032 0.0
Mn397 Mn 0.21322 0.89821 0.94076 0.0
C398 C 0.21114 0.84547 0.98382 0.0
C399 C 0.28384 0.8552 0.03933 0.0
C400 C 0.19496 0.9283 0.00261 0.0
O401 O 0.2741 0.91572 0.99571 0.0
O402 O 0.25374 0.92092 0.94678 0.0
C403 C 0.25921 0.86878 0.89929 0.0
N404 N 0.22915 0.87154 0.90869 0.0
C405 C 0.21113 0.83139 0.87194 0.0
C406 C 0.24182 0.82849 0.86152 0.0
C407 C 0.26598 0.84719 0.87534 0.0
C408 C 0.20578 0.85341 0.89579 0.0
H409 H 0.27791 0.88271 0.9102 0.0
C410 C 0.27442 0.9273 0.96827 0.0
O411 O 0.26689 0.87664 0.05206 0.0
O412 O 0.28012 0.8502 0.00951 0.0
N413 N 0.17399 0.87677 0.93259 0.0
C414 C 0.14606 0.88102 0.94665 0.0
C415 C 0.11955 0.86361 0.936 0.0
C416 C 0.12201 0.84207 0.91101 0.0
C417 C 0.15097 0.83816 0.89683 0.0
C418 C 0.17649 0.85645 0.9082 0.0
H419 H 0.144 0.89756 0.96585 0.0
O420 O 0.21525 0.84344 0.0138 0.0
O421 O 0.22632 0.86806 0.97109 0.0
O422 O 0.21141 0.91107 0.02014 0.0
O423 O 0.1949 0.92624 0.97273 0.0
C424 C 0.15569 0.81628 0.87242 0.0
C425 C 0.18577 0.8128 0.86007 0.0
H426 H 0.24718 0.8117 0.84321 0.0
H427 H 0.28979 0.84484 0.86768 0.0
H428 H 0.09729 0.8667 0.94711 0.0
H429 H 0.1016 0.82841 0.90311 0.0
H430 H 0.13645 0.80162 0.86335 0.0
H431 H 0.18922 0.79552 0.84168 0.0
Mn432 Mn 0.27545 0.38735 0.01451 0.0
Mn433 Mn 0.33895 0.36615 0.05552 0.0
C434 C 0.29675 0.41972 0.05395 0.0
C435 C 0.25408 0.41563 0.97389 0.0
C436 C 0.27437 0.33554 0.06168 0.0
O437 O 0.294 0.35349 0.98658 0.0
O438 O 0.33956 0.34633 0.01328 0.0
C439 C 0.38773 0.39832 0.01914 0.0
N440 N 0.37332 0.3938 0.04681 0.0
C441 C 0.40581 0.43364 0.0725 0.0
C442 C 0.42127 0.43841 0.04438 0.0
C443 C 0.41214 0.42072 0.01757 0.0
C444 C 0.38176 0.41087 0.07269 0.0
H445 H 0.38043 0.38518 0.99836 0.0
C446 C 0.32121 0.34172 0.98941 0.0
O447 O 0.23791 0.39331 0.98658 0.0
O448 O 0.28305 0.41914 0.98291 0.0
N449 N 0.34053 0.38496 0.09655 0.0
C450 C 0.32202 0.37888 0.12132 0.0
C451 C 0.3278 0.39493 0.1499 0.0
C452 C 0.35251 0.41709 0.1527 0.0
C453 C 0.37128 0.42292 0.1269 0.0
C454 C 0.36467 0.4059 0.09914 0.0
H455 H 0.30296 0.36191 0.11932 0.0
O456 O 0.26757 0.42197 0.04564 0.0
O457 O 0.31132 0.39757 0.03998 0.0
O458 O 0.25969 0.35432 0.04422 0.0
O459 O 0.30407 0.3371 0.06638 0.0
C460 C 0.39576 0.44555 0.12741 0.0
C461 C 0.41291 0.45101 0.10018 0.0
H462 H 0.43996 0.45582 0.04301 0.0
H463 H 0.42375 0.42448 0.9957 0.0
H464 H 0.31315 0.39035 0.16968 0.0
H465 H 0.35664 0.4297 0.17466 0.0
H466 H 0.40124 0.45926 0.14846 0.0
H467 H 0.43134 0.46882 0.10072 0.0
Mn468 Mn 0.74303 0.12277 0.98204 0.0
Mn469 Mn 0.79921 0.10772 0.03575 0.0
C470 C 0.75812 0.15973 0.01989 0.0
C471 C 0.72627 0.14478 0.93566 0.0
C472 C 0.73414 0.07809 0.03591 0.0
O473 O 0.7661 0.08714 0.96134 0.0
O474 O 0.80412 0.08056 0.99815 0.0
C475 C 0.85543 0.12933 0.00239 0.0
N476 N 0.83646 0.13145 0.02748 0.0
C477 C 0.8691 0.17239 0.05114 0.0
C478 C 0.88902 0.17057 0.0256 0.0
C479 C 0.88214 0.14895 0.00112 0.0
C480 C 0.843 0.15201 0.05129 0.0
H481 H 0.85018 0.11285 0.98344 0.0
C482 C 0.7909 0.0741 0.97148 0.0
O483 O 0.70963 0.12324 0.94894 0.0
O484 O 0.75371 0.15132 0.9479 0.0
N485 N 0.7965 0.1338 0.07247 0.0
C486 C 0.77359 0.13436 0.0941 0.0
C487 C 0.77616 0.15573 0.11943 0.0
C488 C 0.8022 0.17629 0.12224 0.0
C489 C 0.82546 0.17531 0.09966 0.0
C490 C 0.82176 0.15336 0.07504 0.0
H491 H 0.75338 0.11883 0.09186 0.0
O492 O 0.73017 0.16025 0.00748 0.0
O493 O 0.77506 0.13663 0.01112 0.0
O494 O 0.72336 0.0922 0.01224 0.0
O495 O 0.76197 0.0824 0.04684 0.0
C496 C 0.85178 0.19576 0.10021 0.0
C497 C 0.87362 0.19426 0.07601 0.0
H498 H 0.90946 0.18588 0.02436 0.0
H499 H 0.89733 0.1475 0.98125 0.0
H500 H 0.75801 0.15649 0.13666 0.0
H501 H 0.80392 0.19297 0.14163 0.0
H502 H 0.85519 0.21307 0.11889 0.0
H503 H 0.8935 0.21042 0.07645 0.0
Mn504 Mn 0.11624 0.49119 0.2446 0.0
Mn505 Mn 0.13294 0.43083 0.19601 0.0
C506 C 0.08125 0.47487 0.20564 0.0
C507 C 0.0934 0.51309 0.28857 0.0
C508 C 0.1617 0.4956 0.19048 0.0
O509 O 0.15098 0.4696 0.2687 0.0
O510 O 0.1601 0.43031 0.23418 0.0
C511 C 0.11206 0.37811 0.23489 0.0
N512 N 0.11012 0.39409 0.20773 0.0
C513 C 0.07237 0.35675 0.18578 0.0
C514 C 0.07408 0.33982 0.21346 0.0
C515 C 0.09396 0.35059 0.23814 0.0
C516 C 0.09113 0.38388 0.1838 0.0
H517 H 0.12735 0.38627 0.2539 0.0
C518 C 0.16569 0.44525 0.26007 0.0
O519 O 0.11595 0.52743 0.27446 0.0
O520 O 0.086 0.48492 0.27868 0.0
N521 N 0.1078 0.42869 0.15844 0.0
C522 C 0.10736 0.44883 0.13419 0.0
C523 C 0.08748 0.4423 0.10821 0.0
C524 C 0.06846 0.41506 0.10735 0.0
C525 C 0.06951 0.39456 0.13249 0.0
C526 C 0.08984 0.40226 0.15772 0.0
H527 H 0.12187 0.46984 0.13481 0.0
O528 O 0.08082 0.50333 0.21666 0.0
O529 O 0.10255 0.457 0.21725 0.0
O530 O 0.14791 0.50763 0.21371 0.0
O531 O 0.1575 0.46716 0.18143 0.0
C532 C 0.05076 0.36712 0.13378 0.0
C533 C 0.05228 0.34816 0.16034 0.0
H534 H 0.06003 0.31869 0.21614 0.0
H535 H 0.09533 0.3377 0.25961 0.0
H536 H 0.08674 0.45827 0.08893 0.0
H537 H 0.053 0.41022 0.08737 0.0
H538 H 0.03478 0.36059 0.11464 0.0
H539 H 0.03744 0.32735 0.16123 0.0
Mn540 Mn 0.73431 0.87659 0.48921 0.0
Mn541 Mn 0.79162 0.85783 0.53974 0.0
C542 C 0.75353 0.91294 0.526 0.0
C543 C 0.7179 0.89983 0.44353 0.0
C544 C 0.72439 0.83304 0.54347 0.0
O545 O 0.75312 0.83825 0.46828 0.0
O546 O 0.79456 0.83132 0.50115 0.0
C547 C 0.84648 0.87975 0.50446 0.0
N548 N 0.8291 0.88092 0.53074 0.0
C549 C 0.86261 0.92166 0.55351 0.0
C550 C 0.88116 0.92047 0.52692 0.0
C551 C 0.87301 0.89947 0.50227 0.0
C552 C 0.83663 0.90118 0.55454 0.0
H553 H 0.83994 0.86417 0.48518 0.0
C554 C 0.77856 0.82481 0.47598 0.0
O555 O 0.69987 0.87982 0.4574 0.0
O556 O 0.74636 0.90327 0.45432 0.0
N557 N 0.79098 0.88293 0.57733 0.0
C558 C 0.76937 0.88284 0.60028 0.0
C559 C 0.77349 0.90331 0.6262 0.0
C560 C 0.7997 0.92369 0.62823 0.0
C561 C 0.82164 0.92335 0.60435 0.0
C562 C 0.81654 0.90213 0.57929 0.0
H563 H 0.74905 0.86741 0.59877 0.0
O564 O 0.72553 0.91555 0.51428 0.0
O565 O 0.76836 0.88855 0.51671 0.0
O566 O 0.71337 0.84915 0.52129 0.0
O567 O 0.75345 0.83361 0.55146 0.0
C568 C 0.84792 0.94381 0.60404 0.0
C569 C 0.86837 0.94299 0.57863 0.0
H570 H 0.90144 0.93589 0.52498 0.0
H571 H 0.88698 0.8987 0.48148 0.0
H572 H 0.75637 0.90355 0.64446 0.0
H573 H 0.80256 0.93976 0.64804 0.0
H574 H 0.85233 0.96063 0.62299 0.0
H575 H 0.8882 0.95919 0.57841 0.0
Mn576 Mn 0.88395 0.0196 0.2746 0.0
Mn577 Mn 0.90329 0.94901 0.24542 0.0
C578 C 0.8509 0.99315 0.23917 0.0
C579 C 0.85918 0.05044 0.31122 0.0
C580 C 0.93387 0.01044 0.22585 0.0
O581 O 0.9184 0.00579 0.30504 0.0
O582 O 0.92487 0.95647 0.28648 0.0
C583 C 0.87313 0.90857 0.29192 0.0
N584 N 0.87662 0.91705 0.26168 0.0
C585 C 0.83848 0.87816 0.24365 0.0
C586 C 0.83478 0.86874 0.27457 0.0
C587 C 0.85211 0.88409 0.29881 0.0
C588 C 0.85988 0.9026 0.2382 0.0
H589 H 0.88611 0.92054 0.31066 0.0
C590 C 0.93029 0.97861 0.30668 0.0
O591 O 0.88125 0.06201 0.29428 0.0
O592 O 0.8529 0.0207 0.30832 0.0
N593 N 0.88332 0.93898 0.20588 0.0
C594 C 0.88821 0.95214 0.17762 0.0
C595 C 0.87188 0.94015 0.15101 0.0
C596 C 0.85083 0.91471 0.1537 0.0
C597 C 0.84638 0.90139 0.18298 0.0
C598 C 0.86355 0.91411 0.20862 0.0
H599 H 0.90434 0.97171 0.17539 0.0
O600 O 0.84908 0.0232 0.24293 0.0
O601 O 0.87197 0.97969 0.25608 0.0
O602 O 0.91639 0.0283 0.24156 0.0
O603 O 0.93173 0.98055 0.22657 0.0
C604 C 0.82515 0.87637 0.18783 0.0
C605 C 0.82117 0.86479 0.21815 0.0
H606 H 0.81841 0.85003 0.28001 0.0
H607 H 0.84916 0.87716 0.32277 0.0
H608 H 0.87542 0.95058 0.12849 0.0
H609 H 0.83804 0.90574 0.13318 0.0
H610 H 0.81141 0.86618 0.16849 0.0
H611 H 0.80438 0.84591 0.22167 0.0
Mn612 Mn 0.26029 0.642 0.47389 0.0
Mn613 Mn 0.31322 0.61937 0.52809 0.0
C614 C 0.27582 0.67507 0.51519 0.0
C615 C 0.24482 0.66601 0.42815 0.0
C616 C 0.24651 0.59442 0.52446 0.0
O617 O 0.28152 0.60633 0.45136 0.0
O618 O 0.31636 0.59382 0.48932 0.0
C619 C 0.37102 0.63882 0.49603 0.0
N620 N 0.35242 0.64035 0.52145 0.0
C621 C 0.389 0.67549 0.54854 0.0
C622 C 0.40865 0.67409 0.52275 0.0
C623 C 0.39957 0.65574 0.49636 0.0
C624 C 0.3609 0.658 0.54694 0.0
H625 H 0.36411 0.62481 0.47565 0.0
C626 C 0.30389 0.58996 0.46195 0.0
O627 O 0.22764 0.64453 0.44071 0.0
O628 O 0.27209 0.67219 0.44118 0.0
N629 N 0.31261 0.64294 0.56656 0.0
C630 C 0.29011 0.64331 0.58861 0.0
C631 C 0.29504 0.66145 0.61608 0.0
C632 C 0.3231 0.67884 0.62065 0.0
C633 C 0.346 0.67794 0.59768 0.0
C634 C 0.33984 0.65931 0.57087 0.0
H635 H 0.2685 0.63001 0.58516 0.0
O636 O 0.24866 0.67835 0.50161 0.0
O637 O 0.29219 0.65209 0.50497 0.0
O638 O 0.23832 0.61059 0.50125 0.0
O639 O 0.27372 0.59639 0.53737 0.0
C640 C 0.3744 0.69527 0.60006 0.0
C641 C 0.39587 0.69407 0.5755 0.0
H642 H 0.43063 0.68722 0.52283 0.0
H643 H 0.41455 0.65466 0.47634 0.0
H644 H 0.27722 0.66213 0.63364 0.0
H645 H 0.32669 0.69305 0.64172 0.0
H646 H 0.37974 0.71 0.62046 0.0
H647 H 0.4174 0.70789 0.57739 0.0
Mn648 Mn 0.37152 0.48934 0.78084 0.0
Mn649 Mn 0.38904 0.4263 0.73696 0.0
C650 C 0.33635 0.4694 0.74354 0.0
C651 C 0.34698 0.51064 0.82378 0.0
C652 C 0.41857 0.49117 0.72883 0.0
O653 O 0.40759 0.47037 0.80554 0.0
O654 O 0.41247 0.42531 0.7774 0.0
C655 C 0.36089 0.37652 0.77519 0.0
N656 N 0.3629 0.39134 0.74742 0.0
C657 C 0.32284 0.35743 0.72402 0.0
C658 C 0.32076 0.34147 0.75222 0.0
C659 C 0.3398 0.35114 0.77795 0.0
C660 C 0.34449 0.3824 0.7226 0.0
H661 H 0.37503 0.38423 0.79517 0.0
C662 C 0.41908 0.44326 0.80115 0.0
O663 O 0.36836 0.52661 0.80945 0.0
O664 O 0.34254 0.48168 0.81503 0.0
N665 N 0.3669 0.42488 0.69754 0.0
C666 C 0.37034 0.44396 0.67267 0.0
C667 C 0.35222 0.4381 0.64532 0.0
C668 C 0.33081 0.4127 0.6438 0.0
C669 C 0.32778 0.3933 0.66963 0.0
C670 C 0.34673 0.40006 0.69612 0.0
H671 H 0.3867 0.46356 0.6737 0.0
O672 O 0.33466 0.49829 0.75294 0.0
O673 O 0.35888 0.45371 0.75565 0.0
O674 O 0.40185 0.50555 0.74852 0.0
O675 O 0.41655 0.46155 0.7239 0.0
C676 C 0.30621 0.36794 0.67035 0.0
C677 C 0.30372 0.35005 0.69755 0.0
H678 H 0.30432 0.32205 0.75452 0.0
H679 H 0.33806 0.33919 0.79991 0.0
H680 H 0.35463 0.45324 0.62552 0.0
H681 H 0.3166 0.40849 0.62281 0.0
H682 H 0.2911 0.3623 0.65029 0.0
H683 H 0.28671 0.33092 0.69799 0.0
Mn684 Mn 0.62212 0.0014 0.77653 0.0
Mn685 Mn 0.63776 0.94537 0.72289 0.0
C686 C 0.58643 0.98789 0.73683 0.0
C687 C 0.59847 0.02119 0.82083 0.0
C688 C 0.66606 0.01032 0.72181 0.0
O689 O 0.6567 0.97797 0.79893 0.0
O690 O 0.66677 0.94381 0.75966 0.0
C691 C 0.62028 0.89024 0.76014 0.0
N692 N 0.61669 0.90733 0.73384 0.0
C693 C 0.57865 0.87013 0.71215 0.0
C694 C 0.58205 0.85208 0.73894 0.0
C695 C 0.60291 0.86222 0.76307 0.0
C696 C 0.59666 0.89779 0.7105 0.0
H697 H 0.63628 0.8979 0.77875 0.0
C698 C 0.67244 0.95574 0.78701 0.0
O699 O 0.6219 0.03581 0.80843 0.0
O700 O 0.59147 0.99335 0.80972 0.0
N701 N 0.61092 0.94414 0.68646 0.0
C702 C 0.60895 0.96519 0.66308 0.0
C703 C 0.58816 0.95916 0.6377 0.0
C704 C 0.56982 0.93149 0.63652 0.0
C705 C 0.57246 0.91004 0.66073 0.0
C706 C 0.59365 0.91725 0.68537 0.0
H707 H 0.62287 0.98656 0.66397 0.0
O708 O 0.5867 0.01573 0.74939 0.0
O709 O 0.60775 0.96923 0.74692 0.0
O710 O 0.65444 0.01959 0.74735 0.0
O711 O 0.66006 0.98352 0.70914 0.0
C712 C 0.55448 0.88207 0.66165 0.0
C713 C 0.55763 0.86209 0.6873 0.0
H714 H 0.56859 0.83053 0.74136 0.0
H715 H 0.60557 0.84847 0.78387 0.0
H716 H 0.5862 0.97587 0.61914 0.0
H717 H 0.55364 0.92704 0.61703 0.0
H718 H 0.53784 0.87591 0.64296 0.0
H719 H 0.54336 0.84088 0.68796 0.0
Mn720 Mn 0.76555 0.62167 0.01161 0.0
Mn721 Mn 0.71521 0.64713 0.95656 0.0
C722 C 0.72589 0.58917 0.99102 0.0
C723 C 0.80989 0.59454 0.02627 0.0
C724 C 0.71402 0.66825 0.0247 0.0
O725 O 0.78971 0.65846 0.99382 0.0
O726 O 0.7548 0.67227 0.9563 0.0
C727 C 0.74937 0.63116 0.89906 0.0
N728 N 0.72342 0.62814 0.91679 0.0
C729 C 0.69838 0.5936 0.87829 0.0
C730 C 0.72475 0.59655 0.85955 0.0
C731 C 0.75035 0.61539 0.87 0.0
C732 C 0.69852 0.61028 0.90682 0.0
H733 H 0.76925 0.64534 0.90709 0.0
C734 C 0.7815 0.67504 0.9706 0.0
O735 O 0.79738 0.61455 0.04526 0.0
O736 O 0.79806 0.59226 0.99816 0.0
N737 N 0.67683 0.62314 0.9547 0.0
C738 C 0.65457 0.62037 0.97683 0.0
C739 C 0.62815 0.60091 0.9708 0.0
C740 C 0.62496 0.5844 0.94216 0.0
C741 C 0.64828 0.58746 0.9198 0.0
C742 C 0.67396 0.60741 0.92701 0.0
H743 H 0.65715 0.6326 -0.00092 0.0
O744 O 0.73705 0.58463 0.01895 0.0
O745 O 0.73684 0.61362 0.97731 0.0
O746 O 0.73665 0.6518 0.03427 0.0
O747 O 0.70408 0.66794 0.99635 0.0
C748 C 0.64742 0.57086 0.89101 0.0
C749 C 0.6724 0.57401 0.87022 0.0
H750 H 0.72577 0.58412 0.83729 0.0
H751 H 0.77088 0.6176 0.85578 0.0
H752 H 0.6104 0.59844 0.98829 0.0
H753 H 0.60472 0.56915 0.93773 0.0
H754 H 0.62787 0.55523 0.88482 0.0
H755 H 0.67169 0.56075 0.84836 0.0
Mn756 Mn 0.88789 0.52045 0.7423 0.0
Mn757 Mn 0.86002 0.5458 0.81051 0.0
C758 C 0.91956 0.55025 0.77666 0.0
C759 C 0.91307 0.48333 0.71289 0.0
C760 C 0.8387 0.56905 0.74685 0.0
O761 O 0.84902 0.49242 0.74863 0.0
O762 O 0.83982 0.5049 0.79935 0.0
C763 C 0.88508 0.49856 0.85343 0.0
N764 N 0.88285 0.52897 0.84498 0.0
C765 C 0.91739 0.54611 0.88739 0.0
C766 C 0.91977 0.51501 0.89673 0.0
C767 C 0.9036 0.49112 0.87962 0.0
C768 C 0.8985 0.5521 0.86114 0.0
H769 H 0.87303 0.48013 0.84012 0.0
C770 C 0.83532 0.48785 0.77456 0.0
O771 O 0.895 0.50342 0.69973 0.0
O772 O 0.91524 0.48371 0.74319 0.0
N773 N 0.87903 0.58516 0.82321 0.0
C774 C 0.87581 0.61369 0.81004 0.0
C775 C 0.89092 0.64007 0.82405 0.0
C776 C 0.90912 0.63688 0.85147 0.0
C777 C 0.91202 0.60732 0.86467 0.0
C778 C 0.89615 0.58192 0.84984 0.0
H779 H 0.86177 0.61634 0.78905 0.0
O780 O 0.92608 0.5487 0.7472 0.0
O781 O 0.89459 0.53501 0.78424 0.0
O782 O 0.86055 0.55682 0.73153 0.0
O783 O 0.83527 0.56494 0.77615 0.0
C784 C 0.93066 0.60193 0.89149 0.0
C785 C 0.93347 0.57132 0.90274 0.0
H786 H 0.93417 0.50916 0.91682 0.0
H787 H 0.90553 0.46702 0.88652 0.0
H788 H 0.8886 0.6628 0.8137 0.0
H789 H 0.92101 0.65723 0.86202 0.0
H790 H 0.94338 0.62107 0.90331 0.0
H791 H 0.94829 0.5674 0.92307 0.0
Mn792 Mn 0.7493 0.37727 0.52952 0.0
Mn793 Mn 0.69355 0.39406 0.4763 0.0
C794 C 0.71152 0.34005 0.51339 0.0
C795 C 0.79539 0.3544 0.54536 0.0
C796 C 0.69577 0.42119 0.54252 0.0
O797 O 0.76911 0.41467 0.50679 0.0
O798 O 0.73145 0.42027 0.46928 0.0
C799 C 0.724 0.37026 0.41929 0.0
N800 N 0.69931 0.36979 0.43887 0.0
C801 C 0.6735 0.32846 0.40841 0.0
C802 C 0.69842 0.3289 0.38765 0.0
C803 C 0.72383 0.34982 0.39319 0.0
C804 C 0.6749 0.34949 0.43395 0.0
H805 H 0.74386 0.38582 0.42377 0.0
C806 C 0.75849 0.42706 0.48165 0.0
O807 O 0.78236 0.37551 0.5626 0.0
O808 O 0.78381 0.34945 0.51737 0.0
N809 N 0.65639 0.36886 0.48111 0.0
C810 C 0.63549 0.36953 0.50471 0.0
C811 C 0.60913 0.34932 0.50325 0.0
C812 C 0.60451 0.32862 0.47758 0.0
C813 C 0.62634 0.32831 0.45359 0.0
C814 C 0.65203 0.3492 0.45617 0.0
H815 H 0.63892 0.38533 0.52455 0.0
O816 O 0.72464 0.33843 0.54089 0.0
O817 O 0.71932 0.36449 0.498 0.0
O818 O 0.71905 0.40561 0.55172 0.0
O819 O 0.68495 0.41958 0.51443 0.0
C820 C 0.62409 0.30746 0.42767 0.0
C821 C 0.64772 0.30744 0.40517 0.0
H822 H 0.6985 0.31298 0.36763 0.0
H823 H 0.74334 0.35001 0.37749 0.0
H824 H 0.59246 0.3496 0.52193 0.0
H825 H 0.58432 0.31283 0.47671 0.0
H826 H 0.60462 0.29089 0.42516 0.0
H827 H 0.64607 0.29085 0.38571 0.0
Mn828 Mn 0.63471 0.52164 0.24791 0.0
Mn829 Mn 0.60894 0.56956 0.30493 0.0
C830 C 0.66441 0.56472 0.2649 0.0
C831 C 0.66359 0.47882 0.23183 0.0
C832 C 0.5825 0.56857 0.2387 0.0
O833 O 0.60188 0.4946 0.26852 0.0
O834 O 0.58706 0.52801 0.30678 0.0
C835 C 0.63233 0.53684 0.3608 0.0
N836 N 0.63164 0.56296 0.34312 0.0
C837 C 0.66616 0.59102 0.37956 0.0
C838 C 0.6671 0.56447 0.39822 0.0
C839 C 0.65015 0.53726 0.38876 0.0
C840 C 0.64768 0.58936 0.35213 0.0
H841 H 0.61942 0.51584 0.3536 0.0
C842 C 0.58566 0.50132 0.29238 0.0
O843 O 0.6415 0.48977 0.21412 0.0
O844 O 0.6679 0.49194 0.2592 0.0
N845 N 0.62926 0.60992 0.30547 0.0
C846 C 0.62784 0.63259 0.28361 0.0
C847 C 0.64481 0.6608 0.2887 0.0
C848 C 0.66307 0.66537 0.31617 0.0
C849 C 0.66421 0.64167 0.3383 0.0
C850 C 0.6466 0.61416 0.33207 0.0
H851 H 0.61411 0.62905 0.26231 0.0
O852 O 0.66781 0.55313 0.23694 0.0
O853 O 0.64284 0.55149 0.28127 0.0
O854 O 0.60008 0.54741 0.22789 0.0
O855 O 0.58421 0.57882 0.26691 0.0
C856 C 0.68265 0.64401 0.36598 0.0
C857 C 0.68355 0.61874 0.38663 0.0
H858 H 0.68111 0.56457 0.41962 0.0
H859 H 0.65092 0.51662 0.40295 0.0
H860 H 0.64395 0.67891 0.27143 0.0
H861 H 0.67634 0.68705 0.31989 0.0
H862 H 0.69655 0.66498 0.3714 0.0
H863 H 0.69816 0.62065 0.40761 0.0
Fe864 Fe 0.13199 0.11185 0.15853 0.0
Fe865 Fe 0.10161 0.16722 0.12661 0.0
O866 O 0.12968 0.13763 0.12697 0.0
Fe867 Fe 0.1555 0.13382 0.09557 0.0
O868 O 0.14011 0.09507 0.08613 0.0
O869 O 0.14425 0.07811 0.13419 0.0
O870 O 0.09239 0.09792 0.15133 0.0
C871 C 0.06875 0.11491 0.15149 0.0
C872 C 0.194 0.11987 0.14875 0.0
O873 O 0.07163 0.14424 0.14765 0.0
C874 C 0.15645 0.1969 0.10414 0.0
O875 O 0.11963 0.1411 0.18828 0.0
O876 O 0.1177 0.18465 0.16218 0.0
O877 O 0.18811 0.11814 0.1195 0.0
O878 O 0.17209 0.12394 0.16756 0.0
C879 C 0.09805 0.14956 0.0655 0.0
O880 O 0.12678 0.19553 0.10585 0.0
O881 O 0.17208 0.17227 0.10378 0.0
C882 C 0.11924 0.17084 0.18776 0.0
O883 O 0.08382 0.15156 0.09084 0.0
O884 O 0.12776 0.14878 0.0656 0.0
C885 C 0.14111 0.07275 0.10491 0.0
Fe886 Fe 0.11259 0.85091 0.3866 0.0
Fe887 Fe 0.13542 0.91444 0.36161 0.0
O888 O 0.14046 0.88243 0.38683 0.0
Fe889 Fe 0.17385 0.88157 0.41235 0.0
O890 O 0.17637 0.83928 0.41171 0.0
O891 O 0.1423 0.82285 0.37585 0.0
O892 O 0.10271 0.85272 0.34519 0.0
C893 C 0.11667 0.86516 0.32284 0.0
C894 C 0.12742 0.86134 0.45057 0.0
O895 O 0.1339 0.88925 0.32685 0.0
C896 C 0.15857 0.94521 0.41401 0.0
O897 O 0.08067 0.87668 0.39656 0.0
O898 O 0.093 0.91412 0.36404 0.0
O899 O 0.14931 0.88115 0.44671 0.0
O900 O 0.11741 0.84359 0.42836 0.0
C901 C 0.19984 0.90179 0.35799 0.0
O902 O 0.13645 0.94262 0.39414 0.0
O903 O 0.17781 0.92364 0.41742 0.0
C904 C 0.07398 0.9014 0.38236 0.0
O905 O 0.17712 0.91997 0.35463 0.0
O906 O 0.20045 0.88204 0.37959 0.0
C907 C 0.16816 0.82018 0.39013 0.0
Fe908 Fe 0.36987 0.90882 0.66924 0.0
Fe909 Fe 0.35099 0.87775 0.6066 0.0
O910 O 0.37254 0.87748 0.64212 0.0
Fe911 Fe 0.39666 0.84572 0.65089 0.0
O912 O 0.37395 0.83655 0.68484 0.0
O913 O 0.37634 0.88454 0.70375 0.0
O914 O 0.32867 0.90101 0.67355 0.0
C915 C 0.30871 0.89998 0.65146 0.0
C916 C 0.43204 0.89867 0.67344 0.0
O917 O 0.31721 0.89793 0.62324 0.0
C918 C 0.41034 0.8545 0.59004 0.0
O919 O 0.36278 0.93886 0.63965 0.0
O920 O 0.36981 0.91377 0.59535 0.0
O921 O 0.42551 0.86958 0.67423 0.0
O922 O 0.41126 0.91793 0.66637 0.0
C923 C 0.34392 0.8164 0.62052 0.0
O924 O 0.38131 0.85767 0.58407 0.0
O925 O 0.42056 0.8533 0.61776 0.0
C926 C 0.36885 0.93904 0.61077 0.0
O927 O 0.33058 0.84171 0.6155 0.0
O928 O 0.37259 0.81625 0.6286 0.0
C929 C 0.37254 0.85536 0.70778 0.0
Fe930 Fe 0.41102 0.15668 0.8724 0.0
Fe931 Fe 0.37646 0.10434 0.83419 0.0
O932 O 0.37873 0.13055 0.86668 0.0
Fe933 Fe 0.34847 0.13048 0.8941 0.0
O934 O 0.33868 0.17005 0.88446 0.0
O935 O 0.38724 0.18799 0.88949 0.0
O936 O 0.40371 0.17453 0.83537 0.0
C937 C 0.40044 0.16099 0.8091 0.0
C938 C 0.40209 0.14166 0.93271 0.0
O939 O 0.39548 0.13159 0.80695 0.0
C940 C 0.35648 0.06815 0.88561 0.0
O941 O 0.44012 0.12999 0.85612 0.0
O942 O 0.4128 0.0869 0.84537 0.0
O943 O 0.37307 0.14408 0.92747 0.0
O944 O 0.4206 0.14065 0.9103 0.0
C945 C 0.31516 0.1182 0.83702 0.0
O946 O 0.35742 0.07265 0.85629 0.0
O947 O 0.35714 0.09097 0.9048 0.0
C948 C 0.4385 0.10057 0.85192 0.0
O949 O 0.33927 0.11957 0.82071 0.0
O950 O 0.31774 0.11678 0.86642 0.0
C951 C 0.35795 0.19272 0.88779 0.0
Fe952 Fe 0.61444 0.34102 0.87887 0.0
Fe953 Fe 0.64157 0.40242 0.85461 0.0
O954 O 0.64393 0.37047 0.87998 0.0
Fe955 Fe 0.67578 0.36813 0.90663 0.0
O956 O 0.68769 0.3317 0.889 0.0
O957 O 0.641 0.30923 0.88904 0.0
O958 O 0.62191 0.33156 0.83846 0.0
C959 C 0.61927 0.3509 0.81686 0.0
C960 C 0.6244 0.34771 0.94169 0.0
O961 O 0.62111 0.38008 0.82273 0.0
C962 C 0.66312 0.42998 0.9117 0.0
O963 O 0.58279 0.36766 0.86845 0.0
O964 O 0.60511 0.4144 0.87119 0.0
O965 O 0.65354 0.34806 0.93694 0.0
O966 O 0.60513 0.34887 0.91913 0.0
C967 C 0.70356 0.3907 0.85163 0.0
O968 O 0.66128 0.43047 0.88211 0.0
O969 O 0.66538 0.40451 0.9257 0.0
C970 C 0.58088 0.39714 0.87162 0.0
O971 O 0.678 0.39238 0.83658 0.0
O972 O 0.70382 0.38772 0.88108 0.0
C973 C 0.6704 0.30751 0.88613 0.0
Fe974 Fe 0.83646 0.38168 0.09024 0.0
Fe975 Fe 0.86118 0.39711 0.15634 0.0
O976 O 0.86137 0.37331 0.12226 0.0
Fe977 Fe 0.88659 0.34125 0.12 0.0
O978 O 0.90617 0.35758 0.08691 0.0
O979 O 0.86316 0.36667 0.06016 0.0
O980 O 0.8551 0.41978 0.08596 0.0
C981 C 0.85628 0.44055 0.10738 0.0
C982 C 0.83007 0.31844 0.09209 0.0
O983 O 0.85208 0.43325 0.1356 0.0
C984 C 0.86872 0.33556 0.17989 0.0
O985 O 0.80525 0.39806 0.11433 0.0
O986 O 0.82021 0.38806 0.16242 0.0
O987 O 0.85958 0.31718 0.09502 0.0
O988 O 0.81643 0.3442 0.09322 0.0
C989 C 0.92363 0.38839 0.15056 0.0
O990 O 0.87065 0.36516 0.18314 0.0
O991 O 0.86881 0.32297 0.15306 0.0
C992 C 0.79885 0.39429 0.14286 0.0
O993 O 0.90195 0.40776 0.15198 0.0
O994 O 0.91788 0.35969 0.14468 0.0
C995 C 0.89258 0.363 0.0613 0.0
Fe996 Fe 0.86037 0.62459 0.41126 0.0
Fe997 Fe 0.91833 0.64691 0.377 0.0
O998 O 0.88615 0.6207 0.37992 0.0
Fe999 Fe 0.87943 0.59071 0.35159 0.0
O1000 O 0.84157 0.60607 0.34109 0.0
O1001 O 0.82573 0.60901 0.38939 0.0
O1002 O 0.84947 0.66291 0.39865 0.0
C1003 C 0.86871 0.68553 0.39694 0.0
C1004 C 0.86469 0.56171 0.40924 0.0
O1005 O 0.89781 0.68064 0.39436 0.0
C1006 C 0.9428 0.58803 0.35918 0.0
O1007 O 0.8901 0.64118 0.43883 0.0
O1008 O 0.93419 0.63546 0.41451 0.0
O1009 O 0.86225 0.56287 0.37956 0.0
O1010 O 0.87007 0.58633 0.42532 0.0
C1011 C 0.89914 0.64259 0.31588 0.0
O1012 O 0.94427 0.61776 0.35915 0.0
O1013 O 0.91676 0.57377 0.36047 0.0
C1014 C 0.91962 0.63938 0.43942 0.0
O1015 O 0.90443 0.66003 0.33953 0.0
O1016 O 0.89542 0.61324 0.31881 0.0
C1017 C 0.81981 0.60856 0.36026 0.0
Fe1018 Fe 0.92728 0.84366 0.86902 0.0
Fe1019 Fe 0.87036 0.8721 0.89956 0.0
O1020 O 0.89791 0.87197 0.86959 0.0
Fe1021 Fe 0.89587 0.90021 0.84029 0.0
O1022 O 0.93433 0.91523 0.85103 0.0
O1023 O 0.95697 0.8696 0.85133 0.0
O1024 O 0.94255 0.85687 0.90695 0.0
C1025 C 0.92647 0.85634 0.93129 0.0
C1026 C 0.91206 0.8452 0.80717 0.0
O1027 O 0.89687 0.85605 0.92937 0.0
C1028 C 0.83409 0.88725 0.84612 0.0
O1029 O 0.9026 0.81281 0.88638 0.0
O1030 O 0.85607 0.83377 0.88745 0.0
O1031 O 0.91138 0.87475 0.80928 0.0
O1032 O 0.91359 0.8288 0.83122 0.0
C1033 C 0.88203 0.93409 0.89558 0.0
O1034 O 0.83846 0.88805 0.87549 0.0
O1035 O 0.85701 0.88659 0.82809 0.0
C1036 C 0.87299 0.81007 0.88663 0.0
O1037 O 0.88359 0.91059 0.91276 0.0
O1038 O 0.88024 0.93084 0.86608 0.0
C1039 C 0.95867 0.89923 0.84989 0.0
Fe1040 Fe 0.86762 0.09632 0.65029 0.0
Fe1041 Fe 0.82816 0.1327 0.60281 0.0
O1042 O 0.86394 0.12731 0.62352 0.0
Fe1043 Fe 0.89607 0.15301 0.6173 0.0
O1044 O 0.89792 0.16522 0.65833 0.0
O1045 O 0.89481 0.1177 0.67706 0.0
O1046 O 0.83551 0.11059 0.67362 0.0
C1047 C 0.80808 0.11333 0.66257 0.0
C1048 C 0.92521 0.09436 0.62424 0.0
O1049 O 0.80358 0.11819 0.63383 0.0
C1050 C 0.87358 0.14668 0.55756 0.0
O1051 O 0.84113 0.06939 0.62838 0.0
O1052 O 0.82944 0.09364 0.58486 0.0
O1053 O 0.92562 0.12387 0.62382 0.0
O1054 O 0.90003 0.07942 0.62919 0.0
C1055 C 0.84453 0.19365 0.61559 0.0
O1056 O 0.84614 0.14822 0.56777 0.0
O1057 O 0.89651 0.14241 0.57593 0.0
C1058 C 0.83076 0.06889 0.60049 0.0
O1059 O 0.82431 0.1721 0.61935 0.0
O1060 O 0.87248 0.18718 0.6096 0.0
C1061 C 0.90202 0.14643 0.6804 0.0
Fe1062 Fe 0.64259 0.1069 0.34729 0.0
Fe1063 Fe 0.66452 0.1263 0.41366 0.0
O1064 O 0.63674 0.12829 0.38253 0.0
Fe1065 Fe 0.60306 0.15149 0.3868 0.0
O1066 O 0.61311 0.1751 0.35352 0.0
O1067 O 0.6241 0.13555 0.32232 0.0
O1068 O 0.6799 0.12694 0.34093 0.0
C1069 C 0.70274 0.12635 0.36012 0.0
C1070 C 0.57959 0.09809 0.35275 0.0
O1071 O 0.69822 0.1214 0.38869 0.0
C1072 C 0.60665 0.1286 0.44539 0.0
O1073 O 0.66201 0.07424 0.36592 0.0
O1074 O 0.65882 0.08429 0.4163 0.0
O1075 O 0.57746 0.12612 0.36217 0.0
O1076 O 0.60579 0.08522 0.35099 0.0
C1077 C 0.6509 0.18799 0.41843 0.0
O1078 O 0.63612 0.1308 0.44438 0.0
O1079 O 0.5903 0.12962 0.4205 0.0
C1080 C 0.66232 0.06523 0.39382 0.0
O1081 O 0.67202 0.16838 0.41342 0.0
O1082 O 0.62247 0.18122 0.41225 0.0
C1083 C 0.61655 0.16375 0.32635 0.0
Fe1084 Fe 0.61056 0.84394 0.14851 0.0
Fe1085 Fe 0.6718 0.87265 0.12522 0.0
O1086 O 0.64043 0.87313 0.15151 0.0
Fe1087 Fe 0.63873 0.90294 0.18068 0.0
O1088 O 0.60159 0.91612 0.16502 0.0
O1089 O 0.5791 0.86946 0.16199 0.0
O1090 O 0.60043 0.85495 0.10891 0.0
C1091 C 0.61956 0.85362 0.08689 0.0
C1092 C 0.61741 0.84871 0.21163 0.0
O1093 O 0.64873 0.85553 0.09234 0.0
C1094 C 0.70114 0.89265 0.18283 0.0
O1095 O 0.63625 0.81312 0.13423 0.0
O1096 O 0.68356 0.83409 0.13763 0.0
O1097 O 0.61909 0.87818 0.20933 0.0
O1098 O 0.61907 0.83107 0.1878 0.0
C1099 C 0.66189 0.93528 0.12834 0.0
O1100 O 0.70052 0.8897 0.15333 0.0
O1101 O 0.67608 0.8919 0.19797 0.0
C1102 C 0.6657 0.81024 0.13449 0.0
O1103 O 0.66214 0.91112 0.11089 0.0
O1104 O 0.65791 0.93308 0.15744 0.0
C1105 C 0.57721 0.899 0.16229 0.0
Fe1106 Fe 0.38065 0.68187 0.15921 0.0
Fe1107 Fe 0.33751 0.64433 0.11337 0.0
O1108 O 0.36047 0.6466 0.14843 0.0
Fe1109 Fe 0.36315 0.6134 0.17226 0.0
O1110 O 0.40378 0.62123 0.18505 0.0
O1111 O 0.41835 0.6632 0.15963 0.0
O1112 O 0.38838 0.69256 0.11888 0.0
C1113 C 0.38789 0.67717 0.0932 0.0
C1114 C 0.36028 0.65842 0.21749 0.0
O1115 O 0.37158 0.6522 0.08982 0.0
C1116 C 0.29914 0.61372 0.15279 0.0
O1117 O 0.34453 0.7037 0.15952 0.0
O1118 O 0.32785 0.68591 0.11368 0.0
O1119 O 0.34802 0.63378 0.2058 0.0
O1120 O 0.37678 0.67658 0.20124 0.0
C1121 C 0.36275 0.58325 0.11672 0.0
O1122 O 0.3021 0.63672 0.13497 0.0
O1123 O 0.3228 0.59978 0.16351 0.0
C1124 C 0.32818 0.7069 0.13497 0.0
O1125 O 0.34271 0.60205 0.10641 0.0
O1126 O 0.37881 0.59051 0.14071 0.0
C1127 C 0.42493 0.63894 0.17444 0.0
Fe1128 Fe 0.13281 0.58787 0.86541 0.0
Fe1129 Fe 0.167 0.625 0.91826 0.0
O1130 O 0.13439 0.62001 0.8923 0.0
Fe1131 Fe 0.10343 0.64681 0.89281 0.0
O1132 O 0.09611 0.64412 0.85034 0.0
O1133 O 0.13327 0.61402 0.83248 0.0
O1134 O 0.17528 0.58514 0.86206 0.0
C1135 C 0.19761 0.60452 0.86746 0.0
C1136 C 0.06875 0.59455 0.88081 0.0
O1137 O 0.19413 0.62728 0.88612 0.0
C1138 C 0.11973 0.64042 0.95721 0.0
O1139 O 0.13271 0.55991 0.89699 0.0
O1140 O 0.17267 0.58288 0.92227 0.0
O1141 O 0.07498 0.61621 0.90033 0.0
O1142 O 0.08987 0.58458 0.8632 0.0
C1143 C 0.1525 0.68751 0.90258 0.0
O1144 O 0.14282 0.62329 0.95239 0.0
O1145 O 0.10584 0.65408 0.93511 0.0
C1146 C 0.15516 0.55894 0.9167 0.0
O1147 O 0.16641 0.66774 0.91911 0.0
O1148 O 0.12913 0.67978 0.8856 0.0
C1149 C 0.11309 0.63472 0.82824 0.0
Fe1150 Fe 0.15481 0.39082 0.59043 0.0
Fe1151 Fe 0.09167 0.36485 0.61217 0.0
O1152 O 0.12377 0.39153 0.61725 0.0
Fe1153 Fe 0.12492 0.419 0.64898 0.0
O1154 O 0.16188 0.40424 0.6641 0.0
O1155 O 0.18482 0.40376 0.61875 0.0
O1156 O 0.16377 0.35055 0.5998 0.0
C1157 C 0.14397 0.32824 0.59652 0.0
C1158 C 0.15006 0.45381 0.59881 0.0
O1159 O 0.11494 0.33321 0.59657 0.0
C1160 C 0.06307 0.42089 0.63172 0.0
O1161 O 0.1308 0.37749 0.55687 0.0
O1162 O 0.08266 0.37855 0.57305 0.0
O1163 O 0.14546 0.44956 0.62755 0.0
O1164 O 0.14805 0.43113 0.57933 0.0
C1165 C 0.09786 0.36445 0.6758 0.0
O1166 O 0.06269 0.39162 0.62715 0.0
O1167 O 0.08846 0.43611 0.63601 0.0
C1168 C 0.10174 0.37603 0.55108 0.0
O1169 O 0.0981 0.34881 0.65051 0.0
O1170 O 0.10432 0.39349 0.67637 0.0
C1171 C 0.18645 0.40492 0.6482 0.0
Fe1172 Fe 0.64052 0.63008 0.62084 0.0
Fe1173 Fe 0.61339 0.60646 0.6816 0.0
O1174 O 0.61266 0.63266 0.6504 0.0
Fe1175 Fe 0.58392 0.66151 0.64877 0.0
O1176 O 0.56821 0.64503 0.61278 0.0
O1177 O 0.61339 0.64311 0.58939 0.0
O1178 O 0.62746 0.59099 0.61041 0.0
C1179 C 0.62699 0.56847 0.62875 0.0
C1180 C 0.63859 0.69305 0.6283 0.0
O1181 O 0.62873 0.57324 0.65817 0.0
C1182 C 0.59986 0.66494 0.7102 0.0
O1183 O 0.67237 0.61657 0.64724 0.0
O1184 O 0.65176 0.62009 0.69369 0.0
O1185 O 0.60889 0.69061 0.62848 0.0
O1186 O 0.65499 0.6691 0.62973 0.0
C1187 C 0.55092 0.60811 0.67048 0.0
O1188 O 0.5984 0.63518 0.71051 0.0
O1189 O 0.59849 0.67911 0.68479 0.0
C1190 C 0.67541 0.61974 0.67681 0.0
O1191 O 0.57487 0.59159 0.67106 0.0
O1192 O 0.55361 0.63771 0.66867 0.0
C1193 C 0.5836 0.6417 0.58829 0.0
Fe1194 Fe 0.41517 0.34341 0.36916 0.0
Fe1195 Fe 0.38238 0.39841 0.33903 0.0
O1196 O 0.38341 0.36897 0.36728 0.0
Fe1197 Fe 0.35254 0.365 0.3936 0.0
O1198 O 0.34333 0.32592 0.37868 0.0
O1199 O 0.39175 0.30996 0.38271 0.0
O1200 O 0.40663 0.32918 0.32994 0.0
C1201 C 0.40505 0.34621 0.30637 0.0
C1202 C 0.40632 0.35237 0.43109 0.0
O1203 O 0.40294 0.3756 0.30913 0.0
C1204 C 0.3606 0.42805 0.39349 0.0
O1205 O 0.44435 0.37238 0.35576 0.0
O1206 O 0.41823 0.416 0.35459 0.0
O1207 O 0.37707 0.35006 0.42567 0.0
O1208 O 0.42496 0.35604 0.4089 0.0
C1209 C 0.32132 0.38017 0.33702 0.0
O1210 O 0.36183 0.42642 0.36395 0.0
O1211 O 0.36063 0.40371 0.40959 0.0
C1212 C 0.44372 0.40201 0.35668 0.0
O1213 O 0.34622 0.38251 0.32198 0.0
O1214 O 0.32217 0.37937 0.36659 0.0
C1215 C 0.36264 0.30408 0.37992 0.0
H1216 H 0.07156 0.2709 0.28402 0.0
H1217 H 0.0418 0.18666 0.3301 0.0
H1218 H 0.06904 0.15495 0.29227 0.0
H1219 H 0.09668 0.15035 0.24295 0.0
H1220 H 0.12601 0.23404 0.19604 0.0
H1221 H 0.10423 0.26638 0.23746 0.0
C1222 C 0.07126 0.24565 0.28596 0.0
C1223 C 0.0541 0.23138 0.30969 0.0
C1224 C 0.08699 0.22722 0.2639 0.0
C1225 C 0.05439 0.19852 0.31194 0.0
C1226 C 0.07006 0.18018 0.29029 0.0
C1227 C 0.09903 0.17563 0.24218 0.0
C1228 C 0.11267 0.18966 0.21626 0.0
C1229 C 0.08583 0.19419 0.26575 0.0
C1230 C 0.11537 0.22255 0.21562 0.0
C1231 C 0.10276 0.24114 0.23923 0.0
H1232 H 0.0397 0.819 0.55621 0.0
H1233 H 0.12709 0.79 0.59719 0.0
H1234 H 0.15591 0.81798 0.55705 0.0
H1235 H 0.1554 0.8432 0.5051 0.0
H1236 H 0.06708 0.86863 0.46354 0.0
H1237 H 0.03951 0.85003 0.50914 0.0
C1238 C 0.06509 0.81935 0.55679 0.0
C1239 C 0.08121 0.8021 0.57934 0.0
C1240 C 0.08134 0.8347 0.53325 0.0
C1241 C 0.11411 0.80307 0.58002 0.0
C1242 C 0.1306 0.81886 0.5569 0.0
C1243 C 0.13026 0.84552 0.50667 0.0
C1244 C 0.11316 0.85728 0.48123 0.0
C1245 C 0.11439 0.83371 0.53264 0.0
C1246 C 0.08058 0.85971 0.48302 0.0
C1247 C 0.06482 0.84893 0.50897 0.0
H1248 H 0.42445 0.7793 0.81967 0.0
H1249 H 0.45756 0.87219 0.84693 0.0
H1250 H 0.42468 0.89468 0.80673 0.0
H1251 H 0.39351 0.88769 0.75915 0.0
H1252 H 0.36473 0.79491 0.72708 0.0
H1253 H 0.38792 0.77279 0.77425 0.0
C1254 C 0.42389 0.80446 0.81714 0.0
C1255 C 0.44362 0.824 0.83604 0.0
C1256 C 0.40576 0.8173 0.79299 0.0
C1257 C 0.44284 0.85659 0.8325 0.0
C1258 C 0.424 0.86953 0.80949 0.0
C1259 C 0.39151 0.86269 0.76275 0.0
C1260 C 0.37789 0.84295 0.73938 0.0
C1261 C 0.40633 0.85005 0.7889 0.0
C1262 C 0.37543 0.81061 0.74461 0.0
C1263 C 0.38891 0.79792 0.77145 0.0
H1264 H 0.44513 0.20524 0.05933 0.0
H1265 H 0.52298 0.14405 0.04907 0.0
H1266 H 0.49833 0.1208 0.00126 0.0
H1267 H 0.45574 0.12116 0.96062 0.0
H1268 H 0.3768 0.1807 0.97496 0.0
H1269 H 0.40037 0.20083 0.02366 0.0
C1270 C 0.45607 0.18583 0.04746 0.0
C1271 C 0.48514 0.17545 0.0582 0.0
C1272 C 0.44161 0.1725 0.02071 0.0
C1273 C 0.50015 0.15179 0.04146 0.0
C1274 C 0.48611 0.13864 0.0142 0.0
C1275 C 0.44355 0.13807 0.97483 0.0
C1276 C 0.4147 0.14953 0.96423 0.0
C1277 C 0.457 0.14921 0.00333 0.0
C1278 C 0.39893 0.17134 0.98275 0.0
C1279 C 0.41244 0.18301 0.01053 0.0
H1280 H 0.04414 0.82604 0.20028 0.0
H1281 H 0.09145 0.73966 0.21569 0.0
H1282 H 0.12002 0.76369 0.26083 0.0
H1283 H 0.12853 0.8087 0.29761 0.0
H1284 H 0.08347 0.89577 0.27932 0.0
H1285 H 0.05748 0.87244 0.23264 0.0
C1286 C 0.06153 0.81282 0.21287 0.0
C1287 C 0.06661 0.78155 0.20423 0.0
C1288 C 0.0782 0.827 0.23801 0.0
C1289 C 0.08774 0.76399 0.22174 0.0
C1290 C 0.10404 0.77774 0.24738 0.0
C1291 C 0.11382 0.8227 0.28267 0.0
C1292 C 0.10802 0.85386 0.29132 0.0
C1293 C 0.09923 0.80917 0.25585 0.0
C1294 C 0.08857 0.87191 0.2725 0.0
C1295 C 0.07348 0.85847 0.24614 0.0
H1296 H 0.49759 0.78767 0.4963 0.0
H1297 H 0.43856 0.83461 0.43037 0.0
H1298 H 0.41597 0.86533 0.47272 0.0
H1299 H 0.40522 0.86968 0.52889 0.0
H1300 H 0.46382 0.82151 0.59478 0.0
H1301 H 0.49454 0.80059 0.55226 0.0
C1302 C 0.48106 0.80589 0.49122 0.0
C1303 C 0.46971 0.80918 0.46059 0.0
C1304 C 0.46731 0.82238 0.51579 0.0
C1305 C 0.44778 0.83218 0.45397 0.0
C1306 C 0.43448 0.84928 0.4782 0.0
C1307 C 0.42505 0.85504 0.53388 0.0
C1308 C 0.43171 0.84644 0.56473 0.0
C1309 C 0.4427 0.84308 0.5093 0.0
C1310 C 0.45793 0.82811 0.57111 0.0
C1311 C 0.47556 0.81612 0.54682 0.0
H1312 H 0.44005 0.25878 0.70875 0.0
H1313 H 0.43183 0.17697 0.64821 0.0
H1314 H 0.40994 0.14681 0.69071 0.0
H1315 H 0.40077 0.1417 0.74731 0.0
H1316 H 0.41054 0.22398 0.80737 0.0
H1317 H 0.42413 0.25553 0.76302 0.0
C1318 C 0.43266 0.2346 0.70453 0.0
C1319 C 0.43803 0.22012 0.67544 0.0
C1320 C 0.42104 0.21709 0.72934 0.0
C1321 C 0.42815 0.18874 0.67044 0.0
C1322 C 0.41591 0.17133 0.69487 0.0
C1323 C 0.40555 0.16657 0.75063 0.0
C1324 C 0.40534 0.18011 0.7809 0.0
C1325 C 0.41358 0.18489 0.72483 0.0
C1326 C 0.4111 0.21258 0.78456 0.0
C1327 C 0.4188 0.23083 0.75912 0.0
H1328 H 0.99702 0.17841 0.96139 0.0
H1329 H 0.07706 0.22426 0.92092 0.0
H1330 H 0.11095 0.20457 0.96224 0.0
H1331 H 0.11747 0.17755 0.01225 0.0
H1332 H 0.037 0.13382 0.05375 0.0
H1333 H 0.004 0.14902 0.0096 0.0
C1334 C 0.0219 0.18394 0.96141 0.0
C1335 C 0.03424 0.20311 0.93807 0.0
C1336 C 0.04134 0.17284 0.98553 0.0
C1337 C 0.06667 0.20984 0.93862 0.0
C1338 C 0.08619 0.19853 0.96227 0.0
C1339 C 0.09286 0.1708 0.01127 0.0
C1340 C 0.07974 0.15456 0.03626 0.0
C1341 C 0.07374 0.18041 0.98615 0.0
C1342 C 0.04767 0.14639 0.03485 0.0
C1343 C 0.02873 0.15517 0.00965 0.0
H1344 H 0.32324 0.05866 0.1844 0.0
H1345 H 0.29369 0.08545 0.2769 0.0
H1346 H 0.24791 0.11018 0.25465 0.0
H1347 H 0.21452 0.12198 0.20948 0.0
H1348 H 0.24327 0.09564 0.11672 0.0
H1349 H 0.29109 0.07358 0.13853 0.0
C1350 C 0.30687 0.06999 0.19971 0.0
C1351 C 0.31202 0.0698 0.2324 0.0
C1352 C 0.28034 0.08441 0.18673 0.0
C1353 C 0.29053 0.08497 0.25172 0.0
C1354 C 0.2642 0.0992 0.23901 0.0
C1355 C 0.23134 0.1117 0.19391 0.0
C1356 C 0.22503 0.11036 0.16145 0.0
C1357 C 0.25866 0.09875 0.20662 0.0
C1358 C 0.24737 0.09709 0.14177 0.0
C1359 C 0.27471 0.08426 0.15426 0.0
H1360 H 0.23941 0.05982 0.45943 0.0
H1361 H 0.17111 0.06386 0.53176 0.0
H1362 H 0.1418 0.01941 0.5066 0.0
H1363 H 0.13698 0.97878 0.46368 0.0
H1364 H 0.2055 0.97847 0.39118 0.0
H1365 H 0.23334 0.02272 0.41641 0.0
C1366 C 0.21784 0.05122 0.46949 0.0
C1367 C 0.20677 0.06533 0.49673 0.0
C1368 C 0.20117 0.02666 0.45463 0.0
C1369 C 0.17964 0.05338 0.51042 0.0
C1370 C 0.16291 0.02823 0.49594 0.0
C1371 C 0.15736 0.98929 0.45305 0.0
C1372 C 0.16904 0.97611 0.42543 0.0
C1373 C 0.17337 0.01483 0.46782 0.0
C1374 C 0.19596 0.98891 0.41212 0.0
C1375 C 0.21207 0.01383 0.42672 0.0
H1376 H 0.17227 0.94841 0.66497 0.0
H1377 H 0.19788 0.94075 0.76254 0.0
H1378 H 0.24527 0.91336 0.74846 0.0
H1379 H 0.28315 0.90022 0.70873 0.0
H1380 H 0.25995 0.91217 0.61106 0.0
H1381 H 0.20767 0.9291 0.62485 0.0
C1382 C 0.18772 0.93985 0.68316 0.0
C1383 C 0.18182 0.94677 0.71474 0.0
C1384 C 0.21566 0.92561 0.67483 0.0
C1385 C 0.20209 0.93578 0.73808 0.0
C1386 C 0.22928 0.92039 0.73002 0.0
C1387 C 0.26659 0.90621 0.69037 0.0
C1388 C 0.2757 0.90571 0.65896 0.0
C1389 C 0.23699 0.91663 0.6985 0.0
C1390 C 0.25369 0.91282 0.63545 0.0
C1391 C 0.2238 0.92251 0.64333 0.0
H1392 H 0.29874 0.93586 0.91162 0.0
H1393 H 0.30363 0.97183 0.00653 0.0
H1394 H 0.33363 0.01773 0.98942 0.0
H1395 H 0.35117 0.0507 0.94627 0.0
H1396 H 0.34376 0.01471 0.85122 0.0
H1397 H 0.32219 0.96542 0.86976 0.0
C1398 C 0.30687 0.95344 0.92872 0.0
C1399 C 0.29861 0.95077 0.96021 0.0
C1400 C 0.32324 0.97989 0.91859 0.0
C1401 C 0.30971 0.97342 0.98216 0.0
C1402 C 0.32657 -0.00024 0.97231 0.0
C1403 C 0.34523 0.03194 0.92961 0.0
C1404 C 0.34842 0.0367 0.89729 0.0
C1405 C 0.33233 0.00378 0.94038 0.0
C1406 C 0.34116 0.01191 0.87613 0.0
C1407 C 0.32878 0.9837 0.88671 0.0
H1408 H 0.29649 0.95601 0.26466 0.0
H1409 H 0.35654 0.95052 0.34637 0.0
H1410 H 0.31642 0.92028 0.37304 0.0
H1411 H 0.26121 0.90314 0.37617 0.0
H1412 H 0.19948 0.91398 0.29639 0.0
H1413 H 0.24299 0.93378 0.26582 0.0
C1414 C 0.30103 0.94725 0.2879 0.0
C1415 C 0.3293 0.95533 0.30355 0.0
C1416 C 0.27724 0.9312 0.30364 0.0
C1417 C 0.33485 0.94453 0.33392 0.0
C1418 C 0.31186 0.92738 0.34924 0.0
C1419 C 0.2576 0.90903 0.35184 0.0
C1420 C 0.22734 0.90729 0.3385 0.0
C1421 C 0.28248 0.92171 0.33483 0.0
C1422 C 0.22269 0.91537 0.30711 0.0
C1423 C 0.24751 0.92676 0.28966 0.0
H1424 H 0.33898 0.04484 0.51685 0.0
H1425 H 0.32995 0.09765 0.60305 0.0
H1426 H 0.35138 0.05447 0.63244 0.0
H1427 H 0.36382 0.99858 0.63425 0.0
H1428 H 0.37245 0.94601 0.54769 0.0
H1429 H 0.36045 0.99227 0.51804 0.0
C1430 C 0.34245 0.04721 0.54198 0.0
C1431 C 0.33227 0.07409 0.55778 0.0
C1432 C 0.35422 0.02209 0.55881 0.0
C1433 C 0.33734 0.07706 0.5903 0.0
C1434 C 0.34938 0.05225 0.6072 0.0
C1435 C 0.36366 0.99739 0.60891 0.0
C1436 C 0.36813 0.9686 0.59334 0.0
C1437 C 0.35648 0.02411 0.59182 0.0
C1438 C 0.36848 0.96766 0.56042 0.0
C1439 C 0.36158 0.99414 0.54334 0.0
H1440 H 0.18801 0.05532 0.79302 0.0
H1441 H 0.20895 0.10052 0.70676 0.0
H1442 H 0.25721 0.12371 0.73098 0.0
H1443 H 0.29395 0.12931 0.77716 0.0
H1444 H 0.2683 0.08568 0.86349 0.0
H1445 H 0.22094 0.06413 0.83885 0.0
C1446 C 0.20262 0.07102 0.77971 0.0
C1447 C 0.19456 0.07719 0.74861 0.0
C1448 C 0.22946 0.08445 0.79384 0.0
C1449 C 0.21453 0.09607 0.73105 0.0
C1450 C 0.24199 0.10927 0.7449 0.0
C1451 C 0.27767 0.1155 0.79058 0.0
C1452 C 0.28475 0.10911 0.82211 0.0
C1453 C 0.24976 0.10348 0.77637 0.0
C1454 C 0.26345 0.09122 0.8393 0.0
C1455 C 0.23637 0.07866 0.82521 0.0
H1456 H 0.18872 0.94033 0.06503 0.0
H1457 H 0.16072 0.97343 0.9741 0.0
H1458 H 0.13798 0.01938 0.99847 0.0
H1459 H 0.13157 0.05296 0.04476 0.0
H1460 H 0.16091 0.02087 0.13556 0.0
H1461 H 0.17705 0.97143 0.112 0.0
C1462 C 0.17732 0.95735 0.05048 0.0
C1463 C 0.17701 0.9536 0.01767 0.0
C1464 C 0.16465 0.98401 0.0646 0.0
C1465 C 0.16169 0.97577 -0.00065 0.0
C1466 C 0.1487 0.00215 0.01327 0.0
C1467 C 0.14114 0.03502 0.05951 0.0
C1468 C 0.14553 0.04086 0.09182 0.0
C1469 C 0.15092 0.00695 0.04576 0.0
C1470 C 0.15745 0.01711 0.11061 0.0
C1471 C 0.16685 0.98889 0.09712 0.0
H1472 H 0.21087 0.32747 0.06274 0.0
H1473 H 0.29714 0.28465 0.09166 0.0
H1474 H 0.26783 0.23891 0.109 0.0
H1475 H 0.21836 0.20949 0.11241 0.0
H1476 H 0.13192 0.25178 0.08367 0.0
H1477 H 0.16076 0.29951 0.07004 0.0
C1478 C 0.22331 0.30827 0.07305 0.0
C1479 C 0.25627 0.30945 0.07549 0.0
C1480 C 0.20632 0.28188 0.08286 0.0
C1481 C 0.27186 0.28444 0.08932 0.0
C1482 C 0.25511 0.25817 0.09917 0.0
C1483 C 0.20576 0.22919 0.10327 0.0
C1484 C 0.17308 0.22693 0.09862 0.0
C1485 C 0.22245 0.2564 0.09545 0.0
C1486 C 0.15707 0.25287 0.08734 0.0
C1487 C 0.17357 0.28011 0.07945 0.0
H1488 H 0.75508 0.19237 0.90624 0.0
H1489 H 0.66489 0.14685 0.91638 0.0
H1490 H 0.63905 0.19312 0.89681 0.0
H1491 H 0.642 0.24977 0.88779 0.0
H1492 H 0.73255 0.29571 0.8809 0.0
H1493 H 0.75819 0.24608 0.8882 0.0
C1494 C 0.7298 0.19219 0.90328 0.0
C1495 C 0.71191 0.16657 0.91351 0.0
C1496 C 0.71508 0.21933 0.89342 0.0
C1497 C 0.67923 0.16644 0.909 0.0
C1498 C 0.66439 0.19306 0.89816 0.0
C1499 C 0.66732 0.24885 0.88734 0.0
C1500 C 0.68531 0.27661 0.88481 0.0
C1501 C 0.68204 0.22024 0.89213 0.0
C1502 C 0.7181 0.27485 0.88359 0.0
C1503 C 0.73284 0.24644 0.88769 0.0
H1504 H 0.05092 0.42181 0.21946 0.0
H1505 H 0.04791 0.50001 0.15775 0.0
H1506 H 0.99848 0.47952 0.13425 0.0
H1507 H 0.95541 0.43997 0.13301 0.0
H1508 H 0.9613 0.35983 0.19219 0.0
H1509 H 0.01097 0.38004 0.21478 0.0
C1510 C 0.03991 0.43379 0.20017 0.0
C1511 C 0.05331 0.46166 0.18943 0.0
C1512 C 0.01215 0.42157 0.18658 0.0
C1513 C 0.03811 0.47809 0.16575 0.0
C1514 C 0.00999 0.4664 0.15242 0.0
C1515 C 0.96794 0.42685 0.15055 0.0
C1516 C 0.95502 0.39866 0.16116 0.0
C1517 C 0.99673 0.43824 0.16282 0.0
C1518 C 0.97115 0.38153 0.18369 0.0
C1519 C -0.00067 0.39316 0.19669 0.0
H1520 H 0.8392 0.81086 0.46708 0.0
H1521 H 0.74513 0.78384 0.43764 0.0
H1522 H 0.76531 0.73985 0.40718 0.0
H1523 H 0.80931 0.70644 0.39342 0.0
H1524 H 0.90343 0.73482 0.42168 0.0
H1525 H 0.88361 0.78156 0.44752 0.0
C1526 C 0.82311 0.79556 0.45375 0.0
C1527 C 0.79068 0.80027 0.45497 0.0
C1528 C 0.8349 0.77069 0.43606 0.0
C1529 C 0.77017 0.78057 0.43716 0.0
C1530 C 0.7817 0.75542 0.41982 0.0
C1531 C 0.82553 0.72315 0.40477 0.0
C1532 C 0.85774 0.71688 0.40612 0.0
C1533 C 0.81396 0.74989 0.4197 0.0
C1534 C 0.87854 0.73898 0.42042 0.0
C1535 C 0.86719 0.7656 0.43542 0.0
H1536 H 0.94326 0.07267 0.21475 0.0
H1537 H 0.98054 0.9816 0.19411 0.0
H1538 H 0.02393 0.00606 0.16696 0.0
H1539 H 0.05332 0.05313 0.15246 0.0
H1540 H 0.01689 0.14434 0.17346 0.0
H1541 H 0.97083 0.11986 0.19666 0.0
C1542 C 0.96073 0.05807 0.20416 0.0
C1543 C 0.9587 0.02525 0.2069 0.0
C1544 C 0.98579 0.07231 0.18864 0.0
C1545 C 0.98147 0.00686 0.19264 0.0
C1546 C 0.00637 0.02084 0.17709 0.0
C1547 C 0.03519 0.06774 0.16186 0.0
C1548 C 0.03876 0.10058 0.1615 0.0
C1549 C 0.00906 0.05353 0.17548 0.0
C1550 C 0.0148 0.11905 0.17341 0.0
C1551 C 0.98854 0.10504 0.18686 0.0
H1552 H 0.25564 0.70729 0.56652 0.0
H1553 H 0.33016 0.7027 0.50045 0.0
H1554 H 0.35928 0.74418 0.52906 0.0
H1555 H 0.36406 0.78129 0.57314 0.0
H1556 H 0.28842 0.78993 0.6373 0.0
H1557 H 0.25961 0.74665 0.6101 0.0
C1558 C 0.27819 0.71557 0.55854 0.0
C1559 C 0.29133 0.7015 0.53216 0.0
C1560 C 0.29485 0.73958 0.57515 0.0
C1561 C 0.32014 0.71275 0.52132 0.0
C1562 C 0.33677 0.73643 0.53761 0.0
C1563 C 0.34151 0.77321 0.58142 0.0
C1564 C 0.32857 0.78789 0.6075 0.0
C1565 C 0.32462 0.74963 0.56481 0.0
C1566 C 0.29893 0.77826 0.61755 0.0
C1567 C 0.28239 0.75385 0.60183 0.0
H1568 H 0.04227 0.49035 0.31776 0.0
H1569 H 0.09779 0.57475 0.30679 0.0
H1570 H 0.05691 0.60556 0.33074 0.0
H1571 H 0.00235 0.60926 0.34786 0.0
H1572 H 0.94682 0.52448 0.35737 0.0
H1573 H 0.99069 0.49331 0.34106 0.0
C1574 C 0.04578 0.51539 0.32125 0.0
C1575 C 0.07287 0.53023 0.3101 0.0
C1576 C 0.02185 0.53308 0.33427 0.0
C1577 C 0.0771 0.5627 0.31502 0.0
C1578 C 0.05359 0.58041 0.32849 0.0
C1579 C -3e-05 0.58396 0.34676 0.0
C1580 C 0.97103 0.56939 0.3532 0.0
C1581 C 0.02533 0.56599 0.33706 0.0
C1582 C 0.96858 0.53649 0.35204 0.0
C1583 C 0.99371 0.51854 0.34275 0.0
H1584 H 0.46636 0.47652 0.83051 0.0
H1585 H 0.42498 0.38385 0.8206 0.0
H1586 H 0.47001 0.36182 0.84718 0.0
H1587 H 0.52432 0.36771 0.86485 0.0
H1588 H 0.568 0.45969 0.87139 0.0
H1589 H 0.51889 0.48315 0.85517 0.0
C1590 C 0.46692 0.45167 0.83504 0.0
C1591 C 0.44265 0.43177 0.82339 0.0
C1592 C 0.49354 0.43894 0.84928 0.0
C1593 C 0.44359 0.39956 0.82911 0.0
C1594 C 0.46938 0.38692 0.84422 0.0
C1595 C 0.52301 0.39295 0.8633 0.0
C1596 C 0.54999 0.41179 0.86855 0.0
C1597 C 0.49505 0.40619 0.85308 0.0
C1598 C 0.5477 0.44452 0.86695 0.0
C1599 C 0.51963 0.458 0.85759 0.0
H1600 H 0.9343 0.75346 0.69524 0.0
H1601 H 0.01088 0.8187 0.68035 0.0
H1602 H 0.9916 0.8531 0.72184 0.0
H1603 H 0.95564 0.86193 0.76555 0.0
H1604 H 0.88284 0.79346 0.78276 0.0
H1605 H 0.89774 0.76303 0.73662 0.0
C1606 C 0.94673 0.77536 0.70066 0.0
C1607 C 0.97416 0.78337 0.68475 0.0
C1608 C 0.9361 0.79439 0.72495 0.0
C1609 C 0.98984 0.81185 0.69234 0.0
C1610 C 0.97882 0.83151 0.71604 0.0
C1611 C 0.94269 0.8407 0.75862 0.0
C1612 C 0.91802 0.8299 0.77702 0.0
C1613 C 0.95233 0.82268 0.73293 0.0
C1614 C 0.90176 0.80209 0.76861 0.0
C1615 C 0.91037 0.78472 0.74241 0.0
H1616 H 0.89866 0.2304 0.44197 0.0
H1617 H 0.9627 0.15659 0.42135 0.0
H1618 H 0.94392 0.12709 0.4656 0.0
H1619 H 0.91379 0.1254 0.51411 0.0
H1620 H 0.84679 0.19708 0.53223 0.0
H1621 H 0.8621 0.22422 0.48518 0.0
C1622 C 0.90795 0.20755 0.44682 0.0
C1623 C 0.93223 0.19587 0.42876 0.0
C1624 C 0.89683 0.19051 0.47213 0.0
C1625 C 0.94393 0.16609 0.43496 0.0
C1626 C 0.93341 0.14928 0.46043 0.0
C1627 C 0.90226 0.14664 0.50732 0.0
C1628 C 0.87962 0.15951 0.52663 0.0
C1629 C 0.91061 0.16174 0.47978 0.0
C1630 C 0.86441 0.18683 0.51762 0.0
C1631 C 0.87319 0.20242 0.4908 0.0
H1632 H 0.52357 0.21432 0.22566 0.0
H1633 H 0.58228 0.16097 0.16494 0.0
H1634 H 0.61763 0.15017 0.20921 0.0
H1635 H 0.62948 0.1533 0.26559 0.0
H1636 H 0.57136 0.20799 0.32608 0.0
H1637 H 0.5387 0.22208 0.28123 0.0
C1638 C 0.54411 0.20025 0.22234 0.0
C1639 C 0.5502 0.18769 0.19262 0.0
C1640 C 0.56458 0.19498 0.24761 0.0
C1641 C 0.57714 0.1703 0.18795 0.0
C1642 C 0.59732 0.16435 0.21313 0.0
C1643 C 0.61008 0.16889 0.26883 0.0
C1644 C 0.60273 0.17942 0.29911 0.0
C1645 C 0.59107 0.17633 0.24309 0.0
C1646 C 0.57768 0.19976 0.303 0.0
C1647 C 0.5587 0.20744 0.27743 0.0
H1648 H 0.58387 0.7741 0.96568 0.0
H1649 H 0.50203 0.83087 0.97025 0.0
H1650 H 0.5237 0.85888 0.01638 0.0
H1651 H 0.5652 0.86583 0.05658 0.0
H1652 H 0.64916 0.81228 0.04956 0.0
H1653 H 0.6279 0.78489 0.00295 0.0
C1654 C 0.57107 0.79273 0.97683 0.0
C1655 C 0.54172 0.80074 0.96484 0.0
C1656 C 0.58409 0.80937 0.00273 0.0
C1657 C 0.52494 0.82471 0.97922 0.0
C1658 C 0.53725 0.84067 0.00551 0.0
C1659 C 0.57889 0.84845 0.04452 0.0
C1660 C 0.60847 0.84094 0.0564 0.0
C1661 C 0.56674 0.83311 0.01755 0.0
C1662 C 0.6263 0.81858 0.04061 0.0
C1663 C 0.61408 0.80268 0.01415 0.0
H1664 H 0.99335 0.1689 0.79723 0.0
H1665 H 0.94626 0.25693 0.79894 0.0
H1666 H 0.91579 0.24155 0.75206 0.0
H1667 H 0.9015 0.20254 0.71108 0.0
H1668 H 0.94478 0.11244 0.71186 0.0
H1669 H 0.97735 0.12877 0.75716 0.0
C1670 C 0.97648 0.18456 0.78711 0.0
C1671 C 0.97173 0.21376 0.80138 0.0
C1672 C 0.95822 0.17513 0.76069 0.0
C1673 C 0.94993 0.23412 0.7883 0.0
C1674 C 0.93254 0.22539 0.76154 0.0
C1675 C 0.91811 0.18659 0.72122 0.0
C1676 C 0.92078 0.15647 0.70826 0.0
C1677 C 0.93626 0.19586 0.74766 0.0
C1678 C 0.94214 0.13577 0.72169 0.0
C1679 C 0.96094 0.14512 0.74745 0.0
H1680 H 0.52972 0.19269 0.55046 0.0
H1681 H 0.62347 0.21856 0.58216 0.0
H1682 H 0.64496 0.18248 0.54364 0.0
H1683 H 0.63733 0.14875 0.49802 0.0
H1684 H 0.54423 0.12899 0.46036 0.0
H1685 H 0.52202 0.15642 0.50527 0.0
C1686 C 0.55484 0.18996 0.54925 0.0
C1687 C 0.57507 0.20815 0.56906 0.0
C1688 C 0.56701 0.17015 0.52622 0.0
C1689 C 0.60753 0.20487 0.56703 0.0
C1690 C 0.61977 0.18421 0.54512 0.0
C1691 C 0.61209 0.14974 0.49974 0.0
C1692 C 0.59246 0.13702 0.47559 0.0
C1693 C 0.59974 0.16737 0.52417 0.0
C1694 C 0.55986 0.13862 0.47853 0.0
C1695 C 0.54721 0.15459 0.50402 0.0
H1696 H 0.57538 0.76897 0.32568 0.0
H1697 H 0.50162 0.83615 0.32571 0.0
H1698 H 0.52739 0.86486 0.28407 0.0
H1699 H 0.56912 0.86868 0.24544 0.0
H1700 H 0.63909 0.79777 0.24135 0.0
H1701 H 0.6168 0.77259 0.28705 0.0
C1702 C 0.56521 0.79016 0.31685 0.0
C1703 C 0.53685 0.80069 0.32882 0.0
C1704 C 0.57946 0.80569 0.29219 0.0
C1705 C 0.52349 0.82773 0.31681 0.0
C1706 C 0.5382 0.84408 0.29305 0.0
C1707 C 0.57973 0.84802 0.255 0.0
C1708 C 0.6059 0.8352 0.2406 0.0
C1709 C 0.56595 0.83301 0.28028 0.0
C1710 C 0.61905 0.808 0.2524 0.0
C1711 C 0.60628 0.79365 0.27838 0.0
H1712 H 0.01494 0.83032 0.04614 0.0
H1713 H 0.93162 0.78286 0.07806 0.0
H1714 H 0.90262 0.80019 0.0318 0.0
H1715 H 0.90189 0.82666 0.98105 0.0
H1716 H 0.98646 0.87135 0.94881 0.0
H1717 H 0.01406 0.8573 0.99686 0.0
C1718 C 0.99037 0.82379 0.04328 0.0
C1719 C 0.97555 0.80516 0.06565 0.0
C1720 C 0.9741 0.83336 0.01657 0.0
C1721 C 0.94368 0.79707 0.06125 0.0
C1722 C 0.92709 0.80698 0.0348 0.0
C1723 C 0.92625 0.83369 0.98478 0.0
C1724 C 0.94216 0.85011 0.96149 0.0
C1725 C 0.94218 0.82487 0.01216 0.0
C1726 C 0.97379 0.85866 0.96638 0.0
C1727 C 0.98956 0.85061 0.9938 0.0
H1728 H 0.71344 0.91319 0.76614 0.0
H1729 H 0.69315 0.97071 0.84707 0.0
H1730 H 0.74036 0.95224 0.87367 0.0
H1731 H 0.78895 0.92211 0.87243 0.0
H1732 H 0.81 0.86777 0.78974 0.0
H1733 H 0.76047 0.88256 0.7653 0.0
C1734 C 0.71902 0.92165 0.78971 0.0
C1735 C 0.69971 0.94347 0.8045 0.0
C1736 C 0.74632 0.91147 0.8045 0.0
C1737 C 0.70759 0.95402 0.83505 0.0
C1738 C 0.73458 0.94346 0.85027 0.0
C1739 C 0.78239 0.91313 0.84926 0.0
C1740 C 0.80291 0.89376 0.83287 0.0
C1741 C 0.75431 0.92249 0.83503 0.0
C1742 C 0.79451 0.88271 0.80269 0.0
C1743 C 0.76628 0.89119 0.78875 0.0
H1744 H 0.74386 0.9493 0.57742 0.0
H1745 H 0.8013 0.94038 0.49645 0.0
H1746 H 0.82936 0.98923 0.51077 0.0
H1747 H 0.83785 0.03462 0.54689 0.0
H1748 H 0.78489 0.03956 0.63124 0.0
H1749 H 0.75479 0.99255 0.61533 0.0
C1750 C 0.76263 0.95813 0.56316 0.0
C1751 C 0.77092 0.94138 0.5363 0.0
C1752 C 0.77928 0.98569 0.57205 0.0
C1753 C 0.79502 0.95289 0.51761 0.0
C1754 C 0.81094 0.98083 0.52567 0.0
C1755 C 0.81954 0.0254 0.5615 0.0
C1756 C 0.81295 0.04075 0.58973 0.0
C1757 C 0.80331 0.99746 0.55288 0.0
C1758 C 0.78983 0.02832 0.60907 0.0
C1759 C 0.77272 0.00138 0.60008 0.0
H1760 H 0.82329 0.094 0.28574 0.0
H1761 H 0.84521 0.04977 0.37278 0.0
H1762 H 0.8009 0.07525 0.39735 0.0
H1763 H 0.75244 0.10361 0.39174 0.0
H1764 H 0.72527 0.14044 0.30223 0.0
H1765 H 0.77554 0.12508 0.28092 0.0
C1766 C 0.81879 0.09085 0.31035 0.0
C1767 C 0.83755 0.07068 0.32779 0.0
C1768 C 0.79218 0.10393 0.32359 0.0
C1769 C 0.83119 0.06567 0.35927 0.0
C1770 C 0.8058 0.08002 0.37315 0.0
C1771 C 0.75756 0.10875 0.36766 0.0
C1772 C 0.7349 0.12285 0.34848 0.0
C1773 C 0.78555 0.09826 0.3552 0.0
C1774 C 0.74217 0.12943 0.31741 0.0
C1775 C 0.77085 0.12054 0.30522 0.0
H1776 H 0.7352 0.05913 0.09601 0.0
H1777 H 0.68929 0.04131 0.00647 0.0
H1778 H 0.66177 0.99582 0.02725 0.0
H1779 H 0.65377 0.95874 0.07006 0.0
H1780 H 0.69769 0.9787 0.1602 0.0
H1781 H 0.72287 0.02558 0.14008 0.0
C1782 C 0.71889 0.04548 0.08118 0.0
C1783 C 0.71445 0.0534 0.04975 0.0
C1784 C 0.70292 0.01958 0.09334 0.0
C1785 C 0.693 0.03575 0.03084 0.0
C1786 C 0.67741 0.0096 0.04263 0.0
C1787 C 0.66857 0.97362 0.08528 0.0
C1788 C 0.67397 0.96525 0.11645 0.0
C1789 C 0.68264 0.00094 0.07369 0.0
C1790 C 0.693 0.98477 0.13612 0.0
C1791 C 0.70755 0.01152 0.12462 0.0
H1792 H 0.7126 0.04503 0.74996 0.0
H1793 H 0.66968 0.02237 0.65996 0.0
H1794 H 0.70739 0.05682 0.63468 0.0
H1795 H 0.75367 0.09046 0.63783 0.0
H1796 H 0.80238 0.10715 0.72624 0.0
H1797 H 0.76053 0.07868 0.7529 0.0
C1798 C 0.71144 0.04796 0.72485 0.0
C1799 C 0.6884 0.03148 0.70673 0.0
C1800 C 0.73395 0.06685 0.71041 0.0
C1801 C 0.68728 0.03484 0.67423 0.0
C1802 C 0.70872 0.05459 0.65986 0.0
C1803 C 0.75509 0.08841 0.66304 0.0
C1804 C 0.78113 0.10104 0.68007 0.0
C1805 C 0.73227 0.0704 0.6777 0.0
C1806 C 0.78256 0.09771 0.71264 0.0
C1807 C 0.75878 0.08126 0.72779 0.0
H1808 H 0.74686 0.95303 0.42671 0.0
H1809 H 0.6588 0.90207 0.41705 0.0
H1810 H 0.63351 0.9493 0.39838 0.0
H1811 H 0.63531 0.00703 0.39193 0.0
H1812 H 0.72256 0.05756 0.40865 0.0
H1813 H 0.74934 0.00872 0.41815 0.0
C1814 C 0.72227 0.9519 0.41985 0.0
C1815 C 0.70468 0.92413 0.42347 0.0
C1816 C 0.7076 0.97942 0.41136 0.0
C1817 C 0.67286 0.9232 0.41444 0.0
C1818 C 0.65832 0.9503 0.40419 0.0
C1819 C 0.66014 0.00706 0.39773 0.0
C1820 C 0.67708 0.03551 0.40021 0.0
C1821 C 0.67518 0.97886 0.4039 0.0
C1822 C 0.70923 0.03573 0.40722 0.0
C1823 C 0.72451 0.00788 0.4124 0.0
H1824 H 0.81342 0.95009 0.26505 0.0
H1825 H 0.8297 0.99849 0.17942 0.0
H1826 H 0.7857 0.96956 0.15386 0.0
H1827 H 0.74266 0.93136 0.15636 0.0
H1828 H 0.72302 0.88583 0.24304 0.0
H1829 H 0.76896 0.91239 0.26789 0.0
C1830 C 0.8074 0.95392 0.24069 0.0
C1831 C 0.8251 0.97542 0.2236 0.0
C1832 C 0.78178 0.93772 0.22654 0.0
C1833 C 0.81661 0.98144 0.19257 0.0
C1834 C 0.79157 0.96495 0.17808 0.0
C1835 C 0.74864 0.92686 0.18061 0.0
C1836 C 0.72982 0.90632 0.19781 0.0
C1837 C 0.77411 0.94301 0.19484 0.0
C1838 C 0.73734 0.90139 0.22937 0.0
C1839 C 0.76343 0.91667 0.24354 0.0
H1840 H 0.84354 0.04263 0.98505 0.0
H1841 H 0.77249 0.05274 0.91276 0.0
H1842 H 0.7974 0.01273 0.88084 0.0
H1843 H 0.83719 0.97246 0.87529 0.0
H1844 H 0.90548 0.96029 0.94946 0.0
H1845 H 0.88409 0.00434 0.97874 0.0
C1846 C 0.8334 0.03627 0.96228 0.0
C1847 C 0.80595 0.05049 0.95149 0.0
C1848 C 0.84756 0.01317 0.94432 0.0
C1849 C 0.79345 0.042 0.92179 0.0
C1850 C 0.80772 0.01922 0.90347 0.0
C1851 C 0.84781 0.98005 0.89752 0.0
C1852 C 0.87298 0.96363 0.91025 0.0
C1853 C 0.83456 0.00442 0.9147 0.0
C1854 C 0.88619 0.97293 0.93932 0.0
C1855 C 0.87385 0.99787 0.95607 0.0
H1856 H 0.77681 0.70461 0.91562 0.0
H1857 H 0.83791 0.69574 0.99654 0.0
H1858 H 0.87471 0.73381 0.97486 0.0
H1859 H 0.88707 0.77278 0.93473 0.0
H1860 H 0.82387 0.78269 0.8559 0.0
H1861 H 0.79058 0.74009 0.87453 0.0
C1862 C 0.79816 0.71084 0.92866 0.0
C1863 C 0.80433 0.69766 0.95792 0.0
C1864 C 0.81901 0.73255 0.91614 0.0
C1865 C 0.83242 0.70578 0.9741 0.0
C1866 C 0.85351 0.72743 0.96167 0.0
C1867 C 0.8665 0.7648 0.92128 0.0
C1868 C 0.85789 0.78023 0.89387 0.0
C1869 C 0.84682 0.74127 0.93289 0.0
C1870 C 0.83087 0.77064 0.87687 0.0
C1871 C 0.81177 0.74661 0.88768 0.0
H1872 H 0.27406 0.83793 0.09945 0.0
H1873 H 0.33289 0.82139 0.02035 0.0
H1874 H 0.35329 0.77481 0.04473 0.0
H1875 H 0.34887 0.73525 0.08445 0.0
H1876 H 0.29058 0.74981 0.16401 0.0
H1877 H 0.27508 0.80079 0.14349 0.0
C1878 C 0.29207 0.82466 0.08808 0.0
C1879 C 0.3019 0.83298 0.05807 0.0
C1880 C 0.30303 0.79721 0.10189 0.0
C1881 C 0.32495 0.81539 0.04339 0.0
C1882 C 0.33641 0.78862 0.05719 0.0
C1883 C 0.33301 0.74973 0.09748 0.0
C1884 C 0.32032 0.73872 0.1253 0.0
C1885 C 0.32464 0.77869 0.08572 0.0
C1886 C 0.30028 0.75781 0.14234 0.0
C1887 C 0.29151 0.78687 0.13059 0.0
H1888 H 0.94766 0.60452 0.79807 0.0
H1889 H 0.94862 0.50432 0.80607 0.0
H1890 H 0.9939 0.50853 0.8419 0.0
H1891 H 0.03587 0.54088 0.86751 0.0
H1892 H 0.03037 0.64132 0.86558 0.0
H1893 H 0.98372 0.63711 0.83171 0.0
C1894 C 0.95769 0.5838 0.80805 0.0
C1895 C 0.94525 0.55423 0.79961 0.0
C1896 C 0.98268 0.58647 0.82986 0.0
C1897 C 0.9581 0.52733 0.8125 0.0
C1898 C 0.98384 0.52971 0.83298 0.0
C1899 C 0.02377 0.56172 0.86045 0.0
C1900 C 0.03639 0.59125 0.86884 0.0
C1901 C 0.9966 0.55915 0.84151 0.0
C1902 C 0.02075 0.61826 0.8596 0.0
C1903 C 0.99437 0.61591 0.83987 0.0
H1904 H 0.16558 0.20099 0.52563 0.0
H1905 H 0.25636 0.21141 0.571 0.0
H1906 H 0.23998 0.25941 0.59754 0.0
H1907 H 0.20044 0.30023 0.60518 0.0
H1908 H 0.1092 0.28724 0.56078 0.0
H1909 H 0.12517 0.23854 0.53673 0.0
C1910 C 0.18168 0.21363 0.54153 0.0
C1911 C 0.21211 0.20293 0.54619 0.0
C1912 C 0.17207 0.24086 0.55683 0.0
C1913 C 0.23269 0.21926 0.56713 0.0
C1914 C 0.22342 0.24676 0.58217 0.0
C1915 C 0.18408 0.28651 0.59048 0.0
C1916 C 0.15378 0.2974 0.5848 0.0
C1917 C 0.19327 0.25807 0.57681 0.0
C1918 C 0.13264 0.27933 0.56583 0.0
C1919 C 0.14174 0.25148 0.55185 0.0
H1920 H 0.07518 0.95104 0.77833 0.0
H1921 H 0.03571 0.03834 0.80913 0.0
H1922 H 0.9968 0.01004 0.83867 0.0
H1923 H 0.97202 0.96103 0.85339 0.0
H1924 H 0.0095 0.8732 0.82205 0.0
H1925 H 0.05173 0.90126 0.79589 0.0
C1926 C 0.05802 0.96385 0.79144 0.0
C1927 C 0.05823 0.99679 0.79116 0.0
C1928 C 0.03558 0.9474 0.80859 0.0
C1929 C 0.0361 0.01302 0.80872 0.0
C1930 C 0.01382 0.99687 0.82574 0.0
C1931 C 0.98964 0.94794 0.84115 0.0
C1932 C 0.98749 0.91513 0.83944 0.0
C1933 C 0.01316 0.96414 0.82556 0.0
C1934 C 0.0107 0.89851 0.82382 0.0
C1935 C 0.03464 0.91455 0.80857 0.0
H1936 H 0.6615 0.29947 0.51761 0.0
H1937 H 0.74729 0.31608 0.46898 0.0
H1938 H 0.73714 0.26982 0.43578 0.0
H1939 H 0.70293 0.22553 0.41908 0.0
H1940 H 0.61442 0.21173 0.46379 0.0
H1941 H 0.62626 0.25568 0.49969 0.0
C1942 C 0.67791 0.29263 0.49989 0.0
C1943 C 0.70491 0.31097 0.49548 0.0
C1944 C 0.67133 0.2666 0.47999 0.0
C1945 C 0.72619 0.3022 0.47249 0.0
C1946 C 0.72041 0.27584 0.45348 0.0
C1947 C 0.68631 0.23227 0.43666 0.0
C1948 C 0.65794 0.21559 0.43875 0.0
C1949 C 0.69288 0.25808 0.45671 0.0
C1950 C 0.63638 0.22453 0.46153 0.0
C1951 C 0.64319 0.24951 0.48224 0.0
H1952 H 0.95003 0.50473 0.6681 0.0
H1953 H 0.92575 0.42177 0.7185 0.0
H1954 H 0.96849 0.39374 0.69392 0.0
H1955 H 0.01577 0.39495 0.66288 0.0
H1956 H 0.04493 0.48024 0.61878 0.0
H1957 H 0.99717 0.50564 0.63607 0.0
C1958 C 0.95373 0.48027 0.67296 0.0
C1959 C 0.93473 0.46493 0.69447 0.0
C1960 C 0.97939 0.4651 0.66027 0.0
C1961 C 0.94006 0.43366 0.70164 0.0
C1962 C 0.96452 0.41781 0.68777 0.0
C1963 C 0.01135 0.41893 0.65657 0.0
C1964 C 0.03349 0.43576 0.6394 0.0
C1965 C 0.98479 0.43359 0.66775 0.0
C1966 C 0.02804 0.46698 0.63197 0.0
C1967 C 0.00083 0.4814 0.64183 0.0
H1968 H 0.55715 0.62632 0.23883 0.0
H1969 H 0.54882 0.53483 0.19468 0.0
H1970 H 0.49971 0.54924 0.16911 0.0
H1971 H 0.45634 0.58599 0.16395 0.0
H1972 H 0.46595 0.67848 0.2053 0.0
H1973 H 0.51746 0.66573 0.22729 0.0
C1974 C 0.54484 0.60978 0.22315 0.0
C1975 C 0.5564 0.57948 0.21885 0.0
C1976 C 0.51676 0.61833 0.2083 0.0
C1977 C 0.54044 0.55833 0.19825 0.0
C1978 C 0.51224 0.56647 0.18382 0.0
C1979 C 0.47009 0.60344 0.17732 0.0
C1980 C 0.45761 0.63299 0.18327 0.0
C1981 C 0.49977 0.59608 0.18937 0.0
C1982 C 0.47539 0.65563 0.2004 0.0
C1983 C 0.50468 0.64828 0.21307 0.0
H1984 H 0.57578 0.77026 0.81011 0.0
H1985 H 0.52755 0.69328 0.85362 0.0
H1986 H 0.54683 0.6571 0.81434 0.0
H1987 H 0.57283 0.64796 0.76448 0.0
H1988 H 0.61938 0.72513 0.71998 0.0
H1989 H 0.60579 0.76027 0.76295 0.0
C1990 C 0.56972 0.74555 0.81121 0.0
C1991 C 0.5498 0.73475 0.83455 0.0
C1992 C 0.58059 0.72475 0.78829 0.0
C1993 C 0.54247 0.70249 0.83569 0.0
C1994 C 0.55354 0.68165 0.81325 0.0
C1995 C 0.5806 0.67228 0.76461 0.0
C1996 C 0.5968 0.684 0.73905 0.0
C1997 C 0.57199 0.6926 0.789 0.0
C1998 C 0.60659 0.71564 0.73935 0.0
C1999 C 0.59875 0.7358 0.76384 0.0
H2000 H 0.59274 0.29794 0.07443 0.0
H2001 H 0.49883 0.31014 0.03831 0.0
H2002 H 0.51952 0.33615 0.99264 0.0
H2003 H 0.56406 0.34821 0.9598 0.0
H2004 H 0.65806 0.33299 0.99432 0.0
H2005 H 0.6375 0.31556 0.04399 0.0
C2006 C 0.57677 0.30697 0.05694 0.0
C2007 C 0.54434 0.30181 0.05949 0.0
C2008 C 0.58885 0.32083 0.03023 0.0
C2009 C 0.52392 0.31363 0.03669 0.0
C2010 C 0.53573 0.32833 0.01051 0.0
C2011 C 0.58012 0.34137 0.97827 0.0
C2012 C 0.6125 0.34122 0.97311 0.0
C2013 C 0.56814 0.33083 0.00646 0.0
C2014 C 0.633 0.33292 0.99753 0.0
C2015 C 0.62126 0.32293 0.02593 0.0
H2016 H 0.93675 0.25212 0.27685 0.0
H2017 H 0.91128 0.32821 0.33796 0.0
H2018 H 0.87791 0.34932 0.29706 0.0
H2019 H 0.86405 0.35136 0.24135 0.0
H2020 H 0.88939 0.27543 0.1796 0.0
H2021 H 0.91381 0.24871 0.22323 0.0
C2022 C 0.92295 0.27264 0.28142 0.0
C2023 C 0.92684 0.28901 0.31002 0.0
C2024 C 0.90411 0.28498 0.25748 0.0
C2025 C 0.9091 0.31567 0.31581 0.0
C2026 C 0.89001 0.32776 0.29243 0.0
C2027 C 0.87423 0.3286 0.23758 0.0
C2028 C 0.87555 0.31587 0.20717 0.0
C2029 C 0.88863 0.3135 0.26269 0.0
C2030 C 0.88832 0.28604 0.20274 0.0
C2031 C 0.90251 0.27075 0.22768 0.0
H2032 H 0.9786 0.72104 0.54897 0.0
H2033 H 0.03705 0.64109 0.55933 0.0
H2034 H 0.01129 0.61573 0.51302 0.0
H2035 H 0.96934 0.61579 0.47149 0.0
H2036 H 0.90897 0.69509 0.46591 0.0
H2037 H 0.93857 0.72172 0.50816 0.0
C2038 C 0.98561 0.69799 0.54106 0.0
C2039 C 0.00871 0.6823 0.55773 0.0
C2040 C 0.97036 0.68366 0.51532 0.0
C2041 C 0.01871 0.65312 0.5469 0.0
C2042 C 0.00396 0.63871 0.52061 0.0
C2043 C 0.96271 0.63875 0.47989 0.0
C2044 C 0.93692 0.65344 0.46617 0.0
C2045 C 0.97922 0.65352 0.50506 0.0
C2046 C 0.92851 0.68331 0.47664 0.0
C2047 C 0.9455 0.69859 0.50057 0.0
H2048 H 0.54166 0.31676 0.69447 0.0
H2049 H 0.58889 0.22951 0.70446 0.0
H2050 H 0.6169 0.25046 0.75141 0.0
H2051 H 0.62736 0.29392 0.78947 0.0
H2052 H 0.58148 0.38185 0.77682 0.0
H2053 H 0.55386 0.36054 0.73045 0.0
C2054 C 0.55854 0.30257 0.70665 0.0
C2055 C 0.56417 0.27214 0.69572 0.0
C2056 C 0.57476 0.31495 0.73292 0.0
C2057 C 0.58481 0.25328 0.71235 0.0
C2058 C 0.60081 0.26528 0.739 0.0
C2059 C 0.61166 0.30849 0.77622 0.0
C2060 C 0.60649 0.33939 0.78644 0.0
C2061 C 0.59606 0.29618 0.74937 0.0
C2062 C 0.58611 0.35811 0.7692 0.0
C2063 C 0.57006 0.34586 0.7429 0.0
H2064 H 0.98477 0.31652 0.95856 0.0
H2065 H 0.89689 0.3 0.90907 0.0
H2066 H 0.86931 0.32779 0.9498 0.0
H2067 H 0.86895 0.34982 0.0029 0.0
H2068 H 0.95603 0.36334 0.05475 0.0
H2069 H 0.98498 0.34431 0.00988 0.0
C2070 C 0.95974 0.31985 0.95638 0.0
C2071 C 0.9429 0.30615 0.93089 0.0
C2072 C 0.94372 0.33498 0.98064 0.0
C2073 C 0.91038 0.31018 0.92851 0.0
C2074 C 0.89452 0.32601 0.95189 0.0
C2075 C 0.8943 0.34932 0.00416 0.0
C2076 C 0.9102 0.35762 0.03228 0.0
C2077 C 0.91076 0.33746 0.97862 0.0
C2078 C 0.94312 0.35673 0.03348 0.0
C2079 C 0.95974 0.34577 0.00783 0.0
H2080 H 0.9369 0.68152 0.18081 0.0
H2081 H 0.93483 0.77322 0.22473 0.0
H2082 H 0.91192 0.75062 0.27118 0.0
H2083 H 0.90036 0.70427 0.302 0.0
H2084 H 0.90529 0.61222 0.25929 0.0
H2085 H 0.91898 0.63557 0.20958 0.0
C2086 C 0.93071 0.69672 0.20021 0.0
C2087 C 0.93795 0.72902 0.19942 0.0
C2088 C 0.91861 0.6834 0.22729 0.0
C2089 C 0.92968 0.7483 0.22476 0.0
C2090 C 0.9168 0.73534 0.25144 0.0
C2091 C 0.90406 0.68925 0.28174 0.0
C2092 C 0.90243 0.65647 0.28458 0.0
C2093 C 0.91249 0.70281 0.25345 0.0
C2094 C 0.90669 0.63747 0.2579 0.0
C2095 C 0.9146 0.65083 0.22946 0.0
H2096 H 0.48214 0.66256 0.48436 0.0
H2097 H 0.56257 0.70023 0.43732 0.0
H2098 H 0.59713 0.68112 0.47829 0.0
H2099 H 0.60375 0.66073 0.53141 0.0
H2100 H 0.52297 0.62397 0.57841 0.0
H2101 H 0.48961 0.63533 0.53347 0.0
C2102 C 0.50726 0.66618 0.48278 0.0
C2103 C 0.51957 0.68341 0.45814 0.0
C2104 C 0.52706 0.65551 0.50663 0.0
C2105 C 0.55229 0.68735 0.4562 0.0
C2106 C 0.57217 0.67651 0.47971 0.0
C2107 C 0.57902 0.65449 0.53144 0.0
C2108 C 0.56576 0.64219 0.5584 0.0
C2109 C 0.55972 0.66159 0.50564 0.0
C2110 C 0.53365 0.63406 0.55809 0.0
C2111 C 0.5145 0.64056 0.53243 0.0
H2112 H 0.78849 0.59968 0.76947 0.0
H2113 H 0.8331 0.57416 0.68331 0.0
H2114 H 0.78752 0.59062 0.65338 0.0
H2115 H 0.73219 0.60575 0.65198 0.0
H2116 H 0.68815 0.63117 0.7385 0.0
H2117 H 0.73617 0.62143 0.76759 0.0
C2118 C 0.78852 0.5982 0.74413 0.0
C2119 C 0.814 0.58511 0.72885 0.0
C2120 C 0.76204 0.6073 0.72695 0.0
C2121 C 0.81372 0.58384 0.69589 0.0
C2122 C 0.78755 0.59311 0.67864 0.0
C2123 C 0.73328 0.60963 0.6771 0.0
C2124 C 0.70633 0.61841 0.69298 0.0
C2125 C 0.76111 0.60383 0.69397 0.0
C2126 C 0.7083 0.62373 0.7256 0.0
C2127 C 0.73582 0.61823 0.74238 0.0
H2128 H 0.68206 0.54472 0.00604 0.0
H2129 H 0.74672 0.57144 0.93492 0.0
H2130 H 0.72999 0.52675 0.90239 0.0
H2131 H 0.69915 0.4786 0.89499 0.0
H2132 H 0.64036 0.44618 0.96867 0.0
H2133 H 0.65236 0.49427 -0.00059 0.0
C2134 C 0.69206 0.54076 0.98326 0.0
C2135 C 0.71419 0.56221 0.97201 0.0
C2136 C 0.68348 0.51389 0.96525 0.0
C2137 C 0.72823 0.55621 0.94319 0.0
C2138 C 0.71903 0.53041 0.92474 0.0
C2139 C 0.68869 0.4823 0.91762 0.0
C2140 C 0.66875 0.45931 0.92956 0.0
C2141 C 0.69677 0.50908 0.93554 0.0
C2142 C 0.65581 0.46383 0.95915 0.0
C2143 C 0.66268 0.49122 0.97667 0.0
H2144 H 0.67182 0.45935 0.17167 0.0
H2145 H 0.7054 0.44609 0.26618 0.0
H2146 H 0.74833 0.415 0.24687 0.0
H2147 H 0.77996 0.39745 0.20319 0.0
H2148 H 0.74811 0.41293 0.10844 0.0
H2149 H 0.70076 0.43682 0.12781 0.0
C2150 C 0.68815 0.44908 0.18805 0.0
C2151 C 0.6856 0.45527 0.22028 0.0
C2152 C 0.71335 0.4319 0.17673 0.0
C2153 C 0.70698 0.44188 0.24122 0.0
C2154 C 0.73162 0.42417 0.2302 0.0
C2155 C 0.76249 0.40559 0.1867 0.0
C2156 C 0.76792 0.40383 0.1544 0.0
C2157 C 0.73564 0.41995 0.19798 0.0
C2158 C 0.74478 0.41427 0.13344 0.0
C2159 C 0.71767 0.42803 0.1445 0.0
H2160 H 0.81055 0.46193 0.50205 0.0
H2161 H 0.751 0.44225 0.42077 0.0
H2162 H 0.78114 0.47875 0.39056 0.0
H2163 H 0.82185 0.51896 0.38735 0.0
H2164 H 0.87939 0.54321 0.46856 0.0
H2165 H 0.85312 0.5022 0.49822 0.0
C2166 C 0.80435 0.46551 0.47771 0.0
C2167 C 0.77836 0.44925 0.46398 0.0
C2168 C 0.82153 0.4874 0.46022 0.0
C2169 C 0.77067 0.45438 0.4323 0.0
C2170 C 0.78798 0.4753 0.41477 0.0
C2171 C 0.82916 0.51484 0.41132 0.0
C2172 C 0.85269 0.53389 0.42562 0.0
C2173 C 0.81317 0.49221 0.42852 0.0
C2174 C 0.86137 0.52869 0.45697 0.0
C2175 C 0.84624 0.50537 0.47399 0.0
H2176 H 0.83517 0.44414 0.8182 0.0
H2177 H 0.78363 0.47513 0.73749 0.0
H2178 H 0.73825 0.44279 0.75207 0.0
H2179 H 0.71093 0.41381 0.79308 0.0
H2180 H 0.76277 0.38585 0.87529 0.0
H2181 H 0.81054 0.40869 0.85471 0.0
C2182 C 0.81425 0.44312 0.80341 0.0
C2183 C 0.81238 0.46205 0.7771 0.0
C2184 C 0.78822 0.42549 0.81256 0.0
C2185 C 0.78546 0.46049 0.75778 0.0
C2186 C 0.75947 0.44234 0.76636 0.0
C2187 C 0.73279 0.41214 0.8062 0.0
C2188 C 0.73311 0.39885 0.83608 0.0
C2189 C 0.76015 0.42597 0.79453 0.0
C2190 C 0.76173 0.39652 0.85256 0.0
C2191 C 0.78909 0.40955 0.84081 0.0
H2192 H 0.82358 0.58058 0.08656 0.0
H2193 H 0.84299 0.55337 0.99141 0.0
H2194 H 0.86379 0.50396 0.00916 0.0
H2195 H 0.86708 0.465 0.05028 0.0
H2196 H 0.84512 0.49129 0.14513 0.0
H2197 H 0.83504 0.54452 0.12896 0.0
C2198 C 0.83329 0.56429 0.06981 0.0
C2199 C 0.83123 0.57037 0.03768 0.0
C2200 C 0.8441 0.53539 0.08006 0.0
C2201 C 0.844 0.54907 0.01627 0.0
C2202 C 0.85566 0.52068 0.02637 0.0
C2203 C 0.86058 0.48248 0.06753 0.0
C2204 C 0.85607 0.47391 0.0987 0.0
C2205 C 0.85427 0.51296 0.05799 0.0
C2206 C 0.84831 0.49706 0.12086 0.0
C2207 C 0.84247 0.52756 0.11164 0.0
H2208 H 0.68982 0.55048 0.32001 0.0
H2209 H 0.70071 0.61277 0.24305 0.0
H2210 H 0.7499 0.63375 0.26689 0.0
H2211 H 0.79139 0.63103 0.30825 0.0
H2212 H 0.77684 0.57095 0.38667 0.0
H2213 H 0.72664 0.55295 0.36411 0.0
C2214 C 0.70218 0.56966 0.30913 0.0
C2215 C 0.69122 0.58099 0.28051 0.0
C2216 C 0.72971 0.58178 0.3232 0.0
C2217 C 0.70851 0.60431 0.26553 0.0
C2218 C 0.73655 0.61618 0.27911 0.0
C2219 C 0.77679 0.6145 0.32057 0.0
C2220 C 0.78763 0.60217 0.34891 0.0
C2221 C 0.7476 0.60469 0.30774 0.0
C2222 C 0.76874 0.58088 0.36492 0.0
C2223 C 0.74018 0.57045 0.35197 0.0
H2224 H 0.64482 0.45778 0.53403 0.0
H2225 H 0.71547 0.43437 0.60279 0.0
H2226 H 0.69696 0.47487 0.6382 0.0
H2227 H 0.66503 0.52153 0.64706 0.0
H2228 H 0.59612 0.54598 0.57728 0.0
H2229 H 0.60909 0.50031 0.54539 0.0
C2230 C 0.65599 0.46126 0.55687 0.0
C2231 C 0.68189 0.44333 0.56532 0.0
C2232 C 0.64547 0.4849 0.57712 0.0
C2233 C 0.69571 0.448 0.59532 0.0
C2234 C 0.68514 0.47122 0.61571 0.0
C2235 C 0.65226 0.51622 0.62535 0.0
C2236 C 0.62973 0.53701 0.61445 0.0
C2237 C 0.66061 0.49043 0.60655 0.0
C2238 C 0.61362 0.53022 0.58605 0.0
C2239 C 0.62117 0.50426 0.5677 0.0
H2240 H 0.73691 0.79673 0.59375 0.0
H2241 H 0.66215 0.8214 0.53004 0.0
H2242 H 0.62733 0.78309 0.55357 0.0
H2243 H 0.61954 0.73864 0.58881 0.0
H2244 H 0.69515 0.71299 0.65077 0.0
H2245 H 0.72778 0.7558 0.63182 0.0
C2246 C 0.71294 0.79396 0.58512 0.0
C2247 C 0.70247 0.81173 0.55983 0.0
C2248 C 0.69302 0.77162 0.59854 0.0
C2249 C 0.67111 0.80794 0.5493 0.0
C2250 C 0.65107 0.78598 0.56275 0.0
C2251 C 0.64285 0.74301 0.59866 0.0
C2252 C 0.65497 0.72272 0.62108 0.0
C2253 C 0.66193 0.76718 0.58695 0.0
C2254 C 0.68539 0.72831 0.63339 0.0
C2255 C 0.70413 0.75267 0.62246 0.0
H2256 H 0.26919 0.72084 0.40834 0.0
H2257 H 0.18812 0.65937 0.39775 0.0
H2258 H 0.15727 0.70231 0.37796 0.0
H2259 H 0.15046 0.75953 0.37657 0.0
H2260 H 0.23102 0.82082 0.39195 0.0
H2261 H 0.26482 0.77605 0.39668 0.0
C2262 C 0.24509 0.71655 0.40065 0.0
C2263 C 0.23069 0.68731 0.40542 0.0
C2264 C 0.2271 0.74166 0.39085 0.0
C2265 C 0.19959 0.68194 0.39488 0.0
C2266 C 0.18181 0.70657 0.38382 0.0
C2267 C 0.17553 0.76291 0.37995 0.0
C2268 C 0.18822 0.7932 0.38474 0.0
C2269 C 0.19478 0.73695 0.38375 0.0
C2270 C 0.22074 0.79753 0.38893 0.0
C2271 C 0.24011 0.77197 0.39158 0.0
H2272 H 0.5558 0.93451 0.749 0.0
H2273 H 0.5524 0.01502 0.69034 0.0
H2274 H 0.50392 0.99429 0.66495 0.0
H2275 H 0.46267 0.95289 0.65984 0.0
H2276 H 0.46845 0.87141 0.71742 0.0
H2277 H 0.51624 0.89264 0.74266 0.0
C2278 C 0.54472 0.94718 0.73021 0.0
C2279 C 0.55797 0.9756 0.72065 0.0
C2280 C 0.51738 0.93494 0.71567 0.0
C2281 C 0.54276 0.99271 0.69747 0.0
C2282 C 0.51517 0.98085 0.68302 0.0
C2283 C 0.47459 0.93976 0.67776 0.0
C2284 C 0.46215 0.91066 0.68675 0.0
C2285 C 0.50234 0.95191 0.69189 0.0
C2286 C 0.47775 0.89374 0.7099 0.0
C2287 C 0.50493 0.90594 0.72451 0.0
H2288 H 0.2864 0.30345 0.94985 0.0
H2289 H 0.38146 0.33214 0.97402 0.0
H2290 H 0.40128 0.29116 0.9401 0.0
H2291 H 0.39184 0.243 0.90986 0.0
H2292 H 0.29707 0.21151 0.88809 0.0
H2293 H 0.277 0.25802 0.91417 0.0
C2294 C 0.31141 0.30111 0.9471 0.0
C2295 C 0.33241 0.32049 0.96471 0.0
C2296 C 0.32276 0.27678 0.92822 0.0
C2297 C 0.36479 0.31721 0.96103 0.0
C2298 C 0.37619 0.29377 0.94164 0.0
C2299 C 0.3668 0.24653 0.91026 0.0
C2300 C 0.34602 0.22351 0.89759 0.0
C2301 C 0.35541 0.27273 0.92608 0.0
C2302 C 0.31362 0.22867 0.89807 0.0
C2303 C 0.3021 0.25522 0.91307 0.0
H2304 H 0.42688 0.55484 0.72802 0.0
H2305 H 0.46408 0.46883 0.69105 0.0
H2306 H 0.50631 0.49817 0.66702 0.0
H2307 H 0.5352 0.54736 0.66025 0.0
H2308 H 0.49922 0.63362 0.69734 0.0
H2309 H 0.45359 0.60507 0.71703 0.0
C2310 C 0.44407 0.54248 0.71453 0.0
C2311 C 0.44243 0.50952 0.71181 0.0
C2312 C 0.4685 0.55953 0.70076 0.0
C2313 C 0.46475 0.49407 0.69381 0.0
C2314 C 0.489 0.51084 0.68004 0.0
C2315 C 0.5172 0.56002 0.67235 0.0
C2316 C 0.52076 0.59251 0.67768 0.0
C2317 C 0.49145 0.54344 0.68393 0.0
C2318 C 0.49702 0.60863 0.69293 0.0
C2319 C 0.47107 0.59225 0.7044 0.0
H2320 H 0.74016 0.20145 0.06503 0.0
H2321 H 0.80983 0.18461 0.99567 0.0
H2322 H 0.83882 0.23176 0.0125 0.0
H2323 H 0.84548 0.27685 0.04784 0.0
H2324 H 0.77427 0.29779 0.11427 0.0
H2325 H 0.74486 0.24989 0.09818 0.0
C2326 C 0.76166 0.20831 0.05377 0.0
C2327 C 0.7737 0.18914 0.03017 0.0
C2328 C 0.77801 0.23593 0.06322 0.0
C2329 C 0.80092 0.19854 0.01481 0.0
C2330 C 0.8174 0.22555 0.02423 0.0
C2331 C 0.82353 0.27081 0.05877 0.0
C2332 C 0.81206 0.29026 0.08231 0.0
C2333 C 0.80647 0.24411 0.04872 0.0
C2334 C 0.78338 0.28282 0.09605 0.0
C2335 C 0.76665 0.25555 0.08687 0.0
H2336 H 0.54224 -0.00019 0.84004 0.0
H2337 H 0.60207 0.08242 0.84116 0.0
H2338 H 0.55756 0.11483 0.854 0.0
H2339 H 0.5001 0.12041 0.85584 0.0
H2340 H 0.44086 0.03716 0.85143 0.0
H2341 H 0.48652 0.0046 0.84863 0.0
C2342 C 0.54581 0.02479 0.84397 0.0
C2343 C 0.57533 0.03868 0.83909 0.0
C2344 C 0.51992 0.04341 0.84982 0.0
C2345 C 0.57952 0.07109 0.84456 0.0
C2346 C 0.55397 0.08973 0.85152 0.0
C2347 C 0.49723 0.09516 0.85457 0.0
C2348 C 0.46699 0.08141 0.853 0.0
C2349 C 0.52376 0.0763 0.8526 0.0
C2350 C 0.46376 0.04855 0.85189 0.0
C2351 C 0.48991 0.02978 0.85048 0.0
H2352 H 0.93828 0.92416 0.33656 0.0
H2353 H 0.97544 0.01845 0.33148 0.0
H2354 H 0.0223 0.00351 0.36098 0.0
H2355 H 0.05637 0.96134 0.37854 0.0
H2356 H 0.01948 0.8669 0.38267 0.0
H2357 H 0.96835 0.8843 0.36395 0.0
C2358 C 0.95627 0.94163 0.34266 0.0
C2359 C 0.95376 0.97222 0.33142 0.0
C2360 C 0.98322 0.93274 0.35919 0.0
C2361 C 0.97693 0.99477 0.33983 0.0
C2362 C 0.00381 0.98615 0.35646 0.0
C2363 C 0.0368 0.94479 0.37627 0.0
C2364 C 0.04168 0.91283 0.38145 0.0
C2365 C 0.00779 0.95487 0.36487 0.0
C2366 C 0.01623 0.89159 0.37883 0.0
C2367 C 0.98712 0.90149 0.36778 0.0
H2368 H 0.4194 0.25448 0.19341 0.0
H2369 H 0.49864 0.31591 0.17676 0.0
H2370 H 0.48175 0.35163 0.21817 0.0
H2371 H 0.44792 0.3618 0.26338 0.0
H2372 H 0.37233 0.29696 0.2821 0.0
H2373 H 0.38414 0.26619 0.23528 0.0
C2374 C 0.43298 0.27578 0.19853 0.0
C2375 C 0.46058 0.28218 0.18234 0.0
C2376 C 0.42375 0.29554 0.22283 0.0
C2377 C 0.47745 0.31022 0.18907 0.0
C2378 C 0.46785 0.33062 0.21279 0.0
C2379 C 0.43373 0.34132 0.25661 0.0
C2380 C 0.40933 0.33144 0.27574 0.0
C2381 C 0.44155 0.32303 0.23043 0.0
C2382 C 0.39123 0.30472 0.26745 0.0
C2383 C 0.39804 0.28716 0.24085 0.0
H2384 H 0.43986 0.76791 0.9925 0.0
H2385 H 0.4085 0.69284 0.92983 0.0
H2386 H 0.3883 0.66367 0.97421 0.0
H2387 H 0.38302 0.65841 0.03145 0.0
H2388 H 0.42019 0.73242 0.09289 0.0
H2389 H 0.43535 0.76268 0.04828 0.0
C2390 C 0.42797 0.74547 0.98836 0.0
C2391 C 0.42531 0.73268 0.95796 0.0
C2392 C 0.41825 0.72825 0.01389 0.0
C2393 C 0.41048 0.70328 0.95309 0.0
C2394 C 0.39931 0.68648 0.97846 0.0
C2395 C 0.39473 0.68099 0.03504 0.0
C2396 C 0.40041 0.693 0.06558 0.0
C2397 C 0.40383 0.69841 0.0091 0.0
C2398 C 0.41554 0.72241 0.06975 0.0
C2399 C 0.42404 0.73997 0.04423 0.0
H2400 H 0.09116 0.68459 0.69207 0.0
H2401 H 0.99636 0.65672 0.71391 0.0
H2402 H 0.01411 0.63738 0.7639 0.0
H2403 H 0.05554 0.63134 0.80303 0.0
H2404 H 0.15085 0.656 0.78204 0.0
H2405 H 0.13402 0.67353 0.73002 0.0
C2406 C 0.07447 0.67402 0.70764 0.0
C2407 C 0.04242 0.67253 0.69922 0.0
C2408 C 0.08485 0.66259 0.73659 0.0
C2409 C 0.02116 0.65837 0.71961 0.0
C2410 C 0.03122 0.64735 0.74838 0.0
C2411 C 0.07258 0.64052 0.78698 0.0
C2412 C 0.10416 0.64302 0.79622 0.0
C2413 C 0.06282 0.64991 0.75732 0.0
C2414 C 0.12632 0.65414 0.7752 0.0
C2415 C 0.11669 0.66417 0.74562 0.0
H2416 H 0.0777 0.2832 0.43682 0.0
H2417 H 0.98434 0.31783 0.44446 0.0
H2418 H 0.00144 0.35334 0.48741 0.0
H2419 H 0.04306 0.37331 0.52395 0.0
H2420 H 0.13753 0.34196 0.51195 0.0
H2421 H 0.12016 0.30731 0.46924 0.0
C2422 C 0.0613 0.29866 0.44794 0.0
C2423 C 0.03004 0.29825 0.43772 0.0
C2424 C 0.07153 0.31982 0.47168 0.0
C2425 C 0.00869 0.31815 0.45207 0.0
C2426 C 0.01843 0.33842 0.47652 0.0
C2427 C 0.05987 0.35931 0.51161 0.0
C2428 C 0.09144 0.36023 0.52139 0.0
C2429 C 0.04985 0.33946 0.48658 0.0
C2430 C 0.11302 0.342 0.50497 0.0
C2431 C 0.10312 0.32177 0.48067 0.0
H2432 H 0.44053 0.65638 0.33723 0.0
H2433 H 0.41624 0.75367 0.33873 0.0
H2434 H 0.3766 0.74375 0.29769 0.0
H2435 H 0.35665 0.70934 0.25502 0.0
H2436 H 0.37884 0.61157 0.25453 0.0
H2437 H 0.41029 0.61924 0.30248 0.0
C2438 C 0.42603 0.67509 0.32885 0.0
C2439 C 0.4313 0.70565 0.34028 0.0
C2440 C 0.40282 0.66911 0.30571 0.0
C2441 C 0.41244 0.72994 0.32982 0.0
C2442 C 0.38979 0.72432 0.3065 0.0
C2443 C 0.36721 0.68954 0.26631 0.0
C2444 C 0.36595 0.66018 0.25131 0.0
C2445 C 0.38571 0.69425 0.2934 0.0
C2446 C 0.37951 0.63445 0.26591 0.0
C2447 C 0.39798 0.63892 0.29298 0.0
H2448 H 0.11161 0.71738 0.08223 0.0
H2449 H 0.0135 0.69485 0.06707 0.0
H2450 H 0.02564 0.66104 0.02264 0.0
H2451 H 0.06358 0.64312 0.98426 0.0
H2452 H 0.16189 0.66272 0.00066 0.0
H2453 H 0.15044 0.69202 0.04868 0.0
C2454 C 0.09304 0.70461 0.06946 0.0
C2455 C 0.06175 0.70882 0.07759 0.0
C2456 C 0.10021 0.68478 0.04416 0.0
C2457 C 0.03781 0.69191 0.06122 0.0
C2458 C 0.04468 0.6727 0.03571 0.0
C2459 C 0.08245 0.65311 -0.00108 0.0
C2460 C 0.11341 0.65093 0.98922 0.0
C2461 C 0.07569 0.66966 0.02646 0.0
C2462 C 0.13786 0.6639 0.00808 0.0
C2463 C 0.13131 0.68091 0.0353 0.0
H2464 H 0.01536 0.29546 0.77415 0.0
H2465 H 0.06769 0.35614 0.83871 0.0
H2466 H 0.09556 0.37959 0.79485 0.0
H2467 H 0.10544 0.3816 0.73771 0.0
H2468 H 0.05627 0.31571 0.67538 0.0
H2469 H 0.02714 0.29514 0.71886 0.0
C2470 C 0.03249 0.31423 0.7786 0.0
C2471 C 0.03891 0.32476 0.80941 0.0
C2472 C 0.04938 0.32619 0.75368 0.0
C2473 C 0.06201 0.34816 0.81504 0.0
C2474 C 0.07804 0.36133 0.79001 0.0
C2475 C 0.08853 0.36257 0.73379 0.0
C2476 C 0.08315 0.35019 0.7033 0.0
C2477 C 0.0721 0.35029 0.75919 0.0
C2478 C 0.06122 0.32546 0.69857 0.0
C2479 C 0.04428 0.31384 0.7234 0.0
H2480 H 0.44195 0.2953 0.56184 0.0
H2481 H 0.53429 0.32182 0.53108 0.0
H2482 H 0.512 0.34435 0.48442 0.0
H2483 H 0.46689 0.35521 0.45113 0.0
H2484 H 0.37415 0.32894 0.48048 0.0
H2485 H 0.39596 0.30825 0.52885 0.0
C2486 C 0.45712 0.30597 0.5449 0.0
C2487 C 0.48973 0.30673 0.5501 0.0
C2488 C 0.44414 0.3192 0.51783 0.0
C2489 C 0.50907 0.32093 0.52794 0.0
C2490 C 0.49639 0.33389 0.5011 0.0
C2491 C 0.45137 0.34522 0.4682 0.0
C2492 C 0.41899 0.34355 0.46206 0.0
C2493 C 0.46402 0.33304 0.49572 0.0
C2494 C 0.39923 0.33065 0.48459 0.0
C2495 C 0.41168 0.31859 0.51221 0.0
H2496 H 0.21046 0.40486 0.2433 0.0
H2497 H 0.17909 0.45994 0.32185 0.0
H2498 H 0.22308 0.44183 0.35375 0.0
H2499 H 0.27205 0.41262 0.3582 0.0
H2500 H 0.30472 0.36093 0.27812 0.0
H2501 H 0.25814 0.37512 0.24793 0.0
C2502 C 0.21296 0.41278 0.26749 0.0
C2503 C 0.19147 0.43378 0.28015 0.0
C2504 C 0.23848 0.40277 0.28539 0.0
C2505 C 0.19537 0.44392 0.31146 0.0
C2506 C 0.22046 0.43351 0.32972 0.0
C2507 C 0.2686 0.40402 0.33432 0.0
C2508 C 0.29152 0.38557 0.32037 0.0
C2509 C 0.24233 0.41319 0.31681 0.0
C2510 C 0.28725 0.37508 0.28926 0.0
C2511 C 0.26074 0.38327 0.27202 0.0
H2512 H 0.30302 0.44865 0.11097 0.0
H2513 H 0.32864 0.45531 0.01454 0.0
H2514 H 0.35338 0.5066 0.025 0.0
H2515 H 0.36393 0.55147 0.06119 0.0
H2516 H 0.34638 0.54076 0.15922 0.0
H2517 H 0.32317 0.48886 0.14894 0.0
C2518 C 0.31456 0.46121 0.09255 0.0
C2519 C 0.31409 0.44865 0.06217 0.0
C2520 C 0.33025 0.48985 0.09905 0.0
C2521 C 0.32891 0.46486 0.03819 0.0
C2522 C 0.34306 0.49407 0.04412 0.0
C2523 C 0.35576 0.53733 0.08026 0.0
C2524 C 0.35644 0.54981 0.11071 0.0
C2525 C 0.34344 0.50705 0.07439 0.0
C2526 C 0.34606 0.53142 0.13549 0.0
C2527 C 0.33251 0.50189 0.12965 0.0
H2528 H 0.33634 0.5734 0.83154 0.0
H2529 H 0.30263 0.48166 0.85735 0.0
H2530 H 0.25276 0.50313 0.87146 0.0
H2531 H 0.21687 0.54589 0.87021 0.0
H2532 H 0.24977 0.63938 0.85119 0.0
H2533 H 0.30206 0.6192 0.84005 0.0
C2534 C 0.31853 0.55837 0.84143 0.0
C2535 C 0.32297 0.52583 0.84272 0.0
C2536 C 0.28965 0.57097 0.84988 0.0
C2537 C 0.29972 0.50669 0.85573 0.0
C2538 C 0.27105 0.51888 0.86362 0.0
C2539 C 0.23556 0.56206 0.86417 0.0
C2540 C 0.22947 0.59394 0.86104 0.0
C2541 C 0.26543 0.55064 0.85959 0.0
C2542 C 0.25393 0.61461 0.8533 0.0
C2543 C 0.28377 0.6031 0.84718 0.0
H2544 H 0.23764 0.5728 0.58319 0.0
H2545 H 0.20565 0.56064 0.48737 0.0
H2546 H 0.17188 0.51671 0.50163 0.0
H2547 H 0.15361 0.47957 0.54097 0.0
H2548 H 0.18287 0.49436 0.63742 0.0
H2549 H 0.21505 0.53924 0.62336 0.0
C2550 C 0.22307 0.56064 0.56556 0.0
C2551 C 0.22426 0.56981 0.53433 0.0
C2552 C 0.20315 0.53575 0.57399 0.0
C2553 C 0.20502 0.55411 0.51168 0.0
C2554 C 0.18578 0.52887 0.51975 0.0
C2555 C 0.16672 0.49289 0.5589 0.0
C2556 C 0.16592 0.48342 0.59008 0.0
C2557 C 0.18493 0.51919 0.55078 0.0
C2558 C 0.18287 0.50112 0.61316 0.0
C2559 C 0.20152 0.52677 0.60517 0.0
H2560 H 0.16962 0.55899 0.19366 0.0
H2561 H 0.20829 0.47541 0.15294 0.0
H2562 H 0.2531 0.50579 0.13502 0.0
H2563 H 0.28396 0.55475 0.13615 0.0
H2564 H 0.24611 0.63849 0.17639 0.0
H2565 H 0.19787 0.60949 0.18904 0.0
C2566 C 0.18764 0.54748 0.18052 0.0
C2567 C 0.18584 0.51486 0.17513 0.0
C2568 C 0.21348 0.56506 0.17042 0.0
C2569 C 0.20912 0.50042 0.15757 0.0
C2570 C 0.23485 0.51773 0.14743 0.0
C2571 C 0.26495 0.5666 0.14742 0.0
C2572 C 0.26843 0.59836 0.15589 0.0
C2573 C 0.23768 0.54982 0.15457 0.0
C2574 C 0.24367 0.61394 0.16982 0.0
C2575 C 0.2163 0.59734 0.17715 0.0
H2576 H 0.19169 0.42291 0.95867 0.0
H2577 H 0.28367 0.46541 0.9493 0.0
H2578 H 0.26053 0.51376 0.93327 0.0
H2579 H 0.21519 0.54535 0.92628 0.0
H2580 H 0.12244 0.50381 0.92778 0.0
H2581 H 0.14487 0.45362 0.94313 0.0
C2582 C 0.2066 0.44246 0.9522 0.0
C2583 C 0.23939 0.44063 0.95577 0.0
C2584 C 0.19308 0.47047 0.9423 0.0
C2585 C 0.2584 0.46614 0.94714 0.0
C2586 C 0.24521 0.49399 0.93815 0.0
C2587 C 0.1997 0.52533 0.92961 0.0
C2588 C 0.16719 0.52836 0.92625 0.0
C2589 C 0.21271 0.49663 0.93653 0.0
C2590 C 0.14758 0.50206 0.93051 0.0
C2591 C 0.16043 0.47341 0.93908 0.0
H2592 H 0.30931 0.48029 0.68772 0.0
H2593 H 0.30137 0.42407 0.76953 0.0
H2594 H 0.25336 0.39879 0.74799 0.0
H2595 H 0.21318 0.39327 0.70547 0.0
H2596 H 0.22536 0.44641 0.62172 0.0
H2597 H 0.27205 0.47195 0.64407 0.0
C2598 C 0.29703 0.46236 0.70057 0.0
C2599 C 0.30867 0.45355 0.72968 0.0
C2600 C 0.27019 0.44738 0.68768 0.0
C2601 C 0.29274 0.43065 0.74665 0.0
C2602 C 0.26534 0.41632 0.73444 0.0
C2603 C 0.22624 0.41031 0.69223 0.0
C2604 C 0.21579 0.41799 0.66216 0.0
C2605 C 0.2538 0.42449 0.7049 0.0
C2606 C 0.233 0.43994 0.64496 0.0
C2607 C 0.25966 0.45477 0.65772 0.0
H2608 H 0.33938 0.54299 0.48211 0.0
H2609 H 0.29342 0.57745 0.3992 0.0
H2610 H 0.30923 0.53091 0.36969 0.0
H2611 H 0.33317 0.4789 0.36883 0.0
H2612 H 0.37598 0.44434 0.45329 0.0
H2613 H 0.36435 0.49293 0.48097 0.0
C2614 C 0.333 0.54066 0.45749 0.0
C2615 C 0.31509 0.56357 0.4429 0.0
C2616 C 0.34147 0.5138 0.44107 0.0
C2617 C 0.307 0.55998 0.41102 0.0
C2618 C 0.31603 0.53342 0.39417 0.0
C2619 C 0.34021 0.48224 0.3932 0.0
C2620 C 0.35523 0.45819 0.40915 0.0
C2621 C 0.33281 0.50994 0.40916 0.0
C2622 C 0.3641 0.46252 0.44072 0.0
C2623 C 0.35753 0.49025 0.4565 0.0
H2624 H 0.27992 0.18912 0.41345 0.0
H2625 H 0.34463 0.18909 0.49244 0.0
H2626 H 0.37725 0.22883 0.46754 0.0
H2627 H 0.38298 0.26845 0.4269 0.0
H2628 H 0.31451 0.27171 0.35161 0.0
H2629 H 0.28768 0.22527 0.3714 0.0
C2630 C 0.30125 0.19755 0.42531 0.0
C2631 C 0.30946 0.18664 0.45514 0.0
C2632 C 0.31912 0.22093 0.41146 0.0
C2633 C 0.33759 0.19735 0.46965 0.0
C2634 C 0.35618 0.2201 0.45546 0.0
C2635 C 0.36269 0.25834 0.41442 0.0
C2636 C 0.35061 0.27305 0.38783 0.0
C2637 C 0.34659 0.23274 0.42686 0.0
C2638 C 0.32403 0.26047 0.37208 0.0
C2639 C 0.3087 0.23414 0.38347 0.0
H2640 H 0.78079 0.32354 0.59675 0.0
H2641 H 0.84937 0.32893 0.52464 0.0
H2642 H 0.87296 0.28069 0.5432 0.0
H2643 H 0.87021 0.23463 0.57607 0.0
H2644 H 0.79625 0.22488 0.64245 0.0
H2645 H 0.77834 0.27744 0.6301 0.0
C2646 C 0.80154 0.31461 0.5858 0.0
C2647 C 0.81404 0.33003 0.55999 0.0
C2648 C 0.81345 0.28592 0.59524 0.0
C2649 C 0.83997 0.3177 0.54499 0.0
C2650 C 0.85316 0.29005 0.55541 0.0
C2651 C 0.85041 0.24415 0.5882 0.0
C2652 C 0.83459 0.22602 0.6103 0.0
C2653 C 0.83952 0.27357 0.57993 0.0
C2654 C 0.8087 0.23842 0.62537 0.0
C2655 C 0.79854 0.26842 0.61832 0.0
H2656 H 0.46407 0.0192 0.29875 0.0
H2657 H 0.44871 0.10463 0.24967 0.0
H2658 H 0.4959 0.12846 0.27495 0.0
H2659 H 0.54035 0.12495 0.31216 0.0
H2660 H 0.55775 0.03809 0.35822 0.0
H2661 H 0.51049 0.01448 0.33306 0.0
C2662 C 0.47114 0.04309 0.29375 0.0
C2663 C 0.45278 0.06072 0.27336 0.0
C2664 C 0.49839 0.05612 0.30779 0.0
C2665 C 0.4624 0.09111 0.2659 0.0
C2666 C 0.48926 0.10459 0.28029 0.0
C2667 C 0.53368 0.10085 0.31667 0.0
C2668 C 0.55199 0.08322 0.33723 0.0
C2669 C 0.50717 0.08738 0.30153 0.0
C2670 C 0.54377 0.05192 0.3425 0.0
C2671 C 0.51688 0.03853 0.32815 0.0
H2672 H 0.74203 0.7008 0.07348 0.0
H2673 H 0.65328 0.68563 0.02499 0.0
H2674 H 0.62976 0.7256 0.05785 0.0
H2675 H 0.63532 0.76757 0.09697 0.0
H2676 H 0.72505 0.78761 0.14188 0.0
H2677 H 0.74723 0.7427 0.11421 0.0
C2678 C 0.71741 0.7059 0.07056 0.0
C2679 C 0.69935 0.69012 0.04696 0.0
C2680 C 0.70428 0.72982 0.08884 0.0
C2681 C 0.66764 0.69738 0.04298 0.0
C2682 C 0.65419 0.72026 0.06176 0.0
C2683 C 0.6596 0.76181 0.10129 0.0
C2684 C 0.67846 0.78078 0.12171 0.0
C2685 C 0.67241 0.73699 0.08433 0.0
C2686 C 0.71003 0.77329 0.1264 0.0
C2687 C 0.72271 0.74772 0.11048 0.0
H2688 H 0.54417 0.50791 0.33906 0.0
H2689 H 0.5778 0.44028 0.27207 0.0
H2690 H 0.53934 0.40172 0.28946 0.0
H2691 H 0.49305 0.38882 0.32046 0.0
H2692 H 0.4576 0.45802 0.38442 0.0
H2693 H 0.50035 0.4942 0.3719 0.0
C2694 C 0.54334 0.4847 0.32833 0.0
C2695 C 0.56366 0.47721 0.30402 0.0
C2696 C 0.52091 0.46284 0.33805 0.0
C2697 C 0.56224 0.44687 0.29061 0.0
C2698 C 0.5403 0.42474 0.30059 0.0
C2699 C 0.49526 0.41154 0.33217 0.0
C2700 C 0.47252 0.42085 0.35342 0.0
C2701 C 0.51914 0.43265 0.32389 0.0
C2702 C 0.47505 0.45049 0.36805 0.0
C2703 C 0.49931 0.47119 0.36076 0.0
H2704 H 0.15466 0.81575 0.97491 0.0
H2705 H 0.2521 0.81219 0.95175 0.0
H2706 H 0.24253 0.76372 0.92156 0.0
H2707 H 0.20682 0.72063 0.90459 0.0
H2708 H 0.1084 0.72675 0.9227 0.0
H2709 H 0.11753 0.77645 0.95111 0.0
C2710 C 0.17355 0.80431 0.96301 0.0
C2711 C 0.2039 0.8171 0.96532 0.0
C2712 C 0.16763 0.77722 0.94457 0.0
C2713 C 0.22849 0.80245 0.94999 0.0
C2714 C 0.22305 0.7749 0.93271 0.0
C2715 C 0.18738 0.73342 0.91402 0.0
C2716 C 0.15711 0.72046 0.91159 0.0
C2717 C 0.19277 0.76195 0.93003 0.0
C2718 C 0.1319 0.73681 0.92397 0.0
C2719 C 0.13715 0.76489 0.94062 0.0
H2720 H 0.46049 0.98482 0.17834 0.0
H2721 H 0.42432 0.90211 0.22181 0.0
H2722 H 0.47009 0.87288 0.20518 0.0
H2723 H 0.52336 0.87312 0.18417 0.0
H2724 H 0.56169 0.95799 0.14599 0.0
H2725 H 0.51227 0.9842 0.15451 0.0
C2726 C 0.46223 0.96008 0.18311 0.0
C2727 C 0.43886 0.94523 0.20039 0.0
C2728 C 0.48934 0.9441 0.17499 0.0
C2729 C 0.44174 0.91362 0.20776 0.0
C2730 C 0.46806 0.8971 0.19858 0.0
C2731 C 0.52069 0.89718 0.1772 0.0
C2732 C 0.5462 0.91363 0.16452 0.0
C2733 C 0.49248 0.9124 0.18307 0.0
C2734 C 0.54249 0.9449 0.15598 0.0
C2735 C 0.51423 0.95988 0.1608 0.0
H2736 H 0.03927 0.02642 0.68301 0.0
H2737 H 0.07974 0.11872 0.67256 0.0
H2738 H 0.03524 0.13312 0.63939 0.0
H2739 H 0.98223 0.12214 0.62065 0.0
H2740 H 0.93728 0.03304 0.63857 0.0
H2741 H 0.98662 0.01402 0.66032 0.0
C2742 C 0.03852 0.0494 0.67276 0.0
C2743 C 0.06251 0.07158 0.67992 0.0
C2744 C 0.01208 0.05796 0.65519 0.0
C2745 C 0.06138 0.10146 0.66723 0.0
C2746 C 0.03599 0.10962 0.64835 0.0
C2747 C 0.98317 0.09831 0.62878 0.0
C2748 C 0.95583 0.07928 0.6286 0.0
C2749 C 0.01076 0.08845 0.64321 0.0
C2750 C 0.95784 0.0483 0.63867 0.0
C2751 C 0.98598 0.03755 0.65142 0.0
loop_
_geom_bond_atom_site_label_1
_geom_bond_atom_site_label_2
_geom_bond_distance
_geom_bond_site_symmetry_2
_ccdc_geom_bond_type
Mn0 O5 2.095 1_455 S
Mn0 O15 2.162 1_455 S
Mn0 O16 2.297 1_455 S
Mn0 O24 2.385 . S
Mn0 O25 2.209 . S
Mn0 O26 2.094 . S
Mn1 O6 2.121 1_455 S
Mn1 N8 2.257 . S
Mn1 N17 2.282 . S
Mn1 O25 2.215 . S
Mn1 O27 2.117 . S
C2 O24 1.234 . S
C2 O25 1.283 . S
C3 O15 1.281 . S
C3 O16 1.236 . S
C4 O26 1.240 . S
C4 O27 1.264 . S
O5 Mn0 2.095 1_655 S
O5 C14 1.250 . S
O6 Mn1 2.121 1_655 S
O6 C14 1.258 . S
C7 N8 1.326 . S
C7 C11 1.460 . S
C7 H13 0.929 . S
N8 Mn1 2.257 . S
N8 C7 1.326 . S
N8 C12 1.362 . S
C9 C10 1.258 . S
C9 C12 1.431 . S
C9 C29 1.449 . S
C10 C9 1.258 . S
C10 C11 1.477 . S
C10 H30 0.931 . S
C11 C7 1.460 . S
C11 C10 1.477 . S
C11 H31 0.930 . S
C12 N8 1.362 . S
C12 C9 1.431 . S
C12 C22 1.476 . S
H13 C7 0.929 . S
C14 O5 1.250 . S
C14 O6 1.258 . S
O15 Mn0 2.162 1_655 S
O15 C3 1.281 . S
O16 Mn0 2.297 1_655 S
O16 C3 1.236 . S
N17 Mn1 2.282 . S
N17 C18 1.328 . S
N17 C22 1.318 . S
C18 N17 1.328 . S
C18 C19 1.457 . S
C18 H23 0.929 . S
C19 C18 1.457 . S
C19 C20 1.291 . S
C19 H32 0.931 . S
C20 C19 1.291 . S
C20 C21 1.373 . S
C20 H33 0.929 . S
C21 C20 1.373 . S
C21 C22 1.396 . S
C21 C28 1.403 . S
C22 C12 1.476 . S
C22 N17 1.318 . S
C22 C21 1.396 . S
H23 C18 0.929 . S
O24 Mn0 2.385 . S
O24 C2 1.234 . S
O25 Mn0 2.209 . S
O25 Mn1 2.215 . S
O25 C2 1.283 . S
O26 Mn0 2.094 . S
O26 C4 1.240 . S
O27 Mn1 2.117 . S
O27 C4 1.264 . S
C28 C21 1.403 . S
C28 C29 1.399 . S
C28 H34 0.929 . S
C29 C9 1.449 . S
C29 C28 1.399 . S
C29 H35 0.930 . S
H30 C10 0.931 . S
H31 C11 0.930 . S
H32 C19 0.931 . S
H33 C20 0.929 . S
H34 C28 0.929 . S
H35 C29 0.930 . S
Mn36 O41 2.095 . S
Mn36 O51 2.162 . S
Mn36 O52 2.297 . S
Mn36 O60 2.385 . S
Mn36 O61 2.209 1_455 S
Mn36 O62 2.094 . S
Mn37 O42 2.121 . S
Mn37 N44 2.257 . S
Mn37 N53 2.282 . S
Mn37 O61 2.215 . S
Mn37 O63 2.117 1_655 S
C38 O60 1.234 1_655 S
C38 O61 1.283 . S
C39 O51 1.281 . S
C39 O52 1.236 . S
C40 O62 1.240 . S
C40 O63 1.264 . S
O41 Mn36 2.095 . S
O41 C50 1.250 1_455 S
O42 Mn37 2.121 . S
O42 C50 1.258 . S
C43 N44 1.326 . S
C43 C47 1.460 . S
C43 H49 0.929 . S
N44 Mn37 2.257 . S
N44 C43 1.326 . S
N44 C48 1.362 . S
C45 C46 1.258 . S
C45 C48 1.431 . S
C45 C65 1.449 . S
C46 C45 1.258 . S
C46 C47 1.477 . S
C46 H66 0.931 . S
C47 C43 1.460 . S
C47 C46 1.477 . S
C47 H67 0.930 . S
C48 N44 1.362 . S
C48 C45 1.431 . S
C48 C58 1.476 . S
H49 C43 0.929 . S
C50 O41 1.250 1_655 S
C50 O42 1.258 . S
O51 Mn36 2.162 . S
O51 C39 1.281 . S
O52 Mn36 2.297 . S
O52 C39 1.236 . S
N53 Mn37 2.282 . S
N53 C54 1.328 . S
N53 C58 1.318 . S
C54 N53 1.328 . S
C54 C55 1.457 . S
C54 H59 0.929 . S
C55 C54 1.457 . S
C55 C56 1.291 . S
C55 H68 0.931 . S
C56 C55 1.291 . S
C56 C57 1.373 . S
C56 H69 0.929 . S
C57 C56 1.373 . S
C57 C58 1.396 . S
C57 C64 1.403 . S
C58 C48 1.476 . S
C58 N53 1.318 . S
C58 C57 1.396 . S
H59 C54 0.929 . S
O60 Mn36 2.385 . S
O60 C38 1.234 1_455 S
O61 Mn36 2.209 1_655 S
O61 Mn37 2.215 . S
O61 C38 1.283 . S
O62 Mn36 2.094 . S
O62 C40 1.240 . S
O63 Mn37 2.117 1_455 S
O63 C40 1.264 . S
C64 C57 1.403 . S
C64 C65 1.399 . S
C64 H70 0.929 . S
C65 C45 1.449 . S
C65 C64 1.399 . S
C65 H71 0.930 . S
H66 C46 0.931 . S
H67 C47 0.930 . S
H68 C55 0.931 . S
H69 C56 0.929 . S
H70 C64 0.929 . S
H71 C65 0.930 . S
Mn72 O77 2.095 . S
Mn72 O87 2.162 . S
Mn72 O88 2.297 . S
Mn72 O96 2.385 . S
Mn72 O97 2.209 . S
Mn72 O98 2.094 . S
Mn73 O78 2.121 . S
Mn73 N80 2.257 . S
Mn73 N89 2.282 . S
Mn73 O97 2.215 . S
Mn73 O99 2.117 . S
C74 O96 1.234 . S
C74 O97 1.283 . S
C75 O87 1.281 . S
C75 O88 1.236 . S
C76 O98 1.240 . S
C76 O99 1.264 . S
O77 Mn72 2.095 . S
O77 C86 1.250 . S
O78 Mn73 2.121 . S
O78 C86 1.258 . S
C79 N80 1.326 . S
C79 C83 1.460 . S
C79 H85 0.929 . S
N80 Mn73 2.257 . S
N80 C79 1.326 . S
N80 C84 1.362 . S
C81 C82 1.258 . S
C81 C84 1.431 . S
C81 C101 1.449 . S
C82 C81 1.258 . S
C82 C83 1.477 . S
C82 H102 0.931 . S
C83 C79 1.460 . S
C83 C82 1.477 . S
C83 H103 0.930 . S
C84 N80 1.362 . S
C84 C81 1.431 . S
C84 C94 1.476 . S
H85 C79 0.929 . S
C86 O77 1.250 . S
C86 O78 1.258 . S
O87 Mn72 2.162 . S
O87 C75 1.281 . S
O88 Mn72 2.297 . S
O88 C75 1.236 . S
N89 Mn73 2.282 . S
N89 C90 1.328 . S
N89 C94 1.318 . S
C90 N89 1.328 . S
C90 C91 1.457 . S
C90 H95 0.929 . S
C91 C90 1.457 . S
C91 C92 1.291 . S
C91 H104 0.931 . S
C92 C91 1.291 . S
C92 C93 1.373 . S
C92 H105 0.929 . S
C93 C92 1.373 . S
C93 C94 1.396 . S
C93 C100 1.403 . S
C94 C84 1.476 . S
C94 N89 1.318 . S
C94 C93 1.396 . S
H95 C90 0.929 . S
O96 Mn72 2.385 . S
O96 C74 1.234 . S
O97 Mn72 2.209 . S
O97 Mn73 2.215 . S
O97 C74 1.283 . S
O98 Mn72 2.094 . S
O98 C76 1.240 . S
O99 Mn73 2.117 . S
O99 C76 1.264 . S
C100 C93 1.403 . S
C100 C101 1.399 . S
C100 H106 0.929 . S
C101 C81 1.449 . S
C101 C100 1.399 . S
C101 H107 0.930 . S
H102 C82 0.931 . S
H103 C83 0.930 . S
H104 C91 0.931 . S
H105 C92 0.929 . S
H106 C100 0.929 . S
H107 C101 0.930 . S
Mn108 O113 2.095 . S
Mn108 O123 2.162 . S
Mn108 O124 2.297 . S
Mn108 O132 2.385 . S
Mn108 O133 2.209 . S
Mn108 O134 2.094 . S
Mn109 O114 2.121 . S
Mn109 N116 2.257 . S
Mn109 N125 2.282 . S
Mn109 O133 2.215 . S
Mn109 O135 2.117 . S
C110 O132 1.234 . S
C110 O133 1.283 . S
C111 O123 1.281 . S
C111 O124 1.236 . S
C112 O134 1.240 . S
C112 O135 1.264 . S
O113 Mn108 2.095 . S
O113 C122 1.250 . S
O114 Mn109 2.121 . S
O114 C122 1.258 . S
C115 N116 1.326 . S
C115 C119 1.460 . S
C115 H121 0.929 . S
N116 Mn109 2.257 . S
N116 C115 1.326 . S
N116 C120 1.362 . S
C117 C118 1.258 . S
C117 C120 1.431 . S
C117 C137 1.449 . S
C118 C117 1.258 . S
C118 C119 1.477 . S
C118 H138 0.931 . S
C119 C115 1.460 . S
C119 C118 1.477 . S
C119 H139 0.930 . S
C120 N116 1.362 . S
C120 C117 1.431 . S
C120 C130 1.476 . S
H121 C115 0.929 . S
C122 O113 1.250 . S
C122 O114 1.258 . S
O123 Mn108 2.162 . S
O123 C111 1.281 . S
O124 Mn108 2.297 . S
O124 C111 1.236 . S
N125 Mn109 2.282 . S
N125 C126 1.328 . S
N125 C130 1.318 . S
C126 N125 1.328 . S
C126 C127 1.457 . S
C126 H131 0.929 . S
C127 C126 1.457 . S
C127 C128 1.291 . S
C127 H140 0.931 . S
C128 C127 1.291 . S
C128 C129 1.373 . S
C128 H141 0.929 . S
C129 C128 1.373 . S
C129 C130 1.396 . S
C129 C136 1.403 . S
C130 C120 1.476 . S
C130 N125 1.318 . S
C130 C129 1.396 . S
H131 C126 0.929 . S
O132 Mn108 2.385 . S
O132 C110 1.234 . S
O133 Mn108 2.209 . S
O133 Mn109 2.215 . S
O133 C110 1.283 . S
O134 Mn108 2.094 . S
O134 C112 1.240 . S
O135 Mn109 2.117 . S
O135 C112 1.264 . S
C136 C129 1.403 . S
C136 C137 1.399 . S
C136 H142 0.929 . S
C137 C117 1.449 . S
C137 C136 1.399 . S
C137 H143 0.930 . S
H138 C118 0.931 . S
H139 C119 0.930 . S
H140 C127 0.931 . S
H141 C128 0.929 . S
H142 C136 0.929 . S
H143 C137 0.930 . S
Mn144 O149 2.095 . S
Mn144 O159 2.162 . S
Mn144 O160 2.297 . S
Mn144 O168 2.385 1_655 S
Mn144 O169 2.209 1_655 S
Mn144 O170 2.094 1_655 S
Mn145 O150 2.121 1_455 S
Mn145 N152 2.257 . S
Mn145 N161 2.282 . S
Mn145 O169 2.215 . S
Mn145 O171 2.117 . S
C146 O168 1.234 . S
C146 O169 1.283 . S
C147 O159 1.281 . S
C147 O160 1.236 . S
C148 O170 1.240 . S
C148 O171 1.264 . S
O149 Mn144 2.095 . S
O149 C158 1.250 . S
O150 Mn145 2.121 1_655 S
O150 C158 1.258 . S
C151 N152 1.326 . S
C151 C155 1.460 . S
C151 H157 0.910 1_455 S
N152 Mn145 2.257 . S
N152 C151 1.326 . S
N152 C156 1.362 . S
C153 C154 1.258 . S
C153 C156 1.431 . S
C153 C173 1.449 . S
C154 C153 1.258 . S
C154 C155 1.477 . S
C154 H174 0.931 . S
C155 C151 1.460 . S
C155 C154 1.477 . S
C155 H175 0.930 . S
C156 N152 1.362 . S
C156 C153 1.431 . S
C156 C166 1.476 . S
H157 C151 0.910 1_655 S
C158 O149 1.250 . S
C158 O150 1.258 . S
O159 Mn144 2.162 . S
O159 C147 1.281 . S
O160 Mn144 2.297 . S
O160 C147 1.236 . S
N161 Mn145 2.282 . S
N161 C162 1.328 . S
N161 C166 1.318 . S
C162 N161 1.328 . S
C162 C163 1.457 . S
C162 H167 0.929 . S
C163 C162 1.457 . S
C163 C164 1.291 . S
C163 H176 0.931 . S
C164 C163 1.291 . S
C164 C165 1.373 . S
C164 H177 0.929 . S
C165 C164 1.373 . S
C165 C166 1.396 . S
C165 C172 1.403 . S
C166 C156 1.476 . S
C166 N161 1.318 . S
C166 C165 1.396 . S
H167 C162 0.929 . S
O168 Mn144 2.385 1_455 S
O168 C146 1.234 . S
O169 Mn144 2.209 1_455 S
O169 Mn145 2.215 . S
O169 C146 1.283 . S
O170 Mn144 2.094 1_455 S
O170 C148 1.240 . S
O171 Mn145 2.117 . S
O171 C148 1.264 . S
C172 C165 1.403 . S
C172 C173 1.399 . S
C172 H178 0.929 . S
C173 C153 1.449 . S
C173 C172 1.399 . S
C173 H179 0.930 . S
H174 C154 0.931 . S
H175 C155 0.930 . S
H176 C163 0.931 . S
H177 C164 0.929 . S
H178 C172 0.929 . S
H179 C173 0.930 . S
Mn180 O185 2.095 . S
Mn180 O195 2.162 . S
Mn180 O196 2.297 . S
Mn180 O204 2.385 . S
Mn180 O205 2.209 . S
Mn180 O206 2.094 . S
Mn181 O186 2.121 . S
Mn181 N188 2.257 . S
Mn181 N197 2.282 . S
Mn181 O205 2.215 . S
Mn181 O207 2.117 . S
C182 O204 1.234 . S
C182 O205 1.283 . S
C183 O195 1.281 . S
C183 O196 1.236 . S
C184 O206 1.240 . S
C184 O207 1.264 . S
O185 Mn180 2.095 . S
O185 C194 1.250 . S
O186 Mn181 2.121 . S
O186 C194 1.258 . S
C187 N188 1.326 . S
C187 C191 1.460 . S
C187 H193 0.929 . S
N188 Mn181 2.257 . S
N188 C187 1.326 . S
N188 C192 1.362 . S
C189 C190 1.258 . S
C189 C192 1.431 . S
C189 C209 1.449 . S
C190 C189 1.258 . S
C190 C191 1.477 . S
C190 H210 0.931 . S
C191 C187 1.460 . S
C191 C190 1.477 . S
C191 H211 0.930 . S
C192 N188 1.362 . S
C192 C189 1.431 . S
C192 C202 1.476 . S
H193 C187 0.929 . S
C194 O185 1.250 . S
C194 O186 1.258 . S
O195 Mn180 2.162 . S
O195 C183 1.281 . S
O196 Mn180 2.297 . S
O196 C183 1.236 . S
N197 Mn181 2.282 . S
N197 C198 1.328 . S
N197 C202 1.318 . S
C198 N197 1.328 . S
C198 C199 1.457 . S
C198 H203 0.929 . S
C199 C198 1.457 . S
C199 C200 1.291 . S
C199 H212 0.931 . S
C200 C199 1.291 . S
C200 C201 1.373 . S
C200 H213 0.929 . S
C201 C200 1.373 . S
C201 C202 1.396 . S
C201 C208 1.403 . S
C202 C192 1.476 . S
C202 N197 1.318 . S
C202 C201 1.396 . S
H203 C198 0.929 . S
O204 Mn180 2.385 . S
O204 C182 1.234 . S
O205 Mn180 2.209 . S
O205 Mn181 2.215 . S
O205 C182 1.283 . S
O206 Mn180 2.094 . S
O206 C184 1.240 . S
O207 Mn181 2.117 . S
O207 C184 1.264 . S
C208 C201 1.403 . S
C208 C209 1.399 . S
C208 H214 0.929 . S
C209 C189 1.449 . S
C209 C208 1.399 . S
C209 H215 0.930 . S
H210 C190 0.931 . S
H211 C191 0.930 . S
H212 C199 0.931 . S
H213 C200 0.929 . S
H214 C208 0.929 . S
H215 C209 0.930 . S
Mn216 O221 2.095 . S
Mn216 O231 2.162 . S
Mn216 O232 2.297 . S
Mn216 O240 2.385 . S
Mn216 O241 2.209 . S
Mn216 O242 2.094 . S
Mn217 O222 2.121 . S
Mn217 N224 2.257 . S
Mn217 N233 2.282 . S
Mn217 O241 2.215 . S
Mn217 O243 2.117 . S
C218 O240 1.234 . S
C218 O241 1.283 . S
C219 O231 1.281 . S
C219 O232 1.236 . S
C220 O242 1.240 . S
C220 O243 1.264 . S
O221 Mn216 2.095 . S
O221 C230 1.250 . S
O222 Mn217 2.121 . S
O222 C230 1.258 . S
C223 N224 1.326 . S
C223 C227 1.460 . S
C223 H229 0.929 . S
N224 Mn217 2.257 . S
N224 C223 1.326 . S
N224 C228 1.362 . S
C225 C226 1.258 . S
C225 C228 1.431 . S
C225 C245 1.449 . S
C226 C225 1.258 . S
C226 C227 1.477 . S
C226 H246 0.931 . S
C227 C223 1.460 . S
C227 C226 1.477 . S
C227 H247 0.930 . S
C228 N224 1.362 . S
C228 C225 1.431 . S
C228 C238 1.476 . S
H229 C223 0.929 . S
C230 O221 1.250 . S
C230 O222 1.258 . S
O231 Mn216 2.162 . S
O231 C219 1.281 . S
O232 Mn216 2.297 . S
O232 C219 1.236 . S
N233 Mn217 2.282 . S
N233 C234 1.328 . S
N233 C238 1.318 . S
C234 N233 1.328 . S
C234 C235 1.457 . S
C234 H239 0.929 . S
C235 C234 1.457 . S
C235 C236 1.291 . S
C235 H248 0.931 . S
C236 C235 1.291 . S
C236 C237 1.373 . S
C236 H249 0.929 . S
C237 C236 1.373 . S
C237 C238 1.396 . S
C237 C244 1.403 . S
C238 C228 1.476 . S
C238 N233 1.318 . S
C238 C237 1.396 . S
H239 C234 0.929 . S
O240 Mn216 2.385 . S
O240 C218 1.234 . S
O241 Mn216 2.209 . S
O241 Mn217 2.215 . S
O241 C218 1.283 . S
O242 Mn216 2.094 . S
O242 C220 1.240 . S
O243 Mn217 2.117 . S
O243 C220 1.264 . S
C244 C237 1.403 . S
C244 C245 1.399 . S
C244 H250 0.929 . S
C245 C225 1.449 . S
C245 C244 1.399 . S
C245 H251 0.930 . S
H246 C226 0.931 . S
H247 C227 0.930 . S
H248 C235 0.931 . S
H249 C236 0.929 . S
H250 C244 0.929 . S
H251 C245 0.930 . S
Mn252 O257 2.095 . S
Mn252 O267 2.162 . S
Mn252 O268 2.297 . S
Mn252 O276 2.385 . S
Mn252 O277 2.209 1_455 S
Mn252 O278 2.094 . S
Mn253 O258 2.121 . S
Mn253 N260 2.257 . S
Mn253 N269 2.282 . S
Mn253 O277 2.215 . S
Mn253 O279 2.117 1_655 S
C254 O276 1.234 1_655 S
C254 O277 1.283 . S
C255 O267 1.281 . S
C255 O268 1.236 . S
C256 O278 1.240 . S
C256 O279 1.264 . S
O257 Mn252 2.095 . S
O257 C266 1.250 1_455 S
O258 Mn253 2.121 . S
O258 C266 1.258 . S
C259 N260 1.326 . S
C259 C263 1.460 . S
C259 H265 0.929 . S
N260 Mn253 2.257 . S
N260 C259 1.326 . S
N260 C264 1.362 . S
C261 C262 1.258 . S
C261 C264 1.431 . S
C261 C281 1.449 . S
C262 C261 1.258 . S
C262 C263 1.477 . S
C262 H282 0.931 . S
C263 C259 1.460 . S
C263 C262 1.477 . S
C263 H283 0.930 . S
C264 N260 1.362 . S
C264 C261 1.431 . S
C264 C274 1.476 . S
H265 C259 0.929 . S
C266 O257 1.250 1_655 S
C266 O258 1.258 . S
O267 Mn252 2.162 . S
O267 C255 1.281 . S
O268 Mn252 2.297 . S
O268 C255 1.236 . S
N269 Mn253 2.282 . S
N269 C270 1.328 . S
N269 C274 1.318 . S
C270 N269 1.328 . S
C270 C271 1.457 . S
C270 H275 0.929 . S
C271 C270 1.457 . S
C271 C272 1.291 . S
C271 H284 0.931 . S
C272 C271 1.291 . S
C272 C273 1.373 . S
C272 H285 0.929 . S
C273 C272 1.373 . S
C273 C274 1.396 . S
C273 C280 1.403 . S
C274 C264 1.476 . S
C274 N269 1.318 . S
C274 C273 1.396 . S
H275 C270 0.929 . S
O276 Mn252 2.385 . S
O276 C254 1.234 1_455 S
O277 Mn252 2.209 1_655 S
O277 Mn253 2.215 . S
O277 C254 1.283 . S
O278 Mn252 2.094 . S
O278 C256 1.240 . S
O279 Mn253 2.117 1_455 S
O279 C256 1.264 . S
C280 C273 1.403 . S
C280 C281 1.399 . S
C280 H286 0.929 . S
C281 C261 1.449 . S
C281 C280 1.399 . S
C281 H287 0.930 . S
H282 C262 0.931 . S
H283 C263 0.930 . S
H284 C271 0.931 . S
H285 C272 0.929 . S
H286 C280 0.929 . S
H287 C281 0.930 . S
Mn288 O293 2.095 . S
Mn288 O303 2.162 . S
Mn288 O304 2.297 . S
Mn288 O312 2.385 1_565 S
Mn288 O313 2.209 1_565 S
Mn288 O314 2.094 1_565 S
Mn289 O294 2.121 1_545 S
Mn289 N296 2.257 . S
Mn289 N305 2.282 . S
Mn289 O313 2.215 . S
Mn289 O315 2.117 . S
C290 O312 1.234 . S
C290 O313 1.283 . S
C291 O303 1.281 . S
C291 O304 1.236 . S
C292 O314 1.240 . S
C292 O315 1.264 . S
O293 Mn288 2.095 . S
O293 C302 1.250 . S
O294 Mn289 2.121 1_565 S
O294 C302 1.258 . S
C295 N296 1.326 . S
C295 C299 1.460 . S
C295 H301 0.947 . S
N296 Mn289 2.257 . S
N296 C295 1.326 . S
N296 C300 1.362 . S
C297 C298 1.258 . S
C297 C300 1.431 . S
C297 C317 1.449 . S
C298 C297 1.258 . S
C298 C299 1.477 . S
C298 H318 0.931 . S
C299 C295 1.460 . S
C299 C298 1.477 . S
C299 H319 0.930 . S
C300 N296 1.362 . S
C300 C297 1.431 . S
C300 C310 1.476 . S
H301 C295 0.947 . S
C302 O293 1.250 . S
C302 O294 1.258 . S
O303 Mn288 2.162 . S
O303 C291 1.281 . S
O304 Mn288 2.297 . S
O304 C291 1.236 . S
N305 Mn289 2.282 . S
N305 C306 1.328 . S
N305 C310 1.318 . S
C306 N305 1.328 . S
C306 C307 1.457 . S
C306 H311 0.929 . S
C307 C306 1.457 . S
C307 C308 1.291 . S
C307 H320 0.931 . S
C308 C307 1.291 . S
C308 C309 1.373 . S
C308 H321 0.929 . S
C309 C308 1.373 . S
C309 C310 1.396 . S
C309 C316 1.403 . S
C310 C300 1.476 . S
C310 N305 1.318 . S
C310 C309 1.396 . S
H311 C306 0.929 . S
O312 Mn288 2.385 1_545 S
O312 C290 1.234 . S
O313 Mn288 2.209 1_545 S
O313 Mn289 2.215 . S
O313 C290 1.283 . S
O314 Mn288 2.094 1_545 S
O314 C292 1.240 . S
O315 Mn289 2.117 . S
O315 C292 1.264 . S
C316 C309 1.403 . S
C316 C317 1.399 . S
C316 H322 0.929 . S
C317 C297 1.449 . S
C317 C316 1.399 . S
C317 H323 0.930 . S
H318 C298 0.931 . S
H319 C299 0.930 . S
H320 C307 0.931 . S
H321 C308 0.929 . S
H322 C316 0.929 . S
H323 C317 0.930 . S
Mn324 O329 2.095 . S
Mn324 O339 2.162 . S
Mn324 O340 2.297 . S
Mn324 O348 2.385 . S
Mn324 O349 2.209 . S
Mn324 O350 2.094 . S
Mn325 O330 2.121 . S
Mn325 N332 2.257 . S
Mn325 N341 2.282 . S
Mn325 O349 2.215 . S
Mn325 O351 2.117 . S
C326 O348 1.234 . S
C326 O349 1.283 . S
C327 O339 1.281 . S
C327 O340 1.236 . S
C328 O350 1.240 . S
C328 O351 1.264 . S
O329 Mn324 2.095 . S
O329 C338 1.250 . S
O330 Mn325 2.121 . S
O330 C338 1.258 . S
C331 N332 1.326 . S
C331 C335 1.460 . S
C331 H337 0.929 . S
N332 Mn325 2.257 . S
N332 C331 1.326 . S
N332 C336 1.362 . S
C333 C334 1.258 . S
C333 C336 1.431 . S
C333 C353 1.449 . S
C334 C333 1.258 . S
C334 C335 1.477 . S
C334 H354 0.931 . S
C335 C331 1.460 . S
C335 C334 1.477 . S
C335 H355 0.930 . S
C336 N332 1.362 . S
C336 C333 1.431 . S
C336 C346 1.476 . S
H337 C331 0.929 . S
C338 O329 1.250 . S
C338 O330 1.258 . S
O339 Mn324 2.162 . S
O339 C327 1.281 . S
O340 Mn324 2.297 . S
O340 C327 1.236 . S
N341 Mn325 2.282 . S
N341 C342 1.328 . S
N341 C346 1.318 . S
C342 N341 1.328 . S
C342 C343 1.457 . S
C342 H347 0.929 . S
C343 C342 1.457 . S
C343 C344 1.291 . S
C343 H356 0.931 . S
C344 C343 1.291 . S
C344 C345 1.373 . S
C344 H357 0.929 . S
C345 C344 1.373 . S
C345 C346 1.396 . S
C345 C352 1.403 . S
C346 C336 1.476 . S
C346 N341 1.318 . S
C346 C345 1.396 . S
H347 C342 0.929 . S
O348 Mn324 2.385 . S
O348 C326 1.234 . S
O349 Mn324 2.209 . S
O349 Mn325 2.215 . S
O349 C326 1.283 . S
O350 Mn324 2.094 . S
O350 C328 1.240 . S
O351 Mn325 2.117 . S
O351 C328 1.264 . S
C352 C345 1.403 . S
C352 C353 1.399 . S
C352 H358 0.929 . S
C353 C333 1.449 . S
C353 C352 1.399 . S
C353 H359 0.930 . S
H354 C334 0.931 . S
H355 C335 0.930 . S
H356 C343 0.931 . S
H357 C344 0.929 . S
H358 C352 0.929 . S
H359 C353 0.930 . S
Mn360 O365 2.100 . S
Mn360 O375 2.166 . S
Mn360 O376 2.303 . S
Mn360 O384 2.379 1_565 S
Mn360 O385 2.205 1_565 S
Mn360 O386 2.088 1_565 S
Mn361 O366 2.121 1_545 S
Mn361 N368 2.257 . S
Mn361 N377 2.282 . S
Mn361 O385 2.215 . S
Mn361 O387 2.117 . S
C362 O384 1.234 . S
C362 O385 1.283 . S
C363 O375 1.281 . S
C363 O376 1.236 . S
C364 O386 1.240 . S
C364 O387 1.264 . S
O365 Mn360 2.100 . S
O365 C374 1.250 . S
O366 Mn361 2.121 1_565 S
O366 C374 1.258 . S
C367 N368 1.326 . S
C367 C371 1.460 . S
C367 H373 0.945 . S
N368 Mn361 2.257 . S
N368 C367 1.326 . S
N368 C372 1.362 . S
C369 C370 1.258 . S
C369 C372 1.431 . S
C369 C389 1.449 . S
C370 C369 1.258 . S
C370 C371 1.477 . S
C370 H390 0.931 . S
C371 C367 1.460 . S
C371 C370 1.477 . S
C371 H391 0.930 . S
C372 N368 1.362 . S
C372 C369 1.431 . S
C372 C382 1.476 . S
H373 C367 0.945 . S
C374 O365 1.250 . S
C374 O366 1.258 . S
O375 Mn360 2.166 . S
O375 C363 1.281 . S
O376 Mn360 2.303 . S
O376 C363 1.236 . S
N377 Mn361 2.282 . S
N377 C378 1.328 . S
N377 C382 1.318 . S
C378 N377 1.328 . S
C378 C379 1.457 . S
C378 H383 0.929 . S
C379 C378 1.457 . S
C379 C380 1.291 . S
C379 H392 0.931 . S
C380 C379 1.291 . S
C380 C381 1.373 . S
C380 H393 0.929 . S
C381 C380 1.373 . S
C381 C382 1.396 . S
C381 C388 1.403 . S
C382 C372 1.476 . S
C382 N377 1.318 . S
C382 C381 1.396 . S
H383 C378 0.929 . S
O384 Mn360 2.379 1_545 S
O384 C362 1.234 . S
O385 Mn360 2.205 1_545 S
O385 Mn361 2.215 . S
O385 C362 1.283 . S
O386 Mn360 2.088 1_545 S
O386 C364 1.240 . S
O387 Mn361 2.117 . S
O387 C364 1.264 . S
C388 C381 1.403 . S
C388 C389 1.399 . S
C388 H394 0.929 . S
C389 C369 1.449 . S
C389 C388 1.399 . S
C389 H395 0.930 . S
H390 C370 0.931 . S
H391 C371 0.930 . S
H392 C379 0.931 . S
H393 C380 0.929 . S
H394 C388 0.929 . S
H395 C389 0.930 . S
Mn396 O401 2.095 . S
Mn396 O411 2.162 . S
Mn396 O412 2.297 . S
Mn396 O420 2.385 . S
Mn396 O421 2.209 1_554 S
Mn396 O422 2.094 . S
Mn397 O402 2.121 . S
Mn397 N404 2.257 . S
Mn397 N413 2.282 . S
Mn397 O421 2.215 . S
Mn397 O423 2.117 1_556 S
C398 O420 1.234 1_556 S
C398 O421 1.283 . S
C399 O411 1.281 . S
C399 O412 1.236 . S
C400 O422 1.240 . S
C400 O423 1.264 . S
O401 Mn396 2.095 . S
O401 C410 1.250 1_554 S
O402 Mn397 2.121 . S
O402 C410 1.258 . S
C403 N404 1.326 . S
C403 C407 1.460 . S
C403 H409 0.929 . S
N404 Mn397 2.257 . S
N404 C403 1.326 . S
N404 C408 1.362 . S
C405 C406 1.258 . S
C405 C408 1.431 . S
C405 C425 1.449 . S
C406 C405 1.258 . S
C406 C407 1.477 . S
C406 H426 0.931 . S
C407 C403 1.460 . S
C407 C406 1.477 . S
C407 H427 0.930 . S
C408 N404 1.362 . S
C408 C405 1.431 . S
C408 C418 1.476 . S
H409 C403 0.929 . S
C410 O401 1.250 1_556 S
C410 O402 1.258 . S
O411 Mn396 2.162 . S
O411 C399 1.281 . S
O412 Mn396 2.297 . S
O412 C399 1.236 . S
N413 Mn397 2.282 . S
N413 C414 1.328 . S
N413 C418 1.318 . S
C414 N413 1.328 . S
C414 C415 1.457 . S
C414 H419 0.929 . S
C415 C414 1.457 . S
C415 C416 1.291 . S
C415 H428 0.931 . S
C416 C415 1.291 . S
C416 C417 1.373 . S
C416 H429 0.929 . S
C417 C416 1.373 . S
C417 C418 1.396 . S
C417 C424 1.403 . S
C418 C408 1.476 . S
C418 N413 1.318 . S
C418 C417 1.396 . S
H419 C414 0.929 . S
O420 Mn396 2.385 . S
O420 C398 1.234 1_554 S
O421 Mn396 2.209 1_556 S
O421 Mn397 2.215 . S
O421 C398 1.283 . S
O422 Mn396 2.094 . S
O422 C400 1.240 . S
O423 Mn397 2.117 1_554 S
O423 C400 1.264 . S
C424 C417 1.403 . S
C424 C425 1.399 . S
C424 H430 0.929 . S
C425 C405 1.449 . S
C425 C424 1.399 . S
C425 H431 0.930 . S
H426 C406 0.931 . S
H427 C407 0.930 . S
H428 C415 0.931 . S
H429 C416 0.929 . S
H430 C424 0.929 . S
H431 C425 0.930 . S
Mn432 O437 2.095 1_554 S
Mn432 O447 2.162 1_554 S
Mn432 O448 2.297 1_554 S
Mn432 O456 2.385 . S
Mn432 O457 2.209 . S
Mn432 O458 2.094 . S
Mn433 O438 2.121 1_554 S
Mn433 N440 2.257 . S
Mn433 N449 2.282 . S
Mn433 O457 2.215 . S
Mn433 O459 2.117 . S
C434 O456 1.234 . S
C434 O457 1.283 . S
C435 O447 1.281 . S
C435 O448 1.236 . S
C436 O458 1.240 . S
C436 O459 1.264 . S
O437 Mn432 2.095 1_556 S
O437 C446 1.250 . S
O438 Mn433 2.121 1_556 S
O438 C446 1.258 . S
C439 N440 1.326 . S
C439 C443 1.460 . S
C439 H445 0.929 . S
N440 Mn433 2.257 . S
N440 C439 1.326 . S
N440 C444 1.362 . S
C441 C442 1.258 . S
C441 C444 1.431 . S
C441 C461 1.449 . S
C442 C441 1.258 . S
C442 C443 1.477 . S
C442 H462 0.931 . S
C443 C439 1.460 . S
C443 C442 1.477 . S
C443 H463 0.930 . S
C444 N440 1.362 . S
C444 C441 1.431 . S
C444 C454 1.476 . S
H445 C439 0.929 . S
C446 O437 1.250 . S
C446 O438 1.258 . S
O447 Mn432 2.162 1_556 S
O447 C435 1.281 . S
O448 Mn432 2.297 1_556 S
O448 C435 1.236 . S
N449 Mn433 2.282 . S
N449 C450 1.328 . S
N449 C454 1.318 . S
C450 N449 1.328 . S
C450 C451 1.457 . S
C450 H455 0.929 . S
C451 C450 1.457 . S
C451 C452 1.291 . S
C451 H464 0.931 . S
C452 C451 1.291 . S
C452 C453 1.373 . S
C452 H465 0.929 . S
C453 C452 1.373 . S
C453 C454 1.396 . S
C453 C460 1.403 . S
C454 C444 1.476 . S
C454 N449 1.318 . S
C454 C453 1.396 . S
H455 C450 0.929 . S
O456 Mn432 2.385 . S
O456 C434 1.234 . S
O457 Mn432 2.209 . S
O457 Mn433 2.215 . S
O457 C434 1.283 . S
O458 Mn432 2.094 . S
O458 C436 1.240 . S
O459 Mn433 2.117 . S
O459 C436 1.264 . S
C460 C453 1.403 . S
C460 C461 1.399 . S
C460 H466 0.929 . S
C461 C441 1.449 . S
C461 C460 1.399 . S
C461 H467 0.930 . S
H462 C442 0.931 . S
H463 C443 0.930 . S
H464 C451 0.931 . S
H465 C452 0.929 . S
H466 C460 0.929 . S
H467 C461 0.930 . S
Mn468 O473 2.095 . S
Mn468 O483 2.162 . S
Mn468 O484 2.297 . S
Mn468 O492 2.385 1_556 S
Mn468 O493 2.209 1_556 S
Mn468 O494 2.094 1_556 S
Mn469 O474 2.121 1_554 S
Mn469 N476 2.257 . S
Mn469 N485 2.282 . S
Mn469 O493 2.215 . S
Mn469 O495 2.117 . S
C470 O492 1.234 . S
C470 O493 1.283 . S
C471 O483 1.281 . S
C471 O484 1.236 . S
C472 O494 1.240 . S
C472 O495 1.264 . S
O473 Mn468 2.095 . S
O473 C482 1.250 . S
O474 Mn469 2.121 1_556 S
O474 C482 1.258 . S
C475 N476 1.326 . S
C475 C479 1.460 . S
C475 H481 0.916 1_554 S
N476 Mn469 2.257 . S
N476 C475 1.326 . S
N476 C480 1.362 . S
C477 C478 1.258 . S
C477 C480 1.431 . S
C477 C497 1.449 . S
C478 C477 1.258 . S
C478 C479 1.477 . S
C478 H498 0.931 . S
C479 C475 1.460 . S
C479 C478 1.477 . S
C479 H499 0.930 . S
C480 N476 1.362 . S
C480 C477 1.431 . S
C480 C490 1.476 . S
H481 C475 0.916 1_556 S
C482 O473 1.250 . S
C482 O474 1.258 . S
O483 Mn468 2.162 . S
O483 C471 1.281 . S
O484 Mn468 2.297 . S
O484 C471 1.236 . S
N485 Mn469 2.282 . S
N485 C486 1.328 . S
N485 C490 1.318 . S
C486 N485 1.328 . S
C486 C487 1.457 . S
C486 H491 0.929 . S
C487 C486 1.457 . S
C487 C488 1.291 . S
C487 H500 0.931 . S
C488 C487 1.291 . S
C488 C489 1.373 . S
C488 H501 0.929 . S
C489 C488 1.373 . S
C489 C490 1.396 . S
C489 C496 1.403 . S
C490 C480 1.476 . S
C490 N485 1.318 . S
C490 C489 1.396 . S
H491 C486 0.929 . S
O492 Mn468 2.385 1_554 S
O492 C470 1.234 . S
O493 Mn468 2.209 1_554 S
O493 Mn469 2.215 . S
O493 C470 1.283 . S
O494 Mn468 2.094 1_554 S
O494 C472 1.240 . S
O495 Mn469 2.117 . S
O495 C472 1.264 . S
C496 C489 1.403 . S
C496 C497 1.399 . S
C496 H502 0.929 . S
C497 C477 1.449 . S
C497 C496 1.399 . S
C497 H503 0.930 . S
H498 C478 0.931 . S
H499 C479 0.930 . S
H500 C487 0.931 . S
H501 C488 0.929 . S
H502 C496 0.929 . S
H503 C497 0.930 . S
Mn504 O509 2.095 . S
Mn504 O519 2.162 . S
Mn504 O520 2.297 . S
Mn504 O528 2.385 . S
Mn504 O529 2.209 . S
Mn504 O530 2.094 . S
Mn505 O510 2.121 . S
Mn505 N512 2.257 . S
Mn505 N521 2.282 . S
Mn505 O529 2.215 . S
Mn505 O531 2.117 . S
C506 O528 1.234 . S
C506 O529 1.283 . S
C507 O519 1.281 . S
C507 O520 1.236 . S
C508 O530 1.240 . S
C508 O531 1.264 . S
O509 Mn504 2.095 . S
O509 C518 1.250 . S
O510 Mn505 2.121 . S
O510 C518 1.258 . S
C511 N512 1.326 . S
C511 C515 1.460 . S
C511 H517 0.929 . S
N512 Mn505 2.257 . S
N512 C511 1.326 . S
N512 C516 1.362 . S
C513 C514 1.258 . S
C513 C516 1.431 . S
C513 C533 1.449 . S
C514 C513 1.258 . S
C514 C515 1.477 . S
C514 H534 0.931 . S
C515 C511 1.460 . S
C515 C514 1.477 . S
C515 H535 0.930 . S
C516 N512 1.362 . S
C516 C513 1.431 . S
C516 C526 1.476 . S
H517 C511 0.929 . S
C518 O509 1.250 . S
C518 O510 1.258 . S
O519 Mn504 2.162 . S
O519 C507 1.281 . S
O520 Mn504 2.297 . S
O520 C507 1.236 . S
N521 Mn505 2.282 . S
N521 C522 1.328 . S
N521 C526 1.318 . S
C522 N521 1.328 . S
C522 C523 1.457 . S
C522 H527 0.929 . S
C523 C522 1.457 . S
C523 C524 1.291 . S
C523 H536 0.931 . S
C524 C523 1.291 . S
C524 C525 1.373 . S
C524 H537 0.929 . S
C525 C524 1.373 . S
C525 C526 1.396 . S
C525 C532 1.403 . S
C526 C516 1.476 . S
C526 N521 1.318 . S
C526 C525 1.396 . S
H527 C522 0.929 . S
O528 Mn504 2.385 . S
O528 C506 1.234 . S
O529 Mn504 2.209 . S
O529 Mn505 2.215 . S
O529 C506 1.283 . S
O530 Mn504 2.094 . S
O530 C508 1.240 . S
O531 Mn505 2.117 . S
O531 C508 1.264 . S
C532 C525 1.403 . S
C532 C533 1.399 . S
C532 H538 0.929 . S
C533 C513 1.449 . S
C533 C532 1.399 . S
C533 H539 0.930 . S
H534 C514 0.931 . S
H535 C515 0.930 . S
H536 C523 0.931 . S
H537 C524 0.929 . S
H538 C532 0.929 . S
H539 C533 0.930 . S
Mn540 O545 2.095 . S
Mn540 O555 2.162 . S
Mn540 O556 2.297 . S
Mn540 O564 2.385 . S
Mn540 O565 2.209 . S
Mn540 O566 2.094 . S
Mn541 O546 2.121 . S
Mn541 N548 2.257 . S
Mn541 N557 2.282 . S
Mn541 O565 2.215 . S
Mn541 O567 2.117 . S
C542 O564 1.234 . S
C542 O565 1.283 . S
C543 O555 1.281 . S
C543 O556 1.236 . S
C544 O566 1.240 . S
C544 O567 1.264 . S
O545 Mn540 2.095 . S
O545 C554 1.250 . S
O546 Mn541 2.121 . S
O546 C554 1.258 . S
C547 N548 1.326 . S
C547 C551 1.460 . S
C547 H553 0.929 . S
N548 Mn541 2.257 . S
N548 C547 1.326 . S
N548 C552 1.362 . S
C549 C550 1.258 . S
C549 C552 1.431 . S
C549 C569 1.449 . S
C550 C549 1.258 . S
C550 C551 1.477 . S
C550 H570 0.931 . S
C551 C547 1.460 . S
C551 C550 1.477 . S
C551 H571 0.930 . S
C552 N548 1.362 . S
C552 C549 1.431 . S
C552 C562 1.476 . S
H553 C547 0.929 . S
C554 O545 1.250 . S
C554 O546 1.258 . S
O555 Mn540 2.162 . S
O555 C543 1.281 . S
O556 Mn540 2.297 . S
O556 C543 1.236 . S
N557 Mn541 2.282 . S
N557 C558 1.328 . S
N557 C562 1.318 . S
C558 N557 1.328 . S
C558 C559 1.457 . S
C558 H563 0.929 . S
C559 C558 1.457 . S
C559 C560 1.291 . S
C559 H572 0.931 . S
C560 C559 1.291 . S
C560 C561 1.373 . S
C560 H573 0.929 . S
C561 C560 1.373 . S
C561 C562 1.396 . S
C561 C568 1.403 . S
C562 C552 1.476 . S
C562 N557 1.318 . S
C562 C561 1.396 . S
H563 C558 0.929 . S
O564 Mn540 2.385 . S
O564 C542 1.234 . S
O565 Mn540 2.209 . S
O565 Mn541 2.215 . S
O565 C542 1.283 . S
O566 Mn540 2.094 . S
O566 C544 1.240 . S
O567 Mn541 2.117 . S
O567 C544 1.264 . S
C568 C561 1.403 . S
C568 C569 1.399 . S
C568 H574 0.929 . S
C569 C549 1.449 . S
C569 C568 1.399 . S
C569 H575 0.930 . S
H570 C550 0.931 . S
H571 C551 0.930 . S
H572 C559 0.931 . S
H573 C560 0.929 . S
H574 C568 0.929 . S
H575 C569 0.930 . S
Mn576 O581 2.095 . S
Mn576 O591 2.162 . S
Mn576 O592 2.297 . S
Mn576 O600 2.385 . S
Mn576 O601 2.209 1_545 S
Mn576 O602 2.094 . S
Mn577 O582 2.121 . S
Mn577 N584 2.257 . S
Mn577 N593 2.282 . S
Mn577 O601 2.215 . S
Mn577 O603 2.117 1_565 S
C578 O600 1.234 1_565 S
C578 O601 1.283 . S
C579 O591 1.281 . S
C579 O592 1.236 . S
C580 O602 1.240 . S
C580 O603 1.264 . S
O581 Mn576 2.095 . S
O581 C590 1.250 1_545 S
O582 Mn577 2.121 . S
O582 C590 1.258 . S
C583 N584 1.326 . S
C583 C587 1.460 . S
C583 H589 0.929 . S
N584 Mn577 2.257 . S
N584 C583 1.326 . S
N584 C588 1.362 . S
C585 C586 1.258 . S
C585 C588 1.431 . S
C585 C605 1.449 . S
C586 C585 1.258 . S
C586 C587 1.477 . S
C586 H606 0.931 . S
C587 C583 1.460 . S
C587 C586 1.477 . S
C587 H607 0.930 . S
C588 N584 1.362 . S
C588 C585 1.431 . S
C588 C598 1.476 . S
H589 C583 0.929 . S
C590 O581 1.250 1_565 S
C590 O582 1.258 . S
O591 Mn576 2.162 . S
O591 C579 1.281 . S
O592 Mn576 2.297 . S
O592 C579 1.236 . S
N593 Mn577 2.282 . S
N593 C594 1.328 . S
N593 C598 1.318 . S
C594 N593 1.328 . S
C594 C595 1.457 . S
C594 H599 0.929 . S
C595 C594 1.457 . S
C595 C596 1.291 . S
C595 H608 0.931 . S
C596 C595 1.291 . S
C596 C597 1.373 . S
C596 H609 0.929 . S
C597 C596 1.373 . S
C597 C598 1.396 . S
C597 C604 1.403 . S
C598 C588 1.476 . S
C598 N593 1.318 . S
C598 C597 1.396 . S
H599 C594 0.929 . S
O600 Mn576 2.385 . S
O600 C578 1.234 1_545 S
O601 Mn576 2.209 1_565 S
O601 Mn577 2.215 . S
O601 C578 1.283 . S
O602 Mn576 2.094 . S
O602 C580 1.240 . S
O603 Mn577 2.117 1_545 S
O603 C580 1.264 . S
C604 C597 1.403 . S
C604 C605 1.399 . S
C604 H610 0.929 . S
C605 C585 1.449 . S
C605 C604 1.399 . S
C605 H611 0.930 . S
H606 C586 0.931 . S
H607 C587 0.930 . S
H608 C595 0.931 . S
H609 C596 0.929 . S
H610 C604 0.929 . S
H611 C605 0.930 . S
Mn612 O617 2.095 . S
Mn612 O627 2.162 . S
Mn612 O628 2.297 . S
Mn612 O636 2.385 . S
Mn612 O637 2.209 . S
Mn612 O638 2.094 . S
Mn613 O618 2.121 . S
Mn613 N620 2.257 . S
Mn613 N629 2.282 . S
Mn613 O637 2.215 . S
Mn613 O639 2.117 . S
C614 O636 1.234 . S
C614 O637 1.283 . S
C615 O627 1.281 . S
C615 O628 1.236 . S
C616 O638 1.240 . S
C616 O639 1.264 . S
O617 Mn612 2.095 . S
O617 C626 1.250 . S
O618 Mn613 2.121 . S
O618 C626 1.258 . S
C619 N620 1.326 . S
C619 C623 1.460 . S
C619 H625 0.929 . S
N620 Mn613 2.257 . S
N620 C619 1.326 . S
N620 C624 1.362 . S
C621 C622 1.258 . S
C621 C624 1.431 . S
C621 C641 1.449 . S
C622 C621 1.258 . S
C622 C623 1.477 . S
C622 H642 0.931 . S
C623 C619 1.460 . S
C623 C622 1.477 . S
C623 H643 0.930 . S
C624 N620 1.362 . S
C624 C621 1.431 . S
C624 C634 1.476 . S
H625 C619 0.929 . S
C626 O617 1.250 . S
C626 O618 1.258 . S
O627 Mn612 2.162 . S
O627 C615 1.281 . S
O628 Mn612 2.297 . S
O628 C615 1.236 . S
N629 Mn613 2.282 . S
N629 C630 1.328 . S
N629 C634 1.318 . S
C630 N629 1.328 . S
C630 C631 1.457 . S
C630 H635 0.929 . S
C631 C630 1.457 . S
C631 C632 1.291 . S
C631 H644 0.931 . S
C632 C631 1.291 . S
C632 C633 1.373 . S
C632 H645 0.929 . S
C633 C632 1.373 . S
C633 C634 1.396 . S
C633 C640 1.403 . S
C634 C624 1.476 . S
C634 N629 1.318 . S
C634 C633 1.396 . S
H635 C630 0.929 . S
O636 Mn612 2.385 . S
O636 C614 1.234 . S
O637 Mn612 2.209 . S
O637 Mn613 2.215 . S
O637 C614 1.283 . S
O638 Mn612 2.094 . S
O638 C616 1.240 . S
O639 Mn613 2.117 . S
O639 C616 1.264 . S
C640 C633 1.403 . S
C640 C641 1.399 . S
C640 H646 0.929 . S
C641 C621 1.449 . S
C641 C640 1.399 . S
C641 H647 0.930 . S
H642 C622 0.931 . S
H643 C623 0.930 . S
H644 C631 0.931 . S
H645 C632 0.929 . S
H646 C640 0.929 . S
H647 C641 0.930 . S
Mn648 O653 2.095 . S
Mn648 O663 2.162 . S
Mn648 O664 2.297 . S
Mn648 O672 2.385 . S
Mn648 O673 2.209 . S
Mn648 O674 2.094 . S
Mn649 O654 2.121 . S
Mn649 N656 2.257 . S
Mn649 N665 2.282 . S
Mn649 O673 2.215 . S
Mn649 O675 2.117 . S
C650 O672 1.234 . S
C650 O673 1.283 . S
C651 O663 1.281 . S
C651 O664 1.236 . S
C652 O674 1.240 . S
C652 O675 1.264 . S
O653 Mn648 2.095 . S
O653 C662 1.250 . S
O654 Mn649 2.121 . S
O654 C662 1.258 . S
C655 N656 1.326 . S
C655 C659 1.460 . S
C655 H661 0.929 . S
N656 Mn649 2.257 . S
N656 C655 1.326 . S
N656 C660 1.362 . S
C657 C658 1.258 . S
C657 C660 1.431 . S
C657 C677 1.449 . S
C658 C657 1.258 . S
C658 C659 1.477 . S
C658 H678 0.931 . S
C659 C655 1.460 . S
C659 C658 1.477 . S
C659 H679 0.930 . S
C660 N656 1.362 . S
C660 C657 1.431 . S
C660 C670 1.476 . S
H661 C655 0.929 . S
C662 O653 1.250 . S
C662 O654 1.258 . S
O663 Mn648 2.162 . S
O663 C651 1.281 . S
O664 Mn648 2.297 . S
O664 C651 1.236 . S
N665 Mn649 2.282 . S
N665 C666 1.328 . S
N665 C670 1.318 . S
C666 N665 1.328 . S
C666 C667 1.457 . S
C666 H671 0.929 . S
C667 C666 1.457 . S
C667 C668 1.291 . S
C667 H680 0.931 . S
C668 C667 1.291 . S
C668 C669 1.373 . S
C668 H681 0.929 . S
C669 C668 1.373 . S
C669 C670 1.396 . S
C669 C676 1.403 . S
C670 C660 1.476 . S
C670 N665 1.318 . S
C670 C669 1.396 . S
H671 C666 0.929 . S
O672 Mn648 2.385 . S
O672 C650 1.234 . S
O673 Mn648 2.209 . S
O673 Mn649 2.215 . S
O673 C650 1.283 . S
O674 Mn648 2.094 . S
O674 C652 1.240 . S
O675 Mn649 2.117 . S
O675 C652 1.264 . S
C676 C669 1.403 . S
C676 C677 1.399 . S
C676 H682 0.929 . S
C677 C657 1.449 . S
C677 C676 1.399 . S
C677 H683 0.930 . S
H678 C658 0.931 . S
H679 C659 0.930 . S
H680 C667 0.931 . S
H681 C668 0.929 . S
H682 C676 0.929 . S
H683 C677 0.930 . S
Mn684 O689 2.095 1_545 S
Mn684 O699 2.162 . S
Mn684 O700 2.297 . S
Mn684 O708 2.385 . S
Mn684 O709 2.209 1_545 S
Mn684 O710 2.094 . S
Mn685 O690 2.121 . S
Mn685 N692 2.257 . S
Mn685 N701 2.282 . S
Mn685 O709 2.215 . S
Mn685 O711 2.088 1_565 S
C686 O708 1.234 1_565 S
C686 O709 1.283 . S
C687 O699 1.281 . S
C687 O700 1.236 . S
C688 O710 1.240 . S
C688 O711 1.295 . S
O689 Mn684 2.095 1_565 S
O689 C698 1.250 . S
O690 Mn685 2.121 . S
O690 C698 1.258 . S
C691 N692 1.326 . S
C691 C695 1.460 . S
C691 H697 0.929 . S
N692 Mn685 2.257 . S
N692 C691 1.326 . S
N692 C696 1.362 . S
C693 C694 1.258 . S
C693 C696 1.431 . S
C693 C713 1.449 . S
C694 C693 1.258 . S
C694 C695 1.477 . S
C694 H714 0.931 . S
C695 C691 1.460 . S
C695 C694 1.477 . S
C695 H715 0.930 . S
C696 N692 1.362 . S
C696 C693 1.431 . S
C696 C706 1.476 . S
H697 C691 0.929 . S
C698 O689 1.250 . S
C698 O690 1.258 . S
O699 Mn684 2.162 . S
O699 C687 1.281 . S
O700 Mn684 2.297 . S
O700 C687 1.236 . S
N701 Mn685 2.282 . S
N701 C702 1.328 . S
N701 C706 1.318 . S
C702 N701 1.328 . S
C702 C703 1.457 . S
C702 H707 0.929 . S
C703 C702 1.457 . S
C703 C704 1.291 . S
C703 H716 0.931 . S
C704 C703 1.291 . S
C704 C705 1.373 . S
C704 H717 0.929 . S
C705 C704 1.373 . S
C705 C706 1.396 . S
C705 C712 1.403 . S
C706 C696 1.476 . S
C706 N701 1.318 . S
C706 C705 1.396 . S
H707 C702 0.929 . S
O708 Mn684 2.385 . S
O708 C686 1.234 1_545 S
O709 Mn684 2.209 1_565 S
O709 Mn685 2.215 . S
O709 C686 1.283 . S
O710 Mn684 2.094 . S
O710 C688 1.240 . S
O711 Mn685 2.088 1_545 S
O711 C688 1.295 . S
C712 C705 1.403 . S
C712 C713 1.399 . S
C712 H718 0.929 . S
C713 C693 1.449 . S
C713 C712 1.399 . S
C713 H719 0.930 . S
H714 C694 0.931 . S
H715 C695 0.930 . S
H716 C703 0.931 . S
H717 C704 0.929 . S
H718 C712 0.929 . S
H719 C713 0.930 . S
Mn720 O725 2.095 . S
Mn720 O735 2.162 . S
Mn720 O736 2.297 . S
Mn720 O744 2.385 . S
Mn720 O745 2.209 1_554 S
Mn720 O746 2.094 . S
Mn721 O726 2.121 . S
Mn721 N728 2.257 . S
Mn721 N737 2.282 . S
Mn721 O745 2.215 . S
Mn721 O747 2.117 1_556 S
C722 O744 1.234 1_556 S
C722 O745 1.283 . S
C723 O735 1.281 . S
C723 O736 1.236 . S
C724 O746 1.240 . S
C724 O747 1.264 . S
O725 Mn720 2.095 . S
O725 C734 1.250 1_554 S
O726 Mn721 2.121 . S
O726 C734 1.258 . S
C727 N728 1.326 . S
C727 C731 1.460 . S
C727 H733 0.929 . S
N728 Mn721 2.257 . S
N728 C727 1.326 . S
N728 C732 1.362 . S
C729 C730 1.258 . S
C729 C732 1.431 . S
C729 C749 1.449 . S
C730 C729 1.258 . S
C730 C731 1.477 . S
C730 H750 0.931 . S
C731 C727 1.460 . S
C731 C730 1.477 . S
C731 H751 0.930 . S
C732 N728 1.362 . S
C732 C729 1.431 . S
C732 C742 1.476 . S
H733 C727 0.929 . S
C734 O725 1.250 1_556 S
C734 O726 1.258 . S
O735 Mn720 2.162 . S
O735 C723 1.281 . S
O736 Mn720 2.297 . S
O736 C723 1.236 . S
N737 Mn721 2.282 . S
N737 C738 1.328 . S
N737 C742 1.318 . S
C738 N737 1.328 . S
C738 C739 1.457 . S
C738 H743 0.929 . S
C739 C738 1.457 . S
C739 C740 1.291 . S
C739 H752 0.931 . S
C740 C739 1.291 . S
C740 C741 1.373 . S
C740 H753 0.929 . S
C741 C740 1.373 . S
C741 C742 1.396 . S
C741 C748 1.403 . S
C742 C732 1.476 . S
C742 N737 1.318 . S
C742 C741 1.396 . S
H743 C738 0.929 . S
O744 Mn720 2.385 . S
O744 C722 1.234 1_554 S
O745 Mn720 2.209 1_556 S
O745 Mn721 2.215 . S
O745 C722 1.283 . S
O746 Mn720 2.094 . S
O746 C724 1.240 . S
O747 Mn721 2.117 1_554 S
O747 C724 1.264 . S
C748 C741 1.403 . S
C748 C749 1.399 . S
C748 H754 0.929 . S
C749 C729 1.449 . S
C749 C748 1.399 . S
C749 H755 0.930 . S
H750 C730 0.931 . S
H751 C731 0.930 . S
H752 C739 0.931 . S
H753 C740 0.929 . S
H754 C748 0.929 . S
H755 C749 0.930 . S
Mn756 O761 2.095 . S
Mn756 O771 2.162 . S
Mn756 O772 2.297 . S
Mn756 O780 2.385 . S
Mn756 O781 2.209 . S
Mn756 O782 2.094 . S
Mn757 O762 2.121 . S
Mn757 N764 2.257 . S
Mn757 N773 2.282 . S
Mn757 O781 2.215 . S
Mn757 O783 2.117 . S
C758 O780 1.234 . S
C758 O781 1.283 . S
C759 O771 1.281 . S
C759 O772 1.236 . S
C760 O782 1.240 . S
C760 O783 1.264 . S
O761 Mn756 2.095 . S
O761 C770 1.250 . S
O762 Mn757 2.121 . S
O762 C770 1.258 . S
C763 N764 1.326 . S
C763 C767 1.460 . S
C763 H769 0.929 . S
N764 Mn757 2.257 . S
N764 C763 1.326 . S
N764 C768 1.362 . S
C765 C766 1.258 . S
C765 C768 1.431 . S
C765 C785 1.449 . S
C766 C765 1.258 . S
C766 C767 1.477 . S
C766 H786 0.931 . S
C767 C763 1.460 . S
C767 C766 1.477 . S
C767 H787 0.930 . S
C768 N764 1.362 . S
C768 C765 1.431 . S
C768 C778 1.476 . S
H769 C763 0.929 . S
C770 O761 1.250 . S
C770 O762 1.258 . S
O771 Mn756 2.162 . S
O771 C759 1.281 . S
O772 Mn756 2.297 . S
O772 C759 1.236 . S
N773 Mn757 2.282 . S
N773 C774 1.328 . S
N773 C778 1.318 . S
C774 N773 1.328 . S
C774 C775 1.457 . S
C774 H779 0.929 . S
C775 C774 1.457 . S
C775 C776 1.291 . S
C775 H788 0.931 . S
C776 C775 1.291 . S
C776 C777 1.373 . S
C776 H789 0.929 . S
C777 C776 1.373 . S
C777 C778 1.396 . S
C777 C784 1.403 . S
C778 C768 1.476 . S
C778 N773 1.318 . S
C778 C777 1.396 . S
H779 C774 0.929 . S
O780 Mn756 2.385 . S
O780 C758 1.234 . S
O781 Mn756 2.209 . S
O781 Mn757 2.215 . S
O781 C758 1.283 . S
O782 Mn756 2.094 . S
O782 C760 1.240 . S
O783 Mn757 2.117 . S
O783 C760 1.264 . S
C784 C777 1.403 . S
C784 C785 1.399 . S
C784 H790 0.929 . S
C785 C765 1.449 . S
C785 C784 1.399 . S
C785 H791 0.930 . S
H786 C766 0.931 . S
H787 C767 0.930 . S
H788 C775 0.931 . S
H789 C776 0.929 . S
H790 C784 0.929 . S
H791 C785 0.930 . S
Mn792 O797 2.095 . S
Mn792 O807 2.162 . S
Mn792 O808 2.297 . S
Mn792 O816 2.385 . S
Mn792 O817 2.209 . S
Mn792 O818 2.094 . S
Mn793 O798 2.121 . S
Mn793 N800 2.257 . S
Mn793 N809 2.282 . S
Mn793 O817 2.215 . S
Mn793 O819 2.117 . S
C794 O816 1.234 . S
C794 O817 1.283 . S
C795 O807 1.281 . S
C795 O808 1.236 . S
C796 O818 1.240 . S
C796 O819 1.264 . S
O797 Mn792 2.095 . S
O797 C806 1.250 . S
O798 Mn793 2.121 . S
O798 C806 1.258 . S
C799 N800 1.326 . S
C799 C803 1.460 . S
C799 H805 0.929 . S
N800 Mn793 2.257 . S
N800 C799 1.326 . S
N800 C804 1.362 . S
C801 C802 1.258 . S
C801 C804 1.431 . S
C801 C821 1.449 . S
C802 C801 1.258 . S
C802 C803 1.477 . S
C802 H822 0.931 . S
C803 C799 1.460 . S
C803 C802 1.477 . S
C803 H823 0.930 . S
C804 N800 1.362 . S
C804 C801 1.431 . S
C804 C814 1.476 . S
H805 C799 0.929 . S
C806 O797 1.250 . S
C806 O798 1.258 . S
O807 Mn792 2.162 . S
O807 C795 1.281 . S
O808 Mn792 2.297 . S
O808 C795 1.236 . S
N809 Mn793 2.282 . S
N809 C810 1.328 . S
N809 C814 1.318 . S
C810 N809 1.328 . S
C810 C811 1.457 . S
C810 H815 0.929 . S
C811 C810 1.457 . S
C811 C812 1.291 . S
C811 H824 0.931 . S
C812 C811 1.291 . S
C812 C813 1.373 . S
C812 H825 0.929 . S
C813 C812 1.373 . S
C813 C814 1.396 . S
C813 C820 1.403 . S
C814 C804 1.476 . S
C814 N809 1.318 . S
C814 C813 1.396 . S
H815 C810 0.929 . S
O816 Mn792 2.385 . S
O816 C794 1.234 . S
O817 Mn792 2.209 . S
O817 Mn793 2.215 . S
O817 C794 1.283 . S
O818 Mn792 2.094 . S
O818 C796 1.240 . S
O819 Mn793 2.117 . S
O819 C796 1.264 . S
C820 C813 1.403 . S
C820 C821 1.399 . S
C820 H826 0.929 . S
C821 C801 1.449 . S
C821 C820 1.399 . S
C821 H827 0.930 . S
H822 C802 0.931 . S
H823 C803 0.930 . S
H824 C811 0.931 . S
H825 C812 0.929 . S
H826 C820 0.929 . S
H827 C821 0.930 . S
Mn828 O833 2.095 . S
Mn828 O843 2.162 . S
Mn828 O844 2.297 . S
Mn828 O852 2.385 . S
Mn828 O853 2.209 . S
Mn828 O854 2.094 . S
Mn829 O834 2.121 . S
Mn829 N836 2.257 . S
Mn829 N845 2.282 . S
Mn829 O853 2.215 . S
Mn829 O855 2.117 . S
C830 O852 1.234 . S
C830 O853 1.283 . S
C831 O843 1.281 . S
C831 O844 1.236 . S
C832 O854 1.240 . S
C832 O855 1.264 . S
O833 Mn828 2.095 . S
O833 C842 1.250 . S
O834 Mn829 2.121 . S
O834 C842 1.258 . S
C835 N836 1.326 . S
C835 C839 1.460 . S
C835 H841 0.929 . S
N836 Mn829 2.257 . S
N836 C835 1.326 . S
N836 C840 1.362 . S
C837 C838 1.258 . S
C837 C840 1.431 . S
C837 C857 1.449 . S
C838 C837 1.258 . S
C838 C839 1.477 . S
C838 H858 0.931 . S
C839 C835 1.460 . S
C839 C838 1.477 . S
C839 H859 0.930 . S
C840 N836 1.362 . S
C840 C837 1.431 . S
C840 C850 1.476 . S
H841 C835 0.929 . S
C842 O833 1.250 . S
C842 O834 1.258 . S
O843 Mn828 2.162 . S
O843 C831 1.281 . S
O844 Mn828 2.297 . S
O844 C831 1.236 . S
N845 Mn829 2.282 . S
N845 C846 1.328 . S
N845 C850 1.318 . S
C846 N845 1.328 . S
C846 C847 1.457 . S
C846 H851 0.929 . S
C847 C846 1.457 . S
C847 C848 1.291 . S
C847 H860 0.931 . S
C848 C847 1.291 . S
C848 C849 1.373 . S
C848 H861 0.929 . S
C849 C848 1.373 . S
C849 C850 1.396 . S
C849 C856 1.403 . S
C850 C840 1.476 . S
C850 N845 1.318 . S
C850 C849 1.396 . S
H851 C846 0.929 . S
O852 Mn828 2.385 . S
O852 C830 1.234 . S
O853 Mn828 2.209 . S
O853 Mn829 2.215 . S
O853 C830 1.283 . S
O854 Mn828 2.094 . S
O854 C832 1.240 . S
O855 Mn829 2.117 . S
O855 C832 1.264 . S
C856 C849 1.403 . S
C856 C857 1.399 . S
C856 H862 0.929 . S
C857 C837 1.449 . S
C857 C856 1.399 . S
C857 H863 0.930 . S
H858 C838 0.931 . S
H859 C839 0.930 . S
H860 C847 0.931 . S
H861 C848 0.929 . S
H862 C856 0.929 . S
H863 C857 0.930 . S
Fe864 O866 1.918 . S
Fe864 O869 1.997 . S
Fe864 O870 2.002 . S
Fe864 O875 1.976 . S
Fe864 O878 1.996 . S
Fe865 O866 1.918 . S
Fe865 O873 1.997 . S
Fe865 O876 1.996 . S
Fe865 O880 1.976 . S
Fe865 O883 2.002 . S
O866 Fe864 1.918 . S
O866 Fe865 1.918 . S
O866 Fe867 1.918 . S
Fe867 O866 1.918 . S
Fe867 O868 2.002 . S
Fe867 O877 1.976 . S
Fe867 O881 1.996 . S
Fe867 O884 1.997 . S
O868 Fe867 2.002 . S
O868 C885 1.295 . S
O869 Fe864 1.997 . S
O869 C885 1.235 . S
O870 Fe864 2.002 . S
O870 C871 1.295 . S
C871 O870 1.295 . S
C871 O873 1.235 . S
C872 O877 1.287 . S
C872 O878 1.255 . S
O873 Fe865 1.997 . S
O873 C871 1.235 . S
C874 O880 1.287 . S
C874 O881 1.255 . S
O875 Fe864 1.976 . S
O875 C882 1.287 . S
O876 Fe865 1.996 . S
O876 C882 1.255 . S
O877 Fe867 1.976 . S
O877 C872 1.287 . S
O878 Fe864 1.996 . S
O878 C872 1.255 . S
C879 O883 1.295 . S
C879 O884 1.235 . S
O880 Fe865 1.976 . S
O880 C874 1.287 . S
O881 Fe867 1.996 . S
O881 C874 1.255 . S
C882 O875 1.287 . S
C882 O876 1.255 . S
O883 Fe865 2.002 . S
O883 C879 1.295 . S
O884 Fe867 1.997 . S
O884 C879 1.235 . S
C885 O868 1.295 . S
C885 O869 1.235 . S
Fe886 O888 1.918 . S
Fe886 O891 1.997 . S
Fe886 O892 2.002 . S
Fe886 O897 1.976 . S
Fe886 O900 1.996 . S
Fe887 O888 1.918 . S
Fe887 O895 1.997 . S
Fe887 O898 1.996 . S
Fe887 O902 1.976 . S
Fe887 O905 2.002 . S
O888 Fe886 1.918 . S
O888 Fe887 1.918 . S
O888 Fe889 1.918 . S
Fe889 O888 1.918 . S
Fe889 O890 2.002 . S
Fe889 O899 1.976 . S
Fe889 O903 1.996 . S
Fe889 O906 1.997 . S
O890 Fe889 2.002 . S
O890 C907 1.295 . S
O891 Fe886 1.997 . S
O891 C907 1.235 . S
O892 Fe886 2.002 . S
O892 C893 1.295 . S
C893 O892 1.295 . S
C893 O895 1.235 . S
C894 O899 1.287 . S
C894 O900 1.255 . S
O895 Fe887 1.997 . S
O895 C893 1.235 . S
C896 O902 1.287 . S
C896 O903 1.255 . S
O897 Fe886 1.976 . S
O897 C904 1.287 . S
O898 Fe887 1.996 . S
O898 C904 1.255 . S
O899 Fe889 1.976 . S
O899 C894 1.287 . S
O900 Fe886 1.996 . S
O900 C894 1.255 . S
C901 O905 1.295 . S
C901 O906 1.235 . S
O902 Fe887 1.976 . S
O902 C896 1.287 . S
O903 Fe889 1.996 . S
O903 C896 1.255 . S
C904 O897 1.287 . S
C904 O898 1.255 . S
O905 Fe887 2.002 . S
O905 C901 1.295 . S
O906 Fe889 1.997 . S
O906 C901 1.235 . S
C907 O890 1.295 . S
C907 O891 1.235 . S
Fe908 O910 1.918 . S
Fe908 O913 1.997 . S
Fe908 O914 2.002 . S
Fe908 O919 1.976 . S
Fe908 O922 1.996 . S
Fe909 O910 1.918 . S
Fe909 O917 1.997 . S
Fe909 O920 1.996 . S
Fe909 O924 1.976 . S
Fe909 O927 2.002 . S
O910 Fe908 1.918 . S
O910 Fe909 1.918 . S
O910 Fe911 1.918 . S
Fe911 O910 1.918 . S
Fe911 O912 2.002 . S
Fe911 O921 1.976 . S
Fe911 O925 1.996 . S
Fe911 O928 1.997 . S
O912 Fe911 2.002 . S
O912 C929 1.295 . S
O913 Fe908 1.997 . S
O913 C929 1.235 . S
O914 Fe908 2.002 . S
O914 C915 1.295 . S
C915 O914 1.295 . S
C915 O917 1.235 . S
C916 O921 1.287 . S
C916 O922 1.255 . S
O917 Fe909 1.997 . S
O917 C915 1.235 . S
C918 O924 1.287 . S
C918 O925 1.255 . S
O919 Fe908 1.976 . S
O919 C926 1.287 . S
O920 Fe909 1.996 . S
O920 C926 1.255 . S
O921 Fe911 1.976 . S
O921 C916 1.287 . S
O922 Fe908 1.996 . S
O922 C916 1.255 . S
C923 O927 1.295 . S
C923 O928 1.235 . S
O924 Fe909 1.976 . S
O924 C918 1.287 . S
O925 Fe911 1.996 . S
O925 C918 1.255 . S
C926 O919 1.287 . S
C926 O920 1.255 . S
O927 Fe909 2.002 . S
O927 C923 1.295 . S
O928 Fe911 1.997 . S
O928 C923 1.235 . S
C929 O912 1.295 . S
C929 O913 1.235 . S
Fe930 O932 1.918 . S
Fe930 O935 1.997 . S
Fe930 O936 2.002 . S
Fe930 O941 1.976 . S
Fe930 O944 1.996 . S
Fe931 O932 1.918 . S
Fe931 O939 1.997 . S
Fe931 O942 1.996 . S
Fe931 O946 1.976 . S
Fe931 O949 2.002 . S
O932 Fe930 1.918 . S
O932 Fe931 1.918 . S
O932 Fe933 1.918 . S
Fe933 O932 1.918 . S
Fe933 O934 2.002 . S
Fe933 O943 1.976 . S
Fe933 O947 1.996 . S
Fe933 O950 1.997 . S
O934 Fe933 2.002 . S
O934 C951 1.295 . S
O935 Fe930 1.997 . S
O935 C951 1.235 . S
O936 Fe930 2.002 . S
O936 C937 1.295 . S
C937 O936 1.295 . S
C937 O939 1.235 . S
C938 O943 1.287 . S
C938 O944 1.255 . S
O939 Fe931 1.997 . S
O939 C937 1.235 . S
C940 O946 1.287 . S
C940 O947 1.255 . S
O941 Fe930 1.976 . S
O941 C948 1.287 . S
O942 Fe931 1.996 . S
O942 C948 1.255 . S
O943 Fe933 1.976 . S
O943 C938 1.287 . S
O944 Fe930 1.996 . S
O944 C938 1.255 . S
C945 O949 1.295 . S
C945 O950 1.235 . S
O946 Fe931 1.976 . S
O946 C940 1.287 . S
O947 Fe933 1.996 . S
O947 C940 1.255 . S
C948 O941 1.287 . S
C948 O942 1.255 . S
O949 Fe931 2.002 . S
O949 C945 1.295 . S
O950 Fe933 1.997 . S
O950 C945 1.235 . S
C951 O934 1.295 . S
C951 O935 1.235 . S
Fe952 O954 1.918 . S
Fe952 O957 1.997 . S
Fe952 O958 2.002 . S
Fe952 O963 1.976 . S
Fe952 O966 1.996 . S
Fe953 O954 1.918 . S
Fe953 O961 1.997 . S
Fe953 O964 1.996 . S
Fe953 O968 1.976 . S
Fe953 O971 2.002 . S
O954 Fe952 1.918 . S
O954 Fe953 1.918 . S
O954 Fe955 1.918 . S
Fe955 O954 1.918 . S
Fe955 O956 2.002 . S
Fe955 O965 1.976 . S
Fe955 O969 1.996 . S
Fe955 O972 1.997 . S
O956 Fe955 2.002 . S
O956 C973 1.295 . S
O957 Fe952 1.997 . S
O957 C973 1.235 . S
O958 Fe952 2.002 . S
O958 C959 1.295 . S
C959 O958 1.295 . S
C959 O961 1.235 . S
C960 O965 1.287 . S
C960 O966 1.255 . S
O961 Fe953 1.997 . S
O961 C959 1.235 . S
C962 O968 1.287 . S
C962 O969 1.255 . S
O963 Fe952 1.976 . S
O963 C970 1.287 . S
O964 Fe953 1.996 . S
O964 C970 1.255 . S
O965 Fe955 1.976 . S
O965 C960 1.287 . S
O966 Fe952 1.996 . S
O966 C960 1.255 . S
C967 O971 1.295 . S
C967 O972 1.235 . S
O968 Fe953 1.976 . S
O968 C962 1.287 . S
O969 Fe955 1.996 . S
O969 C962 1.255 . S
C970 O963 1.287 . S
C970 O964 1.255 . S
O971 Fe953 2.002 . S
O971 C967 1.295 . S
O972 Fe955 1.997 . S
O972 C967 1.235 . S
C973 O956 1.295 . S
C973 O957 1.235 . S
Fe974 O976 1.918 . S
Fe974 O979 1.997 . S
Fe974 O980 2.002 . S
Fe974 O985 1.976 . S
Fe974 O988 1.996 . S
Fe975 O976 1.918 . S
Fe975 O983 1.997 . S
Fe975 O986 1.996 . S
Fe975 O990 1.976 . S
Fe975 O993 2.002 . S
O976 Fe974 1.918 . S
O976 Fe975 1.918 . S
O976 Fe977 1.918 . S
Fe977 O976 1.918 . S
Fe977 O978 2.002 . S
Fe977 O987 1.976 . S
Fe977 O991 1.996 . S
Fe977 O994 1.997 . S
O978 Fe977 2.002 . S
O978 C995 1.295 . S
O979 Fe974 1.997 . S
O979 C995 1.235 . S
O980 Fe974 2.002 . S
O980 C981 1.295 . S
C981 O980 1.295 . S
C981 O983 1.235 . S
C982 O987 1.287 . S
C982 O988 1.255 . S
O983 Fe975 1.997 . S
O983 C981 1.235 . S
C984 O990 1.287 . S
C984 O991 1.255 . S
O985 Fe974 1.976 . S
O985 C992 1.287 . S
O986 Fe975 1.996 . S
O986 C992 1.255 . S
O987 Fe977 1.976 . S
O987 C982 1.287 . S
O988 Fe974 1.996 . S
O988 C982 1.255 . S
C989 O993 1.295 . S
C989 O994 1.235 . S
O990 Fe975 1.976 . S
O990 C984 1.287 . S
O991 Fe977 1.996 . S
O991 C984 1.255 . S
C992 O985 1.287 . S
C992 O986 1.255 . S
O993 Fe975 2.002 . S
O993 C989 1.295 . S
O994 Fe977 1.997 . S
O994 C989 1.235 . S
C995 O978 1.295 . S
C995 O979 1.235 . S
Fe996 O998 1.918 . S
Fe996 O1001 1.997 . S
Fe996 O1002 2.002 . S
Fe996 O1007 1.976 . S
Fe996 O1010 1.996 . S
Fe997 O998 1.918 . S
Fe997 O1005 1.997 . S
Fe997 O1008 1.996 . S
Fe997 O1012 1.976 . S
Fe997 O1015 2.002 . S
O998 Fe996 1.918 . S
O998 Fe997 1.918 . S
O998 Fe999 1.918 . S
Fe999 O998 1.918 . S
Fe999 O1000 2.002 . S
Fe999 O1009 1.976 . S
Fe999 O1013 1.996 . S
Fe999 O1016 1.997 . S
O1000 Fe999 2.002 . S
O1000 C1017 1.295 . S
O1001 Fe996 1.997 . S
O1001 C1017 1.235 . S
O1002 Fe996 2.002 . S
O1002 C1003 1.295 . S
C1003 O1002 1.295 . S
C1003 O1005 1.235 . S
C1004 O1009 1.287 . S
C1004 O1010 1.255 . S
O1005 Fe997 1.997 . S
O1005 C1003 1.235 . S
C1006 O1012 1.287 . S
C1006 O1013 1.255 . S
O1007 Fe996 1.976 . S
O1007 C1014 1.287 . S
O1008 Fe997 1.996 . S
O1008 C1014 1.255 . S
O1009 Fe999 1.976 . S
O1009 C1004 1.287 . S
O1010 Fe996 1.996 . S
O1010 C1004 1.255 . S
C1011 O1015 1.295 . S
C1011 O1016 1.235 . S
O1012 Fe997 1.976 . S
O1012 C1006 1.287 . S
O1013 Fe999 1.996 . S
O1013 C1006 1.255 . S
C1014 O1007 1.287 . S
C1014 O1008 1.255 . S
O1015 Fe997 2.002 . S
O1015 C1011 1.295 . S
O1016 Fe999 1.997 . S
O1016 C1011 1.235 . S
C1017 O1000 1.295 . S
C1017 O1001 1.235 . S
Fe1018 O1020 1.918 . S
Fe1018 O1023 1.997 . S
Fe1018 O1024 2.002 . S
Fe1018 O1029 1.976 . S
Fe1018 O1032 1.996 . S
Fe1019 O1020 1.918 . S
Fe1019 O1027 1.997 . S
Fe1019 O1030 1.996 . S
Fe1019 O1034 1.976 . S
Fe1019 O1037 2.002 . S
O1020 Fe1018 1.918 . S
O1020 Fe1019 1.918 . S
O1020 Fe1021 1.918 . S
Fe1021 O1020 1.918 . S
Fe1021 O1022 2.002 . S
Fe1021 O1031 1.976 . S
Fe1021 O1035 1.996 . S
Fe1021 O1038 1.997 . S
O1022 Fe1021 2.002 . S
O1022 C1039 1.295 . S
O1023 Fe1018 1.997 . S
O1023 C1039 1.235 . S
O1024 Fe1018 2.002 . S
O1024 C1025 1.295 . S
C1025 O1024 1.295 . S
C1025 O1027 1.235 . S
C1026 O1031 1.287 . S
C1026 O1032 1.255 . S
O1027 Fe1019 1.997 . S
O1027 C1025 1.235 . S
C1028 O1034 1.287 . S
C1028 O1035 1.255 . S
O1029 Fe1018 1.976 . S
O1029 C1036 1.287 . S
O1030 Fe1019 1.996 . S
O1030 C1036 1.255 . S
O1031 Fe1021 1.976 . S
O1031 C1026 1.287 . S
O1032 Fe1018 1.996 . S
O1032 C1026 1.255 . S
C1033 O1037 1.295 . S
C1033 O1038 1.235 . S
O1034 Fe1019 1.976 . S
O1034 C1028 1.287 . S
O1035 Fe1021 1.996 . S
O1035 C1028 1.255 . S
C1036 O1029 1.287 . S
C1036 O1030 1.255 . S
O1037 Fe1019 2.002 . S
O1037 C1033 1.295 . S
O1038 Fe1021 1.997 . S
O1038 C1033 1.235 . S
C1039 O1022 1.295 . S
C1039 O1023 1.235 . S
Fe1040 O1042 1.918 . S
Fe1040 O1045 1.997 . S
Fe1040 O1046 2.002 . S
Fe1040 O1051 1.976 . S
Fe1040 O1054 1.996 . S
Fe1041 O1042 1.918 . S
Fe1041 O1049 1.997 . S
Fe1041 O1052 1.996 . S
Fe1041 O1056 1.976 . S
Fe1041 O1059 2.002 . S
O1042 Fe1040 1.918 . S
O1042 Fe1041 1.918 . S
O1042 Fe1043 1.918 . S
Fe1043 O1042 1.918 . S
Fe1043 O1044 2.002 . S
Fe1043 O1053 1.976 . S
Fe1043 O1057 1.996 . S
Fe1043 O1060 1.997 . S
O1044 Fe1043 2.002 . S
O1044 C1061 1.295 . S
O1045 Fe1040 1.997 . S
O1045 C1061 1.235 . S
O1046 Fe1040 2.002 . S
O1046 C1047 1.295 . S
C1047 O1046 1.295 . S
C1047 O1049 1.235 . S
C1048 O1053 1.287 . S
C1048 O1054 1.255 . S
O1049 Fe1041 1.997 . S
O1049 C1047 1.235 . S
C1050 O1056 1.287 . S
C1050 O1057 1.255 . S
O1051 Fe1040 1.976 . S
O1051 C1058 1.287 . S
O1052 Fe1041 1.996 . S
O1052 C1058 1.255 . S
O1053 Fe1043 1.976 . S
O1053 C1048 1.287 . S
O1054 Fe1040 1.996 . S
O1054 C1048 1.255 . S
C1055 O1059 1.295 . S
C1055 O1060 1.235 . S
O1056 Fe1041 1.976 . S
O1056 C1050 1.287 . S
O1057 Fe1043 1.996 . S
O1057 C1050 1.255 . S
C1058 O1051 1.287 . S
C1058 O1052 1.255 . S
O1059 Fe1041 2.002 . S
O1059 C1055 1.295 . S
O1060 Fe1043 1.997 . S
O1060 C1055 1.235 . S
C1061 O1044 1.295 . S
C1061 O1045 1.235 . S
Fe1062 O1064 1.918 . S
Fe1062 O1067 1.997 . S
Fe1062 O1068 2.002 . S
Fe1062 O1073 1.976 . S
Fe1062 O1076 1.996 . S
Fe1063 O1064 1.918 . S
Fe1063 O1071 1.997 . S
Fe1063 O1074 1.996 . S
Fe1063 O1078 1.976 . S
Fe1063 O1081 2.002 . S
O1064 Fe1062 1.918 . S
O1064 Fe1063 1.918 . S
O1064 Fe1065 1.918 . S
Fe1065 O1064 1.918 . S
Fe1065 O1066 2.002 . S
Fe1065 O1075 1.976 . S
Fe1065 O1079 1.996 . S
Fe1065 O1082 1.997 . S
O1066 Fe1065 2.002 . S
O1066 C1083 1.295 . S
O1067 Fe1062 1.997 . S
O1067 C1083 1.235 . S
O1068 Fe1062 2.002 . S
O1068 C1069 1.295 . S
C1069 O1068 1.295 . S
C1069 O1071 1.235 . S
C1070 O1075 1.287 . S
C1070 O1076 1.255 . S
O1071 Fe1063 1.997 . S
O1071 C1069 1.235 . S
C1072 O1078 1.287 . S
C1072 O1079 1.255 . S
O1073 Fe1062 1.976 . S
O1073 C1080 1.287 . S
O1074 Fe1063 1.996 . S
O1074 C1080 1.255 . S
O1075 Fe1065 1.976 . S
O1075 C1070 1.287 . S
O1076 Fe1062 1.996 . S
O1076 C1070 1.255 . S
C1077 O1081 1.295 . S
C1077 O1082 1.235 . S
O1078 Fe1063 1.976 . S
O1078 C1072 1.287 . S
O1079 Fe1065 1.996 . S
O1079 C1072 1.255 . S
C1080 O1073 1.287 . S
C1080 O1074 1.255 . S
O1081 Fe1063 2.002 . S
O1081 C1077 1.295 . S
O1082 Fe1065 1.997 . S
O1082 C1077 1.235 . S
C1083 O1066 1.295 . S
C1083 O1067 1.235 . S
Fe1084 O1086 1.918 . S
Fe1084 O1089 1.997 . S
Fe1084 O1090 2.002 . S
Fe1084 O1095 1.976 . S
Fe1084 O1098 1.996 . S
Fe1085 O1086 1.918 . S
Fe1085 O1093 1.997 . S
Fe1085 O1096 1.996 . S
Fe1085 O1100 1.976 . S
Fe1085 O1103 2.002 . S
O1086 Fe1084 1.918 . S
O1086 Fe1085 1.918 . S
O1086 Fe1087 1.918 . S
Fe1087 O1086 1.918 . S
Fe1087 O1088 2.002 . S
Fe1087 O1097 1.976 . S
Fe1087 O1101 1.996 . S
Fe1087 O1104 1.997 . S
O1088 Fe1087 2.002 . S
O1088 C1105 1.295 . S
O1089 Fe1084 1.997 . S
O1089 C1105 1.235 . S
O1090 Fe1084 2.002 . S
O1090 C1091 1.295 . S
C1091 O1090 1.295 . S
C1091 O1093 1.235 . S
C1092 O1097 1.287 . S
C1092 O1098 1.255 . S
O1093 Fe1085 1.997 . S
O1093 C1091 1.235 . S
C1094 O1100 1.287 . S
C1094 O1101 1.255 . S
O1095 Fe1084 1.976 . S
O1095 C1102 1.287 . S
O1096 Fe1085 1.996 . S
O1096 C1102 1.255 . S
O1097 Fe1087 1.976 . S
O1097 C1092 1.287 . S
O1098 Fe1084 1.996 . S
O1098 C1092 1.255 . S
C1099 O1103 1.295 . S
C1099 O1104 1.235 . S
O1100 Fe1085 1.976 . S
O1100 C1094 1.287 . S
O1101 Fe1087 1.996 . S
O1101 C1094 1.255 . S
C1102 O1095 1.287 . S
C1102 O1096 1.255 . S
O1103 Fe1085 2.002 . S
O1103 C1099 1.295 . S
O1104 Fe1087 1.997 . S
O1104 C1099 1.235 . S
C1105 O1088 1.295 . S
C1105 O1089 1.235 . S
Fe1106 O1108 1.918 . S
Fe1106 O1111 1.997 . S
Fe1106 O1112 2.002 . S
Fe1106 O1117 1.976 . S
Fe1106 O1120 1.996 . S
Fe1107 O1108 1.918 . S
Fe1107 O1115 1.997 . S
Fe1107 O1118 1.996 . S
Fe1107 O1122 1.976 . S
Fe1107 O1125 2.002 . S
O1108 Fe1106 1.918 . S
O1108 Fe1107 1.918 . S
O1108 Fe1109 1.918 . S
Fe1109 O1108 1.918 . S
Fe1109 O1110 2.002 . S
Fe1109 O1119 1.976 . S
Fe1109 O1123 1.996 . S
Fe1109 O1126 1.997 . S
O1110 Fe1109 2.002 . S
O1110 C1127 1.295 . S
O1111 Fe1106 1.997 . S
O1111 C1127 1.235 . S
O1112 Fe1106 2.002 . S
O1112 C1113 1.295 . S
C1113 O1112 1.295 . S
C1113 O1115 1.235 . S
C1114 O1119 1.287 . S
C1114 O1120 1.255 . S
O1115 Fe1107 1.997 . S
O1115 C1113 1.235 . S
C1116 O1122 1.287 . S
C1116 O1123 1.255 . S
O1117 Fe1106 1.976 . S
O1117 C1124 1.287 . S
O1118 Fe1107 1.996 . S
O1118 C1124 1.255 . S
O1119 Fe1109 1.976 . S
O1119 C1114 1.287 . S
O1120 Fe1106 1.996 . S
O1120 C1114 1.255 . S
C1121 O1125 1.295 . S
C1121 O1126 1.235 . S
O1122 Fe1107 1.976 . S
O1122 C1116 1.287 . S
O1123 Fe1109 1.996 . S
O1123 C1116 1.255 . S
C1124 O1117 1.287 . S
C1124 O1118 1.255 . S
O1125 Fe1107 2.002 . S
O1125 C1121 1.295 . S
O1126 Fe1109 1.997 . S
O1126 C1121 1.235 . S
C1127 O1110 1.295 . S
C1127 O1111 1.235 . S
Fe1128 O1130 1.918 . S
Fe1128 O1133 1.997 . S
Fe1128 O1134 2.002 . S
Fe1128 O1139 1.976 . S
Fe1128 O1142 1.996 . S
Fe1129 O1130 1.918 . S
Fe1129 O1137 1.997 . S
Fe1129 O1140 1.996 . S
Fe1129 O1144 1.976 . S
Fe1129 O1147 2.002 . S
O1130 Fe1128 1.918 . S
O1130 Fe1129 1.918 . S
O1130 Fe1131 1.918 . S
Fe1131 O1130 1.918 . S
Fe1131 O1132 2.002 . S
Fe1131 O1141 1.976 . S
Fe1131 O1145 1.996 . S
Fe1131 O1148 1.997 . S
O1132 Fe1131 2.002 . S
O1132 C1149 1.295 . S
O1133 Fe1128 1.997 . S
O1133 C1149 1.235 . S
O1134 Fe1128 2.002 . S
O1134 C1135 1.295 . S
C1135 O1134 1.295 . S
C1135 O1137 1.235 . S
C1136 O1141 1.287 . S
C1136 O1142 1.255 . S
O1137 Fe1129 1.997 . S
O1137 C1135 1.235 . S
C1138 O1144 1.287 . S
C1138 O1145 1.255 . S
O1139 Fe1128 1.976 . S
O1139 C1146 1.287 . S
O1140 Fe1129 1.996 . S
O1140 C1146 1.255 . S
O1141 Fe1131 1.976 . S
O1141 C1136 1.287 . S
O1142 Fe1128 1.996 . S
O1142 C1136 1.255 . S
C1143 O1147 1.295 . S
C1143 O1148 1.235 . S
O1144 Fe1129 1.976 . S
O1144 C1138 1.287 . S
O1145 Fe1131 1.996 . S
O1145 C1138 1.255 . S
C1146 O1139 1.287 . S
C1146 O1140 1.255 . S
O1147 Fe1129 2.002 . S
O1147 C1143 1.295 . S
O1148 Fe1131 1.997 . S
O1148 C1143 1.235 . S
C1149 O1132 1.295 . S
C1149 O1133 1.235 . S
Fe1150 O1152 1.918 . S
Fe1150 O1155 1.997 . S
Fe1150 O1156 2.002 . S
Fe1150 O1161 1.976 . S
Fe1150 O1164 1.996 . S
Fe1151 O1152 1.918 . S
Fe1151 O1159 1.997 . S
Fe1151 O1162 1.996 . S
Fe1151 O1166 1.976 . S
Fe1151 O1169 2.002 . S
O1152 Fe1150 1.918 . S
O1152 Fe1151 1.918 . S
O1152 Fe1153 1.918 . S
Fe1153 O1152 1.918 . S
Fe1153 O1154 2.002 . S
Fe1153 O1163 1.976 . S
Fe1153 O1167 1.996 . S
Fe1153 O1170 1.997 . S
O1154 Fe1153 2.002 . S
O1154 C1171 1.295 . S
O1155 Fe1150 1.997 . S
O1155 C1171 1.235 . S
O1156 Fe1150 2.002 . S
O1156 C1157 1.295 . S
C1157 O1156 1.295 . S
C1157 O1159 1.235 . S
C1158 O1163 1.287 . S
C1158 O1164 1.255 . S
O1159 Fe1151 1.997 . S
O1159 C1157 1.235 . S
C1160 O1166 1.287 . S
C1160 O1167 1.255 . S
O1161 Fe1150 1.976 . S
O1161 C1168 1.287 . S
O1162 Fe1151 1.996 . S
O1162 C1168 1.255 . S
O1163 Fe1153 1.976 . S
O1163 C1158 1.287 . S
O1164 Fe1150 1.996 . S
O1164 C1158 1.255 . S
C1165 O1169 1.295 . S
C1165 O1170 1.235 . S
O1166 Fe1151 1.976 . S
O1166 C1160 1.287 . S
O1167 Fe1153 1.996 . S
O1167 C1160 1.255 . S
C1168 O1161 1.287 . S
C1168 O1162 1.255 . S
O1169 Fe1151 2.002 . S
O1169 C1165 1.295 . S
O1170 Fe1153 1.997 . S
O1170 C1165 1.235 . S
C1171 O1154 1.295 . S
C1171 O1155 1.235 . S
Fe1172 O1174 1.918 . S
Fe1172 O1177 1.997 . S
Fe1172 O1178 2.002 . S
Fe1172 O1183 1.976 . S
Fe1172 O1186 1.996 . S
Fe1173 O1174 1.918 . S
Fe1173 O1181 1.997 . S
Fe1173 O1184 1.996 . S
Fe1173 O1188 1.976 . S
Fe1173 O1191 2.002 . S
O1174 Fe1172 1.918 . S
O1174 Fe1173 1.918 . S
O1174 Fe1175 1.918 . S
Fe1175 O1174 1.918 . S
Fe1175 O1176 2.002 . S
Fe1175 O1185 1.976 . S
Fe1175 O1189 1.996 . S
Fe1175 O1192 1.997 . S
O1176 Fe1175 2.002 . S
O1176 C1193 1.295 . S
O1177 Fe1172 1.997 . S
O1177 C1193 1.235 . S
O1178 Fe1172 2.002 . S
O1178 C1179 1.295 . S
C1179 O1178 1.295 . S
C1179 O1181 1.235 . S
C1180 O1185 1.287 . S
C1180 O1186 1.255 . S
O1181 Fe1173 1.997 . S
O1181 C1179 1.235 . S
C1182 O1188 1.287 . S
C1182 O1189 1.255 . S
O1183 Fe1172 1.976 . S
O1183 C1190 1.287 . S
O1184 Fe1173 1.996 . S
O1184 C1190 1.255 . S
O1185 Fe1175 1.976 . S
O1185 C1180 1.287 . S
O1186 Fe1172 1.996 . S
O1186 C1180 1.255 . S
C1187 O1191 1.295 . S
C1187 O1192 1.235 . S
O1188 Fe1173 1.976 . S
O1188 C1182 1.287 . S
O1189 Fe1175 1.996 . S
O1189 C1182 1.255 . S
C1190 O1183 1.287 . S
C1190 O1184 1.255 . S
O1191 Fe1173 2.002 . S
O1191 C1187 1.295 . S
O1192 Fe1175 1.997 . S
O1192 C1187 1.235 . S
C1193 O1176 1.295 . S
C1193 O1177 1.235 . S
Fe1194 O1196 1.918 . S
Fe1194 O1199 1.997 . S
Fe1194 O1200 2.002 . S
Fe1194 O1205 1.976 . S
Fe1194 O1208 1.996 . S
Fe1195 O1196 1.918 . S
Fe1195 O1203 1.997 . S
Fe1195 O1206 1.996 . S
Fe1195 O1210 1.976 . S
Fe1195 O1213 2.002 . S
O1196 Fe1194 1.918 . S
O1196 Fe1195 1.918 . S
O1196 Fe1197 1.918 . S
Fe1197 O1196 1.918 . S
Fe1197 O1198 2.002 . S
Fe1197 O1207 1.976 . S
Fe1197 O1211 1.996 . S
Fe1197 O1214 1.997 . S
O1198 Fe1197 2.002 . S
O1198 C1215 1.295 . S
O1199 Fe1194 1.997 . S
O1199 C1215 1.235 . S
O1200 Fe1194 2.002 . S
O1200 C1201 1.295 . S
C1201 O1200 1.295 . S
C1201 O1203 1.235 . S
C1202 O1207 1.287 . S
C1202 O1208 1.255 . S
O1203 Fe1195 1.997 . S
O1203 C1201 1.235 . S
C1204 O1210 1.287 . S
C1204 O1211 1.255 . S
O1205 Fe1194 1.976 . S
O1205 C1212 1.287 . S
O1206 Fe1195 1.996 . S
O1206 C1212 1.255 . S
O1207 Fe1197 1.976 . S
O1207 C1202 1.287 . S
O1208 Fe1194 1.996 . S
O1208 C1202 1.255 . S
C1209 O1213 1.295 . S
C1209 O1214 1.235 . S
O1210 Fe1195 1.976 . S
O1210 C1204 1.287 . S
O1211 Fe1197 1.996 . S
O1211 C1204 1.255 . S
C1212 O1205 1.287 . S
C1212 O1206 1.255 . S
O1213 Fe1195 2.002 . S
O1213 C1209 1.295 . S
O1214 Fe1197 1.997 . S
O1214 C1209 1.235 . S
C1215 O1198 1.295 . S
C1215 O1199 1.235 . S
H1216 C1222 0.930 . S
H1217 C1225 0.930 . S
H1218 C1226 0.930 . S
H1219 C1227 0.930 . S
H1220 C1230 0.930 . S
H1221 C1231 0.930 . S
C1222 H1216 0.930 . S
C1222 C1223 1.355 . S
C1222 C1224 1.415 . S
C1223 C1222 1.355 . S
C1223 C1225 1.419 . S
C1224 C1222 1.415 . S
C1224 C1229 1.425 . S
C1224 C1231 1.409 . S
C1225 H1217 0.930 . S
C1225 C1223 1.419 . S
C1225 C1226 1.362 . S
C1226 H1218 0.930 . S
C1226 C1225 1.362 . S
C1226 C1229 1.409 . S
C1227 H1219 0.930 . S
C1227 C1228 1.355 . S
C1227 C1229 1.415 . S
C1228 C1227 1.355 . S
C1228 C1230 1.419 . S
C1229 C1224 1.425 . S
C1229 C1226 1.409 . S
C1229 C1227 1.415 . S
C1230 H1220 0.930 . S
C1230 C1228 1.419 . S
C1230 C1231 1.362 . S
C1231 H1221 0.930 . S
C1231 C1224 1.409 . S
C1231 C1230 1.362 . S
H1232 C1238 0.930 . S
H1233 C1241 0.930 . S
H1234 C1242 0.930 . S
H1235 C1243 0.930 . S
H1236 C1246 0.930 . S
H1237 C1247 0.930 . S
C1238 H1232 0.930 . S
C1238 C1239 1.355 . S
C1238 C1240 1.415 . S
C1239 C1238 1.355 . S
C1239 C1241 1.419 . S
C1240 C1238 1.415 . S
C1240 C1245 1.425 . S
C1240 C1247 1.409 . S
C1241 H1233 0.930 . S
C1241 C1239 1.419 . S
C1241 C1242 1.362 . S
C1242 H1234 0.930 . S
C1242 C1241 1.362 . S
C1242 C1245 1.409 . S
C1243 H1235 0.930 . S
C1243 C1244 1.355 . S
C1243 C1245 1.415 . S
C1244 C1243 1.355 . S
C1244 C1246 1.419 . S
C1245 C1240 1.425 . S
C1245 C1242 1.409 . S
C1245 C1243 1.415 . S
C1246 H1236 0.930 . S
C1246 C1244 1.419 . S
C1246 C1247 1.362 . S
C1247 H1237 0.930 . S
C1247 C1240 1.409 . S
C1247 C1246 1.362 . S
H1248 C1254 0.930 . S
H1249 C1257 0.930 . S
H1250 C1258 0.930 . S
H1251 C1259 0.930 . S
H1252 C1262 0.930 . S
H1253 C1263 0.930 . S
C1254 H1248 0.930 . S
C1254 C1255 1.355 . S
C1254 C1256 1.415 . S
C1255 C1254 1.355 . S
C1255 C1257 1.419 . S
C1256 C1254 1.415 . S
C1256 C1261 1.425 . S
C1256 C1263 1.409 . S
C1257 H1249 0.930 . S
C1257 C1255 1.419 . S
C1257 C1258 1.362 . S
C1258 H1250 0.930 . S
C1258 C1257 1.362 . S
C1258 C1261 1.409 . S
C1259 H1251 0.930 . S
C1259 C1260 1.355 . S
C1259 C1261 1.415 . S
C1260 C1259 1.355 . S
C1260 C1262 1.419 . S
C1261 C1256 1.425 . S
C1261 C1258 1.409 . S
C1261 C1259 1.415 . S
C1262 H1252 0.930 . S
C1262 C1260 1.419 . S
C1262 C1263 1.362 . S
C1263 H1253 0.930 . S
C1263 C1256 1.409 . S
C1263 C1262 1.362 . S
H1264 C1270 0.930 . S
H1265 C1273 0.930 . S
H1266 C1274 0.930 . S
H1267 C1275 0.930 . S
H1268 C1278 0.930 . S
H1269 C1279 0.927 1_556 S
C1270 H1264 0.930 . S
C1270 C1271 1.355 . S
C1270 C1272 1.415 . S
C1271 C1270 1.355 . S
C1271 C1273 1.419 . S
C1272 C1270 1.415 . S
C1272 C1277 1.425 . S
C1272 C1279 1.409 . S
C1273 H1265 0.930 . S
C1273 C1271 1.419 . S
C1273 C1274 1.362 . S
C1274 H1266 0.930 . S
C1274 C1273 1.362 . S
C1274 C1277 1.409 . S
C1275 H1267 0.930 . S
C1275 C1276 1.355 1_554 S
C1275 C1277 1.415 . S
C1276 C1275 1.355 1_556 S
C1276 C1278 1.419 . S
C1277 C1272 1.425 . S
C1277 C1274 1.409 . S
C1277 C1275 1.415 . S
C1278 H1268 0.930 . S
C1278 C1276 1.419 . S
C1278 C1279 1.362 1_556 S
C1279 H1269 0.927 1_554 S
C1279 C1272 1.409 . S
C1279 C1278 1.362 1_554 S
H1280 C1286 0.930 . S
H1281 C1289 0.930 . S
H1282 C1290 0.930 . S
H1283 C1291 0.930 . S
H1284 C1294 0.930 . S
H1285 C1295 0.930 . S
C1286 H1280 0.930 . S
C1286 C1287 1.355 . S
C1286 C1288 1.415 . S
C1287 C1286 1.355 . S
C1287 C1289 1.419 . S
C1288 C1286 1.415 . S
C1288 C1293 1.425 . S
C1288 C1295 1.409 . S
C1289 H1281 0.930 . S
C1289 C1287 1.419 . S
C1289 C1290 1.362 . S
C1290 H1282 0.930 . S
C1290 C1289 1.362 . S
C1290 C1293 1.409 . S
C1291 H1283 0.930 . S
C1291 C1292 1.355 . S
C1291 C1293 1.415 . S
C1292 C1291 1.355 . S
C1292 C1294 1.419 . S
C1293 C1288 1.425 . S
C1293 C1290 1.409 . S
C1293 C1291 1.415 . S
C1294 H1284 0.930 . S
C1294 C1292 1.419 . S
C1294 C1295 1.362 . S
C1295 H1285 0.930 . S
C1295 C1288 1.409 . S
C1295 C1294 1.362 . S
H1296 C1302 0.930 . S
H1297 C1305 0.930 . S
H1298 C1306 0.930 . S
H1299 C1307 0.930 . S
H1300 C1310 0.930 . S
H1301 C1311 0.930 . S
C1302 H1296 0.930 . S
C1302 C1303 1.355 . S
C1302 C1304 1.415 . S
C1303 C1302 1.355 . S
C1303 C1305 1.419 . S
C1304 C1302 1.415 . S
C1304 C1309 1.425 . S
C1304 C1311 1.409 . S
C1305 H1297 0.930 . S
C1305 C1303 1.419 . S
C1305 C1306 1.362 . S
C1306 H1298 0.930 . S
C1306 C1305 1.362 . S
C1306 C1309 1.409 . S
C1307 H1299 0.930 . S
C1307 C1308 1.355 . S
C1307 C1309 1.415 . S
C1308 C1307 1.355 . S
C1308 C1310 1.419 . S
C1309 C1304 1.425 . S
C1309 C1306 1.409 . S
C1309 C1307 1.415 . S
C1310 H1300 0.930 . S
C1310 C1308 1.419 . S
C1310 C1311 1.362 . S
C1311 H1301 0.930 . S
C1311 C1304 1.409 . S
C1311 C1310 1.362 . S
H1312 C1318 0.930 . S
H1313 C1321 0.930 . S
H1314 C1322 0.930 . S
H1315 C1323 0.930 . S
H1316 C1326 0.930 . S
H1317 C1327 0.930 . S
C1318 H1312 0.930 . S
C1318 C1319 1.355 . S
C1318 C1320 1.415 . S
C1319 C1318 1.355 . S
C1319 C1321 1.419 . S
C1320 C1318 1.415 . S
C1320 C1325 1.425 . S
C1320 C1327 1.409 . S
C1321 H1313 0.930 . S
C1321 C1319 1.419 . S
C1321 C1322 1.362 . S
C1322 H1314 0.930 . S
C1322 C1321 1.362 . S
C1322 C1325 1.409 . S
C1323 H1315 0.930 . S
C1323 C1324 1.355 . S
C1323 C1325 1.415 . S
C1324 C1323 1.355 . S
C1324 C1326 1.419 . S
C1325 C1320 1.425 . S
C1325 C1322 1.409 . S
C1325 C1323 1.415 . S
C1326 H1316 0.930 . S
C1326 C1324 1.419 . S
C1326 C1327 1.362 . S
C1327 H1317 0.930 . S
C1327 C1320 1.409 . S
C1327 C1326 1.362 . S
H1328 C1334 0.930 . S
H1329 C1337 0.930 . S
H1330 C1338 0.930 . S
H1331 C1339 0.930 . S
H1332 C1342 0.930 . S
H1333 C1343 0.930 . S
C1334 H1328 0.930 . S
C1334 C1335 1.355 . S
C1334 C1336 1.415 . S
C1335 C1334 1.355 . S
C1335 C1337 1.419 . S
C1336 C1334 1.415 . S
C1336 C1341 1.425 . S
C1336 C1343 1.409 1_556 S
C1337 H1329 0.930 . S
C1337 C1335 1.419 . S
C1337 C1338 1.362 . S
C1338 H1330 0.930 . S
C1338 C1337 1.362 . S
C1338 C1341 1.409 . S
C1339 H1331 0.930 . S
C1339 C1340 1.355 . S
C1339 C1341 1.415 1_554 S
C1340 C1339 1.355 . S
C1340 C1342 1.419 . S
C1341 C1336 1.425 . S
C1341 C1338 1.409 . S
C1341 C1339 1.415 1_556 S
C1342 H1332 0.930 . S
C1342 C1340 1.419 . S
C1342 C1343 1.362 . S
C1343 H1333 0.930 . S
C1343 C1336 1.409 1_554 S
C1343 C1342 1.362 . S
H1344 C1350 0.930 . S
H1345 C1353 0.930 . S
H1346 C1354 0.930 . S
H1347 C1355 0.930 . S
H1348 C1358 0.930 . S
H1349 C1359 0.930 . S
C1350 H1344 0.930 . S
C1350 C1351 1.355 . S
C1350 C1352 1.415 . S
C1351 C1350 1.355 . S
C1351 C1353 1.419 . S
C1352 C1350 1.415 . S
C1352 C1357 1.425 . S
C1352 C1359 1.409 . S
C1353 H1345 0.930 . S
C1353 C1351 1.419 . S
C1353 C1354 1.362 . S
C1354 H1346 0.930 . S
C1354 C1353 1.362 . S
C1354 C1357 1.409 . S
C1355 H1347 0.930 . S
C1355 C1356 1.355 . S
C1355 C1357 1.415 . S
C1356 C1355 1.355 . S
C1356 C1358 1.419 . S
C1357 C1352 1.425 . S
C1357 C1354 1.409 . S
C1357 C1355 1.415 . S
C1358 H1348 0.930 . S
C1358 C1356 1.419 . S
C1358 C1359 1.362 . S
C1359 H1349 0.930 . S
C1359 C1352 1.409 . S
C1359 C1358 1.362 . S
H1360 C1366 0.930 . S
H1361 C1369 0.930 . S
H1362 C1370 0.930 . S
H1363 C1371 0.930 . S
H1364 C1374 0.930 . S
H1365 C1375 0.930 . S
C1366 H1360 0.930 . S
C1366 C1367 1.355 . S
C1366 C1368 1.415 . S
C1367 C1366 1.355 . S
C1367 C1369 1.419 . S
C1368 C1366 1.415 . S
C1368 C1373 1.425 . S
C1368 C1375 1.409 . S
C1369 H1361 0.930 . S
C1369 C1367 1.419 . S
C1369 C1370 1.362 . S
C1370 H1362 0.930 . S
C1370 C1369 1.362 . S
C1370 C1373 1.409 . S
C1371 H1363 0.930 . S
C1371 C1372 1.355 . S
C1371 C1373 1.415 1_565 S
C1372 C1371 1.355 . S
C1372 C1374 1.419 1_565 S
C1373 C1368 1.425 . S
C1373 C1370 1.409 . S
C1373 C1371 1.415 1_545 S
C1374 H1364 0.930 . S
C1374 C1372 1.419 1_545 S
C1374 C1375 1.362 . S
C1375 H1365 0.930 . S
C1375 C1368 1.409 . S
C1375 C1374 1.362 . S
H1376 C1382 0.930 . S
H1377 C1385 0.930 . S
H1378 C1386 0.930 . S
H1379 C1387 0.930 . S
H1380 C1390 0.930 . S
H1381 C1391 0.930 . S
C1382 H1376 0.930 . S
C1382 C1383 1.355 . S
C1382 C1384 1.415 . S
C1383 C1382 1.355 . S
C1383 C1385 1.419 . S
C1384 C1382 1.415 . S
C1384 C1389 1.425 . S
C1384 C1391 1.409 . S
C1385 H1377 0.930 . S
C1385 C1383 1.419 . S
C1385 C1386 1.362 . S
C1386 H1378 0.930 . S
C1386 C1385 1.362 . S
C1386 C1389 1.409 . S
C1387 H1379 0.930 . S
C1387 C1388 1.355 . S
C1387 C1389 1.415 . S
C1388 C1387 1.355 . S
C1388 C1390 1.419 . S
C1389 C1384 1.425 . S
C1389 C1386 1.409 . S
C1389 C1387 1.415 . S
C1390 H1380 0.930 . S
C1390 C1388 1.419 . S
C1390 C1391 1.362 . S
C1391 H1381 0.930 . S
C1391 C1384 1.409 . S
C1391 C1390 1.362 . S
H1392 C1398 0.930 . S
H1393 C1401 0.930 . S
H1394 C1402 0.930 . S
H1395 C1403 0.930 . S
H1396 C1406 0.930 . S
H1397 C1407 0.930 . S
C1398 H1392 0.930 . S
C1398 C1399 1.355 . S
C1398 C1400 1.415 . S
C1399 C1398 1.355 . S
C1399 C1401 1.419 . S
C1400 C1398 1.415 . S
C1400 C1405 1.425 . S
C1400 C1407 1.409 1_565 S
C1401 H1393 0.930 . S
C1401 C1399 1.419 . S
C1401 C1402 1.362 . S
C1402 H1394 0.930 . S
C1402 C1401 1.362 . S
C1402 C1405 1.409 . S
C1403 H1395 0.930 . S
C1403 C1404 1.355 . S
C1403 C1405 1.415 1_545 S
C1404 C1403 1.355 . S
C1404 C1406 1.419 . S
C1405 C1400 1.425 . S
C1405 C1402 1.409 . S
C1405 C1403 1.415 1_565 S
C1406 H1396 0.930 . S
C1406 C1404 1.419 . S
C1406 C1407 1.362 . S
C1407 H1397 0.930 . S
C1407 C1400 1.409 1_545 S
C1407 C1406 1.362 . S
H1408 C1414 0.930 . S
H1409 C1417 0.930 . S
H1410 C1418 0.930 . S
H1411 C1419 0.930 . S
H1412 C1422 0.930 . S
H1413 C1423 0.930 . S
C1414 H1408 0.930 . S
C1414 C1415 1.355 . S
C1414 C1416 1.415 . S
C1415 C1414 1.355 . S
C1415 C1417 1.419 . S
C1416 C1414 1.415 . S
C1416 C1421 1.425 . S
C1416 C1423 1.409 . S
C1417 H1409 0.930 . S
C1417 C1415 1.419 . S
C1417 C1418 1.362 . S
C1418 H1410 0.930 . S
C1418 C1417 1.362 . S
C1418 C1421 1.409 . S
C1419 H1411 0.930 . S
C1419 C1420 1.355 . S
C1419 C1421 1.415 . S
C1420 C1419 1.355 . S
C1420 C1422 1.419 . S
C1421 C1416 1.425 . S
C1421 C1418 1.409 . S
C1421 C1419 1.415 . S
C1422 H1412 0.930 . S
C1422 C1420 1.419 . S
C1422 C1423 1.362 . S
C1423 H1413 0.930 . S
C1423 C1416 1.409 . S
C1423 C1422 1.362 . S
H1424 C1430 0.930 . S
H1425 C1433 0.930 . S
H1426 C1434 0.930 . S
H1427 C1435 0.932 . S
H1428 C1438 0.930 . S
H1429 C1439 0.930 . S
C1430 H1424 0.930 . S
C1430 C1431 1.355 . S
C1430 C1432 1.415 . S
C1431 C1430 1.355 . S
C1431 C1433 1.419 . S
C1432 C1430 1.415 . S
C1432 C1437 1.425 . S
C1432 C1439 1.409 1_545 S
C1433 H1425 0.930 . S
C1433 C1431 1.419 . S
C1433 C1434 1.362 . S
C1434 H1426 0.930 . S
C1434 C1433 1.362 . S
C1434 C1437 1.409 . S
C1435 H1427 0.932 . S
C1435 C1436 1.345 1_545 S
C1435 C1437 1.422 . S
C1436 C1435 1.345 1_565 S
C1436 C1438 1.419 . S
C1437 C1432 1.425 . S
C1437 C1434 1.409 . S
C1437 C1435 1.422 . S
C1438 H1428 0.930 . S
C1438 C1436 1.419 . S
C1438 C1439 1.362 . S
C1439 H1429 0.930 . S
C1439 C1432 1.409 1_565 S
C1439 C1438 1.362 . S
H1440 C1446 0.930 . S
H1441 C1449 0.930 . S
H1442 C1450 0.930 . S
H1443 C1451 0.930 . S
H1444 C1454 0.930 . S
H1445 C1455 0.930 . S
C1446 H1440 0.930 . S
C1446 C1447 1.355 . S
C1446 C1448 1.415 . S
C1447 C1446 1.355 . S
C1447 C1449 1.419 . S
C1448 C1446 1.415 . S
C1448 C1453 1.425 . S
C1448 C1455 1.409 . S
C1449 H1441 0.930 . S
C1449 C1447 1.419 . S
C1449 C1450 1.362 . S
C1450 H1442 0.930 . S
C1450 C1449 1.362 . S
C1450 C1453 1.409 . S
C1451 H1443 0.930 . S
C1451 C1452 1.355 . S
C1451 C1453 1.415 . S
C1452 C1451 1.355 . S
C1452 C1454 1.419 . S
C1453 C1448 1.425 . S
C1453 C1450 1.409 . S
C1453 C1451 1.415 . S
C1454 H1444 0.930 . S
C1454 C1452 1.419 . S
C1454 C1455 1.362 . S
C1455 H1445 0.930 . S
C1455 C1448 1.409 . S
C1455 C1454 1.362 . S
H1456 C1462 0.930 . S
H1457 C1465 0.930 . S
H1458 C1466 0.930 . S
H1459 C1467 0.930 . S
H1460 C1470 0.930 . S
H1461 C1471 0.930 1_565 S
C1462 H1456 0.930 . S
C1462 C1463 1.355 . S
C1462 C1464 1.415 . S
C1463 C1462 1.355 . S
C1463 C1465 1.419 . S
C1464 C1462 1.415 . S
C1464 C1469 1.425 . S
C1464 C1471 1.409 1_565 S
C1465 H1457 0.930 . S
C1465 C1463 1.419 . S
C1465 C1466 1.362 . S
C1466 H1458 0.930 . S
C1466 C1465 1.362 . S
C1466 C1469 1.409 . S
C1467 H1459 0.930 . S
C1467 C1468 1.355 . S
C1467 C1469 1.415 1_545 S
C1468 C1467 1.355 . S
C1468 C1470 1.419 . S
C1469 C1464 1.425 . S
C1469 C1466 1.409 . S
C1469 C1467 1.415 1_565 S
C1470 H1460 0.930 . S
C1470 C1468 1.419 . S
C1470 C1471 1.362 . S
C1471 H1461 0.930 1_545 S
C1471 C1464 1.409 1_545 S
C1471 C1470 1.362 . S
H1472 C1478 0.930 . S
H1473 C1481 0.930 . S
H1474 C1482 0.930 . S
H1475 C1483 0.930 . S
H1476 C1486 0.930 . S
H1477 C1487 0.930 . S
C1478 H1472 0.930 . S
C1478 C1479 1.355 . S
C1478 C1480 1.415 . S
C1479 C1478 1.355 . S
C1479 C1481 1.419 . S
C1480 C1478 1.415 . S
C1480 C1485 1.425 . S
C1480 C1487 1.409 . S
C1481 H1473 0.930 . S
C1481 C1479 1.419 . S
C1481 C1482 1.362 . S
C1482 H1474 0.930 . S
C1482 C1481 1.362 . S
C1482 C1485 1.409 . S
C1483 H1475 0.930 . S
C1483 C1484 1.355 . S
C1483 C1485 1.415 . S
C1484 C1483 1.355 . S
C1484 C1486 1.419 . S
C1485 C1480 1.425 . S
C1485 C1482 1.409 . S
C1485 C1483 1.415 . S
C1486 H1476 0.930 . S
C1486 C1484 1.419 . S
C1486 C1487 1.362 . S
C1487 H1477 0.930 . S
C1487 C1480 1.409 . S
C1487 C1486 1.362 . S
H1488 C1494 0.930 . S
H1489 C1497 0.930 . S
H1490 C1498 0.930 . S
H1491 C1499 0.930 . S
H1492 C1502 0.930 . S
H1493 C1503 0.930 . S
C1494 H1488 0.930 . S
C1494 C1495 1.355 . S
C1494 C1496 1.415 . S
C1495 C1494 1.355 . S
C1495 C1497 1.419 . S
C1496 C1494 1.415 . S
C1496 C1501 1.425 . S
C1496 C1503 1.409 . S
C1497 H1489 0.930 . S
C1497 C1495 1.419 . S
C1497 C1498 1.362 . S
C1498 H1490 0.930 . S
C1498 C1497 1.362 . S
C1498 C1501 1.409 . S
C1499 H1491 0.930 . S
C1499 C1500 1.355 . S
C1499 C1501 1.415 . S
C1500 C1499 1.355 . S
C1500 C1502 1.419 . S
C1501 C1496 1.425 . S
C1501 C1498 1.409 . S
C1501 C1499 1.415 . S
C1502 H1492 0.930 . S
C1502 C1500 1.419 . S
C1502 C1503 1.362 . S
C1503 H1493 0.930 . S
C1503 C1496 1.409 . S
C1503 C1502 1.362 . S
H1504 C1510 0.930 . S
H1505 C1513 0.930 . S
H1506 C1514 0.930 . S
H1507 C1515 0.930 . S
H1508 C1518 0.930 . S
H1509 C1519 0.930 . S
C1510 H1504 0.930 . S
C1510 C1511 1.355 . S
C1510 C1512 1.415 . S
C1511 C1510 1.355 . S
C1511 C1513 1.419 . S
C1512 C1510 1.415 . S
C1512 C1517 1.425 . S
C1512 C1519 1.409 1_455 S
C1513 H1505 0.930 . S
C1513 C1511 1.419 . S
C1513 C1514 1.362 . S
C1514 H1506 0.930 . S
C1514 C1513 1.362 . S
C1514 C1517 1.409 . S
C1515 H1507 0.930 . S
C1515 C1516 1.355 1_455 S
C1515 C1517 1.415 . S
C1516 C1515 1.355 1_655 S
C1516 C1518 1.419 . S
C1517 C1512 1.425 . S
C1517 C1514 1.409 . S
C1517 C1515 1.415 . S
C1518 H1508 0.930 . S
C1518 C1516 1.419 . S
C1518 C1519 1.362 . S
C1519 H1509 0.930 . S
C1519 C1512 1.409 1_655 S
C1519 C1518 1.362 . S
H1520 C1526 0.930 . S
H1521 C1529 0.930 . S
H1522 C1530 0.930 . S
H1523 C1531 0.930 . S
H1524 C1534 0.930 . S
H1525 C1535 0.930 . S
C1526 H1520 0.930 . S
C1526 C1527 1.355 . S
C1526 C1528 1.415 . S
C1527 C1526 1.355 . S
C1527 C1529 1.419 . S
C1528 C1526 1.415 . S
C1528 C1533 1.425 . S
C1528 C1535 1.409 . S
C1529 H1521 0.930 . S
C1529 C1527 1.419 . S
C1529 C1530 1.362 . S
C1530 H1522 0.930 . S
C1530 C1529 1.362 . S
C1530 C1533 1.409 . S
C1531 H1523 0.930 . S
C1531 C1532 1.355 . S
C1531 C1533 1.415 . S
C1532 C1531 1.355 . S
C1532 C1534 1.419 . S
C1533 C1528 1.425 . S
C1533 C1530 1.409 . S
C1533 C1531 1.415 . S
C1534 H1524 0.930 . S
C1534 C1532 1.419 . S
C1534 C1535 1.362 . S
C1535 H1525 0.930 . S
C1535 C1528 1.409 . S
C1535 C1534 1.362 . S
H1536 C1542 0.930 . S
H1537 C1545 0.930 . S
H1538 C1546 0.930 1_455 S
H1539 C1547 0.930 . S
H1540 C1550 0.930 . S
H1541 C1551 0.930 . S
C1542 H1536 0.930 . S
C1542 C1543 1.355 . S
C1542 C1544 1.415 . S
C1543 C1542 1.355 . S
C1543 C1545 1.419 . S
C1544 C1542 1.415 . S
C1544 C1549 1.425 1_655 S
C1544 C1551 1.409 . S
C1545 H1537 0.930 . S
C1545 C1543 1.419 . S
C1545 C1546 1.362 . S
C1546 H1538 0.930 1_655 S
C1546 C1545 1.362 . S
C1546 C1549 1.409 1_655 S
C1547 H1539 0.930 . S
C1547 C1548 1.355 . S
C1547 C1549 1.415 . S
C1548 C1547 1.355 . S
C1548 C1550 1.419 . S
C1549 C1544 1.425 1_455 S
C1549 C1546 1.409 1_455 S
C1549 C1547 1.415 . S
C1550 H1540 0.930 . S
C1550 C1548 1.419 . S
C1550 C1551 1.362 1_455 S
C1551 H1541 0.930 . S
C1551 C1544 1.409 . S
C1551 C1550 1.362 1_655 S
H1552 C1558 0.930 . S
H1553 C1561 0.930 . S
H1554 C1562 0.930 . S
H1555 C1563 0.930 . S
H1556 C1566 0.930 . S
H1557 C1567 0.930 . S
C1558 H1552 0.930 . S
C1558 C1559 1.355 . S
C1558 C1560 1.415 . S
C1559 C1558 1.355 . S
C1559 C1561 1.419 . S
C1560 C1558 1.415 . S
C1560 C1565 1.425 . S
C1560 C1567 1.409 . S
C1561 H1553 0.930 . S
C1561 C1559 1.419 . S
C1561 C1562 1.362 . S
C1562 H1554 0.930 . S
C1562 C1561 1.362 . S
C1562 C1565 1.409 . S
C1563 H1555 0.930 . S
C1563 C1564 1.355 . S
C1563 C1565 1.415 . S
C1564 C1563 1.355 . S
C1564 C1566 1.419 . S
C1565 C1560 1.425 . S
C1565 C1562 1.409 . S
C1565 C1563 1.415 . S
C1566 H1556 0.930 . S
C1566 C1564 1.419 . S
C1566 C1567 1.362 . S
C1567 H1557 0.930 . S
C1567 C1560 1.409 . S
C1567 C1566 1.362 . S
H1568 C1574 0.930 . S
H1569 C1577 0.930 . S
H1570 C1578 0.930 . S
H1571 C1579 0.930 . S
H1572 C1582 0.930 . S
H1573 C1583 0.930 . S
C1574 H1568 0.930 . S
C1574 C1575 1.355 . S
C1574 C1576 1.415 . S
C1575 C1574 1.355 . S
C1575 C1577 1.419 . S
C1576 C1574 1.415 . S
C1576 C1581 1.425 . S
C1576 C1583 1.409 1_455 S
C1577 H1569 0.930 . S
C1577 C1575 1.419 . S
C1577 C1578 1.362 . S
C1578 H1570 0.930 . S
C1578 C1577 1.362 . S
C1578 C1581 1.409 . S
C1579 H1571 0.930 . S
C1579 C1580 1.355 . S
C1579 C1581 1.415 1_655 S
C1580 C1579 1.355 . S
C1580 C1582 1.419 . S
C1581 C1576 1.425 . S
C1581 C1578 1.409 . S
C1581 C1579 1.415 1_455 S
C1582 H1572 0.930 . S
C1582 C1580 1.419 . S
C1582 C1583 1.362 . S
C1583 H1573 0.930 . S
C1583 C1576 1.409 1_655 S
C1583 C1582 1.362 . S
H1584 C1590 0.930 . S
H1585 C1593 0.930 . S
H1586 C1594 0.930 . S
H1587 C1595 0.930 . S
H1588 C1598 0.930 . S
H1589 C1599 0.930 . S
C1590 H1584 0.930 . S
C1590 C1591 1.355 . S
C1590 C1592 1.415 . S
C1591 C1590 1.355 . S
C1591 C1593 1.419 . S
C1592 C1590 1.415 . S
C1592 C1597 1.425 . S
C1592 C1599 1.409 . S
C1593 H1585 0.930 . S
C1593 C1591 1.419 . S
C1593 C1594 1.362 . S
C1594 H1586 0.930 . S
C1594 C1593 1.362 . S
C1594 C1597 1.409 . S
C1595 H1587 0.930 . S
C1595 C1596 1.355 . S
C1595 C1597 1.415 . S
C1596 C1595 1.355 . S
C1596 C1598 1.419 . S
C1597 C1592 1.425 . S
C1597 C1594 1.409 . S
C1597 C1595 1.415 . S
C1598 H1588 0.930 . S
C1598 C1596 1.419 . S
C1598 C1599 1.362 . S
C1599 H1589 0.930 . S
C1599 C1592 1.409 . S
C1599 C1598 1.362 . S
H1600 C1606 0.930 . S
H1601 C1609 0.930 . S
H1602 C1610 0.930 . S
H1603 C1611 0.930 . S
H1604 C1614 0.930 . S
H1605 C1615 0.930 . S
C1606 H1600 0.930 . S
C1606 C1607 1.355 . S
C1606 C1608 1.415 . S
C1607 C1606 1.355 . S
C1607 C1609 1.419 . S
C1608 C1606 1.415 . S
C1608 C1613 1.425 . S
C1608 C1615 1.409 . S
C1609 H1601 0.930 . S
C1609 C1607 1.419 . S
C1609 C1610 1.362 . S
C1610 H1602 0.930 . S
C1610 C1609 1.362 . S
C1610 C1613 1.409 . S
C1611 H1603 0.930 . S
C1611 C1612 1.355 . S
C1611 C1613 1.415 . S
C1612 C1611 1.355 . S
C1612 C1614 1.419 . S
C1613 C1608 1.425 . S
C1613 C1610 1.409 . S
C1613 C1611 1.415 . S
C1614 H1604 0.930 . S
C1614 C1612 1.419 . S
C1614 C1615 1.362 . S
C1615 H1605 0.930 . S
C1615 C1608 1.409 . S
C1615 C1614 1.362 . S
H1616 C1622 0.930 . S
H1617 C1625 0.930 . S
H1618 C1626 0.930 . S
H1619 C1627 0.930 . S
H1620 C1630 0.930 . S
H1621 C1631 0.930 . S
C1622 H1616 0.930 . S
C1622 C1623 1.355 . S
C1622 C1624 1.415 . S
C1623 C1622 1.355 . S
C1623 C1625 1.419 . S
C1624 C1622 1.415 . S
C1624 C1629 1.425 . S
C1624 C1631 1.409 . S
C1625 H1617 0.930 . S
C1625 C1623 1.419 . S
C1625 C1626 1.362 . S
C1626 H1618 0.930 . S
C1626 C1625 1.362 . S
C1626 C1629 1.409 . S
C1627 H1619 0.930 . S
C1627 C1628 1.355 . S
C1627 C1629 1.415 . S
C1628 C1627 1.355 . S
C1628 C1630 1.419 . S
C1629 C1624 1.425 . S
C1629 C1626 1.409 . S
C1629 C1627 1.415 . S
C1630 H1620 0.930 . S
C1630 C1628 1.419 . S
C1630 C1631 1.362 . S
C1631 H1621 0.930 . S
C1631 C1624 1.409 . S
C1631 C1630 1.362 . S
H1632 C1638 0.930 . S
H1633 C1641 0.930 . S
H1634 C1642 0.930 . S
H1635 C1643 0.930 . S
H1636 C1646 0.930 . S
H1637 C1647 0.930 . S
C1638 H1632 0.930 . S
C1638 C1639 1.355 . S
C1638 C1640 1.415 . S
C1639 C1638 1.355 . S
C1639 C1641 1.419 . S
C1640 C1638 1.415 . S
C1640 C1645 1.425 . S
C1640 C1647 1.409 . S
C1641 H1633 0.930 . S
C1641 C1639 1.419 . S
C1641 C1642 1.362 . S
C1642 H1634 0.930 . S
C1642 C1641 1.362 . S
C1642 C1645 1.409 . S
C1643 H1635 0.930 . S
C1643 C1644 1.355 . S
C1643 C1645 1.415 . S
C1644 C1643 1.355 . S
C1644 C1646 1.419 . S
C1645 C1640 1.425 . S
C1645 C1642 1.409 . S
C1645 C1643 1.415 . S
C1646 H1636 0.930 . S
C1646 C1644 1.419 . S
C1646 C1647 1.362 . S
C1647 H1637 0.930 . S
C1647 C1640 1.409 . S
C1647 C1646 1.362 . S
H1648 C1654 0.930 . S
H1649 C1657 0.930 . S
H1650 C1658 0.930 . S
H1651 C1659 0.930 . S
H1652 C1662 0.930 . S
H1653 C1663 0.930 . S
C1654 H1648 0.930 . S
C1654 C1655 1.355 . S
C1654 C1656 1.415 . S
C1655 C1654 1.355 . S
C1655 C1657 1.419 . S
C1656 C1654 1.415 . S
C1656 C1661 1.425 . S
C1656 C1663 1.409 1_556 S
C1657 H1649 0.930 . S
C1657 C1655 1.419 . S
C1657 C1658 1.362 . S
C1658 H1650 0.930 . S
C1658 C1657 1.362 . S
C1658 C1661 1.409 . S
C1659 H1651 0.930 . S
C1659 C1660 1.355 . S
C1659 C1661 1.415 1_554 S
C1660 C1659 1.355 . S
C1660 C1662 1.419 . S
C1661 C1656 1.425 . S
C1661 C1658 1.409 . S
C1661 C1659 1.415 1_556 S
C1662 H1652 0.930 . S
C1662 C1660 1.419 . S
C1662 C1663 1.362 . S
C1663 H1653 0.930 . S
C1663 C1656 1.409 1_554 S
C1663 C1662 1.362 . S
H1664 C1670 0.930 . S
H1665 C1673 0.930 . S
H1666 C1674 0.930 . S
H1667 C1675 0.930 . S
H1668 C1678 0.930 . S
H1669 C1679 0.930 . S
C1670 H1664 0.930 . S
C1670 C1671 1.355 . S
C1670 C1672 1.415 . S
C1671 C1670 1.355 . S
C1671 C1673 1.419 . S
C1672 C1670 1.415 . S
C1672 C1677 1.425 . S
C1672 C1679 1.409 . S
C1673 H1665 0.930 . S
C1673 C1671 1.419 . S
C1673 C1674 1.362 . S
C1674 H1666 0.930 . S
C1674 C1673 1.362 . S
C1674 C1677 1.409 . S
C1675 H1667 0.930 . S
C1675 C1676 1.355 . S
C1675 C1677 1.415 . S
C1676 C1675 1.355 . S
C1676 C1678 1.419 . S
C1677 C1672 1.425 . S
C1677 C1674 1.409 . S
C1677 C1675 1.415 . S
C1678 H1668 0.930 . S
C1678 C1676 1.419 . S
C1678 C1679 1.362 . S
C1679 H1669 0.930 . S
C1679 C1672 1.409 . S
C1679 C1678 1.362 . S
H1680 C1686 0.930 . S
H1681 C1689 0.930 . S
H1682 C1690 0.930 . S
H1683 C1691 0.930 . S
H1684 C1694 0.930 . S
H1685 C1695 0.930 . S
C1686 H1680 0.930 . S
C1686 C1687 1.355 . S
C1686 C1688 1.415 . S
C1687 C1686 1.355 . S
C1687 C1689 1.419 . S
C1688 C1686 1.415 . S
C1688 C1693 1.425 . S
C1688 C1695 1.409 . S
C1689 H1681 0.930 . S
C1689 C1687 1.419 . S
C1689 C1690 1.362 . S
C1690 H1682 0.930 . S
C1690 C1689 1.362 . S
C1690 C1693 1.409 . S
C1691 H1683 0.930 . S
C1691 C1692 1.355 . S
C1691 C1693 1.415 . S
C1692 C1691 1.355 . S
C1692 C1694 1.419 . S
C1693 C1688 1.425 . S
C1693 C1690 1.409 . S
C1693 C1691 1.415 . S
C1694 H1684 0.930 . S
C1694 C1692 1.419 . S
C1694 C1695 1.362 . S
C1695 H1685 0.930 . S
C1695 C1688 1.409 . S
C1695 C1694 1.362 . S
H1696 C1702 0.930 . S
H1697 C1705 0.930 . S
H1698 C1706 0.930 . S
H1699 C1707 0.930 . S
H1700 C1710 0.930 . S
H1701 C1711 0.930 . S
C1702 H1696 0.930 . S
C1702 C1703 1.355 . S
C1702 C1704 1.415 . S
C1703 C1702 1.355 . S
C1703 C1705 1.419 . S
C1704 C1702 1.415 . S
C1704 C1709 1.425 . S
C1704 C1711 1.409 . S
C1705 H1697 0.930 . S
C1705 C1703 1.419 . S
C1705 C1706 1.362 . S
C1706 H1698 0.930 . S
C1706 C1705 1.362 . S
C1706 C1709 1.409 . S
C1707 H1699 0.930 . S
C1707 C1708 1.355 . S
C1707 C1709 1.415 . S
C1708 C1707 1.355 . S
C1708 C1710 1.419 . S
C1709 C1704 1.425 . S
C1709 C1706 1.409 . S
C1709 C1707 1.415 . S
C1710 H1700 0.930 . S
C1710 C1708 1.419 . S
C1710 C1711 1.362 . S
C1711 H1701 0.930 . S
C1711 C1704 1.409 . S
C1711 C1710 1.362 . S
H1712 C1718 0.930 . S
H1713 C1721 0.930 . S
H1714 C1722 0.930 . S
H1715 C1723 0.930 . S
H1716 C1726 0.930 1_556 S
H1717 C1727 0.930 . S
C1718 H1712 0.930 . S
C1718 C1719 1.355 . S
C1718 C1720 1.415 . S
C1719 C1718 1.355 . S
C1719 C1721 1.419 . S
C1720 C1718 1.415 . S
C1720 C1725 1.425 . S
C1720 C1727 1.409 . S
C1721 H1713 0.930 . S
C1721 C1719 1.419 . S
C1721 C1722 1.362 . S
C1722 H1714 0.930 . S
C1722 C1721 1.362 . S
C1722 C1725 1.409 . S
C1723 H1715 0.930 . S
C1723 C1724 1.355 . S
C1723 C1725 1.415 1_556 S
C1724 C1723 1.355 . S
C1724 C1726 1.419 1_556 S
C1725 C1720 1.425 . S
C1725 C1722 1.409 . S
C1725 C1723 1.415 1_554 S
C1726 H1716 0.930 1_554 S
C1726 C1724 1.419 1_554 S
C1726 C1727 1.362 . S
C1727 H1717 0.930 . S
C1727 C1720 1.409 . S
C1727 C1726 1.362 . S
H1728 C1734 0.930 . S
H1729 C1737 0.930 . S
H1730 C1738 0.930 . S
H1731 C1739 0.930 . S
H1732 C1742 0.930 . S
H1733 C1743 0.930 . S
C1734 H1728 0.930 . S
C1734 C1735 1.355 . S
C1734 C1736 1.415 . S
C1735 C1734 1.355 . S
C1735 C1737 1.419 . S
C1736 C1734 1.415 . S
C1736 C1741 1.425 . S
C1736 C1743 1.409 . S
C1737 H1729 0.930 . S
C1737 C1735 1.419 . S
C1737 C1738 1.362 . S
C1738 H1730 0.930 . S
C1738 C1737 1.362 . S
C1738 C1741 1.409 . S
C1739 H1731 0.930 . S
C1739 C1740 1.355 . S
C1739 C1741 1.415 . S
C1740 C1739 1.355 . S
C1740 C1742 1.419 . S
C1741 C1736 1.425 . S
C1741 C1738 1.409 . S
C1741 C1739 1.415 . S
C1742 H1732 0.930 . S
C1742 C1740 1.419 . S
C1742 C1743 1.362 . S
C1743 H1733 0.930 . S
C1743 C1736 1.409 . S
C1743 C1742 1.362 . S
H1744 C1750 0.930 . S
H1745 C1753 0.930 . S
H1746 C1754 0.930 . S
H1747 C1755 0.930 . S
H1748 C1758 0.930 . S
H1749 C1759 0.930 . S
C1750 H1744 0.930 . S
C1750 C1751 1.355 . S
C1750 C1752 1.415 . S
C1751 C1750 1.355 . S
C1751 C1753 1.419 . S
C1752 C1750 1.415 . S
C1752 C1757 1.425 . S
C1752 C1759 1.409 . S
C1753 H1745 0.930 . S
C1753 C1751 1.419 . S
C1753 C1754 1.362 . S
C1754 H1746 0.930 . S
C1754 C1753 1.362 . S
C1754 C1757 1.409 . S
C1755 H1747 0.930 . S
C1755 C1756 1.355 . S
C1755 C1757 1.415 1_545 S
C1756 C1755 1.355 . S
C1756 C1758 1.419 . S
C1757 C1752 1.425 . S
C1757 C1754 1.409 . S
C1757 C1755 1.415 1_565 S
C1758 H1748 0.930 . S
C1758 C1756 1.419 . S
C1758 C1759 1.362 1_545 S
C1759 H1749 0.930 . S
C1759 C1752 1.409 . S
C1759 C1758 1.362 1_565 S
H1760 C1766 0.930 . S
H1761 C1769 0.930 . S
H1762 C1770 0.930 . S
H1763 C1771 0.930 . S
H1764 C1774 0.930 . S
H1765 C1775 0.930 . S
C1766 H1760 0.930 . S
C1766 C1767 1.355 . S
C1766 C1768 1.415 . S
C1767 C1766 1.355 . S
C1767 C1769 1.419 . S
C1768 C1766 1.415 . S
C1768 C1773 1.425 . S
C1768 C1775 1.409 . S
C1769 H1761 0.930 . S
C1769 C1767 1.419 . S
C1769 C1770 1.362 . S
C1770 H1762 0.930 . S
C1770 C1769 1.362 . S
C1770 C1773 1.409 . S
C1771 H1763 0.930 . S
C1771 C1772 1.355 . S
C1771 C1773 1.415 . S
C1772 C1771 1.355 . S
C1772 C1774 1.419 . S
C1773 C1768 1.425 . S
C1773 C1770 1.409 . S
C1773 C1771 1.415 . S
C1774 H1764 0.930 . S
C1774 C1772 1.419 . S
C1774 C1775 1.362 . S
C1775 H1765 0.930 . S
C1775 C1768 1.409 . S
C1775 C1774 1.362 . S
H1776 C1782 0.930 . S
H1777 C1785 0.930 . S
H1778 C1786 0.930 . S
H1779 C1787 0.930 . S
H1780 C1790 0.930 . S
H1781 C1791 0.930 . S
C1782 H1776 0.930 . S
C1782 C1783 1.355 . S
C1782 C1784 1.415 . S
C1783 C1782 1.355 . S
C1783 C1785 1.419 . S
C1784 C1782 1.415 . S
C1784 C1789 1.425 . S
C1784 C1791 1.409 . S
C1785 H1777 0.930 . S
C1785 C1783 1.419 . S
C1785 C1786 1.362 . S
C1786 H1778 0.930 . S
C1786 C1785 1.362 . S
C1786 C1789 1.409 . S
C1787 H1779 0.930 . S
C1787 C1788 1.355 . S
C1787 C1789 1.415 1_565 S
C1788 C1787 1.355 . S
C1788 C1790 1.419 . S
C1789 C1784 1.425 . S
C1789 C1786 1.409 . S
C1789 C1787 1.415 1_545 S
C1790 H1780 0.930 . S
C1790 C1788 1.419 . S
C1790 C1791 1.362 1_565 S
C1791 H1781 0.930 . S
C1791 C1784 1.409 . S
C1791 C1790 1.362 1_545 S
H1792 C1798 0.930 . S
H1793 C1801 0.930 . S
H1794 C1802 0.930 . S
H1795 C1803 0.930 . S
H1796 C1806 0.930 . S
H1797 C1807 0.930 . S
C1798 H1792 0.930 . S
C1798 C1799 1.355 . S
C1798 C1800 1.415 . S
C1799 C1798 1.355 . S
C1799 C1801 1.419 . S
C1800 C1798 1.415 . S
C1800 C1805 1.425 . S
C1800 C1807 1.409 . S
C1801 H1793 0.930 . S
C1801 C1799 1.419 . S
C1801 C1802 1.362 . S
C1802 H1794 0.930 . S
C1802 C1801 1.362 . S
C1802 C1805 1.409 . S
C1803 H1795 0.930 . S
C1803 C1804 1.355 . S
C1803 C1805 1.415 . S
C1804 C1803 1.355 . S
C1804 C1806 1.419 . S
C1805 C1800 1.425 . S
C1805 C1802 1.409 . S
C1805 C1803 1.415 . S
C1806 H1796 0.930 . S
C1806 C1804 1.419 . S
C1806 C1807 1.362 . S
C1807 H1797 0.930 . S
C1807 C1800 1.409 . S
C1807 C1806 1.362 . S
H1808 C1814 0.930 . S
H1809 C1817 0.930 . S
H1810 C1818 0.930 . S
H1811 C1819 0.930 . S
H1812 C1822 0.930 . S
H1813 C1823 0.930 . S
C1814 H1808 0.930 . S
C1814 C1815 1.355 . S
C1814 C1816 1.415 . S
C1815 C1814 1.355 . S
C1815 C1817 1.419 . S
C1816 C1814 1.415 . S
C1816 C1821 1.425 . S
C1816 C1823 1.409 1_565 S
C1817 H1809 0.930 . S
C1817 C1815 1.419 . S
C1817 C1818 1.362 . S
C1818 H1810 0.930 . S
C1818 C1817 1.362 . S
C1818 C1821 1.409 . S
C1819 H1811 0.930 . S
C1819 C1820 1.355 . S
C1819 C1821 1.415 1_545 S
C1820 C1819 1.355 . S
C1820 C1822 1.419 . S
C1821 C1816 1.425 . S
C1821 C1818 1.409 . S
C1821 C1819 1.415 1_565 S
C1822 H1812 0.930 . S
C1822 C1820 1.419 . S
C1822 C1823 1.362 . S
C1823 H1813 0.930 . S
C1823 C1816 1.409 1_545 S
C1823 C1822 1.362 . S
H1824 C1830 0.930 . S
H1825 C1833 0.930 . S
H1826 C1834 0.930 . S
H1827 C1835 0.930 . S
H1828 C1838 0.930 . S
H1829 C1839 0.930 . S
C1830 H1824 0.930 . S
C1830 C1831 1.355 . S
C1830 C1832 1.415 . S
C1831 C1830 1.355 . S
C1831 C1833 1.419 . S
C1832 C1830 1.415 . S
C1832 C1837 1.425 . S
C1832 C1839 1.409 . S
C1833 H1825 0.930 . S
C1833 C1831 1.419 . S
C1833 C1834 1.362 . S
C1834 H1826 0.930 . S
C1834 C1833 1.362 . S
C1834 C1837 1.409 . S
C1835 H1827 0.930 . S
C1835 C1836 1.355 . S
C1835 C1837 1.415 . S
C1836 C1835 1.355 . S
C1836 C1838 1.419 . S
C1837 C1832 1.425 . S
C1837 C1834 1.409 . S
C1837 C1835 1.415 . S
C1838 H1828 0.930 . S
C1838 C1836 1.419 . S
C1838 C1839 1.362 . S
C1839 H1829 0.930 . S
C1839 C1832 1.409 . S
C1839 C1838 1.362 . S
H1840 C1846 0.930 . S
H1841 C1849 0.930 . S
H1842 C1850 0.930 . S
H1843 C1851 0.930 . S
H1844 C1854 0.930 . S
H1845 C1855 0.930 . S
C1846 H1840 0.930 . S
C1846 C1847 1.355 . S
C1846 C1848 1.415 . S
C1847 C1846 1.355 . S
C1847 C1849 1.419 . S
C1848 C1846 1.415 . S
C1848 C1853 1.425 . S
C1848 C1855 1.409 1_545 S
C1849 H1841 0.930 . S
C1849 C1847 1.419 . S
C1849 C1850 1.362 . S
C1850 H1842 0.930 . S
C1850 C1849 1.362 . S
C1850 C1853 1.409 . S
C1851 H1843 0.930 . S
C1851 C1852 1.355 1_545 S
C1851 C1853 1.415 . S
C1852 C1851 1.355 1_565 S
C1852 C1854 1.419 . S
C1853 C1848 1.425 . S
C1853 C1850 1.409 . S
C1853 C1851 1.415 . S
C1854 H1844 0.930 . S
C1854 C1852 1.419 . S
C1854 C1855 1.362 . S
C1855 H1845 0.930 . S
C1855 C1848 1.409 1_565 S
C1855 C1854 1.362 . S
H1856 C1862 0.930 . S
H1857 C1865 0.930 . S
H1858 C1866 0.930 . S
H1859 C1867 0.930 . S
H1860 C1870 0.930 . S
H1861 C1871 0.930 . S
C1862 H1856 0.930 . S
C1862 C1863 1.355 . S
C1862 C1864 1.415 . S
C1863 C1862 1.355 . S
C1863 C1865 1.419 . S
C1864 C1862 1.415 . S
C1864 C1869 1.425 . S
C1864 C1871 1.409 . S
C1865 H1857 0.930 . S
C1865 C1863 1.419 . S
C1865 C1866 1.362 . S
C1866 H1858 0.930 . S
C1866 C1865 1.362 . S
C1866 C1869 1.409 . S
C1867 H1859 0.930 . S
C1867 C1868 1.355 . S
C1867 C1869 1.415 . S
C1868 C1867 1.355 . S
C1868 C1870 1.419 . S
C1869 C1864 1.425 . S
C1869 C1866 1.409 . S
C1869 C1867 1.415 . S
C1870 H1860 0.930 . S
C1870 C1868 1.419 . S
C1870 C1871 1.362 . S
C1871 H1861 0.930 . S
C1871 C1864 1.409 . S
C1871 C1870 1.362 . S
H1872 C1878 0.930 . S
H1873 C1881 0.930 . S
H1874 C1882 0.930 . S
H1875 C1883 0.930 . S
H1876 C1886 0.930 . S
H1877 C1887 0.930 . S
C1878 H1872 0.930 . S
C1878 C1879 1.355 . S
C1878 C1880 1.415 . S
C1879 C1878 1.355 . S
C1879 C1881 1.419 . S
C1880 C1878 1.415 . S
C1880 C1885 1.425 . S
C1880 C1887 1.409 . S
C1881 H1873 0.930 . S
C1881 C1879 1.419 . S
C1881 C1882 1.362 . S
C1882 H1874 0.930 . S
C1882 C1881 1.362 . S
C1882 C1885 1.409 . S
C1883 H1875 0.930 . S
C1883 C1884 1.355 . S
C1883 C1885 1.415 . S
C1884 C1883 1.355 . S
C1884 C1886 1.419 . S
C1885 C1880 1.425 . S
C1885 C1882 1.409 . S
C1885 C1883 1.415 . S
C1886 H1876 0.930 . S
C1886 C1884 1.419 . S
C1886 C1887 1.362 . S
C1887 H1877 0.930 . S
C1887 C1880 1.409 . S
C1887 C1886 1.362 . S
H1888 C1894 0.930 . S
H1889 C1897 0.930 . S
H1890 C1898 0.930 . S
H1891 C1899 0.930 . S
H1892 C1902 0.930 . S
H1893 C1903 0.930 . S
C1894 H1888 0.930 . S
C1894 C1895 1.355 . S
C1894 C1896 1.415 . S
C1895 C1894 1.355 . S
C1895 C1897 1.419 . S
C1896 C1894 1.415 . S
C1896 C1901 1.425 . S
C1896 C1903 1.409 . S
C1897 H1889 0.930 . S
C1897 C1895 1.419 . S
C1897 C1898 1.362 . S
C1898 H1890 0.930 . S
C1898 C1897 1.362 . S
C1898 C1901 1.409 . S
C1899 H1891 0.930 . S
C1899 C1900 1.355 . S
C1899 C1901 1.415 1_455 S
C1900 C1899 1.355 . S
C1900 C1902 1.419 . S
C1901 C1896 1.425 . S
C1901 C1898 1.409 . S
C1901 C1899 1.415 1_655 S
C1902 H1892 0.930 . S
C1902 C1900 1.419 . S
C1902 C1903 1.362 1_455 S
C1903 H1893 0.930 . S
C1903 C1896 1.409 . S
C1903 C1902 1.362 1_655 S
H1904 C1910 0.930 . S
H1905 C1913 0.930 . S
H1906 C1914 0.930 . S
H1907 C1915 0.930 . S
H1908 C1918 0.930 . S
H1909 C1919 0.930 . S
C1910 H1904 0.930 . S
C1910 C1911 1.355 . S
C1910 C1912 1.415 . S
C1911 C1910 1.355 . S
C1911 C1913 1.419 . S
C1912 C1910 1.415 . S
C1912 C1917 1.425 . S
C1912 C1919 1.409 . S
C1913 H1905 0.930 . S
C1913 C1911 1.419 . S
C1913 C1914 1.362 . S
C1914 H1906 0.930 . S
C1914 C1913 1.362 . S
C1914 C1917 1.409 . S
C1915 H1907 0.930 . S
C1915 C1916 1.355 . S
C1915 C1917 1.415 . S
C1916 C1915 1.355 . S
C1916 C1918 1.419 . S
C1917 C1912 1.425 . S
C1917 C1914 1.409 . S
C1917 C1915 1.415 . S
C1918 H1908 0.930 . S
C1918 C1916 1.419 . S
C1918 C1919 1.362 . S
C1919 H1909 0.930 . S
C1919 C1912 1.409 . S
C1919 C1918 1.362 . S
H1920 C1926 0.930 . S
H1921 C1929 0.930 . S
H1922 C1930 0.930 . S
H1923 C1931 0.930 . S
H1924 C1934 0.932 . S
H1925 C1935 0.930 . S
C1926 H1920 0.930 . S
C1926 C1927 1.355 . S
C1926 C1928 1.415 . S
C1927 C1926 1.355 . S
C1927 C1929 1.419 . S
C1928 C1926 1.415 . S
C1928 C1933 1.425 . S
C1928 C1935 1.409 . S
C1929 H1921 0.930 . S
C1929 C1927 1.419 . S
C1929 C1930 1.362 . S
C1930 H1922 0.930 . S
C1930 C1929 1.362 . S
C1930 C1933 1.409 . S
C1931 H1923 0.930 . S
C1931 C1932 1.355 . S
C1931 C1933 1.415 1_655 S
C1932 C1931 1.355 . S
C1932 C1934 1.425 . S
C1933 C1928 1.425 . S
C1933 C1930 1.409 . S
C1933 C1931 1.415 1_455 S
C1934 H1924 0.932 . S
C1934 C1932 1.425 . S
C1934 C1935 1.354 1_655 S
C1935 H1925 0.930 . S
C1935 C1928 1.409 . S
C1935 C1934 1.354 1_455 S
H1936 C1942 0.930 . S
H1937 C1945 0.930 . S
H1938 C1946 0.930 . S
H1939 C1947 0.930 . S
H1940 C1950 0.930 . S
H1941 C1951 0.930 . S
C1942 H1936 0.930 . S
C1942 C1943 1.355 . S
C1942 C1944 1.415 . S
C1943 C1942 1.355 . S
C1943 C1945 1.419 . S
C1944 C1942 1.415 . S
C1944 C1949 1.425 . S
C1944 C1951 1.409 . S
C1945 H1937 0.930 . S
C1945 C1943 1.419 . S
C1945 C1946 1.362 . S
C1946 H1938 0.930 . S
C1946 C1945 1.362 . S
C1946 C1949 1.409 . S
C1947 H1939 0.930 . S
C1947 C1948 1.355 . S
C1947 C1949 1.415 . S
C1948 C1947 1.355 . S
C1948 C1950 1.419 . S
C1949 C1944 1.425 . S
C1949 C1946 1.409 . S
C1949 C1947 1.415 . S
C1950 H1940 0.930 . S
C1950 C1948 1.419 . S
C1950 C1951 1.362 . S
C1951 H1941 0.930 . S
C1951 C1944 1.409 . S
C1951 C1950 1.362 . S
H1952 C1958 0.930 . S
H1953 C1961 0.930 . S
H1954 C1962 0.930 . S
H1955 C1963 0.930 . S
H1956 C1966 0.930 . S
H1957 C1967 0.930 1_655 S
C1958 H1952 0.930 . S
C1958 C1959 1.355 . S
C1958 C1960 1.415 . S
C1959 C1958 1.355 . S
C1959 C1961 1.419 . S
C1960 C1958 1.415 . S
C1960 C1965 1.425 . S
C1960 C1967 1.409 1_655 S
C1961 H1953 0.930 . S
C1961 C1959 1.419 . S
C1961 C1962 1.362 . S
C1962 H1954 0.930 . S
C1962 C1961 1.362 . S
C1962 C1965 1.409 . S
C1963 H1955 0.930 . S
C1963 C1964 1.355 . S
C1963 C1965 1.415 1_455 S
C1964 C1963 1.355 . S
C1964 C1966 1.419 . S
C1965 C1960 1.425 . S
C1965 C1962 1.409 . S
C1965 C1963 1.415 1_655 S
C1966 H1956 0.930 . S
C1966 C1964 1.419 . S
C1966 C1967 1.362 . S
C1967 H1957 0.930 1_455 S
C1967 C1960 1.409 1_455 S
C1967 C1966 1.362 . S
H1968 C1974 0.930 . S
H1969 C1977 0.930 . S
H1970 C1978 0.930 . S
H1971 C1979 0.930 . S
H1972 C1982 0.930 . S
H1973 C1983 0.930 . S
C1974 H1968 0.930 . S
C1974 C1975 1.355 . S
C1974 C1976 1.415 . S
C1975 C1974 1.355 . S
C1975 C1977 1.419 . S
C1976 C1974 1.415 . S
C1976 C1981 1.425 . S
C1976 C1983 1.409 . S
C1977 H1969 0.930 . S
C1977 C1975 1.419 . S
C1977 C1978 1.362 . S
C1978 H1970 0.930 . S
C1978 C1977 1.362 . S
C1978 C1981 1.409 . S
C1979 H1971 0.930 . S
C1979 C1980 1.355 . S
C1979 C1981 1.415 . S
C1980 C1979 1.355 . S
C1980 C1982 1.419 . S
C1981 C1976 1.425 . S
C1981 C1978 1.409 . S
C1981 C1979 1.415 . S
C1982 H1972 0.930 . S
C1982 C1980 1.419 . S
C1982 C1983 1.362 . S
C1983 H1973 0.930 . S
C1983 C1976 1.409 . S
C1983 C1982 1.362 . S
H1984 C1990 0.930 . S
H1985 C1993 0.930 . S
H1986 C1994 0.930 . S
H1987 C1995 0.930 . S
H1988 C1998 0.930 . S
H1989 C1999 0.930 . S
C1990 H1984 0.930 . S
C1990 C1991 1.355 . S
C1990 C1992 1.415 . S
C1991 C1990 1.355 . S
C1991 C1993 1.419 . S
C1992 C1990 1.415 . S
C1992 C1997 1.425 . S
C1992 C1999 1.409 . S
C1993 H1985 0.930 . S
C1993 C1991 1.419 . S
C1993 C1994 1.362 . S
C1994 H1986 0.930 . S
C1994 C1993 1.362 . S
C1994 C1997 1.409 . S
C1995 H1987 0.930 . S
C1995 C1996 1.355 . S
C1995 C1997 1.415 . S
C1996 C1995 1.355 . S
C1996 C1998 1.419 . S
C1997 C1992 1.425 . S
C1997 C1994 1.409 . S
C1997 C1995 1.415 . S
C1998 H1988 0.930 . S
C1998 C1996 1.419 . S
C1998 C1999 1.362 . S
C1999 H1989 0.930 . S
C1999 C1992 1.409 . S
C1999 C1998 1.362 . S
H2000 C2006 0.930 . S
H2001 C2009 0.930 . S
H2002 C2010 0.930 . S
H2003 C2011 0.930 . S
H2004 C2014 0.930 . S
H2005 C2015 0.930 . S
C2006 H2000 0.930 . S
C2006 C2007 1.355 . S
C2006 C2008 1.415 . S
C2007 C2006 1.355 . S
C2007 C2009 1.419 . S
C2008 C2006 1.415 . S
C2008 C2013 1.425 . S
C2008 C2015 1.409 . S
C2009 H2001 0.930 . S
C2009 C2007 1.419 . S
C2009 C2010 1.362 . S
C2010 H2002 0.930 . S
C2010 C2009 1.362 . S
C2010 C2013 1.409 . S
C2011 H2003 0.930 . S
C2011 C2012 1.355 . S
C2011 C2013 1.415 1_556 S
C2012 C2011 1.355 . S
C2012 C2014 1.419 . S
C2013 C2008 1.425 . S
C2013 C2010 1.409 . S
C2013 C2011 1.415 1_554 S
C2014 H2004 0.930 . S
C2014 C2012 1.419 . S
C2014 C2015 1.362 1_556 S
C2015 H2005 0.930 . S
C2015 C2008 1.409 . S
C2015 C2014 1.362 1_554 S
H2016 C2022 0.930 . S
H2017 C2025 0.930 . S
H2018 C2026 0.930 . S
H2019 C2027 0.930 . S
H2020 C2030 0.930 . S
H2021 C2031 0.930 . S
C2022 H2016 0.930 . S
C2022 C2023 1.355 . S
C2022 C2024 1.415 . S
C2023 C2022 1.355 . S
C2023 C2025 1.419 . S
C2024 C2022 1.415 . S
C2024 C2029 1.425 . S
C2024 C2031 1.409 . S
C2025 H2017 0.930 . S
C2025 C2023 1.419 . S
C2025 C2026 1.362 . S
C2026 H2018 0.930 . S
C2026 C2025 1.362 . S
C2026 C2029 1.409 . S
C2027 H2019 0.930 . S
C2027 C2028 1.355 . S
C2027 C2029 1.415 . S
C2028 C2027 1.355 . S
C2028 C2030 1.419 . S
C2029 C2024 1.425 . S
C2029 C2026 1.409 . S
C2029 C2027 1.415 . S
C2030 H2020 0.930 . S
C2030 C2028 1.419 . S
C2030 C2031 1.362 . S
C2031 H2021 0.930 . S
C2031 C2024 1.409 . S
C2031 C2030 1.362 . S
H2032 C2038 0.930 . S
H2033 C2041 0.930 . S
H2034 C2042 0.930 . S
H2035 C2043 0.930 . S
H2036 C2046 0.930 . S
H2037 C2047 0.930 . S
C2038 H2032 0.930 . S
C2038 C2039 1.355 . S
C2038 C2040 1.415 . S
C2039 C2038 1.355 . S
C2039 C2041 1.419 . S
C2040 C2038 1.415 . S
C2040 C2045 1.425 . S
C2040 C2047 1.409 . S
C2041 H2033 0.930 . S
C2041 C2039 1.419 . S
C2041 C2042 1.362 . S
C2042 H2034 0.930 . S
C2042 C2041 1.362 . S
C2042 C2045 1.409 . S
C2043 H2035 0.930 . S
C2043 C2044 1.355 . S
C2043 C2045 1.415 . S
C2044 C2043 1.355 . S
C2044 C2046 1.419 . S
C2045 C2040 1.425 . S
C2045 C2042 1.409 . S
C2045 C2043 1.415 . S
C2046 H2036 0.930 . S
C2046 C2044 1.419 . S
C2046 C2047 1.362 . S
C2047 H2037 0.930 . S
C2047 C2040 1.409 . S
C2047 C2046 1.362 . S
H2048 C2054 0.930 . S
H2049 C2057 0.930 . S
H2050 C2058 0.930 . S
H2051 C2059 0.930 . S
H2052 C2062 0.930 . S
H2053 C2063 0.930 . S
C2054 H2048 0.930 . S
C2054 C2055 1.355 . S
C2054 C2056 1.415 . S
C2055 C2054 1.355 . S
C2055 C2057 1.419 . S
C2056 C2054 1.415 . S
C2056 C2061 1.425 . S
C2056 C2063 1.409 . S
C2057 H2049 0.930 . S
C2057 C2055 1.419 . S
C2057 C2058 1.362 . S
C2058 H2050 0.930 . S
C2058 C2057 1.362 . S
C2058 C2061 1.409 . S
C2059 H2051 0.930 . S
C2059 C2060 1.355 . S
C2059 C2061 1.415 . S
C2060 C2059 1.355 . S
C2060 C2062 1.419 . S
C2061 C2056 1.425 . S
C2061 C2058 1.409 . S
C2061 C2059 1.415 . S
C2062 H2052 0.930 . S
C2062 C2060 1.419 . S
C2062 C2063 1.362 . S
C2063 H2053 0.930 . S
C2063 C2056 1.409 . S
C2063 C2062 1.362 . S
H2064 C2070 0.935 . S
H2065 C2073 0.930 . S
H2066 C2074 0.930 . S
H2067 C2075 0.930 . S
H2068 C2078 0.930 . S
H2069 C2079 0.930 . S
C2070 H2064 0.935 . S
C2070 C2071 1.355 . S
C2070 C2072 1.415 . S
C2071 C2070 1.355 . S
C2071 C2073 1.419 . S
C2072 C2070 1.415 . S
C2072 C2077 1.425 . S
C2072 C2079 1.409 1_556 S
C2073 H2065 0.930 . S
C2073 C2071 1.419 . S
C2073 C2074 1.362 . S
C2074 H2066 0.930 . S
C2074 C2073 1.362 . S
C2074 C2077 1.409 . S
C2075 H2067 0.930 . S
C2075 C2076 1.355 . S
C2075 C2077 1.415 1_554 S
C2076 C2075 1.355 . S
C2076 C2078 1.419 . S
C2077 C2072 1.425 . S
C2077 C2074 1.409 . S
C2077 C2075 1.415 1_556 S
C2078 H2068 0.930 . S
C2078 C2076 1.419 . S
C2078 C2079 1.362 . S
C2079 H2069 0.930 . S
C2079 C2072 1.409 1_554 S
C2079 C2078 1.362 . S
H2080 C2086 0.930 . S
H2081 C2089 0.930 . S
H2082 C2090 0.930 . S
H2083 C2091 0.930 . S
H2084 C2094 0.930 . S
H2085 C2095 0.930 . S
C2086 H2080 0.930 . S
C2086 C2087 1.355 . S
C2086 C2088 1.415 . S
C2087 C2086 1.355 . S
C2087 C2089 1.419 . S
C2088 C2086 1.415 . S
C2088 C2093 1.425 . S
C2088 C2095 1.409 . S
C2089 H2081 0.930 . S
C2089 C2087 1.419 . S
C2089 C2090 1.362 . S
C2090 H2082 0.930 . S
C2090 C2089 1.362 . S
C2090 C2093 1.409 . S
C2091 H2083 0.930 . S
C2091 C2092 1.355 . S
C2091 C2093 1.415 . S
C2092 C2091 1.355 . S
C2092 C2094 1.419 . S
C2093 C2088 1.425 . S
C2093 C2090 1.409 . S
C2093 C2091 1.415 . S
C2094 H2084 0.930 . S
C2094 C2092 1.419 . S
C2094 C2095 1.362 . S
C2095 H2085 0.930 . S
C2095 C2088 1.409 . S
C2095 C2094 1.362 . S
H2096 C2102 0.930 . S
H2097 C2105 0.930 . S
H2098 C2106 0.930 . S
H2099 C2107 0.930 . S
H2100 C2110 0.930 . S
H2101 C2111 0.930 . S
C2102 H2096 0.930 . S
C2102 C2103 1.355 . S
C2102 C2104 1.415 . S
C2103 C2102 1.355 . S
C2103 C2105 1.419 . S
C2104 C2102 1.415 . S
C2104 C2109 1.425 . S
C2104 C2111 1.409 . S
C2105 H2097 0.930 . S
C2105 C2103 1.419 . S
C2105 C2106 1.362 . S
C2106 H2098 0.930 . S
C2106 C2105 1.362 . S
C2106 C2109 1.409 . S
C2107 H2099 0.930 . S
C2107 C2108 1.355 . S
C2107 C2109 1.415 . S
C2108 C2107 1.355 . S
C2108 C2110 1.419 . S
C2109 C2104 1.425 . S
C2109 C2106 1.409 . S
C2109 C2107 1.415 . S
C2110 H2100 0.930 . S
C2110 C2108 1.419 . S
C2110 C2111 1.362 . S
C2111 H2101 0.930 . S
C2111 C2104 1.409 . S
C2111 C2110 1.362 . S
H2112 C2118 0.930 . S
H2113 C2121 0.930 . S
H2114 C2122 0.930 . S
H2115 C2123 0.930 . S
H2116 C2126 0.930 . S
H2117 C2127 0.930 . S
C2118 H2112 0.930 . S
C2118 C2119 1.355 . S
C2118 C2120 1.415 . S
C2119 C2118 1.355 . S
C2119 C2121 1.419 . S
C2120 C2118 1.415 . S
C2120 C2125 1.425 . S
C2120 C2127 1.409 . S
C2121 H2113 0.930 . S
C2121 C2119 1.419 . S
C2121 C2122 1.362 . S
C2122 H2114 0.930 . S
C2122 C2121 1.362 . S
C2122 C2125 1.409 . S
C2123 H2115 0.930 . S
C2123 C2124 1.355 . S
C2123 C2125 1.415 . S
C2124 C2123 1.355 . S
C2124 C2126 1.419 . S
C2125 C2120 1.425 . S
C2125 C2122 1.409 . S
C2125 C2123 1.415 . S
C2126 H2116 0.930 . S
C2126 C2124 1.419 . S
C2126 C2127 1.362 . S
C2127 H2117 0.930 . S
C2127 C2120 1.409 . S
C2127 C2126 1.362 . S
H2128 C2134 0.930 . S
H2129 C2137 0.930 . S
H2130 C2138 0.930 . S
H2131 C2139 0.930 . S
H2132 C2142 0.930 . S
H2133 C2143 0.930 . S
C2134 H2128 0.930 . S
C2134 C2135 1.355 . S
C2134 C2136 1.415 . S
C2135 C2134 1.355 . S
C2135 C2137 1.419 . S
C2136 C2134 1.415 . S
C2136 C2141 1.425 . S
C2136 C2143 1.409 . S
C2137 H2129 0.930 . S
C2137 C2135 1.419 . S
C2137 C2138 1.362 . S
C2138 H2130 0.930 . S
C2138 C2137 1.362 . S
C2138 C2141 1.409 . S
C2139 H2131 0.930 . S
C2139 C2140 1.355 . S
C2139 C2141 1.415 . S
C2140 C2139 1.355 . S
C2140 C2142 1.419 . S
C2141 C2136 1.425 . S
C2141 C2138 1.409 . S
C2141 C2139 1.415 . S
C2142 H2132 0.930 . S
C2142 C2140 1.419 . S
C2142 C2143 1.362 . S
C2143 H2133 0.930 . S
C2143 C2136 1.409 . S
C2143 C2142 1.362 . S
H2144 C2150 0.930 . S
H2145 C2153 0.930 . S
H2146 C2154 0.930 . S
H2147 C2155 0.930 . S
H2148 C2158 0.930 . S
H2149 C2159 0.930 . S
C2150 H2144 0.930 . S
C2150 C2151 1.355 . S
C2150 C2152 1.415 . S
C2151 C2150 1.355 . S
C2151 C2153 1.419 . S
C2152 C2150 1.415 . S
C2152 C2157 1.425 . S
C2152 C2159 1.409 . S
C2153 H2145 0.930 . S
C2153 C2151 1.419 . S
C2153 C2154 1.362 . S
C2154 H2146 0.930 . S
C2154 C2153 1.362 . S
C2154 C2157 1.409 . S
C2155 H2147 0.930 . S
C2155 C2156 1.355 . S
C2155 C2157 1.415 . S
C2156 C2155 1.355 . S
C2156 C2158 1.419 . S
C2157 C2152 1.425 . S
C2157 C2154 1.409 . S
C2157 C2155 1.415 . S
C2158 H2148 0.930 . S
C2158 C2156 1.419 . S
C2158 C2159 1.362 . S
C2159 H2149 0.930 . S
C2159 C2152 1.409 . S
C2159 C2158 1.362 . S
H2160 C2166 0.930 . S
H2161 C2169 0.930 . S
H2162 C2170 0.930 . S
H2163 C2171 0.930 . S
H2164 C2174 0.930 . S
H2165 C2175 0.930 . S
C2166 H2160 0.930 . S
C2166 C2167 1.355 . S
C2166 C2168 1.415 . S
C2167 C2166 1.355 . S
C2167 C2169 1.419 . S
C2168 C2166 1.415 . S
C2168 C2173 1.425 . S
C2168 C2175 1.409 . S
C2169 H2161 0.930 . S
C2169 C2167 1.419 . S
C2169 C2170 1.362 . S
C2170 H2162 0.930 . S
C2170 C2169 1.362 . S
C2170 C2173 1.409 . S
C2171 H2163 0.930 . S
C2171 C2172 1.355 . S
C2171 C2173 1.415 . S
C2172 C2171 1.355 . S
C2172 C2174 1.419 . S
C2173 C2168 1.425 . S
C2173 C2170 1.409 . S
C2173 C2171 1.415 . S
C2174 H2164 0.930 . S
C2174 C2172 1.419 . S
C2174 C2175 1.362 . S
C2175 H2165 0.930 . S
C2175 C2168 1.409 . S
C2175 C2174 1.362 . S
H2176 C2182 0.930 . S
H2177 C2185 0.930 . S
H2178 C2186 0.930 . S
H2179 C2187 0.930 . S
H2180 C2190 0.930 . S
H2181 C2191 0.930 . S
C2182 H2176 0.930 . S
C2182 C2183 1.355 . S
C2182 C2184 1.415 . S
C2183 C2182 1.355 . S
C2183 C2185 1.419 . S
C2184 C2182 1.415 . S
C2184 C2189 1.425 . S
C2184 C2191 1.409 . S
C2185 H2177 0.930 . S
C2185 C2183 1.419 . S
C2185 C2186 1.362 . S
C2186 H2178 0.930 . S
C2186 C2185 1.362 . S
C2186 C2189 1.409 . S
C2187 H2179 0.930 . S
C2187 C2188 1.355 . S
C2187 C2189 1.415 . S
C2188 C2187 1.355 . S
C2188 C2190 1.419 . S
C2189 C2184 1.425 . S
C2189 C2186 1.409 . S
C2189 C2187 1.415 . S
C2190 H2180 0.930 . S
C2190 C2188 1.419 . S
C2190 C2191 1.362 . S
C2191 H2181 0.930 . S
C2191 C2184 1.409 . S
C2191 C2190 1.362 . S
H2192 C2198 0.930 . S
H2193 C2201 0.930 . S
H2194 C2202 0.930 . S
H2195 C2203 0.930 . S
H2196 C2206 0.930 . S
H2197 C2207 0.930 . S
C2198 H2192 0.930 . S
C2198 C2199 1.355 . S
C2198 C2200 1.415 . S
C2199 C2198 1.355 . S
C2199 C2201 1.419 . S
C2200 C2198 1.415 . S
C2200 C2205 1.425 . S
C2200 C2207 1.409 . S
C2201 H2193 0.930 . S
C2201 C2199 1.419 . S
C2201 C2202 1.362 . S
C2202 H2194 0.930 . S
C2202 C2201 1.362 . S
C2202 C2205 1.409 . S
C2203 H2195 0.930 . S
C2203 C2204 1.355 . S
C2203 C2205 1.415 . S
C2204 C2203 1.355 . S
C2204 C2206 1.419 . S
C2205 C2200 1.425 . S
C2205 C2202 1.409 . S
C2205 C2203 1.415 . S
C2206 H2196 0.930 . S
C2206 C2204 1.419 . S
C2206 C2207 1.362 . S
C2207 H2197 0.930 . S
C2207 C2200 1.409 . S
C2207 C2206 1.362 . S
H2208 C2214 0.930 . S
H2209 C2217 0.930 . S
H2210 C2218 0.930 . S
H2211 C2219 0.930 . S
H2212 C2222 0.930 . S
H2213 C2223 0.930 . S
C2214 H2208 0.930 . S
C2214 C2215 1.355 . S
C2214 C2216 1.415 . S
C2215 C2214 1.355 . S
C2215 C2217 1.419 . S
C2216 C2214 1.415 . S
C2216 C2221 1.425 . S
C2216 C2223 1.409 . S
C2217 H2209 0.930 . S
C2217 C2215 1.419 . S
C2217 C2218 1.362 . S
C2218 H2210 0.930 . S
C2218 C2217 1.362 . S
C2218 C2221 1.409 . S
C2219 H2211 0.930 . S
C2219 C2220 1.355 . S
C2219 C2221 1.415 . S
C2220 C2219 1.355 . S
C2220 C2222 1.419 . S
C2221 C2216 1.425 . S
C2221 C2218 1.409 . S
C2221 C2219 1.415 . S
C2222 H2212 0.930 . S
C2222 C2220 1.419 . S
C2222 C2223 1.362 . S
C2223 H2213 0.930 . S
C2223 C2216 1.409 . S
C2223 C2222 1.362 . S
H2224 C2230 0.930 . S
H2225 C2233 0.930 . S
H2226 C2234 0.930 . S
H2227 C2235 0.930 . S
H2228 C2238 0.930 . S
H2229 C2239 0.930 . S
C2230 H2224 0.930 . S
C2230 C2231 1.355 . S
C2230 C2232 1.415 . S
C2231 C2230 1.355 . S
C2231 C2233 1.419 . S
C2232 C2230 1.415 . S
C2232 C2237 1.425 . S
C2232 C2239 1.409 . S
C2233 H2225 0.930 . S
C2233 C2231 1.419 . S
C2233 C2234 1.362 . S
C2234 H2226 0.930 . S
C2234 C2233 1.362 . S
C2234 C2237 1.409 . S
C2235 H2227 0.930 . S
C2235 C2236 1.355 . S
C2235 C2237 1.415 . S
C2236 C2235 1.355 . S
C2236 C2238 1.419 . S
C2237 C2232 1.425 . S
C2237 C2234 1.409 . S
C2237 C2235 1.415 . S
C2238 H2228 0.930 . S
C2238 C2236 1.419 . S
C2238 C2239 1.362 . S
C2239 H2229 0.930 . S
C2239 C2232 1.409 . S
C2239 C2238 1.362 . S
H2240 C2246 0.930 . S
H2241 C2249 0.930 . S
H2242 C2250 0.930 . S
H2243 C2251 0.930 . S
H2244 C2254 0.930 . S
H2245 C2255 0.930 . S
C2246 H2240 0.930 . S
C2246 C2247 1.355 . S
C2246 C2248 1.415 . S
C2247 C2246 1.355 . S
C2247 C2249 1.419 . S
C2248 C2246 1.415 . S
C2248 C2253 1.425 . S
C2248 C2255 1.409 . S
C2249 H2241 0.930 . S
C2249 C2247 1.419 . S
C2249 C2250 1.362 . S
C2250 H2242 0.930 . S
C2250 C2249 1.362 . S
C2250 C2253 1.409 . S
C2251 H2243 0.930 . S
C2251 C2252 1.355 . S
C2251 C2253 1.415 . S
C2252 C2251 1.355 . S
C2252 C2254 1.419 . S
C2253 C2248 1.425 . S
C2253 C2250 1.409 . S
C2253 C2251 1.415 . S
C2254 H2244 0.930 . S
C2254 C2252 1.419 . S
C2254 C2255 1.362 . S
C2255 H2245 0.930 . S
C2255 C2248 1.409 . S
C2255 C2254 1.362 . S
H2256 C2262 0.930 . S
H2257 C2265 0.930 . S
H2258 C2266 0.930 . S
H2259 C2267 0.930 . S
H2260 C2270 0.930 . S
H2261 C2271 0.930 . S
C2262 H2256 0.930 . S
C2262 C2263 1.355 . S
C2262 C2264 1.415 . S
C2263 C2262 1.355 . S
C2263 C2265 1.419 . S
C2264 C2262 1.415 . S
C2264 C2269 1.425 . S
C2264 C2271 1.409 . S
C2265 H2257 0.930 . S
C2265 C2263 1.419 . S
C2265 C2266 1.362 . S
C2266 H2258 0.930 . S
C2266 C2265 1.362 . S
C2266 C2269 1.409 . S
C2267 H2259 0.930 . S
C2267 C2268 1.355 . S
C2267 C2269 1.415 . S
C2268 C2267 1.355 . S
C2268 C2270 1.419 . S
C2269 C2264 1.425 . S
C2269 C2266 1.409 . S
C2269 C2267 1.415 . S
C2270 H2260 0.930 . S
C2270 C2268 1.419 . S
C2270 C2271 1.362 . S
C2271 H2261 0.930 . S
C2271 C2264 1.409 . S
C2271 C2270 1.362 . S
H2272 C2278 0.930 . S
H2273 C2281 0.930 1_545 S
H2274 C2282 0.930 . S
H2275 C2283 0.930 . S
H2276 C2286 0.930 . S
H2277 C2287 0.930 . S
C2278 H2272 0.930 . S
C2278 C2279 1.355 . S
C2278 C2280 1.415 . S
C2279 C2278 1.355 . S
C2279 C2281 1.419 . S
C2280 C2278 1.415 . S
C2280 C2285 1.425 . S
C2280 C2287 1.409 . S
C2281 H2273 0.930 1_565 S
C2281 C2279 1.419 . S
C2281 C2282 1.362 . S
C2282 H2274 0.930 . S
C2282 C2281 1.362 . S
C2282 C2285 1.409 . S
C2283 H2275 0.930 . S
C2283 C2284 1.355 . S
C2283 C2285 1.415 . S
C2284 C2283 1.355 . S
C2284 C2286 1.419 . S
C2285 C2280 1.425 . S
C2285 C2282 1.409 . S
C2285 C2283 1.415 . S
C2286 H2276 0.930 . S
C2286 C2284 1.419 . S
C2286 C2287 1.362 . S
C2287 H2277 0.930 . S
C2287 C2280 1.409 . S
C2287 C2286 1.362 . S
H2288 C2294 0.930 . S
H2289 C2297 0.930 . S
H2290 C2298 0.930 . S
H2291 C2299 0.930 . S
H2292 C2302 0.930 . S
H2293 C2303 0.930 . S
C2294 H2288 0.930 . S
C2294 C2295 1.355 . S
C2294 C2296 1.415 . S
C2295 C2294 1.355 . S
C2295 C2297 1.419 . S
C2296 C2294 1.415 . S
C2296 C2301 1.425 . S
C2296 C2303 1.409 . S
C2297 H2289 0.930 . S
C2297 C2295 1.419 . S
C2297 C2298 1.362 . S
C2298 H2290 0.930 . S
C2298 C2297 1.362 . S
C2298 C2301 1.409 . S
C2299 H2291 0.930 . S
C2299 C2300 1.355 . S
C2299 C2301 1.415 . S
C2300 C2299 1.355 . S
C2300 C2302 1.419 . S
C2301 C2296 1.425 . S
C2301 C2298 1.409 . S
C2301 C2299 1.415 . S
C2302 H2292 0.930 . S
C2302 C2300 1.419 . S
C2302 C2303 1.362 . S
C2303 H2293 0.930 . S
C2303 C2296 1.409 . S
C2303 C2302 1.362 . S
H2304 C2310 0.930 . S
H2305 C2313 0.930 . S
H2306 C2314 0.930 . S
H2307 C2315 0.930 . S
H2308 C2318 0.930 . S
H2309 C2319 0.930 . S
C2310 H2304 0.930 . S
C2310 C2311 1.355 . S
C2310 C2312 1.415 . S
C2311 C2310 1.355 . S
C2311 C2313 1.419 . S
C2312 C2310 1.415 . S
C2312 C2317 1.425 . S
C2312 C2319 1.409 . S
C2313 H2305 0.930 . S
C2313 C2311 1.419 . S
C2313 C2314 1.362 . S
C2314 H2306 0.930 . S
C2314 C2313 1.362 . S
C2314 C2317 1.409 . S
C2315 H2307 0.930 . S
C2315 C2316 1.355 . S
C2315 C2317 1.415 . S
C2316 C2315 1.355 . S
C2316 C2318 1.419 . S
C2317 C2312 1.425 . S
C2317 C2314 1.409 . S
C2317 C2315 1.415 . S
C2318 H2308 0.930 . S
C2318 C2316 1.419 . S
C2318 C2319 1.362 . S
C2319 H2309 0.930 . S
C2319 C2312 1.409 . S
C2319 C2318 1.362 . S
H2320 C2326 0.930 . S
H2321 C2329 0.930 . S
H2322 C2330 0.930 . S
H2323 C2331 0.930 . S
H2324 C2334 0.930 . S
H2325 C2335 0.930 . S
C2326 H2320 0.930 . S
C2326 C2327 1.355 . S
C2326 C2328 1.415 . S
C2327 C2326 1.355 . S
C2327 C2329 1.419 . S
C2328 C2326 1.415 . S
C2328 C2333 1.425 . S
C2328 C2335 1.409 . S
C2329 H2321 0.930 . S
C2329 C2327 1.419 . S
C2329 C2330 1.362 . S
C2330 H2322 0.930 . S
C2330 C2329 1.362 . S
C2330 C2333 1.409 . S
C2331 H2323 0.930 . S
C2331 C2332 1.355 . S
C2331 C2333 1.415 . S
C2332 C2331 1.355 . S
C2332 C2334 1.419 . S
C2333 C2328 1.425 . S
C2333 C2330 1.409 . S
C2333 C2331 1.415 . S
C2334 H2324 0.930 . S
C2334 C2332 1.419 . S
C2334 C2335 1.362 . S
C2335 H2325 0.930 . S
C2335 C2328 1.409 . S
C2335 C2334 1.362 . S
H2336 C2342 0.930 . S
H2337 C2345 0.930 . S
H2338 C2346 0.930 . S
H2339 C2347 0.930 . S
H2340 C2350 0.930 . S
H2341 C2351 0.930 . S
C2342 H2336 0.930 . S
C2342 C2343 1.355 . S
C2342 C2344 1.415 . S
C2343 C2342 1.355 . S
C2343 C2345 1.419 . S
C2344 C2342 1.415 . S
C2344 C2349 1.425 . S
C2344 C2351 1.409 . S
C2345 H2337 0.930 . S
C2345 C2343 1.419 . S
C2345 C2346 1.362 . S
C2346 H2338 0.930 . S
C2346 C2345 1.362 . S
C2346 C2349 1.409 . S
C2347 H2339 0.930 . S
C2347 C2348 1.355 . S
C2347 C2349 1.415 . S
C2348 C2347 1.355 . S
C2348 C2350 1.419 . S
C2349 C2344 1.425 . S
C2349 C2346 1.409 . S
C2349 C2347 1.415 . S
C2350 H2340 0.930 . S
C2350 C2348 1.419 . S
C2350 C2351 1.362 . S
C2351 H2341 0.930 . S
C2351 C2344 1.409 . S
C2351 C2350 1.362 . S
H2352 C2358 0.930 . S
H2353 C2361 0.930 . S
H2354 C2362 0.930 . S
H2355 C2363 0.930 . S
H2356 C2366 0.930 . S
H2357 C2367 0.930 . S
C2358 H2352 0.930 . S
C2358 C2359 1.355 . S
C2358 C2360 1.415 . S
C2359 C2358 1.355 . S
C2359 C2361 1.419 . S
C2360 C2358 1.415 . S
C2360 C2365 1.425 . S
C2360 C2367 1.409 . S
C2361 H2353 0.930 . S
C2361 C2359 1.419 . S
C2361 C2362 1.362 . S
C2362 H2354 0.930 . S
C2362 C2361 1.362 . S
C2362 C2365 1.409 . S
C2363 H2355 0.930 . S
C2363 C2364 1.355 . S
C2363 C2365 1.415 1_455 S
C2364 C2363 1.355 . S
C2364 C2366 1.419 . S
C2365 C2360 1.425 . S
C2365 C2362 1.409 . S
C2365 C2363 1.415 1_655 S
C2366 H2356 0.930 . S
C2366 C2364 1.419 . S
C2366 C2367 1.362 1_455 S
C2367 H2357 0.930 . S
C2367 C2360 1.409 . S
C2367 C2366 1.362 1_655 S
H2368 C2374 0.930 . S
H2369 C2377 0.930 . S
H2370 C2378 0.930 . S
H2371 C2379 0.930 . S
H2372 C2382 0.930 . S
H2373 C2383 0.930 . S
C2374 H2368 0.930 . S
C2374 C2375 1.355 . S
C2374 C2376 1.415 . S
C2375 C2374 1.355 . S
C2375 C2377 1.419 . S
C2376 C2374 1.415 . S
C2376 C2381 1.425 . S
C2376 C2383 1.409 . S
C2377 H2369 0.930 . S
C2377 C2375 1.419 . S
C2377 C2378 1.362 . S
C2378 H2370 0.930 . S
C2378 C2377 1.362 . S
C2378 C2381 1.409 . S
C2379 H2371 0.930 . S
C2379 C2380 1.355 . S
C2379 C2381 1.415 . S
C2380 C2379 1.355 . S
C2380 C2382 1.419 . S
C2381 C2376 1.425 . S
C2381 C2378 1.409 . S
C2381 C2379 1.415 . S
C2382 H2372 0.930 . S
C2382 C2380 1.419 . S
C2382 C2383 1.362 . S
C2383 H2373 0.930 . S
C2383 C2376 1.409 . S
C2383 C2382 1.362 . S
H2384 C2390 0.930 . S
H2385 C2393 0.930 . S
H2386 C2394 0.930 . S
H2387 C2395 0.930 . S
H2388 C2398 0.930 . S
H2389 C2399 0.930 . S
C2390 H2384 0.930 . S
C2390 C2391 1.355 . S
C2390 C2392 1.415 . S
C2391 C2390 1.355 . S
C2391 C2393 1.419 . S
C2392 C2390 1.415 . S
C2392 C2397 1.425 . S
C2392 C2399 1.409 1_556 S
C2393 H2385 0.930 . S
C2393 C2391 1.419 . S
C2393 C2394 1.362 . S
C2394 H2386 0.930 . S
C2394 C2393 1.362 . S
C2394 C2397 1.409 . S
C2395 H2387 0.930 . S
C2395 C2396 1.355 . S
C2395 C2397 1.415 1_554 S
C2396 C2395 1.355 . S
C2396 C2398 1.419 . S
C2397 C2392 1.425 . S
C2397 C2394 1.409 . S
C2397 C2395 1.415 1_556 S
C2398 H2388 0.930 . S
C2398 C2396 1.419 . S
C2398 C2399 1.362 . S
C2399 H2389 0.930 . S
C2399 C2392 1.409 1_554 S
C2399 C2398 1.362 . S
H2400 C2406 0.930 . S
H2401 C2409 0.930 . S
H2402 C2410 0.930 . S
H2403 C2411 0.930 . S
H2404 C2414 0.930 . S
H2405 C2415 0.930 . S
C2406 H2400 0.930 . S
C2406 C2407 1.355 . S
C2406 C2408 1.415 . S
C2407 C2406 1.355 . S
C2407 C2409 1.419 . S
C2408 C2406 1.415 . S
C2408 C2413 1.425 . S
C2408 C2415 1.409 . S
C2409 H2401 0.930 . S
C2409 C2407 1.419 . S
C2409 C2410 1.362 . S
C2410 H2402 0.930 . S
C2410 C2409 1.362 . S
C2410 C2413 1.409 . S
C2411 H2403 0.930 . S
C2411 C2412 1.355 . S
C2411 C2413 1.415 . S
C2412 C2411 1.355 . S
C2412 C2414 1.419 . S
C2413 C2408 1.425 . S
C2413 C2410 1.409 . S
C2413 C2411 1.415 . S
C2414 H2404 0.930 . S
C2414 C2412 1.419 . S
C2414 C2415 1.362 . S
C2415 H2405 0.930 . S
C2415 C2408 1.409 . S
C2415 C2414 1.362 . S
H2416 C2422 0.930 . S
H2417 C2425 0.930 . S
H2418 C2426 0.930 . S
H2419 C2427 0.930 . S
H2420 C2430 0.930 . S
H2421 C2431 0.930 . S
C2422 H2416 0.930 . S
C2422 C2423 1.355 . S
C2422 C2424 1.415 . S
C2423 C2422 1.355 . S
C2423 C2425 1.419 . S
C2424 C2422 1.415 . S
C2424 C2429 1.425 . S
C2424 C2431 1.409 . S
C2425 H2417 0.930 . S
C2425 C2423 1.419 . S
C2425 C2426 1.362 . S
C2426 H2418 0.930 . S
C2426 C2425 1.362 . S
C2426 C2429 1.409 . S
C2427 H2419 0.930 . S
C2427 C2428 1.355 . S
C2427 C2429 1.415 . S
C2428 C2427 1.355 . S
C2428 C2430 1.419 . S
C2429 C2424 1.425 . S
C2429 C2426 1.409 . S
C2429 C2427 1.415 . S
C2430 H2420 0.930 . S
C2430 C2428 1.419 . S
C2430 C2431 1.362 . S
C2431 H2421 0.930 . S
C2431 C2424 1.409 . S
C2431 C2430 1.362 . S
H2432 C2438 0.930 . S
H2433 C2441 0.930 . S
H2434 C2442 0.930 . S
H2435 C2443 0.930 . S
H2436 C2446 0.930 . S
H2437 C2447 0.930 . S
C2438 H2432 0.930 . S
C2438 C2439 1.355 . S
C2438 C2440 1.415 . S
C2439 C2438 1.355 . S
C2439 C2441 1.419 . S
C2440 C2438 1.415 . S
C2440 C2445 1.425 . S
C2440 C2447 1.409 . S
C2441 H2433 0.930 . S
C2441 C2439 1.419 . S
C2441 C2442 1.362 . S
C2442 H2434 0.930 . S
C2442 C2441 1.362 . S
C2442 C2445 1.409 . S
C2443 H2435 0.930 . S
C2443 C2444 1.355 . S
C2443 C2445 1.415 . S
C2444 C2443 1.355 . S
C2444 C2446 1.419 . S
C2445 C2440 1.425 . S
C2445 C2442 1.409 . S
C2445 C2443 1.415 . S
C2446 H2436 0.930 . S
C2446 C2444 1.419 . S
C2446 C2447 1.362 . S
C2447 H2437 0.930 . S
C2447 C2440 1.409 . S
C2447 C2446 1.362 . S
H2448 C2454 0.930 . S
H2449 C2457 0.930 . S
H2450 C2458 0.930 . S
H2451 C2459 0.930 . S
H2452 C2462 0.930 1_556 S
H2453 C2463 0.930 . S
C2454 H2448 0.930 . S
C2454 C2455 1.355 . S
C2454 C2456 1.415 . S
C2455 C2454 1.355 . S
C2455 C2457 1.419 . S
C2456 C2454 1.415 . S
C2456 C2461 1.425 . S
C2456 C2463 1.409 . S
C2457 H2449 0.930 . S
C2457 C2455 1.419 . S
C2457 C2458 1.362 . S
C2458 H2450 0.930 . S
C2458 C2457 1.362 . S
C2458 C2461 1.409 . S
C2459 H2451 0.930 . S
C2459 C2460 1.355 . S
C2459 C2461 1.415 1_556 S
C2460 C2459 1.355 . S
C2460 C2462 1.419 1_556 S
C2461 C2456 1.425 . S
C2461 C2458 1.409 . S
C2461 C2459 1.415 1_554 S
C2462 H2452 0.930 1_554 S
C2462 C2460 1.419 1_554 S
C2462 C2463 1.362 . S
C2463 H2453 0.930 . S
C2463 C2456 1.409 . S
C2463 C2462 1.362 . S
H2464 C2470 0.930 . S
H2465 C2473 0.930 . S
H2466 C2474 0.930 . S
H2467 C2475 0.930 . S
H2468 C2478 0.930 . S
H2469 C2479 0.930 . S
C2470 H2464 0.930 . S
C2470 C2471 1.355 . S
C2470 C2472 1.415 . S
C2471 C2470 1.355 . S
C2471 C2473 1.419 . S
C2472 C2470 1.415 . S
C2472 C2477 1.425 . S
C2472 C2479 1.409 . S
C2473 H2465 0.930 . S
C2473 C2471 1.419 . S
C2473 C2474 1.362 . S
C2474 H2466 0.930 . S
C2474 C2473 1.362 . S
C2474 C2477 1.409 . S
C2475 H2467 0.930 . S
C2475 C2476 1.355 . S
C2475 C2477 1.415 . S
C2476 C2475 1.355 . S
C2476 C2478 1.419 . S
C2477 C2472 1.425 . S
C2477 C2474 1.409 . S
C2477 C2475 1.415 . S
C2478 H2468 0.930 . S
C2478 C2476 1.419 . S
C2478 C2479 1.362 . S
C2479 H2469 0.930 . S
C2479 C2472 1.409 . S
C2479 C2478 1.362 . S
H2480 C2486 0.930 . S
H2481 C2489 0.930 . S
H2482 C2490 0.930 . S
H2483 C2491 0.930 . S
H2484 C2494 0.930 . S
H2485 C2495 0.930 . S
C2486 H2480 0.930 . S
C2486 C2487 1.355 . S
C2486 C2488 1.415 . S
C2487 C2486 1.355 . S
C2487 C2489 1.419 . S
C2488 C2486 1.415 . S
C2488 C2493 1.425 . S
C2488 C2495 1.409 . S
C2489 H2481 0.930 . S
C2489 C2487 1.419 . S
C2489 C2490 1.362 . S
C2490 H2482 0.930 . S
C2490 C2489 1.362 . S
C2490 C2493 1.409 . S
C2491 H2483 0.930 . S
C2491 C2492 1.355 . S
C2491 C2493 1.415 . S
C2492 C2491 1.355 . S
C2492 C2494 1.419 . S
C2493 C2488 1.425 . S
C2493 C2490 1.409 . S
C2493 C2491 1.415 . S
C2494 H2484 0.930 . S
C2494 C2492 1.419 . S
C2494 C2495 1.362 . S
C2495 H2485 0.930 . S
C2495 C2488 1.409 . S
C2495 C2494 1.362 . S
H2496 C2502 0.930 . S
H2497 C2505 0.930 . S
H2498 C2506 0.930 . S
H2499 C2507 0.930 . S
H2500 C2510 0.930 . S
H2501 C2511 0.930 . S
C2502 H2496 0.930 . S
C2502 C2503 1.355 . S
C2502 C2504 1.415 . S
C2503 C2502 1.355 . S
C2503 C2505 1.419 . S
C2504 C2502 1.415 . S
C2504 C2509 1.425 . S
C2504 C2511 1.409 . S
C2505 H2497 0.930 . S
C2505 C2503 1.419 . S
C2505 C2506 1.362 . S
C2506 H2498 0.930 . S
C2506 C2505 1.362 . S
C2506 C2509 1.409 . S
C2507 H2499 0.930 . S
C2507 C2508 1.355 . S
C2507 C2509 1.415 . S
C2508 C2507 1.355 . S
C2508 C2510 1.419 . S
C2509 C2504 1.425 . S
C2509 C2506 1.409 . S
C2509 C2507 1.415 . S
C2510 H2500 0.930 . S
C2510 C2508 1.419 . S
C2510 C2511 1.362 . S
C2511 H2501 0.930 . S
C2511 C2504 1.409 . S
C2511 C2510 1.362 . S
H2512 C2518 0.930 . S
H2513 C2521 0.930 . S
H2514 C2522 0.930 . S
H2515 C2523 0.930 . S
H2516 C2526 0.930 . S
H2517 C2527 0.930 . S
C2518 H2512 0.930 . S
C2518 C2519 1.355 . S
C2518 C2520 1.415 . S
C2519 C2518 1.355 . S
C2519 C2521 1.419 . S
C2520 C2518 1.415 . S
C2520 C2525 1.425 . S
C2520 C2527 1.409 . S
C2521 H2513 0.930 . S
C2521 C2519 1.419 . S
C2521 C2522 1.362 . S
C2522 H2514 0.930 . S
C2522 C2521 1.362 . S
C2522 C2525 1.409 . S
C2523 H2515 0.930 . S
C2523 C2524 1.355 . S
C2523 C2525 1.415 . S
C2524 C2523 1.355 . S
C2524 C2526 1.419 . S
C2525 C2520 1.425 . S
C2525 C2522 1.409 . S
C2525 C2523 1.415 . S
C2526 H2516 0.930 . S
C2526 C2524 1.419 . S
C2526 C2527 1.362 . S
C2527 H2517 0.930 . S
C2527 C2520 1.409 . S
C2527 C2526 1.362 . S
H2528 C2534 0.930 . S
H2529 C2537 0.930 . S
H2530 C2538 0.930 . S
H2531 C2539 0.930 . S
H2532 C2542 0.930 . S
H2533 C2543 0.930 . S
C2534 H2528 0.930 . S
C2534 C2535 1.355 . S
C2534 C2536 1.415 . S
C2535 C2534 1.355 . S
C2535 C2537 1.419 . S
C2536 C2534 1.415 . S
C2536 C2541 1.425 . S
C2536 C2543 1.409 . S
C2537 H2529 0.930 . S
C2537 C2535 1.419 . S
C2537 C2538 1.362 . S
C2538 H2530 0.930 . S
C2538 C2537 1.362 . S
C2538 C2541 1.409 . S
C2539 H2531 0.930 . S
C2539 C2540 1.355 . S
C2539 C2541 1.415 . S
C2540 C2539 1.355 . S
C2540 C2542 1.419 . S
C2541 C2536 1.425 . S
C2541 C2538 1.409 . S
C2541 C2539 1.415 . S
C2542 H2532 0.930 . S
C2542 C2540 1.419 . S
C2542 C2543 1.362 . S
C2543 H2533 0.930 . S
C2543 C2536 1.409 . S
C2543 C2542 1.362 . S
H2544 C2550 0.930 . S
H2545 C2553 0.930 . S
H2546 C2554 0.930 . S
H2547 C2555 0.930 . S
H2548 C2558 0.930 . S
H2549 C2559 0.930 . S
C2550 H2544 0.930 . S
C2550 C2551 1.355 . S
C2550 C2552 1.415 . S
C2551 C2550 1.355 . S
C2551 C2553 1.419 . S
C2552 C2550 1.415 . S
C2552 C2557 1.425 . S
C2552 C2559 1.409 . S
C2553 H2545 0.930 . S
C2553 C2551 1.419 . S
C2553 C2554 1.362 . S
C2554 H2546 0.930 . S
C2554 C2553 1.362 . S
C2554 C2557 1.409 . S
C2555 H2547 0.930 . S
C2555 C2556 1.355 . S
C2555 C2557 1.415 . S
C2556 C2555 1.355 . S
C2556 C2558 1.419 . S
C2557 C2552 1.425 . S
C2557 C2554 1.409 . S
C2557 C2555 1.415 . S
C2558 H2548 0.930 . S
C2558 C2556 1.419 . S
C2558 C2559 1.362 . S
C2559 H2549 0.930 . S
C2559 C2552 1.409 . S
C2559 C2558 1.362 . S
H2560 C2566 0.930 . S
H2561 C2569 0.930 . S
H2562 C2570 0.930 . S
H2563 C2571 0.930 . S
H2564 C2574 0.930 . S
H2565 C2575 0.930 . S
C2566 H2560 0.930 . S
C2566 C2567 1.355 . S
C2566 C2568 1.415 . S
C2567 C2566 1.355 . S
C2567 C2569 1.419 . S
C2568 C2566 1.415 . S
C2568 C2573 1.425 . S
C2568 C2575 1.409 . S
C2569 H2561 0.930 . S
C2569 C2567 1.419 . S
C2569 C2570 1.362 . S
C2570 H2562 0.930 . S
C2570 C2569 1.362 . S
C2570 C2573 1.409 . S
C2571 H2563 0.930 . S
C2571 C2572 1.355 . S
C2571 C2573 1.415 . S
C2572 C2571 1.355 . S
C2572 C2574 1.419 . S
C2573 C2568 1.425 . S
C2573 C2570 1.409 . S
C2573 C2571 1.415 . S
C2574 H2564 0.930 . S
C2574 C2572 1.419 . S
C2574 C2575 1.362 . S
C2575 H2565 0.930 . S
C2575 C2568 1.409 . S
C2575 C2574 1.362 . S
H2576 C2582 0.930 . S
H2577 C2585 0.930 . S
H2578 C2586 0.930 . S
H2579 C2587 0.930 . S
H2580 C2590 0.930 . S
H2581 C2591 0.930 . S
C2582 H2576 0.930 . S
C2582 C2583 1.355 . S
C2582 C2584 1.415 . S
C2583 C2582 1.355 . S
C2583 C2585 1.419 . S
C2584 C2582 1.415 . S
C2584 C2589 1.425 . S
C2584 C2591 1.409 . S
C2585 H2577 0.930 . S
C2585 C2583 1.419 . S
C2585 C2586 1.362 . S
C2586 H2578 0.930 . S
C2586 C2585 1.362 . S
C2586 C2589 1.409 . S
C2587 H2579 0.930 . S
C2587 C2588 1.355 . S
C2587 C2589 1.415 . S
C2588 C2587 1.355 . S
C2588 C2590 1.419 . S
C2589 C2584 1.425 . S
C2589 C2586 1.409 . S
C2589 C2587 1.415 . S
C2590 H2580 0.930 . S
C2590 C2588 1.419 . S
C2590 C2591 1.362 . S
C2591 H2581 0.930 . S
C2591 C2584 1.409 . S
C2591 C2590 1.362 . S
H2592 C2598 0.930 . S
H2593 C2601 0.930 . S
H2594 C2602 0.930 . S
H2595 C2603 0.930 . S
H2596 C2606 0.930 . S
H2597 C2607 0.930 . S
C2598 H2592 0.930 . S
C2598 C2599 1.355 . S
C2598 C2600 1.415 . S
C2599 C2598 1.355 . S
C2599 C2601 1.419 . S
C2600 C2598 1.415 . S
C2600 C2605 1.425 . S
C2600 C2607 1.409 . S
C2601 H2593 0.930 . S
C2601 C2599 1.419 . S
C2601 C2602 1.362 . S
C2602 H2594 0.930 . S
C2602 C2601 1.362 . S
C2602 C2605 1.409 . S
C2603 H2595 0.930 . S
C2603 C2604 1.355 . S
C2603 C2605 1.415 . S
C2604 C2603 1.355 . S
C2604 C2606 1.419 . S
C2605 C2600 1.425 . S
C2605 C2602 1.409 . S
C2605 C2603 1.415 . S
C2606 H2596 0.930 . S
C2606 C2604 1.419 . S
C2606 C2607 1.362 . S
C2607 H2597 0.930 . S
C2607 C2600 1.409 . S
C2607 C2606 1.362 . S
H2608 C2614 0.930 . S
H2609 C2617 0.930 . S
H2610 C2618 0.930 . S
H2611 C2619 0.930 . S
H2612 C2622 0.930 . S
H2613 C2623 0.930 . S
C2614 H2608 0.930 . S
C2614 C2615 1.355 . S
C2614 C2616 1.415 . S
C2615 C2614 1.355 . S
C2615 C2617 1.419 . S
C2616 C2614 1.415 . S
C2616 C2621 1.425 . S
C2616 C2623 1.409 . S
C2617 H2609 0.930 . S
C2617 C2615 1.419 . S
C2617 C2618 1.362 . S
C2618 H2610 0.930 . S
C2618 C2617 1.362 . S
C2618 C2621 1.409 . S
C2619 H2611 0.930 . S
C2619 C2620 1.355 . S
C2619 C2621 1.415 . S
C2620 C2619 1.355 . S
C2620 C2622 1.419 . S
C2621 C2616 1.425 . S
C2621 C2618 1.409 . S
C2621 C2619 1.415 . S
C2622 H2612 0.930 . S
C2622 C2620 1.419 . S
C2622 C2623 1.362 . S
C2623 H2613 0.930 . S
C2623 C2616 1.409 . S
C2623 C2622 1.362 . S
H2624 C2630 0.930 . S
H2625 C2633 0.930 . S
H2626 C2634 0.930 . S
H2627 C2635 0.930 . S
H2628 C2638 0.930 . S
H2629 C2639 0.930 . S
C2630 H2624 0.930 . S
C2630 C2631 1.355 . S
C2630 C2632 1.415 . S
C2631 C2630 1.355 . S
C2631 C2633 1.419 . S
C2632 C2630 1.415 . S
C2632 C2637 1.425 . S
C2632 C2639 1.409 . S
C2633 H2625 0.930 . S
C2633 C2631 1.419 . S
C2633 C2634 1.362 . S
C2634 H2626 0.930 . S
C2634 C2633 1.362 . S
C2634 C2637 1.409 . S
C2635 H2627 0.930 . S
C2635 C2636 1.355 . S
C2635 C2637 1.415 . S
C2636 C2635 1.355 . S
C2636 C2638 1.419 . S
C2637 C2632 1.425 . S
C2637 C2634 1.409 . S
C2637 C2635 1.415 . S
C2638 H2628 0.930 . S
C2638 C2636 1.419 . S
C2638 C2639 1.362 . S
C2639 H2629 0.930 . S
C2639 C2632 1.409 . S
C2639 C2638 1.362 . S
H2640 C2646 0.930 . S
H2641 C2649 0.930 . S
H2642 C2650 0.930 . S
H2643 C2651 0.930 . S
H2644 C2654 0.930 . S
H2645 C2655 0.930 . S
C2646 H2640 0.930 . S
C2646 C2647 1.355 . S
C2646 C2648 1.415 . S
C2647 C2646 1.355 . S
C2647 C2649 1.419 . S
C2648 C2646 1.415 . S
C2648 C2653 1.425 . S
C2648 C2655 1.409 . S
C2649 H2641 0.930 . S
C2649 C2647 1.419 . S
C2649 C2650 1.362 . S
C2650 H2642 0.930 . S
C2650 C2649 1.362 . S
C2650 C2653 1.409 . S
C2651 H2643 0.930 . S
C2651 C2652 1.355 . S
C2651 C2653 1.415 . S
C2652 C2651 1.355 . S
C2652 C2654 1.419 . S
C2653 C2648 1.425 . S
C2653 C2650 1.409 . S
C2653 C2651 1.415 . S
C2654 H2644 0.930 . S
C2654 C2652 1.419 . S
C2654 C2655 1.362 . S
C2655 H2645 0.930 . S
C2655 C2648 1.409 . S
C2655 C2654 1.362 . S
H2656 C2662 0.930 . S
H2657 C2665 0.930 . S
H2658 C2666 0.930 . S
H2659 C2667 0.930 . S
H2660 C2670 0.930 . S
H2661 C2671 0.930 . S
C2662 H2656 0.930 . S
C2662 C2663 1.355 . S
C2662 C2664 1.415 . S
C2663 C2662 1.355 . S
C2663 C2665 1.419 . S
C2664 C2662 1.415 . S
C2664 C2669 1.425 . S
C2664 C2671 1.409 . S
C2665 H2657 0.930 . S
C2665 C2663 1.419 . S
C2665 C2666 1.362 . S
C2666 H2658 0.930 . S
C2666 C2665 1.362 . S
C2666 C2669 1.409 . S
C2667 H2659 0.930 . S
C2667 C2668 1.355 . S
C2667 C2669 1.415 . S
C2668 C2667 1.355 . S
C2668 C2670 1.419 . S
C2669 C2664 1.425 . S
C2669 C2666 1.409 . S
C2669 C2667 1.415 . S
C2670 H2660 0.930 . S
C2670 C2668 1.419 . S
C2670 C2671 1.362 . S
C2671 H2661 0.930 . S
C2671 C2664 1.409 . S
C2671 C2670 1.362 . S
H2672 C2678 0.930 . S
H2673 C2681 0.930 . S
H2674 C2682 0.930 . S
H2675 C2683 0.930 . S
H2676 C2686 0.930 . S
H2677 C2687 0.930 . S
C2678 H2672 0.930 . S
C2678 C2679 1.355 . S
C2678 C2680 1.415 . S
C2679 C2678 1.355 . S
C2679 C2681 1.419 . S
C2680 C2678 1.415 . S
C2680 C2685 1.425 . S
C2680 C2687 1.409 . S
C2681 H2673 0.930 . S
C2681 C2679 1.419 . S
C2681 C2682 1.362 . S
C2682 H2674 0.930 . S
C2682 C2681 1.362 . S
C2682 C2685 1.409 . S
C2683 H2675 0.930 . S
C2683 C2684 1.355 . S
C2683 C2685 1.415 . S
C2684 C2683 1.355 . S
C2684 C2686 1.419 . S
C2685 C2680 1.425 . S
C2685 C2682 1.409 . S
C2685 C2683 1.415 . S
C2686 H2676 0.930 . S
C2686 C2684 1.419 . S
C2686 C2687 1.362 . S
C2687 H2677 0.930 . S
C2687 C2680 1.409 . S
C2687 C2686 1.362 . S
H2688 C2694 0.930 . S
H2689 C2697 0.930 . S
H2690 C2698 0.930 . S
H2691 C2699 0.930 . S
H2692 C2702 0.930 . S
H2693 C2703 0.930 . S
C2694 H2688 0.930 . S
C2694 C2695 1.355 . S
C2694 C2696 1.415 . S
C2695 C2694 1.355 . S
C2695 C2697 1.419 . S
C2696 C2694 1.415 . S
C2696 C2701 1.425 . S
C2696 C2703 1.409 . S
C2697 H2689 0.930 . S
C2697 C2695 1.419 . S
C2697 C2698 1.362 . S
C2698 H2690 0.930 . S
C2698 C2697 1.362 . S
C2698 C2701 1.409 . S
C2699 H2691 0.930 . S
C2699 C2700 1.355 . S
C2699 C2701 1.415 . S
C2700 C2699 1.355 . S
C2700 C2702 1.419 . S
C2701 C2696 1.425 . S
C2701 C2698 1.409 . S
C2701 C2699 1.415 . S
C2702 H2692 0.930 . S
C2702 C2700 1.419 . S
C2702 C2703 1.362 . S
C2703 H2693 0.930 . S
C2703 C2696 1.409 . S
C2703 C2702 1.362 . S
H2704 C2710 0.930 . S
H2705 C2713 0.930 . S
H2706 C2714 0.930 . S
H2707 C2715 0.930 . S
H2708 C2718 0.930 . S
H2709 C2719 0.930 . S
C2710 H2704 0.930 . S
C2710 C2711 1.355 . S
C2710 C2712 1.415 . S
C2711 C2710 1.355 . S
C2711 C2713 1.419 . S
C2712 C2710 1.415 . S
C2712 C2717 1.425 . S
C2712 C2719 1.409 . S
C2713 H2705 0.930 . S
C2713 C2711 1.419 . S
C2713 C2714 1.362 . S
C2714 H2706 0.930 . S
C2714 C2713 1.362 . S
C2714 C2717 1.409 . S
C2715 H2707 0.930 . S
C2715 C2716 1.355 . S
C2715 C2717 1.415 . S
C2716 C2715 1.355 . S
C2716 C2718 1.419 . S
C2717 C2712 1.425 . S
C2717 C2714 1.409 . S
C2717 C2715 1.415 . S
C2718 H2708 0.930 . S
C2718 C2716 1.419 . S
C2718 C2719 1.362 . S
C2719 H2709 0.930 . S
C2719 C2712 1.409 . S
C2719 C2718 1.362 . S
H2720 C2726 0.930 . S
H2721 C2729 0.930 . S
H2722 C2730 0.930 . S
H2723 C2731 0.930 . S
H2724 C2734 0.930 . S
H2725 C2735 0.930 . S
C2726 H2720 0.930 . S
C2726 C2727 1.355 . S
C2726 C2728 1.415 . S
C2727 C2726 1.355 . S
C2727 C2729 1.419 . S
C2728 C2726 1.415 . S
C2728 C2733 1.425 . S
C2728 C2735 1.409 . S
C2729 H2721 0.930 . S
C2729 C2727 1.419 . S
C2729 C2730 1.362 . S
C2730 H2722 0.930 . S
C2730 C2729 1.362 . S
C2730 C2733 1.409 . S
C2731 H2723 0.930 . S
C2731 C2732 1.355 . S
C2731 C2733 1.415 . S
C2732 C2731 1.355 . S
C2732 C2734 1.419 . S
C2733 C2728 1.425 . S
C2733 C2730 1.409 . S
C2733 C2731 1.415 . S
C2734 H2724 0.930 . S
C2734 C2732 1.419 . S
C2734 C2735 1.362 . S
C2735 H2725 0.930 . S
C2735 C2728 1.409 . S
C2735 C2734 1.362 . S
H2736 C2742 0.930 . S
H2737 C2745 0.930 . S
H2738 C2746 0.930 . S
H2739 C2747 0.930 . S
H2740 C2750 0.930 . S
H2741 C2751 0.930 . S
C2742 H2736 0.930 . S
C2742 C2743 1.355 . S
C2742 C2744 1.415 . S
C2743 C2742 1.355 . S
C2743 C2745 1.419 . S
C2744 C2742 1.415 . S
C2744 C2749 1.425 . S
C2744 C2751 1.409 . S
C2745 H2737 0.930 . S
C2745 C2743 1.419 . S
C2745 C2746 1.362 . S
C2746 H2738 0.930 . S
C2746 C2745 1.362 . S
C2746 C2749 1.409 . S
C2747 H2739 0.930 . S
C2747 C2748 1.355 . S
C2747 C2749 1.415 1_655 S
C2748 C2747 1.355 . S
C2748 C2750 1.419 . S
C2749 C2744 1.425 . S
C2749 C2746 1.409 . S
C2749 C2747 1.415 1_455 S
C2750 H2740 0.930 . S
C2750 C2748 1.419 . S
C2750 C2751 1.362 1_655 S
C2751 H2741 0.930 . S
C2751 C2744 1.409 . S
C2751 C2750 1.362 1_455 S
C1228 C882 1.074 . S
C1223 C4 1.098 . S
C1239 C39 1.202 . S
C1244 C894 1.238 . S
C1260 C929 1.202 . S
C1255 C86 1.225 . S
C1276 C938 1.127 . S
C1271 C110 1.173 . S
C1292 C893 1.167 . S
C1287 C146 1.164 . S
C1303 C194 1.136 . S
C1308 C918 1.211 . S
C1324 C937 1.208 . S
C1319 C219 1.262 . S
C1335 C256 1.139 . S
C1340 C879 1.133 . S
C1351 C292 1.063 . S
C1356 C872 1.114 . S
C1372 C896 1.184 . S
C1367 C326 1.136 . S
C1388 C915 1.253 . S
C1383 C363 1.263 . S
C1404 C940 1.182 . S
C1399 C410 1.201 . S
C1420 C901 1.214 . S
C1415 C302 1.164 . S
C1436 C926 1.213 . S
C1431 C327 1.228 . S
C1447 C362 1.142 . S
C1452 C945 1.170 . S
C1468 C885 1.059 . S
C1463 C400 1.113 . S
C1479 C436 1.115 . S
C1484 C874 1.065 . S
C1495 C471 1.243 . S
C1500 C973 1.250 . S
C1516 C989 1.130 . S
C1511 C506 1.197 . S
C1532 C1003 1.173 . S
C1527 C554 1.206 . S
C1543 C580 1.075 . S
C1548 C871 1.114 . S
C1559 C614 1.229 . S
C1564 C923 1.169 . S
C1580 C1006 1.209 . S
C1575 C507 1.258 . S
C1596 C970 1.238 . S
C1591 C662 1.157 . S
C1612 C1026 1.244 . S
C1607 C50 1.089 . S
C1628 C1050 1.188 . S
C1623 C3 1.164 . S
C1639 C112 1.178 . S
C1644 C1083 1.089 . S
C1655 C74 1.226 . S
C1660 C1091 1.155 . S
C1671 C254 1.237 . S
C1676 C1061 1.154 . S
C1687 C220 1.180 . S
C1692 C1072 1.151 . S
C1708 C1092 1.157 . S
C1703 C183 1.189 . S
C1719 C158 1.205 . S
C1724 C1025 1.294 . S
C1735 C698 1.100 . S
C1740 C1028 1.186 . S
C1756 C1058 1.175 . S
C1751 C542 1.161 . S
C1772 C1069 1.234 . S
C1767 C579 1.233 . S
C1788 C1099 1.113 . S
C1783 C472 1.159 . S
C1804 C1047 1.104 . S
C1799 C688 1.191 . S
C1820 C1080 1.162 . S
C1815 C543 1.204 . S
C1836 C1094 1.178 . S
C1831 C578 1.233 . S
C1847 C482 1.165 . S
C1852 C1033 1.212 . S
C1868 C1036 1.206 . S
C1863 C734 1.176 . S
C1879 C399 1.237 . S
C1884 C1124 1.208 . S
C1900 C1136 1.195 . S
C1895 C758 1.171 . S
C1911 C328 1.152 . S
C1916 C1157 1.163 . S
C1932 C1039 1.276 . S
C1927 C374 1.135 . S
C1948 C1077 1.164 . S
C1943 C794 1.185 . S
C1964 C1160 1.187 . S
C1959 C759 1.209 . S
C1975 C832 1.146 . S
C1980 C1127 1.112 . S
C1991 C76 1.119 . S
C1996 C1182 1.070 . S
C2007 C111 1.236 . S
C2012 C960 1.208 . S
C2028 C984 1.180 . S
C2023 C14 1.153 . S
C2039 C38 1.178 . S
C2044 C1014 1.138 . S
C2055 C218 1.194 . S
C2060 C959 1.128 . S
C2071 C266 1.131 . S
C2076 C995 1.253 . S
C2092 C1011 1.220 . S
C2087 C147 1.289 . S
C2108 C1193 1.136 . S
C2103 C184 1.093 . S
C2124 C1190 1.108 . S
C2119 C760 1.064 . S
C2140 C962 1.153 . S
C2135 C722 1.191 . S
C2156 C992 1.255 . S
C2151 C831 1.224 . S
C2167 C806 1.171 . S
C2172 C1004 1.227 . S
C2188 C967 1.202 . S
C2183 C770 1.152 . S
C2199 C723 1.228 . S
C2204 C981 1.216 . S
C2220 C1017 1.137 . S
C2215 C830 1.206 . S
C2231 C796 1.094 . S
C2236 C1179 1.142 . S
C2252 C1180 1.090 . S
C2247 C544 1.121 . S
C2263 C615 1.236 . S
C2268 C907 1.231 . S
C2284 C916 1.122 . S
C2279 C686 1.139 . S
C2295 C446 1.087 . S
C2300 C951 1.232 . S
C2316 C1187 1.114 . S
C2311 C652 1.071 . S
C2332 C982 1.202 . S
C2327 C470 1.162 . S
C2348 C948 1.200 . S
C2343 C687 1.242 . S
C2364 C904 1.248 . S
C2359 C590 1.088 . S
C2375 C122 1.126 . S
C2380 C1201 1.262 . S
C2391 C75 1.200 . S
C2396 C1113 1.154 . S
C2407 C40 1.136 . S
C2412 C1149 1.173 . S
C2428 C1168 1.184 . S
C2423 C2 1.144 . S
C2444 C1114 1.184 . S
C2439 C182 1.156 . S
C2455 C148 1.138 . S
C2460 C1138 1.170 . S
C2476 C1165 1.166 . S
C2471 C255 1.238 . S
C2487 C230 1.096 . S
C2492 C1202 1.230 . S
C2508 C1209 1.274 . S
C2503 C518 1.189 . S
C2519 C434 1.173 . S
C2524 C1121 1.162 . S
C2535 C651 1.242 . S
C2540 C1135 1.237 . S
C2556 C1158 1.159 . S
C2551 C616 1.118 . S
C2572 C1116 1.182 . S
C2567 C508 1.152 . S
C2583 C435 1.214 . S
C2588 C1146 1.234 . S
C2604 C1171 1.221 . S
C2599 C650 1.187 . S
C2620 C1204 1.224 . S
C2615 C626 1.124 . S
C2636 C1215 1.252 . S
C2631 C338 1.219 . S
C2652 C1055 1.179 . S
C2647 C795 1.252 . S
C2663 C290 1.190 . S
C2668 C1070 1.228 . S
C2679 C724 1.148 . S
C2684 C1102 1.111 . S
C2700 C1212 1.233 . S
C2695 C842 1.206 . S
C2716 C1143 1.185 . S
C2711 C398 1.164 . S
C2732 C1105 1.147 . S
C2727 C291 1.214 . S
C2748 C1048 1.163 . S
C2743 C364 1.166 . S
