# Generated by pormake.
# Topology pth, (4,4)-cn, num edge types: 1
# Building blocks:
#     Node 0, Type 0, BuildingBlock: NAHDIM_clean_sbu_0, # of connection points: 4
#     Node 1, Type 0, BuildingBlock: NAHDIM_clean_sbu_0, # of connection points: 4
#     Node 2, Type 0, BuildingBlock: NAHDIM_clean_sbu_0, # of connection points: 4
#     Node 3, Type 1, BuildingBlock: MUDLON_clean_sbu_0, # of connection points: 4
#     Node 4, Type 1, BuildingBlock: MUDLON_clean_sbu_0, # of connection points: 4
#     Node 5, Type 1, BuildingBlock: MUDLON_clean_sbu_0, # of connection points: 4
#     Edge 6, Type (0, 1), BuildingBlock: ZUJKAS_clean_linker_0, # of connection points: 2
#     Edge 7, Type (0, 1), BuildingBlock: ZUJKAS_clean_linker_0, # of connection points: 2
#     Edge 8, Type (0, 1), BuildingBlock: ZUJKAS_clean_linker_0, # of connection points: 2
#     Edge 9, Type (0, 1), BuildingBlock: ZUJKAS_clean_linker_0, # of connection points: 2
#     Edge 10, Type (0, 1), BuildingBlock: ZUJKAS_clean_linker_0, # of connection points: 2
#     Edge 11, Type (0, 1), BuildingBlock: ZUJKAS_clean_linker_0, # of connection points: 2
#     Edge 12, Type (0, 1), BuildingBlock: ZUJKAS_clean_linker_0, # of connection points: 2
#     Edge 13, Type (0, 1), BuildingBlock: ZUJKAS_clean_linker_0, # of connection points: 2
#     Edge 14, Type (0, 1), BuildingBlock: ZUJKAS_clean_linker_0, # of connection points: 2
#     Edge 15, Type (0, 1), BuildingBlock: ZUJKAS_clean_linker_0, # of connection points: 2
#     Edge 16, Type (0, 1), BuildingBlock: ZUJKAS_clean_linker_0, # of connection points: 2
#     Edge 17, Type (0, 1), BuildingBlock: ZUJKAS_clean_linker_0, # of connection points: 2
# Relax obj value: 0.076
# Max RMSD: 0.190
# Mean RMSD: 0.122
data_MOF--net-pth--node1-NAHDIM_clean_sbu_0--node2-MUDLON_clean_sbu_0--edge1-ZUJKAS_clean_linker_0
_symmetry_space_group_name_H-M    P1
_symmetry_Int_Tables_number       1
_symmetry_cell_setting            triclinic
loop_
_symmetry_equiv_pos_as_xyz
'x, y, z'
_cell_length_a     29.239594
_cell_length_b     29.314267
_cell_length_c     76.306444
_cell_angle_alpha  92.047959
_cell_angle_beta   89.964404
_cell_angle_gamma 120.57331
loop_
_atom_site_label
_atom_site_type_symbol
_atom_site_fract_x
_atom_site_fract_y
_atom_site_fract_z
_atom_type_partial_charge
C0 C 0.0213 0.99805 0.12359 0.0
O1 O 0.99404 0.02088 0.12809 0.0
O2 O 0.05538 0.12795 0.11353 0.0
Zn3 Zn 0.04943 0.07086 0.09639 0.0
O4 O 0.98006 0.03617 0.08255 0.0
C5 C 0.157 0.13969 0.08483 0.0
O6 O 0.16552 0.15443 0.10154 0.0
O7 O 0.05015 0.0135 0.1101 0.0
C8 C 0.97618 0.0494 0.06717 0.0
O9 O 0.01799 0.08928 0.06029 0.0
C10 C 0.06552 0.17335 0.1089 0.0
O11 O 0.0703 0.1835 0.09215 0.0
O12 O 0.11085 0.10338 0.07969 0.0
C13 C 0.05343 0.15228 0.39908 0.0
O14 O 0.0568 0.11419 0.39071 0.0
O15 O 0.0539 0.04026 0.41384 0.0
Zn16 Zn 0.05226 0.09589 0.42997 0.0
O17 O 0.98533 0.06377 0.44423 0.0
C18 C 0.16101 0.13545 0.44151 0.0
O19 O 0.16732 0.12831 0.42478 0.0
O20 O 0.05269 0.15336 0.41577 0.0
C21 C 0.98254 0.04365 0.45897 0.0
O22 O 0.02356 0.04135 0.4648 0.0
C23 C 0.06531 0.00693 0.41955 0.0
O24 O 0.07384 0.00698 0.43645 0.0
O25 O 0.1158 0.12626 0.44663 0.0
C26 C 0.11575 0.05565 0.74104 0.0
O27 O 0.14002 0.10105 0.75008 0.0
O28 O 0.97397 0.05534 0.74635 0.0
Zn29 Zn 0.02305 0.0403 0.76037 0.0
O30 O 0.06992 0.10414 0.77633 0.0
C31 C 0.95404 0.98142 0.78806 0.0
O32 O 0.95691 0.02713 0.79134 0.0
O33 O 0.06662 0.02372 0.74344 0.0
C34 C 0.09608 0.10028 0.78891 0.0
O35 O 0.09293 0.05453 0.79115 0.0
C36 C 0.99204 0.08753 0.73397 0.0
O37 O 0.04298 0.11111 0.73062 0.0
O38 O 0.97927 0.977 0.77516 0.0
Mg39 Mg 0.05792 0.58807 0.2624 0.0
C40 C 1.00003 0.51687 0.29321 0.0
O41 O 1.00167 0.55952 0.29999 0.0
C42 C 0.0094 0.59789 0.22892 0.0
O43 O 0.03111 0.57108 0.22272 0.0
C44 C 0.11611 0.53533 0.24781 0.0
O45 O 0.10154 0.51198 0.26285 0.0
O46 O 0.10846 0.57345 0.24498 0.0
O47 O 0.0157 0.51733 0.27763 0.0
O48 O 0.09789 0.65757 0.28011 0.0
C49 C 0.11673 0.65858 0.29522 0.0
O50 O 0.11882 0.61713 0.30009 0.0
O51 O 0.00962 0.60577 0.24543 0.0
Mg52 Mg 0.5385 0.06621 0.59158 0.0
C53 C 0.52714 0.12079 0.56031 0.0
O54 O 0.55307 0.09982 0.55285 0.0
C55 C 0.60033 0.0986 0.62575 0.0
O56 O 0.5519 0.06864 0.6314 0.0
C57 C 0.4244 0.01322 0.60326 0.0
O58 O 0.41856 0.02917 0.58798 0.0
O59 O 0.46921 0.01891 0.60736 0.0
O60 O 0.51937 0.11661 0.57672 0.0
O61 O 0.55941 0.02191 0.57309 0.0
C62 C 0.59041 0.00611 0.578 0.0
O63 O 0.60335 0.01073 0.59473 0.0
O64 O 0.60684 0.10828 0.60952 0.0
Mg65 Mg 0.53895 0.55969 0.93249 0.0
C66 C 0.42681 0.49466 0.91812 0.0
O67 O 0.42011 0.4748 0.93371 0.0
C68 C 0.5908 0.67344 0.94581 0.0
O69 O 0.60903 0.68046 0.92979 0.0
C70 C 0.52735 0.49841 0.96493 0.0
O71 O 0.55483 0.5468 0.97188 0.0
O72 O 0.51887 0.4921 0.94844 0.0
O73 O 0.47175 0.5342 0.91455 0.0
O74 O 0.60883 0.58603 0.91643 0.0
C75 C 0.60373 0.57397 0.90009 0.0
O76 O 0.55644 0.53926 0.8936 0.0
O77 O 0.55674 0.62682 0.95017 0.0
H78 H 0.06555 0.16722 0.14458 0.0
H79 H 0.08377 0.23707 0.16673 0.0
H80 H 0.10627 0.34433 0.12597 0.0
H81 H 0.08781 0.27459 0.10366 0.0
H82 H 0.17801 0.34042 0.17074 0.0
H83 H 0.99571 0.35032 0.15852 0.0
H84 H 1.00196 0.29478 0.15085 0.0
H85 H 0.03475 0.35589 0.13963 0.0
C86 C 0.07407 0.20554 0.14029 0.0
C87 C 0.07497 0.21522 0.12233 0.0
C88 C 0.08466 0.24547 0.15298 0.0
C89 C 0.09595 0.29569 0.14799 0.0
C90 C 0.09695 0.3056 0.13009 0.0
H91 H 0.13297 0.56342 0.21347 0.0
H92 H 0.13708 0.51105 0.18848 0.0
C93 C 0.08651 0.26571 0.11737 0.0
C94 C 0.10696 0.33763 0.16158 0.0
H95 H 0.05696 0.41092 0.17971 0.0
C96 C 0.15171 0.35605 0.17268 0.0
C97 C 0.07275 0.35812 0.16399 0.0
C98 C 0.02334 0.33863 0.15273 0.0
C99 C 0.163 0.39427 0.18623 0.0
C100 C 0.12799 0.41373 0.18895 0.0
C101 C 0.0839 0.39614 0.17757 0.0
C102 C 0.13396 0.44951 0.20417 0.0
C103 C 0.21243 0.41359 0.19744 0.0
C104 C 0.1321 0.43298 0.22132 0.0
C105 C 0.13001 0.46292 0.23564 0.0
C106 C 0.12914 0.50976 0.23308 0.0
C107 C 0.13368 0.52762 0.21594 0.0
C108 C 0.13582 0.49762 0.20162 0.0
H109 H 0.24297 0.40867 0.19036 0.0
H110 H 0.22988 0.45598 0.20161 0.0
H111 H 0.20211 0.38991 0.20935 0.0
H112 H 0.12953 0.39551 0.22362 0.0
H113 H 0.12636 0.44786 0.24864 0.0
H114 H 0.89391 0.0498 0.45198 0.0
H115 H 0.82086 0.03109 0.47171 0.0
H116 H 0.89149 0.98204 0.51085 0.0
H117 H 0.96497 1.00116 0.49134 0.0
H118 H 0.7466 0.93748 0.48922 0.0
H119 H 0.88003 0.10284 0.53578 0.0
H120 H 0.89949 0.09603 0.51384 0.0
H121 H 0.90062 0.05567 0.53083 0.0
C122 C 0.89374 0.03463 0.46473 0.0
C123 C 0.93564 0.02754 0.47015 0.0
C124 C 0.85188 0.02387 0.47597 0.0
C125 C 0.85124 0.006 0.49283 0.0
C126 C 0.89175 0.9967 0.498 0.0
H127 H 0.66078 0.97286 0.58405 0.0
H128 H 0.71936 0.96484 0.56291 0.0
C129 C 0.93363 0.00749 0.48679 0.0
C130 C 0.80956 0.99943 0.5053 0.0
H131 H 0.79125 0.04847 0.54421 0.0
C132 C 0.75624 0.96163 0.50127 0.0
C133 C 0.82232 0.03116 0.52096 0.0
C134 C 0.87862 0.07406 0.5256 0.0
C135 C 0.71533 0.95426 0.51264 0.0
C136 C 0.72814 0.98614 0.52827 0.0
C137 C 0.78151 0.02375 0.53229 0.0
C138 C 0.68708 0.98293 0.54047 0.0
C139 C 0.65894 0.91196 0.50793 0.0
C140 C 0.64863 0.99464 0.53482 0.0
C141 C 0.61485 0.99903 0.54688 0.0
C142 C 0.61933 0.99239 0.56485 0.0
C143 C 0.65628 0.97832 0.57033 0.0
C144 C 0.68988 0.97378 0.55826 0.0
H145 H 0.65753 0.88139 0.49854 0.0
H146 H 0.63661 0.89219 0.51979 0.0
H147 H 0.63855 0.93048 0.50161 0.0
H148 H 0.6464 1.00293 0.52123 0.0
H149 H 0.58706 0.0102 0.54222 0.0
H150 H 0.94068 0.88173 0.78539 0.0
H151 H 0.88498 0.80612 0.80346 0.0
H152 H 0.83894 0.90235 0.83399 0.0
H153 H 0.894 0.97786 0.81599 0.0
H154 H 0.88756 0.79635 0.84065 0.0
H155 H 0.69657 0.77205 0.81714 0.0
H156 H 0.75817 0.81082 0.80588 0.0
H157 H 0.74384 0.83808 0.82515 0.0
C158 C 0.91867 0.88681 0.79594 0.0
C159 C 0.92147 0.93576 0.79915 0.0
C160 C 0.887 0.8436 0.80627 0.0
C161 C 0.85731 0.84848 0.81989 0.0
C162 C 0.86084 0.89751 0.82334 0.0
H163 H 0.70084 0.66118 0.9085 0.0
H164 H 0.76565 0.723 0.88826 0.0
C165 C 0.8925 0.94069 0.81307 0.0
C166 C 0.82223 0.80234 0.83047 0.0
H167 H 0.69306 0.72418 0.8421 0.0
C168 C 0.84497 0.78019 0.84088 0.0
C169 C 0.76662 0.78089 0.83054 0.0
C170 C 0.73966 0.80128 0.81896 0.0
C171 C 0.81365 0.73823 0.85185 0.0
C172 C 0.75834 0.71843 0.85252 0.0
C173 C 0.73551 0.73953 0.84166 0.0
C174 C 0.72328 0.67723 0.86478 0.0
C175 C 0.84002 0.71542 0.86256 0.0
C176 C 0.67805 0.63065 0.85835 0.0
C177 C 0.64067 0.59535 0.86989 0.0
C178 C 0.64764 0.60611 0.88812 0.0
C179 C 0.69432 0.65148 0.89455 0.0
C180 C 0.73162 0.68684 0.88298 0.0
H181 H 0.87818 0.72341 0.85679 0.0
H182 H 0.84876 0.73412 0.87598 0.0
H183 H 0.81375 0.67194 0.86365 0.0
H184 H 0.67075 0.6225 0.84435 0.0
H185 H 0.60524 0.56078 0.86448 0.0
H186 H 0.0593 0.9317 0.11536 0.0
H187 H 0.04903 0.85727 0.13202 0.0
H188 H 0.96442 0.89135 0.17177 0.0
H189 H 0.97326 0.96474 0.15502 0.0
H190 H 0.08431 0.85641 0.16453 0.0
H191 H 0.86448 0.73485 0.16246 0.0
H192 H 0.90097 0.79082 0.1488 0.0
H193 H 0.88866 0.80085 0.17133 0.0
C194 C 0.03833 0.92322 0.12762 0.0
C195 C 0.01679 0.95394 0.1338 0.0
C196 C 0.03242 0.88061 0.13711 0.0
C197 C 1.0049 0.86795 0.15296 0.0
C198 C 0.98437 0.89929 0.15933 0.0
H199 H 0.97219 0.66489 0.2373 0.0
H200 H 0.96666 0.72699 0.21799 0.0
C201 C 0.98988 0.94157 0.14979 0.0
C202 C 0.99959 0.82337 0.16319 0.0
H203 H 0.90934 0.70927 0.18256 0.0
C204 C 0.04601 0.82401 0.16832 0.0
C205 C 0.94955 0.78104 0.16814 0.0
C206 C 0.89807 0.77645 0.16226 0.0
C207 C 0.04387 0.78421 0.17858 0.0
C208 C 0.99398 0.74248 0.18375 0.0
C209 C 0.94749 0.74148 0.17858 0.0
C210 C 0.98992 0.70005 0.19475 0.0
C211 C 0.09505 0.78756 0.18415 0.0
C212 C 1.00275 0.66306 0.18788 0.0
C213 C 1.00568 0.62736 0.19882 0.0
C214 C 0.99607 0.62823 0.21687 0.0
C215 C 0.98001 0.66325 0.22348 0.0
C216 C 0.97687 0.69881 0.21249 0.0
H217 H 0.13037 0.82675 0.18157 0.0
H218 H 0.09467 0.78028 0.19835 0.0
H219 H 0.09914 0.75652 0.1768 0.0
H220 H 0.0124 0.66313 0.17416 0.0
H221 H 0.01792 0.60083 0.19325 0.0
H222 H 0.257 0.14347 0.43546 0.0
H223 H 0.32355 0.15433 0.45719 0.0
H224 H 0.22963 0.16714 0.49855 0.0
H225 H 0.1622 0.15511 0.47693 0.0
H226 H 0.38481 0.23296 0.48244 0.0
H227 H 0.2452 0.04363 0.5133 0.0
H228 H 0.23053 0.06166 0.49258 0.0
H229 H 0.22271 0.09027 0.51278 0.0
C230 C 0.25061 0.14901 0.44916 0.0
C231 C 0.20396 0.14784 0.45447 0.0
C232 C 0.28877 0.15528 0.46157 0.0
C233 C 0.28108 0.16052 0.47952 0.0
C234 C 0.2358 0.16194 0.4848 0.0
H235 H 0.45535 0.14975 0.57067 0.0
H236 H 0.39938 0.16799 0.55179 0.0
C237 C 0.19744 0.15536 0.47241 0.0
C238 C 0.31945 0.1623 0.49266 0.0
H239 H 0.33056 0.09446 0.52629 0.0
C240 C 0.37295 0.20282 0.49208 0.0
C241 C 0.30392 0.12285 0.50521 0.0
C242 C 0.2476 0.07684 0.50597 0.0
C243 C 0.41134 0.20489 0.50369 0.0
C244 C 0.39587 0.16506 0.51606 0.0
C245 C 0.34225 0.12517 0.51686 0.0
C246 C 0.43482 0.16173 0.52761 0.0
C247 C 0.46807 0.24974 0.50266 0.0
C248 C 0.47391 0.153 0.5203 0.0
C249 C 0.50594 0.14252 0.53104 0.0
C250 C 0.49932 0.14028 0.54931 0.0
C251 C 0.46166 0.15134 0.55666 0.0
C252 C 0.42952 0.16165 0.54589 0.0
H253 H 0.47062 0.28441 0.49628 0.0
H254 H 0.48705 0.26264 0.51591 0.0
H255 H 0.49098 0.23605 0.49474 0.0
H256 H 0.47804 0.15186 0.50621 0.0
H257 H 0.53442 0.13406 0.52494 0.0
H258 H 0.10878 0.19963 0.78877 0.0
H259 H 0.16372 0.27548 0.80889 0.0
H260 H 0.21275 0.18115 0.83648 0.0
H261 H 0.15845 0.1054 0.81643 0.0
H262 H 0.15839 0.28331 0.84579 0.0
H263 H 0.3539 0.31478 0.8252 0.0
H264 H 0.29378 0.27498 0.81225 0.0
H265 H 0.30789 0.24779 0.83084 0.0
C266 C 0.13145 0.19508 0.79907 0.0
C267 C 0.12943 0.14649 0.80094 0.0
C268 C 0.16273 0.23845 0.81056 0.0
C269 C 0.19286 0.23414 0.82401 0.0
C270 C 0.19058 0.18562 0.82599 0.0
H271 H 0.32944 0.40529 0.92091 0.0
H272 H 0.27026 0.34815 0.89706 0.0
C273 C 0.15929 0.14226 0.81455 0.0
C274 C 0.22597 0.27989 0.83625 0.0
H275 H 0.35283 0.35814 0.85215 0.0
C276 C 0.201 0.30013 0.84707 0.0
C277 C 0.28164 0.30234 0.83769 0.0
C278 C 0.31104 0.28427 0.82576 0.0
C279 C 0.22998 0.34072 0.85984 0.0
C280 C 0.28519 0.36103 0.86196 0.0
C281 C 0.31043 0.34232 0.85061 0.0
C282 C 0.31724 0.39938 0.87644 0.0
C283 C 0.20119 0.36129 0.87098 0.0
C284 C 0.36329 0.44744 0.87283 0.0
C285 C 0.39749 0.48018 0.88647 0.0
C286 C 0.38648 0.46517 0.90399 0.0
C287 C 0.33909 0.41817 0.90759 0.0
C288 C 0.30496 0.38551 0.89396 0.0
H289 H 0.16435 0.35442 0.86428 0.0
H290 H 0.18962 0.33999 0.88342 0.0
H291 H 0.22688 0.40436 0.87425 0.0
H292 H 0.37364 0.4588 0.8594 0.0
H293 H 0.43368 0.51603 0.88321 0.0
H294 H 0.88577 0.04931 0.73831 0.0
H295 H 0.82604 0.0633 0.71976 0.0
H296 H 0.95666 0.16167 0.68668 0.0
H297 H 0.01676 0.14789 0.70509 0.0
H298 H 0.83547 0.16409 0.71026 0.0
H299 H 0.84089 0.04396 0.65298 0.0
H300 H 0.86117 0.03869 0.67481 0.0
H301 H 0.90397 0.09467 0.66211 0.0
C302 C 0.90188 0.074 0.72711 0.0
C303 C 0.95601 0.09724 0.72313 0.0
C304 C 0.8677 0.08204 0.71656 0.0
C305 C 0.88689 0.11306 0.70178 0.0
C306 C 0.941 0.13706 0.69792 0.0
H307 H 0.70632 0.15082 0.61783 0.0
H308 H 0.78021 0.1633 0.63655 0.0
C309 C 0.97528 0.12925 0.70849 0.0
C310 C 0.84996 0.11955 0.69027 0.0
H311 H 0.7898 0.08446 0.64976 0.0
C312 C 0.82559 0.14694 0.697 0.0
C313 C 0.83758 0.09747 0.67295 0.0
C314 C 0.86187 0.0667 0.66523 0.0
C315 C 0.78874 0.15252 0.68688 0.0
C316 C 0.77499 0.12893 0.66973 0.0
C317 C 0.80042 0.10266 0.66288 0.0
C318 C 0.73171 0.12756 0.65911 0.0
C319 C 0.76517 0.18388 0.69464 0.0
C320 C 0.68003 0.10393 0.66561 0.0
C321 C 0.63791 0.09712 0.65502 0.0
C322 C 0.64637 0.11312 0.63758 0.0
C323 C 0.69844 0.13824 0.63122 0.0
C324 C 0.74069 0.14525 0.64189 0.0
H325 H 0.79218 0.21365 0.70478 0.0
H326 H 0.75666 0.20468 0.6844 0.0
H327 H 0.72739 0.15649 0.70108 0.0
H328 H 0.67178 0.08872 0.67868 0.0
H329 H 0.59833 0.07736 0.66033 0.0
H330 H 0.95804 0.06078 0.03288 0.0
H331 H 0.88107 1.00072 0.01434 0.0
H332 H 0.80603 0.90344 0.05847 0.0
H333 H 0.88333 0.96286 0.07708 0.0
H334 H 0.80873 0.84654 0.02996 0.0
H335 H 0.73134 0.97469 0.00985 0.0
H336 H 0.80096 1.00315 1.00591 0.0
H337 H 0.77759 0.99251 0.02805 0.0
C338 C 0.92483 0.02712 0.03874 0.0
C339 C 0.92699 0.01657 0.05646 0.0
C340 C 0.88061 0.99299 0.02813 0.0
C341 C 0.83741 0.94793 0.03505 0.0
C342 C 0.83877 0.93814 0.05287 0.0
H343 H 0.57192 0.66969 0.9811 0.0
H344 H 0.62563 0.73725 1.00384 0.0
C345 C 0.88303 0.97218 0.06349 0.0
C346 C 0.79344 0.90841 0.02334 0.0
H347 H 0.70141 0.89392 0.99265 0.0
C348 C 0.78468 0.85666 0.02201 0.0
C349 C 0.76227 0.92175 0.01291 0.0
C350 C 0.7681 0.97592 0.01435 0.0
C351 C 0.74712 0.8185 0.01005 0.0
C352 C 0.71677 0.83216 0.99933 0.0
C353 C 0.72465 0.88355 1.00091 0.0
C354 C 0.67925 0.79442 0.98566 0.0
C355 C 0.74189 0.76454 0.00846 0.0
C356 C 0.68993 0.80527 0.96789 0.0
C357 C 0.65916 0.76693 0.95486 0.0
C358 C 0.61702 0.717 0.95937 0.0
C359 C 0.60428 0.70757 0.97716 0.0
C360 C 0.6351 0.74601 0.99019 0.0
H361 H 0.77561 0.76408 0.01498 0.0
H362 H 0.70471 0.73514 0.01476 0.0
H363 H 0.73975 0.75165 0.99447 0.0
H364 H 0.72366 0.84251 0.96411 0.0
H365 H 0.66992 0.77567 0.94129 0.0
H366 H 0.05747 1.00116 0.38366 0.0
H367 H 0.07253 0.94377 0.36336 0.0
H368 H 0.10568 0.87497 0.40703 0.0
H369 H 0.09027 0.93176 0.42745 0.0
H370 H 0.1663 0.93778 0.36002 0.0
H371 H 0.99269 0.74521 0.37789 0.0
H372 H 0.99825 0.80808 0.38376 0.0
H373 H 0.03487 0.78545 0.39601 0.0
C374 C 0.06755 0.97354 0.38897 0.0
C375 C 0.07239 0.97087 0.4072 0.0
C376 C 0.07632 0.94091 0.37734 0.0
C377 C 0.08969 0.90476 0.38369 0.0
C378 C 0.09455 0.90198 0.40186 0.0
H379 H 0.13822 0.66465 0.33048 0.0
H380 H 0.13883 0.72806 0.35239 0.0
C381 C 0.08589 0.93463 0.41351 0.0
C382 C 0.09949 0.87067 0.37129 0.0
H383 H 0.05335 0.74167 0.35823 0.0
C384 C 0.14164 0.89489 0.35961 0.0
C385 C 0.06741 0.81475 0.37086 0.0
C386 C 0.02047 0.78667 0.38268 0.0
C387 C 0.15272 0.86464 0.34753 0.0
C388 C 0.1202 0.80873 0.34694 0.0
C389 C 0.07845 0.78452 0.35877 0.0
C390 C 0.12668 0.77452 0.33355 0.0
C391 C 0.1995 0.89279 0.33566 0.0
C392 C 0.12054 0.7801 0.31566 0.0
C393 C 0.12037 0.7441 0.30311 0.0
C394 C 0.12586 0.70143 0.3082 0.0
C395 C 0.1341 0.69714 0.32609 0.0
C396 C 0.13424 0.73322 0.33864 0.0
H397 H 0.22923 0.93266 0.34125 0.0
H398 H 0.21935 0.86943 0.33331 0.0
H399 H 0.18539 0.89821 0.32284 0.0
H400 H 0.11359 0.81098 0.31143 0.0
H401 H 0.11374 0.74855 0.28947 0.0
H402 H 0.07569 0.97011 0.71772 0.0
H403 H 0.12311 0.95259 0.69447 0.0
H404 H 0.26858 0.09474 0.71071 0.0
H405 H 0.22143 0.11307 0.73376 0.0
H406 H 0.24912 0.08824 0.67548 0.0
H407 H 0.22759 0.89959 0.6971 0.0
H408 H 0.16603 0.89884 0.69503 0.0
H409 H 0.21465 0.94215 0.71131 0.0
C410 C 0.1179 0.99739 0.71646 0.0
C411 C 0.14476 0.04305 0.7276 0.0
C412 C 0.14501 0.98711 0.70322 0.0
C413 C 0.19954 0.02198 0.70099 0.0
C414 C 0.22653 0.06718 0.71224 0.0
H415 H 0.43145 0.99684 0.63805 0.0
H416 H 0.37222 0.99314 0.66129 0.0
C417 C 0.19948 0.07759 0.72541 0.0
C418 C 0.22804 0.01338 0.68632 0.0
H419 H 0.26388 0.92722 0.66893 0.0
C420 C 0.25231 0.05301 0.67405 0.0
C421 C 0.23252 0.96758 0.68456 0.0
C422 C 0.20926 0.92477 0.69777 0.0
C423 C 0.28097 0.04823 0.66007 0.0
C424 C 0.2845 1.00193 0.65806 0.0
C425 C 0.26044 0.9623 0.67036 0.0
C426 C 0.31553 0.99568 0.64376 0.0
C427 C 0.30847 0.09355 0.64786 0.0
C428 C 0.302 0.99583 0.62612 0.0
C429 C 0.33589 0.9982 0.61279 0.0
C430 C 0.38374 1.00005 0.61685 0.0
C431 C 0.39507 0.99576 0.63444 0.0
C432 C 0.36126 0.99364 0.64777 0.0
H433 H 0.31237 0.13078 0.6536 0.0
H434 H 0.34871 0.10105 0.64465 0.0
H435 H 0.28491 0.08331 0.63545 0.0
H436 H 0.26626 0.99626 0.62272 0.0
H437 H 0.32567 1.00093 0.59938 0.0
H438 H 0.25511 0.22758 0.09087 0.0
H439 H 0.32142 0.27944 0.06923 0.0
H440 H 0.22161 0.16843 0.02807 0.0
H441 H 0.15442 0.11691 0.04957 0.0
H442 H 0.37836 0.25577 0.04537 0.0
H443 H 0.24476 0.30829 0.01112 0.0
H444 H 0.22932 0.27806 0.03213 0.0
H445 H 0.21877 0.23832 0.01237 0.0
C446 C 0.24731 0.21396 0.07723 0.0
C447 C 0.19918 0.16837 0.07193 0.0
C448 C 0.28534 0.24365 0.06488 0.0
C449 C 0.27606 0.22838 0.04699 0.0
C450 C 0.22908 0.18164 0.04175 0.0
H451 H 0.45201 0.39605 0.95534 0.0
H452 H 0.39437 0.32542 0.97475 0.0
C453 C 0.19084 0.15208 0.05408 0.0
C454 C 0.31486 0.26244 0.03386 0.0
H455 H 0.32886 0.33782 0.9989 0.0
C456 C 0.36753 0.27358 0.03517 0.0
C457 C 0.30069 0.28575 0.02057 0.0
C458 C 0.24548 0.2775 0.019 0.0
C459 C 0.40639 0.30745 0.02355 0.0
C460 C 0.39229 0.33117 0.01042 0.0
C461 C 0.33947 0.31926 0.00891 0.0
C462 C 0.43203 0.37099 0.99873 0.0
C463 C 0.46215 0.31746 0.02538 0.0
C464 C 0.47292 0.41976 1.00578 0.0
C465 C 0.5059 0.46026 0.99474 0.0
C466 C 0.49847 0.45286 0.97642 0.0
C467 C 0.45899 0.40309 0.96938 0.0
C468 C 0.42589 0.36267 0.98045 0.0
H469 H 0.46309 0.28563 0.03256 0.0
H470 H 0.48013 0.32045 0.01234 0.0
H471 H 0.48702 0.35552 0.0329 0.0
H472 H 0.47779 0.42741 0.01985 0.0
H473 H 0.53579 0.4981 1.0006 0.0
H474 H 0.0543 0.16108 0.36353 0.0
H475 H 0.03915 0.22223 0.34699 0.0
H476 H 0.02077 0.29154 0.39533 0.0
H477 H 0.03664 0.23098 0.41203 0.0
H478 H 0.94916 0.23229 0.34704 0.0
H479 H 0.12883 0.42124 0.36923 0.0
H480 H 0.12196 0.35734 0.37241 0.0
H481 H 0.08855 0.3809 0.38655 0.0
C482 C 0.0475 0.18961 0.37068 0.0
C483 C 0.04688 0.19121 0.38913 0.0
C484 C 0.0387 0.22444 0.36119 0.0
C485 C 0.02933 0.26178 0.36992 0.0
C486 C 0.02886 0.26369 0.38832 0.0
H487 H 0.98277 0.50997 0.32859 0.0
H488 H 0.98263 0.44486 0.34784 0.0
C489 C 0.03776 0.22889 0.39785 0.0
C490 C 0.01869 0.29761 0.35966 0.0
H491 H 0.06674 0.42781 0.35133 0.0
C492 C 0.97481 0.27506 0.34799 0.0
C493 C 0.05203 0.3534 0.36099 0.0
C494 C 0.10076 0.37981 0.37285 0.0
C495 C 0.96344 0.30677 0.33757 0.0
C496 C 0.99736 0.36248 0.33865 0.0
C497 C 0.04064 0.38509 0.35057 0.0
C498 C 0.99073 0.39801 0.32685 0.0
C499 C 0.91502 0.28031 0.32559 0.0
C500 C 0.99444 0.39282 0.30863 0.0
C501 C 0.99433 0.42979 0.29759 0.0
C502 C 0.99097 0.47308 0.30456 0.0
C503 C 0.98519 0.47705 0.32276 0.0
C504 C 0.98533 0.43999 0.33381 0.0
H505 H 0.88504 0.24059 0.33014 0.0
H506 H 0.8962 0.30488 0.32469 0.0
H507 H 0.927 0.27481 0.31224 0.0
H508 H 0.99971 0.36141 0.30298 0.0
H509 H 0.99913 0.4256 0.28366 0.0
loop_
_geom_bond_atom_site_label_1
_geom_bond_atom_site_label_2
_geom_bond_distance
_geom_bond_site_symmetry_2
_ccdc_geom_bond_type
C0 O1 1.158 1_565 S
C0 O7 1.184 1_565 S
O1 C0 1.158 1_545 S
O2 Zn3 1.899 . S
O2 C10 1.284 . S
Zn3 O2 1.899 . S
Zn3 O4 2.032 1_455 S
Zn3 O7 2.086 . S
Zn3 O12 1.977 . S
O4 Zn3 2.032 1_655 S
O4 C8 1.278 . S
C5 O6 1.203 . S
C5 O12 1.267 . S
O6 C5 1.203 . S
O7 C0 1.184 1_545 S
O7 Zn3 2.086 . S
C8 O4 1.278 . S
C8 O9 1.211 . S
O9 C8 1.211 . S
C10 O2 1.284 . S
C10 O11 1.273 1_455 S
O11 C10 1.273 1_655 S
O12 Zn3 1.977 . S
O12 C5 1.267 . S
C13 O14 1.160 . S
C13 O20 1.185 . S
O14 C13 1.160 . S
O15 Zn16 1.899 . S
O15 C23 1.284 . S
Zn16 O15 1.899 . S
Zn16 O17 2.032 . S
Zn16 O20 2.086 . S
Zn16 O25 1.977 . S
O17 Zn16 2.032 . S
O17 C21 1.278 1_455 S
C18 O19 1.203 . S
C18 O25 1.267 . S
O19 C18 1.203 . S
O20 C13 1.185 . S
O20 Zn16 2.086 . S
C21 O17 1.278 1_655 S
C21 O22 1.211 1_655 S
O22 C21 1.211 1_455 S
C23 O15 1.284 . S
C23 O24 1.273 1_545 S
O24 C23 1.273 1_565 S
O25 Zn16 1.977 . S
O25 C18 1.267 . S
C26 O27 1.160 . S
C26 O33 1.185 1_545 S
O27 C26 1.160 . S
O28 Zn29 1.899 1_655 S
O28 C36 1.284 . S
Zn29 O28 1.899 1_455 S
Zn29 O30 2.032 . S
Zn29 O33 2.086 1_545 S
Zn29 O38 1.979 1_545 S
O30 Zn29 2.032 . S
O30 C34 1.278 . S
C31 O32 1.203 . S
C31 O38 1.246 1_655 S
O32 C31 1.203 . S
O33 C26 1.185 1_565 S
O33 Zn29 2.086 1_565 S
C34 O30 1.278 . S
C34 O35 1.211 . S
O35 C34 1.211 . S
C36 O28 1.284 . S
C36 O37 1.273 . S
O37 C36 1.273 . S
O38 Zn29 1.979 1_565 S
O38 C31 1.246 1_455 S
Mg39 O46 2.141 . S
Mg39 O47 2.048 . S
Mg39 O48 2.048 . S
Mg39 O51 2.141 . S
C40 O41 1.313 1_455 S
C40 O47 1.195 . S
O41 C40 1.313 1_655 S
C42 O43 1.245 1_455 S
C42 O51 1.289 . S
O43 C42 1.245 1_655 S
C44 O45 1.245 1_455 S
C44 O46 1.289 . S
O45 C44 1.245 1_655 S
O46 Mg39 2.141 . S
O46 C44 1.289 . S
O47 Mg39 2.048 . S
O47 C40 1.195 . S
O48 Mg39 2.048 . S
O48 C49 1.195 . S
C49 O48 1.195 . S
C49 O50 1.313 1_455 S
O50 C49 1.313 1_655 S
O51 Mg39 2.141 . S
O51 C42 1.289 . S
Mg52 O59 2.141 . S
Mg52 O60 2.048 . S
Mg52 O61 2.048 . S
Mg52 O64 2.141 . S
C53 O54 1.313 . S
C53 O60 1.195 . S
O54 C53 1.313 . S
C55 O56 1.245 1_545 S
C55 O64 1.289 . S
O56 C55 1.245 1_565 S
C57 O58 1.245 1_545 S
C57 O59 1.289 . S
O58 C57 1.245 1_565 S
O59 Mg52 2.141 . S
O59 C57 1.289 . S
O60 Mg52 2.048 . S
O60 C53 1.195 . S
O61 Mg52 2.048 . S
O61 C62 1.195 . S
C62 O61 1.195 . S
C62 O63 1.313 . S
O63 C62 1.313 . S
O64 Mg52 2.141 . S
O64 C55 1.289 . S
Mg65 O72 2.141 . S
Mg65 O73 2.048 . S
Mg65 O74 2.048 . S
Mg65 O77 2.141 . S
C66 O67 1.313 . S
C66 O73 1.195 . S
O67 C66 1.313 . S
C68 O69 1.245 . S
C68 O77 1.289 . S
O69 C68 1.245 . S
C70 O71 1.245 . S
C70 O72 1.289 . S
O71 C70 1.245 . S
O72 Mg65 2.141 . S
O72 C70 1.289 . S
O73 Mg65 2.048 . S
O73 C66 1.195 . S
O74 Mg65 2.048 . S
O74 C75 1.195 . S
C75 O74 1.195 . S
C75 O76 1.313 . S
O76 C75 1.313 . S
O77 Mg65 2.141 . S
O77 C68 1.289 . S
H78 C86 0.929 . S
H79 C88 0.930 . S
H80 C90 0.930 . S
H81 C93 0.929 . S
H82 C96 0.930 . S
H83 C98 0.960 . S
H84 C98 0.960 . S
H85 C98 0.960 . S
C86 H78 0.929 . S
C86 C87 1.377 . S
C86 C88 1.384 . S
C87 C86 1.377 . S
C87 C93 1.390 1_455 S
C88 H79 0.930 . S
C88 C86 1.384 . S
C88 C89 1.372 . S
C89 C88 1.372 . S
C89 C90 1.400 1_455 S
C89 C94 1.490 . S
C90 H80 0.930 . S
C90 C89 1.400 1_655 S
C90 C93 1.386 . S
H91 C107 0.930 1_655 S
H92 C108 0.931 . S
C93 H81 0.929 . S
C93 C87 1.390 1_655 S
C93 C90 1.386 . S
C94 C89 1.490 . S
C94 C96 1.395 . S
C94 C97 1.403 1_455 S
H95 C101 0.930 . S
C96 H82 0.930 . S
C96 C94 1.395 . S
C96 C99 1.403 . S
C97 C94 1.403 1_655 S
C97 C98 1.524 . S
C97 C101 1.400 . S
C98 H83 0.960 . S
C98 H84 0.960 . S
C98 H85 0.960 . S
C98 C97 1.524 . S
C99 C96 1.403 . S
C99 C100 1.392 . S
C99 C103 1.495 . S
C100 C99 1.392 . S
C100 C101 1.385 1_455 S
C100 C102 1.478 . S
C101 H95 0.930 . S
C101 C97 1.400 . S
C101 C100 1.385 1_655 S
C102 C100 1.478 . S
C102 C104 1.381 . S
C102 C108 1.383 . S
C103 C99 1.495 . S
C103 H109 0.959 . S
C103 H110 0.961 . S
C103 H111 0.960 . S
C104 C102 1.381 . S
C104 C105 1.394 . S
C104 H112 0.930 . S
C105 C104 1.394 . S
C105 C106 1.383 . S
C105 H113 0.929 . S
C106 C105 1.383 . S
C106 C107 1.377 . S
C107 H91 0.930 1_455 S
C107 C106 1.377 . S
C107 C108 1.379 . S
C108 H92 0.931 . S
C108 C102 1.383 . S
C108 C107 1.379 . S
H109 C103 0.959 . S
H110 C103 0.961 . S
H111 C103 0.960 . S
H112 C104 0.930 . S
H113 C105 0.929 . S
H114 C122 0.929 . S
H115 C124 0.930 . S
H116 C126 0.930 1_565 S
H117 C129 0.929 1_565 S
H118 C132 0.930 . S
H119 C134 0.960 . S
H120 C134 0.960 . S
H121 C134 0.960 . S
C122 H114 0.929 . S
C122 C123 1.377 . S
C122 C124 1.384 . S
C123 C122 1.377 . S
C123 C129 1.390 . S
C124 H115 0.930 . S
C124 C122 1.384 . S
C124 C125 1.372 . S
C125 C124 1.372 . S
C125 C126 1.400 . S
C125 C130 1.490 . S
C126 H116 0.930 1_545 S
C126 C125 1.400 . S
C126 C129 1.386 . S
H127 C143 0.930 1_565 S
H128 C144 0.931 1_565 S
C129 H117 0.929 1_545 S
C129 C123 1.390 . S
C129 C126 1.386 . S
C130 C125 1.490 . S
C130 C132 1.395 . S
C130 C133 1.403 . S
H131 C137 0.930 . S
C132 H118 0.930 . S
C132 C130 1.395 . S
C132 C135 1.403 . S
C133 C130 1.403 . S
C133 C134 1.524 . S
C133 C137 1.400 . S
C134 H119 0.960 . S
C134 H120 0.960 . S
C134 H121 0.960 . S
C134 C133 1.524 . S
C135 C132 1.403 . S
C135 C136 1.392 . S
C135 C139 1.495 . S
C136 C135 1.392 . S
C136 C137 1.385 . S
C136 C138 1.478 . S
C137 H131 0.930 . S
C137 C133 1.400 . S
C137 C136 1.385 . S
C138 C136 1.478 . S
C138 C140 1.381 . S
C138 C144 1.383 . S
C139 C135 1.495 . S
C139 H145 0.959 . S
C139 H146 0.961 . S
C139 H147 0.960 . S
C140 C138 1.381 . S
C140 C141 1.394 . S
C140 H148 0.930 . S
C141 C140 1.394 . S
C141 C142 1.383 . S
C141 H149 0.929 . S
C142 C141 1.383 . S
C142 C143 1.377 . S
C143 H127 0.930 1_545 S
C143 C142 1.377 . S
C143 C144 1.379 . S
C144 H128 0.931 1_545 S
C144 C138 1.383 . S
C144 C143 1.379 . S
H145 C139 0.959 . S
H146 C139 0.961 . S
H147 C139 0.960 . S
H148 C140 0.930 . S
H149 C141 0.929 . S
H150 C158 0.929 . S
H151 C160 0.930 . S
H152 C162 0.930 . S
H153 C165 0.929 . S
H154 C168 0.930 . S
H155 C170 0.960 . S
H156 C170 0.960 . S
H157 C170 0.960 . S
C158 H150 0.929 . S
C158 C159 1.377 . S
C158 C160 1.384 . S
C159 C158 1.377 . S
C159 C165 1.390 . S
C160 H151 0.930 . S
C160 C158 1.384 . S
C160 C161 1.372 . S
C161 C160 1.372 . S
C161 C162 1.400 . S
C161 C166 1.490 . S
C162 H152 0.930 . S
C162 C161 1.400 . S
C162 C165 1.386 . S
H163 C179 0.930 . S
H164 C180 0.931 . S
C165 H153 0.929 . S
C165 C159 1.390 . S
C165 C162 1.386 . S
C166 C161 1.490 . S
C166 C168 1.395 . S
C166 C169 1.403 . S
H167 C173 0.930 . S
C168 H154 0.930 . S
C168 C166 1.395 . S
C168 C171 1.403 . S
C169 C166 1.403 . S
C169 C170 1.524 . S
C169 C173 1.400 . S
C170 H155 0.960 . S
C170 H156 0.960 . S
C170 H157 0.960 . S
C170 C169 1.524 . S
C171 C168 1.403 . S
C171 C172 1.392 . S
C171 C175 1.495 . S
C172 C171 1.392 . S
C172 C173 1.385 . S
C172 C174 1.478 . S
C173 H167 0.930 . S
C173 C169 1.400 . S
C173 C172 1.385 . S
C174 C172 1.478 . S
C174 C176 1.381 . S
C174 C180 1.383 . S
C175 C171 1.495 . S
C175 H181 0.959 . S
C175 H182 0.961 . S
C175 H183 0.960 . S
C176 C174 1.381 . S
C176 C177 1.394 . S
C176 H184 0.930 . S
C177 C176 1.394 . S
C177 C178 1.383 . S
C177 H185 0.929 . S
C178 C177 1.383 . S
C178 C179 1.377 . S
C179 H163 0.930 . S
C179 C178 1.377 . S
C179 C180 1.379 . S
C180 H164 0.931 . S
C180 C174 1.383 . S
C180 C179 1.379 . S
H181 C175 0.959 . S
H182 C175 0.961 . S
H183 C175 0.960 . S
H184 C176 0.930 . S
H185 C177 0.929 . S
H186 C194 0.929 . S
H187 C196 0.930 . S
H188 C198 0.930 . S
H189 C201 0.929 1_545 S
H190 C204 0.930 . S
H191 C206 0.960 . S
H192 C206 0.960 . S
H193 C206 0.960 1_455 S
C194 H186 0.929 . S
C194 C195 1.377 . S
C194 C196 1.384 . S
C195 C194 1.377 . S
C195 C201 1.390 . S
C196 H187 0.930 . S
C196 C194 1.384 . S
C196 C197 1.372 . S
C197 C196 1.372 . S
C197 C198 1.400 . S
C197 C202 1.490 . S
C198 H188 0.930 . S
C198 C197 1.400 . S
C198 C201 1.386 . S
H199 C215 0.930 . S
H200 C216 0.931 . S
C201 H189 0.929 1_565 S
C201 C195 1.390 . S
C201 C198 1.386 . S
C202 C197 1.490 . S
C202 C204 1.395 . S
C202 C205 1.403 . S
H203 C209 0.930 1_655 S
C204 H190 0.930 . S
C204 C202 1.395 . S
C204 C207 1.403 . S
C205 C202 1.403 . S
C205 C206 1.524 1_455 S
C205 C209 1.400 . S
C206 H191 0.960 . S
C206 H192 0.960 . S
C206 H193 0.960 1_655 S
C206 C205 1.524 1_655 S
C207 C204 1.403 . S
C207 C208 1.392 . S
C207 C211 1.495 . S
C208 C207 1.392 . S
C208 C209 1.385 . S
C208 C210 1.478 . S
C209 H203 0.930 1_455 S
C209 C205 1.400 . S
C209 C208 1.385 . S
C210 C208 1.478 . S
C210 C212 1.381 . S
C210 C216 1.383 . S
C211 C207 1.495 . S
C211 H217 0.959 . S
C211 H218 0.961 . S
C211 H219 0.960 . S
C212 C210 1.381 . S
C212 C213 1.394 . S
C212 H220 0.930 . S
C213 C212 1.394 . S
C213 C214 1.383 . S
C213 H221 0.929 1_455 S
C214 C213 1.383 . S
C214 C215 1.377 . S
C215 H199 0.930 . S
C215 C214 1.377 . S
C215 C216 1.379 . S
C216 H200 0.931 . S
C216 C210 1.383 . S
C216 C215 1.379 . S
H217 C211 0.959 . S
H218 C211 0.961 . S
H219 C211 0.960 . S
H220 C212 0.930 . S
H221 C213 0.929 1_655 S
H222 C230 0.929 . S
H223 C232 0.930 . S
H224 C234 0.930 . S
H225 C237 0.929 . S
H226 C240 0.930 . S
H227 C242 0.960 . S
H228 C242 0.960 . S
H229 C242 0.960 . S
C230 H222 0.929 . S
C230 C231 1.377 . S
C230 C232 1.384 . S
C231 C230 1.377 . S
C231 C237 1.390 . S
C232 H223 0.930 . S
C232 C230 1.384 . S
C232 C233 1.372 . S
C233 C232 1.372 . S
C233 C234 1.400 . S
C233 C238 1.490 . S
C234 H224 0.930 . S
C234 C233 1.400 . S
C234 C237 1.386 . S
H235 C251 0.930 . S
H236 C252 0.931 . S
C237 H225 0.929 . S
C237 C231 1.390 . S
C237 C234 1.386 . S
C238 C233 1.490 . S
C238 C240 1.395 . S
C238 C241 1.403 . S
H239 C245 0.930 . S
C240 H226 0.930 . S
C240 C238 1.395 . S
C240 C243 1.403 . S
C241 C238 1.403 . S
C241 C242 1.524 . S
C241 C245 1.400 . S
C242 H227 0.960 . S
C242 H228 0.960 . S
C242 H229 0.960 . S
C242 C241 1.524 . S
C243 C240 1.403 . S
C243 C244 1.392 . S
C243 C247 1.495 . S
C244 C243 1.392 . S
C244 C245 1.385 . S
C244 C246 1.478 . S
C245 H239 0.930 . S
C245 C241 1.400 . S
C245 C244 1.385 . S
C246 C244 1.478 . S
C246 C248 1.381 . S
C246 C252 1.383 . S
C247 C243 1.495 . S
C247 H253 0.959 . S
C247 H254 0.961 . S
C247 H255 0.960 . S
C248 C246 1.381 . S
C248 C249 1.394 . S
C248 H256 0.930 . S
C249 C248 1.394 . S
C249 C250 1.383 . S
C249 H257 0.929 . S
C250 C249 1.383 . S
C250 C251 1.377 . S
C251 H235 0.930 . S
C251 C250 1.377 . S
C251 C252 1.379 . S
C252 H236 0.931 . S
C252 C246 1.383 . S
C252 C251 1.379 . S
H253 C247 0.959 . S
H254 C247 0.961 . S
H255 C247 0.960 . S
H256 C248 0.930 . S
H257 C249 0.929 . S
H258 C266 0.929 . S
H259 C268 0.930 . S
H260 C270 0.930 . S
H261 C273 0.929 . S
H262 C276 0.930 . S
H263 C278 0.960 . S
H264 C278 0.960 . S
H265 C278 0.960 . S
C266 H258 0.929 . S
C266 C267 1.377 . S
C266 C268 1.384 . S
C267 C266 1.377 . S
C267 C273 1.390 . S
C268 H259 0.930 . S
C268 C266 1.384 . S
C268 C269 1.372 . S
C269 C268 1.372 . S
C269 C270 1.400 . S
C269 C274 1.490 . S
C270 H260 0.930 . S
C270 C269 1.400 . S
C270 C273 1.386 . S
H271 C287 0.930 . S
H272 C288 0.931 . S
C273 H261 0.929 . S
C273 C267 1.390 . S
C273 C270 1.386 . S
C274 C269 1.490 . S
C274 C276 1.395 . S
C274 C277 1.403 . S
H275 C281 0.930 . S
C276 H262 0.930 . S
C276 C274 1.395 . S
C276 C279 1.403 . S
C277 C274 1.403 . S
C277 C278 1.524 . S
C277 C281 1.400 . S
C278 H263 0.960 . S
C278 H264 0.960 . S
C278 H265 0.960 . S
C278 C277 1.524 . S
C279 C276 1.403 . S
C279 C280 1.392 . S
C279 C283 1.495 . S
C280 C279 1.392 . S
C280 C281 1.385 . S
C280 C282 1.478 . S
C281 H275 0.930 . S
C281 C277 1.400 . S
C281 C280 1.385 . S
C282 C280 1.478 . S
C282 C284 1.381 . S
C282 C288 1.383 . S
C283 C279 1.495 . S
C283 H289 0.959 . S
C283 H290 0.961 . S
C283 H291 0.960 . S
C284 C282 1.381 . S
C284 C285 1.394 . S
C284 H292 0.930 . S
C285 C284 1.394 . S
C285 C286 1.383 . S
C285 H293 0.929 . S
C286 C285 1.383 . S
C286 C287 1.377 . S
C287 H271 0.930 . S
C287 C286 1.377 . S
C287 C288 1.379 . S
C288 H272 0.931 . S
C288 C282 1.383 . S
C288 C287 1.379 . S
H289 C283 0.959 . S
H290 C283 0.961 . S
H291 C283 0.960 . S
H292 C284 0.930 . S
H293 C285 0.929 . S
H294 C302 0.929 1_565 S
H295 C304 0.930 1_565 S
H296 C306 0.930 . S
H297 C309 0.929 . S
H298 C312 0.930 . S
H299 C314 0.960 . S
H300 C314 0.960 . S
H301 C314 0.960 . S
C302 H294 0.929 1_545 S
C302 C303 1.377 . S
C302 C304 1.384 . S
C303 C302 1.377 . S
C303 C309 1.390 . S
C304 H295 0.930 1_545 S
C304 C302 1.384 . S
C304 C305 1.372 . S
C305 C304 1.372 . S
C305 C306 1.400 . S
C305 C310 1.490 . S
C306 H296 0.930 . S
C306 C305 1.400 . S
C306 C309 1.386 . S
H307 C323 0.930 . S
H308 C324 0.931 . S
C309 H297 0.929 . S
C309 C303 1.390 . S
C309 C306 1.386 . S
C310 C305 1.490 . S
C310 C312 1.395 . S
C310 C313 1.403 . S
H311 C317 0.930 . S
C312 H298 0.930 . S
C312 C310 1.395 . S
C312 C315 1.403 . S
C313 C310 1.403 . S
C313 C314 1.524 . S
C313 C317 1.400 . S
C314 H299 0.960 . S
C314 H300 0.960 . S
C314 H301 0.960 . S
C314 C313 1.524 . S
C315 C312 1.403 . S
C315 C316 1.392 . S
C315 C319 1.495 . S
C316 C315 1.392 . S
C316 C317 1.385 . S
C316 C318 1.478 . S
C317 H311 0.930 . S
C317 C313 1.400 . S
C317 C316 1.385 . S
C318 C316 1.478 . S
C318 C320 1.381 . S
C318 C324 1.383 . S
C319 C315 1.495 . S
C319 H325 0.959 . S
C319 H326 0.961 . S
C319 H327 0.960 . S
C320 C318 1.381 . S
C320 C321 1.394 . S
C320 H328 0.930 1_545 S
C321 C320 1.394 . S
C321 C322 1.383 . S
C321 H329 0.929 1_545 S
C322 C321 1.383 . S
C322 C323 1.377 . S
C323 H307 0.930 . S
C323 C322 1.377 . S
C323 C324 1.379 . S
C324 H308 0.931 . S
C324 C318 1.383 . S
C324 C323 1.379 . S
H325 C319 0.959 . S
H326 C319 0.961 . S
H327 C319 0.960 . S
H328 C320 0.930 1_565 S
H329 C321 0.929 1_565 S
H330 C338 0.929 . S
H331 C340 0.930 . S
H332 C342 0.930 . S
H333 C345 0.929 . S
H334 C348 0.930 . S
H335 C350 0.960 . S
H336 C350 0.960 . S
H337 C350 0.960 . S
C338 H330 0.929 . S
C338 C339 1.377 . S
C338 C340 1.384 . S
C339 C338 1.377 . S
C339 C345 1.390 . S
C340 H331 0.930 . S
C340 C338 1.384 . S
C340 C341 1.372 . S
C341 C340 1.372 . S
C341 C342 1.400 . S
C341 C346 1.490 . S
C342 H332 0.930 . S
C342 C341 1.400 . S
C342 C345 1.386 . S
H343 C359 0.930 . S
H344 C360 0.967 . S
C345 H333 0.929 . S
C345 C339 1.390 . S
C345 C342 1.386 . S
C346 C341 1.490 . S
C346 C348 1.395 . S
C346 C349 1.403 . S
H347 C353 0.930 1_556 S
C348 H334 0.930 . S
C348 C346 1.395 . S
C348 C351 1.403 . S
C349 C346 1.403 . S
C349 C350 1.524 . S
C349 C353 1.400 . S
C350 H335 0.960 . S
C350 H336 0.960 . S
C350 H337 0.960 . S
C350 C349 1.524 . S
C351 C348 1.403 . S
C351 C352 1.392 1_554 S
C351 C355 1.495 . S
C352 C351 1.392 1_556 S
C352 C353 1.385 1_556 S
C352 C354 1.478 . S
C353 H347 0.930 1_554 S
C353 C349 1.400 . S
C353 C352 1.385 1_554 S
C354 C352 1.478 . S
C354 C356 1.381 . S
C354 C360 1.383 . S
C355 C351 1.495 . S
C355 H361 0.959 . S
C355 H362 0.961 . S
C355 H363 0.960 1_554 S
C356 C354 1.381 . S
C356 C357 1.394 . S
C356 H364 0.930 . S
C357 C356 1.394 . S
C357 C358 1.383 . S
C357 H365 0.929 . S
C358 C357 1.383 . S
C358 C359 1.377 . S
C359 H343 0.930 . S
C359 C358 1.377 . S
C359 C360 1.379 . S
C360 H344 0.967 . S
C360 C354 1.383 . S
C360 C359 1.379 . S
H361 C355 0.959 . S
H362 C355 0.961 . S
H363 C355 0.960 1_556 S
H364 C356 0.930 . S
H365 C357 0.929 . S
H366 C374 0.929 1_545 S
H367 C376 0.930 . S
H368 C378 0.930 . S
H369 C381 0.929 . S
H370 C384 0.930 . S
H371 C386 0.960 . S
H372 C386 0.960 . S
H373 C386 0.960 . S
C374 H366 0.929 1_565 S
C374 C375 1.377 . S
C374 C376 1.384 . S
C375 C374 1.377 . S
C375 C381 1.390 . S
C376 H367 0.930 . S
C376 C374 1.384 . S
C376 C377 1.372 . S
C377 C376 1.372 . S
C377 C378 1.400 . S
C377 C382 1.490 . S
C378 H368 0.930 . S
C378 C377 1.400 . S
C378 C381 1.386 . S
H379 C395 0.930 . S
H380 C396 0.931 . S
C381 H369 0.929 . S
C381 C375 1.390 . S
C381 C378 1.386 . S
C382 C377 1.490 . S
C382 C384 1.395 . S
C382 C385 1.403 1_455 S
H383 C389 0.929 1_655 S
C384 H370 0.930 . S
C384 C382 1.395 . S
C384 C387 1.403 . S
C385 C382 1.403 1_655 S
C385 C386 1.524 . S
C385 C389 1.399 1_655 S
C386 H371 0.960 . S
C386 H372 0.960 . S
C386 H373 0.960 . S
C386 C385 1.524 . S
C387 C384 1.403 . S
C387 C388 1.392 . S
C387 C391 1.495 . S
C388 C387 1.392 . S
C388 C389 1.387 . S
C388 C390 1.478 . S
C389 H383 0.929 1_455 S
C389 C385 1.399 1_455 S
C389 C388 1.387 . S
C390 C388 1.478 . S
C390 C392 1.381 . S
C390 C396 1.383 . S
C391 C387 1.495 . S
C391 H397 0.959 . S
C391 H398 0.961 . S
C391 H399 0.960 . S
C392 C390 1.381 . S
C392 C393 1.394 . S
C392 H400 0.930 . S
C393 C392 1.394 . S
C393 C394 1.383 . S
C393 H401 0.929 . S
C394 C393 1.383 . S
C394 C395 1.377 . S
C395 H379 0.930 . S
C395 C394 1.377 . S
C395 C396 1.379 . S
C396 H380 0.931 . S
C396 C390 1.383 . S
C396 C395 1.379 . S
H397 C391 0.959 . S
H398 C391 0.961 . S
H399 C391 0.960 . S
H400 C392 0.930 . S
H401 C393 0.929 . S
H402 C410 0.929 . S
H403 C412 0.930 . S
H404 C414 0.930 . S
H405 C417 0.929 . S
H406 C420 0.930 . S
H407 C422 0.960 . S
H408 C422 0.960 . S
H409 C422 0.960 1_545 S
C410 H402 0.929 . S
C410 C411 1.377 1_565 S
C410 C412 1.384 . S
C411 C410 1.377 1_545 S
C411 C417 1.390 . S
C412 H403 0.930 . S
C412 C410 1.384 . S
C412 C413 1.372 1_565 S
C413 C412 1.372 1_545 S
C413 C414 1.400 . S
C413 C418 1.490 . S
C414 H404 0.930 . S
C414 C413 1.400 . S
C414 C417 1.386 . S
H415 C431 0.930 . S
H416 C432 0.931 . S
C417 H405 0.929 . S
C417 C411 1.390 . S
C417 C414 1.386 . S
C418 C413 1.490 . S
C418 C420 1.395 . S
C418 C421 1.403 . S
H419 C425 0.930 . S
C420 H406 0.930 . S
C420 C418 1.395 . S
C420 C423 1.403 . S
C421 C418 1.403 . S
C421 C422 1.524 1_545 S
C421 C425 1.400 . S
C422 H407 0.960 . S
C422 H408 0.960 . S
C422 H409 0.960 1_565 S
C422 C421 1.524 1_565 S
C423 C420 1.403 . S
C423 C424 1.392 . S
C423 C427 1.495 . S
C424 C423 1.392 . S
C424 C425 1.385 . S
C424 C426 1.478 . S
C425 H419 0.930 . S
C425 C421 1.400 . S
C425 C424 1.385 . S
C426 C424 1.478 . S
C426 C428 1.381 . S
C426 C432 1.383 . S
C427 C423 1.495 . S
C427 H433 0.959 . S
C427 H434 0.961 . S
C427 H435 0.960 . S
C428 C426 1.381 . S
C428 C429 1.394 . S
C428 H436 0.930 1_545 S
C429 C428 1.394 . S
C429 C430 1.383 . S
C429 H437 0.929 1_545 S
C430 C429 1.383 . S
C430 C431 1.377 . S
C431 H415 0.930 . S
C431 C430 1.377 . S
C431 C432 1.379 . S
C432 H416 0.931 . S
C432 C426 1.383 . S
C432 C431 1.379 . S
H433 C427 0.959 . S
H434 C427 0.961 . S
H435 C427 0.960 . S
H436 C428 0.930 1_565 S
H437 C429 0.929 1_565 S
H438 C446 0.929 . S
H439 C448 0.930 . S
H440 C450 0.930 . S
H441 C453 0.929 . S
H442 C456 0.930 . S
H443 C458 0.960 . S
H444 C458 0.960 . S
H445 C458 0.960 . S
C446 H438 0.929 . S
C446 C447 1.377 . S
C446 C448 1.384 . S
C447 C446 1.377 . S
C447 C453 1.390 . S
C448 H439 0.930 . S
C448 C446 1.384 . S
C448 C449 1.372 . S
C449 C448 1.372 . S
C449 C450 1.400 . S
C449 C454 1.490 . S
C450 H440 0.930 . S
C450 C449 1.400 . S
C450 C453 1.386 . S
H451 C467 0.930 . S
H452 C468 0.931 . S
C453 H441 0.929 . S
C453 C447 1.390 . S
C453 C450 1.386 . S
C454 C449 1.490 . S
C454 C456 1.395 . S
C454 C457 1.403 . S
H455 C461 0.930 . S
C456 H442 0.930 . S
C456 C454 1.395 . S
C456 C459 1.403 . S
C457 C454 1.403 . S
C457 C458 1.524 . S
C457 C461 1.400 1_554 S
C458 H443 0.960 . S
C458 H444 0.960 . S
C458 H445 0.960 . S
C458 C457 1.524 . S
C459 C456 1.403 . S
C459 C460 1.392 1_554 S
C459 C463 1.495 . S
C460 C459 1.392 1_556 S
C460 C461 1.385 . S
C460 C462 1.478 . S
C461 H455 0.930 . S
C461 C457 1.400 1_556 S
C461 C460 1.385 . S
C462 C460 1.478 . S
C462 C464 1.381 . S
C462 C468 1.383 . S
C463 C459 1.495 . S
C463 H469 0.959 . S
C463 H470 0.961 1_554 S
C463 H471 0.960 . S
C464 C462 1.381 . S
C464 C465 1.394 . S
C464 H472 0.930 1_556 S
C465 C464 1.394 . S
C465 C466 1.383 . S
C465 H473 0.929 . S
C466 C465 1.383 . S
C466 C467 1.377 . S
C467 H451 0.930 . S
C467 C466 1.377 . S
C467 C468 1.379 . S
C468 H452 0.931 . S
C468 C462 1.383 . S
C468 C467 1.379 . S
H469 C463 0.959 . S
H470 C463 0.961 1_556 S
H471 C463 0.960 . S
H472 C464 0.930 1_554 S
H473 C465 0.929 . S
H474 C482 0.929 . S
H475 C484 0.930 . S
H476 C486 0.930 . S
H477 C489 0.929 . S
H478 C492 0.930 . S
H479 C494 0.960 . S
H480 C494 0.960 . S
H481 C494 0.960 . S
C482 H474 0.929 . S
C482 C483 1.377 . S
C482 C484 1.384 . S
C483 C482 1.377 . S
C483 C489 1.390 . S
C484 H475 0.930 . S
C484 C482 1.384 . S
C484 C485 1.372 . S
C485 C484 1.372 . S
C485 C486 1.400 . S
C485 C490 1.490 . S
C486 H476 0.930 . S
C486 C485 1.400 . S
C486 C489 1.386 . S
H487 C503 0.930 1_655 S
H488 C504 0.931 . S
C489 H477 0.929 . S
C489 C483 1.390 . S
C489 C486 1.386 . S
C490 C485 1.490 . S
C490 C492 1.395 . S
C490 C493 1.403 . S
H491 C497 0.930 . S
C492 H478 0.930 . S
C492 C490 1.395 . S
C492 C495 1.403 . S
C493 C490 1.403 . S
C493 C494 1.524 . S
C493 C497 1.400 . S
C494 H479 0.960 . S
C494 H480 0.960 . S
C494 H481 0.960 . S
C494 C493 1.524 . S
C495 C492 1.403 . S
C495 C496 1.392 . S
C495 C499 1.495 1_455 S
C496 C495 1.392 . S
C496 C497 1.385 . S
C496 C498 1.478 . S
C497 H491 0.930 . S
C497 C493 1.400 . S
C497 C496 1.385 . S
C498 C496 1.478 . S
C498 C500 1.381 . S
C498 C504 1.383 . S
C499 C495 1.495 1_655 S
C499 H505 0.959 . S
C499 H506 0.961 . S
C499 H507 0.960 1_655 S
C500 C498 1.381 . S
C500 C501 1.394 . S
C500 H508 0.930 . S
C501 C500 1.394 . S
C501 C502 1.383 . S
C501 H509 0.929 . S
C502 C501 1.383 . S
C502 C503 1.377 . S
C503 H487 0.930 1_455 S
C503 C502 1.377 . S
C503 C504 1.379 . S
C504 H488 0.931 . S
C504 C498 1.383 . S
C504 C503 1.379 . S
H505 C499 0.959 . S
H506 C499 0.961 . S
H507 C499 0.960 1_455 S
H508 C500 0.930 . S
H509 C501 0.929 . S
C106 C44 1.320 . S
C87 C10 1.318 . S
C123 C21 1.415 . S
C142 C62 1.451 . S
C159 C31 1.357 . S
C178 C75 1.388 . S
C195 C0 1.271 . S
C214 C42 1.321 . S
C250 C53 1.405 . S
C231 C18 1.337 . S
C267 C34 1.378 . S
C286 C66 1.413 . S
C322 C55 1.309 . S
C303 C36 1.318 . S
C339 C8 1.281 1_565 S
C358 C68 1.296 . S
C394 C49 1.407 . S
C375 C23 1.405 1_565 S
C430 C57 1.246 . S
C411 C26 1.207 . S
C466 C70 1.301 . S
C447 C5 1.279 . S
C483 C13 1.344 . S
C502 C40 1.396 . S
