# Generated by pormake.
# Topology gar, (4,6)-cn, num edge types: 1
# Building blocks:
#     Node 0, Type 0, BuildingBlock: GALJAG_clean_sbu_0, # of connection points: 4
#     Node 1, Type 0, BuildingBlock: GALJAG_clean_sbu_0, # of connection points: 4
#     Node 2, Type 0, BuildingBlock: GALJAG_clean_sbu_0, # of connection points: 4
#     Node 3, Type 0, BuildingBlock: GALJAG_clean_sbu_0, # of connection points: 4
#     Node 4, Type 0, BuildingBlock: GALJAG_clean_sbu_0, # of connection points: 4
#     Node 5, Type 0, BuildingBlock: GALJAG_clean_sbu_0, # of connection points: 4
#     Node 6, Type 0, BuildingBlock: GALJAG_clean_sbu_0, # of connection points: 4
#     Node 7, Type 0, BuildingBlock: GALJAG_clean_sbu_0, # of connection points: 4
#     Node 8, Type 0, BuildingBlock: GALJAG_clean_sbu_0, # of connection points: 4
#     Node 9, Type 0, BuildingBlock: GALJAG_clean_sbu_0, # of connection points: 4
#     Node 10, Type 0, BuildingBlock: GALJAG_clean_sbu_0, # of connection points: 4
#     Node 11, Type 0, BuildingBlock: GALJAG_clean_sbu_0, # of connection points: 4
#     Node 12, Type 0, BuildingBlock: GALJAG_clean_sbu_0, # of connection points: 4
#     Node 13, Type 0, BuildingBlock: GALJAG_clean_sbu_0, # of connection points: 4
#     Node 14, Type 0, BuildingBlock: GALJAG_clean_sbu_0, # of connection points: 4
#     Node 15, Type 0, BuildingBlock: GALJAG_clean_sbu_0, # of connection points: 4
#     Node 16, Type 0, BuildingBlock: GALJAG_clean_sbu_0, # of connection points: 4
#     Node 17, Type 0, BuildingBlock: GALJAG_clean_sbu_0, # of connection points: 4
#     Node 18, Type 0, BuildingBlock: GALJAG_clean_sbu_0, # of connection points: 4
#     Node 19, Type 0, BuildingBlock: GALJAG_clean_sbu_0, # of connection points: 4
#     Node 20, Type 0, BuildingBlock: GALJAG_clean_sbu_0, # of connection points: 4
#     Node 21, Type 0, BuildingBlock: GALJAG_clean_sbu_0, # of connection points: 4
#     Node 22, Type 0, BuildingBlock: GALJAG_clean_sbu_0, # of connection points: 4
#     Node 23, Type 0, BuildingBlock: GALJAG_clean_sbu_0, # of connection points: 4
#     Node 24, Type 1, BuildingBlock: KUMBUR_clean_sbu_1, # of connection points: 6
#     Node 25, Type 1, BuildingBlock: KUMBUR_clean_sbu_1, # of connection points: 6
#     Node 26, Type 1, BuildingBlock: KUMBUR_clean_sbu_1, # of connection points: 6
#     Node 27, Type 1, BuildingBlock: KUMBUR_clean_sbu_1, # of connection points: 6
#     Node 28, Type 1, BuildingBlock: KUMBUR_clean_sbu_1, # of connection points: 6
#     Node 29, Type 1, BuildingBlock: KUMBUR_clean_sbu_1, # of connection points: 6
#     Node 30, Type 1, BuildingBlock: KUMBUR_clean_sbu_1, # of connection points: 6
#     Node 31, Type 1, BuildingBlock: KUMBUR_clean_sbu_1, # of connection points: 6
#     Node 32, Type 1, BuildingBlock: KUMBUR_clean_sbu_1, # of connection points: 6
#     Node 33, Type 1, BuildingBlock: KUMBUR_clean_sbu_1, # of connection points: 6
#     Node 34, Type 1, BuildingBlock: KUMBUR_clean_sbu_1, # of connection points: 6
#     Node 35, Type 1, BuildingBlock: KUMBUR_clean_sbu_1, # of connection points: 6
#     Node 36, Type 1, BuildingBlock: KUMBUR_clean_sbu_1, # of connection points: 6
#     Node 37, Type 1, BuildingBlock: KUMBUR_clean_sbu_1, # of connection points: 6
#     Node 38, Type 1, BuildingBlock: KUMBUR_clean_sbu_1, # of connection points: 6
#     Node 39, Type 1, BuildingBlock: KUMBUR_clean_sbu_1, # of connection points: 6
#     Edge 40, Type (0, 1), BuildingBlock: ZUJKAS_clean_linker_0, # of connection points: 2
#     Edge 41, Type (0, 1), BuildingBlock: ZUJKAS_clean_linker_0, # of connection points: 2
#     Edge 42, Type (0, 1), BuildingBlock: ZUJKAS_clean_linker_0, # of connection points: 2
#     Edge 43, Type (0, 1), BuildingBlock: ZUJKAS_clean_linker_0, # of connection points: 2
#     Edge 44, Type (0, 1), BuildingBlock: ZUJKAS_clean_linker_0, # of connection points: 2
#     Edge 45, Type (0, 1), BuildingBlock: ZUJKAS_clean_linker_0, # of connection points: 2
#     Edge 46, Type (0, 1), BuildingBlock: ZUJKAS_clean_linker_0, # of connection points: 2
#     Edge 47, Type (0, 1), BuildingBlock: ZUJKAS_clean_linker_0, # of connection points: 2
#     Edge 48, Type (0, 1), BuildingBlock: ZUJKAS_clean_linker_0, # of connection points: 2
#     Edge 49, Type (0, 1), BuildingBlock: ZUJKAS_clean_linker_0, # of connection points: 2
#     Edge 50, Type (0, 1), BuildingBlock: ZUJKAS_clean_linker_0, # of connection points: 2
#     Edge 51, Type (0, 1), BuildingBlock: ZUJKAS_clean_linker_0, # of connection points: 2
#     Edge 52, Type (0, 1), BuildingBlock: ZUJKAS_clean_linker_0, # of connection points: 2
#     Edge 53, Type (0, 1), BuildingBlock: ZUJKAS_clean_linker_0, # of connection points: 2
#     Edge 54, Type (0, 1), BuildingBlock: ZUJKAS_clean_linker_0, # of connection points: 2
#     Edge 55, Type (0, 1), BuildingBlock: ZUJKAS_clean_linker_0, # of connection points: 2
#     Edge 56, Type (0, 1), BuildingBlock: ZUJKAS_clean_linker_0, # of connection points: 2
#     Edge 57, Type (0, 1), BuildingBlock: ZUJKAS_clean_linker_0, # of connection points: 2
#     Edge 58, Type (0, 1), BuildingBlock: ZUJKAS_clean_linker_0, # of connection points: 2
#     Edge 59, Type (0, 1), BuildingBlock: ZUJKAS_clean_linker_0, # of connection points: 2
#     Edge 60, Type (0, 1), BuildingBlock: ZUJKAS_clean_linker_0, # of connection points: 2
#     Edge 61, Type (0, 1), BuildingBlock: ZUJKAS_clean_linker_0, # of connection points: 2
#     Edge 62, Type (0, 1), BuildingBlock: ZUJKAS_clean_linker_0, # of connection points: 2
#     Edge 63, Type (0, 1), BuildingBlock: ZUJKAS_clean_linker_0, # of connection points: 2
#     Edge 64, Type (0, 1), BuildingBlock: ZUJKAS_clean_linker_0, # of connection points: 2
#     Edge 65, Type (0, 1), BuildingBlock: ZUJKAS_clean_linker_0, # of connection points: 2
#     Edge 66, Type (0, 1), BuildingBlock: ZUJKAS_clean_linker_0, # of connection points: 2
#     Edge 67, Type (0, 1), BuildingBlock: ZUJKAS_clean_linker_0, # of connection points: 2
#     Edge 68, Type (0, 1), BuildingBlock: ZUJKAS_clean_linker_0, # of connection points: 2
#     Edge 69, Type (0, 1), BuildingBlock: ZUJKAS_clean_linker_0, # of connection points: 2
#     Edge 70, Type (0, 1), BuildingBlock: ZUJKAS_clean_linker_0, # of connection points: 2
#     Edge 71, Type (0, 1), BuildingBlock: ZUJKAS_clean_linker_0, # of connection points: 2
#     Edge 72, Type (0, 1), BuildingBlock: ZUJKAS_clean_linker_0, # of connection points: 2
#     Edge 73, Type (0, 1), BuildingBlock: ZUJKAS_clean_linker_0, # of connection points: 2
#     Edge 74, Type (0, 1), BuildingBlock: ZUJKAS_clean_linker_0, # of connection points: 2
#     Edge 75, Type (0, 1), BuildingBlock: ZUJKAS_clean_linker_0, # of connection points: 2
#     Edge 76, Type (0, 1), BuildingBlock: ZUJKAS_clean_linker_0, # of connection points: 2
#     Edge 77, Type (0, 1), BuildingBlock: ZUJKAS_clean_linker_0, # of connection points: 2
#     Edge 78, Type (0, 1), BuildingBlock: ZUJKAS_clean_linker_0, # of connection points: 2
#     Edge 79, Type (0, 1), BuildingBlock: ZUJKAS_clean_linker_0, # of connection points: 2
#     Edge 80, Type (0, 1), BuildingBlock: ZUJKAS_clean_linker_0, # of connection points: 2
#     Edge 81, Type (0, 1), BuildingBlock: ZUJKAS_clean_linker_0, # of connection points: 2
#     Edge 82, Type (0, 1), BuildingBlock: ZUJKAS_clean_linker_0, # of connection points: 2
#     Edge 83, Type (0, 1), BuildingBlock: ZUJKAS_clean_linker_0, # of connection points: 2
#     Edge 84, Type (0, 1), BuildingBlock: ZUJKAS_clean_linker_0, # of connection points: 2
#     Edge 85, Type (0, 1), BuildingBlock: ZUJKAS_clean_linker_0, # of connection points: 2
#     Edge 86, Type (0, 1), BuildingBlock: ZUJKAS_clean_linker_0, # of connection points: 2
#     Edge 87, Type (0, 1), BuildingBlock: ZUJKAS_clean_linker_0, # of connection points: 2
#     Edge 88, Type (0, 1), BuildingBlock: ZUJKAS_clean_linker_0, # of connection points: 2
#     Edge 89, Type (0, 1), BuildingBlock: ZUJKAS_clean_linker_0, # of connection points: 2
#     Edge 90, Type (0, 1), BuildingBlock: ZUJKAS_clean_linker_0, # of connection points: 2
#     Edge 91, Type (0, 1), BuildingBlock: ZUJKAS_clean_linker_0, # of connection points: 2
#     Edge 92, Type (0, 1), BuildingBlock: ZUJKAS_clean_linker_0, # of connection points: 2
#     Edge 93, Type (0, 1), BuildingBlock: ZUJKAS_clean_linker_0, # of connection points: 2
#     Edge 94, Type (0, 1), BuildingBlock: ZUJKAS_clean_linker_0, # of connection points: 2
#     Edge 95, Type (0, 1), BuildingBlock: ZUJKAS_clean_linker_0, # of connection points: 2
#     Edge 96, Type (0, 1), BuildingBlock: ZUJKAS_clean_linker_0, # of connection points: 2
#     Edge 97, Type (0, 1), BuildingBlock: ZUJKAS_clean_linker_0, # of connection points: 2
#     Edge 98, Type (0, 1), BuildingBlock: ZUJKAS_clean_linker_0, # of connection points: 2
#     Edge 99, Type (0, 1), BuildingBlock: ZUJKAS_clean_linker_0, # of connection points: 2
#     Edge 100, Type (0, 1), BuildingBlock: ZUJKAS_clean_linker_0, # of connection points: 2
#     Edge 101, Type (0, 1), BuildingBlock: ZUJKAS_clean_linker_0, # of connection points: 2
#     Edge 102, Type (0, 1), BuildingBlock: ZUJKAS_clean_linker_0, # of connection points: 2
#     Edge 103, Type (0, 1), BuildingBlock: ZUJKAS_clean_linker_0, # of connection points: 2
#     Edge 104, Type (0, 1), BuildingBlock: ZUJKAS_clean_linker_0, # of connection points: 2
#     Edge 105, Type (0, 1), BuildingBlock: ZUJKAS_clean_linker_0, # of connection points: 2
#     Edge 106, Type (0, 1), BuildingBlock: ZUJKAS_clean_linker_0, # of connection points: 2
#     Edge 107, Type (0, 1), BuildingBlock: ZUJKAS_clean_linker_0, # of connection points: 2
#     Edge 108, Type (0, 1), BuildingBlock: ZUJKAS_clean_linker_0, # of connection points: 2
#     Edge 109, Type (0, 1), BuildingBlock: ZUJKAS_clean_linker_0, # of connection points: 2
#     Edge 110, Type (0, 1), BuildingBlock: ZUJKAS_clean_linker_0, # of connection points: 2
#     Edge 111, Type (0, 1), BuildingBlock: ZUJKAS_clean_linker_0, # of connection points: 2
#     Edge 112, Type (0, 1), BuildingBlock: ZUJKAS_clean_linker_0, # of connection points: 2
#     Edge 113, Type (0, 1), BuildingBlock: ZUJKAS_clean_linker_0, # of connection points: 2
#     Edge 114, Type (0, 1), BuildingBlock: ZUJKAS_clean_linker_0, # of connection points: 2
#     Edge 115, Type (0, 1), BuildingBlock: ZUJKAS_clean_linker_0, # of connection points: 2
#     Edge 116, Type (0, 1), BuildingBlock: ZUJKAS_clean_linker_0, # of connection points: 2
#     Edge 117, Type (0, 1), BuildingBlock: ZUJKAS_clean_linker_0, # of connection points: 2
#     Edge 118, Type (0, 1), BuildingBlock: ZUJKAS_clean_linker_0, # of connection points: 2
#     Edge 119, Type (0, 1), BuildingBlock: ZUJKAS_clean_linker_0, # of connection points: 2
#     Edge 120, Type (0, 1), BuildingBlock: ZUJKAS_clean_linker_0, # of connection points: 2
#     Edge 121, Type (0, 1), BuildingBlock: ZUJKAS_clean_linker_0, # of connection points: 2
#     Edge 122, Type (0, 1), BuildingBlock: ZUJKAS_clean_linker_0, # of connection points: 2
#     Edge 123, Type (0, 1), BuildingBlock: ZUJKAS_clean_linker_0, # of connection points: 2
#     Edge 124, Type (0, 1), BuildingBlock: ZUJKAS_clean_linker_0, # of connection points: 2
#     Edge 125, Type (0, 1), BuildingBlock: ZUJKAS_clean_linker_0, # of connection points: 2
#     Edge 126, Type (0, 1), BuildingBlock: ZUJKAS_clean_linker_0, # of connection points: 2
#     Edge 127, Type (0, 1), BuildingBlock: ZUJKAS_clean_linker_0, # of connection points: 2
#     Edge 128, Type (0, 1), BuildingBlock: ZUJKAS_clean_linker_0, # of connection points: 2
#     Edge 129, Type (0, 1), BuildingBlock: ZUJKAS_clean_linker_0, # of connection points: 2
#     Edge 130, Type (0, 1), BuildingBlock: ZUJKAS_clean_linker_0, # of connection points: 2
#     Edge 131, Type (0, 1), BuildingBlock: ZUJKAS_clean_linker_0, # of connection points: 2
#     Edge 132, Type (0, 1), BuildingBlock: ZUJKAS_clean_linker_0, # of connection points: 2
#     Edge 133, Type (0, 1), BuildingBlock: ZUJKAS_clean_linker_0, # of connection points: 2
#     Edge 134, Type (0, 1), BuildingBlock: ZUJKAS_clean_linker_0, # of connection points: 2
#     Edge 135, Type (0, 1), BuildingBlock: ZUJKAS_clean_linker_0, # of connection points: 2
# Relax obj value: 0.073
# Max RMSD: 0.174
# Mean RMSD: 0.127
data_MOF--net-gar--node1-GALJAG_clean_sbu_0--node2-KUMBUR_clean_sbu_1--edge1-ZUJKAS_clean_linker_0
_symmetry_space_group_name_H-M    P1
_symmetry_Int_Tables_number       1
_symmetry_cell_setting            triclinic
loop_
_symmetry_equiv_pos_as_xyz
'x, y, z'
_cell_length_a     76.04145
_cell_length_b     76.12439
_cell_length_c     71.977222
_cell_angle_alpha  95.411066
_cell_angle_beta   95.424628
_cell_angle_gamma 99.941766
loop_
_atom_site_label
_atom_site_type_symbol
_atom_site_fract_x
_atom_site_fract_y
_atom_site_fract_z
_atom_type_partial_charge
In0 In 0.04542 0.30946 0.36478 0.0
O1 O 0.06286 0.31069 0.33917 0.0
O2 O 0.07561 0.30682 0.36526 0.0
C3 C 0.01051 0.30546 0.34732 0.0
C4 C 0.04351 0.278 0.38137 0.0
C5 C 0.04801 0.34342 0.38454 0.0
O6 O 0.02401 0.30578 0.33823 0.0
O7 O 0.01456 0.30662 0.36485 0.0
O8 O 0.04883 0.32937 0.39236 0.0
O9 O 0.04691 0.34064 0.36685 0.0
C10 C 0.0771 0.30792 0.34809 0.0
O11 O 0.04744 0.29342 0.39054 0.0
O12 O 0.04004 0.27836 0.3639 0.0
In13 In 0.02298 0.75897 0.68543 0.0
O14 O 0.02114 0.77213 0.65802 0.0
O15 O 0.02624 0.78928 0.68369 0.0
C16 C 0.02102 0.7274 0.66283 0.0
C17 C 0.05899 0.76398 0.70146 0.0
C18 C 0.99028 0.75849 0.70159 0.0
O19 O 0.01599 0.74108 0.65703 0.0
O20 O 0.02697 0.72943 0.68006 0.0
O21 O 1.00498 0.76834 0.70869 0.0
O22 O 0.99236 0.74826 0.68751 0.0
C23 C 0.02413 0.78805 0.66597 0.0
O24 O 0.04643 0.75338 0.70732 0.0
O25 O 0.05329 0.77223 0.68846 0.0
In26 In 0.54633 0.81012 0.86506 0.0
O27 O 0.5606 0.79813 0.84038 0.0
O28 O 0.57656 0.81841 0.85945 0.0
C29 C 0.51235 0.80714 0.84603 0.0
C30 C 0.54536 0.78006 0.88409 0.0
C31 C 0.54615 0.84307 0.886 0.0
O32 O 0.52618 0.81662 0.84118 0.0
O33 O 0.51566 0.79892 0.86002 0.0
O34 O 0.5503 0.82965 0.89334 0.0
O35 O 0.5426 0.84004 0.86839 0.0
C36 C 0.57613 0.80719 0.84528 0.0
O37 O 0.55467 0.7952 0.8906 0.0
O38 O 0.53628 0.7803 0.86855 0.0
In39 In 0.52201 0.25904 0.18578 0.0
O40 O 0.51656 0.24188 0.15739 0.0
O41 O 0.52258 0.22852 0.18118 0.0
C42 C 0.52304 0.28879 0.16739 0.0
C43 C 0.48905 0.25784 0.20149 0.0
C44 C 0.5584 0.26263 0.2 0.0
O45 O 0.51652 0.27318 0.15972 0.0
O46 O 0.52876 0.28958 0.18453 0.0
O47 O 0.54578 0.26075 0.2105 0.0
O48 O 0.55259 0.26243 0.18298 0.0
C49 C 0.51884 0.22733 0.16349 0.0
O50 O 0.50376 0.26715 0.20941 0.0
O51 O 0.49126 0.24855 0.18677 0.0
In52 In 0.0571 0.79391 0.11378 0.0
O53 O 0.05005 0.76997 0.08856 0.0
O54 O 0.05845 0.76376 0.1154 0.0
C55 C 0.05813 0.82755 0.09969 0.0
C56 C 0.02668 0.79014 0.13134 0.0
C57 C 0.08967 0.79944 0.1354 0.0
O58 O 0.05823 0.81316 0.08917 0.0
O59 O 0.05792 0.82489 0.11671 0.0
O60 O 0.07536 0.80242 0.14156 0.0
O61 O 0.0879 0.79432 0.11794 0.0
C62 C 0.05317 0.75768 0.09855 0.0
O63 O 0.04182 0.78876 0.13914 0.0
O64 O 0.02662 0.7934 0.11447 0.0
In65 In 0.50721 0.77138 0.43418 0.0
O66 O 0.52312 0.7693 0.4083 0.0
O67 O 0.53833 0.77711 0.43486 0.0
C68 C 0.47309 0.7693 0.41439 0.0
C69 C 0.50944 0.7397 0.45074 0.0
C70 C 0.51204 0.80612 0.45221 0.0
O71 O 0.48703 0.7678 0.40657 0.0
O72 O 0.47603 0.77078 0.43208 0.0
O73 O 0.51065 0.79241 0.46103 0.0
O74 O 0.51153 0.80232 0.4347 0.0
C75 C 0.53861 0.77345 0.41739 0.0
O76 O 0.50511 0.75332 0.45934 0.0
O77 O 0.51168 0.74172 0.4339 0.0
In78 In 0.5571 0.29433 0.61405 0.0
O79 O 0.55158 0.27058 0.58862 0.0
O80 O 0.55564 0.26385 0.61614 0.0
C81 C 0.55745 0.32784 0.59994 0.0
C82 C 0.52683 0.29063 0.63164 0.0
C83 C 0.58987 0.2998 0.63536 0.0
O84 O 0.55921 0.31382 0.58968 0.0
O85 O 0.5558 0.32485 0.61668 0.0
O86 O 0.57583 0.30356 0.64148 0.0
O87 O 0.58776 0.29393 0.61811 0.0
C88 C 0.55244 0.25802 0.59898 0.0
O89 O 0.54198 0.28934 0.63952 0.0
O90 O 0.52668 0.29373 0.6147 0.0
In91 In 1.00702 0.27113 0.93413 0.0
O92 O 0.01346 0.25661 0.96103 0.0
O93 O 1.00275 0.24015 0.93605 0.0
C94 C 1.00901 0.30544 0.95221 0.0
C95 C 0.03793 0.27225 0.91615 0.0
C96 C 0.97339 0.2695 0.91391 0.0
O97 O 0.0118 0.29233 0.96104 0.0
O98 O 1.00542 0.30122 0.93473 0.0
O99 O 0.98805 0.27166 0.90673 0.0
O100 O 0.97543 0.26718 0.93112 0.0
C101 C 1.00905 0.24069 0.95301 0.0
O102 O 0.02402 0.26039 0.91166 0.0
O103 O 0.0362 0.2838 0.92925 0.0
In104 In 0.3971 0.02273 0.29711 0.0
O105 O 0.41994 0.02484 0.2793 0.0
O106 O 0.39298 0.02287 0.26617 0.0
C107 C 0.41379 0.02536 0.33085 0.0
C108 C 0.38073 0.04984 0.29548 0.0
C109 C 0.38108 0.98958 0.29697 0.0
O110 O 0.42229 0.02486 0.31658 0.0
O111 O 0.39729 0.02573 0.3279 0.0
O112 O 0.37479 1.00245 0.30431 0.0
O113 O 0.39518 0.99343 0.28923 0.0
C114 C 0.40947 0.02416 0.26438 0.0
O115 O 0.37285 0.03389 0.29039 0.0
O116 O 0.39714 0.05222 0.30184 0.0
In117 In 0.27322 0.17879 0.51236 0.0
O118 O 0.27081 0.20247 0.53476 0.0
O119 O 0.2804 0.17999 0.54412 0.0
C120 C 0.27396 0.19343 0.47876 0.0
C121 C 0.30193 0.16245 0.51121 0.0
C122 C 0.24056 0.1579 0.51184 0.0
O123 O 0.28206 0.20192 0.49403 0.0
O124 O 0.26552 0.17807 0.48062 0.0
O125 O 0.25505 0.15241 0.51575 0.0
O126 O 0.24245 0.17405 0.50844 0.0
C127 C 0.2765 0.1951 0.54866 0.0
O128 O 0.28637 0.15479 0.50415 0.0
O129 O 0.30314 0.17851 0.51818 0.0
In130 In 0.13622 0.04427 0.78669 0.0
O131 O 0.11115 0.04241 0.76439 0.0
O132 O 0.13579 0.03898 0.75468 0.0
C133 C 0.12178 0.042 0.82039 0.0
C134 C 0.15279 0.01603 0.78342 0.0
C135 C 0.15834 0.07686 0.79216 0.0
O136 O 0.11568 0.05038 0.80762 0.0
O137 O 0.1344 0.03438 0.81587 0.0
O138 O 0.16322 0.06269 0.79653 0.0
O139 O 0.14215 0.07475 0.78527 0.0
C140 C 0.11952 0.0396 0.75033 0.0
O141 O 0.16085 0.03204 0.7836 0.0
O142 O 0.1361 0.01415 0.78492 0.0
In143 In 0.29417 0.9202 1.00022 0.0
O144 O 0.29456 0.89708 0.0178 0.0
O145 O 0.2934 0.92304 0.03114 0.0
C146 C 0.29072 0.90534 0.96537 0.0
C147 C 0.26687 0.93678 0.99856 0.0
C148 C 0.32716 0.93771 0.00408 0.0
O149 O 0.28654 0.89614 0.97858 0.0
O150 O 0.29622 0.9219 0.96991 0.0
O151 O 0.31421 0.9451 0.00807 0.0
O152 O 0.32354 0.92114 0.99846 0.0
C153 C 0.29395 0.90687 0.03283 0.0
O154 O 0.28282 0.94488 0.99907 0.0
O155 O 0.26455 0.91992 0.99826 0.0
In156 In 0.29922 0.39351 0.03598 0.0
O157 O 0.29455 0.36837 0.05132 0.0
O158 O 0.29948 0.3937 0.06794 0.0
C159 C 0.29652 0.37442 0.00152 0.0
C160 C 0.26924 0.40826 0.0375 0.0
C161 C 0.33302 0.41328 0.03671 0.0
O162 O 0.30046 0.36792 0.01655 0.0
O163 O 0.29373 0.39027 0.00393 0.0
O164 O 0.31936 0.41659 0.02736 0.0
O165 O 0.32969 0.40032 0.04633 0.0
C166 C 0.29581 0.37681 0.06753 0.0
O167 O 0.28488 0.41755 0.04074 0.0
O168 O 0.26878 0.39172 0.03333 0.0
In169 In 0.76866 0.1316 0.0484 0.0
O170 O 0.78477 0.10981 0.04957 0.0
O171 O 0.79778 0.1363 0.04552 0.0
C172 C 0.73664 0.11165 0.04607 0.0
C173 C 0.77279 0.14765 0.0825 0.0
C174 C 0.76594 0.15037 0.01958 0.0
O175 O 0.74791 0.10817 0.03515 0.0
O176 O 0.74202 0.12444 0.05876 0.0
O177 O 0.76996 0.15781 0.0362 0.0
O178 O 0.76333 0.13348 0.0176 0.0
C179 C 0.7991 0.12031 0.04758 0.0
O180 O 0.7651 0.15381 0.06888 0.0
O181 O 0.77859 0.13327 0.0789 0.0
In182 In 0.18541 0.54698 0.25255 0.0
O183 O 0.20617 0.53128 0.24383 0.0
O184 O 0.18824 0.52123 0.26329 0.0
C185 C 0.20011 0.58067 0.25467 0.0
C186 C 0.16615 0.53703 0.21983 0.0
C187 C 0.17014 0.55121 0.28341 0.0
O188 O 0.20973 0.56903 0.2578 0.0
O189 O 0.18365 0.575 0.24972 0.0
O190 O 0.16165 0.55042 0.26729 0.0
O191 O 0.18643 0.54956 0.28394 0.0
C192 C 0.20069 0.51889 0.25353 0.0
O193 O 0.16038 0.53279 0.23497 0.0
O194 O 0.1817 0.54638 0.22129 0.0
In195 In 0.79888 0.89379 0.53737 0.0
O196 O 0.80043 0.86944 0.55376 0.0
O197 O 0.79221 0.89204 0.5676 0.0
C198 C 0.79552 0.87452 0.50302 0.0
C199 C 0.76892 0.90868 0.53797 0.0
C200 C 0.83263 0.91393 0.53864 0.0
O201 O 0.79754 0.86749 0.5181 0.0
O202 O 0.79491 0.891 0.50533 0.0
O203 O 0.81897 0.91743 0.52949 0.0
O204 O 0.82927 0.90078 0.54794 0.0
C205 C 0.7952 0.87632 0.56845 0.0
O206 O 0.78423 0.91694 0.54534 0.0
O207 O 0.7688 0.89306 0.53021 0.0
In208 In 0.92324 0.01882 0.26248 0.0
O209 O 0.94803 0.02976 0.24825 0.0
O210 O 0.92639 0.01274 0.2311 0.0
C211 C 0.94195 0.0194 0.29678 0.0
C212 C 0.90681 0.04802 0.26171 0.0
C213 C 0.90403 0.98492 0.26129 0.0
O214 O 0.94962 0.02306 0.28243 0.0
O215 O 0.92507 0.01545 0.29381 0.0
O216 O 0.89808 0.9988 0.26675 0.0
O217 O 0.91946 0.98809 0.2558 0.0
C218 C 0.94178 0.02239 0.23198 0.0
O219 O 0.90098 0.0336 0.25115 0.0
O220 O 0.92041 0.04747 0.27288 0.0
In221 In 0.26749 0.6292 0.54542 0.0
O222 O 0.28309 0.60639 0.54618 0.0
O223 O 0.29695 0.63342 0.54646 0.0
C224 C 0.2336 0.6145 0.54517 0.0
C225 C 0.27482 0.64816 0.57821 0.0
C226 C 0.26605 0.64542 0.5147 0.0
O227 O 0.2447 0.60557 0.53878 0.0
O228 O 0.23991 0.63037 0.55208 0.0
O229 O 0.2672 0.65352 0.53092 0.0
O230 O 0.26517 0.62864 0.51373 0.0
C231 C 0.29786 0.61719 0.54712 0.0
O232 O 0.27527 0.65497 0.56293 0.0
O233 O 0.27015 0.63127 0.57708 0.0
In234 In 0.42353 0.51778 0.76295 0.0
O235 O 0.4003 0.53254 0.75527 0.0
O236 O 0.42443 0.54784 0.77005 0.0
C237 C 0.40379 0.48395 0.7623 0.0
C238 C 0.44123 0.52212 0.73194 0.0
C239 C 0.44185 0.5198 0.79762 0.0
O240 O 0.39708 0.49792 0.76503 0.0
O241 O 0.42005 0.48706 0.75941 0.0
O242 O 0.4462 0.51153 0.78323 0.0
O243 O 0.42838 0.52719 0.79461 0.0
C244 C 0.4088 0.54785 0.76237 0.0
O245 O 0.4491 0.52499 0.74845 0.0
O246 O 0.42452 0.51664 0.73099 0.0
In247 In 0.68659 0.04829 0.75178 0.0
O248 O 0.70753 0.03131 0.74736 0.0
O249 O 0.68323 0.02008 0.75802 0.0
C250 C 0.70703 0.08006 0.75366 0.0
C251 C 0.66782 0.04478 0.71891 0.0
C252 C 0.66852 0.05075 0.78114 0.0
O253 O 0.71032 0.06887 0.76476 0.0
O254 O 0.69415 0.07471 0.74101 0.0
O255 O 0.66094 0.04423 0.76503 0.0
O256 O 0.68523 0.05639 0.78232 0.0
C257 C 0.69807 0.01785 0.75278 0.0
O258 O 0.66293 0.05235 0.73342 0.0
O259 O 0.68231 0.03884 0.72107 0.0
In260 In 0.773 0.68035 0.01187 0.0
O261 O 0.78589 0.65606 0.00462 0.0
O262 O 0.80195 0.67886 0.02152 0.0
C263 C 0.74062 0.65805 0.00763 0.0
C264 C 0.77692 0.69592 0.04851 0.0
C265 C 0.77487 0.6971 0.97946 0.0
O266 O 0.75464 0.65308 0.00273 0.0
O267 O 0.74289 0.67422 0.01456 0.0
O268 O 0.7619 0.69688 0.98919 0.0
O269 O 0.78735 0.6902 0.98676 0.0
C270 C 0.80094 0.66312 0.01361 0.0
O271 O 0.77684 0.70515 0.03472 0.0
O272 O 0.77493 0.67928 0.04373 0.0
In273 In 0.89767 0.52346 0.79891 0.0
O274 O 0.87567 0.53799 0.80494 0.0
O275 O 0.8994 0.55231 0.79503 0.0
C276 C 0.87835 0.49142 0.79867 0.0
C277 C 0.90889 0.52296 0.76539 0.0
C278 C 0.91546 0.52663 0.83254 0.0
O279 O 0.87118 0.5048 0.79584 0.0
O280 O 0.89524 0.49424 0.80109 0.0
O281 O 0.92088 0.51912 0.81835 0.0
O282 O 0.9019 0.53375 0.82951 0.0
C283 C 0.88393 0.5524 0.80011 0.0
O284 O 0.91985 0.52574 0.78014 0.0
O285 O 0.89246 0.52041 0.76761 0.0
In286 In 0.7935 0.41905 0.50133 0.0
O287 O 0.78233 0.39704 0.51804 0.0
O288 O 0.80152 0.41955 0.53187 0.0
C289 C 0.79276 0.40305 0.4675 0.0
C290 C 0.767 0.43661 0.50301 0.0
C291 C 0.82636 0.43548 0.50136 0.0
O292 O 0.79341 0.39437 0.48163 0.0
O293 O 0.79158 0.41932 0.47065 0.0
O294 O 0.81326 0.44297 0.49694 0.0
O295 O 0.8229 0.41985 0.50614 0.0
C296 C 0.79128 0.40494 0.53314 0.0
O297 O 0.78255 0.44307 0.511 0.0
O298 O 0.76479 0.42116 0.49415 0.0
In299 In 0.63674 0.54443 0.28621 0.0
O300 O 0.66271 0.53333 0.28556 0.0
O301 O 0.63803 0.51465 0.28332 0.0
C302 C 0.65797 0.57747 0.29083 0.0
C303 C 0.6202 0.53953 0.24974 0.0
C304 C 0.62091 0.54268 0.31933 0.0
O305 O 0.66199 0.56468 0.29931 0.0
O306 O 0.64322 0.57371 0.28044 0.0
O307 O 0.61974 0.55501 0.30891 0.0
O308 O 0.62898 0.53091 0.31254 0.0
C309 C 0.65493 0.51707 0.28372 0.0
O310 O 0.61127 0.53966 0.26377 0.0
O311 O 0.63689 0.54171 0.25425 0.0
Tb312 Tb 0.07003 0.05273 0.04983 0.0
C313 C 1.00705 0.99456 0.00488 0.0
N314 N 0.01743 0.00958 1.00029 0.0
C315 C 0.01768 0.99516 0.96922 0.0
C316 C 1.00172 0.97912 0.9918 0.0
C317 C 0.02259 0.01017 0.98264 0.0
C318 C 1.00727 0.97954 0.97383 0.0
C319 C 0.98999 0.97979 0.02769 0.0
C320 C 1.00126 0.99488 0.0226 0.0
C321 C 0.98493 0.96426 0.01483 0.0
C322 C 0.99075 0.96394 0.99692 0.0
Tb323 Tb 0.02301 0.03357 0.02291 0.0
N324 N 1.00618 0.01023 0.03459 0.0
C325 C 0.98368 0.98096 0.04533 0.0
C326 C 0.99884 0.01188 0.0511 0.0
C327 C 0.98794 0.99718 0.05698 0.0
H328 H 0.02983 0.02237 0.97851 0.0
H329 H 0.9824 0.99853 0.07024 0.0
H330 H 0.06079 0.06228 0.09418 0.0
H331 H 0.10069 0.09411 1.00032 0.0
H332 H 1.00053 0.02464 0.05939 0.0
H333 H 0.97497 0.96968 0.04977 0.0
H334 H 0.08539 0.06625 0.0104 0.0
H335 H 0.02169 0.99576 0.95522 0.0
H336 H 0.97625 0.95254 0.01847 0.0
H337 H 0.98649 0.95197 0.98703 0.0
H338 H 0.06748 0.08843 0.11795 0.0
H339 H 1.00334 0.96801 0.96332 0.0
H340 H 0.10831 0.1217 0.0227 0.0
N341 N 0.07193 0.07637 0.07247 0.0
C342 C 0.08126 0.09213 0.06816 0.0
C343 C 0.07118 0.08972 0.10392 0.0
C344 C 0.0859 0.10731 0.08167 0.0
C345 C 0.06696 0.07497 0.09015 0.0
C346 C 0.08073 0.10594 0.0997 0.0
N347 N 0.08186 0.07805 0.0374 0.0
C348 C 0.0873 0.07826 0.01988 0.0
C349 C 0.09602 0.10913 0.04523 0.0
C350 C 0.08637 0.093 0.05011 0.0
C351 C 0.10088 0.10957 0.02699 0.0
C352 C 0.09651 0.09405 0.01429 0.0
H353 H 0.08421 0.11725 0.11052 0.0
H354 H 0.09961 0.13501 0.08717 0.0
H355 H 0.10835 0.13664 0.05527 0.0
O356 O 0.09635 0.0502 0.04538 0.0
O357 O 0.05212 0.07246 0.04307 0.0
O358 O 0.03676 0.05921 0.01525 0.0
O359 O 0.08899 0.0548 0.0733 0.0
O360 O 0.07019 0.03784 0.02167 0.0
O361 O 0.04412 0.04243 0.00577 0.0
O362 O 1.00142 0.04622 0.02917 0.0
O363 O 0.03722 0.01171 0.03118 0.0
O364 O 0.06098 0.02403 0.0541 0.0
O365 O 1.00328 0.03404 1.00071 0.0
O366 O 0.0256 0.04736 0.05172 0.0
O367 O 0.05063 0.04038 0.06718 0.0
C368 C 0.04275 0.07373 0.02699 0.0
C369 C 0.11305 0.03968 0.06997 0.0
C370 C 0.13713 0.02374 0.06454 0.0
C371 C 0.13851 0.02 0.08324 0.0
C372 C 0.11426 0.03588 0.08877 0.0
C373 C 0.12692 0.02595 0.09531 0.0
C374 C 0.12443 0.0334 0.05792 0.0
C375 C 0.06011 0.03823 0.0058 0.0
C376 C 0.10168 0.05193 0.06331 0.0
C377 C 0.09576 0.12328 0.07689 0.0
C378 C 0.10074 0.1242 0.05872 0.0
C379 C 0.04982 0.01 0.04456 0.0
C380 C 0.97799 0.04849 0.00464 0.0
C381 C 0.95272 0.06229 0.01099 0.0
C382 C 0.94799 0.06232 0.99169 0.0
C383 C 0.97327 0.04833 0.98526 0.0
C384 C 0.96754 0.05529 0.01745 0.0
C385 C 0.95824 0.05522 0.97883 0.0
C386 C 0.03413 0.04311 0.06689 0.0
C387 C 0.99454 0.04303 0.01161 0.0
H388 H 0.14848 0.01252 0.08841 0.0
H389 H 0.10576 0.04088 0.0985 0.0
H390 H 0.12795 0.02314 0.10979 0.0
H391 H 0.12393 0.03654 0.04349 0.0
H392 H 0.93634 0.06767 0.98665 0.0
H393 H 0.98136 0.04325 0.97513 0.0
H394 H 0.97108 0.0555 0.03245 0.0
H395 H 0.95464 0.0552 0.96392 0.0
Tb396 Tb 0.26037 0.79279 0.31156 0.0
C397 C 0.29999 0.75992 0.24183 0.0
N398 N 0.3076 0.7743 0.25427 0.0
C399 C 0.33485 0.76253 0.25791 0.0
C400 C 0.30917 0.74577 0.23751 0.0
C401 C 0.32491 0.77596 0.26214 0.0
C402 C 0.32686 0.74723 0.24575 0.0
C403 C 0.27428 0.74497 0.22038 0.0
C404 C 0.2829 0.75956 0.23349 0.0
C405 C 0.2829 0.7303 0.21668 0.0
C406 C 0.30039 0.73075 0.22516 0.0
Tb407 Tb 0.28959 0.79402 0.26299 0.0
N408 N 0.27512 0.77399 0.23767 0.0
C409 C 0.25756 0.74584 0.21101 0.0
C410 C 0.25984 0.77575 0.22685 0.0
C411 C 0.25058 0.76155 0.21384 0.0
H412 H 0.33103 0.78756 0.2718 0.0
H413 H 0.23814 0.76282 0.20588 0.0
H414 H 0.21873 0.79857 0.29881 0.0
H415 H 0.31213 0.82967 0.36538 0.0
H416 H 0.25464 0.78806 0.22781 0.0
H417 H 0.25039 0.73488 0.20092 0.0
H418 H 0.29854 0.80453 0.34219 0.0
H419 H 0.34858 0.76388 0.26423 0.0
H420 H 0.27637 0.71881 0.20692 0.0
H421 H 0.30707 0.71956 0.22189 0.0
H422 H 0.19944 0.82033 0.30671 0.0
H423 H 0.33448 0.73673 0.2427 0.0
H424 H 0.29497 0.85327 0.37438 0.0
N425 N 0.2406 0.8112 0.31911 0.0
C426 C 0.24652 0.82458 0.33338 0.0
C427 C 0.21271 0.82175 0.31424 0.0
C428 C 0.23606 0.83761 0.338 0.0
C429 C 0.22379 0.80948 0.30973 0.0
C430 C 0.21892 0.83597 0.32831 0.0
N431 N 0.27377 0.81372 0.33654 0.0
C432 C 0.29073 0.81462 0.34531 0.0
C433 C 0.27107 0.84065 0.35595 0.0
C434 C 0.26372 0.82595 0.3424 0.0
C435 C 0.28877 0.84209 0.36407 0.0
C436 C 0.29853 0.82888 0.35891 0.0
H437 H 0.21045 0.84568 0.33149 0.0
H438 H 0.23548 0.8624 0.35524 0.0
H439 H 0.26622 0.86517 0.37079 0.0
O440 O 0.26216 0.77373 0.33046 0.0
O441 O 0.26916 0.82028 0.30705 0.0
O442 O 0.27918 0.80452 0.28626 0.0
O443 O 0.23645 0.77781 0.31807 0.0
O444 O 0.28864 0.78664 0.31422 0.0
O445 O 0.30625 0.79809 0.29091 0.0
O446 O 0.28813 0.81427 0.24575 0.0
O447 O 0.28482 0.76828 0.27387 0.0
O448 O 0.26077 0.77557 0.28586 0.0
O449 O 0.31355 0.81159 0.25983 0.0
O450 O 0.26148 0.79934 0.25893 0.0
O451 O 0.24398 0.7913 0.28362 0.0
C452 C 0.27783 0.82039 0.29287 0.0
C453 C 0.23806 0.76957 0.34868 0.0
C454 C 0.23982 0.75819 0.37879 0.0
C455 C 0.22479 0.76545 0.38325 0.0
C456 C 0.2229 0.7768 0.35295 0.0
C457 C 0.21637 0.77478 0.3703 0.0
C458 C 0.24648 0.76051 0.3617 0.0
C459 C 0.30442 0.79115 0.30723 0.0
C460 C 0.24477 0.76994 0.3304 0.0
C461 C 0.24323 0.85213 0.35168 0.0
C462 C 0.26073 0.8537 0.36055 0.0
C463 C 0.27149 0.76418 0.28375 0.0
C464 C 0.31303 0.82198 0.22971 0.0
C465 C 0.30935 0.83014 0.19804 0.0
C466 C 0.32612 0.82578 0.19499 0.0
C467 C 0.32988 0.81778 0.22668 0.0
C468 C 0.303 0.82849 0.21542 0.0
C469 C 0.33639 0.81976 0.20935 0.0
C470 C 0.246 0.79655 0.26658 0.0
C471 C 0.30541 0.8197 0.24747 0.0
H472 H 0.21929 0.76342 0.39639 0.0
H473 H 0.21599 0.78373 0.34291 0.0
H474 H 0.20459 0.78013 0.37354 0.0
H475 H 0.25805 0.75474 0.3583 0.0
H476 H 0.33137 0.82737 0.18165 0.0
H477 H 0.33797 0.81295 0.2376 0.0
H478 H 0.29009 0.83205 0.21769 0.0
H479 H 0.34941 0.81662 0.20703 0.0
Tb480 Tb 0.50242 0.02511 0.5474 0.0
C481 C 0.5686 0.06338 0.50958 0.0
N482 N 0.55611 0.04847 0.50323 0.0
C483 C 0.5546 0.05746 0.47215 0.0
C484 C 0.57445 0.07608 0.49742 0.0
C485 C 0.54926 0.0452 0.48473 0.0
C486 C 0.5672 0.073 0.47852 0.0
C487 C 0.58854 0.08115 0.53554 0.0
C488 C 0.57554 0.06592 0.52843 0.0
C489 C 0.59441 0.09386 0.52346 0.0
C490 C 0.58737 0.09135 0.50447 0.0
Tb491 Tb 0.5495 0.02933 0.52506 0.0
N492 N 0.5692 0.05356 0.53984 0.0
C493 C 0.59529 0.08307 0.55455 0.0
C494 C 0.57619 0.05499 0.55818 0.0
C495 C 0.58918 0.06986 0.56587 0.0
H496 H 0.54012 0.03289 0.47946 0.0
H497 H 0.59464 0.07102 0.58048 0.0
H498 H 0.51208 0.02254 0.59322 0.0
H499 H 0.45796 0.98096 0.493 0.0
H500 H 0.57209 0.04455 0.56678 0.0
H501 H 0.60537 0.09456 0.56056 0.0
H502 H 0.47909 0.00851 0.50626 0.0
H503 H 0.54916 0.05479 0.45751 0.0
H504 H 0.60441 0.10568 0.52866 0.0
H505 H 0.59205 0.10126 0.49533 0.0
H506 H 0.50495 1.00038 0.61546 0.0
H507 H 0.57137 0.08243 0.46871 0.0
H508 H 0.44917 0.95713 0.51325 0.0
N509 N 0.49726 1.00582 0.56956 0.0
C510 C 0.48543 0.99033 0.56348 0.0
C511 C 0.49956 0.99728 0.60083 0.0
C512 C 0.4805 0.97751 0.57585 0.0
C513 C 0.50393 0.00966 0.58808 0.0
C514 C 0.48788 0.98108 0.59468 0.0
N515 N 0.48354 0.99988 0.53312 0.0
C516 C 0.47603 0.99797 0.51493 0.0
C517 C 0.46584 0.9715 0.53794 0.0
C518 C 0.47816 0.98735 0.54475 0.0
C519 C 0.45874 0.9691 0.51902 0.0
C520 C 0.46375 0.98247 0.50752 0.0
H521 H 0.48441 0.97158 0.60464 0.0
H522 H 0.4643 0.95166 0.57842 0.0
H523 H 0.45148 0.94641 0.54525 0.0
O524 O 0.47875 0.03537 0.53845 0.0
O525 O 0.51217 0.99953 0.53884 0.0
O526 O 0.52982 1.0048 0.51474 0.0
O527 O 0.48733 0.03338 0.56789 0.0
O528 O 0.50603 0.03758 0.52177 0.0
O529 O 0.52513 0.02281 0.50609 0.0
O530 O 0.5711 0.01596 0.53409 0.0
O531 O 0.54058 0.05536 0.53334 0.0
O532 O 0.52068 0.05137 0.55602 0.0
O533 O 0.56495 0.02075 0.50505 0.0
O534 O 0.5453 0.01731 0.55074 0.0
O535 O 0.52677 0.03299 0.56613 0.0
C536 C 0.52016 0.99369 0.52447 0.0
C537 C 0.45939 0.04348 0.5626 0.0
C538 C 0.43511 0.06053 0.55994 0.0
C539 C 0.43048 0.05593 0.57751 0.0
C540 C 0.45435 0.03889 0.58007 0.0
C541 C 0.43998 0.04507 0.58743 0.0
C542 C 0.44948 0.05407 0.55231 0.0
C543 C 0.51123 0.03078 0.50634 0.0
C544 C 0.47538 0.03759 0.55588 0.0
C545 C 0.46827 0.96165 0.56911 0.0
C546 C 0.46095 0.95867 0.55021 0.0
C547 C 0.53168 0.06181 0.54666 0.0
C548 C 0.58985 1.00537 0.51017 0.0
C549 C 0.61392 0.98783 0.51401 0.0
C550 C 0.61581 0.98803 0.4948 0.0
C551 C 0.59226 1.00524 0.491 0.0
C552 C 0.60097 0.99674 0.52185 0.0
C553 C 0.60512 0.99669 0.48345 0.0
C554 C 0.53977 0.02389 0.5661 0.0
C555 C 0.57517 0.01405 0.51688 0.0
H556 H 0.41941 0.06072 0.58354 0.0
H557 H 0.46163 0.03059 0.58817 0.0
H558 H 0.43628 0.04155 0.60094 0.0
H559 H 0.45323 0.05774 0.53884 0.0
H560 H 0.62576 0.9815 0.48853 0.0
H561 H 0.58408 0.01169 0.48161 0.0
H562 H 0.59933 0.99661 0.53663 0.0
H563 H 0.60675 0.99671 0.46868 0.0
Tb564 Tb 0.31311 0.26901 0.78229 0.0
C565 C 0.24902 0.29825 0.73995 0.0
N566 N 0.25857 0.30497 0.7568 0.0
C567 C 0.2618 0.3347 0.74751 0.0
C568 C 0.24594 0.30944 0.72595 0.0
C569 C 0.26423 0.32306 0.76107 0.0
C570 C 0.25286 0.32783 0.72977 0.0
C571 C 0.23052 0.27274 0.72047 0.0
C572 C 0.2416 0.28016 0.73711 0.0
C573 C 0.22792 0.28367 0.70615 0.0
C574 C 0.23571 0.30197 0.70885 0.0
Tb575 Tb 0.26361 0.28411 0.77656 0.0
N576 N 0.245 0.2699 0.75097 0.0
C577 C 0.22211 0.25471 0.71897 0.0
C578 C 0.23563 0.25286 0.75032 0.0
C579 C 0.22434 0.24485 0.73418 0.0
H580 H 0.27046 0.32861 0.77495 0.0
H581 H 0.21715 0.2312 0.7336 0.0
H582 H 0.31231 0.22519 0.78436 0.0
H583 H 0.35006 0.32738 0.82688 0.0
H584 H 0.23635 0.24566 0.76245 0.0
H585 H 0.21335 0.2485 0.70647 0.0
H586 H 0.33211 0.31112 0.79826 0.0
H587 H 0.26666 0.34898 0.75082 0.0
H588 H 0.21965 0.27819 0.69312 0.0
H589 H 0.23334 0.31031 0.69782 0.0
H590 H 0.32208 0.20601 0.80757 0.0
H591 H 0.25088 0.3369 0.71935 0.0
H592 H 0.35989 0.31052 0.85251 0.0
N593 N 0.32289 0.24969 0.80178 0.0
C594 C 0.33266 0.25744 0.81817 0.0
C595 C 0.32507 0.22047 0.81077 0.0
C596 C 0.3387 0.24697 0.83175 0.0
C597 C 0.31946 0.23142 0.7977 0.0
C598 C 0.3346 0.22827 0.82795 0.0
N599 N 0.33078 0.28548 0.8077 0.0
C600 C 0.33585 0.30368 0.80939 0.0
C601 C 0.34735 0.2846 0.83779 0.0
C602 C 0.3369 0.27595 0.82117 0.0
C603 C 0.35185 0.30335 0.83997 0.0
C604 C 0.34627 0.31291 0.82558 0.0
H605 H 0.33894 0.21975 0.83804 0.0
H606 H 0.35342 0.2477 0.85921 0.0
H607 H 0.36104 0.28068 0.86448 0.0
O608 O 0.33729 0.28032 0.77183 0.0
O609 O 0.30117 0.27623 0.80832 0.0
O610 O 0.28229 0.29623 0.80118 0.0
O611 O 0.32607 0.2522 0.76592 0.0
O612 O 0.30775 0.29215 0.76779 0.0
O613 O 0.2874 0.30579 0.78252 0.0
O614 O 0.24658 0.27457 0.79662 0.0
O615 O 0.27475 0.27506 0.75055 0.0
O616 O 0.29372 0.25576 0.75866 0.0
O617 O 0.24124 0.29612 0.78111 0.0
O618 O 0.26404 0.25665 0.78311 0.0
O619 O 0.29155 0.24657 0.7839 0.0
C620 C 0.29183 0.28869 0.81331 0.0
C621 C 0.35715 0.26014 0.76371 0.0
C622 C 0.38418 0.2593 0.7479 0.0
C623 C 0.38853 0.24619 0.75911 0.0
C624 C 0.36202 0.2473 0.77501 0.0
C625 C 0.37762 0.2404 0.77269 0.0
C626 C 0.3685 0.26637 0.75037 0.0
C627 C 0.30256 0.30673 0.77477 0.0
C628 C 0.33911 0.26491 0.76345 0.0
C629 C 0.34876 0.2555 0.84855 0.0
C630 C 0.3531 0.27428 0.85156 0.0
C631 C 0.28465 0.26299 0.74598 0.0
C632 C 0.22844 0.29434 0.80993 0.0
C633 C 0.20364 0.29571 0.82954 0.0
C634 C 0.21241 0.31295 0.83738 0.0
C635 C 0.23691 0.31143 0.81839 0.0
C636 C 0.21185 0.28632 0.8158 0.0
C637 C 0.22892 0.32063 0.83199 0.0
C638 C 0.27422 0.24448 0.7854 0.0
C639 C 0.23575 0.2858 0.79362 0.0
H640 H 0.40047 0.24049 0.75741 0.0
H641 H 0.35351 0.24215 0.78521 0.0
H642 H 0.3811 0.23026 0.78123 0.0
H643 H 0.36471 0.27604 0.74133 0.0
H644 H 0.20641 0.32053 0.84778 0.0
H645 H 0.2495 0.31788 0.8141 0.0
H646 H 0.20505 0.27321 0.80922 0.0
H647 H 0.23543 0.33395 0.83819 0.0
Tb648 Tb 0.04947 1.00307 0.51605 0.0
C649 C 0.02196 0.06913 0.55614 0.0
N650 N 0.01399 0.05748 0.541 0.0
C651 C 0.98553 0.05555 0.55321 0.0
C652 C 0.01201 0.07423 0.57062 0.0
C653 C 0.99594 0.0509 0.53917 0.0
C654 C 0.9936 0.06719 0.56905 0.0
C655 C 0.04907 0.08778 0.5727 0.0
C656 C 0.04027 0.07576 0.55721 0.0
C657 C 0.03922 0.0929 0.5872 0.0
C658 C 0.02075 0.08611 0.58618 0.0
Tb659 Tb 0.0326 0.05082 0.51939 0.0
N660 N 0.04952 0.06989 0.54331 0.0
C661 C 0.06751 0.09423 0.57315 0.0
C662 C 0.06724 0.07689 0.54317 0.0
C663 C 0.07659 0.08892 0.5582 0.0
H664 H 0.98941 0.04237 0.52673 0.0
H665 H 0.09073 0.09426 0.55812 0.0
H666 H 0.09206 0.0129 0.50657 0.0
H667 H 0.99166 0.95707 0.48004 0.0
H668 H 0.07411 0.07368 0.53134 0.0
H669 H 0.07479 0.10351 0.5848 0.0
H670 H 1.00853 0.97853 0.50606 0.0
H671 H 0.97125 0.05025 0.55173 0.0
H672 H 0.04576 0.10206 0.59927 0.0
H673 H 0.01334 0.09016 0.59748 0.0
H674 H 0.10937 1.00569 0.48062 0.0
H675 H 0.98548 0.07076 0.57989 0.0
H676 H 1.00654 0.94895 0.45215 0.0
N677 N 0.06725 0.99753 0.4931 0.0
C678 C 0.05903 0.98577 0.47814 0.0
C679 C 0.09517 1.00014 0.47966 0.0
C680 C 0.06854 0.98097 0.46314 0.0
C681 C 0.0852 1.00446 0.49423 0.0
C682 C 0.0868 0.98843 0.46399 0.0
N683 N 0.03215 0.9838 0.49249 0.0
C684 C 0.01489 0.97577 0.49369 0.0
C685 C 0.03196 0.96612 0.46279 0.0
C686 C 0.04093 0.97853 0.4779 0.0
C687 C 0.01391 0.95861 0.46345 0.0
C688 C 1.00544 0.96324 0.47912 0.0
H689 H 0.09459 0.98506 0.45277 0.0
H690 H 0.06664 0.96502 0.4362 0.0
H691 H 0.03465 0.95195 0.43593 0.0
O692 O 0.04149 0.9807 0.53143 0.0
O693 O 0.04143 0.01364 0.4894 0.0
O694 O 0.02027 0.03119 0.49571 0.0
O695 O 0.06839 0.98735 0.5231 0.0
O696 O 0.02507 1.00549 0.52963 0.0
O697 O 0.01173 0.02647 0.515 0.0
O698 O 0.04188 0.07209 0.50272 0.0
O699 O 0.04086 0.04071 0.54656 0.0
O700 O 0.06116 0.02205 0.54061 0.0
O701 O 0.01494 0.06734 0.51106 0.0
O702 O 0.05666 0.04752 0.50579 0.0
O703 O 0.07014 0.02733 0.52132 0.0
C704 C 0.02854 0.02222 0.48394 0.0
C705 C 0.0633 0.96095 0.53944 0.0
C706 C 0.05899 0.93509 0.55747 0.0
C707 C 0.0758 0.93154 0.55341 0.0
C708 C 0.0801 0.95697 0.53568 0.0
C709 C 0.08625 0.94242 0.54262 0.0
C710 C 0.05265 0.94989 0.55048 0.0
C711 C 0.01077 0.01191 0.52377 0.0
C712 C 0.05737 0.97645 0.53125 0.0
C713 C 0.05957 0.96885 0.44788 0.0
C714 C 0.04134 0.96142 0.44771 0.0
C715 C 0.05314 0.03141 0.55238 0.0
C716 C 0.02047 0.09172 0.49174 0.0
C717 C 0.02528 0.11795 0.47374 0.0
C718 C 1.00681 0.11812 0.47271 0.0
C719 C 1.00205 0.09258 0.49022 0.0
C720 C 0.03226 0.10461 0.48334 0.0
C721 C 0.99536 0.10559 0.48086 0.0
C722 C 0.07101 0.04153 0.51211 0.0
C723 C 0.02625 0.077 0.50198 0.0
H724 H 0.08086 0.92028 0.55868 0.0
H725 H 0.08856 0.96507 0.52721 0.0
H726 H 0.0992 0.93953 0.53957 0.0
H727 H 0.03966 0.95268 0.55353 0.0
H728 H 1.00118 0.12815 0.46558 0.0
H729 H 0.99257 0.08306 0.49628 0.0
H730 H 0.0465 0.10431 0.48427 0.0
H731 H 0.98114 0.10598 0.47992 0.0
Tb732 Tb 0.29212 0.81653 0.75202 0.0
C733 C 0.25629 0.74858 0.79222 0.0
N734 N 0.27148 0.76129 0.79705 0.0
C735 C 0.26497 0.76373 0.82916 0.0
C736 C 0.24457 0.74352 0.80568 0.0
C737 C 0.27637 0.7681 0.8155 0.0
C738 C 0.24892 0.75155 0.82421 0.0
C739 C 0.23707 0.72681 0.76856 0.0
C740 C 0.25256 0.74017 0.77381 0.0
C741 C 0.22538 0.722 0.78194 0.0
C742 C 0.22909 0.73034 0.80041 0.0
Tb743 Tb 0.28859 0.76601 0.77278 0.0
N744 N 0.26375 0.74552 0.76087 0.0
C745 C 0.23353 0.71903 0.74986 0.0
C746 C 0.26039 0.73791 0.74266 0.0
C747 C 0.2452 0.72465 0.73686 0.0
H748 H 0.28922 0.77658 0.82013 0.0
H749 H 0.24253 0.71875 0.72236 0.0
H750 H 0.29539 0.80692 0.7057 0.0
H751 H 0.33059 0.87028 0.80097 0.0
H752 H 0.26933 0.74204 0.73263 0.0
H753 H 0.22172 0.70881 0.74528 0.0
H754 H 0.30399 0.84709 0.7885 0.0
H755 H 0.26879 0.76946 0.84362 0.0
H756 H 0.21337 0.71185 0.77812 0.0
H757 H 0.21997 0.72636 0.81058 0.0
H758 H 0.31861 0.81147 0.68452 0.0
H759 H 0.24025 0.74803 0.83491 0.0
H760 H 0.35669 0.87538 0.78276 0.0
N761 N 0.31237 0.8198 0.73021 0.0
C762 C 0.3278 0.83181 0.73618 0.0
C763 C 0.32164 0.81677 0.69918 0.0
C764 C 0.34126 0.83573 0.72418 0.0
C765 C 0.30865 0.81352 0.71153 0.0
C766 C 0.33823 0.82755 0.70565 0.0
N767 N 0.31574 0.8382 0.7646 0.0
C768 C 0.31562 0.84886 0.78088 0.0
C769 C 0.34464 0.85489 0.76003 0.0
C770 C 0.32941 0.84152 0.75379 0.0
C771 C 0.34521 0.86501 0.77744 0.0
C772 C 0.33052 0.86215 0.78779 0.0
H773 H 0.34815 0.83035 0.69595 0.0
H774 H 0.36738 0.85148 0.72169 0.0
H775 H 0.37044 0.86807 0.75319 0.0
O776 O 0.27895 0.83832 0.76047 0.0
O777 O 0.31678 0.81167 0.76929 0.0
O778 O 0.31478 0.78075 0.76587 0.0
O779 O 0.28394 0.83156 0.73155 0.0
O780 O 0.28149 0.80799 0.77752 0.0
O781 O 0.29616 0.78911 0.79321 0.0
O782 O 0.29611 0.74104 0.76385 0.0
O783 O 0.26219 0.77286 0.76117 0.0
O784 O 0.26474 0.80036 0.74815 0.0
O785 O 0.30439 0.75486 0.79195 0.0
O786 O 0.2992 0.77614 0.74845 0.0
O787 O 0.28488 0.79322 0.73115 0.0
C788 C 0.32399 0.79719 0.7716 0.0
C789 C 0.26858 0.85624 0.736 0.0
C790 C 0.25287 0.88132 0.74038 0.0
C791 C 0.25195 0.88268 0.721 0.0
C792 C 0.26748 0.85789 0.71662 0.0
C793 C 0.25919 0.87099 0.70922 0.0
C794 C 0.26106 0.86793 0.74791 0.0
C795 C 0.29145 0.80466 0.79213 0.0
C796 C 0.27719 0.84193 0.74312 0.0
C797 C 0.35684 0.84845 0.73067 0.0
C798 C 0.35855 0.85797 0.74857 0.0
C799 C 0.25517 0.78531 0.7525 0.0
C800 C 0.31037 0.72504 0.78721 0.0
C801 C 0.32845 0.70139 0.78532 0.0
C802 C 0.32592 0.69871 0.80399 0.0
C803 C 0.30774 0.72179 0.80573 0.0
C804 C 0.32046 0.71448 0.77685 0.0
C805 C 0.31549 0.70869 0.81402 0.0
C806 C 0.28975 0.77787 0.73308 0.0
C807 C 0.30569 0.74136 0.77992 0.0
H808 H 0.24543 0.89273 0.71493 0.0
H809 H 0.27297 0.84898 0.70705 0.0
H810 H 0.25834 0.87207 0.69428 0.0
H811 H 0.26169 0.86676 0.76284 0.0
H812 H 0.33197 0.68873 0.81078 0.0
H813 H 0.30024 0.72981 0.81406 0.0
H814 H 0.32284 0.71705 0.76265 0.0
H815 H 0.3137 0.7065 0.82842 0.0
Tb816 Tb 0.52341 0.05618 0.9871 0.0
C817 C 0.55872 0.01577 0.05767 0.0
N818 N 0.5447 0.00882 0.04454 0.0
C819 C 0.55674 0.98186 0.03943 0.0
C820 C 0.57276 1.0064 0.06179 0.0
C821 C 0.54324 0.99186 0.03574 0.0
C822 C 0.57173 0.98927 0.05229 0.0
C823 C 0.57212 0.03957 0.08207 0.0
C824 C 0.5584 0.03201 0.06754 0.0
C825 C 0.58681 0.03091 0.08556 0.0
C826 C 0.5871 0.01429 0.07545 0.0
Tb827 Tb 0.52527 0.02743 0.03678 0.0
N828 N 0.54387 0.0397 0.06372 0.0
C829 C 0.57024 0.05514 0.09307 0.0
C830 C 0.54104 0.05365 0.07581 0.0
C831 C 0.55438 0.06191 0.09027 0.0
H832 H 0.53178 0.98601 0.02571 0.0
H833 H 0.55234 0.0734 0.09931 0.0
H834 H 0.51612 0.0976 1.00036 0.0
H835 H 0.49446 0.00903 0.92647 0.0
H836 H 0.52857 0.05861 0.07445 0.0
H837 H 0.58051 0.06147 0.10432 0.0
H838 H 0.51772 0.02258 0.95225 0.0
H839 H 0.55562 0.9685 0.03225 0.0
H840 H 0.59766 0.03664 0.09644 0.0
H841 H 0.5982 0.00745 0.07864 0.0
H842 H 0.49289 0.11547 0.99327 0.0
H843 H 0.5822 0.98155 0.05507 0.0
H844 H 0.46846 0.02369 0.91895 0.0
N845 N 0.50376 0.07514 0.98059 0.0
C846 C 0.49058 0.069 0.9662 0.0
C847 C 0.49193 0.1023 0.98571 0.0
C848 C 0.47702 0.07886 0.9616 0.0
C849 C 0.50497 0.09193 0.98987 0.0
C850 C 0.47773 0.09562 0.97172 0.0
N851 N 0.50433 0.0439 0.96071 0.0
C852 C 0.50617 0.02881 0.94976 0.0
C853 C 0.47747 0.04581 0.94086 0.0
C854 C 0.49089 0.05283 0.95585 0.0
C855 C 0.47855 0.02961 0.93052 0.0
C856 C 0.49315 0.02125 0.93478 0.0
H857 H 0.4676 0.10367 0.96858 0.0
H858 H 0.45267 0.07904 0.94337 0.0
H859 H 0.45297 0.04998 0.92532 0.0
O860 O 0.54326 0.05504 0.96909 0.0
O861 O 0.49688 0.04215 0.99016 0.0
O862 O 0.51422 0.03756 0.01354 0.0
O863 O 0.53721 0.08042 0.9799 0.0
O864 O 0.5296 0.02803 0.984 0.0
O865 O 0.52332 0.01064 0.00937 0.0
O866 O 0.50406 0.02877 0.05299 0.0
O867 O 0.55082 0.03445 0.02589 0.0
O868 O 0.54211 0.05728 0.01214 0.0
O869 O 0.50717 1.00359 0.03874 0.0
O870 O 0.52231 0.05609 0.04163 0.0
O871 O 0.52186 0.07204 0.01469 0.0
C872 C 0.49811 0.03503 0.00543 0.0
C873 C 0.54559 0.0778 0.94931 0.0
C874 C 0.55654 0.07488 0.91899 0.0
C875 C 0.54678 0.08776 0.91297 0.0
C876 C 0.53584 0.09077 0.94341 0.0
C877 C 0.53646 0.0957 0.92522 0.0
C878 C 0.55577 0.06991 0.93704 0.0
C879 C 0.52746 0.01261 0.99195 0.0
C880 C 0.54587 0.07228 0.96818 0.0
C881 C 0.46334 0.07177 0.94696 0.0
C882 C 0.46352 0.05524 0.93666 0.0
C883 C 0.55383 0.0469 0.01462 0.0
C884 C 0.49433 1.00294 0.06748 0.0
C885 C 0.48505 1.00493 0.09884 0.0
C886 C 0.48518 0.98656 0.09934 0.0
C887 C 0.49418 0.98451 0.06801 0.0
C888 C 0.4895 0.01303 0.08289 0.0
C889 C 0.48964 0.9764 0.08392 0.0
C890 C 0.52102 0.0707 0.03302 0.0
C891 C 0.49838 0.01152 0.05058 0.0
H892 H 0.54751 0.09197 0.89906 0.0
H893 H 0.52786 0.09713 0.95276 0.0
H894 H 0.52911 0.1058 0.9207 0.0
H895 H 0.56332 0.05991 0.94164 0.0
H896 H 0.48138 0.98 0.11146 0.0
H897 H 0.4974 0.97634 0.05611 0.0
H898 H 0.48909 0.02717 0.08251 0.0
H899 H 0.48942 0.96219 0.08424 0.0
Tb900 Tb 0.26448 0.24875 0.2503 0.0
C901 C 0.32375 0.31096 0.29637 0.0
N902 N 0.30789 0.3019 0.30074 0.0
C903 C 0.31984 0.30509 0.33323 0.0
C904 C 0.33822 0.31762 0.31039 0.0
C905 C 0.30574 0.29898 0.31894 0.0
C906 C 0.33612 0.31449 0.32897 0.0
C907 C 0.34145 0.32365 0.27284 0.0
C908 C 0.32533 0.31398 0.2778 0.0
C909 C 0.35581 0.33041 0.28681 0.0
C910 C 0.3542 0.32741 0.30552 0.0
Tb911 Tb 0.28533 0.29584 0.27647 0.0
N912 N 0.31117 0.30725 0.26458 0.0
C913 C 0.34264 0.32632 0.25401 0.0
C914 C 0.31217 0.3103 0.24629 0.0
C915 C 0.32793 0.31958 0.24068 0.0
H916 H 0.29293 0.29281 0.32278 0.0
H917 H 0.32858 0.32181 0.22611 0.0
H918 H 0.25636 0.25328 0.20463 0.0
H919 H 0.22421 0.21115 0.29556 0.0
H920 H 0.30093 0.30599 0.23596 0.0
H921 H 0.35478 0.33368 0.24964 0.0
H922 H 0.25205 0.22721 0.28553 0.0
H923 H 0.31798 0.30292 0.34762 0.0
H924 H 0.36823 0.338 0.28328 0.0
H925 H 0.3654 0.33277 0.31614 0.0
H926 H 0.23055 0.24755 0.1804 0.0
H927 H 0.3469 0.31947 0.34014 0.0
H928 H 0.19574 0.20685 0.27459 0.0
N929 N 0.24119 0.24543 0.22672 0.0
C930 C 0.22498 0.23711 0.231 0.0
C931 C 0.22867 0.24495 0.19467 0.0
C932 C 0.20993 0.2326 0.21726 0.0
C933 C 0.24326 0.24886 0.20866 0.0
C934 C 0.21188 0.23693 0.19902 0.0
N935 N 0.23905 0.23516 0.26123 0.0
C936 C 0.23948 0.22704 0.27729 0.0
C937 C 0.20782 0.22156 0.25325 0.0
C938 C 0.22391 0.23169 0.24879 0.0
C939 C 0.20778 0.2148 0.27067 0.0
C940 C 0.22379 0.21729 0.2826 0.0
H941 H 0.2007 0.23351 0.18803 0.0
H942 H 0.18201 0.2195 0.21149 0.0
H943 H 0.18017 0.20982 0.243 0.0
O944 O 0.2733 0.22519 0.25694 0.0
O945 O 0.24461 0.26564 0.25878 0.0
O946 O 0.25843 0.28551 0.28446 0.0
O947 O 0.26059 0.22716 0.22929 0.0
O948 O 0.27748 0.24972 0.27962 0.0
O949 O 0.27515 0.27686 0.29552 0.0
O950 O 0.27805 0.31908 0.26684 0.0
O951 O 0.30527 0.27866 0.26912 0.0
O952 O 0.29203 0.25883 0.24329 0.0
O953 O 0.28731 0.31839 0.296 0.0
O954 O 0.26922 0.29358 0.24891 0.0
O955 O 0.27501 0.26863 0.23234 0.0
C956 C 0.24385 0.27671 0.27388 0.0
C957 C 0.27994 0.20648 0.23157 0.0
C958 C 0.29365 0.18035 0.23324 0.0
C959 C 0.29922 0.18211 0.21536 0.0
C960 C 0.28571 0.20858 0.21379 0.0
C961 C 0.2953 0.19631 0.2057 0.0
C962 C 0.28392 0.19243 0.2411 0.0
C963 C 0.2765 0.2599 0.2953 0.0
C964 C 0.26811 0.21722 0.23998 0.0
C965 C 0.19368 0.22313 0.22189 0.0
C966 C 0.19263 0.21763 0.23984 0.0
C967 C 0.30653 0.26758 0.25415 0.0
C968 C 0.26629 0.33665 0.28942 0.0
C969 C 0.25005 0.36074 0.28527 0.0
C970 C 0.24134 0.35709 0.30117 0.0
C971 C 0.25729 0.33261 0.30513 0.0
C972 C 0.26239 0.35052 0.27939 0.0
C973 C 0.24484 0.34288 0.31097 0.0
C974 C 0.27131 0.28483 0.23291 0.0
C975 C 0.28058 0.32753 0.28375 0.0
H976 H 0.30683 0.17278 0.2091 0.0
H977 H 0.28254 0.21938 0.20606 0.0
H978 H 0.29964 0.19776 0.19195 0.0
H979 H 0.27911 0.19068 0.25468 0.0
H980 H 0.2318 0.36513 0.30584 0.0
H981 H 0.26005 0.32178 0.31304 0.0
H982 H 0.26931 0.35367 0.26726 0.0
H983 H 0.23805 0.33994 0.32317 0.0
Tb984 Tb 0.54843 0.50252 0.01653 0.0
C985 C 0.52186 0.56807 0.05535 0.0
N986 N 0.51433 0.55744 0.03931 0.0
C987 C 0.48554 0.55383 0.05097 0.0
C988 C 0.51158 0.57142 0.07015 0.0
C989 C 0.49625 0.551 0.0366 0.0
C990 C 0.49327 0.56389 0.06791 0.0
C991 C 0.54842 0.58629 0.07346 0.0
C992 C 0.54008 0.5753 0.05705 0.0
C993 C 0.53825 0.58957 0.08831 0.0
C994 C 0.51991 0.58208 0.08669 0.0
Tb995 Tb 0.53394 0.5519 0.01825 0.0
N996 N 0.54971 0.57109 0.0428 0.0
C997 C 0.56673 0.59357 0.07445 0.0
C998 C 0.56741 0.57864 0.04341 0.0
C999 C 0.5762 0.58991 0.05926 0.0
H1000 H 0.48993 0.54366 0.02342 0.0
H1001 H 0.59027 0.5958 0.05972 0.0
H1002 H 0.59161 0.51222 0.007 0.0
H1003 H 0.4926 0.45332 0.98223 0.0
H1004 H 0.57469 0.57635 0.03158 0.0
H1005 H 0.57362 0.60219 0.08676 0.0
H1006 H 0.50902 0.47588 0.00783 0.0
H1007 H 0.4713 0.54829 0.04894 0.0
H1008 H 0.54445 0.59786 0.1011 0.0
H1009 H 0.51226 0.58471 0.09828 0.0
H1010 H 0.60852 0.50618 0.98067 0.0
H1011 H 0.48493 0.56601 0.07902 0.0
H1012 H 0.50723 0.44613 0.95387 0.0
N1013 N 0.56624 0.49837 0.99294 0.0
C1014 C 0.55816 0.48644 0.978 0.0
C1015 C 0.59426 0.50087 0.97953 0.0
C1016 C 0.56767 0.4819 0.96288 0.0
C1017 C 0.58436 0.50475 0.99431 0.0
C1018 C 0.58583 0.48963 0.96361 0.0
N1019 N 0.53199 0.48221 0.99341 0.0
C1020 C 0.51524 0.47312 0.99528 0.0
C1021 C 0.53195 0.46484 0.96364 0.0
C1022 C 0.5406 0.47784 0.9784 0.0
C1023 C 0.51436 0.45617 0.96494 0.0
C1024 C 0.50604 0.46023 0.98091 0.0
H1025 H 0.59363 0.48641 0.95234 0.0
H1026 H 0.56607 0.46571 0.93611 0.0
H1027 H 0.53472 0.45091 0.9367 0.0
O1028 O 0.54091 0.48274 0.03535 0.0
O1029 O 0.53093 0.50831 0.9925 0.0
O1030 O 0.54173 0.53793 0.99322 0.0
O1031 O 0.56512 0.48431 0.02134 0.0
O1032 O 0.52428 0.50725 0.02936 0.0
O1033 O 0.51232 0.52797 0.0127 0.0
O1034 O 0.54079 0.57811 0.0102 0.0
O1035 O 0.53949 0.5402 0.04527 0.0
O1036 O 0.56061 0.52226 0.04037 0.0
O1037 O 0.51516 0.56141 1.00007 0.0
O1038 O 0.56014 0.55014 0.00874 0.0
O1039 O 0.57053 0.52607 0.02114 0.0
C1040 C 0.53254 0.52301 0.98423 0.0
C1041 C 0.56074 0.46039 0.04077 0.0
C1042 C 0.55654 0.43541 0.05986 0.0
C1043 C 0.57282 0.43097 0.05508 0.0
C1044 C 0.57702 0.45553 0.03627 0.0
C1045 C 0.58295 0.44095 0.04335 0.0
C1046 C 0.55035 0.45014 0.05262 0.0
C1047 C 0.51047 0.51341 0.02159 0.0
C1048 C 0.55512 0.4759 0.03246 0.0
C1049 C 0.55899 0.46929 0.94787 0.0
C1050 C 0.54115 0.4608 0.94823 0.0
C1051 C 0.55257 0.53211 0.05163 0.0
C1052 C 0.51873 0.59271 0.99451 0.0
C1053 C 0.51992 0.6195 0.97734 0.0
C1054 C 0.50268 0.62083 0.98214 0.0
C1055 C 0.50163 0.59469 0.99911 0.0
C1056 C 0.52804 0.60539 0.98379 0.0
C1057 C 0.49373 0.60867 0.99299 0.0
C1058 C 0.57303 0.54148 0.01384 0.0
C1059 C 0.52606 0.57647 0.99896 0.0
H1060 H 0.57769 0.41966 0.06047 0.0
H1061 H 0.58531 0.46299 0.02716 0.0
H1062 H 0.59548 0.43739 0.03972 0.0
H1063 H 0.53776 0.45359 0.05622 0.0
H1064 H 0.49607 0.63142 0.97749 0.0
H1065 H 0.49419 0.58519 0.00712 0.0
H1066 H 0.54116 0.60387 0.97989 0.0
H1067 H 0.48044 0.60995 0.99647 0.0
Tb1068 Tb 0.79127 0.31442 0.25062 0.0
C1069 C 0.75359 0.24841 0.28879 0.0
N1070 N 0.76846 0.26096 0.29514 0.0
C1071 C 0.75953 0.26231 0.32624 0.0
C1072 C 0.74096 0.24242 0.30097 0.0
C1073 C 0.7717 0.26784 0.31363 0.0
C1074 C 0.74407 0.24958 0.31989 0.0
C1075 C 0.73577 0.22861 0.26278 0.0
C1076 C 0.751 0.24161 0.26991 0.0
C1077 C 0.72313 0.22258 0.27488 0.0
C1078 C 0.72571 0.22947 0.29392 0.0
Tb1079 Tb 0.78761 0.26767 0.27332 0.0
N1080 N 0.7633 0.24806 0.25849 0.0
C1081 C 0.73377 0.22201 0.24372 0.0
C1082 C 0.76182 0.24119 0.24012 0.0
C1083 C 0.74693 0.22823 0.23239 0.0
H1084 H 0.78393 0.27712 0.31888 0.0
H1085 H 0.74573 0.22288 0.21775 0.0
H1086 H 0.79229 0.30395 0.20466 0.0
H1087 H 0.83706 0.35964 0.30313 0.0
H1088 H 0.77225 0.2453 0.23151 0.0
H1089 H 0.72228 0.21194 0.2377 0.0
H1090 H 0.80914 0.33854 0.29098 0.0
H1091 H 0.7622 0.26771 0.3409 0.0
H1092 H 0.71132 0.21257 0.26968 0.0
H1093 H 0.71586 0.22467 0.30307 0.0
H1094 H 0.81369 0.31045 0.18149 0.0
H1095 H 0.73471 0.24528 0.32973 0.0
H1096 H 0.8602 0.36779 0.28189 0.0
N1097 N 0.80973 0.31917 0.22764 0.0
C1098 C 0.82539 0.33096 0.23304 0.0
C1099 C 0.81724 0.31614 0.19599 0.0
C1100 C 0.83779 0.33551 0.22013 0.0
C1101 C 0.8053 0.31215 0.20927 0.0
C1102 C 0.83361 0.32777 0.20146 0.0
N1103 N 0.8168 0.3336 0.26377 0.0
C1104 C 0.81932 0.34141 0.28187 0.0
C1105 C 0.845 0.35087 0.25778 0.0
C1106 C 0.82894 0.33861 0.25163 0.0
C1107 C 0.84804 0.35829 0.27661 0.0
C1108 C 0.83506 0.35364 0.28866 0.0
H1109 H 0.84278 0.33093 0.1911 0.0
H1110 H 0.86353 0.35136 0.21648 0.0
H1111 H 0.86985 0.36478 0.24943 0.0
O1112 O 0.78028 0.3376 0.25946 0.0
O1113 O 0.81712 0.30512 0.25917 0.0
O1114 O 0.81228 0.28724 0.2832 0.0
O1115 O 0.78241 0.32913 0.23005 0.0
O1116 O 0.7794 0.31092 0.27659 0.0
O1117 O 0.79433 0.29205 0.29241 0.0
O1118 O 0.80068 0.2458 0.26451 0.0
O1119 O 0.7615 0.27684 0.26585 0.0
O1120 O 0.76534 0.29554 0.24219 0.0
O1121 O 0.79629 0.25248 0.29357 0.0
O1122 O 0.79927 0.27099 0.24711 0.0
O1123 O 0.78315 0.28971 0.23276 0.0
C1124 C 0.82316 0.29724 0.27353 0.0
C1125 C 0.77015 0.35593 0.23522 0.0
C1126 C 0.75506 0.38155 0.23974 0.0
C1127 C 0.75613 0.38422 0.22079 0.0
C1128 C 0.77112 0.35903 0.21633 0.0
C1129 C 0.76409 0.37302 0.2092 0.0
C1130 C 0.76198 0.36723 0.24696 0.0
C1131 C 0.7868 0.30625 0.29202 0.0
C1132 C 0.77764 0.34075 0.24198 0.0
C1133 C 0.85384 0.3477 0.22621 0.0
C1134 C 0.85744 0.35536 0.24498 0.0
C1135 C 0.75489 0.28521 0.25216 0.0
C1136 C 0.81101 0.22711 0.28855 0.0
C1137 C 0.82858 0.20306 0.28499 0.0
C1138 C 0.82744 0.20061 0.30397 0.0
C1139 C 0.81021 0.22416 0.30749 0.0
C1140 C 0.82011 0.21627 0.27711 0.0
C1141 C 0.81831 0.21104 0.31507 0.0
C1142 C 0.79311 0.27748 0.23213 0.0
C1143 C 0.80264 0.24194 0.28178 0.0
H1144 H 0.75061 0.39496 0.21488 0.0
H1145 H 0.77733 0.35059 0.20695 0.0
H1146 H 0.76481 0.37518 0.19463 0.0
H1147 H 0.76113 0.36503 0.26154 0.0
H1148 H 0.83357 0.19043 0.31027 0.0
H1149 H 0.80333 0.2321 0.31666 0.0
H1150 H 0.82093 0.21833 0.2625 0.0
H1151 H 0.81756 0.20897 0.32967 0.0
Tb1152 Tb 0.02658 0.55574 0.48814 0.0
C1153 C 0.05888 0.51558 0.56159 0.0
N1154 N 0.04526 0.50861 0.54791 0.0
C1155 C 0.05506 0.48024 0.54652 0.0
C1156 C 0.07168 0.50538 0.5677 0.0
C1157 C 0.04291 0.49103 0.54072 0.0
C1158 C 0.06968 0.48752 0.55987 0.0
C1159 C 0.07419 0.54107 0.58331 0.0
C1160 C 0.06001 0.53306 0.5694 0.0
C1161 C 0.08729 0.53117 0.58908 0.0
C1162 C 0.086 0.51333 0.58134 0.0
Tb1163 Tb 0.02749 0.52788 0.5376 0.0
N1164 N 0.04745 0.54238 0.56283 0.0
C1165 C 0.0748 0.55878 0.59091 0.0
C1166 C 0.04742 0.5593 0.57114 0.0
C1167 C 0.06118 0.56782 0.58501 0.0
H1168 H 0.03154 0.48522 0.53067 0.0
H1169 H 0.06121 0.58136 0.59119 0.0
H1170 H 0.02147 0.59724 0.50085 0.0
H1171 H 0.9894 0.50458 0.4338 0.0
H1172 H 0.03685 0.56642 0.56753 0.0
H1173 H 0.08551 0.56547 0.60155 0.0
H1174 H 0.01439 0.51764 0.45731 0.0
H1175 H 0.05317 0.46634 0.54065 0.0
H1176 H 0.0984 0.53715 0.59959 0.0
H1177 H 0.09611 0.5058 0.58603 0.0
H1178 H 0.99975 0.61678 0.49348 0.0
H1179 H 0.07918 0.4792 0.56421 0.0
H1180 H 0.96557 0.52172 0.4255 0.0
N1181 N 1.00794 0.57528 0.48119 0.0
C1182 C 0.994 0.56923 0.46764 0.0
C1183 C 0.99792 0.6034 0.48615 0.0
C1184 C 0.98112 0.57989 0.46312 0.0
C1185 C 0.01019 0.59221 0.49033 0.0
C1186 C 0.98325 0.59718 0.47256 0.0
N1187 N 1.0051 0.54227 0.46373 0.0
C1188 C 1.00427 0.52551 0.45451 0.0
C1189 C 0.97781 0.54503 0.44491 0.0
C1190 C 0.99244 0.55209 0.45868 0.0
C1191 C 0.97663 0.52766 0.43608 0.0
C1192 C 0.99002 0.51794 0.44078 0.0
H1193 H 0.97367 0.60581 0.46948 0.0
H1194 H 0.95639 0.58084 0.44591 0.0
H1195 H 0.95345 0.55025 0.42999 0.0
O1196 O 0.04571 0.55437 0.46949 0.0
O1197 O 1.00059 0.54912 0.49761 0.0
O1198 O 0.01011 0.52702 0.51154 0.0
O1199 O 0.04374 0.5797 0.48454 0.0
O1200 O 0.0331 0.52786 0.48421 0.0
O1201 O 0.02978 0.51121 0.51063 0.0
O1202 O 1.00896 0.53039 0.55708 0.0
O1203 O 0.05505 0.53954 0.53347 0.0
O1204 O 0.03798 0.54667 0.51172 0.0
O1205 O 0.01003 0.50471 0.54229 0.0
O1206 O 0.01941 0.55492 0.53911 0.0
O1207 O 0.03101 0.5724 0.51596 0.0
C1208 C 0.99803 0.53704 0.50914 0.0
C1209 C 0.05155 0.57977 0.4535 0.0
C1210 C 0.06049 0.57767 0.42204 0.0
C1211 C 0.05751 0.59521 0.42036 0.0
C1212 C 0.04864 0.5973 0.45184 0.0
C1213 C 0.05133 0.60485 0.43513 0.0
C1214 C 0.05665 0.56989 0.43831 0.0
C1215 C 0.03281 0.51275 0.49266 0.0
C1216 C 0.0508 0.57173 0.47116 0.0
C1217 C 0.96649 0.57291 0.4495 0.0
C1218 C 0.96482 0.55549 0.44045 0.0
C1219 C 0.0542 0.54767 0.51879 0.0
C1220 C 0.99757 0.50438 0.57115 0.0
C1221 C 0.98564 0.50558 0.6012 0.0
C1222 C 0.98377 0.48686 0.60057 0.0
C1223 C 0.9955 0.48561 0.57057 0.0
C1224 C 0.99246 0.5143 0.58648 0.0
C1225 C 0.98866 0.47694 0.58526 0.0
C1226 C 0.02384 0.57049 0.53205 0.0
C1227 C 1.00234 0.51327 0.55468 0.0
H1228 H 0.06061 0.60175 0.40803 0.0
H1229 H 0.0446 0.60523 0.46344 0.0
H1230 H 0.04926 0.61842 0.43388 0.0
H1231 H 0.05844 0.5562 0.4395 0.0
H1232 H 0.97809 0.4799 0.61169 0.0
H1233 H 0.99871 0.47758 0.55856 0.0
H1234 H 0.99338 0.52871 0.58684 0.0
H1235 H 0.98683 0.46247 0.58463 0.0
Tb1236 Tb 0.81404 0.76918 0.28439 0.0
C1237 C 0.74865 0.79363 0.2403 0.0
N1238 N 0.75911 0.80198 0.25615 0.0
C1239 C 0.75996 0.83047 0.24425 0.0
C1240 C 0.74357 0.80345 0.2257 0.0
C1241 C 0.76433 0.82023 0.25855 0.0
C1242 C 0.74964 0.82204 0.2277 0.0
C1243 C 0.73096 0.76621 0.22326 0.0
C1244 C 0.74258 0.77517 0.23896 0.0
C1245 C 0.726 0.77593 0.2086 0.0
C1246 C 0.73238 0.79447 0.20976 0.0
Tb1247 Tb 0.76523 0.78335 0.27794 0.0
N1248 N 0.74809 0.76604 0.25315 0.0
C1249 C 0.72438 0.74782 0.22299 0.0
C1250 C 0.74082 0.74845 0.25354 0.0
C1251 C 0.72912 0.73897 0.23834 0.0
H1252 H 0.77151 0.82708 0.2716 0.0
H1253 H 0.72349 0.72494 0.23865 0.0
H1254 H 0.80663 0.72543 0.29091 0.0
H1255 H 0.85359 0.82776 0.32603 0.0
H1256 H 0.74344 0.74191 0.2658 0.0
H1257 H 0.71525 0.74046 0.21127 0.0
H1258 H 0.83451 0.81111 0.29816 0.0
H1259 H 0.76432 0.84489 0.24611 0.0
H1260 H 0.71711 0.76927 0.19637 0.0
H1261 H 0.72833 0.8018 0.19839 0.0
H1262 H 0.8136 0.7074 0.31624 0.0
H1263 H 0.7461 0.83006 0.21675 0.0
H1264 H 0.86185 0.81172 0.35297 0.0
N1265 N 0.81933 0.75042 0.30644 0.0
C1266 C 0.82972 0.7586 0.3224 0.0
C1267 C 0.81807 0.72181 0.31821 0.0
C1268 C 0.83455 0.74863 0.33699 0.0
C1269 C 0.81384 0.73219 0.30399 0.0
C1270 C 0.8284 0.73006 0.33481 0.0
N1271 N 0.83062 0.78633 0.30976 0.0
C1272 C 0.83733 0.80417 0.31008 0.0
C1273 C 0.847 0.78592 0.34005 0.0
C1274 C 0.83584 0.77706 0.32397 0.0
C1275 C 0.85318 0.80443 0.34088 0.0
C1276 C 0.84845 0.81355 0.32575 0.0
H1277 H 0.8318 0.72193 0.34572 0.0
H1278 H 0.8494 0.75 0.36447 0.0
H1279 H 0.86035 0.78259 0.36712 0.0
O1280 O 0.83493 0.77891 0.26825 0.0
O1281 O 0.80189 0.77816 0.30981 0.0
O1282 O 0.78286 0.79782 0.30217 0.0
O1283 O 0.83522 0.75515 0.28195 0.0
O1284 O 0.8108 0.79311 0.27024 0.0
O1285 O 0.78828 0.80581 0.28267 0.0
O1286 O 0.74551 0.77337 0.29565 0.0
O1287 O 0.7766 0.77394 0.252 0.0
O1288 O 0.79746 0.75576 0.25879 0.0
O1289 O 0.74337 0.79627 0.2811 0.0
O1290 O 0.77011 0.76018 0.29236 0.0
O1291 O 0.79113 0.74694 0.27821 0.0
C1292 C 0.79299 0.79108 0.31448 0.0
C1293 C 0.85075 0.75687 0.25512 0.0
C1294 C 0.87531 0.75607 0.23544 0.0
C1295 C 0.86809 0.73797 0.22923 0.0
C1296 C 0.84366 0.73887 0.24829 0.0
C1297 C 0.85232 0.72953 0.23548 0.0
C1298 C 0.86647 0.76555 0.24836 0.0
C1299 C 0.80375 0.80717 0.27543 0.0
C1300 C 0.84336 0.76572 0.27108 0.0
C1301 C 0.84553 0.75745 0.35314 0.0
C1302 C 0.85177 0.77602 0.35464 0.0
C1303 C 0.78688 0.76239 0.24675 0.0
C1304 C 0.72607 0.79348 0.30704 0.0
C1305 C 0.7007 0.79135 0.32643 0.0
C1306 C 0.70406 0.81014 0.32987 0.0
C1307 C 0.72907 0.81225 0.31127 0.0
C1308 C 0.7117 0.78296 0.31475 0.0
C1309 C 0.71807 0.82044 0.32239 0.0
C1310 C 0.77591 0.74587 0.2857 0.0
C1311 C 0.73583 0.78548 0.29217 0.0
H1312 H 0.8746 0.73036 0.21935 0.0
H1313 H 0.83169 0.73183 0.25328 0.0
H1314 H 0.84694 0.71558 0.23057 0.0
H1315 H 0.8722 0.77935 0.2537 0.0
H1316 H 0.69563 0.81693 0.3383 0.0
H1317 H 0.73959 0.82077 0.30541 0.0
H1318 H 0.70886 0.76851 0.31139 0.0
H1319 H 0.72027 0.83493 0.32505 0.0
Tb1320 Tb 0.76126 0.29587 0.81289 0.0
C1321 C 0.79946 0.25696 0.74221 0.0
N1322 N 0.8066 0.27084 0.75542 0.0
C1323 C 0.83365 0.25881 0.75985 0.0
C1324 C 0.80885 0.24303 0.73767 0.0
C1325 C 0.82364 0.27219 0.76395 0.0
C1326 C 0.82612 0.244 0.74684 0.0
C1327 C 0.77543 0.24379 0.71793 0.0
C1328 C 0.78311 0.2574 0.73254 0.0
C1329 C 0.78414 0.22924 0.71402 0.0
C1330 C 0.8009 0.22891 0.72382 0.0
Tb1331 Tb 0.78869 0.291 0.76287 0.0
N1332 N 0.77543 0.2719 0.73658 0.0
C1333 C 0.75967 0.24565 0.70723 0.0
C1334 C 0.76128 0.2747 0.72472 0.0
C1335 C 0.75283 0.26141 0.71033 0.0
H1336 H 0.82967 0.28365 0.77378 0.0
H1337 H 0.74121 0.26347 0.70148 0.0
H1338 H 0.71962 0.30253 0.80094 0.0
H1339 H 0.81551 0.33422 0.8631 0.0
H1340 H 0.75638 0.28719 0.72601 0.0
H1341 H 0.75325 0.23546 0.69595 0.0
H1342 H 0.80121 0.30907 0.84022 0.0
H1343 H 0.84715 0.25994 0.76671 0.0
H1344 H 0.77836 0.21854 0.703 0.0
H1345 H 0.80779 0.21794 0.72026 0.0
H1346 H 0.70129 0.3252 0.80871 0.0
H1347 H 0.83388 0.23365 0.74366 0.0
H1348 H 0.79858 0.35765 0.87327 0.0
N1349 N 0.74234 0.31532 0.82013 0.0
C1350 C 0.74904 0.32916 0.83369 0.0
C1351 C 0.71472 0.32651 0.81581 0.0
C1352 C 0.73889 0.34241 0.83862 0.0
C1353 C 0.7253 0.31375 0.81132 0.0
C1354 C 0.72155 0.34092 0.82949 0.0
N1355 N 0.77603 0.31783 0.83624 0.0
C1356 C 0.7934 0.31898 0.844 0.0
C1357 C 0.77421 0.34514 0.85552 0.0
C1358 C 0.76642 0.33043 0.84212 0.0
C1359 C 0.79208 0.34649 0.86306 0.0
C1360 C 0.80168 0.33333 0.8573 0.0
H1361 H 0.71335 0.35084 0.83285 0.0
H1362 H 0.73887 0.36715 0.8562 0.0
H1363 H 0.76985 0.3696 0.87092 0.0
O1364 O 0.76339 0.27797 0.83285 0.0
O1365 O 0.77286 0.32214 0.80654 0.0
O1366 O 0.77986 0.30322 0.78619 0.0
O1367 O 0.7374 0.28251 0.82156 0.0
O1368 O 0.78849 0.28746 0.81545 0.0
O1369 O 0.80581 0.29441 0.79033 0.0
O1370 O 0.78724 0.31194 0.74621 0.0
O1371 O 0.78099 0.26607 0.77463 0.0
O1372 O 0.75863 0.27594 0.78848 0.0
O1373 O 0.81276 0.30755 0.75867 0.0
O1374 O 0.76032 0.29496 0.75828 0.0
O1375 O 0.7446 0.29586 0.78536 0.0
C1376 C 0.78069 0.31983 0.7919 0.0
C1377 C 0.73879 0.26888 0.84995 0.0
C1378 C 0.74183 0.2528 0.87703 0.0
C1379 C 0.7237 0.25247 0.87939 0.0
C1380 C 0.72058 0.26862 0.85225 0.0
C1381 C 0.7131 0.26045 0.867 0.0
C1382 C 0.74931 0.26097 0.86246 0.0
C1383 C 0.804 0.28979 0.80764 0.0
C1384 C 0.74603 0.27367 0.83267 0.0
C1385 C 0.74646 0.35685 0.85224 0.0
C1386 C 0.76409 0.35824 0.86064 0.0
C1387 C 0.76835 0.2636 0.78582 0.0
C1388 C 0.81151 0.31782 0.72867 0.0
C1389 C 0.80983 0.32981 0.69873 0.0
C1390 C 0.82443 0.32201 0.69393 0.0
C1391 C 0.82602 0.30984 0.72373 0.0
C1392 C 0.80338 0.32769 0.71602 0.0
C1393 C 0.83242 0.31196 0.70638 0.0
C1394 C 0.74582 0.29649 0.76697 0.0
C1395 C 0.80461 0.31619 0.74685 0.0
H1396 H 0.71773 0.24576 0.89052 0.0
H1397 H 0.712 0.27409 0.84231 0.0
H1398 H 0.69901 0.25992 0.86856 0.0
H1399 H 0.7632 0.26046 0.86048 0.0
H1400 H 0.82954 0.32363 0.68052 0.0
H1401 H 0.83244 0.30203 0.73322 0.0
H1402 H 0.79218 0.33393 0.7197 0.0
H1403 H 0.84363 0.30587 0.70262 0.0
Tb1404 Tb 0.76645 0.74759 0.75001 0.0
C1405 C 0.8222 0.81264 0.79535 0.0
N1406 N 0.80732 0.80168 0.79955 0.0
C1407 C 0.82132 0.80179 0.83089 0.0
C1408 C 0.83737 0.81835 0.80874 0.0
C1409 C 0.80657 0.79648 0.81718 0.0
C1410 C 0.83681 0.81269 0.82664 0.0
C1411 C 0.8372 0.82988 0.77276 0.0
C1412 C 0.82209 0.81844 0.77762 0.0
C1413 C 0.85241 0.8354 0.78599 0.0
C1414 C 0.85248 0.82969 0.80394 0.0
Tb1415 Tb 0.78371 0.79581 0.77637 0.0
N1416 N 0.80723 0.81265 0.76506 0.0
C1417 C 0.83653 0.83545 0.75476 0.0
C1418 C 0.80608 0.81907 0.74801 0.0
C1419 C 0.82082 0.83015 0.7424 0.0
H1420 H 0.79445 0.7889 0.82112 0.0
H1421 H 0.81988 0.83495 0.72871 0.0
H1422 H 0.75608 0.7565 0.70574 0.0
H1423 H 0.72779 0.71054 0.79751 0.0
H1424 H 0.79368 0.8164 0.73901 0.0
H1425 H 0.84788 0.84417 0.75045 0.0
H1426 H 0.75475 0.72833 0.78787 0.0
H1427 H 0.82061 0.79771 0.84485 0.0
H1428 H 0.86415 0.84418 0.78251 0.0
H1429 H 0.86425 0.83421 0.81406 0.0
H1430 H 0.72989 0.74914 0.68199 0.0
H1431 H 0.84815 0.81688 0.83737 0.0
H1432 H 0.7001 0.70216 0.77526 0.0
N1433 N 0.7427 0.74392 0.72711 0.0
C1434 C 0.72747 0.73337 0.73109 0.0
C1435 C 0.72893 0.74487 0.69584 0.0
C1436 C 0.71228 0.72834 0.71758 0.0
C1437 C 0.74369 0.74945 0.70962 0.0
C1438 C 0.71315 0.7343 0.69983 0.0
N1439 N 0.74204 0.73246 0.7615 0.0
C1440 C 0.74252 0.72607 0.77859 0.0
C1441 C 0.71162 0.71636 0.75331 0.0
C1442 C 0.72717 0.72739 0.74877 0.0
C1443 C 0.71178 0.71061 0.77121 0.0
C1444 C 0.72733 0.71542 0.78386 0.0
H1445 H 0.70182 0.7306 0.68904 0.0
H1446 H 0.68509 0.71324 0.71183 0.0
H1447 H 0.68447 0.70286 0.74312 0.0
O1448 O 0.77253 0.72235 0.75452 0.0
O1449 O 0.74507 0.76342 0.75691 0.0
O1450 O 0.75788 0.7819 0.78351 0.0
O1451 O 0.76714 0.72969 0.72609 0.0
O1452 O 0.78062 0.74899 0.77873 0.0
O1453 O 0.77487 0.77495 0.79397 0.0
O1454 O 0.77148 0.8174 0.76941 0.0
O1455 O 0.80625 0.78309 0.76699 0.0
O1456 O 0.79503 0.75715 0.74666 0.0
O1457 O 0.78298 0.81587 0.79819 0.0
O1458 O 0.76913 0.79251 0.74798 0.0
O1459 O 0.77742 0.76801 0.733 0.0
C1460 C 0.74359 0.77423 0.77198 0.0
C1461 C 0.77363 0.70007 0.72856 0.0
C1462 C 0.78777 0.67438 0.73204 0.0
C1463 C 0.78155 0.6676 0.71332 0.0
C1464 C 0.76726 0.69332 0.70986 0.0
C1465 C 0.77119 0.67704 0.7023 0.0
C1466 C 0.78373 0.69053 0.73956 0.0
C1467 C 0.77891 0.75893 0.79424 0.0
C1468 C 0.77099 0.71758 0.73647 0.0
C1469 C 0.69684 0.71731 0.72207 0.0
C1470 C 0.69649 0.71137 0.73989 0.0
C1471 C 0.80856 0.76951 0.75509 0.0
C1472 C 0.7693 0.84153 0.79311 0.0
C1473 C 0.75252 0.8648 0.7866 0.0
C1474 C 0.75624 0.87217 0.80548 0.0
C1475 C 0.77318 0.84896 0.81198 0.0
C1476 C 0.75918 0.84963 0.78043 0.0
C1477 C 0.76667 0.8643 0.81811 0.0
C1478 C 0.77318 0.78389 0.73279 0.0
C1479 C 0.77457 0.82467 0.78683 0.0
H1480 H 0.78457 0.65501 0.70734 0.0
H1481 H 0.75943 0.70065 0.70111 0.0
H1482 H 0.76632 0.67181 0.68788 0.0
H1483 H 0.78901 0.69597 0.75388 0.0
H1484 H 0.75134 0.88414 0.81034 0.0
H1485 H 0.78099 0.84281 0.82202 0.0
H1486 H 0.75608 0.84396 0.76584 0.0
H1487 H 0.76963 0.87002 0.83264 0.0
Tb1488 Tb 0.56946 0.55219 0.54891 0.0
C1489 C 0.50823 0.49324 0.50271 0.0
N1490 N 0.51725 0.50925 0.49869 0.0
C1491 C 0.51493 0.49773 0.46616 0.0
C1492 C 0.50188 0.47895 0.48843 0.0
C1493 C 0.52063 0.51168 0.48067 0.0
C1494 C 0.50543 0.48134 0.47002 0.0
C1495 C 0.49473 0.47528 0.52564 0.0
C1496 C 0.50472 0.49141 0.52114 0.0
C1497 C 0.48827 0.46109 0.5114 0.0
C1498 C 0.49185 0.46292 0.49287 0.0
Tb1499 Tb 0.52202 0.53155 0.52307 0.0
N1500 N 0.51075 0.50557 0.53454 0.0
C1501 C 0.49114 0.47404 0.54423 0.0
C1502 C 0.50677 0.50457 0.55253 0.0
C1503 C 0.49722 0.48875 0.55773 0.0
H1504 H 0.5268 0.52459 0.47711 0.0
H1505 H 0.49415 0.4881 0.57206 0.0
H1506 H 0.56244 0.56344 0.59352 0.0
H1507 H 0.60562 0.58968 0.50009 0.0
H1508 H 0.51034 0.51597 0.56283 0.0
H1509 H 0.48343 0.46191 0.54822 0.0
H1510 H 0.58913 0.56279 0.5112 0.0
H1511 H 0.51742 0.4998 0.4519 0.0
H1512 H 0.48037 0.44869 0.51456 0.0
H1513 H 0.48665 0.45188 0.48203 0.0
H1514 H 0.56885 0.59033 0.61625 0.0
H1515 H 0.50069 0.4707 0.45865 0.0
H1516 H 0.61163 0.6186 0.52041 0.0
N1517 N 0.57246 0.57668 0.57091 0.0
C1518 C 0.58169 0.5922 0.56593 0.0
C1519 C 0.57221 0.59115 0.60204 0.0
C1520 C 0.58633 0.60785 0.57884 0.0
C1521 C 0.56805 0.57594 0.58885 0.0
C1522 C 0.58131 0.60721 0.597 0.0
N1523 N 0.58312 0.5766 0.53619 0.0
C1524 C 0.59026 0.57547 0.51951 0.0
C1525 C 0.59751 0.60774 0.54273 0.0
C1526 C 0.58726 0.59214 0.54807 0.0
C1527 C 0.60368 0.60693 0.52501 0.0
C1528 C 0.60022 0.59065 0.51346 0.0
H1529 H 0.58481 0.61889 0.60738 0.0
H1530 H 0.60006 0.63558 0.58321 0.0
H1531 H 0.60977 0.63551 0.55158 0.0
O1532 O 0.59389 0.54454 0.54354 0.0
O1533 O 0.55323 0.57242 0.5399 0.0
O1534 O 0.53099 0.55895 0.51596 0.0
O1535 O 0.59008 0.55602 0.57105 0.0
O1536 O 0.56764 0.5375 0.52034 0.0
O1537 O 0.54148 0.54263 0.50493 0.0
O1538 O 0.49793 0.53721 0.53213 0.0
O1539 O 0.53962 0.5118 0.52982 0.0
O1540 O 0.55866 0.52486 0.55622 0.0
O1541 O 0.49993 0.52957 0.50289 0.0
O1542 O 0.52421 0.54712 0.55094 0.0
O1543 O 0.54977 0.54191 0.56708 0.0
C1544 C 0.54088 0.57332 0.52595 0.0
C1545 C 0.61097 0.53677 0.56955 0.0
C1546 C 0.63477 0.51969 0.56716 0.0
C1547 C 0.63326 0.51524 0.5855 0.0
C1548 C 0.60925 0.5322 0.58786 0.0
C1549 C 0.62048 0.5215 0.5958 0.0
C1550 C 0.62382 0.53066 0.55947 0.0
C1551 C 0.55795 0.53973 0.50482 0.0
C1552 C 0.60086 0.54911 0.56095 0.0
C1553 C 0.5963 0.62347 0.57344 0.0
C1554 C 0.60183 0.62343 0.55542 0.0
C1555 C 0.54995 0.51042 0.54526 0.0
C1556 C 0.47999 0.54897 0.50973 0.0
C1557 C 0.45716 0.56627 0.51648 0.0
C1558 C 0.45839 0.57347 0.49934 0.0
C1559 C 0.48137 0.55629 0.49255 0.0
C1560 C 0.46786 0.55407 0.52164 0.0
C1561 C 0.47054 0.56849 0.48741 0.0
C1562 C 0.53341 0.54516 0.56675 0.0
C1563 C 0.48996 0.53509 0.515 0.0
H1564 H 0.64175 0.50679 0.59171 0.0
H1565 H 0.59951 0.53706 0.59609 0.0
H1566 H 0.61928 0.51808 0.60994 0.0
H1567 H 0.6255 0.53473 0.54559 0.0
H1568 H 0.44977 0.58267 0.49511 0.0
H1569 H 0.49055 0.55241 0.48299 0.0
H1570 H 0.46648 0.54828 0.53477 0.0
H1571 H 0.47139 0.57389 0.47408 0.0
Tb1572 Tb 1.00141 0.52798 0.04313 0.0
C1573 C 0.06572 0.56524 0.01006 0.0
N1574 N 0.05494 0.54897 0.00432 0.0
C1575 C 0.05183 0.55686 0.9727 0.0
C1576 C 0.06923 0.57816 0.99738 0.0
C1577 C 0.04927 0.54426 0.98552 0.0
C1578 C 0.06157 0.574 0.97871 0.0
C1579 C 0.08708 0.58449 0.03408 0.0
C1580 C 0.07463 0.5685 0.02829 0.0
C1581 C 0.08997 0.59757 0.02167 0.0
C1582 C 0.08102 0.59445 0.00342 0.0
Tb1583 Tb 0.05281 0.5302 0.02759 0.0
N1584 N 0.0715 0.55572 0.0402 0.0
C1585 C 0.09669 0.5866 0.052 0.0
C1586 C 0.08162 0.55713 0.05717 0.0
C1587 C 0.09412 0.57276 0.06349 0.0
H1588 H 0.04325 0.53069 0.97988 0.0
H1589 H 0.10188 0.57405 0.07711 0.0
H1590 H 1.00887 0.52772 0.09064 0.0
H1591 H 0.95304 0.48499 0.99128 0.0
H1592 H 0.07991 0.54619 0.06575 0.0
H1593 H 0.10647 0.59865 0.0569 0.0
H1594 H 0.97523 0.51235 0.00348 0.0
H1595 H 0.04681 0.55313 0.95802 0.0
H1596 H 0.09945 0.60998 0.02589 0.0
H1597 H 0.08382 0.60449 0.99385 0.0
H1598 H 1.00186 0.50605 0.11306 0.0
H1599 H 0.06392 0.58358 0.96859 0.0
H1600 H 0.94497 0.46143 0.01205 0.0
N1601 N 0.9954 0.51008 0.06661 0.0
C1602 C 0.98331 0.49462 0.06091 0.0
C1603 C 0.99684 0.50251 0.09836 0.0
C1604 C 0.97843 0.48204 0.07359 0.0
C1605 C 1.00116 0.51464 0.08535 0.0
C1606 C 0.98571 0.48599 0.0924 0.0
N1607 N 0.9802 0.50392 0.03041 0.0
C1608 C 0.97207 0.50196 0.01243 0.0
C1609 C 0.96264 0.4758 0.03608 0.0
C1610 C 0.97527 0.49158 0.04238 0.0
C1611 C 0.95475 0.47337 0.01741 0.0
C1612 C 0.95932 0.48661 0.00562 0.0
H1613 H 0.9823 0.47668 0.10256 0.0
H1614 H 0.96237 0.45628 0.07676 0.0
H1615 H 0.94868 0.45076 0.04392 0.0
O1616 O 0.97731 0.53646 0.03418 0.0
O1617 O 1.00776 0.50131 0.03195 0.0
O1618 O 0.0371 0.50257 0.02318 0.0
O1619 O 0.99116 0.54499 0.06209 0.0
O1620 O 0.01213 0.53676 0.01822 0.0
O1621 O 0.03097 0.52058 0.00538 0.0
O1622 O 0.07352 0.51754 0.03907 0.0
O1623 O 0.04628 0.55409 0.04482 0.0
O1624 O 0.0166 0.5531 0.03471 0.0
O1625 O 0.07365 0.5263 0.01168 0.0
O1626 O 0.04275 0.51842 0.0518 0.0
O1627 O 0.02365 0.53501 0.0648 0.0
C1628 C 0.02097 0.4937 0.0257 0.0
C1629 C 0.96004 0.54537 0.05801 0.0
C1630 C 0.93302 0.55833 0.05902 0.0
C1631 C 0.92952 0.55025 0.07536 0.0
C1632 C 0.95626 0.53707 0.07416 0.0
C1633 C 0.94099 0.5395 0.08274 0.0
C1634 C 0.9482 0.55566 0.05029 0.0
C1635 C 0.01545 0.52574 0.00471 0.0
C1636 C 0.97725 0.5457 0.05034 0.0
C1637 C 0.96612 0.46614 0.06724 0.0
C1638 C 0.95827 0.46302 0.04854 0.0
C1639 C 0.03228 0.56225 0.04279 0.0
C1640 C 0.08825 0.50201 0.01654 0.0
C1641 C 0.11069 0.48266 0.01827 0.0
C1642 C 0.10384 0.47436 1.00018 0.0
C1643 C 0.08143 0.49328 0.99853 0.0
C1644 C 0.10297 0.49663 0.0264 0.0
C1645 C 0.08931 0.47966 0.99039 0.0
C1646 C 0.03767 0.52732 0.06608 0.0
C1647 C 0.08167 0.51812 0.024 0.0
H1648 H 0.9179 0.55221 0.08237 0.0
H1649 H 0.96532 0.52917 0.0804 0.0
H1650 H 0.93823 0.53333 0.09535 0.0
H1651 H 0.9513 0.56234 0.03801 0.0
H1652 H 0.10994 0.46391 0.99352 0.0
H1653 H 0.07033 0.49732 0.99048 0.0
H1654 H 0.10856 0.50344 0.04014 0.0
H1655 H 0.08428 0.47333 0.97635 0.0
H1656 H 0.0234 0.23782 0.98943 0.0
H1657 H 0.02976 0.21081 0.0031 0.0
H1658 H 1.00774 0.17856 0.951 0.0
H1659 H 1.00173 0.20542 0.93728 0.0
H1660 H 0.01064 0.1798 0.0108 0.0
H1661 H 0.05437 0.16171 0.95789 0.0
H1662 H 0.04684 0.18294 0.95948 0.0
H1663 H 0.0325 0.16312 0.94713 0.0
C1664 C 0.01989 0.22498 0.98085 0.0
C1665 C 0.01207 0.22405 0.96209 0.0
C1666 C 0.02355 0.20941 0.98874 0.0
C1667 C 0.01972 0.19233 0.97812 0.0
C1668 C 0.01145 0.19139 0.95956 0.0
H1669 H 0.02565 0.08058 0.99376 0.0
H1670 H 0.02076 0.10918 0.98343 0.0
C1671 C 1.0078 0.2069 0.95169 0.0
C1672 C 0.02423 0.1756 0.9863 0.0
H1673 H 0.04455 0.13911 0.97736 0.0
C1674 C 0.01821 0.17105 0.0035 0.0
C1675 C 0.03425 0.1639 0.97714 0.0
C1676 C 0.04253 0.16824 0.95951 0.0
C1677 C 0.02128 0.15514 0.01122 0.0
C1678 C 0.03086 0.14323 0.00175 0.0
C1679 C 0.03711 0.14794 0.98474 0.0
C1680 C 0.03397 0.12557 0.00871 0.0
C1681 C 0.01363 0.1509 0.0292 0.0
C1682 C 0.04325 0.12474 0.0265 0.0
C1683 C 0.04612 0.10815 0.03256 0.0
C1684 C 0.03991 0.09177 0.021 0.0
C1685 C 0.03073 0.09271 0.00321 0.0
C1686 C 0.0279 0.10922 0.99719 0.0
H1687 H 1.0033 0.15904 0.03253 0.0
H1688 H 1.00752 0.13645 0.02834 0.0
H1689 H 0.02461 0.15387 0.04097 0.0
H1690 H 0.04851 0.13698 0.0357 0.0
H1691 H 0.05322 0.1082 0.04633 0.0
H1692 H 0.09943 0.81879 0.16991 0.0
H1693 H 0.12621 0.81931 0.19182 0.0
H1694 H 0.14414 0.78167 0.15253 0.0
H1695 H 0.11791 0.78207 0.13014 0.0
H1696 H 0.13727 0.79608 0.21054 0.0
H1697 H 0.19006 0.81481 0.16453 0.0
H1698 H 0.16682 0.81555 0.15763 0.0
H1699 H 0.175 0.79469 0.15458 0.0
C1700 C 0.10928 0.8109 0.16579 0.0
C1701 C 0.10664 0.80061 0.14812 0.0
C1702 C 0.1246 0.81111 0.17841 0.0
C1703 C 0.13764 0.80081 0.1739 0.0
C1704 C 0.13483 0.79032 0.15628 0.0
H1705 H 0.22521 0.76906 0.24311 0.0
H1706 H 0.19875 0.77027 0.22107 0.0
C1707 C 0.11971 0.79045 0.14345 0.0
C1708 C 0.15362 0.80054 0.18791 0.0
H1709 H 0.19942 0.80354 0.19302 0.0
C1710 C 0.15083 0.79789 0.20663 0.0
C1711 C 0.17155 0.80299 0.18314 0.0
C1712 C 0.17606 0.80736 0.16394 0.0
C1713 C 0.16521 0.7973 0.22036 0.0
C1714 C 0.1829 0.79916 0.21535 0.0
C1715 C 0.18581 0.80193 0.1968 0.0
C1716 C 0.19858 0.79832 0.22921 0.0
C1717 C 0.16148 0.79456 0.24018 0.0
C1718 C 0.20727 0.81364 0.24121 0.0
C1719 C 0.22256 0.81303 0.25358 0.0
C1720 C 0.22937 0.79706 0.25423 0.0
C1721 C 0.22036 0.7816 0.24267 0.0
C1722 C 0.20523 0.78227 0.23013 0.0
H1723 H 0.14691 0.79267 0.24179 0.0
H1724 H 0.16677 0.78266 0.24447 0.0
H1725 H 0.1686 0.80639 0.24989 0.0
H1726 H 0.20235 0.82615 0.24082 0.0
H1727 H 0.22919 0.82506 0.2625 0.0
H1728 H 0.51571 0.81899 0.49006 0.0
H1729 H 0.51654 0.84998 0.5041 0.0
H1730 H 0.51207 0.86721 0.44882 0.0
H1731 H 0.51124 0.8365 0.43482 0.0
H1732 H 0.53987 0.8831 0.5018 0.0
H1733 H 0.47078 0.8859 0.4718 0.0
H1734 H 0.47899 0.86507 0.47252 0.0
H1735 H 0.48458 0.87924 0.45449 0.0
C1736 C 0.51493 0.82939 0.48089 0.0
C1737 C 0.51331 0.82507 0.46123 0.0
C1738 C 0.51543 0.84718 0.48896 0.0
C1739 C 0.51406 0.86112 0.4776 0.0
C1740 C 0.51279 0.85683 0.45801 0.0
H1741 H 0.5239 0.97719 0.48986 0.0
H1742 H 0.52194 0.94518 0.47995 0.0
C1743 C 0.51243 0.83916 0.44998 0.0
C1744 C 0.51384 0.88007 0.48599 0.0
H1745 H 0.48916 0.91383 0.4847 0.0
C1746 C 0.52867 0.8897 0.4982 0.0
C1747 C 0.49926 0.88892 0.48151 0.0
C1748 C 0.48241 0.87923 0.46952 0.0
C1749 C 0.52953 0.90788 0.50536 0.0
C1750 C 0.51518 0.91682 0.5004 0.0
C1751 C 0.50023 0.90712 0.48853 0.0
C1752 C 0.51585 0.93643 0.50669 0.0
C1753 C 0.54603 0.9177 0.51779 0.0
C1754 C 0.51273 0.94242 0.52502 0.0
C1755 C 0.51356 0.96087 0.53071 0.0
C1756 C 0.51783 0.97386 0.51832 0.0
C1757 C 0.52072 0.96773 0.49992 0.0
C1758 C 0.5196 0.94933 0.49418 0.0
H1759 H 0.5566 0.90936 0.5194 0.0
H1760 H 0.55167 0.93015 0.51189 0.0
H1761 H 0.54229 0.92172 0.5319 0.0
H1762 H 0.50971 0.93282 0.53497 0.0
H1763 H 0.51129 0.96499 0.54497 0.0
H1764 H 0.51576 0.2646 0.65333 0.0
H1765 H 0.48976 0.26167 0.67118 0.0
H1766 H 0.47686 0.3106 0.65229 0.0
H1767 H 0.50209 0.31264 0.63322 0.0
H1768 H 0.48274 0.28088 0.69934 0.0
H1769 H 0.42835 0.2817 0.64248 0.0
H1770 H 0.45084 0.27994 0.63765 0.0
H1771 H 0.44546 0.30142 0.64527 0.0
C1772 C 0.50713 0.27452 0.65276 0.0
C1773 C 0.51069 0.28867 0.64172 0.0
C1774 C 0.49232 0.27292 0.66303 0.0
C1775 C 0.48099 0.28572 0.66292 0.0
C1776 C 0.48484 0.30013 0.65213 0.0
H1777 H 0.40236 0.29301 0.74481 0.0
H1778 H 0.42538 0.3013 0.72369 0.0
C1779 C 0.49934 0.30138 0.64133 0.0
C1780 C 0.4657 0.28413 0.67468 0.0
H1781 H 0.42023 0.28226 0.6735 0.0
C1782 C 0.46911 0.28122 0.6936 0.0
C1783 C 0.44778 0.28459 0.66735 0.0
C1784 C 0.44283 0.28691 0.64704 0.0
C1785 C 0.45523 0.27845 0.70517 0.0
C1786 C 0.43745 0.27887 0.69782 0.0
C1787 C 0.43395 0.28211 0.6791 0.0
C1788 C 0.42225 0.27457 0.70913 0.0
C1789 C 0.4595 0.27454 0.7251 0.0
C1790 C 0.4127 0.25692 0.70766 0.0
C1791 C 0.39977 0.25215 0.71978 0.0
C1792 C 0.39599 0.26502 0.73344 0.0
C1793 C 0.40494 0.2829 0.7343 0.0
C1794 C 0.41808 0.28762 0.72231 0.0
H1795 H 0.47399 0.27433 0.72864 0.0
H1796 H 0.45556 0.28488 0.735 0.0
H1797 H 0.45157 0.26134 0.72722 0.0
H1798 H 0.41573 0.24667 0.69759 0.0
H1799 H 0.39303 0.23829 0.71882 0.0
H1800 H 0.03702 0.82314 0.67963 0.0
H1801 H 0.04039 0.84937 0.66204 0.0
H1802 H 0.01857 0.81529 0.61092 0.0
H1803 H 0.0153 0.78898 0.62838 0.0
H1804 H 0.06053 0.85468 0.62974 0.0
H1805 H 0.9879 0.85597 0.61351 0.0
H1806 H 0.99641 0.84443 0.63225 0.0
H1807 H 0.99439 0.83456 0.60831 0.0
C1808 C 0.03283 0.82124 0.66466 0.0
C1809 C 0.02576 0.80399 0.65541 0.0
C1810 C 0.03481 0.83624 0.65463 0.0
C1811 C 0.02951 0.83433 0.63521 0.0
C1812 C 0.02249 0.81712 0.62594 0.0
H1813 H 0.03776 0.9027 0.54593 0.0
H1814 H 0.0291 0.8788 0.56576 0.0
C1815 C 0.02069 0.80209 0.63592 0.0
C1816 C 0.03169 0.85025 0.62456 0.0
H1817 H 1.0082 0.87558 0.59833 0.0
C1818 C 0.0491 0.85935 0.62301 0.0
C1819 C 0.01676 0.8563 0.61574 0.0
C1820 C 0.99777 0.84745 0.6176 0.0
C1821 C 0.05197 0.87405 0.61249 0.0
C1822 C 0.03704 0.88005 0.60358 0.0
C1823 C 0.01962 0.87102 0.60523 0.0
C1824 C 0.03941 0.89528 0.59195 0.0
C1825 C 0.071 0.88273 0.61051 0.0
C1826 C 0.04725 0.91271 0.60014 0.0
C1827 C 0.05196 0.92641 0.58883 0.0
C1828 C 0.0488 0.92293 0.56918 0.0
C1829 C 0.03991 0.90581 0.56107 0.0
C1830 C 0.03513 0.89213 0.57237 0.0
H1831 H 0.0809 0.87444 0.61518 0.0
H1832 H 0.07246 0.88507 0.59568 0.0
H1833 H 0.07433 0.89595 0.6192 0.0
H1834 H 0.05052 0.91548 0.61523 0.0
H1835 H 0.05919 0.93938 0.59537 0.0
H1836 H 0.4968 0.83466 0.83392 0.0
H1837 H 0.46541 0.83368 0.82142 0.0
H1838 H 0.45455 0.77638 0.82323 0.0
H1839 H 0.48543 0.77772 0.83728 0.0
H1840 H 0.44429 0.82112 0.7926 0.0
H1841 H 0.41358 0.78525 0.84808 0.0
H1842 H 0.43743 0.79315 0.84962 0.0
H1843 H 0.42721 0.77205 0.83609 0.0
C1844 C 0.48765 0.82187 0.83171 0.0
C1845 C 0.49363 0.8063 0.8368 0.0
C1846 C 0.4696 0.82128 0.82452 0.0
C1847 C 0.45701 0.80502 0.82179 0.0
C1848 C 0.46338 0.78931 0.82596 0.0
H1849 H 0.34438 0.77073 0.7746 0.0
H1850 H 0.37616 0.7736 0.78597 0.0
C1851 C 0.48124 0.79002 0.83378 0.0
C1852 C 0.43746 0.80453 0.81447 0.0
H1853 H 0.39389 0.78728 0.82096 0.0
C1854 C 0.43335 0.81382 0.79901 0.0
C1855 C 0.42276 0.79515 0.82262 0.0
C1856 C 0.42547 0.78602 0.84013 0.0
C1857 C 0.4154 0.81362 0.79136 0.0
C1858 C 0.40083 0.80385 0.79923 0.0
C1859 C 0.40489 0.79468 0.81471 0.0
C1860 C 0.38133 0.80254 0.79152 0.0
C1861 C 0.41224 0.82354 0.77454 0.0
C1862 C 0.37318 0.8178 0.79086 0.0
C1863 C 0.35473 0.81617 0.78445 0.0
C1864 C 0.34383 0.79926 0.77831 0.0
C1865 C 0.35211 0.78405 0.77901 0.0
C1866 C 0.37044 0.78566 0.78557 0.0
H1867 H 0.42455 0.82667 0.7674 0.0
H1868 H 0.40129 0.81562 0.76423 0.0
H1869 H 0.40816 0.83641 0.77921 0.0
H1870 H 0.38096 0.831 0.79573 0.0
H1871 H 0.34897 0.82818 0.78467 0.0
H1872 H 0.50364 0.22024 0.12709 0.0
H1873 H 0.50257 0.19347 0.10513 0.0
H1874 H 0.53131 0.17005 0.14807 0.0
H1875 H 0.5316 0.19656 0.17038 0.0
H1876 H 0.52733 0.17994 0.09031 0.0
H1877 H 0.49334 0.12797 0.13017 0.0
H1878 H 0.4949 0.15159 0.13722 0.0
H1879 H 0.51345 0.14058 0.14338 0.0
C1880 C 0.50953 0.20928 0.13196 0.0
C1881 C 0.5176 0.21052 0.15057 0.0
C1882 C 0.50896 0.19394 0.11932 0.0
C1883 C 0.5166 0.17942 0.12484 0.0
C1884 C 0.52478 0.18069 0.14346 0.0
H1885 H 0.54492 0.08664 0.06293 0.0
H1886 H 0.5431 0.11287 0.08474 0.0
C1887 C 0.52508 0.19595 0.15623 0.0
C1888 C 0.51663 0.16344 0.11085 0.0
H1889 H 0.50721 0.11743 0.10388 0.0
C1890 C 0.52274 0.16631 0.0933 0.0
C1891 C 0.51056 0.1455 0.11447 0.0
C1892 C 0.50252 0.14121 0.13224 0.0
C1893 C 0.52332 0.15192 0.07964 0.0
C1894 C 0.51779 0.13409 0.08355 0.0
C1895 C 0.51155 0.13113 0.10094 0.0
C1896 C 0.51888 0.11833 0.06996 0.0
C1897 C 0.53015 0.15578 0.06118 0.0
C1898 C 0.50596 0.11269 0.05426 0.0
C1899 C 0.50677 0.09739 0.042 0.0
C1900 C 0.52049 0.08743 0.04527 0.0
C1901 C 0.53373 0.09351 0.06059 0.0
C1902 C 0.53284 0.10865 0.07291 0.0
H1903 H 0.53493 0.17034 0.06064 0.0
H1904 H 0.54133 0.1485 0.05875 0.0
H1905 H 0.51923 0.15081 0.04956 0.0
H1906 H 0.4951 0.11997 0.05165 0.0
H1907 H 0.49646 0.09309 0.03023 0.0
H1908 H 0.08792 0.31714 0.31386 0.0
H1909 H 0.11515 0.31179 0.2998 0.0
H1910 H 0.13124 0.28617 0.3478 0.0
H1911 H 0.10442 0.29183 0.36204 0.0
H1912 H 0.15378 0.32278 0.31555 0.0
H1913 H 0.133 0.24887 0.30129 0.0
H1914 H 0.11715 0.26367 0.30496 0.0
H1915 H 0.13069 0.25822 0.32465 0.0
C1916 C 0.09727 0.31041 0.32147 0.0
C1917 C 0.09383 0.30501 0.33922 0.0
C1918 C 0.11292 0.30735 0.31338 0.0
C1919 C 0.12542 0.29839 0.32254 0.0
C1920 C 0.12193 0.29296 0.34022 0.0
H1921 H 0.22866 0.26594 0.30502 0.0
H1922 H 0.19985 0.27075 0.31555 0.0
C1923 C 0.10652 0.29632 0.34845 0.0
C1924 C 0.14212 0.29479 0.3139 0.0
H1925 H 0.16331 0.26085 0.29783 0.0
C1926 C 0.15574 0.30923 0.31153 0.0
C1927 C 0.14497 0.27714 0.30857 0.0
C1928 C 0.13066 0.26104 0.30981 0.0
C1929 C 0.17208 0.30652 0.30462 0.0
C1930 C 0.17503 0.28885 0.29952 0.0
C1931 C 0.16131 0.27442 0.30169 0.0
C1932 C 0.19238 0.28513 0.2924 0.0
C1933 C 0.1864 0.32264 0.30343 0.0
C1934 C 0.19794 0.29111 0.27553 0.0
C1935 C 0.21432 0.28795 0.26926 0.0
C1936 C 0.22581 0.27897 0.27978 0.0
C1937 C 0.2202 0.27287 0.29653 0.0
C1938 C 0.20366 0.27566 0.30259 0.0
H1939 H 0.18388 0.33487 0.31167 0.0
H1940 H 0.19988 0.32015 0.30861 0.0
H1941 H 0.18661 0.32529 0.28855 0.0
H1942 H 0.18958 0.29825 0.26715 0.0
H1943 H 0.21821 0.29292 0.25635 0.0
H1944 H 0.96996 0.04907 0.22864 0.0
H1945 H 0.98532 0.05474 0.20082 0.0
H1946 H 0.95132 0.00787 0.16982 0.0
H1947 H 0.93536 1.0027 0.19736 0.0
H1948 H 1.00499 0.03685 0.18203 0.0
H1949 H 0.94645 0.04241 0.13268 0.0
H1950 H 0.94503 0.04171 0.15748 0.0
H1951 H 0.94333 0.02126 0.14205 0.0
C1952 C 0.96571 0.04002 0.21586 0.0
C1953 C 0.95142 0.02545 0.2152 0.0
C1954 C 0.9745 0.04328 0.19992 0.0
C1955 C 0.96933 0.03197 0.18297 0.0
C1956 C 0.95525 0.01719 0.18244 0.0
H1957 H 0.03383 0.01813 0.09141 0.0
H1958 H 0.01866 0.01657 0.11996 0.0
C1959 C 0.94624 0.01411 0.19829 0.0
C1960 C 0.97915 0.03524 0.16618 0.0
H1961 H 0.97327 0.03876 0.11901 0.0
C1962 C 0.99801 0.03738 0.1683 0.0
C1963 C 0.9702 0.0363 0.14822 0.0
C1964 C 0.95016 0.0355 0.145 0.0
C1965 C 1.00802 0.03996 0.15298 0.0
C1966 C 0.99898 0.04004 0.1349 0.0
C1967 C 0.98021 0.03846 0.13283 0.0
C1968 C 1.00869 0.04136 0.11788 0.0
C1969 C 0.02826 0.04286 0.15631 0.0
C1970 C 1.00781 0.05559 0.1069 0.0
C1971 C 0.01616 0.05628 0.09035 0.0
C1972 C 0.0257 0.04286 0.08462 0.0
C1973 C 0.02679 0.02878 0.09571 0.0
C1974 C 0.01818 0.02792 0.11205 0.0
H1975 H 0.03326 0.04628 0.17146 0.0
H1976 H 0.03288 0.03041 0.15123 0.0
H1977 H 0.03436 0.0538 0.14845 0.0
H1978 H 1.00059 0.06612 0.11111 0.0
H1979 H 0.01528 0.06735 0.0821 0.0
H1980 H 0.2565 0.63198 0.47802 0.0
H1981 H 0.25689 0.6494 0.45095 0.0
H1982 H 0.27707 0.6981 0.48805 0.0
H1983 H 0.27662 0.68104 0.51497 0.0
H1984 H 0.23731 0.68041 0.45029 0.0
H1985 H 0.3105 0.69786 0.44413 0.0
H1986 H 0.30064 0.67837 0.45466 0.0
H1987 H 0.30411 0.70029 0.46754 0.0
C1988 C 0.26119 0.64637 0.48026 0.0
C1989 C 0.26653 0.65526 0.49839 0.0
C1990 C 0.26147 0.65619 0.46492 0.0
C1991 C 0.26741 0.6748 0.46774 0.0
C1992 C 0.27287 0.68364 0.48578 0.0
H1993 H 0.25203 0.76587 0.41588 0.0
H1994 H 0.26312 0.74518 0.43644 0.0
C1995 C 0.27241 0.67392 0.50107 0.0
C1996 C 0.26621 0.6855 0.45218 0.0
H1997 H 0.29147 0.71524 0.42846 0.0
C1998 C 0.24908 0.68776 0.44517 0.0
C1999 C 0.28174 0.69512 0.44602 0.0
C2000 C 0.30032 0.69274 0.45335 0.0
C2001 C 0.24705 0.70011 0.43244 0.0
C2002 C 0.26258 0.71008 0.42664 0.0
C2003 C 0.27972 0.70745 0.43316 0.0
C2004 C 0.26079 0.72357 0.41403 0.0
C2005 C 0.22841 0.7029 0.42568 0.0
C2006 C 0.25639 0.71806 0.39486 0.0
C2007 C 0.24987 0.7296 0.38333 0.0
C2008 C 0.24779 0.74671 0.39095 0.0
C2009 C 0.25327 0.75258 0.40996 0.0
C2010 C 0.25985 0.74099 0.42152 0.0
H2011 H 0.21781 0.69472 0.43247 0.0
H2012 H 0.22744 0.71727 0.42862 0.0
H2013 H 0.22571 0.69925 0.41025 0.0
H2014 H 0.25687 0.70449 0.38912 0.0
H2015 H 0.2457 0.72488 0.36863 0.0
H2016 H 0.67106 0.02322 0.68765 0.0
H2017 H 0.65039 0.01744 0.65856 0.0
H2018 H 0.6201 0.05592 0.68102 0.0
H2019 H 0.64047 0.06175 0.70995 0.0
H2020 H 0.6116 1.00552 0.66203 0.0
H2021 H 0.62687 0.06682 0.6259 0.0
H2022 H 0.64321 0.05986 0.64221 0.0
H2023 H 0.6262 0.07117 0.65077 0.0
C2024 C 0.66019 0.03067 0.68614 0.0
C2025 C 0.65711 0.04278 0.70088 0.0
C2026 C 0.64854 0.0274 0.66964 0.0
C2027 C 0.6341 0.03647 0.66789 0.0
C2028 C 0.63149 0.04912 0.68225 0.0
H2029 H 0.5413 0.04372 0.59971 0.0
H2030 H 0.56203 0.04274 0.62741 0.0
C2031 C 0.64298 0.05229 0.69873 0.0
C2032 C 0.62017 0.03124 0.65229 0.0
H2033 H 0.59745 0.049 0.61821 0.0
C2034 C 0.60857 0.01477 0.65212 0.0
C2035 C 0.61649 0.04362 0.63982 0.0
C2036 C 0.62894 0.06131 0.63954 0.0
C2037 C 0.59254 0.01073 0.64022 0.0
C2038 C 0.58853 0.02346 0.6283 0.0
C2039 C 0.60058 0.03955 0.62787 0.0
C2040 C 0.57245 0.02013 0.61511 0.0
C2041 C 0.57977 0.99333 0.64088 0.0
C2042 C 0.57109 0.00711 0.59978 0.0
C2043 C 0.55916 0.00745 0.58417 0.0
C2044 C 0.54885 0.02102 0.58381 0.0
C2045 C 0.5491 0.03308 0.59982 0.0
C2046 C 0.56084 0.03253 0.61556 0.0
H2047 H 0.58283 0.9871 0.65388 0.0
H2048 H 0.56565 0.99548 0.64003 0.0
H2049 H 0.58094 0.98372 0.62867 0.0
H2050 H 0.5803 0.99773 0.5992 0.0
H2051 H 0.55898 0.99792 0.57194 0.0
H2052 H 0.29583 0.38831 0.96793 0.0
H2053 H 0.29561 0.37254 0.93661 0.0
H2054 H 0.2953 0.32274 0.96067 0.0
H2055 H 0.29572 0.3385 0.99215 0.0
H2056 H 0.32197 0.35164 0.9245 0.0
H2057 H 0.25266 0.31177 0.91729 0.0
H2058 H 0.25991 0.33168 0.93382 0.0
H2059 H 0.26645 0.31091 0.93881 0.0
C2060 C 0.29562 0.37397 0.96656 0.0
C2061 C 0.29579 0.36464 0.98253 0.0
C2062 C 0.29553 0.36499 0.94864 0.0
C2063 C 0.29531 0.34644 0.94626 0.0
C2064 C 0.2953 0.33703 0.96215 0.0
H2065 H 0.30082 0.27338 0.84527 0.0
H2066 H 0.30268 0.28677 0.87811 0.0
C2067 C 0.29561 0.34606 0.98013 0.0
C2068 C 0.2956 0.33707 0.92719 0.0
H2069 H 0.27062 0.30589 0.89316 0.0
C2070 C 0.31077 0.34159 0.91768 0.0
C2071 C 0.28093 0.32405 0.91824 0.0
C2072 C 0.26397 0.31934 0.92743 0.0
C2073 C 0.3117 0.33333 0.89955 0.0
C2074 C 0.29707 0.32029 0.89065 0.0
C2075 C 0.28192 0.31571 0.90014 0.0
C2076 C 0.29675 0.31225 0.87095 0.0
C2077 C 0.32825 0.33861 0.88989 0.0
C2078 C 0.29292 0.32218 0.85612 0.0
C2079 C 0.29162 0.31454 0.8375 0.0
C2080 C 0.29428 0.29681 0.83322 0.0
C2081 C 0.29867 0.28704 0.8481 0.0
C2082 C 0.2997 0.29464 0.86683 0.0
H2083 H 0.33943 0.34698 0.89961 0.0
H2084 H 0.33286 0.32645 0.88383 0.0
H2085 H 0.32494 0.34636 0.87814 0.0
H2086 H 0.29065 0.33579 0.85899 0.0
H2087 H 0.28847 0.32257 0.82642 0.0
H2088 H 0.93104 1.00046 0.32516 0.0
H2089 H 0.94702 1.00093 0.35652 0.0
H2090 H 0.99065 0.03982 0.34261 0.0
H2091 H 0.97492 0.03906 0.31097 0.0
H2092 H 0.9887 0.99606 0.3634 0.0
H2093 H 0.96924 0.05847 0.39528 0.0
H2094 H 0.95539 0.04415 0.376 0.0
H2095 H 0.97597 0.05787 0.37188 0.0
C2096 C 0.94405 0.00909 0.32878 0.0
C2097 C 0.95178 0.01968 0.31562 0.0
C2098 C 0.95316 0.00933 0.34667 0.0
C2099 C 0.96997 0.02044 0.35188 0.0
C2100 C 0.97769 0.03114 0.33883 0.0
H2101 H 0.03743 0.04627 0.45943 0.0
H2102 H 0.02408 0.04547 0.42679 0.0
C2103 C 0.96873 0.03065 0.32078 0.0
C2104 C 0.97951 0.02067 0.3709 0.0
H2105 H 0.98825 0.04452 0.41444 0.0
C2106 C 0.98865 1.00664 0.37458 0.0
C2107 C 0.9794 0.0345 0.3854 0.0
C2108 C 0.96945 0.04964 0.38214 0.0
C2109 C 0.99783 1.00616 0.3924 0.0
C2110 C 0.99758 0.01991 0.40702 0.0
C2111 C 0.98848 0.03399 0.40325 0.0
C2112 C 1.00644 0.01983 0.4264 0.0
C2113 C 1.00798 0.99109 0.3953 0.0
C2114 C 1.00096 1.00574 0.43708 0.0
C2115 C 1.0086 1.00622 0.45566 0.0
C2116 C 0.02193 0.0207 0.46383 0.0
C2117 C 0.02744 0.03477 0.45322 0.0
C2118 C 0.01976 0.03436 0.43466 0.0
H2119 H 0.01091 0.98456 0.38176 0.0
H2120 H 0.02085 0.99603 0.4044 0.0
H2121 H 0.99973 0.98074 0.40229 0.0
H2122 H 0.99037 0.99464 0.43126 0.0
H2123 H 1.00364 0.99561 0.46382 0.0
H2124 H 0.29381 0.68161 0.58308 0.0
H2125 H 0.29853 0.70257 0.61147 0.0
H2126 H 0.27028 0.66186 0.64122 0.0
H2127 H 0.26549 0.64043 0.61257 0.0
H2128 H 0.25958 0.70175 0.63572 0.0
H2129 H 0.32819 0.69663 0.66673 0.0
H2130 H 0.3233 0.69346 0.64147 0.0
H2131 H 0.31218 0.67745 0.65523 0.0
C2132 C 0.28882 0.67702 0.59573 0.0
C2133 C 0.27923 0.65957 0.59584 0.0
C2134 C 0.29158 0.68893 0.61183 0.0
C2135 C 0.28477 0.68347 0.62808 0.0
C2136 C 0.27565 0.66595 0.62856 0.0
H2137 H 0.30536 0.74856 0.73203 0.0
H2138 H 0.30412 0.72636 0.70572 0.0
C2139 C 0.27299 0.65386 0.61238 0.0
C2140 C 0.28609 0.69691 0.64392 0.0
H2141 H 0.31679 0.72228 0.67716 0.0
C2142 C 0.27182 0.70611 0.64527 0.0
C2143 C 0.30224 0.70234 0.65573 0.0
C2144 C 0.31741 0.69196 0.6549 0.0
C2145 C 0.27321 0.72086 0.65866 0.0
C2146 C 0.28979 0.72694 0.67013 0.0
C2147 C 0.30413 0.71768 0.66837 0.0
C2148 C 0.29197 0.74146 0.68548 0.0
C2149 C 0.25671 0.72923 0.66045 0.0
C2150 C 0.28596 0.75756 0.68293 0.0
C2151 C 0.28463 0.76931 0.69846 0.0
C2152 C 0.2913 0.76608 0.71639 0.0
C2153 C 0.29958 0.75118 0.71848 0.0
C2154 C 0.29924 0.7386 0.70331 0.0
H2155 H 0.24422 0.7198 0.65439 0.0
H2156 H 0.25532 0.73345 0.67534 0.0
H2157 H 0.25764 0.7411 0.65251 0.0
H2158 H 0.28136 0.76059 0.66911 0.0
H2159 H 0.27805 0.78059 0.69638 0.0
H2160 H 0.68078 0.06738 0.81612 0.0
H2161 H 0.66424 0.06708 0.84371 0.0
H2162 H 0.61807 0.03386 0.81059 0.0
H2163 H 0.63438 0.03411 0.78296 0.0
H2164 H 0.62948 0.07931 0.84215 0.0
H2165 H 0.62657 0.00959 0.86057 0.0
H2166 H 0.64396 0.02069 0.84797 0.0
H2167 H 0.62199 0.01181 0.83599 0.0
C2168 C 0.66715 0.05992 0.81481 0.0
C2169 C 0.65875 0.05079 0.79755 0.0
C2170 C 0.65785 0.05966 0.83051 0.0
C2171 C 0.64025 0.05009 0.82904 0.0
C2172 C 0.63186 0.04092 0.81188 0.0
H2173 H 0.54864 0.05941 0.88288 0.0
H2174 H 0.56995 0.04935 0.86249 0.0
C2175 C 0.64108 0.04127 0.79616 0.0
C2176 C 0.62975 0.05141 0.84479 0.0
H2177 H 0.60615 0.02642 0.8741 0.0
C2178 C 0.62459 0.06788 0.8494 0.0
C2179 C 0.62352 0.03633 0.85392 0.0
C2180 C 0.62938 0.0186 0.84951 0.0
C2181 C 0.61257 0.0695 0.86258 0.0
C2182 C 0.60577 0.05426 0.8712 0.0
C2183 C 0.61142 0.03793 0.86716 0.0
C2184 C 0.59248 0.05544 0.88423 0.0
C2185 C 0.60678 0.08733 0.8669 0.0
C2186 C 0.59835 0.06164 0.90304 0.0
C2187 C 0.58641 0.06757 0.91449 0.0
C2188 C 0.56856 0.06731 0.90714 0.0
C2189 C 0.56246 0.06 0.88859 0.0
C2190 C 0.57444 0.05401 0.87714 0.0
H2191 H 0.61371 0.09795 0.85917 0.0
H2192 H 0.59207 0.08584 0.86308 0.0
H2193 H 0.60964 0.09178 0.8822 0.0
H2194 H 0.61237 0.06302 0.90845 0.0
H2195 H 0.59133 0.07318 0.92882 0.0
H2196 H 0.29777 0.39197 0.10399 0.0
H2197 H 0.29171 0.37663 0.13186 0.0
H2198 H 0.27959 0.32567 0.09737 0.0
H2199 H 0.28573 0.34085 0.06953 0.0
H2200 H 0.25889 0.35182 0.13862 0.0
H2201 H 0.31935 0.31989 0.13895 0.0
H2202 H 0.31699 0.33874 0.12606 0.0
H2203 H 0.30498 0.31667 0.11715 0.0
C2204 C 0.29388 0.37749 0.10235 0.0
C2205 C 0.29244 0.36761 0.08455 0.0
C2206 C 0.29033 0.36875 0.11828 0.0
C2207 C 0.28536 0.34998 0.11674 0.0
C2208 C 0.28365 0.34014 0.09895 0.0
H2209 H 0.27895 0.27277 0.1978 0.0
H2210 H 0.27879 0.28785 0.16968 0.0
C2211 C 0.28719 0.34884 0.08304 0.0
C2212 C 0.28235 0.34061 0.13375 0.0
H2213 H 0.29959 0.3121 0.16115 0.0
C2214 C 0.26772 0.34307 0.1436 0.0
C2215 C 0.2938 0.32914 0.14013 0.0
C2216 C 0.30976 0.32599 0.13015 0.0
C2217 C 0.26392 0.33395 0.15935 0.0
C2218 C 0.27561 0.32264 0.16603 0.0
C2219 C 0.29042 0.32052 0.15619 0.0
C2220 C 0.27295 0.31266 0.18293 0.0
C2221 C 0.24701 0.33612 0.16804 0.0
C2222 C 0.26919 0.32109 0.2 0.0
C2223 C 0.26771 0.31177 0.21588 0.0
C2224 C 0.27091 0.29406 0.21545 0.0
C2225 C 0.27528 0.2859 0.19857 0.0
C2226 C 0.27572 0.29482 0.18245 0.0
H2227 H 0.23676 0.33958 0.15765 0.0
H2228 H 0.24101 0.32371 0.17379 0.0
H2229 H 0.25022 0.34733 0.17956 0.0
H2230 H 0.26788 0.33505 0.20134 0.0
H2231 H 0.26479 0.31875 0.22871 0.0
H2232 H 0.27041 0.97195 0.01035 0.0
H2233 H 0.24636 0.98811 0.01707 0.0
H2234 H 0.20702 0.94016 0.99806 0.0
H2235 H 0.23115 0.92362 0.99186 0.0
H2236 H 0.21777 0.99385 0.99328 0.0
H2237 H 0.19646 0.95483 0.05147 0.0
H2238 H 0.21745 0.95418 0.0419 0.0
H2239 H 0.19685 0.94126 0.02977 0.0
C2240 C 0.25661 0.96492 0.00737 0.0
C2241 C 0.25242 0.94665 1.00054 0.0
C2242 C 0.24299 0.97412 0.01126 0.0
C2243 C 0.22516 0.96514 0.00812 0.0
C2244 C 0.22087 0.94706 1.00073 0.0
H2245 H 0.12827 0.99826 0.03503 0.0
H2246 H 0.14914 0.98625 0.01546 0.0
C2247 C 0.23453 0.93774 0.9971 0.0
C2248 C 0.21106 0.97475 0.01297 0.0
H2249 H 0.17864 0.97562 0.04213 0.0
C2250 C 0.20907 0.98988 0.00385 0.0
C2251 C 0.20022 0.96951 0.02705 0.0
C2252 C 0.20293 0.95418 0.03827 0.0
C2253 C 0.19619 1.00001 0.00847 0.0
C2254 C 0.18512 0.99451 0.02219 0.0
C2255 C 0.18705 0.97935 0.03123 0.0
C2256 C 0.17247 1.00505 0.02903 0.0
C2257 C 0.19461 0.01659 0.999 0.0
C2258 C 0.17896 0.01968 0.04265 0.0
C2259 C 0.16726 0.02614 0.05408 0.0
C2260 C 0.14913 0.01798 0.05173 0.0
C2261 C 0.14238 1.00437 0.03707 0.0
C2262 C 0.15412 0.99778 0.02578 0.0
H2263 H 0.2025 0.01755 0.98679 0.0
H2264 H 0.18031 0.01668 0.99422 0.0
H2265 H 0.19964 0.02865 0.00926 0.0
H2266 H 0.19322 0.02513 0.04538 0.0
H2267 H 0.17239 0.03698 0.06515 0.0
H2268 H 0.73122 0.62434 0.98872 0.0
H2269 H 0.7024 0.60374 0.98695 0.0
H2270 H 0.68188 0.64322 0.02155 0.0
H2271 H 0.71042 0.66404 0.02288 0.0
H2272 H 0.68686 0.58942 0.01529 0.0
H2273 H 0.64111 0.62853 0.98013 0.0
H2274 H 0.66524 0.63436 0.98102 0.0
H2275 H 0.65408 0.64086 1.00084 0.0
C2276 C 0.72049 0.62868 0.99577 0.0
C2277 C 0.72304 0.64581 0.0059 0.0
C2278 C 0.70404 0.61691 0.99475 0.0
C2279 C 0.68987 0.62202 0.00388 0.0
C2280 C 0.69242 0.63914 0.01397 0.0
H2281 H 0.59945 0.55553 0.04183 0.0
H2282 H 0.62832 0.57464 0.03865 0.0
C2283 C 0.70879 0.65098 0.01483 0.0
C2284 C 0.6729 0.60903 0.00388 0.0
H2285 H 0.62724 0.60354 0.99474 0.0
C2286 C 0.67384 0.59247 0.01066 0.0
C2287 C 0.65591 0.61293 0.99766 0.0
C2288 C 0.654 0.63006 0.98933 0.0
C2289 C 0.65826 0.57992 0.01185 0.0
C2290 C 0.64131 0.58413 0.00635 0.0
C2291 C 0.64031 0.60045 0.99911 0.0
C2292 C 0.62443 0.57184 0.00825 0.0
C2293 C 0.65999 0.56215 0.01883 0.0
C2294 C 0.61271 0.56411 0.99222 0.0
C2295 C 0.59619 0.55348 0.99406 0.0
C2296 C 0.59134 0.55029 0.01192 0.0
C2297 C 0.60324 0.55753 0.02793 0.0
C2298 C 0.61962 0.56845 0.02612 0.0
H2299 H 0.674 0.55969 0.01937 0.0
H2300 H 0.65585 0.56198 0.03319 0.0
H2301 H 0.65101 0.55099 0.00963 0.0
H2302 H 0.61621 0.56657 0.97833 0.0
H2303 H 0.58704 0.54803 0.98158 0.0
H2304 H 0.64268 0.48192 0.28772 0.0
H2305 H 0.65923 0.45704 0.28514 0.0
H2306 H 0.70555 0.49323 0.27223 0.0
H2307 H 0.68933 0.51822 0.27548 0.0
H2308 H 0.67382 0.44285 0.25597 0.0
H2309 H 0.72779 0.46973 0.31381 0.0
H2310 H 0.70764 0.47911 0.31042 0.0
H2311 H 0.72598 0.48523 0.29678 0.0
C2312 C 0.65644 0.48456 0.28447 0.0
C2313 C 0.66481 0.50203 0.28203 0.0
C2314 C 0.66587 0.47035 0.28299 0.0
C2315 C 0.68377 0.47335 0.27896 0.0
C2316 C 0.69196 0.49071 0.276 0.0
H2317 H 0.7636 0.41777 0.24478 0.0
H2318 H 0.74541 0.43855 0.25736 0.0
C2319 C 0.68264 0.50496 0.27774 0.0
C2320 C 0.69376 0.45828 0.27727 0.0
H2321 H 0.73332 0.44588 0.29217 0.0
C2322 C 0.68669 0.44334 0.2641 0.0
C2323 C 0.71049 0.4589 0.288 0.0
C2324 C 0.71833 0.47403 0.30318 0.0
C2325 C 0.69638 0.42948 0.2606 0.0
C2326 C 0.71347 0.43053 0.27076 0.0
C2327 C 0.7202 0.44511 0.28444 0.0
C2328 C 0.72546 0.41784 0.2658 0.0
C2329 C 0.68868 0.41434 0.24537 0.0
C2330 C 0.72071 0.39937 0.2672 0.0
C2331 C 0.73116 0.38743 0.26 0.0
C2332 C 0.74642 0.3939 0.25135 0.0
C2333 C 0.75181 0.41248 0.25128 0.0
C2334 C 0.74144 0.42434 0.25845 0.0
H2335 H 0.67682 0.41717 0.2367 0.0
H2336 H 0.69897 0.4118 0.23599 0.0
H2337 H 0.68438 0.4019 0.2519 0.0
H2338 H 0.70859 0.39415 0.27317 0.0
H2339 H 0.72673 0.37314 0.26015 0.0
H2340 H 0.84895 0.44412 0.53266 0.0
H2341 H 0.87882 0.46297 0.53588 0.0
H2342 H 0.87386 0.4661 0.47599 0.0
H2343 H 0.84343 0.44806 0.47299 0.0
H2344 H 0.90868 0.4576 0.51962 0.0
H2345 H 0.88415 0.51831 0.49807 0.0
H2346 H 0.86915 0.49882 0.50343 0.0
H2347 H 0.87797 0.49885 0.4811 0.0
C2348 C 0.85443 0.44881 0.52027 0.0
C2349 C 0.8444 0.445 0.50265 0.0
C2350 C 0.87128 0.45946 0.52208 0.0
C2351 C 0.87812 0.46598 0.50619 0.0
C2352 C 0.86838 0.46143 0.48837 0.0
H2353 H 0.97614 0.51736 0.48127 0.0
H2354 H 0.94605 0.50071 0.48338 0.0
C2355 C 0.85128 0.45116 0.48665 0.0
C2356 C 0.89538 0.47785 0.50852 0.0
H2357 H 0.91576 0.51988 0.5024 0.0
C2358 C 0.91027 0.4713 0.51611 0.0
C2359 C 0.89703 0.49565 0.50396 0.0
C2360 C 0.88119 0.5034 0.49634 0.0
C2361 C 0.92719 0.48213 0.51878 0.0
C2362 C 0.92883 0.49965 0.51367 0.0
C2363 C 0.91398 0.50638 0.5065 0.0
C2364 C 0.94624 0.51015 0.51276 0.0
C2365 C 0.94329 0.47469 0.52623 0.0
C2366 C 0.95559 0.52096 0.52861 0.0
C2367 C 0.97258 0.53057 0.52734 0.0
C2368 C 0.97989 0.52906 0.51032 0.0
C2369 C 0.97033 0.51858 0.49441 0.0
C2370 C 0.95341 0.50911 0.49562 0.0
H2371 H 0.93947 0.46094 0.53031 0.0
H2372 H 0.95267 0.47427 0.51533 0.0
H2373 H 0.95065 0.48363 0.53864 0.0
H2374 H 0.94985 0.52173 0.54181 0.0
H2375 H 0.98003 0.53889 0.53956 0.0
H2376 H 0.35443 0.05029 0.2683 0.0
H2377 H 0.3377 0.07439 0.264 0.0
H2378 H 0.36897 0.10602 0.31289 0.0
H2379 H 0.38636 0.08199 0.31685 0.0
H2380 H 0.31727 0.08828 0.28994 0.0
H2381 H 0.37288 0.13907 0.27094 0.0
H2382 H 0.37424 0.11563 0.27066 0.0
H2383 H 0.3771 0.12971 0.29258 0.0
C2384 C 0.35772 0.06242 0.27808 0.0
C2385 C 0.37143 0.06452 0.29295 0.0
C2386 C 0.3482 0.07605 0.27565 0.0
C2387 C 0.35218 0.09171 0.28823 0.0
C2388 C 0.36597 0.09393 0.30306 0.0
H2389 H 0.30815 0.18523 0.26941 0.0
H2390 H 0.31789 0.16273 0.28789 0.0
C2391 C 0.37578 0.08035 0.3053 0.0
C2392 C 0.34173 0.10564 0.28547 0.0
H2393 H 0.34431 0.14659 0.27003 0.0
C2394 C 0.32311 0.10122 0.28593 0.0
C2395 C 0.34966 0.12221 0.28004 0.0
C2396 C 0.36954 0.12697 0.27835 0.0
C2397 C 0.31194 0.11287 0.28028 0.0
C2398 C 0.31983 0.12922 0.27443 0.0
C2399 C 0.33852 0.134 0.27485 0.0
C2400 C 0.30919 0.14091 0.26568 0.0
C2401 C 0.29187 0.1074 0.27988 0.0
C2402 C 0.30085 0.1357 0.24732 0.0
C2403 C 0.29541 0.14851 0.23666 0.0
C2404 C 0.29837 0.16648 0.24441 0.0
C2405 C 0.30577 0.17138 0.2632 0.0
C2406 C 0.31112 0.15861 0.27381 0.0
H2407 H 0.28831 0.0966 0.28896 0.0
H2408 H 0.28574 0.11907 0.28448 0.0
H2409 H 0.28598 0.10227 0.26527 0.0
H2410 H 0.29967 0.12204 0.24085 0.0
H2411 H 0.28936 0.14452 0.22231 0.0
H2412 H 0.32916 0.168 0.53947 0.0
H2413 H 0.35312 0.15046 0.54399 0.0
H2414 H 0.33279 0.11762 0.49173 0.0
H2415 H 0.30844 0.13486 0.48735 0.0
H2416 H 0.34252 0.10524 0.53828 0.0
H2417 H 0.39312 0.14239 0.498 0.0
H2418 H 0.37754 0.15361 0.50987 0.0
H2419 H 0.36954 0.13819 0.48924 0.0
C2420 C 0.32997 0.15721 0.52882 0.0
C2421 C 0.3171 0.15282 0.51299 0.0
C2422 C 0.34357 0.14719 0.53146 0.0
C2423 C 0.34468 0.1329 0.51813 0.0
C2424 C 0.33208 0.12867 0.50212 0.0
H2425 H 0.41481 0.05312 0.52578 0.0
H2426 H 0.39298 0.07065 0.51312 0.0
C2427 C 0.31825 0.13849 0.49964 0.0
C2428 C 0.35864 0.12195 0.52142 0.0
H2429 H 0.40149 0.11848 0.5133 0.0
C2430 C 0.35534 0.10796 0.53268 0.0
C2431 C 0.37531 0.12573 0.51413 0.0
C2432 C 0.37927 0.1408 0.50213 0.0
C2433 C 0.3685 0.09772 0.53705 0.0
C2434 C 0.38527 0.10163 0.52996 0.0
C2435 C 0.3885 0.11547 0.51851 0.0
C2436 C 0.40001 0.09232 0.53573 0.0
C2437 C 0.36467 0.08304 0.5496 0.0
C2438 C 0.41138 0.09906 0.55223 0.0
C2439 C 0.42368 0.08914 0.55943 0.0
C2440 C 0.42486 0.07238 0.55016 0.0
C2441 C 0.41423 0.06611 0.53301 0.0
C2442 C 0.40176 0.07603 0.52586 0.0
H2443 H 0.35072 0.08129 0.55346 0.0
H2444 H 0.36682 0.07014 0.54245 0.0
H2445 H 0.37417 0.08624 0.56267 0.0
H2446 H 0.41013 0.11161 0.56 0.0
H2447 H 0.43175 0.09417 0.5727 0.0
H2448 H 0.66024 0.60053 0.26423 0.0
H2449 H 0.68106 0.62896 0.26508 0.0
H2450 H 0.70264 0.62345 0.32145 0.0
H2451 H 0.68264 0.59429 0.32006 0.0
H2452 H 0.68553 0.65955 0.28448 0.0
H2453 H 0.74832 0.63316 0.2997 0.0
H2454 H 0.72676 0.61855 0.29421 0.0
H2455 H 0.7336 0.62989 0.31758 0.0
C2456 C 0.6695 0.60537 0.27678 0.0
C2457 C 0.66997 0.59514 0.29201 0.0
C2458 C 0.68139 0.62165 0.27727 0.0
C2459 C 0.69382 0.62827 0.29316 0.0
C2460 C 0.69374 0.61839 0.30873 0.0
H2461 H 0.75734 0.73657 0.31487 0.0
H2462 H 0.73761 0.7079 0.31714 0.0
C2463 C 0.68218 0.6018 0.30802 0.0
C2464 C 0.70667 0.6455 0.29323 0.0
H2465 H 0.75129 0.66473 0.30023 0.0
C2466 C 0.69989 0.6606 0.28792 0.0
C2467 C 0.72552 0.64699 0.29757 0.0
C2468 C 0.734 0.63124 0.3024 0.0
C2469 C 0.71135 0.67698 0.28684 0.0
C2470 C 0.73003 0.67841 0.29142 0.0
C2471 C 0.73689 0.6635 0.29681 0.0
C2472 C 0.74267 0.69533 0.29046 0.0
C2473 C 0.70354 0.6926 0.28042 0.0
C2474 C 0.75236 0.69749 0.27491 0.0
C2475 C 0.76387 0.71372 0.27373 0.0
C2476 C 0.76562 0.72806 0.28798 0.0
C2477 C 0.75615 0.72572 0.30368 0.0
C2478 C 0.74487 0.70942 0.30497 0.0
H2479 H 0.68874 0.68916 0.27675 0.0
H2480 H 0.70665 0.70405 0.29168 0.0
H2481 H 0.70981 0.69712 0.26795 0.0
H2482 H 0.75072 0.68675 0.26354 0.0
H2483 H 0.77078 0.71534 0.26134 0.0
H2484 H 0.89089 0.46189 0.80784 0.0
H2485 H 0.87344 0.43155 0.80608 0.0
H2486 H 0.82511 0.45101 0.78867 0.0
H2487 H 0.84237 0.48143 0.79032 0.0
H2488 H 0.83715 0.41954 0.82334 0.0
H2489 H 0.83758 0.41233 0.74548 0.0
H2490 H 0.85419 0.42826 0.76101 0.0
H2491 H 0.83183 0.43258 0.7563 0.0
C2492 C 0.87652 0.4597 0.80381 0.0
C2493 C 0.86787 0.47375 0.79897 0.0
C2494 C 0.86667 0.44252 0.80295 0.0
C2495 C 0.84826 0.43948 0.79721 0.0
C2496 C 0.83942 0.45351 0.79313 0.0
H2497 H 0.76786 0.34527 0.77477 0.0
H2498 H 0.78517 0.37551 0.77415 0.0
C2499 C 0.84924 0.4707 0.79401 0.0
C2500 C 0.83849 0.42133 0.79381 0.0
H2501 H 0.82107 0.38838 0.75851 0.0
C2502 C 0.83358 0.41261 0.80925 0.0
C2503 C 0.83416 0.41276 0.77531 0.0
C2504 C 0.83977 0.42186 0.75852 0.0
C2505 C 0.82399 0.39513 0.80654 0.0
C2506 C 0.81972 0.38659 0.78799 0.0
C2507 C 0.82458 0.39532 0.7726 0.0
C2508 C 0.81038 0.36832 0.78437 0.0
C2509 C 0.81841 0.38595 0.82335 0.0
C2510 C 0.81941 0.35467 0.78925 0.0
C2511 C 0.80968 0.33767 0.78959 0.0
C2512 C 0.7911 0.33446 0.78467 0.0
C2513 C 0.78234 0.34772 0.77812 0.0
C2514 C 0.79207 0.36481 0.77791 0.0
H2515 H 0.82036 0.39551 0.83636 0.0
H2516 H 0.80408 0.37928 0.82078 0.0
H2517 H 0.82657 0.37544 0.82574 0.0
H2518 H 0.83362 0.35752 0.79424 0.0
H2519 H 0.81641 0.32769 0.79541 0.0
H2520 H 0.05931 0.85973 0.12128 0.0
H2521 H 0.05803 0.88953 0.11165 0.0
H2522 H 0.05514 0.86809 0.0537 0.0
H2523 H 0.05625 0.83806 0.06334 0.0
H2524 H 0.07927 0.91283 0.09368 0.0
H2525 H 0.0139 0.89459 0.04938 0.0
H2526 H 0.02194 0.87957 0.06474 0.0
H2527 H 0.03034 0.88177 0.04237 0.0
C2528 C 0.05837 0.86122 0.10642 0.0
C2529 C 0.05781 0.84609 0.09319 0.0
C2530 C 0.05765 0.87849 0.10088 0.0
C2531 C 0.05611 0.88152 0.08179 0.0
C2532 C 0.05582 0.86646 0.0685 0.0
H2533 H 0.04146 0.97698 0.02259 0.0
H2534 H 0.04377 0.94708 0.03152 0.0
C2535 C 0.05663 0.84912 0.07407 0.0
C2536 C 0.05512 0.90035 0.07606 0.0
H2537 H 0.02976 0.92405 0.04917 0.0
C2538 C 0.06839 0.9152 0.08392 0.0
C2539 C 0.04109 0.90397 0.06326 0.0
C2540 C 0.0259 0.8892 0.05455 0.0
C2541 C 0.06837 0.93296 0.07912 0.0
C2542 C 0.05414 0.93673 0.06651 0.0
C2543 C 0.04081 0.92179 0.05875 0.0
C2544 C 0.05284 0.95567 0.06099 0.0
C2545 C 0.08425 0.94727 0.08721 0.0
C2546 C 0.05674 0.97124 0.07421 0.0
C2547 C 0.05612 0.98862 0.06885 0.0
C2548 C 0.05074 0.99128 0.05015 0.0
C2549 C 0.0459 0.97573 0.03708 0.0
C2550 C 0.04714 0.9584 0.04231 0.0
H2551 H 0.0964 0.94138 0.09062 0.0
H2552 H 0.08755 0.9574 0.07735 0.0
H2553 H 0.08118 0.95406 0.10053 0.0
H2554 H 0.06011 0.97009 0.08891 0.0
H2555 H 0.05949 1.00002 0.07956 0.0
H2556 H 0.93937 0.26441 0.92575 0.0
H2557 H 0.91072 0.2673 0.90848 0.0
H2558 H 0.93836 0.28172 0.86102 0.0
H2559 H 0.96677 0.27825 0.87795 0.0
H2560 H 0.89719 0.29346 0.89481 0.0
H2561 H 0.89934 0.24495 0.83339 0.0
H2562 H 0.91504 0.24726 0.85423 0.0
H2563 H 0.91872 0.2625 0.83667 0.0
C2564 C 0.93934 0.26796 0.91153 0.0
C2565 C 0.95555 0.27077 0.90325 0.0
C2566 C 0.92284 0.26971 0.90161 0.0
C2567 C 0.92191 0.27432 0.88303 0.0
C2568 C 0.93822 0.27751 0.87496 0.0
H2569 H 0.83947 0.30102 0.80173 0.0
H2570 H 0.86691 0.29675 0.81991 0.0
C2571 C 0.95465 0.27563 0.88479 0.0
C2572 C 0.90413 0.27615 0.87231 0.0
H2573 H 0.87761 0.26392 0.83002 0.0
C2574 C 0.89293 0.28682 0.88071 0.0
C2575 C 0.89811 0.26756 0.8538 0.0
C2576 C 0.90833 0.25478 0.84407 0.0
C2577 C 0.87651 0.28945 0.87115 0.0
C2578 C 0.87076 0.28115 0.85255 0.0
C2579 C 0.88186 0.27042 0.84418 0.0
C2580 C 0.85353 0.28363 0.84142 0.0
C2581 C 0.86564 0.30155 0.88087 0.0
C2582 C 0.83646 0.27758 0.84708 0.0
C2583 C 0.8205 0.27954 0.83628 0.0
C2584 C 0.82103 0.28774 0.81947 0.0
C2585 C 0.83819 0.29406 0.8141 0.0
C2586 C 0.85408 0.29182 0.8247 0.0
H2587 H 0.8735 0.30986 0.89342 0.0
H2588 H 0.86075 0.31058 0.87111 0.0
H2589 H 0.85373 0.29322 0.88549 0.0
H2590 H 0.83543 0.27104 0.85976 0.0
H2591 H 0.80771 0.27451 0.84109 0.0
H2592 H 0.55702 0.23051 0.61998 0.0
H2593 H 0.55341 0.19835 0.6103 0.0
H2594 H 0.53786 0.20709 0.55328 0.0
H2595 H 0.54204 0.23958 0.56292 0.0
H2596 H 0.52681 0.1728 0.59702 0.0
H2597 H 0.57278 0.17589 0.5418 0.0
H2598 H 0.57141 0.1954 0.55748 0.0
H2599 H 0.55481 0.18794 0.53747 0.0
C2600 C 0.55297 0.22572 0.60529 0.0
C2601 C 0.55005 0.23803 0.59229 0.0
C2602 C 0.55083 0.20708 0.59972 0.0
C2603 C 0.54568 0.19976 0.58085 0.0
C2604 C 0.54242 0.21201 0.56783 0.0
H2605 H 0.53041 0.08825 0.52309 0.0
H2606 H 0.53285 0.12072 0.53131 0.0
C2607 C 0.54468 0.23078 0.57341 0.0
C2608 C 0.54346 0.17945 0.57521 0.0
H2609 H 0.55591 0.14738 0.54466 0.0
C2610 C 0.53327 0.16735 0.58556 0.0
C2611 C 0.55164 0.17178 0.56019 0.0
C2612 C 0.56341 0.18339 0.5487 0.0
C2613 C 0.53082 0.14837 0.5813 0.0
C2614 C 0.53926 0.14066 0.56647 0.0
C2615 C 0.54935 0.15279 0.55604 0.0
C2616 C 0.53775 0.12032 0.56143 0.0
C2617 C 0.51856 0.13691 0.59252 0.0
C2618 C 0.53993 0.10857 0.57525 0.0
C2619 C 0.53789 0.08978 0.57052 0.0
C2620 C 0.5344 0.08197 0.55168 0.0
C2621 C 0.53308 0.09367 0.53775 0.0
C2622 C 0.53453 0.11241 0.54253 0.0
H2623 H 0.50858 0.14435 0.59831 0.0
H2624 H 0.51117 0.12452 0.58389 0.0
H2625 H 0.52668 0.1331 0.60462 0.0
H2626 H 0.54334 0.11388 0.58986 0.0
H2627 H 0.53936 0.08134 0.58166 0.0
H2628 H 0.57344 0.77841 0.43444 0.0
H2629 H 0.60119 0.77815 0.4195 0.0
H2630 H 0.5702 0.76768 0.36505 0.0
H2631 H 0.54253 0.76801 0.37985 0.0
H2632 H 0.61277 0.7518 0.39547 0.0
H2633 H 0.60731 0.81195 0.35925 0.0
H2634 H 0.59416 0.80585 0.37802 0.0
H2635 H 0.5875 0.79484 0.35455 0.0
C2636 C 0.57253 0.77614 0.41926 0.0
C2637 C 0.55566 0.77344 0.40838 0.0
C2638 C 0.58845 0.7759 0.41072 0.0
C2639 C 0.58799 0.77316 0.39104 0.0
C2640 C 0.57111 0.77018 0.38021 0.0
H2641 H 0.66676 0.77676 0.30954 0.0
H2642 H 0.63954 0.76987 0.32541 0.0
C2643 C 0.55521 0.77032 0.38872 0.0
C2644 C 0.60501 0.77366 0.38174 0.0
H2645 H 0.62913 0.79517 0.34994 0.0
C2646 C 0.61637 0.76133 0.38557 0.0
C2647 C 0.60997 0.78614 0.36888 0.0
C2648 C 0.59922 0.80058 0.36503 0.0
C2649 C 0.63207 0.76084 0.37651 0.0
C2650 C 0.63678 0.7731 0.36333 0.0
C2651 C 0.62552 0.78553 0.35974 0.0
C2652 C 0.65354 0.77389 0.35352 0.0
C2653 C 0.64327 0.74689 0.38083 0.0
C2654 C 0.67071 0.77789 0.3638 0.0
C2655 C 0.68628 0.7817 0.35468 0.0
C2656 C 0.68521 0.78154 0.33502 0.0
C2657 C 0.66815 0.77653 0.32463 0.0
C2658 C 0.65253 0.7728 0.33376 0.0
H2659 H 0.63557 0.73567 0.38721 0.0
H2660 H 0.64826 0.74133 0.36793 0.0
H2661 H 0.65507 0.75319 0.39098 0.0
H2662 H 0.67205 0.77925 0.379 0.0
H2663 H 0.69915 0.786 0.36314 0.0
H2664 H 0.0396 0.2434 0.36416 0.0
H2665 H 0.03982 0.21562 0.37898 0.0
H2666 H 0.04803 0.24613 0.43361 0.0
H2667 H 0.0478 0.27386 0.41893 0.0
H2668 H 0.06609 0.20468 0.40415 0.0
H2669 H 1.00366 0.20789 0.43718 0.0
H2670 H 0.01021 0.22123 0.41868 0.0
H2671 H 0.02022 0.22809 0.44248 0.0
C2672 C 0.04137 0.2442 0.37934 0.0
C2673 C 0.04349 0.26095 0.39031 0.0
C2674 C 0.04159 0.22827 0.38782 0.0
C2675 C 0.0437 0.2286 0.4075 0.0
C2676 C 0.04606 0.24534 0.41844 0.0
H2677 H 0.04056 0.15158 0.48972 0.0
H2678 H 0.04725 0.17818 0.47305 0.0
C2679 C 0.04597 0.26127 0.40999 0.0
C2680 C 0.04321 0.21155 0.41668 0.0
H2681 H 0.02082 0.18664 0.44732 0.0
C2682 C 0.05613 0.2007 0.41351 0.0
C2683 C 0.03016 0.2061 0.42881 0.0
C2684 C 0.01516 0.21631 0.43189 0.0
C2685 C 0.05667 0.18504 0.4226 0.0
C2686 C 0.04389 0.1799 0.43513 0.0
C2687 C 0.03082 0.1906 0.43799 0.0
C2688 C 0.04349 0.16346 0.44534 0.0
C2689 C 0.07122 0.17436 0.41909 0.0
C2690 C 0.03983 0.14609 0.43553 0.0
C2691 C 0.03617 0.1308 0.44515 0.0
C2692 C 0.0362 0.13246 0.46482 0.0
C2693 C 0.04103 0.14975 0.47468 0.0
C2694 C 0.04459 0.16503 0.46508 0.0
H2695 H 0.0823 0.18211 0.41257 0.0
H2696 H 0.07686 0.17013 0.4324 0.0
H2697 H 0.0654 0.16207 0.40942 0.0
H2698 H 0.03852 0.14437 0.42033 0.0
H2699 H 0.03183 0.11777 0.43706 0.0
H2700 H 0.5861 0.26065 0.17843 0.0
H2701 H 0.61838 0.26456 0.18798 0.0
H2702 H 0.6092 0.2753 0.24577 0.0
H2703 H 0.57666 0.27057 0.23623 0.0
H2704 H 0.64351 0.29047 0.20285 0.0
H2705 H 0.64125 0.24099 0.25451 0.0
H2706 H 0.6216 0.2429 0.23932 0.0
H2707 H 0.62889 0.25837 0.26027 0.0
C2708 C 0.59084 0.26365 0.19325 0.0
C2709 C 0.57842 0.26499 0.2065 0.0
C2710 C 0.60954 0.26598 0.19875 0.0
C2711 C 0.61677 0.26986 0.21779 0.0
C2712 C 0.60438 0.27165 0.23105 0.0
H2713 H 0.72816 0.28411 0.27572 0.0
H2714 H 0.69565 0.28152 0.26749 0.0
C2715 C 0.58557 0.26907 0.22555 0.0
C2716 C 0.63712 0.2723 0.2234 0.0
H2717 H 0.6695 0.25893 0.2528 0.0
C2718 C 0.64909 0.28347 0.21377 0.0
C2719 C 0.64496 0.26344 0.23775 0.0
C2720 C 0.63354 0.25063 0.24845 0.0
C2721 C 0.66809 0.28622 0.21811 0.0
C2722 C 0.67596 0.2771 0.23226 0.0
C2723 C 0.66396 0.26603 0.24197 0.0
C2724 C 0.69634 0.27883 0.23731 0.0
C2725 C 0.67939 0.29948 0.20774 0.0
C2726 C 0.70825 0.27793 0.22343 0.0
C2727 C 0.72705 0.28007 0.22822 0.0
C2728 C 0.73472 0.28237 0.24711 0.0
C2729 C 0.72286 0.28239 0.26103 0.0
C2730 C 0.7041 0.28086 0.25624 0.0
H2731 H 0.67172 0.30963 0.20275 0.0
H2732 H 0.69168 0.30665 0.21671 0.0
H2733 H 0.68337 0.29224 0.19515 0.0
H2734 H 0.70309 0.27544 0.20873 0.0
H2735 H 0.73562 0.27961 0.21705 0.0
H2736 H 0.56239 0.85792 0.9215 0.0
H2737 H 0.55982 0.8867 0.9389 0.0
H2738 H 0.52389 0.89691 0.89292 0.0
H2739 H 0.52681 0.86851 0.87532 0.0
H2740 H 0.56649 0.9246 0.92589 0.0
H2741 H 0.49671 0.90182 0.94193 0.0
H2742 H 0.51136 0.88627 0.93613 0.0
H2743 H 0.50117 0.89712 0.91801 0.0
C2744 C 0.55395 0.86629 0.91507 0.0
C2745 C 0.54481 0.86071 0.89692 0.0
C2746 C 0.55251 0.88284 0.92505 0.0
C2747 C 0.54152 0.89415 0.91743 0.0
C2748 C 0.53238 0.88857 0.89932 0.0
H2749 H 0.50577 0.99329 0.96124 0.0
H2750 H 0.50966 0.96548 0.9431 0.0
C2751 C 0.53412 0.87225 0.88919 0.0
C2752 C 0.53951 0.91164 0.92833 0.0
H2753 H 0.50937 0.93233 0.95082 0.0
C2754 C 0.55402 0.92622 0.93142 0.0
C2755 C 0.52321 0.91412 0.93544 0.0
C2756 C 0.50719 0.89903 0.93288 0.0
C2757 C 0.55263 0.94302 0.94105 0.0
C2758 C 0.53641 0.94542 0.94853 0.0
C2759 C 0.52188 0.9308 0.94532 0.0
C2760 C 0.53423 0.96288 0.95958 0.0
C2761 C 0.56845 0.95825 0.94245 0.0
C2762 C 0.54646 0.971 0.97528 0.0
C2763 C 0.54437 0.98717 0.98548 0.0
C2764 C 0.52994 0.99579 0.98045 0.0
C2765 C 0.51744 0.9875 0.9651 0.0
C2766 C 0.51955 0.97135 0.95484 0.0
H2767 H 0.57718 0.95624 0.93118 0.0
H2768 H 0.56401 0.97132 0.94151 0.0
H2769 H 0.57671 0.9589 0.95614 0.0
H2770 H 0.55759 0.96472 0.97989 0.0
H2771 H 0.55411 0.99296 0.99738 0.0
H2772 H 0.97989 0.78492 0.72547 0.0
H2773 H 0.94964 0.78689 0.73419 0.0
H2774 H 0.92829 0.73648 0.70076 0.0
H2775 H 0.95832 0.73458 0.69186 0.0
H2776 H 0.91635 0.78736 0.71154 0.0
H2777 H 0.90857 0.72802 0.75113 0.0
H2778 H 0.93012 0.73874 0.74531 0.0
H2779 H 0.91472 0.72387 0.72783 0.0
C2780 C 0.96882 0.77413 0.72011 0.0
C2781 C 0.97189 0.75945 0.70809 0.0
C2782 C 0.95136 0.77532 0.72505 0.0
C2783 C 0.93632 0.76173 0.71846 0.0
C2784 C 0.93942 0.74708 0.70646 0.0
H2785 H 0.81985 0.74257 0.73298 0.0
H2786 H 0.84993 0.74098 0.72405 0.0
C2787 C 0.95677 0.74602 0.70131 0.0
C2788 C 0.91751 0.76288 0.72389 0.0
H2789 H 0.88278 0.74108 0.74545 0.0
C2790 C 0.90914 0.77727 0.71908 0.0
C2791 C 0.90761 0.74975 0.73361 0.0
C2792 C 0.9157 0.73428 0.73995 0.0
C2793 C 0.89147 0.77867 0.72336 0.0
C2794 C 0.88166 0.76562 0.73323 0.0
C2795 C 0.89 0.75121 0.73795 0.0
C2796 C 0.8629 0.7667 0.73881 0.0
C2797 C 0.8832 0.79392 0.71668 0.0
C2798 C 0.85966 0.78149 0.75049 0.0
C2799 C 0.84235 0.78229 0.75594 0.0
C2800 C 0.8274 0.76849 0.74975 0.0
C2801 C 0.83072 0.75364 0.7381 0.0
C2802 C 0.8481 0.75269 0.73291 0.0
H2803 H 0.89017 0.79991 0.70526 0.0
H2804 H 0.86875 0.78931 0.7115 0.0
H2805 H 0.88423 0.80458 0.72856 0.0
H2806 H 0.87063 0.79242 0.75573 0.0
H2807 H 0.8408 0.79379 0.76512 0.0
H2808 H 0.13046 0.02132 0.84778 0.0
H2809 H 0.12078 0.02089 0.87923 0.0
H2810 H 0.09016 0.06223 0.86836 0.0
H2811 H 0.09933 0.06224 0.83658 0.0
H2812 H 0.12538 0.0454 0.90929 0.0
H2813 H 0.05233 0.02682 0.88629 0.0
H2814 H 0.0689 0.02614 0.87002 0.0
H2815 H 0.06268 0.04712 0.87796 0.0
C2816 C 0.12149 0.0302 0.85198 0.0
C2817 C 0.11543 0.04161 0.83945 0.0
C2818 C 0.11602 0.03001 0.87008 0.0
C2819 C 0.10437 0.04125 0.87625 0.0
C2820 C 0.09866 0.05298 0.8639 0.0
H2821 H 0.05244 0.05768 0.97735 0.0
H2822 H 0.06415 0.05837 0.94711 0.0
C2823 C 0.10398 0.05304 0.84568 0.0
C2824 C 0.09831 0.04064 0.89555 0.0
H2825 H 0.06089 0.03454 0.91888 0.0
C2826 C 0.11126 0.04296 0.91136 0.0
C2827 C 0.0799 0.03745 0.89847 0.0
C2828 C 0.06514 0.03407 0.88229 0.0
C2829 C 0.10638 0.04263 0.92982 0.0
C2830 C 0.08794 0.03941 0.93271 0.0
C2831 C 0.07503 0.037 0.91687 0.0
C2832 C 0.08159 0.03921 0.95192 0.0
C2833 C 0.12109 0.04637 0.94604 0.0
C2834 C 0.08741 0.02825 0.96516 0.0
C2835 C 0.08091 0.02809 0.98289 0.0
C2836 C 0.06804 0.03849 0.98755 0.0
C2837 C 0.0622 0.04932 0.97425 0.0
C2838 C 0.06892 0.04974 0.95683 0.0
H2839 H 0.13383 0.05372 0.94199 0.0
H2840 H 0.1172 0.05436 0.95818 0.0
H2841 H 0.12374 0.03345 0.95057 0.0
H2842 H 0.09675 0.01954 0.9617 0.0
H2843 H 0.08556 0.0195 0.99272 0.0
H2844 H 0.76425 0.37996 0.5417 0.0
H2845 H 0.76036 0.36985 0.57256 0.0
H2846 H 0.81002 0.40481 0.59587 0.0
H2847 H 0.81374 0.41532 0.56523 0.0
H2848 H 0.78459 0.35323 0.59138 0.0
H2849 H 0.77604 0.41495 0.63441 0.0
H2850 H 0.77337 0.41264 0.60902 0.0
H2851 H 0.79544 0.41785 0.62185 0.0
C2852 C 0.77426 0.38549 0.55346 0.0
C2853 C 0.78928 0.39831 0.55125 0.0
C2854 C 0.77195 0.37988 0.57102 0.0
C2855 C 0.78467 0.38697 0.58643 0.0
C2856 C 0.79977 0.39968 0.5842 0.0
H2857 H 0.82486 0.36184 0.68913 0.0
H2858 H 0.81371 0.3771 0.66327 0.0
C2859 C 0.80199 0.40545 0.56671 0.0
C2860 C 0.78326 0.37954 0.60434 0.0
H2861 H 0.78351 0.39091 0.65125 0.0
C2862 C 0.78392 0.36131 0.60446 0.0
C2863 C 0.78263 0.39034 0.62122 0.0
C2864 C 0.78168 0.41001 0.62164 0.0
C2865 C 0.78497 0.35366 0.62127 0.0
C2866 C 0.78474 0.36451 0.63829 0.0
C2867 C 0.78336 0.38263 0.6381 0.0
C2868 C 0.78882 0.35792 0.6564 0.0
C2869 C 0.78755 0.33437 0.62071 0.0
C2870 C 0.77799 0.34271 0.66159 0.0
C2871 C 0.78442 0.33396 0.67625 0.0
C2872 C 0.80162 0.34048 0.68573 0.0
C2873 C 0.81168 0.35656 0.68165 0.0
C2874 C 0.80526 0.3653 0.66707 0.0
H2875 H 0.791 0.32917 0.60683 0.0
H2876 H 0.79838 0.33295 0.63163 0.0
H2877 H 0.7749 0.32584 0.62347 0.0
H2878 H 0.76516 0.33702 0.65356 0.0
H2879 H 0.77648 0.32159 0.67944 0.0
H2880 H 0.44646 0.01713 0.33998 0.0
H2881 H 0.45977 0.01388 0.37141 0.0
H2882 H 0.4124 0.02609 0.39465 0.0
H2883 H 0.39883 0.02907 0.36328 0.0
H2884 H 0.46421 0.04471 0.39829 0.0
H2885 H 0.42565 0.98327 0.42198 0.0
H2886 H 0.42614 0.98651 0.39746 0.0
H2887 H 0.41271 0.99826 0.4116 0.0
C2888 C 0.4389 0.01904 0.3518 0.0
C2889 C 0.42189 0.02372 0.34947 0.0
C2890 C 0.44634 0.01691 0.36956 0.0
C2891 C 0.43682 0.01954 0.38499 0.0
C2892 C 0.41963 0.02368 0.38267 0.0
H2893 H 0.48477 0.04989 0.49952 0.0
H2894 H 0.4642 0.04674 0.47064 0.0
C2895 C 0.41211 0.02567 0.36489 0.0
C2896 C 0.44614 0.02108 0.40369 0.0
H2897 H 0.44738 1.00203 0.44449 0.0
C2898 C 0.46056 0.03543 0.40845 0.0
C2899 C 0.44099 0.00893 0.41663 0.0
C2900 C 0.4256 0.99328 0.4117 0.0
C2901 C 0.47041 0.03777 0.42599 0.0
C2902 C 0.46539 0.02555 0.43885 0.0
C2903 C 0.4508 0.01137 0.43433 0.0
C2904 C 0.47644 0.02645 0.45642 0.0
C2905 C 0.48645 0.05285 0.43053 0.0
C2906 C 0.48986 0.01609 0.45735 0.0
C2907 C 0.5016 0.0179 0.47355 0.0
C2908 C 0.49992 0.03014 0.48884 0.0
C2909 C 0.48636 0.0405 0.48779 0.0
C2910 C 0.47457 0.03861 0.47154 0.0
H2911 H 0.4884 0.06123 0.41881 0.0
H2912 H 0.48475 0.06158 0.44323 0.0
H2913 H 0.49879 0.04721 0.43369 0.0
H2914 H 0.49134 1.00679 0.44548 0.0
H2915 H 0.51172 0.00948 0.47417 0.0
H2916 H 0.7852 0.67933 0.07944 0.0
H2917 H 0.78762 0.69102 0.11268 0.0
H2918 H 0.7758 0.74132 0.09699 0.0
H2919 H 0.77362 0.72976 0.06358 0.0
H2920 H 0.81076 0.72437 0.13337 0.0
H2921 H 0.73749 0.72321 0.13337 0.0
H2922 H 0.74658 0.71004 0.11571 0.0
H2923 H 0.74804 0.73372 0.11485 0.0
C2924 C 0.78316 0.69292 0.08301 0.0
C2925 C 0.77909 0.70356 0.06874 0.0
C2926 C 0.7846 0.69961 0.10209 0.0
C2927 C 0.78172 0.71702 0.10748 0.0
C2928 C 0.77792 0.72778 0.09327 0.0
H2929 H 0.77238 0.77616 0.21584 0.0
H2930 H 0.77146 0.76526 0.18259 0.0
C2931 C 0.77673 0.72118 0.07414 0.0
C2932 C 0.78236 0.72374 0.12789 0.0
H2933 H 0.75597 0.73549 0.16133 0.0
C2934 C 0.79878 0.7268 0.13949 0.0
C2935 C 0.76677 0.7269 0.136 0.0
C2936 C 0.74865 0.72321 0.12446 0.0
C2937 C 0.80011 0.73331 0.15874 0.0
C2938 C 0.78446 0.7364 0.16693 0.0
C2939 C 0.76803 0.73324 0.15526 0.0
C2940 C 0.78479 0.74289 0.18746 0.0
C2941 C 0.81844 0.7373 0.16991 0.0
C2942 C 0.79218 0.73386 0.20161 0.0
C2943 C 0.79276 0.74014 0.2207 0.0
C2944 C 0.78566 0.75548 0.22633 0.0
C2945 C 0.77784 0.76424 0.21219 0.0
C2946 C 0.77738 0.75802 0.19306 0.0
H2947 H 0.82931 0.73978 0.16066 0.0
H2948 H 0.81983 0.7492 0.18049 0.0
H2949 H 0.82048 0.72557 0.17734 0.0
H2950 H 0.79746 0.72183 0.19793 0.0
H2951 H 0.79875 0.73286 0.23107 0.0
H2952 H 0.0897 0.05174 0.73533 0.0
H2953 H 0.07825 0.05026 0.70193 0.0
H2954 H 0.11992 0.02178 0.68651 0.0
H2955 H 0.1316 0.02354 0.7197 0.0
H2956 H 0.09992 0.06364 0.67101 0.0
H2957 H 0.07111 0.99071 0.65911 0.0
H2958 H 0.0753 1.00306 0.68228 0.0
H2959 H 0.09365 0.99697 0.67076 0.0
C2960 C 0.0963 0.04501 0.72483 0.0
C2961 C 0.11153 0.0377 0.73026 0.0
C2962 C 0.08981 0.04425 0.70571 0.0
C2963 C 0.09812 0.03581 0.6916 0.0
C2964 C 0.11315 0.02825 0.69704 0.0
H2965 H 0.07858 0.01455 0.56906 0.0
H2966 H 0.08941 0.01608 0.60229 0.0
C2967 C 0.11983 0.0293 0.71608 0.0
C2968 C 0.09139 0.03522 0.67119 0.0
H2969 H 0.07109 1.00667 0.6325 0.0
C2970 C 0.09348 0.05121 0.66264 0.0
C2971 C 0.08327 0.01898 0.66008 0.0
C2972 C 0.08054 1.00141 0.66845 0.0
C2973 C 0.08783 0.05135 0.64337 0.0
C2974 C 0.07933 0.03516 0.63233 0.0
C2975 C 0.07741 0.01915 0.64087 0.0
C2976 C 0.07261 0.0345 0.61187 0.0
C2977 C 0.09156 0.06878 0.63484 0.0
C2978 C 0.05927 0.04412 0.60589 0.0
C2979 C 0.05282 0.04313 0.58673 0.0
C2980 C 0.05971 0.03267 0.57295 0.0
C2981 C 0.07299 0.02296 0.57906 0.0
C2982 C 0.07924 0.02377 0.59819 0.0
H2983 H 0.10211 0.07881 0.64371 0.0
H2984 H 0.0959 0.06659 0.62063 0.0
H2985 H 0.07908 0.07449 0.63343 0.0
H2986 H 0.05358 0.05221 0.6161 0.0
H2987 H 0.0423 0.05041 0.58282 0.0
H2988 H 0.79612 0.42073 0.43684 0.0
H2989 H 0.79821 0.40777 0.405 0.0
H2990 H 0.79557 0.35542 0.42412 0.0
H2991 H 0.79346 0.36822 0.45616 0.0
H2992 H 0.82417 0.38155 0.39191 0.0
H2993 H 0.74999 0.35755 0.38301 0.0
H2994 H 0.76094 0.37614 0.39999 0.0
H2995 H 0.76215 0.35356 0.40444 0.0
C2996 C 0.79604 0.40646 0.43427 0.0
C2997 C 0.79433 0.3953 0.44872 0.0
C2998 C 0.79743 0.39921 0.41622 0.0
C2999 C 0.79705 0.38083 0.41262 0.0
C3000 C 0.79593 0.36972 0.42703 0.0
H3001 H 0.80749 0.30544 0.32468 0.0
H3002 H 0.81143 0.32699 0.35261 0.0
C3003 C 0.79459 0.37696 0.44513 0.0
C3004 C 0.79588 0.37287 0.39344 0.0
H3005 H 0.76634 0.34676 0.35951 0.0
C3006 C 0.81157 0.3741 0.3846 0.0
C3007 C 0.77926 0.36363 0.38422 0.0
C3008 C 0.76205 0.36269 0.39329 0.0
C3009 C 0.81116 0.3653 0.36664 0.0
C3010 C 0.79469 0.35511 0.35789 0.0
C3011 C 0.77889 0.35468 0.36646 0.0
C3012 C 0.79362 0.34335 0.34063 0.0
C3013 C 0.82825 0.36664 0.35736 0.0
C3014 C 0.78172 0.34524 0.32524 0.0
C3015 C 0.77887 0.33263 0.30962 0.0
C3016 C 0.78812 0.3182 0.30923 0.0
C3017 C 0.80003 0.31634 0.32474 0.0
C3018 C 0.80264 0.32883 0.34047 0.0
H3019 H 0.83807 0.37893 0.3632 0.0
H3020 H 0.83456 0.35486 0.35995 0.0
H3021 H 0.82548 0.3667 0.34194 0.0
H3022 H 0.77447 0.35632 0.32548 0.0
H3023 H 0.76968 0.33436 0.29777 0.0
H3024 H 0.43842 0.01186 0.25296 0.0
H3025 H 0.44915 0.01343 0.22195 0.0
H3026 H 0.40541 0.03946 0.20393 0.0
H3027 H 0.3944 0.03765 0.23476 0.0
H3028 H 0.4208 1.00238 0.18132 0.0
H3029 H 0.46274 0.07049 0.20147 0.0
H3030 H 0.45851 0.05504 0.21879 0.0
H3031 H 0.44057 0.06486 0.20882 0.0
C3032 C 0.43119 0.01794 0.24235 0.0
C3033 C 0.41583 0.02485 0.24605 0.0
C3034 C 0.43721 0.01873 0.22476 0.0
C3035 C 0.42804 0.02668 0.21102 0.0
C3036 C 0.41253 0.03332 0.21456 0.0
H3037 H 0.45822 0.02433 0.0974 0.0
H3038 H 0.4439 0.0353 0.12425 0.0
C3039 C 0.40634 0.03229 0.23205 0.0
C3040 C 0.43516 0.02849 0.1931 0.0
H3041 H 0.46635 0.05519 0.17226 0.0
C3042 C 0.43045 0.01403 0.17905 0.0
C3043 C 0.44773 0.04377 0.1906 0.0
C3044 C 0.45279 0.05951 0.20566 0.0
C3045 C 0.43874 0.01413 0.16257 0.0
C3046 C 0.4519 0.0291 0.16033 0.0
C3047 C 0.45609 0.04389 0.17411 0.0
C3048 C 0.46308 0.0281 0.14499 0.0
C3049 C 0.43419 0.99784 0.14811 0.0
C3050 C 0.47894 0.0213 0.1481 0.0
C3051 C 0.4869 0.0148 0.13293 0.0
C3052 C 0.47914 0.01526 0.11457 0.0
C3053 C 0.46434 0.02383 0.11151 0.0
C3054 C 0.45624 0.03016 0.12673 0.0
H3055 H 0.42388 0.98716 0.15227 0.0
H3056 H 0.42908 1.00177 0.13445 0.0
H3057 H 0.44647 0.99219 0.14599 0.0
H3058 H 0.48425 0.0196 0.16221 0.0
H3059 H 0.49847 0.00845 0.13549 0.0
H3060 H 0.74804 0.70943 0.95895 0.0
H3061 H 0.74768 0.71813 0.92697 0.0
H3062 H 0.8014 0.70763 0.92463 0.0
H3063 H 0.80162 0.6985 0.95633 0.0
H3064 H 0.76738 0.7445 0.91268 0.0
H3065 H 0.77844 0.68113 0.87552 0.0
H3066 H 0.77343 0.68276 0.89955 0.0
H3067 H 0.79601 0.68999 0.8941 0.0
C3068 C 0.75979 0.709 0.95164 0.0
C3069 C 0.7749 0.70337 0.96035 0.0
C3070 C 0.75956 0.71392 0.93326 0.0
C3071 C 0.77438 0.71327 0.92302 0.0
C3072 C 0.78956 0.70783 0.93183 0.0
H3073 H 0.80343 0.74226 0.81315 0.0
H3074 H 0.80204 0.73162 0.84435 0.0
C3075 C 0.78977 0.70283 0.95015 0.0
C3076 C 0.77431 0.7191 0.90359 0.0
H3077 H 0.78195 0.70662 0.85845 0.0
C3078 C 0.77045 0.73614 0.90081 0.0
C3079 C 0.77831 0.7083 0.88792 0.0
C3080 C 0.78159 0.68946 0.88936 0.0
C3081 C 0.77107 0.7429 0.88323 0.0
C3082 C 0.77527 0.73217 0.86757 0.0
C3083 C 0.77889 0.71502 0.8703 0.0
C3084 C 0.77601 0.73842 0.84833 0.0
C3085 C 0.76781 0.76178 0.88198 0.0
C3086 C 0.76178 0.74548 0.83972 0.0
C3087 C 0.76286 0.75203 0.82222 0.0
C3088 C 0.77782 0.75094 0.81233 0.0
C3089 C 0.7917 0.74314 0.82038 0.0
C3090 C 0.79088 0.73709 0.83825 0.0
H3091 H 0.77076 0.76996 0.89591 0.0
H3092 H 0.77615 0.76867 0.87205 0.0
H3093 H 0.75343 0.7613 0.8771 0.0
H3094 H 0.74976 0.746 0.84653 0.0
H3095 H 0.75182 0.75778 0.81625 0.0
H3096 H 0.80532 0.08672 0.05067 0.0
H3097 H 0.83457 0.07745 0.0529 0.0
H3098 H 0.86069 0.13197 0.04976 0.0
H3099 H 0.83157 0.14144 0.04762 0.0
H3100 H 0.85725 0.08502 0.02281 0.0
H3101 H 0.8899 0.11339 0.09447 0.0
H3102 H 0.86577 0.1088 0.08852 0.0
H3103 H 0.87912 0.12792 0.08071 0.0
C3104 C 0.81733 0.09672 0.05063 0.0
C3105 C 0.81637 0.1147 0.04887 0.0
C3106 C 0.8339 0.09146 0.05208 0.0
C3107 C 0.8495 0.10419 0.05191 0.0
C3108 C 0.84864 0.12218 0.05037 0.0
H3109 H 0.95142 0.09703 0.0209 0.0
H3110 H 0.92804 0.108 0.03751 0.0
C3111 C 0.83207 0.12746 0.04889 0.0
C3112 C 0.86645 0.0982 0.05068 0.0
H3113 H 0.90804 0.10042 0.07377 0.0
C3114 C 0.86832 0.08815 0.03398 0.0
C3115 C 0.88067 0.10279 0.0653 0.0
C3116 C 0.87884 0.11374 0.08335 0.0
C3117 C 0.88441 0.08254 0.03136 0.0
C3118 C 0.89863 0.08683 0.04609 0.0
C3119 C 0.89682 0.09699 0.0628 0.0
C3120 C 0.91574 0.08159 0.04342 0.0
C3121 C 0.8862 0.07239 0.01274 0.0
C3122 C 0.91683 0.06337 0.04244 0.0
C3123 C 0.92997 0.05716 0.03292 0.0
C3124 C 0.94187 0.06921 0.02443 0.0
C3125 C 0.94202 0.08767 0.02724 0.0
C3126 C 0.92895 0.09391 0.03688 0.0
H3127 H 0.87496 0.07292 0.00188 0.0
H3128 H 0.89904 0.07789 0.00744 0.0
H3129 H 0.88625 0.0581 0.01464 0.0
H3130 H 0.90647 0.05382 0.04732 0.0
H3131 H 0.92992 0.04286 0.03084 0.0
H3132 H 0.34486 0.4311 0.00795 0.0
H3133 H 0.37524 0.44658 0.00506 0.0
H3134 H 0.39308 0.4342 0.06023 0.0
H3135 H 0.36284 0.41764 0.06257 0.0
H3136 H 0.3946 0.47475 0.02279 0.0
H3137 H 0.43261 0.42021 0.03442 0.0
H3138 H 0.40839 0.41625 0.03136 0.0
H3139 H 0.42062 0.42534 0.05387 0.0
C3140 C 0.3553 0.43158 0.01942 0.0
C3141 C 0.35146 0.42311 0.03547 0.0
C3142 C 0.37272 0.44045 0.01776 0.0
C3143 C 0.38675 0.44137 0.03224 0.0
C3144 C 0.38281 0.43321 0.04851 0.0
H3145 H 0.49872 0.49599 0.05072 0.0
H3146 H 0.46877 0.47879 0.05283 0.0
C3147 C 0.36543 0.42391 0.04996 0.0
C3148 C 0.40514 0.45162 0.03051 0.0
H3149 H 0.44991 0.4494 0.03443 0.0
C3150 C 0.40666 0.4691 0.02522 0.0
C3151 C 0.42103 0.44441 0.0337 0.0
C3152 C 0.42059 0.42546 0.03846 0.0
C3153 C 0.42341 0.47963 0.02339 0.0
C3154 C 0.43931 0.47247 0.02666 0.0
C3155 C 0.43782 0.45498 0.03193 0.0
C3156 C 0.45759 0.483 0.02515 0.0
C3157 C 0.42384 0.49853 0.01849 0.0
C3158 C 0.46155 0.49106 0.00883 0.0
C3159 C 0.47855 0.50137 0.00784 0.0
C3160 C 0.49217 0.50333 0.0229 0.0
C3161 C 0.48844 0.49481 0.03895 0.0
C3162 C 0.47132 0.48489 0.04012 0.0
H3163 H 0.41163 0.50369 0.02208 0.0
H3164 H 0.43582 0.50786 0.02588 0.0
H3165 H 0.42425 0.49863 0.00313 0.0
H3166 H 0.45153 0.48928 0.99675 0.0
H3167 H 0.4812 0.50739 0.9951 0.0
H3168 H 0.42233 0.5809 0.7815 0.0
H3169 H 0.40987 0.60844 0.7805 0.0
H3170 H 0.36658 0.58052 0.7396 0.0
H3171 H 0.37865 0.55279 0.74102 0.0
H3172 H 0.40299 0.62901 0.75256 0.0
H3173 H 0.33918 0.60064 0.7791 0.0
H3174 H 0.35816 0.58933 0.77954 0.0
H3175 H 0.34344 0.58808 0.75816 0.0
C3176 C 0.4101 0.58061 0.77236 0.0
C3177 C 0.40132 0.56458 0.76155 0.0
C3178 C 0.40304 0.59639 0.77173 0.0
C3179 C 0.38708 0.59653 0.76024 0.0
C3180 C 0.37862 0.58067 0.74897 0.0
H3181 H 0.31768 0.67641 0.75481 0.0
H3182 H 0.33329 0.65207 0.7448 0.0
C3183 C 0.38556 0.56482 0.74975 0.0
C3184 C 0.37911 0.61313 0.76039 0.0
H3185 H 0.3413 0.62952 0.7693 0.0
C3186 C 0.38948 0.62911 0.75616 0.0
C3187 C 0.36149 0.61335 0.76516 0.0
C3188 C 0.34997 0.59699 0.77093 0.0
C3189 C 0.38266 0.64521 0.75642 0.0
C3190 C 0.36506 0.6454 0.76127 0.0
C3191 C 0.35468 0.62937 0.7653 0.0
C3192 C 0.35748 0.66217 0.76385 0.0
C3193 C 0.39436 0.66179 0.75139 0.0
C3194 C 0.36613 0.67638 0.77727 0.0
C3195 C 0.35725 0.69027 0.7829 0.0
C3196 C 0.33951 0.6902 0.77529 0.0
C3197 C 0.3314 0.67685 0.76075 0.0
C3198 C 0.34028 0.66289 0.75514 0.0
H3199 H 0.40429 0.65825 0.74197 0.0
H3200 H 0.38622 0.67059 0.74441 0.0
H3201 H 0.40197 0.66948 0.76439 0.0
H3202 H 0.37921 0.67606 0.78448 0.0
H3203 H 0.36375 0.7004 0.79419 0.0
H3204 H 0.20803 0.63228 0.55674 0.0
H3205 H 0.17566 0.62354 0.54815 0.0
H3206 H 0.18347 0.57402 0.51846 0.0
H3207 H 0.21595 0.5826 0.52693 0.0
H3208 H 0.15841 0.6139 0.50851 0.0
H3209 H 0.14569 0.56138 0.55683 0.0
H3210 H 0.16528 0.57903 0.56047 0.0
H3211 H 0.16431 0.55996 0.54345 0.0
C3212 C 0.20282 0.6194 0.54862 0.0
C3213 C 0.21433 0.60801 0.54248 0.0
C3214 C 0.18445 0.61457 0.54364 0.0
C3215 C 0.17754 0.59829 0.53269 0.0
C3216 C 0.18887 0.58665 0.52699 0.0
H3217 H 0.07694 0.53493 0.49708 0.0
H3218 H 0.1071 0.55084 0.49353 0.0
C3219 C 0.20727 0.59148 0.53192 0.0
C3220 C 0.15836 0.5933 0.52715 0.0
H3221 H 0.12228 0.56222 0.53295 0.0
C3222 C 0.15037 0.60264 0.51378 0.0
C3223 C 0.14822 0.57887 0.53449 0.0
C3224 C 0.15622 0.5693 0.54974 0.0
C3225 C 0.13224 0.59726 0.50692 0.0
C3226 C 0.12237 0.58226 0.51361 0.0
C3227 C 0.13028 0.57338 0.52746 0.0
C3228 C 0.10332 0.57601 0.50785 0.0
C3229 C 0.12373 0.60738 0.49259 0.0
C3230 C 0.09124 0.58539 0.5161 0.0
C3231 C 0.07427 0.5763 0.5183 0.0
C3232 C 0.06946 0.55799 0.51206 0.0
C3233 C 0.08071 0.54913 0.50189 0.0
C3234 C 0.09768 0.55822 0.49965 0.0
H3235 H 0.13393 0.61679 0.48654 0.0
H3236 H 0.11552 0.59789 0.48106 0.0
H3237 H 0.11461 0.61525 0.4994 0.0
H3238 H 0.09562 0.599 0.52283 0.0
H3239 H 0.06564 0.58311 0.52639 0.0
H3240 H 0.6824 0.98908 0.7683 0.0
H3241 H 0.6896 0.95901 0.76499 0.0
H3242 H 0.73122 0.9769 0.73055 0.0
H3243 H 0.72435 0.00719 0.73409 0.0
H3244 H 0.69035 0.93553 0.73154 0.0
H3245 H 0.75616 0.95728 0.77574 0.0
H3246 H 0.7388 0.97068 0.77513 0.0
H3247 H 0.75264 0.96994 0.75631 0.0
C3248 C 0.69314 0.98659 0.7601 0.0
C3249 C 0.70304 1.0003 0.7516 0.0
C3250 C 0.69707 0.96947 0.75809 0.0
C3251 C 0.71084 0.96602 0.74752 0.0
C3252 C 0.72059 0.9796 0.73882 0.0
H3253 H 0.76318 0.87645 0.75443 0.0
H3254 H 0.74969 0.89732 0.73631 0.0
C3255 C 0.71678 0.99679 0.74096 0.0
C3256 C 0.71581 0.94842 0.74675 0.0
H3257 H 0.74865 0.92709 0.76318 0.0
C3258 C 0.7032 0.93357 0.73814 0.0
C3259 C 0.73244 0.94625 0.75575 0.0
C3260 C 0.74575 0.96183 0.76642 0.0
C3261 C 0.70679 0.91623 0.73855 0.0
C3262 C 0.72337 0.91405 0.74762 0.0
C3263 C 0.73615 0.92901 0.75573 0.0
C3264 C 0.72682 0.89662 0.75213 0.0
C3265 C 0.6927 0.9004 0.72999 0.0
C3266 C 0.7178 0.88884 0.76627 0.0
C3267 C 0.72561 0.87726 0.7768 0.0
C3268 C 0.74235 0.8734 0.77309 0.0
C3269 C 0.75025 0.87944 0.75747 0.0
C3270 C 0.7425 0.89112 0.74702 0.0
H3271 H 0.68309 0.9043 0.71922 0.0
H3272 H 0.69897 0.88956 0.72349 0.0
H3273 H 0.68499 0.89497 0.74119 0.0
H3274 H 0.70584 0.89325 0.77056 0.0
H3275 H 0.71927 0.87237 0.78865 0.0
H3276 H 0.76482 0.93999 0.55771 0.0
H3277 H 0.73733 0.95258 0.55891 0.0
H3278 H 0.70823 0.90779 0.52057 0.0
H3279 H 0.73551 0.89493 0.51973 0.0
H3280 H 0.71737 0.96344 0.53084 0.0
H3281 H 0.67461 0.90882 0.56037 0.0
H3282 H 0.69853 0.91009 0.56036 0.0
H3283 H 0.6835 0.90126 0.53947 0.0
C3284 C 0.75253 0.93277 0.54963 0.0
C3285 C 0.75234 0.91644 0.53867 0.0
C3286 C 0.73681 0.93996 0.55035 0.0
C3287 C 0.72056 0.93098 0.54014 0.0
C3288 C 0.72041 0.91474 0.52903 0.0
H3289 H 0.61588 0.95262 0.50827 0.0
H3290 H 0.64173 0.93911 0.51762 0.0
C3291 C 0.73609 0.90748 0.52842 0.0
C3292 C 0.70408 0.93913 0.54025 0.0
H3293 H 0.65977 0.93093 0.54763 0.0
C3294 C 0.70483 0.95643 0.53475 0.0
C3295 C 0.68766 0.92994 0.54522 0.0
C3296 C 0.68602 0.91157 0.55186 0.0
C3297 C 0.68954 0.96453 0.53338 0.0
C3298 C 0.67305 0.95532 0.53825 0.0
C3299 C 0.67239 0.93811 0.54407 0.0
C3300 C 0.65603 0.96258 0.53569 0.0
C3301 C 0.69111 0.98251 0.52583 0.0
C3302 C 0.65477 0.97988 0.54369 0.0
C3303 C 0.63991 0.98768 0.53823 0.0
C3304 C 0.62598 0.97817 0.52495 0.0
C3305 C 0.62641 0.96023 0.51858 0.0
C3306 C 0.64127 0.95253 0.52384 0.0
H3307 H 0.7032 0.98546 0.5183 0.0
H3308 H 0.67909 0.9831 0.51604 0.0
H3309 H 0.69232 0.99322 0.53769 0.0
H3310 H 0.6657 0.98771 0.55335 0.0
H3311 H 0.63999 1.00157 0.54326 0.0
H3312 H 0.41773 0.45343 0.76513 0.0
H3313 H 0.40168 0.42298 0.76721 0.0
H3314 H 0.35136 0.4419 0.76358 0.0
H3315 H 0.36738 0.47251 0.76175 0.0
H3316 H 0.37717 0.41102 0.79489 0.0
H3317 H 0.34498 0.39835 0.72115 0.0
H3318 H 0.36444 0.41567 0.72875 0.0
H3319 H 0.34257 0.41915 0.73388 0.0
C3320 C 0.40323 0.45112 0.76469 0.0
C3321 C 0.39383 0.46542 0.76317 0.0
C3322 C 0.39408 0.43369 0.76596 0.0
C3323 C 0.37529 0.43007 0.76541 0.0
C3324 C 0.36585 0.44431 0.76387 0.0
H3325 H 0.29957 0.3396 0.79231 0.0
H3326 H 0.31813 0.36889 0.79033 0.0
C3327 C 0.37502 0.46182 0.76286 0.0
C3328 C 0.36556 0.41146 0.76652 0.0
H3329 H 0.33528 0.37681 0.74151 0.0
C3330 C 0.36802 0.40354 0.78323 0.0
C3331 C 0.35387 0.40152 0.75119 0.0
C3332 C 0.35135 0.40897 0.73264 0.0
C3333 C 0.35864 0.38624 0.78517 0.0
C3334 C 0.34649 0.3766 0.77005 0.0
C3335 C 0.34446 0.38428 0.75317 0.0
C3336 C 0.3355 0.35865 0.77156 0.0
C3337 C 0.36185 0.37826 0.80331 0.0
C3338 C 0.33894 0.34312 0.76151 0.0
C3339 C 0.3282 0.32632 0.76242 0.0
C3340 C 0.31362 0.3247 0.77326 0.0
C3341 C 0.31033 0.34032 0.78343 0.0
C3342 C 0.3211 0.35709 0.78252 0.0
H3343 H 0.37332 0.38644 0.81281 0.0
H3344 H 0.34962 0.37736 0.81071 0.0
H3345 H 0.36453 0.36444 0.80038 0.0
H3346 H 0.35001 0.34398 0.75299 0.0
H3347 H 0.33135 0.3146 0.75463 0.0
H3348 H 0.23419 0.59804 0.25334 0.0
H3349 H 0.24487 0.63062 0.25996 0.0
H3350 H 0.19173 0.63784 0.27154 0.0
H3351 H 0.18096 0.6056 0.26485 0.0
H3352 H 0.22407 0.65782 0.24008 0.0
H3353 H 0.23117 0.66228 0.31847 0.0
H3354 H 0.23251 0.64189 0.30406 0.0
H3355 H 0.21126 0.64882 0.30533 0.0
C3356 C 0.22492 0.60668 0.25732 0.0
C3357 C 0.20686 0.59967 0.25844 0.0
C3358 C 0.23094 0.62505 0.26105 0.0
C3359 C 0.21893 0.63614 0.2662 0.0
C3360 C 0.20098 0.62916 0.26755 0.0
H3361 H 0.23894 0.75055 0.29373 0.0
H3362 H 0.22439 0.71928 0.28928 0.0
C3363 C 0.19492 0.61092 0.26363 0.0
C3364 C 0.22502 0.65524 0.26971 0.0
H3365 H 0.23859 0.68913 0.3049 0.0
C3366 C 0.22727 0.66478 0.25419 0.0
C3367 C 0.22856 0.66387 0.28819 0.0
C3368 C 0.22583 0.65376 0.30505 0.0
C3369 C 0.23377 0.68314 0.25679 0.0
C3370 C 0.23829 0.69157 0.2753 0.0
C3371 C 0.23521 0.6822 0.29079 0.0
C3372 C 0.24733 0.70997 0.27893 0.0
C3373 C 0.23596 0.69336 0.23991 0.0
C3374 C 0.26517 0.71447 0.27524 0.0
C3375 C 0.2737 0.73225 0.27809 0.0
C3376 C 0.26426 0.74544 0.28451 0.0
C3377 C 0.24663 0.74062 0.28906 0.0
C3378 C 0.23819 0.72287 0.2863 0.0
H3379 H 0.22831 0.68562 0.22692 0.0
H3380 H 0.23141 0.70642 0.24222 0.0
H3381 H 0.25039 0.69621 0.23771 0.0
H3382 H 0.27228 0.70429 0.2698 0.0
H3383 H 0.28729 0.7357 0.2745 0.0
H3384 H 0.53066 0.71573 0.43979 0.0
H3385 H 0.53662 0.68895 0.45402 0.0
H3386 H 0.50171 0.69876 0.49602 0.0
H3387 H 0.49611 0.72599 0.48214 0.0
H3388 H 0.54952 0.68665 0.49721 0.0
H3389 H 0.48413 0.64395 0.46774 0.0
H3390 H 0.49398 0.66317 0.45684 0.0
H3391 H 0.48414 0.6664 0.47829 0.0
C3392 C 0.52419 0.71223 0.45206 0.0
C3393 C 0.51277 0.72313 0.45966 0.0
C3394 C 0.5277 0.69687 0.46027 0.0
C3395 C 0.51961 0.69156 0.47615 0.0
C3396 C 0.50816 0.70239 0.48379 0.0
H3397 H 0.51186 0.59009 0.52827 0.0
H3398 H 0.50761 0.61901 0.51777 0.0
C3399 C 0.50495 0.71803 0.47581 0.0
C3400 C 0.52295 0.67465 0.48443 0.0
H3401 H 0.50375 0.63077 0.48675 0.0
C3402 C 0.53949 0.67444 0.49494 0.0
C3403 C 0.50996 0.6586 0.48172 0.0
C3404 C 0.49204 0.65782 0.47048 0.0
C3405 C 0.54323 0.65891 0.50295 0.0
C3406 C 0.53035 0.6426 0.49986 0.0
C3407 C 0.51379 0.64296 0.48933 0.0
C3408 C 0.53355 0.62513 0.50733 0.0
C3409 C 0.56079 0.66051 0.51519 0.0
C3410 C 0.5495 0.61834 0.50516 0.0
C3411 C 0.55207 0.60191 0.51167 0.0
C3412 C 0.53867 0.59142 0.52019 0.0
C3413 C 0.52259 0.5979 0.52203 0.0
C3414 C 0.52014 0.6145 0.51588 0.0
H3415 H 0.56591 0.67459 0.52147 0.0
H3416 H 0.55942 0.65186 0.52675 0.0
H3417 H 0.57102 0.65645 0.5065 0.0
H3418 H 0.55989 0.62548 0.49797 0.0
H3419 H 0.56432 0.5971 0.50937 0.0
H3420 H 0.60122 0.32139 0.66835 0.0
H3421 H 0.62803 0.32191 0.69021 0.0
H3422 H 0.6427 0.27971 0.65384 0.0
H3423 H 0.61655 0.28012 0.63138 0.0
H3424 H 0.63765 0.29973 0.71095 0.0
H3425 H 0.69025 0.30994 0.66308 0.0
H3426 H 0.66736 0.31186 0.65598 0.0
H3427 H 0.67397 0.29015 0.65486 0.0
C3428 C 0.61039 0.31249 0.66483 0.0
C3429 C 0.60688 0.30092 0.64795 0.0
C3430 C 0.62572 0.31271 0.67743 0.0
C3431 C 0.63785 0.30111 0.67371 0.0
C3432 C 0.63416 0.28935 0.6569 0.0
H3433 H 0.72829 0.27093 0.73924 0.0
H3434 H 0.70213 0.27247 0.71711 0.0
C3435 C 0.61906 0.28948 0.64404 0.0
C3436 C 0.65374 0.30081 0.68782 0.0
H3437 H 0.69897 0.30031 0.69268 0.0
C3438 C 0.65106 0.30007 0.70688 0.0
C3439 C 0.67145 0.30128 0.68281 0.0
C3440 C 0.67596 0.30355 0.66311 0.0
C3441 C 0.66527 0.29942 0.72076 0.0
C3442 C 0.68277 0.2994 0.71561 0.0
C3443 C 0.68554 0.30019 0.69666 0.0
C3444 C 0.69835 0.29835 0.72959 0.0
C3445 C 0.6614 0.29836 0.74084 0.0
C3446 C 0.70497 0.3123 0.74415 0.0
C3447 C 0.7201 0.3115 0.75668 0.0
C3448 C 0.72902 0.29685 0.75476 0.0
C3449 C 0.72207 0.28268 0.7406 0.0
C3450 C 0.70702 0.28349 0.72805 0.0
H3451 H 0.64675 0.2951 0.742 0.0
H3452 H 0.66804 0.28808 0.74713 0.0
H3453 H 0.66684 0.31151 0.7492 0.0
H3454 H 0.69867 0.32399 0.74558 0.0
H3455 H 0.72514 0.32256 0.76754 0.0
H3456 H 0.99318 0.33175 0.93807 0.0
H3457 H 0.99433 0.36269 0.95189 0.0
H3458 H 0.02781 0.35336 1.00029 0.0
H3459 H 0.02631 0.32208 0.98669 0.0
H3460 H 0.98515 0.37502 0.99254 0.0
H3461 H 0.05456 0.40042 0.97666 0.0
H3462 H 0.04059 0.38079 0.96337 0.0
H3463 H 0.05026 0.37953 0.98679 0.0
C3464 C 1.00076 0.3362 0.95171 0.0
C3465 C 0.00963 0.32427 0.96122 0.0
C3466 C 1.00138 0.35397 0.95963 0.0
C3467 C 0.0112 0.36057 0.97717 0.0
C3468 C 0.02013 0.34872 0.98675 0.0
H3469 H 0.04361 0.4706 0.0336 0.0
H3470 H 0.0402 0.43858 0.02311 0.0
C3471 C 0.01922 0.33077 0.97897 0.0
C3472 C 0.01217 0.37983 0.98522 0.0
H3473 H 0.03976 0.42108 0.99213 0.0
C3474 C 0.99711 0.3851 0.99251 0.0
C3475 C 0.02772 0.3931 0.98532 0.0
C3476 C 0.04425 0.38835 0.97757 0.0
C3477 C 0.99729 0.40303 1.00014 0.0
C3478 C 0.01277 0.41652 0.99989 0.0
C3479 C 0.02781 0.41109 0.9925 0.0
C3480 C 0.01397 0.43614 0.0074 0.0
C3481 C 0.98099 0.40702 0.00897 0.0
C3482 C 1.0004 0.44601 0.00249 0.0
C3483 C 1.00217 0.46442 0.00905 0.0
C3484 C 0.01778 0.47371 0.02028 0.0
C3485 C 0.03135 0.46392 0.02507 0.0
C3486 C 0.02941 0.4455 0.01893 0.0
H3487 H 0.97337 0.39481 0.01381 0.0
H3488 H 0.98475 0.41754 0.02114 0.0
H3489 H 0.97185 0.41172 0.99835 0.0
H3490 H 0.98861 0.43968 0.99309 0.0
H3491 H 0.9917 0.47157 0.00458 0.0
H3492 H 0.99827 0.80782 0.12748 0.0
H3493 H 0.97302 0.80638 0.14661 0.0
H3494 H 0.99304 0.76589 0.17627 0.0
H3495 H 0.01874 0.7682 0.1581 0.0
H3496 H 0.94616 0.78169 0.15155 0.0
H3497 H 0.98779 0.79902 0.22007 0.0
H3498 H 0.99731 0.80087 0.19817 0.0
H3499 H 0.99325 0.77957 0.20757 0.0
C3500 C 0.99722 0.79866 0.13813 0.0
C3501 C 0.01054 0.78828 0.14151 0.0
C3502 C 0.98283 0.79786 0.14909 0.0
C3503 C 0.98137 0.78646 0.1634 0.0
C3504 C 0.99422 0.7754 0.16598 0.0
H3505 H 0.90696 0.74391 0.23612 0.0
H3506 H 0.93268 0.75421 0.21942 0.0
C3507 C 1.00881 0.77656 0.15543 0.0
C3508 C 0.96632 0.78579 0.17542 0.0
H3509 H 0.95696 0.78541 0.22097 0.0
C3510 C 0.94854 0.78277 0.16675 0.0
C3511 C 0.96933 0.78741 0.19531 0.0
C3512 C 0.98797 0.7921 0.20581 0.0
C3513 C 0.93377 0.7803 0.17727 0.0
C3514 C 0.93682 0.78101 0.19709 0.0
C3515 C 0.95458 0.78473 0.2058 0.0
C3516 C 0.92191 0.77633 0.20886 0.0
C3517 C 0.91505 0.77614 0.16696 0.0
C3518 C 0.90759 0.78583 0.20929 0.0
C3519 C 0.89283 0.77995 0.21895 0.0
C3520 C 0.89216 0.76449 0.2283 0.0
C3521 C 0.90702 0.75574 0.22883 0.0
C3522 C 0.92173 0.76163 0.21929 0.0
H3523 H 0.91511 0.77227 0.1517 0.0
H3524 H 0.90654 0.7651 0.17282 0.0
H3525 H 0.90879 0.78824 0.1686 0.0
H3526 H 0.90761 0.79749 0.20176 0.0
H3527 H 0.88158 0.78695 0.21832 0.0
H3528 H 0.50414 0.29197 0.13414 0.0
H3529 H 0.50718 0.31788 0.11607 0.0
H3530 H 0.54856 0.34703 0.15832 0.0
H3531 H 0.54537 0.32127 0.17666 0.0
H3532 H 0.50467 0.35625 0.13046 0.0
H3533 H 0.5697 0.3469 0.10511 0.0
H3534 H 0.55451 0.32889 0.11304 0.0
H3535 H 0.56815 0.34592 0.12981 0.0
C3536 C 0.51382 0.30394 0.13962 0.0
C3537 C 0.52447 0.30465 0.15685 0.0
C3538 C 0.51553 0.3187 0.1293 0.0
C3539 C 0.52814 0.33429 0.13583 0.0
C3540 C 0.53878 0.33507 0.15303 0.0
H3541 H 0.56521 0.43594 0.09712 0.0
H3542 H 0.55604 0.41152 0.11603 0.0
C3543 C 0.53689 0.32041 0.16352 0.0
C3544 C 0.5302 0.34975 0.12466 0.0
H3545 H 0.55909 0.37335 0.09849 0.0
C3546 C 0.5165 0.35997 0.12337 0.0
C3547 C 0.54561 0.35444 0.11537 0.0
C3548 C 0.56033 0.34344 0.11571 0.0
C3549 C 0.51807 0.37508 0.11339 0.0
C3550 C 0.53364 0.37995 0.10444 0.0
C3551 C 0.5472 0.36958 0.10549 0.0
C3552 C 0.53644 0.39604 0.09424 0.0
C3553 C 0.50337 0.38605 0.11279 0.0
C3554 C 0.52793 0.39569 0.07598 0.0
C3555 C 0.53309 0.40973 0.0652 0.0
C3556 C 0.54675 0.42424 0.07261 0.0
C3557 C 0.55436 0.42508 0.0913 0.0
C3558 C 0.54927 0.41108 0.10201 0.0
H3559 H 0.49272 0.38128 0.12165 0.0
H3560 H 0.50911 0.40036 0.11763 0.0
H3561 H 0.49715 0.38534 0.09808 0.0
H3562 H 0.51814 0.38409 0.06969 0.0
H3563 H 0.52742 0.40858 0.05065 0.0
H3564 H 0.98098 0.31058 0.36482 0.0
H3565 H 0.95018 0.30987 0.35084 0.0
H3566 H 0.96581 0.29771 0.29579 0.0
H3567 H 0.99681 0.29855 0.30974 0.0
H3568 H 0.93698 0.33086 0.32414 0.0
H3569 H 0.92098 0.25857 0.29689 0.0
H3570 H 0.93981 0.26784 0.31428 0.0
H3571 H 0.94125 0.27087 0.28999 0.0
C3572 C 0.97791 0.30765 0.34972 0.0
C3573 C 0.99153 0.30453 0.33848 0.0
C3574 C 0.9602 0.3073 0.34171 0.0
C3575 C 0.95538 0.30354 0.32219 0.0
C3576 C 0.96894 0.30038 0.31089 0.0
H3577 H 0.85204 0.30376 0.25277 0.0
H3578 H 0.8842 0.30586 0.26356 0.0
C3579 C 0.98676 0.30094 0.3189 0.0
C3580 C 0.93629 0.30326 0.31381 0.0
H3581 H 0.89902 0.27602 0.2891 0.0
C3582 C 0.92876 0.31885 0.31644 0.0
C3583 C 0.92529 0.28763 0.30376 0.0
C3584 C 0.93211 0.2702 0.30114 0.0
C3585 C 0.91084 0.31925 0.30929 0.0
C3586 C 0.89988 0.30365 0.2993 0.0
C3587 C 0.90738 0.28807 0.29657 0.0
C3588 C 0.88035 0.30302 0.29259 0.0
C3589 C 0.90361 0.33639 0.31246 0.0
C3590 C 0.86732 0.30085 0.30522 0.0
C3591 C 0.84895 0.29938 0.29903 0.0
C3592 C 0.84297 0.3003 0.28004 0.0
C3593 C 0.85607 0.30305 0.26748 0.0
C3594 C 0.8745 0.30418 0.27364 0.0
H3595 H 0.91432 0.34795 0.31833 0.0
H3596 H 0.897 0.33951 0.29905 0.0
H3597 H 0.89329 0.33463 0.32239 0.0
H3598 H 0.87136 0.3 0.3199 0.0
H3599 H 0.83936 0.29744 0.3092 0.0
H3600 H 0.04918 0.7123 0.65252 0.0
H3601 H 0.04829 0.68571 0.63003 0.0
H3602 H 0.99035 0.67726 0.62327 0.0
H3603 H 0.9914 0.70456 0.64471 0.0
H3604 H 0.03656 0.65185 0.62878 0.0
H3605 H 0.99674 0.67387 0.56975 0.0
H3606 H 1.00542 0.68864 0.59089 0.0
H3607 H 0.98507 0.6723 0.59017 0.0
C3608 C 0.03627 0.70475 0.64614 0.0
C3609 C 0.02037 0.71057 0.65023 0.0
C3610 C 0.03574 0.68951 0.63327 0.0
C3611 C 0.01925 0.6795 0.62435 0.0
C3612 C 1.00331 0.68497 0.62916 0.0
H3613 H 0.99788 0.57469 0.5551 0.0
H3614 H 0.99627 0.60089 0.57717 0.0
C3615 C 1.00388 0.7005 0.64164 0.0
C3616 C 0.01889 0.66339 0.61025 0.0
H3617 H 1.00204 0.644 0.56563 0.0
C3618 C 0.02904 0.65027 0.61498 0.0
C3619 C 1.0091 0.66104 0.59206 0.0
C3620 C 0.99862 0.67479 0.58533 0.0
C3621 C 0.02962 0.63513 0.60225 0.0
C3622 C 0.01983 0.63285 0.58422 0.0
C3623 C 0.00955 0.64574 0.57946 0.0
C3624 C 0.02035 0.61723 0.57009 0.0
C3625 C 0.04076 0.62157 0.60806 0.0
C3626 C 0.0342 0.61776 0.5584 0.0
C3627 C 0.03496 0.60291 0.54547 0.0
C3628 C 0.02206 0.58704 0.54419 0.0
C3629 C 1.00807 0.58666 0.55575 0.0
C3630 C 1.00714 0.60162 0.56841 0.0
H3631 H 0.04654 0.62446 0.62302 0.0
H3632 H 0.03243 0.60789 0.60579 0.0
H3633 H 0.05192 0.62159 0.59915 0.0
H3634 H 0.04457 0.62963 0.55944 0.0
H3635 H 0.046 0.60365 0.53694 0.0
H3636 H 0.58023 0.77842 0.82063 0.0
H3637 H 0.60756 0.77232 0.80763 0.0
H3638 H 0.63673 0.82309 0.83528 0.0
H3639 H 0.60971 0.82872 0.84905 0.0
H3640 H 0.62906 0.78559 0.78478 0.0
H3641 H 0.67129 0.79406 0.85285 0.0
H3642 H 0.64748 0.7938 0.85143 0.0
H3643 H 0.66286 0.81408 0.84885 0.0
C3644 C 0.59248 0.7883 0.82399 0.0
C3645 C 0.59262 0.80404 0.83611 0.0
C3646 C 0.60824 0.78478 0.8165 0.0
C3647 C 0.62474 0.79692 0.82073 0.0
C3648 C 0.62464 0.813 0.83223 0.0
H3649 H 0.73593 0.80262 0.79414 0.0
H3650 H 0.70727 0.80749 0.80432 0.0
C3651 C 0.60898 0.81637 0.83998 0.0
C3652 C 0.64186 0.79284 0.81309 0.0
H3653 H 0.68657 0.79262 0.82567 0.0
C3654 C 0.64159 0.78707 0.79382 0.0
C3655 C 0.65848 0.79451 0.8246 0.0
C3656 C 0.66003 0.79926 0.84559 0.0
C3657 C 0.65723 0.78366 0.78578 0.0
C3658 C 0.67394 0.7857 0.79726 0.0
C3659 C 0.67408 0.79117 0.81657 0.0
C3660 C 0.6915 0.78274 0.78981 0.0
C3661 C 0.65563 0.77849 0.76486 0.0
C3662 C 0.69283 0.76723 0.77793 0.0
C3663 C 0.70937 0.76468 0.77154 0.0
C3664 C 0.72539 0.77715 0.77737 0.0
C3665 C 0.72407 0.79254 0.78935 0.0
C3666 C 0.70751 0.79534 0.79529 0.0
H3667 H 0.64397 0.78297 0.75748 0.0
H3668 H 0.66795 0.7843 0.75883 0.0
H3669 H 0.65347 0.76365 0.76198 0.0
H3670 H 0.68115 0.75681 0.7738 0.0
H3671 H 0.70959 0.7527 0.7624 0.0
H3672 H 0.47747 0.53013 0.73024 0.0
H3673 H 0.49314 0.53561 0.7025 0.0
H3674 H 0.44228 0.52728 0.66798 0.0
H3675 H 0.42649 0.5216 0.69562 0.0
H3676 H 0.48767 0.50974 0.66688 0.0
H3677 H 0.47215 0.57721 0.65669 0.0
H3678 H 0.47139 0.56821 0.67902 0.0
H3679 H 0.45383 0.5599 0.66025 0.0
C3680 C 0.46961 0.52947 0.71675 0.0
C3681 C 0.45073 0.52537 0.71513 0.0
C3682 C 0.47859 0.53264 0.70093 0.0
C3683 C 0.46887 0.53203 0.68322 0.0
C3684 C 0.45003 0.52802 0.68155 0.0
H3685 H 0.50004 0.5525 0.57253 0.0
H3686 H 0.48463 0.54923 0.60066 0.0
C3687 C 0.44103 0.52467 0.69734 0.0
C3688 C 0.47849 0.53486 0.66639 0.0
H3689 H 0.48791 0.56417 0.63402 0.0
C3690 C 0.48778 0.52164 0.65967 0.0
C3691 C 0.47839 0.55028 0.65691 0.0
C3692 C 0.46851 0.56482 0.66356 0.0
C3693 C 0.49671 0.52321 0.6435 0.0
C3694 C 0.49711 0.53893 0.63421 0.0
C3695 C 0.48777 0.55218 0.64105 0.0
C3696 C 0.50687 0.54175 0.6173 0.0
C3697 C 0.50495 0.50759 0.63625 0.0
C3698 C 0.52471 0.53913 0.61721 0.0
C3699 C 0.53327 0.54027 0.60089 0.0
C3700 C 0.52465 0.54515 0.58448 0.0
C3701 C 0.50715 0.54877 0.58488 0.0
C3702 C 0.49832 0.54695 0.60104 0.0
H3703 H 0.49813 0.49479 0.64067 0.0
H3704 H 0.5042 0.50607 0.62069 0.0
H3705 H 0.51925 0.50974 0.64223 0.0
H3706 H 0.53198 0.53584 0.62968 0.0
H3707 H 0.54659 0.53701 0.60114 0.0
H3708 H 0.77129 0.1866 0.02041 0.0
H3709 H 0.77221 0.20374 0.99335 0.0
H3710 H 0.76037 0.15443 0.95591 0.0
H3711 H 0.75922 0.13715 0.98282 0.0
H3712 H 0.79593 0.20007 0.96382 0.0
H3713 H 0.72264 0.18541 0.93913 0.0
H3714 H 0.73141 0.18297 0.96275 0.0
H3715 H 0.73271 0.16633 0.94377 0.0
C3716 C 0.76877 0.17945 0.00641 0.0
C3717 C 0.76528 0.16063 0.00357 0.0
C3718 C 0.76938 0.18921 0.99107 0.0
C3719 C 0.76645 0.18019 0.97289 0.0
C3720 C 0.76262 0.16145 0.96998 0.0
H3721 H 0.75431 0.22236 0.86771 0.0
H3722 H 0.76836 0.20471 0.88969 0.0
C3723 C 0.76196 0.15167 0.9853 0.0
C3724 C 0.76746 0.19046 0.95688 0.0
H3725 H 0.74165 0.20191 0.92056 0.0
C3726 C 0.78416 0.20045 0.9542 0.0
C3727 C 0.75195 0.19076 0.94466 0.0
C3728 C 0.73361 0.18093 0.94772 0.0
C3729 C 0.78566 0.21114 0.93949 0.0
C3730 C 0.77013 0.21147 0.92737 0.0
C3731 C 0.75356 0.20113 0.92981 0.0
C3732 C 0.76965 0.22436 0.91376 0.0
C3733 C 0.80353 0.2223 0.93714 0.0
C3734 C 0.76647 0.24135 0.92019 0.0
C3735 C 0.75795 0.25104 0.90791 0.0
C3736 C 0.75293 0.24388 0.8892 0.0
C3737 C 0.75794 0.22783 0.88229 0.0
C3738 C 0.76622 0.21798 0.89465 0.0
H3739 H 0.81474 0.21868 0.94616 0.0
H3740 H 0.80621 0.2206 0.92223 0.0
H3741 H 0.80313 0.23669 0.94092 0.0
H3742 H 0.76881 0.2462 0.93502 0.0
H3743 H 0.75438 0.26361 0.9132 0.0
H3744 H 0.13441 0.5141 0.21274 0.0
H3745 H 0.11295 0.51117 0.18473 0.0
H3746 H 0.15069 0.5479 0.15921 0.0
H3747 H 0.17242 0.55086 0.18718 0.0
H3748 H 0.104 0.54686 0.17451 0.0
H3749 H 0.12611 0.50295 0.11806 0.0
H3750 H 0.13142 0.50083 0.14266 0.0
H3751 H 0.14265 0.51974 0.13263 0.0
C3752 C 0.1383 0.52119 0.20097 0.0
C3753 C 0.15486 0.53282 0.20202 0.0
C3754 C 0.12612 0.51946 0.18508 0.0
C3755 C 0.13048 0.52934 0.17023 0.0
C3756 C 0.1474 0.54011 0.17067 0.0
H3757 H 0.05365 0.55736 0.08786 0.0
H3758 H 0.07589 0.55894 0.11514 0.0
C3759 C 0.15968 0.54178 0.18657 0.0
C3760 C 0.11635 0.53029 0.15563 0.0
H3761 H 0.0999 0.51456 0.11066 0.0
C3762 C 0.10298 0.53985 0.16049 0.0
C3763 C 0.11545 0.52108 0.13763 0.0
C3764 C 0.1296 0.51048 0.1323 0.0
C3765 C 0.08811 0.54 0.1477 0.0
C3766 C 0.08711 0.53067 0.12966 0.0
C3767 C 0.10079 0.52152 0.12468 0.0
C3768 C 0.07199 0.53008 0.11554 0.0
C3769 C 0.07349 0.54965 0.15377 0.0
C3770 C 0.06261 0.51335 0.10703 0.0
C3771 C 0.05065 0.51246 0.09111 0.0
C3772 C 0.04773 0.52832 0.0841 0.0
C3773 C 0.05589 0.54509 0.09343 0.0
C3774 C 0.06838 0.54598 0.10896 0.0
H3775 H 0.0739 0.55159 0.16931 0.0
H3776 H 0.07542 0.56312 0.14876 0.0
H3777 H 0.05998 0.5422 0.14776 0.0
H3778 H 0.06529 0.50101 0.1121 0.0
H3779 H 0.04413 0.49948 0.08393 0.0
H3780 H 0.79039 0.88722 0.46912 0.0
H3781 H 0.79037 0.87152 0.43788 0.0
H3782 H 0.79934 0.824 0.46275 0.0
H3783 H 0.79905 0.83957 0.49411 0.0
H3784 H 0.81757 0.8574 0.4236 0.0
H3785 H 0.75776 0.80377 0.42248 0.0
H3786 H 0.76253 0.82335 0.43962 0.0
H3787 H 0.77427 0.80501 0.44235 0.0
C3788 C 0.79218 0.87336 0.46795 0.0
C3789 C 0.79466 0.86461 0.4841 0.0
C3790 C 0.7922 0.86441 0.45007 0.0
C3791 C 0.79465 0.8465 0.4479 0.0
C3792 C 0.79705 0.83769 0.46401 0.0
H3793 H 0.80492 0.77693 0.34616 0.0
H3794 H 0.80675 0.78996 0.37899 0.0
C3795 C 0.79698 0.84663 0.48194 0.0
C3796 C 0.79541 0.8374 0.42882 0.0
H3797 H 0.77529 0.8016 0.3971 0.0
C3798 C 0.80833 0.84519 0.41784 0.0
C3799 C 0.78334 0.82146 0.42125 0.0
C3800 C 0.76857 0.81297 0.43193 0.0
C3801 C 0.8095 0.83751 0.39956 0.0
C3802 C 0.7974 0.82165 0.39201 0.0
C3803 C 0.78466 0.81368 0.40302 0.0
C3804 C 0.79698 0.81391 0.37222 0.0
C3805 C 0.82364 0.84639 0.38839 0.0
C3806 C 0.79092 0.82306 0.35758 0.0
C3807 C 0.78986 0.8157 0.3389 0.0
C3808 C 0.79487 0.79899 0.3344 0.0
C3809 C 0.80113 0.78989 0.3491 0.0
C3810 C 0.80209 0.79726 0.36787 0.0
H3811 H 0.83418 0.8563 0.39742 0.0
H3812 H 0.83011 0.8362 0.38095 0.0
H3813 H 0.81721 0.85353 0.37765 0.0
H3814 H 0.78678 0.83585 0.36065 0.0
H3815 H 0.78504 0.82312 0.32798 0.0
H3816 H 0.45419 0.49249 0.81329 0.0
H3817 H 0.46924 0.4931 0.84505 0.0
H3818 H 0.46781 0.54959 0.8556 0.0
H3819 H 0.45141 0.54852 0.82442 0.0
H3820 H 0.49933 0.50828 0.86213 0.0
H3821 H 0.44911 0.53525 0.90166 0.0
H3822 H 0.44489 0.52835 0.87678 0.0
H3823 H 0.45754 0.55034 0.8856 0.0
C3824 C 0.45698 0.50497 0.82252 0.0
C3825 C 0.45151 0.52041 0.81655 0.0
C3826 C 0.46562 0.50535 0.84067 0.0
C3827 C 0.46936 0.52129 0.85311 0.0
C3828 C 0.46446 0.53691 0.84676 0.0
H3829 H 0.53146 0.55138 0.96347 0.0
H3830 H 0.51674 0.55084 0.93155 0.0
C3831 C 0.45526 0.53637 0.82884 0.0
C3832 C 0.47877 0.52161 0.87244 0.0
H3833 H 0.47747 0.53528 0.91895 0.0
C3834 C 0.4944 0.51408 0.87452 0.0
C3835 C 0.47242 0.52905 0.88881 0.0
C3836 C 0.45497 0.53601 0.88813 0.0
C3837 C 0.50391 0.51404 0.89228 0.0
C3838 C 0.49781 0.52193 0.90845 0.0
C3839 C 0.48225 0.52945 0.90648 0.0
C3840 C 0.50715 0.52215 0.92764 0.0
C3841 C 0.52053 0.5057 0.89365 0.0
C3842 C 0.50641 0.50626 0.93617 0.0
C3843 C 0.51452 0.50658 0.95454 0.0
C3844 C 0.52384 0.52273 0.96471 0.0
C3845 C 0.52455 0.53865 0.95607 0.0
C3846 C 0.51616 0.53838 0.9378 0.0
H3847 H 0.52525 0.50296 0.8797 0.0
H3848 H 0.53156 0.51459 0.90309 0.0
H3849 H 0.5175 0.4928 0.89974 0.0
H3850 H 0.49929 0.49362 0.92874 0.0
H3851 H 0.51327 0.49416 0.9608 0.0
H3852 H 0.80224 0.152 0.10769 0.0
H3853 H 0.80882 0.17385 0.13593 0.0
H3854 H 0.7557 0.18649 0.12633 0.0
H3855 H 0.74923 0.165 0.09812 0.0
H3856 H 0.80506 0.21103 0.12913 0.0
H3857 H 0.76502 0.18343 0.18406 0.0
H3858 H 0.77192 0.16931 0.1655 0.0
H3859 H 0.7532 0.18039 0.16082 0.0
C3860 C 0.79185 0.15903 0.11212 0.0
C3861 C 0.77533 0.15715 0.10106 0.0
C3862 C 0.7956 0.1714 0.12806 0.0
C3863 C 0.78263 0.18142 0.133 0.0
C3864 C 0.76566 0.17853 0.12269 0.0
H3865 H 0.76921 0.27254 0.20107 0.0
H3866 H 0.76936 0.25179 0.17312 0.0
C3867 C 0.76204 0.16644 0.10665 0.0
C3868 C 0.78748 0.19693 0.1469 0.0
H3869 H 0.77501 0.21523 0.18722 0.0
C3870 C 0.79886 0.21195 0.14207 0.0
C3871 C 0.77889 0.19785 0.16333 0.0
C3872 C 0.76666 0.18184 0.16885 0.0
C3873 C 0.80152 0.22832 0.1533 0.0
C3874 C 0.79265 0.22926 0.16948 0.0
C3875 C 0.78157 0.21418 0.17451 0.0
C3876 C 0.79528 0.24552 0.18222 0.0
C3877 C 0.81325 0.24461 0.14772 0.0
C3878 C 0.81016 0.24901 0.19585 0.0
C3879 C 0.81002 0.26057 0.21184 0.0
C3880 C 0.79504 0.26861 0.21402 0.0
C3881 C 0.78092 0.26642 0.19949 0.0
C3882 C 0.78101 0.25475 0.18358 0.0
H3883 H 0.81794 0.24195 0.13375 0.0
H3884 H 0.80573 0.25589 0.14742 0.0
H3885 H 0.82514 0.24895 0.15836 0.0
H3886 H 0.82107 0.24162 0.19488 0.0
H3887 H 0.82105 0.26236 0.22295 0.0
H3888 H 0.17925 0.53972 0.31694 0.0
H3889 H 0.16113 0.53828 0.34342 0.0
H3890 H 0.12327 0.56513 0.31402 0.0
H3891 H 0.14101 0.56626 0.28746 0.0
H3892 H 0.14811 0.56676 0.36502 0.0
H3893 H 0.09368 0.51616 0.32385 0.0
H3894 H 0.11628 0.5207 0.31736 0.0
H3895 H 0.10082 0.53539 0.31194 0.0
C3896 C 0.16717 0.54551 0.31633 0.0
C3897 C 0.16118 0.55279 0.30023 0.0
C3898 C 0.15689 0.5446 0.33132 0.0
C3899 C 0.14074 0.55109 0.33017 0.0
C3900 C 0.13549 0.55958 0.3147 0.0
H3901 H 0.05677 0.57746 0.38372 0.0
H3902 H 0.07591 0.5657 0.362 0.0
C3903 C 0.1456 0.56029 0.29968 0.0
C3904 C 0.12897 0.54884 0.34489 0.0
H3905 H 0.08571 0.53237 0.35121 0.0
C3906 C 0.1346 0.55893 0.36231 0.0
C3907 C 0.11149 0.53849 0.34101 0.0
C3908 C 0.10524 0.52693 0.32257 0.0
C3909 C 0.12255 0.56019 0.3756 0.0
C3910 C 0.10468 0.55067 0.37127 0.0
C3911 C 0.09944 0.5396 0.35433 0.0
C3912 C 0.09083 0.55395 0.38319 0.0
C3913 C 0.12869 0.57269 0.3935 0.0
C3914 C 0.09254 0.55045 0.40187 0.0
C3915 C 0.0823 0.55779 0.41437 0.0
C3916 C 0.0696 0.56809 0.40816 0.0
C3917 C 0.06672 0.57001 0.38898 0.0
C3918 C 0.0774 0.56306 0.37655 0.0
H3919 H 0.14184 0.58152 0.3929 0.0
H3920 H 0.11867 0.58131 0.39643 0.0
H3921 H 0.13022 0.56466 0.40545 0.0
H3922 H 0.10272 0.5432 0.40704 0.0
H3923 H 0.0852 0.55622 0.42907 0.0
H3924 H 0.80978 0.84778 0.57887 0.0
H3925 H 0.8047 0.83183 0.60658 0.0
H3926 H 0.76857 0.86672 0.62317 0.0
H3927 H 0.7739 0.88298 0.59577 0.0
H3928 H 0.80874 0.85108 0.64827 0.0
H3929 H 0.74177 0.81053 0.61997 0.0
H3930 H 0.75815 0.81902 0.60483 0.0
H3931 H 0.74611 0.83404 0.61678 0.0
C3932 C 0.80076 0.85204 0.58843 0.0
C3933 C 0.79227 0.86664 0.58517 0.0
C3934 C 0.79789 0.84294 0.60425 0.0
C3935 C 0.78618 0.84804 0.61685 0.0
C3936 C 0.77761 0.86255 0.61358 0.0
H3937 H 0.7544 0.80962 0.72183 0.0
H3938 H 0.75657 0.82497 0.69333 0.0
C3939 C 0.78073 0.87185 0.59797 0.0
C3940 C 0.78309 0.83834 0.63357 0.0
H3941 H 0.75259 0.80761 0.65121 0.0
C3942 C 0.7965 0.84156 0.64891 0.0
C3943 C 0.76704 0.82604 0.6344 0.0
C3944 C 0.75239 0.82204 0.61813 0.0
C3945 C 0.79424 0.83278 0.6651 0.0
C3946 C 0.7783 0.82028 0.66584 0.0
C3947 C 0.76481 0.81718 0.65058 0.0
C3948 C 0.77577 0.81005 0.68228 0.0
C3949 C 0.8088 0.83702 0.68146 0.0
C3950 C 0.78553 0.79633 0.68526 0.0
C3951 C 0.7842 0.78746 0.70138 0.0
C3952 C 0.77319 0.79226 0.71494 0.0
C3953 C 0.76305 0.8057 0.71168 0.0
C3954 C 0.76425 0.81445 0.69541 0.0
H3955 H 0.81897 0.849 0.67992 0.0
H3956 H 0.80288 0.8394 0.6948 0.0
H3957 H 0.8157 0.82538 0.68252 0.0
H3958 H 0.79445 0.79271 0.67526 0.0
H3959 H 0.79224 0.77722 0.7035 0.0
H3960 H 0.73785 0.43394 0.47758 0.0
H3961 H 0.7135 0.45115 0.47981 0.0
H3962 H 0.73909 0.47738 0.53385 0.0
H3963 H 0.76362 0.46083 0.53138 0.0
H3964 H 0.69146 0.45056 0.50813 0.0
H3965 H 0.72912 0.51929 0.50627 0.0
H3966 H 0.7375 0.49943 0.49815 0.0
H3967 H 0.7401 0.50737 0.5228 0.0
C3968 C 0.73823 0.44354 0.48979 0.0
C3969 C 0.75246 0.44642 0.50423 0.0
C3970 C 0.7245 0.45334 0.49097 0.0
C3971 C 0.72503 0.46585 0.50664 0.0
C3972 C 0.73901 0.46829 0.5213 0.0
H3973 H 0.67001 0.51929 0.5775 0.0
H3974 H 0.69108 0.50792 0.55781 0.0
C3975 C 0.75284 0.45878 0.51997 0.0
C3976 C 0.71022 0.47534 0.5088 0.0
H3977 H 0.70226 0.51687 0.52255 0.0
C3978 C 0.69351 0.46509 0.51069 0.0
C3979 C 0.71326 0.49423 0.5121 0.0
C3980 C 0.73095 0.5057 0.50953 0.0
C3981 C 0.68008 0.47323 0.51768 0.0
C3982 C 0.6836 0.49205 0.52232 0.0
C3983 C 0.6998 0.50242 0.51894 0.0
C3984 C 0.67163 0.50077 0.53307 0.0
C3985 C 0.66291 0.46155 0.5215 0.0
C3986 C 0.65405 0.50058 0.52536 0.0
C3987 C 0.64199 0.50649 0.53664 0.0
C3988 C 0.64755 0.51302 0.5556 0.0
C3989 C 0.6654 0.51389 0.56305 0.0
C3990 C 0.67742 0.50774 0.5518 0.0
H3991 H 0.66377 0.44706 0.52011 0.0
H3992 H 0.6596 0.46537 0.53586 0.0
H3993 H 0.65168 0.46341 0.51131 0.0
H3994 H 0.64957 0.49535 0.51085 0.0
H3995 H 0.62824 0.50573 0.5306 0.0
H3996 H 0.23161 0.12946 0.53146 0.0
H3997 H 0.20225 0.10967 0.52982 0.0
H3998 H 0.18043 0.13958 0.48815 0.0
H3999 H 0.20969 0.15975 0.49009 0.0
H4000 H 0.16581 0.12425 0.53391 0.0
H4001 H 0.1709 0.08184 0.46782 0.0
H4002 H 0.1906 0.09351 0.48293 0.0
H4003 H 0.17751 0.10587 0.46889 0.0
C4004 C 0.22054 0.13181 0.52197 0.0
C4005 C 0.22284 0.14615 0.51096 0.0
C4006 C 0.20383 0.12053 0.52106 0.0
C4007 C 0.18929 0.12317 0.50881 0.0
C4008 C 0.19155 0.13738 0.49768 0.0
H4009 H 0.07917 0.06458 0.48607 0.0
H4010 H 0.1079 0.08449 0.48468 0.0
C4011 C 0.20819 0.1489 0.49886 0.0
C4012 C 0.17167 0.11118 0.50799 0.0
H4013 H 0.14438 0.07499 0.48228 0.0
C4014 C 0.16108 0.11349 0.52264 0.0
C4015 C 0.16559 0.09728 0.49317 0.0
C4016 C 0.17669 0.0943 0.47727 0.0
C4017 C 0.1445 0.10212 0.52289 0.0
C4018 C 0.13862 0.08793 0.50831 0.0
C4019 C 0.14905 0.08583 0.49348 0.0
C4020 C 0.12168 0.07508 0.50839 0.0
C4021 C 0.13328 0.10542 0.53863 0.0
C4022 C 0.12014 0.06292 0.52189 0.0
C4023 C 0.10385 0.05141 0.5226 0.0
C4024 C 0.0888 0.05199 0.50989 0.0
C4025 C 0.09055 0.06386 0.49605 0.0
C4026 C 0.1069 0.07523 0.49524 0.0
H4027 H 0.13797 0.11888 0.54665 0.0
H4028 H 0.11894 0.10424 0.53304 0.0
H4029 H 0.13409 0.09514 0.54848 0.0
H4030 H 0.13149 0.06255 0.53206 0.0
H4031 H 0.10285 0.04253 0.53352 0.0
H4032 H 0.14132 0.98143 0.79042 0.0
H4033 H 0.1582 0.95669 0.78849 0.0
H4034 H 0.20236 0.99163 0.76977 0.0
H4035 H 0.18591 0.0164 0.77223 0.0
H4036 H 0.1715 0.94097 0.75845 0.0
H4037 H 0.22763 0.97192 0.81271 0.0
H4038 H 0.20699 0.98055 0.80979 0.0
H4039 H 0.22425 0.98614 0.79472 0.0
C4040 C 0.15465 0.98379 0.78596 0.0
C4041 C 0.1624 1.00084 0.78167 0.0
C4042 C 0.16427 0.9697 0.78489 0.0
C4043 C 0.1817 0.97249 0.77947 0.0
C4044 C 0.18918 0.98936 0.7746 0.0
H4045 H 0.26082 0.91747 0.74337 0.0
H4046 H 0.24301 0.93841 0.75641 0.0
C4047 C 0.1797 1.00346 0.77588 0.0
C4048 C 0.19198 0.95768 0.77828 0.0
H4049 H 0.23273 0.94718 0.79196 0.0
C4050 C 0.18474 0.94213 0.76604 0.0
C4051 C 0.20925 0.95929 0.78822 0.0
C4052 C 0.21741 0.97531 0.80223 0.0
C4053 C 0.19475 0.92854 0.76266 0.0
C4054 C 0.21228 0.93049 0.7721 0.0
C4055 C 0.21923 0.94572 0.78487 0.0
C4056 C 0.22439 0.91801 0.76714 0.0
C4057 C 0.18688 0.91273 0.74826 0.0
C4058 C 0.22031 0.89975 0.7697 0.0
C4059 C 0.23054 0.88774 0.76225 0.0
C4060 C 0.24488 0.89397 0.75221 0.0
C4061 C 0.24973 0.91242 0.75099 0.0
C4062 C 0.23958 0.92435 0.75841 0.0
H4063 H 0.17453 0.91488 0.7399 0.0
H4064 H 0.19682 0.91008 0.73848 0.0
H4065 H 0.18333 0.90059 0.7555 0.0
H4066 H 0.2088 0.8947 0.77671 0.0
H4067 H 0.22656 0.87353 0.76329 0.0
H4068 H 0.34028 0.96803 0.02693 0.0
H4069 H 0.37056 0.9858 0.02909 0.0
H4070 H 0.38397 0.94872 0.98584 0.0
H4071 H 0.35368 0.93065 0.9837 0.0
H4072 H 0.40404 0.96395 0.03352 0.0
H4073 H 0.39667 0.00706 0.97558 0.0
H4074 H 0.378 0.99887 0.98815 0.0
H4075 H 0.38612 0.98368 0.97195 0.0
C4076 C 0.34971 0.96375 0.01788 0.0
C4077 C 0.34505 0.94802 0.00535 0.0
C4078 C 0.36679 0.97386 0.01907 0.0
C4079 C 0.37902 0.96835 0.00755 0.0
C4080 C 0.37436 0.9529 0.99472 0.0
H4081 H 0.48641 1.00065 0.99275 0.0
H4082 H 0.4574 0.98308 0.99765 0.0
C4083 C 0.35731 0.94263 0.99366 0.0
C4084 C 0.39719 0.97807 0.01005 0.0
H4085 H 0.42553 0.00985 0.99218 0.0
C4086 C 0.40885 0.97407 0.02463 0.0
C4087 C 0.40287 0.99114 0.99828 0.0
C4088 C 0.39032 0.99558 0.9826 0.0
C4089 C 0.42665 0.98284 0.02757 0.0
C4090 C 0.43237 0.99568 0.01565 0.0
C4091 C 0.42064 0.99992 1.00126 0.0
C4092 C 0.4509 1.00407 0.01683 0.0
C4093 C 0.43937 0.97827 0.04299 0.0
C4094 C 0.45643 0.02124 0.02647 0.0
C4095 C 0.47278 0.03118 0.02364 0.0
C4096 C 0.48335 0.02371 0.01136 0.0
C4097 C 0.47828 1.0062 0.00255 0.0
C4098 C 0.46196 0.99627 0.00537 0.0
H4099 H 0.43251 0.96836 0.05155 0.0
H4100 H 0.45033 0.97269 0.03676 0.0
H4101 H 0.4457 0.99066 0.05233 0.0
H4102 H 0.44763 0.02727 0.03509 0.0
H4103 H 0.47675 0.0449 0.03019 0.0
H4104 H 0.8667 0.56821 0.82612 0.0
H4105 H 0.84908 0.592 0.82128 0.0
H4106 H 0.86265 0.59227 0.76437 0.0
H4107 H 0.88064 0.56901 0.76934 0.0
H4108 H 0.86566 0.62842 0.80128 0.0
H4109 H 0.80325 0.58158 0.76928 0.0
H4110 H 0.81957 0.575 0.78593 0.0
H4111 H 0.82425 0.57703 0.76218 0.0
C4112 C 0.86606 0.57369 0.81276 0.0
C4113 C 0.87507 0.56741 0.79816 0.0
C4114 C 0.85606 0.58703 0.81002 0.0
C4115 C 0.85479 0.59358 0.79255 0.0
C4116 C 0.86378 0.58726 0.77796 0.0
H4117 H 0.8177 0.66175 0.7239 0.0
H4118 H 0.83529 0.6451 0.7438 0.0
C4119 C 0.87406 0.57423 0.78082 0.0
C4120 C 0.84404 0.60709 0.78919 0.0
H4121 H 0.80542 0.61237 0.76453 0.0
C4122 C 0.85228 0.62508 0.7937 0.0
C4123 C 0.82678 0.60227 0.77919 0.0
C4124 C 0.81783 0.58291 0.77391 0.0
C4125 C 0.8439 0.63864 0.78735 0.0
C4126 C 0.82704 0.63377 0.77656 0.0
C4127 C 0.81836 0.61582 0.77302 0.0
C4128 C 0.81896 0.64666 0.76675 0.0
C4129 C 0.85336 0.65792 0.79129 0.0
C4130 C 0.80423 0.65283 0.77341 0.0
C4131 C 0.79414 0.66207 0.76209 0.0
C4132 C 0.79866 0.66494 0.74399 0.0
C4133 C 0.81385 0.65928 0.73766 0.0
C4134 C 0.824 0.65014 0.74906 0.0
H4135 H 0.86542 0.65959 0.80175 0.0
H4136 H 0.85764 0.66273 0.77804 0.0
H4137 H 0.84403 0.66646 0.79653 0.0
H4138 H 0.80017 0.64987 0.78698 0.0
H4139 H 0.78249 0.66647 0.76721 0.0
H4140 H 0.8215 0.66087 0.04569 0.0
H4141 H 0.84555 0.64334 0.0497 0.0
H4142 H 0.83831 0.62629 0.99018 0.0
H4143 H 0.81374 0.64337 0.98621 0.0
H4144 H 0.83909 0.60269 0.0346 0.0
H4145 H 0.89532 0.64775 0.00889 0.0
H4146 H 0.87669 0.65617 0.01808 0.0
H4147 H 0.87346 0.64337 0.99544 0.0
C4148 C 0.82519 0.6535 0.03347 0.0
C4149 C 0.81591 0.65337 0.01566 0.0
C4150 C 0.83886 0.64354 0.03576 0.0
C4151 C 0.84371 0.63372 0.0202 0.0
C4152 C 0.83473 0.63389 0.0023 0.0
H4153 H 0.91702 0.55656 0.02315 0.0
H4154 H 0.89591 0.57516 0.01134 0.0
C4155 C 0.82073 0.64353 1.00007 0.0
C4156 C 0.85743 0.62244 0.02303 0.0
H4157 H 0.90172 0.62105 0.02005 0.0
C4158 C 0.85274 0.60658 0.03127 0.0
C4159 C 0.87514 0.62765 0.01859 0.0
C4160 C 0.88062 0.64469 0.00981 0.0
C4161 C 0.86549 0.59591 0.03556 0.0
C4162 C 0.88333 0.60137 0.03165 0.0
C4163 C 0.88796 0.61698 0.02296 0.0
C4164 C 0.89745 0.59154 0.03788 0.0
C4165 C 0.86001 0.57901 0.04461 0.0
C4166 C 0.90531 0.59486 0.05657 0.0
C4167 C 0.91709 0.5842 0.06336 0.0
C4168 C 0.92125 0.57014 0.05149 0.0
C4169 C 0.91394 0.56732 0.03254 0.0
C4170 C 0.902 0.57791 0.02579 0.0
H4171 H 0.8453 0.57591 0.04541 0.0
H4172 H 0.86406 0.56747 0.03655 0.0
H4173 H 0.86707 0.58052 0.05905 0.0
H4174 H 0.90191 0.60539 0.06603 0.0
H4175 H 0.92284 0.58681 0.07793 0.0
H4176 H 0.19364 0.08408 0.8066 0.0
H4177 H 0.2148 0.11249 0.80837 0.0
H4178 H 0.17273 0.13717 0.78348 0.0
H4179 H 0.15141 0.10886 0.7819 0.0
H4180 H 0.22458 0.13085 0.77835 0.0
H4181 H 0.19456 0.17341 0.82882 0.0
H4182 H 0.18866 0.14921 0.82586 0.0
H4183 H 0.17903 0.16212 0.80925 0.0
C4184 C 0.18884 0.09562 0.8017 0.0
C4185 C 0.17084 0.09428 0.79417 0.0
C4186 C 0.20095 0.11182 0.8027 0.0
C4187 C 0.19529 0.12699 0.79629 0.0
C4188 C 0.1773 0.12573 0.78889 0.0
H4189 H 0.2507 0.22225 0.75929 0.0
H4190 H 0.23239 0.19343 0.76341 0.0
C4191 C 0.16516 0.10953 0.7879 0.0
C4192 C 0.20843 0.14383 0.79635 0.0
H4193 H 0.21718 0.18857 0.81209 0.0
C4194 C 0.22306 0.14343 0.78588 0.0
C4195 C 0.20648 0.16021 0.80629 0.0
C4196 C 0.19143 0.1613 0.81834 0.0
C4197 C 0.23546 0.1591 0.78458 0.0
C4198 C 0.23316 0.17552 0.79401 0.0
C4199 C 0.21887 0.17589 0.80492 0.0
C4200 C 0.24472 0.19264 0.79158 0.0
C4201 C 0.25084 0.15814 0.77299 0.0
C4202 C 0.25778 0.20163 0.80604 0.0
C4203 C 0.26793 0.21836 0.80385 0.0
C4204 C 0.26491 0.22627 0.78729 0.0
C4205 C 0.25249 0.21685 0.77256 0.0
C4206 C 0.24229 0.20026 0.77476 0.0
H4207 H 0.25207 0.14408 0.76848 0.0
H4208 H 0.24875 0.16504 0.76026 0.0
H4209 H 0.26367 0.16518 0.78112 0.0
H4210 H 0.25994 0.19579 0.81903 0.0
H4211 H 0.27776 0.22531 0.81522 0.0
H4212 H 0.3671 0.97395 0.32558 0.0
H4213 H 0.34929 0.94355 0.32349 0.0
H4214 H 0.35551 0.93573 0.26432 0.0
H4215 H 0.37426 0.9654 0.26677 0.0
H4216 H 0.31817 0.93231 0.30283 0.0
H4217 H 0.36686 0.89036 0.2812 0.0
H4218 H 0.37366 0.9137 0.29022 0.0
H4219 H 0.36556 0.9073 0.26573 0.0
C4220 C 0.36488 0.96541 0.31233 0.0
C4221 C 0.37189 0.97147 0.29633 0.0
C4222 C 0.35482 0.94828 0.31114 0.0
C4223 C 0.35148 0.93755 0.29382 0.0
C4224 C 0.35855 0.94373 0.27789 0.0
H4225 H 0.27203 0.83878 0.26307 0.0
H4226 H 0.28773 0.86957 0.26047 0.0
C4227 C 0.36908 0.96056 0.27923 0.0
C4228 C 0.33943 0.92042 0.29183 0.0
H4229 H 0.33583 0.87678 0.27469 0.0
C4230 C 0.32198 0.92012 0.29674 0.0
C4231 C 0.34471 0.90472 0.284 0.0
C4232 C 0.36379 0.90401 0.28021 0.0
C4233 C 0.30952 0.90418 0.29403 0.0
C4234 C 0.31473 0.88874 0.28565 0.0
C4235 C 0.33197 0.8891 0.28038 0.0
C4236 C 0.30453 0.87128 0.28684 0.0
C4237 C 0.29134 0.90358 0.30098 0.0
C4238 C 0.30954 0.86259 0.30217 0.0
C4239 C 0.30154 0.84515 0.30307 0.0
C4240 C 0.28833 0.83654 0.28882 0.0
C4241 C 0.28295 0.84525 0.27358 0.0
C4242 C 0.29142 0.86272 0.27237 0.0
H4243 H 0.28872 0.91721 0.30531 0.0
H4244 H 0.28059 0.89663 0.28988 0.0
H4245 H 0.2906 0.89577 0.31325 0.0
H4246 H 0.31973 0.86931 0.31334 0.0
H4247 H 0.30516 0.83859 0.31523 0.0
H4248 H 0.55173 0.35839 0.62038 0.0
H4249 H 0.55058 0.38818 0.61077 0.0
H4250 H 0.5617 0.37008 0.55532 0.0
H4251 H 0.56238 0.33996 0.56483 0.0
H4252 H 0.57332 0.41393 0.60007 0.0
H4253 H 0.52107 0.39346 0.53944 0.0
H4254 H 0.52642 0.37797 0.55564 0.0
H4255 H 0.54038 0.38317 0.5373 0.0
C4256 C 0.55384 0.36059 0.60605 0.0
C4257 C 0.55703 0.34635 0.59344 0.0
C4258 C 0.55321 0.37788 0.60051 0.0
C4259 C 0.55565 0.38185 0.58206 0.0
C4260 C 0.55915 0.36769 0.56948 0.0
H4261 H 0.55077 0.47908 0.52279 0.0
H4262 H 0.55294 0.44923 0.5319 0.0
C4263 C 0.55972 0.3503 0.57502 0.0
C4264 C 0.55487 0.40074 0.57639 0.0
H4265 H 0.53524 0.42391 0.54376 0.0
C4266 C 0.56493 0.416 0.58773 0.0
C4267 C 0.54408 0.40404 0.56026 0.0
C4268 C 0.53224 0.38883 0.54754 0.0
C4269 C 0.5649 0.43389 0.58334 0.0
C4270 C 0.55389 0.43725 0.56731 0.0
C4271 C 0.5438 0.42193 0.55601 0.0
C4272 C 0.55276 0.45621 0.5618 0.0
C4273 C 0.57739 0.44887 0.59578 0.0
C4274 C 0.55164 0.47083 0.57512 0.0
C4275 C 0.55117 0.48828 0.56989 0.0
C4276 C 0.55094 0.49181 0.55097 0.0
C4277 C 0.55114 0.47712 0.53752 0.0
C4278 C 0.55228 0.45982 0.54282 0.0
H4279 H 0.58899 0.44399 0.6028 0.0
H4280 H 0.58271 0.45996 0.58772 0.0
H4281 H 0.57004 0.45418 0.607 0.0
H4282 H 0.55088 0.46882 0.5897 0.0
H4283 H 0.55048 0.49898 0.58069 0.0
H4284 H 0.44346 0.78005 0.4282 0.0
H4285 H 0.41497 0.78334 0.41087 0.0
H4286 H 0.43334 0.76476 0.35905 0.0
H4287 H 0.46196 0.76173 0.37628 0.0
H4288 H 0.40868 0.80489 0.38025 0.0
H4289 H 0.3828 0.73252 0.35817 0.0
H4290 H 0.40048 0.74038 0.37722 0.0
H4291 H 0.40536 0.74066 0.35331 0.0
C4292 C 0.44144 0.77651 0.41312 0.0
C4293 C 0.45517 0.77045 0.40378 0.0
C4294 C 0.42506 0.77849 0.40315 0.0
C4295 C 0.42163 0.77415 0.3835 0.0
C4296 C 0.4353 0.76801 0.37416 0.0
H4297 H 0.34009 0.80288 0.30184 0.0
H4298 H 0.3675 0.79843 0.32004 0.0
C4299 C 0.45179 0.76629 0.38409 0.0
C4300 C 0.404 0.77631 0.37279 0.0
H4301 H 0.36626 0.75298 0.34509 0.0
C4302 C 0.39946 0.79349 0.37258 0.0
C4303 C 0.39159 0.76156 0.36282 0.0
C4304 C 0.39513 0.74269 0.36293 0.0
C4305 C 0.38339 0.79631 0.36245 0.0
C4306 C 0.37117 0.78161 0.35214 0.0
C4307 C 0.37549 0.76437 0.35274 0.0
C4308 C 0.35402 0.78397 0.34066 0.0
C4309 C 0.3794 0.81506 0.36304 0.0
C4310 C 0.33688 0.77709 0.34565 0.0
C4311 C 0.32096 0.7794 0.33498 0.0
C4312 C 0.32152 0.78868 0.31884 0.0
C4313 C 0.33876 0.79548 0.3139 0.0
C4314 C 0.35464 0.7931 0.32452 0.0
H4315 H 0.38877 0.82462 0.37367 0.0
H4316 H 0.38063 0.8199 0.34908 0.0
H4317 H 0.36541 0.81509 0.36627 0.0
H4318 H 0.33579 0.77 0.35797 0.0
H4319 H 0.30816 0.77386 0.33944 0.0
H4320 H 0.06421 0.73102 0.11741 0.0
H4321 H 0.06049 0.69886 0.10761 0.0
H4322 H 0.03168 0.70592 0.05516 0.0
H4323 H 0.0362 0.7384 0.06467 0.0
H4324 H 0.03541 0.67206 0.10099 0.0
H4325 H 0.06263 0.67607 0.03273 0.0
H4326 H 0.06398 0.69571 0.04921 0.0
H4327 H 0.04363 0.687 0.03372 0.0
C4328 C 0.05726 0.72585 0.10364 0.0
C4329 C 0.0508 0.73771 0.0918 0.0
C4330 C 0.05503 0.7072 0.09801 0.0
C4331 C 0.04612 0.69939 0.08029 0.0
C4332 C 0.03924 0.7112 0.0686 0.0
H4333 H 0.00983 0.58542 0.0323 0.0
H4334 H 0.01305 0.61782 0.04146 0.0
C4335 C 0.04171 0.72997 0.07414 0.0
C4336 C 0.04389 0.67908 0.07448 0.0
H4337 H 0.04809 0.64721 0.03854 0.0
C4338 C 0.03835 0.66682 0.08733 0.0
C4339 C 0.04767 0.67157 0.05669 0.0
C4340 C 0.05498 0.68327 0.04238 0.0
C4341 C 0.03634 0.64789 0.08292 0.0
C4342 C 0.03983 0.64052 0.06508 0.0
C4343 C 0.04528 0.65263 0.0522 0.0
C4344 C 0.03789 0.62039 0.05959 0.0
C4345 C 0.03023 0.63572 0.09733 0.0
C4346 C 0.05076 0.61058 0.06652 0.0
C4347 C 0.04905 0.59192 0.06108 0.0
C4348 C 0.03433 0.5823 0.04862 0.0
C4349 C 0.0214 0.59214 0.04187 0.0
C4350 C 0.02323 0.61082 0.04711 0.0
H4351 H 0.0263 0.64319 0.10982 0.0
H4352 H 0.01864 0.62525 0.09099 0.0
H4353 H 0.04128 0.62878 0.10201 0.0
H4354 H 0.06225 0.6174 0.07612 0.0
H4355 H 0.0592 0.58498 0.06686 0.0
H4356 H 0.064 0.30111 0.91249 0.0
H4357 H 0.09164 0.30139 0.89747 0.0
H4358 H 0.07914 0.24365 0.88644 0.0
H4359 H 0.05085 0.24356 0.90016 0.0
H4360 H 0.12085 0.29016 0.9039 0.0
H4361 H 0.0897 0.25204 0.83587 0.0
H4362 H 0.07632 0.25945 0.85335 0.0
H4363 H 0.08595 0.23957 0.85544 0.0
C4364 C 0.06704 0.28849 0.90663 0.0
C4365 C 0.05497 0.27236 0.90721 0.0
C4366 C 0.08296 0.28862 0.89807 0.0
C4367 C 0.08755 0.27258 0.89015 0.0
C4368 C 0.0758 0.25636 0.89151 0.0
H4369 H 0.1945 0.26735 0.8501 0.0
H4370 H 0.16663 0.25976 0.86503 0.0
C4371 C 0.0596 0.25629 0.89956 0.0
C4372 C 0.10462 0.27303 0.88074 0.0
H4373 H 0.12138 0.25943 0.84012 0.0
C4374 C 0.12083 0.28336 0.88996 0.0
C4375 C 0.105 0.26416 0.86248 0.0
C4376 C 0.08829 0.25332 0.85113 0.0
C4377 C 0.13699 0.28529 0.88148 0.0
C4378 C 0.13723 0.27663 0.86326 0.0
C4379 C 0.12125 0.266 0.85414 0.0
C4380 C 0.15357 0.27981 0.85295 0.0
C4381 C 0.15372 0.29701 0.89182 0.0
C4382 C 0.15543 0.29327 0.84084 0.0
C4383 C 0.1713 0.29763 0.83239 0.0
C4384 C 0.1857 0.28848 0.8356 0.0
C4385 C 0.18357 0.27444 0.84708 0.0
C4386 C 0.16769 0.2702 0.85574 0.0
H4387 H 0.1515 0.30277 0.90598 0.0
H4388 H 0.16462 0.28906 0.89336 0.0
H4389 H 0.15839 0.30816 0.88355 0.0
H4390 H 0.1448 0.30088 0.83842 0.0
H4391 H 0.17258 0.30862 0.8238 0.0
H4392 H 0.56803 0.774 0.91419 0.0
H4393 H 0.56838 0.74592 0.92835 0.0
H4394 H 0.52266 0.71985 0.88947 0.0
H4395 H 0.52272 0.74759 0.87492 0.0
H4396 H 0.5458 0.72671 0.94663 0.0
H4397 H 0.55243 0.6824 0.88346 0.0
H4398 H 0.55514 0.70642 0.88359 0.0
H4399 H 0.53304 0.69264 0.88006 0.0
C4400 C 0.55809 0.76226 0.90861 0.0
C4401 C 0.54537 0.76316 0.89334 0.0
C4402 C 0.55832 0.74611 0.91671 0.0
C4403 C 0.54582 0.73037 0.90983 0.0
C4404 C 0.53291 0.73141 0.89478 0.0
H4405 H 0.50696 0.62581 0.94248 0.0
H4406 H 0.51611 0.65204 0.92612 0.0
C4407 C 0.53281 0.74746 0.88656 0.0
C4408 C 0.54565 0.71323 0.91897 0.0
H4409 H 0.54283 0.66768 0.90979 0.0
C4410 C 0.54539 0.71386 0.93855 0.0
C4411 C 0.54519 0.69626 0.90864 0.0
C4412 C 0.54666 0.6944 0.88781 0.0
C4413 C 0.54376 0.69819 0.94785 0.0
C4414 C 0.5427 0.68113 0.93746 0.0
C4415 C 0.54354 0.68057 0.91793 0.0
C4416 C 0.53911 0.66372 0.94623 0.0
C4417 C 0.5423 0.70012 0.96868 0.0
C4418 C 0.54951 0.6606 0.96252 0.0
C4419 C 0.54421 0.64544 0.97198 0.0
C4420 C 0.52849 0.63291 0.96527 0.0
C4421 C 0.51905 0.63526 0.94814 0.0
C4422 C 0.5243 0.65035 0.93876 0.0
H4423 H 0.53867 0.71318 0.97354 0.0
H4424 H 0.53208 0.68919 0.97249 0.0
H4425 H 0.55549 0.69951 0.97638 0.0
H4426 H 0.56141 0.67022 0.96834 0.0
H4427 H 0.55181 0.64408 0.9851 0.0
H4428 H 0.07765 0.74091 0.71975 0.0
H4429 H 0.11034 0.74431 0.72845 0.0
H4430 H 0.11843 0.79569 0.70706 0.0
H4431 H 0.086 0.79218 0.69803 0.0
H4432 H 0.13975 0.74993 0.70443 0.0
H4433 H 0.1468 0.80666 0.76053 0.0
H4434 H 0.12542 0.79244 0.75215 0.0
H4435 H 0.13488 0.80959 0.73858 0.0
C4436 C 0.08635 0.75303 0.71707 0.0
C4437 C 0.0789 0.76631 0.70827 0.0
C4438 C 0.10517 0.75494 0.72198 0.0
C4439 C 0.11721 0.77039 0.71869 0.0
C4440 C 0.10972 0.78372 0.71009 0.0
H4441 H 0.23503 0.80943 0.7388 0.0
H4442 H 0.20252 0.80568 0.73055 0.0
C4443 C 0.09101 0.78166 0.70486 0.0
C4444 C 0.13746 0.77248 0.72381 0.0
H4445 H 0.17374 0.79878 0.75137 0.0
C4446 C 0.1471 0.76054 0.71482 0.0
C4447 C 0.14746 0.78643 0.73718 0.0
C4448 C 0.13817 0.79947 0.74783 0.0
C4449 C 0.16607 0.76229 0.71856 0.0
C4450 C 0.17605 0.77612 0.73212 0.0
C4451 C 0.16641 0.7881 0.74104 0.0
C4452 C 0.19634 0.77834 0.7372 0.0
C4453 C 0.17538 0.74963 0.7074 0.0
C4454 C 0.20429 0.76443 0.74405 0.0
C4455 C 0.22309 0.76662 0.74897 0.0
C4456 C 0.23484 0.78271 0.7472 0.0
C4457 C 0.22679 0.79667 0.74038 0.0
C4458 C 0.20798 0.79457 0.73564 0.0
H4459 H 0.16692 0.7432 0.69427 0.0
H4460 H 0.18836 0.75675 0.70366 0.0
H4461 H 0.1782 0.73885 0.71597 0.0
H4462 H 0.19592 0.75184 0.7459 0.0
H4463 H 0.22835 0.75562 0.75418 0.0
H4464 H 0.05376 0.35367 0.42281 0.0
H4465 H 0.05114 0.38239 0.44002 0.0
H4466 H 0.0374 0.40261 0.38769 0.0
H4467 H 0.04004 0.37396 0.37045 0.0
H4468 H 0.06912 0.41727 0.43953 0.0
H4469 H 0.99674 0.4138 0.41713 0.0
H4470 H 1.00762 0.39463 0.41385 0.0
H4471 H 0.00999 0.41154 0.39796 0.0
C4472 C 0.05023 0.36423 0.41492 0.0
C4473 C 0.04718 0.36134 0.39513 0.0
C4474 C 0.04871 0.38074 0.42483 0.0
C4475 C 0.04379 0.39486 0.41534 0.0
C4476 C 0.04089 0.39202 0.39556 0.0
H4477 H 0.04452 0.50879 0.4572 0.0
H4478 H 0.04692 0.48093 0.43805 0.0
C4479 C 0.04258 0.37558 0.38563 0.0
C4480 C 0.04196 0.41249 0.42609 0.0
H4481 H 0.01245 0.44126 0.43392 0.0
C4482 C 0.0567 0.42244 0.43821 0.0
C4483 C 0.02575 0.41948 0.42472 0.0
C4484 C 1.00905 0.40927 0.41287 0.0
C4485 C 0.05579 0.43902 0.44853 0.0
C4486 C 0.0397 0.44605 0.44698 0.0
C4487 C 0.02489 0.43611 0.43503 0.0
C4488 C 0.03789 0.46324 0.4584 0.0
C4489 C 0.07201 0.44898 0.46127 0.0
C4490 C 0.03183 0.46282 0.47622 0.0
C4491 C 0.03017 0.47873 0.48709 0.0
C4492 C 0.03482 0.49576 0.48077 0.0
C4493 C 0.04087 0.49612 0.4628 0.0
C4494 C 0.04228 0.48012 0.45177 0.0
H4495 H 0.08383 0.44229 0.46041 0.0
H4496 H 0.07559 0.46288 0.45754 0.0
H4497 H 0.06877 0.44996 0.47601 0.0
H4498 H 0.02825 0.45009 0.48174 0.0
H4499 H 0.02481 0.4775 0.50033 0.0
H4500 H 0.45619 0.23798 0.18598 0.0
H4501 H 0.42605 0.23956 0.19466 0.0
H4502 H 0.44897 0.28055 0.23996 0.0
H4503 H 0.47924 0.27909 0.23119 0.0
H4504 H 0.40903 0.2333 0.22568 0.0
H4505 H 0.41094 0.30468 0.21548 0.0
H4506 H 0.42734 0.29223 0.20716 0.0
H4507 H 0.42928 0.30117 0.23146 0.0
C4508 C 0.45494 0.24734 0.19787 0.0
C4509 C 0.4705 0.25838 0.20781 0.0
C4510 C 0.43749 0.24824 0.20286 0.0
C4511 C 0.43472 0.2604 0.21789 0.0
C4512 C 0.45029 0.27128 0.22804 0.0
H4513 H 0.34018 0.28455 0.27169 0.0
H4514 H 0.36995 0.28315 0.26221 0.0
C4515 C 0.4678 0.27032 0.22309 0.0
C4516 C 0.41573 0.26149 0.22291 0.0
H4517 H 0.38619 0.29055 0.22977 0.0
C4518 C 0.40412 0.24586 0.22646 0.0
C4519 C 0.40877 0.27773 0.22395 0.0
C4520 C 0.41962 0.29489 0.21914 0.0
C4521 C 0.38644 0.24611 0.23141 0.0
C4522 C 0.37957 0.26238 0.23264 0.0
C4523 C 0.39113 0.27799 0.22899 0.0
C4524 C 0.36073 0.26354 0.238 0.0
C4525 C 0.37541 0.2289 0.23587 0.0
C4526 C 0.34497 0.2533 0.2276 0.0
C4527 C 0.3276 0.25454 0.23274 0.0
C4528 C 0.3252 0.26594 0.24864 0.0
C4529 C 0.34103 0.27597 0.25911 0.0
C4530 C 0.35833 0.27504 0.25374 0.0
H4531 H 0.38392 0.21886 0.23914 0.0
H4532 H 0.3678 0.23141 0.24798 0.0
H4533 H 0.3656 0.22301 0.22352 0.0
H4534 H 0.34604 0.24443 0.21525 0.0
H4535 H 0.316 0.24647 0.22419 0.0
H4536 H 0.61817 0.51524 0.34167 0.0
H4537 H 0.60839 0.51489 0.37313 0.0
H4538 H 0.6009 0.5697 0.3726 0.0
H4539 H 0.60996 0.56982 0.34081 0.0
H4540 H 0.62067 0.53283 0.40643 0.0
H4541 H 0.5535 0.54892 0.3873 0.0
H4542 H 0.56779 0.54353 0.36982 0.0
H4543 H 0.57141 0.56576 0.38226 0.0
C4544 C 0.61419 0.52716 0.34813 0.0
C4545 C 0.61448 0.54244 0.33842 0.0
C4546 C 0.60868 0.52698 0.36626 0.0
C4547 C 0.60337 0.54211 0.37534 0.0
C4548 C 0.60421 0.55757 0.36585 0.0
H4549 H 0.5596 0.56572 0.48135 0.0
H4550 H 0.57179 0.56627 0.4511 0.0
C4551 C 0.60949 0.55768 0.3476 0.0
C4552 C 0.59706 0.54164 0.39462 0.0
H4553 H 0.56233 0.54892 0.41966 0.0
C4554 C 0.60788 0.53632 0.40928 0.0
C4555 C 0.58036 0.54616 0.39862 0.0
C4556 C 0.56752 0.55125 0.38364 0.0
C4557 C 0.60277 0.53584 0.42768 0.0
C4558 C 0.58601 0.54033 0.43167 0.0
C4559 C 0.57519 0.54553 0.41693 0.0
C4560 C 0.57945 0.54012 0.4509 0.0
C4561 C 0.6158 0.53108 0.44271 0.0
C4562 C 0.57955 0.52531 0.46136 0.0
C4563 C 0.57316 0.52534 0.47913 0.0
C4564 C 0.56582 0.53983 0.48658 0.0
C4565 C 0.56523 0.55437 0.476 0.0
C4566 C 0.57217 0.55464 0.4586 0.0
H4567 H 0.62982 0.53389 0.43912 0.0
H4568 H 0.61527 0.53863 0.45655 0.0
H4569 H 0.61238 0.5165 0.44396 0.0
H4570 H 0.58426 0.51353 0.45568 0.0
H4571 H 0.5734 0.51377 0.48677 0.0
H4572 H 0.29624 0.8731 0.0409 0.0
H4573 H 0.29404 0.86179 0.07151 0.0
H4574 H 0.28825 0.91409 0.09618 0.0
H4575 H 0.29043 0.92554 0.06576 0.0
H4576 H 0.31755 0.87879 0.10675 0.0
H4577 H 0.24403 0.87628 0.10898 0.0
H4578 H 0.25408 0.8763 0.0872 0.0
H4579 H 0.25746 0.89648 0.1031 0.0
C4580 C 0.29447 0.88214 0.05286 0.0
C4581 C 0.29333 0.90007 0.05105 0.0
C4582 C 0.29319 0.8757 0.07021 0.0
C4583 C 0.29065 0.88713 0.08576 0.0
C4584 C 0.28988 0.90512 0.08411 0.0
H4585 H 0.29834 0.86223 0.20012 0.0
H4586 H 0.28818 0.87704 0.17332 0.0
C4587 C 0.29121 0.91158 0.06681 0.0
C4588 C 0.28945 0.88026 0.1039 0.0
H4589 H 0.25985 0.86581 0.13438 0.0
C4590 C 0.30502 0.87608 0.11292 0.0
C4591 C 0.27302 0.87705 0.11175 0.0
C4592 C 0.25611 0.88166 0.1023 0.0
C4593 C 0.30451 0.86815 0.12955 0.0
C4594 C 0.28791 0.86406 0.13696 0.0
C4595 C 0.27243 0.86889 0.12838 0.0
C4596 C 0.28678 0.85382 0.15309 0.0
C4597 C 0.32162 0.8637 0.13881 0.0
C4598 C 0.28822 0.83568 0.15043 0.0
C4599 C 0.29445 0.82743 0.16551 0.0
C4600 C 0.29889 0.83721 0.1833 0.0
C4601 C 0.29513 0.8546 0.18637 0.0
C4602 C 0.28917 0.86297 0.1712 0.0
H4603 H 0.33374 0.87069 0.13322 0.0
H4604 H 0.32296 0.86741 0.15423 0.0
H4605 H 0.32124 0.84902 0.13621 0.0
H4606 H 0.2864 0.82855 0.13643 0.0
H4607 H 0.29698 0.81387 0.16305 0.0
H4608 H 0.92571 0.497 0.8436 0.0
H4609 H 0.93678 0.49237 0.87536 0.0
H4610 H 0.93104 0.54618 0.89539 0.0
H4611 H 0.91888 0.55044 0.86367 0.0
H4612 H 0.9677 0.51333 0.89024 0.0
H4613 H 0.91541 0.51879 0.93828 0.0
H4614 H 0.91016 0.51482 0.91304 0.0
H4615 H 0.91922 0.53709 0.92431 0.0
C4616 C 0.92676 0.50776 0.85486 0.0
C4617 C 0.92219 0.52427 0.85142 0.0
C4618 C 0.93272 0.505 0.87293 0.0
C4619 C 0.93455 0.51889 0.88757 0.0
C4620 C 0.92928 0.53519 0.88427 0.0
H4621 H 0.99877 0.55075 0.99071 0.0
H4622 H 0.97789 0.54685 0.96217 0.0
C4623 C 0.92278 0.53776 0.86621 0.0
C4624 C 0.94517 0.51752 0.90513 0.0
H4625 H 0.9458 0.52192 0.95262 0.0
C4626 C 0.96282 0.51483 0.90389 0.0
C4627 C 0.93871 0.51987 0.92275 0.0
C4628 C 0.91978 0.52266 0.9247 0.0
C4629 C 0.9745 0.51491 0.91995 0.0
C4630 C 0.96812 0.51737 0.93757 0.0
C4631 C 0.95039 0.51979 0.9389 0.0
C4632 C 0.98021 0.51916 0.9548 0.0
C4633 C 0.99377 0.51325 0.91795 0.0
C4634 C 0.98841 0.50485 0.95969 0.0
C4635 C 1.00066 0.50717 0.97571 0.0
C4636 C 1.00429 0.52366 0.98699 0.0
C4637 C 0.99603 0.53791 0.98208 0.0
C4638 C 0.98407 0.53568 0.96598 0.0
H4639 H 0.99732 0.5152 0.90356 0.0
H4640 H 1.00318 0.52322 0.92813 0.0
H4641 H 0.99579 0.49965 0.92087 0.0
H4642 H 0.98529 0.49198 0.95114 0.0
H4643 H 1.00677 0.49601 0.97964 0.0
H4644 H 0.29414 0.18397 0.57899 0.0
H4645 H 0.29649 0.19575 0.61216 0.0
H4646 H 0.26542 0.2357 0.59746 0.0
H4647 H 0.26316 0.22404 0.56408 0.0
H4648 H 0.31055 0.23178 0.63101 0.0
H4649 H 0.23827 0.20914 0.63776 0.0
H4650 H 0.24928 0.20012 0.61886 0.0
H4651 H 0.24287 0.2217 0.61825 0.0
C4652 C 0.28784 0.19532 0.58275 0.0
C4653 C 0.27839 0.20301 0.56877 0.0
C4654 C 0.28924 0.20207 0.60179 0.0
C4655 C 0.281 0.21653 0.60747 0.0
C4656 C 0.27175 0.22441 0.59353 0.0
H4657 H 0.26809 0.27422 0.71455 0.0
H4658 H 0.26767 0.26276 0.6816 0.0
C4659 C 0.27052 0.21779 0.57441 0.0
C4660 C 0.28185 0.22315 0.62794 0.0
H4661 H 0.25565 0.22748 0.6637 0.0
C4662 C 0.29854 0.23081 0.63816 0.0
C4663 C 0.26627 0.22173 0.63745 0.0
C4664 C 0.24814 0.21259 0.62764 0.0
C4665 C 0.29996 0.23756 0.65734 0.0
C4666 C 0.28429 0.23643 0.66675 0.0
C4667 C 0.26766 0.22855 0.65656 0.0
C4668 C 0.28477 0.24345 0.68707 0.0
C4669 C 0.31819 0.24624 0.66726 0.0
C4670 C 0.29433 0.23637 0.70138 0.0
C4671 C 0.29426 0.24267 0.72038 0.0
C4672 C 0.28461 0.25626 0.72566 0.0
C4673 C 0.27525 0.26346 0.71125 0.0
C4674 C 0.27515 0.257 0.69228 0.0
H4675 H 0.32802 0.24999 0.65718 0.0
H4676 H 0.3173 0.25845 0.67661 0.0
H4677 H 0.32342 0.23666 0.67607 0.0
H4678 H 0.30169 0.22576 0.69788 0.0
H4679 H 0.30177 0.23681 0.73093 0.0
H4680 H 0.58456 0.53557 0.23493 0.0
H4681 H 0.57244 0.53324 0.20165 0.0
H4682 H 0.626 0.53694 0.18555 0.0
H4683 H 0.63807 0.53905 0.21852 0.0
H4684 H 0.57947 0.55765 0.17573 0.0
H4685 H 0.59981 0.49406 0.15001 0.0
H4686 H 0.60018 0.50116 0.17472 0.0
H4687 H 0.61802 0.51066 0.16193 0.0
C4688 C 0.59373 0.53574 0.22429 0.0
C4689 C 0.61231 0.53747 0.22954 0.0
C4690 C 0.58678 0.53442 0.20521 0.0
C4691 C 0.59819 0.53462 0.19084 0.0
C4692 C 0.61675 0.5363 0.19612 0.0
H4693 H 0.5859 0.52999 0.06812 0.0
H4694 H 0.59628 0.53101 0.10142 0.0
C4695 C 0.62367 0.53765 0.21512 0.0
C4696 C 0.59089 0.53398 0.17049 0.0
H4697 H 0.58902 0.51099 0.1268 0.0
C4698 C 0.58144 0.54734 0.16506 0.0
C4699 C 0.59361 0.52073 0.15634 0.0
C4700 C 0.60332 0.50574 0.16102 0.0
C4701 C 0.5751 0.54815 0.14609 0.0
C4702 C 0.57755 0.53476 0.1319 0.0
C4703 C 0.58695 0.5213 0.1374 0.0
C4704 C 0.57099 0.53467 0.11133 0.0
C4705 C 0.56655 0.56391 0.14149 0.0
C4706 C 0.5532 0.53642 0.10525 0.0
C4707 C 0.54734 0.53634 0.08603 0.0
C4708 C 0.5589 0.53388 0.07224 0.0
C4709 C 0.57657 0.53191 0.07828 0.0
C4710 C 0.58253 0.5324 0.09745 0.0
H4711 H 0.57108 0.57561 0.15235 0.0
H4712 H 0.56976 0.56817 0.12767 0.0
H4713 H 0.55176 0.56009 0.14109 0.0
H4714 H 0.54366 0.53752 0.11534 0.0
H4715 H 0.53357 0.53759 0.08194 0.0
H4716 H 0.30555 0.92145 0.93718 0.0
H4717 H 0.30792 0.90725 0.90583 0.0
H4718 H 0.27864 0.85719 0.91938 0.0
H4719 H 0.27628 0.87117 0.95087 0.0
H4720 H 0.32109 0.86668 0.90252 0.0
H4721 H 0.25643 0.87724 0.86585 0.0
H4722 H 0.26871 0.89295 0.88506 0.0
H4723 H 0.25709 0.8715 0.8896 0.0
C4724 C 0.29943 0.90747 0.93339 0.0
C4725 C 0.29071 0.89729 0.94627 0.0
C4726 C 0.30087 0.89946 0.91562 0.0
C4727 C 0.29345 0.88137 0.91068 0.0
C4728 C 0.28439 0.87125 0.92328 0.0
H4729 H 0.26619 0.80678 0.81516 0.0
H4730 H 0.26952 0.82574 0.84503 0.0
C4731 C 0.28304 0.8792 0.9411 0.0
C4732 C 0.2955 0.87268 0.89247 0.0
H4733 H 0.27276 0.85864 0.84947 0.0
C4734 C 0.31068 0.86486 0.89074 0.0
C4735 C 0.28176 0.87065 0.87756 0.0
C4736 C 0.26504 0.87855 0.87944 0.0
C4737 C 0.31195 0.85377 0.87454 0.0
C4738 C 0.29791 0.85131 0.85959 0.0
C4739 C 0.28336 0.86032 0.86105 0.0
C4740 C 0.29701 0.83851 0.84284 0.0
C4741 C 0.32772 0.84414 0.87424 0.0
C4742 C 0.3116 0.83878 0.83226 0.0
C4743 C 0.31004 0.82691 0.81608 0.0
C4744 C 0.29339 0.81619 0.80943 0.0
C4745 C 0.27888 0.81567 0.81993 0.0
C4746 C 0.28082 0.82647 0.83685 0.0
H4747 H 0.33395 0.84331 0.88866 0.0
H4748 H 0.3237 0.83031 0.86696 0.0
H4749 H 0.33819 0.85172 0.86683 0.0
H4750 H 0.32403 0.84823 0.83627 0.0
H4751 H 0.32155 0.82668 0.80832 0.0
H4752 H 0.93337 0.50568 0.75064 0.0
H4753 H 0.94392 0.50831 0.7196 0.0
H4754 H 0.90829 0.54539 0.70824 0.0
H4755 H 0.89732 0.54235 0.73903 0.0
H4756 H 0.91563 0.5071 0.67953 0.0
H4757 H 0.9689 0.5662 0.70744 0.0
H4758 H 0.96129 0.54924 0.72227 0.0
H4759 H 0.94666 0.56396 0.7149 0.0
C4760 C 0.92781 0.51428 0.7414 0.0
C4761 C 0.91474 0.52391 0.7469 0.0
C4762 C 0.93372 0.51572 0.72381 0.0
C4763 C 0.92683 0.52709 0.71196 0.0
C4764 C 0.91357 0.53652 0.71735 0.0
H4765 H 0.96045 0.52693 0.59913 0.0
H4766 H 0.94552 0.53815 0.62545 0.0
C4767 C 0.9074 0.53479 0.73477 0.0
C4768 C 0.93426 0.52968 0.69428 0.0
H4769 H 0.96989 0.55315 0.67654 0.0
C4770 C 0.9272 0.51741 0.67859 0.0
C4771 C 0.94935 0.54313 0.69352 0.0
C4772 C 0.95711 0.55646 0.71038 0.0
C4773 C 0.93558 0.51766 0.66215 0.0
C4774 C 0.95121 0.53064 0.6616 0.0
C4775 C 0.95773 0.54347 0.67706 0.0
C4776 C 0.96263 0.5287 0.64658 0.0
C4777 C 0.9285 0.50328 0.64597 0.0
C4778 C 0.97757 0.52054 0.65012 0.0
C4779 C 0.98588 0.51399 0.63527 0.0
C4780 C 0.97942 0.51574 0.6168 0.0
C4781 C 0.96556 0.52546 0.61336 0.0
C4782 C 0.95709 0.53186 0.62828 0.0
H4783 H 0.91695 0.49344 0.64927 0.0
H4784 H 0.92408 0.50959 0.63348 0.0
H4785 H 0.93929 0.49593 0.64218 0.0
H4786 H 0.98191 0.518 0.66425 0.0
H4787 H 0.99669 0.50669 0.63809 0.0
H4788 H 0.25182 0.18041 0.44642 0.0
H4789 H 0.25233 0.19131 0.41545 0.0
H4790 H 0.29752 0.23284 0.43718 0.0
H4791 H 0.29688 0.22219 0.46842 0.0
H4792 H 0.25209 0.23173 0.40816 0.0
H4793 H 0.31031 0.20258 0.38677 0.0
H4794 H 0.29621 0.19296 0.40347 0.0
H4795 H 0.31179 0.21357 0.41032 0.0
C4796 C 0.26187 0.19191 0.44468 0.0
C4797 C 0.27427 0.20047 0.46002 0.0
C4798 C 0.26213 0.19812 0.4269 0.0
C4799 C 0.27501 0.21286 0.42388 0.0
C4800 C 0.28748 0.2214 0.43912 0.0
H4801 H 0.30496 0.25891 0.32134 0.0
H4802 H 0.30413 0.24858 0.35261 0.0
C4803 C 0.28706 0.21535 0.45701 0.0
C4804 C 0.27516 0.21948 0.4049 0.0
H4805 H 0.2976 0.22004 0.36588 0.0
C4806 C 0.26206 0.22925 0.39889 0.0
C4807 C 0.28816 0.21628 0.39281 0.0
C4808 C 0.30243 0.20571 0.39849 0.0
C4809 C 0.26187 0.23636 0.38144 0.0
C4810 C 0.27476 0.23294 0.36902 0.0
C4811 C 0.28773 0.2229 0.37511 0.0
C4812 C 0.27522 0.23964 0.34986 0.0
C4813 C 0.24821 0.24804 0.37711 0.0
C4814 C 0.25942 0.23832 0.33749 0.0
C4815 C 0.25989 0.24519 0.32009 0.0
C4816 C 0.27626 0.25213 0.31361 0.0
C4817 C 0.29215 0.25313 0.32564 0.0
C4818 C 0.29163 0.24715 0.34357 0.0
H4819 H 0.24422 0.25446 0.39019 0.0
H4820 H 0.25341 0.2588 0.3686 0.0
H4821 H 0.23586 0.2396 0.36934 0.0
H4822 H 0.24657 0.23204 0.34122 0.0
H4823 H 0.24731 0.24509 0.31175 0.0
H4824 H 0.3283 0.63733 0.56487 0.0
H4825 H 0.35833 0.62981 0.56655 0.0
H4826 H 0.33645 0.57794 0.53588 0.0
H4827 H 0.30615 0.58529 0.53432 0.0
H4828 H 0.36819 0.59144 0.57868 0.0
H4829 H 0.37766 0.61286 0.50769 0.0
H4830 H 0.36315 0.62227 0.52278 0.0
H4831 H 0.35618 0.59999 0.51098 0.0
C4832 C 0.32992 0.62424 0.55868 0.0
C4833 C 0.31518 0.61179 0.54942 0.0
C4834 C 0.34694 0.62001 0.55974 0.0
C4835 C 0.34926 0.60341 0.55137 0.0
C4836 C 0.33456 0.59076 0.54249 0.0
H4837 H 0.42498 0.54598 0.51872 0.0
H4838 H 0.40023 0.5557 0.53395 0.0
C4839 C 0.31744 0.59491 0.54164 0.0
C4840 C 0.36725 0.59969 0.55085 0.0
H4841 H 0.39937 0.59781 0.52147 0.0
C4842 C 0.37522 0.59297 0.56634 0.0
C4843 C 0.37613 0.60213 0.53474 0.0
C4844 C 0.36797 0.6098 0.51808 0.0
C4845 C 0.39181 0.58758 0.56564 0.0
C4846 C 0.40022 0.58912 0.54915 0.0
C4847 C 0.39264 0.59672 0.53407 0.0
C4848 C 0.41599 0.58135 0.54608 0.0
C4849 C 0.39998 0.5797 0.58206 0.0
C4850 C 0.43288 0.59252 0.54848 0.0
C4851 C 0.44685 0.58711 0.53965 0.0
C4852 C 0.44381 0.57059 0.52844 0.0
C4853 C 0.42736 0.5588 0.52737 0.0
C4854 C 0.41341 0.56421 0.53617 0.0
H4855 H 0.39258 0.58109 0.59455 0.0
H4856 H 0.39984 0.56523 0.57801 0.0
H4857 H 0.41422 0.58639 0.58586 0.0
H4858 H 0.43481 0.60589 0.5559 0.0
H4859 H 0.45965 0.59617 0.54063 0.0
H4860 H 0.86349 0.91363 0.56165 0.0
H4861 H 0.89398 0.92959 0.55914 0.0
H4862 H 0.8742 0.9508 0.50939 0.0
H4863 H 0.84373 0.93561 0.51235 0.0
H4864 H 0.91658 0.92805 0.53273 0.0
H4865 H 0.89982 0.99618 0.53922 0.0
H4866 H 0.88433 0.97671 0.54373 0.0
H4867 H 0.88657 0.98172 0.52 0.0
C4868 C 0.86565 0.92188 0.55032 0.0
C4869 C 0.85113 0.92366 0.53743 0.0
C4870 C 0.8831 0.93093 0.54883 0.0
C4871 C 0.88642 0.94182 0.53434 0.0
C4872 C 0.87199 0.94306 0.52109 0.0
H4873 H 0.97924 0.01105 0.5018 0.0
H4874 H 0.94981 0.99293 0.50398 0.0
C4875 C 0.85453 0.93429 0.52276 0.0
C4876 C 0.9049 0.9519 0.53304 0.0
H4877 H 0.92857 0.99386 0.53023 0.0
C4878 C 0.91922 0.94246 0.53228 0.0
C4879 C 0.90845 0.97072 0.53242 0.0
C4880 C 0.89401 0.98195 0.53407 0.0
C4881 C 0.9368 0.95122 0.53048 0.0
C4882 C 0.94029 0.97005 0.5298 0.0
C4883 C 0.92598 0.97945 0.53065 0.0
C4884 C 0.95857 0.98043 0.52816 0.0
C4885 C 0.95128 0.94006 0.52877 0.0
C4886 C 0.97343 0.97965 0.54108 0.0
C4887 C 0.99036 0.98988 0.53971 0.0
C4888 C 0.99273 1.00149 0.5257 0.0
C4889 C 0.97783 1.00245 0.51294 0.0
C4890 C 0.96099 0.992 0.51412 0.0
H4891 H 0.9455 0.92581 0.52364 0.0
H4892 H 0.96091 0.94535 0.51908 0.0
H4893 H 0.95879 0.94033 0.54282 0.0
H4894 H 0.97191 0.9713 0.5524 0.0
H4895 H 1.00157 0.98887 0.54977 0.0
H4896 H 0.87853 0.05333 0.23758 0.0
H4897 H 0.86622 0.08097 0.23576 0.0
H4898 H 0.90496 0.10748 0.28185 0.0
H4899 H 0.91745 0.08009 0.28356 0.0
H4900 H 0.85111 0.09921 0.26313 0.0
H4901 H 0.9107 0.14371 0.24391 0.0
H4902 H 0.90877 0.11961 0.24225 0.0
H4903 H 0.91529 0.13305 0.26457 0.0
C4904 C 0.88445 0.06508 0.24728 0.0
C4905 C 0.89896 0.06451 0.26071 0.0
C4906 C 0.87744 0.08087 0.24619 0.0
C4907 C 0.88488 0.09644 0.25842 0.0
C4908 C 0.89928 0.09583 0.27193 0.0
H4909 H 0.86323 0.19971 0.29321 0.0
H4910 H 0.87664 0.174 0.28337 0.0
C4911 C 0.90629 0.08008 0.27301 0.0
C4912 C 0.87696 0.113 0.2578 0.0
H4913 H 0.8872 0.15799 0.25424 0.0
C4914 C 0.85891 0.11204 0.26093 0.0
C4915 C 0.88719 0.12975 0.25504 0.0
C4916 C 0.90652 0.13161 0.25108 0.0
C4917 C 0.851 0.12745 0.26226 0.0
C4918 C 0.86127 0.14431 0.25971 0.0
C4919 C 0.87923 0.14513 0.25605 0.0
C4920 C 0.85429 0.16143 0.26282 0.0
C4921 C 0.83204 0.12554 0.26746 0.0
C4922 C 0.83773 0.16372 0.25369 0.0
C4923 C 0.82991 0.17846 0.2595 0.0
C4924 C 0.83871 0.19128 0.27427 0.0
C4925 C 0.85612 0.18998 0.28183 0.0
C4926 C 0.86378 0.17521 0.27625 0.0
H4927 H 0.82786 0.11281 0.27357 0.0
H4928 H 0.83062 0.13687 0.27776 0.0
H4929 H 0.82267 0.12544 0.25465 0.0
H4930 H 0.83041 0.15364 0.24278 0.0
H4931 H 0.81647 0.1791 0.25346 0.0
H4932 H 0.71148 0.11001 0.07021 0.0
H4933 H 0.67889 0.10313 0.06158 0.0
H4934 H 0.6871 0.09378 0.00316 0.0
H4935 H 0.7195 0.09974 0.01173 0.0
H4936 H 0.65714 0.1191 0.03731 0.0
H4937 H 0.6566 0.04732 0.01353 0.0
H4938 H 0.67588 0.06176 0.02675 0.0
H4939 H 0.6713 0.0626 0.00189 0.0
C4940 C 0.7062 0.10596 0.05562 0.0
C4941 C 0.7177 0.10471 0.04163 0.0
C4942 C 0.68777 0.10241 0.05072 0.0
C4943 C 0.68093 0.09787 0.03183 0.0
C4944 C 0.69239 0.09695 0.01784 0.0
H4945 H 0.57302 0.052 0.98538 0.0
H4946 H 0.60297 0.07046 0.98682 0.0
C4947 C 0.71076 0.10007 0.02276 0.0
C4948 C 0.66171 0.09297 0.02675 0.0
H4949 H 0.62944 0.05767 0.0081 0.0
C4950 C 0.65097 0.10575 0.03078 0.0
C4951 C 0.65404 0.07548 0.01845 0.0
C4952 C 0.66502 0.06095 0.01507 0.0
C4953 C 0.63235 0.10127 0.02678 0.0
C4954 C 0.62477 0.08377 0.01851 0.0
C4955 C 0.63558 0.07123 0.01404 0.0
C4956 C 0.6057 0.07689 0.01704 0.0
C4957 C 0.62093 0.11498 0.03184 0.0
C4958 C 0.5978 0.0745 0.03361 0.0
C4959 C 0.58093 0.06403 0.03278 0.0
C4960 C 0.5721 0.05578 0.0154 0.0
C4961 C 0.57981 0.05839 0.9988 0.0
C4962 C 0.59664 0.06902 0.99961 0.0
H4963 H 0.62866 0.12889 0.03278 0.0
H4964 H 0.60889 0.11354 0.02142 0.0
H4965 H 0.61629 0.11291 0.04577 0.0
H4966 H 0.60499 0.08004 0.0472 0.0
H4967 H 0.57474 0.06242 0.04562 0.0
H4968 H 0.20642 0.50091 0.22137 0.0
H4969 H 0.21166 0.46995 0.21737 0.0
H4970 H 0.21201 0.46778 0.27719 0.0
H4971 H 0.2059 0.49831 0.28103 0.0
H4972 H 0.24058 0.45826 0.23317 0.0
H4973 H 0.17862 0.42178 0.25671 0.0
H4974 H 0.18036 0.44436 0.25027 0.0
H4975 H 0.18912 0.44047 0.27337 0.0
C4976 C 0.20786 0.49377 0.2336 0.0
C4977 C 0.2062 0.50173 0.25153 0.0
C4978 C 0.21054 0.47616 0.23128 0.0
C4979 C 0.21173 0.46664 0.24692 0.0
C4980 C 0.21048 0.47482 0.2649 0.0
H4981 H 0.26057 0.39605 0.2965 0.0
H4982 H 0.25267 0.4208 0.27988 0.0
C4983 C 0.20739 0.49224 0.26716 0.0
C4984 C 0.21609 0.44874 0.24492 0.0
H4985 H 0.20508 0.40784 0.26015 0.0
C4986 C 0.23258 0.44697 0.23845 0.0
C4987 C 0.20548 0.4342 0.25179 0.0
C4988 C 0.18733 0.43527 0.25825 0.0
C4989 C 0.23959 0.43142 0.24037 0.0
C4990 C 0.22969 0.41755 0.24874 0.0
C4991 C 0.2125 0.41866 0.25364 0.0
C4992 C 0.23797 0.40335 0.25585 0.0
C4993 C 0.25798 0.43034 0.23473 0.0
C4994 C 0.23246 0.38569 0.24746 0.0
C4995 C 0.23697 0.37169 0.25687 0.0
C4996 C 0.24658 0.37541 0.27481 0.0
C4997 C 0.25285 0.39312 0.28276 0.0
C4998 C 0.24861 0.40712 0.27323 0.0
H4999 H 0.26232 0.44052 0.2252 0.0
H5000 H 0.26784 0.43272 0.24751 0.0
H5001 H 0.25815 0.41676 0.22767 0.0
H5002 H 0.22401 0.38276 0.23415 0.0
H5003 H 0.23232 0.35797 0.25058 0.0
H5004 H 0.23523 0.39048 0.03962 0.0
H5005 H 0.2077 0.40314 0.04031 0.0
H5006 H 0.23832 0.45594 0.03795 0.0
H5007 H 0.26596 0.44344 0.03754 0.0
H5008 H 0.20073 0.43444 0.0672 0.0
H5009 H 0.1968 0.4441 0.99141 0.0
H5010 H 0.20909 0.42829 0.00141 0.0
H5011 H 0.21848 0.45182 0.00474 0.0
C5012 C 0.2361 0.4048 0.03931 0.0
C5013 C 0.25273 0.41598 0.03844 0.0
C5014 C 0.22039 0.41199 0.03979 0.0
C5015 C 0.22101 0.43043 0.0391 0.0
C5016 C 0.2376 0.44165 0.03845 0.0
H5017 H 0.14494 0.50141 0.02569 0.0
H5018 H 0.17201 0.48889 0.03386 0.0
C5019 C 0.25335 0.43451 0.03823 0.0
C5020 C 0.2043 0.43796 0.03838 0.0
H5021 H 0.17691 0.45714 0.00934 0.0
C5022 C 0.19544 0.43936 0.05457 0.0
C5023 C 0.19736 0.44413 0.0218 0.0
C5024 C 0.20578 0.44192 0.00376 0.0
C5025 C 0.18009 0.44737 0.05472 0.0
C5026 C 0.17354 0.45408 0.03829 0.0
C5027 C 0.18219 0.45229 0.02203 0.0
C5028 C 0.1574 0.46257 0.03727 0.0
C5029 C 0.17117 0.44898 0.07248 0.0
C5030 C 0.1403 0.45205 0.03701 0.0
C5031 C 0.12491 0.45914 0.03227 0.0
C5032 C 0.12642 0.47688 0.02785 0.0
C5033 C 0.14348 0.48778 0.02933 0.0
C5034 C 0.1589 0.48062 0.03389 0.0
H5035 H 0.17944 0.44562 0.08476 0.0
H5036 H 0.16857 0.46282 0.07554 0.0
H5037 H 0.15802 0.43967 0.07058 0.0
H5038 H 0.13885 0.43803 0.03929 0.0
H5039 H 0.11186 0.45048 0.03099 0.0
H5040 H 0.87765 0.97465 0.28331 0.0
H5041 H 0.86211 0.94427 0.28617 0.0
H5042 H 0.89188 0.92303 0.24393 0.0
H5043 H 0.90819 0.95338 0.24188 0.0
H5044 H 0.84024 0.92115 0.26298 0.0
H5045 H 0.89869 0.88906 0.28089 0.0
H5046 H 0.90093 0.91297 0.28042 0.0
H5047 H 0.8996 0.89832 0.25896 0.0
C5048 C 0.88094 0.96349 0.27469 0.0
C5049 C 0.89417 0.96643 0.26238 0.0
C5050 C 0.87205 0.94606 0.27635 0.0
C5051 C 0.87596 0.93111 0.26556 0.0
C5052 C 0.88896 0.93411 0.25294 0.0
H5053 H 0.82909 0.81645 0.25161 0.0
H5054 H 0.84647 0.84629 0.24934 0.0
C5055 C 0.89815 0.95154 0.25159 0.0
C5056 C 0.86577 0.91263 0.26697 0.0
H5057 H 0.87034 0.86954 0.27342 0.0
C5058 C 0.8469 0.90993 0.2654 0.0
C5059 C 0.8743 0.8978 0.27004 0.0
C5060 C 0.89449 0.8997 0.27286 0.0
C5061 C 0.83637 0.893 0.26651 0.0
C5062 C 0.84487 0.87819 0.26957 0.0
C5063 C 0.86375 0.88081 0.27105 0.0
C5064 C 0.8344 0.85992 0.2712 0.0
C5065 C 0.81618 0.89115 0.2639 0.0
C5066 C 0.82195 0.85741 0.28442 0.0
C5067 C 0.81172 0.84041 0.28546 0.0
C5068 C 0.81398 0.82538 0.27361 0.0
C5069 C 0.82685 0.82777 0.2608 0.0
C5070 C 0.83688 0.84484 0.25955 0.0
H5071 H 0.81191 0.90192 0.25614 0.0
H5072 H 0.80969 0.87796 0.25618 0.0
H5073 H 0.8112 0.89229 0.27788 0.0
H5074 H 0.8202 0.8686 0.29407 0.0
H5075 H 0.80231 0.83898 0.29586 0.0
H5076 H 0.71005 0.10499 0.72923 0.0
H5077 H 0.71644 0.13761 0.73762 0.0
H5078 H 0.72291 0.12983 0.79638 0.0
H5079 H 0.71758 0.09746 0.78807 0.0
H5080 H 0.69873 0.15882 0.75959 0.0
H5081 H 0.76936 0.16191 0.78976 0.0
H5082 H 0.75626 0.14221 0.77594 0.0
H5083 H 0.75351 0.14684 0.80038 0.0
C5084 C 0.71346 0.11039 0.74386 0.0
C5085 C 0.71404 0.09901 0.75803 0.0
C5086 C 0.71674 0.12884 0.74861 0.0
C5087 C 0.7203 0.13585 0.76755 0.0
C5088 C 0.72061 0.12448 0.78169 0.0
H5089 H 0.75857 0.24564 0.81495 0.0
H5090 H 0.74081 0.21526 0.81276 0.0
C5091 C 0.71781 0.10611 0.77693 0.0
C5092 C 0.7244 0.15514 0.77262 0.0
H5093 H 0.75759 0.18846 0.79404 0.0
C5094 C 0.71152 0.16538 0.76723 0.0
C5095 C 0.74116 0.16339 0.78245 0.0
C5096 C 0.75593 0.15305 0.7873 0.0
C5097 C 0.71521 0.18402 0.77125 0.0
C5098 C 0.73198 0.19216 0.78105 0.0
C5099 C 0.74456 0.18187 0.78695 0.0
C5100 C 0.73838 0.21133 0.78238 0.0
C5101 C 0.70156 0.19491 0.76454 0.0
C5102 C 0.74274 0.21873 0.76599 0.0
C5103 C 0.75284 0.23581 0.76725 0.0
C5104 C 0.75877 0.24545 0.78491 0.0
C5105 C 0.75398 0.23829 0.80128 0.0
C5106 C 0.74379 0.22116 0.80003 0.0
H5107 H 0.68781 0.1867 0.7619 0.0
H5108 H 0.70154 0.20666 0.77493 0.0
H5109 H 0.70511 0.19999 0.75117 0.0
H5110 H 0.73907 0.21098 0.75232 0.0
H5111 H 0.75605 0.24146 0.75446 0.0
loop_
_geom_bond_atom_site_label_1
_geom_bond_atom_site_label_2
_geom_bond_distance
_geom_bond_site_symmetry_2
_ccdc_geom_bond_type
In0 O1 2.294 . S
In0 O2 2.326 . S
In0 O6 2.266 . S
In0 O7 2.326 . S
In0 O8 2.266 . S
In0 O9 2.326 . S
In0 O11 2.294 . S
In0 O12 2.326 . S
O1 In0 2.294 . S
O1 C10 1.240 . S
O2 In0 2.326 . S
O2 C10 1.252 . S
C3 O6 1.252 . S
C3 O7 1.260 . S
C4 O11 1.240 . S
C4 O12 1.252 . S
C5 O8 1.252 . S
C5 O9 1.260 . S
O6 In0 2.266 . S
O6 C3 1.252 . S
O7 In0 2.326 . S
O7 C3 1.260 . S
O8 In0 2.266 . S
O8 C5 1.252 . S
O9 In0 2.326 . S
O9 C5 1.260 . S
C10 O1 1.240 . S
C10 O2 1.252 . S
O11 In0 2.294 . S
O11 C4 1.240 . S
O12 In0 2.326 . S
O12 C4 1.252 . S
In13 O14 2.294 . S
In13 O15 2.326 . S
In13 O19 2.266 . S
In13 O20 2.326 . S
In13 O21 2.266 1_455 S
In13 O22 2.326 1_455 S
In13 O24 2.294 . S
In13 O25 2.326 . S
O14 In13 2.294 . S
O14 C23 1.240 . S
O15 In13 2.326 . S
O15 C23 1.252 . S
C16 O19 1.252 . S
C16 O20 1.260 . S
C17 O24 1.240 . S
C17 O25 1.252 . S
C18 O21 1.252 . S
C18 O22 1.260 . S
O19 In13 2.266 . S
O19 C16 1.252 . S
O20 In13 2.326 . S
O20 C16 1.260 . S
O21 In13 2.266 1_655 S
O21 C18 1.252 . S
O22 In13 2.326 1_655 S
O22 C18 1.260 . S
C23 O14 1.240 . S
C23 O15 1.252 . S
O24 In13 2.294 . S
O24 C17 1.240 . S
O25 In13 2.326 . S
O25 C17 1.252 . S
In26 O27 2.294 . S
In26 O28 2.326 . S
In26 O32 2.266 . S
In26 O33 2.326 . S
In26 O34 2.266 . S
In26 O35 2.326 . S
In26 O37 2.294 . S
In26 O38 2.326 . S
O27 In26 2.294 . S
O27 C36 1.240 . S
O28 In26 2.326 . S
O28 C36 1.252 . S
C29 O32 1.252 . S
C29 O33 1.260 . S
C30 O37 1.240 . S
C30 O38 1.252 . S
C31 O34 1.252 . S
C31 O35 1.260 . S
O32 In26 2.266 . S
O32 C29 1.252 . S
O33 In26 2.326 . S
O33 C29 1.260 . S
O34 In26 2.266 . S
O34 C31 1.252 . S
O35 In26 2.326 . S
O35 C31 1.260 . S
C36 O27 1.240 . S
C36 O28 1.252 . S
O37 In26 2.294 . S
O37 C30 1.240 . S
O38 In26 2.326 . S
O38 C30 1.252 . S
In39 O40 2.294 . S
In39 O41 2.326 . S
In39 O45 2.266 . S
In39 O46 2.326 . S
In39 O47 2.266 . S
In39 O48 2.326 . S
In39 O50 2.294 . S
In39 O51 2.326 . S
O40 In39 2.294 . S
O40 C49 1.240 . S
O41 In39 2.326 . S
O41 C49 1.252 . S
C42 O45 1.252 . S
C42 O46 1.260 . S
C43 O50 1.240 . S
C43 O51 1.252 . S
C44 O47 1.252 . S
C44 O48 1.260 . S
O45 In39 2.266 . S
O45 C42 1.252 . S
O46 In39 2.326 . S
O46 C42 1.260 . S
O47 In39 2.266 . S
O47 C44 1.252 . S
O48 In39 2.326 . S
O48 C44 1.260 . S
C49 O40 1.240 . S
C49 O41 1.252 . S
O50 In39 2.294 . S
O50 C43 1.240 . S
O51 In39 2.326 . S
O51 C43 1.252 . S
In52 O53 2.294 . S
In52 O54 2.326 . S
In52 O58 2.266 . S
In52 O59 2.326 . S
In52 O60 2.266 . S
In52 O61 2.326 . S
In52 O63 2.294 . S
In52 O64 2.326 . S
O53 In52 2.294 . S
O53 C62 1.240 . S
O54 In52 2.326 . S
O54 C62 1.252 . S
C55 O58 1.252 . S
C55 O59 1.260 . S
C56 O63 1.240 . S
C56 O64 1.252 . S
C57 O60 1.252 . S
C57 O61 1.260 . S
O58 In52 2.266 . S
O58 C55 1.252 . S
O59 In52 2.326 . S
O59 C55 1.260 . S
O60 In52 2.266 . S
O60 C57 1.252 . S
O61 In52 2.326 . S
O61 C57 1.260 . S
C62 O53 1.240 . S
C62 O54 1.252 . S
O63 In52 2.294 . S
O63 C56 1.240 . S
O64 In52 2.326 . S
O64 C56 1.252 . S
In65 O66 2.294 . S
In65 O67 2.326 . S
In65 O71 2.266 . S
In65 O72 2.326 . S
In65 O73 2.266 . S
In65 O74 2.326 . S
In65 O76 2.294 . S
In65 O77 2.326 . S
O66 In65 2.294 . S
O66 C75 1.240 . S
O67 In65 2.326 . S
O67 C75 1.252 . S
C68 O71 1.252 . S
C68 O72 1.260 . S
C69 O76 1.240 . S
C69 O77 1.252 . S
C70 O73 1.252 . S
C70 O74 1.260 . S
O71 In65 2.266 . S
O71 C68 1.252 . S
O72 In65 2.326 . S
O72 C68 1.260 . S
O73 In65 2.266 . S
O73 C70 1.252 . S
O74 In65 2.326 . S
O74 C70 1.260 . S
C75 O66 1.240 . S
C75 O67 1.252 . S
O76 In65 2.294 . S
O76 C69 1.240 . S
O77 In65 2.326 . S
O77 C69 1.252 . S
In78 O79 2.294 . S
In78 O80 2.326 . S
In78 O84 2.266 . S
In78 O85 2.326 . S
In78 O86 2.266 . S
In78 O87 2.326 . S
In78 O89 2.294 . S
In78 O90 2.326 . S
O79 In78 2.294 . S
O79 C88 1.240 . S
O80 In78 2.326 . S
O80 C88 1.252 . S
C81 O84 1.252 . S
C81 O85 1.260 . S
C82 O89 1.240 . S
C82 O90 1.252 . S
C83 O86 1.252 . S
C83 O87 1.260 . S
O84 In78 2.266 . S
O84 C81 1.252 . S
O85 In78 2.326 . S
O85 C81 1.260 . S
O86 In78 2.266 . S
O86 C83 1.252 . S
O87 In78 2.326 . S
O87 C83 1.260 . S
C88 O79 1.240 . S
C88 O80 1.252 . S
O89 In78 2.294 . S
O89 C82 1.240 . S
O90 In78 2.326 . S
O90 C82 1.252 . S
In91 O92 2.294 . S
In91 O93 2.328 1_455 S
In91 O97 2.265 1_455 S
In91 O98 2.332 . S
In91 O99 2.264 1_455 S
In91 O100 2.323 1_455 S
In91 O102 2.296 . S
In91 O103 2.329 . S
O92 In91 2.294 . S
O92 C101 1.240 . S
O93 In91 2.328 1_655 S
O93 C101 1.252 1_655 S
C94 O97 1.254 1_455 S
C94 O98 1.258 . S
C95 O102 1.240 . S
C95 O103 1.252 . S
C96 O99 1.252 . S
C96 O100 1.260 . S
O97 In91 2.265 1_655 S
O97 C94 1.254 1_655 S
O98 In91 2.332 . S
O98 C94 1.258 . S
O99 In91 2.264 1_655 S
O99 C96 1.252 . S
O100 In91 2.323 1_655 S
O100 C96 1.260 . S
C101 O92 1.240 . S
C101 O93 1.252 1_455 S
O102 In91 2.296 . S
O102 C95 1.240 . S
O103 In91 2.329 . S
O103 C95 1.252 . S
In104 O105 2.294 . S
In104 O106 2.326 . S
In104 O110 2.266 . S
In104 O111 2.326 . S
In104 O112 2.266 1_545 S
In104 O113 2.326 1_545 S
In104 O115 2.294 . S
In104 O116 2.326 . S
O105 In104 2.294 . S
O105 C114 1.240 . S
O106 In104 2.326 . S
O106 C114 1.252 . S
C107 O110 1.252 . S
C107 O111 1.260 . S
C108 O115 1.240 . S
C108 O116 1.252 . S
C109 O112 1.252 . S
C109 O113 1.260 . S
O110 In104 2.266 . S
O110 C107 1.252 . S
O111 In104 2.326 . S
O111 C107 1.260 . S
O112 In104 2.266 1_565 S
O112 C109 1.252 . S
O113 In104 2.326 1_565 S
O113 C109 1.260 . S
C114 O105 1.240 . S
C114 O106 1.252 . S
O115 In104 2.294 . S
O115 C108 1.240 . S
O116 In104 2.326 . S
O116 C108 1.252 . S
In117 O118 2.294 . S
In117 O119 2.326 . S
In117 O123 2.266 . S
In117 O124 2.326 . S
In117 O125 2.266 . S
In117 O126 2.326 . S
In117 O128 2.294 . S
In117 O129 2.326 . S
O118 In117 2.294 . S
O118 C127 1.240 . S
O119 In117 2.326 . S
O119 C127 1.252 . S
C120 O123 1.252 . S
C120 O124 1.260 . S
C121 O128 1.240 . S
C121 O129 1.252 . S
C122 O125 1.252 . S
C122 O126 1.260 . S
O123 In117 2.266 . S
O123 C120 1.252 . S
O124 In117 2.326 . S
O124 C120 1.260 . S
O125 In117 2.266 . S
O125 C122 1.252 . S
O126 In117 2.326 . S
O126 C122 1.260 . S
C127 O118 1.240 . S
C127 O119 1.252 . S
O128 In117 2.294 . S
O128 C121 1.240 . S
O129 In117 2.326 . S
O129 C121 1.252 . S
In130 O131 2.294 . S
In130 O132 2.326 . S
In130 O136 2.266 . S
In130 O137 2.326 . S
In130 O138 2.266 . S
In130 O139 2.326 . S
In130 O141 2.294 . S
In130 O142 2.326 . S
O131 In130 2.294 . S
O131 C140 1.240 . S
O132 In130 2.326 . S
O132 C140 1.252 . S
C133 O136 1.252 . S
C133 O137 1.260 . S
C134 O141 1.240 . S
C134 O142 1.252 . S
C135 O138 1.252 . S
C135 O139 1.260 . S
O136 In130 2.266 . S
O136 C133 1.252 . S
O137 In130 2.326 . S
O137 C133 1.260 . S
O138 In130 2.266 . S
O138 C135 1.252 . S
O139 In130 2.326 . S
O139 C135 1.260 . S
C140 O131 1.240 . S
C140 O132 1.252 . S
O141 In130 2.294 . S
O141 C134 1.240 . S
O142 In130 2.326 . S
O142 C134 1.252 . S
In143 O144 2.296 . S
In143 O145 2.329 . S
In143 O149 2.264 1_554 S
In143 O150 2.322 1_554 S
In143 O151 2.266 1_554 S
In143 O152 2.322 1_554 S
In143 O154 2.294 . S
In143 O155 2.327 . S
O144 In143 2.296 . S
O144 C153 1.240 . S
O145 In143 2.329 . S
O145 C153 1.252 . S
C146 O149 1.252 . S
C146 O150 1.260 . S
C147 O154 1.240 . S
C147 O155 1.252 . S
C148 O151 1.252 . S
C148 O152 1.266 . S
O149 In143 2.264 1_556 S
O149 C146 1.252 . S
O150 In143 2.322 1_556 S
O150 C146 1.260 . S
O151 In143 2.266 1_556 S
O151 C148 1.252 . S
O152 In143 2.322 1_556 S
O152 C148 1.266 . S
C153 O144 1.240 . S
C153 O145 1.252 . S
O154 In143 2.294 . S
O154 C147 1.240 . S
O155 In143 2.327 . S
O155 C147 1.252 . S
In156 O157 2.294 . S
In156 O158 2.326 . S
In156 O162 2.266 . S
In156 O163 2.326 . S
In156 O164 2.266 . S
In156 O165 2.326 . S
In156 O167 2.294 . S
In156 O168 2.326 . S
O157 In156 2.294 . S
O157 C166 1.240 . S
O158 In156 2.326 . S
O158 C166 1.252 . S
C159 O162 1.252 . S
C159 O163 1.260 . S
C160 O167 1.240 . S
C160 O168 1.252 . S
C161 O164 1.252 . S
C161 O165 1.260 . S
O162 In156 2.266 . S
O162 C159 1.252 . S
O163 In156 2.326 . S
O163 C159 1.260 . S
O164 In156 2.266 . S
O164 C161 1.252 . S
O165 In156 2.326 . S
O165 C161 1.260 . S
C166 O157 1.240 . S
C166 O158 1.252 . S
O167 In156 2.294 . S
O167 C160 1.240 . S
O168 In156 2.326 . S
O168 C160 1.252 . S
In169 O170 2.294 . S
In169 O171 2.326 . S
In169 O175 2.266 . S
In169 O176 2.326 . S
In169 O177 2.266 . S
In169 O178 2.326 . S
In169 O180 2.294 . S
In169 O181 2.326 . S
O170 In169 2.294 . S
O170 C179 1.240 . S
O171 In169 2.326 . S
O171 C179 1.252 . S
C172 O175 1.252 . S
C172 O176 1.260 . S
C173 O180 1.240 . S
C173 O181 1.252 . S
C174 O177 1.252 . S
C174 O178 1.260 . S
O175 In169 2.266 . S
O175 C172 1.252 . S
O176 In169 2.326 . S
O176 C172 1.260 . S
O177 In169 2.266 . S
O177 C174 1.252 . S
O178 In169 2.326 . S
O178 C174 1.260 . S
C179 O170 1.240 . S
C179 O171 1.252 . S
O180 In169 2.294 . S
O180 C173 1.240 . S
O181 In169 2.326 . S
O181 C173 1.252 . S
In182 O183 2.294 . S
In182 O184 2.326 . S
In182 O188 2.266 . S
In182 O189 2.326 . S
In182 O190 2.266 . S
In182 O191 2.326 . S
In182 O193 2.294 . S
In182 O194 2.326 . S
O183 In182 2.294 . S
O183 C192 1.240 . S
O184 In182 2.326 . S
O184 C192 1.252 . S
C185 O188 1.252 . S
C185 O189 1.260 . S
C186 O193 1.240 . S
C186 O194 1.252 . S
C187 O190 1.252 . S
C187 O191 1.260 . S
O188 In182 2.266 . S
O188 C185 1.252 . S
O189 In182 2.326 . S
O189 C185 1.260 . S
O190 In182 2.266 . S
O190 C187 1.252 . S
O191 In182 2.326 . S
O191 C187 1.260 . S
C192 O183 1.240 . S
C192 O184 1.252 . S
O193 In182 2.294 . S
O193 C186 1.240 . S
O194 In182 2.326 . S
O194 C186 1.252 . S
In195 O196 2.294 . S
In195 O197 2.326 . S
In195 O201 2.266 . S
In195 O202 2.326 . S
In195 O203 2.266 . S
In195 O204 2.326 . S
In195 O206 2.294 . S
In195 O207 2.326 . S
O196 In195 2.294 . S
O196 C205 1.240 . S
O197 In195 2.326 . S
O197 C205 1.252 . S
C198 O201 1.252 . S
C198 O202 1.260 . S
C199 O206 1.240 . S
C199 O207 1.252 . S
C200 O203 1.252 . S
C200 O204 1.260 . S
O201 In195 2.266 . S
O201 C198 1.252 . S
O202 In195 2.326 . S
O202 C198 1.260 . S
O203 In195 2.266 . S
O203 C200 1.252 . S
O204 In195 2.326 . S
O204 C200 1.260 . S
C205 O196 1.240 . S
C205 O197 1.252 . S
O206 In195 2.294 . S
O206 C199 1.240 . S
O207 In195 2.326 . S
O207 C199 1.252 . S
In208 O209 2.294 . S
In208 O210 2.326 . S
In208 O214 2.266 . S
In208 O215 2.326 . S
In208 O216 2.266 1_545 S
In208 O217 2.326 1_545 S
In208 O219 2.294 . S
In208 O220 2.326 . S
O209 In208 2.294 . S
O209 C218 1.240 . S
O210 In208 2.326 . S
O210 C218 1.252 . S
C211 O214 1.252 . S
C211 O215 1.260 . S
C212 O219 1.240 . S
C212 O220 1.252 . S
C213 O216 1.252 . S
C213 O217 1.260 . S
O214 In208 2.266 . S
O214 C211 1.252 . S
O215 In208 2.326 . S
O215 C211 1.260 . S
O216 In208 2.266 1_565 S
O216 C213 1.252 . S
O217 In208 2.326 1_565 S
O217 C213 1.260 . S
C218 O209 1.240 . S
C218 O210 1.252 . S
O219 In208 2.294 . S
O219 C212 1.240 . S
O220 In208 2.326 . S
O220 C212 1.252 . S
In221 O222 2.294 . S
In221 O223 2.326 . S
In221 O227 2.266 . S
In221 O228 2.326 . S
In221 O229 2.266 . S
In221 O230 2.326 . S
In221 O232 2.294 . S
In221 O233 2.326 . S
O222 In221 2.294 . S
O222 C231 1.240 . S
O223 In221 2.326 . S
O223 C231 1.252 . S
C224 O227 1.252 . S
C224 O228 1.260 . S
C225 O232 1.240 . S
C225 O233 1.252 . S
C226 O229 1.252 . S
C226 O230 1.260 . S
O227 In221 2.266 . S
O227 C224 1.252 . S
O228 In221 2.326 . S
O228 C224 1.260 . S
O229 In221 2.266 . S
O229 C226 1.252 . S
O230 In221 2.326 . S
O230 C226 1.260 . S
C231 O222 1.240 . S
C231 O223 1.252 . S
O232 In221 2.294 . S
O232 C225 1.240 . S
O233 In221 2.326 . S
O233 C225 1.252 . S
In234 O235 2.294 . S
In234 O236 2.326 . S
In234 O240 2.266 . S
In234 O241 2.326 . S
In234 O242 2.266 . S
In234 O243 2.326 . S
In234 O245 2.294 . S
In234 O246 2.326 . S
O235 In234 2.294 . S
O235 C244 1.240 . S
O236 In234 2.326 . S
O236 C244 1.252 . S
C237 O240 1.252 . S
C237 O241 1.260 . S
C238 O245 1.240 . S
C238 O246 1.252 . S
C239 O242 1.252 . S
C239 O243 1.260 . S
O240 In234 2.266 . S
O240 C237 1.252 . S
O241 In234 2.326 . S
O241 C237 1.260 . S
O242 In234 2.266 . S
O242 C239 1.252 . S
O243 In234 2.326 . S
O243 C239 1.260 . S
C244 O235 1.240 . S
C244 O236 1.252 . S
O245 In234 2.294 . S
O245 C238 1.240 . S
O246 In234 2.326 . S
O246 C238 1.252 . S
In247 O248 2.294 . S
In247 O249 2.326 . S
In247 O253 2.266 . S
In247 O254 2.326 . S
In247 O255 2.266 . S
In247 O256 2.326 . S
In247 O258 2.294 . S
In247 O259 2.326 . S
O248 In247 2.294 . S
O248 C257 1.240 . S
O249 In247 2.326 . S
O249 C257 1.252 . S
C250 O253 1.252 . S
C250 O254 1.260 . S
C251 O258 1.240 . S
C251 O259 1.252 . S
C252 O255 1.252 . S
C252 O256 1.260 . S
O253 In247 2.266 . S
O253 C250 1.252 . S
O254 In247 2.326 . S
O254 C250 1.260 . S
O255 In247 2.266 . S
O255 C252 1.252 . S
O256 In247 2.326 . S
O256 C252 1.260 . S
C257 O248 1.240 . S
C257 O249 1.252 . S
O258 In247 2.294 . S
O258 C251 1.240 . S
O259 In247 2.326 . S
O259 C251 1.252 . S
In260 O261 2.294 . S
In260 O262 2.326 . S
In260 O266 2.266 . S
In260 O267 2.326 . S
In260 O268 2.266 1_554 S
In260 O269 2.326 1_554 S
In260 O271 2.294 . S
In260 O272 2.326 . S
O261 In260 2.294 . S
O261 C270 1.240 . S
O262 In260 2.326 . S
O262 C270 1.252 . S
C263 O266 1.252 . S
C263 O267 1.260 . S
C264 O271 1.240 . S
C264 O272 1.252 . S
C265 O268 1.252 . S
C265 O269 1.260 . S
O266 In260 2.266 . S
O266 C263 1.252 . S
O267 In260 2.326 . S
O267 C263 1.260 . S
O268 In260 2.266 1_556 S
O268 C265 1.252 . S
O269 In260 2.326 1_556 S
O269 C265 1.260 . S
C270 O261 1.240 . S
C270 O262 1.252 . S
O271 In260 2.294 . S
O271 C264 1.240 . S
O272 In260 2.326 . S
O272 C264 1.252 . S
In273 O274 2.294 . S
In273 O275 2.326 . S
In273 O279 2.266 . S
In273 O280 2.326 . S
In273 O281 2.266 . S
In273 O282 2.326 . S
In273 O284 2.294 . S
In273 O285 2.326 . S
O274 In273 2.294 . S
O274 C283 1.240 . S
O275 In273 2.326 . S
O275 C283 1.252 . S
C276 O279 1.252 . S
C276 O280 1.260 . S
C277 O284 1.240 . S
C277 O285 1.252 . S
C278 O281 1.252 . S
C278 O282 1.260 . S
O279 In273 2.266 . S
O279 C276 1.252 . S
O280 In273 2.326 . S
O280 C276 1.260 . S
O281 In273 2.266 . S
O281 C278 1.252 . S
O282 In273 2.326 . S
O282 C278 1.260 . S
C283 O274 1.240 . S
C283 O275 1.252 . S
O284 In273 2.294 . S
O284 C277 1.240 . S
O285 In273 2.326 . S
O285 C277 1.252 . S
In286 O287 2.294 . S
In286 O288 2.326 . S
In286 O292 2.266 . S
In286 O293 2.326 . S
In286 O294 2.266 . S
In286 O295 2.326 . S
In286 O297 2.294 . S
In286 O298 2.326 . S
O287 In286 2.294 . S
O287 C296 1.240 . S
O288 In286 2.326 . S
O288 C296 1.252 . S
C289 O292 1.252 . S
C289 O293 1.260 . S
C290 O297 1.240 . S
C290 O298 1.252 . S
C291 O294 1.252 . S
C291 O295 1.260 . S
O292 In286 2.266 . S
O292 C289 1.252 . S
O293 In286 2.326 . S
O293 C289 1.260 . S
O294 In286 2.266 . S
O294 C291 1.252 . S
O295 In286 2.326 . S
O295 C291 1.260 . S
C296 O287 1.240 . S
C296 O288 1.252 . S
O297 In286 2.294 . S
O297 C290 1.240 . S
O298 In286 2.326 . S
O298 C290 1.252 . S
In299 O300 2.294 . S
In299 O301 2.326 . S
In299 O305 2.266 . S
In299 O306 2.326 . S
In299 O307 2.266 . S
In299 O308 2.326 . S
In299 O310 2.294 . S
In299 O311 2.326 . S
O300 In299 2.294 . S
O300 C309 1.240 . S
O301 In299 2.326 . S
O301 C309 1.252 . S
C302 O305 1.252 . S
C302 O306 1.260 . S
C303 O310 1.240 . S
C303 O311 1.252 . S
C304 O307 1.252 . S
C304 O308 1.260 . S
O305 In299 2.266 . S
O305 C302 1.252 . S
O306 In299 2.326 . S
O306 C302 1.260 . S
O307 In299 2.266 . S
O307 C304 1.252 . S
O308 In299 2.326 . S
O308 C304 1.260 . S
C309 O300 1.240 . S
C309 O301 1.252 . S
O310 In299 2.294 . S
O310 C303 1.240 . S
O311 In299 2.326 . S
O311 C303 1.252 . S
Tb312 N341 2.617 . S
Tb312 N347 2.572 . S
Tb312 O356 2.465 . S
Tb312 O357 2.387 . S
Tb312 O359 2.428 . S
Tb312 O360 2.308 . S
Tb312 O364 2.349 . S
Tb312 O367 2.393 . S
Tb312 C376 2.802 . S
C313 N314 1.379 1_564 S
C313 C316 1.416 1_554 S
C313 C320 1.424 . S
N314 C313 1.379 1_546 S
N314 C317 1.319 1_655 S
N314 Tb323 2.617 1_656 S
C315 C317 1.387 1_665 S
C315 C318 1.339 . S
C315 H335 0.930 . S
C316 C313 1.416 1_556 S
C316 C318 1.416 . S
C316 C322 1.448 . S
C317 N314 1.319 1_455 S
C317 C315 1.387 1_445 S
C317 H328 0.953 . S
C318 C315 1.339 . S
C318 C316 1.416 . S
C318 H339 0.930 . S
C319 C320 1.413 . S
C319 C321 1.427 . S
C319 C325 1.416 . S
C320 C313 1.424 . S
C320 C319 1.413 . S
C320 N324 1.361 1_565 S
C321 C319 1.427 . S
C321 C322 1.328 1_554 S
C321 H336 0.929 . S
C322 C316 1.448 . S
C322 C321 1.328 1_556 S
C322 H337 0.930 . S
Tb323 N314 2.617 1_454 S
Tb323 N324 2.572 1_455 S
Tb323 O358 2.349 . S
Tb323 O361 2.363 1_554 S
Tb323 O362 2.465 1_455 S
Tb323 O363 2.387 . S
Tb323 O365 2.428 1_455 S
Tb323 O366 2.308 . S
Tb323 C387 2.802 1_455 S
N324 C320 1.361 1_545 S
N324 Tb323 2.572 1_655 S
N324 C326 1.340 . S
C325 C319 1.416 . S
C325 C327 1.332 . S
C325 H333 0.931 . S
C326 N324 1.340 . S
C326 C327 1.407 1_545 S
C326 H332 0.930 . S
C327 C325 1.332 . S
C327 C326 1.407 1_565 S
C327 H329 0.929 . S
H328 C317 0.953 . S
H329 C327 0.929 . S
H330 C345 0.930 . S
H331 C352 0.929 . S
H332 C326 0.930 . S
H333 C325 0.931 . S
H334 C348 0.930 . S
H335 C315 0.930 . S
H336 C321 0.929 . S
H337 C322 0.930 . S
H338 C343 0.930 . S
H339 C318 0.930 . S
H340 C351 0.931 . S
N341 Tb312 2.617 . S
N341 C342 1.379 . S
N341 C345 1.334 . S
C342 N341 1.379 . S
C342 C344 1.416 . S
C342 C350 1.424 . S
C343 H338 0.930 . S
C343 C345 1.390 . S
C343 C346 1.339 . S
C344 C342 1.416 . S
C344 C346 1.416 . S
C344 C377 1.448 . S
C345 H330 0.930 . S
C345 N341 1.334 . S
C345 C343 1.390 . S
C346 C343 1.339 . S
C346 C344 1.416 . S
C346 H353 0.930 . S
N347 Tb312 2.572 . S
N347 C348 1.340 . S
N347 C350 1.361 . S
C348 H334 0.930 . S
C348 N347 1.340 . S
C348 C352 1.407 . S
C349 C350 1.413 . S
C349 C351 1.416 . S
C349 C378 1.427 . S
C350 C342 1.424 . S
C350 N347 1.361 . S
C350 C349 1.413 . S
C351 H340 0.931 . S
C351 C349 1.416 . S
C351 C352 1.332 . S
C352 H331 0.929 . S
C352 C348 1.407 . S
C352 C351 1.332 . S
H353 C346 0.930 . S
H354 C377 0.930 . S
H355 C378 0.929 . S
O356 Tb312 2.465 . S
O356 C376 1.264 . S
O357 Tb312 2.387 . S
O357 C368 1.264 . S
O358 Tb323 2.349 . S
O358 C368 1.243 . S
O359 Tb312 2.428 . S
O359 C376 1.256 . S
O360 Tb312 2.308 . S
O360 C375 1.266 . S
O361 Tb323 2.363 1_556 S
O361 C375 1.244 1_556 S
O362 Tb323 2.465 1_655 S
O362 C387 1.264 . S
O363 Tb323 2.387 . S
O363 C379 1.264 . S
O364 Tb312 2.349 . S
O364 C379 1.243 . S
O365 Tb323 2.428 1_655 S
O365 C387 1.256 . S
O366 Tb323 2.308 . S
O366 C386 1.266 . S
O367 Tb312 2.393 . S
O367 C386 1.248 . S
C368 O357 1.264 . S
C368 O358 1.243 . S
C369 C372 1.399 . S
C369 C374 1.383 . S
C369 C376 1.496 . S
C370 C371 1.399 . S
C370 C374 1.389 . S
C371 C370 1.399 . S
C371 C373 1.380 . S
C371 H388 0.929 . S
C372 C369 1.399 . S
C372 C373 1.392 . S
C372 H389 0.929 . S
C373 C371 1.380 . S
C373 C372 1.392 . S
C373 H390 0.929 . S
C374 C369 1.383 . S
C374 C370 1.389 . S
C374 H391 0.931 . S
C375 O360 1.266 . S
C375 O361 1.244 1_554 S
C376 Tb312 2.802 . S
C376 O356 1.264 . S
C376 O359 1.256 . S
C376 C369 1.496 . S
C377 C344 1.448 . S
C377 H354 0.930 . S
C377 C378 1.328 . S
C378 C349 1.427 . S
C378 H355 0.929 . S
C378 C377 1.328 . S
C379 O363 1.264 . S
C379 O364 1.243 . S
C380 C383 1.399 1_554 S
C380 C384 1.383 . S
C380 C387 1.496 . S
C381 C382 1.399 . S
C381 C384 1.389 . S
C382 C381 1.399 . S
C382 C385 1.380 1_554 S
C382 H392 0.929 . S
C383 C380 1.399 1_556 S
C383 C385 1.392 . S
C383 H393 0.929 . S
C384 C380 1.383 . S
C384 C381 1.389 . S
C384 H394 0.931 . S
C385 C382 1.380 1_556 S
C385 C383 1.392 . S
C385 H395 0.929 . S
C386 O366 1.266 . S
C386 O367 1.248 . S
C387 Tb323 2.802 1_655 S
C387 O362 1.264 . S
C387 O365 1.256 . S
C387 C380 1.496 . S
H388 C371 0.929 . S
H389 C372 0.929 . S
H390 C373 0.929 . S
H391 C374 0.931 . S
H392 C382 0.929 . S
H393 C383 0.929 . S
H394 C384 0.931 . S
H395 C385 0.929 . S
Tb396 N425 2.617 . S
Tb396 N431 2.572 . S
Tb396 O440 2.465 . S
Tb396 O441 2.387 . S
Tb396 O443 2.428 . S
Tb396 O444 2.308 . S
Tb396 O448 2.349 . S
Tb396 O451 2.393 . S
Tb396 C460 2.802 . S
C397 N398 1.379 . S
C397 C400 1.416 . S
C397 C404 1.424 . S
N398 C397 1.379 . S
N398 C401 1.334 . S
N398 Tb407 2.617 . S
C399 C401 1.390 . S
C399 C402 1.339 . S
C399 H419 0.930 . S
C400 C397 1.416 . S
C400 C402 1.416 . S
C400 C406 1.448 . S
C401 N398 1.334 . S
C401 C399 1.390 . S
C401 H412 0.930 . S
C402 C399 1.339 . S
C402 C400 1.416 . S
C402 H423 0.930 . S
C403 C404 1.413 . S
C403 C405 1.427 . S
C403 C409 1.416 . S
C404 C397 1.424 . S
C404 C403 1.413 . S
C404 N408 1.361 . S
C405 C403 1.427 . S
C405 C406 1.328 . S
C405 H420 0.929 . S
C406 C400 1.448 . S
C406 C405 1.328 . S
C406 H421 0.930 . S
Tb407 N398 2.617 . S
Tb407 N408 2.572 . S
Tb407 O442 2.349 . S
Tb407 O445 2.393 . S
Tb407 O446 2.465 . S
Tb407 O447 2.387 . S
Tb407 O449 2.428 . S
Tb407 O450 2.308 . S
Tb407 C471 2.802 . S
N408 C404 1.361 . S
N408 Tb407 2.572 . S
N408 C410 1.340 . S
C409 C403 1.416 . S
C409 C411 1.332 . S
C409 H417 0.931 . S
C410 N408 1.340 . S
C410 C411 1.407 . S
C410 H416 0.930 . S
C411 C409 1.332 . S
C411 C410 1.407 . S
C411 H413 0.929 . S
H412 C401 0.930 . S
H413 C411 0.929 . S
H414 C429 0.930 . S
H415 C436 0.929 . S
H416 C410 0.930 . S
H417 C409 0.931 . S
H418 C432 0.930 . S
H419 C399 0.930 . S
H420 C405 0.929 . S
H421 C406 0.930 . S
H422 C427 0.930 . S
H423 C402 0.930 . S
H424 C435 0.931 . S
N425 Tb396 2.617 . S
N425 C426 1.379 . S
N425 C429 1.334 . S
C426 N425 1.379 . S
C426 C428 1.416 . S
C426 C434 1.424 . S
C427 H422 0.930 . S
C427 C429 1.390 . S
C427 C430 1.339 . S
C428 C426 1.416 . S
C428 C430 1.416 . S
C428 C461 1.448 . S
C429 H414 0.930 . S
C429 N425 1.334 . S
C429 C427 1.390 . S
C430 C427 1.339 . S
C430 C428 1.416 . S
C430 H437 0.930 . S
N431 Tb396 2.572 . S
N431 C432 1.340 . S
N431 C434 1.361 . S
C432 H418 0.930 . S
C432 N431 1.340 . S
C432 C436 1.407 . S
C433 C434 1.413 . S
C433 C435 1.416 . S
C433 C462 1.427 . S
C434 C426 1.424 . S
C434 N431 1.361 . S
C434 C433 1.413 . S
C435 H424 0.931 . S
C435 C433 1.416 . S
C435 C436 1.332 . S
C436 H415 0.929 . S
C436 C432 1.407 . S
C436 C435 1.332 . S
H437 C430 0.930 . S
H438 C461 0.930 . S
H439 C462 0.929 . S
O440 Tb396 2.465 . S
O440 C460 1.264 . S
O441 Tb396 2.387 . S
O441 C452 1.264 . S
O442 Tb407 2.349 . S
O442 C452 1.243 . S
O443 Tb396 2.428 . S
O443 C460 1.256 . S
O444 Tb396 2.308 . S
O444 C459 1.266 . S
O445 Tb407 2.393 . S
O445 C459 1.248 . S
O446 Tb407 2.465 . S
O446 C471 1.264 . S
O447 Tb407 2.387 . S
O447 C463 1.264 . S
O448 Tb396 2.349 . S
O448 C463 1.243 . S
O449 Tb407 2.428 . S
O449 C471 1.256 . S
O450 Tb407 2.308 . S
O450 C470 1.266 . S
O451 Tb396 2.393 . S
O451 C470 1.248 . S
C452 O441 1.264 . S
C452 O442 1.243 . S
C453 C456 1.399 . S
C453 C458 1.383 . S
C453 C460 1.496 . S
C454 C455 1.399 . S
C454 C458 1.389 . S
C455 C454 1.399 . S
C455 C457 1.380 . S
C455 H472 0.929 . S
C456 C453 1.399 . S
C456 C457 1.392 . S
C456 H473 0.929 . S
C457 C455 1.380 . S
C457 C456 1.392 . S
C457 H474 0.929 . S
C458 C453 1.383 . S
C458 C454 1.389 . S
C458 H475 0.931 . S
C459 O444 1.266 . S
C459 O445 1.248 . S
C460 Tb396 2.802 . S
C460 O440 1.264 . S
C460 O443 1.256 . S
C460 C453 1.496 . S
C461 C428 1.448 . S
C461 H438 0.930 . S
C461 C462 1.328 . S
C462 C433 1.427 . S
C462 H439 0.929 . S
C462 C461 1.328 . S
C463 O447 1.264 . S
C463 O448 1.243 . S
C464 C467 1.399 . S
C464 C468 1.383 . S
C464 C471 1.496 . S
C465 C466 1.399 . S
C465 C468 1.389 . S
C466 C465 1.399 . S
C466 C469 1.380 . S
C466 H476 0.929 . S
C467 C464 1.399 . S
C467 C469 1.392 . S
C467 H477 0.929 . S
C468 C464 1.383 . S
C468 C465 1.389 . S
C468 H478 0.931 . S
C469 C466 1.380 . S
C469 C467 1.392 . S
C469 H479 0.929 . S
C470 O450 1.266 . S
C470 O451 1.248 . S
C471 Tb407 2.802 . S
C471 O446 1.264 . S
C471 O449 1.256 . S
C471 C464 1.496 . S
H472 C455 0.929 . S
H473 C456 0.929 . S
H474 C457 0.929 . S
H475 C458 0.931 . S
H476 C466 0.929 . S
H477 C467 0.929 . S
H478 C468 0.931 . S
H479 C469 0.929 . S
Tb480 N509 2.617 1_545 S
Tb480 N515 2.572 1_545 S
Tb480 O524 2.465 . S
Tb480 O525 2.387 1_545 S
Tb480 O527 2.428 . S
Tb480 O528 2.308 . S
Tb480 O532 2.349 . S
Tb480 O535 2.393 . S
Tb480 C544 2.802 . S
C481 N482 1.379 . S
C481 C484 1.416 . S
C481 C488 1.424 . S
N482 C481 1.379 . S
N482 C485 1.334 . S
N482 Tb491 2.617 . S
C483 C485 1.390 . S
C483 C486 1.339 . S
C483 H503 0.930 . S
C484 C481 1.416 . S
C484 C486 1.416 . S
C484 C490 1.448 . S
C485 N482 1.334 . S
C485 C483 1.390 . S
C485 H496 0.930 . S
C486 C483 1.339 . S
C486 C484 1.416 . S
C486 H507 0.930 . S
C487 C488 1.413 . S
C487 C489 1.427 . S
C487 C493 1.416 . S
C488 C481 1.424 . S
C488 C487 1.413 . S
C488 N492 1.361 . S
C489 C487 1.427 . S
C489 C490 1.328 . S
C489 H504 0.929 . S
C490 C484 1.448 . S
C490 C489 1.328 . S
C490 H505 0.930 . S
Tb491 N482 2.617 . S
Tb491 N492 2.572 . S
Tb491 O526 2.349 1_545 S
Tb491 O529 2.393 . S
Tb491 O530 2.465 . S
Tb491 O531 2.387 . S
Tb491 O533 2.428 . S
Tb491 O534 2.308 . S
Tb491 C555 2.802 . S
N492 C488 1.361 . S
N492 Tb491 2.572 . S
N492 C494 1.340 . S
C493 C487 1.416 . S
C493 C495 1.332 . S
C493 H501 0.931 . S
C494 N492 1.340 . S
C494 C495 1.407 . S
C494 H500 0.930 . S
C495 C493 1.332 . S
C495 C494 1.407 . S
C495 H497 0.929 . S
H496 C485 0.930 . S
H497 C495 0.929 . S
H498 C513 0.930 1_545 S
H499 C520 0.929 . S
H500 C494 0.930 . S
H501 C493 0.931 . S
H502 C516 0.930 . S
H503 C483 0.930 . S
H504 C489 0.929 . S
H505 C490 0.930 . S
H506 C511 0.930 . S
H507 C486 0.930 . S
H508 C519 0.931 . S
N509 Tb480 2.617 1_565 S
N509 C510 1.379 . S
N509 C513 1.334 . S
C510 N509 1.379 . S
C510 C512 1.416 . S
C510 C518 1.424 . S
C511 H506 0.930 . S
C511 C513 1.390 . S
C511 C514 1.339 . S
C512 C510 1.416 . S
C512 C514 1.416 . S
C512 C545 1.448 . S
C513 H498 0.930 1_565 S
C513 N509 1.334 . S
C513 C511 1.390 . S
C514 C511 1.339 . S
C514 C512 1.416 . S
C514 H521 0.930 . S
N515 Tb480 2.572 1_565 S
N515 C516 1.340 . S
N515 C518 1.361 . S
C516 H502 0.930 . S
C516 N515 1.340 . S
C516 C520 1.407 . S
C517 C518 1.413 . S
C517 C519 1.416 . S
C517 C546 1.427 . S
C518 C510 1.424 . S
C518 N515 1.361 . S
C518 C517 1.413 . S
C519 H508 0.931 . S
C519 C517 1.416 . S
C519 C520 1.332 . S
C520 H499 0.929 . S
C520 C516 1.407 . S
C520 C519 1.332 . S
H521 C514 0.930 . S
H522 C545 0.930 . S
H523 C546 0.929 . S
O524 Tb480 2.465 . S
O524 C544 1.264 . S
O525 Tb480 2.387 1_565 S
O525 C536 1.264 . S
O526 Tb491 2.349 1_565 S
O526 C536 1.243 . S
O527 Tb480 2.428 . S
O527 C544 1.256 . S
O528 Tb480 2.308 . S
O528 C543 1.266 . S
O529 Tb491 2.393 . S
O529 C543 1.248 . S
O530 Tb491 2.465 . S
O530 C555 1.264 . S
O531 Tb491 2.387 . S
O531 C547 1.264 . S
O532 Tb480 2.349 . S
O532 C547 1.243 . S
O533 Tb491 2.428 . S
O533 C555 1.256 . S
O534 Tb491 2.308 . S
O534 C554 1.266 . S
O535 Tb480 2.393 . S
O535 C554 1.248 . S
C536 O525 1.264 . S
C536 O526 1.243 . S
C537 C540 1.399 . S
C537 C542 1.383 . S
C537 C544 1.496 . S
C538 C539 1.399 . S
C538 C542 1.389 . S
C539 C538 1.399 . S
C539 C541 1.380 . S
C539 H556 0.929 . S
C540 C537 1.399 . S
C540 C541 1.392 . S
C540 H557 0.929 . S
C541 C539 1.380 . S
C541 C540 1.392 . S
C541 H558 0.929 . S
C542 C537 1.383 . S
C542 C538 1.389 . S
C542 H559 0.931 . S
C543 O528 1.266 . S
C543 O529 1.248 . S
C544 Tb480 2.802 . S
C544 O524 1.264 . S
C544 O527 1.256 . S
C544 C537 1.496 . S
C545 C512 1.448 . S
C545 H522 0.930 . S
C545 C546 1.328 . S
C546 C517 1.427 . S
C546 H523 0.929 . S
C546 C545 1.328 . S
C547 O531 1.264 . S
C547 O532 1.243 . S
C548 C551 1.399 . S
C548 C552 1.383 . S
C548 C555 1.496 1_565 S
C549 C550 1.399 . S
C549 C552 1.389 . S
C550 C549 1.399 . S
C550 C553 1.380 . S
C550 H560 0.929 . S
C551 C548 1.399 . S
C551 C553 1.392 . S
C551 H561 0.929 . S
C552 C548 1.383 . S
C552 C549 1.389 . S
C552 H562 0.931 . S
C553 C550 1.380 . S
C553 C551 1.392 . S
C553 H563 0.929 . S
C554 O534 1.266 . S
C554 O535 1.248 . S
C555 Tb491 2.802 . S
C555 O530 1.264 . S
C555 O533 1.256 . S
C555 C548 1.496 1_545 S
H556 C539 0.929 . S
H557 C540 0.929 . S
H558 C541 0.929 . S
H559 C542 0.931 . S
H560 C550 0.929 . S
H561 C551 0.929 . S
H562 C552 0.931 . S
H563 C553 0.929 . S
Tb564 N593 2.617 . S
Tb564 N599 2.572 . S
Tb564 O608 2.465 . S
Tb564 O609 2.387 . S
Tb564 O611 2.428 . S
Tb564 O612 2.308 . S
Tb564 O616 2.349 . S
Tb564 O619 2.393 . S
Tb564 C628 2.802 . S
C565 N566 1.379 . S
C565 C568 1.416 . S
C565 C572 1.424 . S
N566 C565 1.379 . S
N566 C569 1.334 . S
N566 Tb575 2.617 . S
C567 C569 1.390 . S
C567 C570 1.339 . S
C567 H587 0.930 . S
C568 C565 1.416 . S
C568 C570 1.416 . S
C568 C574 1.448 . S
C569 N566 1.334 . S
C569 C567 1.390 . S
C569 H580 0.930 . S
C570 C567 1.339 . S
C570 C568 1.416 . S
C570 H591 0.930 . S
C571 C572 1.413 . S
C571 C573 1.427 . S
C571 C577 1.416 . S
C572 C565 1.424 . S
C572 C571 1.413 . S
C572 N576 1.361 . S
C573 C571 1.427 . S
C573 C574 1.328 . S
C573 H588 0.929 . S
C574 C568 1.448 . S
C574 C573 1.328 . S
C574 H589 0.930 . S
Tb575 N566 2.617 . S
Tb575 N576 2.572 . S
Tb575 O610 2.349 . S
Tb575 O613 2.393 . S
Tb575 O614 2.465 . S
Tb575 O615 2.387 . S
Tb575 O617 2.428 . S
Tb575 O618 2.308 . S
Tb575 C639 2.802 . S
N576 C572 1.361 . S
N576 Tb575 2.572 . S
N576 C578 1.340 . S
C577 C571 1.416 . S
C577 C579 1.332 . S
C577 H585 0.931 . S
C578 N576 1.340 . S
C578 C579 1.407 . S
C578 H584 0.930 . S
C579 C577 1.332 . S
C579 C578 1.407 . S
C579 H581 0.929 . S
H580 C569 0.930 . S
H581 C579 0.929 . S
H582 C597 0.930 . S
H583 C604 0.929 . S
H584 C578 0.930 . S
H585 C577 0.931 . S
H586 C600 0.930 . S
H587 C567 0.930 . S
H588 C573 0.929 . S
H589 C574 0.930 . S
H590 C595 0.930 . S
H591 C570 0.930 . S
H592 C603 0.931 . S
N593 Tb564 2.617 . S
N593 C594 1.379 . S
N593 C597 1.334 . S
C594 N593 1.379 . S
C594 C596 1.416 . S
C594 C602 1.424 . S
C595 H590 0.930 . S
C595 C597 1.390 . S
C595 C598 1.339 . S
C596 C594 1.416 . S
C596 C598 1.416 . S
C596 C629 1.448 . S
C597 H582 0.930 . S
C597 N593 1.334 . S
C597 C595 1.390 . S
C598 C595 1.339 . S
C598 C596 1.416 . S
C598 H605 0.930 . S
N599 Tb564 2.572 . S
N599 C600 1.340 . S
N599 C602 1.361 . S
C600 H586 0.930 . S
C600 N599 1.340 . S
C600 C604 1.407 . S
C601 C602 1.413 . S
C601 C603 1.416 . S
C601 C630 1.427 . S
C602 C594 1.424 . S
C602 N599 1.361 . S
C602 C601 1.413 . S
C603 H592 0.931 . S
C603 C601 1.416 . S
C603 C604 1.332 . S
C604 H583 0.929 . S
C604 C600 1.407 . S
C604 C603 1.332 . S
H605 C598 0.930 . S
H606 C629 0.930 . S
H607 C630 0.929 . S
O608 Tb564 2.465 . S
O608 C628 1.264 . S
O609 Tb564 2.387 . S
O609 C620 1.264 . S
O610 Tb575 2.349 . S
O610 C620 1.243 . S
O611 Tb564 2.428 . S
O611 C628 1.256 . S
O612 Tb564 2.308 . S
O612 C627 1.266 . S
O613 Tb575 2.393 . S
O613 C627 1.248 . S
O614 Tb575 2.465 . S
O614 C639 1.264 . S
O615 Tb575 2.387 . S
O615 C631 1.264 . S
O616 Tb564 2.349 . S
O616 C631 1.243 . S
O617 Tb575 2.428 . S
O617 C639 1.256 . S
O618 Tb575 2.308 . S
O618 C638 1.266 . S
O619 Tb564 2.393 . S
O619 C638 1.248 . S
C620 O609 1.264 . S
C620 O610 1.243 . S
C621 C624 1.399 . S
C621 C626 1.383 . S
C621 C628 1.496 . S
C622 C623 1.399 . S
C622 C626 1.389 . S
C623 C622 1.399 . S
C623 C625 1.380 . S
C623 H640 0.929 . S
C624 C621 1.399 . S
C624 C625 1.392 . S
C624 H641 0.929 . S
C625 C623 1.380 . S
C625 C624 1.392 . S
C625 H642 0.929 . S
C626 C621 1.383 . S
C626 C622 1.389 . S
C626 H643 0.931 . S
C627 O612 1.266 . S
C627 O613 1.248 . S
C628 Tb564 2.802 . S
C628 O608 1.264 . S
C628 O611 1.256 . S
C628 C621 1.496 . S
C629 C596 1.448 . S
C629 H606 0.930 . S
C629 C630 1.328 . S
C630 C601 1.427 . S
C630 H607 0.929 . S
C630 C629 1.328 . S
C631 O615 1.264 . S
C631 O616 1.243 . S
C632 C635 1.399 . S
C632 C636 1.383 . S
C632 C639 1.496 . S
C633 C634 1.399 . S
C633 C636 1.389 . S
C634 C633 1.399 . S
C634 C637 1.380 . S
C634 H644 0.929 . S
C635 C632 1.399 . S
C635 C637 1.392 . S
C635 H645 0.929 . S
C636 C632 1.383 . S
C636 C633 1.389 . S
C636 H646 0.931 . S
C637 C634 1.380 . S
C637 C635 1.392 . S
C637 H647 0.929 . S
C638 O618 1.266 . S
C638 O619 1.248 . S
C639 Tb575 2.802 . S
C639 O614 1.264 . S
C639 O617 1.256 . S
C639 C632 1.496 . S
H640 C623 0.929 . S
H641 C624 0.929 . S
H642 C625 0.929 . S
H643 C626 0.931 . S
H644 C634 0.929 . S
H645 C635 0.929 . S
H646 C636 0.931 . S
H647 C637 0.929 . S
Tb648 N677 2.617 . S
Tb648 N683 2.572 . S
Tb648 O692 2.465 . S
Tb648 O693 2.387 1_565 S
Tb648 O695 2.428 . S
Tb648 O696 2.308 . S
Tb648 O700 2.349 1_565 S
Tb648 O703 2.393 1_565 S
Tb648 C712 2.802 . S
C649 N650 1.379 . S
C649 C652 1.416 . S
C649 C656 1.424 . S
N650 C649 1.379 . S
N650 C653 1.334 1_455 S
N650 Tb659 2.617 . S
C651 C653 1.390 . S
C651 C654 1.339 . S
C651 H671 0.930 . S
C652 C649 1.416 . S
C652 C654 1.416 1_455 S
C652 C658 1.448 . S
C653 N650 1.334 1_655 S
C653 C651 1.390 . S
C653 H664 0.930 . S
C654 C651 1.339 . S
C654 C652 1.416 1_655 S
C654 H675 0.930 . S
C655 C656 1.413 . S
C655 C657 1.427 . S
C655 C661 1.416 . S
C656 C649 1.424 . S
C656 C655 1.413 . S
C656 N660 1.361 . S
C657 C655 1.427 . S
C657 C658 1.328 . S
C657 H672 0.929 . S
C658 C652 1.448 . S
C658 C657 1.328 . S
C658 H673 0.930 . S
Tb659 N650 2.617 . S
Tb659 N660 2.572 . S
Tb659 O694 2.349 . S
Tb659 O697 2.393 1_455 S
Tb659 O698 2.465 . S
Tb659 O699 2.387 . S
Tb659 O701 2.428 . S
Tb659 O702 2.308 . S
Tb659 C723 2.802 . S
N660 C656 1.361 . S
N660 Tb659 2.572 . S
N660 C662 1.340 . S
C661 C655 1.416 . S
C661 C663 1.332 . S
C661 H669 0.931 . S
C662 N660 1.340 . S
C662 C663 1.407 . S
C662 H668 0.930 . S
C663 C661 1.332 . S
C663 C662 1.407 . S
C663 H665 0.929 . S
H664 C653 0.930 . S
H665 C663 0.929 . S
H666 C681 0.958 . S
H667 C688 0.953 . S
H668 C662 0.930 . S
H669 C661 0.931 . S
H670 C684 0.930 . S
H671 C651 0.930 . S
H672 C657 0.929 . S
H673 C658 0.930 . S
H674 C679 0.930 . S
H675 C654 0.930 . S
H676 C687 0.931 . S
N677 Tb648 2.617 . S
N677 C678 1.379 . S
N677 C681 1.334 . S
C678 N677 1.379 . S
C678 C680 1.416 . S
C678 C686 1.424 . S
C679 H674 0.930 . S
C679 C681 1.390 . S
C679 C682 1.339 . S
C680 C678 1.416 . S
C680 C682 1.416 . S
C680 C713 1.448 . S
C681 H666 0.958 . S
C681 N677 1.334 . S
C681 C679 1.390 . S
C682 C679 1.339 . S
C682 C680 1.416 . S
C682 H689 0.930 . S
N683 Tb648 2.572 . S
N683 C684 1.340 . S
N683 C686 1.361 . S
C684 H670 0.930 . S
C684 N683 1.340 . S
C684 C688 1.399 1_455 S
C685 C686 1.413 . S
C685 C687 1.416 . S
C685 C714 1.427 . S
C686 C678 1.424 . S
C686 N683 1.361 . S
C686 C685 1.413 . S
C687 H676 0.931 . S
C687 C685 1.416 . S
C687 C688 1.317 1_455 S
C688 H667 0.953 . S
C688 C684 1.399 1_655 S
C688 C687 1.317 1_655 S
H689 C682 0.930 . S
H690 C713 0.930 . S
H691 C714 0.929 . S
O692 Tb648 2.465 . S
O692 C712 1.264 . S
O693 Tb648 2.387 1_545 S
O693 C704 1.264 . S
O694 Tb659 2.349 . S
O694 C704 1.243 . S
O695 Tb648 2.428 . S
O695 C712 1.256 . S
O696 Tb648 2.308 . S
O696 C711 1.259 1_465 S
O697 Tb659 2.393 1_655 S
O697 C711 1.250 . S
O698 Tb659 2.465 . S
O698 C723 1.264 . S
O699 Tb659 2.387 . S
O699 C715 1.264 . S
O700 Tb648 2.349 1_545 S
O700 C715 1.243 . S
O701 Tb659 2.428 . S
O701 C723 1.256 . S
O702 Tb659 2.308 . S
O702 C722 1.266 . S
O703 Tb648 2.393 1_545 S
O703 C722 1.248 . S
C704 O693 1.264 . S
C704 O694 1.243 . S
C705 C708 1.399 . S
C705 C710 1.383 . S
C705 C712 1.496 . S
C706 C707 1.399 . S
C706 C710 1.389 . S
C707 C706 1.399 . S
C707 C709 1.380 . S
C707 H724 0.929 . S
C708 C705 1.399 . S
C708 C709 1.392 . S
C708 H725 0.929 . S
C709 C707 1.380 . S
C709 C708 1.392 . S
C709 H726 0.929 . S
C710 C705 1.383 . S
C710 C706 1.389 . S
C710 H727 0.931 . S
C711 O696 1.259 1_645 S
C711 O697 1.250 . S
C712 Tb648 2.802 . S
C712 O692 1.264 . S
C712 O695 1.256 . S
C712 C705 1.496 . S
C713 C680 1.448 . S
C713 H690 0.930 . S
C713 C714 1.328 . S
C714 C685 1.427 . S
C714 H691 0.929 . S
C714 C713 1.328 . S
C715 O699 1.264 . S
C715 O700 1.243 . S
C716 C719 1.399 1_455 S
C716 C720 1.383 . S
C716 C723 1.496 . S
C717 C718 1.399 . S
C717 C720 1.389 . S
C718 C717 1.399 . S
C718 C721 1.380 1_455 S
C718 H728 0.929 . S
C719 C716 1.399 1_655 S
C719 C721 1.392 . S
C719 H729 0.929 . S
C720 C716 1.383 . S
C720 C717 1.389 . S
C720 H730 0.931 . S
C721 C718 1.380 1_655 S
C721 C719 1.392 . S
C721 H731 0.929 . S
C722 O702 1.266 . S
C722 O703 1.248 . S
C723 Tb659 2.802 . S
C723 O698 1.264 . S
C723 O701 1.256 . S
C723 C716 1.496 . S
H724 C707 0.929 . S
H725 C708 0.929 . S
H726 C709 0.929 . S
H727 C710 0.931 . S
H728 C718 0.929 . S
H729 C719 0.929 . S
H730 C720 0.931 . S
H731 C721 0.929 . S
Tb732 N761 2.617 . S
Tb732 N767 2.572 . S
Tb732 O776 2.465 . S
Tb732 O777 2.387 . S
Tb732 O779 2.428 . S
Tb732 O780 2.308 . S
Tb732 O784 2.349 . S
Tb732 O787 2.393 . S
Tb732 C796 2.802 . S
C733 N734 1.379 . S
C733 C736 1.416 . S
C733 C740 1.424 . S
N734 C733 1.379 . S
N734 C737 1.334 . S
N734 Tb743 2.617 . S
C735 C737 1.390 . S
C735 C738 1.339 . S
C735 H755 0.930 . S
C736 C733 1.416 . S
C736 C738 1.416 . S
C736 C742 1.448 . S
C737 N734 1.334 . S
C737 C735 1.390 . S
C737 H748 0.930 . S
C738 C735 1.339 . S
C738 C736 1.416 . S
C738 H759 0.930 . S
C739 C740 1.413 . S
C739 C741 1.427 . S
C739 C745 1.416 . S
C740 C733 1.424 . S
C740 C739 1.413 . S
C740 N744 1.361 . S
C741 C739 1.427 . S
C741 C742 1.328 . S
C741 H756 0.929 . S
C742 C736 1.448 . S
C742 C741 1.328 . S
C742 H757 0.930 . S
Tb743 N734 2.617 . S
Tb743 N744 2.572 . S
Tb743 O778 2.349 . S
Tb743 O781 2.393 . S
Tb743 O782 2.465 . S
Tb743 O783 2.387 . S
Tb743 O785 2.428 . S
Tb743 O786 2.308 . S
Tb743 C807 2.802 . S
N744 C740 1.361 . S
N744 Tb743 2.572 . S
N744 C746 1.340 . S
C745 C739 1.416 . S
C745 C747 1.332 . S
C745 H753 0.931 . S
C746 N744 1.340 . S
C746 C747 1.407 . S
C746 H752 0.930 . S
C747 C745 1.332 . S
C747 C746 1.407 . S
C747 H749 0.929 . S
H748 C737 0.930 . S
H749 C747 0.929 . S
H750 C765 0.930 . S
H751 C772 0.929 . S
H752 C746 0.930 . S
H753 C745 0.931 . S
H754 C768 0.930 . S
H755 C735 0.930 . S
H756 C741 0.929 . S
H757 C742 0.930 . S
H758 C763 0.930 . S
H759 C738 0.930 . S
H760 C771 0.931 . S
N761 Tb732 2.617 . S
N761 C762 1.379 . S
N761 C765 1.334 . S
C762 N761 1.379 . S
C762 C764 1.416 . S
C762 C770 1.424 . S
C763 H758 0.930 . S
C763 C765 1.390 . S
C763 C766 1.339 . S
C764 C762 1.416 . S
C764 C766 1.416 . S
C764 C797 1.448 . S
C765 H750 0.930 . S
C765 N761 1.334 . S
C765 C763 1.390 . S
C766 C763 1.339 . S
C766 C764 1.416 . S
C766 H773 0.930 . S
N767 Tb732 2.572 . S
N767 C768 1.340 . S
N767 C770 1.361 . S
C768 H754 0.930 . S
C768 N767 1.340 . S
C768 C772 1.407 . S
C769 C770 1.413 . S
C769 C771 1.416 . S
C769 C798 1.427 . S
C770 C762 1.424 . S
C770 N767 1.361 . S
C770 C769 1.413 . S
C771 H760 0.931 . S
C771 C769 1.416 . S
C771 C772 1.332 . S
C772 H751 0.929 . S
C772 C768 1.407 . S
C772 C771 1.332 . S
H773 C766 0.930 . S
H774 C797 0.930 . S
H775 C798 0.929 . S
O776 Tb732 2.465 . S
O776 C796 1.264 . S
O777 Tb732 2.387 . S
O777 C788 1.264 . S
O778 Tb743 2.349 . S
O778 C788 1.243 . S
O779 Tb732 2.428 . S
O779 C796 1.256 . S
O780 Tb732 2.308 . S
O780 C795 1.266 . S
O781 Tb743 2.393 . S
O781 C795 1.248 . S
O782 Tb743 2.465 . S
O782 C807 1.264 . S
O783 Tb743 2.387 . S
O783 C799 1.264 . S
O784 Tb732 2.349 . S
O784 C799 1.243 . S
O785 Tb743 2.428 . S
O785 C807 1.256 . S
O786 Tb743 2.308 . S
O786 C806 1.266 . S
O787 Tb732 2.393 . S
O787 C806 1.248 . S
C788 O777 1.264 . S
C788 O778 1.243 . S
C789 C792 1.399 . S
C789 C794 1.383 . S
C789 C796 1.496 . S
C790 C791 1.399 . S
C790 C794 1.389 . S
C791 C790 1.399 . S
C791 C793 1.380 . S
C791 H808 0.929 . S
C792 C789 1.399 . S
C792 C793 1.392 . S
C792 H809 0.929 . S
C793 C791 1.380 . S
C793 C792 1.392 . S
C793 H810 0.929 . S
C794 C789 1.383 . S
C794 C790 1.389 . S
C794 H811 0.931 . S
C795 O780 1.266 . S
C795 O781 1.248 . S
C796 Tb732 2.802 . S
C796 O776 1.264 . S
C796 O779 1.256 . S
C796 C789 1.496 . S
C797 C764 1.448 . S
C797 H774 0.930 . S
C797 C798 1.328 . S
C798 C769 1.427 . S
C798 H775 0.929 . S
C798 C797 1.328 . S
C799 O783 1.264 . S
C799 O784 1.243 . S
C800 C803 1.399 . S
C800 C804 1.383 . S
C800 C807 1.496 . S
C801 C802 1.399 . S
C801 C804 1.389 . S
C802 C801 1.399 . S
C802 C805 1.380 . S
C802 H812 0.929 . S
C803 C800 1.399 . S
C803 C805 1.392 . S
C803 H813 0.929 . S
C804 C800 1.383 . S
C804 C801 1.389 . S
C804 H814 0.931 . S
C805 C802 1.380 . S
C805 C803 1.392 . S
C805 H815 0.929 . S
C806 O786 1.266 . S
C806 O787 1.248 . S
C807 Tb743 2.802 . S
C807 O782 1.264 . S
C807 O785 1.256 . S
C807 C800 1.496 . S
H808 C791 0.929 . S
H809 C792 0.929 . S
H810 C793 0.929 . S
H811 C794 0.931 . S
H812 C802 0.929 . S
H813 C803 0.929 . S
H814 C804 0.931 . S
H815 C805 0.929 . S
Tb816 N845 2.617 . S
Tb816 N851 2.572 . S
Tb816 O860 2.465 . S
Tb816 O861 2.387 . S
Tb816 O863 2.428 . S
Tb816 O864 2.308 . S
Tb816 O868 2.348 1_556 S
Tb816 O871 2.393 1_556 S
Tb816 C880 2.802 . S
C817 N818 1.379 . S
C817 C820 1.416 . S
C817 C824 1.424 . S
N818 C817 1.379 . S
N818 C821 1.334 1_545 S
N818 Tb827 2.617 . S
C819 C821 1.390 . S
C819 C822 1.339 . S
C819 H839 0.930 . S
C820 C817 1.416 . S
C820 C822 1.416 1_545 S
C820 C826 1.448 . S
C821 N818 1.334 1_565 S
C821 C819 1.390 . S
C821 H832 0.930 . S
C822 C819 1.339 . S
C822 C820 1.416 1_565 S
C822 H843 0.930 . S
C823 C824 1.413 . S
C823 C825 1.427 . S
C823 C829 1.416 . S
C824 C817 1.424 . S
C824 C823 1.413 . S
C824 N828 1.361 . S
C825 C823 1.427 . S
C825 C826 1.328 . S
C825 H840 0.929 . S
C826 C820 1.448 . S
C826 C825 1.328 . S
C826 H841 0.930 . S
Tb827 N818 2.617 . S
Tb827 N828 2.572 . S
Tb827 O862 2.349 . S
Tb827 O865 2.393 . S
Tb827 O866 2.465 . S
Tb827 O867 2.387 . S
Tb827 O869 2.428 . S
Tb827 O870 2.308 . S
Tb827 C891 2.802 . S
N828 C824 1.361 . S
N828 Tb827 2.572 . S
N828 C830 1.340 . S
C829 C823 1.416 . S
C829 C831 1.332 . S
C829 H837 0.931 . S
C830 N828 1.340 . S
C830 C831 1.407 . S
C830 H836 0.930 . S
C831 C829 1.332 . S
C831 C830 1.407 . S
C831 H833 0.929 . S
H832 C821 0.930 . S
H833 C831 0.929 . S
H834 C849 0.930 . S
H835 C856 0.929 1_565 S
H836 C830 0.930 . S
H837 C829 0.931 . S
H838 C852 0.930 . S
H839 C819 0.930 . S
H840 C825 0.929 . S
H841 C826 0.930 . S
H842 C847 0.930 . S
H843 C822 0.930 . S
H844 C855 0.931 . S
N845 Tb816 2.617 . S
N845 C846 1.379 . S
N845 C849 1.334 . S
C846 N845 1.379 . S
C846 C848 1.416 . S
C846 C854 1.424 . S
C847 H842 0.930 . S
C847 C849 1.390 . S
C847 C850 1.339 . S
C848 C846 1.416 . S
C848 C850 1.416 . S
C848 C881 1.448 . S
C849 H834 0.930 . S
C849 N845 1.334 . S
C849 C847 1.390 . S
C850 C847 1.339 . S
C850 C848 1.416 . S
C850 H857 0.930 . S
N851 Tb816 2.572 . S
N851 C852 1.340 . S
N851 C854 1.361 . S
C852 H838 0.930 . S
C852 N851 1.340 . S
C852 C856 1.407 . S
C853 C854 1.413 . S
C853 C855 1.416 . S
C853 C882 1.427 . S
C854 C846 1.424 . S
C854 N851 1.361 . S
C854 C853 1.413 . S
C855 H844 0.931 . S
C855 C853 1.416 . S
C855 C856 1.332 . S
C856 H835 0.929 1_545 S
C856 C852 1.407 . S
C856 C855 1.332 . S
H857 C850 0.930 . S
H858 C881 0.930 . S
H859 C882 0.929 . S
O860 Tb816 2.465 . S
O860 C880 1.264 . S
O861 Tb816 2.387 . S
O861 C872 1.264 1_556 S
O862 Tb827 2.349 . S
O862 C872 1.243 . S
O863 Tb816 2.428 . S
O863 C880 1.256 . S
O864 Tb816 2.308 . S
O864 C879 1.266 . S
O865 Tb827 2.393 . S
O865 C879 1.248 1_554 S
O866 Tb827 2.465 . S
O866 C891 1.264 . S
O867 Tb827 2.387 . S
O867 C883 1.264 . S
O868 Tb816 2.348 1_554 S
O868 C883 1.247 . S
O869 Tb827 2.428 . S
O869 C891 1.256 . S
O870 Tb827 2.308 . S
O870 C890 1.266 . S
O871 Tb816 2.393 1_554 S
O871 C890 1.248 . S
C872 O861 1.264 1_554 S
C872 O862 1.243 . S
C873 C876 1.399 . S
C873 C878 1.383 . S
C873 C880 1.496 . S
C874 C875 1.399 . S
C874 C878 1.389 . S
C875 C874 1.399 . S
C875 C877 1.380 . S
C875 H892 0.929 . S
C876 C873 1.399 . S
C876 C877 1.392 . S
C876 H893 0.929 . S
C877 C875 1.380 . S
C877 C876 1.392 . S
C877 H894 0.929 . S
C878 C873 1.383 . S
C878 C874 1.389 . S
C878 H895 0.931 . S
C879 O864 1.266 . S
C879 O865 1.248 1_556 S
C880 Tb816 2.802 . S
C880 O860 1.264 . S
C880 O863 1.256 . S
C880 C873 1.496 . S
C881 C848 1.448 . S
C881 H858 0.930 . S
C881 C882 1.328 . S
C882 C853 1.427 . S
C882 H859 0.929 . S
C882 C881 1.328 . S
C883 O867 1.264 . S
C883 O868 1.247 . S
C884 C887 1.399 1_545 S
C884 C888 1.383 . S
C884 C891 1.496 . S
C885 C886 1.341 1_545 S
C885 C888 1.389 . S
C886 C885 1.341 1_565 S
C886 C889 1.422 . S
C886 H896 0.947 . S
C887 C884 1.399 1_565 S
C887 C889 1.392 . S
C887 H897 0.929 . S
C888 C884 1.383 . S
C888 C885 1.389 . S
C888 H898 0.931 . S
C889 C886 1.422 . S
C889 C887 1.392 . S
C889 H899 0.929 . S
C890 O870 1.266 . S
C890 O871 1.248 . S
C891 Tb827 2.802 . S
C891 O866 1.264 . S
C891 O869 1.256 . S
C891 C884 1.496 . S
H892 C875 0.929 . S
H893 C876 0.929 . S
H894 C877 0.929 . S
H895 C878 0.931 . S
H896 C886 0.947 . S
H897 C887 0.929 . S
H898 C888 0.931 . S
H899 C889 0.929 . S
Tb900 N929 2.617 . S
Tb900 N935 2.572 . S
Tb900 O944 2.465 . S
Tb900 O945 2.387 . S
Tb900 O947 2.428 . S
Tb900 O948 2.308 . S
Tb900 O952 2.349 . S
Tb900 O955 2.393 . S
Tb900 C964 2.802 . S
C901 N902 1.379 . S
C901 C904 1.416 . S
C901 C908 1.424 . S
N902 C901 1.379 . S
N902 C905 1.334 . S
N902 Tb911 2.617 . S
C903 C905 1.390 . S
C903 C906 1.339 . S
C903 H923 0.930 . S
C904 C901 1.416 . S
C904 C906 1.416 . S
C904 C910 1.448 . S
C905 N902 1.334 . S
C905 C903 1.390 . S
C905 H916 0.930 . S
C906 C903 1.339 . S
C906 C904 1.416 . S
C906 H927 0.930 . S
C907 C908 1.413 . S
C907 C909 1.427 . S
C907 C913 1.416 . S
C908 C901 1.424 . S
C908 C907 1.413 . S
C908 N912 1.361 . S
C909 C907 1.427 . S
C909 C910 1.328 . S
C909 H924 0.929 . S
C910 C904 1.448 . S
C910 C909 1.328 . S
C910 H925 0.930 . S
Tb911 N902 2.617 . S
Tb911 N912 2.572 . S
Tb911 O946 2.349 . S
Tb911 O949 2.393 . S
Tb911 O950 2.465 . S
Tb911 O951 2.387 . S
Tb911 O953 2.428 . S
Tb911 O954 2.308 . S
Tb911 C975 2.802 . S
N912 C908 1.361 . S
N912 Tb911 2.572 . S
N912 C914 1.340 . S
C913 C907 1.416 . S
C913 C915 1.332 . S
C913 H921 0.931 . S
C914 N912 1.340 . S
C914 C915 1.407 . S
C914 H920 0.930 . S
C915 C913 1.332 . S
C915 C914 1.407 . S
C915 H917 0.929 . S
H916 C905 0.930 . S
H917 C915 0.929 . S
H918 C933 0.930 . S
H919 C940 0.929 . S
H920 C914 0.930 . S
H921 C913 0.931 . S
H922 C936 0.930 . S
H923 C903 0.930 . S
H924 C909 0.929 . S
H925 C910 0.930 . S
H926 C931 0.930 . S
H927 C906 0.930 . S
H928 C939 0.931 . S
N929 Tb900 2.617 . S
N929 C930 1.379 . S
N929 C933 1.334 . S
C930 N929 1.379 . S
C930 C932 1.416 . S
C930 C938 1.424 . S
C931 H926 0.930 . S
C931 C933 1.390 . S
C931 C934 1.339 . S
C932 C930 1.416 . S
C932 C934 1.416 . S
C932 C965 1.448 . S
C933 H918 0.930 . S
C933 N929 1.334 . S
C933 C931 1.390 . S
C934 C931 1.339 . S
C934 C932 1.416 . S
C934 H941 0.930 . S
N935 Tb900 2.572 . S
N935 C936 1.340 . S
N935 C938 1.361 . S
C936 H922 0.930 . S
C936 N935 1.340 . S
C936 C940 1.407 . S
C937 C938 1.413 . S
C937 C939 1.416 . S
C937 C966 1.427 . S
C938 C930 1.424 . S
C938 N935 1.361 . S
C938 C937 1.413 . S
C939 H928 0.931 . S
C939 C937 1.416 . S
C939 C940 1.332 . S
C940 H919 0.929 . S
C940 C936 1.407 . S
C940 C939 1.332 . S
H941 C934 0.930 . S
H942 C965 0.930 . S
H943 C966 0.929 . S
O944 Tb900 2.465 . S
O944 C964 1.264 . S
O945 Tb900 2.387 . S
O945 C956 1.264 . S
O946 Tb911 2.349 . S
O946 C956 1.243 . S
O947 Tb900 2.428 . S
O947 C964 1.256 . S
O948 Tb900 2.308 . S
O948 C963 1.266 . S
O949 Tb911 2.393 . S
O949 C963 1.248 . S
O950 Tb911 2.465 . S
O950 C975 1.264 . S
O951 Tb911 2.387 . S
O951 C967 1.264 . S
O952 Tb900 2.349 . S
O952 C967 1.243 . S
O953 Tb911 2.428 . S
O953 C975 1.256 . S
O954 Tb911 2.308 . S
O954 C974 1.266 . S
O955 Tb900 2.393 . S
O955 C974 1.248 . S
C956 O945 1.264 . S
C956 O946 1.243 . S
C957 C960 1.399 . S
C957 C962 1.383 . S
C957 C964 1.496 . S
C958 C959 1.399 . S
C958 C962 1.389 . S
C959 C958 1.399 . S
C959 C961 1.380 . S
C959 H976 0.929 . S
C960 C957 1.399 . S
C960 C961 1.392 . S
C960 H977 0.929 . S
C961 C959 1.380 . S
C961 C960 1.392 . S
C961 H978 0.929 . S
C962 C957 1.383 . S
C962 C958 1.389 . S
C962 H979 0.931 . S
C963 O948 1.266 . S
C963 O949 1.248 . S
C964 Tb900 2.802 . S
C964 O944 1.264 . S
C964 O947 1.256 . S
C964 C957 1.496 . S
C965 C932 1.448 . S
C965 H942 0.930 . S
C965 C966 1.328 . S
C966 C937 1.427 . S
C966 H943 0.929 . S
C966 C965 1.328 . S
C967 O951 1.264 . S
C967 O952 1.243 . S
C968 C971 1.399 . S
C968 C972 1.383 . S
C968 C975 1.496 . S
C969 C970 1.399 . S
C969 C972 1.389 . S
C970 C969 1.399 . S
C970 C973 1.380 . S
C970 H980 0.929 . S
C971 C968 1.399 . S
C971 C973 1.392 . S
C971 H981 0.929 . S
C972 C968 1.383 . S
C972 C969 1.389 . S
C972 H982 0.931 . S
C973 C970 1.380 . S
C973 C971 1.392 . S
C973 H983 0.929 . S
C974 O954 1.266 . S
C974 O955 1.248 . S
C975 Tb911 2.802 . S
C975 O950 1.264 . S
C975 O953 1.256 . S
C975 C968 1.496 . S
H976 C959 0.929 . S
H977 C960 0.929 . S
H978 C961 0.929 . S
H979 C962 0.931 . S
H980 C970 0.929 . S
H981 C971 0.929 . S
H982 C972 0.931 . S
H983 C973 0.929 . S
Tb984 N1013 2.617 1_554 S
Tb984 N1019 2.572 1_554 S
Tb984 O1028 2.465 . S
Tb984 O1029 2.387 1_554 S
Tb984 O1031 2.428 . S
Tb984 O1032 2.308 . S
Tb984 O1036 2.349 . S
Tb984 O1039 2.393 . S
Tb984 C1048 2.802 . S
C985 N986 1.379 . S
C985 C988 1.416 . S
C985 C992 1.424 . S
N986 C985 1.379 . S
N986 C989 1.334 . S
N986 Tb995 2.617 . S
C987 C989 1.390 . S
C987 C990 1.339 . S
C987 H1007 0.930 . S
C988 C985 1.416 . S
C988 C990 1.416 . S
C988 C994 1.448 . S
C989 N986 1.334 . S
C989 C987 1.390 . S
C989 H1000 0.930 . S
C990 C987 1.339 . S
C990 C988 1.416 . S
C990 H1011 0.930 . S
C991 C992 1.413 . S
C991 C993 1.427 . S
C991 C997 1.416 . S
C992 C985 1.424 . S
C992 C991 1.413 . S
C992 N996 1.361 . S
C993 C991 1.427 . S
C993 C994 1.328 . S
C993 H1008 0.929 . S
C994 C988 1.448 . S
C994 C993 1.328 . S
C994 H1009 0.930 . S
Tb995 N986 2.617 . S
Tb995 N996 2.572 . S
Tb995 O1030 2.349 1_554 S
Tb995 O1033 2.393 . S
Tb995 O1034 2.465 . S
Tb995 O1035 2.387 . S
Tb995 O1037 2.428 . S
Tb995 O1038 2.308 . S
Tb995 C1059 2.802 1_554 S
N996 C992 1.361 . S
N996 Tb995 2.572 . S
N996 C998 1.340 . S
C997 C991 1.416 . S
C997 C999 1.332 . S
C997 H1005 0.931 . S
C998 N996 1.340 . S
C998 C999 1.407 . S
C998 H1004 0.930 . S
C999 C997 1.332 . S
C999 C998 1.407 . S
C999 H1001 0.929 . S
H1000 C989 0.930 . S
H1001 C999 0.929 . S
H1002 C1017 0.930 . S
H1003 C1024 0.929 . S
H1004 C998 0.930 . S
H1005 C997 0.931 . S
H1006 C1020 0.930 . S
H1007 C987 0.930 . S
H1008 C993 0.929 . S
H1009 C994 0.930 . S
H1010 C1015 0.930 . S
H1011 C990 0.930 . S
H1012 C1023 0.931 . S
N1013 Tb984 2.617 1_556 S
N1013 C1014 1.379 . S
N1013 C1017 1.334 . S
C1014 N1013 1.379 . S
C1014 C1016 1.416 . S
C1014 C1022 1.424 . S
C1015 H1010 0.930 . S
C1015 C1017 1.390 . S
C1015 C1018 1.339 . S
C1016 C1014 1.416 . S
C1016 C1018 1.416 . S
C1016 C1049 1.448 . S
C1017 H1002 0.930 . S
C1017 N1013 1.334 . S
C1017 C1015 1.390 . S
C1018 C1015 1.339 . S
C1018 C1016 1.416 . S
C1018 H1025 0.930 . S
N1019 Tb984 2.572 1_556 S
N1019 C1020 1.340 . S
N1019 C1022 1.361 . S
C1020 H1006 0.930 . S
C1020 N1019 1.340 . S
C1020 C1024 1.407 . S
C1021 C1022 1.413 . S
C1021 C1023 1.416 . S
C1021 C1050 1.427 . S
C1022 C1014 1.424 . S
C1022 N1019 1.361 . S
C1022 C1021 1.413 . S
C1023 H1012 0.931 . S
C1023 C1021 1.416 . S
C1023 C1024 1.332 . S
C1024 H1003 0.929 . S
C1024 C1020 1.407 . S
C1024 C1023 1.332 . S
H1025 C1018 0.930 . S
H1026 C1049 0.930 . S
H1027 C1050 0.929 . S
O1028 Tb984 2.465 . S
O1028 C1048 1.264 . S
O1029 Tb984 2.387 1_556 S
O1029 C1040 1.264 . S
O1030 Tb995 2.349 1_556 S
O1030 C1040 1.243 . S
O1031 Tb984 2.428 . S
O1031 C1048 1.256 . S
O1032 Tb984 2.308 . S
O1032 C1047 1.266 . S
O1033 Tb995 2.393 . S
O1033 C1047 1.248 . S
O1034 Tb995 2.465 . S
O1034 C1059 1.264 1_554 S
O1035 Tb995 2.387 . S
O1035 C1051 1.264 . S
O1036 Tb984 2.349 . S
O1036 C1051 1.243 . S
O1037 Tb995 2.428 . S
O1037 C1059 1.256 1_554 S
O1038 Tb995 2.308 . S
O1038 C1058 1.266 . S
O1039 Tb984 2.393 . S
O1039 C1058 1.248 . S
C1040 O1029 1.264 . S
C1040 O1030 1.243 . S
C1041 C1044 1.399 . S
C1041 C1046 1.383 . S
C1041 C1048 1.496 . S
C1042 C1043 1.399 . S
C1042 C1046 1.389 . S
C1043 C1042 1.399 . S
C1043 C1045 1.380 . S
C1043 H1060 0.929 . S
C1044 C1041 1.399 . S
C1044 C1045 1.392 . S
C1044 H1061 0.929 . S
C1045 C1043 1.380 . S
C1045 C1044 1.392 . S
C1045 H1062 0.929 . S
C1046 C1041 1.383 . S
C1046 C1042 1.389 . S
C1046 H1063 0.931 . S
C1047 O1032 1.266 . S
C1047 O1033 1.248 . S
C1048 Tb984 2.802 . S
C1048 O1028 1.264 . S
C1048 O1031 1.256 . S
C1048 C1041 1.496 . S
C1049 C1016 1.448 . S
C1049 H1026 0.930 . S
C1049 C1050 1.328 . S
C1050 C1021 1.427 . S
C1050 H1027 0.929 . S
C1050 C1049 1.328 . S
C1051 O1035 1.264 . S
C1051 O1036 1.243 . S
C1052 C1055 1.399 . S
C1052 C1056 1.383 . S
C1052 C1059 1.496 . S
C1053 C1054 1.399 . S
C1053 C1056 1.389 . S
C1054 C1053 1.399 . S
C1054 C1057 1.380 . S
C1054 H1064 0.929 . S
C1055 C1052 1.399 . S
C1055 C1057 1.392 . S
C1055 H1065 0.929 . S
C1056 C1052 1.383 . S
C1056 C1053 1.389 . S
C1056 H1066 0.931 . S
C1057 C1054 1.380 . S
C1057 C1055 1.392 . S
C1057 H1067 0.929 . S
C1058 O1038 1.266 . S
C1058 O1039 1.248 . S
C1059 Tb995 2.802 1_556 S
C1059 O1034 1.264 1_556 S
C1059 O1037 1.256 1_556 S
C1059 C1052 1.496 . S
H1060 C1043 0.929 . S
H1061 C1044 0.929 . S
H1062 C1045 0.929 . S
H1063 C1046 0.931 . S
H1064 C1054 0.929 . S
H1065 C1055 0.929 . S
H1066 C1056 0.931 . S
H1067 C1057 0.929 . S
Tb1068 N1097 2.617 . S
Tb1068 N1103 2.572 . S
Tb1068 O1112 2.465 . S
Tb1068 O1113 2.387 . S
Tb1068 O1115 2.428 . S
Tb1068 O1116 2.308 . S
Tb1068 O1120 2.349 . S
Tb1068 O1123 2.393 . S
Tb1068 C1132 2.802 . S
C1069 N1070 1.379 . S
C1069 C1072 1.416 . S
C1069 C1076 1.424 . S
N1070 C1069 1.379 . S
N1070 C1073 1.334 . S
N1070 Tb1079 2.617 . S
C1071 C1073 1.390 . S
C1071 C1074 1.339 . S
C1071 H1091 0.930 . S
C1072 C1069 1.416 . S
C1072 C1074 1.416 . S
C1072 C1078 1.448 . S
C1073 N1070 1.334 . S
C1073 C1071 1.390 . S
C1073 H1084 0.930 . S
C1074 C1071 1.339 . S
C1074 C1072 1.416 . S
C1074 H1095 0.930 . S
C1075 C1076 1.413 . S
C1075 C1077 1.427 . S
C1075 C1081 1.416 . S
C1076 C1069 1.424 . S
C1076 C1075 1.413 . S
C1076 N1080 1.361 . S
C1077 C1075 1.427 . S
C1077 C1078 1.328 . S
C1077 H1092 0.929 . S
C1078 C1072 1.448 . S
C1078 C1077 1.328 . S
C1078 H1093 0.930 . S
Tb1079 N1070 2.617 . S
Tb1079 N1080 2.572 . S
Tb1079 O1114 2.349 . S
Tb1079 O1117 2.393 . S
Tb1079 O1118 2.465 . S
Tb1079 O1119 2.387 . S
Tb1079 O1121 2.428 . S
Tb1079 O1122 2.308 . S
Tb1079 C1143 2.802 . S
N1080 C1076 1.361 . S
N1080 Tb1079 2.572 . S
N1080 C1082 1.340 . S
C1081 C1075 1.416 . S
C1081 C1083 1.332 . S
C1081 H1089 0.931 . S
C1082 N1080 1.340 . S
C1082 C1083 1.407 . S
C1082 H1088 0.930 . S
C1083 C1081 1.332 . S
C1083 C1082 1.407 . S
C1083 H1085 0.929 . S
H1084 C1073 0.930 . S
H1085 C1083 0.929 . S
H1086 C1101 0.930 . S
H1087 C1108 0.929 . S
H1088 C1082 0.930 . S
H1089 C1081 0.931 . S
H1090 C1104 0.930 . S
H1091 C1071 0.930 . S
H1092 C1077 0.929 . S
H1093 C1078 0.930 . S
H1094 C1099 0.930 . S
H1095 C1074 0.930 . S
H1096 C1107 0.931 . S
N1097 Tb1068 2.617 . S
N1097 C1098 1.379 . S
N1097 C1101 1.334 . S
C1098 N1097 1.379 . S
C1098 C1100 1.416 . S
C1098 C1106 1.424 . S
C1099 H1094 0.930 . S
C1099 C1101 1.390 . S
C1099 C1102 1.339 . S
C1100 C1098 1.416 . S
C1100 C1102 1.416 . S
C1100 C1133 1.448 . S
C1101 H1086 0.930 . S
C1101 N1097 1.334 . S
C1101 C1099 1.390 . S
C1102 C1099 1.339 . S
C1102 C1100 1.416 . S
C1102 H1109 0.930 . S
N1103 Tb1068 2.572 . S
N1103 C1104 1.340 . S
N1103 C1106 1.361 . S
C1104 H1090 0.930 . S
C1104 N1103 1.340 . S
C1104 C1108 1.407 . S
C1105 C1106 1.413 . S
C1105 C1107 1.416 . S
C1105 C1134 1.427 . S
C1106 C1098 1.424 . S
C1106 N1103 1.361 . S
C1106 C1105 1.413 . S
C1107 H1096 0.931 . S
C1107 C1105 1.416 . S
C1107 C1108 1.332 . S
C1108 H1087 0.929 . S
C1108 C1104 1.407 . S
C1108 C1107 1.332 . S
H1109 C1102 0.930 . S
H1110 C1133 0.930 . S
H1111 C1134 0.929 . S
O1112 Tb1068 2.465 . S
O1112 C1132 1.264 . S
O1113 Tb1068 2.387 . S
O1113 C1124 1.264 . S
O1114 Tb1079 2.349 . S
O1114 C1124 1.243 . S
O1115 Tb1068 2.428 . S
O1115 C1132 1.256 . S
O1116 Tb1068 2.308 . S
O1116 C1131 1.266 . S
O1117 Tb1079 2.393 . S
O1117 C1131 1.248 . S
O1118 Tb1079 2.465 . S
O1118 C1143 1.264 . S
O1119 Tb1079 2.387 . S
O1119 C1135 1.264 . S
O1120 Tb1068 2.349 . S
O1120 C1135 1.243 . S
O1121 Tb1079 2.428 . S
O1121 C1143 1.256 . S
O1122 Tb1079 2.308 . S
O1122 C1142 1.266 . S
O1123 Tb1068 2.393 . S
O1123 C1142 1.248 . S
C1124 O1113 1.264 . S
C1124 O1114 1.243 . S
C1125 C1128 1.399 . S
C1125 C1130 1.383 . S
C1125 C1132 1.496 . S
C1126 C1127 1.399 . S
C1126 C1130 1.389 . S
C1127 C1126 1.399 . S
C1127 C1129 1.380 . S
C1127 H1144 0.929 . S
C1128 C1125 1.399 . S
C1128 C1129 1.392 . S
C1128 H1145 0.929 . S
C1129 C1127 1.380 . S
C1129 C1128 1.392 . S
C1129 H1146 0.929 . S
C1130 C1125 1.383 . S
C1130 C1126 1.389 . S
C1130 H1147 0.931 . S
C1131 O1116 1.266 . S
C1131 O1117 1.248 . S
C1132 Tb1068 2.802 . S
C1132 O1112 1.264 . S
C1132 O1115 1.256 . S
C1132 C1125 1.496 . S
C1133 C1100 1.448 . S
C1133 H1110 0.930 . S
C1133 C1134 1.328 . S
C1134 C1105 1.427 . S
C1134 H1111 0.929 . S
C1134 C1133 1.328 . S
C1135 O1119 1.264 . S
C1135 O1120 1.243 . S
C1136 C1139 1.399 . S
C1136 C1140 1.383 . S
C1136 C1143 1.496 . S
C1137 C1138 1.399 . S
C1137 C1140 1.389 . S
C1138 C1137 1.399 . S
C1138 C1141 1.380 . S
C1138 H1148 0.929 . S
C1139 C1136 1.399 . S
C1139 C1141 1.392 . S
C1139 H1149 0.929 . S
C1140 C1136 1.383 . S
C1140 C1137 1.389 . S
C1140 H1150 0.931 . S
C1141 C1138 1.380 . S
C1141 C1139 1.392 . S
C1141 H1151 0.929 . S
C1142 O1122 1.266 . S
C1142 O1123 1.248 . S
C1143 Tb1079 2.802 . S
C1143 O1118 1.264 . S
C1143 O1121 1.256 . S
C1143 C1136 1.496 . S
H1144 C1127 0.929 . S
H1145 C1128 0.929 . S
H1146 C1129 0.929 . S
H1147 C1130 0.931 . S
H1148 C1138 0.929 . S
H1149 C1139 0.929 . S
H1150 C1140 0.931 . S
H1151 C1141 0.929 . S
Tb1152 N1181 2.617 1_455 S
Tb1152 N1187 2.572 1_455 S
Tb1152 O1196 2.465 . S
Tb1152 O1197 2.387 1_455 S
Tb1152 O1199 2.428 . S
Tb1152 O1200 2.308 . S
Tb1152 O1204 2.349 . S
Tb1152 O1207 2.393 . S
Tb1152 C1216 2.802 . S
C1153 N1154 1.379 . S
C1153 C1156 1.416 . S
C1153 C1160 1.424 . S
N1154 C1153 1.379 . S
N1154 C1157 1.334 . S
N1154 Tb1163 2.617 . S
C1155 C1157 1.390 . S
C1155 C1158 1.339 . S
C1155 H1175 0.930 . S
C1156 C1153 1.416 . S
C1156 C1158 1.416 . S
C1156 C1162 1.448 . S
C1157 N1154 1.334 . S
C1157 C1155 1.390 . S
C1157 H1168 0.930 . S
C1158 C1155 1.339 . S
C1158 C1156 1.416 . S
C1158 H1179 0.930 . S
C1159 C1160 1.413 . S
C1159 C1161 1.427 . S
C1159 C1165 1.416 . S
C1160 C1153 1.424 . S
C1160 C1159 1.413 . S
C1160 N1164 1.361 . S
C1161 C1159 1.427 . S
C1161 C1162 1.328 . S
C1161 H1176 0.929 . S
C1162 C1156 1.448 . S
C1162 C1161 1.328 . S
C1162 H1177 0.930 . S
Tb1163 N1154 2.617 . S
Tb1163 N1164 2.572 . S
Tb1163 O1198 2.349 1_455 S
Tb1163 O1201 2.393 . S
Tb1163 O1202 2.504 . S
Tb1163 O1203 2.387 . S
Tb1163 O1205 2.428 . S
Tb1163 O1206 2.308 . S
Tb1163 C1227 2.802 1_455 S
N1164 C1160 1.361 . S
N1164 Tb1163 2.572 . S
N1164 C1166 1.340 . S
C1165 C1159 1.416 . S
C1165 C1167 1.332 . S
C1165 H1173 0.931 . S
C1166 N1164 1.340 . S
C1166 C1167 1.407 . S
C1166 H1172 0.930 . S
C1167 C1165 1.332 . S
C1167 C1166 1.407 . S
C1167 H1169 0.929 . S
H1168 C1157 0.930 . S
H1169 C1167 0.929 . S
H1170 C1185 0.942 . S
H1171 C1192 0.929 . S
H1172 C1166 0.930 . S
H1173 C1165 0.931 . S
H1174 C1188 0.930 . S
H1175 C1155 0.930 . S
H1176 C1161 0.929 . S
H1177 C1162 0.930 . S
H1178 C1183 0.930 . S
H1179 C1158 0.930 . S
H1180 C1191 0.931 . S
N1181 Tb1152 2.617 1_655 S
N1181 C1182 1.379 . S
N1181 C1185 1.334 . S
C1182 N1181 1.379 . S
C1182 C1184 1.416 . S
C1182 C1190 1.424 . S
C1183 H1178 0.930 . S
C1183 C1185 1.390 . S
C1183 C1186 1.339 . S
C1184 C1182 1.416 . S
C1184 C1186 1.416 . S
C1184 C1217 1.448 . S
C1185 H1170 0.942 . S
C1185 N1181 1.334 . S
C1185 C1183 1.390 . S
C1186 C1183 1.339 . S
C1186 C1184 1.416 . S
C1186 H1193 0.930 . S
N1187 Tb1152 2.572 1_655 S
N1187 C1188 1.340 . S
N1187 C1190 1.361 . S
C1188 H1174 0.930 . S
C1188 N1187 1.340 . S
C1188 C1192 1.407 . S
C1189 C1190 1.413 . S
C1189 C1191 1.416 . S
C1189 C1218 1.427 . S
C1190 C1182 1.424 . S
C1190 N1187 1.361 . S
C1190 C1189 1.413 . S
C1191 H1180 0.931 . S
C1191 C1189 1.416 . S
C1191 C1192 1.332 . S
C1192 H1171 0.929 . S
C1192 C1188 1.407 . S
C1192 C1191 1.332 . S
H1193 C1186 0.930 . S
H1194 C1217 0.930 . S
H1195 C1218 0.929 . S
O1196 Tb1152 2.465 . S
O1196 C1216 1.264 . S
O1197 Tb1152 2.387 1_655 S
O1197 C1208 1.264 . S
O1198 Tb1163 2.349 1_655 S
O1198 C1208 1.243 . S
O1199 Tb1152 2.428 . S
O1199 C1216 1.256 . S
O1200 Tb1152 2.308 . S
O1200 C1215 1.266 . S
O1201 Tb1163 2.393 . S
O1201 C1215 1.248 . S
O1202 Tb1163 2.504 . S
O1202 C1227 1.261 1_455 S
O1203 Tb1163 2.387 . S
O1203 C1219 1.264 . S
O1204 Tb1152 2.349 . S
O1204 C1219 1.243 . S
O1205 Tb1163 2.428 . S
O1205 C1227 1.256 1_455 S
O1206 Tb1163 2.308 . S
O1206 C1226 1.266 . S
O1207 Tb1152 2.393 . S
O1207 C1226 1.248 . S
C1208 O1197 1.264 . S
C1208 O1198 1.243 . S
C1209 C1212 1.399 . S
C1209 C1214 1.383 . S
C1209 C1216 1.496 . S
C1210 C1211 1.399 . S
C1210 C1214 1.389 . S
C1211 C1210 1.399 . S
C1211 C1213 1.380 . S
C1211 H1228 0.929 . S
C1212 C1209 1.399 . S
C1212 C1213 1.392 . S
C1212 H1229 0.929 . S
C1213 C1211 1.380 . S
C1213 C1212 1.392 . S
C1213 H1230 0.929 . S
C1214 C1209 1.383 . S
C1214 C1210 1.389 . S
C1214 H1231 0.931 . S
C1215 O1200 1.266 . S
C1215 O1201 1.248 . S
C1216 Tb1152 2.802 . S
C1216 O1196 1.264 . S
C1216 O1199 1.256 . S
C1216 C1209 1.496 . S
C1217 C1184 1.448 . S
C1217 H1194 0.930 . S
C1217 C1218 1.328 . S
C1218 C1189 1.427 . S
C1218 H1195 0.929 . S
C1218 C1217 1.328 . S
C1219 O1203 1.264 . S
C1219 O1204 1.243 . S
C1220 C1223 1.399 . S
C1220 C1224 1.383 . S
C1220 C1227 1.496 . S
C1221 C1222 1.399 . S
C1221 C1224 1.389 . S
C1222 C1221 1.399 . S
C1222 C1225 1.380 . S
C1222 H1232 0.929 . S
C1223 C1220 1.399 . S
C1223 C1225 1.392 . S
C1223 H1233 0.929 . S
C1224 C1220 1.383 . S
C1224 C1221 1.389 . S
C1224 H1234 0.931 . S
C1225 C1222 1.380 . S
C1225 C1223 1.392 . S
C1225 H1235 0.929 . S
C1226 O1206 1.266 . S
C1226 O1207 1.248 . S
C1227 Tb1163 2.802 1_655 S
C1227 O1202 1.261 1_655 S
C1227 O1205 1.256 1_655 S
C1227 C1220 1.496 . S
H1228 C1211 0.929 . S
H1229 C1212 0.929 . S
H1230 C1213 0.929 . S
H1231 C1214 0.931 . S
H1232 C1222 0.929 . S
H1233 C1223 0.929 . S
H1234 C1224 0.931 . S
H1235 C1225 0.929 . S
Tb1236 N1265 2.617 . S
Tb1236 N1271 2.572 . S
Tb1236 O1280 2.465 . S
Tb1236 O1281 2.387 . S
Tb1236 O1283 2.428 . S
Tb1236 O1284 2.308 . S
Tb1236 O1288 2.349 . S
Tb1236 O1291 2.393 . S
Tb1236 C1300 2.802 . S
C1237 N1238 1.379 . S
C1237 C1240 1.416 . S
C1237 C1244 1.424 . S
N1238 C1237 1.379 . S
N1238 C1241 1.334 . S
N1238 Tb1247 2.617 . S
C1239 C1241 1.390 . S
C1239 C1242 1.339 . S
C1239 H1259 0.930 . S
C1240 C1237 1.416 . S
C1240 C1242 1.416 . S
C1240 C1246 1.448 . S
C1241 N1238 1.334 . S
C1241 C1239 1.390 . S
C1241 H1252 0.930 . S
C1242 C1239 1.339 . S
C1242 C1240 1.416 . S
C1242 H1263 0.930 . S
C1243 C1244 1.413 . S
C1243 C1245 1.427 . S
C1243 C1249 1.416 . S
C1244 C1237 1.424 . S
C1244 C1243 1.413 . S
C1244 N1248 1.361 . S
C1245 C1243 1.427 . S
C1245 C1246 1.328 . S
C1245 H1260 0.929 . S
C1246 C1240 1.448 . S
C1246 C1245 1.328 . S
C1246 H1261 0.930 . S
Tb1247 N1238 2.617 . S
Tb1247 N1248 2.572 . S
Tb1247 O1282 2.349 . S
Tb1247 O1285 2.393 . S
Tb1247 O1286 2.465 . S
Tb1247 O1287 2.387 . S
Tb1247 O1289 2.428 . S
Tb1247 O1290 2.308 . S
Tb1247 C1311 2.802 . S
N1248 C1244 1.361 . S
N1248 Tb1247 2.572 . S
N1248 C1250 1.340 . S
C1249 C1243 1.416 . S
C1249 C1251 1.332 . S
C1249 H1257 0.931 . S
C1250 N1248 1.340 . S
C1250 C1251 1.407 . S
C1250 H1256 0.930 . S
C1251 C1249 1.332 . S
C1251 C1250 1.407 . S
C1251 H1253 0.929 . S
H1252 C1241 0.930 . S
H1253 C1251 0.929 . S
H1254 C1269 0.930 . S
H1255 C1276 0.929 . S
H1256 C1250 0.930 . S
H1257 C1249 0.931 . S
H1258 C1272 0.930 . S
H1259 C1239 0.930 . S
H1260 C1245 0.929 . S
H1261 C1246 0.930 . S
H1262 C1267 0.930 . S
H1263 C1242 0.930 . S
H1264 C1275 0.931 . S
N1265 Tb1236 2.617 . S
N1265 C1266 1.379 . S
N1265 C1269 1.334 . S
C1266 N1265 1.379 . S
C1266 C1268 1.416 . S
C1266 C1274 1.424 . S
C1267 H1262 0.930 . S
C1267 C1269 1.390 . S
C1267 C1270 1.339 . S
C1268 C1266 1.416 . S
C1268 C1270 1.416 . S
C1268 C1301 1.448 . S
C1269 H1254 0.930 . S
C1269 N1265 1.334 . S
C1269 C1267 1.390 . S
C1270 C1267 1.339 . S
C1270 C1268 1.416 . S
C1270 H1277 0.930 . S
N1271 Tb1236 2.572 . S
N1271 C1272 1.340 . S
N1271 C1274 1.361 . S
C1272 H1258 0.930 . S
C1272 N1271 1.340 . S
C1272 C1276 1.407 . S
C1273 C1274 1.413 . S
C1273 C1275 1.416 . S
C1273 C1302 1.427 . S
C1274 C1266 1.424 . S
C1274 N1271 1.361 . S
C1274 C1273 1.413 . S
C1275 H1264 0.931 . S
C1275 C1273 1.416 . S
C1275 C1276 1.332 . S
C1276 H1255 0.929 . S
C1276 C1272 1.407 . S
C1276 C1275 1.332 . S
H1277 C1270 0.930 . S
H1278 C1301 0.930 . S
H1279 C1302 0.929 . S
O1280 Tb1236 2.465 . S
O1280 C1300 1.264 . S
O1281 Tb1236 2.387 . S
O1281 C1292 1.264 . S
O1282 Tb1247 2.349 . S
O1282 C1292 1.243 . S
O1283 Tb1236 2.428 . S
O1283 C1300 1.256 . S
O1284 Tb1236 2.308 . S
O1284 C1299 1.266 . S
O1285 Tb1247 2.393 . S
O1285 C1299 1.248 . S
O1286 Tb1247 2.465 . S
O1286 C1311 1.264 . S
O1287 Tb1247 2.387 . S
O1287 C1303 1.264 . S
O1288 Tb1236 2.349 . S
O1288 C1303 1.243 . S
O1289 Tb1247 2.428 . S
O1289 C1311 1.256 . S
O1290 Tb1247 2.308 . S
O1290 C1310 1.266 . S
O1291 Tb1236 2.393 . S
O1291 C1310 1.248 . S
C1292 O1281 1.264 . S
C1292 O1282 1.243 . S
C1293 C1296 1.399 . S
C1293 C1298 1.383 . S
C1293 C1300 1.496 . S
C1294 C1295 1.399 . S
C1294 C1298 1.389 . S
C1295 C1294 1.399 . S
C1295 C1297 1.380 . S
C1295 H1312 0.929 . S
C1296 C1293 1.399 . S
C1296 C1297 1.392 . S
C1296 H1313 0.929 . S
C1297 C1295 1.380 . S
C1297 C1296 1.392 . S
C1297 H1314 0.929 . S
C1298 C1293 1.383 . S
C1298 C1294 1.389 . S
C1298 H1315 0.931 . S
C1299 O1284 1.266 . S
C1299 O1285 1.248 . S
C1300 Tb1236 2.802 . S
C1300 O1280 1.264 . S
C1300 O1283 1.256 . S
C1300 C1293 1.496 . S
C1301 C1268 1.448 . S
C1301 H1278 0.930 . S
C1301 C1302 1.328 . S
C1302 C1273 1.427 . S
C1302 H1279 0.929 . S
C1302 C1301 1.328 . S
C1303 O1287 1.264 . S
C1303 O1288 1.243 . S
C1304 C1307 1.399 . S
C1304 C1308 1.383 . S
C1304 C1311 1.496 . S
C1305 C1306 1.399 . S
C1305 C1308 1.389 . S
C1306 C1305 1.399 . S
C1306 C1309 1.380 . S
C1306 H1316 0.929 . S
C1307 C1304 1.399 . S
C1307 C1309 1.392 . S
C1307 H1317 0.929 . S
C1308 C1304 1.383 . S
C1308 C1305 1.389 . S
C1308 H1318 0.931 . S
C1309 C1306 1.380 . S
C1309 C1307 1.392 . S
C1309 H1319 0.929 . S
C1310 O1290 1.266 . S
C1310 O1291 1.248 . S
C1311 Tb1247 2.802 . S
C1311 O1286 1.264 . S
C1311 O1289 1.256 . S
C1311 C1304 1.496 . S
H1312 C1295 0.929 . S
H1313 C1296 0.929 . S
H1314 C1297 0.929 . S
H1315 C1298 0.931 . S
H1316 C1306 0.929 . S
H1317 C1307 0.929 . S
H1318 C1308 0.931 . S
H1319 C1309 0.929 . S
Tb1320 N1349 2.617 . S
Tb1320 N1355 2.572 . S
Tb1320 O1364 2.465 . S
Tb1320 O1365 2.387 . S
Tb1320 O1367 2.428 . S
Tb1320 O1368 2.308 . S
Tb1320 O1372 2.349 . S
Tb1320 O1375 2.393 . S
Tb1320 C1384 2.802 . S
C1321 N1322 1.379 . S
C1321 C1324 1.416 . S
C1321 C1328 1.424 . S
N1322 C1321 1.379 . S
N1322 C1325 1.334 . S
N1322 Tb1331 2.617 . S
C1323 C1325 1.390 . S
C1323 C1326 1.339 . S
C1323 H1343 0.930 . S
C1324 C1321 1.416 . S
C1324 C1326 1.416 . S
C1324 C1330 1.448 . S
C1325 N1322 1.334 . S
C1325 C1323 1.390 . S
C1325 H1336 0.930 . S
C1326 C1323 1.339 . S
C1326 C1324 1.416 . S
C1326 H1347 0.930 . S
C1327 C1328 1.413 . S
C1327 C1329 1.427 . S
C1327 C1333 1.416 . S
C1328 C1321 1.424 . S
C1328 C1327 1.413 . S
C1328 N1332 1.361 . S
C1329 C1327 1.427 . S
C1329 C1330 1.328 . S
C1329 H1344 0.929 . S
C1330 C1324 1.448 . S
C1330 C1329 1.328 . S
C1330 H1345 0.930 . S
Tb1331 N1322 2.617 . S
Tb1331 N1332 2.572 . S
Tb1331 O1366 2.349 . S
Tb1331 O1369 2.393 . S
Tb1331 O1370 2.465 . S
Tb1331 O1371 2.387 . S
Tb1331 O1373 2.428 . S
Tb1331 O1374 2.308 . S
Tb1331 C1395 2.802 . S
N1332 C1328 1.361 . S
N1332 Tb1331 2.572 . S
N1332 C1334 1.340 . S
C1333 C1327 1.416 . S
C1333 C1335 1.332 . S
C1333 H1341 0.931 . S
C1334 N1332 1.340 . S
C1334 C1335 1.407 . S
C1334 H1340 0.930 . S
C1335 C1333 1.332 . S
C1335 C1334 1.407 . S
C1335 H1337 0.929 . S
H1336 C1325 0.930 . S
H1337 C1335 0.929 . S
H1338 C1353 0.930 . S
H1339 C1360 0.929 . S
H1340 C1334 0.930 . S
H1341 C1333 0.931 . S
H1342 C1356 0.930 . S
H1343 C1323 0.930 . S
H1344 C1329 0.929 . S
H1345 C1330 0.930 . S
H1346 C1351 0.930 . S
H1347 C1326 0.930 . S
H1348 C1359 0.931 . S
N1349 Tb1320 2.617 . S
N1349 C1350 1.379 . S
N1349 C1353 1.334 . S
C1350 N1349 1.379 . S
C1350 C1352 1.416 . S
C1350 C1358 1.424 . S
C1351 H1346 0.930 . S
C1351 C1353 1.390 . S
C1351 C1354 1.339 . S
C1352 C1350 1.416 . S
C1352 C1354 1.416 . S
C1352 C1385 1.448 . S
C1353 H1338 0.930 . S
C1353 N1349 1.334 . S
C1353 C1351 1.390 . S
C1354 C1351 1.339 . S
C1354 C1352 1.416 . S
C1354 H1361 0.930 . S
N1355 Tb1320 2.572 . S
N1355 C1356 1.340 . S
N1355 C1358 1.361 . S
C1356 H1342 0.930 . S
C1356 N1355 1.340 . S
C1356 C1360 1.407 . S
C1357 C1358 1.413 . S
C1357 C1359 1.416 . S
C1357 C1386 1.427 . S
C1358 C1350 1.424 . S
C1358 N1355 1.361 . S
C1358 C1357 1.413 . S
C1359 H1348 0.931 . S
C1359 C1357 1.416 . S
C1359 C1360 1.332 . S
C1360 H1339 0.929 . S
C1360 C1356 1.407 . S
C1360 C1359 1.332 . S
H1361 C1354 0.930 . S
H1362 C1385 0.930 . S
H1363 C1386 0.929 . S
O1364 Tb1320 2.465 . S
O1364 C1384 1.264 . S
O1365 Tb1320 2.387 . S
O1365 C1376 1.264 . S
O1366 Tb1331 2.349 . S
O1366 C1376 1.243 . S
O1367 Tb1320 2.428 . S
O1367 C1384 1.256 . S
O1368 Tb1320 2.308 . S
O1368 C1383 1.266 . S
O1369 Tb1331 2.393 . S
O1369 C1383 1.248 . S
O1370 Tb1331 2.465 . S
O1370 C1395 1.264 . S
O1371 Tb1331 2.387 . S
O1371 C1387 1.264 . S
O1372 Tb1320 2.349 . S
O1372 C1387 1.243 . S
O1373 Tb1331 2.428 . S
O1373 C1395 1.256 . S
O1374 Tb1331 2.308 . S
O1374 C1394 1.266 . S
O1375 Tb1320 2.393 . S
O1375 C1394 1.248 . S
C1376 O1365 1.264 . S
C1376 O1366 1.243 . S
C1377 C1380 1.399 . S
C1377 C1382 1.383 . S
C1377 C1384 1.496 . S
C1378 C1379 1.399 . S
C1378 C1382 1.389 . S
C1379 C1378 1.399 . S
C1379 C1381 1.380 . S
C1379 H1396 0.929 . S
C1380 C1377 1.399 . S
C1380 C1381 1.392 . S
C1380 H1397 0.929 . S
C1381 C1379 1.380 . S
C1381 C1380 1.392 . S
C1381 H1398 0.929 . S
C1382 C1377 1.383 . S
C1382 C1378 1.389 . S
C1382 H1399 0.931 . S
C1383 O1368 1.266 . S
C1383 O1369 1.248 . S
C1384 Tb1320 2.802 . S
C1384 O1364 1.264 . S
C1384 O1367 1.256 . S
C1384 C1377 1.496 . S
C1385 C1352 1.448 . S
C1385 H1362 0.930 . S
C1385 C1386 1.328 . S
C1386 C1357 1.427 . S
C1386 H1363 0.929 . S
C1386 C1385 1.328 . S
C1387 O1371 1.264 . S
C1387 O1372 1.243 . S
C1388 C1391 1.399 . S
C1388 C1392 1.383 . S
C1388 C1395 1.496 . S
C1389 C1390 1.399 . S
C1389 C1392 1.389 . S
C1390 C1389 1.399 . S
C1390 C1393 1.380 . S
C1390 H1400 0.929 . S
C1391 C1388 1.399 . S
C1391 C1393 1.392 . S
C1391 H1401 0.929 . S
C1392 C1388 1.383 . S
C1392 C1389 1.389 . S
C1392 H1402 0.931 . S
C1393 C1390 1.380 . S
C1393 C1391 1.392 . S
C1393 H1403 0.929 . S
C1394 O1374 1.266 . S
C1394 O1375 1.248 . S
C1395 Tb1331 2.802 . S
C1395 O1370 1.264 . S
C1395 O1373 1.256 . S
C1395 C1388 1.496 . S
H1396 C1379 0.929 . S
H1397 C1380 0.929 . S
H1398 C1381 0.929 . S
H1399 C1382 0.931 . S
H1400 C1390 0.929 . S
H1401 C1391 0.929 . S
H1402 C1392 0.931 . S
H1403 C1393 0.929 . S
Tb1404 N1433 2.617 . S
Tb1404 N1439 2.572 . S
Tb1404 O1448 2.465 . S
Tb1404 O1449 2.387 . S
Tb1404 O1451 2.428 . S
Tb1404 O1452 2.308 . S
Tb1404 O1456 2.349 . S
Tb1404 O1459 2.393 . S
Tb1404 C1468 2.802 . S
C1405 N1406 1.379 . S
C1405 C1408 1.416 . S
C1405 C1412 1.424 . S
N1406 C1405 1.379 . S
N1406 C1409 1.334 . S
N1406 Tb1415 2.617 . S
C1407 C1409 1.390 . S
C1407 C1410 1.339 . S
C1407 H1427 0.930 . S
C1408 C1405 1.416 . S
C1408 C1410 1.416 . S
C1408 C1414 1.448 . S
C1409 N1406 1.334 . S
C1409 C1407 1.390 . S
C1409 H1420 0.930 . S
C1410 C1407 1.339 . S
C1410 C1408 1.416 . S
C1410 H1431 0.930 . S
C1411 C1412 1.413 . S
C1411 C1413 1.427 . S
C1411 C1417 1.416 . S
C1412 C1405 1.424 . S
C1412 C1411 1.413 . S
C1412 N1416 1.361 . S
C1413 C1411 1.427 . S
C1413 C1414 1.328 . S
C1413 H1428 0.929 . S
C1414 C1408 1.448 . S
C1414 C1413 1.328 . S
C1414 H1429 0.930 . S
Tb1415 N1406 2.617 . S
Tb1415 N1416 2.572 . S
Tb1415 O1450 2.349 . S
Tb1415 O1453 2.393 . S
Tb1415 O1454 2.465 . S
Tb1415 O1455 2.387 . S
Tb1415 O1457 2.428 . S
Tb1415 O1458 2.308 . S
Tb1415 C1479 2.802 . S
N1416 C1412 1.361 . S
N1416 Tb1415 2.572 . S
N1416 C1418 1.340 . S
C1417 C1411 1.416 . S
C1417 C1419 1.332 . S
C1417 H1425 0.931 . S
C1418 N1416 1.340 . S
C1418 C1419 1.407 . S
C1418 H1424 0.930 . S
C1419 C1417 1.332 . S
C1419 C1418 1.407 . S
C1419 H1421 0.929 . S
H1420 C1409 0.930 . S
H1421 C1419 0.929 . S
H1422 C1437 0.930 . S
H1423 C1444 0.929 . S
H1424 C1418 0.930 . S
H1425 C1417 0.931 . S
H1426 C1440 0.930 . S
H1427 C1407 0.930 . S
H1428 C1413 0.929 . S
H1429 C1414 0.930 . S
H1430 C1435 0.930 . S
H1431 C1410 0.930 . S
H1432 C1443 0.931 . S
N1433 Tb1404 2.617 . S
N1433 C1434 1.379 . S
N1433 C1437 1.334 . S
C1434 N1433 1.379 . S
C1434 C1436 1.416 . S
C1434 C1442 1.424 . S
C1435 H1430 0.930 . S
C1435 C1437 1.390 . S
C1435 C1438 1.339 . S
C1436 C1434 1.416 . S
C1436 C1438 1.416 . S
C1436 C1469 1.448 . S
C1437 H1422 0.930 . S
C1437 N1433 1.334 . S
C1437 C1435 1.390 . S
C1438 C1435 1.339 . S
C1438 C1436 1.416 . S
C1438 H1445 0.930 . S
N1439 Tb1404 2.572 . S
N1439 C1440 1.340 . S
N1439 C1442 1.361 . S
C1440 H1426 0.930 . S
C1440 N1439 1.340 . S
C1440 C1444 1.407 . S
C1441 C1442 1.413 . S
C1441 C1443 1.416 . S
C1441 C1470 1.427 . S
C1442 C1434 1.424 . S
C1442 N1439 1.361 . S
C1442 C1441 1.413 . S
C1443 H1432 0.931 . S
C1443 C1441 1.416 . S
C1443 C1444 1.332 . S
C1444 H1423 0.929 . S
C1444 C1440 1.407 . S
C1444 C1443 1.332 . S
H1445 C1438 0.930 . S
H1446 C1469 0.930 . S
H1447 C1470 0.929 . S
O1448 Tb1404 2.465 . S
O1448 C1468 1.264 . S
O1449 Tb1404 2.387 . S
O1449 C1460 1.264 . S
O1450 Tb1415 2.349 . S
O1450 C1460 1.243 . S
O1451 Tb1404 2.428 . S
O1451 C1468 1.256 . S
O1452 Tb1404 2.308 . S
O1452 C1467 1.266 . S
O1453 Tb1415 2.393 . S
O1453 C1467 1.248 . S
O1454 Tb1415 2.465 . S
O1454 C1479 1.264 . S
O1455 Tb1415 2.387 . S
O1455 C1471 1.264 . S
O1456 Tb1404 2.349 . S
O1456 C1471 1.243 . S
O1457 Tb1415 2.428 . S
O1457 C1479 1.256 . S
O1458 Tb1415 2.308 . S
O1458 C1478 1.266 . S
O1459 Tb1404 2.393 . S
O1459 C1478 1.248 . S
C1460 O1449 1.264 . S
C1460 O1450 1.243 . S
C1461 C1464 1.399 . S
C1461 C1466 1.383 . S
C1461 C1468 1.496 . S
C1462 C1463 1.399 . S
C1462 C1466 1.389 . S
C1463 C1462 1.399 . S
C1463 C1465 1.380 . S
C1463 H1480 0.929 . S
C1464 C1461 1.399 . S
C1464 C1465 1.392 . S
C1464 H1481 0.929 . S
C1465 C1463 1.380 . S
C1465 C1464 1.392 . S
C1465 H1482 0.929 . S
C1466 C1461 1.383 . S
C1466 C1462 1.389 . S
C1466 H1483 0.931 . S
C1467 O1452 1.266 . S
C1467 O1453 1.248 . S
C1468 Tb1404 2.802 . S
C1468 O1448 1.264 . S
C1468 O1451 1.256 . S
C1468 C1461 1.496 . S
C1469 C1436 1.448 . S
C1469 H1446 0.930 . S
C1469 C1470 1.328 . S
C1470 C1441 1.427 . S
C1470 H1447 0.929 . S
C1470 C1469 1.328 . S
C1471 O1455 1.264 . S
C1471 O1456 1.243 . S
C1472 C1475 1.399 . S
C1472 C1476 1.383 . S
C1472 C1479 1.496 . S
C1473 C1474 1.399 . S
C1473 C1476 1.389 . S
C1474 C1473 1.399 . S
C1474 C1477 1.380 . S
C1474 H1484 0.929 . S
C1475 C1472 1.399 . S
C1475 C1477 1.392 . S
C1475 H1485 0.929 . S
C1476 C1472 1.383 . S
C1476 C1473 1.389 . S
C1476 H1486 0.931 . S
C1477 C1474 1.380 . S
C1477 C1475 1.392 . S
C1477 H1487 0.929 . S
C1478 O1458 1.266 . S
C1478 O1459 1.248 . S
C1479 Tb1415 2.802 . S
C1479 O1454 1.264 . S
C1479 O1457 1.256 . S
C1479 C1472 1.496 . S
H1480 C1463 0.929 . S
H1481 C1464 0.929 . S
H1482 C1465 0.929 . S
H1483 C1466 0.931 . S
H1484 C1474 0.929 . S
H1485 C1475 0.929 . S
H1486 C1476 0.931 . S
H1487 C1477 0.929 . S
Tb1488 N1517 2.617 . S
Tb1488 N1523 2.572 . S
Tb1488 O1532 2.465 . S
Tb1488 O1533 2.387 . S
Tb1488 O1535 2.428 . S
Tb1488 O1536 2.308 . S
Tb1488 O1540 2.349 . S
Tb1488 O1543 2.393 . S
Tb1488 C1552 2.802 . S
C1489 N1490 1.379 . S
C1489 C1492 1.416 . S
C1489 C1496 1.424 . S
N1490 C1489 1.379 . S
N1490 C1493 1.334 . S
N1490 Tb1499 2.617 . S
C1491 C1493 1.390 . S
C1491 C1494 1.339 . S
C1491 H1511 0.930 . S
C1492 C1489 1.416 . S
C1492 C1494 1.416 . S
C1492 C1498 1.448 . S
C1493 N1490 1.334 . S
C1493 C1491 1.390 . S
C1493 H1504 0.930 . S
C1494 C1491 1.339 . S
C1494 C1492 1.416 . S
C1494 H1515 0.930 . S
C1495 C1496 1.413 . S
C1495 C1497 1.427 . S
C1495 C1501 1.416 . S
C1496 C1489 1.424 . S
C1496 C1495 1.413 . S
C1496 N1500 1.361 . S
C1497 C1495 1.427 . S
C1497 C1498 1.328 . S
C1497 H1512 0.929 . S
C1498 C1492 1.448 . S
C1498 C1497 1.328 . S
C1498 H1513 0.930 . S
Tb1499 N1490 2.617 . S
Tb1499 N1500 2.572 . S
Tb1499 O1534 2.349 . S
Tb1499 O1537 2.393 . S
Tb1499 O1538 2.465 . S
Tb1499 O1539 2.387 . S
Tb1499 O1541 2.428 . S
Tb1499 O1542 2.308 . S
Tb1499 C1563 2.802 . S
N1500 C1496 1.361 . S
N1500 Tb1499 2.572 . S
N1500 C1502 1.340 . S
C1501 C1495 1.416 . S
C1501 C1503 1.332 . S
C1501 H1509 0.931 . S
C1502 N1500 1.340 . S
C1502 C1503 1.407 . S
C1502 H1508 0.930 . S
C1503 C1501 1.332 . S
C1503 C1502 1.407 . S
C1503 H1505 0.929 . S
H1504 C1493 0.930 . S
H1505 C1503 0.929 . S
H1506 C1521 0.930 . S
H1507 C1528 0.929 . S
H1508 C1502 0.930 . S
H1509 C1501 0.931 . S
H1510 C1524 0.930 . S
H1511 C1491 0.930 . S
H1512 C1497 0.929 . S
H1513 C1498 0.930 . S
H1514 C1519 0.930 . S
H1515 C1494 0.930 . S
H1516 C1527 0.931 . S
N1517 Tb1488 2.617 . S
N1517 C1518 1.379 . S
N1517 C1521 1.334 . S
C1518 N1517 1.379 . S
C1518 C1520 1.416 . S
C1518 C1526 1.424 . S
C1519 H1514 0.930 . S
C1519 C1521 1.390 . S
C1519 C1522 1.339 . S
C1520 C1518 1.416 . S
C1520 C1522 1.416 . S
C1520 C1553 1.448 . S
C1521 H1506 0.930 . S
C1521 N1517 1.334 . S
C1521 C1519 1.390 . S
C1522 C1519 1.339 . S
C1522 C1520 1.416 . S
C1522 H1529 0.930 . S
N1523 Tb1488 2.572 . S
N1523 C1524 1.340 . S
N1523 C1526 1.361 . S
C1524 H1510 0.930 . S
C1524 N1523 1.340 . S
C1524 C1528 1.407 . S
C1525 C1526 1.413 . S
C1525 C1527 1.416 . S
C1525 C1554 1.427 . S
C1526 C1518 1.424 . S
C1526 N1523 1.361 . S
C1526 C1525 1.413 . S
C1527 H1516 0.931 . S
C1527 C1525 1.416 . S
C1527 C1528 1.332 . S
C1528 H1507 0.929 . S
C1528 C1524 1.407 . S
C1528 C1527 1.332 . S
H1529 C1522 0.930 . S
H1530 C1553 0.930 . S
H1531 C1554 0.929 . S
O1532 Tb1488 2.465 . S
O1532 C1552 1.264 . S
O1533 Tb1488 2.387 . S
O1533 C1544 1.264 . S
O1534 Tb1499 2.349 . S
O1534 C1544 1.243 . S
O1535 Tb1488 2.428 . S
O1535 C1552 1.256 . S
O1536 Tb1488 2.308 . S
O1536 C1551 1.266 . S
O1537 Tb1499 2.393 . S
O1537 C1551 1.248 . S
O1538 Tb1499 2.465 . S
O1538 C1563 1.264 . S
O1539 Tb1499 2.387 . S
O1539 C1555 1.264 . S
O1540 Tb1488 2.349 . S
O1540 C1555 1.243 . S
O1541 Tb1499 2.428 . S
O1541 C1563 1.256 . S
O1542 Tb1499 2.308 . S
O1542 C1562 1.266 . S
O1543 Tb1488 2.393 . S
O1543 C1562 1.248 . S
C1544 O1533 1.264 . S
C1544 O1534 1.243 . S
C1545 C1548 1.399 . S
C1545 C1550 1.383 . S
C1545 C1552 1.496 . S
C1546 C1547 1.399 . S
C1546 C1550 1.389 . S
C1547 C1546 1.399 . S
C1547 C1549 1.380 . S
C1547 H1564 0.929 . S
C1548 C1545 1.399 . S
C1548 C1549 1.392 . S
C1548 H1565 0.929 . S
C1549 C1547 1.380 . S
C1549 C1548 1.392 . S
C1549 H1566 0.929 . S
C1550 C1545 1.383 . S
C1550 C1546 1.389 . S
C1550 H1567 0.931 . S
C1551 O1536 1.266 . S
C1551 O1537 1.248 . S
C1552 Tb1488 2.802 . S
C1552 O1532 1.264 . S
C1552 O1535 1.256 . S
C1552 C1545 1.496 . S
C1553 C1520 1.448 . S
C1553 H1530 0.930 . S
C1553 C1554 1.328 . S
C1554 C1525 1.427 . S
C1554 H1531 0.929 . S
C1554 C1553 1.328 . S
C1555 O1539 1.264 . S
C1555 O1540 1.243 . S
C1556 C1559 1.399 . S
C1556 C1560 1.383 . S
C1556 C1563 1.496 . S
C1557 C1558 1.399 . S
C1557 C1560 1.389 . S
C1558 C1557 1.399 . S
C1558 C1561 1.380 . S
C1558 H1568 0.929 . S
C1559 C1556 1.399 . S
C1559 C1561 1.392 . S
C1559 H1569 0.929 . S
C1560 C1556 1.383 . S
C1560 C1557 1.389 . S
C1560 H1570 0.931 . S
C1561 C1558 1.380 . S
C1561 C1559 1.392 . S
C1561 H1571 0.929 . S
C1562 O1542 1.266 . S
C1562 O1543 1.248 . S
C1563 Tb1499 2.802 . S
C1563 O1538 1.264 . S
C1563 O1541 1.256 . S
C1563 C1556 1.496 . S
H1564 C1547 0.929 . S
H1565 C1548 0.929 . S
H1566 C1549 0.929 . S
H1567 C1550 0.931 . S
H1568 C1558 0.929 . S
H1569 C1559 0.929 . S
H1570 C1560 0.931 . S
H1571 C1561 0.929 . S
Tb1572 N1601 2.617 . S
Tb1572 N1607 2.572 . S
Tb1572 O1616 2.465 . S
Tb1572 O1617 2.387 1_655 S
Tb1572 O1619 2.428 . S
Tb1572 O1620 2.308 . S
Tb1572 O1624 2.349 1_655 S
Tb1572 O1627 2.393 1_655 S
Tb1572 C1636 2.802 . S
C1573 N1574 1.379 1_554 S
C1573 C1576 1.416 1_554 S
C1573 C1580 1.424 . S
N1574 C1573 1.379 1_556 S
N1574 C1577 1.334 . S
N1574 Tb1583 2.617 1_556 S
C1575 C1577 1.390 . S
C1575 C1578 1.339 . S
C1575 H1595 0.930 . S
C1576 C1573 1.416 1_556 S
C1576 C1578 1.416 . S
C1576 C1582 1.448 . S
C1577 N1574 1.334 . S
C1577 C1575 1.390 . S
C1577 H1588 0.930 . S
C1578 C1575 1.339 . S
C1578 C1576 1.416 . S
C1578 H1599 0.930 . S
C1579 C1580 1.413 . S
C1579 C1581 1.427 . S
C1579 C1585 1.416 . S
C1580 C1573 1.424 . S
C1580 C1579 1.413 . S
C1580 N1584 1.361 . S
C1581 C1579 1.427 . S
C1581 C1582 1.328 1_554 S
C1581 H1596 0.929 . S
C1582 C1576 1.448 . S
C1582 C1581 1.328 1_556 S
C1582 H1597 0.930 . S
Tb1583 N1574 2.617 1_554 S
Tb1583 N1584 2.572 . S
Tb1583 O1618 2.349 . S
Tb1583 O1621 2.393 1_554 S
Tb1583 O1622 2.465 . S
Tb1583 O1623 2.387 . S
Tb1583 O1625 2.428 . S
Tb1583 O1626 2.308 . S
Tb1583 C1647 2.802 . S
N1584 C1580 1.361 . S
N1584 Tb1583 2.572 . S
N1584 C1586 1.340 . S
C1585 C1579 1.416 . S
C1585 C1587 1.332 . S
C1585 H1593 0.931 . S
C1586 N1584 1.340 . S
C1586 C1587 1.407 . S
C1586 H1592 0.930 . S
C1587 C1585 1.332 . S
C1587 C1586 1.407 . S
C1587 H1589 0.929 . S
H1588 C1577 0.930 . S
H1589 C1587 0.929 . S
H1590 C1605 0.930 . S
H1591 C1612 0.889 1_556 S
H1592 C1586 0.930 . S
H1593 C1585 0.931 . S
H1594 C1608 0.930 . S
H1595 C1575 0.930 . S
H1596 C1581 0.929 . S
H1597 C1582 0.930 . S
H1598 C1603 0.930 . S
H1599 C1578 0.930 . S
H1600 C1611 0.931 . S
N1601 Tb1572 2.617 . S
N1601 C1602 1.379 . S
N1601 C1605 1.334 . S
C1602 N1601 1.379 . S
C1602 C1604 1.416 . S
C1602 C1610 1.424 . S
C1603 H1598 0.930 . S
C1603 C1605 1.390 . S
C1603 C1606 1.339 . S
C1604 C1602 1.416 . S
C1604 C1606 1.416 . S
C1604 C1637 1.448 . S
C1605 H1590 0.930 . S
C1605 N1601 1.334 . S
C1605 C1603 1.390 . S
C1606 C1603 1.339 . S
C1606 C1604 1.416 . S
C1606 H1613 0.930 . S
N1607 Tb1572 2.572 . S
N1607 C1608 1.340 . S
N1607 C1610 1.361 . S
C1608 H1594 0.930 . S
C1608 N1607 1.340 . S
C1608 C1612 1.407 . S
C1609 C1610 1.413 . S
C1609 C1611 1.416 . S
C1609 C1638 1.427 . S
C1610 C1602 1.424 . S
C1610 N1607 1.361 . S
C1610 C1609 1.413 . S
C1611 H1600 0.931 . S
C1611 C1609 1.416 . S
C1611 C1612 1.332 . S
C1612 H1591 0.889 1_554 S
C1612 C1608 1.407 . S
C1612 C1611 1.332 . S
H1613 C1606 0.930 . S
H1614 C1637 0.930 . S
H1615 C1638 0.929 . S
O1616 Tb1572 2.465 . S
O1616 C1636 1.264 . S
O1617 Tb1572 2.387 1_455 S
O1617 C1628 1.264 . S
O1618 Tb1583 2.349 . S
O1618 C1628 1.243 . S
O1619 Tb1572 2.428 . S
O1619 C1636 1.256 . S
O1620 Tb1572 2.308 . S
O1620 C1635 1.327 . S
O1621 Tb1583 2.393 1_556 S
O1621 C1635 1.232 1_456 S
O1622 Tb1583 2.465 . S
O1622 C1647 1.264 . S
O1623 Tb1583 2.387 . S
O1623 C1639 1.264 . S
O1624 Tb1572 2.349 1_455 S
O1624 C1639 1.243 . S
O1625 Tb1583 2.428 . S
O1625 C1647 1.256 . S
O1626 Tb1583 2.308 . S
O1626 C1646 1.266 . S
O1627 Tb1572 2.393 1_455 S
O1627 C1646 1.248 . S
C1628 O1617 1.264 . S
C1628 O1618 1.243 . S
C1629 C1632 1.399 . S
C1629 C1634 1.383 . S
C1629 C1636 1.496 . S
C1630 C1631 1.399 . S
C1630 C1634 1.389 . S
C1631 C1630 1.399 . S
C1631 C1633 1.380 . S
C1631 H1648 0.929 . S
C1632 C1629 1.399 . S
C1632 C1633 1.392 . S
C1632 H1649 0.929 . S
C1633 C1631 1.380 . S
C1633 C1632 1.392 . S
C1633 H1650 0.929 . S
C1634 C1629 1.383 . S
C1634 C1630 1.389 . S
C1634 H1651 0.931 . S
C1635 O1620 1.327 . S
C1635 O1621 1.232 1_654 S
C1636 Tb1572 2.802 . S
C1636 O1616 1.264 . S
C1636 O1619 1.256 . S
C1636 C1629 1.496 . S
C1637 C1604 1.448 . S
C1637 H1614 0.930 . S
C1637 C1638 1.328 . S
C1638 C1609 1.427 . S
C1638 H1615 0.929 . S
C1638 C1637 1.328 . S
C1639 O1623 1.264 . S
C1639 O1624 1.243 . S
C1640 C1643 1.399 1_554 S
C1640 C1644 1.383 . S
C1640 C1647 1.496 . S
C1641 C1642 1.399 . S
C1641 C1644 1.389 . S
C1642 C1641 1.399 . S
C1642 C1645 1.380 1_554 S
C1642 H1652 0.944 . S
C1643 C1640 1.399 1_556 S
C1643 C1645 1.392 . S
C1643 H1653 0.929 . S
C1644 C1640 1.383 . S
C1644 C1641 1.389 . S
C1644 H1654 0.931 . S
C1645 C1642 1.380 1_556 S
C1645 C1643 1.392 . S
C1645 H1655 0.929 . S
C1646 O1626 1.266 . S
C1646 O1627 1.248 . S
C1647 Tb1583 2.802 . S
C1647 O1622 1.264 . S
C1647 O1625 1.256 . S
C1647 C1640 1.496 . S
H1648 C1631 0.929 . S
H1649 C1632 0.929 . S
H1650 C1633 0.929 . S
H1651 C1634 0.931 . S
H1652 C1642 0.944 . S
H1653 C1643 0.929 . S
H1654 C1644 0.931 . S
H1655 C1645 0.929 . S
H1656 C1664 0.929 . S
H1657 C1666 0.930 . S
H1658 C1668 0.931 . S
H1659 C1671 0.929 . S
H1660 C1674 0.942 . S
H1661 C1676 0.960 . S
H1662 C1676 0.960 . S
H1663 C1676 0.960 . S
C1664 H1656 0.929 . S
C1664 C1665 1.377 . S
C1664 C1666 1.384 . S
C1665 C1664 1.377 . S
C1665 C1671 1.390 1_455 S
C1666 H1657 0.930 . S
C1666 C1664 1.384 . S
C1666 C1667 1.372 . S
C1667 C1666 1.372 . S
C1667 C1668 1.400 . S
C1667 C1672 1.490 . S
C1668 H1658 0.931 . S
C1668 C1667 1.400 . S
C1668 C1671 1.386 1_455 S
H1669 C1685 0.930 . S
H1670 C1686 0.931 1_556 S
C1671 H1659 0.929 . S
C1671 C1665 1.390 1_655 S
C1671 C1668 1.386 1_655 S
C1672 C1667 1.490 . S
C1672 C1674 1.395 1_556 S
C1672 C1675 1.403 . S
H1673 C1679 0.930 . S
C1674 H1660 0.942 . S
C1674 C1672 1.395 1_554 S
C1674 C1677 1.403 . S
C1675 C1672 1.403 . S
C1675 C1676 1.524 . S
C1675 C1679 1.400 . S
C1676 H1661 0.960 . S
C1676 H1662 0.960 . S
C1676 H1663 0.960 . S
C1676 C1675 1.524 . S
C1677 C1674 1.403 . S
C1677 C1678 1.392 . S
C1677 C1681 1.507 . S
C1678 C1677 1.392 . S
C1678 C1679 1.385 1_554 S
C1678 C1680 1.478 . S
C1679 H1673 0.930 . S
C1679 C1675 1.400 . S
C1679 C1678 1.385 1_556 S
C1680 C1678 1.478 . S
C1680 C1682 1.381 . S
C1680 C1686 1.383 . S
C1681 C1677 1.507 . S
C1681 H1687 0.944 1_455 S
C1681 H1688 0.951 1_455 S
C1681 H1689 0.974 . S
C1682 C1680 1.381 . S
C1682 C1683 1.394 . S
C1682 H1690 0.930 . S
C1683 C1682 1.394 . S
C1683 C1684 1.383 . S
C1683 H1691 0.929 . S
C1684 C1683 1.383 . S
C1684 C1685 1.377 . S
C1685 H1669 0.930 . S
C1685 C1684 1.377 . S
C1685 C1686 1.379 . S
C1686 H1670 0.931 1_554 S
C1686 C1680 1.383 . S
C1686 C1685 1.379 . S
H1687 C1681 0.944 1_655 S
H1688 C1681 0.951 1_655 S
H1689 C1681 0.974 . S
H1690 C1682 0.930 . S
H1691 C1683 0.929 . S
H1692 C1700 0.929 . S
H1693 C1702 0.930 . S
H1694 C1704 0.930 . S
H1695 C1707 0.929 . S
H1696 C1710 0.930 . S
H1697 C1712 0.960 . S
H1698 C1712 0.960 . S
H1699 C1712 0.960 . S
C1700 H1692 0.929 . S
C1700 C1701 1.377 . S
C1700 C1702 1.384 . S
C1701 C1700 1.377 . S
C1701 C1707 1.390 . S
C1702 H1693 0.930 . S
C1702 C1700 1.384 . S
C1702 C1703 1.372 . S
C1703 C1702 1.372 . S
C1703 C1704 1.400 . S
C1703 C1708 1.490 . S
C1704 H1694 0.930 . S
C1704 C1703 1.400 . S
C1704 C1707 1.386 . S
H1705 C1721 0.930 . S
H1706 C1722 0.931 . S
C1707 H1695 0.929 . S
C1707 C1701 1.390 . S
C1707 C1704 1.386 . S
C1708 C1703 1.490 . S
C1708 C1710 1.395 . S
C1708 C1711 1.403 . S
H1709 C1715 0.930 . S
C1710 H1696 0.930 . S
C1710 C1708 1.395 . S
C1710 C1713 1.403 . S
C1711 C1708 1.403 . S
C1711 C1712 1.524 . S
C1711 C1715 1.400 . S
C1712 H1697 0.960 . S
C1712 H1698 0.960 . S
C1712 H1699 0.960 . S
C1712 C1711 1.524 . S
C1713 C1710 1.403 . S
C1713 C1714 1.392 . S
C1713 C1717 1.495 . S
C1714 C1713 1.392 . S
C1714 C1715 1.385 . S
C1714 C1716 1.478 . S
C1715 H1709 0.930 . S
C1715 C1711 1.400 . S
C1715 C1714 1.385 . S
C1716 C1714 1.478 . S
C1716 C1718 1.381 . S
C1716 C1722 1.383 . S
C1717 C1713 1.495 . S
C1717 H1723 0.959 . S
C1717 H1724 0.961 . S
C1717 H1725 0.960 . S
C1718 C1716 1.381 . S
C1718 C1719 1.394 . S
C1718 H1726 0.930 . S
C1719 C1718 1.394 . S
C1719 C1720 1.383 . S
C1719 H1727 0.929 . S
C1720 C1719 1.383 . S
C1720 C1721 1.377 . S
C1721 H1705 0.930 . S
C1721 C1720 1.377 . S
C1721 C1722 1.379 . S
C1722 H1706 0.931 . S
C1722 C1716 1.383 . S
C1722 C1721 1.379 . S
H1723 C1717 0.959 . S
H1724 C1717 0.961 . S
H1725 C1717 0.960 . S
H1726 C1718 0.930 . S
H1727 C1719 0.929 . S
H1728 C1736 0.929 . S
H1729 C1738 0.930 . S
H1730 C1740 0.930 . S
H1731 C1743 0.929 . S
H1732 C1746 0.930 . S
H1733 C1748 0.960 . S
H1734 C1748 0.960 . S
H1735 C1748 0.960 . S
C1736 H1728 0.929 . S
C1736 C1737 1.377 . S
C1736 C1738 1.384 . S
C1737 C1736 1.377 . S
C1737 C1743 1.390 . S
C1738 H1729 0.930 . S
C1738 C1736 1.384 . S
C1738 C1739 1.372 . S
C1739 C1738 1.372 . S
C1739 C1740 1.400 . S
C1739 C1744 1.490 . S
C1740 H1730 0.930 . S
C1740 C1739 1.400 . S
C1740 C1743 1.386 . S
H1741 C1757 0.930 . S
H1742 C1758 0.931 . S
C1743 H1731 0.929 . S
C1743 C1737 1.390 . S
C1743 C1740 1.386 . S
C1744 C1739 1.490 . S
C1744 C1746 1.395 . S
C1744 C1747 1.403 . S
H1745 C1751 0.930 . S
C1746 H1732 0.930 . S
C1746 C1744 1.395 . S
C1746 C1749 1.403 . S
C1747 C1744 1.403 . S
C1747 C1748 1.524 . S
C1747 C1751 1.400 . S
C1748 H1733 0.960 . S
C1748 H1734 0.960 . S
C1748 H1735 0.960 . S
C1748 C1747 1.524 . S
C1749 C1746 1.403 . S
C1749 C1750 1.392 . S
C1749 C1753 1.495 . S
C1750 C1749 1.392 . S
C1750 C1751 1.385 . S
C1750 C1752 1.478 . S
C1751 H1745 0.930 . S
C1751 C1747 1.400 . S
C1751 C1750 1.385 . S
C1752 C1750 1.478 . S
C1752 C1754 1.381 . S
C1752 C1758 1.383 . S
C1753 C1749 1.495 . S
C1753 H1759 0.959 . S
C1753 H1760 0.961 . S
C1753 H1761 0.960 . S
C1754 C1752 1.381 . S
C1754 C1755 1.394 . S
C1754 H1762 0.930 . S
C1755 C1754 1.394 . S
C1755 C1756 1.383 . S
C1755 H1763 0.929 . S
C1756 C1755 1.383 . S
C1756 C1757 1.377 . S
C1757 H1741 0.930 . S
C1757 C1756 1.377 . S
C1757 C1758 1.379 . S
C1758 H1742 0.931 . S
C1758 C1752 1.383 . S
C1758 C1757 1.379 . S
H1759 C1753 0.959 . S
H1760 C1753 0.961 . S
H1761 C1753 0.960 . S
H1762 C1754 0.930 . S
H1763 C1755 0.929 . S
H1764 C1772 0.929 . S
H1765 C1774 0.930 . S
H1766 C1776 0.930 . S
H1767 C1779 0.929 . S
H1768 C1782 0.930 . S
H1769 C1784 0.960 . S
H1770 C1784 0.960 . S
H1771 C1784 0.960 . S
C1772 H1764 0.929 . S
C1772 C1773 1.377 . S
C1772 C1774 1.384 . S
C1773 C1772 1.377 . S
C1773 C1779 1.390 . S
C1774 H1765 0.930 . S
C1774 C1772 1.384 . S
C1774 C1775 1.372 . S
C1775 C1774 1.372 . S
C1775 C1776 1.400 . S
C1775 C1780 1.490 . S
C1776 H1766 0.930 . S
C1776 C1775 1.400 . S
C1776 C1779 1.386 . S
H1777 C1793 0.930 . S
H1778 C1794 0.931 . S
C1779 H1767 0.929 . S
C1779 C1773 1.390 . S
C1779 C1776 1.386 . S
C1780 C1775 1.490 . S
C1780 C1782 1.395 . S
C1780 C1783 1.403 . S
H1781 C1787 0.930 . S
C1782 H1768 0.930 . S
C1782 C1780 1.395 . S
C1782 C1785 1.403 . S
C1783 C1780 1.403 . S
C1783 C1784 1.524 . S
C1783 C1787 1.400 . S
C1784 H1769 0.960 . S
C1784 H1770 0.960 . S
C1784 H1771 0.960 . S
C1784 C1783 1.524 . S
C1785 C1782 1.403 . S
C1785 C1786 1.392 . S
C1785 C1789 1.495 . S
C1786 C1785 1.392 . S
C1786 C1787 1.385 . S
C1786 C1788 1.478 . S
C1787 H1781 0.930 . S
C1787 C1783 1.400 . S
C1787 C1786 1.385 . S
C1788 C1786 1.478 . S
C1788 C1790 1.381 . S
C1788 C1794 1.383 . S
C1789 C1785 1.495 . S
C1789 H1795 0.959 . S
C1789 H1796 0.961 . S
C1789 H1797 0.960 . S
C1790 C1788 1.381 . S
C1790 C1791 1.394 . S
C1790 H1798 0.930 . S
C1791 C1790 1.394 . S
C1791 C1792 1.383 . S
C1791 H1799 0.929 . S
C1792 C1791 1.383 . S
C1792 C1793 1.377 . S
C1793 H1777 0.930 . S
C1793 C1792 1.377 . S
C1793 C1794 1.379 . S
C1794 H1778 0.931 . S
C1794 C1788 1.383 . S
C1794 C1793 1.379 . S
H1795 C1789 0.959 . S
H1796 C1789 0.961 . S
H1797 C1789 0.960 . S
H1798 C1790 0.930 . S
H1799 C1791 0.929 . S
H1800 C1808 0.929 . S
H1801 C1810 0.930 . S
H1802 C1812 0.930 . S
H1803 C1815 0.929 . S
H1804 C1818 0.930 . S
H1805 C1820 0.960 . S
H1806 C1820 0.960 . S
H1807 C1820 0.960 . S
C1808 H1800 0.929 . S
C1808 C1809 1.377 . S
C1808 C1810 1.384 . S
C1809 C1808 1.377 . S
C1809 C1815 1.390 . S
C1810 H1801 0.930 . S
C1810 C1808 1.384 . S
C1810 C1811 1.372 . S
C1811 C1810 1.372 . S
C1811 C1812 1.400 . S
C1811 C1816 1.490 . S
C1812 H1802 0.930 . S
C1812 C1811 1.400 . S
C1812 C1815 1.386 . S
H1813 C1829 0.930 . S
H1814 C1830 0.931 . S
C1815 H1803 0.929 . S
C1815 C1809 1.390 . S
C1815 C1812 1.386 . S
C1816 C1811 1.490 . S
C1816 C1818 1.395 . S
C1816 C1819 1.403 . S
H1817 C1823 0.930 . S
C1818 H1804 0.930 . S
C1818 C1816 1.395 . S
C1818 C1821 1.403 . S
C1819 C1816 1.403 . S
C1819 C1820 1.524 1_455 S
C1819 C1823 1.400 . S
C1820 H1805 0.960 . S
C1820 H1806 0.960 . S
C1820 H1807 0.960 . S
C1820 C1819 1.524 1_655 S
C1821 C1818 1.403 . S
C1821 C1822 1.392 . S
C1821 C1825 1.495 . S
C1822 C1821 1.392 . S
C1822 C1823 1.385 . S
C1822 C1824 1.478 . S
C1823 H1817 0.930 . S
C1823 C1819 1.400 . S
C1823 C1822 1.385 . S
C1824 C1822 1.478 . S
C1824 C1826 1.381 . S
C1824 C1830 1.383 . S
C1825 C1821 1.495 . S
C1825 H1831 0.959 . S
C1825 H1832 0.961 . S
C1825 H1833 0.960 . S
C1826 C1824 1.381 . S
C1826 C1827 1.394 . S
C1826 H1834 0.930 . S
C1827 C1826 1.394 . S
C1827 C1828 1.383 . S
C1827 H1835 0.929 . S
C1828 C1827 1.383 . S
C1828 C1829 1.377 . S
C1829 H1813 0.930 . S
C1829 C1828 1.377 . S
C1829 C1830 1.379 . S
C1830 H1814 0.931 . S
C1830 C1824 1.383 . S
C1830 C1829 1.379 . S
H1831 C1825 0.959 . S
H1832 C1825 0.961 . S
H1833 C1825 0.960 . S
H1834 C1826 0.930 . S
H1835 C1827 0.929 . S
H1836 C1844 0.929 . S
H1837 C1846 0.930 . S
H1838 C1848 0.930 . S
H1839 C1851 0.929 . S
H1840 C1854 0.930 . S
H1841 C1856 0.960 . S
H1842 C1856 0.960 . S
H1843 C1856 0.960 . S
C1844 H1836 0.929 . S
C1844 C1845 1.377 . S
C1844 C1846 1.384 . S
C1845 C1844 1.377 . S
C1845 C1851 1.390 . S
C1846 H1837 0.930 . S
C1846 C1844 1.384 . S
C1846 C1847 1.372 . S
C1847 C1846 1.372 . S
C1847 C1848 1.400 . S
C1847 C1852 1.490 . S
C1848 H1838 0.930 . S
C1848 C1847 1.400 . S
C1848 C1851 1.386 . S
H1849 C1865 0.930 . S
H1850 C1866 0.931 . S
C1851 H1839 0.929 . S
C1851 C1845 1.390 . S
C1851 C1848 1.386 . S
C1852 C1847 1.490 . S
C1852 C1854 1.395 . S
C1852 C1855 1.403 . S
H1853 C1859 0.930 . S
C1854 H1840 0.930 . S
C1854 C1852 1.395 . S
C1854 C1857 1.403 . S
C1855 C1852 1.403 . S
C1855 C1856 1.524 . S
C1855 C1859 1.400 . S
C1856 H1841 0.960 . S
C1856 H1842 0.960 . S
C1856 H1843 0.960 . S
C1856 C1855 1.524 . S
C1857 C1854 1.403 . S
C1857 C1858 1.392 . S
C1857 C1861 1.495 . S
C1858 C1857 1.392 . S
C1858 C1859 1.385 . S
C1858 C1860 1.478 . S
C1859 H1853 0.930 . S
C1859 C1855 1.400 . S
C1859 C1858 1.385 . S
C1860 C1858 1.478 . S
C1860 C1862 1.381 . S
C1860 C1866 1.383 . S
C1861 C1857 1.495 . S
C1861 H1867 0.959 . S
C1861 H1868 0.961 . S
C1861 H1869 0.960 . S
C1862 C1860 1.381 . S
C1862 C1863 1.394 . S
C1862 H1870 0.930 . S
C1863 C1862 1.394 . S
C1863 C1864 1.383 . S
C1863 H1871 0.929 . S
C1864 C1863 1.383 . S
C1864 C1865 1.377 . S
C1865 H1849 0.930 . S
C1865 C1864 1.377 . S
C1865 C1866 1.379 . S
C1866 H1850 0.931 . S
C1866 C1860 1.383 . S
C1866 C1865 1.379 . S
H1867 C1861 0.959 . S
H1868 C1861 0.961 . S
H1869 C1861 0.960 . S
H1870 C1862 0.930 . S
H1871 C1863 0.929 . S
H1872 C1880 0.929 . S
H1873 C1882 0.930 . S
H1874 C1884 0.930 . S
H1875 C1887 0.929 . S
H1876 C1890 0.930 . S
H1877 C1892 0.960 . S
H1878 C1892 0.960 . S
H1879 C1892 0.960 . S
C1880 H1872 0.929 . S
C1880 C1881 1.377 . S
C1880 C1882 1.384 . S
C1881 C1880 1.377 . S
C1881 C1887 1.390 . S
C1882 H1873 0.930 . S
C1882 C1880 1.384 . S
C1882 C1883 1.372 . S
C1883 C1882 1.372 . S
C1883 C1884 1.400 . S
C1883 C1888 1.490 . S
C1884 H1874 0.930 . S
C1884 C1883 1.400 . S
C1884 C1887 1.386 . S
H1885 C1901 0.930 . S
H1886 C1902 0.931 . S
C1887 H1875 0.929 . S
C1887 C1881 1.390 . S
C1887 C1884 1.386 . S
C1888 C1883 1.490 . S
C1888 C1890 1.395 . S
C1888 C1891 1.403 . S
H1889 C1895 0.930 . S
C1890 H1876 0.930 . S
C1890 C1888 1.395 . S
C1890 C1893 1.403 . S
C1891 C1888 1.403 . S
C1891 C1892 1.524 . S
C1891 C1895 1.400 . S
C1892 H1877 0.960 . S
C1892 H1878 0.960 . S
C1892 H1879 0.960 . S
C1892 C1891 1.524 . S
C1893 C1890 1.403 . S
C1893 C1894 1.392 . S
C1893 C1897 1.495 . S
C1894 C1893 1.392 . S
C1894 C1895 1.385 . S
C1894 C1896 1.478 . S
C1895 H1889 0.930 . S
C1895 C1891 1.400 . S
C1895 C1894 1.385 . S
C1896 C1894 1.478 . S
C1896 C1898 1.381 . S
C1896 C1902 1.383 . S
C1897 C1893 1.495 . S
C1897 H1903 0.959 . S
C1897 H1904 0.961 . S
C1897 H1905 0.960 . S
C1898 C1896 1.381 . S
C1898 C1899 1.394 . S
C1898 H1906 0.930 . S
C1899 C1898 1.394 . S
C1899 C1900 1.383 . S
C1899 H1907 0.929 . S
C1900 C1899 1.383 . S
C1900 C1901 1.377 . S
C1901 H1885 0.930 . S
C1901 C1900 1.377 . S
C1901 C1902 1.379 . S
C1902 H1886 0.931 . S
C1902 C1896 1.383 . S
C1902 C1901 1.379 . S
H1903 C1897 0.959 . S
H1904 C1897 0.961 . S
H1905 C1897 0.960 . S
H1906 C1898 0.930 . S
H1907 C1899 0.929 . S
H1908 C1916 0.929 . S
H1909 C1918 0.930 . S
H1910 C1920 0.930 . S
H1911 C1923 0.929 . S
H1912 C1926 0.930 . S
H1913 C1928 0.960 . S
H1914 C1928 0.960 . S
H1915 C1928 0.960 . S
C1916 H1908 0.929 . S
C1916 C1917 1.377 . S
C1916 C1918 1.384 . S
C1917 C1916 1.377 . S
C1917 C1923 1.390 . S
C1918 H1909 0.930 . S
C1918 C1916 1.384 . S
C1918 C1919 1.372 . S
C1919 C1918 1.372 . S
C1919 C1920 1.400 . S
C1919 C1924 1.490 . S
C1920 H1910 0.930 . S
C1920 C1919 1.400 . S
C1920 C1923 1.386 . S
H1921 C1937 0.930 . S
H1922 C1938 0.931 . S
C1923 H1911 0.929 . S
C1923 C1917 1.390 . S
C1923 C1920 1.386 . S
C1924 C1919 1.490 . S
C1924 C1926 1.395 . S
C1924 C1927 1.403 . S
H1925 C1931 0.930 . S
C1926 H1912 0.930 . S
C1926 C1924 1.395 . S
C1926 C1929 1.403 . S
C1927 C1924 1.403 . S
C1927 C1928 1.524 . S
C1927 C1931 1.400 . S
C1928 H1913 0.960 . S
C1928 H1914 0.960 . S
C1928 H1915 0.960 . S
C1928 C1927 1.524 . S
C1929 C1926 1.403 . S
C1929 C1930 1.392 . S
C1929 C1933 1.495 . S
C1930 C1929 1.392 . S
C1930 C1931 1.385 . S
C1930 C1932 1.478 . S
C1931 H1925 0.930 . S
C1931 C1927 1.400 . S
C1931 C1930 1.385 . S
C1932 C1930 1.478 . S
C1932 C1934 1.381 . S
C1932 C1938 1.383 . S
C1933 C1929 1.495 . S
C1933 H1939 0.959 . S
C1933 H1940 0.961 . S
C1933 H1941 0.960 . S
C1934 C1932 1.381 . S
C1934 C1935 1.394 . S
C1934 H1942 0.930 . S
C1935 C1934 1.394 . S
C1935 C1936 1.383 . S
C1935 H1943 0.929 . S
C1936 C1935 1.383 . S
C1936 C1937 1.377 . S
C1937 H1921 0.930 . S
C1937 C1936 1.377 . S
C1937 C1938 1.379 . S
C1938 H1922 0.931 . S
C1938 C1932 1.383 . S
C1938 C1937 1.379 . S
H1939 C1933 0.959 . S
H1940 C1933 0.961 . S
H1941 C1933 0.960 . S
H1942 C1934 0.930 . S
H1943 C1935 0.929 . S
H1944 C1952 0.929 . S
H1945 C1954 0.930 . S
H1946 C1956 0.930 . S
H1947 C1959 0.929 1_565 S
H1948 C1962 0.930 . S
H1949 C1964 0.960 . S
H1950 C1964 0.960 . S
H1951 C1964 0.960 . S
C1952 H1944 0.929 . S
C1952 C1953 1.377 . S
C1952 C1954 1.384 . S
C1953 C1952 1.377 . S
C1953 C1959 1.390 . S
C1954 H1945 0.930 . S
C1954 C1952 1.384 . S
C1954 C1955 1.372 . S
C1955 C1954 1.372 . S
C1955 C1956 1.400 . S
C1955 C1960 1.490 . S
C1956 H1946 0.930 . S
C1956 C1955 1.400 . S
C1956 C1959 1.386 . S
H1957 C1973 0.930 . S
H1958 C1974 0.931 . S
C1959 H1947 0.929 1_545 S
C1959 C1953 1.390 . S
C1959 C1956 1.386 . S
C1960 C1955 1.490 . S
C1960 C1962 1.395 . S
C1960 C1963 1.403 . S
H1961 C1967 0.930 . S
C1962 H1948 0.930 . S
C1962 C1960 1.395 . S
C1962 C1965 1.403 . S
C1963 C1960 1.403 . S
C1963 C1964 1.524 . S
C1963 C1967 1.400 . S
C1964 H1949 0.960 . S
C1964 H1950 0.960 . S
C1964 H1951 0.960 . S
C1964 C1963 1.524 . S
C1965 C1962 1.403 . S
C1965 C1966 1.392 . S
C1965 C1969 1.495 1_655 S
C1966 C1965 1.392 . S
C1966 C1967 1.385 . S
C1966 C1968 1.462 1_655 S
C1967 H1961 0.930 . S
C1967 C1963 1.400 . S
C1967 C1966 1.385 . S
C1968 C1966 1.462 1_455 S
C1968 C1970 1.392 . S
C1968 C1974 1.386 1_455 S
C1969 C1965 1.495 1_455 S
C1969 H1975 0.959 . S
C1969 H1976 0.961 . S
C1969 H1977 0.960 . S
C1970 C1968 1.392 . S
C1970 C1971 1.394 . S
C1970 H1978 0.930 . S
C1971 C1970 1.394 . S
C1971 C1972 1.383 . S
C1971 H1979 0.929 . S
C1972 C1971 1.383 . S
C1972 C1973 1.377 . S
C1973 H1957 0.930 . S
C1973 C1972 1.377 . S
C1973 C1974 1.379 1_455 S
C1974 H1958 0.931 . S
C1974 C1968 1.386 1_655 S
C1974 C1973 1.379 1_655 S
H1975 C1969 0.959 . S
H1976 C1969 0.961 . S
H1977 C1969 0.960 . S
H1978 C1970 0.930 . S
H1979 C1971 0.929 . S
H1980 C1988 0.929 . S
H1981 C1990 0.930 . S
H1982 C1992 0.930 . S
H1983 C1995 0.929 . S
H1984 C1998 0.930 . S
H1985 C2000 0.960 . S
H1986 C2000 0.960 . S
H1987 C2000 0.960 . S
C1988 H1980 0.929 . S
C1988 C1989 1.377 . S
C1988 C1990 1.384 . S
C1989 C1988 1.377 . S
C1989 C1995 1.390 . S
C1990 H1981 0.930 . S
C1990 C1988 1.384 . S
C1990 C1991 1.372 . S
C1991 C1990 1.372 . S
C1991 C1992 1.400 . S
C1991 C1996 1.490 . S
C1992 H1982 0.930 . S
C1992 C1991 1.400 . S
C1992 C1995 1.386 . S
H1993 C2009 0.930 . S
H1994 C2010 0.931 . S
C1995 H1983 0.929 . S
C1995 C1989 1.390 . S
C1995 C1992 1.386 . S
C1996 C1991 1.490 . S
C1996 C1998 1.395 . S
C1996 C1999 1.403 . S
H1997 C2003 0.930 . S
C1998 H1984 0.930 . S
C1998 C1996 1.395 . S
C1998 C2001 1.403 . S
C1999 C1996 1.403 . S
C1999 C2000 1.524 . S
C1999 C2003 1.400 . S
C2000 H1985 0.960 . S
C2000 H1986 0.960 . S
C2000 H1987 0.960 . S
C2000 C1999 1.524 . S
C2001 C1998 1.403 . S
C2001 C2002 1.392 . S
C2001 C2005 1.495 . S
C2002 C2001 1.392 . S
C2002 C2003 1.385 . S
C2002 C2004 1.478 . S
C2003 H1997 0.930 . S
C2003 C1999 1.400 . S
C2003 C2002 1.385 . S
C2004 C2002 1.478 . S
C2004 C2006 1.381 . S
C2004 C2010 1.383 . S
C2005 C2001 1.495 . S
C2005 H2011 0.959 . S
C2005 H2012 0.961 . S
C2005 H2013 0.960 . S
C2006 C2004 1.381 . S
C2006 C2007 1.394 . S
C2006 H2014 0.930 . S
C2007 C2006 1.394 . S
C2007 C2008 1.383 . S
C2007 H2015 0.929 . S
C2008 C2007 1.383 . S
C2008 C2009 1.377 . S
C2009 H1993 0.930 . S
C2009 C2008 1.377 . S
C2009 C2010 1.379 . S
C2010 H1994 0.931 . S
C2010 C2004 1.383 . S
C2010 C2009 1.379 . S
H2011 C2005 0.959 . S
H2012 C2005 0.961 . S
H2013 C2005 0.960 . S
H2014 C2006 0.930 . S
H2015 C2007 0.929 . S
H2016 C2024 0.929 . S
H2017 C2026 0.930 . S
H2018 C2028 0.930 . S
H2019 C2031 0.929 . S
H2020 C2034 0.929 . S
H2021 C2036 0.960 . S
H2022 C2036 0.960 . S
H2023 C2036 0.960 . S
C2024 H2016 0.929 . S
C2024 C2025 1.377 . S
C2024 C2026 1.384 . S
C2025 C2024 1.377 . S
C2025 C2031 1.390 . S
C2026 H2017 0.930 . S
C2026 C2024 1.384 . S
C2026 C2027 1.372 . S
C2027 C2026 1.372 . S
C2027 C2028 1.400 . S
C2027 C2032 1.490 . S
C2028 H2018 0.930 . S
C2028 C2027 1.400 . S
C2028 C2031 1.386 . S
H2029 C2045 0.930 . S
H2030 C2046 0.931 . S
C2031 H2019 0.929 . S
C2031 C2025 1.390 . S
C2031 C2028 1.386 . S
C2032 C2027 1.490 . S
C2032 C2034 1.395 . S
C2032 C2035 1.403 . S
H2033 C2039 0.930 . S
C2034 H2020 0.929 . S
C2034 C2032 1.395 . S
C2034 C2037 1.403 . S
C2035 C2032 1.403 . S
C2035 C2036 1.524 . S
C2035 C2039 1.400 . S
C2036 H2021 0.960 . S
C2036 H2022 0.960 . S
C2036 H2023 0.960 . S
C2036 C2035 1.524 . S
C2037 C2034 1.403 . S
C2037 C2038 1.392 . S
C2037 C2041 1.495 1_545 S
C2038 C2037 1.392 . S
C2038 C2039 1.385 . S
C2038 C2040 1.478 . S
C2039 H2033 0.930 . S
C2039 C2035 1.400 . S
C2039 C2038 1.385 . S
C2040 C2038 1.478 . S
C2040 C2042 1.381 . S
C2040 C2046 1.383 . S
C2041 C2037 1.495 1_565 S
C2041 H2047 0.959 . S
C2041 H2048 0.961 . S
C2041 H2049 0.960 . S
C2042 C2040 1.381 . S
C2042 C2043 1.394 . S
C2042 H2050 0.930 1_545 S
C2043 C2042 1.394 . S
C2043 C2044 1.383 . S
C2043 H2051 0.929 1_545 S
C2044 C2043 1.383 . S
C2044 C2045 1.377 . S
C2045 H2029 0.930 . S
C2045 C2044 1.377 . S
C2045 C2046 1.379 . S
C2046 H2030 0.931 . S
C2046 C2040 1.383 . S
C2046 C2045 1.379 . S
H2047 C2041 0.959 . S
H2048 C2041 0.961 . S
H2049 C2041 0.960 . S
H2050 C2042 0.930 1_565 S
H2051 C2043 0.929 1_565 S
H2052 C2060 0.929 . S
H2053 C2062 0.930 . S
H2054 C2064 0.930 . S
H2055 C2067 0.929 . S
H2056 C2070 0.930 . S
H2057 C2072 0.960 . S
H2058 C2072 0.960 . S
H2059 C2072 0.960 . S
C2060 H2052 0.929 . S
C2060 C2061 1.377 . S
C2060 C2062 1.384 . S
C2061 C2060 1.377 . S
C2061 C2067 1.390 . S
C2062 H2053 0.930 . S
C2062 C2060 1.384 . S
C2062 C2063 1.372 . S
C2063 C2062 1.372 . S
C2063 C2064 1.400 . S
C2063 C2068 1.490 . S
C2064 H2054 0.930 . S
C2064 C2063 1.400 . S
C2064 C2067 1.386 . S
H2065 C2081 0.930 . S
H2066 C2082 0.931 . S
C2067 H2055 0.929 . S
C2067 C2061 1.390 . S
C2067 C2064 1.386 . S
C2068 C2063 1.490 . S
C2068 C2070 1.395 . S
C2068 C2071 1.403 . S
H2069 C2075 0.930 . S
C2070 H2056 0.930 . S
C2070 C2068 1.395 . S
C2070 C2073 1.403 . S
C2071 C2068 1.403 . S
C2071 C2072 1.524 . S
C2071 C2075 1.400 . S
C2072 H2057 0.960 . S
C2072 H2058 0.960 . S
C2072 H2059 0.960 . S
C2072 C2071 1.524 . S
C2073 C2070 1.403 . S
C2073 C2074 1.392 . S
C2073 C2077 1.495 . S
C2074 C2073 1.392 . S
C2074 C2075 1.385 . S
C2074 C2076 1.478 . S
C2075 H2069 0.930 . S
C2075 C2071 1.400 . S
C2075 C2074 1.385 . S
C2076 C2074 1.478 . S
C2076 C2078 1.381 . S
C2076 C2082 1.383 . S
C2077 C2073 1.495 . S
C2077 H2083 0.959 . S
C2077 H2084 0.961 . S
C2077 H2085 0.960 . S
C2078 C2076 1.381 . S
C2078 C2079 1.394 . S
C2078 H2086 0.930 . S
C2079 C2078 1.394 . S
C2079 C2080 1.383 . S
C2079 H2087 0.929 . S
C2080 C2079 1.383 . S
C2080 C2081 1.377 . S
C2081 H2065 0.930 . S
C2081 C2080 1.377 . S
C2081 C2082 1.379 . S
C2082 H2066 0.931 . S
C2082 C2076 1.383 . S
C2082 C2081 1.379 . S
H2083 C2077 0.959 . S
H2084 C2077 0.961 . S
H2085 C2077 0.960 . S
H2086 C2078 0.930 . S
H2087 C2079 0.929 . S
H2088 C2096 0.929 1_565 S
H2089 C2098 0.885 1_565 S
H2090 C2100 0.930 . S
H2091 C2103 0.929 . S
H2092 C2106 0.906 1_565 S
H2093 C2108 0.960 . S
H2094 C2108 0.960 . S
H2095 C2108 0.960 . S
C2096 H2088 0.929 1_545 S
C2096 C2097 1.377 . S
C2096 C2098 1.396 . S
C2097 C2096 1.377 . S
C2097 C2103 1.390 . S
C2098 H2089 0.885 1_545 S
C2098 C2096 1.396 . S
C2098 C2099 1.406 . S
C2099 C2098 1.406 . S
C2099 C2100 1.400 . S
C2099 C2104 1.490 . S
C2100 H2090 0.930 . S
C2100 C2099 1.400 . S
C2100 C2103 1.386 . S
H2101 C2117 0.930 . S
H2102 C2118 0.931 . S
C2103 H2091 0.929 . S
C2103 C2097 1.390 . S
C2103 C2100 1.386 . S
C2104 C2099 1.490 . S
C2104 C2106 1.427 . S
C2104 C2107 1.403 . S
H2105 C2111 0.930 . S
C2106 H2092 0.906 1_545 S
C2106 C2104 1.427 . S
C2106 C2109 1.388 1_545 S
C2107 C2104 1.403 . S
C2107 C2108 1.524 . S
C2107 C2111 1.400 . S
C2108 H2093 0.960 . S
C2108 H2094 0.960 . S
C2108 H2095 0.960 . S
C2108 C2107 1.524 . S
C2109 C2106 1.388 1_565 S
C2109 C2110 1.373 1_565 S
C2109 C2113 1.522 . S
C2110 C2109 1.373 1_545 S
C2110 C2111 1.385 . S
C2110 C2112 1.478 . S
C2111 H2105 0.930 . S
C2111 C2107 1.400 . S
C2111 C2110 1.385 . S
C2112 C2110 1.478 . S
C2112 C2114 1.377 . S
C2112 C2118 1.383 1_655 S
C2113 C2109 1.522 . S
C2113 H2119 0.959 . S
C2113 H2120 0.961 1_655 S
C2113 H2121 0.960 . S
C2114 C2112 1.377 . S
C2114 C2115 1.382 1_655 S
C2114 H2122 0.933 1_545 S
C2115 C2114 1.382 1_455 S
C2115 C2116 1.405 . S
C2115 H2123 0.922 1_445 S
C2116 C2115 1.405 . S
C2116 C2117 1.377 . S
C2117 H2101 0.930 . S
C2117 C2116 1.377 . S
C2117 C2118 1.379 . S
C2118 H2102 0.931 . S
C2118 C2112 1.383 1_455 S
C2118 C2117 1.379 . S
H2119 C2113 0.959 . S
H2120 C2113 0.961 1_455 S
H2121 C2113 0.960 . S
H2122 C2114 0.933 1_565 S
H2123 C2115 0.922 1_665 S
H2124 C2132 0.929 . S
H2125 C2134 0.930 . S
H2126 C2136 0.930 . S
H2127 C2139 0.929 . S
H2128 C2142 0.930 . S
H2129 C2144 0.960 . S
H2130 C2144 0.960 . S
H2131 C2144 0.960 . S
C2132 H2124 0.929 . S
C2132 C2133 1.377 . S
C2132 C2134 1.384 . S
C2133 C2132 1.377 . S
C2133 C2139 1.390 . S
C2134 H2125 0.930 . S
C2134 C2132 1.384 . S
C2134 C2135 1.372 . S
C2135 C2134 1.372 . S
C2135 C2136 1.400 . S
C2135 C2140 1.490 . S
C2136 H2126 0.930 . S
C2136 C2135 1.400 . S
C2136 C2139 1.386 . S
H2137 C2153 0.930 . S
H2138 C2154 0.931 . S
C2139 H2127 0.929 . S
C2139 C2133 1.390 . S
C2139 C2136 1.386 . S
C2140 C2135 1.490 . S
C2140 C2142 1.395 . S
C2140 C2143 1.403 . S
H2141 C2147 0.930 . S
C2142 H2128 0.930 . S
C2142 C2140 1.395 . S
C2142 C2145 1.403 . S
C2143 C2140 1.403 . S
C2143 C2144 1.524 . S
C2143 C2147 1.400 . S
C2144 H2129 0.960 . S
C2144 H2130 0.960 . S
C2144 H2131 0.960 . S
C2144 C2143 1.524 . S
C2145 C2142 1.403 . S
C2145 C2146 1.392 . S
C2145 C2149 1.495 . S
C2146 C2145 1.392 . S
C2146 C2147 1.385 . S
C2146 C2148 1.478 . S
C2147 H2141 0.930 . S
C2147 C2143 1.400 . S
C2147 C2146 1.385 . S
C2148 C2146 1.478 . S
C2148 C2150 1.381 . S
C2148 C2154 1.383 . S
C2149 C2145 1.495 . S
C2149 H2155 0.959 . S
C2149 H2156 0.961 . S
C2149 H2157 0.960 . S
C2150 C2148 1.381 . S
C2150 C2151 1.394 . S
C2150 H2158 0.930 . S
C2151 C2150 1.394 . S
C2151 C2152 1.383 . S
C2151 H2159 0.929 . S
C2152 C2151 1.383 . S
C2152 C2153 1.377 . S
C2153 H2137 0.930 . S
C2153 C2152 1.377 . S
C2153 C2154 1.379 . S
C2154 H2138 0.931 . S
C2154 C2148 1.383 . S
C2154 C2153 1.379 . S
H2155 C2149 0.959 . S
H2156 C2149 0.961 . S
H2157 C2149 0.960 . S
H2158 C2150 0.930 . S
H2159 C2151 0.929 . S
H2160 C2168 0.929 . S
H2161 C2170 0.930 . S
H2162 C2172 0.930 . S
H2163 C2175 0.929 . S
H2164 C2178 0.930 . S
H2165 C2180 0.960 . S
H2166 C2180 0.960 . S
H2167 C2180 0.960 . S
C2168 H2160 0.929 . S
C2168 C2169 1.377 . S
C2168 C2170 1.384 . S
C2169 C2168 1.377 . S
C2169 C2175 1.390 . S
C2170 H2161 0.930 . S
C2170 C2168 1.384 . S
C2170 C2171 1.372 . S
C2171 C2170 1.372 . S
C2171 C2172 1.400 . S
C2171 C2176 1.490 . S
C2172 H2162 0.930 . S
C2172 C2171 1.400 . S
C2172 C2175 1.386 . S
H2173 C2189 0.930 . S
H2174 C2190 0.931 . S
C2175 H2163 0.929 . S
C2175 C2169 1.390 . S
C2175 C2172 1.386 . S
C2176 C2171 1.490 . S
C2176 C2178 1.395 . S
C2176 C2179 1.403 . S
H2177 C2183 0.930 . S
C2178 H2164 0.930 . S
C2178 C2176 1.395 . S
C2178 C2181 1.403 . S
C2179 C2176 1.403 . S
C2179 C2180 1.524 . S
C2179 C2183 1.400 . S
C2180 H2165 0.960 . S
C2180 H2166 0.960 . S
C2180 H2167 0.960 . S
C2180 C2179 1.524 . S
C2181 C2178 1.403 . S
C2181 C2182 1.392 . S
C2181 C2185 1.495 . S
C2182 C2181 1.392 . S
C2182 C2183 1.385 . S
C2182 C2184 1.478 . S
C2183 H2177 0.930 . S
C2183 C2179 1.400 . S
C2183 C2182 1.385 . S
C2184 C2182 1.478 . S
C2184 C2186 1.381 . S
C2184 C2190 1.383 . S
C2185 C2181 1.495 . S
C2185 H2191 0.959 . S
C2185 H2192 0.961 . S
C2185 H2193 0.960 . S
C2186 C2184 1.381 . S
C2186 C2187 1.394 . S
C2186 H2194 0.930 . S
C2187 C2186 1.394 . S
C2187 C2188 1.383 . S
C2187 H2195 0.929 . S
C2188 C2187 1.383 . S
C2188 C2189 1.377 . S
C2189 H2173 0.930 . S
C2189 C2188 1.377 . S
C2189 C2190 1.379 . S
C2190 H2174 0.931 . S
C2190 C2184 1.383 . S
C2190 C2189 1.379 . S
H2191 C2185 0.959 . S
H2192 C2185 0.961 . S
H2193 C2185 0.960 . S
H2194 C2186 0.930 . S
H2195 C2187 0.929 . S
H2196 C2204 0.929 . S
H2197 C2206 0.930 . S
H2198 C2208 0.930 . S
H2199 C2211 0.929 . S
H2200 C2214 0.930 . S
H2201 C2216 0.960 . S
H2202 C2216 0.960 . S
H2203 C2216 0.960 . S
C2204 H2196 0.929 . S
C2204 C2205 1.377 . S
C2204 C2206 1.384 . S
C2205 C2204 1.377 . S
C2205 C2211 1.390 . S
C2206 H2197 0.930 . S
C2206 C2204 1.384 . S
C2206 C2207 1.372 . S
C2207 C2206 1.372 . S
C2207 C2208 1.400 . S
C2207 C2212 1.490 . S
C2208 H2198 0.930 . S
C2208 C2207 1.400 . S
C2208 C2211 1.386 . S
H2209 C2225 0.930 . S
H2210 C2226 0.931 . S
C2211 H2199 0.929 . S
C2211 C2205 1.390 . S
C2211 C2208 1.386 . S
C2212 C2207 1.490 . S
C2212 C2214 1.395 . S
C2212 C2215 1.403 . S
H2213 C2219 0.930 . S
C2214 H2200 0.930 . S
C2214 C2212 1.395 . S
C2214 C2217 1.403 . S
C2215 C2212 1.403 . S
C2215 C2216 1.524 . S
C2215 C2219 1.400 . S
C2216 H2201 0.960 . S
C2216 H2202 0.960 . S
C2216 H2203 0.960 . S
C2216 C2215 1.524 . S
C2217 C2214 1.403 . S
C2217 C2218 1.392 . S
C2217 C2221 1.495 . S
C2218 C2217 1.392 . S
C2218 C2219 1.385 . S
C2218 C2220 1.478 . S
C2219 H2213 0.930 . S
C2219 C2215 1.400 . S
C2219 C2218 1.385 . S
C2220 C2218 1.478 . S
C2220 C2222 1.381 . S
C2220 C2226 1.383 . S
C2221 C2217 1.495 . S
C2221 H2227 0.959 . S
C2221 H2228 0.961 . S
C2221 H2229 0.960 . S
C2222 C2220 1.381 . S
C2222 C2223 1.394 . S
C2222 H2230 0.930 . S
C2223 C2222 1.394 . S
C2223 C2224 1.383 . S
C2223 H2231 0.929 . S
C2224 C2223 1.383 . S
C2224 C2225 1.377 . S
C2225 H2209 0.930 . S
C2225 C2224 1.377 . S
C2225 C2226 1.379 . S
C2226 H2210 0.931 . S
C2226 C2220 1.383 . S
C2226 C2225 1.379 . S
H2227 C2221 0.959 . S
H2228 C2221 0.961 . S
H2229 C2221 0.960 . S
H2230 C2222 0.930 . S
H2231 C2223 0.929 . S
H2232 C2240 0.929 . S
H2233 C2242 0.930 . S
H2234 C2244 0.930 . S
H2235 C2247 0.929 1_556 S
H2236 C2250 0.930 . S
H2237 C2252 0.960 . S
H2238 C2252 0.960 . S
H2239 C2252 0.960 . S
C2240 H2232 0.929 . S
C2240 C2241 1.377 . S
C2240 C2242 1.384 . S
C2241 C2240 1.377 . S
C2241 C2247 1.390 . S
C2242 H2233 0.930 . S
C2242 C2240 1.384 . S
C2242 C2243 1.372 . S
C2243 C2242 1.372 . S
C2243 C2244 1.400 . S
C2243 C2248 1.490 . S
C2244 H2234 0.930 . S
C2244 C2243 1.400 . S
C2244 C2247 1.386 . S
H2245 C2261 0.930 . S
H2246 C2262 0.931 . S
C2247 H2235 0.929 1_554 S
C2247 C2241 1.390 . S
C2247 C2244 1.386 . S
C2248 C2243 1.490 . S
C2248 C2250 1.395 . S
C2248 C2251 1.403 . S
H2249 C2255 0.930 . S
C2250 H2236 0.930 . S
C2250 C2248 1.395 . S
C2250 C2253 1.403 . S
C2251 C2248 1.403 . S
C2251 C2252 1.524 . S
C2251 C2255 1.400 . S
C2252 H2237 0.960 . S
C2252 H2238 0.960 . S
C2252 H2239 0.960 . S
C2252 C2251 1.524 . S
C2253 C2250 1.403 . S
C2253 C2254 1.392 . S
C2253 C2257 1.495 1_565 S
C2254 C2253 1.392 . S
C2254 C2255 1.385 . S
C2254 C2256 1.478 . S
C2255 H2249 0.930 . S
C2255 C2251 1.400 . S
C2255 C2254 1.385 . S
C2256 C2254 1.478 . S
C2256 C2258 1.381 1_565 S
C2256 C2262 1.383 . S
C2257 C2253 1.495 1_545 S
C2257 H2263 0.959 1_554 S
C2257 H2264 0.961 1_554 S
C2257 H2265 0.960 . S
C2258 C2256 1.381 1_545 S
C2258 C2259 1.394 . S
C2258 H2266 0.930 . S
C2259 C2258 1.394 . S
C2259 C2260 1.383 . S
C2259 H2267 0.929 . S
C2260 C2259 1.383 . S
C2260 C2261 1.377 1_545 S
C2261 H2245 0.930 . S
C2261 C2260 1.377 1_565 S
C2261 C2262 1.379 . S
C2262 H2246 0.931 . S
C2262 C2256 1.383 . S
C2262 C2261 1.379 . S
H2263 C2257 0.959 1_556 S
H2264 C2257 0.961 1_556 S
H2265 C2257 0.960 . S
H2266 C2258 0.930 . S
H2267 C2259 0.929 . S
H2268 C2276 0.929 . S
H2269 C2278 0.930 . S
H2270 C2280 0.930 . S
H2271 C2283 0.929 . S
H2272 C2286 0.930 . S
H2273 C2288 0.960 . S
H2274 C2288 0.960 . S
H2275 C2288 0.960 . S
C2276 H2268 0.929 . S
C2276 C2277 1.374 1_556 S
C2276 C2278 1.384 . S
C2277 C2276 1.374 1_554 S
C2277 C2283 1.394 . S
C2278 H2269 0.930 . S
C2278 C2276 1.384 . S
C2278 C2279 1.372 1_556 S
C2279 C2278 1.372 1_554 S
C2279 C2280 1.400 . S
C2279 C2284 1.490 . S
C2280 H2270 0.930 . S
C2280 C2279 1.400 . S
C2280 C2283 1.386 . S
H2281 C2297 0.930 . S
H2282 C2298 0.931 . S
C2283 H2271 0.929 . S
C2283 C2277 1.394 . S
C2283 C2280 1.386 . S
C2284 C2279 1.490 . S
C2284 C2286 1.395 . S
C2284 C2287 1.403 1_554 S
H2285 C2291 0.930 . S
C2286 H2272 0.930 . S
C2286 C2284 1.395 . S
C2286 C2289 1.403 . S
C2287 C2284 1.403 1_556 S
C2287 C2288 1.524 . S
C2287 C2291 1.400 . S
C2288 H2273 0.960 . S
C2288 H2274 0.960 . S
C2288 H2275 0.960 . S
C2288 C2287 1.524 . S
C2289 C2286 1.403 . S
C2289 C2290 1.392 . S
C2289 C2293 1.495 . S
C2290 C2289 1.392 . S
C2290 C2291 1.385 1_554 S
C2290 C2292 1.478 . S
C2291 H2285 0.930 . S
C2291 C2287 1.400 . S
C2291 C2290 1.385 1_556 S
C2292 C2290 1.478 . S
C2292 C2294 1.381 1_554 S
C2292 C2298 1.383 . S
C2293 C2289 1.495 . S
C2293 H2299 0.959 . S
C2293 H2300 0.961 . S
C2293 H2301 0.960 . S
C2294 C2292 1.381 1_556 S
C2294 C2295 1.394 . S
C2294 H2302 0.930 . S
C2295 C2294 1.394 . S
C2295 C2296 1.383 1_556 S
C2295 H2303 0.929 . S
C2296 C2295 1.383 1_554 S
C2296 C2297 1.377 . S
C2297 H2281 0.930 . S
C2297 C2296 1.377 . S
C2297 C2298 1.379 . S
C2298 H2282 0.931 . S
C2298 C2292 1.383 . S
C2298 C2297 1.379 . S
H2299 C2293 0.959 . S
H2300 C2293 0.961 . S
H2301 C2293 0.960 . S
H2302 C2294 0.930 . S
H2303 C2295 0.929 . S
H2304 C2312 0.929 . S
H2305 C2314 0.930 . S
H2306 C2316 0.930 . S
H2307 C2319 0.929 . S
H2308 C2322 0.930 . S
H2309 C2324 0.960 . S
H2310 C2324 0.960 . S
H2311 C2324 0.960 . S
C2312 H2304 0.929 . S
C2312 C2313 1.377 . S
C2312 C2314 1.384 . S
C2313 C2312 1.377 . S
C2313 C2319 1.390 . S
C2314 H2305 0.930 . S
C2314 C2312 1.384 . S
C2314 C2315 1.372 . S
C2315 C2314 1.372 . S
C2315 C2316 1.400 . S
C2315 C2320 1.490 . S
C2316 H2306 0.930 . S
C2316 C2315 1.400 . S
C2316 C2319 1.386 . S
H2317 C2333 0.930 . S
H2318 C2334 0.931 . S
C2319 H2307 0.929 . S
C2319 C2313 1.390 . S
C2319 C2316 1.386 . S
C2320 C2315 1.490 . S
C2320 C2322 1.395 . S
C2320 C2323 1.403 . S
H2321 C2327 0.930 . S
C2322 H2308 0.930 . S
C2322 C2320 1.395 . S
C2322 C2325 1.403 . S
C2323 C2320 1.403 . S
C2323 C2324 1.524 . S
C2323 C2327 1.400 . S
C2324 H2309 0.960 . S
C2324 H2310 0.960 . S
C2324 H2311 0.960 . S
C2324 C2323 1.524 . S
C2325 C2322 1.403 . S
C2325 C2326 1.392 . S
C2325 C2329 1.495 . S
C2326 C2325 1.392 . S
C2326 C2327 1.385 . S
C2326 C2328 1.478 . S
C2327 H2321 0.930 . S
C2327 C2323 1.400 . S
C2327 C2326 1.385 . S
C2328 C2326 1.478 . S
C2328 C2330 1.381 . S
C2328 C2334 1.383 . S
C2329 C2325 1.495 . S
C2329 H2335 0.959 . S
C2329 H2336 0.961 . S
C2329 H2337 0.960 . S
C2330 C2328 1.381 . S
C2330 C2331 1.394 . S
C2330 H2338 0.930 . S
C2331 C2330 1.394 . S
C2331 C2332 1.383 . S
C2331 H2339 0.929 . S
C2332 C2331 1.383 . S
C2332 C2333 1.377 . S
C2333 H2317 0.930 . S
C2333 C2332 1.377 . S
C2333 C2334 1.379 . S
C2334 H2318 0.931 . S
C2334 C2328 1.383 . S
C2334 C2333 1.379 . S
H2335 C2329 0.959 . S
H2336 C2329 0.961 . S
H2337 C2329 0.960 . S
H2338 C2330 0.930 . S
H2339 C2331 0.929 . S
H2340 C2348 0.929 . S
H2341 C2350 0.930 . S
H2342 C2352 0.930 . S
H2343 C2355 0.929 . S
H2344 C2358 0.930 . S
H2345 C2360 0.960 . S
H2346 C2360 0.960 . S
H2347 C2360 0.960 . S
C2348 H2340 0.929 . S
C2348 C2349 1.377 . S
C2348 C2350 1.384 . S
C2349 C2348 1.377 . S
C2349 C2355 1.390 . S
C2350 H2341 0.930 . S
C2350 C2348 1.384 . S
C2350 C2351 1.372 . S
C2351 C2350 1.372 . S
C2351 C2352 1.400 . S
C2351 C2356 1.490 . S
C2352 H2342 0.930 . S
C2352 C2351 1.400 . S
C2352 C2355 1.386 . S
H2353 C2369 0.930 . S
H2354 C2370 0.931 . S
C2355 H2343 0.929 . S
C2355 C2349 1.390 . S
C2355 C2352 1.386 . S
C2356 C2351 1.490 . S
C2356 C2358 1.395 . S
C2356 C2359 1.403 . S
H2357 C2363 0.930 . S
C2358 H2344 0.930 . S
C2358 C2356 1.395 . S
C2358 C2361 1.403 . S
C2359 C2356 1.403 . S
C2359 C2360 1.524 . S
C2359 C2363 1.400 . S
C2360 H2345 0.960 . S
C2360 H2346 0.960 . S
C2360 H2347 0.960 . S
C2360 C2359 1.524 . S
C2361 C2358 1.403 . S
C2361 C2362 1.392 . S
C2361 C2365 1.495 . S
C2362 C2361 1.392 . S
C2362 C2363 1.385 . S
C2362 C2364 1.478 . S
C2363 H2357 0.930 . S
C2363 C2359 1.400 . S
C2363 C2362 1.385 . S
C2364 C2362 1.478 . S
C2364 C2366 1.381 . S
C2364 C2370 1.383 . S
C2365 C2361 1.495 . S
C2365 H2371 0.959 . S
C2365 H2372 0.961 . S
C2365 H2373 0.960 . S
C2366 C2364 1.381 . S
C2366 C2367 1.394 . S
C2366 H2374 0.930 . S
C2367 C2366 1.394 . S
C2367 C2368 1.383 . S
C2367 H2375 0.929 . S
C2368 C2367 1.383 . S
C2368 C2369 1.377 . S
C2369 H2353 0.930 . S
C2369 C2368 1.377 . S
C2369 C2370 1.379 . S
C2370 H2354 0.931 . S
C2370 C2364 1.383 . S
C2370 C2369 1.379 . S
H2371 C2365 0.959 . S
H2372 C2365 0.961 . S
H2373 C2365 0.960 . S
H2374 C2366 0.930 . S
H2375 C2367 0.929 . S
H2376 C2384 0.929 . S
H2377 C2386 0.930 . S
H2378 C2388 0.930 . S
H2379 C2391 0.929 . S
H2380 C2394 0.930 . S
H2381 C2396 0.960 . S
H2382 C2396 0.960 . S
H2383 C2396 0.960 . S
C2384 H2376 0.929 . S
C2384 C2385 1.377 . S
C2384 C2386 1.384 . S
C2385 C2384 1.377 . S
C2385 C2391 1.390 . S
C2386 H2377 0.930 . S
C2386 C2384 1.384 . S
C2386 C2387 1.372 . S
C2387 C2386 1.372 . S
C2387 C2388 1.400 . S
C2387 C2392 1.490 . S
C2388 H2378 0.930 . S
C2388 C2387 1.400 . S
C2388 C2391 1.386 . S
H2389 C2405 0.930 . S
H2390 C2406 0.931 . S
C2391 H2379 0.929 . S
C2391 C2385 1.390 . S
C2391 C2388 1.386 . S
C2392 C2387 1.490 . S
C2392 C2394 1.395 . S
C2392 C2395 1.403 . S
H2393 C2399 0.930 . S
C2394 H2380 0.930 . S
C2394 C2392 1.395 . S
C2394 C2397 1.403 . S
C2395 C2392 1.403 . S
C2395 C2396 1.524 . S
C2395 C2399 1.400 . S
C2396 H2381 0.960 . S
C2396 H2382 0.960 . S
C2396 H2383 0.960 . S
C2396 C2395 1.524 . S
C2397 C2394 1.403 . S
C2397 C2398 1.392 . S
C2397 C2401 1.495 . S
C2398 C2397 1.392 . S
C2398 C2399 1.385 . S
C2398 C2400 1.478 . S
C2399 H2393 0.930 . S
C2399 C2395 1.400 . S
C2399 C2398 1.385 . S
C2400 C2398 1.478 . S
C2400 C2402 1.381 . S
C2400 C2406 1.383 . S
C2401 C2397 1.495 . S
C2401 H2407 0.959 . S
C2401 H2408 0.961 . S
C2401 H2409 0.960 . S
C2402 C2400 1.381 . S
C2402 C2403 1.394 . S
C2402 H2410 0.930 . S
C2403 C2402 1.394 . S
C2403 C2404 1.383 . S
C2403 H2411 0.929 . S
C2404 C2403 1.383 . S
C2404 C2405 1.377 . S
C2405 H2389 0.930 . S
C2405 C2404 1.377 . S
C2405 C2406 1.379 . S
C2406 H2390 0.931 . S
C2406 C2400 1.383 . S
C2406 C2405 1.379 . S
H2407 C2401 0.959 . S
H2408 C2401 0.961 . S
H2409 C2401 0.960 . S
H2410 C2402 0.930 . S
H2411 C2403 0.929 . S
H2412 C2420 0.929 . S
H2413 C2422 0.930 . S
H2414 C2424 0.930 . S
H2415 C2427 0.929 . S
H2416 C2430 0.930 . S
H2417 C2432 0.960 . S
H2418 C2432 0.960 . S
H2419 C2432 0.960 . S
C2420 H2412 0.929 . S
C2420 C2421 1.377 . S
C2420 C2422 1.384 . S
C2421 C2420 1.377 . S
C2421 C2427 1.390 . S
C2422 H2413 0.930 . S
C2422 C2420 1.384 . S
C2422 C2423 1.372 . S
C2423 C2422 1.372 . S
C2423 C2424 1.400 . S
C2423 C2428 1.490 . S
C2424 H2414 0.930 . S
C2424 C2423 1.400 . S
C2424 C2427 1.386 . S
H2425 C2441 0.930 . S
H2426 C2442 0.931 . S
C2427 H2415 0.929 . S
C2427 C2421 1.390 . S
C2427 C2424 1.386 . S
C2428 C2423 1.490 . S
C2428 C2430 1.395 . S
C2428 C2431 1.403 . S
H2429 C2435 0.930 . S
C2430 H2416 0.930 . S
C2430 C2428 1.395 . S
C2430 C2433 1.403 . S
C2431 C2428 1.403 . S
C2431 C2432 1.524 . S
C2431 C2435 1.400 . S
C2432 H2417 0.960 . S
C2432 H2418 0.960 . S
C2432 H2419 0.960 . S
C2432 C2431 1.524 . S
C2433 C2430 1.403 . S
C2433 C2434 1.392 . S
C2433 C2437 1.495 . S
C2434 C2433 1.392 . S
C2434 C2435 1.385 . S
C2434 C2436 1.478 . S
C2435 H2429 0.930 . S
C2435 C2431 1.400 . S
C2435 C2434 1.385 . S
C2436 C2434 1.478 . S
C2436 C2438 1.381 . S
C2436 C2442 1.383 . S
C2437 C2433 1.495 . S
C2437 H2443 0.959 . S
C2437 H2444 0.961 . S
C2437 H2445 0.960 . S
C2438 C2436 1.381 . S
C2438 C2439 1.394 . S
C2438 H2446 0.930 . S
C2439 C2438 1.394 . S
C2439 C2440 1.383 . S
C2439 H2447 0.929 . S
C2440 C2439 1.383 . S
C2440 C2441 1.377 . S
C2441 H2425 0.930 . S
C2441 C2440 1.377 . S
C2441 C2442 1.379 . S
C2442 H2426 0.931 . S
C2442 C2436 1.383 . S
C2442 C2441 1.379 . S
H2443 C2437 0.959 . S
H2444 C2437 0.961 . S
H2445 C2437 0.960 . S
H2446 C2438 0.930 . S
H2447 C2439 0.929 . S
H2448 C2456 0.929 . S
H2449 C2458 0.930 . S
H2450 C2460 0.930 . S
H2451 C2463 0.929 . S
H2452 C2466 0.930 . S
H2453 C2468 0.960 . S
H2454 C2468 0.960 . S
H2455 C2468 0.960 . S
C2456 H2448 0.929 . S
C2456 C2457 1.377 . S
C2456 C2458 1.384 . S
C2457 C2456 1.377 . S
C2457 C2463 1.390 . S
C2458 H2449 0.930 . S
C2458 C2456 1.384 . S
C2458 C2459 1.372 . S
C2459 C2458 1.372 . S
C2459 C2460 1.400 . S
C2459 C2464 1.490 . S
C2460 H2450 0.930 . S
C2460 C2459 1.400 . S
C2460 C2463 1.386 . S
H2461 C2477 0.930 . S
H2462 C2478 0.931 . S
C2463 H2451 0.929 . S
C2463 C2457 1.390 . S
C2463 C2460 1.386 . S
C2464 C2459 1.490 . S
C2464 C2466 1.395 . S
C2464 C2467 1.403 . S
H2465 C2471 0.930 . S
C2466 H2452 0.930 . S
C2466 C2464 1.395 . S
C2466 C2469 1.403 . S
C2467 C2464 1.403 . S
C2467 C2468 1.524 . S
C2467 C2471 1.400 . S
C2468 H2453 0.960 . S
C2468 H2454 0.960 . S
C2468 H2455 0.960 . S
C2468 C2467 1.524 . S
C2469 C2466 1.403 . S
C2469 C2470 1.392 . S
C2469 C2473 1.495 . S
C2470 C2469 1.392 . S
C2470 C2471 1.385 . S
C2470 C2472 1.478 . S
C2471 H2465 0.930 . S
C2471 C2467 1.400 . S
C2471 C2470 1.385 . S
C2472 C2470 1.478 . S
C2472 C2474 1.381 . S
C2472 C2478 1.383 . S
C2473 C2469 1.495 . S
C2473 H2479 0.959 . S
C2473 H2480 0.961 . S
C2473 H2481 0.960 . S
C2474 C2472 1.381 . S
C2474 C2475 1.394 . S
C2474 H2482 0.930 . S
C2475 C2474 1.394 . S
C2475 C2476 1.383 . S
C2475 H2483 0.929 . S
C2476 C2475 1.383 . S
C2476 C2477 1.377 . S
C2477 H2461 0.930 . S
C2477 C2476 1.377 . S
C2477 C2478 1.379 . S
C2478 H2462 0.931 . S
C2478 C2472 1.383 . S
C2478 C2477 1.379 . S
H2479 C2473 0.959 . S
H2480 C2473 0.961 . S
H2481 C2473 0.960 . S
H2482 C2474 0.930 . S
H2483 C2475 0.929 . S
H2484 C2492 0.929 . S
H2485 C2494 0.930 . S
H2486 C2496 0.930 . S
H2487 C2499 0.929 . S
H2488 C2502 0.930 . S
H2489 C2504 0.960 . S
H2490 C2504 0.960 . S
H2491 C2504 0.960 . S
C2492 H2484 0.929 . S
C2492 C2493 1.377 . S
C2492 C2494 1.384 . S
C2493 C2492 1.377 . S
C2493 C2499 1.390 . S
C2494 H2485 0.930 . S
C2494 C2492 1.384 . S
C2494 C2495 1.372 . S
C2495 C2494 1.372 . S
C2495 C2496 1.400 . S
C2495 C2500 1.490 . S
C2496 H2486 0.930 . S
C2496 C2495 1.400 . S
C2496 C2499 1.386 . S
H2497 C2513 0.930 . S
H2498 C2514 0.931 . S
C2499 H2487 0.929 . S
C2499 C2493 1.390 . S
C2499 C2496 1.386 . S
C2500 C2495 1.490 . S
C2500 C2502 1.395 . S
C2500 C2503 1.403 . S
H2501 C2507 0.930 . S
C2502 H2488 0.930 . S
C2502 C2500 1.395 . S
C2502 C2505 1.403 . S
C2503 C2500 1.403 . S
C2503 C2504 1.524 . S
C2503 C2507 1.400 . S
C2504 H2489 0.960 . S
C2504 H2490 0.960 . S
C2504 H2491 0.960 . S
C2504 C2503 1.524 . S
C2505 C2502 1.403 . S
C2505 C2506 1.392 . S
C2505 C2509 1.495 . S
C2506 C2505 1.392 . S
C2506 C2507 1.385 . S
C2506 C2508 1.478 . S
C2507 H2501 0.930 . S
C2507 C2503 1.400 . S
C2507 C2506 1.385 . S
C2508 C2506 1.478 . S
C2508 C2510 1.381 . S
C2508 C2514 1.383 . S
C2509 C2505 1.495 . S
C2509 H2515 0.959 . S
C2509 H2516 0.961 . S
C2509 H2517 0.960 . S
C2510 C2508 1.381 . S
C2510 C2511 1.394 . S
C2510 H2518 0.930 . S
C2511 C2510 1.394 . S
C2511 C2512 1.383 . S
C2511 H2519 0.929 . S
C2512 C2511 1.383 . S
C2512 C2513 1.377 . S
C2513 H2497 0.930 . S
C2513 C2512 1.377 . S
C2513 C2514 1.379 . S
C2514 H2498 0.931 . S
C2514 C2508 1.383 . S
C2514 C2513 1.379 . S
H2515 C2509 0.959 . S
H2516 C2509 0.961 . S
H2517 C2509 0.960 . S
H2518 C2510 0.930 . S
H2519 C2511 0.929 . S
H2520 C2528 0.929 . S
H2521 C2530 0.930 . S
H2522 C2532 0.930 . S
H2523 C2535 0.929 . S
H2524 C2538 0.930 . S
H2525 C2540 0.960 . S
H2526 C2540 0.960 . S
H2527 C2540 0.960 . S
C2528 H2520 0.929 . S
C2528 C2529 1.377 . S
C2528 C2530 1.384 . S
C2529 C2528 1.377 . S
C2529 C2535 1.390 . S
C2530 H2521 0.930 . S
C2530 C2528 1.384 . S
C2530 C2531 1.372 . S
C2531 C2530 1.372 . S
C2531 C2532 1.400 . S
C2531 C2536 1.490 . S
C2532 H2522 0.930 . S
C2532 C2531 1.400 . S
C2532 C2535 1.386 . S
H2533 C2549 0.930 . S
H2534 C2550 0.931 . S
C2535 H2523 0.929 . S
C2535 C2529 1.390 . S
C2535 C2532 1.386 . S
C2536 C2531 1.490 . S
C2536 C2538 1.395 . S
C2536 C2539 1.403 . S
H2537 C2543 0.930 . S
C2538 H2524 0.930 . S
C2538 C2536 1.395 . S
C2538 C2541 1.403 . S
C2539 C2536 1.403 . S
C2539 C2540 1.524 . S
C2539 C2543 1.400 . S
C2540 H2525 0.960 . S
C2540 H2526 0.960 . S
C2540 H2527 0.960 . S
C2540 C2539 1.524 . S
C2541 C2538 1.403 . S
C2541 C2542 1.392 . S
C2541 C2545 1.495 . S
C2542 C2541 1.392 . S
C2542 C2543 1.385 . S
C2542 C2544 1.478 . S
C2543 H2537 0.930 . S
C2543 C2539 1.400 . S
C2543 C2542 1.385 . S
C2544 C2542 1.478 . S
C2544 C2546 1.381 . S
C2544 C2550 1.383 . S
C2545 C2541 1.495 . S
C2545 H2551 0.959 . S
C2545 H2552 0.961 . S
C2545 H2553 0.960 . S
C2546 C2544 1.381 . S
C2546 C2547 1.394 . S
C2546 H2554 0.930 . S
C2547 C2546 1.394 . S
C2547 C2548 1.383 . S
C2547 H2555 0.929 . S
C2548 C2547 1.383 . S
C2548 C2549 1.377 . S
C2549 H2533 0.930 . S
C2549 C2548 1.377 . S
C2549 C2550 1.379 . S
C2550 H2534 0.931 . S
C2550 C2544 1.383 . S
C2550 C2549 1.379 . S
H2551 C2545 0.959 . S
H2552 C2545 0.961 . S
H2553 C2545 0.960 . S
H2554 C2546 0.930 . S
H2555 C2547 0.929 . S
H2556 C2564 0.929 . S
H2557 C2566 0.930 . S
H2558 C2568 0.930 . S
H2559 C2571 0.929 . S
H2560 C2574 0.930 . S
H2561 C2576 0.960 . S
H2562 C2576 0.960 . S
H2563 C2576 0.960 . S
C2564 H2556 0.929 . S
C2564 C2565 1.377 . S
C2564 C2566 1.384 . S
C2565 C2564 1.377 . S
C2565 C2571 1.390 . S
C2566 H2557 0.930 . S
C2566 C2564 1.384 . S
C2566 C2567 1.372 . S
C2567 C2566 1.372 . S
C2567 C2568 1.400 . S
C2567 C2572 1.490 . S
C2568 H2558 0.930 . S
C2568 C2567 1.400 . S
C2568 C2571 1.386 . S
H2569 C2585 0.930 . S
H2570 C2586 0.931 . S
C2571 H2559 0.929 . S
C2571 C2565 1.390 . S
C2571 C2568 1.386 . S
C2572 C2567 1.490 . S
C2572 C2574 1.395 . S
C2572 C2575 1.403 . S
H2573 C2579 0.930 . S
C2574 H2560 0.930 . S
C2574 C2572 1.395 . S
C2574 C2577 1.403 . S
C2575 C2572 1.403 . S
C2575 C2576 1.524 . S
C2575 C2579 1.400 . S
C2576 H2561 0.960 . S
C2576 H2562 0.960 . S
C2576 H2563 0.960 . S
C2576 C2575 1.524 . S
C2577 C2574 1.403 . S
C2577 C2578 1.392 . S
C2577 C2581 1.495 . S
C2578 C2577 1.392 . S
C2578 C2579 1.385 . S
C2578 C2580 1.478 . S
C2579 H2573 0.930 . S
C2579 C2575 1.400 . S
C2579 C2578 1.385 . S
C2580 C2578 1.478 . S
C2580 C2582 1.381 . S
C2580 C2586 1.383 . S
C2581 C2577 1.495 . S
C2581 H2587 0.959 . S
C2581 H2588 0.961 . S
C2581 H2589 0.960 . S
C2582 C2580 1.381 . S
C2582 C2583 1.394 . S
C2582 H2590 0.930 . S
C2583 C2582 1.394 . S
C2583 C2584 1.383 . S
C2583 H2591 0.929 . S
C2584 C2583 1.383 . S
C2584 C2585 1.377 . S
C2585 H2569 0.930 . S
C2585 C2584 1.377 . S
C2585 C2586 1.379 . S
C2586 H2570 0.931 . S
C2586 C2580 1.383 . S
C2586 C2585 1.379 . S
H2587 C2581 0.959 . S
H2588 C2581 0.961 . S
H2589 C2581 0.960 . S
H2590 C2582 0.930 . S
H2591 C2583 0.929 . S
H2592 C2600 0.929 . S
H2593 C2602 0.930 . S
H2594 C2604 0.930 . S
H2595 C2607 0.929 . S
H2596 C2610 0.930 . S
H2597 C2612 0.960 . S
H2598 C2612 0.960 . S
H2599 C2612 0.960 . S
C2600 H2592 0.929 . S
C2600 C2601 1.377 . S
C2600 C2602 1.384 . S
C2601 C2600 1.377 . S
C2601 C2607 1.390 . S
C2602 H2593 0.930 . S
C2602 C2600 1.384 . S
C2602 C2603 1.372 . S
C2603 C2602 1.372 . S
C2603 C2604 1.400 . S
C2603 C2608 1.490 . S
C2604 H2594 0.930 . S
C2604 C2603 1.400 . S
C2604 C2607 1.386 . S
H2605 C2621 0.930 . S
H2606 C2622 0.931 . S
C2607 H2595 0.929 . S
C2607 C2601 1.390 . S
C2607 C2604 1.386 . S
C2608 C2603 1.490 . S
C2608 C2610 1.395 . S
C2608 C2611 1.403 . S
H2609 C2615 0.930 . S
C2610 H2596 0.930 . S
C2610 C2608 1.395 . S
C2610 C2613 1.403 . S
C2611 C2608 1.403 . S
C2611 C2612 1.524 . S
C2611 C2615 1.400 . S
C2612 H2597 0.960 . S
C2612 H2598 0.960 . S
C2612 H2599 0.960 . S
C2612 C2611 1.524 . S
C2613 C2610 1.403 . S
C2613 C2614 1.392 . S
C2613 C2617 1.495 . S
C2614 C2613 1.392 . S
C2614 C2615 1.385 . S
C2614 C2616 1.478 . S
C2615 H2609 0.930 . S
C2615 C2611 1.400 . S
C2615 C2614 1.385 . S
C2616 C2614 1.478 . S
C2616 C2618 1.381 . S
C2616 C2622 1.383 . S
C2617 C2613 1.495 . S
C2617 H2623 0.959 . S
C2617 H2624 0.961 . S
C2617 H2625 0.960 . S
C2618 C2616 1.381 . S
C2618 C2619 1.394 . S
C2618 H2626 0.930 . S
C2619 C2618 1.394 . S
C2619 C2620 1.383 . S
C2619 H2627 0.929 . S
C2620 C2619 1.383 . S
C2620 C2621 1.377 . S
C2621 H2605 0.930 . S
C2621 C2620 1.377 . S
C2621 C2622 1.379 . S
C2622 H2606 0.931 . S
C2622 C2616 1.383 . S
C2622 C2621 1.379 . S
H2623 C2617 0.959 . S
H2624 C2617 0.961 . S
H2625 C2617 0.960 . S
H2626 C2618 0.930 . S
H2627 C2619 0.929 . S
H2628 C2636 0.929 . S
H2629 C2638 0.930 . S
H2630 C2640 0.930 . S
H2631 C2643 0.929 . S
H2632 C2646 0.930 . S
H2633 C2648 0.960 . S
H2634 C2648 0.960 . S
H2635 C2648 0.960 . S
C2636 H2628 0.929 . S
C2636 C2637 1.377 . S
C2636 C2638 1.384 . S
C2637 C2636 1.377 . S
C2637 C2643 1.390 . S
C2638 H2629 0.930 . S
C2638 C2636 1.384 . S
C2638 C2639 1.372 . S
C2639 C2638 1.372 . S
C2639 C2640 1.400 . S
C2639 C2644 1.490 . S
C2640 H2630 0.930 . S
C2640 C2639 1.400 . S
C2640 C2643 1.386 . S
H2641 C2657 0.930 . S
H2642 C2658 0.931 . S
C2643 H2631 0.929 . S
C2643 C2637 1.390 . S
C2643 C2640 1.386 . S
C2644 C2639 1.490 . S
C2644 C2646 1.395 . S
C2644 C2647 1.403 . S
H2645 C2651 0.930 . S
C2646 H2632 0.930 . S
C2646 C2644 1.395 . S
C2646 C2649 1.403 . S
C2647 C2644 1.403 . S
C2647 C2648 1.524 . S
C2647 C2651 1.400 . S
C2648 H2633 0.960 . S
C2648 H2634 0.960 . S
C2648 H2635 0.960 . S
C2648 C2647 1.524 . S
C2649 C2646 1.403 . S
C2649 C2650 1.392 . S
C2649 C2653 1.495 . S
C2650 C2649 1.392 . S
C2650 C2651 1.385 . S
C2650 C2652 1.478 . S
C2651 H2645 0.930 . S
C2651 C2647 1.400 . S
C2651 C2650 1.385 . S
C2652 C2650 1.478 . S
C2652 C2654 1.381 . S
C2652 C2658 1.383 . S
C2653 C2649 1.495 . S
C2653 H2659 0.959 . S
C2653 H2660 0.961 . S
C2653 H2661 0.960 . S
C2654 C2652 1.381 . S
C2654 C2655 1.394 . S
C2654 H2662 0.930 . S
C2655 C2654 1.394 . S
C2655 C2656 1.383 . S
C2655 H2663 0.929 . S
C2656 C2655 1.383 . S
C2656 C2657 1.377 . S
C2657 H2641 0.930 . S
C2657 C2656 1.377 . S
C2657 C2658 1.379 . S
C2658 H2642 0.931 . S
C2658 C2652 1.383 . S
C2658 C2657 1.379 . S
H2659 C2653 0.959 . S
H2660 C2653 0.961 . S
H2661 C2653 0.960 . S
H2662 C2654 0.930 . S
H2663 C2655 0.929 . S
H2664 C2672 0.929 . S
H2665 C2674 0.930 . S
H2666 C2676 0.930 . S
H2667 C2679 0.929 . S
H2668 C2682 0.930 . S
H2669 C2684 0.960 1_655 S
H2670 C2684 0.960 1_655 S
H2671 C2684 0.960 . S
C2672 H2664 0.929 . S
C2672 C2673 1.377 . S
C2672 C2674 1.384 . S
C2673 C2672 1.377 . S
C2673 C2679 1.390 . S
C2674 H2665 0.930 . S
C2674 C2672 1.384 . S
C2674 C2675 1.372 . S
C2675 C2674 1.372 . S
C2675 C2676 1.400 . S
C2675 C2680 1.490 . S
C2676 H2666 0.930 . S
C2676 C2675 1.400 . S
C2676 C2679 1.386 . S
H2677 C2693 0.930 . S
H2678 C2694 0.931 . S
C2679 H2667 0.929 . S
C2679 C2673 1.390 . S
C2679 C2676 1.386 . S
C2680 C2675 1.490 . S
C2680 C2682 1.395 . S
C2680 C2683 1.403 . S
H2681 C2687 0.930 . S
C2682 H2668 0.930 . S
C2682 C2680 1.395 . S
C2682 C2685 1.403 . S
C2683 C2680 1.403 . S
C2683 C2684 1.524 . S
C2683 C2687 1.400 . S
C2684 H2669 0.960 1_455 S
C2684 H2670 0.960 1_455 S
C2684 H2671 0.960 . S
C2684 C2683 1.524 . S
C2685 C2682 1.403 . S
C2685 C2686 1.392 . S
C2685 C2689 1.495 . S
C2686 C2685 1.392 . S
C2686 C2687 1.385 . S
C2686 C2688 1.478 . S
C2687 H2681 0.930 . S
C2687 C2683 1.400 . S
C2687 C2686 1.385 . S
C2688 C2686 1.478 . S
C2688 C2690 1.381 . S
C2688 C2694 1.383 . S
C2689 C2685 1.495 . S
C2689 H2695 0.959 . S
C2689 H2696 0.961 . S
C2689 H2697 0.960 . S
C2690 C2688 1.381 . S
C2690 C2691 1.394 . S
C2690 H2698 0.930 . S
C2691 C2690 1.394 . S
C2691 C2692 1.383 . S
C2691 H2699 0.929 . S
C2692 C2691 1.383 . S
C2692 C2693 1.377 . S
C2693 H2677 0.930 . S
C2693 C2692 1.377 . S
C2693 C2694 1.379 . S
C2694 H2678 0.931 . S
C2694 C2688 1.383 . S
C2694 C2693 1.379 . S
H2695 C2689 0.959 . S
H2696 C2689 0.961 . S
H2697 C2689 0.960 . S
H2698 C2690 0.930 . S
H2699 C2691 0.929 . S
H2700 C2708 0.929 . S
H2701 C2710 0.930 . S
H2702 C2712 0.930 . S
H2703 C2715 0.929 . S
H2704 C2718 0.930 . S
H2705 C2720 0.960 . S
H2706 C2720 0.960 . S
H2707 C2720 0.960 . S
C2708 H2700 0.929 . S
C2708 C2709 1.377 . S
C2708 C2710 1.384 . S
C2709 C2708 1.377 . S
C2709 C2715 1.390 . S
C2710 H2701 0.930 . S
C2710 C2708 1.384 . S
C2710 C2711 1.372 . S
C2711 C2710 1.372 . S
C2711 C2712 1.400 . S
C2711 C2716 1.490 . S
C2712 H2702 0.930 . S
C2712 C2711 1.400 . S
C2712 C2715 1.386 . S
H2713 C2729 0.930 . S
H2714 C2730 0.931 . S
C2715 H2703 0.929 . S
C2715 C2709 1.390 . S
C2715 C2712 1.386 . S
C2716 C2711 1.490 . S
C2716 C2718 1.395 . S
C2716 C2719 1.403 . S
H2717 C2723 0.930 . S
C2718 H2704 0.930 . S
C2718 C2716 1.395 . S
C2718 C2721 1.403 . S
C2719 C2716 1.403 . S
C2719 C2720 1.524 . S
C2719 C2723 1.400 . S
C2720 H2705 0.960 . S
C2720 H2706 0.960 . S
C2720 H2707 0.960 . S
C2720 C2719 1.524 . S
C2721 C2718 1.403 . S
C2721 C2722 1.392 . S
C2721 C2725 1.495 . S
C2722 C2721 1.392 . S
C2722 C2723 1.385 . S
C2722 C2724 1.478 . S
C2723 H2717 0.930 . S
C2723 C2719 1.400 . S
C2723 C2722 1.385 . S
C2724 C2722 1.478 . S
C2724 C2726 1.381 . S
C2724 C2730 1.383 . S
C2725 C2721 1.495 . S
C2725 H2731 0.959 . S
C2725 H2732 0.961 . S
C2725 H2733 0.960 . S
C2726 C2724 1.381 . S
C2726 C2727 1.394 . S
C2726 H2734 0.930 . S
C2727 C2726 1.394 . S
C2727 C2728 1.383 . S
C2727 H2735 0.929 . S
C2728 C2727 1.383 . S
C2728 C2729 1.377 . S
C2729 H2713 0.930 . S
C2729 C2728 1.377 . S
C2729 C2730 1.379 . S
C2730 H2714 0.931 . S
C2730 C2724 1.383 . S
C2730 C2729 1.379 . S
H2731 C2725 0.959 . S
H2732 C2725 0.961 . S
H2733 C2725 0.960 . S
H2734 C2726 0.930 . S
H2735 C2727 0.929 . S
H2736 C2744 0.929 . S
H2737 C2746 0.930 . S
H2738 C2748 0.930 . S
H2739 C2751 0.929 . S
H2740 C2754 0.930 . S
H2741 C2756 0.960 . S
H2742 C2756 0.960 . S
H2743 C2756 0.960 . S
C2744 H2736 0.929 . S
C2744 C2745 1.377 . S
C2744 C2746 1.384 . S
C2745 C2744 1.377 . S
C2745 C2751 1.390 . S
C2746 H2737 0.930 . S
C2746 C2744 1.384 . S
C2746 C2747 1.372 . S
C2747 C2746 1.372 . S
C2747 C2748 1.400 . S
C2747 C2752 1.490 . S
C2748 H2738 0.930 . S
C2748 C2747 1.400 . S
C2748 C2751 1.386 . S
H2749 C2765 0.930 . S
H2750 C2766 0.931 . S
C2751 H2739 0.929 . S
C2751 C2745 1.390 . S
C2751 C2748 1.386 . S
C2752 C2747 1.490 . S
C2752 C2754 1.395 . S
C2752 C2755 1.403 . S
H2753 C2759 0.930 . S
C2754 H2740 0.930 . S
C2754 C2752 1.395 . S
C2754 C2757 1.403 . S
C2755 C2752 1.403 . S
C2755 C2756 1.524 . S
C2755 C2759 1.400 . S
C2756 H2741 0.960 . S
C2756 H2742 0.960 . S
C2756 H2743 0.960 . S
C2756 C2755 1.524 . S
C2757 C2754 1.403 . S
C2757 C2758 1.392 . S
C2757 C2761 1.495 . S
C2758 C2757 1.392 . S
C2758 C2759 1.385 . S
C2758 C2760 1.478 . S
C2759 H2753 0.930 . S
C2759 C2755 1.400 . S
C2759 C2758 1.385 . S
C2760 C2758 1.478 . S
C2760 C2762 1.381 . S
C2760 C2766 1.383 . S
C2761 C2757 1.495 . S
C2761 H2767 0.959 . S
C2761 H2768 0.961 . S
C2761 H2769 0.960 . S
C2762 C2760 1.381 . S
C2762 C2763 1.394 . S
C2762 H2770 0.930 . S
C2763 C2762 1.394 . S
C2763 C2764 1.383 . S
C2763 H2771 0.929 . S
C2764 C2763 1.383 . S
C2764 C2765 1.377 . S
C2765 H2749 0.930 . S
C2765 C2764 1.377 . S
C2765 C2766 1.379 . S
C2766 H2750 0.931 . S
C2766 C2760 1.383 . S
C2766 C2765 1.379 . S
H2767 C2761 0.959 . S
H2768 C2761 0.961 . S
H2769 C2761 0.960 . S
H2770 C2762 0.930 . S
H2771 C2763 0.929 . S
H2772 C2780 0.929 . S
H2773 C2782 0.930 . S
H2774 C2784 0.930 . S
H2775 C2787 0.929 . S
H2776 C2790 0.930 . S
H2777 C2792 0.960 . S
H2778 C2792 0.960 . S
H2779 C2792 0.960 . S
C2780 H2772 0.929 . S
C2780 C2781 1.377 . S
C2780 C2782 1.384 . S
C2781 C2780 1.377 . S
C2781 C2787 1.390 . S
C2782 H2773 0.930 . S
C2782 C2780 1.384 . S
C2782 C2783 1.372 . S
C2783 C2782 1.372 . S
C2783 C2784 1.400 . S
C2783 C2788 1.490 . S
C2784 H2774 0.930 . S
C2784 C2783 1.400 . S
C2784 C2787 1.386 . S
H2785 C2801 0.930 . S
H2786 C2802 0.931 . S
C2787 H2775 0.929 . S
C2787 C2781 1.390 . S
C2787 C2784 1.386 . S
C2788 C2783 1.490 . S
C2788 C2790 1.395 . S
C2788 C2791 1.403 . S
H2789 C2795 0.930 . S
C2790 H2776 0.930 . S
C2790 C2788 1.395 . S
C2790 C2793 1.403 . S
C2791 C2788 1.403 . S
C2791 C2792 1.524 . S
C2791 C2795 1.400 . S
C2792 H2777 0.960 . S
C2792 H2778 0.960 . S
C2792 H2779 0.960 . S
C2792 C2791 1.524 . S
C2793 C2790 1.403 . S
C2793 C2794 1.392 . S
C2793 C2797 1.495 . S
C2794 C2793 1.392 . S
C2794 C2795 1.385 . S
C2794 C2796 1.478 . S
C2795 H2789 0.930 . S
C2795 C2791 1.400 . S
C2795 C2794 1.385 . S
C2796 C2794 1.478 . S
C2796 C2798 1.381 . S
C2796 C2802 1.383 . S
C2797 C2793 1.495 . S
C2797 H2803 0.959 . S
C2797 H2804 0.961 . S
C2797 H2805 0.960 . S
C2798 C2796 1.381 . S
C2798 C2799 1.394 . S
C2798 H2806 0.930 . S
C2799 C2798 1.394 . S
C2799 C2800 1.383 . S
C2799 H2807 0.929 . S
C2800 C2799 1.383 . S
C2800 C2801 1.377 . S
C2801 H2785 0.930 . S
C2801 C2800 1.377 . S
C2801 C2802 1.379 . S
C2802 H2786 0.931 . S
C2802 C2796 1.383 . S
C2802 C2801 1.379 . S
H2803 C2797 0.959 . S
H2804 C2797 0.961 . S
H2805 C2797 0.960 . S
H2806 C2798 0.930 . S
H2807 C2799 0.929 . S
H2808 C2816 0.929 . S
H2809 C2818 0.930 . S
H2810 C2820 0.930 . S
H2811 C2823 0.929 . S
H2812 C2826 0.930 . S
H2813 C2828 0.960 . S
H2814 C2828 0.960 . S
H2815 C2828 0.960 . S
C2816 H2808 0.929 . S
C2816 C2817 1.377 . S
C2816 C2818 1.384 . S
C2817 C2816 1.377 . S
C2817 C2823 1.390 . S
C2818 H2809 0.930 . S
C2818 C2816 1.384 . S
C2818 C2819 1.372 . S
C2819 C2818 1.372 . S
C2819 C2820 1.400 . S
C2819 C2824 1.490 . S
C2820 H2810 0.930 . S
C2820 C2819 1.400 . S
C2820 C2823 1.386 . S
H2821 C2837 0.930 . S
H2822 C2838 0.931 . S
C2823 H2811 0.929 . S
C2823 C2817 1.390 . S
C2823 C2820 1.386 . S
C2824 C2819 1.490 . S
C2824 C2826 1.395 . S
C2824 C2827 1.403 . S
H2825 C2831 0.930 . S
C2826 H2812 0.930 . S
C2826 C2824 1.395 . S
C2826 C2829 1.403 . S
C2827 C2824 1.403 . S
C2827 C2828 1.524 . S
C2827 C2831 1.400 . S
C2828 H2813 0.960 . S
C2828 H2814 0.960 . S
C2828 H2815 0.960 . S
C2828 C2827 1.524 . S
C2829 C2826 1.403 . S
C2829 C2830 1.392 . S
C2829 C2833 1.495 . S
C2830 C2829 1.392 . S
C2830 C2831 1.385 . S
C2830 C2832 1.478 . S
C2831 H2825 0.930 . S
C2831 C2827 1.400 . S
C2831 C2830 1.385 . S
C2832 C2830 1.478 . S
C2832 C2834 1.381 . S
C2832 C2838 1.383 . S
C2833 C2829 1.495 . S
C2833 H2839 0.959 . S
C2833 H2840 0.961 . S
C2833 H2841 0.960 . S
C2834 C2832 1.381 . S
C2834 C2835 1.394 . S
C2834 H2842 0.930 . S
C2835 C2834 1.394 . S
C2835 C2836 1.383 . S
C2835 H2843 0.929 . S
C2836 C2835 1.383 . S
C2836 C2837 1.377 . S
C2837 H2821 0.930 . S
C2837 C2836 1.377 . S
C2837 C2838 1.379 . S
C2838 H2822 0.931 . S
C2838 C2832 1.383 . S
C2838 C2837 1.379 . S
H2839 C2833 0.959 . S
H2840 C2833 0.961 . S
H2841 C2833 0.960 . S
H2842 C2834 0.930 . S
H2843 C2835 0.929 . S
H2844 C2852 0.929 . S
H2845 C2854 0.930 . S
H2846 C2856 0.930 . S
H2847 C2859 0.929 . S
H2848 C2862 0.930 . S
H2849 C2864 0.960 . S
H2850 C2864 0.960 . S
H2851 C2864 0.960 . S
C2852 H2844 0.929 . S
C2852 C2853 1.377 . S
C2852 C2854 1.384 . S
C2853 C2852 1.377 . S
C2853 C2859 1.390 . S
C2854 H2845 0.930 . S
C2854 C2852 1.384 . S
C2854 C2855 1.372 . S
C2855 C2854 1.372 . S
C2855 C2856 1.400 . S
C2855 C2860 1.490 . S
C2856 H2846 0.930 . S
C2856 C2855 1.400 . S
C2856 C2859 1.386 . S
H2857 C2873 0.930 . S
H2858 C2874 0.931 . S
C2859 H2847 0.929 . S
C2859 C2853 1.390 . S
C2859 C2856 1.386 . S
C2860 C2855 1.490 . S
C2860 C2862 1.395 . S
C2860 C2863 1.403 . S
H2861 C2867 0.930 . S
C2862 H2848 0.930 . S
C2862 C2860 1.395 . S
C2862 C2865 1.403 . S
C2863 C2860 1.403 . S
C2863 C2864 1.524 . S
C2863 C2867 1.400 . S
C2864 H2849 0.960 . S
C2864 H2850 0.960 . S
C2864 H2851 0.960 . S
C2864 C2863 1.524 . S
C2865 C2862 1.403 . S
C2865 C2866 1.392 . S
C2865 C2869 1.495 . S
C2866 C2865 1.392 . S
C2866 C2867 1.385 . S
C2866 C2868 1.478 . S
C2867 H2861 0.930 . S
C2867 C2863 1.400 . S
C2867 C2866 1.385 . S
C2868 C2866 1.478 . S
C2868 C2870 1.381 . S
C2868 C2874 1.383 . S
C2869 C2865 1.495 . S
C2869 H2875 0.959 . S
C2869 H2876 0.961 . S
C2869 H2877 0.960 . S
C2870 C2868 1.381 . S
C2870 C2871 1.394 . S
C2870 H2878 0.930 . S
C2871 C2870 1.394 . S
C2871 C2872 1.383 . S
C2871 H2879 0.929 . S
C2872 C2871 1.383 . S
C2872 C2873 1.377 . S
C2873 H2857 0.930 . S
C2873 C2872 1.377 . S
C2873 C2874 1.379 . S
C2874 H2858 0.931 . S
C2874 C2868 1.383 . S
C2874 C2873 1.379 . S
H2875 C2869 0.959 . S
H2876 C2869 0.961 . S
H2877 C2869 0.960 . S
H2878 C2870 0.930 . S
H2879 C2871 0.929 . S
H2880 C2888 0.929 . S
H2881 C2890 0.930 . S
H2882 C2892 0.930 . S
H2883 C2895 0.929 . S
H2884 C2898 0.930 . S
H2885 C2900 0.960 . S
H2886 C2900 0.960 . S
H2887 C2900 0.960 . S
C2888 H2880 0.929 . S
C2888 C2889 1.377 . S
C2888 C2890 1.384 . S
C2889 C2888 1.377 . S
C2889 C2895 1.390 . S
C2890 H2881 0.930 . S
C2890 C2888 1.384 . S
C2890 C2891 1.372 . S
C2891 C2890 1.372 . S
C2891 C2892 1.400 . S
C2891 C2896 1.490 . S
C2892 H2882 0.930 . S
C2892 C2891 1.400 . S
C2892 C2895 1.386 . S
H2893 C2909 0.930 . S
H2894 C2910 0.931 . S
C2895 H2883 0.929 . S
C2895 C2889 1.390 . S
C2895 C2892 1.386 . S
C2896 C2891 1.490 . S
C2896 C2898 1.395 . S
C2896 C2899 1.403 . S
H2897 C2903 0.930 1_565 S
C2898 H2884 0.930 . S
C2898 C2896 1.395 . S
C2898 C2901 1.403 . S
C2899 C2896 1.403 . S
C2899 C2900 1.524 1_545 S
C2899 C2903 1.400 . S
C2900 H2885 0.960 . S
C2900 H2886 0.960 . S
C2900 H2887 0.960 . S
C2900 C2899 1.524 1_565 S
C2901 C2898 1.403 . S
C2901 C2902 1.392 . S
C2901 C2905 1.495 . S
C2902 C2901 1.392 . S
C2902 C2903 1.385 . S
C2902 C2904 1.478 . S
C2903 H2897 0.930 1_545 S
C2903 C2899 1.400 . S
C2903 C2902 1.385 . S
C2904 C2902 1.478 . S
C2904 C2906 1.381 . S
C2904 C2910 1.383 . S
C2905 C2901 1.495 . S
C2905 H2911 0.959 . S
C2905 H2912 0.961 . S
C2905 H2913 0.960 . S
C2906 C2904 1.381 . S
C2906 C2907 1.394 . S
C2906 H2914 0.930 . S
C2907 C2906 1.394 . S
C2907 C2908 1.383 . S
C2907 H2915 0.929 . S
C2908 C2907 1.383 . S
C2908 C2909 1.377 . S
C2909 H2893 0.930 . S
C2909 C2908 1.377 . S
C2909 C2910 1.379 . S
C2910 H2894 0.931 . S
C2910 C2904 1.383 . S
C2910 C2909 1.379 . S
H2911 C2905 0.959 . S
H2912 C2905 0.961 . S
H2913 C2905 0.960 . S
H2914 C2906 0.930 . S
H2915 C2907 0.929 . S
H2916 C2924 0.929 . S
H2917 C2926 0.930 . S
H2918 C2928 0.930 . S
H2919 C2931 0.929 . S
H2920 C2934 0.930 . S
H2921 C2936 0.960 . S
H2922 C2936 0.960 . S
H2923 C2936 0.960 . S
C2924 H2916 0.929 . S
C2924 C2925 1.377 . S
C2924 C2926 1.384 . S
C2925 C2924 1.377 . S
C2925 C2931 1.390 . S
C2926 H2917 0.930 . S
C2926 C2924 1.384 . S
C2926 C2927 1.372 . S
C2927 C2926 1.372 . S
C2927 C2928 1.400 . S
C2927 C2932 1.490 . S
C2928 H2918 0.930 . S
C2928 C2927 1.400 . S
C2928 C2931 1.386 . S
H2929 C2945 0.930 . S
H2930 C2946 0.931 . S
C2931 H2919 0.929 . S
C2931 C2925 1.390 . S
C2931 C2928 1.386 . S
C2932 C2927 1.490 . S
C2932 C2934 1.395 . S
C2932 C2935 1.403 . S
H2933 C2939 0.930 . S
C2934 H2920 0.930 . S
C2934 C2932 1.395 . S
C2934 C2937 1.403 . S
C2935 C2932 1.403 . S
C2935 C2936 1.524 . S
C2935 C2939 1.400 . S
C2936 H2921 0.960 . S
C2936 H2922 0.960 . S
C2936 H2923 0.960 . S
C2936 C2935 1.524 . S
C2937 C2934 1.403 . S
C2937 C2938 1.392 . S
C2937 C2941 1.495 . S
C2938 C2937 1.392 . S
C2938 C2939 1.385 . S
C2938 C2940 1.478 . S
C2939 H2933 0.930 . S
C2939 C2935 1.400 . S
C2939 C2938 1.385 . S
C2940 C2938 1.478 . S
C2940 C2942 1.381 . S
C2940 C2946 1.383 . S
C2941 C2937 1.495 . S
C2941 H2947 0.959 . S
C2941 H2948 0.961 . S
C2941 H2949 0.960 . S
C2942 C2940 1.381 . S
C2942 C2943 1.394 . S
C2942 H2950 0.930 . S
C2943 C2942 1.394 . S
C2943 C2944 1.383 . S
C2943 H2951 0.929 . S
C2944 C2943 1.383 . S
C2944 C2945 1.377 . S
C2945 H2929 0.930 . S
C2945 C2944 1.377 . S
C2945 C2946 1.379 . S
C2946 H2930 0.931 . S
C2946 C2940 1.383 . S
C2946 C2945 1.379 . S
H2947 C2941 0.959 . S
H2948 C2941 0.961 . S
H2949 C2941 0.960 . S
H2950 C2942 0.930 . S
H2951 C2943 0.929 . S
H2952 C2960 0.929 . S
H2953 C2962 0.930 . S
H2954 C2964 0.930 . S
H2955 C2967 0.929 . S
H2956 C2970 0.930 . S
H2957 C2972 0.960 . S
H2958 C2972 0.960 . S
H2959 C2972 0.960 . S
C2960 H2952 0.929 . S
C2960 C2961 1.377 . S
C2960 C2962 1.384 . S
C2961 C2960 1.377 . S
C2961 C2967 1.390 . S
C2962 H2953 0.930 . S
C2962 C2960 1.384 . S
C2962 C2963 1.372 . S
C2963 C2962 1.372 . S
C2963 C2964 1.400 . S
C2963 C2968 1.490 . S
C2964 H2954 0.930 . S
C2964 C2963 1.400 . S
C2964 C2967 1.386 . S
H2965 C2981 0.930 . S
H2966 C2982 0.931 . S
C2967 H2955 0.929 . S
C2967 C2961 1.390 . S
C2967 C2964 1.386 . S
C2968 C2963 1.490 . S
C2968 C2970 1.395 . S
C2968 C2971 1.403 . S
H2969 C2975 0.930 . S
C2970 H2956 0.930 . S
C2970 C2968 1.395 . S
C2970 C2973 1.403 . S
C2971 C2968 1.403 . S
C2971 C2972 1.524 1_545 S
C2971 C2975 1.400 . S
C2972 H2957 0.960 . S
C2972 H2958 0.960 . S
C2972 H2959 0.960 . S
C2972 C2971 1.524 1_565 S
C2973 C2970 1.403 . S
C2973 C2974 1.392 . S
C2973 C2977 1.495 . S
C2974 C2973 1.392 . S
C2974 C2975 1.385 . S
C2974 C2976 1.478 . S
C2975 H2969 0.930 . S
C2975 C2971 1.400 . S
C2975 C2974 1.385 . S
C2976 C2974 1.478 . S
C2976 C2978 1.381 . S
C2976 C2982 1.383 . S
C2977 C2973 1.495 . S
C2977 H2983 0.959 . S
C2977 H2984 0.961 . S
C2977 H2985 0.960 . S
C2978 C2976 1.381 . S
C2978 C2979 1.394 . S
C2978 H2986 0.930 . S
C2979 C2978 1.394 . S
C2979 C2980 1.383 . S
C2979 H2987 0.929 . S
C2980 C2979 1.383 . S
C2980 C2981 1.377 . S
C2981 H2965 0.930 . S
C2981 C2980 1.377 . S
C2981 C2982 1.379 . S
C2982 H2966 0.931 . S
C2982 C2976 1.383 . S
C2982 C2981 1.379 . S
H2983 C2977 0.959 . S
H2984 C2977 0.961 . S
H2985 C2977 0.960 . S
H2986 C2978 0.930 . S
H2987 C2979 0.929 . S
H2988 C2996 0.929 . S
H2989 C2998 0.930 . S
H2990 C3000 0.930 . S
H2991 C3003 0.929 . S
H2992 C3006 0.930 . S
H2993 C3008 0.960 . S
H2994 C3008 0.960 . S
H2995 C3008 0.960 . S
C2996 H2988 0.929 . S
C2996 C2997 1.377 . S
C2996 C2998 1.384 . S
C2997 C2996 1.377 . S
C2997 C3003 1.390 . S
C2998 H2989 0.930 . S
C2998 C2996 1.384 . S
C2998 C2999 1.372 . S
C2999 C2998 1.372 . S
C2999 C3000 1.400 . S
C2999 C3004 1.490 . S
C3000 H2990 0.930 . S
C3000 C2999 1.400 . S
C3000 C3003 1.386 . S
H3001 C3017 0.930 . S
H3002 C3018 0.931 . S
C3003 H2991 0.929 . S
C3003 C2997 1.390 . S
C3003 C3000 1.386 . S
C3004 C2999 1.490 . S
C3004 C3006 1.395 . S
C3004 C3007 1.403 . S
H3005 C3011 0.930 . S
C3006 H2992 0.930 . S
C3006 C3004 1.395 . S
C3006 C3009 1.403 . S
C3007 C3004 1.403 . S
C3007 C3008 1.524 . S
C3007 C3011 1.400 . S
C3008 H2993 0.960 . S
C3008 H2994 0.960 . S
C3008 H2995 0.960 . S
C3008 C3007 1.524 . S
C3009 C3006 1.403 . S
C3009 C3010 1.392 . S
C3009 C3013 1.495 . S
C3010 C3009 1.392 . S
C3010 C3011 1.385 . S
C3010 C3012 1.478 . S
C3011 H3005 0.930 . S
C3011 C3007 1.400 . S
C3011 C3010 1.385 . S
C3012 C3010 1.478 . S
C3012 C3014 1.381 . S
C3012 C3018 1.383 . S
C3013 C3009 1.495 . S
C3013 H3019 0.959 . S
C3013 H3020 0.961 . S
C3013 H3021 0.960 . S
C3014 C3012 1.381 . S
C3014 C3015 1.394 . S
C3014 H3022 0.930 . S
C3015 C3014 1.394 . S
C3015 C3016 1.383 . S
C3015 H3023 0.929 . S
C3016 C3015 1.383 . S
C3016 C3017 1.377 . S
C3017 H3001 0.930 . S
C3017 C3016 1.377 . S
C3017 C3018 1.379 . S
C3018 H3002 0.931 . S
C3018 C3012 1.383 . S
C3018 C3017 1.379 . S
H3019 C3013 0.959 . S
H3020 C3013 0.961 . S
H3021 C3013 0.960 . S
H3022 C3014 0.930 . S
H3023 C3015 0.929 . S
H3024 C3032 0.929 1_565 S
H3025 C3034 0.930 1_565 S
H3026 C3036 0.930 . S
H3027 C3039 0.929 . S
H3028 C3042 0.930 1_565 S
H3029 C3044 0.960 . S
H3030 C3044 0.960 . S
H3031 C3044 0.960 . S
C3032 H3024 0.929 1_545 S
C3032 C3033 1.377 . S
C3032 C3034 1.384 . S
C3033 C3032 1.377 . S
C3033 C3039 1.390 . S
C3034 H3025 0.930 1_545 S
C3034 C3032 1.384 . S
C3034 C3035 1.372 . S
C3035 C3034 1.372 . S
C3035 C3036 1.400 . S
C3035 C3040 1.490 . S
C3036 H3026 0.930 . S
C3036 C3035 1.400 . S
C3036 C3039 1.386 . S
H3037 C3053 0.930 . S
H3038 C3054 0.931 . S
C3039 H3027 0.929 . S
C3039 C3033 1.390 . S
C3039 C3036 1.386 . S
C3040 C3035 1.490 . S
C3040 C3042 1.395 . S
C3040 C3043 1.403 . S
H3041 C3047 0.930 . S
C3042 H3028 0.930 1_545 S
C3042 C3040 1.395 . S
C3042 C3045 1.403 . S
C3043 C3040 1.403 . S
C3043 C3044 1.524 . S
C3043 C3047 1.400 . S
C3044 H3029 0.960 . S
C3044 H3030 0.960 . S
C3044 H3031 0.960 . S
C3044 C3043 1.524 . S
C3045 C3042 1.403 . S
C3045 C3046 1.392 . S
C3045 C3049 1.495 1_545 S
C3046 C3045 1.392 . S
C3046 C3047 1.385 . S
C3046 C3048 1.478 . S
C3047 H3041 0.930 . S
C3047 C3043 1.400 . S
C3047 C3046 1.385 . S
C3048 C3046 1.478 . S
C3048 C3050 1.381 . S
C3048 C3054 1.383 . S
C3049 C3045 1.495 1_565 S
C3049 H3055 0.959 . S
C3049 H3056 0.961 . S
C3049 H3057 0.960 . S
C3050 C3048 1.381 . S
C3050 C3051 1.394 . S
C3050 H3058 0.902 1_545 S
C3051 C3050 1.394 . S
C3051 C3052 1.383 . S
C3051 H3059 0.929 . S
C3052 C3051 1.383 . S
C3052 C3053 1.377 . S
C3053 H3037 0.930 . S
C3053 C3052 1.377 . S
C3053 C3054 1.379 . S
C3054 H3038 0.931 . S
C3054 C3048 1.383 . S
C3054 C3053 1.379 . S
H3055 C3049 0.959 . S
H3056 C3049 0.961 . S
H3057 C3049 0.960 . S
H3058 C3050 0.902 1_565 S
H3059 C3051 0.929 . S
H3060 C3068 0.929 . S
H3061 C3070 0.930 . S
H3062 C3072 0.930 . S
H3063 C3075 0.929 . S
H3064 C3078 0.930 . S
H3065 C3080 0.960 . S
H3066 C3080 0.960 . S
H3067 C3080 0.960 . S
C3068 H3060 0.929 . S
C3068 C3069 1.377 . S
C3068 C3070 1.384 . S
C3069 C3068 1.377 . S
C3069 C3075 1.390 . S
C3070 H3061 0.930 . S
C3070 C3068 1.384 . S
C3070 C3071 1.372 . S
C3071 C3070 1.372 . S
C3071 C3072 1.400 . S
C3071 C3076 1.490 . S
C3072 H3062 0.930 . S
C3072 C3071 1.400 . S
C3072 C3075 1.386 . S
H3073 C3089 0.930 . S
H3074 C3090 0.931 . S
C3075 H3063 0.929 . S
C3075 C3069 1.390 . S
C3075 C3072 1.386 . S
C3076 C3071 1.490 . S
C3076 C3078 1.395 . S
C3076 C3079 1.403 . S
H3077 C3083 0.930 . S
C3078 H3064 0.930 . S
C3078 C3076 1.395 . S
C3078 C3081 1.403 . S
C3079 C3076 1.403 . S
C3079 C3080 1.524 . S
C3079 C3083 1.400 . S
C3080 H3065 0.960 . S
C3080 H3066 0.960 . S
C3080 H3067 0.960 . S
C3080 C3079 1.524 . S
C3081 C3078 1.403 . S
C3081 C3082 1.392 . S
C3081 C3085 1.495 . S
C3082 C3081 1.392 . S
C3082 C3083 1.385 . S
C3082 C3084 1.478 . S
C3083 H3077 0.930 . S
C3083 C3079 1.400 . S
C3083 C3082 1.385 . S
C3084 C3082 1.478 . S
C3084 C3086 1.381 . S
C3084 C3090 1.383 . S
C3085 C3081 1.495 . S
C3085 H3091 0.959 . S
C3085 H3092 0.961 . S
C3085 H3093 0.960 . S
C3086 C3084 1.381 . S
C3086 C3087 1.394 . S
C3086 H3094 0.930 . S
C3087 C3086 1.394 . S
C3087 C3088 1.383 . S
C3087 H3095 0.929 . S
C3088 C3087 1.383 . S
C3088 C3089 1.377 . S
C3089 H3073 0.930 . S
C3089 C3088 1.377 . S
C3089 C3090 1.379 . S
C3090 H3074 0.931 . S
C3090 C3084 1.383 . S
C3090 C3089 1.379 . S
H3091 C3085 0.959 . S
H3092 C3085 0.961 . S
H3093 C3085 0.960 . S
H3094 C3086 0.930 . S
H3095 C3087 0.929 . S
H3096 C3104 0.929 . S
H3097 C3106 0.930 . S
H3098 C3108 0.930 . S
H3099 C3111 0.929 . S
H3100 C3114 0.930 . S
H3101 C3116 0.960 . S
H3102 C3116 0.960 . S
H3103 C3116 0.960 . S
C3104 H3096 0.929 . S
C3104 C3105 1.377 . S
C3104 C3106 1.384 . S
C3105 C3104 1.377 . S
C3105 C3111 1.390 . S
C3106 H3097 0.930 . S
C3106 C3104 1.384 . S
C3106 C3107 1.372 . S
C3107 C3106 1.372 . S
C3107 C3108 1.400 . S
C3107 C3112 1.490 . S
C3108 H3098 0.930 . S
C3108 C3107 1.400 . S
C3108 C3111 1.386 . S
H3109 C3125 0.930 . S
H3110 C3126 0.931 . S
C3111 H3099 0.929 . S
C3111 C3105 1.390 . S
C3111 C3108 1.386 . S
C3112 C3107 1.490 . S
C3112 C3114 1.395 . S
C3112 C3115 1.403 . S
H3113 C3119 0.930 . S
C3114 H3100 0.930 . S
C3114 C3112 1.395 . S
C3114 C3117 1.403 . S
C3115 C3112 1.403 . S
C3115 C3116 1.524 . S
C3115 C3119 1.400 . S
C3116 H3101 0.960 . S
C3116 H3102 0.960 . S
C3116 H3103 0.960 . S
C3116 C3115 1.524 . S
C3117 C3114 1.403 . S
C3117 C3118 1.392 . S
C3117 C3121 1.495 . S
C3118 C3117 1.392 . S
C3118 C3119 1.385 . S
C3118 C3120 1.478 . S
C3119 H3113 0.930 . S
C3119 C3115 1.400 . S
C3119 C3118 1.385 . S
C3120 C3118 1.478 . S
C3120 C3122 1.381 . S
C3120 C3126 1.383 . S
C3121 C3117 1.495 . S
C3121 H3127 0.959 1_554 S
C3121 H3128 0.961 1_554 S
C3121 H3129 0.960 . S
C3122 C3120 1.381 . S
C3122 C3123 1.394 . S
C3122 H3130 0.930 . S
C3123 C3122 1.394 . S
C3123 C3124 1.383 . S
C3123 H3131 0.929 . S
C3124 C3123 1.383 . S
C3124 C3125 1.377 . S
C3125 H3109 0.930 . S
C3125 C3124 1.377 . S
C3125 C3126 1.379 . S
C3126 H3110 0.931 . S
C3126 C3120 1.383 . S
C3126 C3125 1.379 . S
H3127 C3121 0.959 1_556 S
H3128 C3121 0.961 1_556 S
H3129 C3121 0.960 . S
H3130 C3122 0.930 . S
H3131 C3123 0.929 . S
H3132 C3140 0.929 . S
H3133 C3142 0.930 . S
H3134 C3144 0.930 . S
H3135 C3147 0.929 . S
H3136 C3150 0.930 . S
H3137 C3152 0.960 . S
H3138 C3152 0.960 . S
H3139 C3152 0.960 . S
C3140 H3132 0.929 . S
C3140 C3141 1.377 . S
C3140 C3142 1.384 . S
C3141 C3140 1.377 . S
C3141 C3147 1.390 . S
C3142 H3133 0.930 . S
C3142 C3140 1.384 . S
C3142 C3143 1.372 . S
C3143 C3142 1.372 . S
C3143 C3144 1.400 . S
C3143 C3148 1.490 . S
C3144 H3134 0.930 . S
C3144 C3143 1.400 . S
C3144 C3147 1.386 . S
H3145 C3161 0.930 . S
H3146 C3162 0.931 . S
C3147 H3135 0.929 . S
C3147 C3141 1.390 . S
C3147 C3144 1.386 . S
C3148 C3143 1.490 . S
C3148 C3150 1.395 . S
C3148 C3151 1.403 . S
H3149 C3155 0.930 . S
C3150 H3136 0.930 . S
C3150 C3148 1.395 . S
C3150 C3153 1.403 . S
C3151 C3148 1.403 . S
C3151 C3152 1.524 . S
C3151 C3155 1.400 . S
C3152 H3137 0.960 . S
C3152 H3138 0.960 . S
C3152 H3139 0.960 . S
C3152 C3151 1.524 . S
C3153 C3150 1.403 . S
C3153 C3154 1.392 . S
C3153 C3157 1.495 . S
C3154 C3153 1.392 . S
C3154 C3155 1.385 . S
C3154 C3156 1.478 . S
C3155 H3149 0.930 . S
C3155 C3151 1.400 . S
C3155 C3154 1.385 . S
C3156 C3154 1.478 . S
C3156 C3158 1.381 . S
C3156 C3162 1.383 . S
C3157 C3153 1.495 . S
C3157 H3163 0.959 . S
C3157 H3164 0.961 . S
C3157 H3165 0.960 . S
C3158 C3156 1.381 . S
C3158 C3159 1.394 . S
C3158 H3166 0.930 1_554 S
C3159 C3158 1.394 . S
C3159 C3160 1.383 . S
C3159 H3167 0.929 1_554 S
C3160 C3159 1.383 . S
C3160 C3161 1.377 . S
C3161 H3145 0.930 . S
C3161 C3160 1.377 . S
C3161 C3162 1.379 . S
C3162 H3146 0.931 . S
C3162 C3156 1.383 . S
C3162 C3161 1.379 . S
H3163 C3157 0.959 . S
H3164 C3157 0.961 . S
H3165 C3157 0.960 . S
H3166 C3158 0.930 1_556 S
H3167 C3159 0.929 1_556 S
H3168 C3176 0.929 . S
H3169 C3178 0.930 . S
H3170 C3180 0.930 . S
H3171 C3183 0.929 . S
H3172 C3186 0.930 . S
H3173 C3188 0.960 . S
H3174 C3188 0.960 . S
H3175 C3188 0.960 . S
C3176 H3168 0.929 . S
C3176 C3177 1.377 . S
C3176 C3178 1.384 . S
C3177 C3176 1.377 . S
C3177 C3183 1.390 . S
C3178 H3169 0.930 . S
C3178 C3176 1.384 . S
C3178 C3179 1.372 . S
C3179 C3178 1.372 . S
C3179 C3180 1.400 . S
C3179 C3184 1.490 . S
C3180 H3170 0.930 . S
C3180 C3179 1.400 . S
C3180 C3183 1.386 . S
H3181 C3197 0.930 . S
H3182 C3198 0.931 . S
C3183 H3171 0.929 . S
C3183 C3177 1.390 . S
C3183 C3180 1.386 . S
C3184 C3179 1.490 . S
C3184 C3186 1.395 . S
C3184 C3187 1.403 . S
H3185 C3191 0.930 . S
C3186 H3172 0.930 . S
C3186 C3184 1.395 . S
C3186 C3189 1.403 . S
C3187 C3184 1.403 . S
C3187 C3188 1.524 . S
C3187 C3191 1.400 . S
C3188 H3173 0.960 . S
C3188 H3174 0.960 . S
C3188 H3175 0.960 . S
C3188 C3187 1.524 . S
C3189 C3186 1.403 . S
C3189 C3190 1.392 . S
C3189 C3193 1.495 . S
C3190 C3189 1.392 . S
C3190 C3191 1.385 . S
C3190 C3192 1.478 . S
C3191 H3185 0.930 . S
C3191 C3187 1.400 . S
C3191 C3190 1.385 . S
C3192 C3190 1.478 . S
C3192 C3194 1.381 . S
C3192 C3198 1.383 . S
C3193 C3189 1.495 . S
C3193 H3199 0.959 . S
C3193 H3200 0.961 . S
C3193 H3201 0.960 . S
C3194 C3192 1.381 . S
C3194 C3195 1.394 . S
C3194 H3202 0.930 . S
C3195 C3194 1.394 . S
C3195 C3196 1.383 . S
C3195 H3203 0.929 . S
C3196 C3195 1.383 . S
C3196 C3197 1.377 . S
C3197 H3181 0.930 . S
C3197 C3196 1.377 . S
C3197 C3198 1.379 . S
C3198 H3182 0.931 . S
C3198 C3192 1.383 . S
C3198 C3197 1.379 . S
H3199 C3193 0.959 . S
H3200 C3193 0.961 . S
H3201 C3193 0.960 . S
H3202 C3194 0.930 . S
H3203 C3195 0.929 . S
H3204 C3212 0.929 . S
H3205 C3214 0.930 . S
H3206 C3216 0.930 . S
H3207 C3219 0.929 . S
H3208 C3222 0.930 . S
H3209 C3224 0.960 . S
H3210 C3224 0.960 . S
H3211 C3224 0.960 . S
C3212 H3204 0.929 . S
C3212 C3213 1.377 . S
C3212 C3214 1.384 . S
C3213 C3212 1.377 . S
C3213 C3219 1.390 . S
C3214 H3205 0.930 . S
C3214 C3212 1.384 . S
C3214 C3215 1.372 . S
C3215 C3214 1.372 . S
C3215 C3216 1.400 . S
C3215 C3220 1.490 . S
C3216 H3206 0.930 . S
C3216 C3215 1.400 . S
C3216 C3219 1.386 . S
H3217 C3233 0.930 . S
H3218 C3234 0.931 . S
C3219 H3207 0.929 . S
C3219 C3213 1.390 . S
C3219 C3216 1.386 . S
C3220 C3215 1.490 . S
C3220 C3222 1.395 . S
C3220 C3223 1.403 . S
H3221 C3227 0.930 . S
C3222 H3208 0.930 . S
C3222 C3220 1.395 . S
C3222 C3225 1.403 . S
C3223 C3220 1.403 . S
C3223 C3224 1.524 . S
C3223 C3227 1.400 . S
C3224 H3209 0.960 . S
C3224 H3210 0.960 . S
C3224 H3211 0.960 . S
C3224 C3223 1.524 . S
C3225 C3222 1.403 . S
C3225 C3226 1.392 . S
C3225 C3229 1.495 . S
C3226 C3225 1.392 . S
C3226 C3227 1.385 . S
C3226 C3228 1.478 . S
C3227 H3221 0.930 . S
C3227 C3223 1.400 . S
C3227 C3226 1.385 . S
C3228 C3226 1.478 . S
C3228 C3230 1.381 . S
C3228 C3234 1.383 . S
C3229 C3225 1.495 . S
C3229 H3235 0.959 . S
C3229 H3236 0.961 . S
C3229 H3237 0.960 . S
C3230 C3228 1.381 . S
C3230 C3231 1.394 . S
C3230 H3238 0.930 . S
C3231 C3230 1.394 . S
C3231 C3232 1.383 . S
C3231 H3239 0.929 . S
C3232 C3231 1.383 . S
C3232 C3233 1.377 . S
C3233 H3217 0.930 . S
C3233 C3232 1.377 . S
C3233 C3234 1.379 . S
C3234 H3218 0.931 . S
C3234 C3228 1.383 . S
C3234 C3233 1.379 . S
H3235 C3229 0.959 . S
H3236 C3229 0.961 . S
H3237 C3229 0.960 . S
H3238 C3230 0.930 . S
H3239 C3231 0.929 . S
H3240 C3248 0.929 . S
H3241 C3250 0.930 . S
H3242 C3252 0.930 . S
H3243 C3255 0.929 1_545 S
H3244 C3258 0.930 . S
H3245 C3260 0.960 . S
H3246 C3260 0.960 . S
H3247 C3260 0.960 . S
C3248 H3240 0.929 . S
C3248 C3249 1.414 . S
C3248 C3250 1.384 . S
C3249 C3248 1.414 . S
C3249 C3255 1.407 . S
C3250 H3241 0.930 . S
C3250 C3248 1.384 . S
C3250 C3251 1.372 . S
C3251 C3250 1.372 . S
C3251 C3252 1.400 . S
C3251 C3256 1.490 . S
C3252 H3242 0.930 . S
C3252 C3251 1.400 . S
C3252 C3255 1.386 . S
H3253 C3269 0.930 . S
H3254 C3270 0.931 . S
C3255 H3243 0.929 1_565 S
C3255 C3249 1.407 . S
C3255 C3252 1.386 . S
C3256 C3251 1.490 . S
C3256 C3258 1.395 . S
C3256 C3259 1.403 . S
H3257 C3263 0.930 . S
C3258 H3244 0.930 . S
C3258 C3256 1.395 . S
C3258 C3261 1.403 . S
C3259 C3256 1.403 . S
C3259 C3260 1.524 . S
C3259 C3263 1.400 . S
C3260 H3245 0.960 . S
C3260 H3246 0.960 . S
C3260 H3247 0.960 . S
C3260 C3259 1.524 . S
C3261 C3258 1.403 . S
C3261 C3262 1.392 . S
C3261 C3265 1.495 . S
C3262 C3261 1.392 . S
C3262 C3263 1.385 . S
C3262 C3264 1.478 . S
C3263 H3257 0.930 . S
C3263 C3259 1.400 . S
C3263 C3262 1.385 . S
C3264 C3262 1.478 . S
C3264 C3266 1.381 . S
C3264 C3270 1.383 . S
C3265 C3261 1.495 . S
C3265 H3271 0.959 . S
C3265 H3272 0.961 . S
C3265 H3273 0.960 . S
C3266 C3264 1.381 . S
C3266 C3267 1.394 . S
C3266 H3274 0.930 . S
C3267 C3266 1.394 . S
C3267 C3268 1.383 . S
C3267 H3275 0.929 . S
C3268 C3267 1.383 . S
C3268 C3269 1.377 . S
C3269 H3253 0.930 . S
C3269 C3268 1.377 . S
C3269 C3270 1.379 . S
C3270 H3254 0.931 . S
C3270 C3264 1.383 . S
C3270 C3269 1.379 . S
H3271 C3265 0.959 . S
H3272 C3265 0.961 . S
H3273 C3265 0.960 . S
H3274 C3266 0.930 . S
H3275 C3267 0.929 . S
H3276 C3284 0.929 . S
H3277 C3286 0.930 . S
H3278 C3288 0.930 . S
H3279 C3291 0.929 . S
H3280 C3294 0.930 . S
H3281 C3296 0.960 . S
H3282 C3296 0.960 . S
H3283 C3296 0.960 . S
C3284 H3276 0.929 . S
C3284 C3285 1.377 . S
C3284 C3286 1.384 . S
C3285 C3284 1.377 . S
C3285 C3291 1.390 . S
C3286 H3277 0.930 . S
C3286 C3284 1.384 . S
C3286 C3287 1.372 . S
C3287 C3286 1.372 . S
C3287 C3288 1.400 . S
C3287 C3292 1.490 . S
C3288 H3278 0.930 . S
C3288 C3287 1.400 . S
C3288 C3291 1.386 . S
H3289 C3305 0.930 . S
H3290 C3306 0.931 . S
C3291 H3279 0.929 . S
C3291 C3285 1.390 . S
C3291 C3288 1.386 . S
C3292 C3287 1.490 . S
C3292 C3294 1.395 . S
C3292 C3295 1.403 . S
H3293 C3299 0.930 . S
C3294 H3280 0.930 . S
C3294 C3292 1.395 . S
C3294 C3297 1.403 . S
C3295 C3292 1.403 . S
C3295 C3296 1.524 . S
C3295 C3299 1.400 . S
C3296 H3281 0.960 . S
C3296 H3282 0.960 . S
C3296 H3283 0.960 . S
C3296 C3295 1.524 . S
C3297 C3294 1.403 . S
C3297 C3298 1.392 . S
C3297 C3301 1.495 . S
C3298 C3297 1.392 . S
C3298 C3299 1.385 . S
C3298 C3300 1.478 . S
C3299 H3293 0.930 . S
C3299 C3295 1.400 . S
C3299 C3298 1.385 . S
C3300 C3298 1.478 . S
C3300 C3302 1.381 . S
C3300 C3306 1.383 . S
C3301 C3297 1.495 . S
C3301 H3307 0.959 . S
C3301 H3308 0.961 . S
C3301 H3309 0.960 . S
C3302 C3300 1.381 . S
C3302 C3303 1.394 . S
C3302 H3310 0.930 . S
C3303 C3302 1.394 . S
C3303 C3304 1.383 . S
C3303 H3311 0.929 . S
C3304 C3303 1.383 . S
C3304 C3305 1.377 . S
C3305 H3289 0.930 . S
C3305 C3304 1.377 . S
C3305 C3306 1.379 . S
C3306 H3290 0.931 . S
C3306 C3300 1.383 . S
C3306 C3305 1.379 . S
H3307 C3301 0.959 . S
H3308 C3301 0.961 . S
H3309 C3301 0.960 . S
H3310 C3302 0.930 . S
H3311 C3303 0.929 . S
H3312 C3320 0.929 . S
H3313 C3322 0.930 . S
H3314 C3324 0.930 . S
H3315 C3327 0.929 . S
H3316 C3330 0.930 . S
H3317 C3332 0.960 . S
H3318 C3332 0.960 . S
H3319 C3332 0.960 . S
C3320 H3312 0.929 . S
C3320 C3321 1.377 . S
C3320 C3322 1.384 . S
C3321 C3320 1.377 . S
C3321 C3327 1.390 . S
C3322 H3313 0.930 . S
C3322 C3320 1.384 . S
C3322 C3323 1.372 . S
C3323 C3322 1.372 . S
C3323 C3324 1.400 . S
C3323 C3328 1.490 . S
C3324 H3314 0.930 . S
C3324 C3323 1.400 . S
C3324 C3327 1.386 . S
H3325 C3341 0.930 . S
H3326 C3342 0.931 . S
C3327 H3315 0.929 . S
C3327 C3321 1.390 . S
C3327 C3324 1.386 . S
C3328 C3323 1.490 . S
C3328 C3330 1.395 . S
C3328 C3331 1.403 . S
H3329 C3335 0.930 . S
C3330 H3316 0.930 . S
C3330 C3328 1.395 . S
C3330 C3333 1.403 . S
C3331 C3328 1.403 . S
C3331 C3332 1.524 . S
C3331 C3335 1.400 . S
C3332 H3317 0.960 . S
C3332 H3318 0.960 . S
C3332 H3319 0.960 . S
C3332 C3331 1.524 . S
C3333 C3330 1.403 . S
C3333 C3334 1.392 . S
C3333 C3337 1.495 . S
C3334 C3333 1.392 . S
C3334 C3335 1.385 . S
C3334 C3336 1.478 . S
C3335 H3329 0.930 . S
C3335 C3331 1.400 . S
C3335 C3334 1.385 . S
C3336 C3334 1.478 . S
C3336 C3338 1.381 . S
C3336 C3342 1.383 . S
C3337 C3333 1.495 . S
C3337 H3343 0.959 . S
C3337 H3344 0.961 . S
C3337 H3345 0.960 . S
C3338 C3336 1.381 . S
C3338 C3339 1.394 . S
C3338 H3346 0.930 . S
C3339 C3338 1.394 . S
C3339 C3340 1.383 . S
C3339 H3347 0.929 . S
C3340 C3339 1.383 . S
C3340 C3341 1.377 . S
C3341 H3325 0.930 . S
C3341 C3340 1.377 . S
C3341 C3342 1.379 . S
C3342 H3326 0.931 . S
C3342 C3336 1.383 . S
C3342 C3341 1.379 . S
H3343 C3337 0.959 . S
H3344 C3337 0.961 . S
H3345 C3337 0.960 . S
H3346 C3338 0.930 . S
H3347 C3339 0.929 . S
H3348 C3356 0.929 . S
H3349 C3358 0.930 . S
H3350 C3360 0.930 . S
H3351 C3363 0.929 . S
H3352 C3366 0.930 . S
H3353 C3368 0.960 . S
H3354 C3368 0.960 . S
H3355 C3368 0.960 . S
C3356 H3348 0.929 . S
C3356 C3357 1.377 . S
C3356 C3358 1.384 . S
C3357 C3356 1.377 . S
C3357 C3363 1.390 . S
C3358 H3349 0.930 . S
C3358 C3356 1.384 . S
C3358 C3359 1.372 . S
C3359 C3358 1.372 . S
C3359 C3360 1.400 . S
C3359 C3364 1.490 . S
C3360 H3350 0.930 . S
C3360 C3359 1.400 . S
C3360 C3363 1.386 . S
H3361 C3377 0.930 . S
H3362 C3378 0.931 . S
C3363 H3351 0.929 . S
C3363 C3357 1.390 . S
C3363 C3360 1.386 . S
C3364 C3359 1.490 . S
C3364 C3366 1.395 . S
C3364 C3367 1.403 . S
H3365 C3371 0.930 . S
C3366 H3352 0.930 . S
C3366 C3364 1.395 . S
C3366 C3369 1.403 . S
C3367 C3364 1.403 . S
C3367 C3368 1.524 . S
C3367 C3371 1.400 . S
C3368 H3353 0.960 . S
C3368 H3354 0.960 . S
C3368 H3355 0.960 . S
C3368 C3367 1.524 . S
C3369 C3366 1.403 . S
C3369 C3370 1.392 . S
C3369 C3373 1.495 . S
C3370 C3369 1.392 . S
C3370 C3371 1.385 . S
C3370 C3372 1.478 . S
C3371 H3365 0.930 . S
C3371 C3367 1.400 . S
C3371 C3370 1.385 . S
C3372 C3370 1.478 . S
C3372 C3374 1.381 . S
C3372 C3378 1.383 . S
C3373 C3369 1.495 . S
C3373 H3379 0.959 . S
C3373 H3380 0.961 . S
C3373 H3381 0.960 . S
C3374 C3372 1.381 . S
C3374 C3375 1.394 . S
C3374 H3382 0.930 . S
C3375 C3374 1.394 . S
C3375 C3376 1.383 . S
C3375 H3383 0.929 . S
C3376 C3375 1.383 . S
C3376 C3377 1.377 . S
C3377 H3361 0.930 . S
C3377 C3376 1.377 . S
C3377 C3378 1.379 . S
C3378 H3362 0.931 . S
C3378 C3372 1.383 . S
C3378 C3377 1.379 . S
H3379 C3373 0.959 . S
H3380 C3373 0.961 . S
H3381 C3373 0.960 . S
H3382 C3374 0.930 . S
H3383 C3375 0.929 . S
H3384 C3392 0.929 . S
H3385 C3394 0.930 . S
H3386 C3396 0.930 . S
H3387 C3399 0.929 . S
H3388 C3402 0.930 . S
H3389 C3404 0.960 . S
H3390 C3404 0.960 . S
H3391 C3404 0.960 . S
C3392 H3384 0.929 . S
C3392 C3393 1.377 . S
C3392 C3394 1.384 . S
C3393 C3392 1.377 . S
C3393 C3399 1.390 . S
C3394 H3385 0.930 . S
C3394 C3392 1.384 . S
C3394 C3395 1.372 . S
C3395 C3394 1.372 . S
C3395 C3396 1.400 . S
C3395 C3400 1.490 . S
C3396 H3386 0.930 . S
C3396 C3395 1.400 . S
C3396 C3399 1.386 . S
H3397 C3413 0.930 . S
H3398 C3414 0.931 . S
C3399 H3387 0.929 . S
C3399 C3393 1.390 . S
C3399 C3396 1.386 . S
C3400 C3395 1.490 . S
C3400 C3402 1.395 . S
C3400 C3403 1.403 . S
H3401 C3407 0.930 . S
C3402 H3388 0.930 . S
C3402 C3400 1.395 . S
C3402 C3405 1.403 . S
C3403 C3400 1.403 . S
C3403 C3404 1.524 . S
C3403 C3407 1.400 . S
C3404 H3389 0.960 . S
C3404 H3390 0.960 . S
C3404 H3391 0.960 . S
C3404 C3403 1.524 . S
C3405 C3402 1.403 . S
C3405 C3406 1.392 . S
C3405 C3409 1.495 . S
C3406 C3405 1.392 . S
C3406 C3407 1.385 . S
C3406 C3408 1.478 . S
C3407 H3401 0.930 . S
C3407 C3403 1.400 . S
C3407 C3406 1.385 . S
C3408 C3406 1.478 . S
C3408 C3410 1.381 . S
C3408 C3414 1.383 . S
C3409 C3405 1.495 . S
C3409 H3415 0.959 . S
C3409 H3416 0.961 . S
C3409 H3417 0.960 . S
C3410 C3408 1.381 . S
C3410 C3411 1.394 . S
C3410 H3418 0.930 . S
C3411 C3410 1.394 . S
C3411 C3412 1.383 . S
C3411 H3419 0.929 . S
C3412 C3411 1.383 . S
C3412 C3413 1.377 . S
C3413 H3397 0.930 . S
C3413 C3412 1.377 . S
C3413 C3414 1.379 . S
C3414 H3398 0.931 . S
C3414 C3408 1.383 . S
C3414 C3413 1.379 . S
H3415 C3409 0.959 . S
H3416 C3409 0.961 . S
H3417 C3409 0.960 . S
H3418 C3410 0.930 . S
H3419 C3411 0.929 . S
H3420 C3428 0.929 . S
H3421 C3430 0.930 . S
H3422 C3432 0.930 . S
H3423 C3435 0.929 . S
H3424 C3438 0.930 . S
H3425 C3440 0.960 . S
H3426 C3440 0.960 . S
H3427 C3440 0.960 . S
C3428 H3420 0.929 . S
C3428 C3429 1.377 . S
C3428 C3430 1.384 . S
C3429 C3428 1.377 . S
C3429 C3435 1.390 . S
C3430 H3421 0.930 . S
C3430 C3428 1.384 . S
C3430 C3431 1.372 . S
C3431 C3430 1.372 . S
C3431 C3432 1.400 . S
C3431 C3436 1.490 . S
C3432 H3422 0.930 . S
C3432 C3431 1.400 . S
C3432 C3435 1.386 . S
H3433 C3449 0.930 . S
H3434 C3450 0.931 . S
C3435 H3423 0.929 . S
C3435 C3429 1.390 . S
C3435 C3432 1.386 . S
C3436 C3431 1.490 . S
C3436 C3438 1.395 . S
C3436 C3439 1.403 . S
H3437 C3443 0.930 . S
C3438 H3424 0.930 . S
C3438 C3436 1.395 . S
C3438 C3441 1.403 . S
C3439 C3436 1.403 . S
C3439 C3440 1.524 . S
C3439 C3443 1.400 . S
C3440 H3425 0.960 . S
C3440 H3426 0.960 . S
C3440 H3427 0.960 . S
C3440 C3439 1.524 . S
C3441 C3438 1.403 . S
C3441 C3442 1.392 . S
C3441 C3445 1.495 . S
C3442 C3441 1.392 . S
C3442 C3443 1.385 . S
C3442 C3444 1.478 . S
C3443 H3437 0.930 . S
C3443 C3439 1.400 . S
C3443 C3442 1.385 . S
C3444 C3442 1.478 . S
C3444 C3446 1.381 . S
C3444 C3450 1.383 . S
C3445 C3441 1.495 . S
C3445 H3451 0.959 . S
C3445 H3452 0.961 . S
C3445 H3453 0.960 . S
C3446 C3444 1.381 . S
C3446 C3447 1.394 . S
C3446 H3454 0.930 . S
C3447 C3446 1.394 . S
C3447 C3448 1.383 . S
C3447 H3455 0.929 . S
C3448 C3447 1.383 . S
C3448 C3449 1.377 . S
C3449 H3433 0.930 . S
C3449 C3448 1.377 . S
C3449 C3450 1.379 . S
C3450 H3434 0.931 . S
C3450 C3444 1.383 . S
C3450 C3449 1.379 . S
H3451 C3445 0.959 . S
H3452 C3445 0.961 . S
H3453 C3445 0.960 . S
H3454 C3446 0.930 . S
H3455 C3447 0.929 . S
H3456 C3464 0.929 . S
H3457 C3466 0.930 . S
H3458 C3468 0.930 . S
H3459 C3471 0.929 . S
H3460 C3474 0.930 . S
H3461 C3476 0.960 . S
H3462 C3476 0.960 . S
H3463 C3476 0.960 . S
C3464 H3456 0.929 . S
C3464 C3465 1.377 1_655 S
C3464 C3466 1.384 . S
C3465 C3464 1.377 1_455 S
C3465 C3471 1.390 . S
C3466 H3457 0.930 . S
C3466 C3464 1.384 . S
C3466 C3467 1.372 1_655 S
C3467 C3466 1.372 1_455 S
C3467 C3468 1.400 . S
C3467 C3472 1.490 . S
C3468 H3458 0.930 . S
C3468 C3467 1.400 . S
C3468 C3471 1.386 . S
H3469 C3485 0.930 . S
H3470 C3486 0.931 . S
C3471 H3459 0.929 . S
C3471 C3465 1.390 . S
C3471 C3468 1.386 . S
C3472 C3467 1.490 . S
C3472 C3474 1.395 1_455 S
C3472 C3475 1.403 . S
H3473 C3479 0.930 . S
C3474 H3460 0.930 . S
C3474 C3472 1.395 1_655 S
C3474 C3477 1.403 . S
C3475 C3472 1.403 . S
C3475 C3476 1.524 . S
C3475 C3479 1.400 . S
C3476 H3461 0.960 . S
C3476 H3462 0.960 . S
C3476 H3463 0.960 . S
C3476 C3475 1.524 . S
C3477 C3474 1.403 . S
C3477 C3478 1.392 1_655 S
C3477 C3481 1.495 1_556 S
C3478 C3477 1.392 1_455 S
C3478 C3479 1.385 . S
C3478 C3480 1.478 1_556 S
C3479 H3473 0.930 . S
C3479 C3475 1.400 . S
C3479 C3478 1.385 . S
C3480 C3478 1.478 1_554 S
C3480 C3482 1.362 1_454 S
C3480 C3486 1.383 . S
C3481 C3477 1.495 1_554 S
C3481 H3487 0.959 . S
C3481 H3488 0.961 . S
C3481 H3489 0.983 . S
C3482 C3480 1.362 1_656 S
C3482 C3483 1.383 1_556 S
C3482 H3490 0.964 . S
C3483 C3482 1.383 1_554 S
C3483 C3484 1.383 1_655 S
C3483 H3491 0.949 . S
C3484 C3483 1.383 1_455 S
C3484 C3485 1.377 . S
C3485 H3469 0.930 . S
C3485 C3484 1.377 . S
C3485 C3486 1.379 . S
C3486 H3470 0.931 . S
C3486 C3480 1.383 . S
C3486 C3485 1.379 . S
H3487 C3481 0.959 . S
H3488 C3481 0.961 . S
H3489 C3481 0.983 . S
H3490 C3482 0.964 . S
H3491 C3483 0.949 . S
H3492 C3500 0.929 . S
H3493 C3502 0.930 . S
H3494 C3504 0.930 . S
H3495 C3507 0.929 1_455 S
H3496 C3510 0.930 . S
H3497 C3512 0.960 . S
H3498 C3512 0.960 . S
H3499 C3512 0.960 . S
C3500 H3492 0.929 . S
C3500 C3501 1.407 . S
C3500 C3502 1.384 . S
C3501 C3500 1.407 . S
C3501 C3507 1.395 . S
C3502 H3493 0.930 . S
C3502 C3500 1.384 . S
C3502 C3503 1.372 . S
C3503 C3502 1.372 . S
C3503 C3504 1.400 . S
C3503 C3508 1.490 . S
C3504 H3494 0.930 . S
C3504 C3503 1.400 . S
C3504 C3507 1.386 . S
H3505 C3521 0.930 . S
H3506 C3522 0.931 . S
C3507 H3495 0.929 1_655 S
C3507 C3501 1.395 . S
C3507 C3504 1.386 . S
C3508 C3503 1.490 . S
C3508 C3510 1.395 . S
C3508 C3511 1.403 . S
H3509 C3515 0.930 . S
C3510 H3496 0.930 . S
C3510 C3508 1.395 . S
C3510 C3513 1.403 . S
C3511 C3508 1.403 . S
C3511 C3512 1.524 . S
C3511 C3515 1.400 . S
C3512 H3497 0.960 . S
C3512 H3498 0.960 . S
C3512 H3499 0.960 . S
C3512 C3511 1.524 . S
C3513 C3510 1.403 . S
C3513 C3514 1.392 . S
C3513 C3517 1.495 . S
C3514 C3513 1.392 . S
C3514 C3515 1.385 . S
C3514 C3516 1.478 . S
C3515 H3509 0.930 . S
C3515 C3511 1.400 . S
C3515 C3514 1.385 . S
C3516 C3514 1.478 . S
C3516 C3518 1.381 . S
C3516 C3522 1.383 . S
C3517 C3513 1.495 . S
C3517 H3523 0.959 . S
C3517 H3524 0.961 . S
C3517 H3525 0.960 . S
C3518 C3516 1.381 . S
C3518 C3519 1.394 . S
C3518 H3526 0.930 . S
C3519 C3518 1.394 . S
C3519 C3520 1.383 . S
C3519 H3527 0.929 . S
C3520 C3519 1.383 . S
C3520 C3521 1.377 . S
C3521 H3505 0.930 . S
C3521 C3520 1.377 . S
C3521 C3522 1.379 . S
C3522 H3506 0.931 . S
C3522 C3516 1.383 . S
C3522 C3521 1.379 . S
H3523 C3517 0.959 . S
H3524 C3517 0.961 . S
H3525 C3517 0.960 . S
H3526 C3518 0.930 . S
H3527 C3519 0.929 . S
H3528 C3536 0.929 . S
H3529 C3538 0.930 . S
H3530 C3540 0.930 . S
H3531 C3543 0.929 . S
H3532 C3546 0.930 . S
H3533 C3548 0.960 . S
H3534 C3548 0.960 . S
H3535 C3548 0.960 . S
C3536 H3528 0.929 . S
C3536 C3537 1.377 . S
C3536 C3538 1.384 . S
C3537 C3536 1.377 . S
C3537 C3543 1.390 . S
C3538 H3529 0.930 . S
C3538 C3536 1.384 . S
C3538 C3539 1.372 . S
C3539 C3538 1.372 . S
C3539 C3540 1.400 . S
C3539 C3544 1.490 . S
C3540 H3530 0.930 . S
C3540 C3539 1.400 . S
C3540 C3543 1.386 . S
H3541 C3557 0.930 . S
H3542 C3558 0.931 . S
C3543 H3531 0.929 . S
C3543 C3537 1.390 . S
C3543 C3540 1.386 . S
C3544 C3539 1.490 . S
C3544 C3546 1.395 . S
C3544 C3547 1.403 . S
H3545 C3551 0.930 . S
C3546 H3532 0.930 . S
C3546 C3544 1.395 . S
C3546 C3549 1.403 . S
C3547 C3544 1.403 . S
C3547 C3548 1.524 . S
C3547 C3551 1.400 . S
C3548 H3533 0.960 . S
C3548 H3534 0.960 . S
C3548 H3535 0.960 . S
C3548 C3547 1.524 . S
C3549 C3546 1.403 . S
C3549 C3550 1.392 . S
C3549 C3553 1.495 . S
C3550 C3549 1.392 . S
C3550 C3551 1.385 . S
C3550 C3552 1.478 . S
C3551 H3545 0.930 . S
C3551 C3547 1.400 . S
C3551 C3550 1.385 . S
C3552 C3550 1.478 . S
C3552 C3554 1.381 . S
C3552 C3558 1.383 . S
C3553 C3549 1.495 . S
C3553 H3559 0.959 . S
C3553 H3560 0.961 . S
C3553 H3561 0.960 . S
C3554 C3552 1.381 . S
C3554 C3555 1.394 . S
C3554 H3562 0.930 . S
C3555 C3554 1.394 . S
C3555 C3556 1.383 . S
C3555 H3563 0.929 . S
C3556 C3555 1.383 . S
C3556 C3557 1.377 . S
C3557 H3541 0.930 . S
C3557 C3556 1.377 . S
C3557 C3558 1.379 . S
C3558 H3542 0.931 . S
C3558 C3552 1.383 . S
C3558 C3557 1.379 . S
H3559 C3553 0.959 . S
H3560 C3553 0.961 . S
H3561 C3553 0.960 . S
H3562 C3554 0.930 . S
H3563 C3555 0.929 . S
H3564 C3572 0.929 . S
H3565 C3574 0.930 . S
H3566 C3576 0.930 . S
H3567 C3579 0.929 . S
H3568 C3582 0.930 . S
H3569 C3584 0.960 . S
H3570 C3584 0.960 . S
H3571 C3584 0.960 . S
C3572 H3564 0.929 . S
C3572 C3573 1.377 . S
C3572 C3574 1.384 . S
C3573 C3572 1.377 . S
C3573 C3579 1.390 . S
C3574 H3565 0.930 . S
C3574 C3572 1.384 . S
C3574 C3575 1.372 . S
C3575 C3574 1.372 . S
C3575 C3576 1.400 . S
C3575 C3580 1.490 . S
C3576 H3566 0.930 . S
C3576 C3575 1.400 . S
C3576 C3579 1.386 . S
H3577 C3593 0.930 . S
H3578 C3594 0.931 . S
C3579 H3567 0.929 . S
C3579 C3573 1.390 . S
C3579 C3576 1.386 . S
C3580 C3575 1.490 . S
C3580 C3582 1.395 . S
C3580 C3583 1.403 . S
H3581 C3587 0.930 . S
C3582 H3568 0.930 . S
C3582 C3580 1.395 . S
C3582 C3585 1.403 . S
C3583 C3580 1.403 . S
C3583 C3584 1.524 . S
C3583 C3587 1.400 . S
C3584 H3569 0.960 . S
C3584 H3570 0.960 . S
C3584 H3571 0.960 . S
C3584 C3583 1.524 . S
C3585 C3582 1.403 . S
C3585 C3586 1.392 . S
C3585 C3589 1.495 . S
C3586 C3585 1.392 . S
C3586 C3587 1.385 . S
C3586 C3588 1.478 . S
C3587 H3581 0.930 . S
C3587 C3583 1.400 . S
C3587 C3586 1.385 . S
C3588 C3586 1.478 . S
C3588 C3590 1.381 . S
C3588 C3594 1.383 . S
C3589 C3585 1.495 . S
C3589 H3595 0.959 . S
C3589 H3596 0.961 . S
C3589 H3597 0.960 . S
C3590 C3588 1.381 . S
C3590 C3591 1.394 . S
C3590 H3598 0.930 . S
C3591 C3590 1.394 . S
C3591 C3592 1.383 . S
C3591 H3599 0.929 . S
C3592 C3591 1.383 . S
C3592 C3593 1.377 . S
C3593 H3577 0.930 . S
C3593 C3592 1.377 . S
C3593 C3594 1.379 . S
C3594 H3578 0.931 . S
C3594 C3588 1.383 . S
C3594 C3593 1.379 . S
H3595 C3589 0.959 . S
H3596 C3589 0.961 . S
H3597 C3589 0.960 . S
H3598 C3590 0.930 . S
H3599 C3591 0.929 . S
H3600 C3608 0.929 . S
H3601 C3610 0.930 . S
H3602 C3612 0.930 . S
H3603 C3615 0.929 . S
H3604 C3618 0.930 . S
H3605 C3620 0.960 . S
H3606 C3620 0.960 . S
H3607 C3620 0.960 . S
C3608 H3600 0.929 . S
C3608 C3609 1.377 . S
C3608 C3610 1.384 . S
C3609 C3608 1.377 . S
C3609 C3615 1.390 1_455 S
C3610 H3601 0.930 . S
C3610 C3608 1.384 . S
C3610 C3611 1.372 . S
C3611 C3610 1.372 . S
C3611 C3612 1.400 1_455 S
C3611 C3616 1.490 . S
C3612 H3602 0.930 . S
C3612 C3611 1.400 1_655 S
C3612 C3615 1.386 . S
H3613 C3629 0.930 . S
H3614 C3630 0.931 . S
C3615 H3603 0.929 . S
C3615 C3609 1.390 1_655 S
C3615 C3612 1.386 . S
C3616 C3611 1.490 . S
C3616 C3618 1.395 . S
C3616 C3619 1.403 1_455 S
H3617 C3623 0.934 . S
C3618 H3604 0.930 . S
C3618 C3616 1.395 . S
C3618 C3621 1.403 . S
C3619 C3616 1.403 1_655 S
C3619 C3620 1.524 . S
C3619 C3623 1.403 . S
C3620 H3605 0.960 . S
C3620 H3606 0.960 . S
C3620 H3607 0.960 . S
C3620 C3619 1.524 . S
C3621 C3618 1.403 . S
C3621 C3622 1.392 . S
C3621 C3625 1.495 . S
C3622 C3621 1.392 . S
C3622 C3623 1.378 1_455 S
C3622 C3624 1.478 . S
C3623 H3617 0.934 . S
C3623 C3619 1.403 . S
C3623 C3622 1.378 1_655 S
C3624 C3622 1.478 . S
C3624 C3626 1.381 . S
C3624 C3630 1.383 1_455 S
C3625 C3621 1.495 . S
C3625 H3631 0.959 . S
C3625 H3632 0.961 . S
C3625 H3633 0.960 . S
C3626 C3624 1.381 . S
C3626 C3627 1.394 . S
C3626 H3634 0.930 . S
C3627 C3626 1.394 . S
C3627 C3628 1.383 . S
C3627 H3635 0.929 . S
C3628 C3627 1.383 . S
C3628 C3629 1.377 1_455 S
C3629 H3613 0.930 . S
C3629 C3628 1.377 1_655 S
C3629 C3630 1.379 . S
C3630 H3614 0.931 . S
C3630 C3624 1.383 1_655 S
C3630 C3629 1.379 . S
H3631 C3625 0.959 . S
H3632 C3625 0.961 . S
H3633 C3625 0.960 . S
H3634 C3626 0.930 . S
H3635 C3627 0.929 . S
H3636 C3644 0.929 . S
H3637 C3646 0.930 . S
H3638 C3648 0.930 . S
H3639 C3651 0.929 . S
H3640 C3654 0.930 . S
H3641 C3656 0.960 . S
H3642 C3656 0.960 . S
H3643 C3656 0.960 . S
C3644 H3636 0.929 . S
C3644 C3645 1.377 . S
C3644 C3646 1.384 . S
C3645 C3644 1.377 . S
C3645 C3651 1.390 . S
C3646 H3637 0.930 . S
C3646 C3644 1.384 . S
C3646 C3647 1.372 . S
C3647 C3646 1.372 . S
C3647 C3648 1.400 . S
C3647 C3652 1.490 . S
C3648 H3638 0.930 . S
C3648 C3647 1.400 . S
C3648 C3651 1.386 . S
H3649 C3665 0.930 . S
H3650 C3666 0.931 . S
C3651 H3639 0.929 . S
C3651 C3645 1.390 . S
C3651 C3648 1.386 . S
C3652 C3647 1.490 . S
C3652 C3654 1.395 . S
C3652 C3655 1.403 . S
H3653 C3659 0.930 . S
C3654 H3640 0.930 . S
C3654 C3652 1.395 . S
C3654 C3657 1.403 . S
C3655 C3652 1.403 . S
C3655 C3656 1.524 . S
C3655 C3659 1.400 . S
C3656 H3641 0.960 . S
C3656 H3642 0.960 . S
C3656 H3643 0.960 . S
C3656 C3655 1.524 . S
C3657 C3654 1.403 . S
C3657 C3658 1.392 . S
C3657 C3661 1.495 . S
C3658 C3657 1.392 . S
C3658 C3659 1.385 . S
C3658 C3660 1.478 . S
C3659 H3653 0.930 . S
C3659 C3655 1.400 . S
C3659 C3658 1.385 . S
C3660 C3658 1.478 . S
C3660 C3662 1.381 . S
C3660 C3666 1.383 . S
C3661 C3657 1.495 . S
C3661 H3667 0.959 . S
C3661 H3668 0.961 . S
C3661 H3669 0.960 . S
C3662 C3660 1.381 . S
C3662 C3663 1.394 . S
C3662 H3670 0.930 . S
C3663 C3662 1.394 . S
C3663 C3664 1.383 . S
C3663 H3671 0.929 . S
C3664 C3663 1.383 . S
C3664 C3665 1.377 . S
C3665 H3649 0.930 . S
C3665 C3664 1.377 . S
C3665 C3666 1.379 . S
C3666 H3650 0.931 . S
C3666 C3660 1.383 . S
C3666 C3665 1.379 . S
H3667 C3661 0.959 . S
H3668 C3661 0.961 . S
H3669 C3661 0.960 . S
H3670 C3662 0.930 . S
H3671 C3663 0.929 . S
H3672 C3680 0.929 . S
H3673 C3682 0.930 . S
H3674 C3684 0.930 . S
H3675 C3687 0.929 . S
H3676 C3690 0.930 . S
H3677 C3692 0.960 . S
H3678 C3692 0.960 . S
H3679 C3692 0.960 . S
C3680 H3672 0.929 . S
C3680 C3681 1.377 . S
C3680 C3682 1.384 . S
C3681 C3680 1.377 . S
C3681 C3687 1.390 . S
C3682 H3673 0.930 . S
C3682 C3680 1.384 . S
C3682 C3683 1.372 . S
C3683 C3682 1.372 . S
C3683 C3684 1.400 . S
C3683 C3688 1.490 . S
C3684 H3674 0.930 . S
C3684 C3683 1.400 . S
C3684 C3687 1.386 . S
H3685 C3701 0.930 . S
H3686 C3702 0.931 . S
C3687 H3675 0.929 . S
C3687 C3681 1.390 . S
C3687 C3684 1.386 . S
C3688 C3683 1.490 . S
C3688 C3690 1.395 . S
C3688 C3691 1.403 . S
H3689 C3695 0.930 . S
C3690 H3676 0.930 . S
C3690 C3688 1.395 . S
C3690 C3693 1.403 . S
C3691 C3688 1.403 . S
C3691 C3692 1.524 . S
C3691 C3695 1.400 . S
C3692 H3677 0.960 . S
C3692 H3678 0.960 . S
C3692 H3679 0.960 . S
C3692 C3691 1.524 . S
C3693 C3690 1.403 . S
C3693 C3694 1.392 . S
C3693 C3697 1.495 . S
C3694 C3693 1.392 . S
C3694 C3695 1.385 . S
C3694 C3696 1.478 . S
C3695 H3689 0.930 . S
C3695 C3691 1.400 . S
C3695 C3694 1.385 . S
C3696 C3694 1.478 . S
C3696 C3698 1.381 . S
C3696 C3702 1.383 . S
C3697 C3693 1.495 . S
C3697 H3703 0.959 . S
C3697 H3704 0.961 . S
C3697 H3705 0.960 . S
C3698 C3696 1.381 . S
C3698 C3699 1.394 . S
C3698 H3706 0.930 . S
C3699 C3698 1.394 . S
C3699 C3700 1.383 . S
C3699 H3707 0.929 . S
C3700 C3699 1.383 . S
C3700 C3701 1.377 . S
C3701 H3685 0.930 . S
C3701 C3700 1.377 . S
C3701 C3702 1.379 . S
C3702 H3686 0.931 . S
C3702 C3696 1.383 . S
C3702 C3701 1.379 . S
H3703 C3697 0.959 . S
H3704 C3697 0.961 . S
H3705 C3697 0.960 . S
H3706 C3698 0.930 . S
H3707 C3699 0.929 . S
H3708 C3716 0.929 . S
H3709 C3718 0.930 . S
H3710 C3720 0.930 . S
H3711 C3723 0.929 . S
H3712 C3726 0.930 . S
H3713 C3728 0.960 . S
H3714 C3728 0.960 . S
H3715 C3728 0.960 . S
C3716 H3708 0.929 . S
C3716 C3717 1.377 . S
C3716 C3718 1.384 1_554 S
C3717 C3716 1.377 . S
C3717 C3723 1.390 1_554 S
C3718 H3709 0.930 . S
C3718 C3716 1.384 1_556 S
C3718 C3719 1.372 . S
C3719 C3718 1.372 . S
C3719 C3720 1.400 . S
C3719 C3724 1.490 . S
C3720 H3710 0.930 . S
C3720 C3719 1.400 . S
C3720 C3723 1.386 . S
H3721 C3737 0.930 . S
H3722 C3738 0.931 . S
C3723 H3711 0.929 . S
C3723 C3717 1.390 1_556 S
C3723 C3720 1.386 . S
C3724 C3719 1.490 . S
C3724 C3726 1.395 . S
C3724 C3727 1.403 . S
H3725 C3731 0.930 . S
C3726 H3712 0.930 . S
C3726 C3724 1.395 . S
C3726 C3729 1.403 . S
C3727 C3724 1.403 . S
C3727 C3728 1.524 . S
C3727 C3731 1.400 . S
C3728 H3713 0.960 . S
C3728 H3714 0.960 . S
C3728 H3715 0.960 . S
C3728 C3727 1.524 . S
C3729 C3726 1.403 . S
C3729 C3730 1.392 . S
C3729 C3733 1.495 . S
C3730 C3729 1.392 . S
C3730 C3731 1.385 . S
C3730 C3732 1.478 . S
C3731 H3725 0.930 . S
C3731 C3727 1.400 . S
C3731 C3730 1.385 . S
C3732 C3730 1.478 . S
C3732 C3734 1.381 . S
C3732 C3738 1.383 . S
C3733 C3729 1.495 . S
C3733 H3739 0.959 . S
C3733 H3740 0.961 . S
C3733 H3741 0.960 . S
C3734 C3732 1.381 . S
C3734 C3735 1.394 . S
C3734 H3742 0.930 . S
C3735 C3734 1.394 . S
C3735 C3736 1.383 . S
C3735 H3743 0.929 . S
C3736 C3735 1.383 . S
C3736 C3737 1.377 . S
C3737 H3721 0.930 . S
C3737 C3736 1.377 . S
C3737 C3738 1.379 . S
C3738 H3722 0.931 . S
C3738 C3732 1.383 . S
C3738 C3737 1.379 . S
H3739 C3733 0.959 . S
H3740 C3733 0.961 . S
H3741 C3733 0.960 . S
H3742 C3734 0.930 . S
H3743 C3735 0.929 . S
H3744 C3752 0.929 . S
H3745 C3754 0.930 . S
H3746 C3756 0.930 . S
H3747 C3759 0.929 . S
H3748 C3762 0.930 . S
H3749 C3764 0.960 . S
H3750 C3764 0.960 . S
H3751 C3764 0.960 . S
C3752 H3744 0.929 . S
C3752 C3753 1.377 . S
C3752 C3754 1.384 . S
C3753 C3752 1.377 . S
C3753 C3759 1.390 . S
C3754 H3745 0.930 . S
C3754 C3752 1.384 . S
C3754 C3755 1.372 . S
C3755 C3754 1.372 . S
C3755 C3756 1.400 . S
C3755 C3760 1.490 . S
C3756 H3746 0.930 . S
C3756 C3755 1.400 . S
C3756 C3759 1.386 . S
H3757 C3773 0.930 . S
H3758 C3774 0.931 . S
C3759 H3747 0.929 . S
C3759 C3753 1.390 . S
C3759 C3756 1.386 . S
C3760 C3755 1.490 . S
C3760 C3762 1.395 . S
C3760 C3763 1.403 . S
H3761 C3767 0.930 . S
C3762 H3748 0.930 . S
C3762 C3760 1.395 . S
C3762 C3765 1.403 . S
C3763 C3760 1.403 . S
C3763 C3764 1.524 . S
C3763 C3767 1.400 . S
C3764 H3749 0.960 . S
C3764 H3750 0.960 . S
C3764 H3751 0.960 . S
C3764 C3763 1.524 . S
C3765 C3762 1.403 . S
C3765 C3766 1.392 . S
C3765 C3769 1.495 . S
C3766 C3765 1.392 . S
C3766 C3767 1.385 . S
C3766 C3768 1.478 . S
C3767 H3761 0.930 . S
C3767 C3763 1.400 . S
C3767 C3766 1.385 . S
C3768 C3766 1.478 . S
C3768 C3770 1.381 . S
C3768 C3774 1.383 . S
C3769 C3765 1.495 . S
C3769 H3775 0.959 . S
C3769 H3776 0.961 . S
C3769 H3777 0.960 . S
C3770 C3768 1.381 . S
C3770 C3771 1.394 . S
C3770 H3778 0.930 . S
C3771 C3770 1.394 . S
C3771 C3772 1.383 . S
C3771 H3779 0.929 . S
C3772 C3771 1.383 . S
C3772 C3773 1.377 . S
C3773 H3757 0.930 . S
C3773 C3772 1.377 . S
C3773 C3774 1.379 . S
C3774 H3758 0.931 . S
C3774 C3768 1.383 . S
C3774 C3773 1.379 . S
H3775 C3769 0.959 . S
H3776 C3769 0.961 . S
H3777 C3769 0.960 . S
H3778 C3770 0.930 . S
H3779 C3771 0.929 . S
H3780 C3788 0.929 . S
H3781 C3790 0.930 . S
H3782 C3792 0.930 . S
H3783 C3795 0.929 . S
H3784 C3798 0.930 . S
H3785 C3800 0.960 . S
H3786 C3800 0.960 . S
H3787 C3800 0.960 . S
C3788 H3780 0.929 . S
C3788 C3789 1.377 . S
C3788 C3790 1.384 . S
C3789 C3788 1.377 . S
C3789 C3795 1.390 . S
C3790 H3781 0.930 . S
C3790 C3788 1.384 . S
C3790 C3791 1.372 . S
C3791 C3790 1.372 . S
C3791 C3792 1.400 . S
C3791 C3796 1.490 . S
C3792 H3782 0.930 . S
C3792 C3791 1.400 . S
C3792 C3795 1.386 . S
H3793 C3809 0.930 . S
H3794 C3810 0.931 . S
C3795 H3783 0.929 . S
C3795 C3789 1.390 . S
C3795 C3792 1.386 . S
C3796 C3791 1.490 . S
C3796 C3798 1.395 . S
C3796 C3799 1.403 . S
H3797 C3803 0.930 . S
C3798 H3784 0.930 . S
C3798 C3796 1.395 . S
C3798 C3801 1.403 . S
C3799 C3796 1.403 . S
C3799 C3800 1.524 . S
C3799 C3803 1.400 . S
C3800 H3785 0.960 . S
C3800 H3786 0.960 . S
C3800 H3787 0.960 . S
C3800 C3799 1.524 . S
C3801 C3798 1.403 . S
C3801 C3802 1.392 . S
C3801 C3805 1.495 . S
C3802 C3801 1.392 . S
C3802 C3803 1.385 . S
C3802 C3804 1.478 . S
C3803 H3797 0.930 . S
C3803 C3799 1.400 . S
C3803 C3802 1.385 . S
C3804 C3802 1.478 . S
C3804 C3806 1.381 . S
C3804 C3810 1.383 . S
C3805 C3801 1.495 . S
C3805 H3811 0.959 . S
C3805 H3812 0.961 . S
C3805 H3813 0.960 . S
C3806 C3804 1.381 . S
C3806 C3807 1.394 . S
C3806 H3814 0.930 . S
C3807 C3806 1.394 . S
C3807 C3808 1.383 . S
C3807 H3815 0.929 . S
C3808 C3807 1.383 . S
C3808 C3809 1.377 . S
C3809 H3793 0.930 . S
C3809 C3808 1.377 . S
C3809 C3810 1.379 . S
C3810 H3794 0.931 . S
C3810 C3804 1.383 . S
C3810 C3809 1.379 . S
H3811 C3805 0.959 . S
H3812 C3805 0.961 . S
H3813 C3805 0.960 . S
H3814 C3806 0.930 . S
H3815 C3807 0.929 . S
H3816 C3824 0.929 . S
H3817 C3826 0.930 . S
H3818 C3828 0.930 . S
H3819 C3831 0.929 . S
H3820 C3834 0.930 . S
H3821 C3836 0.960 . S
H3822 C3836 0.960 . S
H3823 C3836 0.960 . S
C3824 H3816 0.929 . S
C3824 C3825 1.377 . S
C3824 C3826 1.384 . S
C3825 C3824 1.377 . S
C3825 C3831 1.390 . S
C3826 H3817 0.930 . S
C3826 C3824 1.384 . S
C3826 C3827 1.372 . S
C3827 C3826 1.372 . S
C3827 C3828 1.400 . S
C3827 C3832 1.490 . S
C3828 H3818 0.930 . S
C3828 C3827 1.400 . S
C3828 C3831 1.386 . S
H3829 C3845 0.930 . S
H3830 C3846 0.931 . S
C3831 H3819 0.929 . S
C3831 C3825 1.390 . S
C3831 C3828 1.386 . S
C3832 C3827 1.490 . S
C3832 C3834 1.395 . S
C3832 C3835 1.403 . S
H3833 C3839 0.930 . S
C3834 H3820 0.930 . S
C3834 C3832 1.395 . S
C3834 C3837 1.403 . S
C3835 C3832 1.403 . S
C3835 C3836 1.524 . S
C3835 C3839 1.400 . S
C3836 H3821 0.960 . S
C3836 H3822 0.960 . S
C3836 H3823 0.960 . S
C3836 C3835 1.524 . S
C3837 C3834 1.403 . S
C3837 C3838 1.392 . S
C3837 C3841 1.495 . S
C3838 C3837 1.392 . S
C3838 C3839 1.385 . S
C3838 C3840 1.478 . S
C3839 H3833 0.930 . S
C3839 C3835 1.400 . S
C3839 C3838 1.385 . S
C3840 C3838 1.478 . S
C3840 C3842 1.381 . S
C3840 C3846 1.383 . S
C3841 C3837 1.495 . S
C3841 H3847 0.959 . S
C3841 H3848 0.961 . S
C3841 H3849 0.960 . S
C3842 C3840 1.381 . S
C3842 C3843 1.394 . S
C3842 H3850 0.930 . S
C3843 C3842 1.394 . S
C3843 C3844 1.383 . S
C3843 H3851 0.929 . S
C3844 C3843 1.383 . S
C3844 C3845 1.377 . S
C3845 H3829 0.930 . S
C3845 C3844 1.377 . S
C3845 C3846 1.379 . S
C3846 H3830 0.931 . S
C3846 C3840 1.383 . S
C3846 C3845 1.379 . S
H3847 C3841 0.959 . S
H3848 C3841 0.961 . S
H3849 C3841 0.960 . S
H3850 C3842 0.930 . S
H3851 C3843 0.929 . S
H3852 C3860 0.929 . S
H3853 C3862 0.930 . S
H3854 C3864 0.930 . S
H3855 C3867 0.929 . S
H3856 C3870 0.930 . S
H3857 C3872 0.960 . S
H3858 C3872 0.960 . S
H3859 C3872 0.960 . S
C3860 H3852 0.929 . S
C3860 C3861 1.377 . S
C3860 C3862 1.384 . S
C3861 C3860 1.377 . S
C3861 C3867 1.390 . S
C3862 H3853 0.930 . S
C3862 C3860 1.384 . S
C3862 C3863 1.372 . S
C3863 C3862 1.372 . S
C3863 C3864 1.400 . S
C3863 C3868 1.490 . S
C3864 H3854 0.930 . S
C3864 C3863 1.400 . S
C3864 C3867 1.386 . S
H3865 C3881 0.930 . S
H3866 C3882 0.931 . S
C3867 H3855 0.929 . S
C3867 C3861 1.390 . S
C3867 C3864 1.386 . S
C3868 C3863 1.490 . S
C3868 C3870 1.395 . S
C3868 C3871 1.403 . S
H3869 C3875 0.930 . S
C3870 H3856 0.930 . S
C3870 C3868 1.395 . S
C3870 C3873 1.403 . S
C3871 C3868 1.403 . S
C3871 C3872 1.524 . S
C3871 C3875 1.400 . S
C3872 H3857 0.960 . S
C3872 H3858 0.960 . S
C3872 H3859 0.960 . S
C3872 C3871 1.524 . S
C3873 C3870 1.403 . S
C3873 C3874 1.392 . S
C3873 C3877 1.495 . S
C3874 C3873 1.392 . S
C3874 C3875 1.385 . S
C3874 C3876 1.478 . S
C3875 H3869 0.930 . S
C3875 C3871 1.400 . S
C3875 C3874 1.385 . S
C3876 C3874 1.478 . S
C3876 C3878 1.381 . S
C3876 C3882 1.383 . S
C3877 C3873 1.495 . S
C3877 H3883 0.959 . S
C3877 H3884 0.961 . S
C3877 H3885 0.960 . S
C3878 C3876 1.381 . S
C3878 C3879 1.394 . S
C3878 H3886 0.930 . S
C3879 C3878 1.394 . S
C3879 C3880 1.383 . S
C3879 H3887 0.929 . S
C3880 C3879 1.383 . S
C3880 C3881 1.377 . S
C3881 H3865 0.930 . S
C3881 C3880 1.377 . S
C3881 C3882 1.379 . S
C3882 H3866 0.931 . S
C3882 C3876 1.383 . S
C3882 C3881 1.379 . S
H3883 C3877 0.959 . S
H3884 C3877 0.961 . S
H3885 C3877 0.960 . S
H3886 C3878 0.930 . S
H3887 C3879 0.929 . S
H3888 C3896 0.929 . S
H3889 C3898 0.930 . S
H3890 C3900 0.930 . S
H3891 C3903 0.929 . S
H3892 C3906 0.930 . S
H3893 C3908 0.960 . S
H3894 C3908 0.960 . S
H3895 C3908 0.960 . S
C3896 H3888 0.929 . S
C3896 C3897 1.377 . S
C3896 C3898 1.384 . S
C3897 C3896 1.377 . S
C3897 C3903 1.390 . S
C3898 H3889 0.930 . S
C3898 C3896 1.384 . S
C3898 C3899 1.372 . S
C3899 C3898 1.372 . S
C3899 C3900 1.400 . S
C3899 C3904 1.490 . S
C3900 H3890 0.930 . S
C3900 C3899 1.400 . S
C3900 C3903 1.386 . S
H3901 C3917 0.930 . S
H3902 C3918 0.931 . S
C3903 H3891 0.929 . S
C3903 C3897 1.390 . S
C3903 C3900 1.386 . S
C3904 C3899 1.490 . S
C3904 C3906 1.395 . S
C3904 C3907 1.403 . S
H3905 C3911 0.930 . S
C3906 H3892 0.930 . S
C3906 C3904 1.395 . S
C3906 C3909 1.403 . S
C3907 C3904 1.403 . S
C3907 C3908 1.524 . S
C3907 C3911 1.400 . S
C3908 H3893 0.960 . S
C3908 H3894 0.960 . S
C3908 H3895 0.960 . S
C3908 C3907 1.524 . S
C3909 C3906 1.403 . S
C3909 C3910 1.392 . S
C3909 C3913 1.495 . S
C3910 C3909 1.392 . S
C3910 C3911 1.385 . S
C3910 C3912 1.478 . S
C3911 H3905 0.930 . S
C3911 C3907 1.400 . S
C3911 C3910 1.385 . S
C3912 C3910 1.478 . S
C3912 C3914 1.381 . S
C3912 C3918 1.383 . S
C3913 C3909 1.495 . S
C3913 H3919 0.959 . S
C3913 H3920 0.961 . S
C3913 H3921 0.960 . S
C3914 C3912 1.381 . S
C3914 C3915 1.394 . S
C3914 H3922 0.930 . S
C3915 C3914 1.394 . S
C3915 C3916 1.383 . S
C3915 H3923 0.929 . S
C3916 C3915 1.383 . S
C3916 C3917 1.377 . S
C3917 H3901 0.930 . S
C3917 C3916 1.377 . S
C3917 C3918 1.379 . S
C3918 H3902 0.931 . S
C3918 C3912 1.383 . S
C3918 C3917 1.379 . S
H3919 C3913 0.959 . S
H3920 C3913 0.961 . S
H3921 C3913 0.960 . S
H3922 C3914 0.930 . S
H3923 C3915 0.929 . S
H3924 C3932 0.929 . S
H3925 C3934 0.930 . S
H3926 C3936 0.930 . S
H3927 C3939 0.929 . S
H3928 C3942 0.930 . S
H3929 C3944 0.960 . S
H3930 C3944 0.960 . S
H3931 C3944 0.960 . S
C3932 H3924 0.929 . S
C3932 C3933 1.377 . S
C3932 C3934 1.384 . S
C3933 C3932 1.377 . S
C3933 C3939 1.390 . S
C3934 H3925 0.930 . S
C3934 C3932 1.384 . S
C3934 C3935 1.372 . S
C3935 C3934 1.372 . S
C3935 C3936 1.400 . S
C3935 C3940 1.490 . S
C3936 H3926 0.930 . S
C3936 C3935 1.400 . S
C3936 C3939 1.386 . S
H3937 C3953 0.930 . S
H3938 C3954 0.931 . S
C3939 H3927 0.929 . S
C3939 C3933 1.390 . S
C3939 C3936 1.386 . S
C3940 C3935 1.490 . S
C3940 C3942 1.395 . S
C3940 C3943 1.403 . S
H3941 C3947 0.930 . S
C3942 H3928 0.930 . S
C3942 C3940 1.395 . S
C3942 C3945 1.403 . S
C3943 C3940 1.403 . S
C3943 C3944 1.524 . S
C3943 C3947 1.400 . S
C3944 H3929 0.960 . S
C3944 H3930 0.960 . S
C3944 H3931 0.960 . S
C3944 C3943 1.524 . S
C3945 C3942 1.403 . S
C3945 C3946 1.392 . S
C3945 C3949 1.495 . S
C3946 C3945 1.392 . S
C3946 C3947 1.385 . S
C3946 C3948 1.478 . S
C3947 H3941 0.930 . S
C3947 C3943 1.400 . S
C3947 C3946 1.385 . S
C3948 C3946 1.478 . S
C3948 C3950 1.381 . S
C3948 C3954 1.383 . S
C3949 C3945 1.495 . S
C3949 H3955 0.959 . S
C3949 H3956 0.961 . S
C3949 H3957 0.960 . S
C3950 C3948 1.381 . S
C3950 C3951 1.394 . S
C3950 H3958 0.930 . S
C3951 C3950 1.394 . S
C3951 C3952 1.383 . S
C3951 H3959 0.929 . S
C3952 C3951 1.383 . S
C3952 C3953 1.377 . S
C3953 H3937 0.930 . S
C3953 C3952 1.377 . S
C3953 C3954 1.379 . S
C3954 H3938 0.931 . S
C3954 C3948 1.383 . S
C3954 C3953 1.379 . S
H3955 C3949 0.959 . S
H3956 C3949 0.961 . S
H3957 C3949 0.960 . S
H3958 C3950 0.930 . S
H3959 C3951 0.929 . S
H3960 C3968 0.929 . S
H3961 C3970 0.930 . S
H3962 C3972 0.930 . S
H3963 C3975 0.929 . S
H3964 C3978 0.930 . S
H3965 C3980 0.960 . S
H3966 C3980 0.960 . S
H3967 C3980 0.960 . S
C3968 H3960 0.929 . S
C3968 C3969 1.377 . S
C3968 C3970 1.384 . S
C3969 C3968 1.377 . S
C3969 C3975 1.390 . S
C3970 H3961 0.930 . S
C3970 C3968 1.384 . S
C3970 C3971 1.372 . S
C3971 C3970 1.372 . S
C3971 C3972 1.400 . S
C3971 C3976 1.490 . S
C3972 H3962 0.930 . S
C3972 C3971 1.400 . S
C3972 C3975 1.386 . S
H3973 C3989 0.930 . S
H3974 C3990 0.931 . S
C3975 H3963 0.929 . S
C3975 C3969 1.390 . S
C3975 C3972 1.386 . S
C3976 C3971 1.490 . S
C3976 C3978 1.395 . S
C3976 C3979 1.403 . S
H3977 C3983 0.930 . S
C3978 H3964 0.930 . S
C3978 C3976 1.395 . S
C3978 C3981 1.403 . S
C3979 C3976 1.403 . S
C3979 C3980 1.524 . S
C3979 C3983 1.400 . S
C3980 H3965 0.960 . S
C3980 H3966 0.960 . S
C3980 H3967 0.960 . S
C3980 C3979 1.524 . S
C3981 C3978 1.403 . S
C3981 C3982 1.392 . S
C3981 C3985 1.495 . S
C3982 C3981 1.392 . S
C3982 C3983 1.385 . S
C3982 C3984 1.478 . S
C3983 H3977 0.930 . S
C3983 C3979 1.400 . S
C3983 C3982 1.385 . S
C3984 C3982 1.478 . S
C3984 C3986 1.381 . S
C3984 C3990 1.383 . S
C3985 C3981 1.495 . S
C3985 H3991 0.959 . S
C3985 H3992 0.961 . S
C3985 H3993 0.960 . S
C3986 C3984 1.381 . S
C3986 C3987 1.394 . S
C3986 H3994 0.930 . S
C3987 C3986 1.394 . S
C3987 C3988 1.383 . S
C3987 H3995 0.929 . S
C3988 C3987 1.383 . S
C3988 C3989 1.377 . S
C3989 H3973 0.930 . S
C3989 C3988 1.377 . S
C3989 C3990 1.379 . S
C3990 H3974 0.931 . S
C3990 C3984 1.383 . S
C3990 C3989 1.379 . S
H3991 C3985 0.959 . S
H3992 C3985 0.961 . S
H3993 C3985 0.960 . S
H3994 C3986 0.930 . S
H3995 C3987 0.929 . S
H3996 C4004 0.929 . S
H3997 C4006 0.930 . S
H3998 C4008 0.930 . S
H3999 C4011 0.929 . S
H4000 C4014 0.930 . S
H4001 C4016 0.960 . S
H4002 C4016 0.960 . S
H4003 C4016 0.960 . S
C4004 H3996 0.929 . S
C4004 C4005 1.377 . S
C4004 C4006 1.384 . S
C4005 C4004 1.377 . S
C4005 C4011 1.390 . S
C4006 H3997 0.930 . S
C4006 C4004 1.384 . S
C4006 C4007 1.372 . S
C4007 C4006 1.372 . S
C4007 C4008 1.400 . S
C4007 C4012 1.490 . S
C4008 H3998 0.930 . S
C4008 C4007 1.400 . S
C4008 C4011 1.386 . S
H4009 C4025 0.930 . S
H4010 C4026 0.931 . S
C4011 H3999 0.929 . S
C4011 C4005 1.390 . S
C4011 C4008 1.386 . S
C4012 C4007 1.490 . S
C4012 C4014 1.395 . S
C4012 C4015 1.403 . S
H4013 C4019 0.930 . S
C4014 H4000 0.930 . S
C4014 C4012 1.395 . S
C4014 C4017 1.403 . S
C4015 C4012 1.403 . S
C4015 C4016 1.524 . S
C4015 C4019 1.400 . S
C4016 H4001 0.960 . S
C4016 H4002 0.960 . S
C4016 H4003 0.960 . S
C4016 C4015 1.524 . S
C4017 C4014 1.403 . S
C4017 C4018 1.392 . S
C4017 C4021 1.495 . S
C4018 C4017 1.392 . S
C4018 C4019 1.385 . S
C4018 C4020 1.478 . S
C4019 H4013 0.930 . S
C4019 C4015 1.400 . S
C4019 C4018 1.385 . S
C4020 C4018 1.478 . S
C4020 C4022 1.381 . S
C4020 C4026 1.383 . S
C4021 C4017 1.495 . S
C4021 H4027 0.959 . S
C4021 H4028 0.961 . S
C4021 H4029 0.960 . S
C4022 C4020 1.381 . S
C4022 C4023 1.394 . S
C4022 H4030 0.930 . S
C4023 C4022 1.394 . S
C4023 C4024 1.383 . S
C4023 H4031 0.929 . S
C4024 C4023 1.383 . S
C4024 C4025 1.377 . S
C4025 H4009 0.930 . S
C4025 C4024 1.377 . S
C4025 C4026 1.379 . S
C4026 H4010 0.931 . S
C4026 C4020 1.383 . S
C4026 C4025 1.379 . S
H4027 C4021 0.959 . S
H4028 C4021 0.961 . S
H4029 C4021 0.960 . S
H4030 C4022 0.930 . S
H4031 C4023 0.929 . S
H4032 C4040 0.929 . S
H4033 C4042 0.930 . S
H4034 C4044 0.930 . S
H4035 C4047 0.929 1_545 S
H4036 C4050 0.930 . S
H4037 C4052 0.960 . S
H4038 C4052 0.960 . S
H4039 C4052 0.960 . S
C4040 H4032 0.929 . S
C4040 C4041 1.377 . S
C4040 C4042 1.384 . S
C4041 C4040 1.377 . S
C4041 C4047 1.390 . S
C4042 H4033 0.930 . S
C4042 C4040 1.384 . S
C4042 C4043 1.372 . S
C4043 C4042 1.372 . S
C4043 C4044 1.400 . S
C4043 C4048 1.490 . S
C4044 H4034 0.930 . S
C4044 C4043 1.400 . S
C4044 C4047 1.386 . S
H4045 C4061 0.930 . S
H4046 C4062 0.931 . S
C4047 H4035 0.929 1_565 S
C4047 C4041 1.390 . S
C4047 C4044 1.386 . S
C4048 C4043 1.490 . S
C4048 C4050 1.395 . S
C4048 C4051 1.403 . S
H4049 C4055 0.930 . S
C4050 H4036 0.930 . S
C4050 C4048 1.395 . S
C4050 C4053 1.403 . S
C4051 C4048 1.403 . S
C4051 C4052 1.524 . S
C4051 C4055 1.400 . S
C4052 H4037 0.960 . S
C4052 H4038 0.960 . S
C4052 H4039 0.960 . S
C4052 C4051 1.524 . S
C4053 C4050 1.403 . S
C4053 C4054 1.392 . S
C4053 C4057 1.495 . S
C4054 C4053 1.392 . S
C4054 C4055 1.385 . S
C4054 C4056 1.478 . S
C4055 H4049 0.930 . S
C4055 C4051 1.400 . S
C4055 C4054 1.385 . S
C4056 C4054 1.478 . S
C4056 C4058 1.381 . S
C4056 C4062 1.383 . S
C4057 C4053 1.495 . S
C4057 H4063 0.959 . S
C4057 H4064 0.961 . S
C4057 H4065 0.960 . S
C4058 C4056 1.381 . S
C4058 C4059 1.394 . S
C4058 H4066 0.930 . S
C4059 C4058 1.394 . S
C4059 C4060 1.383 . S
C4059 H4067 0.929 . S
C4060 C4059 1.383 . S
C4060 C4061 1.377 . S
C4061 H4045 0.930 . S
C4061 C4060 1.377 . S
C4061 C4062 1.379 . S
C4062 H4046 0.931 . S
C4062 C4056 1.383 . S
C4062 C4061 1.379 . S
H4063 C4057 0.959 . S
H4064 C4057 0.961 . S
H4065 C4057 0.960 . S
H4066 C4058 0.930 . S
H4067 C4059 0.929 . S
H4068 C4076 0.929 . S
H4069 C4078 0.930 . S
H4070 C4080 0.930 . S
H4071 C4083 0.929 . S
H4072 C4086 0.930 . S
H4073 C4088 0.960 . S
H4074 C4088 0.960 . S
H4075 C4088 0.960 . S
C4076 H4068 0.929 . S
C4076 C4077 1.377 1_554 S
C4076 C4078 1.384 . S
C4077 C4076 1.377 1_556 S
C4077 C4083 1.390 . S
C4078 H4069 0.930 . S
C4078 C4076 1.384 . S
C4078 C4079 1.372 . S
C4079 C4078 1.372 . S
C4079 C4080 1.400 1_554 S
C4079 C4084 1.490 . S
C4080 H4070 0.930 . S
C4080 C4079 1.400 1_556 S
C4080 C4083 1.386 . S
H4081 C4097 0.930 . S
H4082 C4098 0.931 . S
C4083 H4071 0.929 . S
C4083 C4077 1.390 . S
C4083 C4080 1.386 . S
C4084 C4079 1.490 . S
C4084 C4086 1.395 . S
C4084 C4087 1.403 1_554 S
H4085 C4091 0.893 1_545 S
C4086 H4072 0.930 . S
C4086 C4084 1.395 . S
C4086 C4089 1.403 . S
C4087 C4084 1.403 1_556 S
C4087 C4088 1.524 . S
C4087 C4091 1.400 . S
C4088 H4073 0.960 . S
C4088 H4074 0.960 . S
C4088 H4075 0.960 . S
C4088 C4087 1.524 . S
C4089 C4086 1.403 . S
C4089 C4090 1.392 . S
C4089 C4093 1.495 . S
C4090 C4089 1.392 . S
C4090 C4091 1.385 1_554 S
C4090 C4092 1.471 1_565 S
C4091 H4085 0.893 1_565 S
C4091 C4087 1.400 . S
C4091 C4090 1.385 1_556 S
C4092 C4090 1.471 1_545 S
C4092 C4094 1.392 . S
C4092 C4098 1.380 1_544 S
C4093 C4089 1.495 . S
C4093 H4099 0.959 . S
C4093 H4100 0.961 . S
C4093 H4101 0.960 . S
C4094 C4092 1.392 . S
C4094 C4095 1.394 . S
C4094 H4102 0.930 . S
C4095 C4094 1.394 . S
C4095 C4096 1.383 . S
C4095 H4103 0.929 . S
C4096 C4095 1.383 . S
C4096 C4097 1.377 1_554 S
C4097 H4081 0.930 . S
C4097 C4096 1.377 1_556 S
C4097 C4098 1.379 1_545 S
C4098 H4082 0.931 . S
C4098 C4092 1.380 1_566 S
C4098 C4097 1.379 1_565 S
H4099 C4093 0.959 . S
H4100 C4093 0.961 . S
H4101 C4093 0.960 . S
H4102 C4094 0.930 . S
H4103 C4095 0.929 . S
H4104 C4112 0.929 . S
H4105 C4114 0.930 . S
H4106 C4116 0.930 . S
H4107 C4119 0.929 . S
H4108 C4122 0.930 . S
H4109 C4124 0.960 . S
H4110 C4124 0.960 . S
H4111 C4124 0.960 . S
C4112 H4104 0.929 . S
C4112 C4113 1.377 . S
C4112 C4114 1.384 . S
C4113 C4112 1.377 . S
C4113 C4119 1.390 . S
C4114 H4105 0.930 . S
C4114 C4112 1.384 . S
C4114 C4115 1.372 . S
C4115 C4114 1.372 . S
C4115 C4116 1.400 . S
C4115 C4120 1.490 . S
C4116 H4106 0.930 . S
C4116 C4115 1.400 . S
C4116 C4119 1.386 . S
H4117 C4133 0.930 . S
H4118 C4134 0.931 . S
C4119 H4107 0.929 . S
C4119 C4113 1.390 . S
C4119 C4116 1.386 . S
C4120 C4115 1.490 . S
C4120 C4122 1.395 . S
C4120 C4123 1.403 . S
H4121 C4127 0.930 . S
C4122 H4108 0.930 . S
C4122 C4120 1.395 . S
C4122 C4125 1.403 . S
C4123 C4120 1.403 . S
C4123 C4124 1.524 . S
C4123 C4127 1.400 . S
C4124 H4109 0.960 . S
C4124 H4110 0.960 . S
C4124 H4111 0.960 . S
C4124 C4123 1.524 . S
C4125 C4122 1.403 . S
C4125 C4126 1.392 . S
C4125 C4129 1.495 . S
C4126 C4125 1.392 . S
C4126 C4127 1.385 . S
C4126 C4128 1.478 . S
C4127 H4121 0.930 . S
C4127 C4123 1.400 . S
C4127 C4126 1.385 . S
C4128 C4126 1.478 . S
C4128 C4130 1.381 . S
C4128 C4134 1.383 . S
C4129 C4125 1.495 . S
C4129 H4135 0.959 . S
C4129 H4136 0.961 . S
C4129 H4137 0.960 . S
C4130 C4128 1.381 . S
C4130 C4131 1.394 . S
C4130 H4138 0.930 . S
C4131 C4130 1.394 . S
C4131 C4132 1.383 . S
C4131 H4139 0.929 . S
C4132 C4131 1.383 . S
C4132 C4133 1.377 . S
C4133 H4117 0.930 . S
C4133 C4132 1.377 . S
C4133 C4134 1.379 . S
C4134 H4118 0.931 . S
C4134 C4128 1.383 . S
C4134 C4133 1.379 . S
H4135 C4129 0.959 . S
H4136 C4129 0.961 . S
H4137 C4129 0.960 . S
H4138 C4130 0.930 . S
H4139 C4131 0.929 . S
H4140 C4148 0.929 . S
H4141 C4150 0.930 . S
H4142 C4152 0.930 1_556 S
H4143 C4155 0.888 1_556 S
H4144 C4158 0.930 . S
H4145 C4160 0.960 . S
H4146 C4160 0.960 . S
H4147 C4160 1.005 . S
C4148 H4140 0.929 . S
C4148 C4149 1.377 . S
C4148 C4150 1.384 . S
C4149 C4148 1.377 . S
C4149 C4155 1.424 . S
C4150 H4141 0.930 . S
C4150 C4148 1.384 . S
C4150 C4151 1.372 . S
C4151 C4150 1.372 . S
C4151 C4152 1.400 . S
C4151 C4156 1.490 . S
C4152 H4142 0.930 1_554 S
C4152 C4151 1.400 . S
C4152 C4155 1.393 . S
H4153 C4169 0.930 . S
H4154 C4170 0.931 . S
C4155 H4143 0.888 1_554 S
C4155 C4149 1.424 . S
C4155 C4152 1.393 . S
C4156 C4151 1.490 . S
C4156 C4158 1.395 . S
C4156 C4159 1.403 . S
H4157 C4163 0.930 . S
C4158 H4144 0.930 . S
C4158 C4156 1.395 . S
C4158 C4161 1.403 . S
C4159 C4156 1.403 . S
C4159 C4160 1.524 . S
C4159 C4163 1.400 . S
C4160 H4145 0.960 . S
C4160 H4146 0.960 . S
C4160 H4147 1.005 . S
C4160 C4159 1.524 . S
C4161 C4158 1.403 . S
C4161 C4162 1.392 . S
C4161 C4165 1.495 . S
C4162 C4161 1.392 . S
C4162 C4163 1.385 . S
C4162 C4164 1.478 . S
C4163 H4157 0.930 . S
C4163 C4159 1.400 . S
C4163 C4162 1.385 . S
C4164 C4162 1.478 . S
C4164 C4166 1.381 . S
C4164 C4170 1.383 . S
C4165 C4161 1.495 . S
C4165 H4171 0.959 . S
C4165 H4172 0.961 . S
C4165 H4173 0.960 . S
C4166 C4164 1.381 . S
C4166 C4167 1.394 . S
C4166 H4174 0.930 . S
C4167 C4166 1.394 . S
C4167 C4168 1.383 . S
C4167 H4175 0.929 . S
C4168 C4167 1.383 . S
C4168 C4169 1.377 . S
C4169 H4153 0.930 . S
C4169 C4168 1.377 . S
C4169 C4170 1.379 . S
C4170 H4154 0.931 . S
C4170 C4164 1.383 . S
C4170 C4169 1.379 . S
H4171 C4165 0.959 . S
H4172 C4165 0.961 . S
H4173 C4165 0.960 . S
H4174 C4166 0.930 . S
H4175 C4167 0.929 . S
H4176 C4184 0.929 . S
H4177 C4186 0.930 . S
H4178 C4188 0.930 . S
H4179 C4191 0.929 . S
H4180 C4194 0.930 . S
H4181 C4196 0.960 . S
H4182 C4196 0.960 . S
H4183 C4196 0.960 . S
C4184 H4176 0.929 . S
C4184 C4185 1.377 . S
C4184 C4186 1.384 . S
C4185 C4184 1.377 . S
C4185 C4191 1.390 . S
C4186 H4177 0.930 . S
C4186 C4184 1.384 . S
C4186 C4187 1.372 . S
C4187 C4186 1.372 . S
C4187 C4188 1.400 . S
C4187 C4192 1.490 . S
C4188 H4178 0.930 . S
C4188 C4187 1.400 . S
C4188 C4191 1.386 . S
H4189 C4205 0.930 . S
H4190 C4206 0.931 . S
C4191 H4179 0.929 . S
C4191 C4185 1.390 . S
C4191 C4188 1.386 . S
C4192 C4187 1.490 . S
C4192 C4194 1.395 . S
C4192 C4195 1.403 . S
H4193 C4199 0.930 . S
C4194 H4180 0.930 . S
C4194 C4192 1.395 . S
C4194 C4197 1.403 . S
C4195 C4192 1.403 . S
C4195 C4196 1.524 . S
C4195 C4199 1.400 . S
C4196 H4181 0.960 . S
C4196 H4182 0.960 . S
C4196 H4183 0.960 . S
C4196 C4195 1.524 . S
C4197 C4194 1.403 . S
C4197 C4198 1.392 . S
C4197 C4201 1.495 . S
C4198 C4197 1.392 . S
C4198 C4199 1.385 . S
C4198 C4200 1.478 . S
C4199 H4193 0.930 . S
C4199 C4195 1.400 . S
C4199 C4198 1.385 . S
C4200 C4198 1.478 . S
C4200 C4202 1.381 . S
C4200 C4206 1.383 . S
C4201 C4197 1.495 . S
C4201 H4207 0.959 . S
C4201 H4208 0.961 . S
C4201 H4209 0.960 . S
C4202 C4200 1.381 . S
C4202 C4203 1.394 . S
C4202 H4210 0.930 . S
C4203 C4202 1.394 . S
C4203 C4204 1.383 . S
C4203 H4211 0.929 . S
C4204 C4203 1.383 . S
C4204 C4205 1.377 . S
C4205 H4189 0.930 . S
C4205 C4204 1.377 . S
C4205 C4206 1.379 . S
C4206 H4190 0.931 . S
C4206 C4200 1.383 . S
C4206 C4205 1.379 . S
H4207 C4201 0.959 . S
H4208 C4201 0.961 . S
H4209 C4201 0.960 . S
H4210 C4202 0.930 . S
H4211 C4203 0.929 . S
H4212 C4220 0.929 . S
H4213 C4222 0.930 . S
H4214 C4224 0.930 . S
H4215 C4227 0.929 . S
H4216 C4230 0.930 . S
H4217 C4232 0.960 . S
H4218 C4232 0.960 . S
H4219 C4232 0.960 . S
C4220 H4212 0.929 . S
C4220 C4221 1.377 . S
C4220 C4222 1.384 . S
C4221 C4220 1.377 . S
C4221 C4227 1.390 . S
C4222 H4213 0.930 . S
C4222 C4220 1.384 . S
C4222 C4223 1.372 . S
C4223 C4222 1.372 . S
C4223 C4224 1.400 . S
C4223 C4228 1.490 . S
C4224 H4214 0.930 . S
C4224 C4223 1.400 . S
C4224 C4227 1.386 . S
H4225 C4241 0.930 . S
H4226 C4242 0.931 . S
C4227 H4215 0.929 . S
C4227 C4221 1.390 . S
C4227 C4224 1.386 . S
C4228 C4223 1.490 . S
C4228 C4230 1.395 . S
C4228 C4231 1.403 . S
H4229 C4235 0.930 . S
C4230 H4216 0.930 . S
C4230 C4228 1.395 . S
C4230 C4233 1.403 . S
C4231 C4228 1.403 . S
C4231 C4232 1.524 . S
C4231 C4235 1.400 . S
C4232 H4217 0.960 . S
C4232 H4218 0.960 . S
C4232 H4219 0.960 . S
C4232 C4231 1.524 . S
C4233 C4230 1.403 . S
C4233 C4234 1.392 . S
C4233 C4237 1.495 . S
C4234 C4233 1.392 . S
C4234 C4235 1.385 . S
C4234 C4236 1.478 . S
C4235 H4229 0.930 . S
C4235 C4231 1.400 . S
C4235 C4234 1.385 . S
C4236 C4234 1.478 . S
C4236 C4238 1.381 . S
C4236 C4242 1.383 . S
C4237 C4233 1.495 . S
C4237 H4243 0.959 . S
C4237 H4244 0.961 . S
C4237 H4245 0.960 . S
C4238 C4236 1.381 . S
C4238 C4239 1.394 . S
C4238 H4246 0.930 . S
C4239 C4238 1.394 . S
C4239 C4240 1.383 . S
C4239 H4247 0.929 . S
C4240 C4239 1.383 . S
C4240 C4241 1.377 . S
C4241 H4225 0.930 . S
C4241 C4240 1.377 . S
C4241 C4242 1.379 . S
C4242 H4226 0.931 . S
C4242 C4236 1.383 . S
C4242 C4241 1.379 . S
H4243 C4237 0.959 . S
H4244 C4237 0.961 . S
H4245 C4237 0.960 . S
H4246 C4238 0.930 . S
H4247 C4239 0.929 . S
H4248 C4256 0.929 . S
H4249 C4258 0.930 . S
H4250 C4260 0.930 . S
H4251 C4263 0.929 . S
H4252 C4266 0.930 . S
H4253 C4268 0.960 . S
H4254 C4268 0.960 . S
H4255 C4268 0.960 . S
C4256 H4248 0.929 . S
C4256 C4257 1.377 . S
C4256 C4258 1.384 . S
C4257 C4256 1.377 . S
C4257 C4263 1.390 . S
C4258 H4249 0.930 . S
C4258 C4256 1.384 . S
C4258 C4259 1.372 . S
C4259 C4258 1.372 . S
C4259 C4260 1.400 . S
C4259 C4264 1.490 . S
C4260 H4250 0.930 . S
C4260 C4259 1.400 . S
C4260 C4263 1.386 . S
H4261 C4277 0.930 . S
H4262 C4278 0.931 . S
C4263 H4251 0.929 . S
C4263 C4257 1.390 . S
C4263 C4260 1.386 . S
C4264 C4259 1.490 . S
C4264 C4266 1.395 . S
C4264 C4267 1.403 . S
H4265 C4271 0.930 . S
C4266 H4252 0.930 . S
C4266 C4264 1.395 . S
C4266 C4269 1.403 . S
C4267 C4264 1.403 . S
C4267 C4268 1.524 . S
C4267 C4271 1.400 . S
C4268 H4253 0.960 . S
C4268 H4254 0.960 . S
C4268 H4255 0.960 . S
C4268 C4267 1.524 . S
C4269 C4266 1.403 . S
C4269 C4270 1.392 . S
C4269 C4273 1.495 . S
C4270 C4269 1.392 . S
C4270 C4271 1.385 . S
C4270 C4272 1.478 . S
C4271 H4265 0.930 . S
C4271 C4267 1.400 . S
C4271 C4270 1.385 . S
C4272 C4270 1.478 . S
C4272 C4274 1.381 . S
C4272 C4278 1.383 . S
C4273 C4269 1.495 . S
C4273 H4279 0.959 . S
C4273 H4280 0.961 . S
C4273 H4281 0.960 . S
C4274 C4272 1.381 . S
C4274 C4275 1.394 . S
C4274 H4282 0.930 . S
C4275 C4274 1.394 . S
C4275 C4276 1.383 . S
C4275 H4283 0.929 . S
C4276 C4275 1.383 . S
C4276 C4277 1.377 . S
C4277 H4261 0.930 . S
C4277 C4276 1.377 . S
C4277 C4278 1.379 . S
C4278 H4262 0.931 . S
C4278 C4272 1.383 . S
C4278 C4277 1.379 . S
H4279 C4273 0.959 . S
H4280 C4273 0.961 . S
H4281 C4273 0.960 . S
H4282 C4274 0.930 . S
H4283 C4275 0.929 . S
H4284 C4292 0.929 . S
H4285 C4294 0.930 . S
H4286 C4296 0.930 . S
H4287 C4299 0.929 . S
H4288 C4302 0.930 . S
H4289 C4304 0.960 . S
H4290 C4304 0.960 . S
H4291 C4304 0.960 . S
C4292 H4284 0.929 . S
C4292 C4293 1.377 . S
C4292 C4294 1.384 . S
C4293 C4292 1.377 . S
C4293 C4299 1.390 . S
C4294 H4285 0.930 . S
C4294 C4292 1.384 . S
C4294 C4295 1.372 . S
C4295 C4294 1.372 . S
C4295 C4296 1.400 . S
C4295 C4300 1.490 . S
C4296 H4286 0.930 . S
C4296 C4295 1.400 . S
C4296 C4299 1.386 . S
H4297 C4313 0.930 . S
H4298 C4314 0.931 . S
C4299 H4287 0.929 . S
C4299 C4293 1.390 . S
C4299 C4296 1.386 . S
C4300 C4295 1.490 . S
C4300 C4302 1.395 . S
C4300 C4303 1.403 . S
H4301 C4307 0.930 . S
C4302 H4288 0.930 . S
C4302 C4300 1.395 . S
C4302 C4305 1.403 . S
C4303 C4300 1.403 . S
C4303 C4304 1.524 . S
C4303 C4307 1.400 . S
C4304 H4289 0.960 . S
C4304 H4290 0.960 . S
C4304 H4291 0.960 . S
C4304 C4303 1.524 . S
C4305 C4302 1.403 . S
C4305 C4306 1.392 . S
C4305 C4309 1.495 . S
C4306 C4305 1.392 . S
C4306 C4307 1.385 . S
C4306 C4308 1.478 . S
C4307 H4301 0.930 . S
C4307 C4303 1.400 . S
C4307 C4306 1.385 . S
C4308 C4306 1.478 . S
C4308 C4310 1.381 . S
C4308 C4314 1.383 . S
C4309 C4305 1.495 . S
C4309 H4315 0.959 . S
C4309 H4316 0.961 . S
C4309 H4317 0.960 . S
C4310 C4308 1.381 . S
C4310 C4311 1.394 . S
C4310 H4318 0.930 . S
C4311 C4310 1.394 . S
C4311 C4312 1.383 . S
C4311 H4319 0.929 . S
C4312 C4311 1.383 . S
C4312 C4313 1.377 . S
C4313 H4297 0.930 . S
C4313 C4312 1.377 . S
C4313 C4314 1.379 . S
C4314 H4298 0.931 . S
C4314 C4308 1.383 . S
C4314 C4313 1.379 . S
H4315 C4309 0.959 . S
H4316 C4309 0.961 . S
H4317 C4309 0.960 . S
H4318 C4310 0.930 . S
H4319 C4311 0.929 . S
H4320 C4328 0.929 . S
H4321 C4330 0.930 . S
H4322 C4332 0.930 . S
H4323 C4335 0.929 . S
H4324 C4338 0.930 . S
H4325 C4340 0.960 . S
H4326 C4340 0.960 . S
H4327 C4340 0.960 . S
C4328 H4320 0.929 . S
C4328 C4329 1.377 . S
C4328 C4330 1.384 . S
C4329 C4328 1.377 . S
C4329 C4335 1.390 . S
C4330 H4321 0.930 . S
C4330 C4328 1.384 . S
C4330 C4331 1.372 . S
C4331 C4330 1.372 . S
C4331 C4332 1.400 . S
C4331 C4336 1.490 . S
C4332 H4322 0.930 . S
C4332 C4331 1.400 . S
C4332 C4335 1.386 . S
H4333 C4349 0.930 . S
H4334 C4350 0.931 . S
C4335 H4323 0.929 . S
C4335 C4329 1.390 . S
C4335 C4332 1.386 . S
C4336 C4331 1.490 . S
C4336 C4338 1.395 . S
C4336 C4339 1.403 . S
H4337 C4343 0.930 . S
C4338 H4324 0.930 . S
C4338 C4336 1.395 . S
C4338 C4341 1.403 . S
C4339 C4336 1.403 . S
C4339 C4340 1.524 . S
C4339 C4343 1.400 . S
C4340 H4325 0.960 . S
C4340 H4326 0.960 . S
C4340 H4327 0.960 . S
C4340 C4339 1.524 . S
C4341 C4338 1.403 . S
C4341 C4342 1.392 . S
C4341 C4345 1.495 . S
C4342 C4341 1.392 . S
C4342 C4343 1.385 . S
C4342 C4344 1.478 . S
C4343 H4337 0.930 . S
C4343 C4339 1.400 . S
C4343 C4342 1.385 . S
C4344 C4342 1.478 . S
C4344 C4346 1.381 . S
C4344 C4350 1.383 . S
C4345 C4341 1.495 . S
C4345 H4351 0.959 . S
C4345 H4352 0.961 . S
C4345 H4353 0.960 . S
C4346 C4344 1.381 . S
C4346 C4347 1.394 . S
C4346 H4354 0.930 . S
C4347 C4346 1.394 . S
C4347 C4348 1.383 . S
C4347 H4355 0.929 . S
C4348 C4347 1.383 . S
C4348 C4349 1.377 . S
C4349 H4333 0.930 . S
C4349 C4348 1.377 . S
C4349 C4350 1.379 . S
C4350 H4334 0.931 . S
C4350 C4344 1.383 . S
C4350 C4349 1.379 . S
H4351 C4345 0.959 . S
H4352 C4345 0.961 . S
H4353 C4345 0.960 . S
H4354 C4346 0.930 . S
H4355 C4347 0.929 . S
H4356 C4364 0.929 . S
H4357 C4366 0.930 . S
H4358 C4368 0.930 . S
H4359 C4371 0.929 . S
H4360 C4374 0.930 . S
H4361 C4376 0.960 . S
H4362 C4376 0.960 . S
H4363 C4376 0.960 . S
C4364 H4356 0.929 . S
C4364 C4365 1.377 . S
C4364 C4366 1.384 . S
C4365 C4364 1.377 . S
C4365 C4371 1.390 . S
C4366 H4357 0.930 . S
C4366 C4364 1.384 . S
C4366 C4367 1.372 . S
C4367 C4366 1.372 . S
C4367 C4368 1.400 . S
C4367 C4372 1.490 . S
C4368 H4358 0.930 . S
C4368 C4367 1.400 . S
C4368 C4371 1.386 . S
H4369 C4385 0.930 . S
H4370 C4386 0.931 . S
C4371 H4359 0.929 . S
C4371 C4365 1.390 . S
C4371 C4368 1.386 . S
C4372 C4367 1.490 . S
C4372 C4374 1.395 . S
C4372 C4375 1.403 . S
H4373 C4379 0.930 . S
C4374 H4360 0.930 . S
C4374 C4372 1.395 . S
C4374 C4377 1.403 . S
C4375 C4372 1.403 . S
C4375 C4376 1.524 . S
C4375 C4379 1.400 . S
C4376 H4361 0.960 . S
C4376 H4362 0.960 . S
C4376 H4363 0.960 . S
C4376 C4375 1.524 . S
C4377 C4374 1.403 . S
C4377 C4378 1.392 . S
C4377 C4381 1.495 . S
C4378 C4377 1.392 . S
C4378 C4379 1.385 . S
C4378 C4380 1.478 . S
C4379 H4373 0.930 . S
C4379 C4375 1.400 . S
C4379 C4378 1.385 . S
C4380 C4378 1.478 . S
C4380 C4382 1.381 . S
C4380 C4386 1.383 . S
C4381 C4377 1.495 . S
C4381 H4387 0.959 . S
C4381 H4388 0.961 . S
C4381 H4389 0.960 . S
C4382 C4380 1.381 . S
C4382 C4383 1.394 . S
C4382 H4390 0.930 . S
C4383 C4382 1.394 . S
C4383 C4384 1.383 . S
C4383 H4391 0.929 . S
C4384 C4383 1.383 . S
C4384 C4385 1.377 . S
C4385 H4369 0.930 . S
C4385 C4384 1.377 . S
C4385 C4386 1.379 . S
C4386 H4370 0.931 . S
C4386 C4380 1.383 . S
C4386 C4385 1.379 . S
H4387 C4381 0.959 . S
H4388 C4381 0.961 . S
H4389 C4381 0.960 . S
H4390 C4382 0.930 . S
H4391 C4383 0.929 . S
H4392 C4400 0.929 . S
H4393 C4402 0.930 . S
H4394 C4404 0.930 . S
H4395 C4407 0.929 . S
H4396 C4410 0.930 . S
H4397 C4412 0.960 . S
H4398 C4412 0.960 . S
H4399 C4412 0.960 . S
C4400 H4392 0.929 . S
C4400 C4401 1.377 . S
C4400 C4402 1.384 . S
C4401 C4400 1.377 . S
C4401 C4407 1.390 . S
C4402 H4393 0.930 . S
C4402 C4400 1.384 . S
C4402 C4403 1.372 . S
C4403 C4402 1.372 . S
C4403 C4404 1.400 . S
C4403 C4408 1.490 . S
C4404 H4394 0.930 . S
C4404 C4403 1.400 . S
C4404 C4407 1.386 . S
H4405 C4421 0.930 . S
H4406 C4422 0.931 . S
C4407 H4395 0.929 . S
C4407 C4401 1.390 . S
C4407 C4404 1.386 . S
C4408 C4403 1.490 . S
C4408 C4410 1.395 . S
C4408 C4411 1.403 . S
H4409 C4415 0.930 . S
C4410 H4396 0.930 . S
C4410 C4408 1.395 . S
C4410 C4413 1.403 . S
C4411 C4408 1.403 . S
C4411 C4412 1.524 . S
C4411 C4415 1.400 . S
C4412 H4397 0.960 . S
C4412 H4398 0.960 . S
C4412 H4399 0.960 . S
C4412 C4411 1.524 . S
C4413 C4410 1.403 . S
C4413 C4414 1.392 . S
C4413 C4417 1.495 . S
C4414 C4413 1.392 . S
C4414 C4415 1.385 . S
C4414 C4416 1.478 . S
C4415 H4409 0.930 . S
C4415 C4411 1.400 . S
C4415 C4414 1.385 . S
C4416 C4414 1.478 . S
C4416 C4418 1.381 . S
C4416 C4422 1.383 . S
C4417 C4413 1.495 . S
C4417 H4423 0.959 . S
C4417 H4424 0.961 . S
C4417 H4425 0.960 . S
C4418 C4416 1.381 . S
C4418 C4419 1.394 . S
C4418 H4426 0.930 . S
C4419 C4418 1.394 . S
C4419 C4420 1.383 . S
C4419 H4427 0.929 . S
C4420 C4419 1.383 . S
C4420 C4421 1.377 . S
C4421 H4405 0.930 . S
C4421 C4420 1.377 . S
C4421 C4422 1.379 . S
C4422 H4406 0.931 . S
C4422 C4416 1.383 . S
C4422 C4421 1.379 . S
H4423 C4417 0.959 . S
H4424 C4417 0.961 . S
H4425 C4417 0.960 . S
H4426 C4418 0.930 . S
H4427 C4419 0.929 . S
H4428 C4436 0.929 . S
H4429 C4438 0.930 . S
H4430 C4440 0.930 . S
H4431 C4443 0.929 . S
H4432 C4446 0.930 . S
H4433 C4448 0.960 . S
H4434 C4448 0.960 . S
H4435 C4448 0.960 . S
C4436 H4428 0.929 . S
C4436 C4437 1.377 . S
C4436 C4438 1.384 . S
C4437 C4436 1.377 . S
C4437 C4443 1.390 . S
C4438 H4429 0.930 . S
C4438 C4436 1.384 . S
C4438 C4439 1.372 . S
C4439 C4438 1.372 . S
C4439 C4440 1.400 . S
C4439 C4444 1.490 . S
C4440 H4430 0.930 . S
C4440 C4439 1.400 . S
C4440 C4443 1.386 . S
H4441 C4457 0.930 . S
H4442 C4458 0.931 . S
C4443 H4431 0.929 . S
C4443 C4437 1.390 . S
C4443 C4440 1.386 . S
C4444 C4439 1.490 . S
C4444 C4446 1.395 . S
C4444 C4447 1.403 . S
H4445 C4451 0.930 . S
C4446 H4432 0.930 . S
C4446 C4444 1.395 . S
C4446 C4449 1.403 . S
C4447 C4444 1.403 . S
C4447 C4448 1.524 . S
C4447 C4451 1.400 . S
C4448 H4433 0.960 . S
C4448 H4434 0.960 . S
C4448 H4435 0.960 . S
C4448 C4447 1.524 . S
C4449 C4446 1.403 . S
C4449 C4450 1.392 . S
C4449 C4453 1.495 . S
C4450 C4449 1.392 . S
C4450 C4451 1.385 . S
C4450 C4452 1.478 . S
C4451 H4445 0.930 . S
C4451 C4447 1.400 . S
C4451 C4450 1.385 . S
C4452 C4450 1.478 . S
C4452 C4454 1.381 . S
C4452 C4458 1.383 . S
C4453 C4449 1.495 . S
C4453 H4459 0.959 . S
C4453 H4460 0.961 . S
C4453 H4461 0.960 . S
C4454 C4452 1.381 . S
C4454 C4455 1.394 . S
C4454 H4462 0.930 . S
C4455 C4454 1.394 . S
C4455 C4456 1.383 . S
C4455 H4463 0.929 . S
C4456 C4455 1.383 . S
C4456 C4457 1.377 . S
C4457 H4441 0.930 . S
C4457 C4456 1.377 . S
C4457 C4458 1.379 . S
C4458 H4442 0.931 . S
C4458 C4452 1.383 . S
C4458 C4457 1.379 . S
H4459 C4453 0.959 . S
H4460 C4453 0.961 . S
H4461 C4453 0.960 . S
H4462 C4454 0.930 . S
H4463 C4455 0.929 . S
H4464 C4472 0.929 . S
H4465 C4474 0.930 . S
H4466 C4476 0.930 . S
H4467 C4479 0.929 . S
H4468 C4482 0.930 . S
H4469 C4484 0.960 . S
H4470 C4484 0.960 . S
H4471 C4484 0.960 . S
C4472 H4464 0.929 . S
C4472 C4473 1.377 . S
C4472 C4474 1.384 . S
C4473 C4472 1.377 . S
C4473 C4479 1.390 . S
C4474 H4465 0.930 . S
C4474 C4472 1.384 . S
C4474 C4475 1.372 . S
C4475 C4474 1.372 . S
C4475 C4476 1.400 . S
C4475 C4480 1.490 . S
C4476 H4466 0.930 . S
C4476 C4475 1.400 . S
C4476 C4479 1.386 . S
H4477 C4493 0.930 . S
H4478 C4494 0.931 . S
C4479 H4467 0.929 . S
C4479 C4473 1.390 . S
C4479 C4476 1.386 . S
C4480 C4475 1.490 . S
C4480 C4482 1.395 . S
C4480 C4483 1.403 . S
H4481 C4487 0.930 . S
C4482 H4468 0.930 . S
C4482 C4480 1.395 . S
C4482 C4485 1.403 . S
C4483 C4480 1.403 . S
C4483 C4484 1.524 1_455 S
C4483 C4487 1.400 . S
C4484 H4469 0.960 . S
C4484 H4470 0.960 . S
C4484 H4471 0.960 . S
C4484 C4483 1.524 1_655 S
C4485 C4482 1.403 . S
C4485 C4486 1.392 . S
C4485 C4489 1.495 . S
C4486 C4485 1.392 . S
C4486 C4487 1.385 . S
C4486 C4488 1.478 . S
C4487 H4481 0.930 . S
C4487 C4483 1.400 . S
C4487 C4486 1.385 . S
C4488 C4486 1.478 . S
C4488 C4490 1.381 . S
C4488 C4494 1.383 . S
C4489 C4485 1.495 . S
C4489 H4495 0.959 . S
C4489 H4496 0.961 . S
C4489 H4497 0.960 . S
C4490 C4488 1.381 . S
C4490 C4491 1.394 . S
C4490 H4498 0.930 . S
C4491 C4490 1.394 . S
C4491 C4492 1.383 . S
C4491 H4499 0.929 . S
C4492 C4491 1.383 . S
C4492 C4493 1.377 . S
C4493 H4477 0.930 . S
C4493 C4492 1.377 . S
C4493 C4494 1.379 . S
C4494 H4478 0.931 . S
C4494 C4488 1.383 . S
C4494 C4493 1.379 . S
H4495 C4489 0.959 . S
H4496 C4489 0.961 . S
H4497 C4489 0.960 . S
H4498 C4490 0.930 . S
H4499 C4491 0.929 . S
H4500 C4508 0.929 . S
H4501 C4510 0.930 . S
H4502 C4512 0.930 . S
H4503 C4515 0.929 . S
H4504 C4518 0.930 . S
H4505 C4520 0.960 . S
H4506 C4520 0.960 . S
H4507 C4520 0.960 . S
C4508 H4500 0.929 . S
C4508 C4509 1.377 . S
C4508 C4510 1.384 . S
C4509 C4508 1.377 . S
C4509 C4515 1.390 . S
C4510 H4501 0.930 . S
C4510 C4508 1.384 . S
C4510 C4511 1.372 . S
C4511 C4510 1.372 . S
C4511 C4512 1.400 . S
C4511 C4516 1.490 . S
C4512 H4502 0.930 . S
C4512 C4511 1.400 . S
C4512 C4515 1.386 . S
H4513 C4529 0.930 . S
H4514 C4530 0.931 . S
C4515 H4503 0.929 . S
C4515 C4509 1.390 . S
C4515 C4512 1.386 . S
C4516 C4511 1.490 . S
C4516 C4518 1.395 . S
C4516 C4519 1.403 . S
H4517 C4523 0.930 . S
C4518 H4504 0.930 . S
C4518 C4516 1.395 . S
C4518 C4521 1.403 . S
C4519 C4516 1.403 . S
C4519 C4520 1.524 . S
C4519 C4523 1.400 . S
C4520 H4505 0.960 . S
C4520 H4506 0.960 . S
C4520 H4507 0.960 . S
C4520 C4519 1.524 . S
C4521 C4518 1.403 . S
C4521 C4522 1.392 . S
C4521 C4525 1.495 . S
C4522 C4521 1.392 . S
C4522 C4523 1.385 . S
C4522 C4524 1.478 . S
C4523 H4517 0.930 . S
C4523 C4519 1.400 . S
C4523 C4522 1.385 . S
C4524 C4522 1.478 . S
C4524 C4526 1.381 . S
C4524 C4530 1.383 . S
C4525 C4521 1.495 . S
C4525 H4531 0.959 . S
C4525 H4532 0.961 . S
C4525 H4533 0.960 . S
C4526 C4524 1.381 . S
C4526 C4527 1.394 . S
C4526 H4534 0.930 . S
C4527 C4526 1.394 . S
C4527 C4528 1.383 . S
C4527 H4535 0.929 . S
C4528 C4527 1.383 . S
C4528 C4529 1.377 . S
C4529 H4513 0.930 . S
C4529 C4528 1.377 . S
C4529 C4530 1.379 . S
C4530 H4514 0.931 . S
C4530 C4524 1.383 . S
C4530 C4529 1.379 . S
H4531 C4525 0.959 . S
H4532 C4525 0.961 . S
H4533 C4525 0.960 . S
H4534 C4526 0.930 . S
H4535 C4527 0.929 . S
H4536 C4544 0.929 . S
H4537 C4546 0.930 . S
H4538 C4548 0.930 . S
H4539 C4551 0.929 . S
H4540 C4554 0.930 . S
H4541 C4556 0.960 . S
H4542 C4556 0.960 . S
H4543 C4556 0.960 . S
C4544 H4536 0.929 . S
C4544 C4545 1.377 . S
C4544 C4546 1.384 . S
C4545 C4544 1.377 . S
C4545 C4551 1.390 . S
C4546 H4537 0.930 . S
C4546 C4544 1.384 . S
C4546 C4547 1.372 . S
C4547 C4546 1.372 . S
C4547 C4548 1.400 . S
C4547 C4552 1.490 . S
C4548 H4538 0.930 . S
C4548 C4547 1.400 . S
C4548 C4551 1.386 . S
H4549 C4565 0.930 . S
H4550 C4566 0.931 . S
C4551 H4539 0.929 . S
C4551 C4545 1.390 . S
C4551 C4548 1.386 . S
C4552 C4547 1.490 . S
C4552 C4554 1.395 . S
C4552 C4555 1.403 . S
H4553 C4559 0.930 . S
C4554 H4540 0.930 . S
C4554 C4552 1.395 . S
C4554 C4557 1.403 . S
C4555 C4552 1.403 . S
C4555 C4556 1.524 . S
C4555 C4559 1.400 . S
C4556 H4541 0.960 . S
C4556 H4542 0.960 . S
C4556 H4543 0.960 . S
C4556 C4555 1.524 . S
C4557 C4554 1.403 . S
C4557 C4558 1.392 . S
C4557 C4561 1.495 . S
C4558 C4557 1.392 . S
C4558 C4559 1.385 . S
C4558 C4560 1.478 . S
C4559 H4553 0.930 . S
C4559 C4555 1.400 . S
C4559 C4558 1.385 . S
C4560 C4558 1.478 . S
C4560 C4562 1.381 . S
C4560 C4566 1.383 . S
C4561 C4557 1.495 . S
C4561 H4567 0.959 . S
C4561 H4568 0.961 . S
C4561 H4569 0.960 . S
C4562 C4560 1.381 . S
C4562 C4563 1.394 . S
C4562 H4570 0.930 . S
C4563 C4562 1.394 . S
C4563 C4564 1.383 . S
C4563 H4571 0.929 . S
C4564 C4563 1.383 . S
C4564 C4565 1.377 . S
C4565 H4549 0.930 . S
C4565 C4564 1.377 . S
C4565 C4566 1.379 . S
C4566 H4550 0.931 . S
C4566 C4560 1.383 . S
C4566 C4565 1.379 . S
H4567 C4561 0.959 . S
H4568 C4561 0.961 . S
H4569 C4561 0.960 . S
H4570 C4562 0.930 . S
H4571 C4563 0.929 . S
H4572 C4580 0.929 . S
H4573 C4582 0.930 . S
H4574 C4584 0.930 . S
H4575 C4587 0.929 . S
H4576 C4590 0.930 . S
H4577 C4592 0.960 . S
H4578 C4592 0.960 . S
H4579 C4592 0.960 . S
C4580 H4572 0.929 . S
C4580 C4581 1.377 . S
C4580 C4582 1.384 . S
C4581 C4580 1.377 . S
C4581 C4587 1.390 . S
C4582 H4573 0.930 . S
C4582 C4580 1.384 . S
C4582 C4583 1.372 . S
C4583 C4582 1.372 . S
C4583 C4584 1.400 . S
C4583 C4588 1.490 . S
C4584 H4574 0.930 . S
C4584 C4583 1.400 . S
C4584 C4587 1.386 . S
H4585 C4601 0.930 . S
H4586 C4602 0.931 . S
C4587 H4575 0.929 . S
C4587 C4581 1.390 . S
C4587 C4584 1.386 . S
C4588 C4583 1.490 . S
C4588 C4590 1.395 . S
C4588 C4591 1.403 . S
H4589 C4595 0.930 . S
C4590 H4576 0.930 . S
C4590 C4588 1.395 . S
C4590 C4593 1.403 . S
C4591 C4588 1.403 . S
C4591 C4592 1.524 . S
C4591 C4595 1.400 . S
C4592 H4577 0.960 . S
C4592 H4578 0.960 . S
C4592 H4579 0.960 . S
C4592 C4591 1.524 . S
C4593 C4590 1.403 . S
C4593 C4594 1.392 . S
C4593 C4597 1.495 . S
C4594 C4593 1.392 . S
C4594 C4595 1.385 . S
C4594 C4596 1.478 . S
C4595 H4589 0.930 . S
C4595 C4591 1.400 . S
C4595 C4594 1.385 . S
C4596 C4594 1.478 . S
C4596 C4598 1.381 . S
C4596 C4602 1.383 . S
C4597 C4593 1.495 . S
C4597 H4603 0.959 . S
C4597 H4604 0.961 . S
C4597 H4605 0.960 . S
C4598 C4596 1.381 . S
C4598 C4599 1.394 . S
C4598 H4606 0.930 . S
C4599 C4598 1.394 . S
C4599 C4600 1.383 . S
C4599 H4607 0.929 . S
C4600 C4599 1.383 . S
C4600 C4601 1.377 . S
C4601 H4585 0.930 . S
C4601 C4600 1.377 . S
C4601 C4602 1.379 . S
C4602 H4586 0.931 . S
C4602 C4596 1.383 . S
C4602 C4601 1.379 . S
H4603 C4597 0.959 . S
H4604 C4597 0.961 . S
H4605 C4597 0.960 . S
H4606 C4598 0.930 . S
H4607 C4599 0.929 . S
H4608 C4616 0.929 . S
H4609 C4618 0.930 . S
H4610 C4620 0.930 . S
H4611 C4623 0.929 . S
H4612 C4626 0.930 . S
H4613 C4628 0.960 . S
H4614 C4628 0.960 . S
H4615 C4628 0.960 . S
C4616 H4608 0.929 . S
C4616 C4617 1.377 . S
C4616 C4618 1.384 . S
C4617 C4616 1.377 . S
C4617 C4623 1.390 . S
C4618 H4609 0.930 . S
C4618 C4616 1.384 . S
C4618 C4619 1.372 . S
C4619 C4618 1.372 . S
C4619 C4620 1.400 . S
C4619 C4624 1.490 . S
C4620 H4610 0.930 . S
C4620 C4619 1.400 . S
C4620 C4623 1.386 . S
H4621 C4637 0.930 . S
H4622 C4638 0.931 . S
C4623 H4611 0.929 . S
C4623 C4617 1.390 . S
C4623 C4620 1.386 . S
C4624 C4619 1.490 . S
C4624 C4626 1.395 . S
C4624 C4627 1.403 . S
H4625 C4631 0.930 . S
C4626 H4612 0.930 . S
C4626 C4624 1.395 . S
C4626 C4629 1.403 . S
C4627 C4624 1.403 . S
C4627 C4628 1.524 . S
C4627 C4631 1.400 . S
C4628 H4613 0.960 . S
C4628 H4614 0.960 . S
C4628 H4615 0.960 . S
C4628 C4627 1.524 . S
C4629 C4626 1.403 . S
C4629 C4630 1.392 . S
C4629 C4633 1.495 . S
C4630 C4629 1.392 . S
C4630 C4631 1.385 . S
C4630 C4632 1.478 . S
C4631 H4625 0.930 . S
C4631 C4627 1.400 . S
C4631 C4630 1.385 . S
C4632 C4630 1.478 . S
C4632 C4634 1.381 . S
C4632 C4638 1.383 . S
C4633 C4629 1.495 . S
C4633 H4639 0.959 . S
C4633 H4640 0.961 . S
C4633 H4641 0.960 . S
C4634 C4632 1.381 . S
C4634 C4635 1.394 . S
C4634 H4642 0.930 . S
C4635 C4634 1.394 . S
C4635 C4636 1.383 . S
C4635 H4643 0.929 . S
C4636 C4635 1.383 . S
C4636 C4637 1.377 . S
C4637 H4621 0.930 . S
C4637 C4636 1.377 . S
C4637 C4638 1.379 . S
C4638 H4622 0.931 . S
C4638 C4632 1.383 . S
C4638 C4637 1.379 . S
H4639 C4633 0.959 . S
H4640 C4633 0.961 . S
H4641 C4633 0.960 . S
H4642 C4634 0.930 . S
H4643 C4635 0.929 . S
H4644 C4652 0.929 . S
H4645 C4654 0.930 . S
H4646 C4656 0.930 . S
H4647 C4659 0.929 . S
H4648 C4662 0.930 . S
H4649 C4664 0.960 . S
H4650 C4664 0.960 . S
H4651 C4664 0.960 . S
C4652 H4644 0.929 . S
C4652 C4653 1.377 . S
C4652 C4654 1.384 . S
C4653 C4652 1.377 . S
C4653 C4659 1.390 . S
C4654 H4645 0.930 . S
C4654 C4652 1.384 . S
C4654 C4655 1.372 . S
C4655 C4654 1.372 . S
C4655 C4656 1.400 . S
C4655 C4660 1.490 . S
C4656 H4646 0.930 . S
C4656 C4655 1.400 . S
C4656 C4659 1.386 . S
H4657 C4673 0.930 . S
H4658 C4674 0.931 . S
C4659 H4647 0.929 . S
C4659 C4653 1.390 . S
C4659 C4656 1.386 . S
C4660 C4655 1.490 . S
C4660 C4662 1.395 . S
C4660 C4663 1.403 . S
H4661 C4667 0.930 . S
C4662 H4648 0.930 . S
C4662 C4660 1.395 . S
C4662 C4665 1.403 . S
C4663 C4660 1.403 . S
C4663 C4664 1.524 . S
C4663 C4667 1.400 . S
C4664 H4649 0.960 . S
C4664 H4650 0.960 . S
C4664 H4651 0.960 . S
C4664 C4663 1.524 . S
C4665 C4662 1.403 . S
C4665 C4666 1.392 . S
C4665 C4669 1.495 . S
C4666 C4665 1.392 . S
C4666 C4667 1.385 . S
C4666 C4668 1.478 . S
C4667 H4661 0.930 . S
C4667 C4663 1.400 . S
C4667 C4666 1.385 . S
C4668 C4666 1.478 . S
C4668 C4670 1.381 . S
C4668 C4674 1.383 . S
C4669 C4665 1.495 . S
C4669 H4675 0.959 . S
C4669 H4676 0.961 . S
C4669 H4677 0.960 . S
C4670 C4668 1.381 . S
C4670 C4671 1.394 . S
C4670 H4678 0.930 . S
C4671 C4670 1.394 . S
C4671 C4672 1.383 . S
C4671 H4679 0.929 . S
C4672 C4671 1.383 . S
C4672 C4673 1.377 . S
C4673 H4657 0.930 . S
C4673 C4672 1.377 . S
C4673 C4674 1.379 . S
C4674 H4658 0.931 . S
C4674 C4668 1.383 . S
C4674 C4673 1.379 . S
H4675 C4669 0.959 . S
H4676 C4669 0.961 . S
H4677 C4669 0.960 . S
H4678 C4670 0.930 . S
H4679 C4671 0.929 . S
H4680 C4688 0.929 . S
H4681 C4690 0.930 . S
H4682 C4692 0.930 . S
H4683 C4695 0.929 . S
H4684 C4698 0.930 . S
H4685 C4700 0.960 . S
H4686 C4700 0.960 . S
H4687 C4700 0.960 . S
C4688 H4680 0.929 . S
C4688 C4689 1.377 . S
C4688 C4690 1.384 . S
C4689 C4688 1.377 . S
C4689 C4695 1.390 . S
C4690 H4681 0.930 . S
C4690 C4688 1.384 . S
C4690 C4691 1.372 . S
C4691 C4690 1.372 . S
C4691 C4692 1.400 . S
C4691 C4696 1.490 . S
C4692 H4682 0.930 . S
C4692 C4691 1.400 . S
C4692 C4695 1.386 . S
H4693 C4709 0.930 . S
H4694 C4710 0.931 . S
C4695 H4683 0.929 . S
C4695 C4689 1.390 . S
C4695 C4692 1.386 . S
C4696 C4691 1.490 . S
C4696 C4698 1.395 . S
C4696 C4699 1.403 . S
H4697 C4703 0.930 . S
C4698 H4684 0.930 . S
C4698 C4696 1.395 . S
C4698 C4701 1.403 . S
C4699 C4696 1.403 . S
C4699 C4700 1.524 . S
C4699 C4703 1.400 . S
C4700 H4685 0.960 . S
C4700 H4686 0.960 . S
C4700 H4687 0.960 . S
C4700 C4699 1.524 . S
C4701 C4698 1.403 . S
C4701 C4702 1.392 . S
C4701 C4705 1.495 . S
C4702 C4701 1.392 . S
C4702 C4703 1.385 . S
C4702 C4704 1.478 . S
C4703 H4697 0.930 . S
C4703 C4699 1.400 . S
C4703 C4702 1.385 . S
C4704 C4702 1.478 . S
C4704 C4706 1.381 . S
C4704 C4710 1.383 . S
C4705 C4701 1.495 . S
C4705 H4711 0.959 . S
C4705 H4712 0.961 . S
C4705 H4713 0.960 . S
C4706 C4704 1.381 . S
C4706 C4707 1.394 . S
C4706 H4714 0.930 . S
C4707 C4706 1.394 . S
C4707 C4708 1.383 . S
C4707 H4715 0.929 . S
C4708 C4707 1.383 . S
C4708 C4709 1.377 . S
C4709 H4693 0.930 . S
C4709 C4708 1.377 . S
C4709 C4710 1.379 . S
C4710 H4694 0.931 . S
C4710 C4704 1.383 . S
C4710 C4709 1.379 . S
H4711 C4705 0.959 . S
H4712 C4705 0.961 . S
H4713 C4705 0.960 . S
H4714 C4706 0.930 . S
H4715 C4707 0.929 . S
H4716 C4724 0.929 . S
H4717 C4726 0.930 . S
H4718 C4728 0.930 . S
H4719 C4731 0.929 . S
H4720 C4734 0.930 . S
H4721 C4736 0.960 . S
H4722 C4736 0.960 . S
H4723 C4736 0.960 . S
C4724 H4716 0.929 . S
C4724 C4725 1.377 . S
C4724 C4726 1.384 . S
C4725 C4724 1.377 . S
C4725 C4731 1.390 . S
C4726 H4717 0.930 . S
C4726 C4724 1.384 . S
C4726 C4727 1.372 . S
C4727 C4726 1.372 . S
C4727 C4728 1.400 . S
C4727 C4732 1.490 . S
C4728 H4718 0.930 . S
C4728 C4727 1.400 . S
C4728 C4731 1.386 . S
H4729 C4745 0.930 . S
H4730 C4746 0.931 . S
C4731 H4719 0.929 . S
C4731 C4725 1.390 . S
C4731 C4728 1.386 . S
C4732 C4727 1.490 . S
C4732 C4734 1.395 . S
C4732 C4735 1.403 . S
H4733 C4739 0.930 . S
C4734 H4720 0.930 . S
C4734 C4732 1.395 . S
C4734 C4737 1.403 . S
C4735 C4732 1.403 . S
C4735 C4736 1.524 . S
C4735 C4739 1.400 . S
C4736 H4721 0.960 . S
C4736 H4722 0.960 . S
C4736 H4723 0.960 . S
C4736 C4735 1.524 . S
C4737 C4734 1.403 . S
C4737 C4738 1.392 . S
C4737 C4741 1.495 . S
C4738 C4737 1.392 . S
C4738 C4739 1.385 . S
C4738 C4740 1.478 . S
C4739 H4733 0.930 . S
C4739 C4735 1.400 . S
C4739 C4738 1.385 . S
C4740 C4738 1.478 . S
C4740 C4742 1.381 . S
C4740 C4746 1.383 . S
C4741 C4737 1.495 . S
C4741 H4747 0.959 . S
C4741 H4748 0.961 . S
C4741 H4749 0.960 . S
C4742 C4740 1.381 . S
C4742 C4743 1.394 . S
C4742 H4750 0.930 . S
C4743 C4742 1.394 . S
C4743 C4744 1.383 . S
C4743 H4751 0.929 . S
C4744 C4743 1.383 . S
C4744 C4745 1.377 . S
C4745 H4729 0.930 . S
C4745 C4744 1.377 . S
C4745 C4746 1.379 . S
C4746 H4730 0.931 . S
C4746 C4740 1.383 . S
C4746 C4745 1.379 . S
H4747 C4741 0.959 . S
H4748 C4741 0.961 . S
H4749 C4741 0.960 . S
H4750 C4742 0.930 . S
H4751 C4743 0.929 . S
H4752 C4760 0.929 . S
H4753 C4762 0.930 . S
H4754 C4764 0.930 . S
H4755 C4767 0.929 . S
H4756 C4770 0.930 . S
H4757 C4772 0.960 . S
H4758 C4772 0.960 . S
H4759 C4772 0.960 . S
C4760 H4752 0.929 . S
C4760 C4761 1.377 . S
C4760 C4762 1.384 . S
C4761 C4760 1.377 . S
C4761 C4767 1.390 . S
C4762 H4753 0.930 . S
C4762 C4760 1.384 . S
C4762 C4763 1.372 . S
C4763 C4762 1.372 . S
C4763 C4764 1.400 . S
C4763 C4768 1.490 . S
C4764 H4754 0.930 . S
C4764 C4763 1.400 . S
C4764 C4767 1.386 . S
H4765 C4781 0.930 . S
H4766 C4782 0.931 . S
C4767 H4755 0.929 . S
C4767 C4761 1.390 . S
C4767 C4764 1.386 . S
C4768 C4763 1.490 . S
C4768 C4770 1.395 . S
C4768 C4771 1.403 . S
H4769 C4775 0.930 . S
C4770 H4756 0.930 . S
C4770 C4768 1.395 . S
C4770 C4773 1.403 . S
C4771 C4768 1.403 . S
C4771 C4772 1.524 . S
C4771 C4775 1.400 . S
C4772 H4757 0.960 . S
C4772 H4758 0.960 . S
C4772 H4759 0.960 . S
C4772 C4771 1.524 . S
C4773 C4770 1.403 . S
C4773 C4774 1.392 . S
C4773 C4777 1.495 . S
C4774 C4773 1.392 . S
C4774 C4775 1.385 . S
C4774 C4776 1.478 . S
C4775 H4769 0.930 . S
C4775 C4771 1.400 . S
C4775 C4774 1.385 . S
C4776 C4774 1.478 . S
C4776 C4778 1.381 . S
C4776 C4782 1.383 . S
C4777 C4773 1.495 . S
C4777 H4783 0.959 . S
C4777 H4784 0.961 . S
C4777 H4785 0.960 . S
C4778 C4776 1.381 . S
C4778 C4779 1.394 . S
C4778 H4786 0.930 . S
C4779 C4778 1.394 . S
C4779 C4780 1.383 . S
C4779 H4787 0.929 . S
C4780 C4779 1.383 . S
C4780 C4781 1.377 . S
C4781 H4765 0.930 . S
C4781 C4780 1.377 . S
C4781 C4782 1.379 . S
C4782 H4766 0.931 . S
C4782 C4776 1.383 . S
C4782 C4781 1.379 . S
H4783 C4777 0.959 . S
H4784 C4777 0.961 . S
H4785 C4777 0.960 . S
H4786 C4778 0.930 . S
H4787 C4779 0.929 . S
H4788 C4796 0.929 . S
H4789 C4798 0.930 . S
H4790 C4800 0.930 . S
H4791 C4803 0.929 . S
H4792 C4806 0.930 . S
H4793 C4808 0.960 . S
H4794 C4808 0.960 . S
H4795 C4808 0.960 . S
C4796 H4788 0.929 . S
C4796 C4797 1.377 . S
C4796 C4798 1.384 . S
C4797 C4796 1.377 . S
C4797 C4803 1.390 . S
C4798 H4789 0.930 . S
C4798 C4796 1.384 . S
C4798 C4799 1.372 . S
C4799 C4798 1.372 . S
C4799 C4800 1.400 . S
C4799 C4804 1.490 . S
C4800 H4790 0.930 . S
C4800 C4799 1.400 . S
C4800 C4803 1.386 . S
H4801 C4817 0.930 . S
H4802 C4818 0.931 . S
C4803 H4791 0.929 . S
C4803 C4797 1.390 . S
C4803 C4800 1.386 . S
C4804 C4799 1.490 . S
C4804 C4806 1.395 . S
C4804 C4807 1.403 . S
H4805 C4811 0.930 . S
C4806 H4792 0.930 . S
C4806 C4804 1.395 . S
C4806 C4809 1.403 . S
C4807 C4804 1.403 . S
C4807 C4808 1.524 . S
C4807 C4811 1.400 . S
C4808 H4793 0.960 . S
C4808 H4794 0.960 . S
C4808 H4795 0.960 . S
C4808 C4807 1.524 . S
C4809 C4806 1.403 . S
C4809 C4810 1.392 . S
C4809 C4813 1.495 . S
C4810 C4809 1.392 . S
C4810 C4811 1.385 . S
C4810 C4812 1.478 . S
C4811 H4805 0.930 . S
C4811 C4807 1.400 . S
C4811 C4810 1.385 . S
C4812 C4810 1.478 . S
C4812 C4814 1.381 . S
C4812 C4818 1.383 . S
C4813 C4809 1.495 . S
C4813 H4819 0.959 . S
C4813 H4820 0.961 . S
C4813 H4821 0.960 . S
C4814 C4812 1.381 . S
C4814 C4815 1.394 . S
C4814 H4822 0.930 . S
C4815 C4814 1.394 . S
C4815 C4816 1.383 . S
C4815 H4823 0.929 . S
C4816 C4815 1.383 . S
C4816 C4817 1.377 . S
C4817 H4801 0.930 . S
C4817 C4816 1.377 . S
C4817 C4818 1.379 . S
C4818 H4802 0.931 . S
C4818 C4812 1.383 . S
C4818 C4817 1.379 . S
H4819 C4813 0.959 . S
H4820 C4813 0.961 . S
H4821 C4813 0.960 . S
H4822 C4814 0.930 . S
H4823 C4815 0.929 . S
H4824 C4832 0.929 . S
H4825 C4834 0.930 . S
H4826 C4836 0.930 . S
H4827 C4839 0.929 . S
H4828 C4842 0.930 . S
H4829 C4844 0.960 . S
H4830 C4844 0.960 . S
H4831 C4844 0.960 . S
C4832 H4824 0.929 . S
C4832 C4833 1.377 . S
C4832 C4834 1.384 . S
C4833 C4832 1.377 . S
C4833 C4839 1.390 . S
C4834 H4825 0.930 . S
C4834 C4832 1.384 . S
C4834 C4835 1.372 . S
C4835 C4834 1.372 . S
C4835 C4836 1.400 . S
C4835 C4840 1.490 . S
C4836 H4826 0.930 . S
C4836 C4835 1.400 . S
C4836 C4839 1.386 . S
H4837 C4853 0.930 . S
H4838 C4854 0.931 . S
C4839 H4827 0.929 . S
C4839 C4833 1.390 . S
C4839 C4836 1.386 . S
C4840 C4835 1.490 . S
C4840 C4842 1.395 . S
C4840 C4843 1.403 . S
H4841 C4847 0.930 . S
C4842 H4828 0.930 . S
C4842 C4840 1.395 . S
C4842 C4845 1.403 . S
C4843 C4840 1.403 . S
C4843 C4844 1.524 . S
C4843 C4847 1.400 . S
C4844 H4829 0.960 . S
C4844 H4830 0.960 . S
C4844 H4831 0.960 . S
C4844 C4843 1.524 . S
C4845 C4842 1.403 . S
C4845 C4846 1.392 . S
C4845 C4849 1.495 . S
C4846 C4845 1.392 . S
C4846 C4847 1.385 . S
C4846 C4848 1.478 . S
C4847 H4841 0.930 . S
C4847 C4843 1.400 . S
C4847 C4846 1.385 . S
C4848 C4846 1.478 . S
C4848 C4850 1.381 . S
C4848 C4854 1.383 . S
C4849 C4845 1.495 . S
C4849 H4855 0.959 . S
C4849 H4856 0.961 . S
C4849 H4857 0.960 . S
C4850 C4848 1.381 . S
C4850 C4851 1.394 . S
C4850 H4858 0.930 . S
C4851 C4850 1.394 . S
C4851 C4852 1.383 . S
C4851 H4859 0.929 . S
C4852 C4851 1.383 . S
C4852 C4853 1.377 . S
C4853 H4837 0.930 . S
C4853 C4852 1.377 . S
C4853 C4854 1.379 . S
C4854 H4838 0.931 . S
C4854 C4848 1.383 . S
C4854 C4853 1.379 . S
H4855 C4849 0.959 . S
H4856 C4849 0.961 . S
H4857 C4849 0.960 . S
H4858 C4850 0.930 . S
H4859 C4851 0.929 . S
H4860 C4868 0.929 . S
H4861 C4870 0.930 . S
H4862 C4872 0.930 . S
H4863 C4875 0.929 . S
H4864 C4878 0.930 . S
H4865 C4880 0.960 . S
H4866 C4880 0.960 . S
H4867 C4880 0.960 . S
C4868 H4860 0.929 . S
C4868 C4869 1.377 . S
C4868 C4870 1.384 . S
C4869 C4868 1.377 . S
C4869 C4875 1.390 . S
C4870 H4861 0.930 . S
C4870 C4868 1.384 . S
C4870 C4871 1.372 . S
C4871 C4870 1.372 . S
C4871 C4872 1.400 . S
C4871 C4876 1.490 . S
C4872 H4862 0.930 . S
C4872 C4871 1.400 . S
C4872 C4875 1.386 . S
H4873 C4889 0.930 . S
H4874 C4890 0.931 . S
C4875 H4863 0.929 . S
C4875 C4869 1.390 . S
C4875 C4872 1.386 . S
C4876 C4871 1.490 . S
C4876 C4878 1.395 . S
C4876 C4879 1.403 . S
H4877 C4883 0.930 . S
C4878 H4864 0.930 . S
C4878 C4876 1.395 . S
C4878 C4881 1.403 . S
C4879 C4876 1.403 . S
C4879 C4880 1.524 . S
C4879 C4883 1.400 . S
C4880 H4865 0.960 . S
C4880 H4866 0.960 . S
C4880 H4867 0.960 . S
C4880 C4879 1.524 . S
C4881 C4878 1.403 . S
C4881 C4882 1.392 . S
C4881 C4885 1.495 . S
C4882 C4881 1.392 . S
C4882 C4883 1.385 . S
C4882 C4884 1.478 . S
C4883 H4877 0.930 . S
C4883 C4879 1.400 . S
C4883 C4882 1.385 . S
C4884 C4882 1.478 . S
C4884 C4886 1.381 . S
C4884 C4890 1.383 . S
C4885 C4881 1.495 . S
C4885 H4891 0.959 . S
C4885 H4892 0.961 . S
C4885 H4893 0.960 . S
C4886 C4884 1.381 . S
C4886 C4887 1.394 . S
C4886 H4894 0.930 . S
C4887 C4886 1.394 . S
C4887 C4888 1.383 . S
C4887 H4895 0.929 . S
C4888 C4887 1.383 . S
C4888 C4889 1.377 . S
C4889 H4873 0.930 . S
C4889 C4888 1.377 . S
C4889 C4890 1.379 . S
C4890 H4874 0.931 . S
C4890 C4884 1.383 . S
C4890 C4889 1.379 . S
H4891 C4885 0.959 . S
H4892 C4885 0.961 . S
H4893 C4885 0.960 . S
H4894 C4886 0.930 . S
H4895 C4887 0.929 . S
H4896 C4904 0.929 . S
H4897 C4906 0.930 . S
H4898 C4908 0.930 . S
H4899 C4911 0.929 . S
H4900 C4914 0.930 . S
H4901 C4916 0.960 . S
H4902 C4916 0.960 . S
H4903 C4916 0.960 . S
C4904 H4896 0.929 . S
C4904 C4905 1.377 . S
C4904 C4906 1.384 . S
C4905 C4904 1.377 . S
C4905 C4911 1.390 . S
C4906 H4897 0.930 . S
C4906 C4904 1.384 . S
C4906 C4907 1.372 . S
C4907 C4906 1.372 . S
C4907 C4908 1.400 . S
C4907 C4912 1.490 . S
C4908 H4898 0.930 . S
C4908 C4907 1.400 . S
C4908 C4911 1.386 . S
H4909 C4925 0.930 . S
H4910 C4926 0.931 . S
C4911 H4899 0.929 . S
C4911 C4905 1.390 . S
C4911 C4908 1.386 . S
C4912 C4907 1.490 . S
C4912 C4914 1.395 . S
C4912 C4915 1.403 . S
H4913 C4919 0.930 . S
C4914 H4900 0.930 . S
C4914 C4912 1.395 . S
C4914 C4917 1.403 . S
C4915 C4912 1.403 . S
C4915 C4916 1.524 . S
C4915 C4919 1.400 . S
C4916 H4901 0.960 . S
C4916 H4902 0.960 . S
C4916 H4903 0.960 . S
C4916 C4915 1.524 . S
C4917 C4914 1.403 . S
C4917 C4918 1.392 . S
C4917 C4921 1.495 . S
C4918 C4917 1.392 . S
C4918 C4919 1.385 . S
C4918 C4920 1.478 . S
C4919 H4913 0.930 . S
C4919 C4915 1.400 . S
C4919 C4918 1.385 . S
C4920 C4918 1.478 . S
C4920 C4922 1.381 . S
C4920 C4926 1.383 . S
C4921 C4917 1.495 . S
C4921 H4927 0.959 . S
C4921 H4928 0.961 . S
C4921 H4929 0.960 . S
C4922 C4920 1.381 . S
C4922 C4923 1.394 . S
C4922 H4930 0.930 . S
C4923 C4922 1.394 . S
C4923 C4924 1.383 . S
C4923 H4931 0.929 . S
C4924 C4923 1.383 . S
C4924 C4925 1.377 . S
C4925 H4909 0.930 . S
C4925 C4924 1.377 . S
C4925 C4926 1.379 . S
C4926 H4910 0.931 . S
C4926 C4920 1.383 . S
C4926 C4925 1.379 . S
H4927 C4921 0.959 . S
H4928 C4921 0.961 . S
H4929 C4921 0.960 . S
H4930 C4922 0.930 . S
H4931 C4923 0.929 . S
H4932 C4940 0.929 . S
H4933 C4942 0.930 . S
H4934 C4944 0.930 . S
H4935 C4947 0.929 . S
H4936 C4950 0.930 . S
H4937 C4952 0.960 . S
H4938 C4952 0.960 . S
H4939 C4952 0.960 . S
C4940 H4932 0.929 . S
C4940 C4941 1.377 . S
C4940 C4942 1.384 . S
C4941 C4940 1.377 . S
C4941 C4947 1.390 . S
C4942 H4933 0.930 . S
C4942 C4940 1.384 . S
C4942 C4943 1.372 . S
C4943 C4942 1.372 . S
C4943 C4944 1.400 . S
C4943 C4948 1.490 . S
C4944 H4934 0.930 . S
C4944 C4943 1.400 . S
C4944 C4947 1.386 . S
H4945 C4961 0.930 1_556 S
H4946 C4962 0.931 1_556 S
C4947 H4935 0.929 . S
C4947 C4941 1.390 . S
C4947 C4944 1.386 . S
C4948 C4943 1.490 . S
C4948 C4950 1.395 . S
C4948 C4951 1.403 . S
H4949 C4955 0.930 . S
C4950 H4936 0.930 . S
C4950 C4948 1.395 . S
C4950 C4953 1.403 . S
C4951 C4948 1.403 . S
C4951 C4952 1.524 . S
C4951 C4955 1.400 . S
C4952 H4937 0.960 . S
C4952 H4938 0.960 . S
C4952 H4939 0.960 . S
C4952 C4951 1.524 . S
C4953 C4950 1.403 . S
C4953 C4954 1.392 . S
C4953 C4957 1.495 . S
C4954 C4953 1.392 . S
C4954 C4955 1.385 . S
C4954 C4956 1.478 . S
C4955 H4949 0.930 . S
C4955 C4951 1.400 . S
C4955 C4954 1.385 . S
C4956 C4954 1.478 . S
C4956 C4958 1.381 . S
C4956 C4962 1.383 . S
C4957 C4953 1.495 . S
C4957 H4963 0.959 . S
C4957 H4964 0.961 . S
C4957 H4965 0.960 . S
C4958 C4956 1.381 . S
C4958 C4959 1.394 . S
C4958 H4966 0.930 . S
C4959 C4958 1.394 . S
C4959 C4960 1.383 . S
C4959 H4967 0.929 . S
C4960 C4959 1.383 . S
C4960 C4961 1.377 . S
C4961 H4945 0.930 1_554 S
C4961 C4960 1.377 . S
C4961 C4962 1.379 . S
C4962 H4946 0.931 1_554 S
C4962 C4956 1.383 . S
C4962 C4961 1.379 . S
H4963 C4957 0.959 . S
H4964 C4957 0.961 . S
H4965 C4957 0.960 . S
H4966 C4958 0.930 . S
H4967 C4959 0.929 . S
H4968 C4976 0.929 . S
H4969 C4978 0.930 . S
H4970 C4980 0.930 . S
H4971 C4983 0.929 . S
H4972 C4986 0.930 . S
H4973 C4988 0.960 . S
H4974 C4988 0.960 . S
H4975 C4988 0.960 . S
C4976 H4968 0.929 . S
C4976 C4977 1.377 . S
C4976 C4978 1.384 . S
C4977 C4976 1.377 . S
C4977 C4983 1.390 . S
C4978 H4969 0.930 . S
C4978 C4976 1.384 . S
C4978 C4979 1.372 . S
C4979 C4978 1.372 . S
C4979 C4980 1.400 . S
C4979 C4984 1.490 . S
C4980 H4970 0.930 . S
C4980 C4979 1.400 . S
C4980 C4983 1.386 . S
H4981 C4997 0.930 . S
H4982 C4998 0.931 . S
C4983 H4971 0.929 . S
C4983 C4977 1.390 . S
C4983 C4980 1.386 . S
C4984 C4979 1.490 . S
C4984 C4986 1.395 . S
C4984 C4987 1.403 . S
H4985 C4991 0.930 . S
C4986 H4972 0.930 . S
C4986 C4984 1.395 . S
C4986 C4989 1.403 . S
C4987 C4984 1.403 . S
C4987 C4988 1.524 . S
C4987 C4991 1.400 . S
C4988 H4973 0.960 . S
C4988 H4974 0.960 . S
C4988 H4975 0.960 . S
C4988 C4987 1.524 . S
C4989 C4986 1.403 . S
C4989 C4990 1.392 . S
C4989 C4993 1.495 . S
C4990 C4989 1.392 . S
C4990 C4991 1.385 . S
C4990 C4992 1.478 . S
C4991 H4985 0.930 . S
C4991 C4987 1.400 . S
C4991 C4990 1.385 . S
C4992 C4990 1.478 . S
C4992 C4994 1.381 . S
C4992 C4998 1.383 . S
C4993 C4989 1.495 . S
C4993 H4999 0.959 . S
C4993 H5000 0.961 . S
C4993 H5001 0.960 . S
C4994 C4992 1.381 . S
C4994 C4995 1.394 . S
C4994 H5002 0.930 . S
C4995 C4994 1.394 . S
C4995 C4996 1.383 . S
C4995 H5003 0.929 . S
C4996 C4995 1.383 . S
C4996 C4997 1.377 . S
C4997 H4981 0.930 . S
C4997 C4996 1.377 . S
C4997 C4998 1.379 . S
C4998 H4982 0.931 . S
C4998 C4992 1.383 . S
C4998 C4997 1.379 . S
H4999 C4993 0.959 . S
H5000 C4993 0.961 . S
H5001 C4993 0.960 . S
H5002 C4994 0.930 . S
H5003 C4995 0.929 . S
H5004 C5012 0.929 . S
H5005 C5014 0.930 . S
H5006 C5016 0.930 . S
H5007 C5019 0.929 . S
H5008 C5022 0.930 . S
H5009 C5024 0.960 1_556 S
H5010 C5024 0.960 1_556 S
H5011 C5024 0.960 . S
C5012 H5004 0.929 . S
C5012 C5013 1.377 . S
C5012 C5014 1.384 . S
C5013 C5012 1.377 . S
C5013 C5019 1.390 . S
C5014 H5005 0.930 . S
C5014 C5012 1.384 . S
C5014 C5015 1.372 . S
C5015 C5014 1.372 . S
C5015 C5016 1.400 . S
C5015 C5020 1.490 . S
C5016 H5006 0.930 . S
C5016 C5015 1.400 . S
C5016 C5019 1.386 . S
H5017 C5033 0.930 . S
H5018 C5034 0.931 . S
C5019 H5007 0.929 . S
C5019 C5013 1.390 . S
C5019 C5016 1.386 . S
C5020 C5015 1.490 . S
C5020 C5022 1.395 . S
C5020 C5023 1.403 . S
H5021 C5027 0.930 . S
C5022 H5008 0.930 . S
C5022 C5020 1.395 . S
C5022 C5025 1.403 . S
C5023 C5020 1.403 . S
C5023 C5024 1.524 . S
C5023 C5027 1.400 . S
C5024 H5009 0.960 1_554 S
C5024 H5010 0.960 1_554 S
C5024 H5011 0.960 . S
C5024 C5023 1.524 . S
C5025 C5022 1.403 . S
C5025 C5026 1.392 . S
C5025 C5029 1.495 . S
C5026 C5025 1.392 . S
C5026 C5027 1.385 . S
C5026 C5028 1.478 . S
C5027 H5021 0.930 . S
C5027 C5023 1.400 . S
C5027 C5026 1.385 . S
C5028 C5026 1.478 . S
C5028 C5030 1.381 . S
C5028 C5034 1.383 . S
C5029 C5025 1.495 . S
C5029 H5035 0.959 . S
C5029 H5036 0.961 . S
C5029 H5037 0.960 . S
C5030 C5028 1.381 . S
C5030 C5031 1.394 . S
C5030 H5038 0.930 . S
C5031 C5030 1.394 . S
C5031 C5032 1.383 . S
C5031 H5039 0.929 . S
C5032 C5031 1.383 . S
C5032 C5033 1.377 . S
C5033 H5017 0.930 . S
C5033 C5032 1.377 . S
C5033 C5034 1.379 . S
C5034 H5018 0.931 . S
C5034 C5028 1.383 . S
C5034 C5033 1.379 . S
H5035 C5029 0.959 . S
H5036 C5029 0.961 . S
H5037 C5029 0.960 . S
H5038 C5030 0.930 . S
H5039 C5031 0.929 . S
H5040 C5048 0.929 . S
H5041 C5050 0.930 . S
H5042 C5052 0.930 . S
H5043 C5055 0.929 . S
H5044 C5058 0.930 . S
H5045 C5060 0.960 . S
H5046 C5060 0.960 . S
H5047 C5060 0.960 . S
C5048 H5040 0.929 . S
C5048 C5049 1.377 . S
C5048 C5050 1.384 . S
C5049 C5048 1.377 . S
C5049 C5055 1.390 . S
C5050 H5041 0.930 . S
C5050 C5048 1.384 . S
C5050 C5051 1.372 . S
C5051 C5050 1.372 . S
C5051 C5052 1.400 . S
C5051 C5056 1.490 . S
C5052 H5042 0.930 . S
C5052 C5051 1.400 . S
C5052 C5055 1.386 . S
H5053 C5069 0.930 . S
H5054 C5070 0.931 . S
C5055 H5043 0.929 . S
C5055 C5049 1.390 . S
C5055 C5052 1.386 . S
C5056 C5051 1.490 . S
C5056 C5058 1.395 . S
C5056 C5059 1.403 . S
H5057 C5063 0.930 . S
C5058 H5044 0.930 . S
C5058 C5056 1.395 . S
C5058 C5061 1.403 . S
C5059 C5056 1.403 . S
C5059 C5060 1.524 . S
C5059 C5063 1.400 . S
C5060 H5045 0.960 . S
C5060 H5046 0.960 . S
C5060 H5047 0.960 . S
C5060 C5059 1.524 . S
C5061 C5058 1.403 . S
C5061 C5062 1.392 . S
C5061 C5065 1.495 . S
C5062 C5061 1.392 . S
C5062 C5063 1.385 . S
C5062 C5064 1.478 . S
C5063 H5057 0.930 . S
C5063 C5059 1.400 . S
C5063 C5062 1.385 . S
C5064 C5062 1.478 . S
C5064 C5066 1.381 . S
C5064 C5070 1.383 . S
C5065 C5061 1.495 . S
C5065 H5071 0.959 . S
C5065 H5072 0.961 . S
C5065 H5073 0.960 . S
C5066 C5064 1.381 . S
C5066 C5067 1.394 . S
C5066 H5074 0.930 . S
C5067 C5066 1.394 . S
C5067 C5068 1.383 . S
C5067 H5075 0.929 . S
C5068 C5067 1.383 . S
C5068 C5069 1.377 . S
C5069 H5053 0.930 . S
C5069 C5068 1.377 . S
C5069 C5070 1.379 . S
C5070 H5054 0.931 . S
C5070 C5064 1.383 . S
C5070 C5069 1.379 . S
H5071 C5065 0.959 . S
H5072 C5065 0.961 . S
H5073 C5065 0.960 . S
H5074 C5066 0.930 . S
H5075 C5067 0.929 . S
H5076 C5084 0.929 . S
H5077 C5086 0.930 . S
H5078 C5088 0.930 . S
H5079 C5091 0.929 . S
H5080 C5094 0.930 . S
H5081 C5096 0.960 . S
H5082 C5096 0.960 . S
H5083 C5096 0.960 . S
C5084 H5076 0.929 . S
C5084 C5085 1.377 . S
C5084 C5086 1.384 . S
C5085 C5084 1.377 . S
C5085 C5091 1.390 . S
C5086 H5077 0.930 . S
C5086 C5084 1.384 . S
C5086 C5087 1.372 . S
C5087 C5086 1.372 . S
C5087 C5088 1.400 . S
C5087 C5092 1.490 . S
C5088 H5078 0.930 . S
C5088 C5087 1.400 . S
C5088 C5091 1.386 . S
H5089 C5105 0.930 . S
H5090 C5106 0.931 . S
C5091 H5079 0.929 . S
C5091 C5085 1.390 . S
C5091 C5088 1.386 . S
C5092 C5087 1.490 . S
C5092 C5094 1.395 . S
C5092 C5095 1.403 . S
H5093 C5099 0.930 . S
C5094 H5080 0.930 . S
C5094 C5092 1.395 . S
C5094 C5097 1.403 . S
C5095 C5092 1.403 . S
C5095 C5096 1.524 . S
C5095 C5099 1.400 . S
C5096 H5081 0.960 . S
C5096 H5082 0.960 . S
C5096 H5083 0.960 . S
C5096 C5095 1.524 . S
C5097 C5094 1.403 . S
C5097 C5098 1.392 . S
C5097 C5101 1.495 . S
C5098 C5097 1.392 . S
C5098 C5099 1.385 . S
C5098 C5100 1.478 . S
C5099 H5093 0.930 . S
C5099 C5095 1.400 . S
C5099 C5098 1.385 . S
C5100 C5098 1.478 . S
C5100 C5102 1.381 . S
C5100 C5106 1.383 . S
C5101 C5097 1.495 . S
C5101 H5107 0.959 . S
C5101 H5108 0.961 . S
C5101 H5109 0.960 . S
C5102 C5100 1.381 . S
C5102 C5103 1.394 . S
C5102 H5110 0.930 . S
C5103 C5102 1.394 . S
C5103 C5104 1.383 . S
C5103 H5111 0.929 . S
C5104 C5103 1.383 . S
C5104 C5105 1.377 . S
C5105 H5089 0.930 . S
C5105 C5104 1.377 . S
C5105 C5106 1.379 . S
C5106 H5090 0.931 . S
C5106 C5100 1.383 . S
C5106 C5105 1.379 . S
H5107 C5101 0.959 . S
H5108 C5101 0.961 . S
H5109 C5101 0.960 . S
H5110 C5102 0.930 . S
H5111 C5103 0.929 . S
C1665 C101 1.861 . S
C1684 C368 1.852 . S
C1701 C57 1.713 . S
C1720 C470 1.710 . S
C1737 C70 1.596 . S
C1756 C536 1.583 . S
C1792 C622 1.429 . S
C1773 C82 1.537 . S
C1809 C23 1.538 . S
C1828 C706 1.399 . S
C1864 C788 1.595 . S
C1845 C29 1.596 . S
C1900 C890 1.698 . S
C1881 C49 1.704 . S
C1917 C10 1.862 . S
C1936 C956 1.846 . S
C1972 C386 1.425 . S
C1953 C218 1.466 . S
C1989 C226 0.836 . S
C2008 C454 0.755 . S
C2044 C554 1.055 . S
C2025 C251 1.039 . S
C2080 C620 1.481 . S
C2061 C159 1.484 1_556 S
C2097 C211 1.483 . S
C2116 C704 1.484 . S
C2152 C806 1.012 . S
C2133 C225 1.033 . S
C2188 C874 0.757 . S
C2169 C252 0.836 . S
C2224 C974 1.454 . S
C2205 C166 1.468 . S
C2260 C370 0.927 . S
C2241 C147 0.902 . S
C2277 C263 1.578 . S
C2296 C1058 1.555 . S
C2332 C1126 1.273 . S
C2313 C309 1.370 . S
C2368 C1208 0.633 . S
C2349 C291 0.646 . S
C2385 C108 0.906 . S
C2404 C958 0.902 . S
C2421 C121 1.374 . S
C2440 C538 1.291 . S
C2457 C302 1.576 . S
C2476 C1310 1.571 . S
C2512 C1376 0.667 . S
C2493 C276 0.651 . S
C2548 C379 2.180 1_565 S
C2529 C55 2.171 . S
C2584 C1383 2.080 . S
C2565 C96 2.108 . S
C2601 C88 2.017 . S
C2620 C547 2.017 . S
C2637 C75 1.798 . S
C2656 C1305 1.684 . S
C2692 C717 1.685 . S
C2673 C4 1.798 . S
C2709 C44 2.024 . S
C2728 C1135 2.028 . S
C2764 C879 2.091 1_565 S
C2745 C31 2.098 . S
C2800 C1471 2.185 . S
C2781 C18 2.174 . S
C2836 C375 1.811 1_556 S
C2817 C133 1.845 . S
C2872 C1389 1.032 . S
C2853 C296 1.127 . S
C2889 C107 1.357 . S
C2908 C543 1.346 . S
C2925 C264 1.868 . S
C2944 C1303 1.860 . S
C2961 C140 1.869 . S
C2980 C715 1.869 . S
C3016 C1131 1.325 . S
C2997 C289 1.360 . S
C3033 C114 1.128 . S
C3052 C885 1.007 . S
C3069 C265 1.848 . S
C3088 C1467 1.790 . S
C3105 C179 1.066 . S
C3124 C381 0.957 . S
C3141 C161 1.904 . S
C3160 C1047 1.861 . S
C3177 C244 1.552 . S
C3196 C801 1.453 . S
C3213 C224 1.072 . S
C3232 C1219 1.072 . S
C3268 C1473 1.033 . S
C3249 C257 1.010 1_565 S
C3285 C199 1.552 . S
C3304 C549 1.426 . S
C3340 C627 1.863 . S
C3321 C237 1.904 . S
C3376 C463 1.073 . S
C3357 C185 1.073 . S
C3393 C69 1.863 . S
C3412 C1544 1.865 . S
C3448 C1394 1.712 . S
C3429 C83 1.713 . S
C3465 C94 1.592 . S
C3484 C1628 1.597 . S
C3501 C56 1.498 1_655 S
C3520 C1294 1.436 . S
C3537 C42 1.543 . S
C3556 C1042 1.474 . S
C3592 C1124 1.595 . S
C3573 C3 1.596 1_655 S
C3628 C1226 1.711 . S
C3609 C16 1.707 . S
C3664 C1460 1.862 . S
C3645 C36 1.862 . S
C3700 C1562 1.410 . S
C3681 C238 1.464 . S
C3717 C174 0.827 . S
C3736 C1378 0.874 . S
C3772 C1646 1.015 . S
C3753 C186 1.034 . S
C3808 C1292 1.478 . S
C3789 C198 1.483 . S
C3844 C1040 1.483 . S
C3825 C239 1.484 . S
C3861 C173 1.039 . S
C3880 C1142 1.046 . S
C3916 C1210 0.779 . S
C3897 C187 0.832 . S
C3933 C205 1.464 . S
C3952 C1478 1.418 . S
C3988 C1546 0.880 . S
C3969 C290 0.907 . S
C4005 C122 1.576 . S
C4024 C722 1.560 . S
C4060 C790 1.279 . S
C4041 C134 1.374 1_565 S
C4096 C872 0.631 . S
C4077 C148 0.648 . S
C4132 C1462 0.894 . S
C4113 C283 0.904 . S
C4149 C270 1.372 . S
C4168 C1630 1.296 . S
C4204 C638 1.553 . S
C4185 C135 1.580 . S
C4240 C452 0.667 . S
C4221 C109 0.651 . S
C4257 C81 2.171 . S
C4276 C1555 2.180 . S
C4312 C459 2.071 . S
C4293 C68 2.101 . S
C4329 C62 2.017 . S
C4348 C1639 2.018 . S
C4365 C95 1.795 . S
C4384 C633 1.633 . S
C4401 C30 1.798 . S
C4420 C1053 1.646 . S
C4456 C799 2.022 . S
C4437 C17 2.019 . S
C4473 C5 2.099 . S
C4492 C1215 2.089 . S
C4509 C43 2.168 . S
C4528 C967 2.170 . S
C4564 C1551 1.817 . S
C4545 C304 1.845 . S
C4581 C153 1.124 . S
C4600 C465 0.986 . S
C4636 C1635 1.273 1_556 S
C4617 C278 1.359 . S
C4653 C127 1.867 . S
C4672 C631 1.859 . S
C4689 C303 1.865 . S
C4708 C1051 1.863 . S
C4744 C795 1.318 . S
C4725 C146 1.365 . S
C4761 C277 1.125 . S
C4780 C1221 1.013 . S
C4816 C963 1.784 . S
C4797 C120 1.845 . S
C4852 C1557 1.051 . S
C4833 C231 1.064 . S
C4888 C711 1.887 1_565 S
C4869 C200 1.904 . S
C4905 C212 1.556 . S
C4924 C1137 1.434 . S
C4960 C883 1.076 . S
C4941 C172 1.072 . S
C4977 C192 1.063 . S
C4996 C969 1.024 . S
C5013 C160 1.552 . S
C5032 C1641 1.476 . S
C5068 C1299 1.866 . S
C5049 C213 1.905 . S
C5104 C1387 1.077 . S
C5085 C250 1.073 . S
