# Generated by pormake.
# Topology anh, (6,3)-cn, num edge types: 1
# Building blocks:
#     Node 0, Type 0, BuildingBlock: BETDIP_clean_sbu_0, # of connection points: 6
#     Node 1, Type 0, BuildingBlock: BETDIP_clean_sbu_0, # of connection points: 6
#     Node 2, Type 0, BuildingBlock: BETDIP_clean_sbu_0, # of connection points: 6
#     Node 3, Type 1, BuildingBlock: OLANEW_clean_sbu_2, # of connection points: 3
#     Node 4, Type 1, BuildingBlock: OLANEW_clean_sbu_2, # of connection points: 3
#     Node 5, Type 1, BuildingBlock: OLANEW_clean_sbu_2, # of connection points: 3
#     Node 6, Type 1, BuildingBlock: OLANEW_clean_sbu_2, # of connection points: 3
#     Node 7, Type 1, BuildingBlock: OLANEW_clean_sbu_2, # of connection points: 3
#     Node 8, Type 1, BuildingBlock: OLANEW_clean_sbu_2, # of connection points: 3
#     Edge 9, Type (0, 1), BuildingBlock: TEMPAE_clean_linker_10, # of connection points: 2
#     Edge 10, Type (0, 1), BuildingBlock: TEMPAE_clean_linker_10, # of connection points: 2
#     Edge 11, Type (0, 1), BuildingBlock: TEMPAE_clean_linker_10, # of connection points: 2
#     Edge 12, Type (0, 1), BuildingBlock: TEMPAE_clean_linker_10, # of connection points: 2
#     Edge 13, Type (0, 1), BuildingBlock: TEMPAE_clean_linker_10, # of connection points: 2
#     Edge 14, Type (0, 1), BuildingBlock: TEMPAE_clean_linker_10, # of connection points: 2
#     Edge 15, Type (0, 1), BuildingBlock: TEMPAE_clean_linker_10, # of connection points: 2
#     Edge 16, Type (0, 1), BuildingBlock: TEMPAE_clean_linker_10, # of connection points: 2
#     Edge 17, Type (0, 1), BuildingBlock: TEMPAE_clean_linker_10, # of connection points: 2
#     Edge 18, Type (0, 1), BuildingBlock: TEMPAE_clean_linker_10, # of connection points: 2
#     Edge 19, Type (0, 1), BuildingBlock: TEMPAE_clean_linker_10, # of connection points: 2
#     Edge 20, Type (0, 1), BuildingBlock: TEMPAE_clean_linker_10, # of connection points: 2
#     Edge 21, Type (0, 1), BuildingBlock: TEMPAE_clean_linker_10, # of connection points: 2
#     Edge 22, Type (0, 1), BuildingBlock: TEMPAE_clean_linker_10, # of connection points: 2
#     Edge 23, Type (0, 1), BuildingBlock: TEMPAE_clean_linker_10, # of connection points: 2
#     Edge 24, Type (0, 1), BuildingBlock: TEMPAE_clean_linker_10, # of connection points: 2
#     Edge 25, Type (0, 1), BuildingBlock: TEMPAE_clean_linker_10, # of connection points: 2
#     Edge 26, Type (0, 1), BuildingBlock: TEMPAE_clean_linker_10, # of connection points: 2
# Relax obj value: 0.224
# Max RMSD: 0.127
# Mean RMSD: 0.112
data_MOF--net-anh--node1-BETDIP_clean_sbu_0--node2-OLANEW_clean_sbu_2--edge1-TEMPAE_clean_linker_10
_symmetry_space_group_name_H-M    P1
_symmetry_Int_Tables_number       1
_symmetry_cell_setting            triclinic
loop_
_symmetry_equiv_pos_as_xyz
'x, y, z'
_cell_length_a     36.842803
_cell_length_b     36.73583
_cell_length_c     50.218141
_cell_angle_alpha  89.65142
_cell_angle_beta   89.845931
_cell_angle_gamma 119.66218
loop_
_atom_site_label
_atom_site_type_symbol
_atom_site_fract_x
_atom_site_fract_y
_atom_site_fract_z
_atom_type_partial_charge
Tb0 Tb 0.05814 0.56349 0.1852 0.0
Tb1 Tb 1.0182 0.47118 0.17865 0.0
C2 C 0.10193 0.63659 0.20205 0.0
C3 C 0.14579 0.66868 0.1981 0.0
C4 C 0.17733 0.65782 0.19697 0.0
C5 C 0.21793 0.68765 0.18959 0.0
C6 C 0.22763 0.72885 0.18353 0.0
C7 C 0.19635 0.74 0.18553 0.0
C8 C 0.15565 0.71003 0.19266 0.0
C9 C 0.04003 0.53763 0.13613 0.0
C10 C 0.1159 0.52024 0.17511 0.0
C11 C 0.9722 0.39818 0.16235 0.0
C12 C 0.9266 0.37309 0.16081 0.0
C13 C 0.90785 0.34579 0.13947 0.0
C14 C 0.86434 0.3228 0.13759 0.0
C15 C 0.83916 0.32693 0.15707 0.0
C16 C 0.85816 0.35522 0.17799 0.0
C17 C 0.9015 0.37816 0.17981 0.0
C18 C 0.03494 0.49714 0.22836 0.0
C19 C 0.96143 0.51555 0.18113 0.0
O20 O 0.09458 0.60315 0.21586 0.0
O21 O 0.07921 0.62747 0.18055 0.0
O22 O 0.05387 0.52356 0.15377 0.0
O23 O 0.03914 0.57024 0.14495 0.0
O24 O 0.11355 0.55414 0.18179 0.0
O25 O 0.08163 0.48404 0.17081 0.0
O26 O 0.98904 0.43098 0.1466 0.0
O27 O 0.98787 0.40664 0.18637 0.0
O28 O 1.02107 0.51123 0.21051 0.0
O29 O 0.03766 0.46581 0.21889 0.0
O30 O 0.96467 0.48231 0.17466 0.0
O31 O 0.99396 0.55013 0.18993 0.0
H32 H 0.17053 0.62621 0.20137 0.0
H33 H 0.24176 0.6786 0.18871 0.0
H34 H 0.20316 0.77163 0.18095 0.0
H35 H 0.13162 0.71887 0.19325 0.0
H36 H 0.92685 0.34211 0.12438 0.0
H37 H 0.8504 0.30093 0.12138 0.0
H38 H 0.83946 0.35931 0.19309 0.0
H39 H 0.91537 0.3998 0.19615 0.0
Tb40 Tb 0.56747 0.04831 0.52524 0.0
Tb41 Tb 0.51869 0.08642 0.50334 0.0
C42 C 0.59162 1.00998 0.55549 0.0
C43 C 0.58103 0.9665 0.56134 0.0
C44 C 0.57837 0.95355 0.58795 0.0
C45 C 0.57305 0.91402 0.59406 0.0
C46 C 0.57066 0.88701 0.5736 0.0
C47 C 0.57132 0.89925 0.54696 0.0
C48 C 0.57625 0.9386 0.54086 0.0
C49 C 0.5694 0.05491 0.47333 0.0
C50 C 0.46991 0.9892 0.50917 0.0
C51 C 0.49682 0.13146 0.4784 0.0
C52 C 0.51312 0.17678 0.48146 0.0
C53 C 0.52842 0.20373 0.45927 0.0
C54 C 0.55117 0.24721 0.46273 0.0
C55 C 0.55881 0.26428 0.48846 0.0
C56 C 0.54193 0.23714 0.5105 0.0
C57 C 0.51947 0.19398 0.50706 0.0
C58 C 0.52101 0.08283 0.55598 0.0
C59 C 0.61829 0.14336 0.51075 0.0
O60 O 0.56408 0.02079 0.56265 0.0
O61 O 0.60818 0.02509 0.53208 0.0
O62 O 0.53843 0.04533 0.48815 0.0
O63 O 0.59992 0.05685 0.48718 0.0
O64 O 0.50245 0.99356 0.52332 0.0
O65 O 0.47187 0.02155 0.4961 0.0
O66 O 0.52385 0.12149 0.46895 0.0
O67 O 0.47578 0.10776 0.49872 0.0
O68 O 0.55043 0.09163 0.53997 0.0
O69 O 0.48896 0.07807 0.54271 0.0
O70 O 0.58369 0.13787 0.49915 0.0
O71 O 0.61787 0.11362 0.52606 0.0
H72 H 0.58186 0.97458 0.60402 0.0
H73 H 0.57293 0.90546 0.61475 0.0
H74 H 0.56911 0.87879 0.53085 0.0
H75 H 0.57766 0.94764 0.52015 0.0
H76 H 0.5244 0.19109 0.43937 0.0
H77 H 0.56372 0.26736 0.44537 0.0
H78 H 0.54801 0.24906 0.53063 0.0
H79 H 0.50894 0.17408 0.52464 0.0
Tb80 Tb 0.49687 0.5283 0.84563 0.0
Tb81 Tb 0.58869 0.58266 0.84088 0.0
C82 C 0.42223 0.49391 0.86114 0.0
C83 C 0.38738 0.50238 0.86065 0.0
C84 C 0.35368 0.47998 0.87803 0.0
C85 C 0.31865 0.48502 0.87675 0.0
C86 C 0.31673 0.5126 0.858 0.0
C87 C 0.35109 0.53586 0.84098 0.0
C88 C 0.38632 0.5309 0.84237 0.0
C89 C 0.52676 0.5381 0.7968 0.0
C90 C 0.53701 0.62865 0.83785 0.0
C91 C 0.66465 0.61345 0.82942 0.0
C92 C 0.6895 0.59331 0.82302 0.0
C93 C 0.67327 0.55799 0.8066 0.0
C94 C 0.69356 0.53459 0.80438 0.0
C95 C 0.73014 0.54568 0.8188 0.0
C96 C 0.74732 0.58227 0.83427 0.0
C97 C 0.72721 0.60591 0.83627 0.0
C98 C 0.55802 0.57268 0.88972 0.0
C99 C 0.54744 0.48253 0.84089 0.0
O100 O 0.45389 0.51826 0.87622 0.0
O101 O 0.43391 0.48679 0.83804 0.0
O102 O 0.5382 0.56532 0.8146 0.0
O103 O 0.49518 0.50371 0.80555 0.0
O104 O 0.50407 0.5922 0.84496 0.0
O105 O 0.57363 0.63171 0.83258 0.0
O106 O 0.63636 0.60915 0.81207 0.0
O107 O 0.65037 0.60715 0.85385 0.0
O108 O 0.54732 0.54459 0.87233 0.0
O109 O 0.5877 0.60761 0.88008 0.0
O110 O 0.57844 0.51915 0.83258 0.0
O111 O 0.51388 0.4801 0.85217 0.0
H112 H 0.35405 0.45779 0.8922 0.0
H113 H 0.29244 0.4662 0.88985 0.0
H114 H 0.35053 0.55754 0.82648 0.0
H115 H 0.41231 0.54862 0.82888 0.0
H116 H 0.64419 0.54762 0.79609 0.0
H117 H 0.67997 0.50717 0.7919 0.0
H118 H 0.77502 0.59148 0.84608 0.0
H119 H 0.73996 0.63279 0.8493 0.0
O120 O 0.52196 0.0498 0.26423 0.0
Cd121 Cd 0.49519 0.03701 0.21857 0.0
O122 O 0.57506 0.0378 0.26047 0.0
Cd123 Cd 0.56288 1.01523 0.21983 0.0
O124 O 0.52563 0.9603 0.19593 0.0
C125 C 0.51432 0.95858 0.17188 0.0
O126 O 0.52778 0.9933 0.15794 0.0
C127 C 0.55301 0.04856 0.27433 0.0
C128 C 0.55242 0.10075 0.18563 0.0
O129 O 0.52431 0.10511 0.19793 0.0
O130 O 0.55221 0.06602 0.18836 0.0
O131 O 0.75262 0.57478 0.6475 0.0
Cd132 Cd 0.80248 0.59066 0.61106 0.0
O133 O 0.71418 0.58733 0.61993 0.0
Cd134 Cd 0.66496 0.60152 0.6095 0.0
O135 O 0.62785 0.63225 0.60461 0.0
C136 C 0.63245 0.65912 0.62203 0.0
O137 O 0.65744 0.6652 0.6422 0.0
C138 C 0.71969 0.57678 0.6431 0.0
C139 C 0.76397 0.53015 0.57214 0.0
O140 O 0.78435 0.52522 0.59114 0.0
O141 O 0.76289 0.56447 0.57109 0.0
O142 O 0.95893 0.44741 0.93392 0.0
Cd143 Cd 0.94738 0.43648 0.88622 0.0
O144 O 0.93916 0.38254 0.94659 0.0
Cd145 Cd 0.91518 0.35966 0.9069 0.0
O146 O 0.87471 0.36656 0.87838 0.0
C147 C 0.85206 0.37867 0.89015 0.0
O148 O 0.85362 0.3811 0.91627 0.0
C149 C 0.95445 0.42116 0.95207 0.0
C150 C 1.02444 0.4574 0.86415 0.0
O151 O 0.99836 0.41956 0.87098 0.0
O152 O 1.01317 0.4851 0.86665 0.0
O153 O 0.09807 0.59672 0.4323 0.0
Cd154 Cd 0.13161 0.62848 0.47603 0.0
O155 O 0.03754 0.54189 0.44386 0.0
Cd156 Cd 0.97424 0.48301 0.44604 0.0
O157 O 0.91222 0.42931 0.46009 0.0
C158 C 0.89356 0.39337 0.44909 0.0
O159 O 0.91101 0.38703 0.4281 0.0
C160 C 0.0636 0.56448 0.4256 0.0
C161 C 0.20659 0.70786 0.47939 0.0
O162 O 0.20765 0.67443 0.47364 0.0
O163 O 0.17044 0.70444 0.48236 0.0
O164 O 0.52277 1.00436 0.76162 0.0
Cd165 Cd 0.51296 0.96796 0.80543 0.0
O166 O 0.52838 0.06475 0.77339 0.0
Cd167 Cd 0.5344 0.12878 0.77531 0.0
O168 O 0.54335 0.19107 0.78859 0.0
C169 C 0.52367 0.20833 0.77864 0.0
O170 O 0.49714 0.1891 0.75931 0.0
C171 C 0.52698 0.04 0.75503 0.0
C172 C 0.51859 0.89349 0.80893 0.0
O173 O 0.48572 0.8928 0.79994 0.0
O174 O 0.54932 0.92922 0.81531 0.0
O175 O 0.58172 0.51815 0.09475 0.0
Cd176 Cd 0.60446 0.49763 0.13666 0.0
O177 O 0.52466 0.52041 0.10573 0.0
Cd178 Cd 0.46628 0.52607 0.10772 0.0
O179 O 0.40961 0.52834 0.12294 0.0
C180 C 0.38334 0.53203 0.10824 0.0
O181 O 0.38927 0.53489 0.08232 0.0
C182 C 0.55118 0.52359 0.08794 0.0
C183 C 0.68593 0.50721 0.14268 0.0
O184 O 0.65858 0.4787 0.12775 0.0
O185 O 0.67587 0.53232 0.15379 0.0
C186 C 0.19403 0.56271 0.16645 0.0
C187 C 0.15736 0.52364 0.16883 0.0
C188 C 0.23226 0.5659 0.15822 0.0
C189 C 0.23418 0.52919 0.15212 0.0
C190 C 0.19751 0.48968 0.15512 0.0
C191 C 0.15983 0.48741 0.16339 0.0
C192 C 0.2704 0.60872 0.15538 0.0
C193 C 0.19773 0.44964 0.14883 0.0
C194 C 0.31674 0.53498 0.10307 0.0
C195 C 0.34598 0.53255 0.11987 0.0
C196 C 0.28089 0.53464 0.11332 0.0
C197 C 0.27365 0.53192 0.14119 0.0
C198 C 0.3033 0.53007 0.15833 0.0
C199 C 0.33893 0.53033 0.14752 0.0
C200 C 0.25031 0.53653 0.09417 0.0
C201 C 0.2971 0.5273 0.18814 0.0
H202 H 0.19271 0.59099 0.17026 0.0
H203 H 0.13196 0.45697 0.16513 0.0
H204 H 0.29634 0.61034 0.16744 0.0
H205 H 0.28108 0.61443 0.13432 0.0
H206 H 0.26433 0.63414 0.16172 0.0
H207 H 0.16726 0.42131 0.15337 0.0
H208 H 0.20501 0.44931 0.12741 0.0
H209 H 0.22244 0.44786 0.16038 0.0
H210 H 0.32161 0.53678 0.08171 0.0
H211 H 0.36117 0.52856 0.16077 0.0
H212 H 0.24565 0.56334 0.09906 0.0
H213 H 0.21949 0.50762 0.09612 0.0
H214 H 0.26094 0.53981 0.07313 0.0
H215 H 0.29322 0.55374 0.19518 0.0
H216 H 0.32369 0.52783 0.19886 0.0
H217 H 0.26811 0.49794 0.19349 0.0
C218 C 0.65888 0.21383 0.48802 0.0
C219 C 0.65842 0.18307 0.50509 0.0
C220 C 0.69657 0.24945 0.48015 0.0
C221 C 0.73522 0.2552 0.48974 0.0
C222 C 0.73492 0.22508 0.50772 0.0
C223 C 0.69671 0.18945 0.51508 0.0
C224 C 0.69499 0.28051 0.46105 0.0
C225 C 0.77516 0.22984 0.5186 0.0
C226 C 0.83314 0.31948 0.44696 0.0
C227 C 0.85286 0.35853 0.45972 0.0
C228 C 0.79515 0.28596 0.4565 0.0
C229 C 0.77589 0.29109 0.47956 0.0
C230 C 0.79537 0.33048 0.49249 0.0
C231 C 0.83352 0.3636 0.48249 0.0
C232 C 0.77543 0.24496 0.44172 0.0
C233 C 0.77603 0.33757 0.51702 0.0
H234 H 0.62968 0.20967 0.4802 0.0
H235 H 0.697 0.16611 0.52825 0.0
H236 H 0.70666 0.31109 0.47106 0.0
H237 H 0.7156 0.28573 0.4436 0.0
H238 H 0.66287 0.26991 0.45378 0.0
H239 H 0.76969 0.20545 0.53375 0.0
H240 H 0.79412 0.22772 0.50211 0.0
H241 H 0.79384 0.26115 0.52773 0.0
H242 H 0.84742 0.31494 0.42934 0.0
H243 H 0.84824 0.39346 0.49259 0.0
H244 H 0.74371 0.23704 0.43498 0.0
H245 H 0.77184 0.21933 0.4552 0.0
H246 H 0.79414 0.2459 0.42408 0.0
H247 H 0.74324 0.32928 0.51304 0.0
H248 H 0.79344 0.37055 0.52385 0.0
H249 H 0.77533 0.31681 0.53339 0.0
C250 C 0.55905 0.69787 0.81561 0.0
C251 C 0.53232 0.66633 0.83351 0.0
C252 C 0.55554 0.73384 0.81103 0.0
C253 C 0.52527 0.73928 0.8252 0.0
C254 C 0.49819 0.70755 0.84336 0.0
C255 C 0.50163 0.67123 0.84701 0.0
C256 C 0.5843 0.76605 0.79093 0.0
C257 C 0.4661 0.71236 0.85934 0.0
C258 C 0.5478 0.85231 0.83148 0.0
C259 C 0.52044 0.8541 0.81279 0.0
C260 C 0.54885 0.81498 0.83619 0.0
C261 C 0.52276 0.77859 0.82133 0.0
C262 C 0.49541 0.78036 0.80219 0.0
C263 C 0.49414 0.81781 0.79844 0.0
C264 C 0.5778 0.81444 0.85721 0.0
C265 C 0.46792 0.74283 0.78535 0.0
H266 H 0.58252 0.69418 0.8048 0.0
H267 H 0.48091 0.64709 0.8609 0.0
H268 H 0.56575 0.7719 0.77587 0.0
H269 H 0.60456 0.79621 0.80099 0.0
H270 H 0.60456 0.75613 0.78049 0.0
H271 H 0.44743 0.68501 0.87265 0.0
H272 H 0.48188 0.74099 0.87167 0.0
H273 H 0.44452 0.71632 0.84582 0.0
H274 H 0.56791 0.88 0.84288 0.0
H275 H 0.47296 0.81888 0.78392 0.0
H276 H 0.60138 0.80804 0.8479 0.0
H277 H 0.55986 0.78888 0.87182 0.0
H278 H 0.59438 0.84456 0.86805 0.0
H279 H 0.4875 0.73322 0.77383 0.0
H280 H 0.4486 0.74927 0.7712 0.0
H281 H 0.44685 0.71593 0.79826 0.0
C282 C 0.88271 0.47725 0.17973 0.0
C283 C 0.9209 0.51463 0.17693 0.0
C284 C 0.84437 0.47585 0.17466 0.0
C285 C 0.84407 0.51238 0.16556 0.0
C286 C 0.88269 0.55007 0.16235 0.0
C287 C 0.92043 0.55089 0.1685 0.0
C288 C 0.80415 0.43523 0.17913 0.0
C289 C 0.88426 0.5894 0.15181 0.0
C290 C 0.74633 0.4972 0.12888 0.0
C291 C 0.72697 0.50967 0.14806 0.0
C292 C 0.78471 0.49869 0.13408 0.0
C293 C 0.80353 0.51132 0.15948 0.0
C294 C 0.78366 0.52328 0.17903 0.0
C295 C 0.7462 0.52308 0.17293 0.0
C296 C 0.80532 0.4871 0.11228 0.0
C297 C 0.80156 0.53555 0.20664 0.0
H298 H 0.88278 0.44911 0.18624 0.0
H299 H 0.94982 0.57975 0.16581 0.0
H300 H 0.78281 0.44048 0.19215 0.0
H301 H 0.78807 0.42329 0.15987 0.0
H302 H 0.80945 0.41072 0.18838 0.0
H303 H 0.91677 0.61572 0.14952 0.0
H304 H 0.86866 0.58315 0.13215 0.0
H305 H 0.86706 0.59928 0.16542 0.0
H306 H 0.73177 0.4869 0.1096 0.0
H307 H 0.73121 0.53225 0.18799 0.0
H308 H 0.80737 0.4591 0.11832 0.0
H309 H 0.83772 0.51301 0.10889 0.0
H310 H 0.78803 0.48029 0.0932 0.0
H311 H 0.80527 0.50995 0.2157 0.0
H312 H 0.78153 0.54233 0.21994 0.0
H313 H 0.83303 0.56372 0.20558 0.0
C314 C 0.42195 0.91369 0.52317 0.0
C315 C 0.43244 0.9469 0.50519 0.0
C316 C 0.38578 0.87424 0.51956 0.0
C317 C 0.35983 0.86734 0.4971 0.0
C318 C 0.37095 0.90055 0.4786 0.0
C319 C 0.40663 0.93978 0.48299 0.0
C320 C 0.37492 0.8401 0.54004 0.0
C321 C 0.34505 0.89469 0.45407 0.0
C322 C 0.28466 0.75505 0.47451 0.0
C323 C 0.24582 0.74875 0.48356 0.0
C324 C 0.32188 0.79324 0.47881 0.0
C325 C 0.32066 0.82588 0.49305 0.0
C326 C 0.28159 0.81943 0.50254 0.0
C327 C 0.24477 0.78131 0.49746 0.0
C328 C 0.36249 0.79888 0.46776 0.0
C329 C 0.27864 0.85285 0.51818 0.0
H330 H 0.44155 0.91879 0.54038 0.0
H331 H 0.41456 0.96491 0.46873 0.0
H332 H 0.34377 0.8305 0.54885 0.0
H333 H 0.37296 0.81207 0.53045 0.0
H334 H 0.3982 0.8502 0.55632 0.0
H335 H 0.35892 0.92289 0.44095 0.0
H336 H 0.34182 0.86765 0.44246 0.0
H337 H 0.31316 0.8876 0.45996 0.0
H338 H 0.28594 0.73022 0.46376 0.0
H339 H 0.21511 0.77676 0.5048 0.0
H340 H 0.38521 0.80603 0.48408 0.0
H341 H 0.37636 0.82588 0.4537 0.0
H342 H 0.35834 0.77062 0.45717 0.0
H343 H 0.2997 0.86199 0.53562 0.0
H344 H 0.24636 0.84234 0.52533 0.0
H345 H 0.28906 0.88128 0.50561 0.0
C346 C 0.576 0.44318 0.81538 0.0
C347 C 0.54818 0.44312 0.83462 0.0
C348 C 0.57409 0.40568 0.80707 0.0
C349 C 0.54391 0.36687 0.81839 0.0
C350 C 0.51662 0.36671 0.83842 0.0
C351 C 0.51891 0.40465 0.84616 0.0
C352 C 0.60368 0.40741 0.78561 0.0
C353 C 0.48416 0.32623 0.85119 0.0
C354 C 0.50782 0.26761 0.7773 0.0
C355 C 0.52972 0.24925 0.78881 0.0
C356 C 0.51228 0.30567 0.78668 0.0
C357 C 0.53938 0.32637 0.80822 0.0
C358 C 0.56194 0.3083 0.81982 0.0
C359 C 0.55675 0.27 0.81007 0.0
C360 C 0.48776 0.32371 0.77353 0.0
C361 C 0.59089 0.32881 0.84295 0.0
H362 H 0.59835 0.47242 0.80599 0.0
H363 H 0.49723 0.40407 0.86102 0.0
H364 H 0.58576 0.38879 0.76821 0.0
H365 H 0.62537 0.43988 0.77874 0.0
H366 H 0.62225 0.39329 0.79312 0.0
H367 H 0.46653 0.33143 0.8673 0.0
H368 H 0.46169 0.30582 0.83593 0.0
H369 H 0.49926 0.30909 0.85964 0.0
H370 H 0.48687 0.25212 0.76087 0.0
H371 H 0.57377 0.25623 0.81926 0.0
H372 H 0.50937 0.35561 0.76569 0.0
H373 H 0.46709 0.32672 0.7884 0.0
H374 H 0.46825 0.30406 0.75688 0.0
H375 H 0.60957 0.36325 0.84005 0.0
H376 H 0.61252 0.31626 0.84597 0.0
H377 H 0.57205 0.32291 0.86139 0.0
C378 C 0.6014 0.84065 0.56738 0.0
C379 C 0.57187 0.84823 0.58003 0.0
C380 C 0.60635 0.80662 0.57492 0.0
C381 C 0.58074 0.77912 0.59537 0.0
C382 C 0.54966 0.7856 0.60749 0.0
C383 C 0.54588 0.82043 0.59986 0.0
C384 C 0.64025 0.80115 0.56173 0.0
C385 C 0.52123 0.75642 0.62897 0.0
C386 C 0.58403 0.67766 0.59832 0.0
C387 C 0.61456 0.68691 0.61779 0.0
C388 C 0.57058 0.70635 0.59196 0.0
C389 C 0.58871 0.74542 0.60504 0.0
C390 C 0.61803 0.75404 0.6256 0.0
C391 C 0.63031 0.72449 0.63189 0.0
C392 C 0.5385 0.69566 0.57038 0.0
C393 C 0.63842 0.79553 0.63984 0.0
H394 H 0.6219 0.86244 0.5523 0.0
H395 H 0.52287 0.82618 0.60952 0.0
H396 H 0.66363 0.80434 0.57678 0.0
H397 H 0.62683 0.76933 0.5532 0.0
H398 H 0.65659 0.82453 0.54559 0.0
H399 H 0.49601 0.76331 0.63442 0.0
H400 H 0.50681 0.72342 0.62234 0.0
H401 H 0.53965 0.75932 0.64706 0.0
H402 H 0.57137 0.64842 0.58757 0.0
H403 H 0.65383 0.73182 0.64701 0.0
H404 H 0.55377 0.71488 0.55235 0.0
H405 H 0.51409 0.70307 0.57687 0.0
H406 H 0.52326 0.66207 0.56485 0.0
H407 H 0.65831 0.82094 0.6256 0.0
H408 H 0.65818 0.79608 0.65667 0.0
H409 H 0.61441 0.80261 0.64761 0.0
C410 C 0.72122 0.47351 0.82162 0.0
C411 C 0.74787 0.51709 0.82007 0.0
C412 C 0.73682 0.44657 0.8277 0.0
C413 C 0.77985 0.4637 0.83308 0.0
C414 C 0.80736 0.50715 0.82935 0.0
C415 C 0.79105 0.53328 0.82263 0.0
C416 C 0.70643 0.40029 0.83069 0.0
C417 C 0.85353 0.52666 0.83479 0.0
C418 C 0.81012 0.41474 0.88885 0.0
C419 C 0.82953 0.39591 0.87504 0.0
C420 C 0.79301 0.43599 0.87528 0.0
C421 C 0.79485 0.43805 0.84712 0.0
C422 C 0.81243 0.4173 0.83292 0.0
C423 C 0.8299 0.39663 0.84709 0.0
C424 C 0.77419 0.45746 0.89117 0.0
C425 C 0.8135 0.41769 0.80288 0.0
H426 H 0.68775 0.46041 0.81981 0.0
H427 H 0.812 0.56672 0.82066 0.0
H428 H 0.72138 0.38104 0.82671 0.0
H429 H 0.69394 0.39365 0.85135 0.0
H430 H 0.67967 0.3904 0.81695 0.0
H431 H 0.87132 0.55961 0.82758 0.0
H432 H 0.85842 0.52626 0.85657 0.0
H433 H 0.86652 0.50841 0.82522 0.0
H434 H 0.80946 0.41414 0.91043 0.0
H435 H 0.84459 0.38186 0.83629 0.0
H436 H 0.74123 0.44543 0.88526 0.0
H437 H 0.79141 0.49163 0.88692 0.0
H438 H 0.77503 0.45261 0.91297 0.0
H439 H 0.78173 0.40694 0.79493 0.0
H440 H 0.82534 0.3974 0.79482 0.0
H441 H 0.83386 0.45013 0.79545 0.0
C442 C 0.29179 0.7515 0.15572 0.0
C443 C 0.27052 0.76035 0.17558 0.0
C444 C 0.33304 0.78093 0.14868 0.0
C445 C 0.35343 0.81951 0.16228 0.0
C446 C 0.33169 0.82877 0.18202 0.0
C447 C 0.29038 0.79914 0.18829 0.0
C448 C 0.355 0.7704 0.1272 0.0
C449 C 0.35249 0.86943 0.19723 0.0
C450 C 0.46789 0.88184 0.1767 0.0
C451 C 0.47863 0.91899 0.16271 0.0
C452 C 0.42799 0.84693 0.17453 0.0
C453 C 0.39841 0.84933 0.15779 0.0
C454 C 0.41089 0.88466 0.14096 0.0
C455 C 0.45109 0.91934 0.14364 0.0
C456 C 0.41612 0.80969 0.19265 0.0
C457 C 0.3805 0.8878 0.12232 0.0
H458 H 0.27612 0.72156 0.1457 0.0
H459 H 0.27394 0.80576 0.20377 0.0
H460 H 0.37049 0.79673 0.11275 0.0
H461 H 0.37971 0.76549 0.13621 0.0
H462 H 0.33318 0.74159 0.11628 0.0
H463 H 0.33081 0.87207 0.21148 0.0
H464 H 0.37944 0.87183 0.20853 0.0
H465 H 0.36472 0.89643 0.18321 0.0
H466 H 0.48952 0.88117 0.19103 0.0
H467 H 0.45943 0.94781 0.13251 0.0
H468 H 0.39697 0.7799 0.18196 0.0
H469 H 0.39706 0.81065 0.2095 0.0
H470 H 0.44402 0.80963 0.20093 0.0
H471 H 0.36002 0.8573 0.11268 0.0
H472 H 0.39692 0.91202 0.10663 0.0
H473 H 0.36021 0.89652 0.13381 0.0
C474 C 0.57893 0.33004 0.51353 0.0
C475 C 0.58746 0.30958 0.49303 0.0
C476 C 0.60946 0.36955 0.52227 0.0
C477 C 0.64927 0.38947 0.50983 0.0
C478 C 0.65685 0.37073 0.48754 0.0
C479 C 0.62583 0.33083 0.47944 0.0
C480 C 0.60006 0.38844 0.54613 0.0
C481 C 0.69865 0.39137 0.47346 0.0
C482 C 0.71787 0.50145 0.53227 0.0
C483 C 0.73967 0.49582 0.55331 0.0
C484 C 0.69026 0.46749 0.51659 0.0
C485 C 0.68395 0.42702 0.5224 0.0
C486 C 0.70773 0.42166 0.54257 0.0
C487 C 0.73545 0.45618 0.55769 0.0
C488 C 0.66627 0.47454 0.49476 0.0
C489 C 0.70184 0.37897 0.54947 0.0
H490 H 0.54895 0.31417 0.52368 0.0
H491 H 0.63265 0.31532 0.46353 0.0
H492 H 0.61933 0.38892 0.56322 0.0
H493 H 0.60828 0.4213 0.54184 0.0
H494 H 0.56664 0.37057 0.55217 0.0
H495 H 0.69702 0.3769 0.45382 0.0
H496 H 0.71031 0.42534 0.47047 0.0
H497 H 0.72178 0.38814 0.48588 0.0
H498 H 0.72133 0.53211 0.52858 0.0
H499 H 0.75233 0.45159 0.5738 0.0
H500 H 0.63329 0.46176 0.50112 0.0
H501 H 0.6662 0.45781 0.47642 0.0
H502 H 0.6795 0.50834 0.48994 0.0
H503 H 0.67089 0.35976 0.55917 0.0
H504 H 0.7263 0.38089 0.56322 0.0
H505 H 0.70231 0.36234 0.53125 0.0
C506 C 0.25624 0.51542 0.87827 0.0
C507 C 0.27776 0.51473 0.85541 0.0
C508 C 0.21621 0.51068 0.87651 0.0
C509 C 0.19734 0.50529 0.85124 0.0
C510 C 0.22001 0.50741 0.82793 0.0
C511 C 0.26004 0.51204 0.8303 0.0
C512 C 0.19318 0.50894 0.90185 0.0
C513 C 0.20109 0.50227 0.80065 0.0
C514 C 0.07979 0.43879 0.85502 0.0
C515 C 0.06761 0.46935 0.85615 0.0
C516 C 0.12187 0.45008 0.85187 0.0
C517 C 0.15247 0.49297 0.84973 0.0
C518 C 0.14012 0.52381 0.84902 0.0
C519 C 0.09774 0.51162 0.85229 0.0
C520 C 0.13378 0.41621 0.85255 0.0
C521 C 0.17183 0.56979 0.84643 0.0
H522 H 0.27022 0.51829 0.89767 0.0
H523 H 0.2765 0.5113 0.81257 0.0
H524 H 0.18058 0.53075 0.9005 0.0
H525 H 0.16625 0.47689 0.9047 0.0
H526 H 0.21347 0.51704 0.91966 0.0
H527 H 0.22478 0.51102 0.78454 0.0
H528 H 0.17665 0.46911 0.7979 0.0
H529 H 0.18583 0.52167 0.79855 0.0
H530 H 0.05667 0.40604 0.85776 0.0
H531 H 0.08853 0.53542 0.85299 0.0
H532 H 0.15138 0.41899 0.87104 0.0
H533 H 0.15452 0.41989 0.83548 0.0
H534 H 0.10607 0.38428 0.85197 0.0
H535 H 0.1895 0.58085 0.86528 0.0
H536 H 0.1569 0.58906 0.84216 0.0
H537 H 0.19472 0.57511 0.83037 0.0
C538 C 0.77028 0.29238 0.13353 0.0
C539 C 0.79335 0.2993 0.15695 0.0
C540 C 0.72724 0.26361 0.13318 0.0
C541 C 0.70739 0.24088 0.15668 0.0
C542 C 0.7304 0.24893 0.18056 0.0
C543 C 0.77304 0.27814 0.18039 0.0
C544 C 0.7035 0.25648 0.10753 0.0
C545 C 0.7105 0.22519 0.20606 0.0
C546 C 0.59278 0.17667 0.17305 0.0
C547 C 0.58731 0.13615 0.17147 0.0
C548 C 0.63078 0.21165 0.16539 0.0
C549 C 0.66383 0.20567 0.15627 0.0
C550 C 0.65676 0.16467 0.15191 0.0
C551 C 0.61844 0.13035 0.15945 0.0
C552 C 0.63683 0.25495 0.16953 0.0
C553 C 0.69111 0.15691 0.14208 0.0
H554 H 0.78597 0.30914 0.11545 0.0
H555 H 0.79093 0.28313 0.19845 0.0
H556 H 0.69755 0.22643 0.0987 0.0
H557 H 0.67273 0.25419 0.11124 0.0
H558 H 0.72116 0.28192 0.09276 0.0
H559 H 0.73243 0.23657 0.22311 0.0
H560 H 0.6828 0.22815 0.21123 0.0
H561 H 0.69964 0.19139 0.2033 0.0
H562 H 0.56855 0.18134 0.18192 0.0
H563 H 0.6141 0.09904 0.15768 0.0
H564 H 0.65571 0.27645 0.15314 0.0
H565 H 0.65394 0.26786 0.18838 0.0
H566 H 0.60648 0.25445 0.17085 0.0
H567 H 0.70771 0.17749 0.12482 0.0
H568 H 0.67897 0.1238 0.13616 0.0
H569 H 0.71431 0.16436 0.15815 0.0
C570 C 0.9976 0.52521 0.09531 0.0
C571 C 1.02696 0.51948 0.10956 0.0
C572 C 0.98421 0.50711 0.07017 0.0
C573 C 1.00164 0.48389 0.05888 0.0
C574 C 0.03149 0.47823 0.07327 0.0
C575 C 0.04339 0.49568 0.09866 0.0
C576 C 0.95155 0.51293 0.05568 0.0
C577 C 0.05151 0.45455 0.06164 0.0
C578 C 0.94651 0.41038 1.00143 0.0
C579 C 0.96725 0.43616 0.97947 0.0
C580 C 0.95712 0.42558 0.0275 0.0
C581 C 0.98997 0.46704 0.03154 0.0
C582 C 1.01171 0.49274 0.00941 0.0
C583 C 0.99968 0.47716 0.98363 0.0
C584 C 0.93267 0.39766 0.05065 0.0
C585 C 0.04765 0.53672 0.01295 0.0
H586 H 0.9846 0.54325 0.10401 0.0
H587 H 0.06618 0.49138 0.10981 0.0
H588 H 0.96512 0.53132 0.03713 0.0
H589 H 0.92518 0.48204 0.04984 0.0
H590 H 0.93912 0.52939 0.06799 0.0
H591 H 0.07409 0.45288 0.07551 0.0
H592 H 1.02722 0.4222 0.05659 0.0
H593 H 0.06817 0.47 0.04288 0.0
H594 H 0.92119 0.37878 0.9982 0.0
H595 H 1.01598 0.49701 0.96664 0.0
H596 H 0.91782 0.41257 0.06216 0.0
H597 H 0.95391 0.39356 0.0644 0.0
H598 H 0.90795 0.36626 0.04412 0.0
H599 H 0.03652 0.55626 0.02294 0.0
H600 H 0.06249 0.5519 0.99368 0.0
H601 H 0.07175 0.53623 0.02592 0.0
C602 C 0.60614 0.08423 0.43031 0.0
C603 C 0.56911 0.05842 0.44424 0.0
C604 C 0.6062 0.0875 0.40246 0.0
C605 C 0.56862 0.06306 0.38837 0.0
C606 C 0.5311 0.03706 0.40251 0.0
C607 C 0.53168 0.03569 0.43038 0.0
C608 C 0.64645 0.11673 0.38812 0.0
C609 C 0.49062 1.00963 0.38821 0.0
C610 C 0.55276 0.08417 0.3165 0.0
C611 C 0.5611 0.05578 0.30307 0.0
C612 C 0.55724 0.08856 0.34424 0.0
C613 C 0.56872 0.06273 0.35882 0.0
C614 C 0.57779 0.03449 0.34524 0.0
C615 C 0.57455 0.03189 0.31745 0.0
C616 C 0.5488 0.12008 0.35799 0.0
C617 C 0.58892 1.00554 0.36014 0.0
H618 H 0.63492 0.10223 0.44124 0.0
H619 H 0.50309 1.01571 0.44131 0.0
H620 H 0.65687 0.09835 0.37607 0.0
H621 H 0.64147 0.1374 0.37419 0.0
H622 H 0.67182 0.13657 0.40211 0.0
H623 H 0.4643 0.99113 0.40221 0.0
H624 H 0.48226 0.02907 0.37544 0.0
H625 H 0.49442 0.98764 0.37498 0.0
H626 H 0.54261 0.10283 0.30531 0.0
H627 H 0.58059 1.00961 0.30708 0.0
H628 H 0.57476 0.13965 0.37165 0.0
H629 H 0.51995 0.10353 0.37023 0.0
H630 H 0.54488 0.14094 0.34359 0.0
H631 H 0.61657 0.02386 0.37285 0.0
H632 H 0.59575 0.98591 0.34654 0.0
H633 H 0.56266 0.98455 0.37349 0.0
C634 C 0.57607 0.58097 0.76076 0.0
C635 C 0.55195 0.54186 0.77305 0.0
C636 C 0.60207 0.58581 0.73898 0.0
C637 C 0.60494 0.5509 0.72984 0.0
C638 C 0.58074 0.51129 0.74238 0.0
C639 C 0.55395 0.50711 0.7636 0.0
C640 C 0.62693 0.62841 0.72597 0.0
C641 C 0.58396 0.47363 0.73391 0.0
C642 C 0.6475 0.55488 0.66012 0.0
C643 C 0.68987 0.56925 0.66513 0.0
C644 C 0.61955 0.54913 0.68093 0.0
C645 C 0.63397 0.55626 0.70752 0.0
C646 C 0.67642 0.56934 0.71272 0.0
C647 C 0.70383 0.57576 0.6915 0.0
C648 C 0.5747 0.53577 0.67445 0.0
C649 C 0.69277 0.57559 0.74073 0.0
H650 H 0.57453 0.60783 0.76821 0.0
H651 H 0.5357 0.47699 0.77343 0.0
H652 H 0.66082 0.64006 0.72852 0.0
H653 H 0.62073 0.62613 0.70425 0.0
H654 H 0.61941 0.65175 0.7345 0.0
H655 H 0.56242 0.44494 0.74538 0.0
H656 H 0.57683 0.46759 0.71242 0.0
H657 H 0.61639 0.4799 0.73678 0.0
H658 H 0.63585 0.54731 0.64001 0.0
H659 H 0.73638 0.58615 0.69559 0.0
H660 H 0.56654 0.55897 0.68238 0.0
H661 H 0.55355 0.50525 0.68419 0.0
H662 H 0.56875 0.53274 0.65268 0.0
H663 H 0.6838 0.5958 0.75205 0.0
H664 H 0.72727 0.58967 0.74139 0.0
H665 H 0.67843 0.54463 0.75079 0.0
C666 C 0.56159 0.09158 0.5977 0.0
C667 C 0.52351 0.08082 0.58537 0.0
C668 C 0.56408 0.08841 0.6255 0.0
C669 C 0.52759 0.0741 0.64138 0.0
C670 C 0.48924 0.06411 0.62902 0.0
C671 C 0.4877 0.06765 0.60119 0.0
C672 C 0.60556 0.09932 0.63778 0.0
C673 C 0.44956 0.0485 0.64513 0.0
C674 C 0.5216 0.01941 0.70713 0.0
C675 C 0.52857 0.05031 0.72603 0.0
C676 C 0.52159 0.02696 0.6797 0.0
C677 C 0.52878 0.0665 0.67059 0.0
C678 C 0.5364 0.09813 0.68939 0.0
C679 C 0.53623 0.08968 0.71686 0.0
C680 C 0.51336 0.99227 0.66044 0.0
C681 C 0.54453 0.14084 0.68047 0.0
H682 H 0.58944 0.10206 0.58557 0.0
H683 H 0.45822 0.0594 0.59174 0.0
H684 H 0.61287 0.12197 0.65418 0.0
H685 H 0.60392 0.07074 0.64653 0.0
H686 H 0.63153 0.11298 0.62301 0.0
H687 H 0.42285 0.04438 0.63276 0.0
H688 H 0.44132 1.01796 0.65457 0.0
H689 H 0.45423 0.0707 0.66138 0.0
H690 H 0.51565 0.9888 0.71374 0.0
H691 H 0.54216 0.11399 0.73099 0.0
H692 H 0.53978 1.00285 0.64616 0.0
H693 H 0.48498 0.98426 0.64866 0.0
H694 H 0.50891 0.96345 0.67069 0.0
H695 H 0.57191 0.15529 0.66682 0.0
H696 H 0.55047 0.16224 0.69748 0.0
H697 H 0.51733 0.1378 0.66919 0.0
C698 C 0.52572 0.52432 0.92906 0.0
C699 C 0.54818 0.56511 0.91862 0.0
C700 C 0.52098 0.51711 0.95679 0.0
C701 C 0.5389 0.55151 0.97449 0.0
C702 C 0.55943 0.5928 0.96389 0.0
C703 C 0.56392 0.59906 0.93615 0.0
C704 C 0.4989 0.47259 0.96713 0.0
C705 C 0.57875 0.63044 0.98188 0.0
C706 C 0.51311 0.53458 0.04917 0.0
C707 C 0.54738 0.53206 0.05917 0.0
C708 C 0.50968 0.54086 0.02169 0.0
C709 C 0.54113 0.54449 1.00373 0.0
C710 C 0.57576 0.54211 0.01374 0.0
C711 C 0.57848 0.5361 0.04113 0.0
C712 C 0.47237 0.54345 0.01185 0.0
C713 C 0.61012 0.54579 0.99547 0.0
H714 H 0.5133 0.49794 0.9156 0.0
H715 H 0.58098 0.6307 0.9282 0.0
H716 H 0.52202 0.46538 0.97629 0.0
H717 H 0.47593 0.46852 0.98283 0.0
H718 H 0.48244 0.44961 0.95108 0.0
H719 H 0.58899 0.6602 0.97072 0.0
H720 H 0.55626 0.62753 0.99762 0.0
H721 H 0.60633 0.63218 0.99195 0.0
H722 H 0.48874 0.5313 0.06264 0.0
H723 H 0.60523 0.53428 0.04835 0.0
H724 H 0.45486 0.51828 0.99723 0.0
H725 H 0.48287 0.57377 1.0014 0.0
H726 H 0.45081 0.54048 0.0283 0.0
H727 H 0.59685 0.5212 0.98002 0.0
H728 H 0.6347 0.54269 1.00633 0.0
H729 H 0.62499 0.57657 0.98505 0.0
C730 C 0.05031 0.48682 0.2754 0.0
C731 C 0.03729 0.50702 0.25716 0.0
C732 C 0.05212 0.49497 0.30285 0.0
C733 C 0.04051 0.524 0.31243 0.0
C734 C 1.02699 0.54428 0.29407 0.0
C735 C 1.02567 0.53565 0.26666 0.0
C736 C 0.06708 0.47291 0.32157 0.0
C737 C 1.01434 0.57542 0.30337 0.0
C738 C 1.01793 0.52169 0.38714 0.0
C739 C 0.05606 0.55403 0.39664 0.0
C740 C 1.01206 0.51191 0.35977 0.0
C741 C 0.04509 0.53496 0.34139 0.0
C742 C 0.08338 0.56793 0.35082 0.0
C743 C 0.08834 0.57702 0.37813 0.0
C744 C 0.97064 0.47664 0.35054 0.0
C745 C 0.11956 0.59329 0.33208 0.0
H746 H 0.0593 0.46464 0.2682 0.0
H747 H 1.01543 0.55125 0.25267 0.0
H748 H 0.09608 0.49626 0.33158 0.0
H749 H 0.04335 0.45603 0.33735 0.0
H750 H 0.07355 0.45013 0.31112 0.0
H751 H 1.00265 0.58696 0.28683 0.0
H752 H 0.98961 0.56092 0.31887 0.0
H753 H 0.04146 0.60265 0.31257 0.0
H754 H 0.99259 0.50397 0.40095 0.0
H755 H 0.11805 0.60213 0.38499 0.0
H756 H 0.9752 0.45185 0.34126 0.0
H757 H 0.95732 0.48829 0.33509 0.0
H758 H 0.9477 0.46244 0.36712 0.0
H759 H 0.12937 0.5725 0.3223 0.0
H760 H 0.14695 0.6186 0.34244 0.0
H761 H 0.10985 0.60762 0.31612 0.0
loop_
_geom_bond_atom_site_label_1
_geom_bond_atom_site_label_2
_geom_bond_distance
_geom_bond_site_symmetry_2
_ccdc_geom_bond_type
Tb0 C2 2.809 . S
Tb0 O20 2.484 . S
Tb0 O21 2.440 . S
Tb0 O22 2.660 . S
Tb0 O23 2.409 . S
Tb0 O24 2.378 . S
Tb0 O28 2.325 . S
Tb0 O31 2.341 1_455 S
Tb1 C11 2.809 . S
Tb1 O22 2.328 1_655 S
Tb1 O25 2.341 1_655 S
Tb1 O26 2.484 . S
Tb1 O27 2.440 . S
Tb1 O28 2.658 1_655 S
Tb1 O29 2.409 . S
Tb1 O30 2.378 . S
C2 Tb0 2.809 . S
C2 C3 1.514 . S
C2 O20 1.248 . S
C2 O21 1.266 . S
C3 C2 1.514 . S
C3 C4 1.359 . S
C3 C8 1.348 . S
C4 C3 1.359 . S
C4 C5 1.380 . S
C4 H32 0.929 . S
C5 C4 1.380 . S
C5 C6 1.347 . S
C5 H33 0.931 . S
C6 C5 1.347 . S
C6 C7 1.369 . S
C7 C6 1.369 . S
C7 C8 1.408 . S
C7 H34 0.930 . S
C8 C3 1.348 . S
C8 C7 1.408 . S
C8 H35 0.930 . S
C9 O22 1.284 . S
C9 O23 1.254 . S
C10 O24 1.236 . S
C10 O25 1.266 . S
C11 Tb1 2.809 . S
C11 C12 1.514 . S
C11 O26 1.248 . S
C11 O27 1.266 . S
C12 C11 1.514 . S
C12 C13 1.359 . S
C12 C17 1.348 . S
C13 C12 1.359 . S
C13 C14 1.380 . S
C13 H36 0.929 . S
C14 C13 1.380 . S
C14 C15 1.347 . S
C14 H37 0.931 . S
C15 C14 1.347 . S
C15 C16 1.369 . S
C16 C15 1.369 . S
C16 C17 1.408 . S
C16 H38 0.930 . S
C17 C12 1.348 . S
C17 C16 1.408 . S
C17 H39 0.930 . S
C18 O28 1.281 . S
C18 O29 1.254 1_455 S
C19 O30 1.236 . S
C19 O31 1.266 . S
O20 Tb0 2.484 . S
O20 C2 1.248 . S
O21 Tb0 2.440 . S
O21 C2 1.266 . S
O22 Tb0 2.660 . S
O22 Tb1 2.328 1_455 S
O22 C9 1.284 . S
O23 Tb0 2.409 . S
O23 C9 1.254 . S
O24 Tb0 2.378 . S
O24 C10 1.236 . S
O25 Tb1 2.341 1_455 S
O25 C10 1.266 . S
O26 Tb1 2.484 . S
O26 C11 1.248 . S
O27 Tb1 2.440 . S
O27 C11 1.266 . S
O28 Tb0 2.325 . S
O28 Tb1 2.658 1_455 S
O28 C18 1.281 . S
O29 Tb1 2.409 . S
O29 C18 1.254 1_655 S
O30 Tb1 2.378 . S
O30 C19 1.236 . S
O31 Tb0 2.341 1_655 S
O31 C19 1.266 . S
H32 C4 0.929 . S
H33 C5 0.931 . S
H34 C7 0.930 . S
H35 C8 0.930 . S
H36 C13 0.929 . S
H37 C14 0.931 . S
H38 C16 0.930 . S
H39 C17 0.930 . S
Tb40 C42 2.809 . S
Tb40 O60 2.484 . S
Tb40 O61 2.440 . S
Tb40 O62 2.658 1_565 S
Tb40 O63 2.408 1_565 S
Tb40 O64 2.378 . S
Tb40 O68 2.325 1_565 S
Tb40 O71 2.341 1_565 S
Tb41 C51 2.809 . S
Tb41 O62 2.325 . S
Tb41 O65 2.341 1_545 S
Tb41 O66 2.484 . S
Tb41 O67 2.440 . S
Tb41 O68 2.658 . S
Tb41 O69 2.409 . S
Tb41 O70 2.378 . S
C42 Tb40 2.809 . S
C42 C43 1.514 . S
C42 O60 1.248 . S
C42 O61 1.266 . S
C43 C42 1.514 . S
C43 C44 1.359 . S
C43 C48 1.348 . S
C44 C43 1.359 . S
C44 C45 1.380 . S
C44 H72 0.929 . S
C45 C44 1.380 . S
C45 C46 1.347 . S
C45 H73 0.931 . S
C46 C45 1.347 . S
C46 C47 1.369 . S
C47 C46 1.369 . S
C47 C48 1.408 . S
C47 H74 0.930 . S
C48 C43 1.348 . S
C48 C47 1.408 . S
C48 H75 0.930 . S
C49 O62 1.281 . S
C49 O63 1.257 . S
C50 O64 1.236 . S
C50 O65 1.266 . S
C51 Tb41 2.809 . S
C51 C52 1.514 . S
C51 O66 1.248 . S
C51 O67 1.266 . S
C52 C51 1.514 . S
C52 C53 1.359 . S
C52 C57 1.348 . S
C53 C52 1.359 . S
C53 C54 1.380 . S
C53 H76 0.929 . S
C54 C53 1.380 . S
C54 C55 1.347 . S
C54 H77 0.931 . S
C55 C54 1.347 . S
C55 C56 1.369 . S
C56 C55 1.369 . S
C56 C57 1.408 . S
C56 H78 0.930 . S
C57 C52 1.348 . S
C57 C56 1.408 . S
C57 H79 0.930 . S
C58 O68 1.281 . S
C58 O69 1.254 . S
C59 O70 1.236 . S
C59 O71 1.266 . S
O60 Tb40 2.484 . S
O60 C42 1.248 . S
O61 Tb40 2.440 . S
O61 C42 1.266 . S
O62 Tb40 2.658 1_545 S
O62 Tb41 2.325 . S
O62 C49 1.281 . S
O63 Tb40 2.408 1_545 S
O63 C49 1.257 . S
O64 Tb40 2.378 . S
O64 C50 1.236 . S
O65 Tb41 2.341 1_565 S
O65 C50 1.266 . S
O66 Tb41 2.484 . S
O66 C51 1.248 . S
O67 Tb41 2.440 . S
O67 C51 1.266 . S
O68 Tb40 2.325 1_545 S
O68 Tb41 2.658 . S
O68 C58 1.281 . S
O69 Tb41 2.409 . S
O69 C58 1.254 . S
O70 Tb41 2.378 . S
O70 C59 1.236 . S
O71 Tb40 2.341 1_545 S
O71 C59 1.266 . S
H72 C44 0.929 . S
H73 C45 0.931 . S
H74 C47 0.930 . S
H75 C48 0.930 . S
H76 C53 0.929 . S
H77 C54 0.931 . S
H78 C56 0.930 . S
H79 C57 0.930 . S
Tb80 C82 2.809 . S
Tb80 O100 2.484 . S
Tb80 O101 2.440 . S
Tb80 O102 2.658 . S
Tb80 O103 2.409 . S
Tb80 O104 2.378 . S
Tb80 O108 2.325 . S
Tb80 O111 2.341 . S
Tb81 C91 2.809 . S
Tb81 O102 2.325 . S
Tb81 O105 2.341 . S
Tb81 O106 2.484 . S
Tb81 O107 2.440 . S
Tb81 O108 2.658 . S
Tb81 O109 2.409 . S
Tb81 O110 2.378 . S
C82 Tb80 2.809 . S
C82 C83 1.514 . S
C82 O100 1.248 . S
C82 O101 1.266 . S
C83 C82 1.514 . S
C83 C84 1.359 . S
C83 C88 1.348 . S
C84 C83 1.359 . S
C84 C85 1.380 . S
C84 H112 0.929 . S
C85 C84 1.380 . S
C85 C86 1.347 . S
C85 H113 0.931 . S
C86 C85 1.347 . S
C86 C87 1.369 . S
C87 C86 1.369 . S
C87 C88 1.408 . S
C87 H114 0.930 . S
C88 C83 1.348 . S
C88 C87 1.408 . S
C88 H115 0.930 . S
C89 O102 1.281 . S
C89 O103 1.254 . S
C90 O104 1.236 . S
C90 O105 1.266 . S
C91 Tb81 2.809 . S
C91 C92 1.514 . S
C91 O106 1.248 . S
C91 O107 1.266 . S
C92 C91 1.514 . S
C92 C93 1.359 . S
C92 C97 1.348 . S
C93 C92 1.359 . S
C93 C94 1.380 . S
C93 H116 0.929 . S
C94 C93 1.380 . S
C94 C95 1.347 . S
C94 H117 0.931 . S
C95 C94 1.347 . S
C95 C96 1.369 . S
C96 C95 1.369 . S
C96 C97 1.408 . S
C96 H118 0.930 . S
C97 C92 1.348 . S
C97 C96 1.408 . S
C97 H119 0.930 . S
C98 O108 1.281 . S
C98 O109 1.254 . S
C99 O110 1.236 . S
C99 O111 1.266 . S
O100 Tb80 2.484 . S
O100 C82 1.248 . S
O101 Tb80 2.440 . S
O101 C82 1.266 . S
O102 Tb80 2.658 . S
O102 Tb81 2.325 . S
O102 C89 1.281 . S
O103 Tb80 2.409 . S
O103 C89 1.254 . S
O104 Tb80 2.378 . S
O104 C90 1.236 . S
O105 Tb81 2.341 . S
O105 C90 1.266 . S
O106 Tb81 2.484 . S
O106 C91 1.248 . S
O107 Tb81 2.440 . S
O107 C91 1.266 . S
O108 Tb80 2.325 . S
O108 Tb81 2.658 . S
O108 C98 1.281 . S
O109 Tb81 2.409 . S
O109 C98 1.254 . S
O110 Tb81 2.378 . S
O110 C99 1.236 . S
O111 Tb80 2.341 . S
O111 C99 1.266 . S
H112 C84 0.929 . S
H113 C85 0.931 . S
H114 C87 0.930 . S
H115 C88 0.930 . S
H116 C93 0.929 . S
H117 C94 0.931 . S
H118 C96 0.930 . S
H119 C97 0.930 . S
O120 Cd121 2.300 . S
O120 C127 1.275 . S
Cd121 O120 2.300 . S
Cd121 O129 2.381 . S
Cd121 O130 2.378 . S
O122 Cd123 2.385 1_545 S
O122 C127 1.255 . S
Cd123 O122 2.385 1_565 S
Cd123 O124 2.317 . S
O124 Cd123 2.317 . S
O124 C125 1.232 . S
C125 O124 1.232 . S
C125 O126 1.218 . S
O126 C125 1.218 . S
C127 O120 1.275 . S
C127 O122 1.255 . S
C128 O129 1.258 . S
C128 O130 1.256 . S
O129 Cd121 2.381 . S
O129 C128 1.258 . S
O130 Cd121 2.378 . S
O130 C128 1.256 . S
O131 Cd132 2.300 . S
O131 C138 1.275 . S
Cd132 O131 2.300 . S
Cd132 O140 2.381 . S
Cd132 O141 2.378 . S
O133 Cd134 2.385 . S
O133 C138 1.255 . S
Cd134 O133 2.385 . S
Cd134 O135 2.317 . S
O135 Cd134 2.317 . S
O135 C136 1.232 . S
C136 O135 1.232 . S
C136 O137 1.218 . S
O137 C136 1.218 . S
C138 O131 1.275 . S
C138 O133 1.255 . S
C139 O140 1.258 . S
C139 O141 1.256 . S
O140 Cd132 2.381 . S
O140 C139 1.258 . S
O141 Cd132 2.378 . S
O141 C139 1.256 . S
O142 Cd143 2.300 . S
O142 C149 1.275 1_455 S
Cd143 O142 2.300 . S
Cd143 O151 2.381 . S
Cd143 O152 2.378 . S
O144 Cd145 2.385 . S
O144 C149 1.255 . S
Cd145 O144 2.385 . S
Cd145 O146 2.317 . S
O146 Cd145 2.317 . S
O146 C147 1.232 . S
C147 O146 1.232 . S
C147 O148 1.218 . S
O148 C147 1.218 . S
C149 O142 1.275 1_655 S
C149 O144 1.255 . S
C150 O151 1.258 . S
C150 O152 1.256 . S
O151 Cd143 2.381 . S
O151 C150 1.258 . S
O152 Cd143 2.378 . S
O152 C150 1.256 . S
O153 Cd154 2.300 . S
O153 C160 1.275 . S
Cd154 O153 2.300 . S
Cd154 O162 2.381 . S
Cd154 O163 2.378 . S
O155 Cd156 2.385 . S
O155 C160 1.255 1_655 S
Cd156 O155 2.385 . S
Cd156 O157 2.317 . S
O157 Cd156 2.317 . S
O157 C158 1.232 . S
C158 O157 1.232 . S
C158 O159 1.218 . S
O159 C158 1.218 . S
C160 O153 1.275 . S
C160 O155 1.255 1_455 S
C161 O162 1.258 . S
C161 O163 1.256 . S
O162 Cd154 2.381 . S
O162 C161 1.258 . S
O163 Cd154 2.378 . S
O163 C161 1.256 . S
O164 Cd165 2.300 . S
O164 C171 1.275 1_565 S
Cd165 O164 2.300 . S
Cd165 O173 2.381 . S
Cd165 O174 2.378 . S
O166 Cd167 2.385 . S
O166 C171 1.255 . S
Cd167 O166 2.385 . S
Cd167 O168 2.317 . S
O168 Cd167 2.317 . S
O168 C169 1.232 . S
C169 O168 1.232 . S
C169 O170 1.218 . S
O170 C169 1.218 . S
C171 O164 1.275 1_545 S
C171 O166 1.255 . S
C172 O173 1.258 . S
C172 O174 1.256 . S
O173 Cd165 2.381 . S
O173 C172 1.258 . S
O174 Cd165 2.378 . S
O174 C172 1.256 . S
O175 Cd176 2.300 . S
O175 C182 1.275 . S
Cd176 O175 2.300 . S
Cd176 O184 2.381 . S
Cd176 O185 2.378 . S
O177 Cd178 2.385 . S
O177 C182 1.255 . S
Cd178 O177 2.385 . S
Cd178 O179 2.317 . S
O179 Cd178 2.317 . S
O179 C180 1.232 . S
C180 O179 1.232 . S
C180 O181 1.218 . S
O181 C180 1.218 . S
C182 O175 1.275 . S
C182 O177 1.255 . S
C183 O184 1.258 . S
C183 O185 1.256 . S
O184 Cd176 2.381 . S
O184 C183 1.258 . S
O185 Cd176 2.378 . S
O185 C183 1.256 . S
C186 C187 1.391 . S
C186 C188 1.394 . S
C186 H202 0.931 . S
C187 C186 1.391 . S
C187 C191 1.376 . S
C188 C186 1.394 . S
C188 C189 1.369 . S
C188 C192 1.531 . S
C189 C188 1.369 . S
C189 C190 1.410 . S
C189 C197 1.503 . S
C190 C189 1.410 . S
C190 C191 1.392 . S
C190 C193 1.511 . S
C191 C187 1.376 . S
C191 C190 1.392 . S
C191 H203 0.929 . S
C192 C188 1.531 . S
C192 H204 0.960 . S
C192 H205 0.962 . S
C192 H206 0.960 . S
C193 C190 1.511 . S
C193 H207 0.961 . S
C193 H208 0.961 . S
C193 H209 0.961 . S
C194 C195 1.370 . S
C194 C196 1.363 . S
C194 H210 0.931 . S
C195 C194 1.370 . S
C195 C199 1.408 . S
C196 C194 1.363 . S
C196 C197 1.370 . S
C196 C200 1.524 . S
C197 C189 1.503 . S
C197 C196 1.370 . S
C197 C198 1.403 . S
C198 C197 1.403 . S
C198 C199 1.404 . S
C198 C201 1.539 . S
C199 C195 1.408 . S
C199 C198 1.404 . S
C199 H211 0.930 . S
C200 C196 1.524 . S
C200 H212 0.956 . S
C200 H213 0.961 . S
C200 H214 0.961 . S
C201 C198 1.539 . S
C201 H215 0.958 . S
C201 H216 0.961 . S
C201 H217 0.960 . S
H202 C186 0.931 . S
H203 C191 0.929 . S
H204 C192 0.960 . S
H205 C192 0.962 . S
H206 C192 0.960 . S
H207 C193 0.961 . S
H208 C193 0.961 . S
H209 C193 0.961 . S
H210 C194 0.931 . S
H211 C199 0.930 . S
H212 C200 0.956 . S
H213 C200 0.961 . S
H214 C200 0.961 . S
H215 C201 0.958 . S
H216 C201 0.961 . S
H217 C201 0.960 . S
C218 C219 1.391 . S
C218 C220 1.394 . S
C218 H234 0.931 . S
C219 C218 1.391 . S
C219 C223 1.376 . S
C220 C218 1.394 . S
C220 C221 1.369 . S
C220 C224 1.531 . S
C221 C220 1.369 . S
C221 C222 1.410 . S
C221 C229 1.503 . S
C222 C221 1.410 . S
C222 C223 1.392 . S
C222 C225 1.511 . S
C223 C219 1.376 . S
C223 C222 1.392 . S
C223 H235 0.929 . S
C224 C220 1.531 . S
C224 H236 0.960 . S
C224 H237 0.962 . S
C224 H238 0.960 . S
C225 C222 1.511 . S
C225 H239 0.961 . S
C225 H240 0.961 . S
C225 H241 0.961 . S
C226 C227 1.370 . S
C226 C228 1.363 . S
C226 H242 0.931 . S
C227 C226 1.370 . S
C227 C231 1.408 . S
C228 C226 1.363 . S
C228 C229 1.370 . S
C228 C232 1.524 . S
C229 C221 1.503 . S
C229 C228 1.370 . S
C229 C230 1.403 . S
C230 C229 1.403 . S
C230 C231 1.404 . S
C230 C233 1.539 . S
C231 C227 1.408 . S
C231 C230 1.404 . S
C231 H243 0.930 . S
C232 C228 1.524 . S
C232 H244 0.956 . S
C232 H245 0.961 . S
C232 H246 0.961 . S
C233 C230 1.539 . S
C233 H247 0.958 . S
C233 H248 0.961 . S
C233 H249 0.960 . S
H234 C218 0.931 . S
H235 C223 0.929 . S
H236 C224 0.960 . S
H237 C224 0.962 . S
H238 C224 0.960 . S
H239 C225 0.961 . S
H240 C225 0.961 . S
H241 C225 0.961 . S
H242 C226 0.931 . S
H243 C231 0.930 . S
H244 C232 0.956 . S
H245 C232 0.961 . S
H246 C232 0.961 . S
H247 C233 0.958 . S
H248 C233 0.961 . S
H249 C233 0.960 . S
C250 C251 1.391 . S
C250 C252 1.394 . S
C250 H266 0.931 . S
C251 C250 1.391 . S
C251 C255 1.376 . S
C252 C250 1.394 . S
C252 C253 1.369 . S
C252 C256 1.531 . S
C253 C252 1.369 . S
C253 C254 1.410 . S
C253 C261 1.503 . S
C254 C253 1.410 . S
C254 C255 1.392 . S
C254 C257 1.511 . S
C255 C251 1.376 . S
C255 C254 1.392 . S
C255 H267 0.929 . S
C256 C252 1.531 . S
C256 H268 0.960 . S
C256 H269 0.962 . S
C256 H270 0.960 . S
C257 C254 1.511 . S
C257 H271 0.961 . S
C257 H272 0.961 . S
C257 H273 0.961 . S
C258 C259 1.370 . S
C258 C260 1.363 . S
C258 H274 0.931 . S
C259 C258 1.370 . S
C259 C263 1.408 . S
C260 C258 1.363 . S
C260 C261 1.370 . S
C260 C264 1.524 . S
C261 C253 1.503 . S
C261 C260 1.370 . S
C261 C262 1.403 . S
C262 C261 1.403 . S
C262 C263 1.404 . S
C262 C265 1.539 . S
C263 C259 1.408 . S
C263 C262 1.404 . S
C263 H275 0.930 . S
C264 C260 1.524 . S
C264 H276 0.956 . S
C264 H277 0.961 . S
C264 H278 0.961 . S
C265 C262 1.539 . S
C265 H279 0.958 . S
C265 H280 0.961 . S
C265 H281 0.960 . S
H266 C250 0.931 . S
H267 C255 0.929 . S
H268 C256 0.960 . S
H269 C256 0.962 . S
H270 C256 0.960 . S
H271 C257 0.961 . S
H272 C257 0.961 . S
H273 C257 0.961 . S
H274 C258 0.931 . S
H275 C263 0.930 . S
H276 C264 0.956 . S
H277 C264 0.961 . S
H278 C264 0.961 . S
H279 C265 0.958 . S
H280 C265 0.961 . S
H281 C265 0.960 . S
C282 C283 1.391 . S
C282 C284 1.394 . S
C282 H298 0.931 . S
C283 C282 1.391 . S
C283 C287 1.376 . S
C284 C282 1.394 . S
C284 C285 1.369 . S
C284 C288 1.531 . S
C285 C284 1.369 . S
C285 C286 1.410 . S
C285 C293 1.503 . S
C286 C285 1.410 . S
C286 C287 1.392 . S
C286 C289 1.511 . S
C287 C283 1.376 . S
C287 C286 1.392 . S
C287 H299 0.929 . S
C288 C284 1.531 . S
C288 H300 0.960 . S
C288 H301 0.962 . S
C288 H302 0.960 . S
C289 C286 1.511 . S
C289 H303 0.961 . S
C289 H304 0.961 . S
C289 H305 0.961 . S
C290 C291 1.370 . S
C290 C292 1.363 . S
C290 H306 0.931 . S
C291 C290 1.370 . S
C291 C295 1.408 . S
C292 C290 1.363 . S
C292 C293 1.370 . S
C292 C296 1.524 . S
C293 C285 1.503 . S
C293 C292 1.370 . S
C293 C294 1.403 . S
C294 C293 1.403 . S
C294 C295 1.404 . S
C294 C297 1.539 . S
C295 C291 1.408 . S
C295 C294 1.404 . S
C295 H307 0.930 . S
C296 C292 1.524 . S
C296 H308 0.956 . S
C296 H309 0.961 . S
C296 H310 0.961 . S
C297 C294 1.539 . S
C297 H311 0.958 . S
C297 H312 0.961 . S
C297 H313 0.960 . S
H298 C282 0.931 . S
H299 C287 0.929 . S
H300 C288 0.960 . S
H301 C288 0.962 . S
H302 C288 0.960 . S
H303 C289 0.961 . S
H304 C289 0.961 . S
H305 C289 0.961 . S
H306 C290 0.931 . S
H307 C295 0.930 . S
H308 C296 0.956 . S
H309 C296 0.961 . S
H310 C296 0.961 . S
H311 C297 0.958 . S
H312 C297 0.961 . S
H313 C297 0.960 . S
C314 C315 1.391 . S
C314 C316 1.394 . S
C314 H330 0.931 . S
C315 C314 1.391 . S
C315 C319 1.376 . S
C316 C314 1.394 . S
C316 C317 1.369 . S
C316 C320 1.531 . S
C317 C316 1.369 . S
C317 C318 1.410 . S
C317 C325 1.503 . S
C318 C317 1.410 . S
C318 C319 1.392 . S
C318 C321 1.511 . S
C319 C315 1.376 . S
C319 C318 1.392 . S
C319 H331 0.929 . S
C320 C316 1.531 . S
C320 H332 0.960 . S
C320 H333 0.962 . S
C320 H334 0.960 . S
C321 C318 1.511 . S
C321 H335 0.961 . S
C321 H336 0.961 . S
C321 H337 0.961 . S
C322 C323 1.370 . S
C322 C324 1.363 . S
C322 H338 0.931 . S
C323 C322 1.370 . S
C323 C327 1.408 . S
C324 C322 1.363 . S
C324 C325 1.370 . S
C324 C328 1.524 . S
C325 C317 1.503 . S
C325 C324 1.370 . S
C325 C326 1.403 . S
C326 C325 1.403 . S
C326 C327 1.404 . S
C326 C329 1.539 . S
C327 C323 1.408 . S
C327 C326 1.404 . S
C327 H339 0.930 . S
C328 C324 1.524 . S
C328 H340 0.956 . S
C328 H341 0.961 . S
C328 H342 0.961 . S
C329 C326 1.539 . S
C329 H343 0.958 . S
C329 H344 0.961 . S
C329 H345 0.960 . S
H330 C314 0.931 . S
H331 C319 0.929 . S
H332 C320 0.960 . S
H333 C320 0.962 . S
H334 C320 0.960 . S
H335 C321 0.961 . S
H336 C321 0.961 . S
H337 C321 0.961 . S
H338 C322 0.931 . S
H339 C327 0.930 . S
H340 C328 0.956 . S
H341 C328 0.961 . S
H342 C328 0.961 . S
H343 C329 0.958 . S
H344 C329 0.961 . S
H345 C329 0.960 . S
C346 C347 1.391 . S
C346 C348 1.394 . S
C346 H362 0.931 . S
C347 C346 1.391 . S
C347 C351 1.376 . S
C348 C346 1.394 . S
C348 C349 1.369 . S
C348 C352 1.531 . S
C349 C348 1.369 . S
C349 C350 1.410 . S
C349 C357 1.503 . S
C350 C349 1.410 . S
C350 C351 1.392 . S
C350 C353 1.511 . S
C351 C347 1.376 . S
C351 C350 1.392 . S
C351 H363 0.929 . S
C352 C348 1.531 . S
C352 H364 0.960 . S
C352 H365 0.962 . S
C352 H366 0.960 . S
C353 C350 1.511 . S
C353 H367 0.961 . S
C353 H368 0.961 . S
C353 H369 0.961 . S
C354 C355 1.370 . S
C354 C356 1.363 . S
C354 H370 0.931 . S
C355 C354 1.370 . S
C355 C359 1.408 . S
C356 C354 1.363 . S
C356 C357 1.370 . S
C356 C360 1.524 . S
C357 C349 1.503 . S
C357 C356 1.370 . S
C357 C358 1.403 . S
C358 C357 1.403 . S
C358 C359 1.404 . S
C358 C361 1.539 . S
C359 C355 1.408 . S
C359 C358 1.404 . S
C359 H371 0.930 . S
C360 C356 1.524 . S
C360 H372 0.956 . S
C360 H373 0.961 . S
C360 H374 0.961 . S
C361 C358 1.539 . S
C361 H375 0.958 . S
C361 H376 0.961 . S
C361 H377 0.960 . S
H362 C346 0.931 . S
H363 C351 0.929 . S
H364 C352 0.960 . S
H365 C352 0.962 . S
H366 C352 0.960 . S
H367 C353 0.961 . S
H368 C353 0.961 . S
H369 C353 0.961 . S
H370 C354 0.931 . S
H371 C359 0.930 . S
H372 C360 0.956 . S
H373 C360 0.961 . S
H374 C360 0.961 . S
H375 C361 0.958 . S
H376 C361 0.961 . S
H377 C361 0.960 . S
C378 C379 1.391 . S
C378 C380 1.394 . S
C378 H394 0.931 . S
C379 C378 1.391 . S
C379 C383 1.376 . S
C380 C378 1.394 . S
C380 C381 1.369 . S
C380 C384 1.531 . S
C381 C380 1.369 . S
C381 C382 1.410 . S
C381 C389 1.503 . S
C382 C381 1.410 . S
C382 C383 1.392 . S
C382 C385 1.511 . S
C383 C379 1.376 . S
C383 C382 1.392 . S
C383 H395 0.929 . S
C384 C380 1.531 . S
C384 H396 0.960 . S
C384 H397 0.962 . S
C384 H398 0.960 . S
C385 C382 1.511 . S
C385 H399 0.961 . S
C385 H400 0.961 . S
C385 H401 0.961 . S
C386 C387 1.370 . S
C386 C388 1.363 . S
C386 H402 0.931 . S
C387 C386 1.370 . S
C387 C391 1.408 . S
C388 C386 1.363 . S
C388 C389 1.370 . S
C388 C392 1.524 . S
C389 C381 1.503 . S
C389 C388 1.370 . S
C389 C390 1.403 . S
C390 C389 1.403 . S
C390 C391 1.404 . S
C390 C393 1.539 . S
C391 C387 1.408 . S
C391 C390 1.404 . S
C391 H403 0.930 . S
C392 C388 1.524 . S
C392 H404 0.956 . S
C392 H405 0.961 . S
C392 H406 0.961 . S
C393 C390 1.539 . S
C393 H407 0.958 . S
C393 H408 0.961 . S
C393 H409 0.960 . S
H394 C378 0.931 . S
H395 C383 0.929 . S
H396 C384 0.960 . S
H397 C384 0.962 . S
H398 C384 0.960 . S
H399 C385 0.961 . S
H400 C385 0.961 . S
H401 C385 0.961 . S
H402 C386 0.931 . S
H403 C391 0.930 . S
H404 C392 0.956 . S
H405 C392 0.961 . S
H406 C392 0.961 . S
H407 C393 0.958 . S
H408 C393 0.961 . S
H409 C393 0.960 . S
C410 C411 1.391 . S
C410 C412 1.394 . S
C410 H426 0.931 . S
C411 C410 1.391 . S
C411 C415 1.376 . S
C412 C410 1.394 . S
C412 C413 1.369 . S
C412 C416 1.531 . S
C413 C412 1.369 . S
C413 C414 1.410 . S
C413 C421 1.503 . S
C414 C413 1.410 . S
C414 C415 1.392 . S
C414 C417 1.511 . S
C415 C411 1.376 . S
C415 C414 1.392 . S
C415 H427 0.929 . S
C416 C412 1.531 . S
C416 H428 0.960 . S
C416 H429 0.962 . S
C416 H430 0.960 . S
C417 C414 1.511 . S
C417 H431 0.961 . S
C417 H432 0.961 . S
C417 H433 0.961 . S
C418 C419 1.370 . S
C418 C420 1.363 . S
C418 H434 0.931 . S
C419 C418 1.370 . S
C419 C423 1.408 . S
C420 C418 1.363 . S
C420 C421 1.370 . S
C420 C424 1.524 . S
C421 C413 1.503 . S
C421 C420 1.370 . S
C421 C422 1.403 . S
C422 C421 1.403 . S
C422 C423 1.404 . S
C422 C425 1.539 . S
C423 C419 1.408 . S
C423 C422 1.404 . S
C423 H435 0.930 . S
C424 C420 1.524 . S
C424 H436 0.956 . S
C424 H437 0.961 . S
C424 H438 0.961 . S
C425 C422 1.539 . S
C425 H439 0.958 . S
C425 H440 0.961 . S
C425 H441 0.960 . S
H426 C410 0.931 . S
H427 C415 0.929 . S
H428 C416 0.960 . S
H429 C416 0.962 . S
H430 C416 0.960 . S
H431 C417 0.961 . S
H432 C417 0.961 . S
H433 C417 0.961 . S
H434 C418 0.931 . S
H435 C423 0.930 . S
H436 C424 0.956 . S
H437 C424 0.961 . S
H438 C424 0.961 . S
H439 C425 0.958 . S
H440 C425 0.961 . S
H441 C425 0.960 . S
C442 C443 1.391 . S
C442 C444 1.394 . S
C442 H458 0.931 . S
C443 C442 1.391 . S
C443 C447 1.376 . S
C444 C442 1.394 . S
C444 C445 1.369 . S
C444 C448 1.531 . S
C445 C444 1.369 . S
C445 C446 1.410 . S
C445 C453 1.503 . S
C446 C445 1.410 . S
C446 C447 1.392 . S
C446 C449 1.511 . S
C447 C443 1.376 . S
C447 C446 1.392 . S
C447 H459 0.929 . S
C448 C444 1.531 . S
C448 H460 0.960 . S
C448 H461 0.962 . S
C448 H462 0.960 . S
C449 C446 1.511 . S
C449 H463 0.961 . S
C449 H464 0.961 . S
C449 H465 0.961 . S
C450 C451 1.370 . S
C450 C452 1.363 . S
C450 H466 0.931 . S
C451 C450 1.370 . S
C451 C455 1.408 . S
C452 C450 1.363 . S
C452 C453 1.370 . S
C452 C456 1.524 . S
C453 C445 1.503 . S
C453 C452 1.370 . S
C453 C454 1.403 . S
C454 C453 1.403 . S
C454 C455 1.404 . S
C454 C457 1.539 . S
C455 C451 1.408 . S
C455 C454 1.404 . S
C455 H467 0.930 . S
C456 C452 1.524 . S
C456 H468 0.956 . S
C456 H469 0.961 . S
C456 H470 0.961 . S
C457 C454 1.539 . S
C457 H471 0.958 . S
C457 H472 0.961 . S
C457 H473 0.960 . S
H458 C442 0.931 . S
H459 C447 0.929 . S
H460 C448 0.960 . S
H461 C448 0.962 . S
H462 C448 0.960 . S
H463 C449 0.961 . S
H464 C449 0.961 . S
H465 C449 0.961 . S
H466 C450 0.931 . S
H467 C455 0.930 . S
H468 C456 0.956 . S
H469 C456 0.961 . S
H470 C456 0.961 . S
H471 C457 0.958 . S
H472 C457 0.961 . S
H473 C457 0.960 . S
C474 C475 1.391 . S
C474 C476 1.394 . S
C474 H490 0.931 . S
C475 C474 1.391 . S
C475 C479 1.376 . S
C476 C474 1.394 . S
C476 C477 1.369 . S
C476 C480 1.531 . S
C477 C476 1.369 . S
C477 C478 1.410 . S
C477 C485 1.503 . S
C478 C477 1.410 . S
C478 C479 1.392 . S
C478 C481 1.511 . S
C479 C475 1.376 . S
C479 C478 1.392 . S
C479 H491 0.929 . S
C480 C476 1.531 . S
C480 H492 0.960 . S
C480 H493 0.962 . S
C480 H494 0.960 . S
C481 C478 1.511 . S
C481 H495 0.961 . S
C481 H496 0.961 . S
C481 H497 0.961 . S
C482 C483 1.370 . S
C482 C484 1.363 . S
C482 H498 0.931 . S
C483 C482 1.370 . S
C483 C487 1.408 . S
C484 C482 1.363 . S
C484 C485 1.370 . S
C484 C488 1.524 . S
C485 C477 1.503 . S
C485 C484 1.370 . S
C485 C486 1.403 . S
C486 C485 1.403 . S
C486 C487 1.404 . S
C486 C489 1.539 . S
C487 C483 1.408 . S
C487 C486 1.404 . S
C487 H499 0.930 . S
C488 C484 1.524 . S
C488 H500 0.956 . S
C488 H501 0.961 . S
C488 H502 0.961 . S
C489 C486 1.539 . S
C489 H503 0.958 . S
C489 H504 0.961 . S
C489 H505 0.960 . S
H490 C474 0.931 . S
H491 C479 0.929 . S
H492 C480 0.960 . S
H493 C480 0.962 . S
H494 C480 0.960 . S
H495 C481 0.961 . S
H496 C481 0.961 . S
H497 C481 0.961 . S
H498 C482 0.931 . S
H499 C487 0.930 . S
H500 C488 0.956 . S
H501 C488 0.961 . S
H502 C488 0.961 . S
H503 C489 0.958 . S
H504 C489 0.961 . S
H505 C489 0.960 . S
C506 C507 1.391 . S
C506 C508 1.394 . S
C506 H522 0.931 . S
C507 C506 1.391 . S
C507 C511 1.376 . S
C508 C506 1.394 . S
C508 C509 1.369 . S
C508 C512 1.531 . S
C509 C508 1.369 . S
C509 C510 1.410 . S
C509 C517 1.503 . S
C510 C509 1.410 . S
C510 C511 1.392 . S
C510 C513 1.511 . S
C511 C507 1.376 . S
C511 C510 1.392 . S
C511 H523 0.929 . S
C512 C508 1.531 . S
C512 H524 0.960 . S
C512 H525 0.962 . S
C512 H526 0.960 . S
C513 C510 1.511 . S
C513 H527 0.961 . S
C513 H528 0.961 . S
C513 H529 0.961 . S
C514 C515 1.370 . S
C514 C516 1.363 . S
C514 H530 0.931 . S
C515 C514 1.370 . S
C515 C519 1.408 . S
C516 C514 1.363 . S
C516 C517 1.370 . S
C516 C520 1.524 . S
C517 C509 1.503 . S
C517 C516 1.370 . S
C517 C518 1.403 . S
C518 C517 1.403 . S
C518 C519 1.404 . S
C518 C521 1.539 . S
C519 C515 1.408 . S
C519 C518 1.404 . S
C519 H531 0.930 . S
C520 C516 1.524 . S
C520 H532 0.956 . S
C520 H533 0.961 . S
C520 H534 0.961 . S
C521 C518 1.539 . S
C521 H535 0.958 . S
C521 H536 0.961 . S
C521 H537 0.960 . S
H522 C506 0.931 . S
H523 C511 0.929 . S
H524 C512 0.960 . S
H525 C512 0.962 . S
H526 C512 0.960 . S
H527 C513 0.961 . S
H528 C513 0.961 . S
H529 C513 0.961 . S
H530 C514 0.931 . S
H531 C519 0.930 . S
H532 C520 0.956 . S
H533 C520 0.961 . S
H534 C520 0.961 . S
H535 C521 0.958 . S
H536 C521 0.961 . S
H537 C521 0.960 . S
C538 C539 1.391 . S
C538 C540 1.394 . S
C538 H554 0.931 . S
C539 C538 1.391 . S
C539 C543 1.376 . S
C540 C538 1.394 . S
C540 C541 1.369 . S
C540 C544 1.531 . S
C541 C540 1.369 . S
C541 C542 1.410 . S
C541 C549 1.503 . S
C542 C541 1.410 . S
C542 C543 1.392 . S
C542 C545 1.511 . S
C543 C539 1.376 . S
C543 C542 1.392 . S
C543 H555 0.929 . S
C544 C540 1.531 . S
C544 H556 0.960 . S
C544 H557 0.962 . S
C544 H558 0.960 . S
C545 C542 1.511 . S
C545 H559 0.961 . S
C545 H560 0.961 . S
C545 H561 0.961 . S
C546 C547 1.370 . S
C546 C548 1.363 . S
C546 H562 0.931 . S
C547 C546 1.370 . S
C547 C551 1.408 . S
C548 C546 1.363 . S
C548 C549 1.370 . S
C548 C552 1.524 . S
C549 C541 1.503 . S
C549 C548 1.370 . S
C549 C550 1.403 . S
C550 C549 1.403 . S
C550 C551 1.404 . S
C550 C553 1.539 . S
C551 C547 1.408 . S
C551 C550 1.404 . S
C551 H563 0.930 . S
C552 C548 1.524 . S
C552 H564 0.956 . S
C552 H565 0.961 . S
C552 H566 0.961 . S
C553 C550 1.539 . S
C553 H567 0.958 . S
C553 H568 0.961 . S
C553 H569 0.960 . S
H554 C538 0.931 . S
H555 C543 0.929 . S
H556 C544 0.960 . S
H557 C544 0.962 . S
H558 C544 0.960 . S
H559 C545 0.961 . S
H560 C545 0.961 . S
H561 C545 0.961 . S
H562 C546 0.931 . S
H563 C551 0.930 . S
H564 C552 0.956 . S
H565 C552 0.961 . S
H566 C552 0.961 . S
H567 C553 0.958 . S
H568 C553 0.961 . S
H569 C553 0.960 . S
C570 C571 1.391 . S
C570 C572 1.394 . S
C570 H586 0.931 . S
C571 C570 1.391 . S
C571 C575 1.376 . S
C572 C570 1.394 . S
C572 C573 1.369 . S
C572 C576 1.536 . S
C573 C572 1.369 . S
C573 C574 1.410 . S
C573 C581 1.503 . S
C574 C573 1.410 . S
C574 C575 1.392 . S
C574 C577 1.511 . S
C575 C571 1.376 . S
C575 C574 1.392 . S
C575 H587 0.929 . S
C576 C572 1.536 . S
C576 H588 0.965 . S
C576 H589 0.952 1_455 S
C576 H590 0.960 . S
C577 C574 1.511 . S
C577 H591 0.961 . S
C577 H592 0.961 . S
C577 H593 0.961 . S
C578 C579 1.370 . S
C578 C580 1.388 . S
C578 H594 0.931 . S
C579 C578 1.370 . S
C579 C583 1.408 1_655 S
C580 C578 1.388 . S
C580 C581 1.361 1_656 S
C580 C584 1.509 1_556 S
C581 C573 1.503 . S
C581 C580 1.361 1_454 S
C581 C582 1.403 1_554 S
C582 C581 1.403 1_556 S
C582 C583 1.404 . S
C582 C585 1.539 1_556 S
C583 C579 1.408 1_455 S
C583 C582 1.404 . S
C583 H595 0.930 . S
C584 C580 1.509 1_554 S
C584 H596 0.956 . S
C584 H597 0.961 . S
C584 H598 0.961 . S
C585 C582 1.539 1_554 S
C585 H599 0.958 . S
C585 H600 0.961 1_554 S
C585 H601 0.960 . S
H586 C570 0.931 . S
H587 C575 0.929 . S
H588 C576 0.965 . S
H589 C576 0.952 1_655 S
H590 C576 0.960 . S
H591 C577 0.961 . S
H592 C577 0.961 . S
H593 C577 0.961 . S
H594 C578 0.931 . S
H595 C583 0.930 . S
H596 C584 0.956 . S
H597 C584 0.961 . S
H598 C584 0.961 . S
H599 C585 0.958 . S
H600 C585 0.961 1_556 S
H601 C585 0.960 . S
C602 C603 1.391 . S
C602 C604 1.394 . S
C602 H618 0.923 1_545 S
C603 C602 1.391 . S
C603 C607 1.376 . S
C604 C602 1.394 . S
C604 C605 1.369 . S
C604 C608 1.531 1_545 S
C605 C604 1.369 . S
C605 C606 1.410 . S
C605 C613 1.503 . S
C606 C605 1.410 . S
C606 C607 1.392 . S
C606 C609 1.511 . S
C607 C603 1.376 . S
C607 C606 1.392 . S
C607 H619 0.929 . S
C608 C604 1.531 1_565 S
C608 H620 0.960 . S
C608 H621 0.962 1_565 S
C608 H622 0.960 . S
C609 C606 1.511 . S
C609 H623 0.961 . S
C609 H624 0.961 . S
C609 H625 0.961 . S
C610 C611 1.370 . S
C610 C612 1.363 . S
C610 H626 0.931 . S
C611 C610 1.370 . S
C611 C615 1.408 1_545 S
C612 C610 1.363 . S
C612 C613 1.370 . S
C612 C616 1.524 . S
C613 C605 1.503 . S
C613 C612 1.370 . S
C613 C614 1.403 1_545 S
C614 C613 1.403 1_565 S
C614 C615 1.404 . S
C614 C617 1.539 . S
C615 C611 1.408 1_565 S
C615 C614 1.404 . S
C615 H627 0.930 . S
C616 C612 1.524 . S
C616 H628 0.956 . S
C616 H629 0.961 . S
C616 H630 0.961 . S
C617 C614 1.539 . S
C617 H631 0.958 . S
C617 H632 0.961 . S
C617 H633 0.960 . S
H618 C602 0.923 1_565 S
H619 C607 0.929 . S
H620 C608 0.960 . S
H621 C608 0.962 1_545 S
H622 C608 0.960 . S
H623 C609 0.961 . S
H624 C609 0.961 . S
H625 C609 0.961 . S
H626 C610 0.931 . S
H627 C615 0.930 . S
H628 C616 0.956 . S
H629 C616 0.961 . S
H630 C616 0.961 . S
H631 C617 0.958 . S
H632 C617 0.961 . S
H633 C617 0.960 . S
C634 C635 1.391 . S
C634 C636 1.394 . S
C634 H650 0.931 . S
C635 C634 1.391 . S
C635 C639 1.376 . S
C636 C634 1.394 . S
C636 C637 1.369 . S
C636 C640 1.531 . S
C637 C636 1.369 . S
C637 C638 1.410 . S
C637 C645 1.503 . S
C638 C637 1.410 . S
C638 C639 1.392 . S
C638 C641 1.511 . S
C639 C635 1.376 . S
C639 C638 1.392 . S
C639 H651 0.929 . S
C640 C636 1.531 . S
C640 H652 0.960 . S
C640 H653 0.962 . S
C640 H654 0.960 . S
C641 C638 1.511 . S
C641 H655 0.961 . S
C641 H656 0.961 . S
C641 H657 0.961 . S
C642 C643 1.370 . S
C642 C644 1.363 . S
C642 H658 0.931 . S
C643 C642 1.370 . S
C643 C647 1.408 . S
C644 C642 1.363 . S
C644 C645 1.370 . S
C644 C648 1.524 . S
C645 C637 1.503 . S
C645 C644 1.370 . S
C645 C646 1.403 . S
C646 C645 1.403 . S
C646 C647 1.404 . S
C646 C649 1.539 . S
C647 C643 1.408 . S
C647 C646 1.404 . S
C647 H659 0.930 . S
C648 C644 1.524 . S
C648 H660 0.956 . S
C648 H661 0.961 . S
C648 H662 0.961 . S
C649 C646 1.539 . S
C649 H663 0.958 . S
C649 H664 0.961 . S
C649 H665 0.960 . S
H650 C634 0.931 . S
H651 C639 0.929 . S
H652 C640 0.960 . S
H653 C640 0.962 . S
H654 C640 0.960 . S
H655 C641 0.961 . S
H656 C641 0.961 . S
H657 C641 0.961 . S
H658 C642 0.931 . S
H659 C647 0.930 . S
H660 C648 0.956 . S
H661 C648 0.961 . S
H662 C648 0.961 . S
H663 C649 0.958 . S
H664 C649 0.961 . S
H665 C649 0.960 . S
C666 C667 1.391 . S
C666 C668 1.394 . S
C666 H682 0.931 . S
C667 C666 1.391 . S
C667 C671 1.376 1_545 S
C668 C666 1.394 . S
C668 C669 1.369 . S
C668 C672 1.531 . S
C669 C668 1.369 . S
C669 C670 1.410 1_545 S
C669 C677 1.503 . S
C670 C669 1.410 1_565 S
C670 C671 1.392 . S
C670 C673 1.511 . S
C671 C667 1.376 1_565 S
C671 C670 1.392 . S
C671 H683 0.929 . S
C672 C668 1.531 . S
C672 H684 0.960 . S
C672 H685 0.962 . S
C672 H686 0.960 . S
C673 C670 1.511 . S
C673 H687 0.961 . S
C673 H688 0.961 . S
C673 H689 0.961 . S
C674 C675 1.370 . S
C674 C676 1.363 . S
C674 H690 0.931 . S
C675 C674 1.370 . S
C675 C679 1.410 1_545 S
C676 C674 1.363 . S
C676 C677 1.370 . S
C676 C680 1.524 . S
C677 C669 1.503 . S
C677 C676 1.370 . S
C677 C678 1.408 1_545 S
C678 C677 1.408 1_565 S
C678 C679 1.403 . S
C678 C681 1.538 . S
C679 C675 1.410 1_565 S
C679 C678 1.403 . S
C679 H691 0.928 . S
C680 C676 1.524 . S
C680 H692 0.956 . S
C680 H693 0.961 . S
C680 H694 0.961 . S
C681 C678 1.538 . S
C681 H695 0.958 1_565 S
C681 H696 0.961 . S
C681 H697 0.960 . S
H682 C666 0.931 . S
H683 C671 0.929 . S
H684 C672 0.960 . S
H685 C672 0.962 . S
H686 C672 0.960 . S
H687 C673 0.961 . S
H688 C673 0.961 . S
H689 C673 0.961 . S
H690 C674 0.931 . S
H691 C679 0.928 . S
H692 C680 0.956 . S
H693 C680 0.961 . S
H694 C680 0.961 . S
H695 C681 0.958 1_545 S
H696 C681 0.961 . S
H697 C681 0.960 . S
C698 C699 1.391 . S
C698 C700 1.394 . S
C698 H714 0.931 . S
C699 C698 1.391 . S
C699 C703 1.376 . S
C700 C698 1.394 . S
C700 C701 1.369 . S
C700 C704 1.531 . S
C701 C700 1.369 . S
C701 C702 1.410 . S
C701 C709 1.503 . S
C702 C701 1.410 . S
C702 C703 1.392 . S
C702 C705 1.511 . S
C703 C699 1.376 . S
C703 C702 1.392 . S
C703 H715 0.929 . S
C704 C700 1.531 . S
C704 H716 0.960 . S
C704 H717 0.962 . S
C704 H718 0.960 . S
C705 C702 1.511 . S
C705 H719 0.961 . S
C705 H720 0.961 . S
C705 H721 0.961 . S
C706 C707 1.370 . S
C706 C708 1.363 . S
C706 H722 0.931 . S
C707 C706 1.370 . S
C707 C711 1.408 . S
C708 C706 1.363 . S
C708 C709 1.370 1_554 S
C708 C712 1.524 1_554 S
C709 C701 1.503 . S
C709 C708 1.370 1_556 S
C709 C710 1.403 1_556 S
C710 C709 1.403 1_554 S
C710 C711 1.404 . S
C710 C713 1.539 . S
C711 C707 1.408 . S
C711 C710 1.404 . S
C711 H723 0.930 . S
C712 C708 1.524 1_556 S
C712 H724 0.956 . S
C712 H725 0.961 . S
C712 H726 0.961 . S
C713 C710 1.539 . S
C713 H727 0.958 . S
C713 H728 0.961 . S
C713 H729 0.960 1_554 S
H714 C698 0.931 . S
H715 C703 0.929 . S
H716 C704 0.960 . S
H717 C704 0.962 . S
H718 C704 0.960 . S
H719 C705 0.961 . S
H720 C705 0.961 . S
H721 C705 0.961 . S
H722 C706 0.931 . S
H723 C711 0.930 . S
H724 C712 0.956 . S
H725 C712 0.961 . S
H726 C712 0.961 . S
H727 C713 0.958 . S
H728 C713 0.961 . S
H729 C713 0.960 1_556 S
C730 C731 1.391 . S
C730 C732 1.394 . S
C730 H746 0.931 . S
C731 C730 1.391 . S
C731 C735 1.376 1_455 S
C732 C730 1.394 . S
C732 C733 1.369 . S
C732 C736 1.531 . S
C733 C732 1.369 . S
C733 C734 1.410 1_455 S
C733 C741 1.503 . S
C734 C733 1.410 1_655 S
C734 C735 1.392 . S
C734 C737 1.511 . S
C735 C731 1.376 1_655 S
C735 C734 1.392 . S
C735 H747 0.929 . S
C736 C732 1.531 . S
C736 H748 0.960 . S
C736 H749 0.962 . S
C736 H750 0.960 . S
C737 C734 1.511 . S
C737 H751 0.961 . S
C737 H752 0.961 . S
C737 H753 0.961 . S
C738 C739 1.370 . S
C738 C740 1.363 . S
C738 H754 0.931 . S
C739 C738 1.370 . S
C739 C743 1.408 . S
C740 C738 1.363 . S
C740 C741 1.370 . S
C740 C744 1.524 . S
C741 C733 1.503 . S
C741 C740 1.370 . S
C741 C742 1.403 . S
C742 C741 1.403 . S
C742 C743 1.404 . S
C742 C745 1.539 . S
C743 C739 1.408 . S
C743 C742 1.404 . S
C743 H755 0.930 . S
C744 C740 1.524 . S
C744 H756 0.956 . S
C744 H757 0.961 1_455 S
C744 H758 0.961 . S
C745 C742 1.539 . S
C745 H759 0.958 . S
C745 H760 0.961 . S
C745 H761 0.960 . S
H746 C730 0.931 . S
H747 C735 0.929 . S
H748 C736 0.960 . S
H749 C736 0.962 . S
H750 C736 0.960 . S
H751 C737 0.961 . S
H752 C737 0.961 . S
H753 C737 0.961 . S
H754 C738 0.931 . S
H755 C743 0.930 . S
H756 C744 0.956 . S
H757 C744 0.961 1_655 S
H758 C744 0.961 . S
H759 C745 0.958 . S
H760 C745 0.961 . S
H761 C745 0.960 . S
C187 C10 3.171 . S
C195 C180 2.854 . S
C219 C59 3.243 . S
C227 C158 2.914 . S
C251 C90 2.888 . S
C259 C172 2.835 . S
C283 C19 2.946 . S
C291 C183 2.897 . S
C323 C161 2.834 . S
C315 C50 2.886 . S
C355 C169 2.913 . S
C347 C99 3.241 . S
C379 C46 0.464 . S
C387 C136 0.744 . S
C411 C95 0.521 . S
C419 C147 0.671 . S
C443 C6 0.521 . S
C451 C125 0.759 . S
C483 C139 0.279 . S
C475 C55 0.179 . S
C515 C150 0.301 . S
C507 C86 0.382 . S
C539 C15 0.347 . S
C547 C128 0.267 . S
C579 C149 1.178 . S
C571 C9 1.179 . S
C603 C49 1.210 . S
C611 C127 1.195 . S
C635 C89 1.230 . S
C643 C138 1.198 . S
C675 C171 1.672 . S
C667 C58 1.630 . S
C707 C182 1.666 . S
C699 C98 1.678 . S
C731 C18 1.686 . S
C739 C160 1.656 . S
