# Generated by pormake.
# Topology ocu, (6,8)-cn, num edge types: 1
# Building blocks:
#     Node 0, Type 0, BuildingBlock: MIFKUJ_clean_sbu_0, # of connection points: 6
#     Node 1, Type 0, BuildingBlock: MIFKUJ_clean_sbu_0, # of connection points: 6
#     Node 2, Type 0, BuildingBlock: MIFKUJ_clean_sbu_0, # of connection points: 6
#     Node 3, Type 0, BuildingBlock: MIFKUJ_clean_sbu_0, # of connection points: 6
#     Node 4, Type 0, BuildingBlock: MIFKUJ_clean_sbu_0, # of connection points: 6
#     Node 5, Type 0, BuildingBlock: MIFKUJ_clean_sbu_0, # of connection points: 6
#     Node 6, Type 0, BuildingBlock: MIFKUJ_clean_sbu_0, # of connection points: 6
#     Node 7, Type 0, BuildingBlock: MIFKUJ_clean_sbu_0, # of connection points: 6
#     Node 8, Type 1, BuildingBlock: AJUNOK_clean_sbu_0, # of connection points: 8
#     Node 9, Type 1, BuildingBlock: AJUNOK_clean_sbu_0, # of connection points: 8
#     Node 10, Type 1, BuildingBlock: AJUNOK_clean_sbu_0, # of connection points: 8
#     Node 11, Type 1, BuildingBlock: AJUNOK_clean_sbu_0, # of connection points: 8
#     Node 12, Type 1, BuildingBlock: AJUNOK_clean_sbu_0, # of connection points: 8
#     Node 13, Type 1, BuildingBlock: AJUNOK_clean_sbu_0, # of connection points: 8
#     Edge 14, Type (0, 1), BuildingBlock: ZUJKAS_clean_linker_0, # of connection points: 2
#     Edge 15, Type (0, 1), BuildingBlock: ZUJKAS_clean_linker_0, # of connection points: 2
#     Edge 16, Type (0, 1), BuildingBlock: ZUJKAS_clean_linker_0, # of connection points: 2
#     Edge 17, Type (0, 1), BuildingBlock: ZUJKAS_clean_linker_0, # of connection points: 2
#     Edge 18, Type (0, 1), BuildingBlock: ZUJKAS_clean_linker_0, # of connection points: 2
#     Edge 19, Type (0, 1), BuildingBlock: ZUJKAS_clean_linker_0, # of connection points: 2
#     Edge 20, Type (0, 1), BuildingBlock: ZUJKAS_clean_linker_0, # of connection points: 2
#     Edge 21, Type (0, 1), BuildingBlock: ZUJKAS_clean_linker_0, # of connection points: 2
#     Edge 22, Type (0, 1), BuildingBlock: ZUJKAS_clean_linker_0, # of connection points: 2
#     Edge 23, Type (0, 1), BuildingBlock: ZUJKAS_clean_linker_0, # of connection points: 2
#     Edge 24, Type (0, 1), BuildingBlock: ZUJKAS_clean_linker_0, # of connection points: 2
#     Edge 25, Type (0, 1), BuildingBlock: ZUJKAS_clean_linker_0, # of connection points: 2
#     Edge 26, Type (0, 1), BuildingBlock: ZUJKAS_clean_linker_0, # of connection points: 2
#     Edge 27, Type (0, 1), BuildingBlock: ZUJKAS_clean_linker_0, # of connection points: 2
#     Edge 28, Type (0, 1), BuildingBlock: ZUJKAS_clean_linker_0, # of connection points: 2
#     Edge 29, Type (0, 1), BuildingBlock: ZUJKAS_clean_linker_0, # of connection points: 2
#     Edge 30, Type (0, 1), BuildingBlock: ZUJKAS_clean_linker_0, # of connection points: 2
#     Edge 31, Type (0, 1), BuildingBlock: ZUJKAS_clean_linker_0, # of connection points: 2
#     Edge 32, Type (0, 1), BuildingBlock: ZUJKAS_clean_linker_0, # of connection points: 2
#     Edge 33, Type (0, 1), BuildingBlock: ZUJKAS_clean_linker_0, # of connection points: 2
#     Edge 34, Type (0, 1), BuildingBlock: ZUJKAS_clean_linker_0, # of connection points: 2
#     Edge 35, Type (0, 1), BuildingBlock: ZUJKAS_clean_linker_0, # of connection points: 2
#     Edge 36, Type (0, 1), BuildingBlock: ZUJKAS_clean_linker_0, # of connection points: 2
#     Edge 37, Type (0, 1), BuildingBlock: ZUJKAS_clean_linker_0, # of connection points: 2
#     Edge 38, Type (0, 1), BuildingBlock: ZUJKAS_clean_linker_0, # of connection points: 2
#     Edge 39, Type (0, 1), BuildingBlock: ZUJKAS_clean_linker_0, # of connection points: 2
#     Edge 40, Type (0, 1), BuildingBlock: ZUJKAS_clean_linker_0, # of connection points: 2
#     Edge 41, Type (0, 1), BuildingBlock: ZUJKAS_clean_linker_0, # of connection points: 2
#     Edge 42, Type (0, 1), BuildingBlock: ZUJKAS_clean_linker_0, # of connection points: 2
#     Edge 43, Type (0, 1), BuildingBlock: ZUJKAS_clean_linker_0, # of connection points: 2
#     Edge 44, Type (0, 1), BuildingBlock: ZUJKAS_clean_linker_0, # of connection points: 2
#     Edge 45, Type (0, 1), BuildingBlock: ZUJKAS_clean_linker_0, # of connection points: 2
#     Edge 46, Type (0, 1), BuildingBlock: ZUJKAS_clean_linker_0, # of connection points: 2
#     Edge 47, Type (0, 1), BuildingBlock: ZUJKAS_clean_linker_0, # of connection points: 2
#     Edge 48, Type (0, 1), BuildingBlock: ZUJKAS_clean_linker_0, # of connection points: 2
#     Edge 49, Type (0, 1), BuildingBlock: ZUJKAS_clean_linker_0, # of connection points: 2
#     Edge 50, Type (0, 1), BuildingBlock: ZUJKAS_clean_linker_0, # of connection points: 2
#     Edge 51, Type (0, 1), BuildingBlock: ZUJKAS_clean_linker_0, # of connection points: 2
#     Edge 52, Type (0, 1), BuildingBlock: ZUJKAS_clean_linker_0, # of connection points: 2
#     Edge 53, Type (0, 1), BuildingBlock: ZUJKAS_clean_linker_0, # of connection points: 2
#     Edge 54, Type (0, 1), BuildingBlock: ZUJKAS_clean_linker_0, # of connection points: 2
#     Edge 55, Type (0, 1), BuildingBlock: ZUJKAS_clean_linker_0, # of connection points: 2
#     Edge 56, Type (0, 1), BuildingBlock: ZUJKAS_clean_linker_0, # of connection points: 2
#     Edge 57, Type (0, 1), BuildingBlock: ZUJKAS_clean_linker_0, # of connection points: 2
#     Edge 58, Type (0, 1), BuildingBlock: ZUJKAS_clean_linker_0, # of connection points: 2
#     Edge 59, Type (0, 1), BuildingBlock: ZUJKAS_clean_linker_0, # of connection points: 2
#     Edge 60, Type (0, 1), BuildingBlock: ZUJKAS_clean_linker_0, # of connection points: 2
#     Edge 61, Type (0, 1), BuildingBlock: ZUJKAS_clean_linker_0, # of connection points: 2
# Relax obj value: 0.105
# Max RMSD: 0.219
# Mean RMSD: 0.172
data_MOF--net-ocu--node1-MIFKUJ_clean_sbu_0--node2-AJUNOK_clean_sbu_0--edge1-ZUJKAS_clean_linker_0
_symmetry_space_group_name_H-M    P1
_symmetry_Int_Tables_number       1
_symmetry_cell_setting            triclinic
loop_
_symmetry_equiv_pos_as_xyz
'x, y, z'
_cell_length_a     52.868521
_cell_length_b     54.720066
_cell_length_c     44.007924
_cell_angle_alpha  98.340937
_cell_angle_beta   99.654608
_cell_angle_gamma 106.03926
loop_
_atom_site_label
_atom_site_type_symbol
_atom_site_fract_x
_atom_site_fract_y
_atom_site_fract_z
_atom_type_partial_charge
Zn0 Zn 0.22337 0.27194 0.24766 0.0
Zn1 Zn 0.27657 0.22594 0.25434 0.0
C2 C 0.2166 0.29405 0.30947 0.0
O3 O 0.2157 0.27111 0.31574 0.0
C4 C 0.30435 0.20316 0.21665 0.0
O5 O 0.32349 0.22115 0.23779 0.0
O6 O 0.19779 0.27575 0.21016 0.0
O7 O 0.26087 0.28142 0.23929 0.0
O8 O 0.29177 0.26099 0.2437 0.0
C9 C 0.20477 0.28187 0.18529 0.0
O10 O 0.22939 0.28368 0.18192 0.0
O11 O 0.22126 0.29888 0.28315 0.0
C12 C 0.29222 0.19831 0.29836 0.0
O13 O 0.27045 0.18165 0.27952 0.0
O14 O 0.30036 0.22108 0.29294 0.0
O15 O 0.23863 0.21599 0.26188 0.0
O16 O 0.20825 0.23704 0.2583 0.0
O17 O 0.2799 0.2005 0.21804 0.0
C18 C 0.28422 0.28017 0.23733 0.0
C19 C 0.21531 0.21742 0.26375 0.0
Zn20 Zn 0.73141 0.26734 0.23804 0.0
Zn21 Zn 0.76715 0.23918 0.26936 0.0
C22 C 0.68374 0.27767 0.20413 0.0
O23 O 0.66959 0.2557 0.20992 0.0
C24 C 0.79871 0.22371 0.31714 0.0
O25 O 0.78328 0.23272 0.33327 0.0
O26 O 0.76756 0.2805 0.22819 0.0
O27 O 0.73439 0.27818 0.28386 0.0
O28 O 0.77614 0.27632 0.29164 0.0
C29 C 0.76851 0.27839 0.19934 0.0
O30 O 0.74608 0.26759 0.17779 0.0
O31 O 0.70912 0.28576 0.2144 0.0
C32 C 0.72718 0.19574 0.27637 0.0
O33 O 0.74098 0.18387 0.26075 0.0
O34 O 0.73467 0.22034 0.28304 0.0
O35 O 0.75813 0.22717 0.22196 0.0
O36 O 0.71701 0.22953 0.22039 0.0
O37 O 0.79635 0.22508 0.28822 0.0
C38 C 0.75796 0.2847 0.30087 0.0
C39 C 0.73299 0.21867 0.20976 0.0
Zn40 Zn 0.77669 0.73089 0.25109 0.0
Zn41 Zn 0.70876 0.76127 0.25144 0.0
C42 C 0.80642 0.72275 0.30923 0.0
O43 O 0.81903 0.74771 0.31356 0.0
C44 C 0.68774 0.77407 0.1911 0.0
O45 O 0.68532 0.75007 0.17831 0.0
O46 O 0.79132 0.7188 0.21373 0.0
O47 O 0.73662 0.72439 0.24099 0.0
O48 O 0.6943 0.72251 0.23068 0.0
C49 C 0.78938 0.69478 0.20811 0.0
O50 O 0.77704 0.67975 0.22533 0.0
O51 O 0.78719 0.71203 0.28531 0.0
C52 C 0.70065 0.79595 0.29899 0.0
O53 O 0.71523 0.8111 0.28358 0.0
O54 O 0.69468 0.77145 0.2901 0.0
O55 O 0.74958 0.77057 0.26122 0.0
O56 O 0.79148 0.77 0.26706 0.0
O57 O 0.69747 0.78225 0.22045 0.0
C58 C 0.71255 0.71189 0.22726 0.0
C59 C 0.7746 0.78244 0.27027 0.0
Zn60 Zn 0.23262 0.76969 0.25526 0.0
Zn61 Zn 0.25998 0.73019 0.23769 0.0
C62 C 0.19219 0.73454 0.27651 0.0
O63 O 0.17721 0.74729 0.26316 0.0
C64 C 0.30082 0.7645 0.21629 0.0
O65 O 0.31624 0.75444 0.23389 0.0
O66 O 0.21663 0.79764 0.27061 0.0
O67 O 0.27205 0.78283 0.27409 0.0
O68 O 0.27278 0.74487 0.28425 0.0
C69 C 0.21928 0.80224 0.30039 0.0
O70 O 0.23317 0.79043 0.31725 0.0
O71 O 0.21702 0.74056 0.27594 0.0
C72 C 0.26735 0.68844 0.19679 0.0
O73 O 0.24678 0.69185 0.17855 0.0
O74 O 0.27596 0.70179 0.22472 0.0
O75 O 0.22033 0.71778 0.21905 0.0
O76 O 0.22046 0.75594 0.20838 0.0
O77 O 0.27566 0.75749 0.21493 0.0
C78 C 0.28051 0.76948 0.29241 0.0
C79 C 0.21184 0.73127 0.20088 0.0
Zn80 Zn 0.22405 0.76448 0.7167 0.0
Zn81 Zn 0.2679 0.7325 0.77963 0.0
C82 C 0.17446 0.76794 0.68741 0.0
O83 O 0.17694 0.74891 0.66738 0.0
C84 C 0.31662 0.7276 0.81154 0.0
O85 O 0.31499 0.74727 0.83129 0.0
O86 O 0.24786 0.7857 0.69481 0.0
O87 O 0.24624 0.76729 0.7582 0.0
O88 O 0.27659 0.77045 0.79898 0.0
C89 C 0.25618 0.81018 0.70279 0.0
O90 O 0.24757 0.8219 0.72527 0.0
O91 O 0.1913 0.77636 0.71367 0.0
C92 C 0.23532 0.68976 0.79616 0.0
O93 O 0.24284 0.67793 0.77272 0.0
O94 O 0.24416 0.71426 0.80416 0.0
O95 O 0.2455 0.72149 0.73445 0.0
O96 O 0.21855 0.72832 0.69455 0.0
O97 O 0.29966 0.71926 0.78539 0.0
C98 C 0.26204 0.78111 0.78326 0.0
C99 C 0.23166 0.71432 0.70632 0.0
Zn100 Zn 0.27623 0.22511 0.74468 0.0
Zn101 Zn 0.21093 0.26027 0.74165 0.0
C102 C 0.31178 0.21406 0.79322 0.0
O103 O 0.32846 0.23393 0.78597 0.0
C104 C 0.17817 0.27036 0.68897 0.0
O105 O 0.16163 0.24833 0.69167 0.0
O106 O 0.28921 0.21211 0.70609 0.0
O107 O 0.23619 0.21979 0.73523 0.0
O108 O 0.19474 0.22096 0.72513 0.0
C109 C 0.28654 0.18794 0.69979 0.0
O110 O 0.27534 0.17305 0.71783 0.0
O111 O 0.28708 0.20658 0.77905 0.0
C112 C 0.20034 0.29862 0.78378 0.0
O113 O 0.21403 0.31255 0.76655 0.0
O114 O 0.19643 0.27418 0.77851 0.0
O115 O 0.25126 0.26647 0.75262 0.0
O116 O 0.29256 0.26435 0.76106 0.0
O117 O 0.20152 0.279 0.707 0.0
C118 C 0.21141 0.208 0.72417 0.0
C119 C 0.27624 0.27754 0.76354 0.0
Zn120 Zn 0.733 0.27121 0.75716 0.0
Zn121 Zn 0.76343 0.2361 0.73637 0.0
C122 C 0.69192 0.22816 0.7654 0.0
O123 O 0.67642 0.23982 0.75075 0.0
C124 C 0.8077 0.27844 0.73084 0.0
O125 O 0.82173 0.27035 0.75257 0.0
O126 O 0.7151 0.29557 0.77664 0.0
O127 O 0.77164 0.28505 0.77823 0.0
O128 O 0.77196 0.24601 0.78424 0.0
C129 C 0.71664 0.297 0.80606 0.0
O130 O 0.72993 0.28353 0.82076 0.0
O131 O 0.71731 0.2378 0.7702 0.0
C132 C 0.77871 0.20389 0.69277 0.0
O133 O 0.76592 0.21587 0.67487 0.0
O134 O 0.7802 0.20874 0.72228 0.0
O135 O 0.72551 0.22537 0.71012 0.0
O136 O 0.72386 0.26532 0.71036 0.0
O137 O 0.78269 0.26683 0.72083 0.0
C138 C 0.77984 0.27041 0.79469 0.0
C139 C 0.71743 0.24175 0.69658 0.0
Zn140 Zn 0.72305 0.77187 0.74868 0.0
Zn141 Zn 0.77123 0.72157 0.74323 0.0
C142 C 0.6948 0.78948 0.79032 0.0
O143 O 0.67634 0.76997 0.77039 0.0
C144 C 0.79908 0.70484 0.70062 0.0
O145 O 0.81701 0.72552 0.71918 0.0
O146 O 0.69624 0.77582 0.71258 0.0
O147 O 0.75965 0.78558 0.73887 0.0
O148 O 0.78365 0.75815 0.73488 0.0
C149 C 0.70127 0.77878 0.68583 0.0
O150 O 0.7241 0.77666 0.6796 0.0
O151 O 0.71896 0.79516 0.78655 0.0
C152 C 0.7898 0.6935 0.78452 0.0
O153 O 0.7679 0.67677 0.76593 0.0
O154 O 0.79695 0.71666 0.78002 0.0
O155 O 0.73441 0.70782 0.75289 0.0
O156 O 0.71106 0.73571 0.75691 0.0
O157 O 0.77535 0.69799 0.70561 0.0
C158 C 0.7806 0.78027 0.73337 0.0
C159 C 0.71364 0.71349 0.75839 0.0
Cd160 Cd 0.97549 0.98341 0.53781 0.0
Cd161 Cd 0.02448 0.02005 0.46412 0.0
C162 C 0.01339 0.95597 0.57127 0.0
N163 N 0.00515 0.9592 0.54162 0.0
C164 C 0.03272 0.93535 0.52199 0.0
C165 C 0.04194 0.9323 0.55264 0.0
C166 C 0.03197 0.9427 0.57737 0.0
C167 C 0.01422 0.94918 0.51699 0.0
H168 H 0.00574 0.96411 0.59031 0.0
H169 H 0.00714 0.95196 0.49362 0.0
C170 C 0.96488 0.98436 0.45408 0.0
C171 C 0.9912 0.04913 0.42489 0.0
C172 C 0.97476 0.06408 0.41643 0.0
C173 C 0.9632 0.07534 0.439 0.0
C174 C 0.96808 0.07052 0.46969 0.0
C175 C 0.98471 0.05527 0.47713 0.0
N176 N 0.99598 0.04515 0.45478 0.0
H177 H 0.00015 0.04055 0.40752 0.0
H178 H 0.98877 0.05166 0.50072 0.0
C179 C 0.02793 0.96346 0.43424 0.0
N180 N 0.04016 0.98432 0.45821 0.0
C181 C 0.07837 0.96944 0.47033 0.0
C182 C 0.06699 0.94849 0.44459 0.0
C183 C 0.041 0.94506 0.42713 0.0
C184 C 0.06455 0.98726 0.47669 0.0
H185 H 0.00878 0.96189 0.41949 0.0
H186 H 0.07396 0.0043 0.49522 0.0
C187 C 0.03421 0.0197 0.54627 0.0
C188 C 0.93849 0.95032 0.56637 0.0
N189 N 0.95974 0.01885 0.5454 0.0
C190 C 0.97294 0.03938 0.56949 0.0
C191 C 0.9606 0.05801 0.57807 0.0
C192 C 0.93433 0.05524 0.56195 0.0
C193 C 0.92192 0.03466 0.53595 0.0
C194 C 0.93505 0.01652 0.52812 0.0
C195 C 0.06444 0.0507 0.43767 0.0
O196 O 0.97574 0.98708 0.48283 0.0
O197 O 0.97977 0.99307 0.43575 0.0
O198 O 0.02187 0.01713 0.51822 0.0
O199 O 0.0207 0.01086 0.56573 0.0
O200 O 0.93734 0.94469 0.53693 0.0
O201 O 0.95606 0.97133 0.58164 0.0
O202 O 0.06394 0.05769 0.46646 0.0
O203 O 0.04705 0.02958 0.42241 0.0
H204 H 0.9924 0.04058 0.58313 0.0
H205 H 0.92488 -0.00027 0.50946 0.0
H206 H 0.03989 0.92735 0.50236 0.0
H207 H 0.03823 0.94029 0.60119 0.0
H208 H 0.97105 0.06666 0.39233 0.0
H209 H 0.95964 0.07884 0.48786 0.0
H210 H 0.09827 0.97264 0.48453 0.0
H211 H 0.03165 0.92933 0.40689 0.0
H212 H 0.97104 0.07379 0.59797 0.0
H213 H 0.90159 0.0316 0.52307 0.0
Cd214 Cd 0.4781 0.98209 0.03036 0.0
Cd215 Cd 0.5186 0.01107 0.95341 0.0
C216 C 0.53633 0.97283 0.05826 0.0
N217 N 0.51163 0.96113 0.0387 0.0
C218 C 0.52131 0.92066 0.03086 0.0
C219 C 0.54669 0.93218 0.05144 0.0
C220 C 0.55429 0.9588 0.06455 0.0
C221 C 0.50406 0.93556 0.02482 0.0
H222 H 0.54212 0.99283 0.07005 0.0
H223 H 0.48423 0.92654 0.00971 0.0
C224 C 0.4649 0.96828 0.94385 0.0
C225 C 0.46583 0.02667 0.92542 0.0
C226 C 0.44726 0.04043 0.92231 0.0
C227 C 0.45051 0.06239 0.94524 0.0
C228 C 0.47218 0.06953 0.97144 0.0
C229 C 0.49003 0.05481 0.97397 0.0
N230 N 0.48664 0.03386 0.95103 0.0
H231 H 0.46395 0.01066 0.9068 0.0
H232 H 0.507 0.0605 0.99383 0.0
C233 C 0.53231 0.95707 0.96279 0.0
N234 N 0.54333 0.98175 0.95908 0.0
C235 C 0.585 0.97367 0.95544 0.0
C236 C 0.57398 0.94779 0.95802 0.0
C237 C 0.5474 0.93966 0.96239 0.0
C238 C 0.56926 0.99029 0.9559 0.0
H239 H 0.5116 0.9506 0.96499 0.0
H240 H 0.57754 0.00988 0.95267 0.0
C241 C 0.52762 0.02719 0.03572 0.0
C242 C 0.44122 0.94657 0.05493 0.0
N243 N 0.45668 0.01386 0.03599 0.0
C244 C 0.45897 0.02522 0.06627 0.0
C245 C 0.44376 0.0415 0.07338 0.0
C246 C 0.42552 0.04581 0.04916 0.0
C247 C 0.42459 0.03488 0.01783 0.0
C248 C 0.44046 0.0188 0.01174 0.0
C249 C 0.5533 0.04421 0.92415 0.0
O250 O 0.47508 0.97607 0.97316 0.0
O251 O 0.47973 0.97547 0.92485 0.0
O252 O 0.51608 0.01509 0.00795 0.0
O253 O 0.51577 0.02085 0.05745 0.0
O254 O 0.43854 0.94508 0.02543 0.0
O255 O 0.46103 0.96461 0.07269 0.0
O256 O 0.55565 0.04901 0.9538 0.0
O257 O 0.53459 0.02416 0.90833 0.0
H258 H 0.47194 0.02084 0.08506 0.0
H259 H 0.43904 0.00951 0.98782 0.0
H260 H 0.51437 0.90013 0.02047 0.0
H261 H 0.57376 0.96867 0.08022 0.0
H262 H 0.43121 0.03466 0.90138 0.0
H263 H 0.47543 0.08647 0.98951 0.0
H264 H 0.60517 0.98073 0.95142 0.0
H265 H 0.53814 0.9199 0.96464 0.0
H266 H 0.44579 0.05006 0.09779 0.0
H267 H 0.41091 0.03771 0.99839 0.0
Cd268 Cd 0.98599 0.48635 0.05169 0.0
Cd269 Cd 0.00534 0.50763 0.96213 0.0
C270 C 0.0375 0.47036 0.0781 0.0
N271 N 0.01783 0.46429 0.05158 0.0
C272 C 0.03112 0.42786 0.03141 0.0
C273 C 0.05084 0.43304 0.05924 0.0
C274 C 0.05443 0.45507 0.08231 0.0
C275 C 0.01455 0.44376 0.02816 0.0
H276 H 0.03922 0.48638 0.09669 0.0
H277 H -0.00166 0.43903 0.00761 0.0
C278 C 0.96095 0.46216 0.9685 0.0
C279 C 0.94958 0.51964 0.93864 0.0
C280 C 0.93239 0.53482 0.93501 0.0
C281 C 0.93828 0.55864 0.95597 0.0
C282 C 0.96065 0.5658 0.98136 0.0
C283 C 0.97723 0.54991 0.98423 0.0
N284 N 0.97171 0.5276 0.96265 0.0
H285 H 0.94615 0.50233 0.92116 0.0
H286 H 0.99529 0.55602 0.00273 0.0
C287 C 0.02237 0.46186 0.92624 0.0
N288 N 0.02857 0.47702 0.95543 0.0
C289 C 0.06211 0.45727 0.97285 0.0
C290 C 0.05634 0.44154 0.94271 0.0
C291 C 0.036 0.44396 0.91936 0.0
C292 C 0.04791 0.475 0.97872 0.0
H293 H 0.0071 0.46405 0.90807 0.0
H294 H 0.05249 0.48726 0.00178 0.0
C295 C 0.03305 0.52884 0.0446 0.0
C296 C 0.95601 0.45372 0.08545 0.0
N297 N 0.96612 0.51964 0.05537 0.0
C298 C 0.97644 0.53959 0.0807 0.0
C299 C 0.96395 0.55875 0.08539 0.0
C300 C 0.94023 0.5572 0.06418 0.0
C301 C 0.93051 0.53682 0.0376 0.0
C302 C 0.94384 0.51812 0.03367 0.0
C303 C 0.03385 0.54313 0.93058 0.0
O304 O 0.97433 0.47723 0.99427 0.0
O305 O 0.96681 0.46846 0.94335 0.0
O306 O 0.01781 0.51475 0.01916 0.0
O307 O 0.02728 0.52321 0.07006 0.0
O308 O 0.94949 0.45085 0.05581 0.0
O309 O 0.97645 0.47275 0.10001 0.0
O310 O 0.03725 0.54734 0.96027 0.0
O311 O 0.01676 0.52189 0.91509 0.0
H312 H 0.994 0.54026 0.0978 0.0
H313 H 0.93599 0.502 0.01376 0.0
H314 H 0.02758 0.41097 0.01316 0.0
H315 H 0.06959 0.45992 0.10397 0.0
H316 H 0.91572 0.52877 0.91472 0.0
H317 H 0.96582 0.58392 0.99814 0.0
H318 H 0.07745 0.45593 0.99166 0.0
H319 H 0.03116 0.4327 0.89563 0.0
H320 H 0.97247 0.57432 0.10592 0.0
H321 H 0.91223 0.53473 0.02072 0.0
Cd322 Cd 0.47673 0.48437 0.04148 0.0
Cd323 Cd 0.52296 0.51767 0.96413 0.0
C324 C 0.52079 0.46421 0.07989 0.0
N325 N 0.50852 0.46251 0.04961 0.0
C326 C 0.53267 0.43453 0.03086 0.0
C327 C 0.54573 0.43607 0.06196 0.0
C328 C 0.53969 0.45127 0.0866 0.0
C329 C 0.51406 0.4481 0.02517 0.0
H330 H 0.51571 0.47553 0.09886 0.0
H331 H 0.50386 0.44695 0.00132 0.0
C332 C 0.46854 0.47304 0.95629 0.0
C333 C 0.4749 0.53242 0.92619 0.0
C334 C 0.45549 0.54465 0.91899 0.0
C335 C 0.45045 0.56136 0.94298 0.0
C336 C 0.46467 0.56469 0.97406 0.0
C337 C 0.48383 0.5518 0.98027 0.0
N338 N 0.48864 0.53626 0.95634 0.0
H339 H 0.47959 0.52037 0.90756 0.0
H340 H 0.49532 0.5547 0.004 0.0
C341 C 0.54023 0.47371 0.9278 0.0
N342 N 0.54317 0.48524 0.95817 0.0
C343 C 0.57332 0.4622 0.97587 0.0
C344 C 0.57171 0.45107 0.94447 0.0
C345 C 0.55431 0.45646 0.92038 0.0
C346 C 0.5588 0.47949 0.98225 0.0
H347 H 0.52755 0.47859 0.9092 0.0
H348 H 0.56063 0.48884 0.00624 0.0
C349 C 0.53349 0.52397 0.04793 0.0
C350 C 0.4397 0.45131 0.06971 0.0
N351 N 0.45918 0.51892 0.04675 0.0
C352 C 0.46509 0.53356 0.07619 0.0
C353 C 0.45147 0.5514 0.08325 0.0
C354 C 0.43142 0.55413 0.0598 0.0
C355 C 0.42666 0.53959 0.02915 0.0
C356 C 0.44081 0.52191 0.02313 0.0
C357 C 0.55586 0.55206 0.93294 0.0
O358 O 0.47737 0.4814 0.98565 0.0
O359 O 0.48308 0.48211 0.93782 0.0
O360 O 0.52137 0.51782 0.01926 0.0
O361 O 0.52005 0.5164 0.06804 0.0
O362 O 0.43851 0.44581 0.04025 0.0
O363 O 0.45765 0.47197 0.08525 0.0
O364 O 0.55921 0.55741 0.96279 0.0
O365 O 0.53777 0.53113 0.91854 0.0
H366 H 0.47938 0.53034 0.09464 0.0
H367 H 0.43639 0.5099 -5e-05 0.0
H368 H 0.5368 0.42299 0.01125 0.0
H369 H 0.5489 0.45255 0.11094 0.0
H370 H 0.44549 0.54201 0.89462 0.0
H371 H 0.46136 0.57743 0.9932 0.0
H372 H 0.58646 0.45845 0.9951 0.0
H373 H 0.55206 0.44785 0.89593 0.0
H374 H 0.45553 0.56176 0.10732 0.0
H375 H 0.41164 0.5413 0.01026 0.0
Cd376 Cd 0.98128 0.49024 0.54049 0.0
Cd377 Cd 0.01754 0.51287 0.45869 0.0
C378 C 0.02522 0.46769 0.57396 0.0
N379 N 0.00995 0.4644 0.54469 0.0
C380 C 0.02878 0.43199 0.52464 0.0
C381 C 0.04481 0.43504 0.55469 0.0
C382 C 0.04293 0.45329 0.57947 0.0
C383 C 0.01143 0.44702 0.52011 0.0
H384 H 0.02343 0.48142 0.59317 0.0
H385 H -0.00081 0.44471 0.497 0.0
C386 C 0.96685 0.47066 0.45766 0.0
C387 C 0.96656 0.5258 0.42059 0.0
C388 C 0.94773 0.53881 0.4135 0.0
C389 C 0.94678 0.55949 0.4359 0.0
C390 C 0.96417 0.56554 0.46575 0.0
C391 C 0.98247 0.55171 0.47201 0.0
N392 N 0.98352 0.53247 0.44939 0.0
H393 H 0.96808 0.51077 0.40276 0.0
H394 H 0.99646 0.55689 0.49457 0.0
C395 C 0.03462 0.46729 0.42434 0.0
N396 N 0.03789 0.48016 0.45422 0.0
C397 C 0.07045 0.45991 0.47323 0.0
C398 C 0.06861 0.44761 0.44225 0.0
C399 C 0.04982 0.45086 0.41779 0.0
C400 C 0.05491 0.47643 0.4787 0.0
H401 H 0.02108 0.47078 0.40532 0.0
H402 H 0.05722 0.48698 0.50226 0.0
C403 C 0.03637 0.52822 0.54455 0.0
C404 C 0.94531 0.46498 0.57491 0.0
N405 N 0.96099 0.52213 0.53243 0.0
C406 C 0.9708 0.5457 0.55221 0.0
C407 C 0.95552 0.5628 0.55258 0.0
C408 C 0.92975 0.55542 0.53268 0.0
C409 C 0.92092 0.53159 0.51111 0.0
C410 C 0.93693 0.51508 0.51149 0.0
C411 C 0.05393 0.54652 0.43155 0.0
O412 O 0.98019 0.48317 0.48468 0.0
O413 O 0.97663 0.47638 0.4343 0.0
O414 O 0.02347 0.51985 0.51616 0.0
O415 O 0.02361 0.52286 0.56594 0.0
O416 O 0.94122 0.45792 0.54526 0.0
O417 O 0.96609 0.48401 0.58837 0.0
O418 O 0.05319 0.55242 0.4603 0.0
O419 O 0.03733 0.52527 0.4155 0.0
H420 H 0.98969 0.55057 0.56911 0.0
H421 H 0.92946 0.49601 0.49638 0.0
H422 H 0.02972 0.41823 0.50485 0.0
H423 H 0.05447 0.45592 0.60315 0.0
H424 H 0.93448 0.53305 0.39037 0.0
H425 H 0.96448 0.58148 0.4837 0.0
H426 H 0.08469 0.45785 0.49272 0.0
H427 H 0.04753 0.44141 0.39365 0.0
H428 H 0.96301 0.58077 0.56994 0.0
H429 H 0.90132 0.52524 0.49517 0.0
Cd430 Cd 0.49268 0.9906 0.54691 0.0
Cd431 Cd 0.50982 0.01361 0.45876 0.0
C432 C 0.54274 0.97497 0.57802 0.0
N433 N 0.52646 0.97078 0.5492 0.0
C434 C 0.54352 0.93688 0.52953 0.0
C435 C 0.55948 0.93985 0.55957 0.0
C436 C 0.55964 0.95983 0.58368 0.0
C437 C 0.52697 0.95262 0.52487 0.0
H438 H 0.54154 0.98922 0.59707 0.0
H439 H 0.51377 0.9496 0.50218 0.0
C440 C 0.46677 0.96694 0.46401 0.0
C441 C 0.4527 0.02577 0.44577 0.0
C442 C 0.43525 0.04081 0.44583 0.0
C443 C 0.4435 0.06532 0.46598 0.0
C444 C 0.46869 0.0733 0.48711 0.0
C445 C 0.48546 0.05754 0.4864 0.0
N446 N 0.47746 0.03454 0.46546 0.0
H447 H 0.44701 0.00783 0.42869 0.0
H448 H 0.50543 0.06426 0.50146 0.0
C449 C 0.52509 0.96355 0.43025 0.0
N450 N 0.53377 0.98331 0.45585 0.0
C451 C 0.5707 0.96824 0.47497 0.0
C452 C 0.56213 0.94759 0.44875 0.0
C453 C 0.53887 0.94534 0.42633 0.0
C454 C 0.55613 0.98595 0.47809 0.0
H455 H 0.50768 0.96218 0.41248 0.0
H456 H 0.56269 0.00177 0.49828 0.0
C457 C 0.53715 0.03576 0.54177 0.0
C458 C 0.46384 0.9575 0.58048 0.0
N459 N 0.46686 0.0194 0.54415 0.0
C460 C 0.47651 0.04378 0.5622 0.0
C461 C 0.46028 0.06005 0.56267 0.0
C462 C 0.43366 0.05102 0.5449 0.0
C463 C 0.42438 0.02598 0.52592 0.0
C464 C 0.44146 0.01046 0.52581 0.0
C465 C 0.53694 0.04722 0.42381 0.0
O466 O 0.48135 0.98115 0.48975 0.0
O467 O 0.47103 0.97448 0.43889 0.0
O468 O 0.52296 0.02134 0.51594 0.0
O469 O 0.53184 0.02893 0.5669 0.0
O470 O 0.46092 0.95184 0.55092 0.0
O471 O 0.47978 0.97966 0.59491 0.0
O472 O 0.54297 0.05158 0.4536 0.0
O473 O 0.51784 0.02679 0.40986 0.0
H474 H 0.49649 0.0504 0.57711 0.0
H475 H 0.43419 0.99094 0.51181 0.0
H476 H 0.54272 0.9217 0.51029 0.0
H477 H 0.57196 0.96309 0.60707 0.0
H478 H 0.41628 0.03405 0.42868 0.0
H479 H 0.47578 0.09195 0.50318 0.0
H480 H 0.5884 0.97064 0.49295 0.0
H481 H 0.53188 0.93017 0.40534 0.0
H482 H 0.46808 0.07905 0.57801 0.0
H483 H 0.404 0.01834 0.51181 0.0
H484 H 0.21902 0.16949 0.27102 0.0
H485 H 0.19354 0.13996 0.2997 0.0
H486 H 0.14575 0.19102 0.31535 0.0
H487 H 0.17117 0.22069 0.28691 0.0
H488 H 0.19039 0.15249 0.36282 0.0
H489 H 0.08898 0.11962 0.28321 0.0
H490 H 0.1192 0.13533 0.27081 0.0
H491 H 0.10368 0.15427 0.29398 0.0
C492 C 0.20304 0.1744 0.28041 0.0
C493 C 0.19742 0.19764 0.27693 0.0
C494 C 0.18844 0.15746 0.29674 0.0
C495 C 0.16772 0.16326 0.30959 0.0
C496 C 0.16141 0.18597 0.30525 0.0
H497 H 0.09765 0.10095 0.4591 0.0
H498 H 0.12429 0.12852 0.42911 0.0
C499 C 0.17601 0.20293 0.28896 0.0
C500 C 0.15363 0.14626 0.32887 0.0
H501 H 0.09159 0.10898 0.33386 0.0
C502 C 0.1688 0.14287 0.35646 0.0
C503 C 0.12551 0.13363 0.32039 0.0
C504 C 0.10837 0.13565 0.29034 0.0
C505 C 0.15654 0.12739 0.37602 0.0
C506 C 0.12831 0.11528 0.36793 0.0
C507 C 0.11321 0.11847 0.34016 0.0
C508 C 0.11401 0.09844 0.38724 0.0
C509 C 0.17392 0.12374 0.40482 0.0
C510 C 0.09944 0.07247 0.37369 0.0
C511 C 0.08417 0.05682 0.39062 0.0
C512 C 0.08306 0.06682 0.42151 0.0
C513 C 0.09827 0.09266 0.43545 0.0
C514 C 0.11353 0.1084 0.41837 0.0
H515 H 0.19553 0.12907 0.4036 0.0
H516 H 0.17211 0.13635 0.42596 0.0
H517 H 0.16728 0.1033 0.40785 0.0
H518 H 0.09955 0.06439 0.34975 0.0
H519 H 0.07276 0.03698 0.37919 0.0
H520 H 0.80447 0.2138 0.37656 0.0
H521 H 0.8327 0.18982 0.40018 0.0
H522 H 0.86217 0.1793 0.31522 0.0
H523 H 0.83392 0.20323 0.29117 0.0
H524 H 0.83389 0.13166 0.35543 0.0
H525 H 0.92613 0.21533 0.41039 0.0
H526 H 0.89291 0.21888 0.4079 0.0
H527 H 0.90561 0.21468 0.3729 0.0
C528 C 0.81707 0.20656 0.36289 0.0
C529 C 0.81693 0.21043 0.33193 0.0
C530 C 0.83312 0.19284 0.37645 0.0
C531 C 0.84939 0.18286 0.35937 0.0
C532 C 0.84965 0.18691 0.32867 0.0
H533 H 0.97232 0.11097 0.40138 0.0
H534 H 0.94365 0.13644 0.38369 0.0
C535 C 0.83355 0.2006 0.31503 0.0
C536 C 0.86575 0.16773 0.37341 0.0
H537 H 0.92796 0.17373 0.41626 0.0
C538 C 0.85442 0.14075 0.36887 0.0
C539 C 0.89244 0.17982 0.39076 0.0
C540 C 0.90521 0.20879 0.39596 0.0
C541 C 0.86941 0.12535 0.38088 0.0
C542 C 0.89622 0.13743 0.39835 0.0
C543 C 0.90737 0.16452 0.40306 0.0
C544 C 0.91365 0.12221 0.41017 0.0
C545 C 0.85671 0.09626 0.37381 0.0
C546 C 0.90658 0.10603 0.43144 0.0
C547 C 0.92282 0.09107 0.44133 0.0
C548 C 0.94651 0.09218 0.43024 0.0
C549 C 0.95392 0.10913 0.40981 0.0
C550 C 0.93766 0.12391 0.39987 0.0
H551 H 0.83867 0.08979 0.35408 0.0
H552 H 0.87135 0.08623 0.36775 0.0
H553 H 0.85022 0.09009 0.39495 0.0
H554 H 0.88843 0.10484 0.44024 0.0
H555 H 0.91651 0.07822 0.45704 0.0
H556 H 0.81368 0.82209 0.25951 0.0
H557 H 0.83412 0.86534 0.29355 0.0
H558 H 0.77727 0.8457 0.35269 0.0
H559 H 0.75713 0.8025 0.31902 0.0
H560 H 0.80044 0.90537 0.3419 0.0
H561 H 0.86975 0.85091 0.3841 0.0
H562 H 0.86153 0.84931 0.34238 0.0
H563 H 0.83575 0.83463 0.36183 0.0
C564 C 0.80512 0.82745 0.27922 0.0
C565 C 0.78383 0.80941 0.28676 0.0
C566 C 0.81646 0.8521 0.29828 0.0
C567 C 0.80687 0.85853 0.32524 0.0
C568 C 0.78441 0.84113 0.33153 0.0
H569 H 0.92943 0.95445 0.48209 0.0
H570 H 0.88267 0.92882 0.45813 0.0
C571 C 0.77302 0.81656 0.3124 0.0
C572 C 0.82427 0.87988 0.35053 0.0
H573 H 0.88295 0.89565 0.40481 0.0
C574 C 0.81836 0.90336 0.35603 0.0
C575 C 0.84713 0.87665 0.36913 0.0
C576 C 0.85394 0.85149 0.36434 0.0
C577 C 0.83597 0.92448 0.37892 0.0
C578 C 0.85963 0.92162 0.39625 0.0
C579 C 0.86454 0.89762 0.39174 0.0
C580 C 0.88211 0.94373 0.41515 0.0
C581 C 0.8296 0.94977 0.38392 0.0
C582 C 0.89668 0.96132 0.39941 0.0
C583 C 0.9234 0.97563 0.4129 0.0
C584 C 0.93577 0.97244 0.44224 0.0
C585 C 0.92034 0.9569 0.45932 0.0
C586 C 0.89358 0.94259 0.44585 0.0
H587 H 0.80762 0.94668 0.37642 0.0
H588 H 0.83659 0.95982 0.40902 0.0
H589 H 0.84016 0.96265 0.36965 0.0
H590 H 0.88834 0.96211 0.37548 0.0
H591 H 0.93477 0.98804 0.39958 0.0
H592 H 0.20865 0.80279 0.35871 0.0
H593 H 0.18238 0.82648 0.38379 0.0
H594 H 0.17112 0.86188 0.30315 0.0
H595 H 0.1965 0.83711 0.27715 0.0
H596 H 0.18972 0.87538 0.4029 0.0
H597 H 0.09493 0.83587 0.31162 0.0
H598 H 0.1228 0.82295 0.3113 0.0
H599 H 0.12294 0.85186 0.29619 0.0
C600 C 0.20059 0.8156 0.34622 0.0
C601 C 0.20453 0.81797 0.31583 0.0
C602 C 0.18553 0.82915 0.36063 0.0
C603 C 0.17427 0.84562 0.34519 0.0
C604 C 0.17887 0.84868 0.31519 0.0
H605 H 0.11899 0.96498 0.43842 0.0
H606 H 0.14489 0.93926 0.41602 0.0
C607 C 0.19358 0.83472 0.30045 0.0
C608 C 0.15813 0.85976 0.36095 0.0
H609 H 0.09737 0.87146 0.35143 0.0
C610 C 0.16947 0.87439 0.39166 0.0
C611 C 0.13146 0.85807 0.34666 0.0
C612 C 0.1172 0.84112 0.31478 0.0
C613 C 0.15511 0.88765 0.40822 0.0
C614 C 0.12901 0.88709 0.39327 0.0
C615 C 0.11747 0.87211 0.3628 0.0
C616 C 0.1136 0.90242 0.40842 0.0
C617 C 0.16791 0.90168 0.44179 0.0
C618 C 0.0871 0.89041 0.41105 0.0
C619 C 0.07206 0.90519 0.42356 0.0
C620 C 0.08333 0.93222 0.43378 0.0
C621 C 0.10996 0.94411 0.43146 0.0
C622 C 0.12484 0.92941 0.41868 0.0
H623 H 0.18298 0.8931 0.45285 0.0
H624 H 0.17861 0.92227 0.44208 0.0
H625 H 0.15257 0.90111 0.45631 0.0
H626 H 0.07796 0.86963 0.40316 0.0
H627 H 0.05159 0.89552 0.42505 0.0
H628 H 0.17808 0.81778 0.71261 0.0
H629 H 0.15606 0.84589 0.6879 0.0
H630 H 0.11037 0.78156 0.6118 0.0
H631 H 0.13291 0.75343 0.63595 0.0
H632 H 0.13564 0.82386 0.59053 0.0
H633 H 0.08164 0.85289 0.68026 0.0
H634 H 0.1169 0.8591 0.69588 0.0
H635 H 0.09537 0.82619 0.68114 0.0
C636 C 0.16282 0.80941 0.69106 0.0
C637 C 0.1572 0.78336 0.67622 0.0
C638 C 0.15024 0.82554 0.67694 0.0
C639 C 0.13144 0.81578 0.6481 0.0
C640 C 0.12485 0.78948 0.63404 0.0
H641 H 0.03724 0.88306 0.52423 0.0
H642 H 0.06219 0.85501 0.54454 0.0
C643 C 0.13763 0.7734 0.64795 0.0
C644 C 0.12015 0.83339 0.63149 0.0
H645 H 0.0854 0.87709 0.63959 0.0
C646 C 0.12448 0.83538 0.60115 0.0
C647 C 0.10574 0.84848 0.64545 0.0
C648 C 0.09939 0.84641 0.67735 0.0
C649 C 0.1151 0.85237 0.58459 0.0
C650 C 0.10088 0.86755 0.59869 0.0
C651 C 0.09653 0.86554 0.62897 0.0
C652 C 0.08959 0.88529 0.58246 0.0
C653 C 0.12089 0.85432 0.55245 0.0
C654 C 0.09727 0.91168 0.59651 0.0
C655 C 0.08302 0.9276 0.58505 0.0
C656 C 0.06082 0.91734 0.55943 0.0
C657 C 0.05444 0.89143 0.54384 0.0
C658 C 0.06867 0.87543 0.55543 0.0
H659 H 0.13756 0.84645 0.54835 0.0
H660 H 0.10256 0.84294 0.53422 0.0
H661 H 0.12623 0.87478 0.54941 0.0
H662 H 0.1134 0.91964 0.61734 0.0
H663 H 0.08839 0.94761 0.59728 0.0
H664 H 0.22998 0.16847 0.73806 0.0
H665 H 0.21901 0.12512 0.70459 0.0
H666 H 0.16369 0.14535 0.63626 0.0
H667 H 0.1745 0.1883 0.66945 0.0
H668 H 0.164 0.09046 0.68453 0.0
H669 H 0.20902 0.11125 0.58331 0.0
H670 H 0.22243 0.1311 0.62253 0.0
H671 H 0.19455 0.13574 0.59684 0.0
C672 C 0.21562 0.16352 0.71574 0.0
C673 C 0.20307 0.18145 0.70607 0.0
C674 C 0.20959 0.13901 0.69668 0.0
C675 C 0.19133 0.13255 0.66759 0.0
C676 C 0.17854 0.1504 0.65822 0.0
H677 H 0.06682 0.06648 0.54295 0.0
H678 H 0.11461 0.08519 0.56851 0.0
C679 C 0.18427 0.17465 0.67739 0.0
C680 C 0.18209 0.10611 0.64854 0.0
H681 H 0.16401 0.07844 0.57066 0.0
C682 C 0.16472 0.08703 0.65982 0.0
C683 C 0.18378 0.10173 0.61668 0.0
C684 C 0.20373 0.12098 0.60421 0.0
C685 C 0.14528 0.06588 0.63895 0.0
C686 C 0.14406 0.06371 0.60615 0.0
C687 C 0.16465 0.08041 0.59569 0.0
C688 C 0.11839 0.04995 0.58328 0.0
C689 C 0.12411 0.04835 0.652 0.0
C690 C 0.10515 0.0236 0.58146 0.0
C691 C 0.07763 0.01336 0.56809 0.0
C692 C 0.06354 0.02907 0.55521 0.0
C693 C 0.07745 0.05431 0.55327 0.0
C694 C 0.10474 0.06482 0.56756 0.0
H695 H 0.12718 0.05417 0.67794 0.0
H696 H 0.1037 0.04864 0.64112 0.0
H697 H 0.12479 0.02814 0.64663 0.0
H698 H 0.11552 0.01156 0.59245 0.0
H699 H 0.06716 0.99352 0.56888 0.0
H700 H 0.81241 0.18058 0.72309 0.0
H701 H 0.83795 0.15479 0.69925 0.0
H702 H 0.80188 0.1623 0.60704 0.0
H703 H 0.77661 0.18824 0.63051 0.0
H704 H 0.81989 0.10807 0.65331 0.0
H705 H 0.8831 0.18958 0.61069 0.0
H706 H 0.86327 0.19453 0.63932 0.0
H707 H 0.8474 0.18346 0.59825 0.0
C708 C 0.80983 0.17663 0.69773 0.0
C709 C 0.79268 0.18666 0.67872 0.0
C710 C 0.82443 0.16193 0.68417 0.0
C711 C 0.82217 0.15712 0.65146 0.0
C712 C 0.80437 0.16632 0.63238 0.0
H713 H 0.89972 0.07618 0.52861 0.0
H714 H 0.87147 0.10035 0.54949 0.0
C715 C 0.78984 0.18103 0.64587 0.0
C716 C 0.83853 0.14258 0.63722 0.0
H717 H 0.88745 0.148 0.59457 0.0
C718 C 0.83472 0.11679 0.64055 0.0
C719 C 0.85775 0.15403 0.62045 0.0
C720 C 0.86336 0.18199 0.61713 0.0
C721 C 0.8495 0.10202 0.6273 0.0
C722 C 0.86889 0.11356 0.6108 0.0
C723 C 0.87251 0.13926 0.60719 0.0
C724 C 0.88631 0.09953 0.59812 0.0
C725 C 0.844 0.0741 0.63071 0.0
C726 C 0.90439 0.09168 0.61864 0.0
C727 C 0.92043 0.07791 0.60685 0.0
C728 C 0.91888 0.07186 0.57427 0.0
C729 C 0.90121 0.08035 0.55378 0.0
C730 C 0.88514 0.09419 0.56565 0.0
H731 H 0.82402 0.06631 0.63647 0.0
H732 H 0.84475 0.06164 0.6088 0.0
H733 H 0.85966 0.07282 0.65012 0.0
H734 H 0.90591 0.09603 0.64381 0.0
H735 H 0.9335 0.07135 0.62327 0.0
H736 H 0.82237 0.7729 0.70739 0.0
H737 H 0.84985 0.80161 0.67969 0.0
H738 H 0.81006 0.85883 0.70145 0.0
H739 H 0.78208 0.83003 0.7287 0.0
H740 H 0.81141 0.84941 0.63931 0.0
H741 H 0.91339 0.86695 0.71244 0.0
H742 H 0.89486 0.8332 0.69826 0.0
H743 H 0.88296 0.85287 0.72541 0.0
C744 C 0.81975 0.79176 0.70687 0.0
C745 C 0.79998 0.79909 0.72046 0.0
C746 C 0.83557 0.80822 0.691 0.0
C747 C 0.83223 0.83252 0.6887 0.0
C748 C 0.81303 0.84019 0.70293 0.0
H749 H 0.93646 0.95913 0.62832 0.0
H750 H 0.90991 0.93003 0.65641 0.0
C751 C 0.79712 0.82371 0.71866 0.0
C752 C 0.84765 0.84939 0.6701 0.0
H753 H 0.91137 0.88153 0.66408 0.0
C754 C 0.83327 0.85648 0.64477 0.0
C755 C 0.87618 0.85873 0.67731 0.0
C756 C 0.89279 0.85278 0.705 0.0
C757 C 0.8466 0.87261 0.62647 0.0
C758 C 0.87512 0.88156 0.63332 0.0
C759 C 0.88951 0.87449 0.65867 0.0
C760 C 0.8905 0.89925 0.61549 0.0
C761 C 0.82999 0.88046 0.60049 0.0
C762 C 0.88844 0.89167 0.58301 0.0
C763 C 0.90356 0.9084 0.56674 0.0
C764 C 0.92117 0.93293 0.58274 0.0
C765 C 0.92307 0.94042 0.61522 0.0
C766 C 0.90795 0.92376 0.63138 0.0
H767 H 0.80888 0.87728 0.60325 0.0
H768 H 0.83899 0.90123 0.59984 0.0
H769 H 0.82942 0.86862 0.57753 0.0
H770 H 0.87548 0.87266 0.57034 0.0
H771 H 0.9018 0.90196 0.5418 0.0
H772 H 0.3538 0.19787 0.21605 0.0
H773 H 0.36685 0.1711 0.17631 0.0
H774 H 0.28516 0.14428 0.12144 0.0
H775 H 0.27161 0.17066 0.16207 0.0
H776 H 0.30488 0.10505 0.12305 0.0
H777 H 0.38067 0.18363 0.09276 0.0
H778 H 0.38829 0.18558 0.13441 0.0
H779 H 0.3572 0.19004 0.11588 0.0
C780 C 0.33855 0.18644 0.19547 0.0
C781 C 0.31168 0.18656 0.19212 0.0
C782 C 0.34614 0.17129 0.17255 0.0
C783 C 0.32722 0.15628 0.14533 0.0
C784 C 0.30021 0.156 0.14203 0.0
H785 H 0.40815 0.0807 0.01834 0.0
H786 H 0.37865 0.10565 0.03386 0.0
C787 C 0.29248 0.17102 0.16527 0.0
C788 C 0.33574 0.13985 0.1216 0.0
H789 H 0.3875 0.14102 0.0842 0.0
C790 C 0.3226 0.11299 0.11398 0.0
C791 C 0.35831 0.15014 0.10877 0.0
C792 C 0.37168 0.17898 0.1131 0.0
C793 C 0.33282 0.09602 0.09624 0.0
C794 C 0.35733 0.10611 0.08678 0.0
C795 C 0.36907 0.13312 0.09199 0.0
C796 C 0.3727 0.08913 0.07494 0.0
C797 C 0.31749 0.06741 0.08843 0.0
C798 C 0.3792 0.07157 0.09276 0.0
C799 C 0.39565 0.05715 0.08378 0.0
C800 C 0.40669 0.06034 0.05712 0.0
C801 C 0.39991 0.07767 0.03892 0.0
C802 C 0.38313 0.09201 0.04783 0.0
H803 H 0.29544 0.06424 0.08519 0.0
H804 H 0.32144 0.05741 0.06674 0.0
H805 H 0.32358 0.05837 0.1083 0.0
H806 H 0.37215 0.06948 0.11425 0.0
H807 H 0.39992 0.04362 0.09804 0.0
H808 H 0.7763 0.28209 0.14034 0.0
H809 H 0.81701 0.3071 0.12646 0.0
H810 H 0.85923 0.32536 0.2237 0.0
H811 H 0.81837 0.30069 0.23796 0.0
H812 H 0.85886 0.36806 0.199 0.0
H813 H 0.89026 0.30042 0.11851 0.0
H814 H 0.85495 0.29652 0.10713 0.0
H815 H 0.86805 0.28942 0.14418 0.0
C816 C 0.7944 0.29093 0.15868 0.0
C817 C 0.79407 0.28981 0.19029 0.0
C818 C 0.81774 0.30498 0.15065 0.0
C819 C 0.84116 0.31781 0.17404 0.0
C820 C 0.84135 0.31542 0.20535 0.0
H821 H 0.9701 0.44874 0.14638 0.0
H822 H 0.94621 0.41509 0.17174 0.0
C823 C 0.81798 0.30144 0.21343 0.0
C824 C 0.86358 0.33703 0.16647 0.0
H825 H 0.90379 0.34551 0.1135 0.0
C826 C 0.86925 0.36314 0.18088 0.0
C827 C 0.87689 0.33044 0.14275 0.0
C828 C 0.87241 0.30262 0.12749 0.0
C829 C 0.8865 0.38306 0.17062 0.0
C830 C 0.89871 0.37652 0.14575 0.0
C831 C 0.89426 0.35035 0.13255 0.0
C832 C 0.91376 0.39652 0.13085 0.0
C833 C 0.89009 0.41092 0.18499 0.0
C834 C 0.90344 0.3969 0.09952 0.0
C835 C 0.91699 0.41587 0.08503 0.0
C836 C 0.9411 0.43481 0.10169 0.0
C837 C 0.95139 0.43451 0.13316 0.0
C838 C 0.93785 0.41534 0.14762 0.0
H839 H 0.87551 0.41252 0.20008 0.0
H840 H 0.91076 0.41987 0.19977 0.0
H841 H 0.88758 0.42227 0.16634 0.0
H842 H 0.88477 0.38255 0.08631 0.0
H843 H 0.90862 0.41562 0.06074 0.0
H844 H 0.66265 0.76215 0.12863 0.0
H845 H 0.64254 0.78915 0.09879 0.0
H846 H 0.66827 0.85068 0.18113 0.0
H847 H 0.6887 0.8241 0.21095 0.0
H848 H 0.60167 0.80801 0.11187 0.0
H849 H 0.69171 0.8897 0.11377 0.0
H850 H 0.69405 0.85929 0.12334 0.0
H851 H 0.68929 0.88348 0.15227 0.0
C852 C 0.66438 0.78157 0.14027 0.0
C853 C 0.67731 0.79095 0.17219 0.0
C854 C 0.65285 0.79696 0.12318 0.0
C855 C 0.65423 0.82207 0.13758 0.0
C856 C 0.66749 0.83161 0.16929 0.0
H857 H 0.57723 0.93681 0.10994 0.0
H858 H 0.60446 0.90984 0.12681 0.0
C859 C 0.67901 0.81628 0.18638 0.0
C860 C 0.64007 0.83759 0.12033 0.0
H861 H 0.64884 0.89718 0.10096 0.0
C862 C 0.61204 0.82733 0.10897 0.0
C863 C 0.65363 0.86282 0.11663 0.0
C864 C 0.68387 0.87439 0.12687 0.0
C865 C 0.59705 0.84205 0.09529 0.0
C866 C 0.6105 0.86756 0.09256 0.0
C867 C 0.63861 0.87758 0.10309 0.0
C868 C 0.59542 0.88477 0.0811 0.0
C869 C 0.56678 0.83069 0.08513 0.0
C870 C 0.58169 0.87988 0.04958 0.0
C871 C 0.56627 0.89553 0.03964 0.0
C872 C 0.5643 0.91631 0.06112 0.0
C873 C 0.5786 0.92133 0.09255 0.0
C874 C 0.59408 0.90582 0.10235 0.0
H875 H 0.55912 0.81213 0.09293 0.0
H876 H 0.55689 0.84463 0.09473 0.0
H877 H 0.56078 0.82696 0.05907 0.0
H878 H 0.58274 0.86384 0.03275 0.0
H879 H 0.5559 0.89135 0.01518 0.0
H880 H 0.21083 0.74742 0.14461 0.0
H881 H 0.18672 0.72064 0.09215 0.0
H882 H 0.15065 0.65812 0.13604 0.0
H883 H 0.17468 0.68425 0.18773 0.0
H884 H 0.18225 0.6483 0.08444 0.0
H885 H 0.10004 0.69117 0.05324 0.0
H886 H 0.13478 0.71073 0.06903 0.0
H887 H 0.11476 0.69596 0.09453 0.0
C888 C 0.19729 0.72813 0.14285 0.0
C889 C 0.19452 0.71774 0.17 0.0
C890 C 0.18379 0.71289 0.11303 0.0
C891 C 0.1673 0.68741 0.11044 0.0
C892 C 0.16361 0.67768 0.13768 0.0
H893 H 0.04758 0.57451 0.08566 0.0
H894 H 0.0825 0.61438 0.08572 0.0
C895 C 0.1772 0.69262 0.16715 0.0
C896 C 0.15379 0.66973 0.07998 0.0
H897 H 0.08866 0.64489 0.03955 0.0
C898 C 0.16215 0.64774 0.07313 0.0
C899 C 0.12802 0.66951 0.06489 0.0
C900 C 0.11878 0.69315 0.0705 0.0
C901 C 0.14353 0.62394 0.05682 0.0
C902 C 0.1163 0.62272 0.04665 0.0
C903 C 0.10947 0.64586 0.04805 0.0
C904 C 0.09436 0.59851 0.04424 0.0
C905 C 0.15227 0.59984 0.05472 0.0
C906 C 0.08983 0.57619 0.02131 0.0
C907 C 0.07023 0.55314 0.02183 0.0
C908 C 0.05464 0.55241 0.04475 0.0
C909 C 0.05933 0.57467 0.0677 0.0
C910 C 0.07899 0.5975 0.06743 0.0
H911 H 0.17419 0.60428 0.06457 0.0
H912 H 0.14092 0.58623 0.06771 0.0
H913 H 0.14784 0.58983 0.02975 0.0
H914 H 0.10147 0.57652 0.00326 0.0
H915 H 0.06733 0.53588 0.00444 0.0
H916 H 0.30333 0.81782 0.77246 0.0
H917 H 0.32206 0.8622 0.80296 0.0
H918 H 0.25294 0.8513 0.84548 0.0
H919 H 0.23417 0.80661 0.81477 0.0
H920 H 0.30746 0.90947 0.82173 0.0
H921 H 0.31635 0.85169 0.91561 0.0
H922 H 0.30611 0.83584 0.8747 0.0
H923 H 0.28359 0.84895 0.89322 0.0
C924 C 0.29159 0.82539 0.78717 0.0
C925 C 0.26749 0.80913 0.79154 0.0
C926 C 0.30221 0.8507 0.80454 0.0
C927 C 0.28906 0.85977 0.82686 0.0
C928 C 0.26341 0.84451 0.82852 0.0
H929 H 0.4239 0.96183 0.97563 0.0
H930 H 0.37547 0.94184 0.95296 0.0
C931 C 0.25268 0.81913 0.81093 0.0
C932 C 0.30529 0.88197 0.85234 0.0
H933 H 0.34888 0.89181 0.92269 0.0
C934 C 0.31585 0.90605 0.84438 0.0
C935 C 0.31593 0.87759 0.88212 0.0
C936 C 0.30505 0.85217 0.89214 0.0
C937 C 0.33887 0.92466 0.86381 0.0
C938 C 0.35179 0.9186 0.89124 0.0
C939 C 0.3391 0.89614 0.90132 0.0
C940 C 0.38062 0.93185 0.90547 0.0
C941 C 0.35035 0.9498 0.85357 0.0
C942 C 0.39946 0.93178 0.88653 0.0
C943 C 0.42691 0.94273 0.89941 0.0
C944 C 0.43615 0.95374 0.93162 0.0
C945 C 0.41735 0.95313 0.95084 0.0
C946 C 0.38972 0.94212 0.93787 0.0
H947 H 0.33396 0.9561 0.84101 0.0
H948 H 0.36258 0.96549 0.87393 0.0
H949 H 0.36339 0.94684 0.83696 0.0
H950 H 0.39293 0.923 0.86169 0.0
H951 H 0.4409 0.94281 0.88399 0.0
H952 H 0.21352 0.3504 0.80715 0.0
H953 H 0.19178 0.37257 0.84182 0.0
H954 H 0.13926 0.29874 0.84899 0.0
H955 H 0.16131 0.27626 0.81443 0.0
H956 H 0.13871 0.36932 0.82685 0.0
H957 H 0.16129 0.33855 0.94048 0.0
H958 H 0.17977 0.33482 0.91002 0.0
H959 H 0.147 0.31231 0.90688 0.0
C960 C 0.19759 0.33879 0.8164 0.0
C961 C 0.189 0.31152 0.80779 0.0
C962 C 0.18521 0.35153 0.83632 0.0
C963 C 0.16395 0.33738 0.8482 0.0
C964 C 0.15592 0.3101 0.8406 0.0
H965 H 0.03771 0.39263 0.90578 0.0
H966 H 0.06439 0.36637 0.88597 0.0
C967 C 0.16845 0.29726 0.8207 0.0
C968 C 0.14866 0.35139 0.86574 0.0
H969 H 0.12883 0.36141 0.93547 0.0
C970 C 0.13668 0.36762 0.85064 0.0
C971 C 0.14609 0.34931 0.89687 0.0
C972 C 0.1594 0.333 0.9147 0.0
C973 C 0.12198 0.38153 0.86556 0.0
C974 C 0.1189 0.37903 0.89634 0.0
C975 C 0.1311 0.3631 0.91176 0.0
C976 C 0.1028 0.39291 0.91232 0.0
C977 C 0.10981 0.39894 0.84837 0.0
C978 C 0.11556 0.4162 0.9344 0.0
C979 C 0.10037 0.43145 0.94557 0.0
C980 C 0.07216 0.42366 0.93478 0.0
C981 C 0.05942 0.39951 0.91409 0.0
C982 C 0.07459 0.38434 0.90292 0.0
H983 H 0.1171 0.40149 0.82642 0.0
H984 H 0.08753 0.39038 0.84208 0.0
H985 H 0.11468 0.41833 0.86377 0.0
H986 H 0.13734 0.42318 0.94181 0.0
H987 H 0.11089 0.44997 0.96133 0.0
H988 H 0.63894 0.20605 0.76543 0.0
H989 H 0.62042 0.17234 0.79363 0.0
H990 H 0.69981 0.16628 0.82503 0.0
H991 H 0.71864 0.2 0.7969 0.0
H992 H 0.65401 0.11668 0.80203 0.0
H993 H 0.63878 0.18928 0.89358 0.0
H994 H 0.62597 0.19095 0.85366 0.0
H995 H 0.66163 0.19804 0.86788 0.0
C996 C 0.65243 0.19736 0.77801 0.0
C997 C 0.68026 0.20585 0.77924 0.0
C998 C 0.64184 0.17819 0.79413 0.0
C999 C 0.6589 0.16724 0.81161 0.0
C1000 C 0.68645 0.1747 0.8117 0.0
H1001 H 0.60032 0.08256 0.95205 0.0
H1002 H 0.63026 0.11105 0.92615 0.0
C1003 C 0.69711 0.19395 0.79567 0.0
C1004 C 0.64798 0.14892 0.831 0.0
H1005 H 0.61745 0.14486 0.89313 0.0
C1006 C 0.64624 0.12277 0.82216 0.0
C1007 C 0.63855 0.15721 0.85762 0.0
C1008 C 0.64149 0.18544 0.86903 0.0
C1009 C 0.6339 0.10429 0.83847 0.0
C1010 C 0.62274 0.11232 0.86376 0.0
C1011 C 0.62581 0.13873 0.87353 0.0
C1012 C 0.60618 0.09361 0.87912 0.0
C1013 C 0.63279 0.0764 0.82831 0.0
C1014 C 0.58273 0.07452 0.86121 0.0
C1015 C 0.56573 0.05819 0.87586 0.0
C1016 C 0.57168 0.06101 0.90873 0.0
C1017 C 0.59521 0.08007 0.92667 0.0
C1018 C 0.61235 0.09625 0.91193 0.0
H1019 H 0.6496 0.07502 0.81671 0.0
H1020 H 0.63371 0.0665 0.8486 0.0
H1021 H 0.61359 0.06591 0.81101 0.0
H1022 H 0.57718 0.0727 0.83596 0.0
H1023 H 0.54763 0.04376 0.8615 0.0
H1024 H 0.77571 0.64707 0.80246 0.0
H1025 H 0.80302 0.63011 0.83894 0.0
H1026 H 0.86792 0.70208 0.85844 0.0
H1027 H 0.84044 0.71949 0.82171 0.0
H1028 H 0.85432 0.62581 0.82984 0.0
H1029 H 0.86109 0.68433 0.94728 0.0
H1030 H 0.83461 0.68092 0.91365 0.0
H1031 H 0.86815 0.70138 0.91609 0.0
C1032 C 0.79568 0.6595 0.81467 0.0
C1033 C 0.80597 0.6846 0.80896 0.0
C1034 C 0.81124 0.64975 0.83562 0.0
C1035 C 0.83741 0.66485 0.8515 0.0
C1036 C 0.8476 0.69024 0.84671 0.0
H1037 H 0.95848 0.61096 0.95924 0.0
H1038 H 0.93461 0.63923 0.93757 0.0
C1039 C 0.83194 0.70011 0.82564 0.0
C1040 C 0.85447 0.65278 0.8707 0.0
H1041 H 0.88317 0.65217 0.94615 0.0
C1042 C 0.86074 0.63167 0.85525 0.0
C1043 C 0.86293 0.66059 0.90381 0.0
C1044 C 0.85632 0.68296 0.92141 0.0
C1045 C 0.87482 0.61781 0.87201 0.0
C1046 C 0.88245 0.62497 0.9052 0.0
C1047 C 0.87701 0.64662 0.92071 0.0
C1048 C 0.89574 0.60964 0.92372 0.0
C1049 C 0.88135 0.59549 0.85408 0.0
C1050 C 0.8815 0.58401 0.92432 0.0
C1051 C 0.89501 0.56783 0.93676 0.0
C1052 C 0.92303 0.57701 0.94884 0.0
C1053 C 0.93686 0.60331 0.95032 0.0
C1054 C 0.92329 0.61949 0.93785 0.0
H1055 H 0.87929 0.59601 0.82865 0.0
H1056 H 0.90221 0.59573 0.86389 0.0
H1057 H 0.86728 0.5769 0.85626 0.0
H1058 H 0.86013 0.57616 0.9138 0.0
H1059 H 0.88372 0.54781 0.93574 0.0
H1060 H 0.21638 0.30394 0.13525 0.0
H1061 H 0.1896 0.3256 0.10446 0.0
H1062 H 0.12622 0.30276 0.15437 0.0
H1063 H 0.15279 0.28112 0.18542 0.0
H1064 H 0.11312 0.30074 0.07883 0.0
H1065 H 0.17698 0.39314 0.16062 0.0
H1066 H 0.19283 0.37033 0.14504 0.0
H1067 H 0.17189 0.36221 0.17246 0.0
C1068 C 0.19651 0.303 0.13925 0.0
C1069 C 0.18685 0.29102 0.16306 0.0
C1070 C 0.18125 0.31537 0.12158 0.0
C1071 C 0.15605 0.31577 0.12727 0.0
C1072 C 0.14561 0.30251 0.1496 0.0
H1073 H 0.06019 0.41572 0.11354 0.0
H1074 H 0.08599 0.38642 0.12575 0.0
C1075 C 0.16088 0.29025 0.16739 0.0
C1076 C 0.14205 0.33261 0.11291 0.0
H1077 H 0.14109 0.3953 0.12298 0.0
C1078 C 0.11933 0.32147 0.0881 0.0
C1079 C 0.15024 0.35955 0.12534 0.0
C1080 C 0.17426 0.37221 0.1524 0.0
C1081 C 0.10417 0.33668 0.07581 0.0
C1082 C 0.11209 0.36357 0.08873 0.0
C1083 C 0.13519 0.3747 0.11303 0.0
C1084 C 0.09537 0.3802 0.07982 0.0
C1085 C 0.07922 0.3238 0.05007 0.0
C1086 C 0.09199 0.38635 0.04979 0.0
C1087 C 0.07726 0.40333 0.04273 0.0
C1088 C 0.06599 0.41453 0.06574 0.0
C1089 C 0.06913 0.4079 0.09554 0.0
C1090 C 0.0837 0.39101 0.10249 0.0
H1091 H 0.07376 0.30228 0.04572 0.0
H1092 H 0.06189 0.32966 0.05616 0.0
H1093 H 0.08276 0.33019 0.02792 0.0
H1094 H 0.10115 0.37845 0.03209 0.0
H1095 H 0.07522 0.40815 0.01961 0.0
H1096 H 0.2063 0.63841 0.77927 0.0
H1097 H 0.17013 0.61538 0.80251 0.0
H1098 H 0.1829 0.68524 0.87056 0.0
H1099 H 0.21886 0.70849 0.84748 0.0
H1100 H 0.17301 0.6098 0.86695 0.0
H1101 H 0.10165 0.6627 0.82691 0.0
H1102 H 0.13066 0.66274 0.81027 0.0
H1103 H 0.1348 0.68263 0.8481 0.0
C1104 C 0.20151 0.6488 0.79929 0.0
C1105 C 0.21517 0.67524 0.81143 0.0
C1106 C 0.18087 0.63568 0.81243 0.0
C1107 C 0.17372 0.64889 0.83772 0.0
C1108 C 0.1879 0.67501 0.85058 0.0
H1109 H 0.06916 0.59073 0.95821 0.0
H1110 H 0.1018 0.61844 0.93462 0.0
C1111 C 0.20847 0.68815 0.83746 0.0
C1112 C 0.15145 0.63524 0.85081 0.0
H1113 H 0.08818 0.63322 0.86003 0.0
C1114 C 0.15443 0.61482 0.86541 0.0
C1115 C 0.12741 0.6421 0.84864 0.0
C1116 C 0.12322 0.66361 0.83243 0.0
C1117 C 0.13381 0.60098 0.87815 0.0
C1118 C 0.10982 0.6078 0.87593 0.0
C1119 C 0.10678 0.62825 0.86147 0.0
C1120 C 0.08766 0.59344 0.88848 0.0
C1121 C 0.13763 0.57915 0.89396 0.0
C1122 C 0.06872 0.57077 0.86981 0.0
C1123 C 0.05014 0.55483 0.88314 0.0
C1124 C 0.05053 0.56148 0.91528 0.0
C1125 C 0.06862 0.58503 0.93342 0.0
C1126 C 0.08714 0.60093 0.92005 0.0
H1127 H 0.15773 0.57651 0.89398 0.0
H1128 H 0.13538 0.58311 0.91867 0.0
H1129 H 0.12181 0.56072 0.8817 0.0
H1130 H 0.06913 0.56489 0.84534 0.0
H1131 H 0.03634 0.53683 0.86868 0.0
H1132 H 0.28491 0.16796 0.80741 0.0
H1133 H 0.30382 0.14249 0.84113 0.0
H1134 H 0.38128 0.20147 0.86275 0.0
H1135 H 0.36262 0.22704 0.82945 0.0
H1136 H 0.34642 0.12364 0.83122 0.0
H1137 H 0.37239 0.18667 0.9496 0.0
H1138 H 0.34921 0.19062 0.91689 0.0
H1139 H 0.38502 0.20327 0.92032 0.0
C1140 C 0.30585 0.17571 0.81976 0.0
C1141 C 0.32225 0.19955 0.8157 0.0
C1142 C 0.31663 0.16112 0.83901 0.0
C1143 C 0.34387 0.17024 0.85483 0.0
C1144 C 0.36007 0.19429 0.85136 0.0
H1145 H 0.46562 0.11467 0.9483 0.0
H1146 H 0.4371 0.14025 0.92953 0.0
C1147 C 0.34939 0.20881 0.83207 0.0
C1148 C 0.35609 0.15368 0.87254 0.0
H1149 H 0.39313 0.15298 0.94379 0.0
C1150 C 0.35626 0.12983 0.85597 0.0
C1151 C 0.36911 0.16191 0.90476 0.0
C1152 C 0.36876 0.18691 0.92405 0.0
C1153 C 0.37008 0.11451 0.87029 0.0
C1154 C 0.38354 0.12293 0.90241 0.0
C1155 C 0.38278 0.14649 0.91923 0.0
C1156 C 0.39992 0.10831 0.91818 0.0
C1157 C 0.37125 0.0901 0.85036 0.0
C1158 C 0.38836 0.08218 0.91947 0.0
C1159 C 0.40466 0.0675 0.9299 0.0
C1160 C 0.43276 0.07883 0.93983 0.0
C1161 C 0.44402 0.10548 0.9409 0.0
C1162 C 0.42775 0.12008 0.93008 0.0
H1163 H 0.3657 0.08986 0.8248 0.0
H1164 H 0.39174 0.088 0.85574 0.0
H1165 H 0.35679 0.07299 0.85538 0.0
H1166 H 0.36684 0.07288 0.91128 0.0
H1167 H 0.39544 0.04706 0.92926 0.0
H1168 H 0.78612 0.24786 0.84638 0.0
H1169 H 0.81118 0.27047 0.9003 0.0
H1170 H 0.83674 0.34175 0.86688 0.0
H1171 H 0.81213 0.31972 0.81394 0.0
H1172 H 0.86843 0.30133 0.92284 0.0
H1173 H 0.80199 0.36095 0.94119 0.0
H1174 H 0.79051 0.32983 0.91418 0.0
H1175 H 0.807 0.35901 0.90172 0.0
C1176 C 0.79736 0.2683 0.85071 0.0
C1177 C 0.797 0.28219 0.8262 0.0
C1178 C 0.8114 0.28115 0.88141 0.0
C1179 C 0.82495 0.30788 0.88757 0.0
C1180 C 0.82561 0.32127 0.86273 0.0
H1181 H 0.95475 0.41659 0.9307 0.0
H1182 H 0.92131 0.37497 0.92707 0.0
C1183 C 0.81169 0.30863 0.83245 0.0
C1184 C 0.83974 0.32268 0.91926 0.0
H1185 H 0.85134 0.38457 0.95725 0.0
C1186 C 0.86434 0.31909 0.93164 0.0
C1187 C 0.83394 0.34523 0.93193 0.0
C1188 C 0.80672 0.34879 0.92176 0.0
C1189 C 0.8851 0.33966 0.95193 0.0
C1190 C 0.88113 0.36427 0.95861 0.0
C1191 C 0.85491 0.36606 0.95123 0.0
C1192 C 0.90391 0.38862 0.96497 0.0
C1193 C 0.91176 0.3355 0.96361 0.0
C1194 C 0.90468 0.41061 0.98647 0.0
C1195 C 0.9233 0.4347 0.98769 0.0
C1196 C 0.94154 0.43702 0.96775 0.0
C1197 C 0.94096 0.41513 0.94649 0.0
C1198 C 0.92224 0.3912 0.94499 0.0
H1199 H 0.90839 0.31643 0.97084 0.0
H1200 H 0.92272 0.33499 0.94422 0.0
H1201 H 0.92452 0.35103 0.98385 0.0
H1202 H 0.89022 0.40934 0.00141 0.0
H1203 H 0.92277 0.45169 0.00327 0.0
H1204 H 0.7265 0.83292 0.83437 0.0
H1205 H 0.71184 0.85908 0.87401 0.0
H1206 H 0.63047 0.80725 0.84202 0.0
H1207 H 0.64488 0.78097 0.80311 0.0
H1208 H 0.67512 0.88481 0.86283 0.0
H1209 H 0.6398 0.81402 0.93599 0.0
H1210 H 0.66077 0.80899 0.90874 0.0
H1211 H 0.62483 0.80106 0.89507 0.0
C1212 C 0.70557 0.82693 0.83613 0.0
C1213 C 0.68688 0.80484 0.81559 0.0
C1214 C 0.69723 0.84187 0.85879 0.0
C1215 C 0.67015 0.83484 0.86143 0.0
C1216 C 0.6516 0.81268 0.8411 0.0
H1217 H 0.55486 0.89816 0.92345 0.0
H1218 H 0.58131 0.8708 0.90603 0.0
C1219 C 0.65987 0.79778 0.81859 0.0
C1220 C 0.66047 0.85168 0.88332 0.0
H1221 H 0.62124 0.84989 0.93781 0.0
C1222 C 0.66385 0.87738 0.87974 0.0
C1223 C 0.64576 0.84195 0.90538 0.0
C1224 C 0.64282 0.81507 0.91177 0.0
C1225 C 0.65154 0.89308 0.89617 0.0
C1226 C 0.63572 0.88289 0.91705 0.0
C1227 C 0.63329 0.85759 0.92169 0.0
C1228 C 0.61977 0.89754 0.93208 0.0
C1229 C 0.65434 0.91997 0.88978 0.0
C1230 C 0.63255 0.92107 0.95369 0.0
C1231 C 0.61746 0.93671 0.96387 0.0
C1232 C 0.58931 0.92908 0.9526 0.0
C1233 C 0.57643 0.90458 0.93277 0.0
C1234 C 0.59155 0.88896 0.92264 0.0
H1235 H 0.6634 0.92322 0.86911 0.0
H1236 H 0.63438 0.92333 0.88558 0.0
H1237 H 0.66752 0.93459 0.91061 0.0
H1238 H 0.65429 0.9278 0.96172 0.0
H1239 H 0.62793 0.95524 0.97964 0.0
H1240 H 0.78996 0.64493 0.1934 0.0
H1241 H 0.81406 0.6274 0.15772 0.0
H1242 H 0.84065 0.70166 0.13129 0.0
H1243 H 0.81699 0.71971 0.16788 0.0
H1244 H 0.81175 0.62237 0.09425 0.0
H1245 H 0.91157 0.68875 0.16293 0.0
H1246 H 0.88115 0.68558 0.17749 0.0
H1247 H 0.88746 0.70378 0.14722 0.0
C1248 C 0.80078 0.6576 0.17993 0.0
C1249 C 0.80188 0.68386 0.18389 0.0
C1250 C 0.81448 0.64747 0.15937 0.0
C1251 C 0.82955 0.66329 0.14217 0.0
C1252 C 0.82963 0.68922 0.14481 0.0
H1253 H 0.91301 0.58006 0.02333 0.0
H1254 H 0.88621 0.60884 0.03624 0.0
C1255 C 0.816 0.69947 0.16563 0.0
C1256 C 0.84628 0.65258 0.12325 0.0
H1257 H 0.91165 0.65545 0.1232 0.0
C1258 C 0.8336 0.62988 0.10008 0.0
C1259 C 0.8748 0.6624 0.13097 0.0
C1260 C 0.88968 0.68635 0.15612 0.0
C1261 C 0.84864 0.61588 0.08584 0.0
C1262 C 0.87711 0.62502 0.09475 0.0
C1263 C 0.8898 0.64857 0.11639 0.0
C1264 C 0.89387 0.60852 0.08605 0.0
C1265 C 0.83401 0.5905 0.06303 0.0
C1266 C 0.90729 0.59913 0.10975 0.0
C1267 C 0.92241 0.58276 0.10252 0.0
C1268 C 0.92471 0.57546 0.07135 0.0
C1269 C 0.91146 0.58511 0.04753 0.0
C1270 C 0.89619 0.60157 0.05485 0.0
H1271 H 0.81186 0.58479 0.06117 0.0
H1272 H 0.83796 0.59225 0.03933 0.0
H1273 H 0.84156 0.57476 0.0704 0.0
H1274 H 0.9056 0.60407 0.13392 0.0
H1275 H 0.93177 0.57531 0.12138 0.0
H1276 H 0.35392 0.78597 0.21625 0.0
H1277 H 0.37274 0.81618 0.18404 0.0
H1278 H 0.29258 0.8142 0.14047 0.0
H1279 H 0.27354 0.78433 0.17291 0.0
H1280 H 0.36241 0.80869 0.11778 0.0
H1281 H 0.33291 0.89208 0.17217 0.0
H1282 H 0.33254 0.86442 0.19019 0.0
H1283 H 0.30611 0.86201 0.15735 0.0
C1284 C 0.3403 0.79206 0.19993 0.0
C1285 C 0.3123 0.78296 0.19726 0.0
C1286 C 0.35106 0.80922 0.18152 0.0
C1287 C 0.33401 0.81754 0.16021 0.0
C1288 C 0.30604 0.8083 0.15721 0.0
H1289 H 0.39794 0.90518 0.02293 0.0
H1290 H 0.36842 0.87307 0.04544 0.0
C1291 C 0.29525 0.79122 0.17571 0.0
C1292 C 0.34571 0.83587 0.14114 0.0
H1293 H 0.35563 0.89811 0.13082 0.0
C1294 C 0.36078 0.82819 0.12036 0.0
C1295 C 0.34347 0.86122 0.14478 0.0
C1296 C 0.32807 0.87061 0.16748 0.0
C1297 C 0.3744 0.84553 0.10367 0.0
C1298 C 0.37249 0.87099 0.10767 0.0
C1299 C 0.3568 0.87845 0.12777 0.0
C1300 C 0.38885 0.89094 0.09373 0.0
C1301 C 0.39168 0.83687 0.08299 0.0
C1302 C 0.40953 0.91181 0.11356 0.0
C1303 C 0.42629 0.93012 0.10089 0.0
C1304 C 0.42257 0.92786 0.06813 0.0
C1305 C 0.40135 0.90729 0.04827 0.0
C1306 C 0.38456 0.88894 0.06103 0.0
H1307 H 0.39444 0.81801 0.08655 0.0
H1308 H 0.38195 0.83463 0.05793 0.0
H1309 H 0.41183 0.85165 0.08772 0.0
H1310 H 0.41305 0.91362 0.13889 0.0
H1311 H 0.44239 0.94582 0.11677 0.0
H1312 H 0.75708 0.20122 0.16415 0.0
H1313 H 0.73551 0.16412 0.11943 0.0
H1314 H 0.6626 0.14736 0.15487 0.0
H1315 H 0.68358 0.18402 0.19878 0.0
H1316 H 0.68935 0.10261 0.13064 0.0
H1317 H 0.6619 0.16641 0.05178 0.0
H1318 H 0.69481 0.17481 0.0776 0.0
H1319 H 0.66639 0.17765 0.09349 0.0
C1320 C 0.73658 0.18931 0.16241 0.0
C1321 C 0.72178 0.19551 0.18451 0.0
C1322 C 0.72439 0.16828 0.13702 0.0
C1323 C 0.69758 0.15326 0.1341 0.0
C1324 C 0.68334 0.15886 0.1569 0.0
H1325 H 0.55045 0.06642 0.08689 0.0
H1326 H 0.59726 0.0948 0.10132 0.0
C1327 C 0.69527 0.17986 0.1818 0.0
C1328 C 0.68275 0.1326 0.1066 0.0
H1329 H 0.63028 0.12416 0.04539 0.0
C1330 C 0.67728 0.10693 0.11087 0.0
C1331 C 0.66714 0.13848 0.08101 0.0
C1332 C 0.67285 0.16582 0.0754 0.0
C1333 C 0.65424 0.08761 0.09266 0.0
C1334 C 0.63656 0.09443 0.07008 0.0
C1335 C 0.64395 0.1192 0.06298 0.0
C1336 C 0.60822 0.07841 0.05954 0.0
C1337 C 0.64723 0.0608 0.10004 0.0
C1338 C 0.59915 0.06027 0.03114 0.0
C1339 C 0.57248 0.04411 0.02298 0.0
C1340 C 0.55467 0.04609 0.04289 0.0
C1341 C 0.56376 0.06467 0.07103 0.0
C1342 C 0.59037 0.0808 0.07923 0.0
H1343 H 0.66511 0.05711 0.11344 0.0
H1344 H 0.6317 0.0588 0.11444 0.0
H1345 H 0.63868 0.0458 0.07803 0.0
H1346 H 0.61281 0.05813 0.01588 0.0
H1347 H 0.56606 0.02932 0.0018 0.0
H1348 H 0.67191 0.7221 0.78318 0.0
H1349 H 0.64426 0.69483 0.81203 0.0
H1350 H 0.68267 0.6361 0.79237 0.0
H1351 H 0.71094 0.66352 0.76397 0.0
H1352 H 0.60823 0.6466 0.79725 0.0
H1353 H 0.69644 0.6497 0.88764 0.0
H1354 H 0.69894 0.67033 0.85909 0.0
H1355 H 0.69826 0.63711 0.84835 0.0
C1356 C 0.67435 0.70328 0.78461 0.0
C1357 C 0.69396 0.6952 0.7715 0.0
C1358 C 0.65851 0.68771 0.80123 0.0
C1359 C 0.66188 0.66372 0.80509 0.0
C1360 C 0.68028 0.65488 0.79048 0.0
H1361 H 0.55457 0.54244 0.87021 0.0
H1362 H 0.57995 0.57041 0.8402 0.0
C1363 C 0.69627 0.67052 0.774 0.0
C1364 C 0.64655 0.6483 0.82498 0.0
H1365 H 0.65414 0.62082 0.88951 0.0
C1366 C 0.61827 0.64102 0.81746 0.0
C1367 C 0.65966 0.64153 0.85181 0.0
C1368 C 0.68999 0.65028 0.86245 0.0
C1369 C 0.60274 0.62661 0.83556 0.0
C1370 C 0.61584 0.61878 0.86149 0.0
C1371 C 0.64412 0.62661 0.86947 0.0
C1372 C 0.60056 0.60188 0.8801 0.0
C1373 C 0.57246 0.62027 0.82696 0.0
C1374 C 0.60438 0.60985 0.91283 0.0
C1375 C 0.59006 0.59368 0.93027 0.0
C1376 C 0.57176 0.56924 0.91522 0.0
C1377 C 0.56833 0.56123 0.88253 0.0
C1378 C 0.58269 0.57729 0.86524 0.0
H1379 H 0.56635 0.63413 0.81346 0.0
H1380 H 0.56363 0.60055 0.81192 0.0
H1381 H 0.56378 0.62058 0.84825 0.0
H1382 H 0.61826 0.62868 0.92484 0.0
H1383 H 0.59317 0.60038 0.9554 0.0
H1384 H 0.3122 0.67771 0.78574 0.0
H1385 H 0.33393 0.64903 0.80964 0.0
H1386 H 0.38079 0.71273 0.88596 0.0
H1387 H 0.35847 0.74141 0.86273 0.0
H1388 H 0.38508 0.64857 0.82593 0.0
H1389 H 0.3436 0.66041 0.9329 0.0
H1390 H 0.33264 0.67216 0.89836 0.0
H1391 H 0.36357 0.69058 0.92606 0.0
C1392 C 0.32743 0.68574 0.80737 0.0
C1393 C 0.33341 0.71176 0.82259 0.0
C1394 C 0.33973 0.66928 0.82107 0.0
C1395 C 0.35834 0.67857 0.85005 0.0
C1396 C 0.36579 0.70498 0.86412 0.0
H1397 H 0.45931 0.61296 0.96492 0.0
H1398 H 0.43419 0.6404 0.94372 0.0
C1399 C 0.35325 0.7214 0.85065 0.0
C1400 C 0.36947 0.66048 0.8658 0.0
H1401 H 0.37602 0.6376 0.93401 0.0
C1402 C 0.38297 0.64605 0.84948 0.0
C1403 C 0.3664 0.65705 0.89643 0.0
C1404 C 0.35053 0.67066 0.91435 0.0
C1405 C 0.39415 0.6288 0.86328 0.0
C1406 C 0.3916 0.62585 0.89412 0.0
C1407 C 0.37793 0.64004 0.91039 0.0
C1408 C 0.40397 0.60874 0.91011 0.0
C1409 C 0.40911 0.61423 0.84507 0.0
C1410 C 0.39445 0.58178 0.89914 0.0
C1411 C 0.40862 0.56603 0.91134 0.0
C1412 C 0.43253 0.57705 0.93466 0.0
C1413 C 0.44088 0.60387 0.94713 0.0
C1414 C 0.42667 0.6196 0.93493 0.0
H1415 H 0.41334 0.6221 0.82392 0.0
H1416 H 0.4285 0.61503 0.8602 0.0
H1417 H 0.39674 0.59353 0.83721 0.0
H1418 H 0.37667 0.57307 0.88032 0.0
H1419 H 0.40146 0.54536 0.90168 0.0
H1420 H 0.25188 0.29779 0.8051 0.0
H1421 H 0.26939 0.34 0.84123 0.0
H1422 H 0.34056 0.35748 0.80239 0.0
H1423 H 0.32253 0.31555 0.76554 0.0
H1424 H 0.31762 0.3491 0.88394 0.0
H1425 H 0.32538 0.42771 0.81704 0.0
H1426 H 0.30143 0.3956 0.80227 0.0
H1427 H 0.33585 0.40206 0.79809 0.0
C1428 C 0.27055 0.31128 0.80324 0.0
C1429 C 0.28561 0.30395 0.7822 0.0
C1430 C 0.28061 0.33521 0.824 0.0
C1431 C 0.3059 0.352 0.82391 0.0
C1432 C 0.32058 0.34505 0.80209 0.0
H1433 H 0.4517 0.4411 0.89931 0.0
H1434 H 0.40572 0.41494 0.87385 0.0
C1435 C 0.31052 0.32106 0.78139 0.0
C1436 C 0.31963 0.37408 0.85022 0.0
H1437 H 0.36187 0.43568 0.86342 0.0
C1438 C 0.3266 0.36843 0.88002 0.0
C1439 C 0.3308 0.39921 0.84495 0.0
C1440 C 0.32272 0.40657 0.81388 0.0
C1441 C 0.34756 0.38619 0.90331 0.0
C1442 C 0.36119 0.41009 0.89643 0.0
C1443 C 0.35151 0.41708 0.86832 0.0
C1444 C 0.38876 0.42489 0.91369 0.0
C1445 C 0.35697 0.37812 0.9335 0.0
C1446 C 0.39445 0.43818 0.94497 0.0
C1447 C 0.42098 0.4527 0.95989 0.0
C1448 C 0.44172 0.45441 0.9433 0.0
C1449 C 0.43599 0.44027 0.91246 0.0
C1450 C 0.40976 0.42551 0.89786 0.0
H1451 H 0.34472 0.35828 0.93447 0.0
H1452 H 0.37839 0.37866 0.93607 0.0
H1453 H 0.35565 0.39193 0.95385 0.0
H1454 H 0.37842 0.43786 0.95747 0.0
H1455 H 0.42502 0.46347 0.98375 0.0
H1456 H 0.71272 0.30014 0.86746 0.0
H1457 H 0.68826 0.32423 0.89577 0.0
H1458 H 0.6653 0.3534 0.81288 0.0
H1459 H 0.68924 0.3289 0.7841 0.0
H1460 H 0.69476 0.37648 0.90912 0.0
H1461 H 0.59318 0.32282 0.83519 0.0
H1462 H 0.62199 0.31145 0.83358 0.0
H1463 H 0.6169 0.33619 0.81259 0.0
C1464 C 0.70244 0.31165 0.85519 0.0
C1465 C 0.70273 0.31245 0.82342 0.0
C1466 C 0.68849 0.32541 0.87145 0.0
C1467 C 0.67455 0.34018 0.85625 0.0
C1468 C 0.67537 0.34157 0.8248 0.0
H1469 H 0.60038 0.45447 0.89869 0.0
H1470 H 0.62607 0.42624 0.88172 0.0
C1471 C 0.6892 0.32771 0.80845 0.0
C1472 C 0.65939 0.35441 0.87336 0.0
H1473 H 0.5974 0.36288 0.86902 0.0
C1474 C 0.67339 0.37326 0.90064 0.0
C1475 C 0.63143 0.34991 0.86247 0.0
C1476 C 0.61492 0.3288 0.83454 0.0
C1477 C 0.66039 0.38866 0.91636 0.0
C1478 C 0.63285 0.38502 0.90443 0.0
C1479 C 0.61859 0.36554 0.87797 0.0
C1480 C 0.61909 0.40297 0.91697 0.0
C1481 C 0.67621 0.40942 0.94484 0.0
C1482 C 0.60701 0.39927 0.94269 0.0
C1483 C 0.5921 0.41533 0.95241 0.0
C1484 C 0.58899 0.43506 0.93625 0.0
C1485 C 0.60193 0.43908 0.91115 0.0
C1486 C 0.61676 0.42313 0.90156 0.0
H1487 H 0.69735 0.40926 0.95183 0.0
H1488 H 0.67643 0.42878 0.93981 0.0
H1489 H 0.66627 0.40666 0.96495 0.0
H1490 H 0.60863 0.38366 0.95473 0.0
H1491 H 0.58232 0.41181 0.9718 0.0
H1492 H 0.70794 0.31858 0.17922 0.0
H1493 H 0.68641 0.34499 0.15012 0.0
H1494 H 0.60839 0.29811 0.15779 0.0
H1495 H 0.62971 0.2714 0.18688 0.0
H1496 H 0.64182 0.32802 0.09173 0.0
H1497 H 0.61817 0.37635 0.19885 0.0
H1498 H 0.64346 0.35986 0.20076 0.0
H1499 H 0.60836 0.34144 0.19148 0.0
C1500 C 0.68618 0.31381 0.17468 0.0
C1501 C 0.67052 0.29303 0.18562 0.0
C1502 C 0.67394 0.32884 0.1579 0.0
C1503 C 0.6459 0.32354 0.15202 0.0
C1504 C 0.63012 0.30253 0.16229 0.0
H1505 H 0.53841 0.38506 0.03802 0.0
H1506 H 0.56537 0.35822 0.05685 0.0
C1507 C 0.64232 0.28731 0.17888 0.0
C1508 C 0.63329 0.34076 0.13644 0.0
H1509 H 0.60128 0.38606 0.15052 0.0
C1510 C 0.63295 0.34076 0.10448 0.0
C1511 C 0.62221 0.35761 0.15338 0.0
C1512 C 0.62316 0.3591 0.18809 0.0
C1513 C 0.62123 0.35691 0.0888 0.0
C1514 C 0.60944 0.37322 0.10557 0.0
C1515 C 0.61027 0.37349 0.13768 0.0
C1516 C 0.5956 0.38994 0.0905 0.0
C1517 C 0.62186 0.35661 0.05461 0.0
C1518 C 0.6038 0.41672 0.10288 0.0
C1519 C 0.58834 0.43201 0.09234 0.0
C1520 C 0.56434 0.4208 0.06925 0.0
C1521 C 0.55694 0.39427 0.05561 0.0
C1522 C 0.57237 0.37892 0.06631 0.0
H1523 H 0.63785 0.34884 0.04776 0.0
H1524 H 0.60218 0.34395 0.03977 0.0
H1525 H 0.62525 0.3764 0.04945 0.0
H1526 H 0.62167 0.42561 0.12154 0.0
H1527 H 0.59468 0.45248 0.10298 0.0
H1528 H 0.74079 0.70347 0.18352 0.0
H1529 H 0.73014 0.66486 0.14187 0.0
H1530 H 0.65919 0.62954 0.17522 0.0
H1531 H 0.67039 0.66784 0.21752 0.0
H1532 H 0.69514 0.59556 0.15355 0.0
H1533 H 0.65972 0.65305 0.07025 0.0
H1534 H 0.69263 0.66519 0.09631 0.0
H1535 H 0.66313 0.66396 0.11185 0.0
C1536 C 0.72362 0.68692 0.18267 0.0
C1537 C 0.70677 0.68806 0.204 0.0
C1538 C 0.71746 0.66512 0.15879 0.0
C1539 C 0.69414 0.64442 0.1559 0.0
C1540 C 0.67756 0.64531 0.17761 0.0
H1541 H 0.56406 0.53959 0.10739 0.0
H1542 H 0.61202 0.56244 0.1236 0.0
C1543 C 0.68374 0.66712 0.20146 0.0
C1544 C 0.68437 0.6233 0.12809 0.0
H1545 H 0.63677 0.60829 0.0604 0.0
C1546 C 0.68324 0.59819 0.13238 0.0
C1547 C 0.66967 0.62692 0.10013 0.0
C1548 C 0.67128 0.6537 0.09406 0.0
C1549 C 0.66437 0.57657 0.11166 0.0
C1550 C 0.64598 0.5806 0.08713 0.0
C1551 C 0.65052 0.60531 0.07973 0.0
C1552 C 0.61837 0.56253 0.07616 0.0
C1553 C 0.6623 0.54989 0.11821 0.0
C1554 C 0.6058 0.55555 0.04413 0.0
C1555 C 0.5781 0.54291 0.03487 0.0
C1556 C 0.56263 0.53734 0.05748 0.0
C1557 C 0.57541 0.54377 0.08942 0.0
C1558 C 0.60298 0.55636 0.09866 0.0
H1559 H 0.68273 0.54822 0.12613 0.0
H1560 H 0.6515 0.54674 0.13756 0.0
H1561 H 0.65131 0.53447 0.0971 0.0
H1562 H 0.61724 0.56055 0.02646 0.0
H1563 H 0.56879 0.53759 0.01008 0.0
H1564 H 0.24995 0.65103 0.14308 0.0
H1565 H 0.27618 0.6267 0.11834 0.0
H1566 H 0.34537 0.66564 0.19428 0.0
H1567 H 0.31899 0.68926 0.21968 0.0
H1568 H 0.31956 0.64449 0.09581 0.0
H1569 H 0.3459 0.59244 0.18919 0.0
H1570 H 0.32079 0.60899 0.18987 0.0
H1571 H 0.3561 0.62681 0.20374 0.0
C1572 C 0.27063 0.65404 0.15478 0.0
C1573 C 0.28235 0.6719 0.18347 0.0
C1574 C 0.28562 0.6402 0.14056 0.0
C1575 C 0.31267 0.64403 0.15462 0.0
C1576 C 0.32434 0.66175 0.18338 0.0
H1577 H 0.44639 0.60124 0.10046 0.0
H1578 H 0.41669 0.62354 0.121 0.0
C1579 C 0.30925 0.67533 0.19785 0.0
C1580 C 0.32909 0.63061 0.1384 0.0
H1581 H 0.37157 0.59405 0.14916 0.0
C1582 C 0.33071 0.63324 0.10739 0.0
C1583 C 0.34356 0.6158 0.1534 0.0
C1584 C 0.34129 0.6106 0.18575 0.0
C1585 C 0.34697 0.6221 0.09139 0.0
C1586 C 0.36204 0.6081 0.10684 0.0
C1587 C 0.36018 0.60511 0.13758 0.0
C1588 C 0.37992 0.59625 0.09163 0.0
C1589 C 0.34843 0.62575 0.05835 0.0
C1590 C 0.36903 0.5738 0.06791 0.0
C1591 C 0.38591 0.56082 0.05634 0.0
C1592 C 0.41399 0.57009 0.06834 0.0
C1593 C 0.42485 0.59334 0.09105 0.0
C1594 C 0.40795 0.60618 0.10272 0.0
H1595 H 0.33835 0.63998 0.05119 0.0
H1596 H 0.36979 0.63241 0.05626 0.0
H1597 H 0.33847 0.60686 0.04171 0.0
H1598 H 0.3474 0.56572 0.05931 0.0
H1599 H 0.37679 0.54281 0.03921 0.0
H1600 H 0.27635 0.32503 0.22285 0.0
H1601 H 0.30244 0.35457 0.19469 0.0
H1602 H 0.35715 0.30909 0.19139 0.0
H1603 H 0.33155 0.27972 0.22003 0.0
H1604 H 0.38377 0.36046 0.2054 0.0
H1605 H 0.29997 0.33834 0.1012 0.0
H1606 H 0.29164 0.34991 0.13734 0.0
H1607 H 0.29868 0.31943 0.13158 0.0
C1608 C 0.29406 0.32139 0.21639 0.0
C1609 C 0.30171 0.29984 0.22357 0.0
C1610 C 0.30882 0.33819 0.20001 0.0
C1611 C 0.33136 0.33367 0.19021 0.0
C1612 C 0.33968 0.31283 0.19846 0.0
H1613 H 0.40776 0.40079 0.04732 0.0
H1614 H 0.38139 0.37196 0.07632 0.0
C1615 C 0.32503 0.29609 0.21495 0.0
C1616 C 0.34633 0.35061 0.17138 0.0
H1617 H 0.33915 0.37325 0.10302 0.0
C1618 C 0.37402 0.36321 0.18298 0.0
C1619 C 0.33372 0.3538 0.14181 0.0
C1620 C 0.30444 0.33946 0.12704 0.0
C1621 C 0.38937 0.37923 0.16615 0.0
C1622 C 0.37652 0.38334 0.13725 0.0
C1623 C 0.34892 0.37036 0.12534 0.0
C1624 C 0.39143 0.40105 0.1191 0.0
C1625 C 0.41931 0.39114 0.17929 0.0
C1626 C 0.40519 0.42714 0.13315 0.0
C1627 C 0.42044 0.44349 0.11681 0.0
C1628 C 0.42185 0.43425 0.0858 0.0
C1629 C 0.4071 0.40844 0.0712 0.0
C1630 C 0.39205 0.39196 0.08775 0.0
H1631 H 0.4271 0.37999 0.19577 0.0
H1632 H 0.43068 0.39209 0.16022 0.0
H1633 H 0.42338 0.41117 0.19258 0.0
H1634 H 0.40434 0.43485 0.15693 0.0
H1635 H 0.43129 0.46338 0.12859 0.0
H1636 H 0.77267 0.65496 0.66741 0.0
H1637 H 0.79 0.62832 0.63123 0.0
H1638 H 0.86135 0.69327 0.64197 0.0
H1639 H 0.84453 0.71971 0.67815 0.0
H1640 H 0.80922 0.63534 0.57333 0.0
H1641 H 0.88953 0.63562 0.67239 0.0
H1642 H 0.8603 0.64501 0.67836 0.0
H1643 H 0.8882 0.6675 0.66863 0.0
C1644 C 0.79188 0.6636 0.66172 0.0
C1645 C 0.80741 0.68931 0.67599 0.0
C1646 C 0.80173 0.64839 0.64105 0.0
C1647 C 0.82716 0.65873 0.6344 0.0
C1648 C 0.8419 0.68479 0.64725 0.0
H1649 H 0.94124 0.6084 0.54442 0.0
H1650 H 0.91337 0.63325 0.56448 0.0
C1651 C 0.83223 0.69987 0.66794 0.0
C1652 C 0.83938 0.64218 0.61575 0.0
H1653 H 0.89431 0.62053 0.62092 0.0
C1654 C 0.82769 0.63188 0.5837 0.0
C1655 C 0.86336 0.63755 0.62946 0.0
C1656 C 0.87598 0.64677 0.66417 0.0
C1657 C 0.84003 0.61785 0.56475 0.0
C1658 C 0.8645 0.61408 0.57833 0.0
C1659 C 0.87576 0.62385 0.61049 0.0
C1660 C 0.87885 0.59963 0.56014 0.0
C1661 C 0.8273 0.60767 0.53026 0.0
C1662 C 0.86834 0.5726 0.55021 0.0
C1663 C 0.8843 0.55832 0.53902 0.0
C1664 C 0.91111 0.57087 0.53773 0.0
C1665 C 0.92085 0.59814 0.5456 0.0
C1666 C 0.90491 0.61237 0.55688 0.0
H1667 H 0.81091 0.61587 0.52225 0.0
H1668 H 0.84272 0.61228 0.51589 0.0
H1669 H 0.81864 0.58623 0.52591 0.0
H1670 H 0.84843 0.56237 0.553 0.0
H1671 H 0.87624 0.53734 0.53354 0.0
H1672 H 0.27244 0.7923 0.65115 0.0
H1673 H 0.31185 0.81386 0.63224 0.0
H1674 H 0.32872 0.88158 0.7053 0.0
H1675 H 0.2894 0.85992 0.72491 0.0
H1676 H 0.32202 0.86086 0.61175 0.0
H1677 H 0.40049 0.86354 0.71443 0.0
H1678 H 0.36607 0.84271 0.70705 0.0
H1679 H 0.37452 0.87657 0.72428 0.0
C1680 C 0.28448 0.81182 0.66318 0.0
C1681 C 0.278 0.82449 0.68957 0.0
C1682 C 0.30696 0.82401 0.6524 0.0
C1683 C 0.3233 0.84894 0.66789 0.0
C1684 C 0.31651 0.86202 0.69361 0.0
H1685 H 0.45115 0.96804 0.63739 0.0
H1686 H 0.41945 0.93795 0.65986 0.0
C1687 C 0.29393 0.84983 0.70447 0.0
C1688 C 0.34687 0.86166 0.65618 0.0
H1689 H 0.4151 0.88886 0.67715 0.0
C1690 C 0.34243 0.8668 0.62583 0.0
C1691 C 0.3733 0.86896 0.67472 0.0
C1692 C 0.37901 0.86247 0.70683 0.0
C1693 C 0.36379 0.88032 0.61394 0.0
C1694 C 0.3902 0.88842 0.63288 0.0
C1695 C 0.39475 0.88256 0.66288 0.0
C1696 C 0.41286 0.9048 0.62267 0.0
C1697 C 0.35775 0.88674 0.58177 0.0
C1698 C 0.42029 0.8956 0.59524 0.0
C1699 C 0.43786 0.91275 0.58214 0.0
C1700 C 0.44855 0.93911 0.59675 0.0
C1701 C 0.44294 0.9478 0.62568 0.0
C1702 C 0.425 0.93069 0.63853 0.0
H1703 H 0.33589 0.88371 0.57323 0.0
H1704 H 0.369 0.9072 0.58205 0.0
H1705 H 0.36411 0.87398 0.56464 0.0
H1706 H 0.41144 0.87551 0.58315 0.0
H1707 H 0.44239 0.90554 0.56008 0.0
H1708 H 0.13148 0.25586 0.64417 0.0
H1709 H 0.1125 0.28352 0.6146 0.0
H1710 H 0.18289 0.34899 0.65811 0.0
H1711 H 0.2023 0.3213 0.68733 0.0
H1712 H 0.09977 0.32473 0.64203 0.0
H1713 H 0.17195 0.3573 0.56712 0.0
H1714 H 0.17167 0.33021 0.58626 0.0
H1715 H 0.18741 0.36294 0.60812 0.0
C1716 C 0.14318 0.27603 0.64702 0.0
C1717 C 0.16838 0.28637 0.66817 0.0
C1718 C 0.13229 0.29183 0.63009 0.0
C1719 C 0.14634 0.31829 0.63389 0.0
C1720 C 0.17192 0.32852 0.65422 0.0
H1721 H 0.09612 0.44946 0.59073 0.0
H1722 H 0.12189 0.42087 0.60723 0.0
C1723 C 0.18293 0.31267 0.67106 0.0
C1724 C 0.13294 0.33553 0.61909 0.0
H1725 H 0.13908 0.37942 0.57067 0.0
C1726 C 0.10827 0.33647 0.62618 0.0
C1727 C 0.14417 0.35106 0.59865 0.0
C1728 C 0.17014 0.35022 0.58932 0.0
C1729 C 0.09466 0.35267 0.61373 0.0
C1730 C 0.10582 0.36815 0.5933 0.0
C1731 C 0.13055 0.36739 0.58623 0.0
C1732 C 0.09209 0.38557 0.57978 0.0
C1733 C 0.06866 0.35355 0.62306 0.0
C1734 C 0.06724 0.37522 0.5581 0.0
C1735 C 0.05244 0.39146 0.5487 0.0
C1736 C 0.06222 0.41834 0.56094 0.0
C1737 C 0.08785 0.42878 0.5813 0.0
C1738 C 0.10268 0.41252 0.59058 0.0
H1739 H 0.06546 0.34427 0.64353 0.0
H1740 H 0.06847 0.37392 0.629 0.0
H1741 H 0.05147 0.34309 0.60297 0.0
H1742 H 0.05884 0.35445 0.54936 0.0
H1743 H 0.03274 0.38279 0.53312 0.0
H1744 H 0.73342 0.23698 0.64144 0.0
H1745 H 0.70504 0.21162 0.59047 0.0
H1746 H 0.63481 0.20046 0.63112 0.0
H1747 H 0.66316 0.22567 0.68174 0.0
H1748 H 0.68078 0.16185 0.58951 0.0
H1749 H 0.60251 0.20297 0.54225 0.0
H1750 H 0.63378 0.22281 0.56887 0.0
H1751 H 0.60547 0.20621 0.58389 0.0
C1752 C 0.71177 0.2298 0.63894 0.0
C1753 C 0.70021 0.2329 0.6651 0.0
C1754 C 0.69562 0.21556 0.60989 0.0
C1755 C 0.66778 0.20443 0.60685 0.0
C1756 C 0.65609 0.20947 0.63258 0.0
H1757 H 0.54647 0.08032 0.58331 0.0
H1758 H 0.57925 0.12235 0.58598 0.0
C1759 C 0.67226 0.22362 0.66158 0.0
C1760 C 0.65208 0.18269 0.58053 0.0
H1761 H 0.58716 0.15508 0.53961 0.0
C1762 C 0.66068 0.16055 0.57735 0.0
C1763 C 0.62608 0.18113 0.56438 0.0
C1764 C 0.61661 0.20472 0.5648 0.0
C1765 C 0.64258 0.13612 0.56258 0.0
C1766 C 0.61546 0.13411 0.55028 0.0
C1767 C 0.60792 0.15671 0.54953 0.0
C1768 C 0.59398 0.10926 0.54553 0.0
C1769 C 0.65176 0.11239 0.56363 0.0
C1770 C 0.59155 0.08805 0.52193 0.0
C1771 C 0.57307 0.0639 0.52073 0.0
C1772 C 0.55672 0.06088 0.54281 0.0
C1773 C 0.55897 0.08221 0.56609 0.0
C1774 C 0.57739 0.10623 0.56736 0.0
H1775 H 0.67328 0.11739 0.57568 0.0
H1776 H 0.63929 0.09914 0.57609 0.0
H1777 H 0.64915 0.1017 0.53931 0.0
H1778 H 0.6043 0.09003 0.50501 0.0
H1779 H 0.57206 0.04748 0.50312 0.0
H1780 H 0.76462 0.27445 0.35929 0.0
H1781 H 0.78763 0.30626 0.40821 0.0
H1782 H 0.79237 0.36817 0.35653 0.0
H1783 H 0.76837 0.33646 0.30829 0.0
H1784 H 0.83666 0.33033 0.41024 0.0
H1785 H 0.79055 0.40629 0.43941 0.0
H1786 H 0.77103 0.37513 0.41468 0.0
H1787 H 0.78874 0.40129 0.39793 0.0
C1788 C 0.76957 0.29497 0.35894 0.0
C1789 C 0.76507 0.30333 0.33048 0.0
C1790 C 0.78253 0.31309 0.38679 0.0
C1791 C 0.79164 0.33965 0.38619 0.0
C1792 C 0.78493 0.34794 0.35796 0.0
H1793 H 0.92354 0.46011 0.4096 0.0
H1794 H 0.87909 0.42843 0.40331 0.0
C1795 C 0.77154 0.32984 0.33026 0.0
C1796 C 0.81385 0.35749 0.41151 0.0
H1797 H 0.84068 0.42206 0.44361 0.0
C1798 C 0.83726 0.35015 0.4187 0.0
C1799 C 0.81464 0.38327 0.42286 0.0
C1800 C 0.7897 0.39176 0.41851 0.0
C1801 C 0.86217 0.36862 0.43297 0.0
C1802 C 0.86346 0.39497 0.44068 0.0
C1803 C 0.8396 0.40184 0.43708 0.0
C1804 C 0.88938 0.41569 0.44681 0.0
C1805 C 0.88722 0.36015 0.43658 0.0
C1806 C 0.90976 0.4188 0.47323 0.0
C1807 C 0.93525 0.4364 0.47636 0.0
C1808 C 0.94043 0.45145 0.45359 0.0
C1809 C 0.91995 0.44857 0.42738 0.0
C1810 C 0.89455 0.43082 0.42405 0.0
H1811 H 0.88283 0.3393 0.42606 0.0
H1812 H 0.90225 0.37186 0.42528 0.0
H1813 H 0.8965 0.36327 0.46194 0.0
H1814 H 0.90613 0.40723 0.49096 0.0
H1815 H 0.95111 0.43786 0.49618 0.0
H1816 H 0.72207 0.84438 0.33504 0.0
H1817 H 0.70103 0.86712 0.37011 0.0
H1818 H 0.63305 0.79786 0.35378 0.0
H1819 H 0.65454 0.77469 0.31923 0.0
H1820 H 0.65479 0.87585 0.34872 0.0
H1821 H 0.64267 0.82397 0.44721 0.0
H1822 H 0.66496 0.81945 0.42145 0.0
H1823 H 0.62928 0.80319 0.409 0.0
C1824 C 0.70292 0.83379 0.33949 0.0
C1825 C 0.68983 0.80781 0.32422 0.0
C1826 C 0.69092 0.84681 0.35958 0.0
C1827 C 0.66546 0.83425 0.36471 0.0
C1828 C 0.65292 0.80786 0.35073 0.0
H1829 H 0.54349 0.8949 0.42636 0.0
H1830 H 0.56949 0.86666 0.4096 0.0
C1831 C 0.66515 0.79466 0.33086 0.0
C1832 C 0.65085 0.84979 0.38116 0.0
H1833 H 0.61845 0.85469 0.44182 0.0
C1834 C 0.64711 0.87132 0.36927 0.0
C1835 C 0.64057 0.84377 0.4078 0.0
C1836 C 0.64475 0.82148 0.42234 0.0
C1837 C 0.63325 0.88681 0.38299 0.0
C1838 C 0.62299 0.88084 0.40959 0.0
C1839 C 0.62649 0.85926 0.42151 0.0
C1840 C 0.60803 0.89671 0.42452 0.0
C1841 C 0.62918 0.90919 0.36848 0.0
C1842 C 0.62123 0.92271 0.43944 0.0
C1843 C 0.60644 0.93895 0.44881 0.0
C1844 C 0.57814 0.92946 0.44341 0.0
C1845 C 0.5652 0.90294 0.4303 0.0
C1846 C 0.58002 0.88671 0.42097 0.0
H1847 H 0.63365 0.90809 0.34462 0.0
H1848 H 0.60813 0.90968 0.36676 0.0
H1849 H 0.64285 0.92771 0.38363 0.0
H1850 H 0.64287 0.93074 0.44255 0.0
H1851 H 0.61707 0.95926 0.45871 0.0
H1852 H 0.21385 0.69773 0.29448 0.0
H1853 H 0.19396 0.66284 0.32049 0.0
H1854 H 0.12516 0.69051 0.32194 0.0
H1855 H 0.14447 0.72491 0.29513 0.0
H1856 H 0.1797 0.66428 0.37704 0.0
H1857 H 0.09007 0.61489 0.28059 0.0
H1858 H 0.11868 0.63983 0.27562 0.0
H1859 H 0.09322 0.64844 0.29341 0.0
C1860 C 0.19442 0.69628 0.30024 0.0
C1861 C 0.18049 0.71377 0.29248 0.0
C1862 C 0.18315 0.6764 0.31511 0.0
C1863 C 0.15789 0.67385 0.32251 0.0
C1864 C 0.14434 0.69176 0.31558 0.0
H1865 H 0.08279 0.59737 0.45478 0.0
H1866 H 0.11147 0.62665 0.42863 0.0
C1867 C 0.15542 0.71142 0.30039 0.0
C1868 C 0.14566 0.65259 0.33767 0.0
H1869 H 0.08783 0.60343 0.33076 0.0
C1870 C 0.15975 0.65073 0.36682 0.0
C1871 C 0.11993 0.63462 0.32387 0.0
C1872 C 0.10473 0.63434 0.29149 0.0
C1873 C 0.14819 0.63199 0.38325 0.0
C1874 C 0.12165 0.61527 0.37045 0.0
C1875 C 0.10809 0.61647 0.3407 0.0
C1876 C 0.10688 0.59707 0.38783 0.0
C1877 C 0.16452 0.63031 0.41403 0.0
C1878 C 0.09448 0.57086 0.37335 0.0
C1879 C 0.07757 0.55431 0.38786 0.0
C1880 C 0.07296 0.56367 0.41719 0.0
C1881 C 0.08609 0.58967 0.43219 0.0
C1882 C 0.1027 0.60634 0.41743 0.0
H1883 H 0.18651 0.63762 0.41494 0.0
H1884 H 0.1602 0.64259 0.43364 0.0
H1885 H 0.15947 0.61006 0.41785 0.0
H1886 H 0.09739 0.56338 0.35045 0.0
H1887 H 0.06785 0.53426 0.37593 0.0
H1888 H 0.34486 0.22088 0.33115 0.0
H1889 H 0.37086 0.20238 0.3681 0.0
H1890 H 0.29976 0.13778 0.35986 0.0
H1891 H 0.27392 0.15576 0.32289 0.0
H1892 H 0.36345 0.18486 0.42698 0.0
H1893 H 0.35481 0.10479 0.3288 0.0
H1894 H 0.34746 0.13417 0.32238 0.0
H1895 H 0.32305 0.10893 0.33346 0.0
C1896 C 0.33473 0.20293 0.3376 0.0
C1897 C 0.30746 0.18956 0.32375 0.0
C1898 C 0.34958 0.19241 0.3587 0.0
C1899 C 0.33731 0.16849 0.36624 0.0
C1900 C 0.30972 0.15602 0.35391 0.0
H1901 H 0.38854 0.05462 0.45559 0.0
H1902 H 0.36239 0.08202 0.43635 0.0
C1903 C 0.29499 0.16635 0.33276 0.0
C1904 C 0.35344 0.15535 0.385 0.0
H1905 H 0.37217 0.10026 0.38015 0.0
C1906 C 0.36551 0.16644 0.41679 0.0
C1907 C 0.35619 0.13137 0.37155 0.0
C1908 C 0.34493 0.11919 0.33711 0.0
C1909 C 0.37969 0.15372 0.4357 0.0
C1910 C 0.38189 0.1295 0.42232 0.0
C1911 C 0.37009 0.11866 0.39047 0.0
C1912 C 0.39722 0.11524 0.44019 0.0
C1913 C 0.39177 0.16595 0.46992 0.0
C1914 C 0.42539 0.12513 0.44967 0.0
C1915 C 0.44039 0.10945 0.4604 0.0
C1916 C 0.42747 0.08352 0.46167 0.0
C1917 C 0.39911 0.07435 0.45438 0.0
C1918 C 0.38414 0.09001 0.44355 0.0
H1919 H 0.3834 0.18158 0.47827 0.0
H1920 H 0.38816 0.15113 0.4848 0.0
H1921 H 0.4139 0.17457 0.47315 0.0
H1922 H 0.43591 0.14438 0.44679 0.0
H1923 H 0.46219 0.11708 0.46547 0.0
H1924 H 0.70961 0.79412 0.63076 0.0
H1925 H 0.68495 0.81801 0.60082 0.0
H1926 H 0.62942 0.81108 0.66277 0.0
H1927 H 0.65378 0.78723 0.69286 0.0
H1928 H 0.61783 0.80492 0.57626 0.0
H1929 H 0.67869 0.89317 0.66674 0.0
H1930 H 0.69115 0.86607 0.65708 0.0
H1931 H 0.66572 0.86335 0.6798 0.0
C1932 C 0.69179 0.79715 0.63762 0.0
C1933 C 0.68384 0.789 0.66443 0.0
C1934 C 0.67773 0.81075 0.62043 0.0
C1935 C 0.65551 0.81631 0.62974 0.0
C1936 C 0.64654 0.80688 0.65527 0.0
H1937 H 0.56234 0.91815 0.61136 0.0
H1938 H 0.5865 0.88776 0.62428 0.0
C1939 C 0.66054 0.79331 0.67245 0.0
C1940 C 0.64355 0.83448 0.61544 0.0
H1941 H 0.64291 0.8972 0.63003 0.0
C1942 C 0.62346 0.82519 0.58765 0.0
C1943 C 0.65111 0.86083 0.63048 0.0
C1944 C 0.67294 0.87167 0.66012 0.0
C1945 C 0.60988 0.84154 0.57519 0.0
C1946 C 0.61688 0.86774 0.59088 0.0
C1947 C 0.63763 0.87711 0.61806 0.0
C1948 C 0.60143 0.88526 0.58146 0.0
C1949 C 0.58739 0.8305 0.54624 0.0
C1950 C 0.6018 0.89394 0.55298 0.0
C1951 C 0.58809 0.91162 0.54556 0.0
C1952 C 0.57404 0.92099 0.56669 0.0
C1953 C 0.5735 0.91187 0.59492 0.0
C1954 C 0.58711 0.8943 0.60225 0.0
H1955 H 0.58186 0.80901 0.53961 0.0
H1956 H 0.56921 0.83584 0.5501 0.0
H1957 H 0.59382 0.83882 0.52621 0.0
H1958 H 0.61305 0.88744 0.53681 0.0
H1959 H 0.58893 0.91834 0.52366 0.0
H1960 H 0.7055 0.14312 0.26566 0.0
H1961 H 0.66886 0.11845 0.2869 0.0
H1962 H 0.66036 0.18988 0.33329 0.0
H1963 H 0.69671 0.21473 0.31195 0.0
H1964 H 0.67097 0.12302 0.35189 0.0
H1965 H 0.58223 0.14577 0.29002 0.0
H1966 H 0.61319 0.15063 0.27613 0.0
H1967 H 0.61101 0.17349 0.30851 0.0
C1968 C 0.69562 0.15356 0.28006 0.0
C1969 C 0.704 0.18081 0.28726 0.0
C1970 C 0.67471 0.13947 0.29209 0.0
C1971 C 0.66184 0.15244 0.31127 0.0
C1972 C 0.66977 0.17961 0.31799 0.0
H1973 H 0.57682 0.0928 0.44841 0.0
H1974 H 0.60588 0.11953 0.42027 0.0
C1975 C 0.69064 0.19373 0.30596 0.0
C1976 C 0.64171 0.13756 0.32644 0.0
H1977 H 0.57607 0.12406 0.33263 0.0
C1978 C 0.65017 0.12309 0.34758 0.0
C1979 C 0.6147 0.13783 0.3206 0.0
C1980 C 0.60459 0.15258 0.29738 0.0
C1981 C 0.63228 0.10894 0.3634 0.0
C1982 C 0.60542 0.10964 0.35808 0.0
C1983 C 0.59681 0.12384 0.33667 0.0
C1984 C 0.58598 0.09531 0.3744 0.0
C1985 C 0.64217 0.09321 0.38549 0.0
C1986 C 0.56469 0.07349 0.35756 0.0
C1987 C 0.54801 0.05817 0.37352 0.0
C1988 C 0.5525 0.0646 0.40646 0.0
C1989 C 0.57308 0.08722 0.42303 0.0
C1990 C 0.58968 0.1025 0.40706 0.0
H1991 H 0.66154 0.09037 0.38182 0.0
H1992 H 0.64543 0.10351 0.41015 0.0
H1993 H 0.627 0.07388 0.38238 0.0
H1994 H 0.56163 0.06782 0.33226 0.0
H1995 H 0.5322 0.0409 0.3602 0.0
H1996 H 0.79085 0.66972 0.30102 0.0
H1997 H 0.81198 0.64346 0.33067 0.0
H1998 H 0.86644 0.71297 0.39333 0.0
H1999 H 0.84581 0.73944 0.36331 0.0
H2000 H 0.89323 0.68279 0.37116 0.0
H2001 H 0.81 0.62219 0.41426 0.0
H2002 H 0.80102 0.62002 0.37259 0.0
H2003 H 0.80779 0.65061 0.39899 0.0
C2004 C 0.80698 0.67944 0.32147 0.0
C2005 C 0.8167 0.70672 0.32969 0.0
C2006 C 0.81893 0.66435 0.33859 0.0
C2007 C 0.84061 0.67617 0.36454 0.0
C2008 C 0.84967 0.70338 0.37349 0.0
H2009 H 0.91913 0.58292 0.47275 0.0
H2010 H 0.89359 0.61242 0.45876 0.0
C2011 C 0.83785 0.7185 0.35628 0.0
C2012 C 0.8557 0.66038 0.38 0.0
H2013 H 0.84814 0.60626 0.41222 0.0
C2014 C 0.88339 0.6663 0.38055 0.0
C2015 C 0.84307 0.63905 0.39273 0.0
C2016 C 0.81389 0.63276 0.39495 0.0
C2017 C 0.89846 0.65087 0.39209 0.0
C2018 C 0.88541 0.62844 0.40265 0.0
C2019 C 0.85804 0.6232 0.40362 0.0
C2020 C 0.89964 0.60964 0.4111 0.0
C2021 C 0.92827 0.6587 0.39261 0.0
C2022 C 0.91092 0.59779 0.38878 0.0
C2023 C 0.92579 0.58132 0.39678 0.0
C2024 C 0.92938 0.57585 0.42722 0.0
C2025 C 0.91717 0.587 0.44927 0.0
C2026 C 0.90239 0.60371 0.44125 0.0
H2027 H 0.93657 0.67989 0.3937 0.0
H2028 H 0.93973 0.65361 0.413 0.0
H2029 H 0.93156 0.64841 0.37068 0.0
H2030 H 0.90857 0.60162 0.36517 0.0
H2031 H 0.93511 0.57349 0.37922 0.0
H2032 H 0.30461 0.74844 0.33784 0.0
H2033 H 0.3322 0.77158 0.39022 0.0
H2034 H 0.32024 0.84301 0.3703 0.0
H2035 H 0.29303 0.82043 0.31876 0.0
H2036 H 0.37917 0.81118 0.39952 0.0
H2037 H 0.31049 0.84808 0.45996 0.0
H2038 H 0.29844 0.82012 0.42784 0.0
H2039 H 0.30453 0.85254 0.42016 0.0
C2040 C 0.30769 0.76903 0.34489 0.0
C2041 C 0.29683 0.78266 0.32412 0.0
C2042 C 0.32319 0.78211 0.37485 0.0
C2043 C 0.32754 0.80882 0.38447 0.0
C2044 C 0.31634 0.82222 0.36385 0.0
H2045 H 0.41774 0.94822 0.42436 0.0
H2046 H 0.38402 0.90605 0.41896 0.0
C2047 C 0.30115 0.80933 0.33408 0.0
C2048 C 0.34716 0.82416 0.4135 0.0
H2049 H 0.3562 0.88008 0.46524 0.0
C2050 C 0.37425 0.82559 0.41513 0.0
C2051 C 0.34064 0.84253 0.4343 0.0
C2052 C 0.31185 0.84049 0.43566 0.0
C2053 C 0.39498 0.84743 0.43299 0.0
C2054 C 0.38812 0.86794 0.44958 0.0
C2055 C 0.3613 0.8645 0.45192 0.0
C2056 C 0.4068 0.89459 0.45701 0.0
C2057 C 0.42373 0.84992 0.43076 0.0
C2058 C 0.43049 0.9021 0.48043 0.0
C2059 C 0.44982 0.92608 0.48328 0.0
C2060 C 0.44553 0.94284 0.46302 0.0
C2061 C 0.42142 0.93561 0.44029 0.0
C2062 C 0.40213 0.9117 0.43742 0.0
H2063 H 0.42553 0.83218 0.41661 0.0
H2064 H 0.4318 0.86668 0.41986 0.0
H2065 H 0.43649 0.85356 0.45469 0.0
H2066 H 0.43446 0.88905 0.4956 0.0
H2067 H 0.46857 0.93093 0.50032 0.0
H2068 H 0.19783 0.28691 0.36296 0.0
H2069 H 0.17634 0.3141 0.39192 0.0
H2070 H 0.19359 0.36961 0.33212 0.0
H2071 H 0.21491 0.34257 0.30287 0.0
H2072 H 0.19369 0.36972 0.42344 0.0
H2073 H 0.1095 0.34249 0.31829 0.0
H2074 H 0.13375 0.32496 0.32336 0.0
H2075 H 0.14249 0.35547 0.31086 0.0
C2076 C 0.1975 0.30513 0.35629 0.0
C2077 C 0.20777 0.31238 0.33029 0.0
C2078 C 0.18523 0.32064 0.37292 0.0
C2079 C 0.18302 0.3436 0.3638 0.0
C2080 C 0.19479 0.35174 0.33922 0.0
H2081 H 0.09753 0.45266 0.3969 0.0
H2082 H 0.12645 0.42742 0.38155 0.0
C2083 C 0.20701 0.33627 0.32257 0.0
C2084 C 0.16646 0.35795 0.37802 0.0
H2085 H 0.10925 0.37503 0.3598 0.0
C2086 C 0.17514 0.37083 0.40968 0.0
C2087 C 0.14214 0.35905 0.36003 0.0
C2088 C 0.1312 0.34459 0.32633 0.0
C2089 C 0.16064 0.38579 0.42346 0.0
C2090 C 0.13668 0.38744 0.40514 0.0
C2091 C 0.1277 0.37389 0.37376 0.0
C2092 C 0.12113 0.40409 0.41709 0.0
C2093 C 0.17153 0.40039 0.45706 0.0
C2094 C 0.10874 0.39962 0.44252 0.0
C2095 C 0.09216 0.41418 0.45145 0.0
C2096 C 0.08742 0.43309 0.43472 0.0
C2097 C 0.1004 0.43788 0.40984 0.0
C2098 C 0.11705 0.42356 0.40115 0.0
H2099 H 0.19298 0.40173 0.46554 0.0
H2100 H 0.16981 0.42032 0.45959 0.0
H2101 H 0.15958 0.39011 0.47244 0.0
H2102 H 0.11121 0.38438 0.45481 0.0
H2103 H 0.08234 0.41008 0.47068 0.0
H2104 H 0.32351 0.21333 0.66875 0.0
H2105 H 0.34565 0.1936 0.63161 0.0
H2106 H 0.29728 0.11738 0.63704 0.0
H2107 H 0.27509 0.13681 0.67378 0.0
H2108 H 0.37553 0.16055 0.64696 0.0
H2109 H 0.29315 0.11078 0.54245 0.0
H2110 H 0.29092 0.1362 0.57209 0.0
H2111 H 0.28451 0.10355 0.5786 0.0
C2112 C 0.31722 0.19239 0.6615 0.0
C2113 C 0.29767 0.17664 0.67437 0.0
C2114 C 0.32991 0.18114 0.64032 0.0
C2115 C 0.32293 0.15401 0.63124 0.0
C2116 C 0.30267 0.13834 0.64316 0.0
H2117 H 0.38295 0.03499 0.55571 0.0
H2118 H 0.35582 0.06214 0.57179 0.0
C2119 C 0.29016 0.14951 0.66444 0.0
C2120 C 0.33868 0.14187 0.61222 0.0
H2121 H 0.33228 0.09615 0.54722 0.0
C2122 C 0.36622 0.14684 0.62483 0.0
C2123 C 0.32644 0.12383 0.58348 0.0
C2124 C 0.29718 0.11843 0.56818 0.0
C2125 C 0.38155 0.13331 0.61043 0.0
C2126 C 0.36917 0.11472 0.58208 0.0
C2127 C 0.34181 0.11041 0.56887 0.0
C2128 C 0.38374 0.0981 0.56748 0.0
C2129 C 0.41047 0.13802 0.62674 0.0
C2130 C 0.40789 0.10906 0.55825 0.0
C2131 C 0.42358 0.09357 0.54931 0.0
C2132 C 0.41514 0.06676 0.54888 0.0
C2133 C 0.38995 0.05555 0.55571 0.0
C2134 C 0.37445 0.07108 0.56499 0.0
H2135 H 0.41496 0.14837 0.65162 0.0
H2136 H 0.41517 0.11942 0.62636 0.0
H2137 H 0.4241 0.15016 0.61434 0.0
H2138 H 0.41511 0.12974 0.55909 0.0
H2139 H 0.44269 0.10264 0.54362 0.0
H2140 H 0.85586 0.31598 0.75641 0.0
H2141 H 0.87713 0.35301 0.73425 0.0
H2142 H 0.8102 0.32767 0.65384 0.0
H2143 H 0.78849 0.2913 0.67626 0.0
H2144 H 0.89355 0.35089 0.68026 0.0
H2145 H 0.81767 0.40342 0.67536 0.0
H2146 H 0.81696 0.37808 0.6976 0.0
H2147 H 0.80325 0.37005 0.6558 0.0
C2148 C 0.84563 0.3185 0.73415 0.0
C2149 C 0.82057 0.30088 0.71804 0.0
C2150 C 0.8577 0.33965 0.72161 0.0
C2151 C 0.84494 0.34334 0.69276 0.0
C2152 C 0.81996 0.32567 0.67662 0.0
H2153 H 0.89951 0.42394 0.55231 0.0
H2154 H 0.87372 0.39667 0.58303 0.0
C2155 C 0.80773 0.30476 0.68932 0.0
C2156 C 0.85875 0.36434 0.67815 0.0
H2157 H 0.85046 0.41442 0.64363 0.0
C2158 C 0.8843 0.36503 0.6727 0.0
C2159 C 0.84653 0.38267 0.66821 0.0
C2160 C 0.81971 0.3837 0.67483 0.0
C2161 C 0.89767 0.38311 0.65674 0.0
C2162 C 0.88512 0.40087 0.64609 0.0
C2163 C 0.85982 0.40058 0.65188 0.0
C2164 C 0.89801 0.41938 0.6281 0.0
C2165 C 0.92483 0.38277 0.65059 0.0
C2166 C 0.91962 0.44137 0.64358 0.0
C2167 C 0.93438 0.45694 0.6262 0.0
C2168 C 0.92771 0.45058 0.59315 0.0
C2169 C 0.90517 0.42921 0.57777 0.0
C2170 C 0.89038 0.4137 0.5952 0.0
H2171 H 0.93067 0.36615 0.65795 0.0
H2172 H 0.92465 0.38172 0.62516 0.0
H2173 H 0.94045 0.40105 0.66372 0.0
H2174 H 0.92566 0.44587 0.66903 0.0
H2175 H 0.95159 0.47335 0.63866 0.0
H2176 H 0.25515 0.70273 0.6584 0.0
H2177 H 0.24061 0.6614 0.62015 0.0
H2178 H 0.18381 0.6282 0.67436 0.0
H2179 H 0.19939 0.6689 0.71318 0.0
H2180 H 0.20215 0.59131 0.64288 0.0
H2181 H 0.1699 0.65245 0.56218 0.0
H2182 H 0.20523 0.65888 0.5778 0.0
H2183 H 0.18386 0.66588 0.6034 0.0
C2184 C 0.24031 0.68616 0.66253 0.0
C2185 C 0.2281 0.68865 0.68826 0.0
C2186 C 0.23194 0.66271 0.6407 0.0
C2187 C 0.21065 0.64201 0.64399 0.0
C2188 C 0.20028 0.64393 0.67135 0.0
H2189 H 0.06675 0.55165 0.60286 0.0
H2190 H 0.11519 0.57263 0.61782 0.0
C2191 C 0.20903 0.66714 0.69344 0.0
C2192 C 0.19538 0.62044 0.61723 0.0
H2193 H 0.14454 0.60916 0.55302 0.0
C2194 C 0.19024 0.59501 0.62248 0.0
C2195 C 0.18017 0.62519 0.5902 0.0
C2196 C 0.18489 0.65202 0.5829 0.0
C2197 C 0.1678 0.57503 0.60414 0.0
C2198 C 0.15034 0.58083 0.58026 0.0
C2199 C 0.15791 0.60505 0.57177 0.0
C2200 C 0.12163 0.56546 0.57044 0.0
C2201 C 0.1614 0.54856 0.61249 0.0
C2202 C 0.10911 0.55523 0.53867 0.0
C2203 C 0.08121 0.54326 0.53 0.0
C2204 C 0.06552 0.54193 0.55291 0.0
C2205 C 0.07823 0.55239 0.58462 0.0
C2206 C 0.10598 0.56406 0.59326 0.0
H2207 H 0.18018 0.54425 0.62194 0.0
H2208 H 0.14954 0.54816 0.63107 0.0
H2209 H 0.14939 0.53315 0.59175 0.0
H2210 H 0.12088 0.55657 0.52071 0.0
H2211 H 0.07202 0.53476 0.50553 0.0
loop_
_geom_bond_atom_site_label_1
_geom_bond_atom_site_label_2
_geom_bond_distance
_geom_bond_site_symmetry_2
_ccdc_geom_bond_type
Zn0 O6 1.969 . S
Zn0 O7 1.965 . S
Zn0 O11 2.024 . S
Zn0 O16 1.969 . S
Zn1 O8 1.969 . S
Zn1 O14 1.969 . S
Zn1 O15 1.965 . S
Zn1 O17 2.024 . S
C2 O3 1.229 . S
C2 O11 1.058 . S
O3 C2 1.229 . S
C4 O5 1.229 . S
C4 O17 1.058 . S
O5 C4 1.229 . S
O6 Zn0 1.969 . S
O6 C9 1.267 . S
O7 Zn0 1.965 . S
O7 C18 1.260 . S
O8 Zn1 1.969 . S
O8 C18 1.258 . S
C9 O6 1.267 . S
C9 O10 1.228 . S
O10 C9 1.228 . S
O11 Zn0 2.024 . S
O11 C2 1.058 . S
C12 O13 1.228 . S
C12 O14 1.267 . S
O13 C12 1.228 . S
O14 Zn1 1.969 . S
O14 C12 1.267 . S
O15 Zn1 1.965 . S
O15 C19 1.260 . S
O16 Zn0 1.969 . S
O16 C19 1.258 . S
O17 Zn1 2.024 . S
O17 C4 1.058 . S
C18 O7 1.260 . S
C18 O8 1.258 . S
C19 O15 1.260 . S
C19 O16 1.258 . S
Zn20 O26 1.969 . S
Zn20 O27 1.965 . S
Zn20 O31 2.024 . S
Zn20 O36 1.969 . S
Zn21 O28 1.969 . S
Zn21 O34 1.969 . S
Zn21 O35 1.965 . S
Zn21 O37 2.024 . S
C22 O23 1.229 . S
C22 O31 1.058 . S
O23 C22 1.229 . S
C24 O25 1.229 . S
C24 O37 1.058 . S
O25 C24 1.229 . S
O26 Zn20 1.969 . S
O26 C29 1.267 . S
O27 Zn20 1.965 . S
O27 C38 1.260 . S
O28 Zn21 1.969 . S
O28 C38 1.258 . S
C29 O26 1.267 . S
C29 O30 1.228 . S
O30 C29 1.228 . S
O31 Zn20 2.024 . S
O31 C22 1.058 . S
C32 O33 1.228 . S
C32 O34 1.267 . S
O33 C32 1.228 . S
O34 Zn21 1.969 . S
O34 C32 1.267 . S
O35 Zn21 1.965 . S
O35 C39 1.260 . S
O36 Zn20 1.969 . S
O36 C39 1.258 . S
O37 Zn21 2.024 . S
O37 C24 1.058 . S
C38 O27 1.260 . S
C38 O28 1.258 . S
C39 O35 1.260 . S
C39 O36 1.258 . S
Zn40 O46 1.969 . S
Zn40 O47 1.965 . S
Zn40 O51 2.024 . S
Zn40 O56 1.969 . S
Zn41 O48 1.969 . S
Zn41 O54 1.969 . S
Zn41 O55 1.965 . S
Zn41 O57 2.024 . S
C42 O43 1.229 . S
C42 O51 1.058 . S
O43 C42 1.229 . S
C44 O45 1.229 . S
C44 O57 1.058 . S
O45 C44 1.229 . S
O46 Zn40 1.969 . S
O46 C49 1.267 . S
O47 Zn40 1.965 . S
O47 C58 1.260 . S
O48 Zn41 1.969 . S
O48 C58 1.258 . S
C49 O46 1.267 . S
C49 O50 1.228 . S
O50 C49 1.228 . S
O51 Zn40 2.024 . S
O51 C42 1.058 . S
C52 O53 1.228 . S
C52 O54 1.267 . S
O53 C52 1.228 . S
O54 Zn41 1.969 . S
O54 C52 1.267 . S
O55 Zn41 1.965 . S
O55 C59 1.260 . S
O56 Zn40 1.969 . S
O56 C59 1.258 . S
O57 Zn41 2.024 . S
O57 C44 1.058 . S
C58 O47 1.260 . S
C58 O48 1.258 . S
C59 O55 1.260 . S
C59 O56 1.258 . S
Zn60 O66 1.969 . S
Zn60 O67 1.965 . S
Zn60 O71 2.024 . S
Zn60 O76 1.969 . S
Zn61 O68 1.969 . S
Zn61 O74 1.969 . S
Zn61 O75 1.965 . S
Zn61 O77 2.024 . S
C62 O63 1.229 . S
C62 O71 1.058 . S
O63 C62 1.229 . S
C64 O65 1.229 . S
C64 O77 1.058 . S
O65 C64 1.229 . S
O66 Zn60 1.969 . S
O66 C69 1.267 . S
O67 Zn60 1.965 . S
O67 C78 1.260 . S
O68 Zn61 1.969 . S
O68 C78 1.258 . S
C69 O66 1.267 . S
C69 O70 1.228 . S
O70 C69 1.228 . S
O71 Zn60 2.024 . S
O71 C62 1.058 . S
C72 O73 1.228 . S
C72 O74 1.267 . S
O73 C72 1.228 . S
O74 Zn61 1.969 . S
O74 C72 1.267 . S
O75 Zn61 1.965 . S
O75 C79 1.260 . S
O76 Zn60 1.969 . S
O76 C79 1.258 . S
O77 Zn61 2.024 . S
O77 C64 1.058 . S
C78 O67 1.260 . S
C78 O68 1.258 . S
C79 O75 1.260 . S
C79 O76 1.258 . S
Zn80 O86 1.969 . S
Zn80 O87 1.965 . S
Zn80 O91 2.024 . S
Zn80 O96 1.969 . S
Zn81 O88 1.969 . S
Zn81 O94 1.969 . S
Zn81 O95 1.965 . S
Zn81 O97 2.024 . S
C82 O83 1.229 . S
C82 O91 1.058 . S
O83 C82 1.229 . S
C84 O85 1.229 . S
C84 O97 1.058 . S
O85 C84 1.229 . S
O86 Zn80 1.969 . S
O86 C89 1.267 . S
O87 Zn80 1.965 . S
O87 C98 1.260 . S
O88 Zn81 1.969 . S
O88 C98 1.258 . S
C89 O86 1.267 . S
C89 O90 1.228 . S
O90 C89 1.228 . S
O91 Zn80 2.024 . S
O91 C82 1.058 . S
C92 O93 1.228 . S
C92 O94 1.267 . S
O93 C92 1.228 . S
O94 Zn81 1.969 . S
O94 C92 1.267 . S
O95 Zn81 1.965 . S
O95 C99 1.260 . S
O96 Zn80 1.969 . S
O96 C99 1.258 . S
O97 Zn81 2.024 . S
O97 C84 1.058 . S
C98 O87 1.260 . S
C98 O88 1.258 . S
C99 O95 1.260 . S
C99 O96 1.258 . S
Zn100 O106 1.969 . S
Zn100 O107 1.965 . S
Zn100 O111 2.024 . S
Zn100 O116 1.969 . S
Zn101 O108 1.969 . S
Zn101 O114 1.969 . S
Zn101 O115 1.965 . S
Zn101 O117 2.024 . S
C102 O103 1.229 . S
C102 O111 1.058 . S
O103 C102 1.229 . S
C104 O105 1.229 . S
C104 O117 1.058 . S
O105 C104 1.229 . S
O106 Zn100 1.969 . S
O106 C109 1.267 . S
O107 Zn100 1.965 . S
O107 C118 1.260 . S
O108 Zn101 1.969 . S
O108 C118 1.258 . S
C109 O106 1.267 . S
C109 O110 1.228 . S
O110 C109 1.228 . S
O111 Zn100 2.024 . S
O111 C102 1.058 . S
C112 O113 1.228 . S
C112 O114 1.267 . S
O113 C112 1.228 . S
O114 Zn101 1.969 . S
O114 C112 1.267 . S
O115 Zn101 1.965 . S
O115 C119 1.260 . S
O116 Zn100 1.969 . S
O116 C119 1.258 . S
O117 Zn101 2.024 . S
O117 C104 1.058 . S
C118 O107 1.260 . S
C118 O108 1.258 . S
C119 O115 1.260 . S
C119 O116 1.258 . S
Zn120 O126 1.969 . S
Zn120 O127 1.965 . S
Zn120 O131 2.024 . S
Zn120 O136 1.969 . S
Zn121 O128 1.969 . S
Zn121 O134 1.969 . S
Zn121 O135 1.965 . S
Zn121 O137 2.024 . S
C122 O123 1.229 . S
C122 O131 1.058 . S
O123 C122 1.229 . S
C124 O125 1.229 . S
C124 O137 1.058 . S
O125 C124 1.229 . S
O126 Zn120 1.969 . S
O126 C129 1.267 . S
O127 Zn120 1.965 . S
O127 C138 1.260 . S
O128 Zn121 1.969 . S
O128 C138 1.258 . S
C129 O126 1.267 . S
C129 O130 1.228 . S
O130 C129 1.228 . S
O131 Zn120 2.024 . S
O131 C122 1.058 . S
C132 O133 1.228 . S
C132 O134 1.267 . S
O133 C132 1.228 . S
O134 Zn121 1.969 . S
O134 C132 1.267 . S
O135 Zn121 1.965 . S
O135 C139 1.260 . S
O136 Zn120 1.969 . S
O136 C139 1.258 . S
O137 Zn121 2.024 . S
O137 C124 1.058 . S
C138 O127 1.260 . S
C138 O128 1.258 . S
C139 O135 1.260 . S
C139 O136 1.258 . S
Zn140 O146 1.969 . S
Zn140 O147 1.965 . S
Zn140 O151 2.024 . S
Zn140 O156 1.969 . S
Zn141 O148 1.969 . S
Zn141 O154 1.969 . S
Zn141 O155 1.965 . S
Zn141 O157 2.024 . S
C142 O143 1.229 . S
C142 O151 1.058 . S
O143 C142 1.229 . S
C144 O145 1.229 . S
C144 O157 1.058 . S
O145 C144 1.229 . S
O146 Zn140 1.969 . S
O146 C149 1.267 . S
O147 Zn140 1.965 . S
O147 C158 1.260 . S
O148 Zn141 1.969 . S
O148 C158 1.258 . S
C149 O146 1.267 . S
C149 O150 1.228 . S
O150 C149 1.228 . S
O151 Zn140 2.024 . S
O151 C142 1.058 . S
C152 O153 1.228 . S
C152 O154 1.267 . S
O153 C152 1.228 . S
O154 Zn141 1.969 . S
O154 C152 1.267 . S
O155 Zn141 1.965 . S
O155 C159 1.260 . S
O156 Zn140 1.969 . S
O156 C159 1.258 . S
O157 Zn141 2.024 . S
O157 C144 1.058 . S
C158 O147 1.260 . S
C158 O148 1.258 . S
C159 O155 1.260 . S
C159 O156 1.258 . S
Cd160 N163 2.334 1_655 S
Cd160 N189 2.304 1_565 S
Cd160 O196 2.268 . S
Cd160 O199 2.273 1_665 S
Cd160 O200 2.417 . S
Cd160 O201 2.330 . S
Cd161 N176 2.304 1_455 S
Cd161 N180 2.334 1_545 S
Cd161 O197 2.273 1_445 S
Cd161 O198 2.268 . S
Cd161 O202 2.417 . S
Cd161 O203 2.330 . S
C162 N163 1.332 . S
C162 C166 1.381 . S
C162 H168 0.931 . S
N163 Cd160 2.334 1_455 S
N163 C162 1.332 . S
N163 C167 1.328 . S
C164 C165 1.396 . S
C164 C167 1.378 . S
C164 H206 0.931 . S
C165 C164 1.396 . S
C165 C166 1.382 . S
C166 C162 1.381 . S
C166 C165 1.382 . S
C166 H207 0.930 . S
C167 N163 1.328 . S
C167 C164 1.378 . S
C167 H169 0.930 1_455 S
H168 C162 0.931 . S
H169 C167 0.930 1_655 S
C170 O196 1.238 . S
C170 O197 1.253 . S
C171 C172 1.379 . S
C171 N176 1.337 . S
C171 H177 0.929 . S
C172 C171 1.379 . S
C172 C173 1.380 . S
C172 H208 0.929 . S
C173 C172 1.380 . S
C173 C174 1.399 . S
C174 C173 1.399 . S
C174 C175 1.376 . S
C174 H209 0.931 . S
C175 C174 1.376 . S
C175 N176 1.338 . S
C175 H178 0.930 1_655 S
N176 Cd161 2.304 1_655 S
N176 C171 1.337 . S
N176 C175 1.338 . S
H177 C171 0.929 . S
H178 C175 0.930 1_455 S
C179 N180 1.332 . S
C179 C183 1.381 . S
C179 H185 0.931 . S
N180 Cd161 2.334 1_565 S
N180 C179 1.332 . S
N180 C184 1.328 . S
C181 C182 1.396 . S
C181 C184 1.378 . S
C181 H210 0.931 . S
C182 C181 1.396 . S
C182 C183 1.382 . S
C183 C179 1.381 . S
C183 C182 1.382 . S
C183 H211 0.930 . S
C184 N180 1.328 . S
C184 C181 1.378 . S
C184 H186 0.930 1_565 S
H185 C179 0.931 . S
H186 C184 0.930 1_545 S
C187 O198 1.238 . S
C187 O199 1.253 . S
C188 O200 1.239 . S
C188 O201 1.230 . S
N189 Cd160 2.304 1_545 S
N189 C190 1.337 . S
N189 C194 1.338 . S
C190 N189 1.337 . S
C190 C191 1.379 . S
C190 H204 0.929 . S
C191 C190 1.379 . S
C191 C192 1.380 . S
C191 H212 0.929 . S
C192 C191 1.380 . S
C192 C193 1.399 . S
C193 C192 1.399 . S
C193 C194 1.376 . S
C193 H213 0.931 . S
C194 N189 1.338 . S
C194 C193 1.376 . S
C194 H205 0.930 1_545 S
C195 O202 1.239 . S
C195 O203 1.230 . S
O196 Cd160 2.268 . S
O196 C170 1.238 . S
O197 Cd161 2.273 1_665 S
O197 C170 1.253 . S
O198 Cd161 2.268 . S
O198 C187 1.238 . S
O199 Cd160 2.273 1_445 S
O199 C187 1.253 . S
O200 Cd160 2.417 . S
O200 C188 1.239 . S
O201 Cd160 2.330 . S
O201 C188 1.230 . S
O202 Cd161 2.417 . S
O202 C195 1.239 . S
O203 Cd161 2.330 . S
O203 C195 1.230 . S
H204 C190 0.929 . S
H205 C194 0.930 1_565 S
H206 C164 0.931 . S
H207 C166 0.930 . S
H208 C172 0.929 . S
H209 C174 0.931 . S
H210 C181 0.931 . S
H211 C183 0.930 . S
H212 C191 0.929 . S
H213 C193 0.931 . S
Cd214 N217 2.334 . S
Cd214 N243 2.304 1_565 S
Cd214 O250 2.268 1_554 S
Cd214 O253 2.273 1_565 S
Cd214 O254 2.417 . S
Cd214 O255 2.330 . S
Cd215 N230 2.304 . S
Cd215 N234 2.334 1_545 S
Cd215 O251 2.273 1_545 S
Cd215 O252 2.268 1_556 S
Cd215 O256 2.417 . S
Cd215 O257 2.330 . S
C216 N217 1.332 . S
C216 C220 1.381 . S
C216 H222 0.931 . S
N217 Cd214 2.334 . S
N217 C216 1.332 . S
N217 C221 1.328 . S
C218 C219 1.396 . S
C218 C221 1.378 . S
C218 H260 0.931 1_554 S
C219 C218 1.396 . S
C219 C220 1.382 . S
C220 C216 1.381 . S
C220 C219 1.382 . S
C220 H261 0.930 . S
C221 N217 1.328 . S
C221 C218 1.378 . S
C221 H223 0.930 1_554 S
H222 C216 0.931 . S
H223 C221 0.930 1_556 S
C224 O250 1.238 . S
C224 O251 1.253 . S
C225 C226 1.379 . S
C225 N230 1.337 . S
C225 H231 0.929 . S
C226 C225 1.379 . S
C226 C227 1.380 . S
C226 H262 0.929 . S
C227 C226 1.380 . S
C227 C228 1.399 . S
C228 C227 1.399 . S
C228 C229 1.376 . S
C228 H263 0.931 1_556 S
C229 C228 1.376 . S
C229 N230 1.338 . S
C229 H232 0.930 1_556 S
N230 Cd215 2.304 . S
N230 C225 1.337 . S
N230 C229 1.338 . S
H231 C225 0.929 . S
H232 C229 0.930 1_554 S
C233 N234 1.332 . S
C233 C237 1.381 . S
C233 H239 0.931 . S
N234 Cd215 2.334 1_565 S
N234 C233 1.332 . S
N234 C238 1.328 . S
C235 C236 1.396 . S
C235 C238 1.378 . S
C235 H264 0.931 1_556 S
C236 C235 1.396 . S
C236 C237 1.382 . S
C237 C233 1.381 . S
C237 C236 1.382 . S
C237 H265 0.930 . S
C238 N234 1.328 . S
C238 C235 1.378 . S
C238 H240 0.930 1_566 S
H239 C233 0.931 . S
H240 C238 0.930 1_544 S
C241 O252 1.238 . S
C241 O253 1.253 . S
C242 O254 1.239 . S
C242 O255 1.230 . S
N243 Cd214 2.304 1_545 S
N243 C244 1.337 . S
N243 C248 1.338 . S
C244 N243 1.337 . S
C244 C245 1.379 . S
C244 H258 0.929 . S
C245 C244 1.379 . S
C245 C246 1.380 . S
C245 H266 0.929 . S
C246 C245 1.380 . S
C246 C247 1.399 . S
C247 C246 1.399 . S
C247 C248 1.376 . S
C247 H267 0.931 1_554 S
C248 N243 1.338 . S
C248 C247 1.376 . S
C248 H259 0.930 1_544 S
C249 O256 1.239 . S
C249 O257 1.230 . S
O250 Cd214 2.268 1_556 S
O250 C224 1.238 . S
O251 Cd215 2.273 1_565 S
O251 C224 1.253 . S
O252 Cd215 2.268 1_554 S
O252 C241 1.238 . S
O253 Cd214 2.273 1_545 S
O253 C241 1.253 . S
O254 Cd214 2.417 . S
O254 C242 1.239 . S
O255 Cd214 2.330 . S
O255 C242 1.230 . S
O256 Cd215 2.417 . S
O256 C249 1.239 . S
O257 Cd215 2.330 . S
O257 C249 1.230 . S
H258 C244 0.929 . S
H259 C248 0.930 1_566 S
H260 C218 0.931 1_556 S
H261 C220 0.930 . S
H262 C226 0.929 . S
H263 C228 0.931 1_554 S
H264 C235 0.931 1_554 S
H265 C237 0.930 . S
H266 C245 0.929 . S
H267 C247 0.931 1_556 S
Cd268 N271 2.334 1_655 S
Cd268 N297 2.304 . S
Cd268 O304 2.268 1_554 S
Cd268 O307 2.273 1_655 S
Cd268 O308 2.417 . S
Cd268 O309 2.330 . S
Cd269 N284 2.304 1_455 S
Cd269 N288 2.334 . S
Cd269 O305 2.273 1_455 S
Cd269 O306 2.268 1_556 S
Cd269 O310 2.417 . S
Cd269 O311 2.330 . S
C270 N271 1.332 . S
C270 C274 1.381 . S
C270 H276 0.931 . S
N271 Cd268 2.334 1_455 S
N271 C270 1.332 . S
N271 C275 1.328 . S
C272 C273 1.396 . S
C272 C275 1.378 . S
C272 H314 0.931 1_554 S
C273 C272 1.396 . S
C273 C274 1.382 . S
C274 C270 1.381 . S
C274 C273 1.382 . S
C274 H315 0.930 . S
C275 N271 1.328 . S
C275 C272 1.378 . S
C275 H277 0.930 1_454 S
H276 C270 0.931 . S
H277 C275 0.930 1_656 S
C278 O304 1.238 . S
C278 O305 1.253 . S
C279 C280 1.379 . S
C279 N284 1.337 . S
C279 H285 0.929 . S
C280 C279 1.379 . S
C280 C281 1.380 . S
C280 H316 0.929 . S
C281 C280 1.380 . S
C281 C282 1.399 . S
C282 C281 1.399 . S
C282 C283 1.376 . S
C282 H317 0.931 1_556 S
C283 C282 1.376 . S
C283 N284 1.338 . S
C283 H286 0.930 1_656 S
N284 Cd269 2.304 1_655 S
N284 C279 1.337 . S
N284 C283 1.338 . S
H285 C279 0.929 . S
H286 C283 0.930 1_454 S
C287 N288 1.332 . S
C287 C291 1.381 . S
C287 H293 0.931 . S
N288 Cd269 2.334 . S
N288 C287 1.332 . S
N288 C292 1.328 . S
C289 C290 1.396 . S
C289 C292 1.378 . S
C289 H318 0.931 1_556 S
C290 C289 1.396 . S
C290 C291 1.382 . S
C291 C287 1.381 . S
C291 C290 1.382 . S
C291 H319 0.930 . S
C292 N288 1.328 . S
C292 C289 1.378 . S
C292 H294 0.930 1_556 S
H293 C287 0.931 . S
H294 C292 0.930 1_554 S
C295 O306 1.238 . S
C295 O307 1.253 . S
C296 O308 1.239 . S
C296 O309 1.230 . S
N297 Cd268 2.304 . S
N297 C298 1.337 . S
N297 C302 1.338 . S
C298 N297 1.337 . S
C298 C299 1.379 . S
C298 H312 0.929 . S
C299 C298 1.379 . S
C299 C300 1.380 . S
C299 H320 0.929 . S
C300 C299 1.380 . S
C300 C301 1.399 . S
C301 C300 1.399 . S
C301 C302 1.376 . S
C301 H321 0.931 1_554 S
C302 N297 1.338 . S
C302 C301 1.376 . S
C302 H313 0.930 1_554 S
C303 O310 1.239 . S
C303 O311 1.230 . S
O304 Cd268 2.268 1_556 S
O304 C278 1.238 . S
O305 Cd269 2.273 1_655 S
O305 C278 1.253 . S
O306 Cd269 2.268 1_554 S
O306 C295 1.238 . S
O307 Cd268 2.273 1_455 S
O307 C295 1.253 . S
O308 Cd268 2.417 . S
O308 C296 1.239 . S
O309 Cd268 2.330 . S
O309 C296 1.230 . S
O310 Cd269 2.417 . S
O310 C303 1.239 . S
O311 Cd269 2.330 . S
O311 C303 1.230 . S
H312 C298 0.929 . S
H313 C302 0.930 1_556 S
H314 C272 0.931 1_556 S
H315 C274 0.930 . S
H316 C280 0.929 . S
H317 C282 0.931 1_554 S
H318 C289 0.931 1_554 S
H319 C291 0.930 . S
H320 C299 0.929 . S
H321 C301 0.931 1_556 S
Cd322 N325 2.334 . S
Cd322 N351 2.304 . S
Cd322 O358 2.268 1_554 S
Cd322 O361 2.273 . S
Cd322 O362 2.417 . S
Cd322 O363 2.330 . S
Cd323 N338 2.304 . S
Cd323 N342 2.334 . S
Cd323 O359 2.273 . S
Cd323 O360 2.268 1_556 S
Cd323 O364 2.417 . S
Cd323 O365 2.330 . S
C324 N325 1.332 . S
C324 C328 1.381 . S
C324 H330 0.931 . S
N325 Cd322 2.334 . S
N325 C324 1.332 . S
N325 C329 1.328 . S
C326 C327 1.396 . S
C326 C329 1.378 . S
C326 H368 0.931 1_554 S
C327 C326 1.396 . S
C327 C328 1.382 . S
C328 C324 1.381 . S
C328 C327 1.382 . S
C328 H369 0.930 . S
C329 N325 1.328 . S
C329 C326 1.378 . S
C329 H331 0.930 1_554 S
H330 C324 0.931 . S
H331 C329 0.930 1_556 S
C332 O358 1.238 . S
C332 O359 1.253 . S
C333 C334 1.379 . S
C333 N338 1.337 . S
C333 H339 0.929 . S
C334 C333 1.379 . S
C334 C335 1.380 . S
C334 H370 0.929 . S
C335 C334 1.380 . S
C335 C336 1.399 . S
C336 C335 1.399 . S
C336 C337 1.376 . S
C336 H371 0.931 1_556 S
C337 C336 1.376 . S
C337 N338 1.338 . S
C337 H340 0.930 1_556 S
N338 Cd323 2.304 . S
N338 C333 1.337 . S
N338 C337 1.338 . S
H339 C333 0.929 . S
H340 C337 0.930 1_554 S
C341 N342 1.332 . S
C341 C345 1.381 . S
C341 H347 0.931 . S
N342 Cd323 2.334 . S
N342 C341 1.332 . S
N342 C346 1.328 . S
C343 C344 1.396 . S
C343 C346 1.378 . S
C343 H372 0.931 1_556 S
C344 C343 1.396 . S
C344 C345 1.382 . S
C345 C341 1.381 . S
C345 C344 1.382 . S
C345 H373 0.930 . S
C346 N342 1.328 . S
C346 C343 1.378 . S
C346 H348 0.930 1_556 S
H347 C341 0.931 . S
H348 C346 0.930 1_554 S
C349 O360 1.238 . S
C349 O361 1.253 . S
C350 O362 1.239 . S
C350 O363 1.230 . S
N351 Cd322 2.304 . S
N351 C352 1.337 . S
N351 C356 1.338 . S
C352 N351 1.337 . S
C352 C353 1.379 . S
C352 H366 0.929 . S
C353 C352 1.379 . S
C353 C354 1.380 . S
C353 H374 0.929 . S
C354 C353 1.380 . S
C354 C355 1.399 . S
C355 C354 1.399 . S
C355 C356 1.376 . S
C355 H375 0.931 1_554 S
C356 N351 1.338 . S
C356 C355 1.376 . S
C356 H367 0.930 1_554 S
C357 O364 1.239 . S
C357 O365 1.230 . S
O358 Cd322 2.268 1_556 S
O358 C332 1.238 . S
O359 Cd323 2.273 . S
O359 C332 1.253 . S
O360 Cd323 2.268 1_554 S
O360 C349 1.238 . S
O361 Cd322 2.273 . S
O361 C349 1.253 . S
O362 Cd322 2.417 . S
O362 C350 1.239 . S
O363 Cd322 2.330 . S
O363 C350 1.230 . S
O364 Cd323 2.417 . S
O364 C357 1.239 . S
O365 Cd323 2.330 . S
O365 C357 1.230 . S
H366 C352 0.929 . S
H367 C356 0.930 1_556 S
H368 C326 0.931 1_556 S
H369 C328 0.930 . S
H370 C334 0.929 . S
H371 C336 0.931 1_554 S
H372 C343 0.931 1_554 S
H373 C345 0.930 . S
H374 C353 0.929 . S
H375 C355 0.931 1_556 S
Cd376 N379 2.334 1_655 S
Cd376 N405 2.304 . S
Cd376 O412 2.268 . S
Cd376 O415 2.273 1_655 S
Cd376 O416 2.417 . S
Cd376 O417 2.330 . S
Cd377 N392 2.304 1_455 S
Cd377 N396 2.334 . S
Cd377 O413 2.273 1_455 S
Cd377 O414 2.268 . S
Cd377 O418 2.417 . S
Cd377 O419 2.330 . S
C378 N379 1.332 . S
C378 C382 1.381 . S
C378 H384 0.931 . S
N379 Cd376 2.334 1_455 S
N379 C378 1.332 . S
N379 C383 1.328 . S
C380 C381 1.396 . S
C380 C383 1.378 . S
C380 H422 0.931 . S
C381 C380 1.396 . S
C381 C382 1.382 . S
C382 C378 1.381 . S
C382 C381 1.382 . S
C382 H423 0.930 . S
C383 N379 1.328 . S
C383 C380 1.378 . S
C383 H385 0.930 1_455 S
H384 C378 0.931 . S
H385 C383 0.930 1_655 S
C386 O412 1.238 . S
C386 O413 1.253 . S
C387 C388 1.379 . S
C387 N392 1.337 . S
C387 H393 0.929 . S
C388 C387 1.379 . S
C388 C389 1.380 . S
C388 H424 0.929 . S
C389 C388 1.380 . S
C389 C390 1.399 . S
C390 C389 1.399 . S
C390 C391 1.376 . S
C390 H425 0.931 . S
C391 C390 1.376 . S
C391 N392 1.338 . S
C391 H394 0.930 1_655 S
N392 Cd377 2.304 1_655 S
N392 C387 1.337 . S
N392 C391 1.338 . S
H393 C387 0.929 . S
H394 C391 0.930 1_455 S
C395 N396 1.332 . S
C395 C399 1.381 . S
C395 H401 0.931 . S
N396 Cd377 2.334 . S
N396 C395 1.332 . S
N396 C400 1.328 . S
C397 C398 1.396 . S
C397 C400 1.378 . S
C397 H426 0.931 . S
C398 C397 1.396 . S
C398 C399 1.382 . S
C399 C395 1.381 . S
C399 C398 1.382 . S
C399 H427 0.930 . S
C400 N396 1.328 . S
C400 C397 1.378 . S
C400 H402 0.930 . S
H401 C395 0.931 . S
H402 C400 0.930 . S
C403 O414 1.238 . S
C403 O415 1.253 . S
C404 O416 1.239 . S
C404 O417 1.230 . S
N405 Cd376 2.304 . S
N405 C406 1.337 . S
N405 C410 1.338 . S
C406 N405 1.337 . S
C406 C407 1.379 . S
C406 H420 0.929 . S
C407 C406 1.379 . S
C407 C408 1.380 . S
C407 H428 0.929 . S
C408 C407 1.380 . S
C408 C409 1.399 . S
C409 C408 1.399 . S
C409 C410 1.376 . S
C409 H429 0.931 . S
C410 N405 1.338 . S
C410 C409 1.376 . S
C410 H421 0.930 . S
C411 O418 1.239 . S
C411 O419 1.230 . S
O412 Cd376 2.268 . S
O412 C386 1.238 . S
O413 Cd377 2.273 1_655 S
O413 C386 1.253 . S
O414 Cd377 2.268 . S
O414 C403 1.238 . S
O415 Cd376 2.273 1_455 S
O415 C403 1.253 . S
O416 Cd376 2.417 . S
O416 C404 1.239 . S
O417 Cd376 2.330 . S
O417 C404 1.230 . S
O418 Cd377 2.417 . S
O418 C411 1.239 . S
O419 Cd377 2.330 . S
O419 C411 1.230 . S
H420 C406 0.929 . S
H421 C410 0.930 . S
H422 C380 0.931 . S
H423 C382 0.930 . S
H424 C388 0.929 . S
H425 C390 0.931 . S
H426 C397 0.931 . S
H427 C399 0.930 . S
H428 C407 0.929 . S
H429 C409 0.931 . S
Cd430 N433 2.334 . S
Cd430 N459 2.304 1_565 S
Cd430 O466 2.268 . S
Cd430 O469 2.273 1_565 S
Cd430 O470 2.417 . S
Cd430 O471 2.330 . S
Cd431 N446 2.304 . S
Cd431 N450 2.334 1_545 S
Cd431 O467 2.273 1_545 S
Cd431 O468 2.268 . S
Cd431 O472 2.417 . S
Cd431 O473 2.330 . S
C432 N433 1.332 . S
C432 C436 1.381 . S
C432 H438 0.931 . S
N433 Cd430 2.334 . S
N433 C432 1.332 . S
N433 C437 1.328 . S
C434 C435 1.396 . S
C434 C437 1.378 . S
C434 H476 0.931 . S
C435 C434 1.396 . S
C435 C436 1.382 . S
C436 C432 1.381 . S
C436 C435 1.382 . S
C436 H477 0.930 . S
C437 N433 1.328 . S
C437 C434 1.378 . S
C437 H439 0.930 . S
H438 C432 0.931 . S
H439 C437 0.930 . S
C440 O466 1.238 . S
C440 O467 1.253 . S
C441 C442 1.379 . S
C441 N446 1.337 . S
C441 H447 0.929 . S
C442 C441 1.379 . S
C442 C443 1.380 . S
C442 H478 0.929 . S
C443 C442 1.380 . S
C443 C444 1.399 . S
C444 C443 1.399 . S
C444 C445 1.376 . S
C444 H479 0.931 . S
C445 C444 1.376 . S
C445 N446 1.338 . S
C445 H448 0.930 . S
N446 Cd431 2.304 . S
N446 C441 1.337 . S
N446 C445 1.338 . S
H447 C441 0.929 . S
H448 C445 0.930 . S
C449 N450 1.332 . S
C449 C453 1.381 . S
C449 H455 0.931 . S
N450 Cd431 2.334 1_565 S
N450 C449 1.332 . S
N450 C454 1.328 . S
C451 C452 1.396 . S
C451 C454 1.378 . S
C451 H480 0.931 . S
C452 C451 1.396 . S
C452 C453 1.382 . S
C453 C449 1.381 . S
C453 C452 1.382 . S
C453 H481 0.930 . S
C454 N450 1.328 . S
C454 C451 1.378 . S
C454 H456 0.930 1_565 S
H455 C449 0.931 . S
H456 C454 0.930 1_545 S
C457 O468 1.238 . S
C457 O469 1.253 . S
C458 O470 1.239 . S
C458 O471 1.230 . S
N459 Cd430 2.304 1_545 S
N459 C460 1.337 . S
N459 C464 1.338 . S
C460 N459 1.337 . S
C460 C461 1.379 . S
C460 H474 0.929 . S
C461 C460 1.379 . S
C461 C462 1.380 . S
C461 H482 0.929 . S
C462 C461 1.380 . S
C462 C463 1.399 . S
C463 C462 1.399 . S
C463 C464 1.376 . S
C463 H483 0.931 . S
C464 N459 1.338 . S
C464 C463 1.376 . S
C464 H475 0.930 1_545 S
C465 O472 1.239 . S
C465 O473 1.230 . S
O466 Cd430 2.268 . S
O466 C440 1.238 . S
O467 Cd431 2.273 1_565 S
O467 C440 1.253 . S
O468 Cd431 2.268 . S
O468 C457 1.238 . S
O469 Cd430 2.273 1_545 S
O469 C457 1.253 . S
O470 Cd430 2.417 . S
O470 C458 1.239 . S
O471 Cd430 2.330 . S
O471 C458 1.230 . S
O472 Cd431 2.417 . S
O472 C465 1.239 . S
O473 Cd431 2.330 . S
O473 C465 1.230 . S
H474 C460 0.929 . S
H475 C464 0.930 1_565 S
H476 C434 0.931 . S
H477 C436 0.930 . S
H478 C442 0.929 . S
H479 C444 0.931 . S
H480 C451 0.931 . S
H481 C453 0.930 . S
H482 C461 0.929 . S
H483 C463 0.931 . S
H484 C492 0.929 . S
H485 C494 0.930 . S
H486 C496 0.930 . S
H487 C499 0.929 . S
H488 C502 0.930 . S
H489 C504 0.960 . S
H490 C504 0.960 . S
H491 C504 0.960 . S
C492 H484 0.929 . S
C492 C493 1.377 . S
C492 C494 1.384 . S
C493 C492 1.377 . S
C493 C499 1.390 . S
C494 H485 0.930 . S
C494 C492 1.384 . S
C494 C495 1.372 . S
C495 C494 1.372 . S
C495 C496 1.400 . S
C495 C500 1.490 . S
C496 H486 0.930 . S
C496 C495 1.400 . S
C496 C499 1.386 . S
H497 C513 0.930 . S
H498 C514 0.931 . S
C499 H487 0.929 . S
C499 C493 1.390 . S
C499 C496 1.386 . S
C500 C495 1.490 . S
C500 C502 1.395 . S
C500 C503 1.403 . S
H501 C507 0.930 . S
C502 H488 0.930 . S
C502 C500 1.395 . S
C502 C505 1.403 . S
C503 C500 1.403 . S
C503 C504 1.524 . S
C503 C507 1.400 . S
C504 H489 0.960 . S
C504 H490 0.960 . S
C504 H491 0.960 . S
C504 C503 1.524 . S
C505 C502 1.403 . S
C505 C506 1.392 . S
C505 C509 1.495 . S
C506 C505 1.392 . S
C506 C507 1.385 . S
C506 C508 1.478 . S
C507 H501 0.930 . S
C507 C503 1.400 . S
C507 C506 1.385 . S
C508 C506 1.478 . S
C508 C510 1.381 . S
C508 C514 1.383 . S
C509 C505 1.495 . S
C509 H515 0.959 . S
C509 H516 0.961 . S
C509 H517 0.960 . S
C510 C508 1.381 . S
C510 C511 1.394 . S
C510 H518 0.930 . S
C511 C510 1.394 . S
C511 C512 1.383 . S
C511 H519 0.929 . S
C512 C511 1.383 . S
C512 C513 1.377 . S
C513 H497 0.930 . S
C513 C512 1.377 . S
C513 C514 1.379 . S
C514 H498 0.931 . S
C514 C508 1.383 . S
C514 C513 1.379 . S
H515 C509 0.959 . S
H516 C509 0.961 . S
H517 C509 0.960 . S
H518 C510 0.930 . S
H519 C511 0.929 . S
H520 C528 0.929 . S
H521 C530 0.930 . S
H522 C532 0.930 . S
H523 C535 0.929 . S
H524 C538 0.930 . S
H525 C540 0.960 . S
H526 C540 0.960 . S
H527 C540 0.960 . S
C528 H520 0.929 . S
C528 C529 1.377 . S
C528 C530 1.384 . S
C529 C528 1.377 . S
C529 C535 1.390 . S
C530 H521 0.930 . S
C530 C528 1.384 . S
C530 C531 1.372 . S
C531 C530 1.372 . S
C531 C532 1.400 . S
C531 C536 1.490 . S
C532 H522 0.930 . S
C532 C531 1.400 . S
C532 C535 1.386 . S
H533 C549 0.930 . S
H534 C550 0.931 . S
C535 H523 0.929 . S
C535 C529 1.390 . S
C535 C532 1.386 . S
C536 C531 1.490 . S
C536 C538 1.395 . S
C536 C539 1.403 . S
H537 C543 0.930 . S
C538 H524 0.930 . S
C538 C536 1.395 . S
C538 C541 1.403 . S
C539 C536 1.403 . S
C539 C540 1.524 . S
C539 C543 1.400 . S
C540 H525 0.960 . S
C540 H526 0.960 . S
C540 H527 0.960 . S
C540 C539 1.524 . S
C541 C538 1.403 . S
C541 C542 1.392 . S
C541 C545 1.495 . S
C542 C541 1.392 . S
C542 C543 1.385 . S
C542 C544 1.478 . S
C543 H537 0.930 . S
C543 C539 1.400 . S
C543 C542 1.385 . S
C544 C542 1.478 . S
C544 C546 1.381 . S
C544 C550 1.383 . S
C545 C541 1.495 . S
C545 H551 0.959 . S
C545 H552 0.961 . S
C545 H553 0.960 . S
C546 C544 1.381 . S
C546 C547 1.394 . S
C546 H554 0.930 . S
C547 C546 1.394 . S
C547 C548 1.383 . S
C547 H555 0.929 . S
C548 C547 1.383 . S
C548 C549 1.377 . S
C549 H533 0.930 . S
C549 C548 1.377 . S
C549 C550 1.379 . S
C550 H534 0.931 . S
C550 C544 1.383 . S
C550 C549 1.379 . S
H551 C545 0.959 . S
H552 C545 0.961 . S
H553 C545 0.960 . S
H554 C546 0.930 . S
H555 C547 0.929 . S
H556 C564 0.929 . S
H557 C566 0.930 . S
H558 C568 0.930 . S
H559 C571 0.929 . S
H560 C574 0.930 . S
H561 C576 0.960 . S
H562 C576 0.960 . S
H563 C576 0.960 . S
C564 H556 0.929 . S
C564 C565 1.377 . S
C564 C566 1.384 . S
C565 C564 1.377 . S
C565 C571 1.390 . S
C566 H557 0.930 . S
C566 C564 1.384 . S
C566 C567 1.372 . S
C567 C566 1.372 . S
C567 C568 1.400 . S
C567 C572 1.490 . S
C568 H558 0.930 . S
C568 C567 1.400 . S
C568 C571 1.386 . S
H569 C585 0.930 . S
H570 C586 0.931 . S
C571 H559 0.929 . S
C571 C565 1.390 . S
C571 C568 1.386 . S
C572 C567 1.490 . S
C572 C574 1.395 . S
C572 C575 1.403 . S
H573 C579 0.930 . S
C574 H560 0.930 . S
C574 C572 1.395 . S
C574 C577 1.403 . S
C575 C572 1.403 . S
C575 C576 1.524 . S
C575 C579 1.400 . S
C576 H561 0.960 . S
C576 H562 0.960 . S
C576 H563 0.960 . S
C576 C575 1.524 . S
C577 C574 1.403 . S
C577 C578 1.392 . S
C577 C581 1.495 . S
C578 C577 1.392 . S
C578 C579 1.385 . S
C578 C580 1.478 . S
C579 H573 0.930 . S
C579 C575 1.400 . S
C579 C578 1.385 . S
C580 C578 1.478 . S
C580 C582 1.381 . S
C580 C586 1.383 . S
C581 C577 1.495 . S
C581 H587 0.959 . S
C581 H588 0.961 . S
C581 H589 0.960 . S
C582 C580 1.381 . S
C582 C583 1.394 . S
C582 H590 0.930 . S
C583 C582 1.394 . S
C583 C584 1.383 . S
C583 H591 0.929 . S
C584 C583 1.383 . S
C584 C585 1.377 . S
C585 H569 0.930 . S
C585 C584 1.377 . S
C585 C586 1.379 . S
C586 H570 0.931 . S
C586 C580 1.383 . S
C586 C585 1.379 . S
H587 C581 0.959 . S
H588 C581 0.961 . S
H589 C581 0.960 . S
H590 C582 0.930 . S
H591 C583 0.929 . S
H592 C600 0.929 . S
H593 C602 0.930 . S
H594 C604 0.930 . S
H595 C607 0.929 . S
H596 C610 0.930 . S
H597 C612 0.960 . S
H598 C612 0.960 . S
H599 C612 0.960 . S
C600 H592 0.929 . S
C600 C601 1.377 . S
C600 C602 1.384 . S
C601 C600 1.377 . S
C601 C607 1.390 . S
C602 H593 0.930 . S
C602 C600 1.384 . S
C602 C603 1.372 . S
C603 C602 1.372 . S
C603 C604 1.400 . S
C603 C608 1.490 . S
C604 H594 0.930 . S
C604 C603 1.400 . S
C604 C607 1.386 . S
H605 C621 0.930 . S
H606 C622 0.931 . S
C607 H595 0.929 . S
C607 C601 1.390 . S
C607 C604 1.386 . S
C608 C603 1.490 . S
C608 C610 1.395 . S
C608 C611 1.403 . S
H609 C615 0.930 . S
C610 H596 0.930 . S
C610 C608 1.395 . S
C610 C613 1.403 . S
C611 C608 1.403 . S
C611 C612 1.524 . S
C611 C615 1.400 . S
C612 H597 0.960 . S
C612 H598 0.960 . S
C612 H599 0.960 . S
C612 C611 1.524 . S
C613 C610 1.403 . S
C613 C614 1.392 . S
C613 C617 1.495 . S
C614 C613 1.392 . S
C614 C615 1.385 . S
C614 C616 1.478 . S
C615 H609 0.930 . S
C615 C611 1.400 . S
C615 C614 1.385 . S
C616 C614 1.478 . S
C616 C618 1.381 . S
C616 C622 1.383 . S
C617 C613 1.495 . S
C617 H623 0.959 . S
C617 H624 0.961 . S
C617 H625 0.960 . S
C618 C616 1.381 . S
C618 C619 1.394 . S
C618 H626 0.930 . S
C619 C618 1.394 . S
C619 C620 1.383 . S
C619 H627 0.929 . S
C620 C619 1.383 . S
C620 C621 1.377 . S
C621 H605 0.930 . S
C621 C620 1.377 . S
C621 C622 1.379 . S
C622 H606 0.931 . S
C622 C616 1.383 . S
C622 C621 1.379 . S
H623 C617 0.959 . S
H624 C617 0.961 . S
H625 C617 0.960 . S
H626 C618 0.930 . S
H627 C619 0.929 . S
H628 C636 0.929 . S
H629 C638 0.930 . S
H630 C640 0.930 . S
H631 C643 0.929 . S
H632 C646 0.930 . S
H633 C648 0.960 . S
H634 C648 0.960 . S
H635 C648 0.960 . S
C636 H628 0.929 . S
C636 C637 1.377 . S
C636 C638 1.384 . S
C637 C636 1.377 . S
C637 C643 1.390 . S
C638 H629 0.930 . S
C638 C636 1.384 . S
C638 C639 1.372 . S
C639 C638 1.372 . S
C639 C640 1.400 . S
C639 C644 1.490 . S
C640 H630 0.930 . S
C640 C639 1.400 . S
C640 C643 1.386 . S
H641 C657 0.930 . S
H642 C658 0.931 . S
C643 H631 0.929 . S
C643 C637 1.390 . S
C643 C640 1.386 . S
C644 C639 1.490 . S
C644 C646 1.395 . S
C644 C647 1.403 . S
H645 C651 0.930 . S
C646 H632 0.930 . S
C646 C644 1.395 . S
C646 C649 1.403 . S
C647 C644 1.403 . S
C647 C648 1.524 . S
C647 C651 1.400 . S
C648 H633 0.960 . S
C648 H634 0.960 . S
C648 H635 0.960 . S
C648 C647 1.524 . S
C649 C646 1.403 . S
C649 C650 1.392 . S
C649 C653 1.495 . S
C650 C649 1.392 . S
C650 C651 1.385 . S
C650 C652 1.478 . S
C651 H645 0.930 . S
C651 C647 1.400 . S
C651 C650 1.385 . S
C652 C650 1.478 . S
C652 C654 1.381 . S
C652 C658 1.383 . S
C653 C649 1.495 . S
C653 H659 0.959 . S
C653 H660 0.961 . S
C653 H661 0.960 . S
C654 C652 1.381 . S
C654 C655 1.394 . S
C654 H662 0.930 . S
C655 C654 1.394 . S
C655 C656 1.383 . S
C655 H663 0.929 . S
C656 C655 1.383 . S
C656 C657 1.377 . S
C657 H641 0.930 . S
C657 C656 1.377 . S
C657 C658 1.379 . S
C658 H642 0.931 . S
C658 C652 1.383 . S
C658 C657 1.379 . S
H659 C653 0.959 . S
H660 C653 0.961 . S
H661 C653 0.960 . S
H662 C654 0.930 . S
H663 C655 0.929 . S
H664 C672 0.929 . S
H665 C674 0.930 . S
H666 C676 0.930 . S
H667 C679 0.929 . S
H668 C682 0.930 . S
H669 C684 0.960 . S
H670 C684 0.960 . S
H671 C684 0.960 . S
C672 H664 0.929 . S
C672 C673 1.377 . S
C672 C674 1.384 . S
C673 C672 1.377 . S
C673 C679 1.390 . S
C674 H665 0.930 . S
C674 C672 1.384 . S
C674 C675 1.372 . S
C675 C674 1.372 . S
C675 C676 1.400 . S
C675 C680 1.490 . S
C676 H666 0.930 . S
C676 C675 1.400 . S
C676 C679 1.386 . S
H677 C693 0.930 . S
H678 C694 0.931 . S
C679 H667 0.929 . S
C679 C673 1.390 . S
C679 C676 1.386 . S
C680 C675 1.490 . S
C680 C682 1.395 . S
C680 C683 1.403 . S
H681 C687 0.930 . S
C682 H668 0.930 . S
C682 C680 1.395 . S
C682 C685 1.403 . S
C683 C680 1.403 . S
C683 C684 1.524 . S
C683 C687 1.400 . S
C684 H669 0.960 . S
C684 H670 0.960 . S
C684 H671 0.960 . S
C684 C683 1.524 . S
C685 C682 1.403 . S
C685 C686 1.392 . S
C685 C689 1.495 . S
C686 C685 1.392 . S
C686 C687 1.385 . S
C686 C688 1.478 . S
C687 H681 0.930 . S
C687 C683 1.400 . S
C687 C686 1.385 . S
C688 C686 1.478 . S
C688 C690 1.381 . S
C688 C694 1.383 . S
C689 C685 1.495 . S
C689 H695 0.959 . S
C689 H696 0.961 . S
C689 H697 0.960 . S
C690 C688 1.381 . S
C690 C691 1.394 . S
C690 H698 0.930 . S
C691 C690 1.394 . S
C691 C692 1.383 . S
C691 H699 0.929 . S
C692 C691 1.383 . S
C692 C693 1.377 . S
C693 H677 0.930 . S
C693 C692 1.377 . S
C693 C694 1.379 . S
C694 H678 0.931 . S
C694 C688 1.383 . S
C694 C693 1.379 . S
H695 C689 0.959 . S
H696 C689 0.961 . S
H697 C689 0.960 . S
H698 C690 0.930 . S
H699 C691 0.929 . S
H700 C708 0.929 . S
H701 C710 0.930 . S
H702 C712 0.930 . S
H703 C715 0.929 . S
H704 C718 0.930 . S
H705 C720 0.960 . S
H706 C720 0.960 . S
H707 C720 0.960 . S
C708 H700 0.929 . S
C708 C709 1.377 . S
C708 C710 1.384 . S
C709 C708 1.377 . S
C709 C715 1.390 . S
C710 H701 0.930 . S
C710 C708 1.384 . S
C710 C711 1.372 . S
C711 C710 1.372 . S
C711 C712 1.400 . S
C711 C716 1.490 . S
C712 H702 0.930 . S
C712 C711 1.400 . S
C712 C715 1.386 . S
H713 C729 0.930 . S
H714 C730 0.931 . S
C715 H703 0.929 . S
C715 C709 1.390 . S
C715 C712 1.386 . S
C716 C711 1.490 . S
C716 C718 1.395 . S
C716 C719 1.403 . S
H717 C723 0.930 . S
C718 H704 0.930 . S
C718 C716 1.395 . S
C718 C721 1.403 . S
C719 C716 1.403 . S
C719 C720 1.524 . S
C719 C723 1.400 . S
C720 H705 0.960 . S
C720 H706 0.960 . S
C720 H707 0.960 . S
C720 C719 1.524 . S
C721 C718 1.403 . S
C721 C722 1.392 . S
C721 C725 1.495 . S
C722 C721 1.392 . S
C722 C723 1.385 . S
C722 C724 1.478 . S
C723 H717 0.930 . S
C723 C719 1.400 . S
C723 C722 1.385 . S
C724 C722 1.478 . S
C724 C726 1.381 . S
C724 C730 1.383 . S
C725 C721 1.495 . S
C725 H731 0.959 . S
C725 H732 0.961 . S
C725 H733 0.960 . S
C726 C724 1.381 . S
C726 C727 1.394 . S
C726 H734 0.930 . S
C727 C726 1.394 . S
C727 C728 1.383 . S
C727 H735 0.929 . S
C728 C727 1.383 . S
C728 C729 1.377 . S
C729 H713 0.930 . S
C729 C728 1.377 . S
C729 C730 1.379 . S
C730 H714 0.931 . S
C730 C724 1.383 . S
C730 C729 1.379 . S
H731 C725 0.959 . S
H732 C725 0.961 . S
H733 C725 0.960 . S
H734 C726 0.930 . S
H735 C727 0.929 . S
H736 C744 0.929 . S
H737 C746 0.930 . S
H738 C748 0.930 . S
H739 C751 0.929 . S
H740 C754 0.930 . S
H741 C756 0.960 . S
H742 C756 0.960 . S
H743 C756 0.960 . S
C744 H736 0.929 . S
C744 C745 1.377 . S
C744 C746 1.384 . S
C745 C744 1.377 . S
C745 C751 1.390 . S
C746 H737 0.930 . S
C746 C744 1.384 . S
C746 C747 1.372 . S
C747 C746 1.372 . S
C747 C748 1.400 . S
C747 C752 1.490 . S
C748 H738 0.930 . S
C748 C747 1.400 . S
C748 C751 1.386 . S
H749 C765 0.930 . S
H750 C766 0.931 . S
C751 H739 0.929 . S
C751 C745 1.390 . S
C751 C748 1.386 . S
C752 C747 1.490 . S
C752 C754 1.395 . S
C752 C755 1.403 . S
H753 C759 0.930 . S
C754 H740 0.930 . S
C754 C752 1.395 . S
C754 C757 1.403 . S
C755 C752 1.403 . S
C755 C756 1.524 . S
C755 C759 1.400 . S
C756 H741 0.960 . S
C756 H742 0.960 . S
C756 H743 0.960 . S
C756 C755 1.524 . S
C757 C754 1.403 . S
C757 C758 1.392 . S
C757 C761 1.495 . S
C758 C757 1.392 . S
C758 C759 1.385 . S
C758 C760 1.478 . S
C759 H753 0.930 . S
C759 C755 1.400 . S
C759 C758 1.385 . S
C760 C758 1.478 . S
C760 C762 1.381 . S
C760 C766 1.383 . S
C761 C757 1.495 . S
C761 H767 0.959 . S
C761 H768 0.961 . S
C761 H769 0.960 . S
C762 C760 1.381 . S
C762 C763 1.394 . S
C762 H770 0.930 . S
C763 C762 1.394 . S
C763 C764 1.383 . S
C763 H771 0.929 . S
C764 C763 1.383 . S
C764 C765 1.377 . S
C765 H749 0.930 . S
C765 C764 1.377 . S
C765 C766 1.379 . S
C766 H750 0.931 . S
C766 C760 1.383 . S
C766 C765 1.379 . S
H767 C761 0.959 . S
H768 C761 0.961 . S
H769 C761 0.960 . S
H770 C762 0.930 . S
H771 C763 0.929 . S
H772 C780 0.929 . S
H773 C782 0.930 . S
H774 C784 0.930 . S
H775 C787 0.929 . S
H776 C790 0.930 . S
H777 C792 0.960 . S
H778 C792 0.960 . S
H779 C792 0.960 . S
C780 H772 0.929 . S
C780 C781 1.377 . S
C780 C782 1.384 . S
C781 C780 1.377 . S
C781 C787 1.390 . S
C782 H773 0.930 . S
C782 C780 1.384 . S
C782 C783 1.372 . S
C783 C782 1.372 . S
C783 C784 1.400 . S
C783 C788 1.490 . S
C784 H774 0.930 . S
C784 C783 1.400 . S
C784 C787 1.386 . S
H785 C801 0.930 . S
H786 C802 0.931 . S
C787 H775 0.929 . S
C787 C781 1.390 . S
C787 C784 1.386 . S
C788 C783 1.490 . S
C788 C790 1.395 . S
C788 C791 1.403 . S
H789 C795 0.930 . S
C790 H776 0.930 . S
C790 C788 1.395 . S
C790 C793 1.403 . S
C791 C788 1.403 . S
C791 C792 1.524 . S
C791 C795 1.400 . S
C792 H777 0.960 . S
C792 H778 0.960 . S
C792 H779 0.960 . S
C792 C791 1.524 . S
C793 C790 1.403 . S
C793 C794 1.392 . S
C793 C797 1.495 . S
C794 C793 1.392 . S
C794 C795 1.385 . S
C794 C796 1.478 . S
C795 H789 0.930 . S
C795 C791 1.400 . S
C795 C794 1.385 . S
C796 C794 1.478 . S
C796 C798 1.381 . S
C796 C802 1.383 . S
C797 C793 1.495 . S
C797 H803 0.959 . S
C797 H804 0.961 . S
C797 H805 0.960 . S
C798 C796 1.381 . S
C798 C799 1.394 . S
C798 H806 0.930 . S
C799 C798 1.394 . S
C799 C800 1.383 . S
C799 H807 0.929 . S
C800 C799 1.383 . S
C800 C801 1.377 . S
C801 H785 0.930 . S
C801 C800 1.377 . S
C801 C802 1.379 . S
C802 H786 0.931 . S
C802 C796 1.383 . S
C802 C801 1.379 . S
H803 C797 0.959 . S
H804 C797 0.961 . S
H805 C797 0.960 . S
H806 C798 0.930 . S
H807 C799 0.929 . S
H808 C816 0.929 . S
H809 C818 0.930 . S
H810 C820 0.930 . S
H811 C823 0.929 . S
H812 C826 0.930 . S
H813 C828 0.960 . S
H814 C828 0.960 . S
H815 C828 0.960 . S
C816 H808 0.929 . S
C816 C817 1.377 . S
C816 C818 1.384 . S
C817 C816 1.377 . S
C817 C823 1.390 . S
C818 H809 0.930 . S
C818 C816 1.384 . S
C818 C819 1.372 . S
C819 C818 1.372 . S
C819 C820 1.400 . S
C819 C824 1.490 . S
C820 H810 0.930 . S
C820 C819 1.400 . S
C820 C823 1.386 . S
H821 C837 0.930 . S
H822 C838 0.931 . S
C823 H811 0.929 . S
C823 C817 1.390 . S
C823 C820 1.386 . S
C824 C819 1.490 . S
C824 C826 1.395 . S
C824 C827 1.403 . S
H825 C831 0.930 . S
C826 H812 0.930 . S
C826 C824 1.395 . S
C826 C829 1.403 . S
C827 C824 1.403 . S
C827 C828 1.524 . S
C827 C831 1.400 . S
C828 H813 0.960 . S
C828 H814 0.960 . S
C828 H815 0.960 . S
C828 C827 1.524 . S
C829 C826 1.403 . S
C829 C830 1.392 . S
C829 C833 1.495 . S
C830 C829 1.392 . S
C830 C831 1.385 . S
C830 C832 1.478 . S
C831 H825 0.930 . S
C831 C827 1.400 . S
C831 C830 1.385 . S
C832 C830 1.478 . S
C832 C834 1.381 . S
C832 C838 1.383 . S
C833 C829 1.495 . S
C833 H839 0.959 . S
C833 H840 0.961 . S
C833 H841 0.960 . S
C834 C832 1.381 . S
C834 C835 1.394 . S
C834 H842 0.930 . S
C835 C834 1.394 . S
C835 C836 1.383 . S
C835 H843 0.929 . S
C836 C835 1.383 . S
C836 C837 1.377 . S
C837 H821 0.930 . S
C837 C836 1.377 . S
C837 C838 1.379 . S
C838 H822 0.931 . S
C838 C832 1.383 . S
C838 C837 1.379 . S
H839 C833 0.959 . S
H840 C833 0.961 . S
H841 C833 0.960 . S
H842 C834 0.930 . S
H843 C835 0.929 . S
H844 C852 0.929 . S
H845 C854 0.930 . S
H846 C856 0.930 . S
H847 C859 0.929 . S
H848 C862 0.930 . S
H849 C864 0.960 . S
H850 C864 0.960 . S
H851 C864 0.960 . S
C852 H844 0.929 . S
C852 C853 1.377 . S
C852 C854 1.384 . S
C853 C852 1.377 . S
C853 C859 1.390 . S
C854 H845 0.930 . S
C854 C852 1.384 . S
C854 C855 1.372 . S
C855 C854 1.372 . S
C855 C856 1.400 . S
C855 C860 1.490 . S
C856 H846 0.930 . S
C856 C855 1.400 . S
C856 C859 1.386 . S
H857 C873 0.930 . S
H858 C874 0.931 . S
C859 H847 0.929 . S
C859 C853 1.390 . S
C859 C856 1.386 . S
C860 C855 1.490 . S
C860 C862 1.395 . S
C860 C863 1.403 . S
H861 C867 0.930 . S
C862 H848 0.930 . S
C862 C860 1.395 . S
C862 C865 1.403 . S
C863 C860 1.403 . S
C863 C864 1.524 . S
C863 C867 1.400 . S
C864 H849 0.960 . S
C864 H850 0.960 . S
C864 H851 0.960 . S
C864 C863 1.524 . S
C865 C862 1.403 . S
C865 C866 1.392 . S
C865 C869 1.495 . S
C866 C865 1.392 . S
C866 C867 1.385 . S
C866 C868 1.478 . S
C867 H861 0.930 . S
C867 C863 1.400 . S
C867 C866 1.385 . S
C868 C866 1.478 . S
C868 C870 1.381 . S
C868 C874 1.383 . S
C869 C865 1.495 . S
C869 H875 0.959 . S
C869 H876 0.961 . S
C869 H877 0.960 . S
C870 C868 1.381 . S
C870 C871 1.394 . S
C870 H878 0.930 . S
C871 C870 1.394 . S
C871 C872 1.383 . S
C871 H879 0.929 . S
C872 C871 1.383 . S
C872 C873 1.377 . S
C873 H857 0.930 . S
C873 C872 1.377 . S
C873 C874 1.379 . S
C874 H858 0.931 . S
C874 C868 1.383 . S
C874 C873 1.379 . S
H875 C869 0.959 . S
H876 C869 0.961 . S
H877 C869 0.960 . S
H878 C870 0.930 . S
H879 C871 0.929 . S
H880 C888 0.929 . S
H881 C890 0.930 . S
H882 C892 0.930 . S
H883 C895 0.929 . S
H884 C898 0.930 . S
H885 C900 0.960 . S
H886 C900 0.960 . S
H887 C900 0.960 . S
C888 H880 0.929 . S
C888 C889 1.377 . S
C888 C890 1.384 . S
C889 C888 1.377 . S
C889 C895 1.390 . S
C890 H881 0.930 . S
C890 C888 1.384 . S
C890 C891 1.372 . S
C891 C890 1.372 . S
C891 C892 1.400 . S
C891 C896 1.490 . S
C892 H882 0.930 . S
C892 C891 1.400 . S
C892 C895 1.386 . S
H893 C909 0.930 . S
H894 C910 0.931 . S
C895 H883 0.929 . S
C895 C889 1.390 . S
C895 C892 1.386 . S
C896 C891 1.490 . S
C896 C898 1.395 . S
C896 C899 1.403 . S
H897 C903 0.930 . S
C898 H884 0.930 . S
C898 C896 1.395 . S
C898 C901 1.403 . S
C899 C896 1.403 . S
C899 C900 1.524 . S
C899 C903 1.400 . S
C900 H885 0.960 . S
C900 H886 0.960 . S
C900 H887 0.960 . S
C900 C899 1.524 . S
C901 C898 1.403 . S
C901 C902 1.392 . S
C901 C905 1.495 . S
C902 C901 1.392 . S
C902 C903 1.385 . S
C902 C904 1.478 . S
C903 H897 0.930 . S
C903 C899 1.400 . S
C903 C902 1.385 . S
C904 C902 1.478 . S
C904 C906 1.381 . S
C904 C910 1.383 . S
C905 C901 1.495 . S
C905 H911 0.959 . S
C905 H912 0.961 . S
C905 H913 0.960 . S
C906 C904 1.381 . S
C906 C907 1.394 . S
C906 H914 0.930 . S
C907 C906 1.394 . S
C907 C908 1.383 . S
C907 H915 0.929 . S
C908 C907 1.383 . S
C908 C909 1.377 . S
C909 H893 0.930 . S
C909 C908 1.377 . S
C909 C910 1.379 . S
C910 H894 0.931 . S
C910 C904 1.383 . S
C910 C909 1.379 . S
H911 C905 0.959 . S
H912 C905 0.961 . S
H913 C905 0.960 . S
H914 C906 0.930 . S
H915 C907 0.929 . S
H916 C924 0.929 . S
H917 C926 0.930 . S
H918 C928 0.930 . S
H919 C931 0.929 . S
H920 C934 0.930 . S
H921 C936 0.960 . S
H922 C936 0.960 . S
H923 C936 0.960 . S
C924 H916 0.929 . S
C924 C925 1.377 . S
C924 C926 1.384 . S
C925 C924 1.377 . S
C925 C931 1.390 . S
C926 H917 0.930 . S
C926 C924 1.384 . S
C926 C927 1.372 . S
C927 C926 1.372 . S
C927 C928 1.400 . S
C927 C932 1.490 . S
C928 H918 0.930 . S
C928 C927 1.400 . S
C928 C931 1.386 . S
H929 C945 0.930 . S
H930 C946 0.931 . S
C931 H919 0.929 . S
C931 C925 1.390 . S
C931 C928 1.386 . S
C932 C927 1.490 . S
C932 C934 1.395 . S
C932 C935 1.403 . S
H933 C939 0.930 . S
C934 H920 0.930 . S
C934 C932 1.395 . S
C934 C937 1.403 . S
C935 C932 1.403 . S
C935 C936 1.524 . S
C935 C939 1.400 . S
C936 H921 0.960 . S
C936 H922 0.960 . S
C936 H923 0.960 . S
C936 C935 1.524 . S
C937 C934 1.403 . S
C937 C938 1.392 . S
C937 C941 1.495 . S
C938 C937 1.392 . S
C938 C939 1.385 . S
C938 C940 1.478 . S
C939 H933 0.930 . S
C939 C935 1.400 . S
C939 C938 1.385 . S
C940 C938 1.478 . S
C940 C942 1.381 . S
C940 C946 1.383 . S
C941 C937 1.495 . S
C941 H947 0.959 . S
C941 H948 0.961 . S
C941 H949 0.960 . S
C942 C940 1.381 . S
C942 C943 1.394 . S
C942 H950 0.930 . S
C943 C942 1.394 . S
C943 C944 1.383 . S
C943 H951 0.929 . S
C944 C943 1.383 . S
C944 C945 1.377 . S
C945 H929 0.930 . S
C945 C944 1.377 . S
C945 C946 1.379 . S
C946 H930 0.931 . S
C946 C940 1.383 . S
C946 C945 1.379 . S
H947 C941 0.959 . S
H948 C941 0.961 . S
H949 C941 0.960 . S
H950 C942 0.930 . S
H951 C943 0.929 . S
H952 C960 0.929 . S
H953 C962 0.930 . S
H954 C964 0.930 . S
H955 C967 0.929 . S
H956 C970 0.930 . S
H957 C972 0.960 . S
H958 C972 0.960 . S
H959 C972 0.960 . S
C960 H952 0.929 . S
C960 C961 1.377 . S
C960 C962 1.384 . S
C961 C960 1.377 . S
C961 C967 1.390 . S
C962 H953 0.930 . S
C962 C960 1.384 . S
C962 C963 1.372 . S
C963 C962 1.372 . S
C963 C964 1.400 . S
C963 C968 1.490 . S
C964 H954 0.930 . S
C964 C963 1.400 . S
C964 C967 1.386 . S
H965 C981 0.930 . S
H966 C982 0.931 . S
C967 H955 0.929 . S
C967 C961 1.390 . S
C967 C964 1.386 . S
C968 C963 1.490 . S
C968 C970 1.395 . S
C968 C971 1.403 . S
H969 C975 0.930 . S
C970 H956 0.930 . S
C970 C968 1.395 . S
C970 C973 1.403 . S
C971 C968 1.403 . S
C971 C972 1.524 . S
C971 C975 1.400 . S
C972 H957 0.960 . S
C972 H958 0.960 . S
C972 H959 0.960 . S
C972 C971 1.524 . S
C973 C970 1.403 . S
C973 C974 1.392 . S
C973 C977 1.495 . S
C974 C973 1.392 . S
C974 C975 1.385 . S
C974 C976 1.478 . S
C975 H969 0.930 . S
C975 C971 1.400 . S
C975 C974 1.385 . S
C976 C974 1.478 . S
C976 C978 1.381 . S
C976 C982 1.383 . S
C977 C973 1.495 . S
C977 H983 0.959 . S
C977 H984 0.961 . S
C977 H985 0.960 . S
C978 C976 1.381 . S
C978 C979 1.394 . S
C978 H986 0.930 . S
C979 C978 1.394 . S
C979 C980 1.383 . S
C979 H987 0.929 . S
C980 C979 1.383 . S
C980 C981 1.377 . S
C981 H965 0.930 . S
C981 C980 1.377 . S
C981 C982 1.379 . S
C982 H966 0.931 . S
C982 C976 1.383 . S
C982 C981 1.379 . S
H983 C977 0.959 . S
H984 C977 0.961 . S
H985 C977 0.960 . S
H986 C978 0.930 . S
H987 C979 0.929 . S
H988 C996 0.929 . S
H989 C998 0.930 . S
H990 C1000 0.930 . S
H991 C1003 0.929 . S
H992 C1006 0.930 . S
H993 C1008 0.960 . S
H994 C1008 0.960 . S
H995 C1008 0.960 . S
C996 H988 0.929 . S
C996 C997 1.377 . S
C996 C998 1.384 . S
C997 C996 1.377 . S
C997 C1003 1.390 . S
C998 H989 0.930 . S
C998 C996 1.384 . S
C998 C999 1.372 . S
C999 C998 1.372 . S
C999 C1000 1.400 . S
C999 C1004 1.490 . S
C1000 H990 0.930 . S
C1000 C999 1.400 . S
C1000 C1003 1.386 . S
H1001 C1017 0.930 . S
H1002 C1018 0.931 . S
C1003 H991 0.929 . S
C1003 C997 1.390 . S
C1003 C1000 1.386 . S
C1004 C999 1.490 . S
C1004 C1006 1.395 . S
C1004 C1007 1.403 . S
H1005 C1011 0.930 . S
C1006 H992 0.930 . S
C1006 C1004 1.395 . S
C1006 C1009 1.403 . S
C1007 C1004 1.403 . S
C1007 C1008 1.524 . S
C1007 C1011 1.400 . S
C1008 H993 0.960 . S
C1008 H994 0.960 . S
C1008 H995 0.960 . S
C1008 C1007 1.524 . S
C1009 C1006 1.403 . S
C1009 C1010 1.392 . S
C1009 C1013 1.495 . S
C1010 C1009 1.392 . S
C1010 C1011 1.385 . S
C1010 C1012 1.478 . S
C1011 H1005 0.930 . S
C1011 C1007 1.400 . S
C1011 C1010 1.385 . S
C1012 C1010 1.478 . S
C1012 C1014 1.381 . S
C1012 C1018 1.383 . S
C1013 C1009 1.495 . S
C1013 H1019 0.959 . S
C1013 H1020 0.961 . S
C1013 H1021 0.960 . S
C1014 C1012 1.381 . S
C1014 C1015 1.394 . S
C1014 H1022 0.930 . S
C1015 C1014 1.394 . S
C1015 C1016 1.383 . S
C1015 H1023 0.929 . S
C1016 C1015 1.383 . S
C1016 C1017 1.377 . S
C1017 H1001 0.930 . S
C1017 C1016 1.377 . S
C1017 C1018 1.379 . S
C1018 H1002 0.931 . S
C1018 C1012 1.383 . S
C1018 C1017 1.379 . S
H1019 C1013 0.959 . S
H1020 C1013 0.961 . S
H1021 C1013 0.960 . S
H1022 C1014 0.930 . S
H1023 C1015 0.929 . S
H1024 C1032 0.929 . S
H1025 C1034 0.930 . S
H1026 C1036 0.930 . S
H1027 C1039 0.929 . S
H1028 C1042 0.930 . S
H1029 C1044 0.960 . S
H1030 C1044 0.960 . S
H1031 C1044 0.960 . S
C1032 H1024 0.929 . S
C1032 C1033 1.377 . S
C1032 C1034 1.384 . S
C1033 C1032 1.377 . S
C1033 C1039 1.390 . S
C1034 H1025 0.930 . S
C1034 C1032 1.384 . S
C1034 C1035 1.372 . S
C1035 C1034 1.372 . S
C1035 C1036 1.400 . S
C1035 C1040 1.490 . S
C1036 H1026 0.930 . S
C1036 C1035 1.400 . S
C1036 C1039 1.386 . S
H1037 C1053 0.930 . S
H1038 C1054 0.931 . S
C1039 H1027 0.929 . S
C1039 C1033 1.390 . S
C1039 C1036 1.386 . S
C1040 C1035 1.490 . S
C1040 C1042 1.395 . S
C1040 C1043 1.403 . S
H1041 C1047 0.930 . S
C1042 H1028 0.930 . S
C1042 C1040 1.395 . S
C1042 C1045 1.403 . S
C1043 C1040 1.403 . S
C1043 C1044 1.524 . S
C1043 C1047 1.400 . S
C1044 H1029 0.960 . S
C1044 H1030 0.960 . S
C1044 H1031 0.960 . S
C1044 C1043 1.524 . S
C1045 C1042 1.403 . S
C1045 C1046 1.392 . S
C1045 C1049 1.495 . S
C1046 C1045 1.392 . S
C1046 C1047 1.385 . S
C1046 C1048 1.478 . S
C1047 H1041 0.930 . S
C1047 C1043 1.400 . S
C1047 C1046 1.385 . S
C1048 C1046 1.478 . S
C1048 C1050 1.381 . S
C1048 C1054 1.383 . S
C1049 C1045 1.495 . S
C1049 H1055 0.959 . S
C1049 H1056 0.961 . S
C1049 H1057 0.960 . S
C1050 C1048 1.381 . S
C1050 C1051 1.394 . S
C1050 H1058 0.930 . S
C1051 C1050 1.394 . S
C1051 C1052 1.383 . S
C1051 H1059 0.929 . S
C1052 C1051 1.383 . S
C1052 C1053 1.377 . S
C1053 H1037 0.930 . S
C1053 C1052 1.377 . S
C1053 C1054 1.379 . S
C1054 H1038 0.931 . S
C1054 C1048 1.383 . S
C1054 C1053 1.379 . S
H1055 C1049 0.959 . S
H1056 C1049 0.961 . S
H1057 C1049 0.960 . S
H1058 C1050 0.930 . S
H1059 C1051 0.929 . S
H1060 C1068 0.929 . S
H1061 C1070 0.930 . S
H1062 C1072 0.930 . S
H1063 C1075 0.929 . S
H1064 C1078 0.930 . S
H1065 C1080 0.960 . S
H1066 C1080 0.960 . S
H1067 C1080 0.960 . S
C1068 H1060 0.929 . S
C1068 C1069 1.377 . S
C1068 C1070 1.384 . S
C1069 C1068 1.377 . S
C1069 C1075 1.390 . S
C1070 H1061 0.930 . S
C1070 C1068 1.384 . S
C1070 C1071 1.372 . S
C1071 C1070 1.372 . S
C1071 C1072 1.400 . S
C1071 C1076 1.490 . S
C1072 H1062 0.930 . S
C1072 C1071 1.400 . S
C1072 C1075 1.386 . S
H1073 C1089 0.930 . S
H1074 C1090 0.931 . S
C1075 H1063 0.929 . S
C1075 C1069 1.390 . S
C1075 C1072 1.386 . S
C1076 C1071 1.490 . S
C1076 C1078 1.395 . S
C1076 C1079 1.403 . S
H1077 C1083 0.930 . S
C1078 H1064 0.930 . S
C1078 C1076 1.395 . S
C1078 C1081 1.403 . S
C1079 C1076 1.403 . S
C1079 C1080 1.524 . S
C1079 C1083 1.400 . S
C1080 H1065 0.960 . S
C1080 H1066 0.960 . S
C1080 H1067 0.960 . S
C1080 C1079 1.524 . S
C1081 C1078 1.403 . S
C1081 C1082 1.392 . S
C1081 C1085 1.495 . S
C1082 C1081 1.392 . S
C1082 C1083 1.385 . S
C1082 C1084 1.478 . S
C1083 H1077 0.930 . S
C1083 C1079 1.400 . S
C1083 C1082 1.385 . S
C1084 C1082 1.478 . S
C1084 C1086 1.381 . S
C1084 C1090 1.383 . S
C1085 C1081 1.495 . S
C1085 H1091 0.959 . S
C1085 H1092 0.961 . S
C1085 H1093 0.960 . S
C1086 C1084 1.381 . S
C1086 C1087 1.394 . S
C1086 H1094 0.930 . S
C1087 C1086 1.394 . S
C1087 C1088 1.383 . S
C1087 H1095 0.929 . S
C1088 C1087 1.383 . S
C1088 C1089 1.377 . S
C1089 H1073 0.930 . S
C1089 C1088 1.377 . S
C1089 C1090 1.379 . S
C1090 H1074 0.931 . S
C1090 C1084 1.383 . S
C1090 C1089 1.379 . S
H1091 C1085 0.959 . S
H1092 C1085 0.961 . S
H1093 C1085 0.960 . S
H1094 C1086 0.930 . S
H1095 C1087 0.929 . S
H1096 C1104 0.929 . S
H1097 C1106 0.930 . S
H1098 C1108 0.930 . S
H1099 C1111 0.929 . S
H1100 C1114 0.930 . S
H1101 C1116 0.960 . S
H1102 C1116 0.960 . S
H1103 C1116 0.960 . S
C1104 H1096 0.929 . S
C1104 C1105 1.377 . S
C1104 C1106 1.384 . S
C1105 C1104 1.377 . S
C1105 C1111 1.390 . S
C1106 H1097 0.930 . S
C1106 C1104 1.384 . S
C1106 C1107 1.372 . S
C1107 C1106 1.372 . S
C1107 C1108 1.400 . S
C1107 C1112 1.490 . S
C1108 H1098 0.930 . S
C1108 C1107 1.400 . S
C1108 C1111 1.386 . S
H1109 C1125 0.930 . S
H1110 C1126 0.931 . S
C1111 H1099 0.929 . S
C1111 C1105 1.390 . S
C1111 C1108 1.386 . S
C1112 C1107 1.490 . S
C1112 C1114 1.395 . S
C1112 C1115 1.403 . S
H1113 C1119 0.930 . S
C1114 H1100 0.930 . S
C1114 C1112 1.395 . S
C1114 C1117 1.403 . S
C1115 C1112 1.403 . S
C1115 C1116 1.524 . S
C1115 C1119 1.400 . S
C1116 H1101 0.960 . S
C1116 H1102 0.960 . S
C1116 H1103 0.960 . S
C1116 C1115 1.524 . S
C1117 C1114 1.403 . S
C1117 C1118 1.392 . S
C1117 C1121 1.495 . S
C1118 C1117 1.392 . S
C1118 C1119 1.385 . S
C1118 C1120 1.478 . S
C1119 H1113 0.930 . S
C1119 C1115 1.400 . S
C1119 C1118 1.385 . S
C1120 C1118 1.478 . S
C1120 C1122 1.381 . S
C1120 C1126 1.383 . S
C1121 C1117 1.495 . S
C1121 H1127 0.959 . S
C1121 H1128 0.961 . S
C1121 H1129 0.960 . S
C1122 C1120 1.381 . S
C1122 C1123 1.394 . S
C1122 H1130 0.930 . S
C1123 C1122 1.394 . S
C1123 C1124 1.383 . S
C1123 H1131 0.929 . S
C1124 C1123 1.383 . S
C1124 C1125 1.377 . S
C1125 H1109 0.930 . S
C1125 C1124 1.377 . S
C1125 C1126 1.379 . S
C1126 H1110 0.931 . S
C1126 C1120 1.383 . S
C1126 C1125 1.379 . S
H1127 C1121 0.959 . S
H1128 C1121 0.961 . S
H1129 C1121 0.960 . S
H1130 C1122 0.930 . S
H1131 C1123 0.929 . S
H1132 C1140 0.929 . S
H1133 C1142 0.930 . S
H1134 C1144 0.930 . S
H1135 C1147 0.929 . S
H1136 C1150 0.930 . S
H1137 C1152 0.960 . S
H1138 C1152 0.960 . S
H1139 C1152 0.960 . S
C1140 H1132 0.929 . S
C1140 C1141 1.377 . S
C1140 C1142 1.384 . S
C1141 C1140 1.377 . S
C1141 C1147 1.390 . S
C1142 H1133 0.930 . S
C1142 C1140 1.384 . S
C1142 C1143 1.372 . S
C1143 C1142 1.372 . S
C1143 C1144 1.400 . S
C1143 C1148 1.490 . S
C1144 H1134 0.930 . S
C1144 C1143 1.400 . S
C1144 C1147 1.386 . S
H1145 C1161 0.930 . S
H1146 C1162 0.931 . S
C1147 H1135 0.929 . S
C1147 C1141 1.390 . S
C1147 C1144 1.386 . S
C1148 C1143 1.490 . S
C1148 C1150 1.395 . S
C1148 C1151 1.403 . S
H1149 C1155 0.930 . S
C1150 H1136 0.930 . S
C1150 C1148 1.395 . S
C1150 C1153 1.403 . S
C1151 C1148 1.403 . S
C1151 C1152 1.524 . S
C1151 C1155 1.400 . S
C1152 H1137 0.960 . S
C1152 H1138 0.960 . S
C1152 H1139 0.960 . S
C1152 C1151 1.524 . S
C1153 C1150 1.403 . S
C1153 C1154 1.392 . S
C1153 C1157 1.495 . S
C1154 C1153 1.392 . S
C1154 C1155 1.385 . S
C1154 C1156 1.478 . S
C1155 H1149 0.930 . S
C1155 C1151 1.400 . S
C1155 C1154 1.385 . S
C1156 C1154 1.478 . S
C1156 C1158 1.381 . S
C1156 C1162 1.383 . S
C1157 C1153 1.495 . S
C1157 H1163 0.959 . S
C1157 H1164 0.961 . S
C1157 H1165 0.960 . S
C1158 C1156 1.381 . S
C1158 C1159 1.394 . S
C1158 H1166 0.930 . S
C1159 C1158 1.394 . S
C1159 C1160 1.383 . S
C1159 H1167 0.929 . S
C1160 C1159 1.383 . S
C1160 C1161 1.377 . S
C1161 H1145 0.930 . S
C1161 C1160 1.377 . S
C1161 C1162 1.379 . S
C1162 H1146 0.931 . S
C1162 C1156 1.383 . S
C1162 C1161 1.379 . S
H1163 C1157 0.959 . S
H1164 C1157 0.961 . S
H1165 C1157 0.960 . S
H1166 C1158 0.930 . S
H1167 C1159 0.929 . S
H1168 C1176 0.929 . S
H1169 C1178 0.930 . S
H1170 C1180 0.930 . S
H1171 C1183 0.929 . S
H1172 C1186 0.930 . S
H1173 C1188 0.960 . S
H1174 C1188 0.960 . S
H1175 C1188 0.960 . S
C1176 H1168 0.929 . S
C1176 C1177 1.377 . S
C1176 C1178 1.384 . S
C1177 C1176 1.377 . S
C1177 C1183 1.390 . S
C1178 H1169 0.930 . S
C1178 C1176 1.384 . S
C1178 C1179 1.372 . S
C1179 C1178 1.372 . S
C1179 C1180 1.400 . S
C1179 C1184 1.490 . S
C1180 H1170 0.930 . S
C1180 C1179 1.400 . S
C1180 C1183 1.386 . S
H1181 C1197 0.930 . S
H1182 C1198 0.931 . S
C1183 H1171 0.929 . S
C1183 C1177 1.390 . S
C1183 C1180 1.386 . S
C1184 C1179 1.490 . S
C1184 C1186 1.395 . S
C1184 C1187 1.403 . S
H1185 C1191 0.930 . S
C1186 H1172 0.930 . S
C1186 C1184 1.395 . S
C1186 C1189 1.403 . S
C1187 C1184 1.403 . S
C1187 C1188 1.524 . S
C1187 C1191 1.400 . S
C1188 H1173 0.960 . S
C1188 H1174 0.960 . S
C1188 H1175 0.960 . S
C1188 C1187 1.524 . S
C1189 C1186 1.403 . S
C1189 C1190 1.392 . S
C1189 C1193 1.495 . S
C1190 C1189 1.392 . S
C1190 C1191 1.385 . S
C1190 C1192 1.478 . S
C1191 H1185 0.930 . S
C1191 C1187 1.400 . S
C1191 C1190 1.385 . S
C1192 C1190 1.478 . S
C1192 C1194 1.381 . S
C1192 C1198 1.383 . S
C1193 C1189 1.495 . S
C1193 H1199 0.959 . S
C1193 H1200 0.961 . S
C1193 H1201 0.960 . S
C1194 C1192 1.381 . S
C1194 C1195 1.394 . S
C1194 H1202 0.930 . S
C1195 C1194 1.394 . S
C1195 C1196 1.383 . S
C1195 H1203 0.929 . S
C1196 C1195 1.383 . S
C1196 C1197 1.377 . S
C1197 H1181 0.930 . S
C1197 C1196 1.377 . S
C1197 C1198 1.379 . S
C1198 H1182 0.931 . S
C1198 C1192 1.383 . S
C1198 C1197 1.379 . S
H1199 C1193 0.959 . S
H1200 C1193 0.961 . S
H1201 C1193 0.960 . S
H1202 C1194 0.930 . S
H1203 C1195 0.929 . S
H1204 C1212 0.929 . S
H1205 C1214 0.930 . S
H1206 C1216 0.930 . S
H1207 C1219 0.929 . S
H1208 C1222 0.930 . S
H1209 C1224 0.960 . S
H1210 C1224 0.960 . S
H1211 C1224 0.960 . S
C1212 H1204 0.929 . S
C1212 C1213 1.377 . S
C1212 C1214 1.384 . S
C1213 C1212 1.377 . S
C1213 C1219 1.390 . S
C1214 H1205 0.930 . S
C1214 C1212 1.384 . S
C1214 C1215 1.372 . S
C1215 C1214 1.372 . S
C1215 C1216 1.400 . S
C1215 C1220 1.490 . S
C1216 H1206 0.930 . S
C1216 C1215 1.400 . S
C1216 C1219 1.386 . S
H1217 C1233 0.930 . S
H1218 C1234 0.931 . S
C1219 H1207 0.929 . S
C1219 C1213 1.390 . S
C1219 C1216 1.386 . S
C1220 C1215 1.490 . S
C1220 C1222 1.395 . S
C1220 C1223 1.403 . S
H1221 C1227 0.930 . S
C1222 H1208 0.930 . S
C1222 C1220 1.395 . S
C1222 C1225 1.403 . S
C1223 C1220 1.403 . S
C1223 C1224 1.524 . S
C1223 C1227 1.400 . S
C1224 H1209 0.960 . S
C1224 H1210 0.960 . S
C1224 H1211 0.960 . S
C1224 C1223 1.524 . S
C1225 C1222 1.403 . S
C1225 C1226 1.392 . S
C1225 C1229 1.495 . S
C1226 C1225 1.392 . S
C1226 C1227 1.385 . S
C1226 C1228 1.478 . S
C1227 H1221 0.930 . S
C1227 C1223 1.400 . S
C1227 C1226 1.385 . S
C1228 C1226 1.478 . S
C1228 C1230 1.381 . S
C1228 C1234 1.383 . S
C1229 C1225 1.495 . S
C1229 H1235 0.959 . S
C1229 H1236 0.961 . S
C1229 H1237 0.960 . S
C1230 C1228 1.381 . S
C1230 C1231 1.394 . S
C1230 H1238 0.930 . S
C1231 C1230 1.394 . S
C1231 C1232 1.383 . S
C1231 H1239 0.929 . S
C1232 C1231 1.383 . S
C1232 C1233 1.377 . S
C1233 H1217 0.930 . S
C1233 C1232 1.377 . S
C1233 C1234 1.379 . S
C1234 H1218 0.931 . S
C1234 C1228 1.383 . S
C1234 C1233 1.379 . S
H1235 C1229 0.959 . S
H1236 C1229 0.961 . S
H1237 C1229 0.960 . S
H1238 C1230 0.930 . S
H1239 C1231 0.929 . S
H1240 C1248 0.929 . S
H1241 C1250 0.930 . S
H1242 C1252 0.930 . S
H1243 C1255 0.929 . S
H1244 C1258 0.930 . S
H1245 C1260 0.960 . S
H1246 C1260 0.960 . S
H1247 C1260 0.960 . S
C1248 H1240 0.929 . S
C1248 C1249 1.377 . S
C1248 C1250 1.384 . S
C1249 C1248 1.377 . S
C1249 C1255 1.390 . S
C1250 H1241 0.930 . S
C1250 C1248 1.384 . S
C1250 C1251 1.372 . S
C1251 C1250 1.372 . S
C1251 C1252 1.400 . S
C1251 C1256 1.490 . S
C1252 H1242 0.930 . S
C1252 C1251 1.400 . S
C1252 C1255 1.386 . S
H1253 C1269 0.930 . S
H1254 C1270 0.931 . S
C1255 H1243 0.929 . S
C1255 C1249 1.390 . S
C1255 C1252 1.386 . S
C1256 C1251 1.490 . S
C1256 C1258 1.395 . S
C1256 C1259 1.403 . S
H1257 C1263 0.930 . S
C1258 H1244 0.930 . S
C1258 C1256 1.395 . S
C1258 C1261 1.403 . S
C1259 C1256 1.403 . S
C1259 C1260 1.524 . S
C1259 C1263 1.400 . S
C1260 H1245 0.960 . S
C1260 H1246 0.960 . S
C1260 H1247 0.960 . S
C1260 C1259 1.524 . S
C1261 C1258 1.403 . S
C1261 C1262 1.392 . S
C1261 C1265 1.495 . S
C1262 C1261 1.392 . S
C1262 C1263 1.385 . S
C1262 C1264 1.478 . S
C1263 H1257 0.930 . S
C1263 C1259 1.400 . S
C1263 C1262 1.385 . S
C1264 C1262 1.478 . S
C1264 C1266 1.381 . S
C1264 C1270 1.383 . S
C1265 C1261 1.495 . S
C1265 H1271 0.959 . S
C1265 H1272 0.961 . S
C1265 H1273 0.960 . S
C1266 C1264 1.381 . S
C1266 C1267 1.394 . S
C1266 H1274 0.930 . S
C1267 C1266 1.394 . S
C1267 C1268 1.383 . S
C1267 H1275 0.929 . S
C1268 C1267 1.383 . S
C1268 C1269 1.377 . S
C1269 H1253 0.930 . S
C1269 C1268 1.377 . S
C1269 C1270 1.379 . S
C1270 H1254 0.931 . S
C1270 C1264 1.383 . S
C1270 C1269 1.379 . S
H1271 C1265 0.959 . S
H1272 C1265 0.961 . S
H1273 C1265 0.960 . S
H1274 C1266 0.930 . S
H1275 C1267 0.929 . S
H1276 C1284 0.929 . S
H1277 C1286 0.930 . S
H1278 C1288 0.930 . S
H1279 C1291 0.929 . S
H1280 C1294 0.930 . S
H1281 C1296 0.960 . S
H1282 C1296 0.960 . S
H1283 C1296 0.960 . S
C1284 H1276 0.929 . S
C1284 C1285 1.377 . S
C1284 C1286 1.384 . S
C1285 C1284 1.377 . S
C1285 C1291 1.390 . S
C1286 H1277 0.930 . S
C1286 C1284 1.384 . S
C1286 C1287 1.372 . S
C1287 C1286 1.372 . S
C1287 C1288 1.400 . S
C1287 C1292 1.490 . S
C1288 H1278 0.930 . S
C1288 C1287 1.400 . S
C1288 C1291 1.386 . S
H1289 C1305 0.930 . S
H1290 C1306 0.931 . S
C1291 H1279 0.929 . S
C1291 C1285 1.390 . S
C1291 C1288 1.386 . S
C1292 C1287 1.490 . S
C1292 C1294 1.395 . S
C1292 C1295 1.403 . S
H1293 C1299 0.930 . S
C1294 H1280 0.930 . S
C1294 C1292 1.395 . S
C1294 C1297 1.403 . S
C1295 C1292 1.403 . S
C1295 C1296 1.524 . S
C1295 C1299 1.400 . S
C1296 H1281 0.960 . S
C1296 H1282 0.960 . S
C1296 H1283 0.960 . S
C1296 C1295 1.524 . S
C1297 C1294 1.403 . S
C1297 C1298 1.392 . S
C1297 C1301 1.495 . S
C1298 C1297 1.392 . S
C1298 C1299 1.385 . S
C1298 C1300 1.478 . S
C1299 H1293 0.930 . S
C1299 C1295 1.400 . S
C1299 C1298 1.385 . S
C1300 C1298 1.478 . S
C1300 C1302 1.381 . S
C1300 C1306 1.383 . S
C1301 C1297 1.495 . S
C1301 H1307 0.959 . S
C1301 H1308 0.961 . S
C1301 H1309 0.960 . S
C1302 C1300 1.381 . S
C1302 C1303 1.394 . S
C1302 H1310 0.930 . S
C1303 C1302 1.394 . S
C1303 C1304 1.383 . S
C1303 H1311 0.929 . S
C1304 C1303 1.383 . S
C1304 C1305 1.377 . S
C1305 H1289 0.930 . S
C1305 C1304 1.377 . S
C1305 C1306 1.379 . S
C1306 H1290 0.931 . S
C1306 C1300 1.383 . S
C1306 C1305 1.379 . S
H1307 C1301 0.959 . S
H1308 C1301 0.961 . S
H1309 C1301 0.960 . S
H1310 C1302 0.930 . S
H1311 C1303 0.929 . S
H1312 C1320 0.929 . S
H1313 C1322 0.930 . S
H1314 C1324 0.930 . S
H1315 C1327 0.929 . S
H1316 C1330 0.930 . S
H1317 C1332 0.960 . S
H1318 C1332 0.960 . S
H1319 C1332 0.960 . S
C1320 H1312 0.929 . S
C1320 C1321 1.377 . S
C1320 C1322 1.384 . S
C1321 C1320 1.377 . S
C1321 C1327 1.390 . S
C1322 H1313 0.930 . S
C1322 C1320 1.384 . S
C1322 C1323 1.372 . S
C1323 C1322 1.372 . S
C1323 C1324 1.400 . S
C1323 C1328 1.490 . S
C1324 H1314 0.930 . S
C1324 C1323 1.400 . S
C1324 C1327 1.386 . S
H1325 C1341 0.930 . S
H1326 C1342 0.931 . S
C1327 H1315 0.929 . S
C1327 C1321 1.390 . S
C1327 C1324 1.386 . S
C1328 C1323 1.490 . S
C1328 C1330 1.395 . S
C1328 C1331 1.403 . S
H1329 C1335 0.930 . S
C1330 H1316 0.930 . S
C1330 C1328 1.395 . S
C1330 C1333 1.403 . S
C1331 C1328 1.403 . S
C1331 C1332 1.524 . S
C1331 C1335 1.400 . S
C1332 H1317 0.960 . S
C1332 H1318 0.960 . S
C1332 H1319 0.960 . S
C1332 C1331 1.524 . S
C1333 C1330 1.403 . S
C1333 C1334 1.392 . S
C1333 C1337 1.495 . S
C1334 C1333 1.392 . S
C1334 C1335 1.385 . S
C1334 C1336 1.478 . S
C1335 H1329 0.930 . S
C1335 C1331 1.400 . S
C1335 C1334 1.385 . S
C1336 C1334 1.478 . S
C1336 C1338 1.381 . S
C1336 C1342 1.383 . S
C1337 C1333 1.495 . S
C1337 H1343 0.959 . S
C1337 H1344 0.961 . S
C1337 H1345 0.960 . S
C1338 C1336 1.381 . S
C1338 C1339 1.394 . S
C1338 H1346 0.930 . S
C1339 C1338 1.394 . S
C1339 C1340 1.383 . S
C1339 H1347 0.929 . S
C1340 C1339 1.383 . S
C1340 C1341 1.377 . S
C1341 H1325 0.930 . S
C1341 C1340 1.377 . S
C1341 C1342 1.379 . S
C1342 H1326 0.931 . S
C1342 C1336 1.383 . S
C1342 C1341 1.379 . S
H1343 C1337 0.959 . S
H1344 C1337 0.961 . S
H1345 C1337 0.960 . S
H1346 C1338 0.930 . S
H1347 C1339 0.929 . S
H1348 C1356 0.929 . S
H1349 C1358 0.930 . S
H1350 C1360 0.930 . S
H1351 C1363 0.929 . S
H1352 C1366 0.930 . S
H1353 C1368 0.960 . S
H1354 C1368 0.960 . S
H1355 C1368 0.960 . S
C1356 H1348 0.929 . S
C1356 C1357 1.377 . S
C1356 C1358 1.384 . S
C1357 C1356 1.377 . S
C1357 C1363 1.390 . S
C1358 H1349 0.930 . S
C1358 C1356 1.384 . S
C1358 C1359 1.372 . S
C1359 C1358 1.372 . S
C1359 C1360 1.400 . S
C1359 C1364 1.490 . S
C1360 H1350 0.930 . S
C1360 C1359 1.400 . S
C1360 C1363 1.386 . S
H1361 C1377 0.930 . S
H1362 C1378 0.931 . S
C1363 H1351 0.929 . S
C1363 C1357 1.390 . S
C1363 C1360 1.386 . S
C1364 C1359 1.490 . S
C1364 C1366 1.395 . S
C1364 C1367 1.403 . S
H1365 C1371 0.930 . S
C1366 H1352 0.930 . S
C1366 C1364 1.395 . S
C1366 C1369 1.403 . S
C1367 C1364 1.403 . S
C1367 C1368 1.524 . S
C1367 C1371 1.400 . S
C1368 H1353 0.960 . S
C1368 H1354 0.960 . S
C1368 H1355 0.960 . S
C1368 C1367 1.524 . S
C1369 C1366 1.403 . S
C1369 C1370 1.392 . S
C1369 C1373 1.495 . S
C1370 C1369 1.392 . S
C1370 C1371 1.385 . S
C1370 C1372 1.478 . S
C1371 H1365 0.930 . S
C1371 C1367 1.400 . S
C1371 C1370 1.385 . S
C1372 C1370 1.478 . S
C1372 C1374 1.381 . S
C1372 C1378 1.383 . S
C1373 C1369 1.495 . S
C1373 H1379 0.959 . S
C1373 H1380 0.961 . S
C1373 H1381 0.960 . S
C1374 C1372 1.381 . S
C1374 C1375 1.394 . S
C1374 H1382 0.930 . S
C1375 C1374 1.394 . S
C1375 C1376 1.383 . S
C1375 H1383 0.929 . S
C1376 C1375 1.383 . S
C1376 C1377 1.377 . S
C1377 H1361 0.930 . S
C1377 C1376 1.377 . S
C1377 C1378 1.379 . S
C1378 H1362 0.931 . S
C1378 C1372 1.383 . S
C1378 C1377 1.379 . S
H1379 C1373 0.959 . S
H1380 C1373 0.961 . S
H1381 C1373 0.960 . S
H1382 C1374 0.930 . S
H1383 C1375 0.929 . S
H1384 C1392 0.929 . S
H1385 C1394 0.930 . S
H1386 C1396 0.930 . S
H1387 C1399 0.929 . S
H1388 C1402 0.930 . S
H1389 C1404 0.960 . S
H1390 C1404 0.960 . S
H1391 C1404 0.960 . S
C1392 H1384 0.929 . S
C1392 C1393 1.377 . S
C1392 C1394 1.384 . S
C1393 C1392 1.377 . S
C1393 C1399 1.390 . S
C1394 H1385 0.930 . S
C1394 C1392 1.384 . S
C1394 C1395 1.372 . S
C1395 C1394 1.372 . S
C1395 C1396 1.400 . S
C1395 C1400 1.490 . S
C1396 H1386 0.930 . S
C1396 C1395 1.400 . S
C1396 C1399 1.386 . S
H1397 C1413 0.930 . S
H1398 C1414 0.931 . S
C1399 H1387 0.929 . S
C1399 C1393 1.390 . S
C1399 C1396 1.386 . S
C1400 C1395 1.490 . S
C1400 C1402 1.395 . S
C1400 C1403 1.403 . S
H1401 C1407 0.930 . S
C1402 H1388 0.930 . S
C1402 C1400 1.395 . S
C1402 C1405 1.403 . S
C1403 C1400 1.403 . S
C1403 C1404 1.524 . S
C1403 C1407 1.400 . S
C1404 H1389 0.960 . S
C1404 H1390 0.960 . S
C1404 H1391 0.960 . S
C1404 C1403 1.524 . S
C1405 C1402 1.403 . S
C1405 C1406 1.392 . S
C1405 C1409 1.495 . S
C1406 C1405 1.392 . S
C1406 C1407 1.385 . S
C1406 C1408 1.478 . S
C1407 H1401 0.930 . S
C1407 C1403 1.400 . S
C1407 C1406 1.385 . S
C1408 C1406 1.478 . S
C1408 C1410 1.381 . S
C1408 C1414 1.383 . S
C1409 C1405 1.495 . S
C1409 H1415 0.959 . S
C1409 H1416 0.961 . S
C1409 H1417 0.960 . S
C1410 C1408 1.381 . S
C1410 C1411 1.394 . S
C1410 H1418 0.930 . S
C1411 C1410 1.394 . S
C1411 C1412 1.383 . S
C1411 H1419 0.929 . S
C1412 C1411 1.383 . S
C1412 C1413 1.377 . S
C1413 H1397 0.930 . S
C1413 C1412 1.377 . S
C1413 C1414 1.379 . S
C1414 H1398 0.931 . S
C1414 C1408 1.383 . S
C1414 C1413 1.379 . S
H1415 C1409 0.959 . S
H1416 C1409 0.961 . S
H1417 C1409 0.960 . S
H1418 C1410 0.930 . S
H1419 C1411 0.929 . S
H1420 C1428 0.929 . S
H1421 C1430 0.930 . S
H1422 C1432 0.930 . S
H1423 C1435 0.929 . S
H1424 C1438 0.930 . S
H1425 C1440 0.960 . S
H1426 C1440 0.960 . S
H1427 C1440 0.960 . S
C1428 H1420 0.929 . S
C1428 C1429 1.377 . S
C1428 C1430 1.384 . S
C1429 C1428 1.377 . S
C1429 C1435 1.390 . S
C1430 H1421 0.930 . S
C1430 C1428 1.384 . S
C1430 C1431 1.372 . S
C1431 C1430 1.372 . S
C1431 C1432 1.400 . S
C1431 C1436 1.490 . S
C1432 H1422 0.930 . S
C1432 C1431 1.400 . S
C1432 C1435 1.386 . S
H1433 C1449 0.930 . S
H1434 C1450 0.931 . S
C1435 H1423 0.929 . S
C1435 C1429 1.390 . S
C1435 C1432 1.386 . S
C1436 C1431 1.490 . S
C1436 C1438 1.395 . S
C1436 C1439 1.403 . S
H1437 C1443 0.930 . S
C1438 H1424 0.930 . S
C1438 C1436 1.395 . S
C1438 C1441 1.403 . S
C1439 C1436 1.403 . S
C1439 C1440 1.524 . S
C1439 C1443 1.400 . S
C1440 H1425 0.960 . S
C1440 H1426 0.960 . S
C1440 H1427 0.960 . S
C1440 C1439 1.524 . S
C1441 C1438 1.403 . S
C1441 C1442 1.392 . S
C1441 C1445 1.495 . S
C1442 C1441 1.392 . S
C1442 C1443 1.385 . S
C1442 C1444 1.478 . S
C1443 H1437 0.930 . S
C1443 C1439 1.400 . S
C1443 C1442 1.385 . S
C1444 C1442 1.478 . S
C1444 C1446 1.381 . S
C1444 C1450 1.383 . S
C1445 C1441 1.495 . S
C1445 H1451 0.959 . S
C1445 H1452 0.961 . S
C1445 H1453 0.960 . S
C1446 C1444 1.381 . S
C1446 C1447 1.394 . S
C1446 H1454 0.930 . S
C1447 C1446 1.394 . S
C1447 C1448 1.383 . S
C1447 H1455 0.929 . S
C1448 C1447 1.383 . S
C1448 C1449 1.377 . S
C1449 H1433 0.930 . S
C1449 C1448 1.377 . S
C1449 C1450 1.379 . S
C1450 H1434 0.931 . S
C1450 C1444 1.383 . S
C1450 C1449 1.379 . S
H1451 C1445 0.959 . S
H1452 C1445 0.961 . S
H1453 C1445 0.960 . S
H1454 C1446 0.930 . S
H1455 C1447 0.929 . S
H1456 C1464 0.929 . S
H1457 C1466 0.930 . S
H1458 C1468 0.930 . S
H1459 C1471 0.929 . S
H1460 C1474 0.930 . S
H1461 C1476 0.960 . S
H1462 C1476 0.960 . S
H1463 C1476 0.960 . S
C1464 H1456 0.929 . S
C1464 C1465 1.377 . S
C1464 C1466 1.384 . S
C1465 C1464 1.377 . S
C1465 C1471 1.390 . S
C1466 H1457 0.930 . S
C1466 C1464 1.384 . S
C1466 C1467 1.372 . S
C1467 C1466 1.372 . S
C1467 C1468 1.400 . S
C1467 C1472 1.490 . S
C1468 H1458 0.930 . S
C1468 C1467 1.400 . S
C1468 C1471 1.386 . S
H1469 C1485 0.930 . S
H1470 C1486 0.931 . S
C1471 H1459 0.929 . S
C1471 C1465 1.390 . S
C1471 C1468 1.386 . S
C1472 C1467 1.490 . S
C1472 C1474 1.395 . S
C1472 C1475 1.403 . S
H1473 C1479 0.930 . S
C1474 H1460 0.930 . S
C1474 C1472 1.395 . S
C1474 C1477 1.403 . S
C1475 C1472 1.403 . S
C1475 C1476 1.524 . S
C1475 C1479 1.400 . S
C1476 H1461 0.960 . S
C1476 H1462 0.960 . S
C1476 H1463 0.960 . S
C1476 C1475 1.524 . S
C1477 C1474 1.403 . S
C1477 C1478 1.392 . S
C1477 C1481 1.495 . S
C1478 C1477 1.392 . S
C1478 C1479 1.385 . S
C1478 C1480 1.478 . S
C1479 H1473 0.930 . S
C1479 C1475 1.400 . S
C1479 C1478 1.385 . S
C1480 C1478 1.478 . S
C1480 C1482 1.381 . S
C1480 C1486 1.383 . S
C1481 C1477 1.495 . S
C1481 H1487 0.959 . S
C1481 H1488 0.961 . S
C1481 H1489 0.960 . S
C1482 C1480 1.381 . S
C1482 C1483 1.394 . S
C1482 H1490 0.930 . S
C1483 C1482 1.394 . S
C1483 C1484 1.383 . S
C1483 H1491 0.929 . S
C1484 C1483 1.383 . S
C1484 C1485 1.377 . S
C1485 H1469 0.930 . S
C1485 C1484 1.377 . S
C1485 C1486 1.379 . S
C1486 H1470 0.931 . S
C1486 C1480 1.383 . S
C1486 C1485 1.379 . S
H1487 C1481 0.959 . S
H1488 C1481 0.961 . S
H1489 C1481 0.960 . S
H1490 C1482 0.930 . S
H1491 C1483 0.929 . S
H1492 C1500 0.929 . S
H1493 C1502 0.930 . S
H1494 C1504 0.930 . S
H1495 C1507 0.929 . S
H1496 C1510 0.930 . S
H1497 C1512 0.960 . S
H1498 C1512 0.960 . S
H1499 C1512 0.960 . S
C1500 H1492 0.929 . S
C1500 C1501 1.377 . S
C1500 C1502 1.384 . S
C1501 C1500 1.377 . S
C1501 C1507 1.390 . S
C1502 H1493 0.930 . S
C1502 C1500 1.384 . S
C1502 C1503 1.372 . S
C1503 C1502 1.372 . S
C1503 C1504 1.400 . S
C1503 C1508 1.490 . S
C1504 H1494 0.930 . S
C1504 C1503 1.400 . S
C1504 C1507 1.386 . S
H1505 C1521 0.930 . S
H1506 C1522 0.931 . S
C1507 H1495 0.929 . S
C1507 C1501 1.390 . S
C1507 C1504 1.386 . S
C1508 C1503 1.490 . S
C1508 C1510 1.395 . S
C1508 C1511 1.403 . S
H1509 C1515 0.930 . S
C1510 H1496 0.930 . S
C1510 C1508 1.395 . S
C1510 C1513 1.403 . S
C1511 C1508 1.403 . S
C1511 C1512 1.524 . S
C1511 C1515 1.400 . S
C1512 H1497 0.960 . S
C1512 H1498 0.960 . S
C1512 H1499 0.960 . S
C1512 C1511 1.524 . S
C1513 C1510 1.403 . S
C1513 C1514 1.392 . S
C1513 C1517 1.495 . S
C1514 C1513 1.392 . S
C1514 C1515 1.385 . S
C1514 C1516 1.478 . S
C1515 H1509 0.930 . S
C1515 C1511 1.400 . S
C1515 C1514 1.385 . S
C1516 C1514 1.478 . S
C1516 C1518 1.381 . S
C1516 C1522 1.383 . S
C1517 C1513 1.495 . S
C1517 H1523 0.959 . S
C1517 H1524 0.961 . S
C1517 H1525 0.960 . S
C1518 C1516 1.381 . S
C1518 C1519 1.394 . S
C1518 H1526 0.930 . S
C1519 C1518 1.394 . S
C1519 C1520 1.383 . S
C1519 H1527 0.929 . S
C1520 C1519 1.383 . S
C1520 C1521 1.377 . S
C1521 H1505 0.930 . S
C1521 C1520 1.377 . S
C1521 C1522 1.379 . S
C1522 H1506 0.931 . S
C1522 C1516 1.383 . S
C1522 C1521 1.379 . S
H1523 C1517 0.959 . S
H1524 C1517 0.961 . S
H1525 C1517 0.960 . S
H1526 C1518 0.930 . S
H1527 C1519 0.929 . S
H1528 C1536 0.929 . S
H1529 C1538 0.930 . S
H1530 C1540 0.930 . S
H1531 C1543 0.929 . S
H1532 C1546 0.930 . S
H1533 C1548 0.960 . S
H1534 C1548 0.960 . S
H1535 C1548 0.960 . S
C1536 H1528 0.929 . S
C1536 C1537 1.377 . S
C1536 C1538 1.384 . S
C1537 C1536 1.377 . S
C1537 C1543 1.390 . S
C1538 H1529 0.930 . S
C1538 C1536 1.384 . S
C1538 C1539 1.372 . S
C1539 C1538 1.372 . S
C1539 C1540 1.400 . S
C1539 C1544 1.490 . S
C1540 H1530 0.930 . S
C1540 C1539 1.400 . S
C1540 C1543 1.386 . S
H1541 C1557 0.930 . S
H1542 C1558 0.931 . S
C1543 H1531 0.929 . S
C1543 C1537 1.390 . S
C1543 C1540 1.386 . S
C1544 C1539 1.490 . S
C1544 C1546 1.395 . S
C1544 C1547 1.403 . S
H1545 C1551 0.930 . S
C1546 H1532 0.930 . S
C1546 C1544 1.395 . S
C1546 C1549 1.403 . S
C1547 C1544 1.403 . S
C1547 C1548 1.524 . S
C1547 C1551 1.400 . S
C1548 H1533 0.960 . S
C1548 H1534 0.960 . S
C1548 H1535 0.960 . S
C1548 C1547 1.524 . S
C1549 C1546 1.403 . S
C1549 C1550 1.392 . S
C1549 C1553 1.495 . S
C1550 C1549 1.392 . S
C1550 C1551 1.385 . S
C1550 C1552 1.478 . S
C1551 H1545 0.930 . S
C1551 C1547 1.400 . S
C1551 C1550 1.385 . S
C1552 C1550 1.478 . S
C1552 C1554 1.381 . S
C1552 C1558 1.383 . S
C1553 C1549 1.495 . S
C1553 H1559 0.959 . S
C1553 H1560 0.961 . S
C1553 H1561 0.960 . S
C1554 C1552 1.381 . S
C1554 C1555 1.394 . S
C1554 H1562 0.930 . S
C1555 C1554 1.394 . S
C1555 C1556 1.383 . S
C1555 H1563 0.929 . S
C1556 C1555 1.383 . S
C1556 C1557 1.377 . S
C1557 H1541 0.930 . S
C1557 C1556 1.377 . S
C1557 C1558 1.379 . S
C1558 H1542 0.931 . S
C1558 C1552 1.383 . S
C1558 C1557 1.379 . S
H1559 C1553 0.959 . S
H1560 C1553 0.961 . S
H1561 C1553 0.960 . S
H1562 C1554 0.930 . S
H1563 C1555 0.929 . S
H1564 C1572 0.929 . S
H1565 C1574 0.930 . S
H1566 C1576 0.930 . S
H1567 C1579 0.929 . S
H1568 C1582 0.930 . S
H1569 C1584 0.960 . S
H1570 C1584 0.960 . S
H1571 C1584 0.960 . S
C1572 H1564 0.929 . S
C1572 C1573 1.377 . S
C1572 C1574 1.384 . S
C1573 C1572 1.377 . S
C1573 C1579 1.390 . S
C1574 H1565 0.930 . S
C1574 C1572 1.384 . S
C1574 C1575 1.372 . S
C1575 C1574 1.372 . S
C1575 C1576 1.400 . S
C1575 C1580 1.490 . S
C1576 H1566 0.930 . S
C1576 C1575 1.400 . S
C1576 C1579 1.386 . S
H1577 C1593 0.930 . S
H1578 C1594 0.931 . S
C1579 H1567 0.929 . S
C1579 C1573 1.390 . S
C1579 C1576 1.386 . S
C1580 C1575 1.490 . S
C1580 C1582 1.395 . S
C1580 C1583 1.403 . S
H1581 C1587 0.930 . S
C1582 H1568 0.930 . S
C1582 C1580 1.395 . S
C1582 C1585 1.403 . S
C1583 C1580 1.403 . S
C1583 C1584 1.524 . S
C1583 C1587 1.400 . S
C1584 H1569 0.960 . S
C1584 H1570 0.960 . S
C1584 H1571 0.960 . S
C1584 C1583 1.524 . S
C1585 C1582 1.403 . S
C1585 C1586 1.392 . S
C1585 C1589 1.495 . S
C1586 C1585 1.392 . S
C1586 C1587 1.385 . S
C1586 C1588 1.478 . S
C1587 H1581 0.930 . S
C1587 C1583 1.400 . S
C1587 C1586 1.385 . S
C1588 C1586 1.478 . S
C1588 C1590 1.381 . S
C1588 C1594 1.383 . S
C1589 C1585 1.495 . S
C1589 H1595 0.959 . S
C1589 H1596 0.961 . S
C1589 H1597 0.960 . S
C1590 C1588 1.381 . S
C1590 C1591 1.394 . S
C1590 H1598 0.930 . S
C1591 C1590 1.394 . S
C1591 C1592 1.383 . S
C1591 H1599 0.929 . S
C1592 C1591 1.383 . S
C1592 C1593 1.377 . S
C1593 H1577 0.930 . S
C1593 C1592 1.377 . S
C1593 C1594 1.379 . S
C1594 H1578 0.931 . S
C1594 C1588 1.383 . S
C1594 C1593 1.379 . S
H1595 C1589 0.959 . S
H1596 C1589 0.961 . S
H1597 C1589 0.960 . S
H1598 C1590 0.930 . S
H1599 C1591 0.929 . S
H1600 C1608 0.929 . S
H1601 C1610 0.930 . S
H1602 C1612 0.930 . S
H1603 C1615 0.929 . S
H1604 C1618 0.930 . S
H1605 C1620 0.960 . S
H1606 C1620 0.960 . S
H1607 C1620 0.960 . S
C1608 H1600 0.929 . S
C1608 C1609 1.377 . S
C1608 C1610 1.384 . S
C1609 C1608 1.377 . S
C1609 C1615 1.390 . S
C1610 H1601 0.930 . S
C1610 C1608 1.384 . S
C1610 C1611 1.372 . S
C1611 C1610 1.372 . S
C1611 C1612 1.400 . S
C1611 C1616 1.490 . S
C1612 H1602 0.930 . S
C1612 C1611 1.400 . S
C1612 C1615 1.386 . S
H1613 C1629 0.930 . S
H1614 C1630 0.931 . S
C1615 H1603 0.929 . S
C1615 C1609 1.390 . S
C1615 C1612 1.386 . S
C1616 C1611 1.490 . S
C1616 C1618 1.395 . S
C1616 C1619 1.403 . S
H1617 C1623 0.930 . S
C1618 H1604 0.930 . S
C1618 C1616 1.395 . S
C1618 C1621 1.403 . S
C1619 C1616 1.403 . S
C1619 C1620 1.524 . S
C1619 C1623 1.400 . S
C1620 H1605 0.960 . S
C1620 H1606 0.960 . S
C1620 H1607 0.960 . S
C1620 C1619 1.524 . S
C1621 C1618 1.403 . S
C1621 C1622 1.392 . S
C1621 C1625 1.495 . S
C1622 C1621 1.392 . S
C1622 C1623 1.385 . S
C1622 C1624 1.478 . S
C1623 H1617 0.930 . S
C1623 C1619 1.400 . S
C1623 C1622 1.385 . S
C1624 C1622 1.478 . S
C1624 C1626 1.381 . S
C1624 C1630 1.383 . S
C1625 C1621 1.495 . S
C1625 H1631 0.959 . S
C1625 H1632 0.961 . S
C1625 H1633 0.960 . S
C1626 C1624 1.381 . S
C1626 C1627 1.394 . S
C1626 H1634 0.930 . S
C1627 C1626 1.394 . S
C1627 C1628 1.383 . S
C1627 H1635 0.929 . S
C1628 C1627 1.383 . S
C1628 C1629 1.377 . S
C1629 H1613 0.930 . S
C1629 C1628 1.377 . S
C1629 C1630 1.379 . S
C1630 H1614 0.931 . S
C1630 C1624 1.383 . S
C1630 C1629 1.379 . S
H1631 C1625 0.959 . S
H1632 C1625 0.961 . S
H1633 C1625 0.960 . S
H1634 C1626 0.930 . S
H1635 C1627 0.929 . S
H1636 C1644 0.929 . S
H1637 C1646 0.930 . S
H1638 C1648 0.930 . S
H1639 C1651 0.929 . S
H1640 C1654 0.930 . S
H1641 C1656 0.960 . S
H1642 C1656 0.960 . S
H1643 C1656 0.960 . S
C1644 H1636 0.929 . S
C1644 C1645 1.377 . S
C1644 C1646 1.384 . S
C1645 C1644 1.377 . S
C1645 C1651 1.390 . S
C1646 H1637 0.930 . S
C1646 C1644 1.384 . S
C1646 C1647 1.372 . S
C1647 C1646 1.372 . S
C1647 C1648 1.400 . S
C1647 C1652 1.490 . S
C1648 H1638 0.930 . S
C1648 C1647 1.400 . S
C1648 C1651 1.386 . S
H1649 C1665 0.930 . S
H1650 C1666 0.931 . S
C1651 H1639 0.929 . S
C1651 C1645 1.390 . S
C1651 C1648 1.386 . S
C1652 C1647 1.490 . S
C1652 C1654 1.395 . S
C1652 C1655 1.403 . S
H1653 C1659 0.930 . S
C1654 H1640 0.930 . S
C1654 C1652 1.395 . S
C1654 C1657 1.403 . S
C1655 C1652 1.403 . S
C1655 C1656 1.524 . S
C1655 C1659 1.400 . S
C1656 H1641 0.960 . S
C1656 H1642 0.960 . S
C1656 H1643 0.960 . S
C1656 C1655 1.524 . S
C1657 C1654 1.403 . S
C1657 C1658 1.392 . S
C1657 C1661 1.495 . S
C1658 C1657 1.392 . S
C1658 C1659 1.385 . S
C1658 C1660 1.478 . S
C1659 H1653 0.930 . S
C1659 C1655 1.400 . S
C1659 C1658 1.385 . S
C1660 C1658 1.478 . S
C1660 C1662 1.381 . S
C1660 C1666 1.383 . S
C1661 C1657 1.495 . S
C1661 H1667 0.959 . S
C1661 H1668 0.961 . S
C1661 H1669 0.960 . S
C1662 C1660 1.381 . S
C1662 C1663 1.394 . S
C1662 H1670 0.930 . S
C1663 C1662 1.394 . S
C1663 C1664 1.383 . S
C1663 H1671 0.929 . S
C1664 C1663 1.383 . S
C1664 C1665 1.377 . S
C1665 H1649 0.930 . S
C1665 C1664 1.377 . S
C1665 C1666 1.379 . S
C1666 H1650 0.931 . S
C1666 C1660 1.383 . S
C1666 C1665 1.379 . S
H1667 C1661 0.959 . S
H1668 C1661 0.961 . S
H1669 C1661 0.960 . S
H1670 C1662 0.930 . S
H1671 C1663 0.929 . S
H1672 C1680 0.929 . S
H1673 C1682 0.930 . S
H1674 C1684 0.930 . S
H1675 C1687 0.929 . S
H1676 C1690 0.930 . S
H1677 C1692 0.960 . S
H1678 C1692 0.960 . S
H1679 C1692 0.960 . S
C1680 H1672 0.929 . S
C1680 C1681 1.377 . S
C1680 C1682 1.384 . S
C1681 C1680 1.377 . S
C1681 C1687 1.390 . S
C1682 H1673 0.930 . S
C1682 C1680 1.384 . S
C1682 C1683 1.372 . S
C1683 C1682 1.372 . S
C1683 C1684 1.400 . S
C1683 C1688 1.490 . S
C1684 H1674 0.930 . S
C1684 C1683 1.400 . S
C1684 C1687 1.386 . S
H1685 C1701 0.930 . S
H1686 C1702 0.931 . S
C1687 H1675 0.929 . S
C1687 C1681 1.390 . S
C1687 C1684 1.386 . S
C1688 C1683 1.490 . S
C1688 C1690 1.395 . S
C1688 C1691 1.403 . S
H1689 C1695 0.930 . S
C1690 H1676 0.930 . S
C1690 C1688 1.395 . S
C1690 C1693 1.403 . S
C1691 C1688 1.403 . S
C1691 C1692 1.524 . S
C1691 C1695 1.400 . S
C1692 H1677 0.960 . S
C1692 H1678 0.960 . S
C1692 H1679 0.960 . S
C1692 C1691 1.524 . S
C1693 C1690 1.403 . S
C1693 C1694 1.392 . S
C1693 C1697 1.495 . S
C1694 C1693 1.392 . S
C1694 C1695 1.385 . S
C1694 C1696 1.478 . S
C1695 H1689 0.930 . S
C1695 C1691 1.400 . S
C1695 C1694 1.385 . S
C1696 C1694 1.478 . S
C1696 C1698 1.381 . S
C1696 C1702 1.383 . S
C1697 C1693 1.495 . S
C1697 H1703 0.959 . S
C1697 H1704 0.961 . S
C1697 H1705 0.960 . S
C1698 C1696 1.381 . S
C1698 C1699 1.394 . S
C1698 H1706 0.930 . S
C1699 C1698 1.394 . S
C1699 C1700 1.383 . S
C1699 H1707 0.929 . S
C1700 C1699 1.383 . S
C1700 C1701 1.377 . S
C1701 H1685 0.930 . S
C1701 C1700 1.377 . S
C1701 C1702 1.379 . S
C1702 H1686 0.931 . S
C1702 C1696 1.383 . S
C1702 C1701 1.379 . S
H1703 C1697 0.959 . S
H1704 C1697 0.961 . S
H1705 C1697 0.960 . S
H1706 C1698 0.930 . S
H1707 C1699 0.929 . S
H1708 C1716 0.929 . S
H1709 C1718 0.930 . S
H1710 C1720 0.930 . S
H1711 C1723 0.929 . S
H1712 C1726 0.930 . S
H1713 C1728 0.960 . S
H1714 C1728 0.960 . S
H1715 C1728 0.960 . S
C1716 H1708 0.929 . S
C1716 C1717 1.377 . S
C1716 C1718 1.384 . S
C1717 C1716 1.377 . S
C1717 C1723 1.390 . S
C1718 H1709 0.930 . S
C1718 C1716 1.384 . S
C1718 C1719 1.372 . S
C1719 C1718 1.372 . S
C1719 C1720 1.400 . S
C1719 C1724 1.490 . S
C1720 H1710 0.930 . S
C1720 C1719 1.400 . S
C1720 C1723 1.386 . S
H1721 C1737 0.930 . S
H1722 C1738 0.931 . S
C1723 H1711 0.929 . S
C1723 C1717 1.390 . S
C1723 C1720 1.386 . S
C1724 C1719 1.490 . S
C1724 C1726 1.395 . S
C1724 C1727 1.403 . S
H1725 C1731 0.930 . S
C1726 H1712 0.930 . S
C1726 C1724 1.395 . S
C1726 C1729 1.403 . S
C1727 C1724 1.403 . S
C1727 C1728 1.524 . S
C1727 C1731 1.400 . S
C1728 H1713 0.960 . S
C1728 H1714 0.960 . S
C1728 H1715 0.960 . S
C1728 C1727 1.524 . S
C1729 C1726 1.403 . S
C1729 C1730 1.392 . S
C1729 C1733 1.495 . S
C1730 C1729 1.392 . S
C1730 C1731 1.385 . S
C1730 C1732 1.478 . S
C1731 H1725 0.930 . S
C1731 C1727 1.400 . S
C1731 C1730 1.385 . S
C1732 C1730 1.478 . S
C1732 C1734 1.381 . S
C1732 C1738 1.383 . S
C1733 C1729 1.495 . S
C1733 H1739 0.959 . S
C1733 H1740 0.961 . S
C1733 H1741 0.960 . S
C1734 C1732 1.381 . S
C1734 C1735 1.394 . S
C1734 H1742 0.930 . S
C1735 C1734 1.394 . S
C1735 C1736 1.383 . S
C1735 H1743 0.929 . S
C1736 C1735 1.383 . S
C1736 C1737 1.377 . S
C1737 H1721 0.930 . S
C1737 C1736 1.377 . S
C1737 C1738 1.379 . S
C1738 H1722 0.931 . S
C1738 C1732 1.383 . S
C1738 C1737 1.379 . S
H1739 C1733 0.959 . S
H1740 C1733 0.961 . S
H1741 C1733 0.960 . S
H1742 C1734 0.930 . S
H1743 C1735 0.929 . S
H1744 C1752 0.929 . S
H1745 C1754 0.930 . S
H1746 C1756 0.930 . S
H1747 C1759 0.929 . S
H1748 C1762 0.930 . S
H1749 C1764 0.960 . S
H1750 C1764 0.960 . S
H1751 C1764 0.960 . S
C1752 H1744 0.929 . S
C1752 C1753 1.377 . S
C1752 C1754 1.384 . S
C1753 C1752 1.377 . S
C1753 C1759 1.390 . S
C1754 H1745 0.930 . S
C1754 C1752 1.384 . S
C1754 C1755 1.372 . S
C1755 C1754 1.372 . S
C1755 C1756 1.400 . S
C1755 C1760 1.490 . S
C1756 H1746 0.930 . S
C1756 C1755 1.400 . S
C1756 C1759 1.386 . S
H1757 C1773 0.930 . S
H1758 C1774 0.931 . S
C1759 H1747 0.929 . S
C1759 C1753 1.390 . S
C1759 C1756 1.386 . S
C1760 C1755 1.490 . S
C1760 C1762 1.395 . S
C1760 C1763 1.403 . S
H1761 C1767 0.930 . S
C1762 H1748 0.930 . S
C1762 C1760 1.395 . S
C1762 C1765 1.403 . S
C1763 C1760 1.403 . S
C1763 C1764 1.524 . S
C1763 C1767 1.400 . S
C1764 H1749 0.960 . S
C1764 H1750 0.960 . S
C1764 H1751 0.960 . S
C1764 C1763 1.524 . S
C1765 C1762 1.403 . S
C1765 C1766 1.392 . S
C1765 C1769 1.495 . S
C1766 C1765 1.392 . S
C1766 C1767 1.385 . S
C1766 C1768 1.478 . S
C1767 H1761 0.930 . S
C1767 C1763 1.400 . S
C1767 C1766 1.385 . S
C1768 C1766 1.478 . S
C1768 C1770 1.381 . S
C1768 C1774 1.383 . S
C1769 C1765 1.495 . S
C1769 H1775 0.959 . S
C1769 H1776 0.961 . S
C1769 H1777 0.960 . S
C1770 C1768 1.381 . S
C1770 C1771 1.394 . S
C1770 H1778 0.930 . S
C1771 C1770 1.394 . S
C1771 C1772 1.383 . S
C1771 H1779 0.929 . S
C1772 C1771 1.383 . S
C1772 C1773 1.377 . S
C1773 H1757 0.930 . S
C1773 C1772 1.377 . S
C1773 C1774 1.379 . S
C1774 H1758 0.931 . S
C1774 C1768 1.383 . S
C1774 C1773 1.379 . S
H1775 C1769 0.959 . S
H1776 C1769 0.961 . S
H1777 C1769 0.960 . S
H1778 C1770 0.930 . S
H1779 C1771 0.929 . S
H1780 C1788 0.929 . S
H1781 C1790 0.930 . S
H1782 C1792 0.930 . S
H1783 C1795 0.929 . S
H1784 C1798 0.930 . S
H1785 C1800 0.960 . S
H1786 C1800 0.960 . S
H1787 C1800 0.960 . S
C1788 H1780 0.929 . S
C1788 C1789 1.377 . S
C1788 C1790 1.384 . S
C1789 C1788 1.377 . S
C1789 C1795 1.390 . S
C1790 H1781 0.930 . S
C1790 C1788 1.384 . S
C1790 C1791 1.372 . S
C1791 C1790 1.372 . S
C1791 C1792 1.400 . S
C1791 C1796 1.490 . S
C1792 H1782 0.930 . S
C1792 C1791 1.400 . S
C1792 C1795 1.386 . S
H1793 C1809 0.930 . S
H1794 C1810 0.931 . S
C1795 H1783 0.929 . S
C1795 C1789 1.390 . S
C1795 C1792 1.386 . S
C1796 C1791 1.490 . S
C1796 C1798 1.395 . S
C1796 C1799 1.403 . S
H1797 C1803 0.930 . S
C1798 H1784 0.930 . S
C1798 C1796 1.395 . S
C1798 C1801 1.403 . S
C1799 C1796 1.403 . S
C1799 C1800 1.524 . S
C1799 C1803 1.400 . S
C1800 H1785 0.960 . S
C1800 H1786 0.960 . S
C1800 H1787 0.960 . S
C1800 C1799 1.524 . S
C1801 C1798 1.403 . S
C1801 C1802 1.392 . S
C1801 C1805 1.495 . S
C1802 C1801 1.392 . S
C1802 C1803 1.385 . S
C1802 C1804 1.478 . S
C1803 H1797 0.930 . S
C1803 C1799 1.400 . S
C1803 C1802 1.385 . S
C1804 C1802 1.478 . S
C1804 C1806 1.381 . S
C1804 C1810 1.383 . S
C1805 C1801 1.495 . S
C1805 H1811 0.959 . S
C1805 H1812 0.961 . S
C1805 H1813 0.960 . S
C1806 C1804 1.381 . S
C1806 C1807 1.394 . S
C1806 H1814 0.930 . S
C1807 C1806 1.394 . S
C1807 C1808 1.383 . S
C1807 H1815 0.929 . S
C1808 C1807 1.383 . S
C1808 C1809 1.377 . S
C1809 H1793 0.930 . S
C1809 C1808 1.377 . S
C1809 C1810 1.379 . S
C1810 H1794 0.931 . S
C1810 C1804 1.383 . S
C1810 C1809 1.379 . S
H1811 C1805 0.959 . S
H1812 C1805 0.961 . S
H1813 C1805 0.960 . S
H1814 C1806 0.930 . S
H1815 C1807 0.929 . S
H1816 C1824 0.929 . S
H1817 C1826 0.930 . S
H1818 C1828 0.930 . S
H1819 C1831 0.929 . S
H1820 C1834 0.930 . S
H1821 C1836 0.960 . S
H1822 C1836 0.960 . S
H1823 C1836 0.960 . S
C1824 H1816 0.929 . S
C1824 C1825 1.377 . S
C1824 C1826 1.384 . S
C1825 C1824 1.377 . S
C1825 C1831 1.390 . S
C1826 H1817 0.930 . S
C1826 C1824 1.384 . S
C1826 C1827 1.372 . S
C1827 C1826 1.372 . S
C1827 C1828 1.400 . S
C1827 C1832 1.490 . S
C1828 H1818 0.930 . S
C1828 C1827 1.400 . S
C1828 C1831 1.386 . S
H1829 C1845 0.930 . S
H1830 C1846 0.931 . S
C1831 H1819 0.929 . S
C1831 C1825 1.390 . S
C1831 C1828 1.386 . S
C1832 C1827 1.490 . S
C1832 C1834 1.395 . S
C1832 C1835 1.403 . S
H1833 C1839 0.930 . S
C1834 H1820 0.930 . S
C1834 C1832 1.395 . S
C1834 C1837 1.403 . S
C1835 C1832 1.403 . S
C1835 C1836 1.524 . S
C1835 C1839 1.400 . S
C1836 H1821 0.960 . S
C1836 H1822 0.960 . S
C1836 H1823 0.960 . S
C1836 C1835 1.524 . S
C1837 C1834 1.403 . S
C1837 C1838 1.392 . S
C1837 C1841 1.495 . S
C1838 C1837 1.392 . S
C1838 C1839 1.385 . S
C1838 C1840 1.478 . S
C1839 H1833 0.930 . S
C1839 C1835 1.400 . S
C1839 C1838 1.385 . S
C1840 C1838 1.478 . S
C1840 C1842 1.381 . S
C1840 C1846 1.383 . S
C1841 C1837 1.495 . S
C1841 H1847 0.959 . S
C1841 H1848 0.961 . S
C1841 H1849 0.960 . S
C1842 C1840 1.381 . S
C1842 C1843 1.394 . S
C1842 H1850 0.930 . S
C1843 C1842 1.394 . S
C1843 C1844 1.383 . S
C1843 H1851 0.929 . S
C1844 C1843 1.383 . S
C1844 C1845 1.377 . S
C1845 H1829 0.930 . S
C1845 C1844 1.377 . S
C1845 C1846 1.379 . S
C1846 H1830 0.931 . S
C1846 C1840 1.383 . S
C1846 C1845 1.379 . S
H1847 C1841 0.959 . S
H1848 C1841 0.961 . S
H1849 C1841 0.960 . S
H1850 C1842 0.930 . S
H1851 C1843 0.929 . S
H1852 C1860 0.929 . S
H1853 C1862 0.930 . S
H1854 C1864 0.930 . S
H1855 C1867 0.929 . S
H1856 C1870 0.930 . S
H1857 C1872 0.960 . S
H1858 C1872 0.960 . S
H1859 C1872 0.960 . S
C1860 H1852 0.929 . S
C1860 C1861 1.377 . S
C1860 C1862 1.384 . S
C1861 C1860 1.377 . S
C1861 C1867 1.390 . S
C1862 H1853 0.930 . S
C1862 C1860 1.384 . S
C1862 C1863 1.372 . S
C1863 C1862 1.372 . S
C1863 C1864 1.400 . S
C1863 C1868 1.490 . S
C1864 H1854 0.930 . S
C1864 C1863 1.400 . S
C1864 C1867 1.386 . S
H1865 C1881 0.930 . S
H1866 C1882 0.931 . S
C1867 H1855 0.929 . S
C1867 C1861 1.390 . S
C1867 C1864 1.386 . S
C1868 C1863 1.490 . S
C1868 C1870 1.395 . S
C1868 C1871 1.403 . S
H1869 C1875 0.930 . S
C1870 H1856 0.930 . S
C1870 C1868 1.395 . S
C1870 C1873 1.403 . S
C1871 C1868 1.403 . S
C1871 C1872 1.524 . S
C1871 C1875 1.400 . S
C1872 H1857 0.960 . S
C1872 H1858 0.960 . S
C1872 H1859 0.960 . S
C1872 C1871 1.524 . S
C1873 C1870 1.403 . S
C1873 C1874 1.392 . S
C1873 C1877 1.495 . S
C1874 C1873 1.392 . S
C1874 C1875 1.385 . S
C1874 C1876 1.478 . S
C1875 H1869 0.930 . S
C1875 C1871 1.400 . S
C1875 C1874 1.385 . S
C1876 C1874 1.478 . S
C1876 C1878 1.381 . S
C1876 C1882 1.383 . S
C1877 C1873 1.495 . S
C1877 H1883 0.959 . S
C1877 H1884 0.961 . S
C1877 H1885 0.960 . S
C1878 C1876 1.381 . S
C1878 C1879 1.394 . S
C1878 H1886 0.930 . S
C1879 C1878 1.394 . S
C1879 C1880 1.383 . S
C1879 H1887 0.929 . S
C1880 C1879 1.383 . S
C1880 C1881 1.377 . S
C1881 H1865 0.930 . S
C1881 C1880 1.377 . S
C1881 C1882 1.379 . S
C1882 H1866 0.931 . S
C1882 C1876 1.383 . S
C1882 C1881 1.379 . S
H1883 C1877 0.959 . S
H1884 C1877 0.961 . S
H1885 C1877 0.960 . S
H1886 C1878 0.930 . S
H1887 C1879 0.929 . S
H1888 C1896 0.929 . S
H1889 C1898 0.930 . S
H1890 C1900 0.930 . S
H1891 C1903 0.929 . S
H1892 C1906 0.930 . S
H1893 C1908 0.960 . S
H1894 C1908 0.960 . S
H1895 C1908 0.960 . S
C1896 H1888 0.929 . S
C1896 C1897 1.377 . S
C1896 C1898 1.384 . S
C1897 C1896 1.377 . S
C1897 C1903 1.390 . S
C1898 H1889 0.930 . S
C1898 C1896 1.384 . S
C1898 C1899 1.372 . S
C1899 C1898 1.372 . S
C1899 C1900 1.400 . S
C1899 C1904 1.490 . S
C1900 H1890 0.930 . S
C1900 C1899 1.400 . S
C1900 C1903 1.386 . S
H1901 C1917 0.930 . S
H1902 C1918 0.931 . S
C1903 H1891 0.929 . S
C1903 C1897 1.390 . S
C1903 C1900 1.386 . S
C1904 C1899 1.490 . S
C1904 C1906 1.395 . S
C1904 C1907 1.403 . S
H1905 C1911 0.930 . S
C1906 H1892 0.930 . S
C1906 C1904 1.395 . S
C1906 C1909 1.403 . S
C1907 C1904 1.403 . S
C1907 C1908 1.524 . S
C1907 C1911 1.400 . S
C1908 H1893 0.960 . S
C1908 H1894 0.960 . S
C1908 H1895 0.960 . S
C1908 C1907 1.524 . S
C1909 C1906 1.403 . S
C1909 C1910 1.392 . S
C1909 C1913 1.495 . S
C1910 C1909 1.392 . S
C1910 C1911 1.385 . S
C1910 C1912 1.478 . S
C1911 H1905 0.930 . S
C1911 C1907 1.400 . S
C1911 C1910 1.385 . S
C1912 C1910 1.478 . S
C1912 C1914 1.381 . S
C1912 C1918 1.383 . S
C1913 C1909 1.495 . S
C1913 H1919 0.959 . S
C1913 H1920 0.961 . S
C1913 H1921 0.960 . S
C1914 C1912 1.381 . S
C1914 C1915 1.394 . S
C1914 H1922 0.930 . S
C1915 C1914 1.394 . S
C1915 C1916 1.383 . S
C1915 H1923 0.929 . S
C1916 C1915 1.383 . S
C1916 C1917 1.377 . S
C1917 H1901 0.930 . S
C1917 C1916 1.377 . S
C1917 C1918 1.379 . S
C1918 H1902 0.931 . S
C1918 C1912 1.383 . S
C1918 C1917 1.379 . S
H1919 C1913 0.959 . S
H1920 C1913 0.961 . S
H1921 C1913 0.960 . S
H1922 C1914 0.930 . S
H1923 C1915 0.929 . S
H1924 C1932 0.929 . S
H1925 C1934 0.930 . S
H1926 C1936 0.930 . S
H1927 C1939 0.929 . S
H1928 C1942 0.930 . S
H1929 C1944 0.960 . S
H1930 C1944 0.960 . S
H1931 C1944 0.960 . S
C1932 H1924 0.929 . S
C1932 C1933 1.377 . S
C1932 C1934 1.384 . S
C1933 C1932 1.377 . S
C1933 C1939 1.390 . S
C1934 H1925 0.930 . S
C1934 C1932 1.384 . S
C1934 C1935 1.372 . S
C1935 C1934 1.372 . S
C1935 C1936 1.400 . S
C1935 C1940 1.490 . S
C1936 H1926 0.930 . S
C1936 C1935 1.400 . S
C1936 C1939 1.386 . S
H1937 C1953 0.930 . S
H1938 C1954 0.931 . S
C1939 H1927 0.929 . S
C1939 C1933 1.390 . S
C1939 C1936 1.386 . S
C1940 C1935 1.490 . S
C1940 C1942 1.395 . S
C1940 C1943 1.403 . S
H1941 C1947 0.930 . S
C1942 H1928 0.930 . S
C1942 C1940 1.395 . S
C1942 C1945 1.403 . S
C1943 C1940 1.403 . S
C1943 C1944 1.524 . S
C1943 C1947 1.400 . S
C1944 H1929 0.960 . S
C1944 H1930 0.960 . S
C1944 H1931 0.960 . S
C1944 C1943 1.524 . S
C1945 C1942 1.403 . S
C1945 C1946 1.392 . S
C1945 C1949 1.495 . S
C1946 C1945 1.392 . S
C1946 C1947 1.385 . S
C1946 C1948 1.478 . S
C1947 H1941 0.930 . S
C1947 C1943 1.400 . S
C1947 C1946 1.385 . S
C1948 C1946 1.478 . S
C1948 C1950 1.381 . S
C1948 C1954 1.383 . S
C1949 C1945 1.495 . S
C1949 H1955 0.959 . S
C1949 H1956 0.961 . S
C1949 H1957 0.960 . S
C1950 C1948 1.381 . S
C1950 C1951 1.394 . S
C1950 H1958 0.930 . S
C1951 C1950 1.394 . S
C1951 C1952 1.383 . S
C1951 H1959 0.929 . S
C1952 C1951 1.383 . S
C1952 C1953 1.377 . S
C1953 H1937 0.930 . S
C1953 C1952 1.377 . S
C1953 C1954 1.379 . S
C1954 H1938 0.931 . S
C1954 C1948 1.383 . S
C1954 C1953 1.379 . S
H1955 C1949 0.959 . S
H1956 C1949 0.961 . S
H1957 C1949 0.960 . S
H1958 C1950 0.930 . S
H1959 C1951 0.929 . S
H1960 C1968 0.929 . S
H1961 C1970 0.930 . S
H1962 C1972 0.930 . S
H1963 C1975 0.929 . S
H1964 C1978 0.930 . S
H1965 C1980 0.960 . S
H1966 C1980 0.960 . S
H1967 C1980 0.960 . S
C1968 H1960 0.929 . S
C1968 C1969 1.377 . S
C1968 C1970 1.384 . S
C1969 C1968 1.377 . S
C1969 C1975 1.390 . S
C1970 H1961 0.930 . S
C1970 C1968 1.384 . S
C1970 C1971 1.372 . S
C1971 C1970 1.372 . S
C1971 C1972 1.400 . S
C1971 C1976 1.490 . S
C1972 H1962 0.930 . S
C1972 C1971 1.400 . S
C1972 C1975 1.386 . S
H1973 C1989 0.930 . S
H1974 C1990 0.931 . S
C1975 H1963 0.929 . S
C1975 C1969 1.390 . S
C1975 C1972 1.386 . S
C1976 C1971 1.490 . S
C1976 C1978 1.395 . S
C1976 C1979 1.403 . S
H1977 C1983 0.930 . S
C1978 H1964 0.930 . S
C1978 C1976 1.395 . S
C1978 C1981 1.403 . S
C1979 C1976 1.403 . S
C1979 C1980 1.524 . S
C1979 C1983 1.400 . S
C1980 H1965 0.960 . S
C1980 H1966 0.960 . S
C1980 H1967 0.960 . S
C1980 C1979 1.524 . S
C1981 C1978 1.403 . S
C1981 C1982 1.392 . S
C1981 C1985 1.495 . S
C1982 C1981 1.392 . S
C1982 C1983 1.385 . S
C1982 C1984 1.478 . S
C1983 H1977 0.930 . S
C1983 C1979 1.400 . S
C1983 C1982 1.385 . S
C1984 C1982 1.478 . S
C1984 C1986 1.381 . S
C1984 C1990 1.383 . S
C1985 C1981 1.495 . S
C1985 H1991 0.959 . S
C1985 H1992 0.961 . S
C1985 H1993 0.960 . S
C1986 C1984 1.381 . S
C1986 C1987 1.394 . S
C1986 H1994 0.930 . S
C1987 C1986 1.394 . S
C1987 C1988 1.383 . S
C1987 H1995 0.929 . S
C1988 C1987 1.383 . S
C1988 C1989 1.377 . S
C1989 H1973 0.930 . S
C1989 C1988 1.377 . S
C1989 C1990 1.379 . S
C1990 H1974 0.931 . S
C1990 C1984 1.383 . S
C1990 C1989 1.379 . S
H1991 C1985 0.959 . S
H1992 C1985 0.961 . S
H1993 C1985 0.960 . S
H1994 C1986 0.930 . S
H1995 C1987 0.929 . S
H1996 C2004 0.929 . S
H1997 C2006 0.930 . S
H1998 C2008 0.930 . S
H1999 C2011 0.929 . S
H2000 C2014 0.930 . S
H2001 C2016 0.960 . S
H2002 C2016 0.960 . S
H2003 C2016 0.960 . S
C2004 H1996 0.929 . S
C2004 C2005 1.377 . S
C2004 C2006 1.384 . S
C2005 C2004 1.377 . S
C2005 C2011 1.390 . S
C2006 H1997 0.930 . S
C2006 C2004 1.384 . S
C2006 C2007 1.372 . S
C2007 C2006 1.372 . S
C2007 C2008 1.400 . S
C2007 C2012 1.490 . S
C2008 H1998 0.930 . S
C2008 C2007 1.400 . S
C2008 C2011 1.386 . S
H2009 C2025 0.930 . S
H2010 C2026 0.931 . S
C2011 H1999 0.929 . S
C2011 C2005 1.390 . S
C2011 C2008 1.386 . S
C2012 C2007 1.490 . S
C2012 C2014 1.395 . S
C2012 C2015 1.403 . S
H2013 C2019 0.930 . S
C2014 H2000 0.930 . S
C2014 C2012 1.395 . S
C2014 C2017 1.403 . S
C2015 C2012 1.403 . S
C2015 C2016 1.524 . S
C2015 C2019 1.400 . S
C2016 H2001 0.960 . S
C2016 H2002 0.960 . S
C2016 H2003 0.960 . S
C2016 C2015 1.524 . S
C2017 C2014 1.403 . S
C2017 C2018 1.392 . S
C2017 C2021 1.495 . S
C2018 C2017 1.392 . S
C2018 C2019 1.385 . S
C2018 C2020 1.478 . S
C2019 H2013 0.930 . S
C2019 C2015 1.400 . S
C2019 C2018 1.385 . S
C2020 C2018 1.478 . S
C2020 C2022 1.381 . S
C2020 C2026 1.383 . S
C2021 C2017 1.495 . S
C2021 H2027 0.959 . S
C2021 H2028 0.961 . S
C2021 H2029 0.960 . S
C2022 C2020 1.381 . S
C2022 C2023 1.394 . S
C2022 H2030 0.930 . S
C2023 C2022 1.394 . S
C2023 C2024 1.383 . S
C2023 H2031 0.929 . S
C2024 C2023 1.383 . S
C2024 C2025 1.377 . S
C2025 H2009 0.930 . S
C2025 C2024 1.377 . S
C2025 C2026 1.379 . S
C2026 H2010 0.931 . S
C2026 C2020 1.383 . S
C2026 C2025 1.379 . S
H2027 C2021 0.959 . S
H2028 C2021 0.961 . S
H2029 C2021 0.960 . S
H2030 C2022 0.930 . S
H2031 C2023 0.929 . S
H2032 C2040 0.929 . S
H2033 C2042 0.930 . S
H2034 C2044 0.930 . S
H2035 C2047 0.929 . S
H2036 C2050 0.930 . S
H2037 C2052 0.960 . S
H2038 C2052 0.960 . S
H2039 C2052 0.960 . S
C2040 H2032 0.929 . S
C2040 C2041 1.377 . S
C2040 C2042 1.384 . S
C2041 C2040 1.377 . S
C2041 C2047 1.390 . S
C2042 H2033 0.930 . S
C2042 C2040 1.384 . S
C2042 C2043 1.372 . S
C2043 C2042 1.372 . S
C2043 C2044 1.400 . S
C2043 C2048 1.490 . S
C2044 H2034 0.930 . S
C2044 C2043 1.400 . S
C2044 C2047 1.386 . S
H2045 C2061 0.930 . S
H2046 C2062 0.931 . S
C2047 H2035 0.929 . S
C2047 C2041 1.390 . S
C2047 C2044 1.386 . S
C2048 C2043 1.490 . S
C2048 C2050 1.395 . S
C2048 C2051 1.403 . S
H2049 C2055 0.930 . S
C2050 H2036 0.930 . S
C2050 C2048 1.395 . S
C2050 C2053 1.403 . S
C2051 C2048 1.403 . S
C2051 C2052 1.524 . S
C2051 C2055 1.400 . S
C2052 H2037 0.960 . S
C2052 H2038 0.960 . S
C2052 H2039 0.960 . S
C2052 C2051 1.524 . S
C2053 C2050 1.403 . S
C2053 C2054 1.392 . S
C2053 C2057 1.495 . S
C2054 C2053 1.392 . S
C2054 C2055 1.385 . S
C2054 C2056 1.478 . S
C2055 H2049 0.930 . S
C2055 C2051 1.400 . S
C2055 C2054 1.385 . S
C2056 C2054 1.478 . S
C2056 C2058 1.381 . S
C2056 C2062 1.383 . S
C2057 C2053 1.495 . S
C2057 H2063 0.959 . S
C2057 H2064 0.961 . S
C2057 H2065 0.960 . S
C2058 C2056 1.381 . S
C2058 C2059 1.394 . S
C2058 H2066 0.930 . S
C2059 C2058 1.394 . S
C2059 C2060 1.383 . S
C2059 H2067 0.929 . S
C2060 C2059 1.383 . S
C2060 C2061 1.377 . S
C2061 H2045 0.930 . S
C2061 C2060 1.377 . S
C2061 C2062 1.379 . S
C2062 H2046 0.931 . S
C2062 C2056 1.383 . S
C2062 C2061 1.379 . S
H2063 C2057 0.959 . S
H2064 C2057 0.961 . S
H2065 C2057 0.960 . S
H2066 C2058 0.930 . S
H2067 C2059 0.929 . S
H2068 C2076 0.929 . S
H2069 C2078 0.930 . S
H2070 C2080 0.930 . S
H2071 C2083 0.929 . S
H2072 C2086 0.930 . S
H2073 C2088 0.960 . S
H2074 C2088 0.960 . S
H2075 C2088 0.960 . S
C2076 H2068 0.929 . S
C2076 C2077 1.377 . S
C2076 C2078 1.384 . S
C2077 C2076 1.377 . S
C2077 C2083 1.390 . S
C2078 H2069 0.930 . S
C2078 C2076 1.384 . S
C2078 C2079 1.372 . S
C2079 C2078 1.372 . S
C2079 C2080 1.400 . S
C2079 C2084 1.490 . S
C2080 H2070 0.930 . S
C2080 C2079 1.400 . S
C2080 C2083 1.386 . S
H2081 C2097 0.930 . S
H2082 C2098 0.931 . S
C2083 H2071 0.929 . S
C2083 C2077 1.390 . S
C2083 C2080 1.386 . S
C2084 C2079 1.490 . S
C2084 C2086 1.395 . S
C2084 C2087 1.403 . S
H2085 C2091 0.930 . S
C2086 H2072 0.930 . S
C2086 C2084 1.395 . S
C2086 C2089 1.403 . S
C2087 C2084 1.403 . S
C2087 C2088 1.524 . S
C2087 C2091 1.400 . S
C2088 H2073 0.960 . S
C2088 H2074 0.960 . S
C2088 H2075 0.960 . S
C2088 C2087 1.524 . S
C2089 C2086 1.403 . S
C2089 C2090 1.392 . S
C2089 C2093 1.495 . S
C2090 C2089 1.392 . S
C2090 C2091 1.385 . S
C2090 C2092 1.478 . S
C2091 H2085 0.930 . S
C2091 C2087 1.400 . S
C2091 C2090 1.385 . S
C2092 C2090 1.478 . S
C2092 C2094 1.381 . S
C2092 C2098 1.383 . S
C2093 C2089 1.495 . S
C2093 H2099 0.959 . S
C2093 H2100 0.961 . S
C2093 H2101 0.960 . S
C2094 C2092 1.381 . S
C2094 C2095 1.394 . S
C2094 H2102 0.930 . S
C2095 C2094 1.394 . S
C2095 C2096 1.383 . S
C2095 H2103 0.929 . S
C2096 C2095 1.383 . S
C2096 C2097 1.377 . S
C2097 H2081 0.930 . S
C2097 C2096 1.377 . S
C2097 C2098 1.379 . S
C2098 H2082 0.931 . S
C2098 C2092 1.383 . S
C2098 C2097 1.379 . S
H2099 C2093 0.959 . S
H2100 C2093 0.961 . S
H2101 C2093 0.960 . S
H2102 C2094 0.930 . S
H2103 C2095 0.929 . S
H2104 C2112 0.929 . S
H2105 C2114 0.930 . S
H2106 C2116 0.930 . S
H2107 C2119 0.929 . S
H2108 C2122 0.930 . S
H2109 C2124 0.960 . S
H2110 C2124 0.960 . S
H2111 C2124 0.960 . S
C2112 H2104 0.929 . S
C2112 C2113 1.377 . S
C2112 C2114 1.384 . S
C2113 C2112 1.377 . S
C2113 C2119 1.390 . S
C2114 H2105 0.930 . S
C2114 C2112 1.384 . S
C2114 C2115 1.372 . S
C2115 C2114 1.372 . S
C2115 C2116 1.400 . S
C2115 C2120 1.490 . S
C2116 H2106 0.930 . S
C2116 C2115 1.400 . S
C2116 C2119 1.386 . S
H2117 C2133 0.930 . S
H2118 C2134 0.931 . S
C2119 H2107 0.929 . S
C2119 C2113 1.390 . S
C2119 C2116 1.386 . S
C2120 C2115 1.490 . S
C2120 C2122 1.395 . S
C2120 C2123 1.403 . S
H2121 C2127 0.930 . S
C2122 H2108 0.930 . S
C2122 C2120 1.395 . S
C2122 C2125 1.403 . S
C2123 C2120 1.403 . S
C2123 C2124 1.524 . S
C2123 C2127 1.400 . S
C2124 H2109 0.960 . S
C2124 H2110 0.960 . S
C2124 H2111 0.960 . S
C2124 C2123 1.524 . S
C2125 C2122 1.403 . S
C2125 C2126 1.392 . S
C2125 C2129 1.495 . S
C2126 C2125 1.392 . S
C2126 C2127 1.385 . S
C2126 C2128 1.478 . S
C2127 H2121 0.930 . S
C2127 C2123 1.400 . S
C2127 C2126 1.385 . S
C2128 C2126 1.478 . S
C2128 C2130 1.381 . S
C2128 C2134 1.383 . S
C2129 C2125 1.495 . S
C2129 H2135 0.959 . S
C2129 H2136 0.961 . S
C2129 H2137 0.960 . S
C2130 C2128 1.381 . S
C2130 C2131 1.394 . S
C2130 H2138 0.930 . S
C2131 C2130 1.394 . S
C2131 C2132 1.383 . S
C2131 H2139 0.929 . S
C2132 C2131 1.383 . S
C2132 C2133 1.377 . S
C2133 H2117 0.930 . S
C2133 C2132 1.377 . S
C2133 C2134 1.379 . S
C2134 H2118 0.931 . S
C2134 C2128 1.383 . S
C2134 C2133 1.379 . S
H2135 C2129 0.959 . S
H2136 C2129 0.961 . S
H2137 C2129 0.960 . S
H2138 C2130 0.930 . S
H2139 C2131 0.929 . S
H2140 C2148 0.929 . S
H2141 C2150 0.930 . S
H2142 C2152 0.930 . S
H2143 C2155 0.929 . S
H2144 C2158 0.930 . S
H2145 C2160 0.960 . S
H2146 C2160 0.960 . S
H2147 C2160 0.960 . S
C2148 H2140 0.929 . S
C2148 C2149 1.377 . S
C2148 C2150 1.384 . S
C2149 C2148 1.377 . S
C2149 C2155 1.390 . S
C2150 H2141 0.930 . S
C2150 C2148 1.384 . S
C2150 C2151 1.372 . S
C2151 C2150 1.372 . S
C2151 C2152 1.400 . S
C2151 C2156 1.490 . S
C2152 H2142 0.930 . S
C2152 C2151 1.400 . S
C2152 C2155 1.386 . S
H2153 C2169 0.930 . S
H2154 C2170 0.931 . S
C2155 H2143 0.929 . S
C2155 C2149 1.390 . S
C2155 C2152 1.386 . S
C2156 C2151 1.490 . S
C2156 C2158 1.395 . S
C2156 C2159 1.403 . S
H2157 C2163 0.930 . S
C2158 H2144 0.930 . S
C2158 C2156 1.395 . S
C2158 C2161 1.403 . S
C2159 C2156 1.403 . S
C2159 C2160 1.524 . S
C2159 C2163 1.400 . S
C2160 H2145 0.960 . S
C2160 H2146 0.960 . S
C2160 H2147 0.960 . S
C2160 C2159 1.524 . S
C2161 C2158 1.403 . S
C2161 C2162 1.392 . S
C2161 C2165 1.495 . S
C2162 C2161 1.392 . S
C2162 C2163 1.385 . S
C2162 C2164 1.478 . S
C2163 H2157 0.930 . S
C2163 C2159 1.400 . S
C2163 C2162 1.385 . S
C2164 C2162 1.478 . S
C2164 C2166 1.381 . S
C2164 C2170 1.383 . S
C2165 C2161 1.495 . S
C2165 H2171 0.959 . S
C2165 H2172 0.961 . S
C2165 H2173 0.960 . S
C2166 C2164 1.381 . S
C2166 C2167 1.394 . S
C2166 H2174 0.930 . S
C2167 C2166 1.394 . S
C2167 C2168 1.383 . S
C2167 H2175 0.929 . S
C2168 C2167 1.383 . S
C2168 C2169 1.377 . S
C2169 H2153 0.930 . S
C2169 C2168 1.377 . S
C2169 C2170 1.379 . S
C2170 H2154 0.931 . S
C2170 C2164 1.383 . S
C2170 C2169 1.379 . S
H2171 C2165 0.959 . S
H2172 C2165 0.961 . S
H2173 C2165 0.960 . S
H2174 C2166 0.930 . S
H2175 C2167 0.929 . S
H2176 C2184 0.929 . S
H2177 C2186 0.930 . S
H2178 C2188 0.930 . S
H2179 C2191 0.929 . S
H2180 C2194 0.930 . S
H2181 C2196 0.960 . S
H2182 C2196 0.960 . S
H2183 C2196 0.960 . S
C2184 H2176 0.929 . S
C2184 C2185 1.377 . S
C2184 C2186 1.384 . S
C2185 C2184 1.377 . S
C2185 C2191 1.390 . S
C2186 H2177 0.930 . S
C2186 C2184 1.384 . S
C2186 C2187 1.372 . S
C2187 C2186 1.372 . S
C2187 C2188 1.400 . S
C2187 C2192 1.490 . S
C2188 H2178 0.930 . S
C2188 C2187 1.400 . S
C2188 C2191 1.386 . S
H2189 C2205 0.930 . S
H2190 C2206 0.931 . S
C2191 H2179 0.929 . S
C2191 C2185 1.390 . S
C2191 C2188 1.386 . S
C2192 C2187 1.490 . S
C2192 C2194 1.395 . S
C2192 C2195 1.403 . S
H2193 C2199 0.930 . S
C2194 H2180 0.930 . S
C2194 C2192 1.395 . S
C2194 C2197 1.403 . S
C2195 C2192 1.403 . S
C2195 C2196 1.524 . S
C2195 C2199 1.400 . S
C2196 H2181 0.960 . S
C2196 H2182 0.960 . S
C2196 H2183 0.960 . S
C2196 C2195 1.524 . S
C2197 C2194 1.403 . S
C2197 C2198 1.392 . S
C2197 C2201 1.495 . S
C2198 C2197 1.392 . S
C2198 C2199 1.385 . S
C2198 C2200 1.478 . S
C2199 H2193 0.930 . S
C2199 C2195 1.400 . S
C2199 C2198 1.385 . S
C2200 C2198 1.478 . S
C2200 C2202 1.381 . S
C2200 C2206 1.383 . S
C2201 C2197 1.495 . S
C2201 H2207 0.959 . S
C2201 H2208 0.961 . S
C2201 H2209 0.960 . S
C2202 C2200 1.381 . S
C2202 C2203 1.394 . S
C2202 H2210 0.930 . S
C2203 C2202 1.394 . S
C2203 C2204 1.383 . S
C2203 H2211 0.929 . S
C2204 C2203 1.383 . S
C2204 C2205 1.377 . S
C2205 H2189 0.930 . S
C2205 C2204 1.377 . S
C2205 C2206 1.379 . S
C2206 H2190 0.931 . S
C2206 C2200 1.383 . S
C2206 C2205 1.379 . S
H2207 C2201 0.959 . S
H2208 C2201 0.961 . S
H2209 C2201 0.960 . S
H2210 C2202 0.930 . S
H2211 C2203 0.929 . S
C512 C195 1.856 . S
C493 C19 1.830 . S
C548 C173 1.822 . S
C529 C24 1.771 . S
C584 C170 0.512 . S
C565 C59 0.525 . S
C601 C69 1.689 . S
C620 C182 1.703 . S
C637 C82 1.779 . S
C656 C165 1.846 . S
C692 C187 0.468 . S
C673 C118 0.523 . S
C709 C132 1.691 . S
C728 C192 1.669 . S
C745 C158 1.821 . S
C764 C188 1.859 . S
C800 C246 1.961 . S
C781 C4 1.878 . S
C817 C29 0.742 . S
C836 C296 0.769 . S
C872 C219 1.811 . S
C853 C44 1.754 . S
C908 C295 0.531 . S
C889 C79 0.579 . S
C925 C98 0.511 . S
C944 C224 0.487 . S
C980 C290 1.655 . S
C961 C112 1.663 . S
C997 C122 0.989 . S
C1016 C249 1.066 . S
C1033 C152 1.551 . S
C1052 C281 1.557 . S
C1069 C9 1.556 . S
C1088 C273 1.594 . S
C1105 C92 0.746 . S
C1124 C303 0.746 . S
C1160 C227 1.818 . S
C1141 C102 1.766 . S
C1196 C278 0.542 . S
C1177 C138 0.577 . S
C1213 C142 1.891 . S
C1232 C236 1.965 . S
C1249 C49 1.675 . S
C1268 C300 1.687 . S
C1304 C242 1.043 . S
C1285 C64 1.002 . S
C1321 C39 0.528 . S
C1340 C241 0.512 . S
C1357 C159 1.822 . S
C1376 C357 1.870 . S
C1393 C84 1.772 . S
C1412 C335 1.806 . S
C1448 C332 0.526 . S
C1429 C119 0.529 . S
C1484 C344 1.698 . S
C1465 C129 1.686 . S
C1501 C22 1.776 . S
C1520 C327 1.845 . S
C1556 C349 0.520 . S
C1537 C58 0.507 . S
C1573 C72 1.693 . S
C1592 C354 1.706 . S
C1609 C18 1.825 . S
C1628 C350 1.870 . S
C1645 C144 1.883 . S
C1664 C408 1.986 . S
C1700 C458 0.708 . S
C1681 C89 0.745 . S
C1717 C104 1.751 . S
C1736 C381 1.801 . S
C1753 C139 0.580 . S
C1772 C457 0.507 . S
C1808 C386 0.498 . S
C1789 C38 0.528 . S
C1825 C52 1.664 . S
C1844 C452 1.656 . S
C1880 C411 1.028 . S
C1861 C62 0.995 . S
C1916 C443 1.599 . S
C1897 C12 1.553 . S
C1952 C435 1.591 . S
C1933 C149 1.557 . S
C1969 C32 0.742 . S
C1988 C465 0.735 . S
C2005 C42 1.763 . S
C2024 C389 1.819 . S
C2060 C440 0.525 . S
C2041 C78 0.587 . S
C2077 C2 1.884 . S
C2096 C398 1.986 . S
C2113 C109 1.680 . S
C2132 C462 1.674 . S
C2168 C404 1.063 . S
C2149 C124 1.011 . S
C2204 C403 0.512 . S
C2185 C99 0.528 . S
