# Generated by pormake.
# Topology alb, (6,12)-cn, num edge types: 1
# Building blocks:
#     Node 0, Type 0, BuildingBlock: IZENUY_clean_sbu_0, # of connection points: 6
#     Node 1, Type 0, BuildingBlock: IZENUY_clean_sbu_0, # of connection points: 6
#     Node 2, Type 1, BuildingBlock: QEWDON_clean_sbu_0, # of connection points: 12
#     Edge 3, Type (0, 1), BuildingBlock: EZIPEK_clean_linker_0, # of connection points: 2
#     Edge 4, Type (0, 1), BuildingBlock: EZIPEK_clean_linker_0, # of connection points: 2
#     Edge 5, Type (0, 1), BuildingBlock: EZIPEK_clean_linker_0, # of connection points: 2
#     Edge 6, Type (0, 1), BuildingBlock: EZIPEK_clean_linker_0, # of connection points: 2
#     Edge 7, Type (0, 1), BuildingBlock: EZIPEK_clean_linker_0, # of connection points: 2
#     Edge 8, Type (0, 1), BuildingBlock: EZIPEK_clean_linker_0, # of connection points: 2
#     Edge 9, Type (0, 1), BuildingBlock: EZIPEK_clean_linker_0, # of connection points: 2
#     Edge 10, Type (0, 1), BuildingBlock: EZIPEK_clean_linker_0, # of connection points: 2
#     Edge 11, Type (0, 1), BuildingBlock: EZIPEK_clean_linker_0, # of connection points: 2
#     Edge 12, Type (0, 1), BuildingBlock: EZIPEK_clean_linker_0, # of connection points: 2
#     Edge 13, Type (0, 1), BuildingBlock: EZIPEK_clean_linker_0, # of connection points: 2
#     Edge 14, Type (0, 1), BuildingBlock: EZIPEK_clean_linker_0, # of connection points: 2
# Relax obj value: 0.111
# Max RMSD: 0.218
# Mean RMSD: 0.114
data_MOF--net-alb--node1-IZENUY_clean_sbu_0--node2-QEWDON_clean_sbu_0--edge1-EZIPEK_clean_linker_0
_symmetry_space_group_name_H-M    P1
_symmetry_Int_Tables_number       1
_symmetry_cell_setting            triclinic
loop_
_symmetry_equiv_pos_as_xyz
'x, y, z'
_cell_length_a     19.238382
_cell_length_b     19.281618
_cell_length_c     15.193038
_cell_angle_alpha  89.775377
_cell_angle_beta   89.738545
_cell_angle_gamma 119.83567
loop_
_atom_site_label
_atom_site_type_symbol
_atom_site_fract_x
_atom_site_fract_y
_atom_site_fract_z
_atom_type_partial_charge
Fe0 Fe 0.35583 0.75625 0.12839 0.0
Fe1 Fe 0.34411 0.59265 0.14576 0.0
O2 O 0.29673 0.65121 0.14694 0.0
Fe3 Fe 0.19212 0.60521 0.16891 0.0
O4 O 0.17343 0.64447 0.06715 0.0
O5 O 0.276 0.76688 0.07541 0.0
O6 O 0.38867 0.74329 0.01947 0.0
C7 C 0.4273 0.70662 0.0087 0.0
C8 C 0.26015 0.74987 0.267 0.0
O9 O 0.42031 0.65544 0.06556 0.0
C10 C 0.23309 0.52094 0.28502 0.0
O11 O 0.44623 0.76629 0.17901 0.0
O12 O 0.40755 0.64791 0.23705 0.0
O13 O 0.20048 0.68976 0.23308 0.0
O14 O 0.32984 0.77701 0.23604 0.0
C15 C 0.20795 0.49262 0.0588 0.0
O16 O 0.27796 0.51832 0.22638 0.0
O17 O 0.19991 0.56242 0.27364 0.0
C18 C 0.45384 0.72243 0.2354 0.0
O19 O 0.28328 0.53377 0.0549 0.0
O20 O 0.16755 0.51207 0.10938 0.0
C21 C 0.20803 0.71759 0.04495 0.0
Fe22 Fe 0.66793 0.42462 0.04327 0.0
Fe23 Fe 0.67204 0.26921 0.06386 0.0
O24 O 0.72245 0.37378 0.05011 0.0
Fe25 Fe 0.82829 0.42828 0.04162 0.0
O26 O 0.8343 0.48368 0.1407 0.0
O27 O 0.74683 0.51751 0.09589 0.0
O28 O 0.62299 0.39048 0.15159 0.0
C29 C 0.57905 0.31709 0.16926 0.0
C30 C 0.77952 0.50577 0.91766 0.0
O31 O 0.58988 0.26507 0.13054 0.0
C32 C 0.79301 0.30014 0.93696 0.0
O33 O 0.58061 0.34256 0.98959 0.0
O34 O 0.61611 0.25255 0.96354 0.0
O35 O 0.83262 0.50852 0.96919 0.0
O36 O 0.70697 0.45838 0.93389 0.0
C37 C 0.79866 0.30487 0.16616 0.0
O38 O 0.7445 0.25574 0.99653 0.0
O39 O 0.82699 0.37536 0.94228 0.0
C40 C 0.57134 0.2814 0.94933 0.0
O41 O 0.72443 0.27846 0.16555 0.0
O42 O 0.84388 0.35792 0.1108 0.0
C43 C 0.80522 0.52973 0.14509 0.0
Zn44 Zn 0.07779 0.09268 0.28532 0.0
Zn45 Zn 0.12293 0.98103 0.37719 0.0
O46 O 0.05239 0.02827 0.39674 0.0
H47 H 0.00214 1.00574 0.42847 0.0
C48 C 0.20101 0.29472 0.55535 0.0
O49 O 0.26765 0.31753 0.59898 0.0
Zn50 Zn 0.89703 0.85083 0.80794 0.0
Zn51 Zn 0.92273 0.99942 0.9153 0.0
O52 O 0.96586 0.96968 0.80898 0.0
H53 H 0.01684 1.00214 0.77983 0.0
Zn54 Zn 0.14867 0.14015 0.65344 0.0
O55 O 0.09647 0.02255 0.62067 0.0
Zn56 Zn 0.14166 0.9653 0.69172 0.0
H57 H 0.06861 1.00466 0.56571 0.0
Zn58 Zn 0.85578 0.99851 0.55877 0.0
O59 O 0.91899 0.93983 0.57637 0.0
H60 H 0.94823 0.94978 0.63047 0.0
Zn61 Zn 0.87831 0.84113 0.49695 0.0
C62 C 0.87553 0.13757 0.6688 0.0
O63 O 0.93996 0.1794 0.62012 0.0
O64 O 0.19892 0.15005 0.25702 0.0
O65 O 0.22885 0.06363 0.31851 0.0
O66 O 0.79934 0.92576 0.93181 0.0
O67 O 0.78593 0.81972 0.85901 0.0
O68 O 0.2488 0.17026 0.72778 0.0
O69 O 0.2387 0.05076 0.7531 0.0
C70 C 0.98582 0.83256 0.33585 0.0
O71 O 0.76003 0.93079 0.48194 0.0
O72 O 0.77684 0.82771 0.44365 0.0
O73 O 0.98481 0.11807 0.95853 0.0
C74 C 0.2499 0.12884 0.27663 0.0
O75 O 0.00806 0.14414 0.2555 0.0
C76 C 0.03175 0.83547 0.84089 0.0
O77 O 0.14237 0.22418 0.56758 0.0
C78 C 0.75566 0.8552 0.90248 0.0
O79 O 0.83356 0.06237 0.6573 0.0
C80 C 0.1772 0.91452 0.5279 0.0
O81 O 0.05685 0.87932 0.30771 0.0
O82 O 0.96209 0.85621 0.40233 0.0
C83 C 0.27486 0.12672 0.76121 0.0
O84 O 0.9599 0.80634 0.86891 0.0
O85 O 0.05453 0.88626 0.77755 0.0
C86 C 0.85813 0.74756 0.64951 0.0
O87 O 0.18073 0.90783 0.61078 0.0
O88 O 0.14762 0.95577 0.49823 0.0
C89 C 0.73731 0.86475 0.44306 0.0
O90 O 0.85025 0.74024 0.56673 0.0
O91 O 0.88223 0.81599 0.68236 0.0
C92 C 0.03723 0.17405 0.91035 0.0
O93 O 0.05486 0.15714 0.83265 0.0
C94 C 0.96377 0.15154 0.31281 0.0
O95 O 0.95887 0.12341 0.39284 0.0
C96 C 0.27784 0.87798 0.33331 0.0
C97 C 0.2464 0.79384 0.33921 0.0
C98 C 0.17083 0.78923 0.47168 0.0
C99 C 0.20516 0.87326 0.46758 0.0
N100 N 0.31325 0.99845 0.41451 0.0
N101 N 0.18152 0.67464 0.42998 0.0
C102 C 0.26541 0.91801 0.40445 0.0
C103 C 0.19903 0.75118 0.41367 0.0
N104 N 0.31562 0.91965 0.25855 0.0
N105 N 0.10706 0.74478 0.52604 0.0
H106 H 0.20227 0.64547 0.38995 0.0
H107 H 0.15423 0.64376 0.48795 0.0
H108 H 0.08245 0.77042 0.56654 0.0
H109 H 0.07363 0.68258 0.52393 0.0
H110 H 0.33168 0.97939 0.24899 0.0
H111 H 0.32356 0.89341 0.20252 0.0
H112 H 0.36366 0.03257 0.37519 0.0
H113 H 0.30744 0.02883 0.46818 0.0
C114 C 0.43731 0.28591 0.15751 0.0
C115 C 0.49901 0.2882 0.21029 0.0
C116 C 0.3969 0.202 0.31768 0.0
C117 C 0.33595 0.18383 0.25429 0.0
N118 N 0.30307 0.20106 0.10516 0.0
N119 N 0.53709 0.24465 0.34091 0.0
C120 C 0.35738 0.22406 0.17176 0.0
C121 C 0.47868 0.24491 0.29058 0.0
N122 N 0.45435 0.34297 0.09463 0.0
N123 N 0.37746 0.18336 0.40439 0.0
H124 H 0.59785 0.27902 0.32485 0.0
H125 H 0.52437 0.20729 0.3956 0.0
H126 H 0.31883 0.15822 0.42806 0.0
H127 H 0.42038 0.20116 0.45371 0.0
H128 H 0.41008 0.34612 0.05843 0.0
H129 H 0.51096 0.3932 0.0877 0.0
H130 H 0.31819 0.22572 0.04204 0.0
H131 H 0.24587 0.15118 0.10968 0.0
C132 C 0.23729 0.4887 0.44645 0.0
C133 C 0.20955 0.46301 0.35977 0.0
C134 C 0.17347 0.32621 0.40141 0.0
C135 C 0.19656 0.3505 0.48968 0.0
N136 N 0.22975 0.45147 0.60031 0.0
N137 N 0.13078 0.35457 0.26231 0.0
C138 C 0.22182 0.43076 0.51355 0.0
C139 C 0.17061 0.38064 0.34007 0.0
N140 N 0.28266 0.56828 0.46372 0.0
N141 N 0.15957 0.25336 0.37371 0.0
H142 H 0.12404 0.39264 0.21873 0.0
H143 H 0.09749 0.29473 0.24512 0.0
H144 H 0.16363 0.21182 0.41419 0.0
H145 H 0.15245 0.23837 0.30756 0.0
H146 H 0.31171 0.5905 0.52334 0.0
H147 H 0.29677 0.61168 0.41537 0.0
H148 H 0.24108 0.50742 0.62167 0.0
H149 H 0.2165 0.41007 0.65111 0.0
C150 C 0.80573 0.17956 0.19475 0.0
C151 C 0.83075 0.2606 0.21625 0.0
C152 C 0.92837 0.26071 0.31996 0.0
C153 C 0.91302 0.18579 0.28643 0.0
N154 N 0.8405 0.07516 0.18792 0.0
N155 N 0.91772 0.37974 0.29743 0.0
C156 C 0.85245 0.1455 0.22301 0.0
C157 C 0.89246 0.30148 0.27868 0.0
N158 N 0.73746 0.13433 0.14763 0.0
N159 N 0.97677 0.29273 0.39135 0.0
H160 H 0.88935 0.4099 0.27314 0.0
H161 H 0.96922 0.41592 0.33325 0.0
H162 H 0.00468 0.26508 0.42271 0.0
H163 H 0.98415 0.34331 0.42402 0.0
H164 H 0.71204 0.07279 0.13999 0.0
H165 H 0.7012 0.15519 0.1224 0.0
H166 H 0.80619 0.04937 0.13205 0.0
H167 H 0.86888 0.0447 0.21107 0.0
C168 C 0.60168 0.78745 0.24917 0.0
C169 C 0.5257 0.75798 0.28997 0.0
C170 C 0.58863 0.7973 0.43374 0.0
C171 C 0.6644 0.83178 0.39132 0.0
N172 N 0.74343 0.88081 0.25842 0.0
N173 N 0.44776 0.75348 0.41687 0.0
C174 C 0.67115 0.83347 0.29884 0.0
C175 C 0.51913 0.768 0.38131 0.0
N176 N 0.60776 0.76891 0.16408 0.0
N177 N 0.58304 0.79128 0.52345 0.0
H178 H 0.39686 0.73613 0.37876 0.0
H179 H 0.44126 0.76654 0.48182 0.0
H180 H 0.63312 0.81328 0.56401 0.0
H181 H 0.52869 0.75926 0.55708 0.0
H182 H 0.66215 0.78283 0.13448 0.0
H183 H 0.55792 0.73208 0.12671 0.0
H184 H 0.74986 0.89015 0.19054 0.0
H185 H 0.79578 0.91662 0.29336 0.0
C186 C 0.80815 0.64114 0.23928 0.0
C187 C 0.84928 0.60648 0.19586 0.0
C188 C 0.97413 0.71008 0.26104 0.0
C189 C 0.93604 0.75229 0.29242 0.0
N190 N 0.81768 0.76508 0.28688 0.0
N191 N 0.97842 0.62932 0.14338 0.0
C192 C 0.85302 0.7197 0.27515 0.0
C193 C 0.93428 0.6469 0.20038 0.0
N194 N 0.72679 0.59904 0.24888 0.0
N195 N 0.0478 0.72815 0.29072 0.0
H196 H 0.95387 0.59161 0.08966 0.0
H197 H 0.04086 0.66098 0.14223 0.0
H198 H 0.07795 0.77146 0.33797 0.0
H199 H 0.07313 0.69264 0.27664 0.0
H200 H 0.69537 0.61976 0.28633 0.0
H201 H 0.69195 0.54011 0.22832 0.0
H202 H 0.7589 0.74595 0.26798 0.0
H203 H 0.85018 0.82497 0.30477 0.0
C204 C 0.14331 0.8037 0.02951 0.0
C205 C 0.1648 0.74953 0.9909 0.0
C206 C 0.11458 0.76648 0.8478 0.0
C207 C 0.08705 0.81474 0.88836 0.0
N208 N 0.07516 0.88082 0.01689 0.0
N209 N 0.16857 0.67663 0.86439 0.0
C210 C 0.10208 0.83417 0.97885 0.0
C211 C 0.14978 0.73024 0.9002 0.0
N212 N 0.16238 0.82623 0.11513 0.0
N213 N 0.10826 0.75658 0.75875 0.0
H214 H 0.19869 0.65291 0.89907 0.0
H215 H 0.15102 0.65227 0.80198 0.0
H216 H 0.08221 0.78172 0.71955 0.0
H217 H 0.13354 0.72883 0.72269 0.0
H218 H 0.15969 0.87357 0.14426 0.0
H219 H 0.18355 0.79878 0.15745 0.0
H220 H 0.07263 0.888 0.08443 0.0
H221 H 0.05248 0.91107 0.98054 0.0
C222 C 0.49405 0.26584 0.81262 0.0
C223 C 0.49877 0.23626 0.89648 0.0
C224 C 0.35557 0.1387 0.89399 0.0
C225 C 0.35164 0.16537 0.80805 0.0
N226 N 0.4204 0.23968 0.6767 0.0
N227 N 0.43952 0.13286 0.00822 0.0
C228 C 0.42173 0.22509 0.76471 0.0
C229 C 0.43129 0.16872 0.93432 0.0
N230 N 0.55864 0.33285 0.77878 0.0
N231 N 0.28667 0.08728 0.93845 0.0
H232 H 0.49416 0.15195 0.039 0.0
H233 H 0.39405 0.07908 0.03389 0.0
H234 H 0.22957 0.06706 0.91298 0.0
H235 H 0.28524 0.07038 0.00387 0.0
H236 H 0.55561 0.36312 0.7233 0.0
H237 H 0.61459 0.36067 0.80888 0.0
H238 H 0.47164 0.27661 0.6399 0.0
H239 H 0.36947 0.20892 0.63801 0.0
C240 C 0.18294 0.35153 0.04719 0.0
C241 C 0.16767 0.41263 0.0164 0.0
C242 C 0.07639 0.32 0.9058 0.0
C243 C 0.08329 0.25663 0.94502 0.0
N244 N 0.13551 0.21014 0.06121 0.0
N245 N 0.09232 0.45219 0.92275 0.0
C246 C 0.13385 0.27178 0.01841 0.0
C247 C 0.1118 0.39587 0.94779 0.0
N248 N 0.2458 0.36916 0.10184 0.0
N249 N 0.03767 0.3085 0.82751 0.0
H250 H 0.11988 0.50968 0.94878 0.0
H251 H 0.04505 0.44016 0.8807 0.0
H252 H 0.01221 0.25442 0.79415 0.0
H253 H 0.0371 0.35436 0.79165 0.0
H254 H 0.26422 0.32829 0.11811 0.0
H255 H 0.28513 0.42607 0.12442 0.0
H256 H 0.16019 0.21637 0.12353 0.0
H257 H 0.10772 0.15171 0.03792 0.0
C258 C 0.81282 0.27832 0.77637 0.0
C259 C 0.81786 0.26278 0.86695 0.0
C260 C 0.84762 0.15738 0.8265 0.0
C261 C 0.85184 0.17842 0.73624 0.0
N262 N 0.84434 0.2643 0.62488 0.0
N263 N 0.86257 0.20363 0.97653 0.0
C264 C 0.837 0.24115 0.71115 0.0
C265 C 0.84109 0.20645 0.89153 0.0
N266 N 0.78055 0.32469 0.75234 0.0
N267 N 0.85096 0.0912 0.85127 0.0
H268 H 0.86669 0.24444 0.02384 0.0
H269 H 0.88558 0.16772 0.99765 0.0
H270 H 0.86373 0.05706 0.80825 0.0
H271 H 0.83535 0.06772 0.91474 0.0
H272 H 0.76732 0.33142 0.68758 0.0
H273 H 0.76027 0.35116 0.79775 0.0
H274 H 0.84473 0.31607 0.60426 0.0
H275 H 0.85389 0.23388 0.57392 0.0
C276 C 0.54088 0.69362 0.94867 0.0
C277 C 0.49944 0.73728 0.94838 0.0
C278 C 0.62254 0.85219 0.8891 0.0
C279 C 0.66696 0.81448 0.91522 0.0
N280 N 0.66597 0.70252 0.98775 0.0
N281 N 0.49817 0.85577 0.8986 0.0
C282 C 0.62548 0.73556 0.94869 0.0
C283 C 0.53931 0.81605 0.91228 0.0
N284 N 0.49919 0.61209 0.95152 0.0
N285 N 0.65866 0.92002 0.83854 0.0
H286 H 0.4358 0.82671 0.89772 0.0
H287 H 0.52601 0.917 0.88615 0.0
H288 H 0.7176 0.94489 0.81613 0.0
H289 H 0.62832 0.94696 0.81134 0.0
H290 H 0.52703 0.57754 0.95 0.0
H291 H 0.43687 0.57997 0.9457 0.0
H292 H 0.63643 0.64897 0.02326 0.0
H293 H 0.72823 0.73234 0.99316 0.0
C294 C 0.86167 0.58186 0.78349 0.0
C295 C 0.79974 0.5661 0.84565 0.0
C296 C 0.76351 0.65286 0.76099 0.0
C297 C 0.83198 0.67691 0.70754 0.0
N298 N 0.94012 0.65904 0.65646 0.0
N299 N 0.68858 0.58336 0.89103 0.0
C300 C 0.87906 0.63941 0.71517 0.0
C301 C 0.74952 0.60041 0.83312 0.0
N302 N 0.90068 0.53886 0.78703 0.0
N303 N 0.71357 0.68285 0.74388 0.0
H304 H 0.6887 0.56599 0.95603 0.0
H305 H 0.63816 0.58713 0.87517 0.0
H306 H 0.72033 0.718 0.68857 0.0
H307 H 0.66487 0.67313 0.78261 0.0
H308 H 0.9429 0.54303 0.74128 0.0
H309 H 0.88741 0.49397 0.83319 0.0
H310 H 0.98149 0.63946 0.66037 0.0
H311 H 0.94997 0.69651 0.60264 0.0
loop_
_geom_bond_atom_site_label_1
_geom_bond_atom_site_label_2
_geom_bond_distance
_geom_bond_site_symmetry_2
_ccdc_geom_bond_type
Fe0 O2 1.918 . S
Fe0 O5 1.997 . S
Fe0 O6 2.002 . S
Fe0 O11 1.976 . S
Fe0 O14 1.996 . S
Fe1 O2 1.918 . S
Fe1 O9 1.997 . S
Fe1 O12 1.996 . S
Fe1 O16 1.976 . S
Fe1 O19 2.002 . S
O2 Fe0 1.918 . S
O2 Fe1 1.918 . S
O2 Fe3 1.918 . S
Fe3 O2 1.918 . S
Fe3 O4 2.002 . S
Fe3 O13 1.976 . S
Fe3 O17 1.996 . S
Fe3 O20 1.997 . S
O4 Fe3 2.002 . S
O4 C21 1.295 . S
O5 Fe0 1.997 . S
O5 C21 1.235 . S
O6 Fe0 2.002 . S
O6 C7 1.295 . S
C7 O6 1.295 . S
C7 O9 1.235 . S
C8 O13 1.287 . S
C8 O14 1.255 . S
O9 Fe1 1.997 . S
O9 C7 1.235 . S
C10 O16 1.287 . S
C10 O17 1.255 . S
O11 Fe0 1.976 . S
O11 C18 1.287 . S
O12 Fe1 1.996 . S
O12 C18 1.255 . S
O13 Fe3 1.976 . S
O13 C8 1.287 . S
O14 Fe0 1.996 . S
O14 C8 1.255 . S
C15 O19 1.295 . S
C15 O20 1.235 . S
O16 Fe1 1.976 . S
O16 C10 1.287 . S
O17 Fe3 1.996 . S
O17 C10 1.255 . S
C18 O11 1.287 . S
C18 O12 1.255 . S
O19 Fe1 2.002 . S
O19 C15 1.295 . S
O20 Fe3 1.997 . S
O20 C15 1.235 . S
C21 O4 1.295 . S
C21 O5 1.235 . S
Fe22 O24 1.918 . S
Fe22 O27 1.997 . S
Fe22 O28 2.002 . S
Fe22 O33 1.976 1_554 S
Fe22 O36 1.996 1_554 S
Fe23 O24 1.918 . S
Fe23 O31 1.997 . S
Fe23 O34 1.996 1_554 S
Fe23 O38 1.976 1_554 S
Fe23 O41 2.002 . S
O24 Fe22 1.918 . S
O24 Fe23 1.918 . S
O24 Fe25 1.918 . S
Fe25 O24 1.918 . S
Fe25 O26 2.002 . S
Fe25 O35 1.976 1_554 S
Fe25 O39 1.996 1_554 S
Fe25 O42 1.997 . S
O26 Fe25 2.002 . S
O26 C43 1.295 . S
O27 Fe22 1.997 . S
O27 C43 1.235 . S
O28 Fe22 2.002 . S
O28 C29 1.295 . S
C29 O28 1.295 . S
C29 O31 1.235 . S
C30 O35 1.287 . S
C30 O36 1.255 . S
O31 Fe23 1.997 . S
O31 C29 1.235 . S
C32 O38 1.287 . S
C32 O39 1.255 . S
O33 Fe22 1.976 1_556 S
O33 C40 1.287 . S
O34 Fe23 1.996 1_556 S
O34 C40 1.255 . S
O35 Fe25 1.976 1_556 S
O35 C30 1.287 . S
O36 Fe22 1.996 1_556 S
O36 C30 1.255 . S
C37 O41 1.295 . S
C37 O42 1.235 . S
O38 Fe23 1.976 1_556 S
O38 C32 1.287 . S
O39 Fe25 1.996 1_556 S
O39 C32 1.255 . S
C40 O33 1.287 . S
C40 O34 1.255 . S
O41 Fe23 2.002 . S
O41 C37 1.295 . S
O42 Fe25 1.997 . S
O42 C37 1.235 . S
C43 O26 1.295 . S
C43 O27 1.235 . S
Zn44 O46 1.933 . S
Zn44 O64 1.985 . S
Zn44 O75 1.955 . S
Zn45 O46 1.911 1_565 S
Zn45 O65 1.970 1_565 S
Zn45 O81 1.945 . S
Zn45 O88 1.981 . S
O46 Zn44 1.933 . S
O46 Zn45 1.911 1_545 S
O46 H47 0.841 1_445 S
H47 O46 0.841 1_665 S
C48 O49 1.246 . S
C48 O77 1.276 . S
O49 C48 1.246 . S
Zn50 O52 1.911 . S
Zn50 O67 1.970 . S
Zn50 O84 1.945 1_655 S
Zn50 O91 1.981 . S
Zn51 O52 1.933 1_545 S
Zn51 O66 1.985 1_545 S
Zn51 O73 1.955 1_655 S
O52 Zn50 1.911 . S
O52 Zn51 1.933 1_565 S
O52 H53 0.841 1_665 S
H53 O52 0.841 1_445 S
Zn54 O55 1.933 . S
Zn54 O68 1.985 . S
Zn54 O77 1.955 . S
O55 Zn54 1.933 . S
O55 Zn56 1.911 . S
O55 H57 0.841 . S
Zn56 O55 1.911 . S
Zn56 O69 1.970 . S
Zn56 O85 1.981 1_545 S
Zn56 O87 1.945 1_545 S
H57 O55 0.841 . S
Zn58 O59 1.933 . S
Zn58 O71 1.985 . S
Zn58 O79 1.955 1_565 S
O59 Zn58 1.933 . S
O59 H60 0.841 . S
O59 Zn61 1.911 . S
H60 O59 0.841 . S
Zn61 O59 1.911 . S
Zn61 O72 1.970 . S
Zn61 O82 1.981 . S
Zn61 O90 1.945 . S
C62 O63 1.246 . S
C62 O79 1.276 . S
O63 C62 1.246 . S
O64 Zn44 1.985 . S
O64 C74 1.245 . S
O65 Zn45 1.970 1_545 S
O65 C74 1.263 . S
O66 Zn51 1.985 1_565 S
O66 C78 1.245 . S
O67 Zn50 1.970 . S
O67 C78 1.263 . S
O68 Zn54 1.985 . S
O68 C83 1.245 . S
O69 Zn56 1.970 . S
O69 C83 1.263 . S
C70 O81 1.262 1_655 S
C70 O82 1.245 . S
O71 Zn58 1.985 . S
O71 C89 1.245 . S
O72 Zn61 1.970 . S
O72 C89 1.263 . S
O73 Zn51 1.955 1_455 S
O73 C92 1.276 . S
C74 O64 1.245 . S
C74 O65 1.263 . S
O75 Zn44 1.955 . S
O75 C94 1.276 1_455 S
C76 O84 1.262 . S
C76 O85 1.245 . S
O77 C48 1.276 . S
O77 Zn54 1.955 . S
C78 O66 1.245 . S
C78 O67 1.263 . S
O79 Zn58 1.955 1_545 S
O79 C62 1.276 . S
C80 O87 1.262 . S
C80 O88 1.245 . S
O81 Zn45 1.945 . S
O81 C70 1.262 1_455 S
O82 Zn61 1.981 . S
O82 C70 1.245 . S
C83 O68 1.245 . S
C83 O69 1.263 . S
O84 Zn50 1.945 1_455 S
O84 C76 1.262 . S
O85 Zn56 1.981 1_565 S
O85 C76 1.245 . S
C86 O90 1.262 . S
C86 O91 1.245 . S
O87 Zn56 1.945 1_565 S
O87 C80 1.262 . S
O88 Zn45 1.981 . S
O88 C80 1.245 . S
C89 O71 1.245 . S
C89 O72 1.263 . S
O90 Zn61 1.945 . S
O90 C86 1.262 . S
O91 Zn50 1.981 . S
O91 C86 1.245 . S
C92 O73 1.276 . S
C92 O93 1.246 . S
O93 C92 1.246 . S
C94 O75 1.276 1_655 S
C94 O95 1.246 . S
O95 C94 1.246 . S
C96 C97 1.363 . S
C96 C102 1.379 . S
C96 N104 1.356 . S
C97 C96 1.363 . S
C97 C103 1.363 . S
C98 C99 1.363 . S
C98 C103 1.379 . S
C98 N105 1.356 . S
C99 C98 1.363 . S
C99 C102 1.363 . S
N100 C102 1.356 . S
N100 H112 0.984 1_565 S
N100 H113 0.992 . S
N101 C103 1.356 . S
N101 H106 0.984 . S
N101 H107 0.985 . S
C102 C96 1.379 . S
C102 C99 1.363 . S
C102 N100 1.356 . S
C103 C97 1.363 . S
C103 C98 1.379 . S
C103 N101 1.356 . S
N104 C96 1.356 . S
N104 H110 0.984 . S
N104 H111 0.984 . S
N105 C98 1.356 . S
N105 H108 0.984 . S
N105 H109 0.985 . S
H106 N101 0.984 . S
H107 N101 0.985 . S
H108 N105 0.984 . S
H109 N105 0.985 . S
H110 N104 0.984 . S
H111 N104 0.984 . S
H112 N100 0.984 1_545 S
H113 N100 0.992 . S
C114 C115 1.363 . S
C114 C120 1.379 . S
C114 N122 1.356 . S
C115 C114 1.363 . S
C115 C121 1.363 . S
C116 C117 1.363 . S
C116 C121 1.379 . S
C116 N123 1.356 . S
C117 C116 1.363 . S
C117 C120 1.363 . S
N118 C120 1.356 . S
N118 H130 0.984 . S
N118 H131 0.985 . S
N119 C121 1.356 . S
N119 H124 0.984 . S
N119 H125 0.985 . S
C120 C114 1.379 . S
C120 C117 1.363 . S
C120 N118 1.356 . S
C121 C115 1.363 . S
C121 C116 1.379 . S
C121 N119 1.356 . S
N122 C114 1.356 . S
N122 H128 0.984 . S
N122 H129 0.984 . S
N123 C116 1.356 . S
N123 H126 0.984 . S
N123 H127 0.985 . S
H124 N119 0.984 . S
H125 N119 0.985 . S
H126 N123 0.984 . S
H127 N123 0.985 . S
H128 N122 0.984 . S
H129 N122 0.984 . S
H130 N118 0.984 . S
H131 N118 0.985 . S
C132 C133 1.363 . S
C132 C138 1.379 . S
C132 N140 1.356 . S
C133 C132 1.363 . S
C133 C139 1.363 . S
C134 C135 1.363 . S
C134 C139 1.379 . S
C134 N141 1.356 . S
C135 C134 1.363 . S
C135 C138 1.363 . S
N136 C138 1.356 . S
N136 H148 0.984 . S
N136 H149 0.985 . S
N137 C139 1.356 . S
N137 H142 0.984 . S
N137 H143 0.985 . S
C138 C132 1.379 . S
C138 C135 1.363 . S
C138 N136 1.356 . S
C139 C133 1.363 . S
C139 C134 1.379 . S
C139 N137 1.356 . S
N140 C132 1.356 . S
N140 H146 0.984 . S
N140 H147 0.984 . S
N141 C134 1.356 . S
N141 H144 0.984 . S
N141 H145 0.985 . S
H142 N137 0.984 . S
H143 N137 0.985 . S
H144 N141 0.984 . S
H145 N141 0.985 . S
H146 N140 0.984 . S
H147 N140 0.984 . S
H148 N136 0.984 . S
H149 N136 0.985 . S
C150 C151 1.363 . S
C150 C156 1.379 . S
C150 N158 1.356 . S
C151 C150 1.363 . S
C151 C157 1.363 . S
C152 C153 1.363 . S
C152 C157 1.379 . S
C152 N159 1.356 . S
C153 C152 1.363 . S
C153 C156 1.363 . S
N154 C156 1.356 . S
N154 H166 0.984 . S
N154 H167 0.985 . S
N155 C157 1.356 . S
N155 H160 0.984 . S
N155 H161 0.985 . S
C156 C150 1.379 . S
C156 C153 1.363 . S
C156 N154 1.356 . S
C157 C151 1.363 . S
C157 C152 1.379 . S
C157 N155 1.356 . S
N158 C150 1.356 . S
N158 H164 0.984 . S
N158 H165 0.984 . S
N159 C152 1.356 . S
N159 H162 0.984 1_655 S
N159 H163 0.985 1_655 S
H160 N155 0.984 . S
H161 N155 0.985 . S
H162 N159 0.984 1_455 S
H163 N159 0.985 1_455 S
H164 N158 0.984 . S
H165 N158 0.984 . S
H166 N154 0.984 . S
H167 N154 0.985 . S
C168 C169 1.363 . S
C168 C174 1.379 . S
C168 N176 1.356 . S
C169 C168 1.363 . S
C169 C175 1.363 . S
C170 C171 1.363 . S
C170 C175 1.379 . S
C170 N177 1.356 . S
C171 C170 1.363 . S
C171 C174 1.363 . S
N172 C174 1.356 . S
N172 H184 0.984 . S
N172 H185 0.985 . S
N173 C175 1.356 . S
N173 H178 0.984 . S
N173 H179 0.985 . S
C174 C168 1.379 . S
C174 C171 1.363 . S
C174 N172 1.356 . S
C175 C169 1.363 . S
C175 C170 1.379 . S
C175 N173 1.356 . S
N176 C168 1.356 . S
N176 H182 0.984 . S
N176 H183 0.984 . S
N177 C170 1.356 . S
N177 H180 0.984 . S
N177 H181 0.985 . S
H178 N173 0.984 . S
H179 N173 0.985 . S
H180 N177 0.984 . S
H181 N177 0.985 . S
H182 N176 0.984 . S
H183 N176 0.984 . S
H184 N172 0.984 . S
H185 N172 0.985 . S
C186 C187 1.363 . S
C186 C192 1.379 . S
C186 N194 1.356 . S
C187 C186 1.363 . S
C187 C193 1.363 . S
C188 C189 1.363 . S
C188 C193 1.379 . S
C188 N195 1.356 1_655 S
C189 C188 1.363 . S
C189 C192 1.363 . S
N190 C192 1.356 . S
N190 H202 0.984 . S
N190 H203 0.985 . S
N191 C193 1.356 . S
N191 H196 0.984 . S
N191 H197 0.985 . S
C192 C186 1.379 . S
C192 C189 1.363 . S
C192 N190 1.356 . S
C193 C187 1.363 . S
C193 C188 1.379 . S
C193 N191 1.356 . S
N194 C186 1.356 . S
N194 H200 0.984 . S
N194 H201 0.984 . S
N195 C188 1.356 1_455 S
N195 H198 0.984 . S
N195 H199 0.985 . S
H196 N191 0.984 . S
H197 N191 0.985 . S
H198 N195 0.984 . S
H199 N195 0.985 . S
H200 N194 0.984 . S
H201 N194 0.984 . S
H202 N190 0.984 . S
H203 N190 0.985 . S
C204 C205 1.363 . S
C204 C210 1.379 . S
C204 N212 1.356 1_556 S
C205 C204 1.363 . S
C205 C211 1.363 . S
C206 C207 1.363 . S
C206 C211 1.379 . S
C206 N213 1.356 . S
C207 C206 1.363 . S
C207 C210 1.363 . S
N208 C210 1.356 . S
N208 H220 0.981 1_565 S
N208 H221 0.985 . S
N209 C211 1.356 . S
N209 H214 0.984 . S
N209 H215 0.985 . S
C210 C204 1.379 . S
C210 C207 1.363 . S
C210 N208 1.356 . S
C211 C205 1.363 . S
C211 C206 1.379 . S
C211 N209 1.356 . S
N212 C204 1.356 1_554 S
N212 H218 0.984 . S
N212 H219 0.984 . S
N213 C206 1.356 . S
N213 H216 0.984 . S
N213 H217 0.985 . S
H214 N209 0.984 . S
H215 N209 0.985 . S
H216 N213 0.984 . S
H217 N213 0.985 . S
H218 N212 0.984 . S
H219 N212 0.984 . S
H220 N208 0.981 1_545 S
H221 N208 0.985 . S
C222 C223 1.363 . S
C222 C228 1.379 . S
C222 N230 1.356 . S
C223 C222 1.363 . S
C223 C229 1.363 . S
C224 C225 1.363 . S
C224 C229 1.379 . S
C224 N231 1.356 . S
C225 C224 1.363 . S
C225 C228 1.363 . S
N226 C228 1.356 . S
N226 H238 0.984 . S
N226 H239 0.985 . S
N227 C229 1.356 . S
N227 H232 0.984 . S
N227 H233 0.985 . S
C228 C222 1.379 . S
C228 C225 1.363 . S
C228 N226 1.356 . S
C229 C223 1.363 . S
C229 C224 1.379 . S
C229 N227 1.356 . S
N230 C222 1.356 . S
N230 H236 0.984 . S
N230 H237 0.984 . S
N231 C224 1.356 . S
N231 H234 0.984 . S
N231 H235 0.985 . S
H232 N227 0.984 . S
H233 N227 0.985 . S
H234 N231 0.984 . S
H235 N231 0.985 . S
H236 N230 0.984 . S
H237 N230 0.984 . S
H238 N226 0.984 . S
H239 N226 0.985 . S
C240 C241 1.363 . S
C240 C246 1.379 . S
C240 N248 1.356 1_556 S
C241 C240 1.363 . S
C241 C247 1.363 . S
C242 C243 1.363 . S
C242 C247 1.379 . S
C242 N249 1.356 . S
C243 C242 1.363 . S
C243 C246 1.363 . S
N244 C246 1.356 . S
N244 H256 0.984 . S
N244 H257 0.985 . S
N245 C247 1.356 . S
N245 H250 0.984 . S
N245 H251 0.985 . S
C246 C240 1.379 . S
C246 C243 1.363 . S
C246 N244 1.356 . S
C247 C241 1.363 . S
C247 C242 1.379 . S
C247 N245 1.356 . S
N248 C240 1.356 1_554 S
N248 H254 0.984 . S
N248 H255 0.984 . S
N249 C242 1.356 . S
N249 H252 0.984 . S
N249 H253 0.985 . S
H250 N245 0.984 . S
H251 N245 0.985 . S
H252 N249 0.984 . S
H253 N249 0.985 . S
H254 N248 0.984 . S
H255 N248 0.984 . S
H256 N244 0.984 . S
H257 N244 0.985 . S
C258 C259 1.363 . S
C258 C264 1.379 . S
C258 N266 1.356 . S
C259 C258 1.363 . S
C259 C265 1.363 . S
C260 C261 1.363 . S
C260 C265 1.379 . S
C260 N267 1.356 . S
C261 C260 1.363 . S
C261 C264 1.363 . S
N262 C264 1.356 . S
N262 H274 0.984 . S
N262 H275 0.985 . S
N263 C265 1.356 . S
N263 H268 0.984 . S
N263 H269 0.985 . S
C264 C258 1.379 . S
C264 C261 1.363 . S
C264 N262 1.356 . S
C265 C259 1.363 . S
C265 C260 1.379 . S
C265 N263 1.356 . S
N266 C258 1.356 . S
N266 H272 0.984 . S
N266 H273 0.984 . S
N267 C260 1.356 . S
N267 H270 0.984 . S
N267 H271 0.985 . S
H268 N263 0.984 . S
H269 N263 0.985 . S
H270 N267 0.984 . S
H271 N267 0.985 . S
H272 N266 0.984 . S
H273 N266 0.984 . S
H274 N262 0.984 . S
H275 N262 0.985 . S
C276 C277 1.363 . S
C276 C282 1.379 . S
C276 N284 1.356 . S
C277 C276 1.363 . S
C277 C283 1.363 1_556 S
C278 C279 1.363 . S
C278 C283 1.379 1_556 S
C278 N285 1.356 . S
C279 C278 1.363 . S
C279 C282 1.363 . S
N280 C282 1.356 . S
N280 H292 0.984 . S
N280 H293 0.985 . S
N281 C283 1.356 . S
N281 H286 0.984 . S
N281 H287 0.985 . S
C282 C276 1.379 . S
C282 C279 1.363 . S
C282 N280 1.356 . S
C283 C277 1.363 1_554 S
C283 C278 1.379 1_554 S
C283 N281 1.356 . S
N284 C276 1.356 . S
N284 H290 0.984 . S
N284 H291 0.984 . S
N285 C278 1.356 . S
N285 H288 0.984 1_565 S
N285 H289 0.985 1_566 S
H286 N281 0.984 . S
H287 N281 0.985 . S
H288 N285 0.984 1_545 S
H289 N285 0.985 1_544 S
H290 N284 0.984 . S
H291 N284 0.984 . S
H292 N280 0.984 . S
H293 N280 0.985 . S
C294 C295 1.363 . S
C294 C300 1.379 . S
C294 N302 1.356 . S
C295 C294 1.363 . S
C295 C301 1.363 . S
C296 C297 1.363 . S
C296 C301 1.379 . S
C296 N303 1.356 . S
C297 C296 1.363 . S
C297 C300 1.363 . S
N298 C300 1.356 . S
N298 H310 0.984 . S
N298 H311 0.985 . S
N299 C301 1.356 . S
N299 H304 0.984 . S
N299 H305 0.985 . S
C300 C294 1.379 . S
C300 C297 1.363 . S
C300 N298 1.356 . S
C301 C295 1.363 . S
C301 C296 1.379 . S
C301 N299 1.356 . S
N302 C294 1.356 . S
N302 H308 0.984 . S
N302 H309 0.984 . S
N303 C296 1.356 . S
N303 H306 0.984 . S
N303 H307 0.985 . S
H304 N299 0.984 . S
H305 N299 0.985 . S
H306 N303 0.984 . S
H307 N303 0.985 . S
H308 N302 0.984 . S
H309 N302 0.984 . S
H310 N298 0.984 . S
H311 N298 0.985 . S
C97 C8 1.482 . S
C99 C80 1.480 . S
C117 C74 1.827 . S
C115 C29 1.791 . S
C135 C48 1.493 . S
C133 C10 1.505 . S
C153 C94 1.837 . S
C151 C37 1.924 . S
C171 C89 0.528 . S
C169 C18 0.521 . S
C187 C43 1.846 . S
C189 C70 1.789 . S
C205 C21 1.846 1_556 S
C207 C76 1.789 . S
C223 C40 0.521 . S
C225 C83 0.528 . S
C241 C15 1.924 1_556 S
C243 C92 1.837 . S
C259 C32 1.505 . S
C261 C62 1.493 . S
C279 C78 1.827 . S
C277 C7 1.791 1_556 S
C295 C30 1.482 . S
C297 C86 1.480 . S
