# Generated by pormake.
# Topology eea, (3,6)-cn, num edge types: 1
# Building blocks:
#     Node 0, Type 0, BuildingBlock: OLANEW_clean_sbu_2, # of connection points: 3
#     Node 1, Type 0, BuildingBlock: OLANEW_clean_sbu_2, # of connection points: 3
#     Node 2, Type 0, BuildingBlock: OLANEW_clean_sbu_2, # of connection points: 3
#     Node 3, Type 0, BuildingBlock: OLANEW_clean_sbu_2, # of connection points: 3
#     Node 4, Type 0, BuildingBlock: OLANEW_clean_sbu_2, # of connection points: 3
#     Node 5, Type 0, BuildingBlock: OLANEW_clean_sbu_2, # of connection points: 3
#     Node 6, Type 0, BuildingBlock: OLANEW_clean_sbu_2, # of connection points: 3
#     Node 7, Type 0, BuildingBlock: OLANEW_clean_sbu_2, # of connection points: 3
#     Node 8, Type 0, BuildingBlock: OLANEW_clean_sbu_2, # of connection points: 3
#     Node 9, Type 0, BuildingBlock: OLANEW_clean_sbu_2, # of connection points: 3
#     Node 10, Type 0, BuildingBlock: OLANEW_clean_sbu_2, # of connection points: 3
#     Node 11, Type 0, BuildingBlock: OLANEW_clean_sbu_2, # of connection points: 3
#     Node 12, Type 0, BuildingBlock: OLANEW_clean_sbu_2, # of connection points: 3
#     Node 13, Type 0, BuildingBlock: OLANEW_clean_sbu_2, # of connection points: 3
#     Node 14, Type 0, BuildingBlock: OLANEW_clean_sbu_2, # of connection points: 3
#     Node 15, Type 0, BuildingBlock: OLANEW_clean_sbu_2, # of connection points: 3
#     Node 16, Type 0, BuildingBlock: OLANEW_clean_sbu_2, # of connection points: 3
#     Node 17, Type 0, BuildingBlock: OLANEW_clean_sbu_2, # of connection points: 3
#     Node 18, Type 1, BuildingBlock: KUMJIN_clean_sbu_0, # of connection points: 6
#     Node 19, Type 1, BuildingBlock: KUMJIN_clean_sbu_0, # of connection points: 6
#     Node 20, Type 1, BuildingBlock: KUMJIN_clean_sbu_0, # of connection points: 6
#     Node 21, Type 1, BuildingBlock: KUMJIN_clean_sbu_0, # of connection points: 6
#     Node 22, Type 1, BuildingBlock: KUMJIN_clean_sbu_0, # of connection points: 6
#     Node 23, Type 1, BuildingBlock: KUMJIN_clean_sbu_0, # of connection points: 6
#     Node 24, Type 1, BuildingBlock: KUMJIN_clean_sbu_0, # of connection points: 6
#     Node 25, Type 1, BuildingBlock: KUMJIN_clean_sbu_0, # of connection points: 6
#     Node 26, Type 1, BuildingBlock: KUMJIN_clean_sbu_0, # of connection points: 6
#     Edge 27, Type (0, 1), BuildingBlock: XIVTED_clean_linker_0, # of connection points: 2
#     Edge 28, Type (0, 1), BuildingBlock: XIVTED_clean_linker_0, # of connection points: 2
#     Edge 29, Type (0, 1), BuildingBlock: XIVTED_clean_linker_0, # of connection points: 2
#     Edge 30, Type (0, 1), BuildingBlock: XIVTED_clean_linker_0, # of connection points: 2
#     Edge 31, Type (0, 1), BuildingBlock: XIVTED_clean_linker_0, # of connection points: 2
#     Edge 32, Type (0, 1), BuildingBlock: XIVTED_clean_linker_0, # of connection points: 2
#     Edge 33, Type (0, 1), BuildingBlock: XIVTED_clean_linker_0, # of connection points: 2
#     Edge 34, Type (0, 1), BuildingBlock: XIVTED_clean_linker_0, # of connection points: 2
#     Edge 35, Type (0, 1), BuildingBlock: XIVTED_clean_linker_0, # of connection points: 2
#     Edge 36, Type (0, 1), BuildingBlock: XIVTED_clean_linker_0, # of connection points: 2
#     Edge 37, Type (0, 1), BuildingBlock: XIVTED_clean_linker_0, # of connection points: 2
#     Edge 38, Type (0, 1), BuildingBlock: XIVTED_clean_linker_0, # of connection points: 2
#     Edge 39, Type (0, 1), BuildingBlock: XIVTED_clean_linker_0, # of connection points: 2
#     Edge 40, Type (0, 1), BuildingBlock: XIVTED_clean_linker_0, # of connection points: 2
#     Edge 41, Type (0, 1), BuildingBlock: XIVTED_clean_linker_0, # of connection points: 2
#     Edge 42, Type (0, 1), BuildingBlock: XIVTED_clean_linker_0, # of connection points: 2
#     Edge 43, Type (0, 1), BuildingBlock: XIVTED_clean_linker_0, # of connection points: 2
#     Edge 44, Type (0, 1), BuildingBlock: XIVTED_clean_linker_0, # of connection points: 2
#     Edge 45, Type (0, 1), BuildingBlock: XIVTED_clean_linker_0, # of connection points: 2
#     Edge 46, Type (0, 1), BuildingBlock: XIVTED_clean_linker_0, # of connection points: 2
#     Edge 47, Type (0, 1), BuildingBlock: XIVTED_clean_linker_0, # of connection points: 2
#     Edge 48, Type (0, 1), BuildingBlock: XIVTED_clean_linker_0, # of connection points: 2
#     Edge 49, Type (0, 1), BuildingBlock: XIVTED_clean_linker_0, # of connection points: 2
#     Edge 50, Type (0, 1), BuildingBlock: XIVTED_clean_linker_0, # of connection points: 2
#     Edge 51, Type (0, 1), BuildingBlock: XIVTED_clean_linker_0, # of connection points: 2
#     Edge 52, Type (0, 1), BuildingBlock: XIVTED_clean_linker_0, # of connection points: 2
#     Edge 53, Type (0, 1), BuildingBlock: XIVTED_clean_linker_0, # of connection points: 2
#     Edge 54, Type (0, 1), BuildingBlock: XIVTED_clean_linker_0, # of connection points: 2
#     Edge 55, Type (0, 1), BuildingBlock: XIVTED_clean_linker_0, # of connection points: 2
#     Edge 56, Type (0, 1), BuildingBlock: XIVTED_clean_linker_0, # of connection points: 2
#     Edge 57, Type (0, 1), BuildingBlock: XIVTED_clean_linker_0, # of connection points: 2
#     Edge 58, Type (0, 1), BuildingBlock: XIVTED_clean_linker_0, # of connection points: 2
#     Edge 59, Type (0, 1), BuildingBlock: XIVTED_clean_linker_0, # of connection points: 2
#     Edge 60, Type (0, 1), BuildingBlock: XIVTED_clean_linker_0, # of connection points: 2
#     Edge 61, Type (0, 1), BuildingBlock: XIVTED_clean_linker_0, # of connection points: 2
#     Edge 62, Type (0, 1), BuildingBlock: XIVTED_clean_linker_0, # of connection points: 2
#     Edge 63, Type (0, 1), BuildingBlock: XIVTED_clean_linker_0, # of connection points: 2
#     Edge 64, Type (0, 1), BuildingBlock: XIVTED_clean_linker_0, # of connection points: 2
#     Edge 65, Type (0, 1), BuildingBlock: XIVTED_clean_linker_0, # of connection points: 2
#     Edge 66, Type (0, 1), BuildingBlock: XIVTED_clean_linker_0, # of connection points: 2
#     Edge 67, Type (0, 1), BuildingBlock: XIVTED_clean_linker_0, # of connection points: 2
#     Edge 68, Type (0, 1), BuildingBlock: XIVTED_clean_linker_0, # of connection points: 2
#     Edge 69, Type (0, 1), BuildingBlock: XIVTED_clean_linker_0, # of connection points: 2
#     Edge 70, Type (0, 1), BuildingBlock: XIVTED_clean_linker_0, # of connection points: 2
#     Edge 71, Type (0, 1), BuildingBlock: XIVTED_clean_linker_0, # of connection points: 2
#     Edge 72, Type (0, 1), BuildingBlock: XIVTED_clean_linker_0, # of connection points: 2
#     Edge 73, Type (0, 1), BuildingBlock: XIVTED_clean_linker_0, # of connection points: 2
#     Edge 74, Type (0, 1), BuildingBlock: XIVTED_clean_linker_0, # of connection points: 2
#     Edge 75, Type (0, 1), BuildingBlock: XIVTED_clean_linker_0, # of connection points: 2
#     Edge 76, Type (0, 1), BuildingBlock: XIVTED_clean_linker_0, # of connection points: 2
#     Edge 77, Type (0, 1), BuildingBlock: XIVTED_clean_linker_0, # of connection points: 2
#     Edge 78, Type (0, 1), BuildingBlock: XIVTED_clean_linker_0, # of connection points: 2
#     Edge 79, Type (0, 1), BuildingBlock: XIVTED_clean_linker_0, # of connection points: 2
#     Edge 80, Type (0, 1), BuildingBlock: XIVTED_clean_linker_0, # of connection points: 2
# Relax obj value: 0.012
# Max RMSD: 0.159
# Mean RMSD: 0.110
data_MOF--net-eea--node1-OLANEW_clean_sbu_2--node2-KUMJIN_clean_sbu_0--edge1-XIVTED_clean_linker_0
_symmetry_space_group_name_H-M    P1
_symmetry_Int_Tables_number       1
_symmetry_cell_setting            triclinic
loop_
_symmetry_equiv_pos_as_xyz
'x, y, z'
_cell_length_a     60.408268
_cell_length_b     62.070953
_cell_length_c     68.369626
_cell_angle_alpha  94.923867
_cell_angle_beta   89.857602
_cell_angle_gamma 120.49915
loop_
_atom_site_label
_atom_site_type_symbol
_atom_site_fract_x
_atom_site_fract_y
_atom_site_fract_z
_atom_type_partial_charge
O0 O 0.22834 0.12551 0.44792 0.0
Cd1 Cd 0.19558 0.10905 0.42099 0.0
O2 O 0.24695 0.10511 0.43553 0.0
Cd3 Cd 0.21882 0.08236 0.41156 0.0
O4 O 0.20451 0.04388 0.39874 0.0
C5 C 0.21687 0.03442 0.4056 0.0
O6 O 0.23587 0.04832 0.41867 0.0
C7 C 0.24615 0.12036 0.44875 0.0
C8 C 0.19151 0.14725 0.40568 0.0
O9 O 0.17945 0.1372 0.42085 0.0
O10 O 0.20552 0.13922 0.39766 0.0
O11 O 0.90011 0.13409 0.42893 0.0
Cd12 Cd 0.9128 0.12548 0.39643 0.0
O13 O 0.9061 0.10625 0.44215 0.0
Cd14 Cd 0.90759 0.08793 0.41398 0.0
O15 O 0.88036 0.05179 0.3981 0.0
C16 C 0.85714 0.04377 0.40243 0.0
O17 O 0.85207 0.058 0.41473 0.0
C18 C 0.90071 0.12362 0.44396 0.0
C19 C 0.95922 0.16593 0.38607 0.0
O20 O 0.93769 0.16441 0.3822 0.0
O21 O 0.95883 0.14832 0.39485 0.0
O22 O 0.89283 0.73333 0.43549 0.0
Cd23 Cd 0.90739 0.75291 0.4047 0.0
O24 O 0.85551 0.73159 0.43318 0.0
Cd25 Cd 0.85989 0.75165 0.40734 0.0
O26 O 0.83907 0.76563 0.39135 0.0
C27 C 0.81553 0.74965 0.38691 0.0
O28 O 0.80643 0.72635 0.39087 0.0
C29 C 0.87079 0.72684 0.44207 0.0
C30 C 0.95575 0.76065 0.39465 0.0
O31 O 0.95348 0.77814 0.40409 0.0
O32 O 0.93522 0.73945 0.39008 0.0
O33 O 0.15125 0.2489 0.59597 0.0
Cd34 Cd 0.14284 0.23167 0.62789 0.0
O35 O 0.11355 0.24513 0.58944 0.0
Cd36 Cd 0.09287 0.22992 0.61586 0.0
O37 O 0.05861 0.2224 0.63207 0.0
C38 C 0.03992 0.20026 0.63339 0.0
O39 O 0.04181 0.18105 0.62596 0.0
C40 C 0.1363 0.25156 0.58463 0.0
C41 C 0.18186 0.22283 0.63944 0.0
O42 O 0.16107 0.20526 0.63044 0.0
O43 O 0.18414 0.24448 0.64311 0.0
O44 O 0.74574 0.84435 0.59981 0.0
Cd45 Cd 0.76493 0.8537 0.63319 0.0
O46 O 0.78217 0.8692 0.58652 0.0
Cd47 Cd 0.80114 0.888 0.61505 0.0
O48 O 0.80806 0.92218 0.63242 0.0
C49 C 0.79063 0.92751 0.62975 0.0
O50 O 0.77042 0.91178 0.61822 0.0
C51 C 0.75829 0.85297 0.58463 0.0
C52 C 0.77915 0.81904 0.64169 0.0
O53 O 0.75612 0.81446 0.64383 0.0
O54 O 0.79559 0.84011 0.63559 0.0
O55 O 0.10686 0.84269 0.59934 0.0
Cd56 Cd 0.09231 0.85078 0.63117 0.0
O57 O 0.14676 0.87344 0.60638 0.0
Cd58 Cd 0.14294 0.8918 0.63373 0.0
O59 O 0.16788 0.9296 0.64826 0.0
C60 C 0.16278 0.94697 0.64715 0.0
O61 O 0.14079 0.9415 0.6387 0.0
C62 C 0.13025 0.85503 0.59482 0.0
C63 C 0.04403 0.81104 0.63942 0.0
O64 O 0.04621 0.83001 0.63157 0.0
O65 O 0.06464 0.81081 0.64334 0.0
O66 O 0.90297 0.45583 0.76963 0.0
Cd67 Cd 0.87135 0.4391 0.74197 0.0
O68 O 0.93036 0.44781 0.75417 0.0
Cd69 Cd 0.90431 0.42436 0.72935 0.0
O70 O 0.89227 0.38664 0.71596 0.0
C71 C 0.8695 0.36821 0.71659 0.0
O72 O 0.85167 0.37217 0.72406 0.0
C73 C 0.92466 0.45716 0.76923 0.0
C74 C 0.86493 0.47703 0.72886 0.0
O75 O 0.85248 0.46503 0.74325 0.0
O76 O 0.88028 0.47095 0.72051 0.0
O77 O 0.56437 0.48238 0.77149 0.0
Cd78 Cd 0.5748 0.46638 0.74091 0.0
O79 O 0.57165 0.45976 0.7907 0.0
Cd80 Cd 0.57153 0.43562 0.7655 0.0
O81 O 0.54547 0.40027 0.74805 0.0
C82 C 0.52194 0.39407 0.74855 0.0
O83 O 0.51603 0.40946 0.75838 0.0
C84 C 0.56609 0.47665 0.78862 0.0
C85 C 0.62225 0.50184 0.72747 0.0
O86 O 0.60166 0.50202 0.72337 0.0
O87 O 0.62047 0.48488 0.7379 0.0
O88 O 0.55062 0.05957 0.76322 0.0
Cd89 Cd 0.56185 0.07753 0.73159 0.0
O90 O 0.52286 0.07151 0.77181 0.0
Cd91 Cd 0.52012 0.08813 0.74562 0.0
O92 O 0.49417 0.09703 0.73047 0.0
C93 C 0.49819 0.11929 0.73129 0.0
O94 O 0.51949 0.13777 0.74018 0.0
C95 C 0.53533 0.06074 0.77553 0.0
C96 C 0.61114 0.08802 0.72134 0.0
O97 O 0.60763 0.10509 0.73009 0.0
O98 O 0.5914 0.06605 0.71738 0.0
O99 O 0.81593 0.57418 0.92564 0.0
Cd100 Cd 0.80632 0.55442 0.9565 0.0
O101 O 0.77807 0.57001 0.91905 0.0
Cd102 Cd 0.75689 0.55303 0.94483 0.0
O103 O 0.72182 0.54408 0.96037 0.0
C104 C 0.7015 0.52269 0.95697 0.0
O105 O 0.70237 0.5053 0.94517 0.0
C106 C 0.80107 0.57719 0.91449 0.0
C107 C 0.84635 0.54725 0.96841 0.0
O108 O 0.82696 0.52999 0.9578 0.0
O109 O 0.84671 0.56779 0.97354 0.0
O110 O 0.36969 0.14668 0.93949 0.0
Cd111 Cd 0.37995 0.14254 0.97304 0.0
O112 O 0.40605 0.18254 0.94042 0.0
Cd113 Cd 0.43088 0.21959 0.93055 0.0
O114 O 0.44785 0.26025 0.93327 0.0
C115 C 0.4334 0.26903 0.92999 0.0
O116 O 0.40938 0.25341 0.92383 0.0
C117 C 0.38505 0.16621 0.93134 0.0
C118 C 0.40306 0.11379 0.97572 0.0
O119 O 0.37854 0.10353 0.97409 0.0
O120 O 0.41677 0.13772 0.97575 0.0
O121 O 0.7525 0.1792 0.92295 0.0
Cd122 Cd 0.73726 0.19018 0.95325 0.0
O123 O 0.79075 0.19424 0.93727 0.0
Cd124 Cd 0.78536 0.21487 0.96241 0.0
O125 O 0.80828 0.25465 0.97292 0.0
C126 C 0.82889 0.26582 0.96377 0.0
O127 O 0.83359 0.25268 0.95006 0.0
C128 C 0.77515 0.18273 0.92251 0.0
C129 C 0.69343 0.14862 0.96541 0.0
O130 O 0.69164 0.16411 0.9552 0.0
O131 O 0.71595 0.15282 0.96993 0.0
O132 O 0.56785 0.78617 0.11017 0.0
Cd133 Cd 0.53404 0.76768 0.08413 0.0
O134 O 0.59815 0.78833 0.09109 0.0
Cd135 Cd 0.57075 0.76449 0.06709 0.0
O136 O 0.5542 0.72574 0.05439 0.0
C137 C 0.56477 0.71465 0.06141 0.0
O138 O 0.58375 0.72727 0.07472 0.0
C139 C 0.59129 0.79289 0.10777 0.0
C140 C 0.52824 0.80522 0.06971 0.0
O141 O 0.51674 0.79484 0.08496 0.0
O142 O 0.54226 0.79761 0.06109 0.0
O143 O 0.22919 0.78863 0.09536 0.0
Cd144 Cd 0.23911 0.77573 0.06318 0.0
O145 O 0.24419 0.7693 0.11162 0.0
Cd146 Cd 0.24507 0.7482 0.08485 0.0
O147 O 0.21653 0.71291 0.06874 0.0
C148 C 0.19349 0.70664 0.0724 0.0
O149 O 0.18943 0.72193 0.08431 0.0
C150 C 0.23467 0.78346 0.11162 0.0
C151 C 0.28505 0.81369 0.04987 0.0
O152 O 0.26353 0.81219 0.04601 0.0
O153 O 0.28488 0.79716 0.06 0.0
O154 O 0.22418 0.40543 0.10188 0.0
Cd155 Cd 0.23768 0.42748 0.07207 0.0
O156 O 0.18547 0.40056 0.09945 0.0
Cd157 Cd 0.18866 0.42103 0.07409 0.0
O158 O 0.16735 0.43456 0.05818 0.0
C159 C 0.14382 0.41843 0.05385 0.0
O160 O 0.13492 0.3952 0.05793 0.0
C161 C 0.20171 0.397 0.10823 0.0
C162 C 0.28521 0.43563 0.05922 0.0
O163 O 0.28376 0.45175 0.07136 0.0
O164 O 0.2642 0.41548 0.05329 0.0
O165 O 0.48354 0.9029 0.25868 0.0
Cd166 Cd 0.47652 0.88531 0.29043 0.0
O167 O 0.44441 0.89608 0.25285 0.0
Cd168 Cd 0.42537 0.87945 0.27946 0.0
O169 O 0.3909 0.86766 0.29657 0.0
C170 C 0.38466 0.88413 0.30106 0.0
O171 O 0.39986 0.90709 0.29633 0.0
C172 C 0.46738 0.90424 0.24769 0.0
C173 C 0.51581 0.87623 0.30072 0.0
O174 O 0.49481 0.8588 0.29189 0.0
O175 O 0.51823 0.89789 0.30476 0.0
O176 O 0.08743 0.5203 0.26365 0.0
Cd177 Cd 0.11683 0.53404 0.29261 0.0
O178 O 0.11952 0.53501 0.2438 0.0
Cd179 Cd 0.14607 0.55998 0.26795 0.0
O180 O 0.15473 0.59535 0.28442 0.0
C181 C 0.13766 0.6012 0.2818 0.0
O182 O 0.11721 0.58568 0.27043 0.0
C183 C 0.09549 0.52244 0.24631 0.0
C184 C 0.12591 0.49617 0.30202 0.0
O185 O 0.10889 0.49949 0.3107 0.0
O186 O 0.13868 0.51077 0.28894 0.0
O187 O 0.42037 0.51111 0.24268 0.0
Cd188 Cd 0.40826 0.52515 0.27333 0.0
O189 O 0.45974 0.52623 0.25483 0.0
Cd190 Cd 0.45726 0.54815 0.28053 0.0
O191 O 0.48052 0.58658 0.29429 0.0
C192 C 0.50295 0.59788 0.28771 0.0
O193 O 0.50923 0.58554 0.27444 0.0
C194 C 0.44269 0.51403 0.24103 0.0
C195 C 0.36673 0.48549 0.28976 0.0
O196 O 0.36326 0.49899 0.27837 0.0
O197 O 0.38984 0.49073 0.29338 0.0
Eu198 Eu 0.48287 0.95767 0.98483 0.0
C199 C 0.54266 0.05329 0.04441 0.0
C200 C 0.58705 0.06394 0.04249 0.0
C201 C 0.57701 0.09693 0.05011 0.0
C202 C 0.56052 0.04596 0.04096 0.0
C203 C 0.55069 0.07878 0.04954 0.0
C204 C 0.59517 0.08952 0.04657 0.0
C205 C 0.50637 0.06617 0.05512 0.0
N206 N 0.51746 0.03527 0.04403 0.0
C207 C 0.4994 0.04113 0.05006 0.0
C208 C 0.5321 0.08513 0.05459 0.0
Eu209 Eu 0.50685 -0.00656 0.03444 0.0
N210 N 0.55202 0.02109 0.0372 0.0
C211 C 0.56905 0.01276 0.03637 0.0
C212 C 0.60461 0.05559 0.0405 0.0
C213 C 0.59556 0.02986 0.03777 0.0
H214 H 0.47947 0.02647 0.05034 0.0
H215 H 0.60897 0.02317 0.03661 0.0
H216 H 0.61545 0.10363 0.04758 0.0
H217 H 0.49192 0.07082 0.0594 0.0
H218 H 0.56237 -0.00706 0.03411 0.0
H219 H 0.37876 0.9187 0.98108 0.0
H220 H 0.62514 0.0688 0.04154 0.0
H221 H 0.5152 0.93127 0.96525 0.0
H222 H 0.42433 0.952 0.9849 0.0
H223 H 0.50719 0.88927 0.9527 0.0
H224 H 0.58356 0.11665 0.05381 0.0
H225 H 0.36694 0.87429 0.97396 0.0
H226 H 0.38116 0.84306 0.96569 0.0
H227 H 0.53748 0.10451 0.05861 0.0
H228 H 0.41626 0.83499 0.95785 0.0
N229 N 0.43846 0.92683 0.98074 0.0
C230 C 0.41957 0.93277 0.98179 0.0
C231 C 0.38704 0.88887 0.97569 0.0
C232 C 0.40649 0.88307 0.97319 0.0
C233 C 0.39363 0.91391 0.97962 0.0
C234 C 0.43235 0.90276 0.97568 0.0
H235 H 0.4633 0.85222 0.95244 0.0
N236 N 0.47641 0.91799 0.97249 0.0
C237 C 0.49151 0.89147 0.95805 0.0
C238 C 0.452 0.89819 0.97138 0.0
C239 C 0.49598 0.91523 0.96516 0.0
C240 C 0.46673 0.87059 0.95801 0.0
C241 C 0.44648 0.87386 0.96434 0.0
O242 O 0.5032 0.96922 0.95776 0.0
O243 O 0.51414 -0.00926 1.00283 0.0
O244 O 0.4986 0.01664 0.01504 0.0
O245 O 0.46886 -0.01472 0.99188 0.0
O246 O 0.52579 0.97324 0.98186 0.0
O247 O 0.46653 0.96707 0.96075 0.0
O248 O 0.49054 -0.00956 0.06338 0.0
O249 O 0.47517 0.96048 0.01669 0.0
O250 O 0.49016 0.9331 1.00313 0.0
O251 O 0.51672 0.96236 0.02911 0.0
O252 O 0.46433 0.97832 0.03836 0.0
O253 O 0.52001 0.98081 0.05822 0.0
C254 C 0.53362 -0.00814 0.99522 0.0
C255 C 0.47767 0.95923 0.92884 0.0
C256 C 0.48169 0.96344 0.89364 0.0
C257 C 0.48747 0.9743 0.91325 0.0
C258 C 0.46591 0.93721 0.88991 0.0
C259 C 0.46181 0.93314 0.92485 0.0
C260 C 0.45599 0.92222 0.90545 0.0
C261 C 0.48012 0.00828 1.00111 0.0
C262 C 0.48509 0.97097 0.94914 0.0
C263 C 0.42088 0.85388 0.96299 0.0
C264 C 0.4009 0.85847 0.96745 0.0
C265 C 0.45611 0.95976 0.0249 0.0
C266 C 0.51806 -0.00361 0.09039 0.0
C267 C 0.51068 0.98285 0.10697 0.0
C268 C 0.52302 -0.00563 0.12553 0.0
C269 C 0.54283 0.01972 0.12719 0.0
C270 C 0.53779 0.02165 0.09236 0.0
C271 C 0.55008 0.03323 0.1107 0.0
C272 C 0.50601 0.93996 0.01881 0.0
C273 C 0.50551 0.98366 0.0711 0.0
H274 H 0.49996 -0.00555 0.91641 0.0
H275 H 0.46092 0.92833 0.87498 0.0
H276 H 0.45406 0.92126 0.93668 0.0
H277 H 0.44376 0.90207 0.90243 0.0
H278 H 0.49564 0.96322 0.10533 0.0
H279 H 0.5525 0.02922 0.14129 0.0
H280 H 0.54376 0.03233 0.07975 0.0
H281 H 0.56529 0.05275 0.11214 0.0
Eu282 Eu 0.01987 0.49553 0.98765 0.0
C283 C 0.92597 0.46964 0.04084 0.0
C284 C 0.91903 0.50475 0.04043 0.0
C285 C 0.88307 0.46319 0.04484 0.0
C286 C 0.93547 0.49479 0.03894 0.0
C287 C 0.8998 0.45368 0.04435 0.0
C288 C 0.89267 0.48869 0.04286 0.0
C289 C 0.90921 0.42086 0.0487 0.0
N290 N 0.94271 0.46117 0.04059 0.0
C291 C 0.935 0.43745 0.04524 0.0
C292 C 0.89144 0.42888 0.04797 0.0
Eu293 Eu 0.98593 0.49009 0.03419 0.0
N294 N 0.96108 0.50983 0.03685 0.0
C295 C 0.97181 0.53528 0.03768 0.0
C296 C 0.92973 0.53067 0.04009 0.0
C297 C 0.9563 0.54604 0.03904 0.0
H298 H 0.94865 0.43113 0.04574 0.0
H299 H 0.96484 0.56617 0.03917 0.0
H300 H 0.8797 0.49594 0.04381 0.0
H301 H 0.90306 0.40189 0.0519 0.0
H302 H 0.99229 0.54737 0.03678 0.0
H303 H 0.04118 0.4196 0.98004 0.0
H304 H 0.91775 0.53905 0.04113 0.0
H305 H 0.05778 0.55561 0.97882 0.0
H306 H 0.01361 0.43825 0.98298 0.0
H307 H 0.1038 0.58549 0.97441 0.0
H308 H 0.86284 0.45116 0.04731 0.0
H309 H 0.0884 0.44703 0.97947 0.0
H310 H 0.12664 0.49053 0.97887 0.0
H311 H 0.87149 0.41603 0.05074 0.0
H312 H 0.14372 0.53573 0.97731 0.0
N313 N 0.04484 0.47595 0.9845 0.0
C314 C 0.03414 0.45046 0.98266 0.0
C315 C 0.07637 0.45534 0.98074 0.0
C316 C 0.08711 0.48138 0.98151 0.0
C317 C 0.04973 0.4398 0.981 0.0
C318 C 0.07059 0.49123 0.98324 0.0
H319 H 0.13529 0.57124 0.97527 0.0
N320 N 0.06343 0.52507 0.98269 0.0
C321 C 0.09744 0.5662 0.97671 0.0
C322 C 0.0802 0.51662 0.98232 0.0
C323 C 0.07142 0.54924 0.97915 0.0
C324 C 0.11517 0.5581 0.97727 0.0
C325 C 0.10658 0.53293 0.97975 0.0
O326 O 0.01467 0.50786 0.95998 0.0
O327 O 0.98914 0.49883 1.00308 0.0
O328 O 0.95752 0.45944 0.0118 0.0
O329 O 0.98553 0.45586 0.98978 0.0
O330 O 0.01029 0.52621 0.98471 0.0
O331 O 0.00649 0.46969 0.96082 0.0
O332 O 0.99418 0.47935 0.06158 0.0
O333 O 0.0161 0.48611 0.01854 0.0
O334 O 0.04822 0.52415 0.011 0.0
O335 O 0.02036 0.52969 0.03168 0.0
O336 O 0.99487 0.45904 0.03721 0.0
O337 O -0.00146 0.51611 0.06094 0.0
C338 C 0.99132 0.51793 0.99618 0.0
C339 C 0.02234 0.48905 0.93158 0.0
C340 C 0.02369 0.49135 0.89609 0.0
C341 C 0.01048 0.48794 0.91363 0.0
C342 C 0.04904 0.49597 0.89693 0.0
C343 C 0.04747 0.49336 0.93204 0.0
C344 C 0.06075 0.49685 0.91479 0.0
C345 C 0.96258 0.44703 0.99744 0.0
C346 C 0.00865 0.48674 0.94977 0.0
C347 C 0.12334 0.52345 0.97908 0.0
C348 C 0.11361 0.49771 0.97996 0.0
C349 C 0.0135 0.46681 0.02541 0.0
C350 C 0.98616 0.4967 0.09057 0.0
C351 C -0.00069 0.49743 0.1077 0.0
C352 C 0.98706 0.49232 0.12569 0.0
C353 C 0.96136 0.48671 0.12617 0.0
C354 C 0.96069 0.49133 0.0914 0.0
C355 C 0.9484 0.48639 0.10915 0.0
C356 C 0.04359 0.5373 0.02493 0.0
C357 C -0.00112 0.50001 0.07183 0.0
H358 H 0.99088 0.48417 0.91336 0.0
H359 H 0.05996 0.49913 0.88382 0.0
H360 H 0.05687 0.49416 0.94567 0.0
H361 H 0.08023 0.50037 0.91528 0.0
H362 H 0.01914 0.50205 0.1069 0.0
H363 H 0.95111 0.48223 0.13961 0.0
H364 H 0.95028 0.49073 0.07835 0.0
H365 H 0.92865 0.48203 0.10968 0.0
Eu366 Eu 0.50682 0.48376 0.0227 0.0
C367 C 0.42149 0.46353 0.96411 0.0
C368 C 0.41726 0.43624 0.93505 0.0
C369 C 0.37917 0.43435 0.94862 0.0
C370 C 0.43264 0.45496 0.95023 0.0
C371 C 0.39471 0.45392 0.96305 0.0
C372 C 0.39043 0.42551 0.93466 0.0
C373 C 0.40101 0.48581 0.98892 0.0
N374 N 0.43703 0.48261 0.97774 0.0
C375 C 0.42742 0.49463 0.98941 0.0
C376 C 0.38449 0.46499 0.97598 0.0
Eu377 Eu 0.48138 0.49596 0.97831 0.0
N378 N 0.45866 0.46594 0.95092 0.0
C379 C 0.4706 0.46047 0.93589 0.0
C380 C 0.42935 0.42944 0.92037 0.0
C381 C 0.45615 0.4419 0.92063 0.0
H382 H 0.44004 0.51083 0.99939 0.0
H383 H 0.46572 0.43724 0.90906 0.0
H384 H 0.37829 0.41091 0.92324 0.0
H385 H 0.39342 0.49499 0.99858 0.0
H386 H 0.49126 0.46991 0.93571 0.0
H387 H 0.61035 0.55021 0.03012 0.0
H388 H 0.41822 0.41514 0.90848 0.0
H389 H 0.47557 0.42231 0.02971 0.0
H390 H 0.56446 0.53699 0.02788 0.0
H391 H 0.48484 0.38815 0.03148 0.0
H392 H 0.35853 0.42651 0.94774 0.0
H393 H 0.6235 0.51833 0.02847 0.0
H394 H 0.61063 0.47282 0.02659 0.0
H395 H 0.36404 0.45817 0.97564 0.0
H396 H 0.57638 0.42858 0.02672 0.0
N397 N 0.55143 0.49787 0.0248 0.0
C398 C 0.56978 0.5228 0.02721 0.0
C399 C 0.60325 0.51239 0.02757 0.0
C400 C 0.58436 0.4869 0.02595 0.0
C401 C 0.5959 0.53042 0.02854 0.0
C402 C 0.55827 0.48017 0.02483 0.0
H403 H 0.52945 0.39688 0.0289 0.0
N404 N 0.51436 0.45 0.02524 0.0
C405 C 0.50027 0.40695 0.02949 0.0
C406 C 0.53909 0.45539 0.02492 0.0
C407 C 0.4951 0.42638 0.02847 0.0
C408 C 0.52546 0.41193 0.02797 0.0
C409 C 0.54534 0.4365 0.02608 0.0
O410 O 0.48581 0.47429 0.04977 0.0
O411 O 0.47407 0.48556 0.00902 0.0
O412 O 0.48455 0.52108 0.00557 0.0
O413 O 0.52027 0.52526 0.02127 0.0
O414 O 0.46468 0.45425 0.02342 0.0
O415 O 0.5241 0.50618 0.05078 0.0
O416 O 0.47181 0.52186 0.96597 0.0
O417 O 0.51602 0.50186 0.99498 0.0
O418 O 0.49931 0.45342 0.99807 0.0
O419 O 0.47086 0.45493 0.97547 0.0
O420 O 0.51515 0.49513 0.96451 0.0
O421 O 0.51024 0.52852 0.9643 0.0
C422 C 0.45551 0.46512 0.01376 0.0
C423 C 0.51106 0.48361 0.07869 0.0
C424 C 0.50611 0.47809 0.11368 0.0
C425 C 0.50083 0.48619 0.09659 0.0
C426 C 0.52168 0.46721 0.11246 0.0
C427 C 0.52663 0.47285 0.07782 0.0
C428 C 0.53185 0.46466 0.09464 0.0
C429 C 0.50572 0.5346 0.01686 0.0
C430 C 0.50487 0.4917 0.06097 0.0
C431 C 0.57122 0.44287 0.02607 0.0
C432 C 0.59071 0.46805 0.02602 0.0
C433 C 0.52801 0.49903 0.98073 0.0
C434 C 0.49519 0.54235 0.93904 0.0
C435 C 0.50296 0.53179 0.92341 0.0
C436 C 0.50481 0.53971 0.90442 0.0
C437 C 0.49842 0.55812 0.90142 0.0
C438 C 0.48874 0.56045 0.93559 0.0
C439 C 0.49028 0.56823 0.91686 0.0
C440 C 0.48237 0.44374 0.98281 0.0
C441 C 0.49437 0.53551 0.95922 0.0
H442 H 0.48907 0.49482 0.09722 0.0
H443 H 0.52582 0.46046 0.12525 0.0
H444 H 0.53472 0.47076 0.06417 0.0
H445 H 0.54379 0.45626 0.09386 0.0
H446 H 0.50751 0.51747 0.92605 0.0
H447 H 0.50014 0.56515 0.8872 0.0
H448 H 0.48273 0.56877 0.94747 0.0
H449 H 0.48548 0.58239 0.91434 0.0
Eu450 Eu 0.15593 0.30748 0.32185 0.0
C451 C 0.22458 0.40132 0.38146 0.0
C452 C 0.26697 0.40718 0.37705 0.0
C453 C 0.26228 0.44325 0.38648 0.0
C454 C 0.24 0.39143 0.37657 0.0
C455 C 0.23557 0.42724 0.38711 0.0
C456 C 0.27797 0.43324 0.38143 0.0
C457 C 0.19341 0.41901 0.39597 0.0
N458 N 0.19898 0.38526 0.38227 0.0
C459 C 0.18353 0.39345 0.39037 0.0
C460 C 0.21949 0.43607 0.39401 0.0
Eu461 Eu 0.183 0.34242 0.37144 0.0
N462 N 0.22871 0.36615 0.37268 0.0
C463 C 0.24348 0.35524 0.37087 0.0
C464 C 0.28211 0.39619 0.37385 0.0
C465 C 0.27031 0.37007 0.37115 0.0
H466 H 0.16335 0.38023 0.39189 0.0
H467 H 0.28186 0.36132 0.36914 0.0
H468 H 0.29863 0.44568 0.38161 0.0
H469 H 0.18093 0.42552 0.40181 0.0
H470 H 0.23474 0.33512 0.3686 0.0
H471 H 0.05705 0.28891 0.32063 0.0
H472 H 0.30289 0.40762 0.37404 0.0
H473 H 0.17654 0.2696 0.30348 0.0
H474 H 0.10417 0.31501 0.32292 0.0
H475 H 0.15909 0.2244 0.29324 0.0
H476 H 0.27107 0.46327 0.39052 0.0
H477 H 0.03601 0.24265 0.31516 0.0
H478 H 0.04037 0.20461 0.30823 0.0
H479 H 0.22717 0.45585 0.3985 0.0
H480 H 0.0682 0.18693 0.30084 0.0
N481 N 0.11024 0.28396 0.31926 0.0
C482 C 0.09548 0.29491 0.32045 0.0
C483 C 0.05681 0.25404 0.31613 0.0
C484 C 0.07201 0.24301 0.31371 0.0
C485 C 0.06862 0.28014 0.31915 0.0
C486 C 0.09901 0.25869 0.3152 0.0
H487 H 0.11248 0.19423 0.2948 0.0
N488 N 0.14035 0.26466 0.31142 0.0
C489 C 0.14637 0.23094 0.29842 0.0
C490 C 0.1146 0.24871 0.31124 0.0
C491 C 0.15618 0.25646 0.30418 0.0
C492 C 0.12007 0.21397 0.29939 0.0
C493 C 0.10373 0.22284 0.30543 0.0
O494 O 0.17405 0.31076 0.29368 0.0
O495 O 0.18923 0.33914 0.33945 0.0
O496 O 0.17558 0.36789 0.35435 0.0
O497 O 0.14977 0.34094 0.32712 0.0
O498 O 0.19769 0.3185 0.31869 0.0
O499 O 0.14481 0.32088 0.29731 0.0
O500 O 0.16708 0.33983 0.40051 0.0
O501 O 0.14952 0.31139 0.35371 0.0
O502 O 0.1603 0.28099 0.34012 0.0
O503 O 0.18876 0.30882 0.3658 0.0
O504 O 0.14122 0.33095 0.37559 0.0
O505 O 0.19431 0.3275 0.39467 0.0
C506 C 0.20741 0.33783 0.33155 0.0
C507 C 0.14837 0.30497 0.26561 0.0
C508 C 0.14672 0.30594 0.23002 0.0
C509 C 0.15784 0.31783 0.24881 0.0
C510 C 0.12625 0.28086 0.22833 0.0
C511 C 0.12786 0.28006 0.26359 0.0
C512 C 0.11696 0.26806 0.24502 0.0
C513 C 0.16027 0.36244 0.33861 0.0
C514 C 0.15986 0.31782 0.28513 0.0
C515 C 0.07691 0.20692 0.30502 0.0
C516 C 0.06107 0.21699 0.30919 0.0
C517 C 0.13141 0.31248 0.36197 0.0
C518 C 0.19381 0.34316 0.42714 0.0
C519 C 0.18494 0.32961 0.44363 0.0
C520 C 0.19759 0.34016 0.46222 0.0
C521 C 0.21926 0.36458 0.46401 0.0
C522 C 0.21541 0.36746 0.4292 0.0
C523 C 0.22803 0.3781 0.44759 0.0
C524 C 0.17612 0.28647 0.35554 0.0
C525 C 0.18074 0.33135 0.40783 0.0
H526 H 0.17345 0.33722 0.25044 0.0
H527 H 0.11749 0.2711 0.21407 0.0
H528 H 0.12022 0.26994 0.27633 0.0
H529 H 0.10118 0.24879 0.24356 0.0
H530 H 0.16845 0.31067 0.44188 0.0
H531 H 0.22924 0.37334 0.47814 0.0
H532 H 0.22257 0.37811 0.41662 0.0
H533 H 0.24468 0.39689 0.44912 0.0
Eu534 Eu 0.69183 0.827 0.32091 0.0
C535 C 0.59679 0.79979 0.37357 0.0
C536 C 0.58906 0.83433 0.37269 0.0
C537 C 0.55356 0.79258 0.37725 0.0
C538 C 0.60587 0.82479 0.37145 0.0
C539 C 0.57065 0.7835 0.37697 0.0
C540 C 0.56275 0.81797 0.3751 0.0
C541 C 0.58074 0.75115 0.38141 0.0
N542 N 0.61386 0.79174 0.37346 0.0
C543 C 0.60648 0.76808 0.37805 0.0
C544 C 0.56265 0.75879 0.3806 0.0
Eu545 Eu 0.65697 0.82103 0.36704 0.0
N546 N 0.63142 0.84009 0.36933 0.0
C547 C 0.64172 0.86547 0.36989 0.0
C548 C 0.59933 0.86015 0.37209 0.0
C549 C 0.62584 0.87584 0.37101 0.0
H550 H 0.62036 0.76204 0.37858 0.0
H551 H 0.63407 0.8959 0.37094 0.0
H552 H 0.5495 0.82489 0.37586 0.0
H553 H 0.57486 0.73224 0.38458 0.0
H554 H 0.66214 0.87783 0.36895 0.0
H555 H 0.71706 0.75377 0.31412 0.0
H556 H 0.58707 0.86822 0.37294 0.0
H557 H 0.72781 0.88717 0.31172 0.0
H558 H 0.68804 0.7708 0.31676 0.0
H559 H 0.77343 0.91825 0.3072 0.0
H560 H 0.53335 0.7803 0.37964 0.0
H561 H 0.76407 0.78258 0.31363 0.0
H562 H 0.80115 0.82668 0.31283 0.0
H563 H 0.54274 0.74568 0.38328 0.0
H564 H 0.81652 0.87149 0.31089 0.0
N565 N 0.71825 0.80896 0.31825 0.0
C566 C 0.70847 0.7836 0.31651 0.0
C567 C 0.7514 0.79018 0.31478 0.0
C568 C 0.76119 0.81608 0.31542 0.0
C569 C 0.72488 0.77386 0.315 0.0
C570 C 0.74386 0.82499 0.31699 0.0
H571 H 0.80627 0.90572 0.3084 0.0
N572 N 0.73499 0.85769 0.316 0.0
C573 C 0.76783 0.89919 0.3097 0.0
C574 C 0.75251 0.85016 0.31582 0.0
C575 C 0.74203 0.88156 0.31221 0.0
C576 C 0.78632 0.89206 0.31045 0.0
C577 C 0.77871 0.86718 0.31318 0.0
O578 O 0.6858 0.83832 0.29302 0.0
O579 O 0.66014 0.82912 0.3358 0.0
O580 O 0.62949 0.78963 0.3446 0.0
O581 O 0.65845 0.7869 0.32314 0.0
O582 O 0.6807 0.85652 0.3173 0.0
O583 O 0.67986 0.80096 0.29424 0.0
O584 O 0.66357 0.81037 0.39509 0.0
O585 O 0.68784 0.81777 0.35188 0.0
O586 O 0.71949 0.85637 0.34424 0.0
O587 O 0.69054 0.86099 0.36421 0.0
O588 O 0.66698 0.79087 0.3708 0.0
O589 O 0.6716 0.84829 0.39298 0.0
C590 C 0.66156 0.84775 0.32861 0.0
C591 C 0.69517 0.82047 0.26495 0.0
C592 C 0.6973 0.8248 0.22974 0.0
C593 C 0.68376 0.82047 0.24715 0.0
C594 C 0.72252 0.82906 0.23052 0.0
C595 C 0.7202 0.82451 0.26539 0.0
C596 C 0.73379 0.8288 0.24824 0.0
C597 C 0.63529 0.7775 0.33051 0.0
C598 C 0.6811 0.81748 0.28301 0.0
C599 C 0.79627 0.85865 0.3127 0.0
C600 C 0.78752 0.83314 0.31382 0.0
C601 C 0.68571 0.79884 0.35911 0.0
C602 C 0.65869 0.83142 0.42347 0.0
C603 C 0.67168 0.83198 0.44062 0.0
C604 C 0.66096 0.83096 0.45905 0.0
C605 C 0.6368 0.82917 0.45996 0.0
C606 C 0.63465 0.82963 0.42462 0.0
C607 C 0.62378 0.8285 0.44283 0.0
C608 C 0.71402 0.86928 0.35777 0.0
C609 C 0.67039 0.8321 0.40454 0.0
H610 H 0.66423 0.81687 0.24691 0.0
H611 H 0.73365 0.83284 0.2175 0.0
H612 H 0.72928 0.82447 0.27893 0.0
H613 H 0.75318 0.83209 0.2487 0.0
H614 H 0.69004 0.83288 0.43951 0.0
H615 H 0.62814 0.82866 0.47393 0.0
H616 H 0.62432 0.82908 0.41151 0.0
H617 H 0.60525 0.82718 0.44369 0.0
Eu618 Eu 0.18199 0.81078 0.37317 0.0
C619 C 0.11501 0.83377 0.31764 0.0
C620 C 0.07177 0.79824 0.31835 0.0
C621 C 0.07833 0.83921 0.31284 0.0
C622 C 0.09866 0.80869 0.31998 0.0
C623 C 0.10507 0.84922 0.31359 0.0
C624 C 0.06171 0.81376 0.31524 0.0
C625 C 0.14857 0.88262 0.30962 0.0
N626 N 0.14068 0.84275 0.31828 0.0
C627 C 0.15747 0.86653 0.31362 0.0
C628 C 0.12226 0.87404 0.30985 0.0
Eu629 Eu 0.15454 0.81484 0.32589 0.0
N630 N 0.10904 0.79421 0.3228 0.0
C631 C 0.09361 0.76876 0.32259 0.0
C632 C 0.05584 0.77238 0.31931 0.0
C633 C 0.06683 0.75752 0.32112 0.0
H634 H 0.17784 0.87329 0.31354 0.0
H635 H 0.0547 0.73743 0.32148 0.0
H636 H 0.04111 0.80612 0.31415 0.0
H637 H 0.16199 0.90164 0.30639 0.0
H638 H 0.1018 0.75705 0.32411 0.0
H639 H 0.28181 0.88813 0.38005 0.0
H640 H 0.03509 0.76362 0.31818 0.0
H641 H 0.15834 0.75138 0.38336 0.0
H642 H 0.2347 0.86863 0.37717 0.0
H643 H 0.17404 0.72237 0.38873 0.0
H644 H 0.07031 0.85083 0.30994 0.0
H645 H 0.30128 0.86154 0.3815 0.0
H646 H 0.2951 0.81854 0.38322 0.0
H647 H 0.11539 0.88651 0.30669 0.0
H648 H 0.26576 0.77338 0.38563 0.0
N649 N 0.22741 0.83124 0.37651 0.0
C650 C 0.24287 0.85677 0.37787 0.0
C651 C 0.28055 0.85285 0.38025 0.0
C652 C 0.26455 0.8268 0.38001 0.0
C653 C 0.26963 0.86792 0.37949 0.0
C654 C 0.23769 0.81644 0.37827 0.0
H655 H 0.2206 0.73743 0.38806 0.0
N656 N 0.19556 0.78216 0.37917 0.0
C657 C 0.18751 0.74162 0.38611 0.0
C658 C 0.22124 0.79108 0.37964 0.0
C659 C 0.17869 0.75807 0.38313 0.0
C660 C 0.2138 0.75018 0.38565 0.0
C661 C 0.23109 0.7753 0.38274 0.0
O662 O 0.16415 0.79861 0.40101 0.0
O663 O 0.14807 0.80685 0.35709 0.0
O664 O 0.15705 0.84559 0.34762 0.0
O665 O 0.18838 0.85013 0.3704 0.0
O666 O 0.14031 0.78 0.37597 0.0
O667 O 0.19408 0.83737 0.3995 0.0
O668 O 0.17361 0.82585 0.29831 0.0
O669 O 0.18874 0.81951 0.34214 0.0
O670 O 0.18097 0.7815 0.3506 0.0
O671 O 0.14795 0.77554 0.32916 0.0
O672 O 0.19578 0.84625 0.32321 0.0
O673 O 0.14231 0.78768 0.29994 0.0
C674 C 0.13014 0.78795 0.36407 0.0
C675 C 0.19083 0.8198 0.42941 0.0
C676 C 0.19158 0.82186 0.46523 0.0
C677 C 0.18064 0.82254 0.44729 0.0
C678 C 0.21268 0.81809 0.46493 0.0
C679 C 0.21195 0.81621 0.42946 0.0
C680 C 0.22275 0.8153 0.44714 0.0
C681 C 0.17445 0.85839 0.36223 0.0
C682 C 0.17905 0.82036 0.41085 0.0
C683 C 0.25781 0.78526 0.38346 0.0
C684 C 0.27452 0.81097 0.38209 0.0
C685 C 0.20629 0.83884 0.33528 0.0
C686 C 0.14852 0.80448 0.26929 0.0
C687 C 0.16212 0.8042 0.25274 0.0
C688 C 0.15335 0.8047 0.23383 0.0
C689 C 0.13078 0.80583 0.23184 0.0
C690 C 0.12609 0.80563 0.26707 0.0
C691 C 0.11731 0.80633 0.24839 0.0
C692 C 0.16314 0.76817 0.3364 0.0
C693 C 0.1585 0.80404 0.28868 0.0
H694 H 0.16451 0.82562 0.44722 0.0
H695 H 0.22131 0.81714 0.47845 0.0
H696 H 0.22007 0.81412 0.41588 0.0
H697 H 0.23899 0.81242 0.44705 0.0
H698 H 0.17974 0.80385 0.2547 0.0
H699 H 0.12327 0.8059 0.2175 0.0
H700 H 0.11543 0.80597 0.27972 0.0
H701 H 0.09994 0.80712 0.2467 0.0
Eu702 Eu 0.81837 0.6346 0.6538 0.0
C703 C 0.88631 0.72964 0.71283 0.0
C704 C 0.92963 0.73721 0.71036 0.0
C705 C 0.9228 0.77223 0.71853 0.0
C706 C 0.90277 0.72064 0.70899 0.0
C707 C 0.89613 0.75548 0.71808 0.0
C708 C 0.93953 0.76312 0.71467 0.0
C709 C 0.85269 0.74592 0.72378 0.0
N710 N 0.86071 0.71293 0.71251 0.0
C711 C 0.84392 0.72048 0.71862 0.0
C712 C 0.87889 0.76356 0.72327 0.0
Eu713 Eu 0.84706 0.67035 0.70271 0.0
N714 N 0.89255 0.69549 0.70497 0.0
C715 C 0.90817 0.68551 0.70368 0.0
C716 C 0.94572 0.72718 0.70793 0.0
C717 C 0.93493 0.70117 0.7049 0.0
H718 H 0.82363 0.70687 0.71889 0.0
H719 H 0.9472 0.69318 0.70337 0.0
H720 H 0.9601 0.77617 0.71556 0.0
H721 H 0.83926 0.75191 0.72813 0.0
H722 H 0.90015 0.66547 0.70121 0.0
H723 H 0.71718 0.60851 0.65494 0.0
H724 H 0.96645 0.73927 0.70882 0.0
H725 H 0.84235 0.60047 0.63347 0.0
H726 H 0.76399 0.63731 0.65626 0.0
H727 H 0.82794 0.55607 0.62258 0.0
H728 H 0.93072 0.79219 0.72234 0.0
H729 H 0.69921 0.56262 0.64928 0.0
H730 H 0.70691 0.52673 0.64124 0.0
H731 H 0.88566 0.78325 0.72738 0.0
H732 H 0.73716 0.51236 0.63234 0.0
N733 N 0.77286 0.6082 0.65199 0.0
C734 C 0.75659 0.61741 0.65371 0.0
C735 C 0.71986 0.57521 0.64986 0.0
C736 C 0.73655 0.56597 0.64673 0.0
C737 C 0.72993 0.6011 0.65299 0.0
C738 C 0.76328 0.5832 0.64772 0.0
H739 H 0.78231 0.52324 0.62489 0.0
N740 N 0.80549 0.59258 0.64245 0.0
C741 C 0.81432 0.56113 0.62836 0.0
C742 C 0.7802 0.57512 0.64278 0.0
C743 C 0.82241 0.58622 0.6345 0.0
C744 C 0.78858 0.54265 0.62976 0.0
C745 C 0.77102 0.5496 0.63664 0.0
O746 O 0.83546 0.64045 0.6251 0.0
O747 O 0.85231 0.6661 0.67079 0.0
O748 O 0.84263 0.69587 0.68339 0.0
O749 O 0.80968 0.66617 0.66132 0.0
O750 O 0.8602 0.64645 0.64883 0.0
O751 O 0.80454 0.64777 0.63075 0.0
O752 O 0.8318 0.66831 0.73196 0.0
O753 O 0.813 0.63856 0.68595 0.0
O754 O 0.82474 0.60895 0.67156 0.0
O755 O 0.85406 0.63752 0.69663 0.0
O756 O 0.80549 0.65906 0.7076 0.0
O757 O 0.85917 0.65606 0.72593 0.0
C758 C 0.87029 0.66511 0.66226 0.0
C759 C 0.80772 0.63378 0.59825 0.0
C760 C 0.80622 0.63482 0.56268 0.0
C761 C 0.8176 0.64647 0.58144 0.0
C762 C 0.78498 0.61015 0.56101 0.0
C763 C 0.78656 0.6092 0.59628 0.0
C764 C 0.77531 0.59745 0.57772 0.0
C765 C 0.82378 0.68929 0.67017 0.0
C766 C 0.81967 0.64641 0.6177 0.0
C767 C 0.74457 0.5321 0.63678 0.0
C768 C 0.72735 0.54028 0.64184 0.0
C769 C 0.79523 0.63995 0.69455 0.0
C770 C 0.8589 0.67189 0.75843 0.0
C771 C 0.8502 0.65832 0.77492 0.0
C772 C 0.86285 0.66893 0.7935 0.0
C773 C 0.8844 0.69342 0.79528 0.0
C774 C 0.88032 0.69629 0.76049 0.0
C775 C 0.89299 0.70698 0.77886 0.0
C776 C 0.84152 0.61507 0.68645 0.0
C777 C 0.84571 0.65999 0.73918 0.0
H778 H 0.83381 0.66557 0.58304 0.0
H779 H 0.77597 0.60059 0.54676 0.0
H780 H 0.77871 0.59916 0.60905 0.0
H781 H 0.759 0.57846 0.57628 0.0
H782 H 0.83382 0.63932 0.77318 0.0
H783 H 0.89439 0.70223 0.8094 0.0
H784 H 0.8873 0.707 0.74793 0.0
H785 H 0.90952 0.72584 0.78038 0.0
Eu786 Eu 0.35803 0.17493 0.66348 0.0
C787 C 0.26509 0.15025 0.71621 0.0
C788 C 0.2557 0.18346 0.71334 0.0
C789 C 0.22123 0.14158 0.71891 0.0
C790 C 0.27328 0.17484 0.71302 0.0
C791 C 0.23908 0.13348 0.71963 0.0
C792 C 0.22953 0.16654 0.71577 0.0
C793 C 0.25076 0.10275 0.72612 0.0
N794 N 0.28288 0.14316 0.71711 0.0
C795 C 0.27636 0.12014 0.72278 0.0
C796 C 0.23196 0.10933 0.72429 0.0
Eu797 Eu 0.32557 0.17316 0.71029 0.0
N798 N 0.29874 0.19075 0.71094 0.0
C799 C 0.30818 0.21589 0.7106 0.0
C800 C 0.26509 0.20899 0.71186 0.0
C801 C 0.2915 0.22534 0.71082 0.0
H802 H 0.29084 0.11496 0.72409 0.0
H803 H 0.29903 0.2452 0.71006 0.0
H804 H 0.21569 0.17274 0.71581 0.0
H805 H 0.24554 0.0843 0.73009 0.0
H806 H 0.32853 0.22868 0.70967 0.0
H807 H 0.3839 0.10223 0.66192 0.0
H808 H 0.25221 0.21635 0.71199 0.0
H809 H 0.39285 0.23334 0.65014 0.0
H810 H 0.3548 0.11915 0.66353 0.0
H811 H 0.43792 0.26369 0.64339 0.0
H812 H 0.20111 0.12891 0.7213 0.0
H813 H 0.43056 0.13068 0.65884 0.0
H814 H 0.4671 0.17412 0.65466 0.0
H815 H 0.21216 0.09587 0.72699 0.0
H816 H 0.48184 0.21812 0.64966 0.0
N817 N 0.38462 0.157 0.66189 0.0
C818 C 0.37506 0.13182 0.66216 0.0
C819 C 0.41785 0.13823 0.65953 0.0
C820 C 0.42735 0.16381 0.6582 0.0
C821 C 0.39152 0.12212 0.66122 0.0
C822 C 0.40998 0.17269 0.65925 0.0
H823 H 0.47104 0.25158 0.64512 0.0
N824 N 0.40063 0.20472 0.6562 0.0
C825 C 0.43268 0.24513 0.6471 0.0
C826 C 0.41826 0.19737 0.65637 0.0
C827 C 0.40718 0.2279 0.65088 0.0
C828 C 0.45133 0.23825 0.64816 0.0
C829 C 0.44415 0.21397 0.65248 0.0
O830 O 0.35015 0.18304 0.63473 0.0
O831 O 0.32719 0.17851 0.67847 0.0
O832 O 0.29742 0.14078 0.68905 0.0
O833 O 0.3256 0.13518 0.66871 0.0
O834 O 0.34643 0.20364 0.65808 0.0
O835 O 0.34361 0.14601 0.63859 0.0
O836 O 0.33314 0.16535 0.73927 0.0
O837 O 0.3563 0.16963 0.69526 0.0
O838 O 0.38643 0.20725 0.68477 0.0
O839 O 0.35845 0.21272 0.70549 0.0
O840 O 0.33788 0.14499 0.71613 0.0
O841 O 0.33856 0.20192 0.73527 0.0
C842 C 0.32812 0.19625 0.67013 0.0
C843 C 0.35641 0.16127 0.60754 0.0
C844 C 0.35497 0.1595 0.57171 0.0
C845 C 0.34329 0.15846 0.58974 0.0
C846 C 0.38009 0.1635 0.57186 0.0
C847 C 0.38135 0.16508 0.60735 0.0
C848 C 0.39311 0.16621 0.58958 0.0
C849 C 0.30267 0.12694 0.67626 0.0
C850 C 0.34415 0.16107 0.62615 0.0
C851 C 0.46181 0.20558 0.65243 0.0
C852 C 0.45342 0.18053 0.65527 0.0
C853 C 0.35589 0.15227 0.70379 0.0
C854 C 0.32441 0.18585 0.76594 0.0
C855 C 0.33573 0.18685 0.78417 0.0
C856 C 0.32206 0.18351 0.80152 0.0
C857 C 0.29686 0.17934 0.8001 0.0
C858 C 0.29956 0.18223 0.76506 0.0
C859 C 0.2859 0.179 0.78206 0.0
C860 C 0.38141 0.22085 0.69803 0.0
C861 C 0.33801 0.18698 0.74784 0.0
H862 H 0.32388 0.15518 0.58999 0.0
H863 H 0.38981 0.16479 0.55831 0.0
H864 H 0.39175 0.16727 0.62088 0.0
H865 H 0.41243 0.16929 0.58954 0.0
H866 H 0.35514 0.19015 0.78468 0.0
H867 H 0.28527 0.17586 0.81284 0.0
H868 H 0.29059 0.18159 0.75125 0.0
H869 H 0.26656 0.17583 0.7812 0.0
Eu870 Eu 0.84153 0.14645 0.7057 0.0
C871 C 0.77424 0.16384 0.64631 0.0
C872 C 0.73072 0.129 0.64777 0.0
C873 C 0.73803 0.16952 0.63995 0.0
C874 C 0.75754 0.13915 0.64969 0.0
C875 C 0.7647 0.17919 0.64103 0.0
C876 C 0.72106 0.14446 0.64331 0.0
C877 C 0.80847 0.21183 0.63675 0.0
N878 N 0.79987 0.17254 0.64733 0.0
C879 C 0.81699 0.19583 0.64192 0.0
C880 C 0.78223 0.20359 0.63652 0.0
Eu881 Eu 0.81291 0.14481 0.65708 0.0
N882 N 0.7675 0.12469 0.65386 0.0
C883 C 0.75173 0.09949 0.65487 0.0
C884 C 0.71442 0.10346 0.64987 0.0
C885 C 0.725 0.08857 0.65314 0.0
H886 H 0.83731 0.20234 0.64219 0.0
H887 H 0.71258 0.0687 0.65443 0.0
H888 H 0.70052 0.13706 0.64198 0.0
H889 H 0.82215 0.2305 0.63296 0.0
H890 H 0.75961 0.08778 0.65751 0.0
H891 H 0.94158 0.22289 0.70676 0.0
H892 H 0.69371 0.09495 0.64856 0.0
H893 H 0.81832 0.0897 0.72167 0.0
H894 H 0.89445 0.2036 0.70483 0.0
H895 H 0.83409 0.06179 0.73044 0.0
H896 H 0.73032 0.18107 0.63608 0.0
H897 H 0.96093 0.19674 0.71141 0.0
H898 H 0.95468 0.15466 0.71743 0.0
H899 H 0.77567 0.21598 0.63244 0.0
H900 H 0.9254 0.11075 0.7239 0.0
N901 N 0.88702 0.16671 0.70785 0.0
C902 C 0.90257 0.19195 0.70692 0.0
C903 C 0.94019 0.18815 0.71058 0.0
C904 C 0.92414 0.16256 0.71267 0.0
C905 C 0.92934 0.20298 0.708 0.0
C906 C 0.89727 0.1523 0.71138 0.0
H907 H 0.88044 0.0761 0.72914 0.0
N908 N 0.85525 0.11903 0.71495 0.0
C909 C 0.84744 0.08023 0.72605 0.0
C910 C 0.88086 0.12767 0.71505 0.0
C911 C 0.83858 0.09606 0.72114 0.0
C912 C 0.87361 0.08834 0.72523 0.0
C913 C 0.89076 0.1125 0.72003 0.0
O914 O 0.82419 0.13855 0.7342 0.0
O915 O 0.80713 0.14042 0.6889 0.0
O916 O 0.81465 0.17657 0.6769 0.0
O917 O 0.84789 0.18496 0.69929 0.0
O918 O 0.80005 0.11659 0.71036 0.0
O919 O 0.85547 0.17595 0.73015 0.0
O920 O 0.83173 0.15279 0.62918 0.0
O921 O 0.84724 0.15068 0.67388 0.0
O922 O 0.83858 0.11383 0.6861 0.0
O923 O 0.80584 0.1062 0.6635 0.0
O924 O 0.85437 0.17504 0.65288 0.0
O925 O 0.7994 0.11558 0.63246 0.0
C926 C 0.78952 0.12261 0.69717 0.0
C927 C 0.8525 0.16134 0.76144 0.0
C928 C 0.8515 0.16146 0.79716 0.0
C929 C 0.84088 0.16215 0.77906 0.0
C930 C 0.87387 0.15973 0.79723 0.0
C931 C 0.87497 0.16001 0.76191 0.0
C932 C 0.88552 0.15913 0.77972 0.0
C933 C 0.83296 0.19152 0.69037 0.0
C934 C 0.84041 0.16084 0.74265 0.0
C935 C 0.91744 0.1222 0.7203 0.0
C936 C 0.9341 0.14719 0.71663 0.0
C937 C 0.8649 0.16865 0.66579 0.0
C938 C 0.80567 0.13025 0.60086 0.0
C939 C 0.8203 0.13143 0.58462 0.0
C940 C 0.81184 0.13195 0.5656 0.0
C941 C 0.78844 0.13143 0.56316 0.0
C942 C 0.7824 0.12976 0.59818 0.0
C943 C 0.77387 0.13034 0.57937 0.0
C944 C 0.82045 0.09926 0.67237 0.0
C945 C 0.81571 0.13061 0.62048 0.0
H946 H 0.82374 0.16359 0.77862 0.0
H947 H 0.88228 0.15864 0.81081 0.0
H948 H 0.88431 0.15954 0.74856 0.0
H949 H 0.90275 0.15787 0.77994 0.0
H950 H 0.83853 0.13235 0.58689 0.0
H951 H 0.78121 0.1315 0.5487 0.0
H952 H 0.77094 0.12902 0.61056 0.0
H953 H 0.75587 0.1299 0.57734 0.0
H954 H 0.29192 0.8531 0.03025 0.0
H955 H 0.4121 0.96023 0.02982 0.0
H956 H 0.3337 0.82115 0.05418 0.0
H957 H 0.44159 0.90993 0.02189 0.0
H958 H 0.36927 0.92441 0.03366 0.0
H959 H 0.3325 0.88818 0.02104 0.0
C960 C 0.30963 0.85348 0.03362 0.0
C961 C 0.30942 0.83434 0.04329 0.0
C962 C 0.38488 0.92102 0.03055 0.0
C963 C 0.35605 0.87477 0.03314 0.0
C964 C 0.40933 0.94149 0.02851 0.0
C965 C 0.43008 0.93782 0.02501 0.0
C966 C 0.38127 0.89673 0.02949 0.0
C967 C 0.42582 0.91334 0.02403 0.0
C968 C 0.33283 0.87365 0.02849 0.0
C969 C 0.33298 0.83566 0.04698 0.0
N970 N 0.40185 0.89365 0.02641 0.0
N971 N 0.35537 0.85559 0.04194 0.0
H972 H 0.15415 0.46565 0.04688 0.0
H973 H 0.0054 0.42007 0.02709 0.0
H974 H 0.09257 0.38831 0.04402 0.0
H975 H 0.06597 0.4974 0.02787 0.0
H976 H 0.03771 0.40804 0.03158 0.0
H977 H 0.12296 0.47766 0.03769 0.0
C978 C 0.13415 0.45117 0.04416 0.0
C979 C 0.12595 0.42595 0.0464 0.0
C980 C 0.04404 0.42763 0.03058 0.0
C981 C 0.09017 0.43959 0.03608 0.0
C982 C 0.0256 0.43445 0.02801 0.0
C983 C 0.03316 0.45961 0.02658 0.0
C984 C 0.07027 0.44622 0.03219 0.0
C985 C 0.05947 0.47769 0.02832 0.0
C986 C 0.11634 0.45805 0.03896 0.0
C987 C 0.09979 0.408 0.04263 0.0
N988 N 0.07713 0.47065 0.03105 0.0
N989 N 0.08286 0.41519 0.0378 0.0
H990 H 0.58485 0.68676 0.07289 0.0
H991 H 0.48263 0.56097 0.00805 0.0
H992 H 0.52463 0.68185 0.03551 0.0
H993 H 0.54667 0.5679 0.04177 0.0
H994 H 0.4966 0.60463 0.01901 0.0
H995 H 0.57013 0.64281 0.06256 0.0
C996 C 0.56851 0.67645 0.06249 0.0
C997 C 0.55596 0.68804 0.05504 0.0
C998 C 0.50757 0.5966 0.02404 0.0
C999 C 0.53896 0.63757 0.04317 0.0
C1000 C 0.49958 0.57163 0.01783 0.0
C1001 C 0.51352 0.56074 0.024 0.0
C1002 C 0.52965 0.61084 0.03654 0.0
C1003 C 0.53536 0.57552 0.03662 0.0
C1004 C 0.56012 0.65132 0.0566 0.0
C1005 C 0.5349 0.67369 0.04161 0.0
N1006 N 0.54276 0.59981 0.04247 0.0
N1007 N 0.52705 0.64919 0.03611 0.0
H1008 H 0.82432 0.30016 0.98909 0.0
H1009 H 0.96685 0.41166 0.97359 0.0
H1010 H 0.87592 0.29336 0.94862 0.0
H1011 H 0.91132 0.42325 0.00543 0.0
H1012 H 0.93371 0.36805 0.96474 0.0
H1013 H 0.85607 0.345 0.99618 0.0
C1014 C 0.84228 0.30807 0.9817 0.0
C1015 C 0.8475 0.29297 0.96829 0.0
C1016 C 0.92874 0.38012 0.97366 0.0
C1017 C 0.88381 0.34412 0.97631 0.0
C1018 C 0.94769 0.40511 0.97872 0.0
C1019 C 0.94206 0.4211 0.99065 0.0
C1020 C 0.90393 0.37095 0.9806 0.0
C1021 C 0.91675 0.41146 0.99666 0.0
C1022 C 0.86035 0.33366 0.98569 0.0
C1023 C 0.87105 0.30424 0.95908 0.0
N1024 N 0.89867 0.38695 0.99171 0.0
N1025 N 0.88834 0.32906 0.96332 0.0
H1026 H 0.69126 0.55679 0.97682 0.0
H1027 H 0.53898 0.46169 0.97442 0.0
H1028 H 0.65469 0.479 0.9533 0.0
H1029 H 0.57431 0.54195 0.98547 0.0
H1030 H 0.58169 0.46653 0.97132 0.0
H1031 H 0.64909 0.55043 0.98519 0.0
C1032 C 0.67442 0.53831 0.97358 0.0
C1033 C 0.67653 0.51846 0.96415 0.0
C1034 C 0.58017 0.48309 0.97468 0.0
C1035 C 0.62817 0.51113 0.97359 0.0
C1036 C 0.55584 0.48028 0.97665 0.0
C1037 C 0.55341 0.50138 0.98119 0.0
C1038 C 0.60212 0.50728 0.97673 0.0
C1039 C 0.57563 0.5252 0.98276 0.0
C1040 C 0.65033 0.53473 0.97829 0.0
C1041 C 0.654 0.49491 0.9604 0.0
N1042 N 0.59912 0.52753 0.98064 0.0
N1043 N 0.63076 0.49193 0.96503 0.0
H1044 H 0.38004 0.06266 0.97084 0.0
H1045 H 0.50261 0.05932 0.01003 0.0
H1046 H 0.45331 0.12993 0.98615 0.0
H1047 H 0.43506 -0.00516 0.98127 0.0
H1048 H 0.48458 0.08558 1.00307 0.0
H1049 H 0.39958 0.03745 0.97618 0.0
C1050 C 0.40028 0.07214 0.97526 0.0
C1051 C 0.41506 0.09844 0.97807 0.0
C1052 C 0.47379 0.06569 0.99825 0.0
C1053 C 0.43755 0.06965 0.98435 0.0
C1054 C 0.48398 0.05066 1.00233 0.0
C1055 C 0.4702 0.02476 0.99643 0.0
C1056 C 0.44961 0.05468 0.98832 0.0
C1057 C 0.44637 0.01466 0.98617 0.0
C1058 C 0.41144 0.05773 0.97828 0.0
C1059 C 0.44122 0.1097 0.98378 0.0
N1060 N 0.43679 0.02959 0.98256 0.0
N1061 N 0.45161 0.09523 0.98686 0.0
H1062 H 0.64425 0.13983 0.96565 0.0
H1063 H 0.58048 -0.0026 0.98844 0.0
H1064 H 0.68962 0.1067 0.97903 0.0
H1065 H 0.54161 0.03941 0.99646 0.0
H1066 H 0.62031 0.03636 0.98281 0.0
H1067 H 0.60575 0.10222 0.97482 0.0
C1068 C 0.64612 0.12466 0.97055 0.0
C1069 C 0.67015 0.12635 0.97153 0.0
C1070 C 0.60312 0.03707 0.98605 0.0
C1071 C 0.62617 0.08321 0.98185 0.0
C1072 C 0.58047 0.01491 0.98921 0.0
C1073 C 0.55802 0.0154 0.99338 0.0
C1074 C 0.60299 0.05968 0.98644 0.0
C1075 C 0.5587 0.03836 0.99381 0.0
C1076 C 0.62416 0.10326 0.97585 0.0
C1077 C 0.67146 0.10618 0.97807 0.0
N1078 N 0.58082 0.05959 0.9903 0.0
N1079 N 0.64973 0.08533 0.98282 0.0
H1080 H 0.89189 0.58172 0.98813 0.0
H1081 H 0.99617 0.5631 0.99182 0.0
H1082 H 0.84991 0.50487 0.96213 0.0
H1083 H 0.93931 0.48492 0.9939 0.0
H1084 H 0.9617 0.57196 0.98617 0.0
H1085 H 0.92777 0.5761 0.9966 0.0
C1086 C 0.89025 0.56368 0.98412 0.0
C1087 C 0.86793 0.54382 0.9742 0.0
C1088 C 0.95665 0.55296 0.98832 0.0
C1089 C 0.90926 0.5374 0.98348 0.0
C1090 C 0.97634 0.54789 0.99138 0.0
C1091 C 0.97047 0.52343 0.99393 0.0
C1092 C 0.93087 0.53326 0.98745 0.0
C1093 C 0.94456 0.50418 0.99262 0.0
C1094 C 0.91089 0.56056 0.98879 0.0
C1095 C 0.86682 0.52078 0.9696 0.0
N1096 N 0.9257 0.5095 0.98941 0.0
N1097 N 0.88718 0.5182 0.9743 0.0
H1098 H 0.48011 0.30555 0.94692 0.0
H1099 H 0.44075 0.41109 0.95829 0.0
H1100 H 0.40743 0.29388 0.92512 0.0
H1101 H 0.5093 0.4194 0.98574 0.0
H1102 H 0.43021 0.3697 0.94319 0.0
H1103 H 0.49314 0.34893 0.95824 0.0
C1104 C 0.46697 0.31216 0.94435 0.0
C1105 C 0.44255 0.29597 0.93517 0.0
C1106 C 0.4476 0.38062 0.95247 0.0
C1107 C 0.45732 0.34563 0.9482 0.0
C1108 C 0.45371 0.40433 0.96103 0.0
C1109 C 0.47596 0.4188 0.97332 0.0
C1110 C 0.46385 0.37125 0.95622 0.0
C1111 C 0.49183 0.40887 0.97653 0.0
C1112 C 0.4744 0.33692 0.95088 0.0
C1113 C 0.42637 0.30563 0.93222 0.0
N1114 N 0.48544 0.38571 0.96807 0.0
N1115 N 0.434 0.32979 0.9388 0.0
H1116 H 0.19473 0.66888 0.04928 0.0
H1117 H 0.04197 0.57569 0.04675 0.0
H1118 H 0.14234 0.68812 0.07778 0.0
H1119 H 0.09491 0.55542 0.02074 0.0
H1120 H 0.07841 0.61718 0.05797 0.0
H1121 H 0.15818 0.62756 0.03786 0.0
C1122 C 0.17555 0.66447 0.05307 0.0
C1123 C 0.17161 0.68198 0.06453 0.0
C1124 C 0.08203 0.60365 0.04978 0.0
C1125 C 0.12969 0.63468 0.05161 0.0
C1126 C 0.06123 0.57992 0.04342 0.0
C1127 C 0.06534 0.56213 0.03259 0.0
C1128 C 0.10713 0.6096 0.0453 0.0
C1129 C 0.09075 0.56867 0.02874 0.0
C1130 C 0.15468 0.64084 0.04659 0.0
C1131 C 0.14631 0.67521 0.069 0.0
N1132 N 0.11064 0.59187 0.03504 0.0
N1133 N 0.12634 0.65209 0.06256 0.0
H1134 H 0.33285 0.47692 0.0685 0.0
H1135 H 0.40858 0.42457 1.00228 0.0
H1136 H 0.29493 0.40511 0.03365 0.0
H1137 H 0.44528 0.49625 0.037 0.0
H1138 H 0.36652 0.41717 0.01288 0.0
H1139 H 0.37406 0.48449 0.05653 0.0
C1140 C 0.33317 0.46271 0.05834 0.0
C1141 C 0.31036 0.44031 0.05212 0.0
C1142 C 0.38374 0.4346 0.01808 0.0
C1143 C 0.35763 0.44888 0.0383 0.0
C1144 C 0.40763 0.43881 0.01196 0.0
C1145 C 0.4301 0.4613 0.01838 0.0
C1146 C 0.38253 0.45284 0.03101 0.0
C1147 C 0.42819 0.47896 0.03135 0.0
C1148 C 0.35675 0.46706 0.05148 0.0
C1149 C 0.31202 0.42263 0.03888 0.0
N1150 N 0.4048 0.47439 0.0372 0.0
N1151 N 0.33524 0.42728 0.03243 0.0
H1152 H 0.51047 0.83336 0.08916 0.0
H1153 H 0.51068 0.90333 0.99725 0.0
H1154 H 0.54006 0.82341 0.03371 0.0
H1155 H 0.51304 0.93362 0.05682 0.0
H1156 H 0.51676 0.87085 0.0096 0.0
H1157 H 0.50644 0.86717 0.07687 0.0
C1158 C 0.51606 0.83825 0.07439 0.0
C1159 C 0.5256 0.82556 0.06242 0.0
C1160 C 0.51607 0.88469 0.01996 0.0
C1161 C 0.52088 0.86404 0.04828 0.0
C1162 C 0.5124 0.90312 0.01289 0.0
C1163 C 0.51123 0.92113 0.02596 0.0
C1164 C 0.51811 0.884 0.0403 0.0
C1165 C 0.51404 0.92021 0.04619 0.0
C1166 C 0.51388 0.85761 0.06744 0.0
C1167 C 0.53267 0.83275 0.04343 0.0
N1168 N 0.5171 0.90179 0.05277 0.0
N1169 N 0.52999 0.85141 0.03689 0.0
H1170 H 0.96669 0.20798 0.37008 0.0
H1171 H 0.08838 0.31443 0.36926 0.0
H1172 H 0.00775 0.17302 0.38968 0.0
H1173 H 0.11545 0.26237 0.35923 0.0
H1174 H 0.04532 0.27926 0.37395 0.0
H1175 H 0.00751 0.24393 0.36223 0.0
C1176 C 0.9843 0.20791 0.37283 0.0
C1177 C 0.9838 0.18757 0.38079 0.0
C1178 C 0.06045 0.27539 0.37023 0.0
C1179 C 0.03072 0.22895 0.3722 0.0
C1180 C 0.08504 0.29547 0.36771 0.0
C1181 C 0.10515 0.29111 0.36321 0.0
C1182 C 0.05611 0.25079 0.36864 0.0
C1183 C 0.1002 0.26637 0.36202 0.0
C1184 C 0.00765 0.22858 0.36851 0.0
C1185 C 0.00723 0.1884 0.38378 0.0
N1186 N 0.07615 0.24711 0.36479 0.0
N1187 N 0.02974 0.20875 0.37946 0.0
H1188 H 0.82614 0.79715 0.38051 0.0
H1189 H 0.6776 0.75212 0.36047 0.0
H1190 H 0.76438 0.71983 0.37667 0.0
H1191 H 0.7382 0.82949 0.36164 0.0
H1192 H 0.70984 0.74001 0.36484 0.0
H1193 H 0.79513 0.80949 0.37152 0.0
C1194 C 0.80614 0.78275 0.37761 0.0
C1195 C 0.79783 0.75743 0.37953 0.0
C1196 C 0.71621 0.75963 0.36396 0.0
C1197 C 0.76227 0.77144 0.36943 0.0
C1198 C 0.6978 0.76649 0.36145 0.0
C1199 C 0.70539 0.79168 0.36017 0.0
C1200 C 0.74244 0.77819 0.36566 0.0
C1201 C 0.7317 0.80976 0.362 0.0
C1202 C 0.78844 0.78982 0.37253 0.0
C1203 C 0.77169 0.73959 0.37554 0.0
N1204 N 0.74934 0.80267 0.36467 0.0
N1205 N 0.75487 0.74695 0.37083 0.0
H1206 H 0.24107 0.01024 0.41701 0.0
H1207 H 0.14617 0.88005 0.35368 0.0
H1208 H 0.1775 -0.00096 0.38008 0.0
H1209 H 0.21386 0.89461 0.38694 0.0
H1210 H 0.15605 0.92277 0.36405 0.0
H1211 H 0.23011 0.96726 0.407 0.0
C1212 C 0.22477 -0.00126 0.40677 0.0
C1213 C 0.21019 0.00831 0.39936 0.0
C1214 C 0.16874 0.91661 0.36905 0.0
C1215 C 0.19748 0.95884 0.38782 0.0
C1216 C 0.1632 0.89223 0.36307 0.0
C1217 C 0.17943 0.88378 0.36918 0.0
C1218 C 0.19059 0.93264 0.38138 0.0
C1219 C 0.20084 0.90026 0.38175 0.0
C1220 C 0.21852 0.97414 0.40105 0.0
C1221 C 0.18929 -0.00754 0.38614 0.0
N1222 N 0.20581 0.92388 0.38738 0.0
N1223 N 0.18354 0.96847 0.38079 0.0
H1224 H 0.49605 0.63077 0.31303 0.0
H1225 H 0.64121 0.74314 0.30678 0.0
H1226 H 0.55264 0.62565 0.27742 0.0
H1227 H 0.5837 0.75243 0.33768 0.0
H1228 H 0.60879 0.69976 0.29643 0.0
H1229 H 0.52779 0.67496 0.32313 0.0
C1230 C 0.51512 0.6389 0.30736 0.0
C1231 C 0.5217 0.62448 0.29436 0.0
C1232 C 0.60321 0.71125 0.30549 0.0
C1233 C 0.558 0.67491 0.30581 0.0
C1234 C 0.62177 0.73611 0.31141 0.0
C1235 C 0.61533 0.75145 0.32339 0.0
C1236 C 0.57793 0.7015 0.31156 0.0
C1237 C 0.5897 0.74118 0.32879 0.0
C1238 C 0.5332 0.66412 0.31309 0.0
C1239 C 0.54667 0.636 0.28745 0.0
N1240 N 0.57195 0.71681 0.32291 0.0
N1241 N 0.56387 0.66047 0.29327 0.0
H1242 H 0.34613 0.83758 0.30986 0.0
H1243 H 0.24702 0.88523 0.3324 0.0
H1244 H 0.36582 0.91502 0.31152 0.0
H1245 H 0.2267 0.80805 0.33357 0.0
H1246 H 0.29153 0.89669 0.32686 0.0
H1247 H 0.30332 0.82653 0.32094 0.0
C1248 C 0.34156 0.8523 0.31272 0.0
C1249 C 0.35956 0.87725 0.30958 0.0
C1250 C 0.27747 0.87727 0.32855 0.0
C1251 C 0.31056 0.86469 0.32211 0.0
C1252 C 0.2521 0.87077 0.33172 0.0
C1253 C 0.23342 0.84582 0.33389 0.0
C1254 C 0.28412 0.85854 0.32705 0.0
C1255 C 0.24074 0.82762 0.33248 0.0
C1256 C 0.3171 0.84596 0.31901 0.0
C1257 C 0.35256 0.89551 0.31358 0.0
N1258 N 0.26554 0.83433 0.3291 0.0
N1259 N 0.32862 0.88884 0.31948 0.0
H1260 H 0.15094 0.47633 0.28071 0.0
H1261 H 0.14937 0.39258 0.36311 0.0
H1262 H 0.11187 0.4704 0.33467 0.0
H1263 H 0.15759 0.37562 0.30202 0.0
H1264 H 0.14094 0.42515 0.35413 0.0
H1265 H 0.15877 0.44317 0.28936 0.0
C1266 C 0.14405 0.46809 0.29438 0.0
C1267 C 0.13072 0.47612 0.30699 0.0
C1268 C 0.1446 0.41432 0.34269 0.0
C1269 C 0.13984 0.43843 0.31702 0.0
C1270 C 0.14971 0.39594 0.34784 0.0
C1271 C 0.15454 0.3817 0.33332 0.0
C1272 C 0.14469 0.4187 0.32288 0.0
C1273 C 0.15393 0.38625 0.31365 0.0
C1274 C 0.14843 0.44911 0.29925 0.0
C1275 C 0.12215 0.46472 0.32449 0.0
N1276 N 0.14933 0.40454 0.30899 0.0
N1277 N 0.12702 0.44658 0.32906 0.0
H1278 H 0.36669 0.44874 0.30932 0.0
H1279 H 0.25131 0.3384 0.32196 0.0
H1280 H 0.31657 0.47401 0.28968 0.0
H1281 H 0.22015 0.387 0.33298 0.0
H1282 H 0.292 0.37454 0.31373 0.0
H1283 H 0.32964 0.41297 0.32214 0.0
C1284 C 0.34789 0.44675 0.30767 0.0
C1285 C 0.34467 0.46423 0.29819 0.0
C1286 C 0.27651 0.37745 0.31843 0.0
C1287 C 0.30218 0.4232 0.3126 0.0
C1288 C 0.25328 0.35681 0.32297 0.0
C1289 C 0.23267 0.35991 0.32857 0.0
C1290 C 0.27887 0.40122 0.31905 0.0
C1291 C 0.23582 0.38397 0.32917 0.0
C1292 C 0.32673 0.42621 0.31485 0.0
C1293 C 0.3199 0.46083 0.29667 0.0
N1294 N 0.25845 0.40369 0.3243 0.0
N1295 N 0.29961 0.44074 0.30383 0.0
H1296 H 0.5139 0.83107 0.29994 0.0
H1297 H 0.66456 0.89208 0.32377 0.0
H1298 H 0.56551 0.91081 0.31324 0.0
H1299 H 0.6099 0.81341 0.32648 0.0
H1300 H 0.62884 0.89923 0.31788 0.0
H1301 H 0.54908 0.824 0.30782 0.0
C1302 C 0.53262 0.84709 0.30453 0.0
C1303 C 0.53676 0.87158 0.30588 0.0
C1304 C 0.62464 0.88043 0.31993 0.0
C1305 C 0.57719 0.86363 0.31476 0.0
C1306 C 0.64498 0.87637 0.32326 0.0
C1307 C 0.64006 0.85227 0.32609 0.0
C1308 C 0.59921 0.86008 0.31891 0.0
C1309 C 0.61445 0.8324 0.32489 0.0
C1310 C 0.55268 0.84303 0.30908 0.0
C1311 C 0.56142 0.89162 0.31199 0.0
N1312 N 0.59496 0.83673 0.32136 0.0
N1313 N 0.58072 0.88721 0.31607 0.0
H1314 H 0.1048 0.61881 0.27813 0.0
H1315 H 0.19535 0.74998 0.34195 0.0
H1316 H 0.17804 0.63879 0.30529 0.0
H1317 H 0.12327 0.73041 0.31287 0.0
H1318 H 0.18897 0.70909 0.32947 0.0
H1319 H 0.11085 0.65918 0.29158 0.0
C1320 C 0.12216 0.63166 0.28698 0.0
C1321 C 0.14098 0.62538 0.29055 0.0
C1322 C 0.17453 0.71371 0.32585 0.0
C1323 C 0.14805 0.67184 0.30601 0.0
C1324 C 0.17808 0.73704 0.33306 0.0
C1325 C 0.15967 0.74359 0.32864 0.0
C1326 C 0.15245 0.69678 0.31406 0.0
C1327 C 0.13795 0.7262 0.3167 0.0
C1328 C 0.12561 0.65477 0.29464 0.0
C1329 C 0.16304 0.64283 0.30215 0.0
N1330 N 0.13494 0.7036 0.30986 0.0
N1331 N 0.16599 0.66529 0.30944 0.0
H1332 H 0.86091 0.00733 0.37942 0.0
H1333 H 0.71 0.90675 0.37878 0.0
H1334 H 0.8058 0.02211 0.40853 0.0
H1335 H 0.76581 0.88994 0.35366 0.0
H1336 H 0.74476 0.94938 0.38926 0.0
H1337 H 0.8261 0.96468 0.36872 0.0
C1338 C 0.8415 0.00167 0.38348 0.0
C1339 C 0.83629 0.01832 0.39492 0.0
C1340 C 0.7494 0.93637 0.38143 0.0
C1341 C 0.79638 0.96952 0.38282 0.0
C1342 C 0.72954 0.91197 0.37549 0.0
C1343 C 0.73492 0.89479 0.3651 0.0
C1344 C 0.77484 0.94365 0.37697 0.0
C1345 C 0.76067 0.90266 0.36131 0.0
C1346 C 0.82164 0.97729 0.37743 0.0
C1347 C 0.81075 0.00992 0.39977 0.0
N1348 N 0.77964 0.92652 0.36718 0.0
N1349 N 0.79179 -0.01387 0.39372 0.0
H1350 H 0.00128 0.80537 0.3954 0.0
H1351 H 0.08704 0.7436 0.36942 0.0
H1352 H 0.96845 0.72555 0.38131 0.0
H1353 H 0.11387 0.82193 0.36538 0.0
H1354 H 0.04391 0.7365 0.37576 0.0
H1355 H 0.04335 0.81189 0.38647 0.0
C1356 C 0.00292 0.7892 0.39045 0.0
C1357 C 0.98131 0.76486 0.38915 0.0
C1358 C 0.05918 0.75519 0.37328 0.0
C1359 C 0.02947 0.77219 0.37902 0.0
C1360 C 0.08373 0.75922 0.3697 0.0
C1361 C 0.10381 0.78324 0.36645 0.0
C1362 C 0.05493 0.7755 0.37419 0.0
C1363 C 0.09877 0.803 0.36732 0.0
C1364 C 0.02692 0.79295 0.38527 0.0
C1365 C 0.98457 0.74464 0.38253 0.0
N1366 N 0.07485 0.79871 0.37117 0.0
N1367 N 0.00823 0.74873 0.37784 0.0
H1368 H 0.20534 0.16538 0.36972 0.0
H1369 H 0.17769 0.27731 0.39345 0.0
H1370 H 0.173 0.17558 0.42364 0.0
H1371 H 0.1812 0.2498 0.33416 0.0
H1372 H 0.18152 0.24338 0.40559 0.0
H1373 H 0.20174 0.19934 0.3571 0.0
C1374 C 0.19753 0.17478 0.37891 0.0
C1375 C 0.18943 0.16763 0.39776 0.0
C1376 C 0.18136 0.2447 0.38991 0.0
C1377 C 0.18551 0.20655 0.3835 0.0
C1378 C 0.17936 0.26416 0.38298 0.0
C1379 C 0.17891 0.26621 0.36274 0.0
C1380 C 0.18336 0.2274 0.37651 0.0
C1381 C 0.18091 0.24855 0.34981 0.0
C1382 C 0.19539 0.19406 0.37167 0.0
C1383 C 0.17938 0.1804 0.40901 0.0
N1384 N 0.1832 0.22992 0.35691 0.0
N1385 N 0.17786 0.19934 0.40176 0.0
H1386 H 0.66731 0.50122 0.72657 0.0
H1387 H 0.75272 0.64268 0.7021 0.0
H1388 H 0.63445 0.54606 0.71288 0.0
H1389 H 0.77875 0.58973 0.69266 0.0
H1390 H 0.70981 0.60814 0.70832 0.0
H1391 H 0.70905 0.53396 0.71632 0.0
C1392 C 0.66886 0.51792 0.72138 0.0
C1393 C 0.64739 0.52097 0.72066 0.0
C1394 C 0.72481 0.60401 0.70466 0.0
C1395 C 0.69507 0.55852 0.70912 0.0
C1396 C 0.74923 0.62368 0.70115 0.0
C1397 C 0.76899 0.61886 0.69648 0.0
C1398 C 0.72037 0.57945 0.70411 0.0
C1399 C 0.76379 0.59406 0.69579 0.0
C1400 C 0.69264 0.53651 0.71545 0.0
C1401 C 0.65048 0.54292 0.71369 0.0
N1402 N 0.73996 0.57524 0.6997 0.0
N1403 N 0.67391 0.56096 0.70839 0.0
H1404 H 0.44865 0.08455 0.71838 0.0
H1405 H 0.40744 0.18634 0.70406 0.0
H1406 H 0.50116 0.16454 0.72871 0.0
H1407 H 0.35307 0.10817 0.70925 0.0
H1408 H 0.44276 0.17838 0.70879 0.0
H1409 H 0.41426 0.09253 0.71016 0.0
C1410 C 0.45304 0.1038 0.71875 0.0
C1411 C 0.47784 0.12391 0.7244 0.0
C1412 C 0.42312 0.16293 0.7088 0.0
C1413 C 0.43845 0.13314 0.71507 0.0
C1414 C 0.40298 0.16743 0.70594 0.0
C1415 C 0.37739 0.14769 0.70573 0.0
C1416 C 0.41757 0.13854 0.71155 0.0
C1417 C 0.37261 0.12375 0.70898 0.0
C1418 C 0.43334 0.10833 0.71415 0.0
C1419 C 0.48232 0.14846 0.72458 0.0
N1420 N 0.39252 0.11977 0.7116 0.0
N1421 N 0.46281 0.15238 0.72005 0.0
H1422 H 0.90415 0.3527 0.71001 0.0
H1423 H 0.79949 0.20799 0.6846 0.0
H1424 H 0.82257 0.32469 0.71132 0.0
H1425 H 0.87701 0.23365 0.70584 0.0
H1426 H 0.80815 0.25108 0.69013 0.0
H1427 H 0.89506 0.30957 0.70379 0.0
C1428 C 0.8843 0.3375 0.70881 0.0
C1429 C 0.86406 0.34232 0.71123 0.0
C1430 C 0.8232 0.24723 0.69366 0.0
C1431 C 0.85361 0.29291 0.70413 0.0
C1432 C 0.81833 0.22268 0.69047 0.0
C1433 C 0.8376 0.21724 0.69476 0.0
C1434 C 0.84761 0.26655 0.70095 0.0
C1435 C 0.86157 0.23699 0.70243 0.0
C1436 C 0.87917 0.31288 0.7054 0.0
C1437 C 0.83875 0.32183 0.70961 0.0
N1438 N 0.86597 0.26083 0.70515 0.0
N1439 N 0.83422 0.298 0.70611 0.0
H1440 H 0.15704 -0.01185 0.65156 0.0
H1441 H 0.30785 0.08695 0.66265 0.0
H1442 H 0.21407 0.96621 0.65557 0.0
H1443 H 0.2508 0.10676 0.67859 0.0
H1444 H 0.27356 0.04294 0.65634 0.0
H1445 H 0.19105 0.03218 0.65852 0.0
C1446 C 0.17667 -0.00743 0.65403 0.0
C1447 C 0.1827 0.97346 0.65299 0.0
C1448 C 0.26858 0.05695 0.66123 0.0
C1449 C 0.22172 0.02377 0.66062 0.0
C1450 C 0.28812 0.08209 0.66467 0.0
C1451 C 0.28218 0.10053 0.67121 0.0
C1452 C 0.24291 0.05028 0.66407 0.0
C1453 C 0.25626 0.09311 0.67371 0.0
C1454 C 0.19606 0.01769 0.65799 0.0
C1455 C 0.2085 0.98029 0.65631 0.0
N1456 N 0.23757 0.06858 0.67009 0.0
N1457 N 0.22708 0.00489 0.6598 0.0
H1458 H 0.02683 0.2357 0.64458 0.0
H1459 H 0.88173 0.13529 0.66711 0.0
H1460 H 0.99679 0.15569 0.63991 0.0
H1461 H 0.90751 0.21237 0.65858 0.0
H1462 H 0.92523 0.14328 0.66167 0.0
H1463 H 0.98485 0.22836 0.65453 0.0
C1464 C 0.0115 0.21659 0.64581 0.0
C1465 C 0.01533 0.19626 0.64124 0.0
C1466 C 0.92144 0.15851 0.66111 0.0
C1467 C 0.96713 0.18775 0.65258 0.0
C1468 C 0.89667 0.15399 0.66437 0.0
C1469 C 0.89128 0.1734 0.66376 0.0
C1470 C 0.94089 0.18255 0.65705 0.0
C1471 C 0.91108 0.19705 0.65945 0.0
C1472 C 0.98749 0.21242 0.65142 0.0
C1473 C 0.9947 0.17193 0.64315 0.0
N1474 N 0.93507 0.20102 0.65637 0.0
N1475 N 0.97148 0.16835 0.6486 0.0
H1476 H 0.82758 0.8263 0.64668 0.0
H1477 H 0.77883 0.68156 0.65364 0.0
H1478 H 0.74723 0.76936 0.64642 0.0
H1479 H 0.85405 0.74059 0.67634 0.0
H1480 H 0.7682 0.7133 0.64679 0.0
H1481 H 0.83891 0.79488 0.65368 0.0
C1482 C 0.81234 0.8072 0.64807 0.0
C1483 C 0.78642 0.80043 0.64599 0.0
C1484 C 0.78701 0.71929 0.65331 0.0
C1485 C 0.79924 0.76446 0.65377 0.0
C1486 C 0.79316 0.70119 0.65714 0.0
C1487 C 0.81734 0.70841 0.66566 0.0
C1488 C 0.8053 0.74486 0.65772 0.0
C1489 C 0.8351 0.73418 0.66991 0.0
C1490 C 0.81882 0.78934 0.65213 0.0
C1491 C 0.76745 0.77543 0.64798 0.0
N1492 N 0.82877 0.7515 0.66581 0.0
N1493 N 0.77424 0.75832 0.65164 0.0
H1494 H 0.99806 0.80977 0.63984 0.0
H1495 H 0.91391 0.66401 0.65496 0.0
H1496 H 0.03182 0.76436 0.64887 0.0
H1497 H 0.88535 0.71493 0.6645 0.0
H1498 H 0.95679 0.69985 0.65028 0.0
H1499 H 0.95594 0.77453 0.6466 0.0
C1500 C 0.99662 0.79238 0.64323 0.0
C1501 C 0.01849 0.78999 0.64375 0.0
C1502 C 0.94119 0.7032 0.6536 0.0
C1503 C 0.97032 0.74953 0.65133 0.0
C1504 C 0.9168 0.6828 0.65624 0.0
C1505 C 0.89636 0.68668 0.66066 0.0
C1506 C 0.94492 0.72755 0.65481 0.0
C1507 C 0.9008 0.71124 0.6617 0.0
C1508 C 0.97259 0.77232 0.64716 0.0
C1509 C 0.01548 0.76704 0.64833 0.0
N1510 N 0.9246 0.73076 0.65877 0.0
N1511 N 0.99182 0.74765 0.6518 0.0
H1512 H 0.18014 0.17783 0.63961 0.0
H1513 H 0.33079 0.24002 0.6639 0.0
H1514 H 0.23136 0.25777 0.6521 0.0
H1515 H 0.27652 0.16168 0.66847 0.0
H1516 H 0.2949 0.24666 0.65729 0.0
H1517 H 0.21543 0.17118 0.64816 0.0
C1518 C 0.19879 0.19398 0.64417 0.0
C1519 C 0.2028 0.21841 0.6451 0.0
C1520 C 0.29081 0.22806 0.65992 0.0
C1521 C 0.24333 0.21092 0.65472 0.0
C1522 C 0.31125 0.22429 0.66366 0.0
C1523 C 0.30648 0.20047 0.66728 0.0
C1524 C 0.26543 0.20766 0.65923 0.0
C1525 C 0.28093 0.18051 0.66634 0.0
C1526 C 0.2189 0.19016 0.6491 0.0
C1527 C 0.22737 0.23861 0.65118 0.0
N1528 N 0.26133 0.18454 0.66238 0.0
N1529 N 0.24672 0.23443 0.65562 0.0
H1530 H 0.75715 0.94436 0.62579 0.0
H1531 H 0.85156 0.08074 0.68097 0.0
H1532 H 0.83152 0.96634 0.65195 0.0
H1533 H 0.77932 0.05956 0.6513 0.0
H1534 H 0.8436 0.03836 0.67223 0.0
H1535 H 0.76388 -0.01432 0.63699 0.0
C1536 C 0.77486 0.95782 0.63401 0.0
C1537 C 0.79387 0.95188 0.63785 0.0
C1538 C 0.82946 0.04296 0.66768 0.0
C1539 C 0.80175 -0.00057 0.65066 0.0
C1540 C 0.83392 0.06715 0.67274 0.0
C1541 C 0.81597 0.07371 0.667 0.0
C1542 C 0.80691 0.02516 0.65674 0.0
C1543 C 0.79371 0.05539 0.65605 0.0
C1544 C 0.77871 0.98147 0.64036 0.0
C1545 C 0.81638 0.97011 0.64861 0.0
N1546 N 0.78981 0.03198 0.65129 0.0
N1547 N 0.81974 -0.00689 0.65458 0.0
H1548 H 0.4701 0.37516 0.74854 0.0
H1549 H 0.43303 0.24171 0.69252 0.0
H1550 H 0.52657 0.35646 0.72817 0.0
H1551 H 0.37785 0.25873 0.7187 0.0
H1552 H 0.46739 0.28438 0.70339 0.0
H1553 H 0.43603 0.33348 0.73547 0.0
C1554 C 0.47537 0.36233 0.74123 0.0
C1555 C 0.50129 0.36931 0.73954 0.0
C1556 C 0.44776 0.27879 0.70672 0.0
C1557 C 0.4622 0.32137 0.72455 0.0
C1558 C 0.42808 0.25444 0.70044 0.0
C1559 C 0.40244 0.24662 0.7046 0.0
C1560 C 0.44179 0.29549 0.71725 0.0
C1561 C 0.3973 0.26386 0.71518 0.0
C1562 C 0.45585 0.33847 0.7338 0.0
C1563 C 0.50687 0.35186 0.72986 0.0
N1564 N 0.41679 0.28746 0.72111 0.0
N1565 N 0.48748 0.32866 0.72277 0.0
H1566 H 0.6552 0.13393 0.72104 0.0
H1567 H 0.7475 0.07797 0.70328 0.0
H1568 H 0.62653 0.0544 0.71004 0.0
H1569 H 0.77111 0.15465 0.69508 0.0
H1570 H 0.70345 0.06915 0.70776 0.0
H1571 H 0.69833 0.14227 0.71343 0.0
C1572 C 0.65796 0.11822 0.71701 0.0
C1573 C 0.63722 0.09341 0.71624 0.0
C1574 C 0.7182 0.08784 0.70476 0.0
C1575 C 0.68659 0.10285 0.70768 0.0
C1576 C 0.74328 0.09285 0.70223 0.0
C1577 C 0.76272 0.11687 0.69834 0.0
C1578 C 0.71273 0.10722 0.70397 0.0
C1579 C 0.7565 0.1357 0.69753 0.0
C1580 C 0.68257 0.12301 0.71259 0.0
C1581 C 0.64194 0.07381 0.71082 0.0
N1582 N 0.73205 0.13051 0.7004 0.0
N1583 N 0.66614 0.07894 0.70691 0.0
H1584 H 0.87913 0.4986 0.69423 0.0
H1585 H 0.84398 0.60442 0.72381 0.0
H1586 H 0.84388 0.50208 0.74849 0.0
H1587 H 0.84962 0.58149 0.66363 0.0
H1588 H 0.84995 0.57083 0.7343 0.0
H1589 H 0.874 0.53266 0.68376 0.0
C1590 C 0.87035 0.50655 0.70395 0.0
C1591 C 0.86186 0.49747 0.72224 0.0
C1592 C 0.84977 0.5731 0.71878 0.0
C1593 C 0.85622 0.53654 0.71045 0.0
C1594 C 0.84655 0.59233 0.71281 0.0
C1595 C 0.84595 0.59543 0.69279 0.0
C1596 C 0.85293 0.55722 0.70462 0.0
C1597 C 0.84927 0.57927 0.67912 0.0
C1598 C 0.86736 0.52591 0.69793 0.0
C1599 C 0.85058 0.50843 0.73422 0.0
N1600 N 0.85275 0.56089 0.68528 0.0
N1601 N 0.84823 0.52749 0.72817 0.0
H1602 H 0.4369 0.90588 0.21897 0.0
H1603 H 0.55403 -0.0056 0.15481 0.0
H1604 H 0.51599 0.92958 0.2337 0.0
H1605 H 0.47422 0.96175 0.13634 0.0
H1606 H 0.54068 0.97155 0.18409 0.0
H1607 H 0.45037 0.92673 0.18888 0.0
C1608 C 0.45711 0.9154 0.21587 0.0
C1609 C 0.47534 0.91599 0.22897 0.0
C1610 C 0.52609 0.96931 0.1736 0.0
C1611 C 0.49094 0.94009 0.19445 0.0
C1612 C 0.53369 0.98247 0.15694 0.0
C1613 C 0.51522 0.98006 0.14311 0.0
C1614 C 0.49979 0.95372 0.17657 0.0
C1615 C 0.48914 0.96401 0.1465 0.0
C1616 C 0.46479 0.9273 0.19864 0.0
C1617 C 0.50125 0.9286 0.22407 0.0
N1618 N 0.48222 0.95158 0.16291 0.0
N1619 N 0.50829 0.94025 0.20726 0.0
H1620 H 0.04494 0.5095 0.2455 0.0
H1621 H 0.02313 0.47799 0.12914 0.0
H1622 H 0.10431 0.51378 0.20794 0.0
H1623 H 0.98313 0.50789 0.16384 0.0
H1624 H 0.04791 0.48182 0.15872 0.0
H1625 H 0.01652 0.49884 0.21634 0.0
C1626 C 0.05186 0.50779 0.23116 0.0
C1627 C 0.07709 0.5127 0.22912 0.0
C1628 C 0.03359 0.4874 0.1598 0.0
C1629 C 0.0447 0.50049 0.19582 0.0
C1630 C 0.01954 0.48543 0.1429 0.0
C1631 C 0.00113 0.49295 0.14382 0.0
C1632 C 0.02897 0.49655 0.17786 0.0
C1633 C 0.99686 0.50163 0.16232 0.0
C1634 C 0.0357 0.50188 0.21455 0.0
C1635 C 0.08507 0.51033 0.21016 0.0
N1636 N 0.0107 0.50322 0.17858 0.0
N1637 N 0.06893 0.50443 0.19421 0.0
H1638 H 0.41421 0.49311 0.20604 0.0
H1639 H 0.53071 0.4927 0.15012 0.0
H1640 H 0.48753 0.51471 0.234 0.0
H1641 H 0.45811 0.47106 0.12087 0.0
H1642 H 0.51391 0.49846 0.18131 0.0
H1643 H 0.42853 0.48234 0.17508 0.0
C1644 C 0.43319 0.49535 0.20574 0.0
C1645 C 0.44974 0.50498 0.22264 0.0
C1646 C 0.50158 0.49237 0.1681 0.0
C1647 C 0.46629 0.49287 0.18728 0.0
C1648 C 0.51113 0.48894 0.15026 0.0
C1649 C 0.49582 0.48136 0.1328 0.0
C1650 C 0.47648 0.48828 0.16858 0.0
C1651 C 0.47074 0.47724 0.13391 0.0
C1652 C 0.44139 0.48929 0.18805 0.0
C1653 C 0.47414 0.50751 0.22136 0.0
N1654 N 0.46186 0.48079 0.15149 0.0
N1655 N 0.48168 0.50163 0.204 0.0
H1656 H 0.97064 0.45927 0.77417 0.0
H1657 H 0.99057 0.50818 0.88838 0.0
H1658 H 0.91884 0.47769 0.80474 0.0
H1659 H 0.02767 0.47073 0.86008 0.0
H1660 H 0.96848 0.50342 0.85698 0.0
H1661 H 0.99673 0.47073 0.80457 0.0
C1662 C 0.96488 0.466 0.78721 0.0
C1663 C 0.94232 0.46725 0.78692 0.0
C1664 C 0.98157 0.49638 0.85768 0.0
C1665 C 0.97214 0.48028 0.82187 0.0
C1666 C 0.99407 0.49892 0.87562 0.0
C1667 C 0.01094 0.48971 0.87698 0.0
C1668 C 0.9861 0.48472 0.84093 0.0
C1669 C 0.01513 0.47842 0.85978 0.0
C1670 C 0.97976 0.47243 0.8046 0.0
C1671 C 0.93596 0.47625 0.80431 0.0
N1672 N 0.00276 0.47621 0.84252 0.0
N1673 N 0.95071 0.48227 0.82113 0.0
H1674 H 0.5427 0.50455 0.78879 0.0
H1675 H 0.54186 0.52623 0.90541 0.0
H1676 H 0.57365 0.47412 0.82778 0.0
H1677 H 0.48871 0.5297 0.86543 0.0
H1678 H 0.55784 0.51147 0.87755 0.0
H1679 H 0.52802 0.51966 0.8172 0.0
C1680 C 0.54667 0.50126 0.80334 0.0
C1681 C 0.55938 0.48796 0.80589 0.0
C1682 C 0.54265 0.51546 0.87495 0.0
C1683 C 0.5425 0.50518 0.83849 0.0
C1684 C 0.53335 0.52372 0.89086 0.0
C1685 C 0.51395 0.52945 0.88785 0.0
C1686 C 0.53273 0.51319 0.85585 0.0
C1687 C 0.50407 0.52615 0.86853 0.0
C1688 C 0.5381 0.50974 0.81954 0.0
C1689 C 0.56385 0.4842 0.82512 0.0
N1690 N 0.51367 0.51842 0.8533 0.0
N1691 N 0.55544 0.49278 0.84071 0.0
H1692 H 0.54894 0.02681 0.78529 0.0
H1693 H 0.48344 0.00772 0.88933 0.0
H1694 H 0.51111 0.06638 0.80773 0.0
H1695 H 0.50318 0.95558 0.8604 0.0
H1696 H 0.49917 0.03318 0.86157 0.0
H1697 H 0.53798 0.00431 0.81483 0.0
C1698 C 0.53856 0.03095 0.79649 0.0
C1699 C 0.5308 0.04842 0.79396 0.0
C1700 C 0.50012 0.0162 0.86131 0.0
C1701 C 0.51823 0.02275 0.82775 0.0
C1702 C 0.49128 0.00174 0.8772 0.0
C1703 C 0.49189 0.97943 0.87713 0.0
C1704 C 0.50986 0.00844 0.84528 0.0
C1705 C 0.50203 0.97246 0.86093 0.0
C1706 C 0.5322 0.01801 0.81329 0.0
C1707 C 0.51733 0.05296 0.80896 0.0
N1708 N 0.51063 -0.01308 0.84565 0.0
N1709 N 0.51146 0.0402 0.82518 0.0
H1710 H 0.18519 0.27294 0.57105 0.0
H1711 H 0.14776 0.31118 0.47265 0.0
H1712 H 0.10853 0.25644 0.55553 0.0
H1713 H 0.22595 0.33636 0.49162 0.0
H1714 H 0.13271 0.28815 0.50168 0.0
H1715 H 0.20013 0.29344 0.5408 0.0
C1716 C 0.17146 0.27349 0.56126 0.0
C1717 C 0.14556 0.263 0.56592 0.0
C1718 C 0.15316 0.29869 0.4995 0.0
C1719 C 0.16257 0.28648 0.53125 0.0
C1720 C 0.16177 0.31173 0.48286 0.0
C1721 C 0.18818 0.32579 0.4797 0.0
C1722 C 0.17106 0.29957 0.51311 0.0
C1723 C 0.20544 0.32605 0.49359 0.0
C1724 C 0.18003 0.28527 0.54401 0.0
C1725 C 0.12868 0.26433 0.55263 0.0
N1726 N 0.19659 0.31314 0.50967 0.0
N1727 N 0.13748 0.27587 0.53595 0.0
H1728 H 0.7786 0.86994 0.54947 0.0
H1729 H 0.64161 0.80436 0.49116 0.0
H1730 H 0.7069 0.82081 0.57526 0.0
H1731 H 0.71271 0.86001 0.46835 0.0
H1732 H 0.66545 0.80706 0.52102 0.0
H1733 H 0.75511 0.86263 0.51832 0.0
C1734 C 0.75794 0.85738 0.54855 0.0
C1735 C 0.7447 0.84613 0.56509 0.0
C1736 C 0.67583 0.8186 0.50944 0.0
C1737 C 0.71761 0.83786 0.52944 0.0
C1738 C 0.6622 0.8172 0.49244 0.0
C1739 C 0.67513 0.83203 0.4772 0.0
C1740 C 0.70259 0.83493 0.51125 0.0
C1741 C 0.70193 0.84798 0.47956 0.0
C1742 C 0.74452 0.8533 0.53075 0.0
C1743 C 0.71791 0.82999 0.56295 0.0
N1744 N 0.71472 0.84905 0.49626 0.0
N1745 N 0.70523 0.82648 0.54549 0.0
H1746 H 0.17941 0.87411 0.58334 0.0
H1747 H 0.14115 0.80233 0.47503 0.0
H1748 H 0.10067 0.8217 0.56326 0.0
H1749 H 0.21907 0.85014 0.49874 0.0
H1750 H 0.12541 0.80927 0.50668 0.0
H1751 H 0.19371 0.86533 0.55206 0.0
C1752 C 0.16506 0.86067 0.57235 0.0
C1753 C 0.13874 0.84868 0.57597 0.0
C1754 C 0.14593 0.81815 0.50494 0.0
C1755 C 0.15514 0.83854 0.53983 0.0
C1756 C 0.15493 0.81433 0.48686 0.0
C1757 C 0.18148 0.82563 0.48425 0.0
C1758 C 0.16363 0.83349 0.52045 0.0
C1759 C 0.19846 0.84076 0.50014 0.0
C1760 C 0.17329 0.85564 0.55444 0.0
C1761 C 0.12114 0.83136 0.56112 0.0
N1762 N 0.18925 0.84427 0.5175 0.0
N1763 N 0.12966 0.82688 0.54364 0.0
H1764 H 0.58566 0.81094 0.14429 0.0
H1765 H 0.7016 0.80619 0.19291 0.0
H1766 H 0.63917 0.79855 0.11023 0.0
H1767 H 0.66459 0.84243 0.22335 0.0
H1768 H 0.67902 0.80338 0.16244 0.0
H1769 H 0.61424 0.82283 0.17346 0.0
C1770 C 0.60356 0.81102 0.14289 0.0
C1771 C 0.60993 0.80353 0.12483 0.0
C1772 C 0.67603 0.81215 0.17576 0.0
C1773 C 0.64251 0.81676 0.15818 0.0
C1774 C 0.68902 0.81387 0.19319 0.0
C1775 C 0.68489 0.82438 0.21084 0.0
C1776 C 0.65852 0.82071 0.17598 0.0
C1777 C 0.66795 0.83362 0.21024 0.0
C1778 C 0.61988 0.81784 0.15954 0.0
C1779 C 0.63344 0.80411 0.12386 0.0
N1780 N 0.6552 0.83133 0.19314 0.0
N1781 N 0.64871 0.81025 0.14037 0.0
H1782 H 0.21275 0.81281 0.11744 0.0
H1783 H 0.17694 0.77711 0.22695 0.0
H1784 H 0.23897 0.77153 0.14848 0.0
H1785 H 0.16216 0.82968 0.20065 0.0
H1786 H 0.20019 0.77547 0.19829 0.0
H1787 H 0.19505 0.82031 0.14776 0.0
C1788 C 0.2151 0.8056 0.13067 0.0
C1789 C 0.22721 0.79134 0.13035 0.0
C1790 C 0.192 0.78749 0.19881 0.0
C1791 C 0.20669 0.79958 0.16502 0.0
C1792 C 0.17877 0.78853 0.21525 0.0
C1793 C 0.16757 0.80362 0.21631 0.0
C1794 C 0.19392 0.80145 0.18312 0.0
C1795 C 0.17015 0.81751 0.20039 0.0
C1796 C 0.20493 0.80984 0.14797 0.0
C1797 C 0.2297 0.78252 0.14797 0.0
N1798 N 0.18297 0.81602 0.18443 0.0
N1799 N 0.21931 0.78657 0.1645 0.0
H1800 H 0.15356 0.37087 0.12197 0.0
H1801 H 0.19654 0.3372 0.21999 0.0
H1802 H 0.23218 0.39154 0.13508 0.0
H1803 H 0.11766 0.30612 0.19957 0.0
H1804 H 0.21068 0.35936 0.19026 0.0
H1805 H 0.14079 0.349 0.15148 0.0
C1806 C 0.1682 0.37081 0.13105 0.0
C1807 C 0.19404 0.38313 0.12599 0.0
C1808 C 0.19029 0.34762 0.19229 0.0
C1809 C 0.17941 0.358 0.16006 0.0
C1810 C 0.18221 0.33511 0.20929 0.0
C1811 C 0.15586 0.3197 0.21223 0.0
C1812 C 0.17188 0.3449 0.17824 0.0
C1813 C 0.13815 0.3175 0.19781 0.0
C1814 C 0.16084 0.35823 0.14793 0.0
C1815 C 0.21205 0.38226 0.13837 0.0
N1816 N 0.14647 0.32998 0.18152 0.0
N1817 N 0.20441 0.36999 0.1549 0.0
H1818 H 0.85032 0.59995 0.9015 0.0
H1819 H 0.81307 0.63977 0.80388 0.0
H1820 H 0.77354 0.58297 0.88577 0.0
H1821 H 0.89132 0.66528 0.82293 0.0
H1822 H 0.79804 0.6164 0.83273 0.0
H1823 H 0.86551 0.62161 0.87175 0.0
C1824 C 0.83663 0.60067 0.89178 0.0
C1825 C 0.8106 0.58966 0.89621 0.0
C1826 C 0.81851 0.6271 0.83062 0.0
C1827 C 0.82789 0.61443 0.86213 0.0
C1828 C 0.8271 0.64033 0.81408 0.0
C1829 C 0.85351 0.65454 0.81097 0.0
C1830 C 0.83642 0.62793 0.84419 0.0
C1831 C 0.8708 0.65483 0.82485 0.0
C1832 C 0.84533 0.6131 0.87482 0.0
C1833 C 0.79378 0.59124 0.88304 0.0
N1834 N 0.86196 0.64171 0.84083 0.0
N1835 N 0.80271 0.60338 0.86664 0.0
H1836 H 0.41484 0.18449 0.89989 0.0
H1837 H 0.3136 0.19881 0.83849 0.0
H1838 H 0.33815 0.1578 0.91963 0.0
H1839 H 0.3571 0.16865 0.80929 0.0
H1840 H 0.32967 0.19545 0.87008 0.0
H1841 H 0.40106 0.19048 0.86789 0.0
C1842 C 0.39521 0.18013 0.89751 0.0
C1843 C 0.37753 0.17063 0.91229 0.0
C1844 C 0.33572 0.18974 0.85667 0.0
C1845 C 0.362 0.17786 0.87624 0.0
C1846 C 0.32641 0.19141 0.83856 0.0
C1847 C 0.33354 0.18361 0.82093 0.0
C1848 C 0.35291 0.18095 0.85727 0.0
C1849 C 0.35115 0.17518 0.82229 0.0
C1850 C 0.38739 0.18342 0.87932 0.0
C1851 C 0.35226 0.16504 0.90852 0.0
N1852 N 0.36028 0.17415 0.84014 0.0
N1853 N 0.34528 0.16898 0.8909 0.0
H1854 H 0.74866 0.15967 0.88701 0.0
H1855 H 0.87585 0.18637 0.83265 0.0
H1856 H 0.82307 0.19003 0.91664 0.0
H1857 H 0.80001 0.14002 0.80462 0.0
H1858 H 0.85636 0.1886 0.86333 0.0
H1859 H 0.76644 0.15257 0.85648 0.0
C1860 C 0.76862 0.1646 0.88717 0.0
C1861 C 0.78442 0.17562 0.90441 0.0
C1862 C 0.84393 0.17782 0.85051 0.0
C1863 C 0.80489 0.16782 0.86956 0.0
C1864 C 0.85508 0.17643 0.83295 0.0
C1865 C 0.8396 0.16289 0.81595 0.0
C1866 C 0.81706 0.1658 0.85116 0.0
C1867 C 0.81275 0.15096 0.81725 0.0
C1868 C 0.77875 0.16057 0.86974 0.0
C1869 C 0.81015 0.18161 0.90373 0.0
N1870 N 0.80232 0.15276 0.83454 0.0
N1871 N 0.81959 0.17783 0.88659 0.0
H1872 H 0.24833 0.15005 0.48188 0.0
H1873 H 0.35472 0.13373 0.53701 0.0
H1874 H 0.28634 0.11287 0.45478 0.0
H1875 H 0.32297 0.17733 0.56326 0.0
H1876 H 0.33081 0.12743 0.50636 0.0
H1877 H 0.27658 0.16196 0.51135 0.0
C1878 C 0.26277 0.14462 0.48202 0.0
C1879 C 0.26481 0.13026 0.46585 0.0
C1880 C 0.32914 0.13848 0.51878 0.0
C1881 C 0.29701 0.14364 0.49957 0.0
C1882 C 0.34292 0.14221 0.5363 0.0
C1883 C 0.34087 0.15606 0.55281 0.0
C1884 C 0.313 0.14855 0.5177 0.0
C1885 C 0.32485 0.16618 0.55103 0.0
C1886 C 0.27885 0.15138 0.49887 0.0
C1887 C 0.2839 0.12379 0.4669 0.0
N1888 N 0.31145 0.16214 0.53382 0.0
N1889 N 0.29909 0.13036 0.48349 0.0
H1890 H 0.88195 0.15529 0.45261 0.0
H1891 H 0.83784 0.10677 0.55839 0.0
H1892 H 0.89973 0.10465 0.47883 0.0
H1893 H 0.82122 0.15901 0.53365 0.0
H1894 H 0.86301 0.10811 0.53014 0.0
H1895 H 0.86254 0.15962 0.48303 0.0
C1896 C 0.88211 0.14535 0.46483 0.0
C1897 C 0.89231 0.12941 0.46307 0.0
C1898 C 0.85397 0.11938 0.5309 0.0
C1899 C 0.86986 0.13408 0.49785 0.0
C1900 C 0.83965 0.11871 0.5471 0.0
C1901 C 0.82734 0.13279 0.54843 0.0
C1902 C 0.85599 0.13416 0.51579 0.0
C1903 C 0.83006 0.14756 0.53312 0.0
C1904 C 0.87091 0.14775 0.48217 0.0
C1905 C 0.89196 0.11702 0.47942 0.0
N1906 N 0.84403 0.14781 0.51742 0.0
N1907 N 0.88073 0.11946 0.49603 0.0
H1908 H 0.89934 0.71839 0.46854 0.0
H1909 H 0.77831 0.63696 0.53233 0.0
H1910 H 0.82284 0.70463 0.45657 0.0
H1911 H 0.8564 0.66377 0.5526 0.0
H1912 H 0.79443 0.65912 0.50305 0.0
H1913 H 0.88416 0.69609 0.49813 0.0
C1914 C 0.87939 0.71069 0.47209 0.0
C1915 C 0.86237 0.71344 0.46003 0.0
C1916 C 0.80809 0.66021 0.51388 0.0
C1917 C 0.8449 0.68786 0.49374 0.0
C1918 C 0.79887 0.64742 0.53055 0.0
C1919 C 0.81602 0.64846 0.54491 0.0
C1920 C 0.83471 0.67407 0.51139 0.0
C1921 C 0.84252 0.66264 0.54196 0.0
C1922 C 0.87077 0.69803 0.489 0.0
C1923 C 0.83673 0.70309 0.46541 0.0
N1924 N 0.85107 0.67482 0.52549 0.0
N1925 N 0.82881 0.69074 0.48177 0.0
loop_
_geom_bond_atom_site_label_1
_geom_bond_atom_site_label_2
_geom_bond_distance
_geom_bond_site_symmetry_2
_ccdc_geom_bond_type
O0 Cd1 2.300 . S
O0 C7 1.275 . S
Cd1 O0 2.300 . S
Cd1 O9 2.381 . S
Cd1 O10 2.378 . S
O2 Cd3 2.385 . S
O2 C7 1.255 . S
Cd3 O2 2.385 . S
Cd3 O4 2.317 . S
O4 Cd3 2.317 . S
O4 C5 1.232 . S
C5 O4 1.232 . S
C5 O6 1.218 . S
O6 C5 1.218 . S
C7 O0 1.275 . S
C7 O2 1.255 . S
C8 O9 1.258 . S
C8 O10 1.256 . S
O9 Cd1 2.381 . S
O9 C8 1.258 . S
O10 Cd1 2.378 . S
O10 C8 1.256 . S
O11 Cd12 2.300 . S
O11 C18 1.275 . S
Cd12 O11 2.300 . S
Cd12 O20 2.381 . S
Cd12 O21 2.378 . S
O13 Cd14 2.385 . S
O13 C18 1.255 . S
Cd14 O13 2.385 . S
Cd14 O15 2.317 . S
O15 Cd14 2.317 . S
O15 C16 1.232 . S
C16 O15 1.232 . S
C16 O17 1.218 . S
O17 C16 1.218 . S
C18 O11 1.275 . S
C18 O13 1.255 . S
C19 O20 1.258 . S
C19 O21 1.256 . S
O20 Cd12 2.381 . S
O20 C19 1.258 . S
O21 Cd12 2.378 . S
O21 C19 1.256 . S
O22 Cd23 2.300 . S
O22 C29 1.275 . S
Cd23 O22 2.300 . S
Cd23 O31 2.381 . S
Cd23 O32 2.378 . S
O24 Cd25 2.385 . S
O24 C29 1.255 . S
Cd25 O24 2.385 . S
Cd25 O26 2.317 . S
O26 Cd25 2.317 . S
O26 C27 1.232 . S
C27 O26 1.232 . S
C27 O28 1.218 . S
O28 C27 1.218 . S
C29 O22 1.275 . S
C29 O24 1.255 . S
C30 O31 1.258 . S
C30 O32 1.256 . S
O31 Cd23 2.381 . S
O31 C30 1.258 . S
O32 Cd23 2.378 . S
O32 C30 1.256 . S
O33 Cd34 2.300 . S
O33 C40 1.275 . S
Cd34 O33 2.300 . S
Cd34 O42 2.381 . S
Cd34 O43 2.378 . S
O35 Cd36 2.385 . S
O35 C40 1.255 . S
Cd36 O35 2.385 . S
Cd36 O37 2.317 . S
O37 Cd36 2.317 . S
O37 C38 1.232 . S
C38 O37 1.232 . S
C38 O39 1.218 . S
O39 C38 1.218 . S
C40 O33 1.275 . S
C40 O35 1.255 . S
C41 O42 1.258 . S
C41 O43 1.256 . S
O42 Cd34 2.381 . S
O42 C41 1.258 . S
O43 Cd34 2.378 . S
O43 C41 1.256 . S
O44 Cd45 2.300 . S
O44 C51 1.275 . S
Cd45 O44 2.300 . S
Cd45 O53 2.381 . S
Cd45 O54 2.378 . S
O46 Cd47 2.385 . S
O46 C51 1.255 . S
Cd47 O46 2.385 . S
Cd47 O48 2.317 . S
O48 Cd47 2.317 . S
O48 C49 1.232 . S
C49 O48 1.232 . S
C49 O50 1.218 . S
O50 C49 1.218 . S
C51 O44 1.275 . S
C51 O46 1.255 . S
C52 O53 1.258 . S
C52 O54 1.256 . S
O53 Cd45 2.381 . S
O53 C52 1.258 . S
O54 Cd45 2.378 . S
O54 C52 1.256 . S
O55 Cd56 2.300 . S
O55 C62 1.275 . S
Cd56 O55 2.300 . S
Cd56 O64 2.381 . S
Cd56 O65 2.378 . S
O57 Cd58 2.385 . S
O57 C62 1.255 . S
Cd58 O57 2.385 . S
Cd58 O59 2.317 . S
O59 Cd58 2.317 . S
O59 C60 1.232 . S
C60 O59 1.232 . S
C60 O61 1.218 . S
O61 C60 1.218 . S
C62 O55 1.275 . S
C62 O57 1.255 . S
C63 O64 1.258 . S
C63 O65 1.256 . S
O64 Cd56 2.381 . S
O64 C63 1.258 . S
O65 Cd56 2.378 . S
O65 C63 1.256 . S
O66 Cd67 2.300 . S
O66 C73 1.275 . S
Cd67 O66 2.300 . S
Cd67 O75 2.381 . S
Cd67 O76 2.378 . S
O68 Cd69 2.385 . S
O68 C73 1.255 . S
Cd69 O68 2.385 . S
Cd69 O70 2.317 . S
O70 Cd69 2.317 . S
O70 C71 1.232 . S
C71 O70 1.232 . S
C71 O72 1.218 . S
O72 C71 1.218 . S
C73 O66 1.275 . S
C73 O68 1.255 . S
C74 O75 1.258 . S
C74 O76 1.256 . S
O75 Cd67 2.381 . S
O75 C74 1.258 . S
O76 Cd67 2.378 . S
O76 C74 1.256 . S
O77 Cd78 2.300 . S
O77 C84 1.275 . S
Cd78 O77 2.300 . S
Cd78 O86 2.381 . S
Cd78 O87 2.378 . S
O79 Cd80 2.385 . S
O79 C84 1.255 . S
Cd80 O79 2.385 . S
Cd80 O81 2.317 . S
O81 Cd80 2.317 . S
O81 C82 1.232 . S
C82 O81 1.232 . S
C82 O83 1.218 . S
O83 C82 1.218 . S
C84 O77 1.275 . S
C84 O79 1.255 . S
C85 O86 1.258 . S
C85 O87 1.256 . S
O86 Cd78 2.381 . S
O86 C85 1.258 . S
O87 Cd78 2.378 . S
O87 C85 1.256 . S
O88 Cd89 2.300 . S
O88 C95 1.275 . S
Cd89 O88 2.300 . S
Cd89 O97 2.381 . S
Cd89 O98 2.378 . S
O90 Cd91 2.385 . S
O90 C95 1.255 . S
Cd91 O90 2.385 . S
Cd91 O92 2.317 . S
O92 Cd91 2.317 . S
O92 C93 1.232 . S
C93 O92 1.232 . S
C93 O94 1.218 . S
O94 C93 1.218 . S
C95 O88 1.275 . S
C95 O90 1.255 . S
C96 O97 1.258 . S
C96 O98 1.256 . S
O97 Cd89 2.381 . S
O97 C96 1.258 . S
O98 Cd89 2.378 . S
O98 C96 1.256 . S
O99 Cd100 2.300 . S
O99 C106 1.275 . S
Cd100 O99 2.300 . S
Cd100 O108 2.381 . S
Cd100 O109 2.378 . S
O101 Cd102 2.385 . S
O101 C106 1.255 . S
Cd102 O101 2.385 . S
Cd102 O103 2.317 . S
O103 Cd102 2.317 . S
O103 C104 1.232 . S
C104 O103 1.232 . S
C104 O105 1.218 . S
O105 C104 1.218 . S
C106 O99 1.275 . S
C106 O101 1.255 . S
C107 O108 1.258 . S
C107 O109 1.256 . S
O108 Cd100 2.381 . S
O108 C107 1.258 . S
O109 Cd100 2.378 . S
O109 C107 1.256 . S
O110 Cd111 2.300 . S
O110 C117 1.275 . S
Cd111 O110 2.300 . S
Cd111 O119 2.381 . S
Cd111 O120 2.378 . S
O112 Cd113 2.385 . S
O112 C117 1.255 . S
Cd113 O112 2.385 . S
Cd113 O114 2.317 . S
O114 Cd113 2.317 . S
O114 C115 1.232 . S
C115 O114 1.232 . S
C115 O116 1.218 . S
O116 C115 1.218 . S
C117 O110 1.275 . S
C117 O112 1.255 . S
C118 O119 1.258 . S
C118 O120 1.256 . S
O119 Cd111 2.381 . S
O119 C118 1.258 . S
O120 Cd111 2.378 . S
O120 C118 1.256 . S
O121 Cd122 2.300 . S
O121 C128 1.275 . S
Cd122 O121 2.300 . S
Cd122 O130 2.381 . S
Cd122 O131 2.378 . S
O123 Cd124 2.385 . S
O123 C128 1.255 . S
Cd124 O123 2.385 . S
Cd124 O125 2.317 . S
O125 Cd124 2.317 . S
O125 C126 1.232 . S
C126 O125 1.232 . S
C126 O127 1.218 . S
O127 C126 1.218 . S
C128 O121 1.275 . S
C128 O123 1.255 . S
C129 O130 1.258 . S
C129 O131 1.256 . S
O130 Cd122 2.381 . S
O130 C129 1.258 . S
O131 Cd122 2.378 . S
O131 C129 1.256 . S
O132 Cd133 2.300 . S
O132 C139 1.275 . S
Cd133 O132 2.300 . S
Cd133 O141 2.381 . S
Cd133 O142 2.378 . S
O134 Cd135 2.385 . S
O134 C139 1.255 . S
Cd135 O134 2.385 . S
Cd135 O136 2.317 . S
O136 Cd135 2.317 . S
O136 C137 1.232 . S
C137 O136 1.232 . S
C137 O138 1.218 . S
O138 C137 1.218 . S
C139 O132 1.275 . S
C139 O134 1.255 . S
C140 O141 1.258 . S
C140 O142 1.256 . S
O141 Cd133 2.381 . S
O141 C140 1.258 . S
O142 Cd133 2.378 . S
O142 C140 1.256 . S
O143 Cd144 2.300 . S
O143 C150 1.275 . S
Cd144 O143 2.300 . S
Cd144 O152 2.381 . S
Cd144 O153 2.378 . S
O145 Cd146 2.385 . S
O145 C150 1.255 . S
Cd146 O145 2.385 . S
Cd146 O147 2.317 . S
O147 Cd146 2.317 . S
O147 C148 1.232 . S
C148 O147 1.232 . S
C148 O149 1.218 . S
O149 C148 1.218 . S
C150 O143 1.275 . S
C150 O145 1.255 . S
C151 O152 1.258 . S
C151 O153 1.256 . S
O152 Cd144 2.381 . S
O152 C151 1.258 . S
O153 Cd144 2.378 . S
O153 C151 1.256 . S
O154 Cd155 2.300 . S
O154 C161 1.275 . S
Cd155 O154 2.300 . S
Cd155 O163 2.381 . S
Cd155 O164 2.378 . S
O156 Cd157 2.385 . S
O156 C161 1.255 . S
Cd157 O156 2.385 . S
Cd157 O158 2.317 . S
O158 Cd157 2.317 . S
O158 C159 1.232 . S
C159 O158 1.232 . S
C159 O160 1.218 . S
O160 C159 1.218 . S
C161 O154 1.275 . S
C161 O156 1.255 . S
C162 O163 1.258 . S
C162 O164 1.256 . S
O163 Cd155 2.381 . S
O163 C162 1.258 . S
O164 Cd155 2.378 . S
O164 C162 1.256 . S
O165 Cd166 2.300 . S
O165 C172 1.275 . S
Cd166 O165 2.300 . S
Cd166 O174 2.381 . S
Cd166 O175 2.378 . S
O167 Cd168 2.385 . S
O167 C172 1.255 . S
Cd168 O167 2.385 . S
Cd168 O169 2.317 . S
O169 Cd168 2.317 . S
O169 C170 1.232 . S
C170 O169 1.232 . S
C170 O171 1.218 . S
O171 C170 1.218 . S
C172 O165 1.275 . S
C172 O167 1.255 . S
C173 O174 1.258 . S
C173 O175 1.256 . S
O174 Cd166 2.381 . S
O174 C173 1.258 . S
O175 Cd166 2.378 . S
O175 C173 1.256 . S
O176 Cd177 2.300 . S
O176 C183 1.275 . S
Cd177 O176 2.300 . S
Cd177 O185 2.381 . S
Cd177 O186 2.378 . S
O178 Cd179 2.385 . S
O178 C183 1.255 . S
Cd179 O178 2.385 . S
Cd179 O180 2.317 . S
O180 Cd179 2.317 . S
O180 C181 1.232 . S
C181 O180 1.232 . S
C181 O182 1.218 . S
O182 C181 1.218 . S
C183 O176 1.275 . S
C183 O178 1.255 . S
C184 O185 1.258 . S
C184 O186 1.256 . S
O185 Cd177 2.381 . S
O185 C184 1.258 . S
O186 Cd177 2.378 . S
O186 C184 1.256 . S
O187 Cd188 2.300 . S
O187 C194 1.275 . S
Cd188 O187 2.300 . S
Cd188 O196 2.381 . S
Cd188 O197 2.378 . S
O189 Cd190 2.385 . S
O189 C194 1.255 . S
Cd190 O189 2.385 . S
Cd190 O191 2.317 . S
O191 Cd190 2.317 . S
O191 C192 1.232 . S
C192 O191 1.232 . S
C192 O193 1.218 . S
O193 C192 1.218 . S
C194 O187 1.275 . S
C194 O189 1.255 . S
C195 O196 1.258 . S
C195 O197 1.256 . S
O196 Cd188 2.381 . S
O196 C195 1.258 . S
O197 Cd188 2.378 . S
O197 C195 1.256 . S
Eu198 N229 2.657 . S
Eu198 N236 2.609 . S
Eu198 O242 2.558 . S
Eu198 O243 2.612 1_566 S
Eu198 O245 2.339 1_565 S
Eu198 O246 2.563 1_565 S
Eu198 O247 2.419 1_565 S
Eu198 O249 2.380 1_556 S
Eu198 O250 2.432 . S
Eu198 C262 2.848 . S
C199 C202 1.429 . S
C199 C203 1.411 . S
C199 N206 1.377 . S
C200 C202 1.420 . S
C200 C204 1.423 . S
C200 C212 1.392 . S
C201 C203 1.420 . S
C201 C204 1.351 . S
C201 H224 0.931 . S
C202 C199 1.429 . S
C202 C200 1.420 . S
C202 N210 1.362 . S
C203 C199 1.411 . S
C203 C201 1.420 . S
C203 C208 1.395 . S
C204 C200 1.423 . S
C204 C201 1.351 . S
C204 H216 0.930 . S
C205 C207 1.400 . S
C205 C208 1.386 . S
C205 H217 0.930 . S
N206 C199 1.377 . S
N206 C207 1.321 . S
N206 Eu209 2.609 . S
C207 C205 1.400 . S
C207 N206 1.321 . S
C207 H214 0.930 . S
C208 C203 1.395 . S
C208 C205 1.386 . S
C208 H227 0.930 . S
Eu209 N206 2.609 . S
Eu209 N210 2.657 . S
Eu209 O243 2.380 . S
Eu209 O244 2.432 . S
Eu209 O248 2.558 . S
Eu209 O249 2.612 1_545 S
Eu209 O251 2.339 1_545 S
Eu209 O252 2.563 1_545 S
Eu209 O253 2.419 . S
Eu209 C273 2.848 . S
N210 C202 1.362 . S
N210 Eu209 2.657 . S
N210 C211 1.334 . S
C211 N210 1.334 . S
C211 C213 1.413 . S
C211 H218 0.929 . S
C212 C200 1.392 . S
C212 C213 1.367 . S
C212 H220 0.930 . S
C213 C211 1.413 . S
C213 C212 1.367 . S
C213 H215 0.930 . S
H214 C207 0.930 . S
H215 C213 0.930 . S
H216 C204 0.930 . S
H217 C205 0.930 . S
H218 C211 0.929 . S
H219 C233 0.930 . S
H220 C212 0.930 . S
H221 C239 0.930 . S
H222 C230 0.929 . S
H223 C237 0.930 . S
H224 C201 0.931 . S
H225 C231 0.930 . S
H226 C264 0.930 . S
H227 C208 0.930 . S
H228 C263 0.931 . S
N229 Eu198 2.657 . S
N229 C230 1.334 . S
N229 C234 1.362 . S
C230 H222 0.929 . S
C230 N229 1.334 . S
C230 C233 1.413 . S
C231 H225 0.930 . S
C231 C232 1.392 . S
C231 C233 1.367 . S
C232 C231 1.392 . S
C232 C234 1.420 . S
C232 C264 1.423 . S
C233 H219 0.930 . S
C233 C230 1.413 . S
C233 C231 1.367 . S
C234 N229 1.362 . S
C234 C232 1.420 . S
C234 C238 1.429 . S
H235 C240 0.930 . S
N236 Eu198 2.609 . S
N236 C238 1.377 . S
N236 C239 1.321 . S
C237 H223 0.930 . S
C237 C239 1.400 . S
C237 C240 1.386 . S
C238 C234 1.429 . S
C238 N236 1.377 . S
C238 C241 1.411 . S
C239 H221 0.930 . S
C239 N236 1.321 . S
C239 C237 1.400 . S
C240 H235 0.930 . S
C240 C237 1.386 . S
C240 C241 1.395 . S
C241 C238 1.411 . S
C241 C240 1.395 . S
C241 C263 1.420 . S
O242 Eu198 2.558 . S
O242 C262 1.257 . S
O243 Eu198 2.612 1_544 S
O243 Eu209 2.380 . S
O243 C254 1.276 1_554 S
O244 Eu209 2.432 . S
O244 C261 1.259 . S
O245 Eu198 2.339 1_545 S
O245 C261 1.257 1_556 S
O246 Eu198 2.563 1_545 S
O246 C254 1.235 . S
O247 Eu198 2.419 1_545 S
O247 C262 1.249 1_545 S
O248 Eu209 2.558 . S
O248 C273 1.257 . S
O249 Eu198 2.380 1_554 S
O249 Eu209 2.612 1_565 S
O249 C265 1.276 . S
O250 Eu198 2.432 . S
O250 C272 1.264 1_556 S
O251 Eu209 2.339 1_565 S
O251 C272 1.254 . S
O252 Eu209 2.563 1_565 S
O252 C265 1.235 . S
O253 Eu209 2.419 . S
O253 C273 1.249 . S
C254 O243 1.276 1_556 S
C254 O246 1.235 . S
C255 C257 1.393 1_565 S
C255 C259 1.395 . S
C255 C262 1.492 . S
C256 C257 1.392 . S
C256 C258 1.386 . S
C257 C255 1.393 1_545 S
C257 C256 1.392 . S
C257 H274 0.930 . S
C258 C256 1.386 . S
C258 C260 1.395 1_545 S
C258 H275 0.930 . S
C259 C255 1.395 . S
C259 C260 1.379 . S
C259 H276 0.930 . S
C260 C258 1.395 1_565 S
C260 C259 1.379 . S
C260 H277 0.930 . S
C261 O244 1.259 . S
C261 O245 1.257 1_554 S
C262 Eu198 2.848 . S
C262 O242 1.257 . S
C262 O247 1.249 1_565 S
C262 C255 1.492 . S
C263 H228 0.931 . S
C263 C241 1.420 . S
C263 C264 1.351 . S
C264 H226 0.930 . S
C264 C232 1.423 . S
C264 C263 1.351 . S
C265 O249 1.276 . S
C265 O252 1.235 . S
C266 C267 1.393 1_545 S
C266 C270 1.395 . S
C266 C273 1.492 . S
C267 C266 1.393 1_565 S
C267 C268 1.392 . S
C267 H278 0.930 . S
C268 C267 1.392 . S
C268 C269 1.386 . S
C269 C268 1.386 . S
C269 C271 1.395 1_565 S
C269 H279 0.930 . S
C270 C266 1.395 . S
C270 C271 1.379 . S
C270 H280 0.930 . S
C271 C269 1.395 1_545 S
C271 C270 1.379 . S
C271 H281 0.930 . S
C272 O250 1.264 1_554 S
C272 O251 1.254 . S
C273 Eu209 2.848 . S
C273 O248 1.257 . S
C273 O253 1.249 . S
C273 C266 1.492 . S
H274 C257 0.930 . S
H275 C258 0.930 . S
H276 C259 0.930 . S
H277 C260 0.930 . S
H278 C267 0.930 . S
H279 C269 0.930 . S
H280 C270 0.930 . S
H281 C271 0.930 . S
Eu282 N313 2.657 . S
Eu282 N320 2.609 . S
Eu282 O326 2.558 . S
Eu282 O327 2.612 1_456 S
Eu282 O329 2.339 1_455 S
Eu282 O330 2.563 1_455 S
Eu282 O331 2.419 1_455 S
Eu282 O333 2.380 1_556 S
Eu282 O334 2.432 1_556 S
Eu282 C346 2.848 . S
C283 C286 1.429 . S
C283 C287 1.411 . S
C283 N290 1.377 . S
C284 C286 1.420 . S
C284 C288 1.423 . S
C284 C296 1.392 . S
C285 C287 1.420 . S
C285 C288 1.351 . S
C285 H308 0.931 . S
C286 C283 1.429 . S
C286 C284 1.420 . S
C286 N294 1.362 . S
C287 C283 1.411 . S
C287 C285 1.420 . S
C287 C292 1.395 . S
C288 C284 1.423 . S
C288 C285 1.351 . S
C288 H300 0.930 . S
C289 C291 1.400 . S
C289 C292 1.386 . S
C289 H301 0.930 . S
N290 C283 1.377 . S
N290 C291 1.321 . S
N290 Eu293 2.609 . S
C291 C289 1.400 . S
C291 N290 1.321 . S
C291 H298 0.930 . S
C292 C287 1.395 . S
C292 C289 1.386 . S
C292 H311 0.930 . S
Eu293 N290 2.609 . S
Eu293 N294 2.657 . S
Eu293 O327 2.380 . S
Eu293 O328 2.432 . S
Eu293 O332 2.558 . S
Eu293 O333 2.612 1_655 S
Eu293 O335 2.339 1_655 S
Eu293 O336 2.563 1_655 S
Eu293 O337 2.419 1_655 S
Eu293 C357 2.848 1_655 S
N294 C286 1.362 . S
N294 Eu293 2.657 . S
N294 C295 1.334 . S
C295 N294 1.334 . S
C295 C297 1.413 . S
C295 H302 0.929 1_655 S
C296 C284 1.392 . S
C296 C297 1.367 . S
C296 H304 0.930 . S
C297 C295 1.413 . S
C297 C296 1.367 . S
C297 H299 0.930 . S
H298 C291 0.930 . S
H299 C297 0.930 . S
H300 C288 0.930 . S
H301 C289 0.930 . S
H302 C295 0.929 1_455 S
H303 C317 0.930 . S
H304 C296 0.930 . S
H305 C323 0.930 . S
H306 C314 0.924 1_655 S
H307 C321 0.930 . S
H308 C285 0.931 . S
H309 C315 0.930 . S
H310 C348 0.930 . S
H311 C292 0.930 . S
H312 C347 0.931 . S
N313 Eu282 2.657 . S
N313 C314 1.334 . S
N313 C318 1.362 . S
C314 H306 0.924 1_455 S
C314 N313 1.334 . S
C314 C317 1.413 . S
C315 H309 0.930 . S
C315 C316 1.392 . S
C315 C317 1.367 . S
C316 C315 1.392 . S
C316 C318 1.420 . S
C316 C348 1.423 . S
C317 H303 0.930 . S
C317 C314 1.413 . S
C317 C315 1.367 . S
C318 N313 1.362 . S
C318 C316 1.420 . S
C318 C322 1.429 . S
H319 C324 0.930 . S
N320 Eu282 2.609 . S
N320 C322 1.377 . S
N320 C323 1.321 . S
C321 H307 0.930 . S
C321 C323 1.400 . S
C321 C324 1.386 . S
C322 C318 1.429 . S
C322 N320 1.377 . S
C322 C325 1.411 . S
C323 H305 0.930 . S
C323 N320 1.321 . S
C323 C321 1.400 . S
C324 H319 0.930 . S
C324 C321 1.386 . S
C324 C325 1.395 . S
C325 C322 1.411 . S
C325 C324 1.395 . S
C325 C347 1.420 . S
O326 Eu282 2.558 . S
O326 C346 1.257 . S
O327 Eu282 2.612 1_654 S
O327 Eu293 2.380 . S
O327 C338 1.276 1_554 S
O328 Eu293 2.432 . S
O328 C345 1.264 . S
O329 Eu282 2.339 1_655 S
O329 C345 1.254 1_556 S
O330 Eu282 2.563 1_655 S
O330 C338 1.235 . S
O331 Eu282 2.419 1_655 S
O331 C346 1.249 1_655 S
O332 Eu293 2.558 . S
O332 C357 1.257 1_655 S
O333 Eu282 2.380 1_554 S
O333 Eu293 2.612 1_455 S
O333 C349 1.276 . S
O334 Eu282 2.432 1_554 S
O334 C356 1.264 . S
O335 Eu293 2.339 1_455 S
O335 C356 1.254 . S
O336 Eu293 2.563 1_455 S
O336 C349 1.235 . S
O337 Eu293 2.419 1_455 S
O337 C357 1.249 . S
C338 O327 1.276 1_556 S
C338 O330 1.235 . S
C339 C341 1.393 . S
C339 C343 1.395 1_655 S
C339 C346 1.492 1_655 S
C340 C341 1.392 . S
C340 C342 1.386 . S
C341 C339 1.393 . S
C341 C340 1.392 . S
C341 H358 0.930 . S
C342 C340 1.386 . S
C342 C344 1.395 1_655 S
C342 H359 0.930 . S
C343 C339 1.395 1_455 S
C343 C344 1.379 . S
C343 H360 0.930 . S
C344 C342 1.395 1_455 S
C344 C343 1.379 . S
C344 H361 0.930 . S
C345 O328 1.264 . S
C345 O329 1.254 1_554 S
C346 Eu282 2.848 . S
C346 O326 1.257 . S
C346 O331 1.249 1_455 S
C346 C339 1.492 1_455 S
C347 H312 0.931 . S
C347 C325 1.420 . S
C347 C348 1.351 . S
C348 H310 0.930 . S
C348 C316 1.423 . S
C348 C347 1.351 . S
C349 O333 1.276 . S
C349 O336 1.235 . S
C350 C351 1.393 . S
C350 C354 1.395 1_455 S
C350 C357 1.492 . S
C351 C350 1.393 . S
C351 C352 1.392 . S
C351 H362 0.930 . S
C352 C351 1.392 . S
C352 C353 1.386 . S
C353 C352 1.386 . S
C353 C355 1.389 1_455 S
C353 H363 0.930 . S
C354 C350 1.395 1_655 S
C354 C355 1.381 . S
C354 H364 0.930 . S
C355 C353 1.389 1_655 S
C355 C354 1.381 . S
C355 H365 0.933 . S
C356 O334 1.264 . S
C356 O335 1.254 . S
C357 Eu293 2.848 1_455 S
C357 O332 1.257 1_455 S
C357 O337 1.249 . S
C357 C350 1.492 . S
H358 C341 0.930 . S
H359 C342 0.930 . S
H360 C343 0.930 . S
H361 C344 0.930 . S
H362 C351 0.930 . S
H363 C353 0.930 . S
H364 C354 0.930 . S
H365 C355 0.933 . S
Eu366 N397 2.657 . S
Eu366 N404 2.609 . S
Eu366 O410 2.558 . S
Eu366 O411 2.612 . S
Eu366 O413 2.339 . S
Eu366 O414 2.563 . S
Eu366 O415 2.419 . S
Eu366 O417 2.433 . S
Eu366 O418 2.432 . S
Eu366 C430 2.848 . S
C367 C370 1.429 . S
C367 C371 1.411 . S
C367 N374 1.377 . S
C368 C370 1.420 . S
C368 C372 1.423 . S
C368 C380 1.392 . S
C369 C371 1.420 . S
C369 C372 1.351 . S
C369 H392 0.931 . S
C370 C367 1.429 . S
C370 C368 1.420 . S
C370 N378 1.362 . S
C371 C367 1.411 . S
C371 C369 1.420 . S
C371 C376 1.395 . S
C372 C368 1.423 . S
C372 C369 1.351 . S
C372 H384 0.930 . S
C373 C375 1.400 . S
C373 C376 1.386 . S
C373 H385 0.930 . S
N374 C367 1.377 . S
N374 C375 1.321 . S
N374 Eu377 2.609 . S
C375 C373 1.400 . S
C375 N374 1.321 . S
C375 H382 0.930 . S
C376 C371 1.395 . S
C376 C373 1.386 . S
C376 H395 0.930 . S
Eu377 N374 2.609 . S
Eu377 N378 2.657 . S
Eu377 O411 2.380 1_556 S
Eu377 O412 2.432 . S
Eu377 O416 2.558 . S
Eu377 O417 2.573 1_556 S
Eu377 O419 2.339 . S
Eu377 O420 2.563 . S
Eu377 O421 2.419 . S
Eu377 C441 2.848 . S
N378 C370 1.362 . S
N378 Eu377 2.657 . S
N378 C379 1.334 . S
C379 N378 1.334 . S
C379 C381 1.413 . S
C379 H386 0.929 . S
C380 C368 1.392 . S
C380 C381 1.367 . S
C380 H388 0.930 . S
C381 C379 1.413 . S
C381 C380 1.367 . S
C381 H383 0.930 . S
H382 C375 0.930 . S
H383 C381 0.930 . S
H384 C372 0.930 . S
H385 C373 0.930 . S
H386 C379 0.929 . S
H387 C401 0.930 . S
H388 C380 0.930 . S
H389 C407 0.930 . S
H390 C398 0.929 . S
H391 C405 0.930 . S
H392 C369 0.931 . S
H393 C399 0.930 . S
H394 C432 0.930 . S
H395 C376 0.930 . S
H396 C431 0.931 . S
N397 Eu366 2.657 . S
N397 C398 1.334 . S
N397 C402 1.362 . S
C398 H390 0.929 . S
C398 N397 1.334 . S
C398 C401 1.413 . S
C399 H393 0.930 . S
C399 C400 1.392 . S
C399 C401 1.367 . S
C400 C399 1.392 . S
C400 C402 1.420 . S
C400 C432 1.423 . S
C401 H387 0.930 . S
C401 C398 1.413 . S
C401 C399 1.367 . S
C402 N397 1.362 . S
C402 C400 1.420 . S
C402 C406 1.429 . S
H403 C408 0.930 . S
N404 Eu366 2.609 . S
N404 C406 1.377 . S
N404 C407 1.321 . S
C405 H391 0.930 . S
C405 C407 1.400 . S
C405 C408 1.386 . S
C406 C402 1.429 . S
C406 N404 1.377 . S
C406 C409 1.411 . S
C407 H389 0.930 . S
C407 N404 1.321 . S
C407 C405 1.400 . S
C408 H403 0.930 . S
C408 C405 1.386 . S
C408 C409 1.395 . S
C409 C406 1.411 . S
C409 C408 1.395 . S
C409 C431 1.420 . S
O410 Eu366 2.558 . S
O410 C430 1.257 . S
O411 Eu366 2.612 . S
O411 Eu377 2.380 1_554 S
O411 C422 1.276 . S
O412 Eu377 2.432 . S
O412 C429 1.264 1_556 S
O413 Eu366 2.339 . S
O413 C429 1.254 . S
O414 Eu366 2.563 . S
O414 C422 1.235 . S
O415 Eu366 2.419 . S
O415 C430 1.249 . S
O416 Eu377 2.558 . S
O416 C441 1.257 . S
O417 Eu366 2.433 . S
O417 Eu377 2.573 1_554 S
O417 C433 1.237 1_554 S
O418 Eu366 2.432 . S
O418 C440 1.264 1_554 S
O419 Eu377 2.339 . S
O419 C440 1.254 . S
O420 Eu377 2.563 . S
O420 C433 1.235 . S
O421 Eu377 2.419 . S
O421 C441 1.249 . S
C422 O411 1.276 . S
C422 O414 1.235 . S
C423 C425 1.393 . S
C423 C427 1.395 . S
C423 C430 1.492 . S
C424 C425 1.392 . S
C424 C426 1.386 . S
C425 C423 1.393 . S
C425 C424 1.392 . S
C425 H442 0.930 . S
C426 C424 1.386 . S
C426 C428 1.395 . S
C426 H443 0.930 . S
C427 C423 1.395 . S
C427 C428 1.379 . S
C427 H444 0.930 . S
C428 C426 1.395 . S
C428 C427 1.379 . S
C428 H445 0.930 . S
C429 O412 1.264 1_554 S
C429 O413 1.254 . S
C430 Eu366 2.848 . S
C430 O410 1.257 . S
C430 O415 1.249 . S
C430 C423 1.492 . S
C431 H396 0.931 . S
C431 C409 1.420 . S
C431 C432 1.351 . S
C432 H394 0.930 . S
C432 C400 1.423 . S
C432 C431 1.351 . S
C433 O417 1.237 1_556 S
C433 O420 1.235 . S
C434 C435 1.393 . S
C434 C438 1.395 . S
C434 C441 1.492 . S
C435 C434 1.393 . S
C435 C436 1.392 . S
C435 H446 0.930 . S
C436 C435 1.392 . S
C436 C437 1.386 . S
C437 C436 1.386 . S
C437 C439 1.395 . S
C437 H447 0.930 . S
C438 C434 1.395 . S
C438 C439 1.379 . S
C438 H448 0.930 . S
C439 C437 1.395 . S
C439 C438 1.379 . S
C439 H449 0.930 . S
C440 O418 1.264 1_556 S
C440 O419 1.254 . S
C441 Eu377 2.848 . S
C441 O416 1.257 . S
C441 O421 1.249 . S
C441 C434 1.492 . S
H442 C425 0.930 . S
H443 C426 0.930 . S
H444 C427 0.930 . S
H445 C428 0.930 . S
H446 C435 0.930 . S
H447 C437 0.930 . S
H448 C438 0.930 . S
H449 C439 0.930 . S
Eu450 N481 2.657 . S
Eu450 N488 2.609 . S
Eu450 O494 2.558 . S
Eu450 O495 2.612 . S
Eu450 O497 2.339 . S
Eu450 O498 2.563 . S
Eu450 O499 2.419 . S
Eu450 O501 2.380 . S
Eu450 O502 2.432 . S
Eu450 C514 2.848 . S
C451 C454 1.429 . S
C451 C455 1.411 . S
C451 N458 1.377 . S
C452 C454 1.420 . S
C452 C456 1.423 . S
C452 C464 1.392 . S
C453 C455 1.420 . S
C453 C456 1.351 . S
C453 H476 0.931 . S
C454 C451 1.429 . S
C454 C452 1.420 . S
C454 N462 1.362 . S
C455 C451 1.411 . S
C455 C453 1.420 . S
C455 C460 1.395 . S
C456 C452 1.423 . S
C456 C453 1.351 . S
C456 H468 0.930 . S
C457 C459 1.400 . S
C457 C460 1.386 . S
C457 H469 0.930 . S
N458 C451 1.377 . S
N458 C459 1.321 . S
N458 Eu461 2.609 . S
C459 C457 1.400 . S
C459 N458 1.321 . S
C459 H466 0.930 . S
C460 C455 1.395 . S
C460 C457 1.386 . S
C460 H479 0.930 . S
Eu461 N458 2.609 . S
Eu461 N462 2.657 . S
Eu461 O495 2.380 . S
Eu461 O496 2.432 . S
Eu461 O500 2.558 . S
Eu461 O501 2.612 . S
Eu461 O503 2.339 . S
Eu461 O504 2.563 . S
Eu461 O505 2.419 . S
Eu461 C525 2.848 . S
N462 C454 1.362 . S
N462 Eu461 2.657 . S
N462 C463 1.334 . S
C463 N462 1.334 . S
C463 C465 1.413 . S
C463 H470 0.929 . S
C464 C452 1.392 . S
C464 C465 1.367 . S
C464 H472 0.930 . S
C465 C463 1.413 . S
C465 C464 1.367 . S
C465 H467 0.930 . S
H466 C459 0.930 . S
H467 C465 0.930 . S
H468 C456 0.930 . S
H469 C457 0.930 . S
H470 C463 0.929 . S
H471 C485 0.930 . S
H472 C464 0.930 . S
H473 C491 0.930 . S
H474 C482 0.929 . S
H475 C489 0.930 . S
H476 C453 0.931 . S
H477 C483 0.930 . S
H478 C516 0.930 . S
H479 C460 0.930 . S
H480 C515 0.931 . S
N481 Eu450 2.657 . S
N481 C482 1.334 . S
N481 C486 1.362 . S
C482 H474 0.929 . S
C482 N481 1.334 . S
C482 C485 1.413 . S
C483 H477 0.930 . S
C483 C484 1.392 . S
C483 C485 1.367 . S
C484 C483 1.392 . S
C484 C486 1.420 . S
C484 C516 1.423 . S
C485 H471 0.930 . S
C485 C482 1.413 . S
C485 C483 1.367 . S
C486 N481 1.362 . S
C486 C484 1.420 . S
C486 C490 1.429 . S
H487 C492 0.930 . S
N488 Eu450 2.609 . S
N488 C490 1.377 . S
N488 C491 1.321 . S
C489 H475 0.930 . S
C489 C491 1.400 . S
C489 C492 1.386 . S
C490 C486 1.429 . S
C490 N488 1.377 . S
C490 C493 1.411 . S
C491 H473 0.930 . S
C491 N488 1.321 . S
C491 C489 1.400 . S
C492 H487 0.930 . S
C492 C489 1.386 . S
C492 C493 1.395 . S
C493 C490 1.411 . S
C493 C492 1.395 . S
C493 C515 1.420 . S
O494 Eu450 2.558 . S
O494 C514 1.257 . S
O495 Eu450 2.612 . S
O495 Eu461 2.380 . S
O495 C506 1.276 . S
O496 Eu461 2.432 . S
O496 C513 1.264 . S
O497 Eu450 2.339 . S
O497 C513 1.254 . S
O498 Eu450 2.563 . S
O498 C506 1.235 . S
O499 Eu450 2.419 . S
O499 C514 1.249 . S
O500 Eu461 2.558 . S
O500 C525 1.257 . S
O501 Eu450 2.380 . S
O501 Eu461 2.612 . S
O501 C517 1.276 . S
O502 Eu450 2.432 . S
O502 C524 1.264 . S
O503 Eu461 2.339 . S
O503 C524 1.254 . S
O504 Eu461 2.563 . S
O504 C517 1.235 . S
O505 Eu461 2.419 . S
O505 C525 1.249 . S
C506 O495 1.276 . S
C506 O498 1.235 . S
C507 C509 1.393 . S
C507 C511 1.395 . S
C507 C514 1.492 . S
C508 C509 1.392 . S
C508 C510 1.386 . S
C509 C507 1.393 . S
C509 C508 1.392 . S
C509 H526 0.930 . S
C510 C508 1.386 . S
C510 C512 1.395 . S
C510 H527 0.930 . S
C511 C507 1.395 . S
C511 C512 1.379 . S
C511 H528 0.930 . S
C512 C510 1.395 . S
C512 C511 1.379 . S
C512 H529 0.930 . S
C513 O496 1.264 . S
C513 O497 1.254 . S
C514 Eu450 2.848 . S
C514 O494 1.257 . S
C514 O499 1.249 . S
C514 C507 1.492 . S
C515 H480 0.931 . S
C515 C493 1.420 . S
C515 C516 1.351 . S
C516 H478 0.930 . S
C516 C484 1.423 . S
C516 C515 1.351 . S
C517 O501 1.276 . S
C517 O504 1.235 . S
C518 C519 1.393 . S
C518 C522 1.395 . S
C518 C525 1.492 . S
C519 C518 1.393 . S
C519 C520 1.392 . S
C519 H530 0.930 . S
C520 C519 1.392 . S
C520 C521 1.386 . S
C521 C520 1.386 . S
C521 C523 1.395 . S
C521 H531 0.930 . S
C522 C518 1.395 . S
C522 C523 1.379 . S
C522 H532 0.930 . S
C523 C521 1.395 . S
C523 C522 1.379 . S
C523 H533 0.930 . S
C524 O502 1.264 . S
C524 O503 1.254 . S
C525 Eu461 2.848 . S
C525 O500 1.257 . S
C525 O505 1.249 . S
C525 C518 1.492 . S
H526 C509 0.930 . S
H527 C510 0.930 . S
H528 C511 0.930 . S
H529 C512 0.930 . S
H530 C519 0.930 . S
H531 C521 0.930 . S
H532 C522 0.930 . S
H533 C523 0.930 . S
Eu534 N565 2.657 . S
Eu534 N572 2.609 . S
Eu534 O578 2.558 . S
Eu534 O579 2.612 . S
Eu534 O581 2.339 . S
Eu534 O582 2.563 . S
Eu534 O583 2.419 . S
Eu534 O585 2.380 . S
Eu534 O586 2.432 . S
Eu534 C598 2.848 . S
C535 C538 1.429 . S
C535 C539 1.411 . S
C535 N542 1.377 . S
C536 C538 1.420 . S
C536 C540 1.423 . S
C536 C548 1.392 . S
C537 C539 1.420 . S
C537 C540 1.351 . S
C537 H560 0.931 . S
C538 C535 1.429 . S
C538 C536 1.420 . S
C538 N546 1.362 . S
C539 C535 1.411 . S
C539 C537 1.420 . S
C539 C544 1.395 . S
C540 C536 1.423 . S
C540 C537 1.351 . S
C540 H552 0.930 . S
C541 C543 1.400 . S
C541 C544 1.386 . S
C541 H553 0.930 . S
N542 C535 1.377 . S
N542 C543 1.321 . S
N542 Eu545 2.609 . S
C543 C541 1.400 . S
C543 N542 1.321 . S
C543 H550 0.930 . S
C544 C539 1.395 . S
C544 C541 1.386 . S
C544 H563 0.930 . S
Eu545 N542 2.609 . S
Eu545 N546 2.657 . S
Eu545 O579 2.380 . S
Eu545 O580 2.432 . S
Eu545 O584 2.558 . S
Eu545 O585 2.612 . S
Eu545 O587 2.339 . S
Eu545 O588 2.563 . S
Eu545 O589 2.419 . S
Eu545 C609 2.848 . S
N546 C538 1.362 . S
N546 Eu545 2.657 . S
N546 C547 1.334 . S
C547 N546 1.334 . S
C547 C549 1.413 . S
C547 H554 0.929 . S
C548 C536 1.392 . S
C548 C549 1.367 . S
C548 H556 0.930 . S
C549 C547 1.413 . S
C549 C548 1.367 . S
C549 H551 0.930 . S
H550 C543 0.930 . S
H551 C549 0.930 . S
H552 C540 0.930 . S
H553 C541 0.930 . S
H554 C547 0.929 . S
H555 C569 0.930 . S
H556 C548 0.930 . S
H557 C575 0.930 . S
H558 C566 0.929 . S
H559 C573 0.930 . S
H560 C537 0.931 . S
H561 C567 0.930 . S
H562 C600 0.930 . S
H563 C544 0.930 . S
H564 C599 0.931 . S
N565 Eu534 2.657 . S
N565 C566 1.334 . S
N565 C570 1.362 . S
C566 H558 0.929 . S
C566 N565 1.334 . S
C566 C569 1.413 . S
C567 H561 0.930 . S
C567 C568 1.392 . S
C567 C569 1.367 . S
C568 C567 1.392 . S
C568 C570 1.420 . S
C568 C600 1.423 . S
C569 H555 0.930 . S
C569 C566 1.413 . S
C569 C567 1.367 . S
C570 N565 1.362 . S
C570 C568 1.420 . S
C570 C574 1.429 . S
H571 C576 0.930 . S
N572 Eu534 2.609 . S
N572 C574 1.377 . S
N572 C575 1.321 . S
C573 H559 0.930 . S
C573 C575 1.400 . S
C573 C576 1.386 . S
C574 C570 1.429 . S
C574 N572 1.377 . S
C574 C577 1.411 . S
C575 H557 0.930 . S
C575 N572 1.321 . S
C575 C573 1.400 . S
C576 H571 0.930 . S
C576 C573 1.386 . S
C576 C577 1.395 . S
C577 C574 1.411 . S
C577 C576 1.395 . S
C577 C599 1.420 . S
O578 Eu534 2.558 . S
O578 C598 1.257 . S
O579 Eu534 2.612 . S
O579 Eu545 2.380 . S
O579 C590 1.276 . S
O580 Eu545 2.432 . S
O580 C597 1.264 . S
O581 Eu534 2.339 . S
O581 C597 1.254 . S
O582 Eu534 2.563 . S
O582 C590 1.235 . S
O583 Eu534 2.419 . S
O583 C598 1.249 . S
O584 Eu545 2.558 . S
O584 C609 1.257 . S
O585 Eu534 2.380 . S
O585 Eu545 2.612 . S
O585 C601 1.276 . S
O586 Eu534 2.432 . S
O586 C608 1.264 . S
O587 Eu545 2.339 . S
O587 C608 1.254 . S
O588 Eu545 2.563 . S
O588 C601 1.235 . S
O589 Eu545 2.419 . S
O589 C609 1.249 . S
C590 O579 1.276 . S
C590 O582 1.235 . S
C591 C593 1.393 . S
C591 C595 1.395 . S
C591 C598 1.492 . S
C592 C593 1.392 . S
C592 C594 1.386 . S
C593 C591 1.393 . S
C593 C592 1.392 . S
C593 H610 0.930 . S
C594 C592 1.386 . S
C594 C596 1.395 . S
C594 H611 0.930 . S
C595 C591 1.395 . S
C595 C596 1.379 . S
C595 H612 0.930 . S
C596 C594 1.395 . S
C596 C595 1.379 . S
C596 H613 0.930 . S
C597 O580 1.264 . S
C597 O581 1.254 . S
C598 Eu534 2.848 . S
C598 O578 1.257 . S
C598 O583 1.249 . S
C598 C591 1.492 . S
C599 H564 0.931 . S
C599 C577 1.420 . S
C599 C600 1.351 . S
C600 H562 0.930 . S
C600 C568 1.423 . S
C600 C599 1.351 . S
C601 O585 1.276 . S
C601 O588 1.235 . S
C602 C603 1.393 . S
C602 C606 1.395 . S
C602 C609 1.492 . S
C603 C602 1.393 . S
C603 C604 1.392 . S
C603 H614 0.930 . S
C604 C603 1.392 . S
C604 C605 1.386 . S
C605 C604 1.386 . S
C605 C607 1.395 . S
C605 H615 0.930 . S
C606 C602 1.395 . S
C606 C607 1.379 . S
C606 H616 0.930 . S
C607 C605 1.395 . S
C607 C606 1.379 . S
C607 H617 0.930 . S
C608 O586 1.264 . S
C608 O587 1.254 . S
C609 Eu545 2.848 . S
C609 O584 1.257 . S
C609 O589 1.249 . S
C609 C602 1.492 . S
H610 C593 0.930 . S
H611 C594 0.930 . S
H612 C595 0.930 . S
H613 C596 0.930 . S
H614 C603 0.930 . S
H615 C605 0.930 . S
H616 C606 0.930 . S
H617 C607 0.930 . S
Eu618 N649 2.657 . S
Eu618 N656 2.609 . S
Eu618 O662 2.558 . S
Eu618 O663 2.612 . S
Eu618 O665 2.339 . S
Eu618 O666 2.563 . S
Eu618 O667 2.419 . S
Eu618 O669 2.380 . S
Eu618 O670 2.432 . S
Eu618 C682 2.848 . S
C619 C622 1.429 . S
C619 C623 1.411 . S
C619 N626 1.377 . S
C620 C622 1.420 . S
C620 C624 1.423 . S
C620 C632 1.392 . S
C621 C623 1.420 . S
C621 C624 1.351 . S
C621 H644 0.931 . S
C622 C619 1.429 . S
C622 C620 1.420 . S
C622 N630 1.362 . S
C623 C619 1.411 . S
C623 C621 1.420 . S
C623 C628 1.395 . S
C624 C620 1.423 . S
C624 C621 1.351 . S
C624 H636 0.930 . S
C625 C627 1.400 . S
C625 C628 1.386 . S
C625 H637 0.930 . S
N626 C619 1.377 . S
N626 C627 1.321 . S
N626 Eu629 2.609 . S
C627 C625 1.400 . S
C627 N626 1.321 . S
C627 H634 0.930 . S
C628 C623 1.395 . S
C628 C625 1.386 . S
C628 H647 0.930 . S
Eu629 N626 2.609 . S
Eu629 N630 2.657 . S
Eu629 O663 2.380 . S
Eu629 O664 2.432 . S
Eu629 O668 2.558 . S
Eu629 O669 2.612 . S
Eu629 O671 2.339 . S
Eu629 O672 2.563 . S
Eu629 O673 2.419 . S
Eu629 C693 2.848 . S
N630 C622 1.362 . S
N630 Eu629 2.657 . S
N630 C631 1.334 . S
C631 N630 1.334 . S
C631 C633 1.413 . S
C631 H638 0.929 . S
C632 C620 1.392 . S
C632 C633 1.367 . S
C632 H640 0.930 . S
C633 C631 1.413 . S
C633 C632 1.367 . S
C633 H635 0.930 . S
H634 C627 0.930 . S
H635 C633 0.930 . S
H636 C624 0.930 . S
H637 C625 0.930 . S
H638 C631 0.929 . S
H639 C653 0.930 . S
H640 C632 0.930 . S
H641 C659 0.930 . S
H642 C650 0.929 . S
H643 C657 0.930 . S
H644 C621 0.931 . S
H645 C651 0.930 . S
H646 C684 0.930 . S
H647 C628 0.930 . S
H648 C683 0.931 . S
N649 Eu618 2.657 . S
N649 C650 1.334 . S
N649 C654 1.362 . S
C650 H642 0.929 . S
C650 N649 1.334 . S
C650 C653 1.413 . S
C651 H645 0.930 . S
C651 C652 1.392 . S
C651 C653 1.367 . S
C652 C651 1.392 . S
C652 C654 1.420 . S
C652 C684 1.423 . S
C653 H639 0.930 . S
C653 C650 1.413 . S
C653 C651 1.367 . S
C654 N649 1.362 . S
C654 C652 1.420 . S
C654 C658 1.429 . S
H655 C660 0.930 . S
N656 Eu618 2.609 . S
N656 C658 1.377 . S
N656 C659 1.321 . S
C657 H643 0.930 . S
C657 C659 1.400 . S
C657 C660 1.386 . S
C658 C654 1.429 . S
C658 N656 1.377 . S
C658 C661 1.411 . S
C659 H641 0.930 . S
C659 N656 1.321 . S
C659 C657 1.400 . S
C660 H655 0.930 . S
C660 C657 1.386 . S
C660 C661 1.395 . S
C661 C658 1.411 . S
C661 C660 1.395 . S
C661 C683 1.420 . S
O662 Eu618 2.558 . S
O662 C682 1.257 . S
O663 Eu618 2.612 . S
O663 Eu629 2.380 . S
O663 C674 1.276 . S
O664 Eu629 2.432 . S
O664 C681 1.264 . S
O665 Eu618 2.339 . S
O665 C681 1.254 . S
O666 Eu618 2.563 . S
O666 C674 1.235 . S
O667 Eu618 2.419 . S
O667 C682 1.249 . S
O668 Eu629 2.558 . S
O668 C693 1.257 . S
O669 Eu618 2.380 . S
O669 Eu629 2.612 . S
O669 C685 1.276 . S
O670 Eu618 2.432 . S
O670 C692 1.264 . S
O671 Eu629 2.339 . S
O671 C692 1.254 . S
O672 Eu629 2.563 . S
O672 C685 1.235 . S
O673 Eu629 2.419 . S
O673 C693 1.249 . S
C674 O663 1.276 . S
C674 O666 1.235 . S
C675 C677 1.393 . S
C675 C679 1.395 . S
C675 C682 1.492 . S
C676 C677 1.392 . S
C676 C678 1.386 . S
C677 C675 1.393 . S
C677 C676 1.392 . S
C677 H694 0.930 . S
C678 C676 1.386 . S
C678 C680 1.395 . S
C678 H695 0.930 . S
C679 C675 1.395 . S
C679 C680 1.379 . S
C679 H696 0.930 . S
C680 C678 1.395 . S
C680 C679 1.379 . S
C680 H697 0.930 . S
C681 O664 1.264 . S
C681 O665 1.254 . S
C682 Eu618 2.848 . S
C682 O662 1.257 . S
C682 O667 1.249 . S
C682 C675 1.492 . S
C683 H648 0.931 . S
C683 C661 1.420 . S
C683 C684 1.351 . S
C684 H646 0.930 . S
C684 C652 1.423 . S
C684 C683 1.351 . S
C685 O669 1.276 . S
C685 O672 1.235 . S
C686 C687 1.393 . S
C686 C690 1.395 . S
C686 C693 1.492 . S
C687 C686 1.393 . S
C687 C688 1.392 . S
C687 H698 0.930 . S
C688 C687 1.392 . S
C688 C689 1.386 . S
C689 C688 1.386 . S
C689 C691 1.395 . S
C689 H699 0.930 . S
C690 C686 1.395 . S
C690 C691 1.379 . S
C690 H700 0.930 . S
C691 C689 1.395 . S
C691 C690 1.379 . S
C691 H701 0.930 . S
C692 O670 1.264 . S
C692 O671 1.254 . S
C693 Eu629 2.848 . S
C693 O668 1.257 . S
C693 O673 1.249 . S
C693 C686 1.492 . S
H694 C677 0.930 . S
H695 C678 0.930 . S
H696 C679 0.930 . S
H697 C680 0.930 . S
H698 C687 0.930 . S
H699 C689 0.930 . S
H700 C690 0.930 . S
H701 C691 0.930 . S
Eu702 N733 2.657 . S
Eu702 N740 2.609 . S
Eu702 O746 2.558 . S
Eu702 O747 2.612 . S
Eu702 O749 2.339 . S
Eu702 O750 2.563 . S
Eu702 O751 2.419 . S
Eu702 O753 2.380 . S
Eu702 O754 2.432 . S
Eu702 C766 2.848 . S
C703 C706 1.429 . S
C703 C707 1.411 . S
C703 N710 1.377 . S
C704 C706 1.420 . S
C704 C708 1.423 . S
C704 C716 1.392 . S
C705 C707 1.420 . S
C705 C708 1.351 . S
C705 H728 0.931 . S
C706 C703 1.429 . S
C706 C704 1.420 . S
C706 N714 1.362 . S
C707 C703 1.411 . S
C707 C705 1.420 . S
C707 C712 1.395 . S
C708 C704 1.423 . S
C708 C705 1.351 . S
C708 H720 0.930 . S
C709 C711 1.400 . S
C709 C712 1.386 . S
C709 H721 0.930 . S
N710 C703 1.377 . S
N710 C711 1.321 . S
N710 Eu713 2.609 . S
C711 C709 1.400 . S
C711 N710 1.321 . S
C711 H718 0.930 . S
C712 C707 1.395 . S
C712 C709 1.386 . S
C712 H731 0.930 . S
Eu713 N710 2.609 . S
Eu713 N714 2.657 . S
Eu713 O747 2.380 . S
Eu713 O748 2.432 . S
Eu713 O752 2.558 . S
Eu713 O753 2.612 . S
Eu713 O755 2.339 . S
Eu713 O756 2.563 . S
Eu713 O757 2.419 . S
Eu713 C777 2.848 . S
N714 C706 1.362 . S
N714 Eu713 2.657 . S
N714 C715 1.334 . S
C715 N714 1.334 . S
C715 C717 1.413 . S
C715 H722 0.929 . S
C716 C704 1.392 . S
C716 C717 1.367 . S
C716 H724 0.930 . S
C717 C715 1.413 . S
C717 C716 1.367 . S
C717 H719 0.930 . S
H718 C711 0.930 . S
H719 C717 0.930 . S
H720 C708 0.930 . S
H721 C709 0.930 . S
H722 C715 0.929 . S
H723 C737 0.930 . S
H724 C716 0.930 . S
H725 C743 0.930 . S
H726 C734 0.929 . S
H727 C741 0.930 . S
H728 C705 0.931 . S
H729 C735 0.930 . S
H730 C768 0.930 . S
H731 C712 0.930 . S
H732 C767 0.931 . S
N733 Eu702 2.657 . S
N733 C734 1.334 . S
N733 C738 1.362 . S
C734 H726 0.929 . S
C734 N733 1.334 . S
C734 C737 1.413 . S
C735 H729 0.930 . S
C735 C736 1.392 . S
C735 C737 1.367 . S
C736 C735 1.392 . S
C736 C738 1.420 . S
C736 C768 1.423 . S
C737 H723 0.930 . S
C737 C734 1.413 . S
C737 C735 1.367 . S
C738 N733 1.362 . S
C738 C736 1.420 . S
C738 C742 1.429 . S
H739 C744 0.930 . S
N740 Eu702 2.609 . S
N740 C742 1.377 . S
N740 C743 1.321 . S
C741 H727 0.930 . S
C741 C743 1.400 . S
C741 C744 1.386 . S
C742 C738 1.429 . S
C742 N740 1.377 . S
C742 C745 1.411 . S
C743 H725 0.930 . S
C743 N740 1.321 . S
C743 C741 1.400 . S
C744 H739 0.930 . S
C744 C741 1.386 . S
C744 C745 1.395 . S
C745 C742 1.411 . S
C745 C744 1.395 . S
C745 C767 1.420 . S
O746 Eu702 2.558 . S
O746 C766 1.257 . S
O747 Eu702 2.612 . S
O747 Eu713 2.380 . S
O747 C758 1.276 . S
O748 Eu713 2.432 . S
O748 C765 1.264 . S
O749 Eu702 2.339 . S
O749 C765 1.254 . S
O750 Eu702 2.563 . S
O750 C758 1.235 . S
O751 Eu702 2.419 . S
O751 C766 1.249 . S
O752 Eu713 2.558 . S
O752 C777 1.257 . S
O753 Eu702 2.380 . S
O753 Eu713 2.612 . S
O753 C769 1.276 . S
O754 Eu702 2.432 . S
O754 C776 1.264 . S
O755 Eu713 2.339 . S
O755 C776 1.254 . S
O756 Eu713 2.563 . S
O756 C769 1.235 . S
O757 Eu713 2.419 . S
O757 C777 1.249 . S
C758 O747 1.276 . S
C758 O750 1.235 . S
C759 C761 1.393 . S
C759 C763 1.395 . S
C759 C766 1.492 . S
C760 C761 1.392 . S
C760 C762 1.386 . S
C761 C759 1.393 . S
C761 C760 1.392 . S
C761 H778 0.930 . S
C762 C760 1.386 . S
C762 C764 1.395 . S
C762 H779 0.930 . S
C763 C759 1.395 . S
C763 C764 1.379 . S
C763 H780 0.930 . S
C764 C762 1.395 . S
C764 C763 1.379 . S
C764 H781 0.930 . S
C765 O748 1.264 . S
C765 O749 1.254 . S
C766 Eu702 2.848 . S
C766 O746 1.257 . S
C766 O751 1.249 . S
C766 C759 1.492 . S
C767 H732 0.931 . S
C767 C745 1.420 . S
C767 C768 1.351 . S
C768 H730 0.930 . S
C768 C736 1.423 . S
C768 C767 1.351 . S
C769 O753 1.276 . S
C769 O756 1.235 . S
C770 C771 1.393 . S
C770 C774 1.395 . S
C770 C777 1.492 . S
C771 C770 1.393 . S
C771 C772 1.392 . S
C771 H782 0.930 . S
C772 C771 1.392 . S
C772 C773 1.386 . S
C773 C772 1.386 . S
C773 C775 1.395 . S
C773 H783 0.930 . S
C774 C770 1.395 . S
C774 C775 1.379 . S
C774 H784 0.930 . S
C775 C773 1.395 . S
C775 C774 1.379 . S
C775 H785 0.930 . S
C776 O754 1.264 . S
C776 O755 1.254 . S
C777 Eu713 2.848 . S
C777 O752 1.257 . S
C777 O757 1.249 . S
C777 C770 1.492 . S
H778 C761 0.930 . S
H779 C762 0.930 . S
H780 C763 0.930 . S
H781 C764 0.930 . S
H782 C771 0.930 . S
H783 C773 0.930 . S
H784 C774 0.930 . S
H785 C775 0.930 . S
Eu786 N817 2.657 . S
Eu786 N824 2.609 . S
Eu786 O830 2.558 . S
Eu786 O831 2.612 . S
Eu786 O833 2.339 . S
Eu786 O834 2.563 . S
Eu786 O835 2.419 . S
Eu786 O837 2.380 . S
Eu786 O838 2.432 . S
Eu786 C850 2.848 . S
C787 C790 1.429 . S
C787 C791 1.411 . S
C787 N794 1.377 . S
C788 C790 1.420 . S
C788 C792 1.423 . S
C788 C800 1.392 . S
C789 C791 1.420 . S
C789 C792 1.351 . S
C789 H812 0.931 . S
C790 C787 1.429 . S
C790 C788 1.420 . S
C790 N798 1.362 . S
C791 C787 1.411 . S
C791 C789 1.420 . S
C791 C796 1.395 . S
C792 C788 1.423 . S
C792 C789 1.351 . S
C792 H804 0.930 . S
C793 C795 1.400 . S
C793 C796 1.386 . S
C793 H805 0.930 . S
N794 C787 1.377 . S
N794 C795 1.321 . S
N794 Eu797 2.609 . S
C795 C793 1.400 . S
C795 N794 1.321 . S
C795 H802 0.930 . S
C796 C791 1.395 . S
C796 C793 1.386 . S
C796 H815 0.930 . S
Eu797 N794 2.609 . S
Eu797 N798 2.657 . S
Eu797 O831 2.380 . S
Eu797 O832 2.432 . S
Eu797 O836 2.558 . S
Eu797 O837 2.612 . S
Eu797 O839 2.339 . S
Eu797 O840 2.563 . S
Eu797 O841 2.419 . S
Eu797 C861 2.848 . S
N798 C790 1.362 . S
N798 Eu797 2.657 . S
N798 C799 1.334 . S
C799 N798 1.334 . S
C799 C801 1.413 . S
C799 H806 0.929 . S
C800 C788 1.392 . S
C800 C801 1.367 . S
C800 H808 0.930 . S
C801 C799 1.413 . S
C801 C800 1.367 . S
C801 H803 0.930 . S
H802 C795 0.930 . S
H803 C801 0.930 . S
H804 C792 0.930 . S
H805 C793 0.930 . S
H806 C799 0.929 . S
H807 C821 0.930 . S
H808 C800 0.930 . S
H809 C827 0.930 . S
H810 C818 0.929 . S
H811 C825 0.930 . S
H812 C789 0.931 . S
H813 C819 0.930 . S
H814 C852 0.930 . S
H815 C796 0.930 . S
H816 C851 0.931 . S
N817 Eu786 2.657 . S
N817 C818 1.334 . S
N817 C822 1.362 . S
C818 H810 0.929 . S
C818 N817 1.334 . S
C818 C821 1.413 . S
C819 H813 0.930 . S
C819 C820 1.392 . S
C819 C821 1.367 . S
C820 C819 1.392 . S
C820 C822 1.420 . S
C820 C852 1.423 . S
C821 H807 0.930 . S
C821 C818 1.413 . S
C821 C819 1.367 . S
C822 N817 1.362 . S
C822 C820 1.420 . S
C822 C826 1.429 . S
H823 C828 0.930 . S
N824 Eu786 2.609 . S
N824 C826 1.377 . S
N824 C827 1.321 . S
C825 H811 0.930 . S
C825 C827 1.400 . S
C825 C828 1.386 . S
C826 C822 1.429 . S
C826 N824 1.377 . S
C826 C829 1.411 . S
C827 H809 0.930 . S
C827 N824 1.321 . S
C827 C825 1.400 . S
C828 H823 0.930 . S
C828 C825 1.386 . S
C828 C829 1.395 . S
C829 C826 1.411 . S
C829 C828 1.395 . S
C829 C851 1.420 . S
O830 Eu786 2.558 . S
O830 C850 1.257 . S
O831 Eu786 2.612 . S
O831 Eu797 2.380 . S
O831 C842 1.276 . S
O832 Eu797 2.432 . S
O832 C849 1.264 . S
O833 Eu786 2.339 . S
O833 C849 1.254 . S
O834 Eu786 2.563 . S
O834 C842 1.235 . S
O835 Eu786 2.419 . S
O835 C850 1.249 . S
O836 Eu797 2.558 . S
O836 C861 1.257 . S
O837 Eu786 2.380 . S
O837 Eu797 2.612 . S
O837 C853 1.276 . S
O838 Eu786 2.432 . S
O838 C860 1.264 . S
O839 Eu797 2.339 . S
O839 C860 1.254 . S
O840 Eu797 2.563 . S
O840 C853 1.235 . S
O841 Eu797 2.419 . S
O841 C861 1.249 . S
C842 O831 1.276 . S
C842 O834 1.235 . S
C843 C845 1.393 . S
C843 C847 1.395 . S
C843 C850 1.492 . S
C844 C845 1.392 . S
C844 C846 1.386 . S
C845 C843 1.393 . S
C845 C844 1.392 . S
C845 H862 0.930 . S
C846 C844 1.386 . S
C846 C848 1.395 . S
C846 H863 0.930 . S
C847 C843 1.395 . S
C847 C848 1.379 . S
C847 H864 0.930 . S
C848 C846 1.395 . S
C848 C847 1.379 . S
C848 H865 0.930 . S
C849 O832 1.264 . S
C849 O833 1.254 . S
C850 Eu786 2.848 . S
C850 O830 1.257 . S
C850 O835 1.249 . S
C850 C843 1.492 . S
C851 H816 0.931 . S
C851 C829 1.420 . S
C851 C852 1.351 . S
C852 H814 0.930 . S
C852 C820 1.423 . S
C852 C851 1.351 . S
C853 O837 1.276 . S
C853 O840 1.235 . S
C854 C855 1.393 . S
C854 C858 1.395 . S
C854 C861 1.492 . S
C855 C854 1.393 . S
C855 C856 1.392 . S
C855 H866 0.930 . S
C856 C855 1.392 . S
C856 C857 1.386 . S
C857 C856 1.386 . S
C857 C859 1.395 . S
C857 H867 0.930 . S
C858 C854 1.395 . S
C858 C859 1.379 . S
C858 H868 0.930 . S
C859 C857 1.395 . S
C859 C858 1.379 . S
C859 H869 0.930 . S
C860 O838 1.264 . S
C860 O839 1.254 . S
C861 Eu797 2.848 . S
C861 O836 1.257 . S
C861 O841 1.249 . S
C861 C854 1.492 . S
H862 C845 0.930 . S
H863 C846 0.930 . S
H864 C847 0.930 . S
H865 C848 0.930 . S
H866 C855 0.930 . S
H867 C857 0.930 . S
H868 C858 0.930 . S
H869 C859 0.930 . S
Eu870 N901 2.657 . S
Eu870 N908 2.609 . S
Eu870 O914 2.558 . S
Eu870 O915 2.612 . S
Eu870 O917 2.339 . S
Eu870 O918 2.563 . S
Eu870 O919 2.419 . S
Eu870 O921 2.380 . S
Eu870 O922 2.432 . S
Eu870 C934 2.848 . S
C871 C874 1.429 . S
C871 C875 1.411 . S
C871 N878 1.377 . S
C872 C874 1.420 . S
C872 C876 1.423 . S
C872 C884 1.392 . S
C873 C875 1.420 . S
C873 C876 1.351 . S
C873 H896 0.931 . S
C874 C871 1.429 . S
C874 C872 1.420 . S
C874 N882 1.362 . S
C875 C871 1.411 . S
C875 C873 1.420 . S
C875 C880 1.395 . S
C876 C872 1.423 . S
C876 C873 1.351 . S
C876 H888 0.930 . S
C877 C879 1.400 . S
C877 C880 1.386 . S
C877 H889 0.930 . S
N878 C871 1.377 . S
N878 C879 1.321 . S
N878 Eu881 2.609 . S
C879 C877 1.400 . S
C879 N878 1.321 . S
C879 H886 0.930 . S
C880 C875 1.395 . S
C880 C877 1.386 . S
C880 H899 0.930 . S
Eu881 N878 2.609 . S
Eu881 N882 2.657 . S
Eu881 O915 2.380 . S
Eu881 O916 2.432 . S
Eu881 O920 2.558 . S
Eu881 O921 2.612 . S
Eu881 O923 2.339 . S
Eu881 O924 2.563 . S
Eu881 O925 2.419 . S
Eu881 C945 2.848 . S
N882 C874 1.362 . S
N882 Eu881 2.657 . S
N882 C883 1.334 . S
C883 N882 1.334 . S
C883 C885 1.413 . S
C883 H890 0.929 . S
C884 C872 1.392 . S
C884 C885 1.367 . S
C884 H892 0.930 . S
C885 C883 1.413 . S
C885 C884 1.367 . S
C885 H887 0.930 . S
H886 C879 0.930 . S
H887 C885 0.930 . S
H888 C876 0.930 . S
H889 C877 0.930 . S
H890 C883 0.929 . S
H891 C905 0.930 . S
H892 C884 0.930 . S
H893 C911 0.930 . S
H894 C902 0.929 . S
H895 C909 0.930 . S
H896 C873 0.931 . S
H897 C903 0.930 . S
H898 C936 0.930 . S
H899 C880 0.930 . S
H900 C935 0.931 . S
N901 Eu870 2.657 . S
N901 C902 1.334 . S
N901 C906 1.362 . S
C902 H894 0.929 . S
C902 N901 1.334 . S
C902 C905 1.413 . S
C903 H897 0.930 . S
C903 C904 1.392 . S
C903 C905 1.367 . S
C904 C903 1.392 . S
C904 C906 1.420 . S
C904 C936 1.423 . S
C905 H891 0.930 . S
C905 C902 1.413 . S
C905 C903 1.367 . S
C906 N901 1.362 . S
C906 C904 1.420 . S
C906 C910 1.429 . S
H907 C912 0.930 . S
N908 Eu870 2.609 . S
N908 C910 1.377 . S
N908 C911 1.321 . S
C909 H895 0.930 . S
C909 C911 1.400 . S
C909 C912 1.386 . S
C910 C906 1.429 . S
C910 N908 1.377 . S
C910 C913 1.411 . S
C911 H893 0.930 . S
C911 N908 1.321 . S
C911 C909 1.400 . S
C912 H907 0.930 . S
C912 C909 1.386 . S
C912 C913 1.395 . S
C913 C910 1.411 . S
C913 C912 1.395 . S
C913 C935 1.420 . S
O914 Eu870 2.558 . S
O914 C934 1.257 . S
O915 Eu870 2.612 . S
O915 Eu881 2.380 . S
O915 C926 1.276 . S
O916 Eu881 2.432 . S
O916 C933 1.264 . S
O917 Eu870 2.339 . S
O917 C933 1.254 . S
O918 Eu870 2.563 . S
O918 C926 1.235 . S
O919 Eu870 2.419 . S
O919 C934 1.249 . S
O920 Eu881 2.558 . S
O920 C945 1.257 . S
O921 Eu870 2.380 . S
O921 Eu881 2.612 . S
O921 C937 1.276 . S
O922 Eu870 2.432 . S
O922 C944 1.264 . S
O923 Eu881 2.339 . S
O923 C944 1.254 . S
O924 Eu881 2.563 . S
O924 C937 1.235 . S
O925 Eu881 2.419 . S
O925 C945 1.249 . S
C926 O915 1.276 . S
C926 O918 1.235 . S
C927 C929 1.393 . S
C927 C931 1.395 . S
C927 C934 1.492 . S
C928 C929 1.392 . S
C928 C930 1.386 . S
C929 C927 1.393 . S
C929 C928 1.392 . S
C929 H946 0.930 . S
C930 C928 1.386 . S
C930 C932 1.395 . S
C930 H947 0.930 . S
C931 C927 1.395 . S
C931 C932 1.379 . S
C931 H948 0.930 . S
C932 C930 1.395 . S
C932 C931 1.379 . S
C932 H949 0.930 . S
C933 O916 1.264 . S
C933 O917 1.254 . S
C934 Eu870 2.848 . S
C934 O914 1.257 . S
C934 O919 1.249 . S
C934 C927 1.492 . S
C935 H900 0.931 . S
C935 C913 1.420 . S
C935 C936 1.351 . S
C936 H898 0.930 . S
C936 C904 1.423 . S
C936 C935 1.351 . S
C937 O921 1.276 . S
C937 O924 1.235 . S
C938 C939 1.393 . S
C938 C942 1.395 . S
C938 C945 1.492 . S
C939 C938 1.393 . S
C939 C940 1.392 . S
C939 H950 0.930 . S
C940 C939 1.392 . S
C940 C941 1.386 . S
C941 C940 1.386 . S
C941 C943 1.395 . S
C941 H951 0.930 . S
C942 C938 1.395 . S
C942 C943 1.379 . S
C942 H952 0.930 . S
C943 C941 1.395 . S
C943 C942 1.379 . S
C943 H953 0.930 . S
C944 O922 1.264 . S
C944 O923 1.254 . S
C945 Eu881 2.848 . S
C945 O920 1.257 . S
C945 O925 1.249 . S
C945 C938 1.492 . S
H946 C929 0.930 . S
H947 C930 0.930 . S
H948 C931 0.930 . S
H949 C932 0.930 . S
H950 C939 0.930 . S
H951 C941 0.930 . S
H952 C942 0.930 . S
H953 C943 0.930 . S
H954 C960 0.930 . S
H955 C964 0.930 . S
H956 C969 0.929 . S
H957 C967 0.929 1_556 S
H958 C962 0.929 . S
H959 C968 0.929 . S
C960 H954 0.930 . S
C960 C961 1.367 . S
C960 C968 1.378 . S
C961 C960 1.367 . S
C961 C969 1.433 . S
C962 H958 0.929 . S
C962 C964 1.378 . S
C962 C966 1.350 . S
C963 C966 1.463 . S
C963 C968 1.350 . S
C963 N971 1.427 . S
C964 H955 0.930 . S
C964 C962 1.378 . S
C964 C965 1.367 . S
C965 C964 1.367 . S
C965 C967 1.433 . S
C966 C962 1.350 . S
C966 C963 1.463 . S
C966 N970 1.427 . S
C967 H957 0.929 1_554 S
C967 C965 1.433 . S
C967 N970 1.384 . S
C968 H959 0.929 . S
C968 C960 1.378 . S
C968 C963 1.350 . S
C969 H956 0.929 . S
C969 C961 1.433 . S
C969 N971 1.384 . S
N970 C966 1.427 . S
N970 C967 1.384 . S
N971 C963 1.427 . S
N971 C969 1.384 . S
H972 C978 0.930 . S
H973 C982 0.930 . S
H974 C987 0.929 . S
H975 C985 0.929 . S
H976 C980 0.929 . S
H977 C986 0.929 . S
C978 H972 0.930 . S
C978 C979 1.367 . S
C978 C986 1.378 . S
C979 C978 1.367 . S
C979 C987 1.433 . S
C980 H976 0.929 . S
C980 C982 1.378 . S
C980 C984 1.350 . S
C981 C984 1.463 . S
C981 C986 1.350 . S
C981 N989 1.427 . S
C982 H973 0.930 . S
C982 C980 1.378 . S
C982 C983 1.367 . S
C983 C982 1.367 . S
C983 C985 1.433 . S
C984 C980 1.350 . S
C984 C981 1.463 . S
C984 N988 1.427 . S
C985 H975 0.929 . S
C985 C983 1.433 . S
C985 N988 1.384 . S
C986 H977 0.929 . S
C986 C978 1.378 . S
C986 C981 1.350 . S
C987 H974 0.929 . S
C987 C979 1.433 . S
C987 N989 1.384 . S
N988 C984 1.427 . S
N988 C985 1.384 . S
N989 C981 1.427 . S
N989 C987 1.384 . S
H990 C996 0.930 . S
H991 C1000 0.930 1_556 S
H992 C1005 0.929 . S
H993 C1003 0.929 . S
H994 C998 0.929 . S
H995 C1004 0.929 . S
C996 H990 0.930 . S
C996 C997 1.367 . S
C996 C1004 1.378 . S
C997 C996 1.367 . S
C997 C1005 1.433 . S
C998 H994 0.929 . S
C998 C1000 1.378 . S
C998 C1002 1.350 . S
C999 C1002 1.463 . S
C999 C1004 1.350 . S
C999 N1007 1.427 . S
C1000 H991 0.930 1_554 S
C1000 C998 1.378 . S
C1000 C1001 1.367 . S
C1001 C1000 1.367 . S
C1001 C1003 1.433 . S
C1002 C998 1.350 . S
C1002 C999 1.463 . S
C1002 N1006 1.427 . S
C1003 H993 0.929 . S
C1003 C1001 1.433 . S
C1003 N1006 1.384 . S
C1004 H995 0.929 . S
C1004 C996 1.378 . S
C1004 C999 1.350 . S
C1005 H992 0.929 . S
C1005 C997 1.433 . S
C1005 N1007 1.384 . S
N1006 C1002 1.427 . S
N1006 C1003 1.384 . S
N1007 C999 1.427 . S
N1007 C1005 1.384 . S
H1008 C1014 0.930 . S
H1009 C1018 0.930 . S
H1010 C1023 0.929 . S
H1011 C1021 0.929 . S
H1012 C1016 0.929 . S
H1013 C1022 0.929 . S
C1014 H1008 0.930 . S
C1014 C1015 1.367 . S
C1014 C1022 1.378 . S
C1015 C1014 1.367 . S
C1015 C1023 1.433 . S
C1016 H1012 0.929 . S
C1016 C1018 1.378 . S
C1016 C1020 1.350 . S
C1017 C1020 1.463 . S
C1017 C1022 1.350 . S
C1017 N1025 1.427 . S
C1018 H1009 0.930 . S
C1018 C1016 1.378 . S
C1018 C1019 1.367 . S
C1019 C1018 1.367 . S
C1019 C1021 1.433 1_556 S
C1020 C1016 1.350 . S
C1020 C1017 1.463 . S
C1020 N1024 1.465 . S
C1021 H1011 0.929 . S
C1021 C1019 1.433 1_554 S
C1021 N1024 1.374 1_554 S
C1022 H1013 0.929 . S
C1022 C1014 1.378 . S
C1022 C1017 1.350 . S
C1023 H1010 0.929 . S
C1023 C1015 1.433 . S
C1023 N1025 1.384 . S
N1024 C1020 1.465 . S
N1024 C1021 1.374 1_556 S
N1025 C1017 1.427 . S
N1025 C1023 1.384 . S
H1026 C1032 0.930 . S
H1027 C1036 0.930 . S
H1028 C1041 0.929 . S
H1029 C1039 0.929 1_554 S
H1030 C1034 0.929 . S
H1031 C1040 0.929 . S
C1032 H1026 0.930 . S
C1032 C1033 1.367 . S
C1032 C1040 1.378 . S
C1033 C1032 1.367 . S
C1033 C1041 1.433 . S
C1034 H1030 0.929 . S
C1034 C1036 1.378 . S
C1034 C1038 1.350 . S
C1035 C1038 1.463 . S
C1035 C1040 1.350 . S
C1035 N1043 1.427 . S
C1036 H1027 0.930 . S
C1036 C1034 1.378 . S
C1036 C1037 1.367 . S
C1037 C1036 1.367 . S
C1037 C1039 1.433 . S
C1038 C1034 1.350 . S
C1038 C1035 1.463 . S
C1038 N1042 1.427 . S
C1039 H1029 0.929 1_556 S
C1039 C1037 1.433 . S
C1039 N1042 1.384 . S
C1040 H1031 0.929 . S
C1040 C1032 1.378 . S
C1040 C1035 1.350 . S
C1041 H1028 0.929 . S
C1041 C1033 1.433 . S
C1041 N1043 1.384 . S
N1042 C1038 1.427 . S
N1042 C1039 1.384 . S
N1043 C1035 1.427 . S
N1043 C1041 1.384 . S
H1044 C1050 0.930 . S
H1045 C1054 0.930 . S
H1046 C1059 0.929 1_554 S
H1047 C1057 0.929 . S
H1048 C1052 0.929 . S
H1049 C1058 0.929 . S
C1050 H1044 0.930 . S
C1050 C1051 1.367 . S
C1050 C1058 1.378 . S
C1051 C1050 1.367 . S
C1051 C1059 1.433 . S
C1052 H1048 0.929 . S
C1052 C1054 1.378 . S
C1052 C1056 1.350 1_554 S
C1053 C1056 1.463 . S
C1053 C1058 1.350 . S
C1053 N1061 1.427 . S
C1054 H1045 0.930 . S
C1054 C1052 1.378 . S
C1054 C1055 1.367 1_554 S
C1055 C1054 1.367 1_556 S
C1055 C1057 1.433 . S
C1056 C1052 1.350 1_556 S
C1056 C1053 1.463 . S
C1056 N1060 1.427 . S
C1057 H1047 0.929 . S
C1057 C1055 1.433 . S
C1057 N1060 1.384 . S
C1058 H1049 0.929 . S
C1058 C1050 1.378 . S
C1058 C1053 1.350 . S
C1059 H1046 0.929 1_556 S
C1059 C1051 1.433 . S
C1059 N1061 1.384 . S
N1060 C1056 1.427 . S
N1060 C1057 1.384 . S
N1061 C1053 1.427 . S
N1061 C1059 1.384 . S
H1062 C1068 0.930 . S
H1063 C1072 0.930 1_554 S
H1064 C1077 0.929 . S
H1065 C1075 0.929 . S
H1066 C1070 0.929 . S
H1067 C1076 0.929 . S
C1068 H1062 0.930 . S
C1068 C1069 1.367 . S
C1068 C1076 1.378 . S
C1069 C1068 1.367 . S
C1069 C1077 1.433 . S
C1070 H1066 0.929 . S
C1070 C1072 1.378 . S
C1070 C1074 1.350 . S
C1071 C1074 1.463 . S
C1071 C1076 1.350 . S
C1071 N1079 1.427 . S
C1072 H1063 0.930 1_556 S
C1072 C1070 1.378 . S
C1072 C1073 1.367 . S
C1073 C1072 1.367 . S
C1073 C1075 1.433 . S
C1074 C1070 1.350 . S
C1074 C1071 1.463 . S
C1074 N1078 1.427 . S
C1075 H1065 0.929 . S
C1075 C1073 1.433 . S
C1075 N1078 1.384 . S
C1076 H1067 0.929 . S
C1076 C1068 1.378 . S
C1076 C1071 1.350 . S
C1077 H1064 0.929 . S
C1077 C1069 1.433 . S
C1077 N1079 1.384 . S
N1078 C1074 1.427 . S
N1078 C1075 1.384 . S
N1079 C1071 1.427 . S
N1079 C1077 1.384 . S
H1080 C1086 0.926 1_554 S
H1081 C1090 0.930 . S
H1082 C1095 0.929 . S
H1083 C1093 0.929 . S
H1084 C1088 0.929 . S
H1085 C1094 0.929 1_554 S
C1086 H1080 0.926 1_556 S
C1086 C1087 1.367 . S
C1086 C1094 1.378 . S
C1087 C1086 1.367 . S
C1087 C1095 1.433 . S
C1088 H1084 0.929 . S
C1088 C1090 1.378 . S
C1088 C1092 1.350 . S
C1089 C1092 1.463 . S
C1089 C1094 1.350 . S
C1089 N1097 1.427 . S
C1090 H1081 0.930 . S
C1090 C1088 1.378 . S
C1090 C1091 1.367 . S
C1091 C1090 1.367 . S
C1091 C1093 1.433 1_556 S
C1092 C1088 1.350 . S
C1092 C1089 1.463 . S
C1092 N1096 1.427 1_556 S
C1093 H1083 0.929 . S
C1093 C1091 1.433 1_554 S
C1093 N1096 1.384 . S
C1094 H1085 0.929 1_556 S
C1094 C1086 1.378 . S
C1094 C1089 1.350 . S
C1095 H1082 0.929 . S
C1095 C1087 1.433 . S
C1095 N1097 1.384 . S
N1096 C1092 1.427 1_554 S
N1096 C1093 1.384 . S
N1097 C1089 1.427 . S
N1097 C1095 1.384 . S
H1098 C1104 0.930 . S
H1099 C1108 0.930 . S
H1100 C1113 0.929 . S
H1101 C1111 0.951 . S
H1102 C1106 0.929 . S
H1103 C1112 0.929 . S
C1104 H1098 0.930 . S
C1104 C1105 1.367 . S
C1104 C1112 1.378 . S
C1105 C1104 1.367 . S
C1105 C1113 1.433 . S
C1106 H1102 0.929 . S
C1106 C1108 1.378 . S
C1106 C1110 1.350 . S
C1107 C1110 1.463 . S
C1107 C1112 1.350 . S
C1107 N1115 1.427 . S
C1108 H1099 0.930 . S
C1108 C1106 1.378 . S
C1108 C1109 1.367 . S
C1109 C1108 1.367 . S
C1109 C1111 1.433 . S
C1110 C1106 1.350 . S
C1110 C1107 1.463 . S
C1110 N1114 1.427 . S
C1111 H1101 0.951 . S
C1111 C1109 1.433 . S
C1111 N1114 1.384 . S
C1112 H1103 0.929 . S
C1112 C1104 1.378 . S
C1112 C1107 1.350 . S
C1113 H1100 0.929 . S
C1113 C1105 1.433 . S
C1113 N1115 1.384 . S
N1114 C1110 1.427 . S
N1114 C1111 1.384 . S
N1115 C1107 1.427 . S
N1115 C1113 1.384 . S
H1116 C1122 0.930 . S
H1117 C1126 0.930 . S
H1118 C1131 0.929 . S
H1119 C1129 0.910 1_556 S
H1120 C1124 0.929 . S
H1121 C1130 0.929 . S
C1122 H1116 0.930 . S
C1122 C1123 1.367 . S
C1122 C1130 1.378 . S
C1123 C1122 1.367 . S
C1123 C1131 1.433 . S
C1124 H1120 0.929 . S
C1124 C1126 1.378 . S
C1124 C1128 1.350 . S
C1125 C1128 1.463 . S
C1125 C1130 1.350 . S
C1125 N1133 1.427 . S
C1126 H1117 0.930 . S
C1126 C1124 1.378 . S
C1126 C1127 1.367 . S
C1127 C1126 1.367 . S
C1127 C1129 1.433 . S
C1128 C1124 1.350 . S
C1128 C1125 1.463 . S
C1128 N1132 1.427 . S
C1129 H1119 0.910 1_554 S
C1129 C1127 1.433 . S
C1129 N1132 1.384 . S
C1130 H1121 0.929 . S
C1130 C1122 1.378 . S
C1130 C1125 1.350 . S
C1131 H1118 0.929 . S
C1131 C1123 1.433 . S
C1131 N1133 1.384 . S
N1132 C1128 1.427 . S
N1132 C1129 1.384 . S
N1133 C1125 1.427 . S
N1133 C1131 1.384 . S
H1134 C1140 0.930 . S
H1135 C1144 0.930 . S
H1136 C1149 0.929 . S
H1137 C1147 0.929 . S
H1138 C1142 0.929 . S
H1139 C1148 0.929 . S
C1140 H1134 0.930 . S
C1140 C1141 1.367 . S
C1140 C1148 1.378 . S
C1141 C1140 1.367 . S
C1141 C1149 1.433 . S
C1142 H1138 0.929 . S
C1142 C1144 1.378 . S
C1142 C1146 1.350 . S
C1143 C1146 1.463 . S
C1143 C1148 1.350 . S
C1143 N1151 1.427 . S
C1144 H1135 0.930 . S
C1144 C1142 1.378 . S
C1144 C1145 1.367 . S
C1145 C1144 1.367 . S
C1145 C1147 1.433 . S
C1146 C1142 1.350 . S
C1146 C1143 1.463 . S
C1146 N1150 1.427 . S
C1147 H1137 0.929 . S
C1147 C1145 1.433 . S
C1147 N1150 1.384 . S
C1148 H1139 0.929 . S
C1148 C1140 1.378 . S
C1148 C1143 1.350 . S
C1149 H1136 0.929 . S
C1149 C1141 1.433 . S
C1149 N1151 1.384 . S
N1150 C1146 1.427 . S
N1150 C1147 1.384 . S
N1151 C1143 1.427 . S
N1151 C1149 1.384 . S
H1152 C1158 0.930 . S
H1153 C1162 0.930 1_556 S
H1154 C1167 0.929 . S
H1155 C1165 0.929 . S
H1156 C1160 0.929 . S
H1157 C1166 0.929 . S
C1158 H1152 0.930 . S
C1158 C1159 1.367 . S
C1158 C1166 1.378 . S
C1159 C1158 1.367 . S
C1159 C1167 1.433 . S
C1160 H1156 0.929 . S
C1160 C1162 1.378 . S
C1160 C1164 1.350 . S
C1161 C1164 1.463 . S
C1161 C1166 1.350 . S
C1161 N1169 1.427 . S
C1162 H1153 0.930 1_554 S
C1162 C1160 1.378 . S
C1162 C1163 1.367 . S
C1163 C1162 1.367 . S
C1163 C1165 1.433 . S
C1164 C1160 1.350 . S
C1164 C1161 1.463 . S
C1164 N1168 1.427 . S
C1165 H1155 0.929 . S
C1165 C1163 1.433 . S
C1165 N1168 1.384 . S
C1166 H1157 0.929 . S
C1166 C1158 1.378 . S
C1166 C1161 1.350 . S
C1167 H1154 0.929 . S
C1167 C1159 1.433 . S
C1167 N1169 1.384 . S
N1168 C1164 1.427 . S
N1168 C1165 1.384 . S
N1169 C1161 1.427 . S
N1169 C1167 1.384 . S
H1170 C1176 0.930 . S
H1171 C1180 0.930 . S
H1172 C1185 0.929 . S
H1173 C1183 0.929 . S
H1174 C1178 0.929 . S
H1175 C1184 0.929 . S
C1176 H1170 0.930 . S
C1176 C1177 1.367 . S
C1176 C1184 1.378 1_655 S
C1177 C1176 1.367 . S
C1177 C1185 1.433 1_655 S
C1178 H1174 0.929 . S
C1178 C1180 1.378 . S
C1178 C1182 1.350 . S
C1179 C1182 1.463 . S
C1179 C1184 1.350 . S
C1179 N1187 1.427 . S
C1180 H1171 0.930 . S
C1180 C1178 1.378 . S
C1180 C1181 1.367 . S
C1181 C1180 1.367 . S
C1181 C1183 1.433 . S
C1182 C1178 1.350 . S
C1182 C1179 1.463 . S
C1182 N1186 1.427 . S
C1183 H1173 0.929 . S
C1183 C1181 1.433 . S
C1183 N1186 1.384 . S
C1184 H1175 0.929 . S
C1184 C1176 1.378 1_455 S
C1184 C1179 1.350 . S
C1185 H1172 0.929 . S
C1185 C1177 1.433 1_455 S
C1185 N1187 1.384 . S
N1186 C1182 1.427 . S
N1186 C1183 1.384 . S
N1187 C1179 1.427 . S
N1187 C1185 1.384 . S
H1188 C1194 0.930 . S
H1189 C1198 0.930 . S
H1190 C1203 0.929 . S
H1191 C1201 0.929 . S
H1192 C1196 0.929 . S
H1193 C1202 0.929 . S
C1194 H1188 0.930 . S
C1194 C1195 1.367 . S
C1194 C1202 1.378 . S
C1195 C1194 1.367 . S
C1195 C1203 1.433 . S
C1196 H1192 0.929 . S
C1196 C1198 1.378 . S
C1196 C1200 1.350 . S
C1197 C1200 1.463 . S
C1197 C1202 1.350 . S
C1197 N1205 1.427 . S
C1198 H1189 0.930 . S
C1198 C1196 1.378 . S
C1198 C1199 1.367 . S
C1199 C1198 1.367 . S
C1199 C1201 1.433 . S
C1200 C1196 1.350 . S
C1200 C1197 1.463 . S
C1200 N1204 1.427 . S
C1201 H1191 0.929 . S
C1201 C1199 1.433 . S
C1201 N1204 1.384 . S
C1202 H1193 0.929 . S
C1202 C1194 1.378 . S
C1202 C1197 1.350 . S
C1203 H1190 0.929 . S
C1203 C1195 1.433 . S
C1203 N1205 1.384 . S
N1204 C1200 1.427 . S
N1204 C1201 1.384 . S
N1205 C1197 1.427 . S
N1205 C1203 1.384 . S
H1206 C1212 0.930 . S
H1207 C1216 0.930 . S
H1208 C1221 0.929 . S
H1209 C1219 0.929 . S
H1210 C1214 0.929 . S
H1211 C1220 0.929 . S
C1212 H1206 0.930 . S
C1212 C1213 1.367 . S
C1212 C1220 1.378 1_545 S
C1213 C1212 1.367 . S
C1213 C1221 1.433 . S
C1214 H1210 0.929 . S
C1214 C1216 1.378 . S
C1214 C1218 1.350 . S
C1215 C1218 1.463 . S
C1215 C1220 1.350 . S
C1215 N1223 1.427 1_565 S
C1216 H1207 0.930 . S
C1216 C1214 1.378 . S
C1216 C1217 1.367 . S
C1217 C1216 1.367 . S
C1217 C1219 1.433 . S
C1218 C1214 1.350 . S
C1218 C1215 1.463 . S
C1218 N1222 1.427 . S
C1219 H1209 0.929 . S
C1219 C1217 1.433 . S
C1219 N1222 1.384 . S
C1220 H1211 0.929 . S
C1220 C1212 1.378 1_565 S
C1220 C1215 1.350 . S
C1221 H1208 0.929 . S
C1221 C1213 1.433 . S
C1221 N1223 1.384 . S
N1222 C1218 1.427 . S
N1222 C1219 1.384 . S
N1223 C1215 1.427 1_545 S
N1223 C1221 1.384 . S
H1224 C1230 0.930 . S
H1225 C1234 0.930 . S
H1226 C1239 0.929 . S
H1227 C1237 0.929 . S
H1228 C1232 0.929 . S
H1229 C1238 0.929 . S
C1230 H1224 0.930 . S
C1230 C1231 1.367 . S
C1230 C1238 1.378 . S
C1231 C1230 1.367 . S
C1231 C1239 1.433 . S
C1232 H1228 0.929 . S
C1232 C1234 1.378 . S
C1232 C1236 1.350 . S
C1233 C1236 1.463 . S
C1233 C1238 1.350 . S
C1233 N1241 1.427 . S
C1234 H1225 0.930 . S
C1234 C1232 1.378 . S
C1234 C1235 1.367 . S
C1235 C1234 1.367 . S
C1235 C1237 1.433 . S
C1236 C1232 1.350 . S
C1236 C1233 1.463 . S
C1236 N1240 1.427 . S
C1237 H1227 0.929 . S
C1237 C1235 1.433 . S
C1237 N1240 1.384 . S
C1238 H1229 0.929 . S
C1238 C1230 1.378 . S
C1238 C1233 1.350 . S
C1239 H1226 0.929 . S
C1239 C1231 1.433 . S
C1239 N1241 1.384 . S
N1240 C1236 1.427 . S
N1240 C1237 1.384 . S
N1241 C1233 1.427 . S
N1241 C1239 1.384 . S
H1242 C1248 0.930 . S
H1243 C1252 0.930 . S
H1244 C1257 0.929 . S
H1245 C1255 0.929 . S
H1246 C1250 0.929 . S
H1247 C1256 0.929 . S
C1248 H1242 0.930 . S
C1248 C1249 1.367 . S
C1248 C1256 1.378 . S
C1249 C1248 1.367 . S
C1249 C1257 1.433 . S
C1250 H1246 0.929 . S
C1250 C1252 1.378 . S
C1250 C1254 1.350 . S
C1251 C1254 1.463 . S
C1251 C1256 1.350 . S
C1251 N1259 1.427 . S
C1252 H1243 0.930 . S
C1252 C1250 1.378 . S
C1252 C1253 1.367 . S
C1253 C1252 1.367 . S
C1253 C1255 1.433 . S
C1254 C1250 1.350 . S
C1254 C1251 1.463 . S
C1254 N1258 1.427 . S
C1255 H1245 0.929 . S
C1255 C1253 1.433 . S
C1255 N1258 1.384 . S
C1256 H1247 0.929 . S
C1256 C1248 1.378 . S
C1256 C1251 1.350 . S
C1257 H1244 0.929 . S
C1257 C1249 1.433 . S
C1257 N1259 1.384 . S
N1258 C1254 1.427 . S
N1258 C1255 1.384 . S
N1259 C1251 1.427 . S
N1259 C1257 1.384 . S
H1260 C1266 0.930 . S
H1261 C1270 0.930 . S
H1262 C1275 0.929 . S
H1263 C1273 0.929 . S
H1264 C1268 0.929 . S
H1265 C1274 0.929 . S
C1266 H1260 0.930 . S
C1266 C1267 1.367 . S
C1266 C1274 1.378 . S
C1267 C1266 1.367 . S
C1267 C1275 1.433 . S
C1268 H1264 0.929 . S
C1268 C1270 1.378 . S
C1268 C1272 1.350 . S
C1269 C1272 1.463 . S
C1269 C1274 1.350 . S
C1269 N1277 1.427 . S
C1270 H1261 0.930 . S
C1270 C1268 1.378 . S
C1270 C1271 1.367 . S
C1271 C1270 1.367 . S
C1271 C1273 1.433 . S
C1272 C1268 1.350 . S
C1272 C1269 1.463 . S
C1272 N1276 1.427 . S
C1273 H1263 0.929 . S
C1273 C1271 1.433 . S
C1273 N1276 1.384 . S
C1274 H1265 0.929 . S
C1274 C1266 1.378 . S
C1274 C1269 1.350 . S
C1275 H1262 0.929 . S
C1275 C1267 1.433 . S
C1275 N1277 1.384 . S
N1276 C1272 1.427 . S
N1276 C1273 1.384 . S
N1277 C1269 1.427 . S
N1277 C1275 1.384 . S
H1278 C1284 0.930 . S
H1279 C1288 0.930 . S
H1280 C1293 0.929 . S
H1281 C1291 0.929 . S
H1282 C1286 0.929 . S
H1283 C1292 0.929 . S
C1284 H1278 0.930 . S
C1284 C1285 1.367 . S
C1284 C1292 1.378 . S
C1285 C1284 1.367 . S
C1285 C1293 1.433 . S
C1286 H1282 0.929 . S
C1286 C1288 1.378 . S
C1286 C1290 1.350 . S
C1287 C1290 1.463 . S
C1287 C1292 1.350 . S
C1287 N1295 1.427 . S
C1288 H1279 0.930 . S
C1288 C1286 1.378 . S
C1288 C1289 1.367 . S
C1289 C1288 1.367 . S
C1289 C1291 1.433 . S
C1290 C1286 1.350 . S
C1290 C1287 1.463 . S
C1290 N1294 1.427 . S
C1291 H1281 0.929 . S
C1291 C1289 1.433 . S
C1291 N1294 1.384 . S
C1292 H1283 0.929 . S
C1292 C1284 1.378 . S
C1292 C1287 1.350 . S
C1293 H1280 0.929 . S
C1293 C1285 1.433 . S
C1293 N1295 1.384 . S
N1294 C1290 1.427 . S
N1294 C1291 1.384 . S
N1295 C1287 1.427 . S
N1295 C1293 1.384 . S
H1296 C1302 0.930 . S
H1297 C1306 0.930 . S
H1298 C1311 0.929 . S
H1299 C1309 0.929 . S
H1300 C1304 0.929 . S
H1301 C1310 0.929 . S
C1302 H1296 0.930 . S
C1302 C1303 1.367 . S
C1302 C1310 1.378 . S
C1303 C1302 1.367 . S
C1303 C1311 1.433 . S
C1304 H1300 0.929 . S
C1304 C1306 1.378 . S
C1304 C1308 1.350 . S
C1305 C1308 1.463 . S
C1305 C1310 1.350 . S
C1305 N1313 1.427 . S
C1306 H1297 0.930 . S
C1306 C1304 1.378 . S
C1306 C1307 1.367 . S
C1307 C1306 1.367 . S
C1307 C1309 1.433 . S
C1308 C1304 1.350 . S
C1308 C1305 1.463 . S
C1308 N1312 1.427 . S
C1309 H1299 0.929 . S
C1309 C1307 1.433 . S
C1309 N1312 1.384 . S
C1310 H1301 0.929 . S
C1310 C1302 1.378 . S
C1310 C1305 1.350 . S
C1311 H1298 0.929 . S
C1311 C1303 1.433 . S
C1311 N1313 1.384 . S
N1312 C1308 1.427 . S
N1312 C1309 1.384 . S
N1313 C1305 1.427 . S
N1313 C1311 1.384 . S
H1314 C1320 0.930 . S
H1315 C1324 0.930 . S
H1316 C1329 0.929 . S
H1317 C1327 0.929 . S
H1318 C1322 0.929 . S
H1319 C1328 0.929 . S
C1320 H1314 0.930 . S
C1320 C1321 1.367 . S
C1320 C1328 1.378 . S
C1321 C1320 1.367 . S
C1321 C1329 1.433 . S
C1322 H1318 0.929 . S
C1322 C1324 1.378 . S
C1322 C1326 1.350 . S
C1323 C1326 1.463 . S
C1323 C1328 1.350 . S
C1323 N1331 1.427 . S
C1324 H1315 0.930 . S
C1324 C1322 1.378 . S
C1324 C1325 1.367 . S
C1325 C1324 1.367 . S
C1325 C1327 1.433 . S
C1326 C1322 1.350 . S
C1326 C1323 1.463 . S
C1326 N1330 1.427 . S
C1327 H1317 0.929 . S
C1327 C1325 1.433 . S
C1327 N1330 1.384 . S
C1328 H1319 0.929 . S
C1328 C1320 1.378 . S
C1328 C1323 1.350 . S
C1329 H1316 0.929 . S
C1329 C1321 1.433 . S
C1329 N1331 1.384 . S
N1330 C1326 1.427 . S
N1330 C1327 1.384 . S
N1331 C1323 1.427 . S
N1331 C1329 1.384 . S
H1332 C1338 0.930 . S
H1333 C1342 0.930 . S
H1334 C1347 0.929 . S
H1335 C1345 0.929 . S
H1336 C1340 0.929 . S
H1337 C1346 0.929 . S
C1338 H1332 0.930 . S
C1338 C1339 1.367 . S
C1338 C1346 1.378 1_545 S
C1339 C1338 1.367 . S
C1339 C1347 1.433 . S
C1340 H1336 0.929 . S
C1340 C1342 1.378 . S
C1340 C1344 1.350 . S
C1341 C1344 1.463 . S
C1341 C1346 1.350 . S
C1341 N1349 1.427 . S
C1342 H1333 0.930 . S
C1342 C1340 1.378 . S
C1342 C1343 1.367 . S
C1343 C1342 1.367 . S
C1343 C1345 1.433 . S
C1344 C1340 1.350 . S
C1344 C1341 1.463 . S
C1344 N1348 1.427 . S
C1345 H1335 0.929 . S
C1345 C1343 1.433 . S
C1345 N1348 1.384 . S
C1346 H1337 0.929 . S
C1346 C1338 1.378 1_565 S
C1346 C1341 1.350 . S
C1347 H1334 0.929 . S
C1347 C1339 1.433 . S
C1347 N1349 1.384 1_545 S
N1348 C1344 1.427 . S
N1348 C1345 1.384 . S
N1349 C1341 1.427 . S
N1349 C1347 1.384 1_565 S
H1350 C1356 0.930 . S
H1351 C1360 0.930 . S
H1352 C1365 0.929 . S
H1353 C1363 0.929 . S
H1354 C1358 0.929 . S
H1355 C1364 0.929 . S
C1356 H1350 0.930 . S
C1356 C1357 1.367 . S
C1356 C1364 1.378 1_655 S
C1357 C1356 1.367 . S
C1357 C1365 1.433 . S
C1358 H1354 0.929 . S
C1358 C1360 1.378 . S
C1358 C1362 1.350 . S
C1359 C1362 1.463 . S
C1359 C1364 1.350 . S
C1359 N1367 1.427 . S
C1360 H1351 0.930 . S
C1360 C1358 1.378 . S
C1360 C1361 1.367 . S
C1361 C1360 1.367 . S
C1361 C1363 1.433 . S
C1362 C1358 1.350 . S
C1362 C1359 1.463 . S
C1362 N1366 1.427 . S
C1363 H1353 0.929 . S
C1363 C1361 1.433 . S
C1363 N1366 1.384 . S
C1364 H1355 0.929 . S
C1364 C1356 1.378 1_455 S
C1364 C1359 1.350 . S
C1365 H1352 0.929 . S
C1365 C1357 1.433 . S
C1365 N1367 1.384 1_655 S
N1366 C1362 1.427 . S
N1366 C1363 1.384 . S
N1367 C1359 1.427 . S
N1367 C1365 1.384 1_455 S
H1368 C1374 0.930 . S
H1369 C1378 0.930 . S
H1370 C1383 0.929 . S
H1371 C1381 0.929 . S
H1372 C1376 0.929 . S
H1373 C1382 0.929 . S
C1374 H1368 0.930 . S
C1374 C1375 1.367 . S
C1374 C1382 1.378 . S
C1375 C1374 1.367 . S
C1375 C1383 1.433 . S
C1376 H1372 0.929 . S
C1376 C1378 1.378 . S
C1376 C1380 1.350 . S
C1377 C1380 1.463 . S
C1377 C1382 1.350 . S
C1377 N1385 1.427 . S
C1378 H1369 0.930 . S
C1378 C1376 1.378 . S
C1378 C1379 1.367 . S
C1379 C1378 1.367 . S
C1379 C1381 1.433 . S
C1380 C1376 1.350 . S
C1380 C1377 1.463 . S
C1380 N1384 1.427 . S
C1381 H1371 0.929 . S
C1381 C1379 1.433 . S
C1381 N1384 1.384 . S
C1382 H1373 0.929 . S
C1382 C1374 1.378 . S
C1382 C1377 1.350 . S
C1383 H1370 0.929 . S
C1383 C1375 1.433 . S
C1383 N1385 1.384 . S
N1384 C1380 1.427 . S
N1384 C1381 1.384 . S
N1385 C1377 1.427 . S
N1385 C1383 1.384 . S
H1386 C1392 0.930 . S
H1387 C1396 0.930 . S
H1388 C1401 0.929 . S
H1389 C1399 0.929 . S
H1390 C1394 0.929 . S
H1391 C1400 0.929 . S
C1392 H1386 0.930 . S
C1392 C1393 1.367 . S
C1392 C1400 1.378 . S
C1393 C1392 1.367 . S
C1393 C1401 1.433 . S
C1394 H1390 0.929 . S
C1394 C1396 1.378 . S
C1394 C1398 1.350 . S
C1395 C1398 1.463 . S
C1395 C1400 1.350 . S
C1395 N1403 1.427 . S
C1396 H1387 0.930 . S
C1396 C1394 1.378 . S
C1396 C1397 1.367 . S
C1397 C1396 1.367 . S
C1397 C1399 1.433 . S
C1398 C1394 1.350 . S
C1398 C1395 1.463 . S
C1398 N1402 1.427 . S
C1399 H1389 0.929 . S
C1399 C1397 1.433 . S
C1399 N1402 1.384 . S
C1400 H1391 0.929 . S
C1400 C1392 1.378 . S
C1400 C1395 1.350 . S
C1401 H1388 0.929 . S
C1401 C1393 1.433 . S
C1401 N1403 1.384 . S
N1402 C1398 1.427 . S
N1402 C1399 1.384 . S
N1403 C1395 1.427 . S
N1403 C1401 1.384 . S
H1404 C1410 0.930 . S
H1405 C1414 0.930 . S
H1406 C1419 0.929 . S
H1407 C1417 0.929 . S
H1408 C1412 0.929 . S
H1409 C1418 0.929 . S
C1410 H1404 0.930 . S
C1410 C1411 1.367 . S
C1410 C1418 1.378 . S
C1411 C1410 1.367 . S
C1411 C1419 1.433 . S
C1412 H1408 0.929 . S
C1412 C1414 1.378 . S
C1412 C1416 1.350 . S
C1413 C1416 1.463 . S
C1413 C1418 1.350 . S
C1413 N1421 1.427 . S
C1414 H1405 0.930 . S
C1414 C1412 1.378 . S
C1414 C1415 1.367 . S
C1415 C1414 1.367 . S
C1415 C1417 1.433 . S
C1416 C1412 1.350 . S
C1416 C1413 1.463 . S
C1416 N1420 1.427 . S
C1417 H1407 0.929 . S
C1417 C1415 1.433 . S
C1417 N1420 1.384 . S
C1418 H1409 0.929 . S
C1418 C1410 1.378 . S
C1418 C1413 1.350 . S
C1419 H1406 0.929 . S
C1419 C1411 1.433 . S
C1419 N1421 1.384 . S
N1420 C1416 1.427 . S
N1420 C1417 1.384 . S
N1421 C1413 1.427 . S
N1421 C1419 1.384 . S
H1422 C1428 0.930 . S
H1423 C1432 0.930 . S
H1424 C1437 0.929 . S
H1425 C1435 0.929 . S
H1426 C1430 0.929 . S
H1427 C1436 0.929 . S
C1428 H1422 0.930 . S
C1428 C1429 1.367 . S
C1428 C1436 1.378 . S
C1429 C1428 1.367 . S
C1429 C1437 1.433 . S
C1430 H1426 0.929 . S
C1430 C1432 1.378 . S
C1430 C1434 1.350 . S
C1431 C1434 1.463 . S
C1431 C1436 1.350 . S
C1431 N1439 1.427 . S
C1432 H1423 0.930 . S
C1432 C1430 1.378 . S
C1432 C1433 1.367 . S
C1433 C1432 1.367 . S
C1433 C1435 1.433 . S
C1434 C1430 1.350 . S
C1434 C1431 1.463 . S
C1434 N1438 1.427 . S
C1435 H1425 0.929 . S
C1435 C1433 1.433 . S
C1435 N1438 1.384 . S
C1436 H1427 0.929 . S
C1436 C1428 1.378 . S
C1436 C1431 1.350 . S
C1437 H1424 0.929 . S
C1437 C1429 1.433 . S
C1437 N1439 1.384 . S
N1438 C1434 1.427 . S
N1438 C1435 1.384 . S
N1439 C1431 1.427 . S
N1439 C1437 1.384 . S
H1440 C1446 0.930 . S
H1441 C1450 0.930 . S
H1442 C1455 0.929 . S
H1443 C1453 0.929 . S
H1444 C1448 0.929 . S
H1445 C1454 0.929 . S
C1446 H1440 0.930 . S
C1446 C1447 1.367 . S
C1446 C1454 1.378 1_565 S
C1447 C1446 1.367 . S
C1447 C1455 1.433 . S
C1448 H1444 0.929 . S
C1448 C1450 1.378 . S
C1448 C1452 1.350 . S
C1449 C1452 1.463 . S
C1449 C1454 1.350 . S
C1449 N1457 1.427 1_545 S
C1450 H1441 0.930 . S
C1450 C1448 1.378 . S
C1450 C1451 1.367 . S
C1451 C1450 1.367 . S
C1451 C1453 1.433 . S
C1452 C1448 1.350 . S
C1452 C1449 1.463 . S
C1452 N1456 1.427 . S
C1453 H1443 0.929 . S
C1453 C1451 1.433 . S
C1453 N1456 1.384 . S
C1454 H1445 0.929 . S
C1454 C1446 1.378 1_545 S
C1454 C1449 1.350 . S
C1455 H1442 0.929 . S
C1455 C1447 1.433 . S
C1455 N1457 1.384 . S
N1456 C1452 1.427 . S
N1456 C1453 1.384 . S
N1457 C1449 1.427 1_565 S
N1457 C1455 1.384 . S
H1458 C1464 0.930 . S
H1459 C1468 0.930 . S
H1460 C1473 0.929 . S
H1461 C1471 0.929 . S
H1462 C1466 0.929 . S
H1463 C1472 0.929 . S
C1464 H1458 0.930 . S
C1464 C1465 1.367 . S
C1464 C1472 1.378 . S
C1465 C1464 1.367 . S
C1465 C1473 1.433 . S
C1466 H1462 0.929 . S
C1466 C1468 1.378 . S
C1466 C1470 1.350 . S
C1467 C1470 1.463 . S
C1467 C1472 1.350 1_655 S
C1467 N1475 1.427 . S
C1468 H1459 0.930 . S
C1468 C1466 1.378 . S
C1468 C1469 1.367 . S
C1469 C1468 1.367 . S
C1469 C1471 1.433 . S
C1470 C1466 1.350 . S
C1470 C1467 1.463 . S
C1470 N1474 1.427 . S
C1471 H1461 0.929 . S
C1471 C1469 1.433 . S
C1471 N1474 1.384 . S
C1472 H1463 0.929 . S
C1472 C1464 1.378 . S
C1472 C1467 1.350 1_455 S
C1473 H1460 0.929 . S
C1473 C1465 1.433 . S
C1473 N1475 1.384 1_455 S
N1474 C1470 1.427 . S
N1474 C1471 1.384 . S
N1475 C1467 1.427 . S
N1475 C1473 1.384 1_655 S
H1476 C1482 0.930 . S
H1477 C1486 0.930 . S
H1478 C1491 0.929 . S
H1479 C1489 0.929 . S
H1480 C1484 0.929 . S
H1481 C1490 0.929 . S
C1482 H1476 0.930 . S
C1482 C1483 1.367 . S
C1482 C1490 1.378 . S
C1483 C1482 1.367 . S
C1483 C1491 1.433 . S
C1484 H1480 0.929 . S
C1484 C1486 1.378 . S
C1484 C1488 1.350 . S
C1485 C1488 1.463 . S
C1485 C1490 1.350 . S
C1485 N1493 1.427 . S
C1486 H1477 0.930 . S
C1486 C1484 1.378 . S
C1486 C1487 1.367 . S
C1487 C1486 1.367 . S
C1487 C1489 1.433 . S
C1488 C1484 1.350 . S
C1488 C1485 1.463 . S
C1488 N1492 1.427 . S
C1489 H1479 0.929 . S
C1489 C1487 1.433 . S
C1489 N1492 1.384 . S
C1490 H1481 0.929 . S
C1490 C1482 1.378 . S
C1490 C1485 1.350 . S
C1491 H1478 0.929 . S
C1491 C1483 1.433 . S
C1491 N1493 1.384 . S
N1492 C1488 1.427 . S
N1492 C1489 1.384 . S
N1493 C1485 1.427 . S
N1493 C1491 1.384 . S
H1494 C1500 0.930 . S
H1495 C1504 0.930 . S
H1496 C1509 0.929 . S
H1497 C1507 0.929 . S
H1498 C1502 0.929 . S
H1499 C1508 0.929 . S
C1500 H1494 0.930 . S
C1500 C1501 1.367 1_655 S
C1500 C1508 1.378 . S
C1501 C1500 1.367 1_455 S
C1501 C1509 1.433 . S
C1502 H1498 0.929 . S
C1502 C1504 1.378 . S
C1502 C1506 1.350 . S
C1503 C1506 1.463 . S
C1503 C1508 1.350 . S
C1503 N1511 1.427 . S
C1504 H1495 0.930 . S
C1504 C1502 1.378 . S
C1504 C1505 1.367 . S
C1505 C1504 1.367 . S
C1505 C1507 1.433 . S
C1506 C1502 1.350 . S
C1506 C1503 1.463 . S
C1506 N1510 1.427 . S
C1507 H1497 0.929 . S
C1507 C1505 1.433 . S
C1507 N1510 1.384 . S
C1508 H1499 0.929 . S
C1508 C1500 1.378 . S
C1508 C1503 1.350 . S
C1509 H1496 0.929 . S
C1509 C1501 1.433 . S
C1509 N1511 1.384 1_455 S
N1510 C1506 1.427 . S
N1510 C1507 1.384 . S
N1511 C1503 1.427 . S
N1511 C1509 1.384 1_655 S
H1512 C1518 0.930 . S
H1513 C1522 0.930 . S
H1514 C1527 0.929 . S
H1515 C1525 0.929 . S
H1516 C1520 0.929 . S
H1517 C1526 0.929 . S
C1518 H1512 0.930 . S
C1518 C1519 1.367 . S
C1518 C1526 1.378 . S
C1519 C1518 1.367 . S
C1519 C1527 1.433 . S
C1520 H1516 0.929 . S
C1520 C1522 1.378 . S
C1520 C1524 1.350 . S
C1521 C1524 1.463 . S
C1521 C1526 1.350 . S
C1521 N1529 1.427 . S
C1522 H1513 0.930 . S
C1522 C1520 1.378 . S
C1522 C1523 1.367 . S
C1523 C1522 1.367 . S
C1523 C1525 1.433 . S
C1524 C1520 1.350 . S
C1524 C1521 1.463 . S
C1524 N1528 1.427 . S
C1525 H1515 0.929 . S
C1525 C1523 1.433 . S
C1525 N1528 1.384 . S
C1526 H1517 0.929 . S
C1526 C1518 1.378 . S
C1526 C1521 1.350 . S
C1527 H1514 0.929 . S
C1527 C1519 1.433 . S
C1527 N1529 1.384 . S
N1528 C1524 1.427 . S
N1528 C1525 1.384 . S
N1529 C1521 1.427 . S
N1529 C1527 1.384 . S
H1530 C1536 0.930 . S
H1531 C1540 0.930 . S
H1532 C1545 0.929 . S
H1533 C1543 0.929 . S
H1534 C1538 0.929 . S
H1535 C1544 0.929 . S
C1536 H1530 0.930 . S
C1536 C1537 1.367 . S
C1536 C1544 1.378 1_565 S
C1537 C1536 1.367 . S
C1537 C1545 1.433 . S
C1538 H1534 0.929 . S
C1538 C1540 1.378 . S
C1538 C1542 1.350 . S
C1539 C1542 1.463 . S
C1539 C1544 1.350 . S
C1539 N1547 1.427 . S
C1540 H1531 0.930 . S
C1540 C1538 1.378 . S
C1540 C1541 1.367 . S
C1541 C1540 1.367 . S
C1541 C1543 1.433 . S
C1542 C1538 1.350 . S
C1542 C1539 1.463 . S
C1542 N1546 1.427 . S
C1543 H1533 0.929 . S
C1543 C1541 1.433 . S
C1543 N1546 1.384 . S
C1544 H1535 0.929 . S
C1544 C1536 1.378 1_545 S
C1544 C1539 1.350 . S
C1545 H1532 0.929 . S
C1545 C1537 1.433 . S
C1545 N1547 1.384 1_565 S
N1546 C1542 1.427 . S
N1546 C1543 1.384 . S
N1547 C1539 1.427 . S
N1547 C1545 1.384 1_545 S
H1548 C1554 0.930 . S
H1549 C1558 0.930 . S
H1550 C1563 0.929 . S
H1551 C1561 0.929 . S
H1552 C1556 0.929 . S
H1553 C1562 0.929 . S
C1554 H1548 0.930 . S
C1554 C1555 1.367 . S
C1554 C1562 1.378 . S
C1555 C1554 1.367 . S
C1555 C1563 1.433 . S
C1556 H1552 0.929 . S
C1556 C1558 1.378 . S
C1556 C1560 1.350 . S
C1557 C1560 1.463 . S
C1557 C1562 1.350 . S
C1557 N1565 1.427 . S
C1558 H1549 0.930 . S
C1558 C1556 1.378 . S
C1558 C1559 1.367 . S
C1559 C1558 1.367 . S
C1559 C1561 1.433 . S
C1560 C1556 1.350 . S
C1560 C1557 1.463 . S
C1560 N1564 1.427 . S
C1561 H1551 0.929 . S
C1561 C1559 1.433 . S
C1561 N1564 1.384 . S
C1562 H1553 0.929 . S
C1562 C1554 1.378 . S
C1562 C1557 1.350 . S
C1563 H1550 0.929 . S
C1563 C1555 1.433 . S
C1563 N1565 1.384 . S
N1564 C1560 1.427 . S
N1564 C1561 1.384 . S
N1565 C1557 1.427 . S
N1565 C1563 1.384 . S
H1566 C1572 0.930 . S
H1567 C1576 0.930 . S
H1568 C1581 0.929 . S
H1569 C1579 0.929 . S
H1570 C1574 0.929 . S
H1571 C1580 0.929 . S
C1572 H1566 0.930 . S
C1572 C1573 1.367 . S
C1572 C1580 1.378 . S
C1573 C1572 1.367 . S
C1573 C1581 1.433 . S
C1574 H1570 0.929 . S
C1574 C1576 1.378 . S
C1574 C1578 1.350 . S
C1575 C1578 1.463 . S
C1575 C1580 1.350 . S
C1575 N1583 1.427 . S
C1576 H1567 0.930 . S
C1576 C1574 1.378 . S
C1576 C1577 1.367 . S
C1577 C1576 1.367 . S
C1577 C1579 1.433 . S
C1578 C1574 1.350 . S
C1578 C1575 1.463 . S
C1578 N1582 1.427 . S
C1579 H1569 0.929 . S
C1579 C1577 1.433 . S
C1579 N1582 1.384 . S
C1580 H1571 0.929 . S
C1580 C1572 1.378 . S
C1580 C1575 1.350 . S
C1581 H1568 0.929 . S
C1581 C1573 1.433 . S
C1581 N1583 1.384 . S
N1582 C1578 1.427 . S
N1582 C1579 1.384 . S
N1583 C1575 1.427 . S
N1583 C1581 1.384 . S
H1584 C1590 0.930 . S
H1585 C1594 0.930 . S
H1586 C1599 0.929 . S
H1587 C1597 0.929 . S
H1588 C1592 0.929 . S
H1589 C1598 0.929 . S
C1590 H1584 0.930 . S
C1590 C1591 1.367 . S
C1590 C1598 1.378 . S
C1591 C1590 1.367 . S
C1591 C1599 1.433 . S
C1592 H1588 0.929 . S
C1592 C1594 1.378 . S
C1592 C1596 1.350 . S
C1593 C1596 1.463 . S
C1593 C1598 1.350 . S
C1593 N1601 1.427 . S
C1594 H1585 0.930 . S
C1594 C1592 1.378 . S
C1594 C1595 1.367 . S
C1595 C1594 1.367 . S
C1595 C1597 1.433 . S
C1596 C1592 1.350 . S
C1596 C1593 1.463 . S
C1596 N1600 1.427 . S
C1597 H1587 0.929 . S
C1597 C1595 1.433 . S
C1597 N1600 1.384 . S
C1598 H1589 0.929 . S
C1598 C1590 1.378 . S
C1598 C1593 1.350 . S
C1599 H1586 0.929 . S
C1599 C1591 1.433 . S
C1599 N1601 1.384 . S
N1600 C1596 1.427 . S
N1600 C1597 1.384 . S
N1601 C1593 1.427 . S
N1601 C1599 1.384 . S
H1602 C1608 0.930 . S
H1603 C1612 0.930 . S
H1604 C1617 0.929 . S
H1605 C1615 0.929 . S
H1606 C1610 0.929 . S
H1607 C1616 0.929 . S
C1608 H1602 0.930 . S
C1608 C1609 1.367 . S
C1608 C1616 1.378 . S
C1609 C1608 1.367 . S
C1609 C1617 1.433 . S
C1610 H1606 0.929 . S
C1610 C1612 1.378 . S
C1610 C1614 1.350 . S
C1611 C1614 1.463 . S
C1611 C1616 1.350 . S
C1611 N1619 1.427 . S
C1612 H1603 0.930 . S
C1612 C1610 1.378 . S
C1612 C1613 1.367 . S
C1613 C1612 1.367 . S
C1613 C1615 1.433 . S
C1614 C1610 1.350 . S
C1614 C1611 1.463 . S
C1614 N1618 1.427 . S
C1615 H1605 0.929 . S
C1615 C1613 1.433 . S
C1615 N1618 1.384 . S
C1616 H1607 0.929 . S
C1616 C1608 1.378 . S
C1616 C1611 1.350 . S
C1617 H1604 0.929 . S
C1617 C1609 1.433 . S
C1617 N1619 1.384 . S
N1618 C1614 1.427 . S
N1618 C1615 1.384 . S
N1619 C1611 1.427 . S
N1619 C1617 1.384 . S
H1620 C1626 0.930 . S
H1621 C1630 0.930 . S
H1622 C1635 0.929 . S
H1623 C1633 0.929 . S
H1624 C1628 0.929 . S
H1625 C1634 0.929 . S
C1626 H1620 0.930 . S
C1626 C1627 1.367 . S
C1626 C1634 1.378 . S
C1627 C1626 1.367 . S
C1627 C1635 1.433 . S
C1628 H1624 0.929 . S
C1628 C1630 1.378 . S
C1628 C1632 1.350 . S
C1629 C1632 1.463 . S
C1629 C1634 1.350 . S
C1629 N1637 1.427 . S
C1630 H1621 0.930 . S
C1630 C1628 1.378 . S
C1630 C1631 1.367 . S
C1631 C1630 1.367 . S
C1631 C1633 1.433 . S
C1632 C1628 1.350 . S
C1632 C1629 1.463 . S
C1632 N1636 1.427 . S
C1633 H1623 0.929 . S
C1633 C1631 1.433 . S
C1633 N1636 1.384 . S
C1634 H1625 0.929 . S
C1634 C1626 1.378 . S
C1634 C1629 1.350 . S
C1635 H1622 0.929 . S
C1635 C1627 1.433 . S
C1635 N1637 1.384 . S
N1636 C1632 1.427 . S
N1636 C1633 1.384 . S
N1637 C1629 1.427 . S
N1637 C1635 1.384 . S
H1638 C1644 0.930 . S
H1639 C1648 0.930 . S
H1640 C1653 0.929 . S
H1641 C1651 0.929 . S
H1642 C1646 0.929 . S
H1643 C1652 0.929 . S
C1644 H1638 0.930 . S
C1644 C1645 1.367 . S
C1644 C1652 1.378 . S
C1645 C1644 1.367 . S
C1645 C1653 1.433 . S
C1646 H1642 0.929 . S
C1646 C1648 1.378 . S
C1646 C1650 1.350 . S
C1647 C1650 1.463 . S
C1647 C1652 1.350 . S
C1647 N1655 1.427 . S
C1648 H1639 0.930 . S
C1648 C1646 1.378 . S
C1648 C1649 1.367 . S
C1649 C1648 1.367 . S
C1649 C1651 1.433 . S
C1650 C1646 1.350 . S
C1650 C1647 1.463 . S
C1650 N1654 1.427 . S
C1651 H1641 0.929 . S
C1651 C1649 1.433 . S
C1651 N1654 1.384 . S
C1652 H1643 0.929 . S
C1652 C1644 1.378 . S
C1652 C1647 1.350 . S
C1653 H1640 0.929 . S
C1653 C1645 1.433 . S
C1653 N1655 1.384 . S
N1654 C1650 1.427 . S
N1654 C1651 1.384 . S
N1655 C1647 1.427 . S
N1655 C1653 1.384 . S
H1656 C1662 0.930 . S
H1657 C1666 0.930 . S
H1658 C1671 0.929 . S
H1659 C1669 0.929 . S
H1660 C1664 0.929 . S
H1661 C1670 0.929 . S
C1662 H1656 0.930 . S
C1662 C1663 1.367 . S
C1662 C1670 1.378 . S
C1663 C1662 1.367 . S
C1663 C1671 1.433 . S
C1664 H1660 0.929 . S
C1664 C1666 1.378 . S
C1664 C1668 1.350 . S
C1665 C1668 1.463 . S
C1665 C1670 1.350 . S
C1665 N1673 1.427 . S
C1666 H1657 0.930 . S
C1666 C1664 1.378 . S
C1666 C1667 1.367 . S
C1667 C1666 1.367 . S
C1667 C1669 1.433 . S
C1668 C1664 1.350 . S
C1668 C1665 1.463 . S
C1668 N1672 1.427 . S
C1669 H1659 0.929 . S
C1669 C1667 1.433 . S
C1669 N1672 1.384 . S
C1670 H1661 0.929 . S
C1670 C1662 1.378 . S
C1670 C1665 1.350 . S
C1671 H1658 0.929 . S
C1671 C1663 1.433 . S
C1671 N1673 1.384 . S
N1672 C1668 1.427 . S
N1672 C1669 1.384 . S
N1673 C1665 1.427 . S
N1673 C1671 1.384 . S
H1674 C1680 0.930 . S
H1675 C1684 0.930 . S
H1676 C1689 0.929 . S
H1677 C1687 0.929 . S
H1678 C1682 0.929 . S
H1679 C1688 0.929 . S
C1680 H1674 0.930 . S
C1680 C1681 1.367 . S
C1680 C1688 1.378 . S
C1681 C1680 1.367 . S
C1681 C1689 1.433 . S
C1682 H1678 0.929 . S
C1682 C1684 1.378 . S
C1682 C1686 1.350 . S
C1683 C1686 1.463 . S
C1683 C1688 1.350 . S
C1683 N1691 1.427 . S
C1684 H1675 0.930 . S
C1684 C1682 1.378 . S
C1684 C1685 1.367 . S
C1685 C1684 1.367 . S
C1685 C1687 1.433 . S
C1686 C1682 1.350 . S
C1686 C1683 1.463 . S
C1686 N1690 1.427 . S
C1687 H1677 0.929 . S
C1687 C1685 1.433 . S
C1687 N1690 1.384 . S
C1688 H1679 0.929 . S
C1688 C1680 1.378 . S
C1688 C1683 1.350 . S
C1689 H1676 0.929 . S
C1689 C1681 1.433 . S
C1689 N1691 1.384 . S
N1690 C1686 1.427 . S
N1690 C1687 1.384 . S
N1691 C1683 1.427 . S
N1691 C1689 1.384 . S
H1692 C1698 0.930 . S
H1693 C1702 0.930 . S
H1694 C1707 0.929 . S
H1695 C1705 0.929 . S
H1696 C1700 0.929 . S
H1697 C1706 0.929 . S
C1698 H1692 0.930 . S
C1698 C1699 1.367 . S
C1698 C1706 1.378 . S
C1699 C1698 1.367 . S
C1699 C1707 1.433 . S
C1700 H1696 0.929 . S
C1700 C1702 1.378 . S
C1700 C1704 1.350 . S
C1701 C1704 1.463 . S
C1701 C1706 1.350 . S
C1701 N1709 1.427 . S
C1702 H1693 0.930 . S
C1702 C1700 1.378 . S
C1702 C1703 1.367 . S
C1703 C1702 1.367 . S
C1703 C1705 1.433 . S
C1704 C1700 1.350 . S
C1704 C1701 1.463 . S
C1704 N1708 1.427 . S
C1705 H1695 0.929 . S
C1705 C1703 1.433 . S
C1705 N1708 1.384 . S
C1706 H1697 0.929 . S
C1706 C1698 1.378 . S
C1706 C1701 1.350 . S
C1707 H1694 0.929 . S
C1707 C1699 1.433 . S
C1707 N1709 1.384 . S
N1708 C1704 1.427 . S
N1708 C1705 1.384 . S
N1709 C1701 1.427 . S
N1709 C1707 1.384 . S
H1710 C1716 0.930 . S
H1711 C1720 0.930 . S
H1712 C1725 0.929 . S
H1713 C1723 0.929 . S
H1714 C1718 0.929 . S
H1715 C1724 0.929 . S
C1716 H1710 0.930 . S
C1716 C1717 1.367 . S
C1716 C1724 1.378 . S
C1717 C1716 1.367 . S
C1717 C1725 1.433 . S
C1718 H1714 0.929 . S
C1718 C1720 1.378 . S
C1718 C1722 1.350 . S
C1719 C1722 1.463 . S
C1719 C1724 1.350 . S
C1719 N1727 1.427 . S
C1720 H1711 0.930 . S
C1720 C1718 1.378 . S
C1720 C1721 1.367 . S
C1721 C1720 1.367 . S
C1721 C1723 1.433 . S
C1722 C1718 1.350 . S
C1722 C1719 1.463 . S
C1722 N1726 1.427 . S
C1723 H1713 0.929 . S
C1723 C1721 1.433 . S
C1723 N1726 1.384 . S
C1724 H1715 0.929 . S
C1724 C1716 1.378 . S
C1724 C1719 1.350 . S
C1725 H1712 0.929 . S
C1725 C1717 1.433 . S
C1725 N1727 1.384 . S
N1726 C1722 1.427 . S
N1726 C1723 1.384 . S
N1727 C1719 1.427 . S
N1727 C1725 1.384 . S
H1728 C1734 0.930 . S
H1729 C1738 0.930 . S
H1730 C1743 0.929 . S
H1731 C1741 0.929 . S
H1732 C1736 0.929 . S
H1733 C1742 0.929 . S
C1734 H1728 0.930 . S
C1734 C1735 1.367 . S
C1734 C1742 1.378 . S
C1735 C1734 1.367 . S
C1735 C1743 1.433 . S
C1736 H1732 0.929 . S
C1736 C1738 1.378 . S
C1736 C1740 1.350 . S
C1737 C1740 1.463 . S
C1737 C1742 1.350 . S
C1737 N1745 1.427 . S
C1738 H1729 0.930 . S
C1738 C1736 1.378 . S
C1738 C1739 1.367 . S
C1739 C1738 1.367 . S
C1739 C1741 1.433 . S
C1740 C1736 1.350 . S
C1740 C1737 1.463 . S
C1740 N1744 1.427 . S
C1741 H1731 0.929 . S
C1741 C1739 1.433 . S
C1741 N1744 1.384 . S
C1742 H1733 0.929 . S
C1742 C1734 1.378 . S
C1742 C1737 1.350 . S
C1743 H1730 0.929 . S
C1743 C1735 1.433 . S
C1743 N1745 1.384 . S
N1744 C1740 1.427 . S
N1744 C1741 1.384 . S
N1745 C1737 1.427 . S
N1745 C1743 1.384 . S
H1746 C1752 0.930 . S
H1747 C1756 0.930 . S
H1748 C1761 0.929 . S
H1749 C1759 0.929 . S
H1750 C1754 0.929 . S
H1751 C1760 0.929 . S
C1752 H1746 0.930 . S
C1752 C1753 1.367 . S
C1752 C1760 1.378 . S
C1753 C1752 1.367 . S
C1753 C1761 1.433 . S
C1754 H1750 0.929 . S
C1754 C1756 1.378 . S
C1754 C1758 1.350 . S
C1755 C1758 1.463 . S
C1755 C1760 1.350 . S
C1755 N1763 1.427 . S
C1756 H1747 0.930 . S
C1756 C1754 1.378 . S
C1756 C1757 1.367 . S
C1757 C1756 1.367 . S
C1757 C1759 1.433 . S
C1758 C1754 1.350 . S
C1758 C1755 1.463 . S
C1758 N1762 1.427 . S
C1759 H1749 0.929 . S
C1759 C1757 1.433 . S
C1759 N1762 1.384 . S
C1760 H1751 0.929 . S
C1760 C1752 1.378 . S
C1760 C1755 1.350 . S
C1761 H1748 0.929 . S
C1761 C1753 1.433 . S
C1761 N1763 1.384 . S
N1762 C1758 1.427 . S
N1762 C1759 1.384 . S
N1763 C1755 1.427 . S
N1763 C1761 1.384 . S
H1764 C1770 0.930 . S
H1765 C1774 0.930 . S
H1766 C1779 0.929 . S
H1767 C1777 0.929 . S
H1768 C1772 0.929 . S
H1769 C1778 0.929 . S
C1770 H1764 0.930 . S
C1770 C1771 1.367 . S
C1770 C1778 1.378 . S
C1771 C1770 1.367 . S
C1771 C1779 1.433 . S
C1772 H1768 0.929 . S
C1772 C1774 1.378 . S
C1772 C1776 1.350 . S
C1773 C1776 1.463 . S
C1773 C1778 1.350 . S
C1773 N1781 1.427 . S
C1774 H1765 0.930 . S
C1774 C1772 1.378 . S
C1774 C1775 1.367 . S
C1775 C1774 1.367 . S
C1775 C1777 1.433 . S
C1776 C1772 1.350 . S
C1776 C1773 1.463 . S
C1776 N1780 1.427 . S
C1777 H1767 0.929 . S
C1777 C1775 1.433 . S
C1777 N1780 1.384 . S
C1778 H1769 0.929 . S
C1778 C1770 1.378 . S
C1778 C1773 1.350 . S
C1779 H1766 0.929 . S
C1779 C1771 1.433 . S
C1779 N1781 1.384 . S
N1780 C1776 1.427 . S
N1780 C1777 1.384 . S
N1781 C1773 1.427 . S
N1781 C1779 1.384 . S
H1782 C1788 0.930 . S
H1783 C1792 0.930 . S
H1784 C1797 0.929 . S
H1785 C1795 0.929 . S
H1786 C1790 0.929 . S
H1787 C1796 0.929 . S
C1788 H1782 0.930 . S
C1788 C1789 1.367 . S
C1788 C1796 1.378 . S
C1789 C1788 1.367 . S
C1789 C1797 1.433 . S
C1790 H1786 0.929 . S
C1790 C1792 1.378 . S
C1790 C1794 1.350 . S
C1791 C1794 1.463 . S
C1791 C1796 1.350 . S
C1791 N1799 1.427 . S
C1792 H1783 0.930 . S
C1792 C1790 1.378 . S
C1792 C1793 1.367 . S
C1793 C1792 1.367 . S
C1793 C1795 1.433 . S
C1794 C1790 1.350 . S
C1794 C1791 1.463 . S
C1794 N1798 1.427 . S
C1795 H1785 0.929 . S
C1795 C1793 1.433 . S
C1795 N1798 1.384 . S
C1796 H1787 0.929 . S
C1796 C1788 1.378 . S
C1796 C1791 1.350 . S
C1797 H1784 0.929 . S
C1797 C1789 1.433 . S
C1797 N1799 1.384 . S
N1798 C1794 1.427 . S
N1798 C1795 1.384 . S
N1799 C1791 1.427 . S
N1799 C1797 1.384 . S
H1800 C1806 0.930 . S
H1801 C1810 0.930 . S
H1802 C1815 0.929 . S
H1803 C1813 0.929 . S
H1804 C1808 0.929 . S
H1805 C1814 0.929 . S
C1806 H1800 0.930 . S
C1806 C1807 1.367 . S
C1806 C1814 1.378 . S
C1807 C1806 1.367 . S
C1807 C1815 1.433 . S
C1808 H1804 0.929 . S
C1808 C1810 1.378 . S
C1808 C1812 1.350 . S
C1809 C1812 1.463 . S
C1809 C1814 1.350 . S
C1809 N1817 1.427 . S
C1810 H1801 0.930 . S
C1810 C1808 1.378 . S
C1810 C1811 1.367 . S
C1811 C1810 1.367 . S
C1811 C1813 1.433 . S
C1812 C1808 1.350 . S
C1812 C1809 1.463 . S
C1812 N1816 1.427 . S
C1813 H1803 0.929 . S
C1813 C1811 1.433 . S
C1813 N1816 1.384 . S
C1814 H1805 0.929 . S
C1814 C1806 1.378 . S
C1814 C1809 1.350 . S
C1815 H1802 0.929 . S
C1815 C1807 1.433 . S
C1815 N1817 1.384 . S
N1816 C1812 1.427 . S
N1816 C1813 1.384 . S
N1817 C1809 1.427 . S
N1817 C1815 1.384 . S
H1818 C1824 0.930 . S
H1819 C1828 0.930 . S
H1820 C1833 0.929 . S
H1821 C1831 0.929 . S
H1822 C1826 0.929 . S
H1823 C1832 0.929 . S
C1824 H1818 0.930 . S
C1824 C1825 1.367 . S
C1824 C1832 1.378 . S
C1825 C1824 1.367 . S
C1825 C1833 1.433 . S
C1826 H1822 0.929 . S
C1826 C1828 1.378 . S
C1826 C1830 1.350 . S
C1827 C1830 1.463 . S
C1827 C1832 1.350 . S
C1827 N1835 1.427 . S
C1828 H1819 0.930 . S
C1828 C1826 1.378 . S
C1828 C1829 1.367 . S
C1829 C1828 1.367 . S
C1829 C1831 1.433 . S
C1830 C1826 1.350 . S
C1830 C1827 1.463 . S
C1830 N1834 1.427 . S
C1831 H1821 0.929 . S
C1831 C1829 1.433 . S
C1831 N1834 1.384 . S
C1832 H1823 0.929 . S
C1832 C1824 1.378 . S
C1832 C1827 1.350 . S
C1833 H1820 0.929 . S
C1833 C1825 1.433 . S
C1833 N1835 1.384 . S
N1834 C1830 1.427 . S
N1834 C1831 1.384 . S
N1835 C1827 1.427 . S
N1835 C1833 1.384 . S
H1836 C1842 0.930 . S
H1837 C1846 0.930 . S
H1838 C1851 0.929 . S
H1839 C1849 0.929 . S
H1840 C1844 0.929 . S
H1841 C1850 0.929 . S
C1842 H1836 0.930 . S
C1842 C1843 1.367 . S
C1842 C1850 1.378 . S
C1843 C1842 1.367 . S
C1843 C1851 1.433 . S
C1844 H1840 0.929 . S
C1844 C1846 1.378 . S
C1844 C1848 1.350 . S
C1845 C1848 1.463 . S
C1845 C1850 1.350 . S
C1845 N1853 1.427 . S
C1846 H1837 0.930 . S
C1846 C1844 1.378 . S
C1846 C1847 1.367 . S
C1847 C1846 1.367 . S
C1847 C1849 1.433 . S
C1848 C1844 1.350 . S
C1848 C1845 1.463 . S
C1848 N1852 1.427 . S
C1849 H1839 0.929 . S
C1849 C1847 1.433 . S
C1849 N1852 1.384 . S
C1850 H1841 0.929 . S
C1850 C1842 1.378 . S
C1850 C1845 1.350 . S
C1851 H1838 0.929 . S
C1851 C1843 1.433 . S
C1851 N1853 1.384 . S
N1852 C1848 1.427 . S
N1852 C1849 1.384 . S
N1853 C1845 1.427 . S
N1853 C1851 1.384 . S
H1854 C1860 0.930 . S
H1855 C1864 0.930 . S
H1856 C1869 0.929 . S
H1857 C1867 0.929 . S
H1858 C1862 0.929 . S
H1859 C1868 0.929 . S
C1860 H1854 0.930 . S
C1860 C1861 1.367 . S
C1860 C1868 1.378 . S
C1861 C1860 1.367 . S
C1861 C1869 1.433 . S
C1862 H1858 0.929 . S
C1862 C1864 1.378 . S
C1862 C1866 1.350 . S
C1863 C1866 1.463 . S
C1863 C1868 1.350 . S
C1863 N1871 1.427 . S
C1864 H1855 0.930 . S
C1864 C1862 1.378 . S
C1864 C1865 1.367 . S
C1865 C1864 1.367 . S
C1865 C1867 1.433 . S
C1866 C1862 1.350 . S
C1866 C1863 1.463 . S
C1866 N1870 1.427 . S
C1867 H1857 0.929 . S
C1867 C1865 1.433 . S
C1867 N1870 1.384 . S
C1868 H1859 0.929 . S
C1868 C1860 1.378 . S
C1868 C1863 1.350 . S
C1869 H1856 0.929 . S
C1869 C1861 1.433 . S
C1869 N1871 1.384 . S
N1870 C1866 1.427 . S
N1870 C1867 1.384 . S
N1871 C1863 1.427 . S
N1871 C1869 1.384 . S
H1872 C1878 0.930 . S
H1873 C1882 0.930 . S
H1874 C1887 0.929 . S
H1875 C1885 0.929 . S
H1876 C1880 0.929 . S
H1877 C1886 0.929 . S
C1878 H1872 0.930 . S
C1878 C1879 1.367 . S
C1878 C1886 1.378 . S
C1879 C1878 1.367 . S
C1879 C1887 1.433 . S
C1880 H1876 0.929 . S
C1880 C1882 1.378 . S
C1880 C1884 1.350 . S
C1881 C1884 1.463 . S
C1881 C1886 1.350 . S
C1881 N1889 1.427 . S
C1882 H1873 0.930 . S
C1882 C1880 1.378 . S
C1882 C1883 1.367 . S
C1883 C1882 1.367 . S
C1883 C1885 1.433 . S
C1884 C1880 1.350 . S
C1884 C1881 1.463 . S
C1884 N1888 1.427 . S
C1885 H1875 0.929 . S
C1885 C1883 1.433 . S
C1885 N1888 1.384 . S
C1886 H1877 0.929 . S
C1886 C1878 1.378 . S
C1886 C1881 1.350 . S
C1887 H1874 0.929 . S
C1887 C1879 1.433 . S
C1887 N1889 1.384 . S
N1888 C1884 1.427 . S
N1888 C1885 1.384 . S
N1889 C1881 1.427 . S
N1889 C1887 1.384 . S
H1890 C1896 0.930 . S
H1891 C1900 0.930 . S
H1892 C1905 0.929 . S
H1893 C1903 0.929 . S
H1894 C1898 0.929 . S
H1895 C1904 0.929 . S
C1896 H1890 0.930 . S
C1896 C1897 1.367 . S
C1896 C1904 1.378 . S
C1897 C1896 1.367 . S
C1897 C1905 1.433 . S
C1898 H1894 0.929 . S
C1898 C1900 1.378 . S
C1898 C1902 1.350 . S
C1899 C1902 1.463 . S
C1899 C1904 1.350 . S
C1899 N1907 1.427 . S
C1900 H1891 0.930 . S
C1900 C1898 1.378 . S
C1900 C1901 1.367 . S
C1901 C1900 1.367 . S
C1901 C1903 1.433 . S
C1902 C1898 1.350 . S
C1902 C1899 1.463 . S
C1902 N1906 1.427 . S
C1903 H1893 0.929 . S
C1903 C1901 1.433 . S
C1903 N1906 1.384 . S
C1904 H1895 0.929 . S
C1904 C1896 1.378 . S
C1904 C1899 1.350 . S
C1905 H1892 0.929 . S
C1905 C1897 1.433 . S
C1905 N1907 1.384 . S
N1906 C1902 1.427 . S
N1906 C1903 1.384 . S
N1907 C1899 1.427 . S
N1907 C1905 1.384 . S
H1908 C1914 0.930 . S
H1909 C1918 0.930 . S
H1910 C1923 0.929 . S
H1911 C1921 0.929 . S
H1912 C1916 0.929 . S
H1913 C1922 0.929 . S
C1914 H1908 0.930 . S
C1914 C1915 1.367 . S
C1914 C1922 1.378 . S
C1915 C1914 1.367 . S
C1915 C1923 1.433 . S
C1916 H1912 0.929 . S
C1916 C1918 1.378 . S
C1916 C1920 1.350 . S
C1917 C1920 1.463 . S
C1917 C1922 1.350 . S
C1917 N1925 1.427 . S
C1918 H1909 0.930 . S
C1918 C1916 1.378 . S
C1918 C1919 1.367 . S
C1919 C1918 1.367 . S
C1919 C1921 1.433 . S
C1920 C1916 1.350 . S
C1920 C1917 1.463 . S
C1920 N1924 1.427 . S
C1921 H1911 0.929 . S
C1921 C1919 1.433 . S
C1921 N1924 1.384 . S
C1922 H1913 0.929 . S
C1922 C1914 1.378 . S
C1922 C1917 1.350 . S
C1923 H1910 0.929 . S
C1923 C1915 1.433 . S
C1923 N1925 1.384 . S
N1924 C1920 1.427 . S
N1924 C1921 1.384 . S
N1925 C1917 1.427 . S
N1925 C1923 1.384 . S
C961 C151 1.131 . S
C965 C265 1.090 . S
C979 C159 1.695 . S
C983 C349 1.782 . S
C997 C137 1.311 . S
C1001 C429 1.441 . S
C1015 C126 1.259 . S
C1019 C345 1.423 1_556 S
C1037 C433 1.737 . S
C1033 C104 1.640 . S
C1051 C118 1.081 . S
C1055 C261 1.088 1_556 S
C1073 C254 1.355 . S
C1069 C129 1.414 . S
C1091 C338 1.543 . S
C1087 C107 1.622 . S
C1105 C115 1.248 . S
C1109 C440 1.437 . S
C1123 C148 1.255 . S
C1127 C356 1.416 . S
C1141 C162 1.574 . S
C1145 C422 1.492 . S
C1163 C272 1.348 . S
C1159 C140 1.376 . S
C1181 C517 1.090 . S
C1177 C19 1.131 . S
C1195 C27 1.689 . S
C1199 C601 1.779 . S
C1213 C5 1.317 . S
C1217 C681 1.439 . S
C1231 C192 1.260 . S
C1235 C597 1.424 . S
C1249 C170 1.651 . S
C1253 C685 1.732 . S
C1267 C184 1.081 . S
C1271 C513 1.081 . S
C1285 C195 1.412 . S
C1289 C506 1.347 . S
C1303 C173 1.619 . S
C1307 C590 1.557 . S
C1325 C692 1.445 . S
C1321 C181 1.257 . S
C1339 C16 1.255 . S
C1343 C608 1.416 . S
C1361 C674 1.490 . S
C1357 C30 1.575 . S
C1375 C8 1.378 . S
C1379 C524 1.354 . S
C1397 C769 1.090 . S
C1393 C85 1.131 . S
C1411 C93 1.678 . S
C1415 C853 1.784 . S
C1433 C933 1.451 . S
C1429 C71 1.294 . S
C1451 C849 1.413 . S
C1447 C60 1.281 . S
C1469 C937 1.739 . S
C1465 C38 1.638 . S
C1483 C52 1.088 . S
C1487 C765 1.085 . S
C1501 C63 1.412 . S
C1505 C758 1.362 . S
C1519 C41 1.620 . S
C1523 C842 1.550 . S
C1541 C944 1.443 . S
C1537 C49 1.252 . S
C1555 C82 1.246 . S
C1559 C860 1.416 . S
C1573 C96 1.573 . S
C1577 C926 1.499 . S
C1591 C74 1.376 . S
C1595 C776 1.357 . S
C1609 C172 1.605 . S
C1613 C268 1.487 . S
C1631 C352 1.230 . S
C1627 C183 1.312 . S
C1645 C194 1.464 . S
C1649 C424 1.345 . S
C1663 C73 1.508 . S
C1667 C340 1.367 . S
C1681 C84 1.280 . S
C1685 C436 1.207 . S
C1703 C256 1.483 . S
C1699 C95 1.580 . S
C1717 C40 1.592 . S
C1721 C520 1.496 . S
C1735 C51 1.305 . S
C1739 C604 1.204 . S
C1753 C62 1.475 . S
C1757 C676 1.336 . S
C1771 C139 1.501 . S
C1775 C592 1.369 . S
C1793 C688 1.203 . S
C1789 C150 1.273 . S
C1807 C161 1.593 . S
C1811 C508 1.465 . S
C1825 C106 1.592 . S
C1829 C772 1.498 . S
C1843 C117 1.303 . S
C1847 C856 1.204 . S
C1865 C928 1.336 . S
C1861 C128 1.468 . S
C1879 C7 1.501 . S
C1883 C844 1.366 . S
C1897 C18 1.274 . S
C1901 C940 1.204 . S
C1915 C29 1.582 . S
C1919 C760 1.476 . S
