# Generated by pormake.
# Topology gar, (4,6)-cn, num edge types: 1
# Building blocks:
#     Node 0, Type 0, BuildingBlock: KUFVIS_clean_sbu_0, # of connection points: 4
#     Node 1, Type 0, BuildingBlock: KUFVIS_clean_sbu_0, # of connection points: 4
#     Node 2, Type 0, BuildingBlock: KUFVIS_clean_sbu_0, # of connection points: 4
#     Node 3, Type 0, BuildingBlock: KUFVIS_clean_sbu_0, # of connection points: 4
#     Node 4, Type 0, BuildingBlock: KUFVIS_clean_sbu_0, # of connection points: 4
#     Node 5, Type 0, BuildingBlock: KUFVIS_clean_sbu_0, # of connection points: 4
#     Node 6, Type 0, BuildingBlock: KUFVIS_clean_sbu_0, # of connection points: 4
#     Node 7, Type 0, BuildingBlock: KUFVIS_clean_sbu_0, # of connection points: 4
#     Node 8, Type 0, BuildingBlock: KUFVIS_clean_sbu_0, # of connection points: 4
#     Node 9, Type 0, BuildingBlock: KUFVIS_clean_sbu_0, # of connection points: 4
#     Node 10, Type 0, BuildingBlock: KUFVIS_clean_sbu_0, # of connection points: 4
#     Node 11, Type 0, BuildingBlock: KUFVIS_clean_sbu_0, # of connection points: 4
#     Node 12, Type 0, BuildingBlock: KUFVIS_clean_sbu_0, # of connection points: 4
#     Node 13, Type 0, BuildingBlock: KUFVIS_clean_sbu_0, # of connection points: 4
#     Node 14, Type 0, BuildingBlock: KUFVIS_clean_sbu_0, # of connection points: 4
#     Node 15, Type 0, BuildingBlock: KUFVIS_clean_sbu_0, # of connection points: 4
#     Node 16, Type 0, BuildingBlock: KUFVIS_clean_sbu_0, # of connection points: 4
#     Node 17, Type 0, BuildingBlock: KUFVIS_clean_sbu_0, # of connection points: 4
#     Node 18, Type 0, BuildingBlock: KUFVIS_clean_sbu_0, # of connection points: 4
#     Node 19, Type 0, BuildingBlock: KUFVIS_clean_sbu_0, # of connection points: 4
#     Node 20, Type 0, BuildingBlock: KUFVIS_clean_sbu_0, # of connection points: 4
#     Node 21, Type 0, BuildingBlock: KUFVIS_clean_sbu_0, # of connection points: 4
#     Node 22, Type 0, BuildingBlock: KUFVIS_clean_sbu_0, # of connection points: 4
#     Node 23, Type 0, BuildingBlock: KUFVIS_clean_sbu_0, # of connection points: 4
#     Node 24, Type 1, BuildingBlock: BETDEL_clean_sbu_0, # of connection points: 6
#     Node 25, Type 1, BuildingBlock: BETDEL_clean_sbu_0, # of connection points: 6
#     Node 26, Type 1, BuildingBlock: BETDEL_clean_sbu_0, # of connection points: 6
#     Node 27, Type 1, BuildingBlock: BETDEL_clean_sbu_0, # of connection points: 6
#     Node 28, Type 1, BuildingBlock: BETDEL_clean_sbu_0, # of connection points: 6
#     Node 29, Type 1, BuildingBlock: BETDEL_clean_sbu_0, # of connection points: 6
#     Node 30, Type 1, BuildingBlock: BETDEL_clean_sbu_0, # of connection points: 6
#     Node 31, Type 1, BuildingBlock: BETDEL_clean_sbu_0, # of connection points: 6
#     Node 32, Type 1, BuildingBlock: BETDEL_clean_sbu_0, # of connection points: 6
#     Node 33, Type 1, BuildingBlock: BETDEL_clean_sbu_0, # of connection points: 6
#     Node 34, Type 1, BuildingBlock: BETDEL_clean_sbu_0, # of connection points: 6
#     Node 35, Type 1, BuildingBlock: BETDEL_clean_sbu_0, # of connection points: 6
#     Node 36, Type 1, BuildingBlock: BETDEL_clean_sbu_0, # of connection points: 6
#     Node 37, Type 1, BuildingBlock: BETDEL_clean_sbu_0, # of connection points: 6
#     Node 38, Type 1, BuildingBlock: BETDEL_clean_sbu_0, # of connection points: 6
#     Node 39, Type 1, BuildingBlock: BETDEL_clean_sbu_0, # of connection points: 6
#     Edge 40, Type (0, 1), BuildingBlock: CIFDUS_clean_linker_0, # of connection points: 2
#     Edge 41, Type (0, 1), BuildingBlock: CIFDUS_clean_linker_0, # of connection points: 2
#     Edge 42, Type (0, 1), BuildingBlock: CIFDUS_clean_linker_0, # of connection points: 2
#     Edge 43, Type (0, 1), BuildingBlock: CIFDUS_clean_linker_0, # of connection points: 2
#     Edge 44, Type (0, 1), BuildingBlock: CIFDUS_clean_linker_0, # of connection points: 2
#     Edge 45, Type (0, 1), BuildingBlock: CIFDUS_clean_linker_0, # of connection points: 2
#     Edge 46, Type (0, 1), BuildingBlock: CIFDUS_clean_linker_0, # of connection points: 2
#     Edge 47, Type (0, 1), BuildingBlock: CIFDUS_clean_linker_0, # of connection points: 2
#     Edge 48, Type (0, 1), BuildingBlock: CIFDUS_clean_linker_0, # of connection points: 2
#     Edge 49, Type (0, 1), BuildingBlock: CIFDUS_clean_linker_0, # of connection points: 2
#     Edge 50, Type (0, 1), BuildingBlock: CIFDUS_clean_linker_0, # of connection points: 2
#     Edge 51, Type (0, 1), BuildingBlock: CIFDUS_clean_linker_0, # of connection points: 2
#     Edge 52, Type (0, 1), BuildingBlock: CIFDUS_clean_linker_0, # of connection points: 2
#     Edge 53, Type (0, 1), BuildingBlock: CIFDUS_clean_linker_0, # of connection points: 2
#     Edge 54, Type (0, 1), BuildingBlock: CIFDUS_clean_linker_0, # of connection points: 2
#     Edge 55, Type (0, 1), BuildingBlock: CIFDUS_clean_linker_0, # of connection points: 2
#     Edge 56, Type (0, 1), BuildingBlock: CIFDUS_clean_linker_0, # of connection points: 2
#     Edge 57, Type (0, 1), BuildingBlock: CIFDUS_clean_linker_0, # of connection points: 2
#     Edge 58, Type (0, 1), BuildingBlock: CIFDUS_clean_linker_0, # of connection points: 2
#     Edge 59, Type (0, 1), BuildingBlock: CIFDUS_clean_linker_0, # of connection points: 2
#     Edge 60, Type (0, 1), BuildingBlock: CIFDUS_clean_linker_0, # of connection points: 2
#     Edge 61, Type (0, 1), BuildingBlock: CIFDUS_clean_linker_0, # of connection points: 2
#     Edge 62, Type (0, 1), BuildingBlock: CIFDUS_clean_linker_0, # of connection points: 2
#     Edge 63, Type (0, 1), BuildingBlock: CIFDUS_clean_linker_0, # of connection points: 2
#     Edge 64, Type (0, 1), BuildingBlock: CIFDUS_clean_linker_0, # of connection points: 2
#     Edge 65, Type (0, 1), BuildingBlock: CIFDUS_clean_linker_0, # of connection points: 2
#     Edge 66, Type (0, 1), BuildingBlock: CIFDUS_clean_linker_0, # of connection points: 2
#     Edge 67, Type (0, 1), BuildingBlock: CIFDUS_clean_linker_0, # of connection points: 2
#     Edge 68, Type (0, 1), BuildingBlock: CIFDUS_clean_linker_0, # of connection points: 2
#     Edge 69, Type (0, 1), BuildingBlock: CIFDUS_clean_linker_0, # of connection points: 2
#     Edge 70, Type (0, 1), BuildingBlock: CIFDUS_clean_linker_0, # of connection points: 2
#     Edge 71, Type (0, 1), BuildingBlock: CIFDUS_clean_linker_0, # of connection points: 2
#     Edge 72, Type (0, 1), BuildingBlock: CIFDUS_clean_linker_0, # of connection points: 2
#     Edge 73, Type (0, 1), BuildingBlock: CIFDUS_clean_linker_0, # of connection points: 2
#     Edge 74, Type (0, 1), BuildingBlock: CIFDUS_clean_linker_0, # of connection points: 2
#     Edge 75, Type (0, 1), BuildingBlock: CIFDUS_clean_linker_0, # of connection points: 2
#     Edge 76, Type (0, 1), BuildingBlock: CIFDUS_clean_linker_0, # of connection points: 2
#     Edge 77, Type (0, 1), BuildingBlock: CIFDUS_clean_linker_0, # of connection points: 2
#     Edge 78, Type (0, 1), BuildingBlock: CIFDUS_clean_linker_0, # of connection points: 2
#     Edge 79, Type (0, 1), BuildingBlock: CIFDUS_clean_linker_0, # of connection points: 2
#     Edge 80, Type (0, 1), BuildingBlock: CIFDUS_clean_linker_0, # of connection points: 2
#     Edge 81, Type (0, 1), BuildingBlock: CIFDUS_clean_linker_0, # of connection points: 2
#     Edge 82, Type (0, 1), BuildingBlock: CIFDUS_clean_linker_0, # of connection points: 2
#     Edge 83, Type (0, 1), BuildingBlock: CIFDUS_clean_linker_0, # of connection points: 2
#     Edge 84, Type (0, 1), BuildingBlock: CIFDUS_clean_linker_0, # of connection points: 2
#     Edge 85, Type (0, 1), BuildingBlock: CIFDUS_clean_linker_0, # of connection points: 2
#     Edge 86, Type (0, 1), BuildingBlock: CIFDUS_clean_linker_0, # of connection points: 2
#     Edge 87, Type (0, 1), BuildingBlock: CIFDUS_clean_linker_0, # of connection points: 2
#     Edge 88, Type (0, 1), BuildingBlock: CIFDUS_clean_linker_0, # of connection points: 2
#     Edge 89, Type (0, 1), BuildingBlock: CIFDUS_clean_linker_0, # of connection points: 2
#     Edge 90, Type (0, 1), BuildingBlock: CIFDUS_clean_linker_0, # of connection points: 2
#     Edge 91, Type (0, 1), BuildingBlock: CIFDUS_clean_linker_0, # of connection points: 2
#     Edge 92, Type (0, 1), BuildingBlock: CIFDUS_clean_linker_0, # of connection points: 2
#     Edge 93, Type (0, 1), BuildingBlock: CIFDUS_clean_linker_0, # of connection points: 2
#     Edge 94, Type (0, 1), BuildingBlock: CIFDUS_clean_linker_0, # of connection points: 2
#     Edge 95, Type (0, 1), BuildingBlock: CIFDUS_clean_linker_0, # of connection points: 2
#     Edge 96, Type (0, 1), BuildingBlock: CIFDUS_clean_linker_0, # of connection points: 2
#     Edge 97, Type (0, 1), BuildingBlock: CIFDUS_clean_linker_0, # of connection points: 2
#     Edge 98, Type (0, 1), BuildingBlock: CIFDUS_clean_linker_0, # of connection points: 2
#     Edge 99, Type (0, 1), BuildingBlock: CIFDUS_clean_linker_0, # of connection points: 2
#     Edge 100, Type (0, 1), BuildingBlock: CIFDUS_clean_linker_0, # of connection points: 2
#     Edge 101, Type (0, 1), BuildingBlock: CIFDUS_clean_linker_0, # of connection points: 2
#     Edge 102, Type (0, 1), BuildingBlock: CIFDUS_clean_linker_0, # of connection points: 2
#     Edge 103, Type (0, 1), BuildingBlock: CIFDUS_clean_linker_0, # of connection points: 2
#     Edge 104, Type (0, 1), BuildingBlock: CIFDUS_clean_linker_0, # of connection points: 2
#     Edge 105, Type (0, 1), BuildingBlock: CIFDUS_clean_linker_0, # of connection points: 2
#     Edge 106, Type (0, 1), BuildingBlock: CIFDUS_clean_linker_0, # of connection points: 2
#     Edge 107, Type (0, 1), BuildingBlock: CIFDUS_clean_linker_0, # of connection points: 2
#     Edge 108, Type (0, 1), BuildingBlock: CIFDUS_clean_linker_0, # of connection points: 2
#     Edge 109, Type (0, 1), BuildingBlock: CIFDUS_clean_linker_0, # of connection points: 2
#     Edge 110, Type (0, 1), BuildingBlock: CIFDUS_clean_linker_0, # of connection points: 2
#     Edge 111, Type (0, 1), BuildingBlock: CIFDUS_clean_linker_0, # of connection points: 2
#     Edge 112, Type (0, 1), BuildingBlock: CIFDUS_clean_linker_0, # of connection points: 2
#     Edge 113, Type (0, 1), BuildingBlock: CIFDUS_clean_linker_0, # of connection points: 2
#     Edge 114, Type (0, 1), BuildingBlock: CIFDUS_clean_linker_0, # of connection points: 2
#     Edge 115, Type (0, 1), BuildingBlock: CIFDUS_clean_linker_0, # of connection points: 2
#     Edge 116, Type (0, 1), BuildingBlock: CIFDUS_clean_linker_0, # of connection points: 2
#     Edge 117, Type (0, 1), BuildingBlock: CIFDUS_clean_linker_0, # of connection points: 2
#     Edge 118, Type (0, 1), BuildingBlock: CIFDUS_clean_linker_0, # of connection points: 2
#     Edge 119, Type (0, 1), BuildingBlock: CIFDUS_clean_linker_0, # of connection points: 2
#     Edge 120, Type (0, 1), BuildingBlock: CIFDUS_clean_linker_0, # of connection points: 2
#     Edge 121, Type (0, 1), BuildingBlock: CIFDUS_clean_linker_0, # of connection points: 2
#     Edge 122, Type (0, 1), BuildingBlock: CIFDUS_clean_linker_0, # of connection points: 2
#     Edge 123, Type (0, 1), BuildingBlock: CIFDUS_clean_linker_0, # of connection points: 2
#     Edge 124, Type (0, 1), BuildingBlock: CIFDUS_clean_linker_0, # of connection points: 2
#     Edge 125, Type (0, 1), BuildingBlock: CIFDUS_clean_linker_0, # of connection points: 2
#     Edge 126, Type (0, 1), BuildingBlock: CIFDUS_clean_linker_0, # of connection points: 2
#     Edge 127, Type (0, 1), BuildingBlock: CIFDUS_clean_linker_0, # of connection points: 2
#     Edge 128, Type (0, 1), BuildingBlock: CIFDUS_clean_linker_0, # of connection points: 2
#     Edge 129, Type (0, 1), BuildingBlock: CIFDUS_clean_linker_0, # of connection points: 2
#     Edge 130, Type (0, 1), BuildingBlock: CIFDUS_clean_linker_0, # of connection points: 2
#     Edge 131, Type (0, 1), BuildingBlock: CIFDUS_clean_linker_0, # of connection points: 2
#     Edge 132, Type (0, 1), BuildingBlock: CIFDUS_clean_linker_0, # of connection points: 2
#     Edge 133, Type (0, 1), BuildingBlock: CIFDUS_clean_linker_0, # of connection points: 2
#     Edge 134, Type (0, 1), BuildingBlock: CIFDUS_clean_linker_0, # of connection points: 2
#     Edge 135, Type (0, 1), BuildingBlock: CIFDUS_clean_linker_0, # of connection points: 2
# Relax obj value: 0.142
# Max RMSD: 0.273
# Mean RMSD: 0.141
data_MOF--net-gar--node1-KUFVIS_clean_sbu_0--node2-BETDEL_clean_sbu_0--edge1-CIFDUS_clean_linker_0
_symmetry_space_group_name_H-M    P1
_symmetry_Int_Tables_number       1
_symmetry_cell_setting            triclinic
loop_
_symmetry_equiv_pos_as_xyz
'x, y, z'
_cell_length_a     48.400175
_cell_length_b     46.05595
_cell_length_c     48.483312
_cell_angle_alpha  95.147429
_cell_angle_beta   92.268592
_cell_angle_gamma 100.5521
loop_
_atom_site_label
_atom_site_type_symbol
_atom_site_fract_x
_atom_site_fract_y
_atom_site_fract_z
_atom_type_partial_charge
Mn0 Mn 0.03068 0.27097 0.40365 0.0
Mn1 Mn 0.03669 0.32094 0.35588 0.0
C2 C 0.99091 0.28661 0.38598 0.0
C3 C 0.02492 0.22359 0.41903 0.0
C4 C 0.0517 0.33786 0.4172 0.0
O5 O 0.06943 0.26846 0.38857 0.0
O6 O 0.06962 0.30086 0.35637 0.0
C7 C 0.03279 0.27925 0.30499 0.0
N8 N 0.02396 0.30209 0.31973 0.0
C9 C 0.99327 0.30848 0.28137 0.0
C10 C 1.00244 0.2854 0.2656 0.0
C11 C 0.02209 0.27054 0.27755 0.0
C12 C 1.00453 0.31603 0.30866 0.0
H13 H 0.04783 0.26775 0.31413 0.0
C14 C 0.08056 0.28169 0.36845 0.0
O15 O 0.03713 0.24714 0.43448 0.0
O16 O 0.01686 0.22722 0.39382 0.0
N17 N 0.00621 0.34186 0.35237 0.0
C18 C 0.9976 0.36166 0.3712 0.0
C19 C 0.97657 0.37703 0.36316 0.0
C20 C 0.96494 0.37229 0.33576 0.0
C21 C 0.97433 0.35204 0.31668 0.0
C22 C 0.99521 0.33721 0.32593 0.0
H23 H 0.00656 0.36553 0.39224 0.0
O24 O 0.99101 0.27603 0.40991 0.0
O25 O 0.01395 0.28778 0.37288 0.0
O26 O 0.04563 0.31164 0.4242 0.0
O27 O 0.0498 0.34379 0.39209 0.0
C28 C 0.96343 0.34559 0.28897 0.0
C29 C 0.97292 0.32384 0.27131 0.0
H30 H 0.99422 0.2786 0.24443 0.0
H31 H 0.02902 0.25247 0.26562 0.0
H32 H 0.96939 0.39258 0.37803 0.0
H33 H 0.94867 0.38413 0.32966 0.0
H34 H 0.9473 0.35673 0.2812 0.0
H35 H 0.96391 0.31858 0.25025 0.0
Mn36 Mn 1.00372 0.76777 0.62215 0.0
Mn37 Mn 0.02838 0.82147 0.67378 0.0
C38 C 0.0508 0.77653 0.63731 0.0
C39 C 0.98387 0.71948 0.60444 0.0
C40 C 0.01638 0.83429 0.61466 0.0
O41 O 0.96804 0.77414 0.64055 0.0
O42 O 0.98622 0.81072 0.6739 0.0
C43 C 0.01293 0.78652 0.72118 0.0
N44 N 0.03287 0.80338 0.70732 0.0
C45 C 0.06926 0.79913 0.74123 0.0
C46 C 0.04907 0.7819 0.75592 0.0
C47 C 0.0208 0.77553 0.74582 0.0
C48 C 0.06017 0.80955 0.71682 0.0
H49 H 0.99118 0.78142 0.7135 0.0
C50 C 0.96538 0.79232 0.66134 0.0
O51 O 0.98182 0.74202 0.59082 0.0
O52 O 0.99659 0.72504 0.62898 0.0
N53 N 0.06857 0.83345 0.67685 0.0
C54 C 0.08576 0.84896 0.65949 0.0
C55 C 0.11481 0.85664 0.66635 0.0
C56 C 0.12593 0.84832 0.691 0.0
C57 C 0.10786 0.83245 0.70861 0.0
C58 C 0.07903 0.82569 0.70082 0.0
H59 H 0.07744 0.85504 0.64037 0.0
O60 O 0.04287 0.76445 0.61235 0.0
O61 O 0.03102 0.78368 0.65249 0.0
O62 O 0.00704 0.80738 0.60562 0.0
O63 O 0.02545 0.84242 0.63982 0.0
C64 C 0.1174 0.8226 0.73331 0.0
C65 C 0.09812 0.80594 0.74961 0.0
H66 H 0.05507 0.77325 0.77487 0.0
H67 H 1.00511 0.76211 0.75697 0.0
H68 H 0.12863 0.86874 0.65256 0.0
H69 H 0.14839 0.854 0.69608 0.0
H70 H 0.13959 0.82731 0.73976 0.0
H71 H 0.10576 0.79812 0.76835 0.0
Mn72 Mn 0.53543 0.78583 0.90678 0.0
Mn73 Mn 0.53502 0.83017 0.85448 0.0
C74 C 0.49307 0.79593 0.88896 0.0
C75 C 0.53589 0.74178 0.92732 0.0
C76 C 0.55031 0.85415 0.91411 0.0
O77 O 0.57364 0.78461 0.89051 0.0
O78 O 0.57134 0.8161 0.85783 0.0
C79 C 0.53691 0.78457 0.80774 0.0
N80 N 0.52463 0.80638 0.81999 0.0
C81 C 0.49277 0.80386 0.78009 0.0
C82 C 0.50514 0.78144 0.76699 0.0
C83 C 0.52717 0.77162 0.78096 0.0
C84 C 0.50308 0.81561 0.80694 0.0
H85 H 0.55408 0.77722 0.81826 0.0
C86 C 0.58398 0.79881 0.87072 0.0
O87 O 0.54674 0.76752 0.93979 0.0
O88 O 0.52473 0.74114 0.90232 0.0
N89 N 0.50162 0.84577 0.84781 0.0
C90 C 0.49101 0.86646 0.86389 0.0
C91 C 0.4682 0.87788 0.85335 0.0
C92 C 0.457 0.86849 0.82617 0.0
C93 C 0.46863 0.84762 0.80981 0.0
C94 C 0.49113 0.83676 0.82155 0.0
H95 H 0.49979 0.8741 0.88465 0.0
O96 O 0.49543 0.78843 0.91404 0.0
O97 O 0.51548 0.79739 0.87474 0.0
O98 O 0.54846 0.82879 0.92299 0.0
O99 O 0.54538 0.85752 0.8887 0.0
C100 C 0.45852 0.83685 0.78245 0.0
C101 C 0.4705 0.81488 0.76765 0.0
H102 H 0.49782 0.77153 0.74628 0.0
H103 H 0.53679 0.75428 0.77102 0.0
H104 H 0.45939 0.89403 0.86609 0.0
H105 H 0.43941 0.87734 0.81811 0.0
H106 H 0.44115 0.84483 0.77282 0.0
H107 H 0.46218 0.80634 0.74684 0.0
Mn108 Mn 0.50261 0.27922 0.13291 0.0
Mn109 Mn 0.45866 0.26699 0.07563 0.0
C110 C 0.48566 0.23134 0.11229 0.0
C111 C 0.54761 0.28583 0.15453 0.0
C112 C 0.44037 0.28403 0.13325 0.0
O113 O 0.50892 0.32003 0.11771 0.0
O114 O 0.48061 0.30803 0.07859 0.0
C115 C 0.5014 0.27046 0.03337 0.0
N116 N 0.47843 0.25506 0.04446 0.0
C117 C 0.47705 0.213 0.01081 0.0
C118 C 0.50051 0.22855 0.99887 0.0
C119 C 0.51278 0.25737 0.01026 0.0
C120 C 0.4666 0.22721 0.03379 0.0
H121 H 0.51109 0.2925 0.0422 0.0
C122 C 0.49873 0.32637 0.09464 0.0
O123 O 0.52681 0.29398 0.16735 0.0
O124 O 0.5427 0.27583 0.12859 0.0
N125 N 0.43681 0.22757 0.07029 0.0
C126 C 0.41531 0.21492 0.08519 0.0
C127 C 0.40101 0.18591 0.07674 0.0
C128 C 0.40892 0.17023 0.05307 0.0
C129 C 0.43111 0.18368 0.03807 0.0
C130 C 0.44438 0.21277 0.0473 0.0
H131 H 0.40917 0.22681 0.10343 0.0
O132 O 0.49412 0.2356 0.13831 0.0
O133 O 0.48662 0.25513 0.09986 0.0
O134 O 0.46407 0.28487 0.14606 0.0
O135 O 0.43629 0.27819 0.10694 0.0
C136 C 0.44097 0.16914 0.0147 0.0
C137 C 0.464 0.18375 1.00114 0.0
H138 H 0.50945 0.21847 0.98113 0.0
H139 H 0.53103 0.26943 1.0013 0.0
H140 H 0.38401 0.17561 0.08852 0.0
H141 H 0.39805 0.14773 0.04681 0.0
H142 H 0.43129 0.14654 1.00725 0.0
H143 H 0.47168 0.17216 0.98346 0.0
Mn144 Mn 0.05458 0.787 0.15623 0.0
Mn145 Mn 0.00642 0.76009 0.1031 0.0
C146 C 0.04421 0.73657 0.14216 0.0
C147 C 0.09993 0.80559 0.1761 0.0
C148 C 0.99075 0.77845 0.16099 0.0
O149 O 0.05125 0.82436 0.13693 0.0
O150 O 0.02007 0.80318 0.10178 0.0
C151 C 0.04439 0.76801 0.05685 0.0
N152 N 0.02536 0.75008 0.07074 0.0
C153 C 0.02618 0.70814 0.03758 0.0
C154 C 0.04572 0.72618 0.02285 0.0
C155 C 0.05496 0.75621 0.0326 0.0
C156 C 0.01664 0.72107 0.06175 0.0
H157 H 0.05141 0.79113 0.06421 0.0
C158 C 0.03608 0.8258 0.11496 0.0
O159 O 0.07761 0.81025 0.18832 0.0
O160 O 0.09607 0.79201 0.15115 0.0
N161 N 0.99109 0.71853 0.1014 0.0
C162 C 0.97245 0.70405 0.1182 0.0
C163 C 0.96127 0.67376 0.11145 0.0
C164 C 0.96899 0.65878 0.08728 0.0
C165 C 0.98778 0.67426 0.07002 0.0
C166 C 0.99821 0.70444 0.0778 0.0
H167 H 0.96617 0.71552 0.13664 0.0
O168 O 0.05492 0.7461 0.16698 0.0
O169 O 0.03994 0.7567 0.12616 0.0
O170 O 0.01581 0.78576 0.17153 0.0
O171 O 0.98467 0.76909 0.1355 0.0
C172 C 0.99667 0.66091 0.04548 0.0
C173 C 0.01594 0.67781 0.02932 0.0
H174 H 0.05385 0.71719 1.0041 0.0
H175 H 0.07009 0.77024 0.02139 0.0
H176 H 0.94668 0.662 0.12482 0.0
H177 H 0.96039 0.6354 0.08218 0.0
H178 H 0.98906 0.63758 0.039 0.0
H179 H 0.02292 0.6672 0.0107 0.0
Mn180 Mn 0.48846 0.75712 0.3846 0.0
Mn181 Mn 0.48241 0.79952 0.33195 0.0
C182 C 0.44403 0.75922 0.36556 0.0
C183 C 0.49614 0.71387 0.40273 0.0
C184 C 0.49377 0.8249 0.39199 0.0
O185 O 0.52791 0.76386 0.37041 0.0
O186 O 0.52142 0.79147 0.33565 0.0
C187 C 0.49081 0.75603 0.28559 0.0
N188 N 0.47513 0.77492 0.29756 0.0
C189 C 0.44245 0.76654 0.25768 0.0
C190 C 0.45833 0.74714 0.24485 0.0
C191 C 0.48253 0.74173 0.25895 0.0
C192 C 0.4516 0.77992 0.28435 0.0
H193 H 0.50955 0.75199 0.29624 0.0
C194 C 0.5368 0.77783 0.35 0.0
O195 O 0.50217 0.7395 0.41715 0.0
O196 O 0.48537 0.71317 0.37761 0.0
N197 N 0.44615 0.80895 0.32483 0.0
C198 C 0.43202 0.82634 0.34096 0.0
C199 C 0.4066 0.83269 0.3305 0.0
C200 C 0.39637 0.82181 0.30329 0.0
C201 C 0.41144 0.80425 0.28696 0.0
C202 C 0.43641 0.79822 0.29868 0.0
H203 H 0.43981 0.83479 0.36182 0.0
O204 O 0.44722 0.75164 0.39049 0.0
O205 O 0.46694 0.76519 0.35218 0.0
O206 O 0.49443 0.80016 0.40148 0.0
O207 O 0.48926 0.8275 0.36628 0.0
C208 C 0.40231 0.79187 0.25976 0.0
C209 C 0.41776 0.77293 0.24516 0.0
H210 H 0.45207 0.73614 0.22427 0.0
H211 H 0.49485 0.7267 0.24924 0.0
H212 H 0.39497 0.84574 0.34356 0.0
H213 H 0.37671 0.82655 0.29521 0.0
H214 H 0.38306 0.79618 0.25016 0.0
H215 H 0.41021 0.76303 0.22449 0.0
Mn216 Mn 0.55435 0.2924 0.65278 0.0
Mn217 Mn 0.50364 0.26622 0.6022 0.0
C218 C 0.54681 0.2433 0.63418 0.0
C219 C 0.60047 0.31125 0.66989 0.0
C220 C 0.49103 0.27981 0.66219 0.0
O221 O 0.54846 0.33034 0.6365 0.0
O222 O 0.51433 0.31021 0.60344 0.0
C223 C 0.53596 0.28139 0.55316 0.0
N224 N 0.52034 0.26071 0.56746 0.0
C225 C 0.52295 0.22177 0.53159 0.0
C226 C 0.53897 0.24268 0.51646 0.0
C227 C 0.54555 0.2726 0.52732 0.0
C228 C 0.51391 0.23184 0.55719 0.0
H229 H 0.54108 0.30442 0.56138 0.0
C230 C 0.5314 0.33248 0.6162 0.0
O231 O 0.57907 0.31416 0.68444 0.0
O232 O 0.59502 0.29941 0.64446 0.0
N233 N 0.49236 0.22386 0.59861 0.0
C234 C 0.47858 0.20612 0.61669 0.0
C235 C 0.47121 0.17538 0.60934 0.0
C236 C 0.47804 0.16318 0.58347 0.0
C237 C 0.49234 0.18184 0.56525 0.0
C238 C 0.49902 0.21233 0.57365 0.0
H239 H 0.47352 0.21531 0.63669 0.0
O240 O 0.55744 0.25059 0.65939 0.0
O241 O 0.53951 0.2645 0.62145 0.0
O242 O 0.51654 0.28908 0.6709 0.0
O243 O 0.48372 0.2702 0.63696 0.0
C244 C 0.50073 0.17129 0.53931 0.0
C245 C 0.51606 0.19124 0.52252 0.0
H246 H 0.54651 0.23598 0.49658 0.0
H247 H 0.55799 0.28885 0.5158 0.0
H248 H 0.46041 0.1611 0.62364 0.0
H249 H 0.47255 0.13943 0.57797 0.0
H250 H 0.49591 0.14782 0.5323 0.0
H251 H 0.52278 0.18281 0.50281 0.0
Mn252 Mn 0.99131 0.2546 0.88468 0.0
Mn253 Mn 0.98562 0.29832 0.83277 0.0
C254 C 0.94724 0.25634 0.8646 0.0
C255 C 0.99843 0.21072 0.9026 0.0
C256 C 0.99579 0.32238 0.89326 0.0
O257 O 0.03112 0.26236 0.87114 0.0
O258 O 0.02473 0.29043 0.83659 0.0
C259 C 0.9944 0.25583 0.78578 0.0
N260 N 0.97857 0.27441 0.798 0.0
C261 C 0.94586 0.26631 0.75814 0.0
C262 C 0.96187 0.24719 0.74508 0.0
C263 C 0.98615 0.2418 0.75904 0.0
C264 C 0.95491 0.27934 0.78495 0.0
H265 H 0.01322 0.25184 0.79632 0.0
C266 C 0.04014 0.27682 0.85099 0.0
O267 O 1.00433 0.23621 0.91724 0.0
O268 O 0.9886 0.21057 0.8772 0.0
N269 N 0.94924 0.30783 0.82571 0.0
C270 C 0.93534 0.32568 0.84168 0.0
C271 C 0.91032 0.33284 0.83096 0.0
C272 C 0.90008 0.32203 0.80377 0.0
C273 C 0.91485 0.30392 0.78762 0.0
C274 C 0.93959 0.29741 0.79947 0.0
H275 H 0.94308 0.33405 0.86255 0.0
O276 O 0.94977 0.24829 0.88944 0.0
O277 O 0.9705 0.26322 0.85208 0.0
O278 O 0.99637 0.2974 0.90234 0.0
O279 O 0.99202 0.32551 0.86757 0.0
C280 C 0.90577 0.29174 0.76037 0.0
C281 C 0.92119 0.27283 0.74568 0.0
H282 H 0.95567 0.23645 0.7244 0.0
H283 H 0.99859 0.22701 0.74912 0.0
H284 H 0.89891 0.34655 0.84369 0.0
H285 H 0.88072 0.32747 0.79559 0.0
H286 H 0.88667 0.29632 0.75069 0.0
H287 H 0.91372 0.26316 0.72493 0.0
Mn288 Mn 0.41965 0.03717 0.29216 0.0
Mn289 Mn 0.36191 0.02346 0.3288 0.0
C290 C 0.40311 0.9899 0.30442 0.0
C291 C 0.43861 0.03774 0.24895 0.0
C292 C 0.41918 0.05566 0.35393 0.0
O293 O 0.40118 0.07285 0.28719 0.0
O294 O 0.36091 0.05852 0.30835 0.0
C295 C 0.3203 0.00604 0.28097 0.0
N296 N 0.33185 0.99987 0.30533 0.0
C297 C 0.30069 0.95244 0.30292 0.0
C298 C 0.28808 0.95857 0.27811 0.0
C299 C 0.29808 0.9854 0.26699 0.0
C300 C 0.3229 0.97377 0.31581 0.0
H301 H 0.3282 0.0264 0.27212 0.0
C302 C 0.37651 0.07597 0.29377 0.0
O303 O 0.45265 0.05299 0.2706 0.0
O304 O 0.41337 0.024 0.25231 0.0
N305 N 0.35987 0.98937 0.3491 0.0
C306 C 0.37571 0.98578 0.37197 0.0
C307 C 0.36869 0.95994 0.38551 0.0
C308 C 0.3454 0.93811 0.37548 0.0
C309 C 0.32951 0.94216 0.3518 0.0
C310 C 0.33738 0.96848 0.3393 0.0
H311 H 0.39356 1.00246 0.37985 0.0
O312 O 0.4291 0.99738 0.29822 0.0
O313 O 0.38847 0.0106 0.3039 0.0
O314 O 0.43276 0.05327 0.33203 0.0
O315 O 0.39254 0.04672 0.35449 0.0
C316 C 0.30661 0.9208 0.33971 0.0
C317 C 0.2924 0.92579 0.31512 0.0
H318 H 0.27096 0.94269 0.26725 0.0
H319 H 0.28872 0.99013 0.24764 0.0
H320 H 0.38121 0.95687 0.40364 0.0
H321 H 0.34019 0.9181 0.38585 0.0
H322 H 0.30017 0.90014 0.34879 0.0
H323 H 0.27527 0.90889 0.30565 0.0
Mn324 Mn 0.26686 0.17111 0.50858 0.0
Mn325 Mn 0.26132 0.11886 0.45405 0.0
C326 C 0.22314 0.14321 0.49259 0.0
C327 C 0.27046 0.18537 0.55673 0.0
C328 C 0.27447 0.18543 0.44829 0.0
O329 O 0.30692 0.16183 0.50729 0.0
O330 O 0.29926 0.12324 0.47355 0.0
C331 C 0.26412 0.064 0.48081 0.0
N332 N 0.24972 0.07963 0.46476 0.0
C333 C 0.21065 0.03855 0.45705 0.0
C334 C 0.22501 0.02218 0.47376 0.0
C335 C 0.2519 0.03495 0.48563 0.0
C336 C 0.22403 0.06732 0.45277 0.0
H337 H 0.28479 0.07356 0.48975 0.0
C338 C 0.31476 0.14026 0.49292 0.0
O339 O 0.27761 0.20447 0.53894 0.0
O340 O 0.26298 0.15788 0.54666 0.0
N341 N 0.22488 0.11275 0.43503 0.0
C342 C 0.21291 0.13217 0.42111 0.0
C343 C 0.18554 0.12319 0.40887 0.0
C344 C 0.1707 0.09438 0.41109 0.0
C345 C 0.18338 0.0748 0.42556 0.0
C346 C 0.2108 0.08492 0.43719 0.0
H347 H 0.22401 0.15445 0.41952 0.0
O348 O 0.22488 0.16928 0.5059 0.0
O349 O 0.24696 0.13524 0.48797 0.0
O350 O 0.27205 0.19397 0.47375 0.0
O351 O 0.27245 0.15808 0.43951 0.0
C352 C 0.16962 0.04586 0.42943 0.0
C353 C 0.18329 0.02771 0.44507 0.0
H354 H 0.21554 0.99987 0.47773 0.0
H355 H 0.26319 0.02244 0.49848 0.0
H356 H 0.17583 0.13851 0.39789 0.0
H357 H 0.14948 0.08764 0.40186 0.0
H358 H 0.14839 0.03748 0.42075 0.0
H359 H 0.17237 0.00562 0.44817 0.0
Mn360 Mn 0.14419 0.02122 0.78738 0.0
Mn361 Mn 0.20143 0.03537 0.83188 0.0
C362 C 0.16838 0.06966 0.79945 0.0
C363 C 0.12255 0.01404 0.74239 0.0
C364 C 0.14162 0.01792 0.85053 0.0
O365 O 0.1575 0.98096 0.78502 0.0
O366 O 0.1964 0.99382 0.81413 0.0
C367 C 0.24547 0.03158 0.7916 0.0
N368 N 0.23447 0.04731 0.81217 0.0
C369 C 0.27127 0.08988 0.81001 0.0
C370 C 0.28317 0.07394 0.78911 0.0
C371 C 0.27016 0.04469 0.77983 0.0
C372 C 0.24677 0.07554 0.82118 0.0
H373 H 0.23537 0.00928 0.78403 0.0
C374 C 0.18006 0.97525 0.79652 0.0
O375 O 0.10891 0.00552 0.76367 0.0
O376 O 0.14924 0.0246 0.74692 0.0
N377 N 0.20877 0.07535 0.84916 0.0
C378 C 0.19321 0.08869 0.86747 0.0
C379 C 0.2027 0.11844 0.87793 0.0
C380 C 0.228 0.13425 0.86933 0.0
C381 C 0.24353 0.12019 0.85027 0.0
C382 C 0.2332 0.09037 0.84081 0.0
H383 H 0.17351 0.07688 0.8738 0.0
O384 O 0.1419 0.06481 0.79142 0.0
O385 O 0.17897 0.0461 0.80157 0.0
O386 O 0.12942 0.01565 0.82637 0.0
O387 O 0.16842 0.02443 0.85467 0.0
C388 C 0.26843 0.13485 0.8397 0.0
C389 C 0.28229 0.11971 0.81959 0.0
H390 H 0.30205 0.08408 0.77976 0.0
H391 H 0.27905 0.03235 0.76349 0.0
H392 H 0.19042 0.12924 0.89238 0.0
H393 H 0.23505 0.15732 0.87714 0.0
H394 H 0.27682 0.15795 0.84651 0.0
H395 H 0.30114 0.13138 0.81125 0.0
Mn396 Mn 0.25642 0.88495 0.01108 0.0
Mn397 Mn 0.27755 0.94042 0.9714 0.0
C398 C 0.30328 0.89906 1.0036 0.0
C399 C 0.24561 0.87015 0.05406 0.0
C400 C 0.24986 0.87763 0.94831 0.0
O401 O 0.22279 0.90506 0.00902 0.0
O402 O 0.2403 0.94392 0.98572 0.0
C403 C 0.28498 0.99097 0.01509 0.0
N404 N 0.29555 0.97542 0.99409 0.0
C405 C 0.33935 0.01046 0.99835 0.0
C406 C 0.32876 0.02708 0.01972 0.0
C407 C 0.30153 0.01717 0.02825 0.0
C408 C 0.32193 0.98444 0.98611 0.0
H409 H 0.26413 0.98337 0.02182 0.0
C410 C 0.22112 0.92955 0.99936 0.0
O411 O 0.23581 0.85318 0.03163 0.0
O412 O 0.26104 0.89577 0.05138 0.0
N413 N 0.31381 0.94057 0.95675 0.0
C414 C 0.32205 0.92041 0.93808 0.0
C415 C 0.34911 0.92642 0.92801 0.0
C416 C 0.36755 0.95302 0.93742 0.0
C417 C 0.35885 0.97319 0.95708 0.0
C418 C 0.33152 0.96611 0.96614 0.0
H419 H 0.30841 0.89956 0.93155 0.0
O420 O 0.29411 0.87305 0.01154 0.0
O421 O 0.2849 0.91596 1.00067 0.0
O422 O 0.24754 0.86649 0.97137 0.0
O423 O 0.26009 0.90497 0.9461 0.0
C424 C 0.37645 0.99973 0.96849 0.0
C425 C 0.36673 0.01833 0.98915 0.0
H426 H 0.34149 0.04727 0.02996 0.0
H427 H 0.29331 0.0297 0.04493 0.0
H428 H 0.35585 0.91043 0.91328 0.0
H429 H 0.38852 0.95742 0.92987 0.0
H430 H 0.39772 0.00573 0.96196 0.0
H431 H 0.38068 0.03833 0.99822 0.0
Mn432 Mn 0.28017 0.39108 0.0404 0.0
Mn433 Mn 0.29202 0.44752 0.999 0.0
C434 C 0.32617 0.41387 0.03254 0.0
C435 C 0.27171 0.37268 0.08406 0.0
C436 C 0.27592 0.38269 0.97646 0.0
O437 O 0.24178 0.40428 0.03821 0.0
O438 O 0.25329 0.44224 0.01212 0.0
C439 C 0.28885 0.49678 0.04178 0.0
N440 N 0.30289 0.48455 0.02134 0.0
C441 C 0.3394 0.5281 0.02476 0.0
C442 C 0.32519 0.54127 0.04567 0.0
C443 C 0.29991 0.52544 0.05435 0.0
C444 C 0.32754 0.49932 0.01327 0.0
H445 H 0.26935 0.48475 0.04841 0.0
C446 C 0.23584 0.42629 0.02635 0.0
O447 O 0.26428 0.35624 0.06087 0.0
O448 O 0.28353 0.40002 0.08196 0.0
N449 N 0.32859 0.45628 0.98458 0.0
C450 C 0.34011 0.44017 0.96468 0.0
C451 C 0.36583 0.45253 0.95422 0.0
C452 C 0.37913 0.4816 0.9638 0.0
C453 C 0.36656 0.49805 0.98376 0.0
C454 C 0.34098 0.48449 0.99354 0.0
H455 H 0.32973 0.4181 0.95679 0.0
O456 O 0.32103 0.38748 0.04081 0.0
O457 O 0.3045 0.4265 0.02946 0.0
O458 O 0.27404 0.3719 0.99984 0.0
O459 O 0.28188 0.41044 0.97387 0.0
C460 C 0.37849 0.52732 0.99447 0.0
C461 C 0.36497 0.54229 0.01504 0.0
H462 H 0.33359 0.56343 0.05533 0.0
H463 H 0.2889 0.53539 0.07058 0.0
H464 H 0.37528 0.43975 0.93866 0.0
H465 H 0.39898 0.49106 0.9557 0.0
H466 H 0.39828 0.53834 0.98736 0.0
H467 H 0.3746 0.56459 0.02347 0.0
Mn468 Mn 0.7695 0.14848 0.02719 0.0
Mn469 Mn 0.74286 0.08629 0.98517 0.0
C470 C 0.72184 0.13336 0.01956 0.0
C471 C 0.78428 0.17223 0.07086 0.0
C472 C 0.76815 0.14469 0.96409 0.0
O473 O 0.80263 0.12726 0.02431 0.0
O474 O 0.78193 0.08533 0.99811 0.0
C475 C 0.74103 0.04326 0.02722 0.0
N476 N 0.72757 0.05575 1.00752 0.0
C477 C 0.68322 0.02465 0.01458 0.0
C478 C 0.69665 0.01135 0.03484 0.0
C479 C 0.72567 0.02076 0.04124 0.0
C480 C 0.6996 0.04708 1.00141 0.0
H481 H 0.76332 0.05046 0.03224 0.0
C482 C 0.80302 0.10154 0.0122 0.0
O483 O 0.79242 0.18433 0.04863 0.0
O484 O 0.76912 0.14573 0.06757 0.0
N485 N 0.70482 0.08408 0.9713 0.0
C486 C 0.69503 0.09915 0.95123 0.0
C487 C 0.66646 0.09206 0.9421 0.0
C488 C 0.64831 0.0694 0.95353 0.0
C489 C 0.65891 0.05397 0.97391 0.0
C490 C 0.68764 0.06178 0.98195 0.0
H491 H 0.70891 0.11639 0.94217 0.0
O492 O 0.73214 0.16085 0.02807 0.0
O493 O 0.73968 0.11577 0.01581 0.0
O494 O 0.77367 0.1595 0.98776 0.0
O495 O 0.75734 0.11703 0.96069 0.0
C496 C 0.64208 0.03124 0.98665 0.0
C497 C 0.65419 0.01671 1.0071 0.0
H498 H 0.68488 0.99398 0.04569 0.0
H499 H 0.73616 0.01068 0.05693 0.0
H500 H 0.65844 0.10401 0.9263 0.0
H501 H 0.62625 0.06415 0.94663 0.0
H502 H 0.61975 0.02492 0.98104 0.0
H503 H 0.64098 0.99947 0.01694 0.0
Mn504 Mn 0.11846 0.52579 0.24792 0.0
Mn505 Mn 0.17638 0.55888 0.28792 0.0
C506 C 0.13365 0.57651 0.2504 0.0
C507 C 0.09803 0.50403 0.20492 0.0
C508 C 0.11952 0.5376 0.31108 0.0
O509 O 0.13783 0.49108 0.25465 0.0
O510 O 0.17685 0.51637 0.27884 0.0
C511 C 0.21873 0.55294 0.24634 0.0
N512 N 0.20678 0.5703 0.26479 0.0
C513 C 0.24028 0.61378 0.25678 0.0
C514 C 0.253 0.59636 0.23776 0.0
C515 C 0.24206 0.56584 0.2324 0.0
C516 C 0.21674 0.59978 0.26962 0.0
H517 H 0.21054 0.52943 0.24235 0.0
C518 C 0.16203 0.49241 0.26678 0.0
O519 O 0.08507 0.49948 0.22757 0.0
O520 O 0.12327 0.5197 0.20758 0.0
N521 N 0.17936 0.60051 0.29828 0.0
C522 C 0.16462 0.61424 0.31713 0.0
C523 C 0.17337 0.64466 0.32546 0.0
C524 C 0.19737 0.66061 0.31458 0.0
C525 C 0.2122 0.64607 0.29519 0.0
C526 C 0.20256 0.61568 0.28778 0.0
H527 H 0.14643 0.60205 0.32592 0.0
O528 O 0.10774 0.56504 0.24256 0.0
O529 O 0.14966 0.55813 0.25659 0.0
O530 O 0.10597 0.528 0.28793 0.0
O531 O 0.14584 0.54869 0.31321 0.0
C532 C 0.23628 0.66048 0.28306 0.0
C533 C 0.25008 0.64443 0.26358 0.0
H534 H 0.27117 0.60618 0.22716 0.0
H535 H 0.25173 0.55226 0.21771 0.0
H536 H 0.16175 0.65576 0.34036 0.0
H537 H 0.20411 0.68405 0.32111 0.0
H538 H 0.24423 0.68395 0.28839 0.0
H539 H 0.26835 0.65585 0.25412 0.0
Mn540 Mn 0.77882 0.89034 0.53743 0.0
Mn541 Mn 0.79507 0.94833 0.49856 0.0
C542 C 0.82543 0.91436 0.53456 0.0
C543 C 0.7683 0.87103 0.58058 0.0
C544 C 0.77978 0.88423 0.47317 0.0
O545 O 0.74071 0.90393 0.53262 0.0
O546 O 0.75514 0.94245 0.50777 0.0
C547 C 0.78795 0.99613 0.54133 0.0
N548 N 0.80412 0.98446 0.52252 0.0
C549 C 0.84164 0.02685 0.53188 0.0
C550 C 0.82532 0.03939 0.55123 0.0
C551 C 0.79841 0.02389 0.55606 0.0
C552 C 0.83018 0.999 0.51799 0.0
H553 H 0.76723 0.98434 0.54507 0.0
C554 C 0.7362 0.92631 0.52031 0.0
O555 O 0.76207 0.85484 0.55704 0.0
O556 O 0.77937 0.89863 0.57896 0.0
N557 N 0.83332 0.95727 0.48832 0.0
C558 C 0.84682 0.94169 0.46972 0.0
C559 C 0.87388 0.95422 0.46236 0.0
C560 C 0.8868 0.98268 0.47414 0.0
C561 C 0.87255 0.9983 0.49327 0.0
C562 C 0.84548 0.98481 0.49955 0.0
H563 H 0.83713 0.91977 0.46075 0.0
O564 O 0.81992 0.88732 0.54119 0.0
O565 O 0.80381 0.92623 0.52936 0.0
O566 O 0.77556 0.87252 0.49605 0.0
O567 O 0.78692 0.91221 0.47205 0.0
C568 C 0.88427 0.02659 0.50656 0.0
C569 C 0.86891 0.04076 0.526 0.0
H570 H 0.83328 0.06084 0.56259 0.0
H571 H 0.78574 0.03337 0.57104 0.0
H572 H 0.88483 0.94191 0.44776 0.0
H573 H 0.90779 0.99215 0.46863 0.0
H574 H 0.90524 0.03747 0.50227 0.0
H575 H 0.8783 0.06233 0.53639 0.0
Mn576 Mn 0.89481 0.03347 0.23854 0.0
Mn577 Mn 0.83447 0.01742 0.27252 0.0
C578 C 0.87222 0.98415 0.23935 0.0
C579 C 0.92065 0.04641 0.1994 0.0
C580 C 0.89266 0.03188 0.30185 0.0
O581 O 0.88174 0.07398 0.24401 0.0
O582 O 0.84063 0.05914 0.26328 0.0
C583 C 0.79401 0.02206 0.2264 0.0
N584 N 0.80275 0.00645 0.24654 0.0
C585 C 0.76205 0.96756 0.23704 0.0
C586 C 0.75249 0.98331 0.21631 0.0
C587 C 0.76865 0.01057 0.21083 0.0
C588 C 0.78773 0.97986 0.2515 0.0
H589 H 0.80627 0.04313 0.22232 0.0
C590 C 0.85841 0.07901 0.25332 0.0
O591 O 0.93157 0.05229 0.22455 0.0
O592 O 0.89416 0.03402 0.19679 0.0
N593 N 0.82453 0.97799 0.28328 0.0
C594 C 0.83683 0.96537 0.30375 0.0
C595 C 0.82341 0.93792 0.31167 0.0
C596 C 0.79715 0.92405 0.299 0.0
C597 C 0.78455 0.93777 0.27849 0.0
C598 C 0.799 0.96505 0.27134 0.0
H599 H 0.85672 0.97615 0.31405 0.0
O600 O 0.89854 0.99067 0.23388 0.0
O601 O 0.85936 0.00652 0.24342 0.0
O602 O 0.90649 0.03505 0.28009 0.0
O603 O 0.86579 0.02732 0.30134 0.0
C604 C 0.75826 0.9254 0.26479 0.0
C605 C 0.74713 0.94015 0.2439 0.0
H606 H 0.73282 0.97465 0.20443 0.0
H607 H 0.76147 0.02281 0.19481 0.0
H608 H 0.8332 0.92756 0.32764 0.0
H609 H 0.78689 0.90286 0.30514 0.0
H610 H 0.74664 0.90429 0.26982 0.0
H611 H 0.72713 0.93016 0.23318 0.0
Mn612 Mn 0.27198 0.64485 0.53632 0.0
Mn613 Mn 0.24549 0.58257 0.49439 0.0
C614 C 0.22451 0.62731 0.53204 0.0
C615 C 0.2892 0.66901 0.57902 0.0
C616 C 0.2668 0.64211 0.47347 0.0
O617 O 0.30602 0.62567 0.53024 0.0
O618 O 0.28538 0.58293 0.50519 0.0
C619 C 0.24746 0.53869 0.53512 0.0
N620 N 0.2325 0.55099 0.51646 0.0
C621 C 0.18977 0.5174 0.52397 0.0
C622 C 0.20474 0.50427 0.54318 0.0
C623 C 0.23369 0.51504 0.54885 0.0
C624 C 0.20457 0.54107 0.51113 0.0
H625 H 0.26971 0.54689 0.5395 0.0
C626 C 0.30675 0.60013 0.51792 0.0
O627 O 0.29481 0.68134 0.55633 0.0
O628 O 0.27524 0.64192 0.57666 0.0
N629 N 0.20673 0.57919 0.48242 0.0
C630 C 0.19533 0.59436 0.46341 0.0
C631 C 0.16664 0.58599 0.45503 0.0
C632 C 0.15002 0.56195 0.46606 0.0
C633 C 0.16224 0.54653 0.48542 0.0
C634 C 0.19101 0.5557 0.49278 0.0
H635 H 0.20806 0.61259 0.45455 0.0
O636 O 0.23398 0.655 0.54051 0.0
O637 O 0.24301 0.61095 0.52628 0.0
O638 O 0.27246 0.65667 0.49717 0.0
O639 O 0.25756 0.61413 0.46994 0.0
C640 C 0.147 0.52246 0.49777 0.0
C641 C 0.16071 0.50806 0.5172 0.0
H642 H 0.19422 0.48598 0.55376 0.0
H643 H 0.24537 0.50509 0.56372 0.0
H644 H 0.15736 0.59799 0.44006 0.0
H645 H 0.12786 0.55565 0.45964 0.0
H646 H 0.12467 0.51505 0.49268 0.0
H647 H 0.1487 0.48981 0.52679 0.0
Mn648 Mn 0.39239 0.53289 0.72759 0.0
Mn649 Mn 0.33352 0.51761 0.7636 0.0
C650 C 0.36941 0.48389 0.72932 0.0
C651 C 0.41465 0.54296 0.68575 0.0
C652 C 0.39262 0.53377 0.79119 0.0
O653 O 0.37961 0.57364 0.73334 0.0
O654 O 0.33889 0.55878 0.75348 0.0
C655 C 0.29136 0.52045 0.71844 0.0
N656 N 0.30114 0.50549 0.73856 0.0
C657 C 0.26188 0.46488 0.72935 0.0
C658 C 0.25123 0.47998 0.70871 0.0
C659 C 0.26613 0.50781 0.70312 0.0
C660 C 0.28727 0.47846 0.74373 0.0
H661 H 0.30277 0.54183 0.71411 0.0
C662 C 0.35641 0.57858 0.74314 0.0
O663 O 0.42803 0.55013 0.70985 0.0
O664 O 0.38806 0.53179 0.68608 0.0
N665 N 0.32496 0.4784 0.77506 0.0
C666 C 0.33833 0.4665 0.79531 0.0
C667 C 0.32616 0.43872 0.80345 0.0
C668 C 0.30017 0.42364 0.79102 0.0
C669 C 0.28657 0.43652 0.77056 0.0
C670 C 0.29965 0.46433 0.7634 0.0
H671 H 0.35809 0.47814 0.80529 0.0
O672 O 0.39551 0.48968 0.72305 0.0
O673 O 0.35745 0.5067 0.73411 0.0
O674 O 0.40605 0.53568 0.76899 0.0
O675 O 0.36576 0.5289 0.79119 0.0
C676 C 0.26068 0.42272 0.7568 0.0
C677 C 0.24845 0.43678 0.73606 0.0
H678 H 0.23172 0.47035 0.69691 0.0
H679 H 0.25813 0.51952 0.68711 0.0
H680 H 0.33677 0.42896 0.8193 0.0
H681 H 0.29095 0.40213 0.79722 0.0
H682 H 0.25018 0.40111 0.76175 0.0
H683 H 0.22876 0.42576 0.72534 0.0
Mn684 Mn 0.61446 0.02525 0.75356 0.0
Mn685 Mn 0.67252 0.0569 0.79455 0.0
C686 C 0.63085 0.07599 0.75679 0.0
C687 C 0.59138 1.00343 0.71161 0.0
C688 C 0.6151 0.03792 0.81667 0.0
O689 O 0.63314 0.98975 0.75947 0.0
O690 O 0.67094 0.01395 0.78611 0.0
C691 C 0.7152 0.04768 0.75413 0.0
N692 N 0.70394 0.06614 0.77212 0.0
C693 C 0.74086 0.10734 0.76586 0.0
C694 C 0.7529 0.08876 0.74731 0.0
C695 C 0.73989 0.05886 0.74126 0.0
C696 C 0.71588 0.09511 0.77752 0.0
H697 H 0.7055 0.02459 0.74972 0.0
C698 C 0.65647 0.99038 0.77306 0.0
O699 O 0.58 0.99948 0.73508 0.0
O700 O 0.61684 0.01874 0.71265 0.0
N701 N 0.67777 0.09883 0.80456 0.0
C702 C 0.66339 0.1139 0.82273 0.0
C703 C 0.67371 0.14408 0.83106 0.0
C704 C 0.699 0.15834 0.8211 0.0
C705 C 0.71367 0.1423 0.80276 0.0
C706 C 0.70228 0.11231 0.79506 0.0
H707 H 0.64418 0.10301 0.8308 0.0
O708 O 0.60475 0.06513 0.74908 0.0
O709 O 0.64663 0.05711 0.76234 0.0
O710 O 0.60247 0.02744 0.7934 0.0
O711 O 0.64132 0.04914 0.8195 0.0
C712 C 0.73922 0.15487 0.79191 0.0
C713 C 0.75269 0.13747 0.77328 0.0
H714 H 0.77211 0.09722 0.73759 0.0
H715 H 0.74903 0.04439 0.72695 0.0
H716 H 0.66229 0.15627 0.8453 0.0
H717 H 0.70695 0.18159 0.82763 0.0
H718 H 0.74855 0.17797 0.79751 0.0
H719 H 0.77209 0.14751 0.76474 0.0
Mn720 Mn 0.76259 0.67405 0.99904 0.0
Mn721 Mn 0.74951 0.61401 0.95162 0.0
C722 C 0.7163 0.6512 0.98525 0.0
C723 C 0.76914 0.69524 0.04578 0.0
C724 C 0.76903 0.67713 0.93599 0.0
O725 O 0.80011 0.65875 1.00007 0.0
O726 O 0.78801 0.61803 0.96949 0.0
C727 C 0.74967 0.56633 0.98876 0.0
N728 N 0.73633 0.57872 0.96889 0.0
C729 C 0.69644 0.53854 0.96577 0.0
C730 C 0.70987 0.52523 0.98603 0.0
C731 C 0.73654 0.53925 0.99765 0.0
C732 C 0.71058 0.56549 0.95768 0.0
H733 H 0.77016 0.57701 0.99779 0.0
C734 C 0.80549 0.63496 0.98727 0.0
O735 O 0.77838 0.71012 0.02543 0.0
O736 O 0.75728 0.66779 0.03918 0.0
N737 N 0.71275 0.60709 0.93335 0.0
C738 C 0.7016 0.62415 0.91596 0.0
C739 C 0.67432 0.61411 0.90377 0.0
C740 C 0.65886 0.58661 0.90945 0.0
C741 C 0.67078 0.56942 0.92737 0.0
C742 C 0.69808 0.58054 0.93887 0.0
H743 H 0.71328 0.6454 0.91168 0.0
O744 O 0.7221 0.67882 0.99539 0.0
O745 O 0.73776 0.63807 0.98284 0.0
O746 O 0.77042 0.69033 0.96059 0.0
O747 O 0.76216 0.64892 0.93112 0.0
C748 C 0.65641 0.54199 0.93472 0.0
C749 C 0.66928 0.5265 0.95382 0.0
H750 H 0.69974 0.50443 0.99306 0.0
H751 H 0.74696 0.52922 0.01343 0.0
H752 H 0.6652 0.6276 0.8901 0.0
H753 H 0.63774 0.57905 0.90017 0.0
H754 H 0.63527 0.53285 0.92618 0.0
H755 H 0.65782 0.5057 0.95969 0.0
Mn756 Mn 0.91992 0.53903 0.79951 0.0
Mn757 Mn 0.86581 0.52595 0.84113 0.0
C758 C 0.90373 0.49164 0.81141 0.0
C759 C 0.93535 0.54259 0.75497 0.0
C760 C 0.92517 0.55649 0.86154 0.0
O761 O 0.9021 0.57587 0.79862 0.0
O762 O 0.86307 0.56141 0.82174 0.0
C763 C 0.81848 0.51019 0.79859 0.0
N764 N 0.83315 0.50313 0.82078 0.0
C765 C 0.80161 0.45622 0.8209 0.0
C766 C 0.78585 0.46327 0.79839 0.0
C767 C 0.79444 0.49028 0.78708 0.0
C768 C 0.82534 0.47698 0.83154 0.0
H769 H 0.82521 0.53073 0.78959 0.0
C770 C 0.87806 0.5793 0.80703 0.0
O771 O 0.95134 0.55531 0.77646 0.0
O772 O 0.91038 0.52866 0.75937 0.0
N773 N 0.86594 0.49152 0.86055 0.0
C774 C 0.88458 0.48714 0.88087 0.0
C775 C 0.87982 0.46051 0.89347 0.0
C776 C 0.85588 0.43876 0.88519 0.0
C777 C 0.83691 0.44382 0.86435 0.0
C778 C 0.84267 0.47085 0.85264 0.0
H779 H 0.90298 0.50377 0.8874 0.0
O780 O 0.92879 0.49839 0.80249 0.0
O781 O 0.88933 0.51271 0.81286 0.0
O782 O 0.93681 0.55299 0.83866 0.0
O783 O 0.8987 0.54873 0.86412 0.0
C784 C 0.81281 0.42287 0.85435 0.0
C785 C 0.7952 0.42904 0.83261 0.0
H786 H 0.76743 0.44785 0.7893 0.0
H787 H 0.78263 0.49569 0.76945 0.0
H788 H 0.8946 0.45674 0.9095 0.0
H789 H 0.8524 0.41816 0.89481 0.0
H790 H 0.8079 0.40171 0.8629 0.0
H791 H 0.77706 0.4125 0.82472 0.0
Mn792 Mn 0.75446 0.38967 0.50375 0.0
Mn793 Mn 0.78205 0.44322 0.46433 0.0
C794 C 0.80163 0.39827 0.49592 0.0
C795 C 0.74408 0.37253 0.54611 0.0
C796 C 0.75146 0.3826 0.44044 0.0
O797 O 0.7243 0.41494 0.50373 0.0
O798 O 0.74347 0.44687 0.474 0.0
C799 C 0.78543 0.49352 0.50778 0.0
N800 N 0.79816 0.47777 0.48863 0.0
C801 C 0.84242 0.51145 0.49853 0.0
C802 C 0.82974 0.5281 0.51824 0.0
C803 C 0.80115 0.51901 0.52297 0.0
C804 C 0.82576 0.48608 0.48422 0.0
H805 H 0.76346 0.48674 0.51148 0.0
C806 C 0.72378 0.43665 0.48928 0.0
O807 O 0.73113 0.3587 0.52335 0.0
O808 O 0.76106 0.39747 0.54431 0.0
N809 N 0.81973 0.44333 0.45345 0.0
C810 C 0.82909 0.42445 0.43431 0.0
C811 C 0.85724 0.43047 0.42709 0.0
C812 C 0.8755 0.45593 0.43954 0.0
C813 C 0.86541 0.47514 0.4591 0.0
C814 C 0.83707 0.46811 0.46528 0.0
H815 H 0.81537 0.40463 0.42507 0.0
O816 O 0.78946 0.3725 0.5024 0.0
O817 O 0.78594 0.41812 0.49407 0.0
O818 O 0.74352 0.37341 0.46339 0.0
O819 O 0.76666 0.40807 0.43843 0.0
C820 C 0.88244 0.50086 0.47287 0.0
C821 C 0.87099 0.51894 0.49266 0.0
H822 H 0.84177 0.54781 0.52995 0.0
H823 H 0.79122 0.53167 0.53822 0.0
H824 H 0.8649 0.4154 0.41213 0.0
H825 H 0.89726 0.46037 0.43412 0.0
H826 H 0.90448 0.50674 0.46865 0.0
H827 H 0.88439 0.53842 0.5034 0.0
Mn828 Mn 0.6499 0.52641 0.2793 0.0
Mn829 Mn 0.70327 0.53809 0.32839 0.0
C830 C 0.67187 0.57461 0.29571 0.0
C831 C 0.6331 0.52177 0.2325 0.0
C832 C 0.64132 0.52148 0.34167 0.0
O833 O 0.66279 0.48595 0.27661 0.0
O834 O 0.69808 0.49664 0.3098 0.0
C835 C 0.74956 0.53334 0.29086 0.0
N836 N 0.73813 0.54904 0.31115 0.0
C837 C 0.77707 0.59011 0.31225 0.0
C838 C 0.78945 0.5741 0.29179 0.0
C839 C 0.77558 0.54564 0.28099 0.0
C840 C 0.7512 0.5766 0.32147 0.0
H841 H 0.73885 0.51171 0.28204 0.0
C842 C 0.68353 0.47904 0.29025 0.0
O843 O 0.61685 0.51247 0.25183 0.0
O844 O 0.65934 0.53179 0.24003 0.0
N845 N 0.7117 0.57743 0.34717 0.0
C846 C 0.69672 0.59044 0.36625 0.0
C847 C 0.70705 0.61957 0.37803 0.0
C848 C 0.73304 0.63488 0.37052 0.0
C849 C 0.74861 0.62074 0.35157 0.0
C850 C 0.73722 0.59163 0.34054 0.0
H851 H 0.67721 0.57858 0.37264 0.0
O852 O 0.64638 0.5692 0.28476 0.0
O853 O 0.68367 0.55155 0.29721 0.0
O854 O 0.63131 0.51903 0.31657 0.0
O855 O 0.66778 0.52827 0.34831 0.0
C856 C 0.77483 0.63455 0.34294 0.0
C857 C 0.78906 0.61923 0.32331 0.0
H858 H 0.8094 0.58363 0.28392 0.0
H859 H 0.78481 0.53329 0.26492 0.0
H860 H 0.69507 0.63014 0.39297 0.0
H861 H 0.7409 0.6574 0.37954 0.0
H862 H 0.78408 0.65707 0.35102 0.0
H863 H 0.80901 0.63024 0.31652 0.0
Dy864 Dy 0.98812 0.01286 1.0032 0.0
C865 C 0.10152 0.02208 0.02601 0.0
C866 C 0.93432 0.02112 1.00418 0.0
Dy867 Dy 0.04875 0.03308 0.02593 0.0
O868 O 0.9424 1.00063 0.98767 0.0
O869 O 0.95538 0.03621 0.01969 0.0
O870 O 1.00017 0.98655 0.96574 0.0
O871 O 0.02826 0.02409 0.98434 0.0
C872 C 0.02575 1.002 0.96624 0.0
C873 C 0.01029 0.04194 0.06303 0.0
O874 O 0.04554 0.07375 1.00432 0.0
O875 O 0.99778 0.05991 0.9916 0.0
O876 O 0.09527 0.04604 0.03887 0.0
O877 O 0.07946 0.00538 0.01338 0.0
O878 O 0.03571 0.0579 0.06459 0.0
O879 O 0.00894 0.02097 0.04417 0.0
O880 O 0.9917 0.9717 0.02375 0.0
O881 O 0.03941 0.98555 0.03643 0.0
C882 C 0.0218 0.07943 0.99317 0.0
C883 C 0.01554 0.96579 0.03447 0.0
Dy884 Dy 0.26895 0.78328 0.2452 0.0
C885 C 0.27123 0.75276 0.3571 0.0
C886 C 0.26162 0.79643 0.19245 0.0
Dy887 Dy 0.26322 0.77694 0.3095 0.0
O888 O 0.26762 0.81575 0.214 0.0
O889 O 0.2603 0.76964 0.1995 0.0
O890 O 0.31093 0.76868 0.24543 0.0
O891 O 0.28228 0.75586 0.27526 0.0
C892 C 0.3074 0.7568 0.26869 0.0
C893 C 0.22536 0.80479 0.28663 0.0
O894 O 0.30047 0.81366 0.31055 0.0
O895 O 0.29622 0.82495 0.26469 0.0
O896 O 0.2668 0.7798 0.35617 0.0
O897 O 0.27141 0.7396 0.33235 0.0
O898 O 0.22213 0.79363 0.31039 0.0
O899 O 0.25004 0.80417 0.2794 0.0
O900 O 0.2286 0.75073 0.2449 0.0
O901 O 0.22874 0.74068 0.29135 0.0
C902 C 0.3079 0.83053 0.29033 0.0
C903 C 0.21774 0.73637 0.26555 0.0
Dy904 Dy 0.55467 0.0297 0.51586 0.0
C905 C 0.44216 0.05723 0.52348 0.0
C906 C 0.60407 0.00874 0.51691 0.0
Dy907 Dy 0.49025 0.03364 0.5256 0.0
O908 O 0.60093 0.03419 0.50872 0.0
O909 O 0.58026 0.99488 0.5247 0.0
O910 O 0.55575 0.05968 0.48119 0.0
O911 O 0.51784 0.03446 0.49131 0.0
C912 C 0.52843 0.05499 0.4774 0.0
C913 C 0.51778 0.00987 0.56478 0.0
O914 O 0.48474 0.99355 0.49415 0.0
O915 O 0.53057 0.98448 0.49889 0.0
O916 O 0.44342 0.0306 0.53007 0.0
O917 O 0.46707 0.0707 0.51817 0.0
O918 O 0.49033 0.00483 0.56175 0.0
O919 O 0.52719 0.02949 0.54964 0.0
O920 O 0.56022 0.0699 0.54727 0.0
O921 O 0.51413 0.07849 0.5432 0.0
C922 C 0.50376 0.97631 0.48963 0.0
C923 C 0.54098 0.08677 0.55208 0.0
Dy924 Dy 0.24288 0.28251 0.76797 0.0
C925 C 0.35594 0.26368 0.75342 0.0
C926 C 0.18822 0.28177 0.7813 0.0
Dy927 Dy 0.30365 0.27006 0.76998 0.0
O928 O 0.20098 0.29709 0.76266 0.0
O929 O 0.20513 0.26645 0.79204 0.0
O930 O 0.25615 0.32204 0.74395 0.0
O931 O 0.28494 0.3095 0.77176 0.0
C932 C 0.28235 0.32636 0.75319 0.0
C933 C 0.26398 0.22776 0.78662 0.0
O934 O 0.30561 0.29326 0.81294 0.0
O935 O 0.25762 0.29458 0.81323 0.0
O936 O 0.33413 0.24253 0.75319 0.0
O937 O 0.34962 0.28838 0.76422 0.0
O938 O 0.29012 0.23261 0.79609 0.0
O939 O 0.26136 0.24297 0.76663 0.0
O940 O 0.24259 0.25704 0.72606 0.0
O941 O 0.29108 0.26886 0.7246 0.0
C942 C 0.28314 0.2988 0.826 0.0
C943 C 0.26585 0.25896 0.71219 0.0
Dy944 Dy 0.01823 0.01142 0.48164 0.0
C945 C 0.0606 0.04601 0.59471 0.0
C946 C 0.98653 1.00109 0.43235 0.0
Dy947 Dy 0.03397 0.03664 0.54265 0.0
O948 O 0.01236 0.9969 0.43557 0.0
O949 O 0.97775 0.00907 0.45632 0.0
O950 O 0.064 0.0167 0.47249 0.0
O951 O 0.05105 0.04576 0.50263 0.0
C952 C 0.07231 0.03845 0.49181 0.0
C953 C 0.9801 0.00906 0.53124 0.0
O954 O 0.02757 0.07934 0.52696 0.0
O955 O 0.00619 0.05685 0.48463 0.0
O956 O 0.03403 0.03552 0.58909 0.0
O957 O 0.07238 0.05302 0.57197 0.0
O958 O 0.98749 0.03154 0.54998 0.0
O959 O 1.00174 1.00201 0.52128 0.0
O960 O 0.02315 0.96951 0.50074 0.0
O961 O 0.05296 0.99562 0.53655 0.0
C962 C 0.01419 0.0807 0.50273 0.0
C963 C 0.0413 0.97017 0.52228 0.0
Dy964 Dy 0.30501 0.79607 0.76622 0.0
C965 C 0.19006 0.75571 0.72133 0.0
C966 C 0.35574 0.80558 0.79588 0.0
Dy967 Dy 0.24094 0.76668 0.75069 0.0
O968 O 0.35241 0.8077 0.7694 0.0
O969 O 0.33128 0.79955 0.80634 0.0
O970 O 0.31105 0.80462 0.72175 0.0
O971 O 0.28126 0.76863 0.73177 0.0
C972 C 0.29112 0.78251 0.71203 0.0
C973 C 0.25533 0.78217 0.80489 0.0
O974 O 0.25931 0.725 0.74926 0.0
O975 O 0.30382 0.74691 0.76926 0.0
O976 O 0.19463 0.74664 0.74553 0.0
O977 O 0.21354 0.76963 0.71281 0.0
O978 O 0.23351 0.76173 0.79637 0.0
O979 O 0.26506 0.79369 0.78415 0.0
O980 O 0.28635 0.83775 0.76804 0.0
O981 O 0.24158 0.81597 0.74847 0.0
C982 C 0.28485 0.72307 0.75948 0.0
C983 C 0.2605 0.83979 0.75858 0.0
Dy984 Dy 0.51332 0.03159 0.0496 0.0
C985 C 0.50348 0.0422 0.93197 0.0
C986 C 0.51242 0.03518 0.10584 0.0
Dy987 Dy 0.49826 0.03956 0.98751 0.0
O988 O 0.5208 0.05742 0.09163 0.0
O989 O 0.50518 0.01087 0.08933 0.0
O990 O 0.5441 1.00171 0.03759 0.0
O991 O 0.51055 0.005 0.01012 0.0
C992 C 0.53333 0.99565 0.01219 0.0
C993 C 0.47928 0.07564 0.02564 0.0
O994 O 0.46228 0.0045 0.99528 0.0
O995 O 0.46689 0.01445 0.04342 0.0
O996 O 0.49122 0.01899 0.94321 0.0
O997 O 0.51083 0.0642 0.95103 0.0
O998 O 0.46707 0.06824 1.00091 0.0
O999 O 0.50221 0.06657 0.02667 0.0
O1000 O 0.55086 0.06415 0.0417 0.0
O1001 O 0.54467 0.05734 0.99347 0.0
C1002 C 0.45268 1.00159 0.02026 0.0
C1003 C 0.55972 0.06835 0.0167 0.0
Dy1004 Dy 0.27205 0.31491 0.27401 0.0
C1005 C 0.28624 0.19438 0.25463 0.0
C1006 C 0.25529 0.36732 0.27031 0.0
Dy1007 Dy 0.26647 0.24564 0.25448 0.0
O1008 O 0.27813 0.36447 0.28434 0.0
O1009 O 0.24253 0.34191 0.25814 0.0
O1010 O 0.2815 0.31069 0.32056 0.0
O1011 O 0.27511 0.27494 0.29137 0.0
C1012 C 0.27968 0.28195 0.31689 0.0
C1013 C 0.24937 0.27833 0.21587 0.0
O1014 O 0.22861 0.24517 0.28021 0.0
O1015 O 0.22664 0.29498 0.2773 0.0
O1016 O 0.26057 0.19571 0.24622 0.0
O1017 O 0.30031 0.22056 0.26303 0.0
O1018 O 0.24017 0.24978 0.21606 0.0
O1019 O 0.26871 0.28642 0.23475 0.0
O1020 O 0.31381 0.31682 0.25455 0.0
O1021 O 0.30939 0.2658 0.24117 0.0
C1022 C 0.21539 0.26802 0.28335 0.0
C1023 C 0.32365 0.29362 0.24311 0.0
Dy1024 Dy 0.51195 0.52238 0.97941 0.0
C1025 C 0.55608 0.55281 0.09144 0.0
C1026 C 0.48358 0.51424 0.92808 0.0
Dy1027 Dy 0.52908 0.54507 0.03951 0.0
O1028 O 0.50867 0.5088 0.93304 0.0
O1029 O 0.47372 0.52277 0.95132 0.0
O1030 O 0.55746 0.52159 0.9711 0.0
O1031 O 0.54794 0.55357 1.00046 0.0
C1032 C 0.56772 0.54277 0.99028 0.0
C1033 C 0.47328 0.52523 0.02973 0.0
O1034 O 0.52939 0.58903 0.0219 0.0
O1035 O 0.50056 0.5675 0.98353 0.0
O1036 O 0.53118 0.55832 0.08569 0.0
O1037 O 0.56687 0.54479 0.0685 0.0
O1038 O 0.48429 0.54742 0.04768 0.0
O1039 O 0.49273 0.51411 0.01885 0.0
O1040 O 0.51105 0.4783 0.99555 0.0
O1041 O 0.53685 0.49784 0.03641 0.0
C1042 C 0.51288 0.59124 0.99984 0.0
C1043 C 0.52519 0.47477 0.01867 0.0
Dy1044 Dy 0.80886 0.29846 0.26109 0.0
C1045 C 0.69515 0.25797 0.21517 0.0
C1046 C 0.85934 0.30775 0.29089 0.0
Dy1047 Dy 0.74502 0.26882 0.24585 0.0
O1048 O 0.85618 0.31156 0.26472 0.0
O1049 O 0.8349 0.29998 0.30087 0.0
O1050 O 0.8148 0.30641 0.21637 0.0
O1051 O 0.78525 0.27053 0.22701 0.0
C1052 C 0.7948 0.28421 0.20706 0.0
C1053 C 0.75949 0.28382 0.29977 0.0
O1054 O 0.76244 0.22671 0.24709 0.0
O1055 O 0.80773 0.24934 0.26466 0.0
O1056 O 0.69779 0.25585 0.24171 0.0
O1057 O 0.71983 0.26467 0.20527 0.0
O1058 O 0.73793 0.26295 0.2913 0.0
O1059 O 0.769 0.29593 0.27918 0.0
O1060 O 0.78986 0.34006 0.26402 0.0
O1061 O 0.74548 0.31833 0.24366 0.0
C1062 C 0.78835 0.2252 0.25667 0.0
C1063 C 0.76406 0.34219 0.25441 0.0
Dy1064 Dy 0.01584 0.51374 0.55587 0.0
C1065 C 0.01914 0.52839 0.43783 0.0
C1066 C 1.00382 0.51958 0.61023 0.0
Dy1067 Dy 0.00785 0.52397 0.49221 0.0
O1068 O 0.02766 0.51397 0.60157 0.0
O1069 O 0.98693 0.52136 0.5893 0.0
O1070 O 0.04228 0.47844 0.54672 0.0
O1071 O 0.01437 0.48804 0.51624 0.0
C1072 C 0.03466 0.47508 0.52031 0.0
C1073 C 0.9902 0.56259 0.52904 0.0
O1074 O 0.96809 0.49186 0.49601 0.0
O1075 O 0.97084 0.49341 0.54452 0.0
O1076 O 1.00274 0.506 0.44685 0.0
O1077 O 0.02802 0.54849 0.45825 0.0
O1078 O 0.97981 0.55712 0.50346 0.0
O1079 O 0.01091 0.55003 0.53178 0.0
O1080 O 0.05317 0.54842 0.55097 0.0
O1081 O 0.0541 0.53724 0.50326 0.0
C1082 C 0.95724 0.48558 0.51996 0.0
C1083 C 0.06591 0.55038 0.52738 0.0
Dy1084 Dy 0.73677 0.7813 0.26242 0.0
C1085 C 0.85088 0.79165 0.23861 0.0
C1086 C 0.68199 0.77678 0.27658 0.0
Dy1087 Dy 0.79935 0.78012 0.26036 0.0
O1088 O 0.69293 0.79052 0.25623 0.0
O1089 O 0.70081 0.76477 0.28879 0.0
O1090 O 0.74258 0.81996 0.23614 0.0
O1091 O 0.77499 0.81495 0.26385 0.0
C1092 C 0.76863 0.82968 0.24479 0.0
C1093 C 0.76886 0.73113 0.27823 0.0
O1094 O 0.80052 0.80721 0.30153 0.0
O1095 O 0.75256 0.79468 0.30747 0.0
O1096 O 0.84523 0.77586 0.25941 0.0
O1097 O 0.82881 0.80159 0.23072 0.0
O1098 O 0.79557 0.74054 0.28476 0.0
O1099 O 0.76117 0.74589 0.25957 0.0
O1100 O 0.73565 0.75362 0.22119 0.0
O1101 O 0.78349 0.76659 0.21582 0.0
C1102 C 0.77861 0.80654 0.31736 0.0
C1103 C 0.75773 0.75478 0.20551 0.0
Dy1104 Dy 0.77951 0.28005 0.73229 0.0
C1105 C 0.77608 0.25261 0.84513 0.0
C1106 C 0.78047 0.29818 0.68062 0.0
Dy1107 Dy 0.76899 0.2766 0.79728 0.0
O1108 O 0.80148 0.30459 0.69905 0.0
O1109 O 0.75944 0.28096 0.69008 0.0
O1110 O 0.81048 0.24859 0.73541 0.0
O1111 O 0.80314 0.2757 0.7699 0.0
C1112 C 0.8152 0.25478 0.76217 0.0
C1113 C 0.72803 0.29779 0.77129 0.0
O1114 O 0.79931 0.31955 0.79851 0.0
O1115 O 0.79144 0.32686 0.75187 0.0
O1116 O 0.77093 0.27935 0.84385 0.0
O1117 O 0.77747 0.23951 0.8205 0.0
O1118 O 0.72884 0.29547 0.79799 0.0
O1119 O 0.74911 0.28903 0.76154 0.0
O1120 O 0.74631 0.23967 0.72916 0.0
O1121 O 0.74422 0.23354 0.77655 0.0
C1122 C 0.80178 0.33642 0.77758 0.0
C1123 C 0.73673 0.2249 0.75001 0.0
Dy1124 Dy 0.77483 0.81887 0.77346 0.0
C1125 C 0.78826 0.69932 0.768 0.0
C1126 C 0.7562 0.8709 0.77209 0.0
Dy1127 Dy 0.7692 0.74927 0.75852 0.0
O1128 O 0.77688 0.86703 0.7886 0.0
O1129 O 0.74683 0.84688 0.75591 0.0
O1130 O 0.80015 0.8161 0.81367 0.0
O1131 O 0.77172 0.77968 0.7955 0.0
C1132 C 0.7904 0.78785 0.81478 0.0
C1133 C 0.75848 0.77536 0.71252 0.0
O1134 O 0.72776 0.74949 0.77903 0.0
O1135 O 0.73092 0.80098 0.78484 0.0
O1136 O 0.76288 0.69942 0.75769 0.0
O1137 O 0.8025 0.72612 0.7732 0.0
O1138 O 0.75573 0.7466 0.7129 0.0
O1139 O 0.7651 0.78715 0.73704 0.0
O1140 O 0.81375 0.81987 0.75024 0.0
O1141 O 0.81373 0.76901 0.74862 0.0
C1142 C 0.71716 0.77357 0.78694 0.0
C1143 C 0.82566 0.79652 0.74424 0.0
Dy1144 Dy 0.49531 0.51828 0.50121 0.0
C1145 C 0.61085 0.53564 0.5247 0.0
C1146 C 0.44148 0.52625 0.50201 0.0
Dy1147 Dy 0.55514 0.53804 0.52237 0.0
O1148 O 0.44963 0.50579 0.48552 0.0
O1149 O 0.46249 0.54153 0.51742 0.0
O1150 O 0.50744 0.48917 0.4652 0.0
O1151 O 0.53468 0.52836 0.48102 0.0
C1152 C 0.53245 0.50541 0.46413 0.0
C1153 C 0.51862 0.55158 0.55944 0.0
O1154 O 0.55135 0.58029 0.50389 0.0
O1155 O 0.50455 0.56444 0.48839 0.0
O1156 O 0.59609 0.5383 0.5463 0.0
O1157 O 0.59542 0.53614 0.50238 0.0
O1158 O 0.54349 0.56778 0.55742 0.0
O1159 O 0.51576 0.52806 0.54294 0.0
O1160 O 0.49767 0.47855 0.52301 0.0
O1161 O 0.54628 0.48915 0.52934 0.0
C1162 C 0.52788 0.58483 0.4913 0.0
C1163 C 0.52169 0.47108 0.53065 0.0
Dy1164 Dy 0.05005 0.52283 0.0251 0.0
C1165 C 0.93462 0.55128 0.01523 0.0
C1166 C 0.10042 0.50399 0.03063 0.0
Dy1167 Dy 0.98333 0.53034 0.02596 0.0
O1168 O 0.09717 0.5299 0.02388 0.0
O1169 O 0.07601 0.4883 0.03486 0.0
O1170 O 0.05758 0.55428 0.99136 0.0
O1171 O 0.0173 0.53266 0.99785 0.0
C1172 C 0.03088 0.55291 0.9855 0.0
C1173 C 1.00163 0.50703 0.07112 0.0
O1174 O 0.98145 0.48989 0.99506 0.0
O1175 O 0.02718 0.4801 1.0023 0.0
O1176 O 0.93758 0.52369 0.01064 0.0
O1177 O 0.95824 0.56729 0.02577 0.0
O1178 O 0.97567 0.51059 0.06734 0.0
O1179 O 0.01442 0.51554 0.05057 0.0
O1180 O 0.05139 0.56096 0.05733 0.0
O1181 O 0.00939 0.57466 0.04212 0.0
C1182 C 1.00092 0.4729 0.99117 0.0
C1183 C 0.03393 0.58008 0.05675 0.0
H1184 H 0.03206 0.20536 0.94753 0.0
H1185 H 0.97172 0.15414 0.88563 0.0
H1186 H 0.97363 0.1092 0.90841 0.0
H1187 H 0.99107 0.08482 0.94679 0.0
H1188 H 0.05375 0.13484 1.00708 0.0
H1189 H 0.05242 0.17996 0.98405 0.0
C1190 C 0.01945 0.18431 0.93895 0.0
C1191 C 1.00158 0.18313 0.91502 0.0
C1192 C 0.02099 0.15844 0.95196 0.0
C1193 C 0.98566 0.15565 0.90396 0.0
C1194 C 0.98665 0.12997 0.91706 0.0
C1195 C 1.00443 0.10563 0.95493 0.0
C1196 C 0.02219 0.10664 0.97888 0.0
C1197 C 1.00398 0.13118 0.94123 0.0
C1198 C 0.03984 0.13356 0.98878 0.0
C1199 C 0.03902 0.15933 0.97563 0.0
H1200 H 0.11033 0.82153 0.2312 0.0
H1201 H 0.15164 0.80071 0.15669 0.0
H1202 H 0.19532 0.80164 0.18433 0.0
H1203 H 0.21993 0.80308 0.23024 0.0
H1204 H 0.17723 0.82014 0.30439 0.0
H1205 H 0.13576 0.82586 0.27644 0.0
C1206 C 0.129 0.81774 0.22087 0.0
C1207 C 0.12765 0.81106 0.19185 0.0
C1208 C 0.15369 0.81731 0.23695 0.0
C1209 C 0.15206 0.80595 0.17895 0.0
C1210 C 0.17702 0.80634 0.19478 0.0
C1211 C 0.20191 0.80884 0.24018 0.0
C1212 C 0.20183 0.81149 0.2693 0.0
C1213 C 0.17786 0.81126 0.22387 0.0
C1214 C 0.17784 0.81803 0.282 0.0
C1215 C 0.15412 0.82127 0.26602 0.0
H1216 H 0.46759 0.87287 0.39294 0.0
H1217 H 0.53074 0.83671 0.43671 0.0
H1218 H 0.53877 0.87983 0.47122 0.0
H1219 H 0.52829 0.92796 0.48878 0.0
H1220 H 0.46293 0.96296 0.4473 0.0
H1221 H 0.45482 0.91989 0.41247 0.0
C1222 C 0.48313 0.8745 0.40999 0.0
C1223 C 0.49873 0.85174 0.41213 0.0
C1224 C 0.48698 0.89896 0.43035 0.0
C1225 C 0.51852 0.85397 0.43459 0.0
C1226 C 0.52309 0.87858 0.45436 0.0
C1227 C 0.5121 0.92605 0.47224 0.0
C1228 C 0.49628 0.94865 0.47061 0.0
C1229 C 0.50744 0.90117 0.45247 0.0
C1230 C 0.47523 0.94574 0.44918 0.0
C1231 C 0.47076 0.92124 0.42911 0.0
H1232 H 0.44357 0.23863 0.66579 0.0
H1233 H 0.48899 0.32278 0.70411 0.0
H1234 H 0.45181 0.32521 0.73664 0.0
H1235 H 0.40518 0.30398 0.7531 0.0
H1236 H 0.36232 0.21772 0.71693 0.0
H1237 H 0.39976 0.21529 0.6851 0.0
C1238 C 0.44537 0.25743 0.68131 0.0
C1239 C 0.46885 0.28061 0.68235 0.0
C1240 C 0.42439 0.25821 0.7005 0.0
C1241 C 0.47107 0.30466 0.70287 0.0
C1242 C 0.44981 0.30606 0.72147 0.0
C1243 C 0.40432 0.28451 0.73852 0.0
C1244 C 0.38095 0.26112 0.73735 0.0
C1245 C 0.42625 0.28303 0.7204 0.0
C1246 C 0.38011 0.23599 0.71837 0.0
C1247 C 0.40144 0.23464 0.69999 0.0
H1248 H 0.05779 0.88211 0.61001 0.0
H1249 H 0.97741 0.8362 0.57313 0.0
H1250 H 0.97921 0.8721 0.5386 0.0
H1251 H 1.00276 0.91834 0.52042 0.0
H1252 H 0.08445 0.96207 0.55625 0.0
H1253 H 0.08348 0.9247 0.58888 0.0
C1254 C 0.04069 0.87993 0.59446 0.0
C1255 C 0.01734 0.85676 0.59443 0.0
C1256 C 0.04233 0.90001 0.57408 0.0
C1257 C 0.99554 0.85402 0.57374 0.0
C1258 C 0.99662 0.87444 0.55389 0.0
C1259 C 0.02073 0.91911 0.53474 0.0
C1260 C 0.04365 0.94302 0.53582 0.0
C1261 C 0.0199 0.89764 0.55388 0.0
C1262 C 0.06655 0.94392 0.55491 0.0
C1263 C 0.0659 0.92271 0.57382 0.0
H1264 H 0.47001 0.7728 0.83827 0.0
H1265 H 0.45333 0.82361 0.91259 0.0
H1266 H 0.40856 0.83049 0.8909 0.0
H1267 H 0.37526 0.82414 0.84942 0.0
H1268 H 0.39481 0.77685 0.77411 0.0
H1269 H 0.43693 0.76607 0.79744 0.0
C1270 C 0.45662 0.78557 0.84958 0.0
C1271 C 0.46533 0.79864 0.87654 0.0
C1272 C 0.43137 0.78999 0.83672 0.0
C1273 C 0.44727 0.81392 0.89154 0.0
C1274 C 0.42175 0.81793 0.87911 0.0
C1275 C 0.38903 0.81185 0.83813 0.0
C1276 C 0.3823 0.80177 0.80998 0.0
C1277 C 0.41386 0.80661 0.85146 0.0
C1278 C 0.39995 0.78541 0.79562 0.0
C1279 C 0.42388 0.779 0.80901 0.0
H1280 H 0.45268 0.17614 0.11241 0.0
H1281 H 0.52454 0.22496 0.07607 0.0
H1282 H 0.5291 0.18083 0.04624 0.0
H1283 H 0.51197 0.12898 0.02932 0.0
H1284 H 0.43805 0.07993 0.06182 0.0
H1285 H 0.43443 0.12344 0.09403 0.0
C1286 C 0.46931 0.17682 0.09801 0.0
C1287 C 0.48807 0.20358 0.09603 0.0
C1288 C 0.47122 0.15149 0.08013 0.0
C1289 C 0.50973 0.20451 0.07756 0.0
C1290 C 0.51234 0.17937 0.06052 0.0
C1291 C 0.49501 0.128 0.04341 0.0
C1292 C 0.47522 0.10176 0.04338 0.0
C1293 C 0.49301 0.15293 0.06135 0.0
C1294 C 0.4533 0.1003 0.06154 0.0
C1295 C 0.45142 0.12499 0.08002 0.0
H1296 H 0.09768 0.28985 0.31703 0.0
H1297 H 0.12115 0.25458 0.39217 0.0
H1298 H 0.16401 0.24346 0.37121 0.0
H1299 H 0.19657 0.24755 0.3321 0.0
H1300 H 0.17091 0.28316 0.25797 0.0
H1301 H 0.12669 0.28959 0.27773 0.0
C1302 C 0.11196 0.27957 0.32899 0.0
C1303 C 0.10627 0.27349 0.35638 0.0
C1304 C 0.13608 0.27297 0.31676 0.0
C1305 C 0.12505 0.25976 0.37116 0.0
C1306 C 0.14954 0.25336 0.35913 0.0
C1307 C 0.18082 0.25582 0.32009 0.0
C1308 C 0.18674 0.26458 0.29347 0.0
C1309 C 0.15548 0.26021 0.33198 0.0
C1310 C 0.16661 0.27601 0.27833 0.0
C1311 C 0.14145 0.27995 0.28972 0.0
H1312 H 0.91223 0.01854 0.14643 0.0
H1313 H 0.96995 0.08581 0.19816 0.0
H1314 H 1.00193 0.09195 0.16043 0.0
H1315 H 0.01503 0.07634 0.11317 0.0
H1316 H 0.95892 0.00604 0.06313 0.0
H1317 H 0.92511 1.00323 0.09919 0.0
C1318 C 0.93161 0.03484 0.1493 0.0
C1319 C 0.93849 0.0518 0.17517 0.0
C1320 C 0.95044 0.03767 0.12765 0.0
C1321 C 0.96401 0.07245 0.17856 0.0
C1322 C 0.98241 0.07595 0.15694 0.0
C1323 C 0.9953 0.0606 0.11007 0.0
C1324 C 0.9895 0.04176 0.08512 0.0
C1325 C 0.9761 0.05839 0.13147 0.0
C1326 C 0.9639 0.02122 0.08178 0.0
C1327 C 0.94451 0.01943 0.10256 0.0
H1328 H 0.27284 0.7017 0.47268 0.0
H1329 H 0.26724 0.62025 0.41923 0.0
H1330 H 0.26992 0.64815 0.37863 0.0
H1331 H 0.2718 0.69499 0.35847 0.0
H1332 H 0.27495 0.77622 0.41129 0.0
H1333 H 0.27556 0.74889 0.45242 0.0
C1334 C 0.27248 0.69001 0.45219 0.0
C1335 C 0.26987 0.65892 0.44897 0.0
C1336 C 0.27355 0.70608 0.42899 0.0
C1337 C 0.26916 0.64414 0.42225 0.0
C1338 C 0.27071 0.66006 0.39906 0.0
C1339 C 0.27285 0.70678 0.37901 0.0
C1340 C 0.27333 0.73747 0.38207 0.0
C1341 C 0.27261 0.69093 0.40223 0.0
C1342 C 0.27454 0.75253 0.40863 0.0
C1343 C 0.27485 0.73694 0.43203 0.0
H1344 H 0.60905 0.01143 0.66015 0.0
H1345 H 0.53584 0.97666 0.70326 0.0
H1346 H 0.50636 0.97175 0.6603 0.0
H1347 H 0.50058 0.98375 0.61166 0.0
H1348 H 0.57429 0.0221 0.571 0.0
H1349 H 0.60416 0.01862 0.6113 0.0
C1350 C 0.58674 1.00223 0.66008 0.0
C1351 C 0.57466 0.99477 0.68493 0.0
C1352 C 0.56985 1.00021 0.63557 0.0
C1353 C 0.54571 0.98274 0.68441 0.0
C1354 C 0.52877 0.98007 0.65986 0.0
C1355 C 0.52322 0.99068 0.61151 0.0
C1356 C 0.53516 1.00288 0.58817 0.0
C1357 C 0.54045 0.98971 0.63547 0.0
C1358 C 0.56453 0.01212 0.58839 0.0
C1359 C 0.58171 0.01045 0.61163 0.0
H1360 H 0.31698 0.36591 0.94601 0.0
H1361 H 0.22689 0.35473 0.94888 0.0
H1362 H 0.22105 0.32642 0.90295 0.0
H1363 H 0.24176 0.3078 0.86085 0.0
H1364 H 0.33215 0.3199 0.85771 0.0
H1365 H 0.33771 0.34494 0.90476 0.0
C1366 C 0.2961 0.35707 0.93658 0.0
C1367 C 0.27235 0.36234 0.95066 0.0
C1368 C 0.29301 0.34121 0.91006 0.0
C1369 C 0.2454 0.35068 0.93844 0.0
C1370 C 0.24212 0.33469 0.91214 0.0
C1371 C 0.26272 0.31574 0.87043 0.0
C1372 C 0.28652 0.31205 0.85548 0.0
C1373 C 0.26579 0.33026 0.89754 0.0
C1374 C 0.31344 0.32236 0.86854 0.0
C1375 C 0.31665 0.33678 0.8955 0.0
H1376 H 0.94386 0.01586 0.31004 0.0
H1377 H 0.87522 0.04191 0.35418 0.0
H1378 H 0.89739 0.03318 0.39804 0.0
H1379 H 0.93599 0.0176 0.42403 0.0
H1380 H 1.00434 0.99072 0.38015 0.0
H1381 H 0.98241 0.99981 0.33612 0.0
C1382 C 0.93397 0.02011 0.3293 0.0
C1383 C 0.90801 0.02996 0.32872 0.0
C1384 C 0.94656 0.01436 0.35451 0.0
C1385 C 0.89525 0.0346 0.35392 0.0
C1386 C 0.90785 0.02943 0.37905 0.0
C1387 C 0.94595 0.01343 0.40479 0.0
C1388 C 0.97171 1.00328 0.40538 0.0
C1389 C 0.93337 0.01905 0.37959 0.0
C1390 C 0.98442 0.99826 0.38028 0.0
C1391 C 0.97197 0.00368 0.3551 0.0
H1392 H 0.30352 0.72905 0.58973 0.0
H1393 H 0.28467 0.64794 0.62941 0.0
H1394 H 0.28301 0.67645 0.67392 0.0
H1395 H 0.28338 0.72349 0.70047 0.0
H1396 H 0.30345 0.80548 0.66272 0.0
H1397 H 0.30762 0.77735 0.61794 0.0
C1398 C 0.29961 0.71767 0.60823 0.0
C1399 C 0.29404 0.68643 0.6063 0.0
C1400 C 0.29816 0.73422 0.63372 0.0
C1401 C 0.28891 0.67195 0.63037 0.0
C1402 C 0.28773 0.6882 0.65576 0.0
C1403 C 0.28844 0.73535 0.68248 0.0
C1404 C 0.29247 0.76646 0.68464 0.0
C1405 C 0.29153 0.71921 0.65744 0.0
C1406 C 0.29983 0.78146 0.6613 0.0
C1407 C 0.30238 0.76541 0.63587 0.0
H1408 H 0.56067 0.01073 0.82168 0.0
H1409 H 0.63084 0.06995 0.86677 0.0
H1410 H 0.60107 0.07894 0.90459 0.0
H1411 H 0.55557 0.07029 0.92496 0.0
H1412 H 0.48631 0.00734 0.88331 0.0
H1413 H 0.51523 0.99976 0.84364 0.0
C1414 C 0.56952 0.02544 0.83986 0.0
C1415 C 0.59791 0.03996 0.8411 0.0
C1416 C 0.55238 0.03015 0.8619 0.0
C1417 C 0.60908 0.05861 0.86503 0.0
C1418 C 0.59205 0.06388 0.8867 0.0
C1419 C 0.54658 0.05536 0.90694 0.0
C1420 C 0.51865 0.04005 0.90648 0.0
C1421 C 0.56367 0.05005 0.88519 0.0
C1422 C 0.5076 0.01983 0.88364 0.0
C1423 C 0.52421 0.01532 0.8612 0.0
H1424 H 0.23971 0.32004 0.09533 0.0
H1425 H 0.29571 0.39765 0.13478 0.0
H1426 H 0.29266 0.37634 0.17926 0.0
H1427 H 0.27603 0.33428 0.20671 0.0
H1428 H 0.219 0.25739 0.16732 0.0
H1429 H 0.22028 0.27981 0.12347 0.0
C1430 C 0.25113 0.3324 0.11368 0.0
C1431 C 0.26809 0.3604 0.11152 0.0
C1432 C 0.24909 0.32007 0.13937 0.0
C1433 C 0.2825 0.3761 0.13569 0.0
C1434 C 0.28082 0.36387 0.1612 0.0
C1435 C 0.26359 0.32261 0.18862 0.0
C1436 C 0.24752 0.29404 0.1904 0.0
C1437 C 0.26443 0.3357 0.16328 0.0
C1438 C 0.23156 0.27932 0.16667 0.0
C1439 C 0.23237 0.29211 0.14147 0.0
H1440 H 0.21776 0.98803 1.00123 0.0
H1441 H 0.16994 0.90168 0.01348 0.0
H1442 H 0.12992 0.92414 0.02653 0.0
H1443 H 0.1079 0.96743 0.03207 0.0
H1444 H 0.15444 0.05407 0.02012 0.0
H1445 H 0.19638 0.03248 0.01025 0.0
C1446 C 0.19856 0.97412 1.00669 0.0
C1447 C 0.19667 0.94316 1.00609 0.0
C1448 C 0.1758 0.98726 0.01466 0.0
C1449 C 0.17183 0.9255 0.01362 0.0
C1450 C 0.14902 0.93831 0.0212 0.0
C1451 C 0.12746 0.98165 0.0278 0.0
C1452 C 0.12844 0.01213 0.02677 0.0
C1453 C 0.15078 0.96904 0.0216 0.0
C1454 C 0.1536 0.03056 0.02136 0.0
C1455 C 0.17729 0.01814 0.01534 0.0
H1456 H 0.69705 0.5996 1.00676 0.0
H1457 H 0.66953 0.66682 0.9621 0.0
H1458 H 0.62077 0.63954 0.9602 0.0
H1459 H 0.58607 0.59572 0.97058 0.0
H1460 H 0.61433 0.52726 0.01293 0.0
H1461 H 0.66268 0.55567 0.01654 0.0
C1462 C 0.68039 0.60795 0.99619 0.0
C1463 C 0.68692 0.63457 0.98365 0.0
C1464 C 0.65259 0.59193 0.99493 0.0
C1465 C 0.66503 0.64601 0.9713 0.0
C1466 C 0.63721 0.6304 0.97022 0.0
C1467 C 0.60296 0.58704 0.98038 0.0
C1468 C 0.59691 0.55945 0.99136 0.0
C1469 C 0.63077 0.60319 0.98174 0.0
C1470 C 0.6187 0.54836 1.00418 0.0
C1471 C 0.64625 0.56464 1.00632 0.0
H1472 H 0.73439 0.46441 0.30367 0.0
H1473 H 0.65609 0.42986 0.25628 0.0
H1474 H 0.67426 0.38536 0.24007 0.0
H1475 H 0.71264 0.35604 0.23938 0.0
H1476 H 0.79147 0.39268 0.2853 0.0
H1477 H 0.77299 0.43662 0.30135 0.0
C1478 C 0.72109 0.44721 0.28985 0.0
C1479 C 0.69362 0.45072 0.28149 0.0
C1480 C 0.732 0.42205 0.27994 0.0
C1481 C 0.67714 0.42797 0.26331 0.0
C1482 C 0.68763 0.40249 0.2539 0.0
C1483 C 0.72598 0.37377 0.25261 0.0
C1484 C 0.75367 0.37076 0.26087 0.0
C1485 C 0.71513 0.39931 0.26195 0.0
C1486 C 0.77031 0.39416 0.27822 0.0
C1487 C 0.75963 0.41934 0.28767 0.0
H1488 H 0.82878 0.4424 0.531 0.0
H1489 H 0.84195 0.37291 0.47024 0.0
H1490 H 0.89275 0.39353 0.47282 0.0
H1491 H 0.93209 0.43504 0.48898 0.0
H1492 H 0.91796 0.50233 0.55183 0.0
H1493 H 0.86843 0.4791 0.55171 0.0
C1494 C 0.84293 0.43169 0.51854 0.0
C1495 C 0.83209 0.40717 0.49964 0.0
C1496 C 0.87161 0.44347 0.52034 0.0
C1497 C 0.85024 0.39238 0.48442 0.0
C1498 C 0.87908 0.40419 0.48585 0.0
C1499 C 0.91803 0.44434 0.50264 0.0
C1500 C 0.92808 0.47046 0.51999 0.0
C1501 C 0.8898 0.43038 0.50303 0.0
C1502 C 0.91027 0.48225 0.5382 0.0
C1503 C 0.88211 0.46898 0.53824 0.0
H1504 H 0.32129 0.07637 0.28396 0.0
H1505 H 0.4041 0.12934 0.27939 0.0
H1506 H 0.38288 0.17006 0.26431 0.0
H1507 H 0.34087 0.19141 0.2558 0.0
H1508 H 0.25821 0.13798 0.25898 0.0
H1509 H 0.27944 0.09587 0.27074 0.0
C1510 C 0.33477 0.09674 0.27953 0.0
C1511 C 0.36423 0.10008 0.28317 0.0
C1512 C 0.32247 0.11968 0.27053 0.0
C1513 C 0.38138 0.12639 0.2769 0.0
C1514 C 0.36927 0.1496 0.2683 0.0
C1515 C 0.32754 0.17037 0.25871 0.0
C1516 C 0.29812 0.1676 0.25685 0.0
C1517 C 0.33987 0.14659 0.26551 0.0
C1518 C 0.28092 0.14037 0.26029 0.0
C1519 C 0.29305 0.1165 0.26721 0.0
H1520 H 0.3221 0.09266 0.51871 0.0
H1521 H 0.36823 0.16882 0.48445 0.0
H1522 H 0.4123 0.15038 0.49197 0.0
H1523 H 0.43696 0.11055 0.50547 0.0
H1524 H 0.38941 0.03309 0.53703 0.0
H1525 H 0.34643 0.05358 0.53271 0.0
C1526 C 0.34175 0.10506 0.51263 0.0
C1527 C 0.34192 0.13181 0.50067 0.0
C1528 C 0.36664 0.09386 0.51629 0.0
C1529 C 0.36766 0.14823 0.49379 0.0
C1530 C 0.39275 0.13753 0.49789 0.0
C1531 C 0.41718 0.09823 0.5115 0.0
C1532 C 0.41635 0.07023 0.5215 0.0
C1533 C 0.39242 0.11007 0.50866 0.0
C1534 C 0.3906 0.05457 0.52921 0.0
C1535 C 0.36603 0.06631 0.52678 0.0
H1536 H 0.72242 0.59357 0.27517 0.0
H1537 H 0.65607 0.62466 0.31884 0.0
H1538 H 0.68005 0.67625 0.31734 0.0
H1539 H 0.7195 0.71265 0.302 0.0
H1540 H 0.78714 0.68085 0.26104 0.0
H1541 H 0.76345 0.62944 0.26335 0.0
C1542 C 0.71372 0.61164 0.28514 0.0
C1543 C 0.68805 0.60537 0.29797 0.0
C1544 C 0.72777 0.64111 0.28439 0.0
C1545 C 0.67617 0.62901 0.30944 0.0
C1546 C 0.68982 0.65846 0.30849 0.0
C1547 C 0.72901 0.69437 0.29377 0.0
C1548 C 0.75486 0.70035 0.2812 0.0
C1549 C 0.71554 0.66482 0.29578 0.0
C1550 C 0.76722 0.67665 0.27079 0.0
C1551 C 0.75366 0.6473 0.27205 0.0
H1552 H 0.86085 0.46896 0.77605 0.0
H1553 H 0.91492 0.44571 0.8398 0.0
H1554 H 0.88692 0.39501 0.83593 0.0
H1555 H 0.84593 0.35809 0.8148 0.0
H1556 H 0.79357 0.38266 0.74992 0.0
H1557 H 0.82186 0.43246 0.75406 0.0
C1558 C 0.86646 0.45266 0.78905 0.0
C1559 C 0.88914 0.46078 0.80867 0.0
C1560 C 0.85052 0.42405 0.78655 0.0
C1561 C 0.89709 0.43966 0.82486 0.0
C1562 C 0.8811 0.41086 0.82266 0.0
C1563 C 0.84069 0.37449 0.80178 0.0
C1564 C 0.81771 0.36691 0.78218 0.0
C1565 C 0.85748 0.40296 0.80382 0.0
C1566 C 0.81122 0.38808 0.76512 0.0
C1567 C 0.82743 0.41645 0.76735 0.0
H1568 H 0.99672 0.83956 0.07955 0.0
H1569 H 0.07597 0.87724 0.12419 0.0
H1570 H 0.07683 0.92358 0.10265 0.0
H1571 H 0.05528 0.95295 0.07064 0.0
H1572 H 0.97524 0.91525 0.02743 0.0
H1573 H 0.97466 0.86913 0.04888 0.0
C1574 C 0.01428 0.85785 0.08465 0.0
C1575 C 0.03639 0.85475 0.10341 0.0
C1576 C 0.01453 0.88435 0.07234 0.0
C1577 C 0.05867 0.87895 0.10993 0.0
C1578 C 0.05921 0.90541 0.09751 0.0
C1579 C 0.03772 0.93463 0.06579 0.0
C1580 C 0.01536 0.93757 0.04722 0.0
C1581 C 0.03731 0.90828 0.07856 0.0
C1582 C 0.99269 0.91366 0.04154 0.0
C1583 C 0.99235 0.88726 0.05383 0.0
H1584 H 0.92785 0.22737 0.81437 0.0
H1585 H 0.90321 0.27878 0.88467 0.0
H1586 H 0.85822 0.2798 0.86006 0.0
H1587 H 0.82933 0.27203 0.81641 0.0
H1588 H 0.85276 0.2194 0.74618 0.0
H1589 H 0.89484 0.21267 0.7729 0.0
C1590 C 0.91247 0.23861 0.82425 0.0
C1591 C 0.91913 0.25415 0.85071 0.0
C1592 C 0.8866 0.23889 0.81 0.0
C1593 C 0.8987 0.26744 0.86397 0.0
C1594 C 0.87305 0.268 0.84992 0.0
C1595 C 0.84321 0.25842 0.80713 0.0
C1596 C 0.83804 0.24641 0.77926 0.0
C1597 C 0.86726 0.25473 0.82258 0.0
C1598 C 0.85633 0.22896 0.76754 0.0
C1599 C 0.8804 0.22515 0.78282 0.0
H1600 H 0.5338 0.18615 0.64677 0.0
H1601 H 0.57321 0.24089 0.58647 0.0
H1602 H 0.57891 0.19691 0.5568 0.0
H1603 H 0.56727 0.14266 0.54538 0.0
H1604 H 0.52643 0.08781 0.60482 0.0
H1605 H 0.52673 0.13163 0.63747 0.0
C1606 C 0.5439 0.18825 0.62729 0.0
C1607 C 0.55217 0.21641 0.61822 0.0
C1608 C 0.54677 0.1628 0.61015 0.0
C1609 C 0.56585 0.21919 0.59331 0.0
C1610 C 0.56926 0.1941 0.57643 0.0
C1611 C 0.55932 0.14042 0.56585 0.0
C1612 C 0.5472 0.11235 0.57305 0.0
C1613 C 0.55901 0.16576 0.58421 0.0
C1614 C 0.53619 0.10943 0.59922 0.0
C1615 C 0.53619 0.13443 0.61776 0.0
H1616 H 0.56016 0.79711 0.30316 0.0
H1617 H 0.5782 0.75463 0.37592 0.0
H1618 H 0.62425 0.74957 0.35922 0.0
H1619 H 0.65948 0.757 0.32366 0.0
H1620 H 0.64092 0.79954 0.25124 0.0
H1621 H 0.59491 0.80446 0.26799 0.0
C1622 C 0.57416 0.78694 0.31557 0.0
C1623 C 0.56561 0.77643 0.3409 0.0
C1624 C 0.60049 0.78382 0.30574 0.0
C1625 C 0.58414 0.76305 0.35642 0.0
C1626 C 0.61049 0.76004 0.34683 0.0
C1627 C 0.64524 0.76715 0.3115 0.0
C1628 C 0.65351 0.77779 0.28619 0.0
C1629 C 0.61884 0.7702 0.32144 0.0
C1630 C 0.63499 0.79109 0.27073 0.0
C1631 C 0.60871 0.79401 0.28035 0.0
H1632 H 0.03471 0.21283 0.47228 0.0
H1633 H 1.00245 0.1689 0.392 0.0
H1634 H 0.99357 0.12112 0.4117 0.0
H1635 H 0.99696 0.09183 0.45114 0.0
H1636 H 0.03026 0.13586 0.53119 0.0
H1637 H 0.03611 0.18382 0.51216 0.0
C1638 C 0.02574 0.19283 0.45901 0.0
C1639 C 0.01951 0.19443 0.43058 0.0
C1640 C 0.02063 0.16554 0.4705 0.0
C1641 C 0.00763 0.16829 0.41385 0.0
C1642 C 1.00248 0.14099 0.42515 0.0
C1643 C 1.00512 0.11189 0.46465 0.0
C1644 C 0.01319 0.11009 0.49268 0.0
C1645 C 0.00908 0.13935 0.4534 0.0
C1646 C 0.0238 0.13646 0.50964 0.0
C1647 C 0.02735 0.16392 0.4987 0.0
H1648 H 0.59436 0.26973 0.13301 0.0
H1649 H 0.5608 0.29737 0.21016 0.0
H1650 H 0.60255 0.28892 0.23583 0.0
H1651 H 0.64838 0.27299 0.23652 0.0
H1652 H 0.68329 0.24812 0.15945 0.0
H1653 H 0.64102 0.25556 0.13359 0.0
C1654 C 0.59629 0.27419 0.15542 0.0
C1655 C 0.57444 0.2842 0.16961 0.0
C1656 C 0.62039 0.26925 0.17009 0.0
C1657 C 0.57732 0.28982 0.19867 0.0
C1658 C 0.60112 0.28478 0.21341 0.0
C1659 C 0.6465 0.26881 0.21409 0.0
C1660 C 0.66859 0.2595 0.19986 0.0
C1661 C 0.62263 0.27418 0.19937 0.0
C1662 C 0.66632 0.25493 0.17079 0.0
C1663 C 0.64228 0.25938 0.15602 0.0
H1664 H 0.54582 0.91129 0.90643 0.0
H1665 H 0.56572 0.85631 0.96925 0.0
H1666 H 0.56553 0.89673 1.00519 0.0
H1667 H 0.55379 0.94558 0.01947 0.0
H1668 H 0.53382 1.00031 0.95708 0.0
H1669 H 0.53994 0.96239 0.92035 0.0
C1670 C 0.55061 0.90826 0.92791 0.0
C1671 C 0.55531 0.88051 0.93502 0.0
C1672 C 0.54997 0.93148 0.94867 0.0
C1673 C 0.56167 0.87723 0.96306 0.0
C1674 C 0.56151 0.90035 0.98374 0.0
C1675 C 0.55129 0.9493 0.99781 0.0
C1676 C 0.54229 0.9751 0.99077 0.0
C1677 C 0.55478 0.92723 0.9769 0.0
C1678 C 0.53937 0.97992 0.96276 0.0
C1679 C 0.54321 0.95838 0.94183 0.0
H1680 H 0.94637 0.83282 0.69741 0.0
H1681 H 0.92076 0.74623 0.6522 0.0
H1682 H 0.87604 0.73972 0.6743 0.0
H1683 H 0.84439 0.75777 0.70736 0.0
H1684 H 0.86805 0.84537 0.75058 0.0
H1685 H 0.91318 0.85225 0.72852 0.0
C1686 C 0.93094 0.81262 0.69223 0.0
C1687 C 0.93714 0.79006 0.67311 0.0
C1688 C 0.9049 0.80906 0.70487 0.0
C1689 C 0.91668 0.7641 0.66663 0.0
C1690 C 0.89107 0.76024 0.67941 0.0
C1691 C 0.85949 0.77832 0.71205 0.0
C1692 C 0.85302 0.80087 0.73088 0.0
C1693 C 0.88504 0.7824 0.69875 0.0
C1694 C 0.87255 0.82762 0.73626 0.0
C1695 C 0.89837 0.83156 0.72363 0.0
H1696 H 0.08629 0.99027 0.85279 0.0
H1697 H 0.15717 0.0392 0.90459 0.0
H1698 H 0.12798 0.03917 0.94442 0.0
H1699 H 0.08153 0.02725 0.96453 0.0
H1700 H 0.01198 0.97377 0.91425 0.0
H1701 H 0.04115 0.97379 0.8742 0.0
C1702 C 0.09542 1.00081 0.8728 0.0
C1703 C 0.12397 0.01513 0.87529 0.0
C1704 C 0.0786 1.00006 0.89607 0.0
C1705 C 0.13534 0.02821 0.90169 0.0
C1706 C 0.11859 0.02827 0.92463 0.0
C1707 C 0.07286 0.01525 0.94494 0.0
C1708 C 0.04449 1.00057 0.94254 0.0
C1709 C 0.09009 0.01457 0.92206 0.0
C1710 C 0.03369 0.98524 0.91683 0.0
C1711 C 0.05039 0.98528 0.89382 0.0
H1712 H 0.78602 0.38193 0.58537 0.0
H1713 H 0.70375 0.32893 0.56309 0.0
H1714 H 0.70815 0.30028 0.60284 0.0
H1715 H 0.73638 0.2896 0.64287 0.0
H1716 H 0.81974 0.34122 0.66279 0.0
H1717 H 0.81429 0.37078 0.62426 0.0
C1718 C 0.76881 0.36444 0.58946 0.0
C1719 C 0.74439 0.35777 0.57171 0.0
C1720 C 0.77204 0.34745 0.61141 0.0
C1721 C 0.72259 0.33458 0.57677 0.0
C1722 C 0.72523 0.3181 0.59927 0.0
C1723 C 0.7534 0.30716 0.63855 0.0
C1724 C 0.77845 0.31327 0.65545 0.0
C1725 C 0.75006 0.32409 0.61646 0.0
C1726 C 0.80037 0.33604 0.64984 0.0
C1727 C 0.79717 0.35308 0.62802 0.0
H1728 H 0.47571 0.07765 0.36295 0.0
H1729 H 0.39951 0.05342 0.4059 0.0
H1730 H 0.4272 0.05308 0.44869 0.0
H1731 H 0.4725 0.0502 0.47101 0.0
H1732 H 0.5492 0.07931 0.43113 0.0
H1733 H 0.52173 0.08632 0.38941 0.0
C1734 C 0.46511 0.073 0.3818 0.0
C1735 C 0.43555 0.06443 0.38084 0.0
C1736 C 0.48118 0.07296 0.40657 0.0
C1737 C 0.42221 0.05934 0.4057 0.0
C1738 C 0.43802 0.05896 0.43025 0.0
C1739 C 0.48327 0.05949 0.45382 0.0
C1740 C 0.51274 0.06442 0.45422 0.0
C1741 C 0.46745 0.06432 0.43051 0.0
C1742 C 0.52645 0.07539 0.43126 0.0
C1743 C 0.51076 0.07934 0.40744 0.0
H1744 H 0.7336 0.68061 0.087 0.0
H1745 H 0.80809 0.74195 0.06993 0.0
H1746 H 0.81097 0.76561 0.1175 0.0
H1747 H 0.79256 0.76885 0.16406 0.0
H1748 H 0.71617 0.71012 0.18064 0.0
H1749 H 0.71356 0.68577 0.13322 0.0
C1750 C 0.75053 0.69908 0.09376 0.0
C1751 C 0.77084 0.70926 0.07494 0.0
C1752 C 0.75157 0.7132 0.12104 0.0
C1753 C 0.79229 0.73359 0.08392 0.0
C1754 C 0.79392 0.74714 0.11115 0.0
C1755 C 0.77525 0.75076 0.15732 0.0
C1756 C 0.75463 0.74127 0.17608 0.0
C1757 C 0.77369 0.73717 0.1299 0.0
C1758 C 0.73223 0.71802 0.16674 0.0
C1759 C 0.73084 0.70397 0.13962 0.0
H1760 H 0.14349 0.04145 0.69793 0.0
H1761 H 0.06776 0.99049 0.72606 0.0
H1762 H 0.04173 0.99711 0.68357 0.0
H1763 H 0.04013 0.01814 0.63871 0.0
H1764 H 0.11576 0.06866 0.61019 0.0
H1765 H 0.14203 0.0619 0.65265 0.0
C1766 C 0.12137 0.03148 0.69464 0.0
C1767 C 0.10767 0.01534 0.71519 0.0
C1768 C 0.10638 0.03574 0.67025 0.0
C1769 C 0.0789 1.00289 0.71062 0.0
C1770 C 0.06394 0.00682 0.68636 0.0
C1771 C 0.0623 0.02793 0.64192 0.0
C1772 C 0.07591 0.04419 0.62145 0.0
C1773 C 0.07736 0.02347 0.66616 0.0
C1774 C 0.10474 0.05631 0.62573 0.0
C1775 C 0.1198 0.05228 0.64994 0.0
H1776 H 0.77971 0.38641 0.39408 0.0
H1777 H 0.71255 0.33026 0.43064 0.0
H1778 H 0.70957 0.29273 0.39071 0.0
H1779 H 0.72715 0.27623 0.34511 0.0
H1780 H 0.79953 0.33152 0.3151 0.0
H1781 H 0.80059 0.36818 0.35388 0.0
C1782 C 0.76462 0.3659 0.39378 0.0
C1783 C 0.74658 0.36115 0.41543 0.0
C1784 C 0.76449 0.34385 0.3722 0.0
C1785 C 0.72672 0.33452 0.41411 0.0
C1786 C 0.7252 0.31295 0.39147 0.0
C1787 C 0.7435 0.29595 0.34755 0.0
C1788 C 0.76308 0.30117 0.32705 0.0
C1789 C 0.74431 0.31724 0.37048 0.0
C1790 C 0.78418 0.32682 0.33045 0.0
C1791 C 0.78466 0.34812 0.35251 0.0
H1792 H 0.48342 0.07274 0.22801 0.0
H1793 H 0.42203 0.99179 0.2099 0.0
H1794 H 0.4419 0.98219 0.16554 0.0
H1795 H 0.47495 0.99756 0.13084 0.0
H1796 H 0.53363 0.08055 0.14558 0.0
H1797 H 0.51708 0.0884 0.1924 0.0
C1798 C 0.47453 0.05304 0.2143 0.0
C1799 C 0.45122 0.03314 0.22212 0.0
C1800 C 0.48571 0.04789 0.18832 0.0
C1801 C 0.43977 0.00768 0.20421 0.0
C1802 C 0.4512 1.00202 0.17888 0.0
C1803 C 0.48445 0.01711 0.1445 0.0
C1804 C 0.5056 0.03829 0.13509 0.0
C1805 C 0.47398 0.02205 0.17064 0.0
C1806 C 0.5174 0.06385 0.15265 0.0
C1807 C 0.50783 0.06841 0.17928 0.0
H1808 H 0.79316 0.73683 0.93304 0.0
H1809 H 0.75502 0.65668 0.88188 0.0
H1810 H 0.75894 0.68319 0.84088 0.0
H1811 H 0.77089 0.72934 0.81892 0.0
H1812 H 0.81199 0.8094 0.86775 0.0
H1813 H 0.8092 0.783 0.90971 0.0
C1814 C 0.78581 0.72513 0.91294 0.0
C1815 C 0.77351 0.69457 0.91109 0.0
C1816 C 0.78858 0.74058 0.88873 0.0
C1817 C 0.76446 0.68004 0.8845 0.0
C1818 C 0.76664 0.69524 0.86076 0.0
C1819 C 0.77974 0.74096 0.83862 0.0
C1820 C 0.79177 0.77137 0.83997 0.0
C1821 C 0.7784 0.72552 0.86257 0.0
C1822 C 0.80278 0.78599 0.86591 0.0
C1823 C 0.80104 0.77087 0.89001 0.0
H1824 H 0.81476 0.05231 0.98331 0.0
H1825 H 0.84945 0.12284 0.04703 0.0
H1826 H 0.89213 0.10217 0.05136 0.0
H1827 H 0.91989 0.06545 0.03624 0.0
H1828 H 0.887 0.99613 0.97115 0.0
H1829 H 0.84263 0.01476 0.96854 0.0
C1830 C 0.8316 0.06318 0.99822 0.0
C1831 C 0.82895 0.0892 0.01475 0.0
C1832 C 0.85615 0.05133 1.00046 0.0
C1833 C 0.85101 0.10296 0.0339 0.0
C1834 C 0.87536 0.0911 0.03648 0.0
C1835 C 0.90295 0.05423 0.02156 0.0
C1836 C 0.90654 0.02953 1.00382 0.0
C1837 C 0.87816 0.06547 0.01975 0.0
C1838 C 0.88453 0.01517 0.98499 0.0
C1839 C 0.85933 0.02591 0.98344 0.0
H1840 H 0.34987 0.46786 0.05747 0.0
H1841 H 0.36804 0.3945 1.00437 0.0
H1842 H 0.41541 0.42248 0.99842 0.0
H1843 H 0.45068 0.46911 1.00651 0.0
H1844 H 0.43181 0.54232 0.05977 0.0
H1845 H 0.38576 0.51327 0.06741 0.0
C1846 C 0.36428 0.4581 0.0446 0.0
C1847 C 0.35535 0.42969 0.03057 0.0
C1848 C 0.39129 0.47436 0.04124 0.0
C1849 C 0.37442 0.41664 0.01487 0.0
C1850 C 0.4014 0.43267 0.01141 0.0
C1851 C 0.43638 0.47877 0.01959 0.0
C1852 C 0.4446 0.50799 0.03233 0.0
C1853 C 0.40985 0.46184 0.02401 0.0
C1854 C 0.42597 0.51999 0.04956 0.0
C1855 C 0.39969 0.50331 0.05412 0.0
H1856 H 0.30367 0.59047 0.74401 0.0
H1857 H 0.3905 0.63395 0.74328 0.0
H1858 H 0.37605 0.68252 0.74912 0.0
H1859 H 0.33858 0.71245 0.75606 0.0
H1860 H 0.25189 0.66783 0.755 0.0
H1861 H 0.26658 0.61977 0.7485 0.0
C1862 C 0.31959 0.6105 0.74498 0.0
C1863 C 0.34828 0.6084 0.74339 0.0
C1864 C 0.31111 0.63815 0.74835 0.0
C1865 C 0.36834 0.63477 0.74433 0.0
C1866 C 0.36005 0.66255 0.74789 0.0
C1867 C 0.32289 0.6922 0.75465 0.0
C1868 C 0.29408 0.69383 0.75651 0.0
C1869 C 0.3315 0.66451 0.75031 0.0
C1870 C 0.27411 0.66732 0.75391 0.0
C1871 C 0.28252 0.63981 0.75011 0.0
H1872 H 0.17689 0.63784 0.50786 0.0
H1873 H 0.20915 0.58758 0.56824 0.0
H1874 H 0.16151 0.5616 0.57509 0.0
H1875 H 0.11147 0.54964 0.56014 0.0
H1876 H 0.08031 0.59419 0.49446 0.0
H1877 H 0.12653 0.62622 0.49325 0.0
C1878 C 0.17318 0.6214 0.52265 0.0
C1879 C 0.19591 0.61392 0.53717 0.0
C1880 C 0.14604 0.60561 0.52537 0.0
C1881 C 0.19152 0.59299 0.55657 0.0
C1882 C 0.16444 0.57826 0.5605 0.0
C1883 C 0.11494 0.56661 0.54584 0.0
C1884 C 0.0931 0.56984 0.5274 0.0
C1885 C 0.14168 0.58376 0.5444 0.0
C1886 C 0.09733 0.59148 0.50864 0.0
C1887 C 0.12354 0.6098 0.50807 0.0
H1888 H 0.70449 0.98446 0.80083 0.0
H1889 H 0.639 0.93669 0.74176 0.0
H1890 H 0.66497 0.89589 0.7356 0.0
H1891 H 0.70702 0.87485 0.74586 0.0
H1892 H 0.77223 0.92312 0.8047 0.0
H1893 H 0.74572 0.9634 0.81154 0.0
C1894 C 0.69563 0.96511 0.78667 0.0
C1895 C 0.66975 0.96375 0.77171 0.0
C1896 C 0.71087 0.94218 0.78283 0.0
C1897 C 0.65874 0.93832 0.75364 0.0
C1898 C 0.67371 0.91511 0.74994 0.0
C1899 C 0.71553 0.89433 0.76001 0.0
C1900 C 0.74164 0.89629 0.77461 0.0
C1901 C 0.69997 0.91705 0.76413 0.0
C1902 C 0.7523 0.92135 0.79311 0.0
C1903 C 0.73707 0.94421 0.79713 0.0
H1904 H 0.72402 0.97727 0.50361 0.0
H1905 H 0.68609 0.89843 0.54012 0.0
H1906 H 0.64167 0.91701 0.54246 0.0
H1907 H 0.61379 0.95621 0.53405 0.0
H1908 H 0.65368 0.03474 0.49836 0.0
H1909 H 0.69734 0.0156 0.49592 0.0
C1910 C 0.70613 0.96381 0.512 0.0
C1911 C 0.70854 0.93623 0.52149 0.0
C1912 C 0.68101 0.97472 0.51353 0.0
C1913 C 0.68494 0.91962 0.53254 0.0
C1914 C 0.65954 0.93029 0.53391 0.0
C1915 C 0.6321 0.96908 0.52579 0.0
C1916 C 0.63051 0.99689 0.51635 0.0
C1917 C 0.65735 0.95789 0.52449 0.0
C1918 C 0.65435 0.01336 0.50576 0.0
C1919 C 0.67932 1.00239 0.50431 0.0
H1920 H 0.3804 0.4375 0.75584 0.0
H1921 H 0.32329 0.46177 0.69549 0.0
H1922 H 0.29292 0.41287 0.69433 0.0
H1923 H 0.27918 0.36626 0.71574 0.0
H1924 H 0.33471 0.34339 0.77862 0.0
H1925 H 0.36899 0.3884 0.77371 0.0
C1926 C 0.3615 0.43176 0.7422 0.0
C1927 C 0.35343 0.45324 0.72646 0.0
C1928 C 0.34369 0.40396 0.74239 0.0
C1929 C 0.32933 0.44565 0.70835 0.0
C1930 C 0.31204 0.41771 0.70764 0.0
C1931 C 0.29898 0.37094 0.72803 0.0
C1932 C 0.30428 0.35174 0.74772 0.0
C1933 C 0.31838 0.39718 0.72547 0.0
C1934 C 0.33009 0.35793 0.7634 0.0
C1935 C 0.34972 0.38368 0.76062 0.0
H1936 H 0.12185 0.62828 0.27313 0.0
H1937 H 0.17219 0.59061 0.21337 0.0
H1938 H 0.19856 0.63992 0.20727 0.0
H1939 H 0.21327 0.69162 0.22591 0.0
H1940 H 0.16892 0.72781 0.29193 0.0
H1941 H 0.1336 0.68189 0.28827 0.0
C1942 C 0.13819 0.63122 0.2584 0.0
C1943 C 0.1458 0.60636 0.24419 0.0
C1944 C 0.15425 0.65943 0.25622 0.0
C1945 C 0.16666 0.60981 0.22488 0.0
C1946 C 0.18161 0.63789 0.22135 0.0
C1947 C 0.19531 0.68963 0.23879 0.0
C1948 C 0.19346 0.7125 0.2592 0.0
C1949 C 0.17654 0.66261 0.23794 0.0
C1950 C 0.17054 0.71004 0.2762 0.0
C1951 C 0.1505 0.68386 0.27414 0.0
H1952 H 0.53063 0.71044 0.44752 0.0
H1953 H 0.4727 0.65653 0.38504 0.0
H1954 H 0.47825 0.61194 0.4068 0.0
H1955 H 0.49786 0.58865 0.44442 0.0
H1956 H 0.55736 0.64143 0.5061 0.0
H1957 H 0.55316 0.68631 0.4836 0.0
C1958 C 0.5193 0.6889 0.43863 0.0
C1959 C 0.50102 0.68678 0.41485 0.0
C1960 C 0.52287 0.6633 0.45109 0.0
C1961 C 0.48682 0.65873 0.40332 0.0
C1962 C 0.48993 0.63326 0.41579 0.0
C1963 C 0.50994 0.60999 0.45299 0.0
C1964 C 0.52757 0.61189 0.47715 0.0
C1965 C 0.50761 0.63536 0.43983 0.0
C1966 C 0.5436 0.6395 0.4876 0.0
C1967 C 0.5411 0.66509 0.47479 0.0
H1968 H 0.61591 0.32924 0.7239 0.0
H1969 H 0.64927 0.30234 0.64644 0.0
H1970 H 0.69348 0.29876 0.671 0.0
H1971 H 0.71991 0.29674 0.71528 0.0
H1972 H 0.68503 0.32106 0.79245 0.0
H1973 H 0.64412 0.33213 0.7673 0.0
C1974 C 0.63303 0.32319 0.71226 0.0
C1975 C 0.62915 0.31578 0.6834 0.0
C1976 C 0.65796 0.32021 0.72658 0.0
C1977 C 0.65164 0.30808 0.66868 0.0
C1978 C 0.67687 0.3058 0.68274 0.0
C1979 C 0.70359 0.30492 0.72646 0.0
C1980 C 0.70535 0.30782 0.7556 0.0
C1981 C 0.67985 0.31075 0.7118 0.0
C1982 C 0.68403 0.31843 0.76998 0.0
C1983 C 0.66063 0.32477 0.75562 0.0
H1984 H 0.97175 0.37175 0.89163 0.0
H1985 H 0.02787 0.33227 0.94155 0.0
H1986 H 0.03363 0.37481 0.97653 0.0
H1987 H 0.02323 0.42336 0.9928 0.0
H1988 H 0.96451 0.46164 0.94504 0.0
H1989 H 0.95862 0.41908 0.90969 0.0
C1990 C 0.9852 0.37243 0.91015 0.0
C1991 C 0.99948 0.34886 0.91386 0.0
C1992 C 0.98768 0.39658 0.93072 0.0
C1993 C 0.01666 0.35007 0.93816 0.0
C1994 C 0.01993 0.37438 0.95821 0.0
C1995 C 0.00897 0.42229 0.97474 0.0
C1996 C 0.99441 0.44567 0.9715 0.0
C1997 C 1.00554 0.39771 0.95472 0.0
C1998 C 0.9758 0.44383 0.94814 0.0
C1999 C 0.97263 0.41961 0.92781 0.0
H2000 H 0.94195 0.79665 0.14923 0.0
H2001 H 0.98808 0.76492 0.2144 0.0
H2002 H 0.9492 0.76675 0.24494 0.0
H2003 H 0.90112 0.77602 0.2525 0.0
H2004 H 0.85698 0.81121 0.188 0.0
H2005 H 0.89598 0.80972 0.15804 0.0
C2006 C 0.94341 0.79016 0.17013 0.0
C2007 C 0.96759 0.7804 0.17952 0.0
C2008 C 0.92136 0.79202 0.18776 0.0
C2009 C 0.96956 0.77251 0.20677 0.0
C2010 C 0.94735 0.77352 0.22421 0.0
C2011 C 0.90027 0.78363 0.23201 0.0
C2012 C 0.87621 0.79355 0.22243 0.0
C2013 C 0.92304 0.7831 0.21489 0.0
C2014 C 0.87533 0.80351 0.19589 0.0
C2015 C 0.89757 0.80253 0.17863 0.0
H2016 H 0.49242 0.34145 0.04239 0.0
H2017 H 0.52756 0.3778 0.12417 0.0
H2018 H 0.5414 0.42663 0.10707 0.0
H2019 H 0.54063 0.45938 0.06947 0.0
H2020 H 0.50465 0.42199 0.98817 0.0
H2021 H 0.49441 0.37291 1.00461 0.0
C2022 C 0.50313 0.35995 0.05664 0.0
C2023 C 0.50856 0.35595 0.08471 0.0
C2024 C 0.51099 0.38774 0.0467 0.0
C2025 C 0.52293 0.38022 0.10255 0.0
C2026 C 0.53084 0.40814 0.09276 0.0
C2027 C 0.53096 0.44045 0.05518 0.0
C2028 C 0.52331 0.4445 0.02757 0.0
C2029 C 0.52464 0.41222 0.06493 0.0
C2030 C 0.51072 0.41964 0.00948 0.0
C2031 C 0.50472 0.39154 0.01891 0.0
H2032 H 0.97023 0.26885 0.33357 0.0
H2033 H 0.95192 0.31529 0.40972 0.0
H2034 H 0.90913 0.32615 0.38714 0.0
H2035 H 0.87766 0.32352 0.34489 0.0
H2036 H 0.89898 0.28064 0.26805 0.0
H2037 H 0.93962 0.26698 0.2916 0.0
C2038 C 0.95701 0.28169 0.34506 0.0
C2039 C 0.9646 0.29225 0.37288 0.0
C2040 C 0.93301 0.28843 0.33175 0.0
C2041 C 0.94668 0.30752 0.38806 0.0
C2042 C 0.92234 0.31381 0.37513 0.0
C2043 C 0.89162 0.31173 0.33331 0.0
C2044 C 0.88577 0.30355 0.30473 0.0
C2045 C 0.91554 0.30479 0.34683 0.0
C2046 C 0.90354 0.28777 0.28993 0.0
C2047 C 0.92658 0.2797 0.30343 0.0
H2048 H 0.99994 0.66982 0.62015 0.0
H2049 H 0.94977 0.70092 0.55765 0.0
H2050 H 0.94378 0.65286 0.5301 0.0
H2051 H 0.95837 0.60448 0.52085 0.0
H2052 H 0.01228 0.57595 0.58178 0.0
H2053 H 0.01078 0.61998 0.61297 0.0
C2054 C 0.98715 0.66585 0.60082 0.0
C2055 C 0.97553 0.68893 0.59084 0.0
C2056 C 0.98465 0.63857 0.58463 0.0
C2057 C 0.95912 0.68352 0.56568 0.0
C2058 C 0.95576 0.65608 0.54985 0.0
C2059 C 0.9693 0.6077 0.54118 0.0
C2060 C 0.98535 0.58699 0.54902 0.0
C2061 C 0.96931 0.63381 0.55864 0.0
C2062 C 0.99957 0.59145 0.57534 0.0
C2063 C 0.99892 0.61677 0.59314 0.0
H2064 H 0.60075 0.74981 0.8456 0.0
H2065 H 0.62926 0.84241 0.8735 0.0
H2066 H 0.67313 0.84218 0.85042 0.0
H2067 H 0.70153 0.81724 0.81998 0.0
H2068 H 0.6745 0.72481 0.79016 0.0
H2069 H 0.63175 0.7233 0.81631 0.0
C2070 C 0.617 0.76961 0.84716 0.0
C2071 C 0.61215 0.79603 0.8616 0.0
C2072 C 0.64201 0.76949 0.83308 0.0
C2073 C 0.63284 0.82181 0.86287 0.0
C2074 C 0.65777 0.82173 0.84948 0.0
C2075 C 0.68636 0.79662 0.81892 0.0
C2076 C 0.69107 0.77127 0.80257 0.0
C2077 C 0.66223 0.79595 0.83402 0.0
C2078 C 0.67131 0.74473 0.80227 0.0
C2079 C 0.64691 0.74388 0.81729 0.0
H2080 H 0.46671 0.57485 0.67612 0.0
H2081 H 0.39608 0.51295 0.63541 0.0
H2082 H 0.42148 0.50993 0.593 0.0
H2083 H 0.46498 0.52277 0.56787 0.0
H2084 H 0.53405 0.58778 0.60728 0.0
H2085 H 0.50833 0.59145 0.64941 0.0
C2086 C 0.45676 0.56092 0.65789 0.0
C2087 C 0.42947 0.54406 0.65919 0.0
C2088 C 0.4714 0.5596 0.63321 0.0
C2089 C 0.41696 0.52629 0.63517 0.0
C2090 C 0.43157 0.5244 0.61084 0.0
C2091 C 0.47427 0.53802 0.58553 0.0
C2092 C 0.50157 0.55488 0.58426 0.0
C2093 C 0.45897 0.54064 0.60966 0.0
C2094 C 0.51315 0.57448 0.60751 0.0
C2095 C 0.49843 0.57659 0.63173 0.0
H2096 H 0.77598 0.20425 0.96206 0.0
H2097 H 0.76994 0.12158 0.91041 0.0
H2098 H 0.7737 0.14841 0.86911 0.0
H2099 H 0.77624 0.19477 0.84774 0.0
H2100 H 0.77944 0.2771 0.89885 0.0
H2101 H 0.77952 0.25085 0.94065 0.0
C2102 C 0.77585 0.19208 0.94182 0.0
C2103 C 0.77273 0.16095 0.93931 0.0
C2104 C 0.77742 0.20753 0.91819 0.0
C2105 C 0.77227 0.14553 0.91289 0.0
C2106 C 0.77441 0.16083 0.88929 0.0
C2107 C 0.7772 0.20701 0.86806 0.0
C2108 C 0.77783 0.23772 0.87042 0.0
C2109 C 0.77661 0.19174 0.89172 0.0
C2110 C 0.77889 0.25339 0.89671 0.0
C2111 C 0.77892 0.2384 0.92051 0.0
H2112 H 0.04163 0.48892 0.19214 0.0
H2113 H 0.12211 0.50281 0.15526 0.0
H2114 H 0.09879 0.50173 0.10955 0.0
H2115 H 0.05625 0.50417 0.08146 0.0
H2116 H 0.97577 0.49186 0.11801 0.0
H2117 H 0.99828 0.48507 0.1625 0.0
C2118 C 0.05399 0.49091 0.17399 0.0
C2119 C 0.08356 0.49622 0.17712 0.0
C2120 C 0.04046 0.49112 0.14782 0.0
C2121 C 0.09932 0.49892 0.15343 0.0
C2122 C 0.08602 0.49847 0.12729 0.0
C2123 C 0.04359 0.49925 0.09896 0.0
C2124 C 0.01449 0.49858 0.09656 0.0
C2125 C 0.05671 0.49573 0.12444 0.0
C2126 C 0.99828 0.49254 0.11946 0.0
C2127 C 0.01114 0.48872 0.14489 0.0
H2128 H 0.80509 0.89676 0.42528 0.0
H2129 H 0.74781 0.82821 0.45997 0.0
H2130 H 0.74191 0.79813 0.41493 0.0
H2131 H 0.75257 0.79183 0.36497 0.0
H2132 H 0.81364 0.85894 0.33281 0.0
H2133 H 0.81874 0.88885 0.37757 0.0
C2134 C 0.79151 0.87512 0.42327 0.0
C2135 C 0.7769 0.86492 0.44624 0.0
C2136 C 0.78894 0.85762 0.3976 0.0
C2137 C 0.7594 0.83671 0.44283 0.0
C2138 C 0.75598 0.81951 0.417 0.0
C2139 C 0.76713 0.81291 0.36791 0.0
C2140 C 0.78272 0.82312 0.34551 0.0
C2141 C 0.77056 0.82978 0.39414 0.0
C2142 C 0.80161 0.8504 0.34969 0.0
C2143 C 0.80443 0.86761 0.37528 0.0
H2144 H 0.4437 0.51781 0.80218 0.0
H2145 H 0.37583 0.55075 0.84201 0.0
H2146 H 0.39736 0.54669 0.88746 0.0
H2147 H 0.43467 0.53257 0.91624 0.0
H2148 H 0.50261 0.49917 0.87727 0.0
H2149 H 0.4818 0.50423 0.8314 0.0
C2150 C 0.4339 0.52458 0.82082 0.0
C2151 C 0.40822 0.53481 0.81854 0.0
C2152 C 0.44619 0.52162 0.84714 0.0
C2153 C 0.39559 0.5429 0.84302 0.0
C2154 C 0.40783 0.54045 0.86909 0.0
C2155 C 0.44485 0.52622 0.8977 0.0
C2156 C 0.47007 0.5153 0.90019 0.0
C2157 C 0.43291 0.52949 0.87144 0.0
C2158 C 0.48308 0.50742 0.87594 0.0
C2159 C 0.47125 0.51048 0.8497 0.0
H2160 H 0.80436 0.23156 0.08364 0.0
H2161 H 0.77259 0.15067 0.12011 0.0
H2162 H 0.77175 0.17874 0.1649 0.0
H2163 H 0.77782 0.22579 0.19306 0.0
H2164 H 0.81163 0.30726 0.15882 0.0
H2165 H 0.81331 0.27941 0.11338 0.0
C2166 C 0.7977 0.22008 0.10151 0.0
C2167 C 0.78844 0.18907 0.09852 0.0
C2168 C 0.79703 0.23645 0.12732 0.0
C2169 C 0.77975 0.1745 0.12181 0.0
C2170 C 0.77908 0.19053 0.14741 0.0
C2171 C 0.7854 0.23762 0.17568 0.0
C2172 C 0.79423 0.26858 0.17911 0.0
C2173 C 0.78713 0.22148 0.15022 0.0
C2174 C 0.80445 0.28342 0.15649 0.0
C2175 C 0.80558 0.26749 0.13065 0.0
H2176 H 0.06585 0.50886 0.31897 0.0
H2177 H 0.13829 0.56687 0.36157 0.0
H2178 H 0.11262 0.5706 0.40328 0.0
H2179 H 0.07006 0.55784 0.42795 0.0
H2180 H 0.99864 0.49633 0.38837 0.0
H2181 H 0.02332 0.49375 0.34506 0.0
C2182 C 0.07601 0.52227 0.33738 0.0
C2183 C 0.10393 0.53781 0.33684 0.0
C2184 C 0.06124 0.52394 0.36176 0.0
C2185 C 0.11684 0.55478 0.36111 0.0
C2186 C 0.10215 0.55703 0.38507 0.0
C2187 C 0.05971 0.54414 0.40972 0.0
C2188 C 0.0324 0.52779 0.41101 0.0
C2189 C 0.07436 0.54191 0.38556 0.0
C2190 C 0.01955 0.50943 0.3876 0.0
C2191 C 0.03371 0.50787 0.36297 0.0
H2192 H 0.74798 0.81351 0.59061 0.0
H2193 H 0.78208 0.89992 0.63263 0.0
H2194 H 0.78083 0.87895 0.67727 0.0
H2195 H 0.77243 0.83512 0.70461 0.0
H2196 H 0.73866 0.74898 0.66182 0.0
H2197 H 0.73734 0.77063 0.61787 0.0
C2198 C 0.7549 0.82786 0.60953 0.0
C2199 C 0.76515 0.85834 0.608 0.0
C2200 C 0.7543 0.81558 0.63528 0.0
C2201 C 0.77405 0.87641 0.63294 0.0
C2202 C 0.77342 0.86439 0.65861 0.0
C2203 C 0.76442 0.82121 0.68573 0.0
C2204 C 0.7556 0.79036 0.68671 0.0
C2205 C 0.76391 0.83388 0.66009 0.0
C2206 C 0.74558 0.77272 0.66185 0.0
C2207 C 0.74486 0.7851 0.63656 0.0
H2208 H 0.70155 0.45557 0.53638 0.0
H2209 H 0.69655 0.4565 0.44747 0.0
H2210 H 0.66379 0.49098 0.45118 0.0
H2211 H 0.63675 0.52043 0.47944 0.0
H2212 H 0.64027 0.5195 0.56839 0.0
H2213 H 0.67465 0.48645 0.56516 0.0
C2214 C 0.69276 0.46294 0.5179 0.0
C2215 C 0.70082 0.45325 0.49167 0.0
C2216 C 0.67457 0.4834 0.52028 0.0
C2217 C 0.69016 0.4635 0.4678 0.0
C2218 C 0.67176 0.4834 0.46993 0.0
C2219 C 0.64542 0.51345 0.4982 0.0
C2220 C 0.63616 0.52235 0.52411 0.0
C2221 C 0.66407 0.49367 0.49605 0.0
C2222 C 0.6474 0.51309 0.54824 0.0
C2223 C 0.66668 0.49388 0.54635 0.0
H2224 H 0.16937 0.14675 0.47589 0.0
H2225 H 0.21894 0.09022 0.51295 0.0
H2226 H 0.17709 0.05198 0.51482 0.0
H2227 H 0.12602 0.03433 0.50597 0.0
H2228 H 0.07549 0.09227 0.47279 0.0
H2229 H 0.1177 0.12995 0.46902 0.0
C2230 C 0.17086 0.12597 0.4842 0.0
C2231 C 0.19725 0.1207 0.49317 0.0
C2232 C 0.14648 0.10426 0.48581 0.0
C2233 C 0.19892 0.09419 0.50485 0.0
C2234 C 0.17498 0.0724 0.50616 0.0
C2235 C 0.12442 0.05521 0.49788 0.0
C2236 C 0.09797 0.06062 0.48952 0.0
C2237 C 0.14866 0.07706 0.49652 0.0
C2238 C 0.09585 0.08778 0.47931 0.0
C2239 C 0.11992 0.1093 0.47717 0.0
H2240 H 0.23196 0.9622 0.80679 0.0
H2241 H 0.15125 0.92509 0.7647 0.0
H2242 H 0.16944 0.88083 0.74779 0.0
H2243 H 0.20833 0.85242 0.74545 0.0
H2244 H 0.28919 0.89142 0.78654 0.0
H2245 H 0.27089 0.93542 0.80268 0.0
C2246 C 0.21811 0.94449 0.794 0.0
C2247 C 0.19002 0.94714 0.78733 0.0
C2248 C 0.22891 0.91949 0.78379 0.0
C2249 C 0.17281 0.92378 0.77043 0.0
C2250 C 0.18329 0.89847 0.76063 0.0
C2251 C 0.22214 0.87068 0.75762 0.0
C2252 C 0.25031 0.86837 0.76461 0.0
C2253 C 0.21136 0.8961 0.76712 0.0
C2254 C 0.26761 0.89239 0.78054 0.0
C2255 C 0.25706 0.91757 0.79003 0.0
H2256 H 0.32757 0.94618 0.03714 0.0
H2257 H 0.3455 0.87847 0.97701 0.0
H2258 H 0.39484 0.90405 0.97773 0.0
H2259 H 0.43093 0.9488 0.99199 0.0
H2260 H 0.41298 0.0146 0.05434 0.0
H2261 H 0.36516 0.98664 0.05637 0.0
C2262 C 0.34247 0.93701 0.02441 0.0
C2263 C 0.33324 0.91149 1.00616 0.0
C2264 C 0.37043 0.95155 0.02526 0.0
C2265 C 0.35247 0.8987 0.99061 0.0
C2266 C 0.38048 0.91328 0.99103 0.0
C2267 C 0.41648 0.95677 1.00608 0.0
C2268 C 0.42487 0.98378 0.02259 0.0
C2269 C 0.38937 0.94028 1.00757 0.0
C2270 C 0.40659 0.99384 0.04136 0.0
C2271 C 0.3794 0.9779 0.04256 0.0
H2272 H 0.82275 0.58194 0.80176 0.0
H2273 H 0.90566 0.63264 0.79259 0.0
H2274 H 0.8847 0.67415 0.77911 0.0
H2275 H 0.84294 0.69614 0.7711 0.0
H2276 H 0.76005 0.64441 0.77747 0.0
H2277 H 0.78097 0.6026 0.79067 0.0
C2278 C 0.8363 0.60202 0.79678 0.0
C2279 C 0.86577 0.60434 0.7984 0.0
C2280 C 0.82411 0.62537 0.78848 0.0
C2281 C 0.88296 0.63038 0.79154 0.0
C2282 C 0.87099 0.65407 0.78386 0.0
C2283 C 0.82948 0.67561 0.77525 0.0
C2284 C 0.80008 0.67316 0.77354 0.0
C2285 C 0.84163 0.6518 0.78241 0.0
C2286 C 0.78274 0.64655 0.7786 0.0
C2287 C 0.7947 0.62282 0.78626 0.0
H2288 H 0.81856 0.58068 0.97304 0.0
H2289 H 0.85313 0.66583 0.01759 0.0
H2290 H 0.89616 0.64772 0.02991 0.0
H2291 H 0.92386 0.60713 0.02849 0.0
H2292 H 0.88758 0.52181 0.98532 0.0
H2293 H 0.84542 0.54059 0.97206 0.0
C2294 C 0.83548 0.59551 0.98532 0.0
C2295 C 0.83243 0.6248 0.99418 0.0
C2296 C 0.85992 0.58479 0.99273 0.0
C2297 C 0.85472 0.64329 0.01036 0.0
C2298 C 0.87938 0.63289 0.01746 0.0
C2299 C 0.90665 0.59266 0.01624 0.0
C2300 C 0.90884 0.56299 1.008 0.0
C2301 C 0.88218 0.6036 0.00888 0.0
C2302 C 0.8864 0.54459 0.99211 0.0
C2303 C 0.86229 0.55537 0.98444 0.0
H2304 H 0.1686 0.1267 0.82189 0.0
H2305 H 0.20923 0.0745 0.76363 0.0
H2306 H 0.24206 0.11874 0.75403 0.0
H2307 H 0.26045 0.17213 0.76312 0.0
H2308 H 0.22176 0.22505 0.82224 0.0
H2309 H 0.18722 0.18105 0.83088 0.0
C2310 C 0.18461 0.12524 0.80707 0.0
C2311 C 0.18694 0.09744 0.79388 0.0
C2312 C 0.20384 0.1509 0.80192 0.0
C2313 C 0.20747 0.09568 0.77443 0.0
C2314 C 0.2262 0.12095 0.76886 0.0
C2315 C 0.24433 0.1739 0.77779 0.0
C2316 C 0.24327 0.20153 0.79186 0.0
C2317 C 0.22483 0.14859 0.7827 0.0
C2318 C 0.22258 0.20385 0.81099 0.0
C2319 C 0.20292 0.17873 0.81593 0.0
H2320 H 0.3996 0.94257 0.335 0.0
H2321 H 0.37444 0.97005 0.25666 0.0
H2322 H 0.34458 0.9217 0.24413 0.0
H2323 H 0.32234 0.874 0.25713 0.0
H2324 H 0.34154 0.84794 0.338 0.0
H2325 H 0.37685 0.89343 0.34806 0.0
C2326 C 0.38777 0.93758 0.31515 0.0
C2327 C 0.38868 0.95948 0.29684 0.0
C2328 C 0.36948 0.91021 0.30867 0.0
C2329 C 0.37362 0.95324 0.27105 0.0
C2330 C 0.35653 0.92575 0.26393 0.0
C2331 C 0.33434 0.87802 0.27692 0.0
C2332 C 0.32946 0.85756 0.29669 0.0
C2333 C 0.3537 0.90444 0.28291 0.0
C2334 C 0.34492 0.86343 0.32238 0.0
C2335 C 0.36522 0.8893 0.32809 0.0
H2336 H 0.49479 0.34693 0.57821 0.0
H2337 H 0.57152 0.3833 0.62769 0.0
H2338 H 0.57616 0.42888 0.60452 0.0
H2339 H 0.55879 0.45803 0.56937 0.0
H2340 H 0.4814 0.42137 0.52115 0.0
H2341 H 0.477 0.37602 0.54436 0.0
C2342 C 0.5125 0.36483 0.58414 0.0
C2343 C 0.53278 0.36154 0.60471 0.0
C2344 C 0.51515 0.39079 0.57064 0.0
C2345 C 0.55546 0.38519 0.61209 0.0
C2346 C 0.55826 0.4112 0.59868 0.0
C2347 C 0.54115 0.43995 0.56376 0.0
C2348 C 0.52058 0.44292 0.54337 0.0
C2349 C 0.53838 0.41411 0.57769 0.0
C2350 C 0.49755 0.41958 0.5367 0.0
C2351 C 0.49496 0.39369 0.55003 0.0
H2352 H 0.42324 0.73222 0.31499 0.0
H2353 H 0.40009 0.77995 0.38828 0.0
H2354 H 0.35345 0.77943 0.3663 0.0
H2355 H 0.32152 0.77039 0.32419 0.0
H2356 H 0.34623 0.72586 0.24985 0.0
H2357 H 0.38948 0.7192 0.27434 0.0
C2358 C 0.40794 0.74255 0.32604 0.0
C2359 C 0.41539 0.75726 0.35268 0.0
C2360 C 0.38131 0.74238 0.31313 0.0
C2361 C 0.39501 0.76925 0.36741 0.0
C2362 C 0.36836 0.76892 0.35486 0.0
C2363 C 0.33605 0.75873 0.31353 0.0
C2364 C 0.33062 0.74854 0.28526 0.0
C2365 C 0.36156 0.7563 0.32742 0.0
C2366 C 0.34993 0.7338 0.27165 0.0
C2367 C 0.37471 0.7301 0.28561 0.0
H2368 H 0.06868 0.71541 0.0978 0.0
H2369 H 0.01671 0.68801 0.16433 0.0
H2370 H 0.01058 0.63601 0.14483 0.0
H2371 H 0.01642 0.59918 0.10609 0.0
H2372 H 0.06985 0.62661 0.0406 0.0
H2373 H 0.07928 0.67787 0.06236 0.0
C2374 C 0.05613 0.69792 0.10799 0.0
C2375 C 0.04218 0.70527 0.13171 0.0
C2376 C 0.05309 0.66824 0.09686 0.0
C2377 C 0.02697 0.68264 0.14559 0.0
C2378 C 0.02351 0.65302 0.13447 0.0
C2379 C 0.03052 0.61641 0.09701 0.0
C2380 C 0.04252 0.60953 0.07196 0.0
C2381 C 0.03587 0.64567 0.10971 0.0
C2382 C 0.06067 0.63168 0.06006 0.0
C2383 C 0.06597 0.66088 0.07244 0.0
H2384 H 0.06611 0.30235 0.80771 0.0
H2385 H 0.07998 0.24964 0.8745 0.0
H2386 H 0.12653 0.24604 0.85847 0.0
H2387 H 0.1632 0.25717 0.82503 0.0
H2388 H 0.14951 0.31031 0.75875 0.0
H2389 H 0.10293 0.31421 0.77493 0.0
C2390 C 0.0793 0.29021 0.81896 0.0
C2391 C 0.06934 0.27633 0.8424 0.0
C2392 C 0.10607 0.28808 0.80955 0.0
C2393 C 0.08693 0.26064 0.85649 0.0
C2394 C 0.1136 0.25847 0.84727 0.0
C2395 C 0.14995 0.26951 0.81408 0.0
C2396 C 0.1597 0.2833 0.79062 0.0
C2397 C 0.12331 0.27192 0.82372 0.0
C2398 C 0.14243 0.29941 0.77678 0.0
C2399 C 0.11583 0.30169 0.78608 0.0
H2400 H 0.49392 0.69354 0.92758 0.0
H2401 H 0.57787 0.73108 0.9612 0.0
H2402 H 0.57757 0.68936 0.98913 0.0
H2403 H 0.55363 0.64133 1.00338 0.0
H2404 H 0.46894 0.60493 0.97087 0.0
H2405 H 0.46898 0.64719 0.94397 0.0
C2406 C 0.51219 0.69232 0.9408 0.0
C2407 C 0.53604 0.71499 0.94198 0.0
C2408 C 0.51151 0.66875 0.95756 0.0
C2409 C 0.55936 0.71364 0.95976 0.0
C2410 C 0.55913 0.68991 0.97589 0.0
C2411 C 0.53495 0.64313 0.99104 0.0
C2412 C 0.51126 0.62013 0.98933 0.0
C2413 C 0.53526 0.66736 0.97511 0.0
C2414 C 0.48741 0.62245 0.97268 0.0
C2415 C 0.48749 0.64648 0.95704 0.0
H2416 H 0.06271 0.75201 0.6839 0.0
H2417 H 0.10154 0.795 0.61615 0.0
H2418 H 0.14824 0.79118 0.63547 0.0
H2419 H 0.17801 0.77694 0.67258 0.0
H2420 H 0.13888 0.73311 0.73994 0.0
H2421 H 0.09233 0.73577 0.71988 0.0
C2422 C 0.08149 0.76076 0.67358 0.0
C2423 C 0.07895 0.77473 0.64922 0.0
C2424 C 0.10812 0.75807 0.68463 0.0
C2425 C 0.10318 0.78481 0.63528 0.0
C2426 C 0.1298 0.78255 0.6463 0.0
C2427 C 0.15927 0.76768 0.68269 0.0
C2428 C 0.1619 0.75474 0.70768 0.0
C2429 C 0.13255 0.76941 0.67108 0.0
C2430 C 0.13743 0.74298 0.72061 0.0
C2431 C 0.1108 0.74458 0.70919 0.0
H2432 H 0.05365 0.39689 0.41278 0.0
H2433 H 0.06174 0.33458 0.47272 0.0
H2434 H 0.0606 0.37293 0.5105 0.0
H2435 H 0.05066 0.42226 0.52643 0.0
H2436 H 0.04134 0.48371 0.46655 0.0
H2437 H 0.04946 0.44782 0.4289 0.0
C2438 C 0.05572 0.39176 0.43408 0.0
C2439 C 0.05728 0.36265 0.43975 0.0
C2440 C 0.05424 0.41371 0.45578 0.0
C2441 C 0.06016 0.35665 0.46761 0.0
C2442 C 0.05939 0.37857 0.48931 0.0
C2443 C 0.05092 0.42785 0.50517 0.0
C2444 C 0.04445 0.45511 0.49894 0.0
C2445 C 0.05539 0.40686 0.48365 0.0
C2446 C 0.04505 0.46231 0.47146 0.0
C2447 C 0.05 0.44191 0.45003 0.0
H2448 H 0.4405 0.30587 0.18789 0.0
H2449 H 0.38479 0.2714 0.11585 0.0
H2450 H 0.34414 0.27319 0.14342 0.0
H2451 H 0.32416 0.28106 0.18849 0.0
H2452 H 0.37856 0.31686 0.26063 0.0
H2453 H 0.42002 0.31834 0.23255 0.0
C2454 C 0.41947 0.29895 0.17816 0.0
C2455 C 0.41587 0.28813 0.1498 0.0
C2456 C 0.39596 0.30023 0.19418 0.0
C2457 C 0.38838 0.27967 0.13756 0.0
C2458 C 0.36502 0.28062 0.15334 0.0
C2459 C 0.34514 0.28951 0.19793 0.0
C2460 C 0.34855 0.29869 0.22646 0.0
C2461 C 0.36857 0.29034 0.1817 0.0
C2462 C 0.37562 0.30981 0.23862 0.0
C2463 C 0.39922 0.31046 0.22259 0.0
H2464 H 0.60573 0.47477 0.36217 0.0
H2465 H 0.63065 0.56999 0.37164 0.0
H2466 H 0.60159 0.57334 0.41121 0.0
H2467 H 0.56853 0.54969 0.44334 0.0
H2468 H 0.53865 0.45519 0.43172 0.0
H2469 H 0.56961 0.45104 0.39314 0.0
C2470 C 0.60474 0.49619 0.37295 0.0
C2471 C 0.62147 0.52206 0.36457 0.0
C2472 C 0.58687 0.49809 0.39542 0.0
C2473 C 0.61935 0.54964 0.37844 0.0
C2474 C 0.60231 0.55163 0.40092 0.0
C2475 C 0.56884 0.52813 0.43245 0.0
C2476 C 0.55138 0.50273 0.44067 0.0
C2477 C 0.58611 0.52605 0.40977 0.0
C2478 C 0.55184 0.47509 0.42594 0.0
C2479 C 0.56959 0.47273 0.40382 0.0
H2480 H 0.23833 0.81347 0.06706 0.0
H2481 H 0.24656 0.90417 0.1026 0.0
H2482 H 0.25053 0.88859 0.14914 0.0
H2483 H 0.25667 0.85031 0.17901 0.0
H2484 H 0.25085 0.75974 0.14419 0.0
H2485 H 0.24103 0.77409 0.09779 0.0
C2486 C 0.24033 0.82963 0.08508 0.0
C2487 C 0.24228 0.85986 0.08164 0.0
C2488 C 0.24362 0.82065 0.11168 0.0
C2489 C 0.24516 0.88077 0.10495 0.0
C2490 C 0.24757 0.87193 0.13147 0.0
C2491 C 0.25322 0.8337 0.16125 0.0
C2492 C 0.25495 0.8042 0.16468 0.0
C2493 C 0.24777 0.84212 0.13496 0.0
C2494 C 0.24996 0.78271 0.14176 0.0
C2495 C 0.24426 0.79088 0.11536 0.0
H2496 H 0.98262 0.56556 0.86735 0.0
H2497 H 0.90864 0.56945 0.91369 0.0
H2498 H 0.93688 0.57408 0.95694 0.0
H2499 H 0.98034 0.56761 0.981 0.0
H2500 H 0.05414 0.56245 0.93584 0.0
H2501 H 0.0284 0.5681 0.8926 0.0
C2502 C 0.97274 0.56807 0.88689 0.0
C2503 C 0.94337 0.56635 0.88717 0.0
C2504 C 0.98901 0.57007 0.91185 0.0
C2505 C 0.93107 0.5701 0.91275 0.0
C2506 C 0.94718 0.57265 0.93758 0.0
C2507 C 0.99085 0.5685 0.96182 0.0
C2508 C 0.0187 0.56422 0.96138 0.0
C2509 C 0.9758 0.57119 0.93729 0.0
C2510 C 0.03257 0.56573 0.93655 0.0
C2511 C 0.01779 0.56868 0.91185 0.0
H2512 H 0.28404 0.24124 0.58403 0.0
H2513 H 0.25104 0.15021 0.59693 0.0
H2514 H 0.244 0.16513 0.64536 0.0
H2515 H 0.24789 0.20411 0.68476 0.0
H2516 H 0.2834 0.29448 0.67252 0.0
H2517 H 0.2883 0.28001 0.62334 0.0
C2518 C 0.27544 0.22463 0.59746 0.0
C2519 C 0.26821 0.1946 0.58672 0.0
C2520 C 0.27148 0.23337 0.62546 0.0
C2521 C 0.257 0.17346 0.60454 0.0
C2522 C 0.25279 0.18199 0.63228 0.0
C2523 C 0.25612 0.22062 0.67109 0.0
C2524 C 0.26463 0.25042 0.68196 0.0
C2525 C 0.25985 0.2119 0.64301 0.0
C2526 C 0.27621 0.27151 0.66438 0.0
C2527 C 0.27923 0.26319 0.63634 0.0
H2528 H 0.58169 0.53278 0.21681 0.0
H2529 H 0.66023 0.51836 0.18443 0.0
H2530 H 0.64383 0.52729 0.13804 0.0
H2531 H 0.60719 0.53993 0.10659 0.0
H2532 H 0.53 0.55766 0.13989 0.0
H2533 H 0.54589 0.54725 0.18583 0.0
C2534 C 0.59503 0.53118 0.19949 0.0
C2535 C 0.62196 0.52437 0.20398 0.0
C2536 C 0.58584 0.53746 0.17305 0.0
C2537 C 0.63931 0.52322 0.18148 0.0
C2538 C 0.62999 0.5285 0.15496 0.0
C2539 C 0.594 0.54181 0.12398 0.0
C2540 C 0.56746 0.54969 0.11977 0.0
C2541 C 0.60338 0.5359 0.15051 0.0
C2542 C 0.55059 0.55189 0.14254 0.0
C2543 C 0.55959 0.54571 0.16882 0.0
H2544 H 0.2734 0.88514 0.89958 0.0
H2545 H 0.21377 0.82359 0.93969 0.0
H2546 H 0.20996 0.78722 0.89876 0.0
H2547 H 0.22539 0.77282 0.85161 0.0
H2548 H 0.29325 0.83221 0.81897 0.0
H2549 H 0.29335 0.86877 0.85774 0.0
C2550 C 0.25989 0.86367 0.89979 0.0
C2551 C 0.2442 0.85702 0.92277 0.0
C2552 C 0.25978 0.84216 0.87765 0.0
C2553 C 0.22615 0.82924 0.92214 0.0
C2554 C 0.22418 0.80835 0.89891 0.0
C2555 C 0.24051 0.79351 0.85339 0.0
C2556 C 0.25877 0.80001 0.832 0.0
C2557 C 0.24135 0.81439 0.87666 0.0
C2558 C 0.27852 0.82676 0.83472 0.0
C2559 C 0.27856 0.8479 0.85688 0.0
H2560 H 0.98844 0.54127 0.73895 0.0
H2561 H 0.90388 0.54179 0.70762 0.0
H2562 H 0.9181 0.5355 0.66006 0.0
H2563 H 0.95364 0.52742 0.62759 0.0
H2564 H 0.03781 0.52374 0.65773 0.0
H2565 H 0.02472 0.53342 0.70569 0.0
C2566 C 0.97334 0.54046 0.72163 0.0
C2567 C 0.94522 0.54218 0.72663 0.0
C2568 C 0.98148 0.53583 0.69428 0.0
C2569 C 0.92563 0.54055 0.70417 0.0
C2570 C 0.93372 0.53685 0.67702 0.0
C2571 C 0.96917 0.52873 0.64465 0.0
C2572 C 0.99658 0.52476 0.63927 0.0
C2573 C 0.96142 0.53398 0.67187 0.0
C2574 C 0.0165 0.52654 0.66149 0.0
C2575 C 0.00904 0.53218 0.68883 0.0
H2576 H 0.27254 0.17506 0.39167 0.0
H2577 H 0.284 0.24657 0.45742 0.0
H2578 H 0.28743 0.28271 0.42304 0.0
H2579 H 0.28594 0.29418 0.37377 0.0
H2580 H 0.27271 0.22192 0.30885 0.0
H2581 H 0.2714 0.18625 0.3432 0.0
C2582 C 0.27602 0.19854 0.39865 0.0
C2583 C 0.2781 0.20784 0.42737 0.0
C2584 C 0.27764 0.21926 0.37872 0.0
C2585 C 0.28235 0.23853 0.43562 0.0
C2586 C 0.28428 0.2593 0.41589 0.0
C2587 C 0.28295 0.27063 0.36719 0.0
C2588 C 0.2798 0.26085 0.33859 0.0
C2589 C 0.28177 0.24997 0.38732 0.0
C2590 C 0.27565 0.2302 0.33054 0.0
C2591 C 0.27473 0.2097 0.35027 0.0
H2592 H 0.31925 0.55256 0.48699 0.0
H2593 H 0.35432 0.62315 0.55053 0.0
H2594 H 0.39839 0.60477 0.55201 0.0
H2595 H 0.42694 0.56978 0.53484 0.0
H2596 H 0.39362 0.50021 0.4701 0.0
H2597 H 0.3482 0.51691 0.46984 0.0
C2598 C 0.33649 0.56392 0.50123 0.0
C2599 C 0.33352 0.58926 0.5186 0.0
C2600 C 0.36182 0.55338 0.50184 0.0
C2601 C 0.35611 0.60376 0.53682 0.0
C2602 C 0.38125 0.59321 0.53776 0.0
C2603 C 0.40972 0.55812 0.52069 0.0
C2604 C 0.41343 0.53389 0.50243 0.0
C2605 C 0.3843 0.56818 0.52031 0.0
C2606 C 0.39105 0.51893 0.48431 0.0
C2607 C 0.36525 0.52854 0.48412 0.0
H2608 H 0.87378 0.90546 0.51133 0.0
H2609 H 0.84017 0.96401 0.56971 0.0
H2610 H 0.88549 0.99831 0.57509 0.0
H2611 H 0.93356 0.01373 0.56004 0.0
H2612 H 0.96585 0.95681 0.49879 0.0
H2613 H 0.92236 0.92026 0.49724 0.0
C2614 C 0.87666 0.92555 0.52546 0.0
C2615 C 0.85378 0.93267 0.53969 0.0
C2616 C 0.90246 0.94572 0.52759 0.0
C2617 C 0.85756 0.95851 0.55819 0.0
C2618 C 0.88341 0.97811 0.56124 0.0
C2619 C 0.93102 0.99333 0.54637 0.0
C2620 C 0.95287 0.98807 0.52953 0.0
C2621 C 0.90577 0.97241 0.54539 0.0
C2622 C 0.94933 0.96148 0.51195 0.0
C2623 C 0.92451 0.94041 0.51116 0.0
H2624 H 0.80574 0.09186 0.25446 0.0
H2625 H 0.8927 0.13363 0.25047 0.0
H2626 H 0.87878 0.18239 0.25195 0.0
H2627 H 0.84177 0.21323 0.25508 0.0
H2628 H 0.75477 0.17045 0.25661 0.0
H2629 H 0.76893 0.12205 0.25548 0.0
C2630 C 0.8218 0.11156 0.25389 0.0
C2631 C 0.8504 0.10888 0.25257 0.0
C2632 C 0.81358 0.13943 0.25444 0.0
C2633 C 0.87062 0.13484 0.25146 0.0
C2634 C 0.86263 0.16278 0.25242 0.0
C2635 C 0.82587 0.19334 0.25533 0.0
C2636 C 0.79714 0.19567 0.25628 0.0
C2637 C 0.83417 0.16537 0.25409 0.0
C2638 C 0.77694 0.16949 0.25602 0.0
C2639 C 0.78506 0.14175 0.25536 0.0
H2640 H 0.67591 0.14495 0.99244 0.0
H2641 H 0.70332 0.09588 0.05655 0.0
H2642 H 0.65463 0.07332 0.06324 0.0
H2643 H 0.60495 0.06491 0.04849 0.0
H2644 H 0.57742 0.10829 0.98011 0.0
H2645 H 0.6255 0.13575 0.97703 0.0
C2646 C 0.67092 0.12945 1.0079 0.0
C2647 C 0.6926 0.12145 0.0237 0.0
C2648 C 0.64307 0.11562 0.01071 0.0
C2649 C 0.68654 0.10171 0.04395 0.0
C2650 C 0.65887 0.08892 0.04778 0.0
C2651 C 0.60953 0.08064 0.03314 0.0
C2652 C 0.58809 0.08498 0.01471 0.0
C2653 C 0.63708 0.09526 0.03089 0.0
C2654 C 0.59397 0.1048 0.99445 0.0
C2655 C 0.62128 0.12053 0.99281 0.0
H2656 H 0.21352 0.4884 0.28864 0.0
H2657 H 0.14031 0.43646 0.24189 0.0
H2658 H 0.1637 0.39364 0.23789 0.0
H2659 H 0.20477 0.37127 0.24757 0.0
H2660 H 0.27753 0.42293 0.29481 0.0
H2661 H 0.25442 0.46614 0.29831 0.0
C2662 C 0.20247 0.46773 0.27764 0.0
C2663 C 0.17506 0.46569 0.26563 0.0
C2664 C 0.21606 0.4434 0.27526 0.0
C2665 C 0.1613 0.43867 0.25144 0.0
C2666 C 0.17471 0.41423 0.24903 0.0
C2667 C 0.21567 0.39207 0.25848 0.0
C2668 C 0.24283 0.39412 0.27086 0.0
C2669 C 0.2021 0.41644 0.26076 0.0
C2670 C 0.25667 0.42101 0.28505 0.0
C2671 C 0.24341 0.44557 0.28714 0.0
H2672 H 0.22312 0.47962 0.01769 0.0
H2673 H 0.18618 0.39447 0.04341 0.0
H2674 H 0.14091 0.41101 0.04782 0.0
H2675 H 0.11151 0.44985 0.04302 0.0
H2676 H 0.15061 0.5348 0.01829 0.0
H2677 H 0.19536 0.51812 0.01502 0.0
C2678 C 0.20525 0.46446 0.02422 0.0
C2679 C 0.20812 0.43562 0.02989 0.0
C2680 C 0.1796 0.47419 0.02696 0.0
C2681 C 0.18465 0.41671 0.03878 0.0
C2682 C 0.15874 0.42619 0.04129 0.0
C2683 C 0.12992 0.46469 0.03709 0.0
C2684 C 0.12767 0.49354 0.03079 0.0
C2685 C 0.1559 0.4549 0.03527 0.0
C2686 C 0.15169 0.51253 0.02321 0.0
C2687 C 0.17733 0.50299 0.02127 0.0
H2688 H 0.82441 0.95524 0.21035 0.0
H2689 H 0.88986 0.94277 0.26842 0.0
H2690 H 0.86479 0.89238 0.27335 0.0
H2691 H 0.8216 0.85435 0.26529 0.0
H2692 H 0.7561 0.86645 0.20691 0.0
H2693 H 0.78388 0.91424 0.19763 0.0
C2694 C 0.83315 0.94131 0.22393 0.0
C2695 C 0.85824 0.95291 0.23992 0.0
C2696 C 0.81861 0.91235 0.22658 0.0
C2697 C 0.87014 0.93442 0.2565 0.0
C2698 C 0.85582 0.90566 0.25932 0.0
C2699 C 0.81354 0.86729 0.2503 0.0
C2700 C 0.78661 0.85712 0.23716 0.0
C2701 C 0.82957 0.89479 0.24519 0.0
C2702 C 0.77663 0.87395 0.21752 0.0
C2703 C 0.79254 0.90125 0.21216 0.0
H2704 H 0.673 0.09416 0.72494 0.0
H2705 H 0.61528 0.12614 0.78018 0.0
H2706 H 0.64201 0.17701 0.78078 0.0
H2707 H 0.68613 0.21018 0.77124 0.0
H2708 H 0.74225 0.17828 0.71398 0.0
H2709 H 0.71175 0.12919 0.70824 0.0
C2710 C 0.66609 0.11246 0.73667 0.0
C2711 C 0.64313 0.10678 0.75338 0.0
C2712 C 0.68136 0.14132 0.73668 0.0
C2713 C 0.63341 0.13034 0.76771 0.0
C2714 C 0.64869 0.15925 0.76808 0.0
C2715 C 0.69127 0.19252 0.75717 0.0
C2716 C 0.71647 0.19721 0.7435 0.0
C2717 C 0.67341 0.16469 0.75364 0.0
C2718 C 0.72293 0.17474 0.72481 0.0
C2719 C 0.70556 0.14681 0.72155 0.0
loop_
_geom_bond_atom_site_label_1
_geom_bond_atom_site_label_2
_geom_bond_distance
_geom_bond_site_symmetry_2
_ccdc_geom_bond_type
Mn0 O5 2.095 . S
Mn0 O15 2.162 . S
Mn0 O16 2.297 . S
Mn0 O24 2.385 1_455 S
Mn0 O25 2.212 . S
Mn0 O26 2.094 . S
Mn1 O6 2.121 . S
Mn1 N8 2.257 . S
Mn1 N17 2.282 1_455 S
Mn1 O25 2.218 . S
Mn1 O27 2.117 . S
C2 O24 1.234 . S
C2 O25 1.275 1_655 S
C3 O15 1.281 . S
C3 O16 1.236 . S
C4 O26 1.240 . S
C4 O27 1.264 . S
O5 Mn0 2.095 . S
O5 C14 1.250 . S
O6 Mn1 2.121 . S
O6 C14 1.258 . S
C7 N8 1.326 . S
C7 C11 1.460 . S
C7 H13 0.929 . S
N8 Mn1 2.257 . S
N8 C7 1.326 . S
N8 C12 1.362 1_455 S
C9 C10 1.258 . S
C9 C12 1.431 . S
C9 C29 1.449 . S
C10 C9 1.258 . S
C10 C11 1.477 1_655 S
C10 H30 0.931 . S
C11 C7 1.460 . S
C11 C10 1.477 1_455 S
C11 H31 0.930 . S
C12 N8 1.362 1_655 S
C12 C9 1.431 . S
C12 C22 1.476 . S
H13 C7 0.929 . S
C14 O5 1.250 . S
C14 O6 1.258 . S
O15 Mn0 2.162 . S
O15 C3 1.281 . S
O16 Mn0 2.297 . S
O16 C3 1.236 . S
N17 Mn1 2.282 1_655 S
N17 C18 1.328 . S
N17 C22 1.318 . S
C18 N17 1.328 . S
C18 C19 1.457 . S
C18 H23 0.929 . S
C19 C18 1.457 . S
C19 C20 1.291 . S
C19 H32 0.931 . S
C20 C19 1.291 . S
C20 C21 1.373 . S
C20 H33 0.929 . S
C21 C20 1.373 . S
C21 C22 1.396 . S
C21 C28 1.403 . S
C22 C12 1.476 . S
C22 N17 1.318 . S
C22 C21 1.396 . S
H23 C18 0.929 . S
O24 Mn0 2.385 1_655 S
O24 C2 1.234 . S
O25 Mn0 2.212 . S
O25 Mn1 2.218 . S
O25 C2 1.275 1_455 S
O26 Mn0 2.094 . S
O26 C4 1.240 . S
O27 Mn1 2.117 . S
O27 C4 1.264 . S
C28 C21 1.403 . S
C28 C29 1.399 . S
C28 H34 0.929 . S
C29 C9 1.449 . S
C29 C28 1.399 . S
C29 H35 0.930 . S
H30 C10 0.931 . S
H31 C11 0.930 . S
H32 C19 0.931 . S
H33 C20 0.929 . S
H34 C28 0.929 . S
H35 C29 0.930 . S
Mn36 O41 2.095 1_455 S
Mn36 O51 2.162 . S
Mn36 O52 2.297 . S
Mn36 O60 2.385 . S
Mn36 O61 2.209 . S
Mn36 O62 2.094 . S
Mn37 O42 2.121 1_455 S
Mn37 N44 2.257 . S
Mn37 N53 2.282 . S
Mn37 O61 2.215 . S
Mn37 O63 2.117 . S
C38 O60 1.234 . S
C38 O61 1.283 . S
C39 O51 1.278 . S
C39 O52 1.236 . S
C40 O62 1.240 . S
C40 O63 1.264 . S
O41 Mn36 2.095 1_655 S
O41 C50 1.250 . S
O42 Mn37 2.121 1_655 S
O42 C50 1.258 . S
C43 N44 1.326 . S
C43 C47 1.460 . S
C43 H49 0.929 1_455 S
N44 Mn37 2.257 . S
N44 C43 1.326 . S
N44 C48 1.362 . S
C45 C46 1.258 . S
C45 C48 1.431 . S
C45 C65 1.449 . S
C46 C45 1.258 . S
C46 C47 1.477 . S
C46 H66 0.931 . S
C47 C43 1.460 . S
C47 C46 1.477 . S
C47 H67 0.930 . S
C48 N44 1.362 . S
C48 C45 1.431 . S
C48 C58 1.476 . S
H49 C43 0.929 1_655 S
C50 O41 1.250 . S
C50 O42 1.258 . S
O51 Mn36 2.162 . S
O51 C39 1.278 . S
O52 Mn36 2.297 . S
O52 C39 1.236 . S
N53 Mn37 2.282 . S
N53 C54 1.328 . S
N53 C58 1.318 . S
C54 N53 1.328 . S
C54 C55 1.457 . S
C54 H59 0.929 . S
C55 C54 1.457 . S
C55 C56 1.291 . S
C55 H68 0.931 . S
C56 C55 1.291 . S
C56 C57 1.373 . S
C56 H69 0.929 . S
C57 C56 1.373 . S
C57 C58 1.396 . S
C57 C64 1.403 . S
C58 C48 1.476 . S
C58 N53 1.318 . S
C58 C57 1.396 . S
H59 C54 0.929 . S
O60 Mn36 2.385 . S
O60 C38 1.234 . S
O61 Mn36 2.209 . S
O61 Mn37 2.215 . S
O61 C38 1.283 . S
O62 Mn36 2.094 . S
O62 C40 1.240 . S
O63 Mn37 2.117 . S
O63 C40 1.264 . S
C64 C57 1.403 . S
C64 C65 1.399 . S
C64 H70 0.929 . S
C65 C45 1.449 . S
C65 C64 1.399 . S
C65 H71 0.930 . S
H66 C46 0.931 . S
H67 C47 0.930 . S
H68 C55 0.931 . S
H69 C56 0.929 . S
H70 C64 0.929 . S
H71 C65 0.930 . S
Mn72 O77 2.095 . S
Mn72 O87 2.162 . S
Mn72 O88 2.297 . S
Mn72 O96 2.385 . S
Mn72 O97 2.209 . S
Mn72 O98 2.094 . S
Mn73 O78 2.121 . S
Mn73 N80 2.257 . S
Mn73 N89 2.282 . S
Mn73 O97 2.215 . S
Mn73 O99 2.117 . S
C74 O96 1.234 . S
C74 O97 1.283 . S
C75 O87 1.281 . S
C75 O88 1.236 . S
C76 O98 1.240 . S
C76 O99 1.264 . S
O77 Mn72 2.095 . S
O77 C86 1.250 . S
O78 Mn73 2.121 . S
O78 C86 1.258 . S
C79 N80 1.326 . S
C79 C83 1.460 . S
C79 H85 0.929 . S
N80 Mn73 2.257 . S
N80 C79 1.326 . S
N80 C84 1.362 . S
C81 C82 1.258 . S
C81 C84 1.431 . S
C81 C101 1.449 . S
C82 C81 1.258 . S
C82 C83 1.477 . S
C82 H102 0.931 . S
C83 C79 1.460 . S
C83 C82 1.477 . S
C83 H103 0.930 . S
C84 N80 1.362 . S
C84 C81 1.431 . S
C84 C94 1.476 . S
H85 C79 0.929 . S
C86 O77 1.250 . S
C86 O78 1.258 . S
O87 Mn72 2.162 . S
O87 C75 1.281 . S
O88 Mn72 2.297 . S
O88 C75 1.236 . S
N89 Mn73 2.282 . S
N89 C90 1.328 . S
N89 C94 1.318 . S
C90 N89 1.328 . S
C90 C91 1.457 . S
C90 H95 0.929 . S
C91 C90 1.457 . S
C91 C92 1.291 . S
C91 H104 0.931 . S
C92 C91 1.291 . S
C92 C93 1.373 . S
C92 H105 0.929 . S
C93 C92 1.373 . S
C93 C94 1.396 . S
C93 C100 1.403 . S
C94 C84 1.476 . S
C94 N89 1.318 . S
C94 C93 1.396 . S
H95 C90 0.929 . S
O96 Mn72 2.385 . S
O96 C74 1.234 . S
O97 Mn72 2.209 . S
O97 Mn73 2.215 . S
O97 C74 1.283 . S
O98 Mn72 2.094 . S
O98 C76 1.240 . S
O99 Mn73 2.117 . S
O99 C76 1.264 . S
C100 C93 1.403 . S
C100 C101 1.399 . S
C100 H106 0.929 . S
C101 C81 1.449 . S
C101 C100 1.399 . S
C101 H107 0.930 . S
H102 C82 0.931 . S
H103 C83 0.930 . S
H104 C91 0.931 . S
H105 C92 0.929 . S
H106 C100 0.929 . S
H107 C101 0.930 . S
Mn108 O113 2.095 . S
Mn108 O123 2.162 . S
Mn108 O124 2.297 . S
Mn108 O132 2.385 . S
Mn108 O133 2.209 . S
Mn108 O134 2.094 . S
Mn109 O114 2.121 . S
Mn109 N116 2.257 . S
Mn109 N125 2.282 . S
Mn109 O133 2.215 . S
Mn109 O135 2.117 . S
C110 O132 1.234 . S
C110 O133 1.283 . S
C111 O123 1.281 . S
C111 O124 1.236 . S
C112 O134 1.240 . S
C112 O135 1.264 . S
O113 Mn108 2.095 . S
O113 C122 1.250 . S
O114 Mn109 2.121 . S
O114 C122 1.258 . S
C115 N116 1.326 . S
C115 C119 1.462 1_554 S
C115 H121 0.929 . S
N116 Mn109 2.257 . S
N116 C115 1.326 . S
N116 C120 1.362 . S
C117 C118 1.258 1_554 S
C117 C120 1.431 . S
C117 C137 1.449 . S
C118 C117 1.258 1_556 S
C118 C119 1.477 . S
C118 H138 0.931 . S
C119 C115 1.462 1_556 S
C119 C118 1.477 . S
C119 H139 0.928 . S
C120 N116 1.362 . S
C120 C117 1.431 . S
C120 C130 1.476 . S
H121 C115 0.929 . S
C122 O113 1.250 . S
C122 O114 1.258 . S
O123 Mn108 2.162 . S
O123 C111 1.281 . S
O124 Mn108 2.297 . S
O124 C111 1.236 . S
N125 Mn109 2.282 . S
N125 C126 1.328 . S
N125 C130 1.318 . S
C126 N125 1.328 . S
C126 C127 1.457 . S
C126 H131 0.929 . S
C127 C126 1.457 . S
C127 C128 1.291 . S
C127 H140 0.931 . S
C128 C127 1.291 . S
C128 C129 1.373 . S
C128 H141 0.929 . S
C129 C128 1.373 . S
C129 C130 1.396 . S
C129 C136 1.403 . S
C130 C120 1.476 . S
C130 N125 1.318 . S
C130 C129 1.396 . S
H131 C126 0.929 . S
O132 Mn108 2.385 . S
O132 C110 1.234 . S
O133 Mn108 2.209 . S
O133 Mn109 2.215 . S
O133 C110 1.283 . S
O134 Mn108 2.094 . S
O134 C112 1.240 . S
O135 Mn109 2.117 . S
O135 C112 1.264 . S
C136 C129 1.403 . S
C136 C137 1.399 . S
C136 H142 0.929 . S
C137 C117 1.449 . S
C137 C136 1.399 . S
C137 H143 0.930 1_554 S
H138 C118 0.931 . S
H139 C119 0.928 . S
H140 C127 0.931 . S
H141 C128 0.929 . S
H142 C136 0.929 . S
H143 C137 0.930 1_556 S
Mn144 O149 2.095 . S
Mn144 O159 2.162 . S
Mn144 O160 2.297 . S
Mn144 O168 2.385 . S
Mn144 O169 2.209 . S
Mn144 O170 2.094 1_455 S
Mn145 O150 2.121 1_655 S
Mn145 N152 2.257 . S
Mn145 N161 2.282 . S
Mn145 O169 2.215 1_655 S
Mn145 O171 2.117 . S
C146 O168 1.234 . S
C146 O169 1.283 . S
C147 O159 1.281 . S
C147 O160 1.236 . S
C148 O170 1.240 . S
C148 O171 1.264 . S
O149 Mn144 2.095 . S
O149 C158 1.250 . S
O150 Mn145 2.121 1_455 S
O150 C158 1.258 . S
C151 N152 1.320 1_455 S
C151 C155 1.465 1_454 S
C151 H157 0.935 . S
N152 Mn145 2.257 . S
N152 C151 1.320 1_655 S
N152 C156 1.362 . S
C153 C154 1.258 . S
C153 C156 1.431 1_556 S
C153 C173 1.449 . S
C154 C153 1.258 . S
C154 C155 1.491 . S
C154 H174 0.931 . S
C155 C151 1.465 1_656 S
C155 C154 1.491 . S
C155 H175 0.916 1_655 S
C156 N152 1.362 . S
C156 C153 1.431 1_554 S
C156 C166 1.476 . S
H157 C151 0.935 . S
C158 O149 1.250 . S
C158 O150 1.258 . S
O159 Mn144 2.162 . S
O159 C147 1.281 . S
O160 Mn144 2.297 . S
O160 C147 1.236 . S
N161 Mn145 2.282 . S
N161 C162 1.328 . S
N161 C166 1.318 . S
C162 N161 1.328 . S
C162 C163 1.457 . S
C162 H167 0.929 . S
C163 C162 1.457 . S
C163 C164 1.291 . S
C163 H176 0.931 . S
C164 C163 1.291 . S
C164 C165 1.373 . S
C164 H177 0.929 . S
C165 C164 1.373 . S
C165 C166 1.396 . S
C165 C172 1.403 . S
C166 C156 1.476 . S
C166 N161 1.318 . S
C166 C165 1.396 . S
H167 C162 0.929 . S
O168 Mn144 2.385 . S
O168 C146 1.234 . S
O169 Mn144 2.209 . S
O169 Mn145 2.215 1_455 S
O169 C146 1.283 . S
O170 Mn144 2.094 1_655 S
O170 C148 1.240 . S
O171 Mn145 2.117 . S
O171 C148 1.264 . S
C172 C165 1.403 . S
C172 C173 1.399 1_554 S
C172 H178 0.937 . S
C173 C153 1.449 . S
C173 C172 1.399 1_556 S
C173 H179 0.930 . S
H174 C154 0.931 . S
H175 C155 0.916 1_455 S
H176 C163 0.931 . S
H177 C164 0.929 . S
H178 C172 0.937 . S
H179 C173 0.930 . S
Mn180 O185 2.095 . S
Mn180 O195 2.162 . S
Mn180 O196 2.297 . S
Mn180 O204 2.385 . S
Mn180 O205 2.209 . S
Mn180 O206 2.094 . S
Mn181 O186 2.121 . S
Mn181 N188 2.257 . S
Mn181 N197 2.282 . S
Mn181 O205 2.215 . S
Mn181 O207 2.117 . S
C182 O204 1.234 . S
C182 O205 1.283 . S
C183 O195 1.281 . S
C183 O196 1.236 . S
C184 O206 1.240 . S
C184 O207 1.264 . S
O185 Mn180 2.095 . S
O185 C194 1.250 . S
O186 Mn181 2.121 . S
O186 C194 1.258 . S
C187 N188 1.326 . S
C187 C191 1.460 . S
C187 H193 0.929 . S
N188 Mn181 2.257 . S
N188 C187 1.326 . S
N188 C192 1.362 . S
C189 C190 1.258 . S
C189 C192 1.431 . S
C189 C209 1.449 . S
C190 C189 1.258 . S
C190 C191 1.477 . S
C190 H210 0.931 . S
C191 C187 1.460 . S
C191 C190 1.477 . S
C191 H211 0.930 . S
C192 N188 1.362 . S
C192 C189 1.431 . S
C192 C202 1.476 . S
H193 C187 0.929 . S
C194 O185 1.250 . S
C194 O186 1.258 . S
O195 Mn180 2.162 . S
O195 C183 1.281 . S
O196 Mn180 2.297 . S
O196 C183 1.236 . S
N197 Mn181 2.282 . S
N197 C198 1.328 . S
N197 C202 1.318 . S
C198 N197 1.328 . S
C198 C199 1.457 . S
C198 H203 0.929 . S
C199 C198 1.457 . S
C199 C200 1.291 . S
C199 H212 0.931 . S
C200 C199 1.291 . S
C200 C201 1.373 . S
C200 H213 0.929 . S
C201 C200 1.373 . S
C201 C202 1.396 . S
C201 C208 1.403 . S
C202 C192 1.476 . S
C202 N197 1.318 . S
C202 C201 1.396 . S
H203 C198 0.929 . S
O204 Mn180 2.385 . S
O204 C182 1.234 . S
O205 Mn180 2.209 . S
O205 Mn181 2.215 . S
O205 C182 1.283 . S
O206 Mn180 2.094 . S
O206 C184 1.240 . S
O207 Mn181 2.117 . S
O207 C184 1.264 . S
C208 C201 1.403 . S
C208 C209 1.399 . S
C208 H214 0.929 . S
C209 C189 1.449 . S
C209 C208 1.399 . S
C209 H215 0.930 . S
H210 C190 0.931 . S
H211 C191 0.930 . S
H212 C199 0.931 . S
H213 C200 0.929 . S
H214 C208 0.929 . S
H215 C209 0.930 . S
Mn216 O221 2.095 . S
Mn216 O231 2.162 . S
Mn216 O232 2.297 . S
Mn216 O240 2.385 . S
Mn216 O241 2.209 . S
Mn216 O242 2.094 . S
Mn217 O222 2.121 . S
Mn217 N224 2.257 . S
Mn217 N233 2.282 . S
Mn217 O241 2.215 . S
Mn217 O243 2.117 . S
C218 O240 1.234 . S
C218 O241 1.283 . S
C219 O231 1.281 . S
C219 O232 1.236 . S
C220 O242 1.240 . S
C220 O243 1.264 . S
O221 Mn216 2.095 . S
O221 C230 1.250 . S
O222 Mn217 2.121 . S
O222 C230 1.258 . S
C223 N224 1.326 . S
C223 C227 1.460 . S
C223 H229 0.929 . S
N224 Mn217 2.257 . S
N224 C223 1.326 . S
N224 C228 1.362 . S
C225 C226 1.258 . S
C225 C228 1.431 . S
C225 C245 1.449 . S
C226 C225 1.258 . S
C226 C227 1.477 . S
C226 H246 0.931 . S
C227 C223 1.460 . S
C227 C226 1.477 . S
C227 H247 0.930 . S
C228 N224 1.362 . S
C228 C225 1.431 . S
C228 C238 1.476 . S
H229 C223 0.929 . S
C230 O221 1.250 . S
C230 O222 1.258 . S
O231 Mn216 2.162 . S
O231 C219 1.281 . S
O232 Mn216 2.297 . S
O232 C219 1.236 . S
N233 Mn217 2.282 . S
N233 C234 1.328 . S
N233 C238 1.318 . S
C234 N233 1.328 . S
C234 C235 1.457 . S
C234 H239 0.929 . S
C235 C234 1.457 . S
C235 C236 1.291 . S
C235 H248 0.931 . S
C236 C235 1.291 . S
C236 C237 1.373 . S
C236 H249 0.929 . S
C237 C236 1.373 . S
C237 C238 1.396 . S
C237 C244 1.403 . S
C238 C228 1.476 . S
C238 N233 1.318 . S
C238 C237 1.396 . S
H239 C234 0.929 . S
O240 Mn216 2.385 . S
O240 C218 1.234 . S
O241 Mn216 2.209 . S
O241 Mn217 2.215 . S
O241 C218 1.283 . S
O242 Mn216 2.094 . S
O242 C220 1.240 . S
O243 Mn217 2.117 . S
O243 C220 1.264 . S
C244 C237 1.403 . S
C244 C245 1.399 . S
C244 H250 0.929 . S
C245 C225 1.449 . S
C245 C244 1.399 . S
C245 H251 0.930 . S
H246 C226 0.931 . S
H247 C227 0.930 . S
H248 C235 0.931 . S
H249 C236 0.929 . S
H250 C244 0.929 . S
H251 C245 0.930 . S
Mn252 O257 2.095 1_655 S
Mn252 O267 2.163 . S
Mn252 O268 2.297 . S
Mn252 O276 2.385 . S
Mn252 O277 2.209 . S
Mn252 O278 2.094 1_655 S
Mn253 O258 2.133 . S
Mn253 N260 2.254 1_455 S
Mn253 N269 2.270 1_455 S
Mn253 O277 2.210 1_455 S
Mn253 O279 2.117 . S
C254 O276 1.234 . S
C254 O277 1.283 . S
C255 O267 1.281 . S
C255 O268 1.236 . S
C256 O278 1.240 . S
C256 O279 1.264 . S
O257 Mn252 2.095 1_455 S
O257 C266 1.250 . S
O258 Mn253 2.133 . S
O258 C266 1.258 . S
C259 N260 1.307 1_455 S
C259 C263 1.452 1_455 S
C259 H265 0.957 . S
N260 Mn253 2.254 1_655 S
N260 C259 1.307 1_655 S
N260 C264 1.362 . S
C261 C262 1.258 . S
C261 C264 1.431 . S
C261 C281 1.449 . S
C262 C261 1.258 . S
C262 C263 1.477 . S
C262 H282 0.931 . S
C263 C259 1.452 1_655 S
C263 C262 1.477 . S
C263 H283 0.917 1_655 S
C264 N260 1.362 . S
C264 C261 1.431 . S
C264 C274 1.476 . S
H265 C259 0.957 . S
C266 O257 1.250 . S
C266 O258 1.258 . S
O267 Mn252 2.163 . S
O267 C255 1.281 . S
O268 Mn252 2.297 . S
O268 C255 1.236 . S
N269 Mn253 2.270 1_655 S
N269 C270 1.328 . S
N269 C274 1.318 . S
C270 N269 1.328 . S
C270 C271 1.457 . S
C270 H275 0.929 . S
C271 C270 1.457 . S
C271 C272 1.291 . S
C271 H284 0.931 . S
C272 C271 1.291 . S
C272 C273 1.373 . S
C272 H285 0.929 . S
C273 C272 1.373 . S
C273 C274 1.396 . S
C273 C280 1.403 . S
C274 C264 1.476 . S
C274 N269 1.318 . S
C274 C273 1.396 . S
H275 C270 0.929 . S
O276 Mn252 2.385 . S
O276 C254 1.234 . S
O277 Mn252 2.209 . S
O277 Mn253 2.210 1_655 S
O277 C254 1.283 . S
O278 Mn252 2.094 1_455 S
O278 C256 1.240 . S
O279 Mn253 2.117 . S
O279 C256 1.264 . S
C280 C273 1.403 . S
C280 C281 1.399 . S
C280 H286 0.929 . S
C281 C261 1.449 . S
C281 C280 1.399 . S
C281 H287 0.930 . S
H282 C262 0.931 . S
H283 C263 0.917 1_455 S
H284 C271 0.931 . S
H285 C272 0.929 . S
H286 C280 0.929 . S
H287 C281 0.930 . S
Mn288 O293 2.095 . S
Mn288 O303 2.162 . S
Mn288 O304 2.297 . S
Mn288 O312 2.385 1_545 S
Mn288 O313 2.209 1_545 S
Mn288 O314 2.094 . S
Mn289 O294 2.121 . S
Mn289 N296 2.257 1_545 S
Mn289 N305 2.282 1_545 S
Mn289 O313 2.215 1_545 S
Mn289 O315 2.117 . S
C290 O312 1.234 . S
C290 O313 1.283 . S
C291 O303 1.281 . S
C291 O304 1.236 . S
C292 O314 1.240 . S
C292 O315 1.264 . S
O293 Mn288 2.095 . S
O293 C302 1.250 . S
O294 Mn289 2.121 . S
O294 C302 1.258 . S
C295 N296 1.326 1_545 S
C295 C299 1.460 1_545 S
C295 H301 0.929 . S
N296 Mn289 2.257 1_565 S
N296 C295 1.326 1_565 S
N296 C300 1.362 . S
C297 C298 1.258 . S
C297 C300 1.431 . S
C297 C317 1.449 . S
C298 C297 1.258 . S
C298 C299 1.477 . S
C298 H318 0.931 . S
C299 C295 1.460 1_565 S
C299 C298 1.477 . S
C299 H319 0.930 1_565 S
C300 N296 1.362 . S
C300 C297 1.431 . S
C300 C310 1.476 . S
H301 C295 0.929 . S
C302 O293 1.250 . S
C302 O294 1.258 . S
O303 Mn288 2.162 . S
O303 C291 1.281 . S
O304 Mn288 2.297 . S
O304 C291 1.236 . S
N305 Mn289 2.282 1_565 S
N305 C306 1.328 . S
N305 C310 1.318 . S
C306 N305 1.328 . S
C306 C307 1.457 . S
C306 H311 0.929 . S
C307 C306 1.457 . S
C307 C308 1.291 . S
C307 H320 0.931 . S
C308 C307 1.291 . S
C308 C309 1.373 . S
C308 H321 0.929 . S
C309 C308 1.373 . S
C309 C310 1.396 . S
C309 C316 1.403 . S
C310 C300 1.476 . S
C310 N305 1.318 . S
C310 C309 1.396 . S
H311 C306 0.929 . S
O312 Mn288 2.385 1_565 S
O312 C290 1.234 . S
O313 Mn288 2.209 1_565 S
O313 Mn289 2.215 1_565 S
O313 C290 1.283 . S
O314 Mn288 2.094 . S
O314 C292 1.240 . S
O315 Mn289 2.117 . S
O315 C292 1.264 . S
C316 C309 1.403 . S
C316 C317 1.399 . S
C316 H322 0.929 . S
C317 C297 1.449 . S
C317 C316 1.399 . S
C317 H323 0.930 . S
H318 C298 0.931 . S
H319 C299 0.930 1_545 S
H320 C307 0.931 . S
H321 C308 0.929 . S
H322 C316 0.929 . S
H323 C317 0.930 . S
Mn324 O329 2.095 . S
Mn324 O339 2.162 . S
Mn324 O340 2.297 . S
Mn324 O348 2.385 . S
Mn324 O349 2.209 . S
Mn324 O350 2.094 . S
Mn325 O330 2.121 . S
Mn325 N332 2.257 . S
Mn325 N341 2.282 . S
Mn325 O349 2.215 . S
Mn325 O351 2.117 . S
C326 O348 1.234 . S
C326 O349 1.283 . S
C327 O339 1.281 . S
C327 O340 1.236 . S
C328 O350 1.240 . S
C328 O351 1.264 . S
O329 Mn324 2.095 . S
O329 C338 1.250 . S
O330 Mn325 2.121 . S
O330 C338 1.258 . S
C331 N332 1.326 . S
C331 C335 1.460 . S
C331 H337 0.929 . S
N332 Mn325 2.257 . S
N332 C331 1.326 . S
N332 C336 1.362 . S
C333 C334 1.258 . S
C333 C336 1.431 . S
C333 C353 1.449 . S
C334 C333 1.258 . S
C334 C335 1.477 . S
C334 H354 0.952 . S
C335 C331 1.460 . S
C335 C334 1.477 . S
C335 H355 0.930 . S
C336 N332 1.362 . S
C336 C333 1.431 . S
C336 C346 1.476 . S
H337 C331 0.929 . S
C338 O329 1.250 . S
C338 O330 1.258 . S
O339 Mn324 2.162 . S
O339 C327 1.281 . S
O340 Mn324 2.297 . S
O340 C327 1.236 . S
N341 Mn325 2.282 . S
N341 C342 1.328 . S
N341 C346 1.318 . S
C342 N341 1.328 . S
C342 C343 1.457 . S
C342 H347 0.929 . S
C343 C342 1.457 . S
C343 C344 1.291 . S
C343 H356 0.931 . S
C344 C343 1.291 . S
C344 C345 1.373 . S
C344 H357 0.929 . S
C345 C344 1.373 . S
C345 C346 1.396 . S
C345 C352 1.403 . S
C346 C336 1.476 . S
C346 N341 1.318 . S
C346 C345 1.396 . S
H347 C342 0.929 . S
O348 Mn324 2.385 . S
O348 C326 1.234 . S
O349 Mn324 2.209 . S
O349 Mn325 2.215 . S
O349 C326 1.283 . S
O350 Mn324 2.094 . S
O350 C328 1.240 . S
O351 Mn325 2.117 . S
O351 C328 1.264 . S
C352 C345 1.403 . S
C352 C353 1.399 . S
C352 H358 0.929 . S
C353 C333 1.449 . S
C353 C352 1.399 . S
C353 H359 0.930 . S
H354 C334 0.952 . S
H355 C335 0.930 . S
H356 C343 0.931 . S
H357 C344 0.929 . S
H358 C352 0.929 . S
H359 C353 0.930 . S
Mn360 O365 2.093 . S
Mn360 O375 2.162 . S
Mn360 O376 2.298 . S
Mn360 O384 2.387 1_565 S
Mn360 O385 2.209 1_565 S
Mn360 O386 2.094 . S
Mn361 O366 2.121 1_545 S
Mn361 N368 2.257 . S
Mn361 N377 2.282 . S
Mn361 O385 2.215 . S
Mn361 O387 2.117 . S
C362 O384 1.234 . S
C362 O385 1.283 . S
C363 O375 1.281 . S
C363 O376 1.235 . S
C364 O386 1.242 1_545 S
C364 O387 1.264 . S
O365 Mn360 2.093 . S
O365 C374 1.250 . S
O366 Mn361 2.121 1_565 S
O366 C374 1.258 . S
C367 N368 1.326 . S
C367 C371 1.460 . S
C367 H373 0.929 1_545 S
N368 Mn361 2.257 . S
N368 C367 1.326 . S
N368 C372 1.362 . S
C369 C370 1.258 . S
C369 C372 1.431 . S
C369 C389 1.449 . S
C370 C369 1.258 . S
C370 C371 1.477 . S
C370 H390 0.931 . S
C371 C367 1.460 . S
C371 C370 1.477 . S
C371 H391 0.930 . S
C372 N368 1.362 . S
C372 C369 1.431 . S
C372 C382 1.476 . S
H373 C367 0.929 1_565 S
C374 O365 1.250 . S
C374 O366 1.258 . S
O375 Mn360 2.162 . S
O375 C363 1.281 . S
O376 Mn360 2.298 . S
O376 C363 1.235 . S
N377 Mn361 2.282 . S
N377 C378 1.328 . S
N377 C382 1.318 . S
C378 N377 1.328 . S
C378 C379 1.457 . S
C378 H383 0.929 . S
C379 C378 1.457 . S
C379 C380 1.291 . S
C379 H392 0.931 . S
C380 C379 1.291 . S
C380 C381 1.373 . S
C380 H393 0.929 . S
C381 C380 1.373 . S
C381 C382 1.396 . S
C381 C388 1.403 . S
C382 C372 1.476 . S
C382 N377 1.318 . S
C382 C381 1.396 . S
H383 C378 0.929 . S
O384 Mn360 2.387 1_545 S
O384 C362 1.234 . S
O385 Mn360 2.209 1_545 S
O385 Mn361 2.215 . S
O385 C362 1.283 . S
O386 Mn360 2.094 . S
O386 C364 1.242 1_565 S
O387 Mn361 2.117 . S
O387 C364 1.264 . S
C388 C381 1.403 . S
C388 C389 1.399 . S
C388 H394 0.929 . S
C389 C369 1.449 . S
C389 C388 1.399 . S
C389 H395 0.930 . S
H390 C370 0.931 . S
H391 C371 0.930 . S
H392 C379 0.931 . S
H393 C380 0.929 . S
H394 C388 0.929 . S
H395 C389 0.930 . S
Mn396 O401 2.095 . S
Mn396 O411 2.162 . S
Mn396 O412 2.297 . S
Mn396 O420 2.385 . S
Mn396 O421 2.209 . S
Mn396 O422 2.094 1_554 S
Mn397 O402 2.121 . S
Mn397 N404 2.257 . S
Mn397 N413 2.282 . S
Mn397 O421 2.215 1_556 S
Mn397 O423 2.117 . S
C398 O420 1.234 . S
C398 O421 1.283 . S
C399 O411 1.281 . S
C399 O412 1.236 . S
C400 O422 1.240 . S
C400 O423 1.264 . S
O401 Mn396 2.095 . S
O401 C410 1.250 . S
O402 Mn397 2.121 . S
O402 C410 1.258 1_556 S
C403 N404 1.326 1_545 S
C403 C407 1.460 1_556 S
C403 H409 0.929 1_556 S
N404 Mn397 2.257 . S
N404 C403 1.326 1_565 S
N404 C408 1.362 1_565 S
C405 C406 1.258 . S
C405 C408 1.431 . S
C405 C425 1.449 . S
C406 C405 1.258 . S
C406 C407 1.477 1_556 S
C406 H426 0.931 . S
C407 C403 1.460 1_554 S
C407 C406 1.477 1_554 S
C407 H427 0.930 . S
C408 N404 1.362 1_545 S
C408 C405 1.431 . S
C408 C418 1.476 1_545 S
H409 C403 0.929 1_554 S
C410 O401 1.250 . S
C410 O402 1.258 1_554 S
O411 Mn396 2.162 . S
O411 C399 1.281 . S
O412 Mn396 2.297 . S
O412 C399 1.236 . S
N413 Mn397 2.282 . S
N413 C414 1.328 . S
N413 C418 1.318 . S
C414 N413 1.328 . S
C414 C415 1.457 . S
C414 H419 0.929 . S
C415 C414 1.457 . S
C415 C416 1.291 . S
C415 H428 0.931 . S
C416 C415 1.291 . S
C416 C417 1.373 . S
C416 H429 0.929 . S
C417 C416 1.373 . S
C417 C418 1.396 . S
C417 C424 1.403 1_565 S
C418 C408 1.476 1_565 S
C418 N413 1.318 . S
C418 C417 1.396 . S
H419 C414 0.929 . S
O420 Mn396 2.385 . S
O420 C398 1.234 . S
O421 Mn396 2.209 . S
O421 Mn397 2.215 1_554 S
O421 C398 1.283 . S
O422 Mn396 2.094 1_556 S
O422 C400 1.240 . S
O423 Mn397 2.117 . S
O423 C400 1.264 . S
C424 C417 1.403 1_545 S
C424 C425 1.399 . S
C424 H430 0.929 . S
C425 C405 1.449 . S
C425 C424 1.399 . S
C425 H431 0.930 . S
H426 C406 0.931 . S
H427 C407 0.930 . S
H428 C415 0.931 . S
H429 C416 0.929 . S
H430 C424 0.929 . S
H431 C425 0.930 . S
Mn432 O437 2.095 . S
Mn432 O447 2.162 . S
Mn432 O448 2.297 . S
Mn432 O456 2.385 . S
Mn432 O457 2.209 . S
Mn432 O458 2.094 1_554 S
Mn433 O438 2.121 . S
Mn433 N440 2.257 . S
Mn433 N449 2.282 . S
Mn433 O457 2.215 1_556 S
Mn433 O459 2.117 . S
C434 O456 1.234 . S
C434 O457 1.283 . S
C435 O447 1.281 . S
C435 O448 1.236 . S
C436 O458 1.240 . S
C436 O459 1.264 . S
O437 Mn432 2.095 . S
O437 C446 1.250 . S
O438 Mn433 2.121 . S
O438 C446 1.258 1_556 S
C439 N440 1.326 . S
C439 C443 1.460 . S
C439 H445 0.917 1_556 S
N440 Mn433 2.257 . S
N440 C439 1.326 . S
N440 C444 1.362 . S
C441 C442 1.258 . S
C441 C444 1.431 . S
C441 C461 1.449 . S
C442 C441 1.258 . S
C442 C443 1.477 . S
C442 H462 0.931 . S
C443 C439 1.460 . S
C443 C442 1.477 . S
C443 H463 0.930 1_556 S
C444 N440 1.362 . S
C444 C441 1.431 . S
C444 C454 1.476 . S
H445 C439 0.917 1_554 S
C446 O437 1.250 . S
C446 O438 1.258 1_554 S
O447 Mn432 2.162 . S
O447 C435 1.281 . S
O448 Mn432 2.297 . S
O448 C435 1.236 . S
N449 Mn433 2.282 . S
N449 C450 1.328 . S
N449 C454 1.318 . S
C450 N449 1.328 . S
C450 C451 1.457 . S
C450 H455 0.929 . S
C451 C450 1.457 . S
C451 C452 1.291 . S
C451 H464 0.931 . S
C452 C451 1.291 . S
C452 C453 1.373 . S
C452 H465 0.929 . S
C453 C452 1.373 . S
C453 C454 1.396 . S
C453 C460 1.403 . S
C454 C444 1.476 . S
C454 N449 1.318 . S
C454 C453 1.396 . S
H455 C450 0.929 . S
O456 Mn432 2.385 . S
O456 C434 1.234 . S
O457 Mn432 2.209 . S
O457 Mn433 2.215 1_554 S
O457 C434 1.283 . S
O458 Mn432 2.094 1_556 S
O458 C436 1.240 . S
O459 Mn433 2.117 . S
O459 C436 1.264 . S
C460 C453 1.403 . S
C460 C461 1.399 . S
C460 H466 0.929 . S
C461 C441 1.449 . S
C461 C460 1.399 . S
C461 H467 0.930 . S
H462 C442 0.931 . S
H463 C443 0.930 1_554 S
H464 C451 0.931 . S
H465 C452 0.929 . S
H466 C460 0.929 . S
H467 C461 0.930 . S
Mn468 O473 2.095 1_554 S
Mn468 O483 2.162 . S
Mn468 O484 2.297 . S
Mn468 O492 2.385 . S
Mn468 O493 2.209 1_554 S
Mn468 O494 2.094 1_554 S
Mn469 O474 2.121 . S
Mn469 N476 2.257 . S
Mn469 N485 2.282 . S
Mn469 O493 2.215 . S
Mn469 O495 2.117 . S
C470 O492 1.234 1_556 S
C470 O493 1.283 . S
C471 O483 1.281 . S
C471 O484 1.236 . S
C472 O494 1.240 . S
C472 O495 1.264 . S
O473 Mn468 2.095 1_556 S
O473 C482 1.250 . S
O474 Mn469 2.121 . S
O474 C482 1.258 . S
C475 N476 1.326 . S
C475 C479 1.456 . S
C475 H481 0.929 . S
N476 Mn469 2.257 . S
N476 C475 1.326 . S
N476 C480 1.362 . S
C477 C478 1.258 1_545 S
C477 C480 1.431 . S
C477 C497 1.449 . S
C478 C477 1.258 1_565 S
C478 C479 1.477 1_565 S
C478 H498 0.931 . S
C479 C475 1.456 . S
C479 C478 1.477 1_545 S
C479 H499 0.933 1_545 S
C480 N476 1.362 . S
C480 C477 1.431 . S
C480 C490 1.476 . S
H481 C475 0.929 . S
C482 O473 1.250 . S
C482 O474 1.258 . S
O483 Mn468 2.162 . S
O483 C471 1.281 . S
O484 Mn468 2.297 . S
O484 C471 1.236 . S
N485 Mn469 2.282 . S
N485 C486 1.328 . S
N485 C490 1.318 . S
C486 N485 1.328 . S
C486 C487 1.457 . S
C486 H491 0.929 . S
C487 C486 1.457 . S
C487 C488 1.291 . S
C487 H500 0.931 . S
C488 C487 1.291 . S
C488 C489 1.373 . S
C488 H501 0.929 . S
C489 C488 1.373 . S
C489 C490 1.396 . S
C489 C496 1.403 . S
C490 C480 1.476 . S
C490 N485 1.318 . S
C490 C489 1.396 . S
H491 C486 0.929 . S
O492 Mn468 2.385 . S
O492 C470 1.234 1_554 S
O493 Mn468 2.209 1_556 S
O493 Mn469 2.215 . S
O493 C470 1.283 . S
O494 Mn468 2.094 1_556 S
O494 C472 1.240 . S
O495 Mn469 2.117 . S
O495 C472 1.264 . S
C496 C489 1.403 . S
C496 C497 1.399 . S
C496 H502 0.929 . S
C497 C477 1.449 . S
C497 C496 1.399 . S
C497 H503 0.930 1_545 S
H498 C478 0.931 . S
H499 C479 0.933 1_565 S
H500 C487 0.931 . S
H501 C488 0.929 . S
H502 C496 0.929 . S
H503 C497 0.930 1_565 S
Mn504 O509 2.095 . S
Mn504 O519 2.162 . S
Mn504 O520 2.297 . S
Mn504 O528 2.385 . S
Mn504 O529 2.209 . S
Mn504 O530 2.094 . S
Mn505 O510 2.121 . S
Mn505 N512 2.257 . S
Mn505 N521 2.282 . S
Mn505 O529 2.215 . S
Mn505 O531 2.117 . S
C506 O528 1.234 . S
C506 O529 1.283 . S
C507 O519 1.281 . S
C507 O520 1.236 . S
C508 O530 1.240 . S
C508 O531 1.264 . S
O509 Mn504 2.095 . S
O509 C518 1.250 . S
O510 Mn505 2.121 . S
O510 C518 1.258 . S
C511 N512 1.326 . S
C511 C515 1.460 . S
C511 H517 0.929 . S
N512 Mn505 2.257 . S
N512 C511 1.326 . S
N512 C516 1.362 . S
C513 C514 1.258 . S
C513 C516 1.431 . S
C513 C533 1.449 . S
C514 C513 1.258 . S
C514 C515 1.477 . S
C514 H534 0.931 . S
C515 C511 1.460 . S
C515 C514 1.477 . S
C515 H535 0.930 . S
C516 N512 1.362 . S
C516 C513 1.431 . S
C516 C526 1.476 . S
H517 C511 0.929 . S
C518 O509 1.250 . S
C518 O510 1.258 . S
O519 Mn504 2.162 . S
O519 C507 1.281 . S
O520 Mn504 2.297 . S
O520 C507 1.236 . S
N521 Mn505 2.282 . S
N521 C522 1.328 . S
N521 C526 1.318 . S
C522 N521 1.328 . S
C522 C523 1.457 . S
C522 H527 0.929 . S
C523 C522 1.457 . S
C523 C524 1.291 . S
C523 H536 0.931 . S
C524 C523 1.291 . S
C524 C525 1.373 . S
C524 H537 0.929 . S
C525 C524 1.373 . S
C525 C526 1.396 . S
C525 C532 1.403 . S
C526 C516 1.476 . S
C526 N521 1.318 . S
C526 C525 1.396 . S
H527 C522 0.929 . S
O528 Mn504 2.385 . S
O528 C506 1.234 . S
O529 Mn504 2.209 . S
O529 Mn505 2.215 . S
O529 C506 1.283 . S
O530 Mn504 2.094 . S
O530 C508 1.240 . S
O531 Mn505 2.117 . S
O531 C508 1.264 . S
C532 C525 1.403 . S
C532 C533 1.399 . S
C532 H538 0.929 . S
C533 C513 1.449 . S
C533 C532 1.399 . S
C533 H539 0.930 . S
H534 C514 0.931 . S
H535 C515 0.930 . S
H536 C523 0.931 . S
H537 C524 0.929 . S
H538 C532 0.929 . S
H539 C533 0.930 . S
Mn540 O545 2.095 . S
Mn540 O555 2.162 . S
Mn540 O556 2.297 . S
Mn540 O564 2.385 . S
Mn540 O565 2.209 . S
Mn540 O566 2.094 . S
Mn541 O546 2.121 . S
Mn541 N548 2.257 . S
Mn541 N557 2.282 . S
Mn541 O565 2.215 . S
Mn541 O567 2.117 . S
C542 O564 1.234 . S
C542 O565 1.283 . S
C543 O555 1.281 . S
C543 O556 1.236 . S
C544 O566 1.240 . S
C544 O567 1.264 . S
O545 Mn540 2.095 . S
O545 C554 1.250 . S
O546 Mn541 2.121 . S
O546 C554 1.258 . S
C547 N548 1.326 . S
C547 C551 1.460 1_565 S
C547 H553 0.929 . S
N548 Mn541 2.257 . S
N548 C547 1.326 . S
N548 C552 1.362 . S
C549 C550 1.258 . S
C549 C552 1.431 1_545 S
C549 C569 1.449 . S
C550 C549 1.258 . S
C550 C551 1.477 . S
C550 H570 0.931 . S
C551 C547 1.460 1_545 S
C551 C550 1.477 . S
C551 H571 0.930 . S
C552 N548 1.362 . S
C552 C549 1.431 1_565 S
C552 C562 1.476 . S
H553 C547 0.929 . S
C554 O545 1.250 . S
C554 O546 1.258 . S
O555 Mn540 2.162 . S
O555 C543 1.281 . S
O556 Mn540 2.297 . S
O556 C543 1.236 . S
N557 Mn541 2.282 . S
N557 C558 1.328 . S
N557 C562 1.318 . S
C558 N557 1.328 . S
C558 C559 1.457 . S
C558 H563 0.929 . S
C559 C558 1.457 . S
C559 C560 1.291 . S
C559 H572 0.931 . S
C560 C559 1.291 . S
C560 C561 1.373 . S
C560 H573 0.929 . S
C561 C560 1.373 . S
C561 C562 1.396 . S
C561 C568 1.403 . S
C562 C552 1.476 . S
C562 N557 1.318 . S
C562 C561 1.396 . S
H563 C558 0.929 . S
O564 Mn540 2.385 . S
O564 C542 1.234 . S
O565 Mn540 2.209 . S
O565 Mn541 2.215 . S
O565 C542 1.283 . S
O566 Mn540 2.094 . S
O566 C544 1.240 . S
O567 Mn541 2.117 . S
O567 C544 1.264 . S
C568 C561 1.403 . S
C568 C569 1.399 1_565 S
C568 H574 0.929 . S
C569 C549 1.449 . S
C569 C568 1.399 1_545 S
C569 H575 0.930 . S
H570 C550 0.931 . S
H571 C551 0.930 . S
H572 C559 0.931 . S
H573 C560 0.929 . S
H574 C568 0.929 . S
H575 C569 0.930 . S
Mn576 O581 2.095 . S
Mn576 O591 2.162 . S
Mn576 O592 2.297 . S
Mn576 O600 2.385 1_545 S
Mn576 O601 2.209 . S
Mn576 O602 2.094 . S
Mn577 O582 2.121 . S
Mn577 N584 2.257 . S
Mn577 N593 2.282 1_545 S
Mn577 O601 2.215 . S
Mn577 O603 2.117 . S
C578 O600 1.234 . S
C578 O601 1.283 1_565 S
C579 O591 1.281 . S
C579 O592 1.236 . S
C580 O602 1.240 . S
C580 O603 1.264 . S
O581 Mn576 2.095 . S
O581 C590 1.250 . S
O582 Mn577 2.121 . S
O582 C590 1.258 . S
C583 N584 1.326 . S
C583 C587 1.460 . S
C583 H589 0.929 . S
N584 Mn577 2.257 . S
N584 C583 1.326 . S
N584 C588 1.362 1_545 S
C585 C586 1.258 . S
C585 C588 1.431 . S
C585 C605 1.449 . S
C586 C585 1.258 . S
C586 C587 1.477 1_565 S
C586 H606 0.931 . S
C587 C583 1.460 . S
C587 C586 1.477 1_545 S
C587 H607 0.930 . S
C588 N584 1.362 1_565 S
C588 C585 1.431 . S
C588 C598 1.476 . S
H589 C583 0.929 . S
C590 O581 1.250 . S
C590 O582 1.258 . S
O591 Mn576 2.162 . S
O591 C579 1.281 . S
O592 Mn576 2.297 . S
O592 C579 1.236 . S
N593 Mn577 2.282 1_565 S
N593 C594 1.328 . S
N593 C598 1.318 . S
C594 N593 1.328 . S
C594 C595 1.457 . S
C594 H599 0.929 . S
C595 C594 1.457 . S
C595 C596 1.291 . S
C595 H608 0.931 . S
C596 C595 1.291 . S
C596 C597 1.373 . S
C596 H609 0.929 . S
C597 C596 1.373 . S
C597 C598 1.396 . S
C597 C604 1.403 . S
C598 C588 1.476 . S
C598 N593 1.318 . S
C598 C597 1.396 . S
H599 C594 0.929 . S
O600 Mn576 2.385 1_565 S
O600 C578 1.234 . S
O601 Mn576 2.209 . S
O601 Mn577 2.215 . S
O601 C578 1.283 1_545 S
O602 Mn576 2.094 . S
O602 C580 1.240 . S
O603 Mn577 2.117 . S
O603 C580 1.264 . S
C604 C597 1.403 . S
C604 C605 1.399 . S
C604 H610 0.929 . S
C605 C585 1.449 . S
C605 C604 1.399 . S
C605 H611 0.930 . S
H606 C586 0.931 . S
H607 C587 0.930 . S
H608 C595 0.931 . S
H609 C596 0.929 . S
H610 C604 0.929 . S
H611 C605 0.930 . S
Mn612 O617 2.095 . S
Mn612 O627 2.162 . S
Mn612 O628 2.297 . S
Mn612 O636 2.385 . S
Mn612 O637 2.209 . S
Mn612 O638 2.094 . S
Mn613 O618 2.121 . S
Mn613 N620 2.257 . S
Mn613 N629 2.282 . S
Mn613 O637 2.215 . S
Mn613 O639 2.117 . S
C614 O636 1.234 . S
C614 O637 1.283 . S
C615 O627 1.281 . S
C615 O628 1.236 . S
C616 O638 1.240 . S
C616 O639 1.264 . S
O617 Mn612 2.095 . S
O617 C626 1.250 . S
O618 Mn613 2.121 . S
O618 C626 1.258 . S
C619 N620 1.326 . S
C619 C623 1.460 . S
C619 H625 0.929 . S
N620 Mn613 2.257 . S
N620 C619 1.326 . S
N620 C624 1.362 . S
C621 C622 1.258 . S
C621 C624 1.431 . S
C621 C641 1.449 . S
C622 C621 1.258 . S
C622 C623 1.477 . S
C622 H642 0.931 . S
C623 C619 1.460 . S
C623 C622 1.477 . S
C623 H643 0.930 . S
C624 N620 1.362 . S
C624 C621 1.431 . S
C624 C634 1.476 . S
H625 C619 0.929 . S
C626 O617 1.250 . S
C626 O618 1.258 . S
O627 Mn612 2.162 . S
O627 C615 1.281 . S
O628 Mn612 2.297 . S
O628 C615 1.236 . S
N629 Mn613 2.282 . S
N629 C630 1.328 . S
N629 C634 1.318 . S
C630 N629 1.328 . S
C630 C631 1.457 . S
C630 H635 0.929 . S
C631 C630 1.457 . S
C631 C632 1.291 . S
C631 H644 0.931 . S
C632 C631 1.291 . S
C632 C633 1.373 . S
C632 H645 0.929 . S
C633 C632 1.373 . S
C633 C634 1.396 . S
C633 C640 1.403 . S
C634 C624 1.476 . S
C634 N629 1.318 . S
C634 C633 1.396 . S
H635 C630 0.929 . S
O636 Mn612 2.385 . S
O636 C614 1.234 . S
O637 Mn612 2.209 . S
O637 Mn613 2.215 . S
O637 C614 1.283 . S
O638 Mn612 2.094 . S
O638 C616 1.240 . S
O639 Mn613 2.117 . S
O639 C616 1.264 . S
C640 C633 1.403 . S
C640 C641 1.399 . S
C640 H646 0.929 . S
C641 C621 1.449 . S
C641 C640 1.399 . S
C641 H647 0.930 . S
H642 C622 0.931 . S
H643 C623 0.930 . S
H644 C631 0.931 . S
H645 C632 0.929 . S
H646 C640 0.929 . S
H647 C641 0.930 . S
Mn648 O653 2.095 . S
Mn648 O663 2.162 . S
Mn648 O664 2.297 . S
Mn648 O672 2.385 . S
Mn648 O673 2.209 . S
Mn648 O674 2.094 . S
Mn649 O654 2.121 . S
Mn649 N656 2.257 . S
Mn649 N665 2.282 . S
Mn649 O673 2.215 . S
Mn649 O675 2.117 . S
C650 O672 1.234 . S
C650 O673 1.283 . S
C651 O663 1.281 . S
C651 O664 1.236 . S
C652 O674 1.240 . S
C652 O675 1.264 . S
O653 Mn648 2.095 . S
O653 C662 1.250 . S
O654 Mn649 2.121 . S
O654 C662 1.258 . S
C655 N656 1.326 . S
C655 C659 1.460 . S
C655 H661 0.929 . S
N656 Mn649 2.257 . S
N656 C655 1.326 . S
N656 C660 1.362 . S
C657 C658 1.258 . S
C657 C660 1.431 . S
C657 C677 1.449 . S
C658 C657 1.258 . S
C658 C659 1.477 . S
C658 H678 0.931 . S
C659 C655 1.460 . S
C659 C658 1.477 . S
C659 H679 0.930 . S
C660 N656 1.362 . S
C660 C657 1.431 . S
C660 C670 1.476 . S
H661 C655 0.929 . S
C662 O653 1.250 . S
C662 O654 1.258 . S
O663 Mn648 2.162 . S
O663 C651 1.281 . S
O664 Mn648 2.297 . S
O664 C651 1.236 . S
N665 Mn649 2.282 . S
N665 C666 1.328 . S
N665 C670 1.318 . S
C666 N665 1.328 . S
C666 C667 1.457 . S
C666 H671 0.929 . S
C667 C666 1.457 . S
C667 C668 1.291 . S
C667 H680 0.931 . S
C668 C667 1.291 . S
C668 C669 1.373 . S
C668 H681 0.929 . S
C669 C668 1.373 . S
C669 C670 1.396 . S
C669 C676 1.403 . S
C670 C660 1.476 . S
C670 N665 1.318 . S
C670 C669 1.396 . S
H671 C666 0.929 . S
O672 Mn648 2.385 . S
O672 C650 1.234 . S
O673 Mn648 2.209 . S
O673 Mn649 2.215 . S
O673 C650 1.283 . S
O674 Mn648 2.094 . S
O674 C652 1.240 . S
O675 Mn649 2.117 . S
O675 C652 1.264 . S
C676 C669 1.403 . S
C676 C677 1.399 . S
C676 H682 0.929 . S
C677 C657 1.449 . S
C677 C676 1.399 . S
C677 H683 0.930 . S
H678 C658 0.931 . S
H679 C659 0.930 . S
H680 C667 0.931 . S
H681 C668 0.929 . S
H682 C676 0.929 . S
H683 C677 0.930 . S
Mn684 O689 2.095 1_545 S
Mn684 O699 2.162 . S
Mn684 O700 2.297 . S
Mn684 O708 2.385 . S
Mn684 O709 2.209 . S
Mn684 O710 2.094 . S
Mn685 O690 2.121 . S
Mn685 N692 2.257 . S
Mn685 N701 2.282 . S
Mn685 O709 2.215 . S
Mn685 O711 2.117 . S
C686 O708 1.234 . S
C686 O709 1.283 . S
C687 O699 1.281 . S
C687 O700 1.236 . S
C688 O710 1.240 . S
C688 O711 1.264 . S
O689 Mn684 2.095 1_565 S
O689 C698 1.250 . S
O690 Mn685 2.121 . S
O690 C698 1.258 1_545 S
C691 N692 1.326 . S
C691 C695 1.460 . S
C691 H697 0.929 . S
N692 Mn685 2.257 . S
N692 C691 1.326 . S
N692 C696 1.362 . S
C693 C694 1.258 . S
C693 C696 1.431 . S
C693 C713 1.449 . S
C694 C693 1.258 . S
C694 C695 1.477 . S
C694 H714 0.931 . S
C695 C691 1.460 . S
C695 C694 1.477 . S
C695 H715 0.930 . S
C696 N692 1.362 . S
C696 C693 1.431 . S
C696 C706 1.476 . S
H697 C691 0.929 . S
C698 O689 1.250 . S
C698 O690 1.258 1_565 S
O699 Mn684 2.162 . S
O699 C687 1.281 . S
O700 Mn684 2.297 . S
O700 C687 1.236 . S
N701 Mn685 2.282 . S
N701 C702 1.328 . S
N701 C706 1.318 . S
C702 N701 1.328 . S
C702 C703 1.457 . S
C702 H707 0.929 . S
C703 C702 1.457 . S
C703 C704 1.291 . S
C703 H716 0.931 . S
C704 C703 1.291 . S
C704 C705 1.373 . S
C704 H717 0.929 . S
C705 C704 1.373 . S
C705 C706 1.396 . S
C705 C712 1.403 . S
C706 C696 1.476 . S
C706 N701 1.318 . S
C706 C705 1.396 . S
H707 C702 0.929 . S
O708 Mn684 2.385 . S
O708 C686 1.234 . S
O709 Mn684 2.209 . S
O709 Mn685 2.215 . S
O709 C686 1.283 . S
O710 Mn684 2.094 . S
O710 C688 1.240 . S
O711 Mn685 2.117 . S
O711 C688 1.264 . S
C712 C705 1.403 . S
C712 C713 1.399 . S
C712 H718 0.929 . S
C713 C693 1.449 . S
C713 C712 1.399 . S
C713 H719 0.930 . S
H714 C694 0.931 . S
H715 C695 0.930 . S
H716 C703 0.931 . S
H717 C704 0.929 . S
H718 C712 0.929 . S
H719 C713 0.930 . S
Mn720 O725 2.095 . S
Mn720 O735 2.162 . S
Mn720 O736 2.297 . S
Mn720 O744 2.385 . S
Mn720 O745 2.209 1_554 S
Mn720 O746 2.094 1_554 S
Mn721 O726 2.121 . S
Mn721 N728 2.257 . S
Mn721 N737 2.282 . S
Mn721 O745 2.215 . S
Mn721 O747 2.117 . S
C722 O744 1.234 . S
C722 O745 1.283 1_554 S
C723 O735 1.281 . S
C723 O736 1.236 . S
C724 O746 1.240 . S
C724 O747 1.264 . S
O725 Mn720 2.095 . S
O725 C734 1.250 1_554 S
O726 Mn721 2.121 . S
O726 C734 1.258 . S
C727 N728 1.326 . S
C727 C731 1.460 . S
C727 H733 0.929 . S
N728 Mn721 2.257 . S
N728 C727 1.326 . S
N728 C732 1.362 . S
C729 C730 1.258 . S
C729 C732 1.431 . S
C729 C749 1.449 . S
C730 C729 1.258 . S
C730 C731 1.477 . S
C730 H750 0.931 . S
C731 C727 1.460 . S
C731 C730 1.477 . S
C731 H751 0.930 . S
C732 N728 1.362 . S
C732 C729 1.431 . S
C732 C742 1.476 . S
H733 C727 0.929 . S
C734 O725 1.250 1_556 S
C734 O726 1.258 . S
O735 Mn720 2.162 . S
O735 C723 1.281 . S
O736 Mn720 2.297 . S
O736 C723 1.236 . S
N737 Mn721 2.282 . S
N737 C738 1.328 . S
N737 C742 1.318 . S
C738 N737 1.328 . S
C738 C739 1.457 . S
C738 H743 0.929 . S
C739 C738 1.457 . S
C739 C740 1.291 . S
C739 H752 0.931 . S
C740 C739 1.291 . S
C740 C741 1.373 . S
C740 H753 0.929 . S
C741 C740 1.373 . S
C741 C742 1.396 . S
C741 C748 1.403 . S
C742 C732 1.476 . S
C742 N737 1.318 . S
C742 C741 1.396 . S
H743 C738 0.929 . S
O744 Mn720 2.385 . S
O744 C722 1.234 . S
O745 Mn720 2.209 1_556 S
O745 Mn721 2.215 . S
O745 C722 1.283 1_556 S
O746 Mn720 2.094 1_556 S
O746 C724 1.240 . S
O747 Mn721 2.117 . S
O747 C724 1.264 . S
C748 C741 1.403 . S
C748 C749 1.399 . S
C748 H754 0.929 . S
C749 C729 1.449 . S
C749 C748 1.399 . S
C749 H755 0.930 . S
H750 C730 0.931 . S
H751 C731 0.930 . S
H752 C739 0.931 . S
H753 C740 0.929 . S
H754 C748 0.929 . S
H755 C749 0.930 . S
Mn756 O761 2.095 . S
Mn756 O771 2.162 . S
Mn756 O772 2.297 . S
Mn756 O780 2.385 . S
Mn756 O781 2.209 . S
Mn756 O782 2.094 . S
Mn757 O762 2.121 . S
Mn757 N764 2.257 . S
Mn757 N773 2.282 . S
Mn757 O781 2.215 . S
Mn757 O783 2.117 . S
C758 O780 1.234 . S
C758 O781 1.283 . S
C759 O771 1.281 . S
C759 O772 1.236 . S
C760 O782 1.240 . S
C760 O783 1.264 . S
O761 Mn756 2.095 . S
O761 C770 1.250 . S
O762 Mn757 2.121 . S
O762 C770 1.258 . S
C763 N764 1.326 . S
C763 C767 1.460 . S
C763 H769 0.929 . S
N764 Mn757 2.257 . S
N764 C763 1.326 . S
N764 C768 1.362 . S
C765 C766 1.258 . S
C765 C768 1.431 . S
C765 C785 1.449 . S
C766 C765 1.258 . S
C766 C767 1.477 . S
C766 H786 0.931 . S
C767 C763 1.460 . S
C767 C766 1.477 . S
C767 H787 0.930 . S
C768 N764 1.362 . S
C768 C765 1.431 . S
C768 C778 1.476 . S
H769 C763 0.929 . S
C770 O761 1.250 . S
C770 O762 1.258 . S
O771 Mn756 2.162 . S
O771 C759 1.281 . S
O772 Mn756 2.297 . S
O772 C759 1.236 . S
N773 Mn757 2.282 . S
N773 C774 1.328 . S
N773 C778 1.318 . S
C774 N773 1.328 . S
C774 C775 1.457 . S
C774 H779 0.929 . S
C775 C774 1.457 . S
C775 C776 1.291 . S
C775 H788 0.931 . S
C776 C775 1.291 . S
C776 C777 1.373 . S
C776 H789 0.929 . S
C777 C776 1.373 . S
C777 C778 1.396 . S
C777 C784 1.403 . S
C778 C768 1.476 . S
C778 N773 1.318 . S
C778 C777 1.396 . S
H779 C774 0.929 . S
O780 Mn756 2.385 . S
O780 C758 1.234 . S
O781 Mn756 2.209 . S
O781 Mn757 2.215 . S
O781 C758 1.283 . S
O782 Mn756 2.094 . S
O782 C760 1.240 . S
O783 Mn757 2.117 . S
O783 C760 1.264 . S
C784 C777 1.403 . S
C784 C785 1.399 . S
C784 H790 0.929 . S
C785 C765 1.449 . S
C785 C784 1.399 . S
C785 H791 0.930 . S
H786 C766 0.931 . S
H787 C767 0.930 . S
H788 C775 0.931 . S
H789 C776 0.929 . S
H790 C784 0.929 . S
H791 C785 0.930 . S
Mn792 O797 2.095 . S
Mn792 O807 2.162 . S
Mn792 O808 2.297 . S
Mn792 O816 2.385 . S
Mn792 O817 2.209 . S
Mn792 O818 2.094 . S
Mn793 O798 2.121 . S
Mn793 N800 2.257 . S
Mn793 N809 2.282 . S
Mn793 O817 2.215 . S
Mn793 O819 2.117 . S
C794 O816 1.234 . S
C794 O817 1.283 . S
C795 O807 1.281 . S
C795 O808 1.236 . S
C796 O818 1.240 . S
C796 O819 1.264 . S
O797 Mn792 2.095 . S
O797 C806 1.250 . S
O798 Mn793 2.121 . S
O798 C806 1.258 . S
C799 N800 1.326 . S
C799 C803 1.460 . S
C799 H805 0.929 . S
N800 Mn793 2.257 . S
N800 C799 1.326 . S
N800 C804 1.362 . S
C801 C802 1.258 . S
C801 C804 1.431 . S
C801 C821 1.449 . S
C802 C801 1.258 . S
C802 C803 1.477 . S
C802 H822 0.931 . S
C803 C799 1.460 . S
C803 C802 1.477 . S
C803 H823 0.930 . S
C804 N800 1.362 . S
C804 C801 1.431 . S
C804 C814 1.476 . S
H805 C799 0.929 . S
C806 O797 1.250 . S
C806 O798 1.258 . S
O807 Mn792 2.162 . S
O807 C795 1.281 . S
O808 Mn792 2.297 . S
O808 C795 1.236 . S
N809 Mn793 2.282 . S
N809 C810 1.328 . S
N809 C814 1.318 . S
C810 N809 1.328 . S
C810 C811 1.457 . S
C810 H815 0.929 . S
C811 C810 1.457 . S
C811 C812 1.291 . S
C811 H824 0.931 . S
C812 C811 1.291 . S
C812 C813 1.373 . S
C812 H825 0.929 . S
C813 C812 1.373 . S
C813 C814 1.396 . S
C813 C820 1.403 . S
C814 C804 1.476 . S
C814 N809 1.318 . S
C814 C813 1.396 . S
H815 C810 0.929 . S
O816 Mn792 2.385 . S
O816 C794 1.234 . S
O817 Mn792 2.209 . S
O817 Mn793 2.215 . S
O817 C794 1.283 . S
O818 Mn792 2.094 . S
O818 C796 1.240 . S
O819 Mn793 2.117 . S
O819 C796 1.264 . S
C820 C813 1.403 . S
C820 C821 1.399 . S
C820 H826 0.929 . S
C821 C801 1.449 . S
C821 C820 1.399 . S
C821 H827 0.930 . S
H822 C802 0.931 . S
H823 C803 0.930 . S
H824 C811 0.931 . S
H825 C812 0.929 . S
H826 C820 0.929 . S
H827 C821 0.930 . S
Mn828 O833 2.095 . S
Mn828 O843 2.162 . S
Mn828 O844 2.297 . S
Mn828 O852 2.385 . S
Mn828 O853 2.209 . S
Mn828 O854 2.094 . S
Mn829 O834 2.121 . S
Mn829 N836 2.257 . S
Mn829 N845 2.282 . S
Mn829 O853 2.215 . S
Mn829 O855 2.117 . S
C830 O852 1.234 . S
C830 O853 1.283 . S
C831 O843 1.281 . S
C831 O844 1.236 . S
C832 O854 1.240 . S
C832 O855 1.264 . S
O833 Mn828 2.095 . S
O833 C842 1.250 . S
O834 Mn829 2.121 . S
O834 C842 1.258 . S
C835 N836 1.326 . S
C835 C839 1.460 . S
C835 H841 0.929 . S
N836 Mn829 2.257 . S
N836 C835 1.326 . S
N836 C840 1.362 . S
C837 C838 1.258 . S
C837 C840 1.431 . S
C837 C857 1.449 . S
C838 C837 1.258 . S
C838 C839 1.477 . S
C838 H858 0.931 . S
C839 C835 1.460 . S
C839 C838 1.477 . S
C839 H859 0.930 . S
C840 N836 1.362 . S
C840 C837 1.431 . S
C840 C850 1.476 . S
H841 C835 0.929 . S
C842 O833 1.250 . S
C842 O834 1.258 . S
O843 Mn828 2.162 . S
O843 C831 1.281 . S
O844 Mn828 2.297 . S
O844 C831 1.236 . S
N845 Mn829 2.282 . S
N845 C846 1.328 . S
N845 C850 1.318 . S
C846 N845 1.328 . S
C846 C847 1.457 . S
C846 H851 0.929 . S
C847 C846 1.457 . S
C847 C848 1.291 . S
C847 H860 0.931 . S
C848 C847 1.291 . S
C848 C849 1.373 . S
C848 H861 0.929 . S
C849 C848 1.373 . S
C849 C850 1.396 . S
C849 C856 1.403 . S
C850 C840 1.476 . S
C850 N845 1.318 . S
C850 C849 1.396 . S
H851 C846 0.929 . S
O852 Mn828 2.385 . S
O852 C830 1.234 . S
O853 Mn828 2.209 . S
O853 Mn829 2.215 . S
O853 C830 1.283 . S
O854 Mn828 2.094 . S
O854 C832 1.240 . S
O855 Mn829 2.117 . S
O855 C832 1.264 . S
C856 C849 1.403 . S
C856 C857 1.399 . S
C856 H862 0.929 . S
C857 C837 1.449 . S
C857 C856 1.399 . S
C857 H863 0.930 . S
H858 C838 0.931 . S
H859 C839 0.930 . S
H860 C847 0.931 . S
H861 C848 0.929 . S
H862 C856 0.929 . S
H863 C857 0.930 . S
Dy864 O868 2.398 . S
Dy864 O869 2.491 1_556 S
Dy864 O870 2.403 1_545 S
Dy864 O871 2.664 1_655 S
Dy864 O875 2.326 . S
Dy864 O879 2.310 1_556 S
Dy864 O880 2.351 1_546 S
C865 O876 1.185 1_565 S
C865 O877 1.355 . S
C866 O868 1.185 . S
C866 O869 1.355 1_556 S
Dy867 O871 2.310 1_554 S
Dy867 O874 2.351 . S
Dy867 O876 2.398 . S
Dy867 O877 2.491 1_545 S
Dy867 O878 2.403 . S
Dy867 O879 2.664 1_455 S
Dy867 O881 2.326 1_545 S
O868 Dy864 2.398 . S
O868 C866 1.185 . S
O869 Dy864 2.491 1_554 S
O869 C866 1.355 1_554 S
O870 Dy864 2.403 1_565 S
O870 C872 1.260 1_665 S
O871 Dy864 2.664 1_455 S
O871 Dy867 2.310 1_556 S
O871 C872 1.271 . S
C872 O870 1.260 1_445 S
C872 O871 1.271 . S
C873 O878 1.254 . S
C873 O879 1.268 1_455 S
O874 Dy867 2.351 . S
O874 C882 1.249 1_554 S
O875 Dy864 2.326 . S
O875 C882 1.267 1_655 S
O876 C865 1.185 1_545 S
O876 Dy867 2.398 . S
O877 C865 1.355 . S
O877 Dy867 2.491 1_565 S
O878 Dy867 2.403 . S
O878 C873 1.254 . S
O879 Dy864 2.310 1_554 S
O879 Dy867 2.664 1_655 S
O879 C873 1.268 1_655 S
O880 Dy864 2.351 1_564 S
O880 C883 1.249 1_655 S
O881 Dy867 2.326 1_565 S
O881 C883 1.267 . S
C882 O874 1.249 1_556 S
C882 O875 1.267 1_455 S
C883 O880 1.249 1_455 S
C883 O881 1.267 . S
Dy884 O888 2.398 . S
Dy884 O889 2.491 . S
Dy884 O890 2.403 . S
Dy884 O891 2.664 . S
Dy884 O895 2.326 . S
Dy884 O899 2.310 . S
Dy884 O900 2.351 . S
C885 O896 1.185 . S
C885 O897 1.355 . S
C886 O888 1.185 . S
C886 O889 1.355 . S
Dy887 O891 2.310 . S
Dy887 O894 2.351 . S
Dy887 O896 2.398 . S
Dy887 O897 2.491 . S
Dy887 O898 2.403 . S
Dy887 O899 2.664 . S
Dy887 O901 2.326 . S
O888 Dy884 2.398 . S
O888 C886 1.185 . S
O889 Dy884 2.491 . S
O889 C886 1.355 . S
O890 Dy884 2.403 . S
O890 C892 1.254 . S
O891 Dy884 2.664 . S
O891 Dy887 2.310 . S
O891 C892 1.268 . S
C892 O890 1.254 . S
C892 O891 1.268 . S
C893 O898 1.254 . S
C893 O899 1.268 . S
O894 Dy887 2.351 . S
O894 C902 1.249 . S
O895 Dy884 2.326 . S
O895 C902 1.267 . S
O896 C885 1.185 . S
O896 Dy887 2.398 . S
O897 C885 1.355 . S
O897 Dy887 2.491 . S
O898 Dy887 2.403 . S
O898 C893 1.254 . S
O899 Dy884 2.310 . S
O899 Dy887 2.664 . S
O899 C893 1.268 . S
O900 Dy884 2.351 . S
O900 C903 1.249 . S
O901 Dy887 2.326 . S
O901 C903 1.267 . S
C902 O894 1.249 . S
C902 O895 1.267 . S
C903 O900 1.249 . S
C903 O901 1.267 . S
Dy904 O908 2.398 . S
Dy904 O909 2.494 1_545 S
Dy904 O910 2.403 . S
Dy904 O911 2.664 . S
Dy904 O915 2.326 1_545 S
Dy904 O919 2.310 . S
Dy904 O920 2.351 . S
C905 O916 1.185 . S
C905 O917 1.355 . S
C906 O908 1.185 1_565 S
C906 O909 1.355 . S
Dy907 O911 2.310 . S
Dy907 O914 2.351 1_545 S
Dy907 O916 2.398 . S
Dy907 O917 2.491 . S
Dy907 O918 2.403 . S
Dy907 O919 2.664 . S
Dy907 O921 2.326 . S
O908 Dy904 2.398 . S
O908 C906 1.185 1_545 S
O909 Dy904 2.494 1_565 S
O909 C906 1.355 . S
O910 Dy904 2.403 . S
O910 C912 1.254 . S
O911 Dy904 2.664 . S
O911 Dy907 2.310 . S
O911 C912 1.268 . S
C912 O910 1.254 . S
C912 O911 1.268 . S
C913 O918 1.254 . S
C913 O919 1.268 . S
O914 Dy907 2.351 1_565 S
O914 C922 1.249 . S
O915 Dy904 2.326 1_565 S
O915 C922 1.267 . S
O916 C905 1.185 . S
O916 Dy907 2.398 . S
O917 C905 1.355 . S
O917 Dy907 2.491 . S
O918 Dy907 2.403 . S
O918 C913 1.254 . S
O919 Dy904 2.310 . S
O919 Dy907 2.664 . S
O919 C913 1.268 . S
O920 Dy904 2.351 . S
O920 C923 1.249 . S
O921 Dy907 2.326 . S
O921 C923 1.267 . S
C922 O914 1.249 . S
C922 O915 1.267 . S
C923 O920 1.249 . S
C923 O921 1.267 . S
Dy924 O928 2.398 . S
Dy924 O929 2.491 . S
Dy924 O930 2.403 . S
Dy924 O931 2.664 . S
Dy924 O935 2.326 . S
Dy924 O939 2.310 . S
Dy924 O940 2.351 . S
C925 O936 1.185 . S
C925 O937 1.355 . S
C926 O928 1.185 . S
C926 O929 1.355 . S
Dy927 O931 2.310 . S
Dy927 O934 2.351 . S
Dy927 O936 2.398 . S
Dy927 O937 2.491 . S
Dy927 O938 2.403 . S
Dy927 O939 2.664 . S
Dy927 O941 2.326 . S
O928 Dy924 2.398 . S
O928 C926 1.185 . S
O929 Dy924 2.491 . S
O929 C926 1.355 . S
O930 Dy924 2.403 . S
O930 C932 1.254 . S
O931 Dy924 2.664 . S
O931 Dy927 2.310 . S
O931 C932 1.268 . S
C932 O930 1.254 . S
C932 O931 1.268 . S
C933 O938 1.254 . S
C933 O939 1.268 . S
O934 Dy927 2.351 . S
O934 C942 1.249 . S
O935 Dy924 2.326 . S
O935 C942 1.267 . S
O936 C925 1.185 . S
O936 Dy927 2.398 . S
O937 C925 1.355 . S
O937 Dy927 2.491 . S
O938 Dy927 2.403 . S
O938 C933 1.254 . S
O939 Dy924 2.310 . S
O939 Dy927 2.664 . S
O939 C933 1.268 . S
O940 Dy924 2.351 . S
O940 C943 1.249 . S
O941 Dy927 2.326 . S
O941 C943 1.267 . S
C942 O934 1.249 . S
C942 O935 1.267 . S
C943 O940 1.249 . S
C943 O941 1.267 . S
Dy944 O948 2.398 . S
Dy944 O949 2.491 1_455 S
Dy944 O950 2.403 . S
Dy944 O951 2.664 . S
Dy944 O955 2.326 . S
Dy944 O959 2.310 1_455 S
Dy944 O960 2.351 1_545 S
C945 O956 1.185 . S
C945 O957 1.355 . S
C946 O948 1.185 1_655 S
C946 O949 1.355 . S
Dy947 O951 2.310 . S
Dy947 O954 2.351 . S
Dy947 O956 2.398 . S
Dy947 O957 2.491 . S
Dy947 O958 2.403 1_455 S
Dy947 O959 2.664 1_455 S
Dy947 O961 2.326 1_545 S
O948 Dy944 2.398 . S
O948 C946 1.185 1_455 S
O949 Dy944 2.491 1_655 S
O949 C946 1.355 . S
O950 Dy944 2.403 . S
O950 C952 1.254 . S
O951 Dy944 2.664 . S
O951 Dy947 2.310 . S
O951 C952 1.268 . S
C952 O950 1.254 . S
C952 O951 1.268 . S
C953 O958 1.254 . S
C953 O959 1.268 . S
O954 Dy947 2.351 . S
O954 C962 1.249 . S
O955 Dy944 2.326 . S
O955 C962 1.267 . S
O956 C945 1.185 . S
O956 Dy947 2.398 . S
O957 C945 1.355 . S
O957 Dy947 2.491 . S
O958 Dy947 2.403 1_655 S
O958 C953 1.254 . S
O959 Dy944 2.310 1_655 S
O959 Dy947 2.664 1_655 S
O959 C953 1.268 . S
O960 Dy944 2.351 1_565 S
O960 C963 1.249 . S
O961 Dy947 2.326 1_565 S
O961 C963 1.267 . S
C962 O954 1.249 . S
C962 O955 1.267 . S
C963 O960 1.249 . S
C963 O961 1.267 . S
Dy964 O968 2.398 . S
Dy964 O969 2.491 . S
Dy964 O970 2.403 . S
Dy964 O971 2.664 . S
Dy964 O975 2.326 . S
Dy964 O979 2.310 . S
Dy964 O980 2.351 . S
C965 O976 1.185 . S
C965 O977 1.355 . S
C966 O968 1.185 . S
C966 O969 1.355 . S
Dy967 O971 2.310 . S
Dy967 O974 2.351 . S
Dy967 O976 2.398 . S
Dy967 O977 2.491 . S
Dy967 O978 2.403 . S
Dy967 O979 2.664 . S
Dy967 O981 2.326 . S
O968 Dy964 2.398 . S
O968 C966 1.185 . S
O969 Dy964 2.491 . S
O969 C966 1.355 . S
O970 Dy964 2.403 . S
O970 C972 1.254 . S
O971 Dy964 2.664 . S
O971 Dy967 2.310 . S
O971 C972 1.268 . S
C972 O970 1.254 . S
C972 O971 1.268 . S
C973 O978 1.254 . S
C973 O979 1.268 . S
O974 Dy967 2.351 . S
O974 C982 1.249 . S
O975 Dy964 2.326 . S
O975 C982 1.267 . S
O976 C965 1.185 . S
O976 Dy967 2.398 . S
O977 C965 1.355 . S
O977 Dy967 2.491 . S
O978 Dy967 2.403 . S
O978 C973 1.254 . S
O979 Dy964 2.310 . S
O979 Dy967 2.664 . S
O979 C973 1.268 . S
O980 Dy964 2.351 . S
O980 C983 1.249 . S
O981 Dy967 2.326 . S
O981 C983 1.267 . S
C982 O974 1.249 . S
C982 O975 1.267 . S
C983 O980 1.249 . S
C983 O981 1.267 . S
Dy984 O988 2.398 1_545 S
Dy984 O989 2.491 . S
Dy984 O990 2.403 1_545 S
Dy984 O991 2.664 1_554 S
Dy984 O995 2.327 . S
Dy984 O999 2.310 . S
Dy984 O1000 2.351 . S
C985 O996 1.185 . S
C985 O997 1.355 . S
C986 O988 1.185 1_545 S
C986 O989 1.355 . S
Dy987 O991 2.310 . S
Dy987 O994 2.351 . S
Dy987 O996 2.398 . S
Dy987 O997 2.491 . S
Dy987 O998 2.403 . S
Dy987 O999 2.664 1_556 S
Dy987 O1001 2.326 . S
O988 Dy984 2.398 1_565 S
O988 C986 1.185 1_565 S
O989 Dy984 2.491 . S
O989 C986 1.355 . S
O990 Dy984 2.403 1_565 S
O990 C992 1.226 1_554 S
O991 Dy984 2.664 1_556 S
O991 Dy987 2.310 . S
O991 C992 1.278 1_545 S
C992 O990 1.226 1_556 S
C992 O991 1.278 1_565 S
C993 O998 1.254 1_554 S
C993 O999 1.268 . S
O994 Dy987 2.351 . S
O994 C1002 1.249 1_556 S
O995 Dy984 2.327 . S
O995 C1002 1.270 . S
O996 C985 1.185 . S
O996 Dy987 2.398 . S
O997 C985 1.355 . S
O997 Dy987 2.491 . S
O998 Dy987 2.403 . S
O998 C993 1.254 1_556 S
O999 Dy984 2.310 . S
O999 Dy987 2.664 1_554 S
O999 C993 1.268 . S
O1000 Dy984 2.351 . S
O1000 C1003 1.249 . S
O1001 Dy987 2.326 . S
O1001 C1003 1.267 1_556 S
C1002 O994 1.249 1_554 S
C1002 O995 1.270 . S
C1003 O1000 1.249 . S
C1003 O1001 1.267 1_554 S
Dy1004 O1008 2.398 . S
Dy1004 O1009 2.491 . S
Dy1004 O1010 2.403 . S
Dy1004 O1011 2.664 . S
Dy1004 O1015 2.326 . S
Dy1004 O1019 2.310 . S
Dy1004 O1020 2.351 . S
C1005 O1016 1.185 . S
C1005 O1017 1.355 . S
C1006 O1008 1.185 . S
C1006 O1009 1.355 . S
Dy1007 O1011 2.310 . S
Dy1007 O1014 2.351 . S
Dy1007 O1016 2.398 . S
Dy1007 O1017 2.491 . S
Dy1007 O1018 2.403 . S
Dy1007 O1019 2.664 . S
Dy1007 O1021 2.326 . S
O1008 Dy1004 2.398 . S
O1008 C1006 1.185 . S
O1009 Dy1004 2.491 . S
O1009 C1006 1.355 . S
O1010 Dy1004 2.403 . S
O1010 C1012 1.254 . S
O1011 Dy1004 2.664 . S
O1011 Dy1007 2.310 . S
O1011 C1012 1.268 . S
C1012 O1010 1.254 . S
C1012 O1011 1.268 . S
C1013 O1018 1.254 . S
C1013 O1019 1.268 . S
O1014 Dy1007 2.351 . S
O1014 C1022 1.249 . S
O1015 Dy1004 2.326 . S
O1015 C1022 1.267 . S
O1016 C1005 1.185 . S
O1016 Dy1007 2.398 . S
O1017 C1005 1.355 . S
O1017 Dy1007 2.491 . S
O1018 Dy1007 2.403 . S
O1018 C1013 1.254 . S
O1019 Dy1004 2.310 . S
O1019 Dy1007 2.664 . S
O1019 C1013 1.268 . S
O1020 Dy1004 2.351 . S
O1020 C1023 1.249 . S
O1021 Dy1007 2.326 . S
O1021 C1023 1.267 . S
C1022 O1014 1.249 . S
C1022 O1015 1.267 . S
C1023 O1020 1.249 . S
C1023 O1021 1.267 . S
Dy1024 O1028 2.398 . S
Dy1024 O1029 2.491 . S
Dy1024 O1030 2.403 . S
Dy1024 O1031 2.664 1_556 S
Dy1024 O1035 2.326 . S
Dy1024 O1039 2.310 1_556 S
Dy1024 O1040 2.350 . S
C1025 O1036 1.185 . S
C1025 O1037 1.355 . S
C1026 O1028 1.185 . S
C1026 O1029 1.355 . S
Dy1027 O1031 2.310 . S
Dy1027 O1034 2.351 . S
Dy1027 O1036 2.398 . S
Dy1027 O1037 2.491 . S
Dy1027 O1038 2.403 . S
Dy1027 O1039 2.664 . S
Dy1027 O1041 2.326 . S
O1028 Dy1024 2.398 . S
O1028 C1026 1.185 . S
O1029 Dy1024 2.491 . S
O1029 C1026 1.355 . S
O1030 Dy1024 2.403 . S
O1030 C1032 1.254 . S
O1031 Dy1024 2.664 1_554 S
O1031 Dy1027 2.310 . S
O1031 C1032 1.268 1_554 S
C1032 O1030 1.254 . S
C1032 O1031 1.268 1_556 S
C1033 O1038 1.254 . S
C1033 O1039 1.268 . S
O1034 Dy1027 2.351 . S
O1034 C1042 1.249 1_554 S
O1035 Dy1024 2.326 . S
O1035 C1042 1.267 . S
O1036 C1025 1.185 . S
O1036 Dy1027 2.398 . S
O1037 C1025 1.355 . S
O1037 Dy1027 2.491 . S
O1038 Dy1027 2.403 . S
O1038 C1033 1.254 . S
O1039 Dy1024 2.310 1_554 S
O1039 Dy1027 2.664 . S
O1039 C1033 1.268 . S
O1040 Dy1024 2.350 . S
O1040 C1043 1.251 1_556 S
O1041 Dy1027 2.326 . S
O1041 C1043 1.267 . S
C1042 O1034 1.249 1_556 S
C1042 O1035 1.267 . S
C1043 O1040 1.251 1_554 S
C1043 O1041 1.267 . S
Dy1044 O1048 2.398 . S
Dy1044 O1049 2.491 . S
Dy1044 O1050 2.403 . S
Dy1044 O1051 2.664 . S
Dy1044 O1055 2.326 . S
Dy1044 O1059 2.310 . S
Dy1044 O1060 2.351 . S
C1045 O1056 1.185 . S
C1045 O1057 1.355 . S
C1046 O1048 1.185 . S
C1046 O1049 1.355 . S
Dy1047 O1051 2.310 . S
Dy1047 O1054 2.351 . S
Dy1047 O1056 2.398 . S
Dy1047 O1057 2.491 . S
Dy1047 O1058 2.403 . S
Dy1047 O1059 2.664 . S
Dy1047 O1061 2.326 . S
O1048 Dy1044 2.398 . S
O1048 C1046 1.185 . S
O1049 Dy1044 2.491 . S
O1049 C1046 1.355 . S
O1050 Dy1044 2.403 . S
O1050 C1052 1.254 . S
O1051 Dy1044 2.664 . S
O1051 Dy1047 2.310 . S
O1051 C1052 1.268 . S
C1052 O1050 1.254 . S
C1052 O1051 1.268 . S
C1053 O1058 1.254 . S
C1053 O1059 1.268 . S
O1054 Dy1047 2.351 . S
O1054 C1062 1.249 . S
O1055 Dy1044 2.326 . S
O1055 C1062 1.267 . S
O1056 C1045 1.185 . S
O1056 Dy1047 2.398 . S
O1057 C1045 1.355 . S
O1057 Dy1047 2.491 . S
O1058 Dy1047 2.403 . S
O1058 C1053 1.254 . S
O1059 Dy1044 2.310 . S
O1059 Dy1047 2.664 . S
O1059 C1053 1.268 . S
O1060 Dy1044 2.351 . S
O1060 C1063 1.249 . S
O1061 Dy1047 2.326 . S
O1061 C1063 1.267 . S
C1062 O1054 1.249 . S
C1062 O1055 1.267 . S
C1063 O1060 1.249 . S
C1063 O1061 1.267 . S
Dy1064 O1068 2.411 . S
Dy1064 O1069 2.491 1_455 S
Dy1064 O1070 2.403 . S
Dy1064 O1071 2.664 . S
Dy1064 O1075 2.326 1_455 S
Dy1064 O1079 2.310 . S
Dy1064 O1080 2.351 . S
C1065 O1076 1.185 . S
C1065 O1077 1.355 . S
C1066 O1068 1.159 1_655 S
C1066 O1069 1.355 . S
Dy1067 O1071 2.310 . S
Dy1067 O1074 2.351 1_455 S
Dy1067 O1076 2.398 . S
Dy1067 O1077 2.491 . S
Dy1067 O1078 2.403 . S
Dy1067 O1079 2.664 . S
Dy1067 O1081 2.326 . S
O1068 Dy1064 2.411 . S
O1068 C1066 1.159 1_455 S
O1069 Dy1064 2.491 1_655 S
O1069 C1066 1.355 . S
O1070 Dy1064 2.403 . S
O1070 C1072 1.254 . S
O1071 Dy1064 2.664 . S
O1071 Dy1067 2.310 . S
O1071 C1072 1.268 . S
C1072 O1070 1.254 . S
C1072 O1071 1.268 . S
C1073 O1078 1.254 . S
C1073 O1079 1.268 . S
O1074 Dy1067 2.351 1_655 S
O1074 C1082 1.249 . S
O1075 Dy1064 2.326 1_655 S
O1075 C1082 1.267 . S
O1076 C1065 1.185 . S
O1076 Dy1067 2.398 . S
O1077 C1065 1.355 . S
O1077 Dy1067 2.491 . S
O1078 Dy1067 2.403 . S
O1078 C1073 1.254 . S
O1079 Dy1064 2.310 . S
O1079 Dy1067 2.664 . S
O1079 C1073 1.268 . S
O1080 Dy1064 2.351 . S
O1080 C1083 1.249 . S
O1081 Dy1067 2.326 . S
O1081 C1083 1.267 . S
C1082 O1074 1.249 . S
C1082 O1075 1.267 . S
C1083 O1080 1.249 . S
C1083 O1081 1.267 . S
Dy1084 O1088 2.398 . S
Dy1084 O1089 2.491 . S
Dy1084 O1090 2.403 . S
Dy1084 O1091 2.664 . S
Dy1084 O1095 2.326 . S
Dy1084 O1099 2.310 . S
Dy1084 O1100 2.351 . S
C1085 O1096 1.185 . S
C1085 O1097 1.355 . S
C1086 O1088 1.185 . S
C1086 O1089 1.355 . S
Dy1087 O1091 2.310 . S
Dy1087 O1094 2.351 . S
Dy1087 O1096 2.398 . S
Dy1087 O1097 2.491 . S
Dy1087 O1098 2.403 . S
Dy1087 O1099 2.664 . S
Dy1087 O1101 2.326 . S
O1088 Dy1084 2.398 . S
O1088 C1086 1.185 . S
O1089 Dy1084 2.491 . S
O1089 C1086 1.355 . S
O1090 Dy1084 2.403 . S
O1090 C1092 1.254 . S
O1091 Dy1084 2.664 . S
O1091 Dy1087 2.310 . S
O1091 C1092 1.268 . S
C1092 O1090 1.254 . S
C1092 O1091 1.268 . S
C1093 O1098 1.254 . S
C1093 O1099 1.268 . S
O1094 Dy1087 2.351 . S
O1094 C1102 1.249 . S
O1095 Dy1084 2.326 . S
O1095 C1102 1.267 . S
O1096 C1085 1.185 . S
O1096 Dy1087 2.398 . S
O1097 C1085 1.355 . S
O1097 Dy1087 2.491 . S
O1098 Dy1087 2.403 . S
O1098 C1093 1.254 . S
O1099 Dy1084 2.310 . S
O1099 Dy1087 2.664 . S
O1099 C1093 1.268 . S
O1100 Dy1084 2.351 . S
O1100 C1103 1.249 . S
O1101 Dy1087 2.326 . S
O1101 C1103 1.267 . S
C1102 O1094 1.249 . S
C1102 O1095 1.267 . S
C1103 O1100 1.249 . S
C1103 O1101 1.267 . S
Dy1104 O1108 2.398 . S
Dy1104 O1109 2.491 . S
Dy1104 O1110 2.403 . S
Dy1104 O1111 2.664 . S
Dy1104 O1115 2.326 . S
Dy1104 O1119 2.310 . S
Dy1104 O1120 2.351 . S
C1105 O1116 1.185 . S
C1105 O1117 1.355 . S
C1106 O1108 1.185 . S
C1106 O1109 1.355 . S
Dy1107 O1111 2.310 . S
Dy1107 O1114 2.351 . S
Dy1107 O1116 2.398 . S
Dy1107 O1117 2.491 . S
Dy1107 O1118 2.403 . S
Dy1107 O1119 2.664 . S
Dy1107 O1121 2.326 . S
O1108 Dy1104 2.398 . S
O1108 C1106 1.185 . S
O1109 Dy1104 2.491 . S
O1109 C1106 1.355 . S
O1110 Dy1104 2.403 . S
O1110 C1112 1.254 . S
O1111 Dy1104 2.664 . S
O1111 Dy1107 2.310 . S
O1111 C1112 1.268 . S
C1112 O1110 1.254 . S
C1112 O1111 1.268 . S
C1113 O1118 1.254 . S
C1113 O1119 1.268 . S
O1114 Dy1107 2.351 . S
O1114 C1122 1.249 . S
O1115 Dy1104 2.326 . S
O1115 C1122 1.267 . S
O1116 C1105 1.185 . S
O1116 Dy1107 2.398 . S
O1117 C1105 1.355 . S
O1117 Dy1107 2.491 . S
O1118 Dy1107 2.403 . S
O1118 C1113 1.254 . S
O1119 Dy1104 2.310 . S
O1119 Dy1107 2.664 . S
O1119 C1113 1.268 . S
O1120 Dy1104 2.351 . S
O1120 C1123 1.249 . S
O1121 Dy1107 2.326 . S
O1121 C1123 1.267 . S
C1122 O1114 1.249 . S
C1122 O1115 1.267 . S
C1123 O1120 1.249 . S
C1123 O1121 1.267 . S
Dy1124 O1128 2.398 . S
Dy1124 O1129 2.491 . S
Dy1124 O1130 2.403 . S
Dy1124 O1131 2.664 . S
Dy1124 O1135 2.326 . S
Dy1124 O1139 2.310 . S
Dy1124 O1140 2.351 . S
C1125 O1136 1.185 . S
C1125 O1137 1.355 . S
C1126 O1128 1.185 . S
C1126 O1129 1.355 . S
Dy1127 O1131 2.310 . S
Dy1127 O1134 2.351 . S
Dy1127 O1136 2.398 . S
Dy1127 O1137 2.491 . S
Dy1127 O1138 2.403 . S
Dy1127 O1139 2.664 . S
Dy1127 O1141 2.326 . S
O1128 Dy1124 2.398 . S
O1128 C1126 1.185 . S
O1129 Dy1124 2.491 . S
O1129 C1126 1.355 . S
O1130 Dy1124 2.403 . S
O1130 C1132 1.254 . S
O1131 Dy1124 2.664 . S
O1131 Dy1127 2.310 . S
O1131 C1132 1.268 . S
C1132 O1130 1.254 . S
C1132 O1131 1.268 . S
C1133 O1138 1.254 . S
C1133 O1139 1.268 . S
O1134 Dy1127 2.351 . S
O1134 C1142 1.249 . S
O1135 Dy1124 2.326 . S
O1135 C1142 1.267 . S
O1136 C1125 1.185 . S
O1136 Dy1127 2.398 . S
O1137 C1125 1.355 . S
O1137 Dy1127 2.491 . S
O1138 Dy1127 2.403 . S
O1138 C1133 1.254 . S
O1139 Dy1124 2.310 . S
O1139 Dy1127 2.664 . S
O1139 C1133 1.268 . S
O1140 Dy1124 2.351 . S
O1140 C1143 1.249 . S
O1141 Dy1127 2.326 . S
O1141 C1143 1.267 . S
C1142 O1134 1.249 . S
C1142 O1135 1.267 . S
C1143 O1140 1.249 . S
C1143 O1141 1.267 . S
Dy1144 O1148 2.398 . S
Dy1144 O1149 2.491 . S
Dy1144 O1150 2.403 . S
Dy1144 O1151 2.664 . S
Dy1144 O1155 2.326 . S
Dy1144 O1159 2.310 . S
Dy1144 O1160 2.351 . S
C1145 O1156 1.185 . S
C1145 O1157 1.355 . S
C1146 O1148 1.185 . S
C1146 O1149 1.355 . S
Dy1147 O1151 2.310 . S
Dy1147 O1154 2.351 . S
Dy1147 O1156 2.398 . S
Dy1147 O1157 2.491 . S
Dy1147 O1158 2.403 . S
Dy1147 O1159 2.664 . S
Dy1147 O1161 2.326 . S
O1148 Dy1144 2.398 . S
O1148 C1146 1.185 . S
O1149 Dy1144 2.491 . S
O1149 C1146 1.355 . S
O1150 Dy1144 2.403 . S
O1150 C1152 1.254 . S
O1151 Dy1144 2.664 . S
O1151 Dy1147 2.310 . S
O1151 C1152 1.268 . S
C1152 O1150 1.254 . S
C1152 O1151 1.268 . S
C1153 O1158 1.254 . S
C1153 O1159 1.268 . S
O1154 Dy1147 2.351 . S
O1154 C1162 1.249 . S
O1155 Dy1144 2.326 . S
O1155 C1162 1.267 . S
O1156 C1145 1.185 . S
O1156 Dy1147 2.398 . S
O1157 C1145 1.355 . S
O1157 Dy1147 2.491 . S
O1158 Dy1147 2.403 . S
O1158 C1153 1.254 . S
O1159 Dy1144 2.310 . S
O1159 Dy1147 2.664 . S
O1159 C1153 1.268 . S
O1160 Dy1144 2.351 . S
O1160 C1163 1.249 . S
O1161 Dy1147 2.326 . S
O1161 C1163 1.267 . S
C1162 O1154 1.249 . S
C1162 O1155 1.267 . S
C1163 O1160 1.249 . S
C1163 O1161 1.267 . S
Dy1164 O1168 2.398 . S
Dy1164 O1169 2.491 1_556 S
Dy1164 O1170 2.403 . S
Dy1164 O1171 2.664 . S
Dy1164 O1175 2.326 . S
Dy1164 O1179 2.310 1_556 S
Dy1164 O1180 2.351 1_556 S
C1165 O1176 1.185 . S
C1165 O1177 1.355 . S
C1166 O1168 1.185 . S
C1166 O1169 1.355 1_556 S
Dy1167 O1171 2.310 1_654 S
Dy1167 O1174 2.351 . S
Dy1167 O1176 2.398 . S
Dy1167 O1177 2.491 . S
Dy1167 O1178 2.403 . S
Dy1167 O1179 2.664 1_655 S
Dy1167 O1181 2.326 1_655 S
O1168 Dy1164 2.398 . S
O1168 C1166 1.185 . S
O1169 Dy1164 2.491 1_554 S
O1169 C1166 1.355 1_554 S
O1170 Dy1164 2.403 . S
O1170 C1172 1.254 . S
O1171 Dy1164 2.664 . S
O1171 Dy1167 2.310 1_456 S
O1171 C1172 1.268 . S
C1172 O1170 1.254 . S
C1172 O1171 1.268 . S
C1173 O1178 1.254 1_455 S
C1173 O1179 1.268 . S
O1174 Dy1167 2.351 . S
O1174 C1182 1.249 1_654 S
O1175 Dy1164 2.326 . S
O1175 C1182 1.267 . S
O1176 C1165 1.185 . S
O1176 Dy1167 2.398 . S
O1177 C1165 1.355 . S
O1177 Dy1167 2.491 . S
O1178 Dy1167 2.403 . S
O1178 C1173 1.254 1_655 S
O1179 Dy1164 2.310 1_554 S
O1179 Dy1167 2.664 1_455 S
O1179 C1173 1.268 . S
O1180 Dy1164 2.351 1_554 S
O1180 C1183 1.249 . S
O1181 Dy1167 2.326 1_455 S
O1181 C1183 1.267 . S
C1182 O1174 1.249 1_456 S
C1182 O1175 1.267 . S
C1183 O1180 1.249 . S
C1183 O1181 1.267 . S
H1184 C1190 0.930 . S
H1185 C1193 0.930 . S
H1186 C1194 0.930 . S
H1187 C1195 0.930 . S
H1188 C1198 0.930 . S
H1189 C1199 0.930 . S
C1190 H1184 0.930 . S
C1190 C1191 1.355 1_455 S
C1190 C1192 1.415 . S
C1191 C1190 1.355 1_655 S
C1191 C1193 1.419 . S
C1192 C1190 1.415 . S
C1192 C1197 1.425 1_455 S
C1192 C1199 1.409 . S
C1193 H1185 0.930 . S
C1193 C1191 1.419 . S
C1193 C1194 1.362 . S
C1194 H1186 0.930 . S
C1194 C1193 1.362 . S
C1194 C1197 1.409 . S
C1195 H1187 0.930 . S
C1195 C1196 1.355 1_655 S
C1195 C1197 1.415 . S
C1196 C1195 1.355 1_455 S
C1196 C1198 1.419 . S
C1197 C1192 1.425 1_655 S
C1197 C1194 1.409 . S
C1197 C1195 1.415 . S
C1198 H1188 0.930 . S
C1198 C1196 1.419 . S
C1198 C1199 1.362 . S
C1199 H1189 0.930 . S
C1199 C1192 1.409 . S
C1199 C1198 1.362 . S
H1200 C1206 0.930 . S
H1201 C1209 0.930 . S
H1202 C1210 0.930 . S
H1203 C1211 0.930 . S
H1204 C1214 0.930 . S
H1205 C1215 0.930 . S
C1206 H1200 0.930 . S
C1206 C1207 1.355 . S
C1206 C1208 1.415 . S
C1207 C1206 1.355 . S
C1207 C1209 1.419 . S
C1208 C1206 1.415 . S
C1208 C1213 1.425 . S
C1208 C1215 1.409 . S
C1209 H1201 0.930 . S
C1209 C1207 1.419 . S
C1209 C1210 1.362 . S
C1210 H1202 0.930 . S
C1210 C1209 1.362 . S
C1210 C1213 1.409 . S
C1211 H1203 0.930 . S
C1211 C1212 1.355 . S
C1211 C1213 1.415 . S
C1212 C1211 1.355 . S
C1212 C1214 1.419 . S
C1213 C1208 1.425 . S
C1213 C1210 1.409 . S
C1213 C1211 1.415 . S
C1214 H1204 0.930 . S
C1214 C1212 1.419 . S
C1214 C1215 1.362 . S
C1215 H1205 0.930 . S
C1215 C1208 1.409 . S
C1215 C1214 1.362 . S
H1216 C1222 0.930 . S
H1217 C1225 0.930 . S
H1218 C1226 0.930 . S
H1219 C1227 0.930 . S
H1220 C1230 0.930 . S
H1221 C1231 0.930 . S
C1222 H1216 0.930 . S
C1222 C1223 1.355 . S
C1222 C1224 1.415 . S
C1223 C1222 1.355 . S
C1223 C1225 1.419 . S
C1224 C1222 1.415 . S
C1224 C1229 1.425 . S
C1224 C1231 1.409 . S
C1225 H1217 0.930 . S
C1225 C1223 1.419 . S
C1225 C1226 1.362 . S
C1226 H1218 0.930 . S
C1226 C1225 1.362 . S
C1226 C1229 1.409 . S
C1227 H1219 0.930 . S
C1227 C1228 1.355 . S
C1227 C1229 1.415 . S
C1228 C1227 1.355 . S
C1228 C1230 1.419 . S
C1229 C1224 1.425 . S
C1229 C1226 1.409 . S
C1229 C1227 1.415 . S
C1230 H1220 0.930 . S
C1230 C1228 1.419 . S
C1230 C1231 1.362 . S
C1231 H1221 0.930 . S
C1231 C1224 1.409 . S
C1231 C1230 1.362 . S
H1232 C1238 0.930 . S
H1233 C1241 0.930 . S
H1234 C1242 0.930 . S
H1235 C1243 0.930 . S
H1236 C1246 0.930 . S
H1237 C1247 0.930 . S
C1238 H1232 0.930 . S
C1238 C1239 1.355 . S
C1238 C1240 1.415 . S
C1239 C1238 1.355 . S
C1239 C1241 1.419 . S
C1240 C1238 1.415 . S
C1240 C1245 1.425 . S
C1240 C1247 1.409 . S
C1241 H1233 0.930 . S
C1241 C1239 1.419 . S
C1241 C1242 1.362 . S
C1242 H1234 0.930 . S
C1242 C1241 1.362 . S
C1242 C1245 1.409 . S
C1243 H1235 0.930 . S
C1243 C1244 1.355 . S
C1243 C1245 1.415 . S
C1244 C1243 1.355 . S
C1244 C1246 1.419 . S
C1245 C1240 1.425 . S
C1245 C1242 1.409 . S
C1245 C1243 1.415 . S
C1246 H1236 0.930 . S
C1246 C1244 1.419 . S
C1246 C1247 1.362 . S
C1247 H1237 0.930 . S
C1247 C1240 1.409 . S
C1247 C1246 1.362 . S
H1248 C1254 0.930 . S
H1249 C1257 0.930 . S
H1250 C1258 0.930 . S
H1251 C1259 0.930 1_655 S
H1252 C1262 0.930 . S
H1253 C1263 0.930 . S
C1254 H1248 0.930 . S
C1254 C1255 1.355 . S
C1254 C1256 1.415 . S
C1255 C1254 1.355 . S
C1255 C1257 1.419 1_455 S
C1256 C1254 1.415 . S
C1256 C1261 1.425 . S
C1256 C1263 1.409 . S
C1257 H1249 0.930 . S
C1257 C1255 1.419 1_655 S
C1257 C1258 1.362 . S
C1258 H1250 0.930 . S
C1258 C1257 1.362 . S
C1258 C1261 1.409 1_655 S
C1259 H1251 0.930 1_455 S
C1259 C1260 1.355 . S
C1259 C1261 1.415 . S
C1260 C1259 1.355 . S
C1260 C1262 1.419 . S
C1261 C1256 1.425 . S
C1261 C1258 1.409 1_455 S
C1261 C1259 1.415 . S
C1262 H1252 0.930 . S
C1262 C1260 1.419 . S
C1262 C1263 1.362 . S
C1263 H1253 0.930 . S
C1263 C1256 1.409 . S
C1263 C1262 1.362 . S
H1264 C1270 0.930 . S
H1265 C1273 0.930 . S
H1266 C1274 0.930 . S
H1267 C1275 0.930 . S
H1268 C1278 0.930 . S
H1269 C1279 0.930 . S
C1270 H1264 0.930 . S
C1270 C1271 1.355 . S
C1270 C1272 1.415 . S
C1271 C1270 1.355 . S
C1271 C1273 1.419 . S
C1272 C1270 1.415 . S
C1272 C1277 1.425 . S
C1272 C1279 1.409 . S
C1273 H1265 0.930 . S
C1273 C1271 1.419 . S
C1273 C1274 1.362 . S
C1274 H1266 0.930 . S
C1274 C1273 1.362 . S
C1274 C1277 1.409 . S
C1275 H1267 0.930 . S
C1275 C1276 1.355 . S
C1275 C1277 1.415 . S
C1276 C1275 1.355 . S
C1276 C1278 1.419 . S
C1277 C1272 1.425 . S
C1277 C1274 1.409 . S
C1277 C1275 1.415 . S
C1278 H1268 0.930 . S
C1278 C1276 1.419 . S
C1278 C1279 1.362 . S
C1279 H1269 0.930 . S
C1279 C1272 1.409 . S
C1279 C1278 1.362 . S
H1280 C1286 0.930 . S
H1281 C1289 0.930 . S
H1282 C1290 0.930 . S
H1283 C1291 0.930 . S
H1284 C1294 0.930 . S
H1285 C1295 0.930 . S
C1286 H1280 0.930 . S
C1286 C1287 1.355 . S
C1286 C1288 1.415 . S
C1287 C1286 1.355 . S
C1287 C1289 1.419 . S
C1288 C1286 1.415 . S
C1288 C1293 1.425 . S
C1288 C1295 1.409 . S
C1289 H1281 0.930 . S
C1289 C1287 1.419 . S
C1289 C1290 1.362 . S
C1290 H1282 0.930 . S
C1290 C1289 1.362 . S
C1290 C1293 1.409 . S
C1291 H1283 0.930 . S
C1291 C1292 1.355 . S
C1291 C1293 1.415 . S
C1292 C1291 1.355 . S
C1292 C1294 1.419 . S
C1293 C1288 1.425 . S
C1293 C1290 1.409 . S
C1293 C1291 1.415 . S
C1294 H1284 0.930 . S
C1294 C1292 1.419 . S
C1294 C1295 1.362 . S
C1295 H1285 0.930 . S
C1295 C1288 1.409 . S
C1295 C1294 1.362 . S
H1296 C1302 0.930 . S
H1297 C1305 0.930 . S
H1298 C1306 0.930 . S
H1299 C1307 0.930 . S
H1300 C1310 0.930 . S
H1301 C1311 0.930 . S
C1302 H1296 0.930 . S
C1302 C1303 1.355 . S
C1302 C1304 1.415 . S
C1303 C1302 1.355 . S
C1303 C1305 1.419 . S
C1304 C1302 1.415 . S
C1304 C1309 1.425 . S
C1304 C1311 1.409 . S
C1305 H1297 0.930 . S
C1305 C1303 1.419 . S
C1305 C1306 1.362 . S
C1306 H1298 0.930 . S
C1306 C1305 1.362 . S
C1306 C1309 1.409 . S
C1307 H1299 0.930 . S
C1307 C1308 1.355 . S
C1307 C1309 1.415 . S
C1308 C1307 1.355 . S
C1308 C1310 1.419 . S
C1309 C1304 1.425 . S
C1309 C1306 1.409 . S
C1309 C1307 1.415 . S
C1310 H1300 0.930 . S
C1310 C1308 1.419 . S
C1310 C1311 1.362 . S
C1311 H1301 0.930 . S
C1311 C1304 1.409 . S
C1311 C1310 1.362 . S
H1312 C1318 0.930 . S
H1313 C1321 0.930 . S
H1314 C1322 0.930 . S
H1315 C1323 0.930 . S
H1316 C1326 0.930 1_565 S
H1317 C1327 0.930 1_565 S
C1318 H1312 0.930 . S
C1318 C1319 1.355 . S
C1318 C1320 1.415 . S
C1319 C1318 1.355 . S
C1319 C1321 1.419 . S
C1320 C1318 1.415 . S
C1320 C1325 1.425 . S
C1320 C1327 1.409 . S
C1321 H1313 0.930 . S
C1321 C1319 1.419 . S
C1321 C1322 1.362 . S
C1322 H1314 0.930 . S
C1322 C1321 1.362 . S
C1322 C1325 1.409 . S
C1323 H1315 0.930 . S
C1323 C1324 1.355 . S
C1323 C1325 1.415 . S
C1324 C1323 1.355 . S
C1324 C1326 1.419 . S
C1325 C1320 1.425 . S
C1325 C1322 1.409 . S
C1325 C1323 1.415 . S
C1326 H1316 0.930 1_545 S
C1326 C1324 1.419 . S
C1326 C1327 1.362 . S
C1327 H1317 0.930 1_545 S
C1327 C1320 1.409 . S
C1327 C1326 1.362 . S
H1328 C1334 0.930 . S
H1329 C1337 0.930 . S
H1330 C1338 0.930 . S
H1331 C1339 0.930 . S
H1332 C1342 0.930 . S
H1333 C1343 0.930 . S
C1334 H1328 0.930 . S
C1334 C1335 1.355 . S
C1334 C1336 1.415 . S
C1335 C1334 1.355 . S
C1335 C1337 1.419 . S
C1336 C1334 1.415 . S
C1336 C1341 1.425 . S
C1336 C1343 1.409 . S
C1337 H1329 0.930 . S
C1337 C1335 1.419 . S
C1337 C1338 1.362 . S
C1338 H1330 0.930 . S
C1338 C1337 1.362 . S
C1338 C1341 1.409 . S
C1339 H1331 0.930 . S
C1339 C1340 1.355 . S
C1339 C1341 1.415 . S
C1340 C1339 1.355 . S
C1340 C1342 1.419 . S
C1341 C1336 1.425 . S
C1341 C1338 1.409 . S
C1341 C1339 1.415 . S
C1342 H1332 0.930 . S
C1342 C1340 1.419 . S
C1342 C1343 1.362 . S
C1343 H1333 0.930 . S
C1343 C1336 1.409 . S
C1343 C1342 1.362 . S
H1344 C1350 0.930 . S
H1345 C1353 0.930 . S
H1346 C1354 0.930 . S
H1347 C1355 0.930 1_565 S
H1348 C1358 0.930 . S
H1349 C1359 0.930 . S
C1350 H1344 0.930 . S
C1350 C1351 1.355 . S
C1350 C1352 1.415 . S
C1351 C1350 1.355 . S
C1351 C1353 1.419 1_545 S
C1352 C1350 1.415 . S
C1352 C1357 1.425 . S
C1352 C1359 1.409 . S
C1353 H1345 0.930 . S
C1353 C1351 1.419 1_565 S
C1353 C1354 1.362 . S
C1354 H1346 0.930 . S
C1354 C1353 1.362 . S
C1354 C1357 1.409 1_565 S
C1355 H1347 0.930 1_545 S
C1355 C1356 1.355 . S
C1355 C1357 1.415 . S
C1356 C1355 1.355 . S
C1356 C1358 1.419 . S
C1357 C1352 1.425 . S
C1357 C1354 1.409 1_545 S
C1357 C1355 1.415 . S
C1358 H1348 0.930 . S
C1358 C1356 1.419 . S
C1358 C1359 1.362 . S
C1359 H1349 0.930 . S
C1359 C1352 1.409 . S
C1359 C1358 1.362 . S
H1360 C1366 0.930 . S
H1361 C1369 0.930 . S
H1362 C1370 0.930 . S
H1363 C1371 0.930 . S
H1364 C1374 0.930 . S
H1365 C1375 0.930 . S
C1366 H1360 0.930 . S
C1366 C1367 1.355 . S
C1366 C1368 1.415 . S
C1367 C1366 1.355 . S
C1367 C1369 1.419 . S
C1368 C1366 1.415 . S
C1368 C1373 1.425 . S
C1368 C1375 1.409 . S
C1369 H1361 0.930 . S
C1369 C1367 1.419 . S
C1369 C1370 1.362 . S
C1370 H1362 0.930 . S
C1370 C1369 1.362 . S
C1370 C1373 1.409 . S
C1371 H1363 0.930 . S
C1371 C1372 1.355 . S
C1371 C1373 1.415 . S
C1372 C1371 1.355 . S
C1372 C1374 1.419 . S
C1373 C1368 1.425 . S
C1373 C1370 1.409 . S
C1373 C1371 1.415 . S
C1374 H1364 0.930 . S
C1374 C1372 1.419 . S
C1374 C1375 1.362 . S
C1375 H1365 0.930 . S
C1375 C1368 1.409 . S
C1375 C1374 1.362 . S
H1376 C1382 0.930 . S
H1377 C1385 0.930 . S
H1378 C1386 0.930 . S
H1379 C1387 0.930 . S
H1380 C1390 0.930 . S
H1381 C1391 0.930 1_455 S
C1382 H1376 0.930 . S
C1382 C1383 1.355 . S
C1382 C1384 1.415 . S
C1383 C1382 1.355 . S
C1383 C1385 1.419 . S
C1384 C1382 1.415 . S
C1384 C1389 1.425 . S
C1384 C1391 1.409 . S
C1385 H1377 0.930 . S
C1385 C1383 1.419 . S
C1385 C1386 1.362 . S
C1386 H1378 0.930 . S
C1386 C1385 1.362 . S
C1386 C1389 1.409 . S
C1387 H1379 0.930 . S
C1387 C1388 1.355 . S
C1387 C1389 1.415 . S
C1388 C1387 1.355 . S
C1388 C1390 1.419 1_655 S
C1389 C1384 1.425 . S
C1389 C1386 1.409 . S
C1389 C1387 1.415 . S
C1390 H1380 0.930 . S
C1390 C1388 1.419 1_455 S
C1390 C1391 1.362 1_455 S
C1391 H1381 0.930 1_655 S
C1391 C1384 1.409 . S
C1391 C1390 1.362 1_655 S
H1392 C1398 0.930 . S
H1393 C1401 0.930 . S
H1394 C1402 0.930 . S
H1395 C1403 0.930 . S
H1396 C1406 0.930 . S
H1397 C1407 0.930 . S
C1398 H1392 0.930 . S
C1398 C1399 1.355 . S
C1398 C1400 1.415 . S
C1399 C1398 1.355 . S
C1399 C1401 1.419 . S
C1400 C1398 1.415 . S
C1400 C1405 1.425 . S
C1400 C1407 1.409 . S
C1401 H1393 0.930 . S
C1401 C1399 1.419 . S
C1401 C1402 1.362 . S
C1402 H1394 0.930 . S
C1402 C1401 1.362 . S
C1402 C1405 1.409 . S
C1403 H1395 0.930 . S
C1403 C1404 1.355 . S
C1403 C1405 1.415 . S
C1404 C1403 1.355 . S
C1404 C1406 1.419 . S
C1405 C1400 1.425 . S
C1405 C1402 1.409 . S
C1405 C1403 1.415 . S
C1406 H1396 0.930 . S
C1406 C1404 1.419 . S
C1406 C1407 1.362 . S
C1407 H1397 0.930 . S
C1407 C1400 1.409 . S
C1407 C1406 1.362 . S
H1408 C1414 0.930 . S
H1409 C1417 0.930 . S
H1410 C1418 0.930 . S
H1411 C1419 0.930 . S
H1412 C1422 0.930 . S
H1413 C1423 0.930 1_565 S
C1414 H1408 0.930 . S
C1414 C1415 1.355 . S
C1414 C1416 1.415 . S
C1415 C1414 1.355 . S
C1415 C1417 1.419 . S
C1416 C1414 1.415 . S
C1416 C1421 1.425 . S
C1416 C1423 1.409 . S
C1417 H1409 0.930 . S
C1417 C1415 1.419 . S
C1417 C1418 1.362 . S
C1418 H1410 0.930 . S
C1418 C1417 1.362 . S
C1418 C1421 1.409 . S
C1419 H1411 0.930 . S
C1419 C1420 1.355 . S
C1419 C1421 1.415 . S
C1420 C1419 1.355 . S
C1420 C1422 1.419 . S
C1421 C1416 1.425 . S
C1421 C1418 1.409 . S
C1421 C1419 1.415 . S
C1422 H1412 0.930 . S
C1422 C1420 1.419 . S
C1422 C1423 1.362 . S
C1423 H1413 0.930 1_545 S
C1423 C1416 1.409 . S
C1423 C1422 1.362 . S
H1424 C1430 0.930 . S
H1425 C1433 0.930 . S
H1426 C1434 0.930 . S
H1427 C1435 0.930 . S
H1428 C1438 0.930 . S
H1429 C1439 0.930 . S
C1430 H1424 0.930 . S
C1430 C1431 1.355 . S
C1430 C1432 1.415 . S
C1431 C1430 1.355 . S
C1431 C1433 1.419 . S
C1432 C1430 1.415 . S
C1432 C1437 1.425 . S
C1432 C1439 1.409 . S
C1433 H1425 0.930 . S
C1433 C1431 1.419 . S
C1433 C1434 1.362 . S
C1434 H1426 0.930 . S
C1434 C1433 1.362 . S
C1434 C1437 1.409 . S
C1435 H1427 0.930 . S
C1435 C1436 1.355 . S
C1435 C1437 1.415 . S
C1436 C1435 1.355 . S
C1436 C1438 1.419 . S
C1437 C1432 1.425 . S
C1437 C1434 1.409 . S
C1437 C1435 1.415 . S
C1438 H1428 0.930 . S
C1438 C1436 1.419 . S
C1438 C1439 1.362 . S
C1439 H1429 0.930 . S
C1439 C1432 1.409 . S
C1439 C1438 1.362 . S
H1440 C1446 0.930 . S
H1441 C1449 0.930 . S
H1442 C1450 0.930 1_545 S
H1443 C1451 0.930 1_545 S
H1444 C1454 0.930 . S
H1445 C1455 0.930 . S
C1446 H1440 0.930 . S
C1446 C1447 1.355 . S
C1446 C1448 1.415 . S
C1447 C1446 1.355 . S
C1447 C1449 1.419 . S
C1448 C1446 1.415 . S
C1448 C1453 1.425 . S
C1448 C1455 1.409 . S
C1449 H1441 0.930 . S
C1449 C1447 1.419 . S
C1449 C1450 1.362 . S
C1450 H1442 0.930 1_565 S
C1450 C1449 1.362 . S
C1450 C1453 1.409 . S
C1451 H1443 0.930 1_565 S
C1451 C1452 1.355 . S
C1451 C1453 1.415 . S
C1452 C1451 1.355 . S
C1452 C1454 1.419 . S
C1453 C1448 1.425 . S
C1453 C1450 1.409 . S
C1453 C1451 1.415 . S
C1454 H1444 0.930 . S
C1454 C1452 1.419 . S
C1454 C1455 1.362 . S
C1455 H1445 0.930 . S
C1455 C1448 1.409 . S
C1455 C1454 1.362 . S
H1456 C1462 0.930 . S
H1457 C1465 0.930 . S
H1458 C1466 0.930 . S
H1459 C1467 0.930 . S
H1460 C1470 0.930 . S
H1461 C1471 0.930 . S
C1462 H1456 0.930 . S
C1462 C1463 1.355 1_556 S
C1462 C1464 1.415 . S
C1463 C1462 1.355 1_554 S
C1463 C1465 1.419 . S
C1464 C1462 1.415 . S
C1464 C1469 1.425 1_556 S
C1464 C1471 1.409 . S
C1465 H1457 0.930 . S
C1465 C1463 1.419 . S
C1465 C1466 1.362 . S
C1466 H1458 0.930 . S
C1466 C1465 1.362 . S
C1466 C1469 1.409 . S
C1467 H1459 0.930 . S
C1467 C1468 1.355 . S
C1467 C1469 1.415 . S
C1468 C1467 1.355 . S
C1468 C1470 1.419 1_554 S
C1469 C1464 1.425 1_554 S
C1469 C1466 1.409 . S
C1469 C1467 1.415 . S
C1470 H1460 0.930 . S
C1470 C1468 1.419 1_556 S
C1470 C1471 1.362 . S
C1471 H1461 0.930 . S
C1471 C1464 1.409 . S
C1471 C1470 1.362 . S
H1472 C1478 0.930 . S
H1473 C1481 0.930 . S
H1474 C1482 0.930 . S
H1475 C1483 0.930 . S
H1476 C1486 0.930 . S
H1477 C1487 0.930 . S
C1478 H1472 0.930 . S
C1478 C1479 1.355 . S
C1478 C1480 1.415 . S
C1479 C1478 1.355 . S
C1479 C1481 1.419 . S
C1480 C1478 1.415 . S
C1480 C1485 1.425 . S
C1480 C1487 1.409 . S
C1481 H1473 0.930 . S
C1481 C1479 1.419 . S
C1481 C1482 1.362 . S
C1482 H1474 0.930 . S
C1482 C1481 1.362 . S
C1482 C1485 1.409 . S
C1483 H1475 0.930 . S
C1483 C1484 1.355 . S
C1483 C1485 1.415 . S
C1484 C1483 1.355 . S
C1484 C1486 1.419 . S
C1485 C1480 1.425 . S
C1485 C1482 1.409 . S
C1485 C1483 1.415 . S
C1486 H1476 0.930 . S
C1486 C1484 1.419 . S
C1486 C1487 1.362 . S
C1487 H1477 0.930 . S
C1487 C1480 1.409 . S
C1487 C1486 1.362 . S
H1488 C1494 0.930 . S
H1489 C1497 0.930 . S
H1490 C1498 0.930 . S
H1491 C1499 0.930 . S
H1492 C1502 0.930 . S
H1493 C1503 0.930 . S
C1494 H1488 0.930 . S
C1494 C1495 1.355 . S
C1494 C1496 1.415 . S
C1495 C1494 1.355 . S
C1495 C1497 1.419 . S
C1496 C1494 1.415 . S
C1496 C1501 1.425 . S
C1496 C1503 1.409 . S
C1497 H1489 0.930 . S
C1497 C1495 1.419 . S
C1497 C1498 1.362 . S
C1498 H1490 0.930 . S
C1498 C1497 1.362 . S
C1498 C1501 1.409 . S
C1499 H1491 0.930 . S
C1499 C1500 1.355 . S
C1499 C1501 1.415 . S
C1500 C1499 1.355 . S
C1500 C1502 1.419 . S
C1501 C1496 1.425 . S
C1501 C1498 1.409 . S
C1501 C1499 1.415 . S
C1502 H1492 0.930 . S
C1502 C1500 1.419 . S
C1502 C1503 1.362 . S
C1503 H1493 0.930 . S
C1503 C1496 1.409 . S
C1503 C1502 1.362 . S
H1504 C1510 0.930 . S
H1505 C1513 0.930 . S
H1506 C1514 0.930 . S
H1507 C1515 0.930 . S
H1508 C1518 0.930 . S
H1509 C1519 0.930 . S
C1510 H1504 0.930 . S
C1510 C1511 1.355 . S
C1510 C1512 1.415 . S
C1511 C1510 1.355 . S
C1511 C1513 1.419 . S
C1512 C1510 1.415 . S
C1512 C1517 1.425 . S
C1512 C1519 1.409 . S
C1513 H1505 0.930 . S
C1513 C1511 1.419 . S
C1513 C1514 1.362 . S
C1514 H1506 0.930 . S
C1514 C1513 1.362 . S
C1514 C1517 1.409 . S
C1515 H1507 0.930 . S
C1515 C1516 1.355 . S
C1515 C1517 1.415 . S
C1516 C1515 1.355 . S
C1516 C1518 1.419 . S
C1517 C1512 1.425 . S
C1517 C1514 1.409 . S
C1517 C1515 1.415 . S
C1518 H1508 0.930 . S
C1518 C1516 1.419 . S
C1518 C1519 1.362 . S
C1519 H1509 0.930 . S
C1519 C1512 1.409 . S
C1519 C1518 1.362 . S
H1520 C1526 0.930 . S
H1521 C1529 0.930 . S
H1522 C1530 0.930 . S
H1523 C1531 0.930 . S
H1524 C1534 0.930 . S
H1525 C1535 0.930 . S
C1526 H1520 0.930 . S
C1526 C1527 1.355 . S
C1526 C1528 1.415 . S
C1527 C1526 1.355 . S
C1527 C1529 1.419 . S
C1528 C1526 1.415 . S
C1528 C1533 1.425 . S
C1528 C1535 1.409 . S
C1529 H1521 0.930 . S
C1529 C1527 1.419 . S
C1529 C1530 1.362 . S
C1530 H1522 0.930 . S
C1530 C1529 1.362 . S
C1530 C1533 1.409 . S
C1531 H1523 0.930 . S
C1531 C1532 1.355 . S
C1531 C1533 1.415 . S
C1532 C1531 1.355 . S
C1532 C1534 1.419 . S
C1533 C1528 1.425 . S
C1533 C1530 1.409 . S
C1533 C1531 1.415 . S
C1534 H1524 0.930 . S
C1534 C1532 1.419 . S
C1534 C1535 1.362 . S
C1535 H1525 0.930 . S
C1535 C1528 1.409 . S
C1535 C1534 1.362 . S
H1536 C1542 0.930 . S
H1537 C1545 0.930 . S
H1538 C1546 0.930 . S
H1539 C1547 0.930 . S
H1540 C1550 0.930 . S
H1541 C1551 0.930 . S
C1542 H1536 0.930 . S
C1542 C1543 1.355 . S
C1542 C1544 1.415 . S
C1543 C1542 1.355 . S
C1543 C1545 1.419 . S
C1544 C1542 1.415 . S
C1544 C1549 1.425 . S
C1544 C1551 1.409 . S
C1545 H1537 0.930 . S
C1545 C1543 1.419 . S
C1545 C1546 1.362 . S
C1546 H1538 0.930 . S
C1546 C1545 1.362 . S
C1546 C1549 1.409 . S
C1547 H1539 0.930 . S
C1547 C1548 1.355 . S
C1547 C1549 1.415 . S
C1548 C1547 1.355 . S
C1548 C1550 1.419 . S
C1549 C1544 1.425 . S
C1549 C1546 1.409 . S
C1549 C1547 1.415 . S
C1550 H1540 0.930 . S
C1550 C1548 1.419 . S
C1550 C1551 1.362 . S
C1551 H1541 0.930 . S
C1551 C1544 1.409 . S
C1551 C1550 1.362 . S
H1552 C1558 0.930 . S
H1553 C1561 0.930 . S
H1554 C1562 0.930 . S
H1555 C1563 0.930 . S
H1556 C1566 0.930 . S
H1557 C1567 0.930 . S
C1558 H1552 0.930 . S
C1558 C1559 1.355 . S
C1558 C1560 1.415 . S
C1559 C1558 1.355 . S
C1559 C1561 1.419 . S
C1560 C1558 1.415 . S
C1560 C1565 1.425 . S
C1560 C1567 1.409 . S
C1561 H1553 0.930 . S
C1561 C1559 1.419 . S
C1561 C1562 1.362 . S
C1562 H1554 0.930 . S
C1562 C1561 1.362 . S
C1562 C1565 1.409 . S
C1563 H1555 0.930 . S
C1563 C1564 1.355 . S
C1563 C1565 1.415 . S
C1564 C1563 1.355 . S
C1564 C1566 1.419 . S
C1565 C1560 1.425 . S
C1565 C1562 1.409 . S
C1565 C1563 1.415 . S
C1566 H1556 0.930 . S
C1566 C1564 1.419 . S
C1566 C1567 1.362 . S
C1567 H1557 0.930 . S
C1567 C1560 1.409 . S
C1567 C1566 1.362 . S
H1568 C1574 0.930 . S
H1569 C1577 0.930 . S
H1570 C1578 0.930 . S
H1571 C1579 0.930 . S
H1572 C1582 0.930 1_556 S
H1573 C1583 0.930 . S
C1574 H1568 0.930 . S
C1574 C1575 1.355 . S
C1574 C1576 1.415 . S
C1575 C1574 1.355 . S
C1575 C1577 1.419 . S
C1576 C1574 1.415 . S
C1576 C1581 1.425 . S
C1576 C1583 1.409 . S
C1577 H1569 0.930 . S
C1577 C1575 1.419 . S
C1577 C1578 1.362 . S
C1578 H1570 0.930 . S
C1578 C1577 1.362 . S
C1578 C1581 1.409 . S
C1579 H1571 0.930 . S
C1579 C1580 1.355 . S
C1579 C1581 1.415 . S
C1580 C1579 1.355 . S
C1580 C1582 1.419 . S
C1581 C1576 1.425 . S
C1581 C1578 1.409 . S
C1581 C1579 1.415 . S
C1582 H1572 0.930 1_554 S
C1582 C1580 1.419 . S
C1582 C1583 1.362 . S
C1583 H1573 0.930 . S
C1583 C1576 1.409 . S
C1583 C1582 1.362 . S
H1584 C1590 0.930 . S
H1585 C1593 0.930 . S
H1586 C1594 0.930 . S
H1587 C1595 0.930 . S
H1588 C1598 0.930 . S
H1589 C1599 0.930 . S
C1590 H1584 0.930 . S
C1590 C1591 1.355 . S
C1590 C1592 1.415 . S
C1591 C1590 1.355 . S
C1591 C1593 1.419 . S
C1592 C1590 1.415 . S
C1592 C1597 1.425 . S
C1592 C1599 1.409 . S
C1593 H1585 0.930 . S
C1593 C1591 1.419 . S
C1593 C1594 1.362 . S
C1594 H1586 0.930 . S
C1594 C1593 1.362 . S
C1594 C1597 1.409 . S
C1595 H1587 0.930 . S
C1595 C1596 1.355 . S
C1595 C1597 1.415 . S
C1596 C1595 1.355 . S
C1596 C1598 1.419 . S
C1597 C1592 1.425 . S
C1597 C1594 1.409 . S
C1597 C1595 1.415 . S
C1598 H1588 0.930 . S
C1598 C1596 1.419 . S
C1598 C1599 1.362 . S
C1599 H1589 0.930 . S
C1599 C1592 1.409 . S
C1599 C1598 1.362 . S
H1600 C1606 0.930 . S
H1601 C1609 0.930 . S
H1602 C1610 0.930 . S
H1603 C1611 0.930 . S
H1604 C1614 0.930 . S
H1605 C1615 0.930 . S
C1606 H1600 0.930 . S
C1606 C1607 1.355 . S
C1606 C1608 1.415 . S
C1607 C1606 1.355 . S
C1607 C1609 1.419 . S
C1608 C1606 1.415 . S
C1608 C1613 1.425 . S
C1608 C1615 1.409 . S
C1609 H1601 0.930 . S
C1609 C1607 1.419 . S
C1609 C1610 1.362 . S
C1610 H1602 0.930 . S
C1610 C1609 1.362 . S
C1610 C1613 1.409 . S
C1611 H1603 0.930 . S
C1611 C1612 1.355 . S
C1611 C1613 1.415 . S
C1612 C1611 1.355 . S
C1612 C1614 1.419 . S
C1613 C1608 1.425 . S
C1613 C1610 1.409 . S
C1613 C1611 1.415 . S
C1614 H1604 0.930 . S
C1614 C1612 1.419 . S
C1614 C1615 1.362 . S
C1615 H1605 0.930 . S
C1615 C1608 1.409 . S
C1615 C1614 1.362 . S
H1616 C1622 0.930 . S
H1617 C1625 0.930 . S
H1618 C1626 0.930 . S
H1619 C1627 0.930 . S
H1620 C1630 0.930 . S
H1621 C1631 0.930 . S
C1622 H1616 0.930 . S
C1622 C1623 1.355 . S
C1622 C1624 1.415 . S
C1623 C1622 1.355 . S
C1623 C1625 1.419 . S
C1624 C1622 1.415 . S
C1624 C1629 1.425 . S
C1624 C1631 1.409 . S
C1625 H1617 0.930 . S
C1625 C1623 1.419 . S
C1625 C1626 1.362 . S
C1626 H1618 0.930 . S
C1626 C1625 1.362 . S
C1626 C1629 1.409 . S
C1627 H1619 0.930 . S
C1627 C1628 1.355 . S
C1627 C1629 1.415 . S
C1628 C1627 1.355 . S
C1628 C1630 1.419 . S
C1629 C1624 1.425 . S
C1629 C1626 1.409 . S
C1629 C1627 1.415 . S
C1630 H1620 0.930 . S
C1630 C1628 1.419 . S
C1630 C1631 1.362 . S
C1631 H1621 0.930 . S
C1631 C1624 1.409 . S
C1631 C1630 1.362 . S
H1632 C1638 0.930 . S
H1633 C1641 0.930 . S
H1634 C1642 0.930 . S
H1635 C1643 0.930 . S
H1636 C1646 0.930 . S
H1637 C1647 0.930 . S
C1638 H1632 0.930 . S
C1638 C1639 1.355 . S
C1638 C1640 1.415 . S
C1639 C1638 1.355 . S
C1639 C1641 1.419 1_455 S
C1640 C1638 1.415 . S
C1640 C1645 1.425 1_455 S
C1640 C1647 1.409 . S
C1641 H1633 0.930 . S
C1641 C1639 1.419 1_655 S
C1641 C1642 1.362 . S
C1642 H1634 0.930 . S
C1642 C1641 1.362 . S
C1642 C1645 1.409 . S
C1643 H1635 0.930 . S
C1643 C1644 1.352 1_655 S
C1643 C1645 1.415 . S
C1644 C1643 1.352 1_455 S
C1644 C1646 1.423 . S
C1645 C1640 1.425 1_655 S
C1645 C1642 1.409 . S
C1645 C1643 1.415 . S
C1646 H1636 0.930 . S
C1646 C1644 1.423 . S
C1646 C1647 1.362 . S
C1647 H1637 0.930 . S
C1647 C1640 1.409 . S
C1647 C1646 1.362 . S
H1648 C1654 0.930 . S
H1649 C1657 0.930 . S
H1650 C1658 0.930 . S
H1651 C1659 0.930 . S
H1652 C1662 0.930 . S
H1653 C1663 0.930 . S
C1654 H1648 0.930 . S
C1654 C1655 1.355 . S
C1654 C1656 1.415 . S
C1655 C1654 1.355 . S
C1655 C1657 1.419 . S
C1656 C1654 1.415 . S
C1656 C1661 1.425 . S
C1656 C1663 1.409 . S
C1657 H1649 0.930 . S
C1657 C1655 1.419 . S
C1657 C1658 1.362 . S
C1658 H1650 0.930 . S
C1658 C1657 1.362 . S
C1658 C1661 1.409 . S
C1659 H1651 0.930 . S
C1659 C1660 1.355 . S
C1659 C1661 1.415 . S
C1660 C1659 1.355 . S
C1660 C1662 1.419 . S
C1661 C1656 1.425 . S
C1661 C1658 1.409 . S
C1661 C1659 1.415 . S
C1662 H1652 0.930 . S
C1662 C1660 1.419 . S
C1662 C1663 1.362 . S
C1663 H1653 0.930 . S
C1663 C1656 1.409 . S
C1663 C1662 1.362 . S
H1664 C1670 0.930 . S
H1665 C1673 0.930 . S
H1666 C1674 0.930 . S
H1667 C1675 0.930 . S
H1668 C1678 0.930 . S
H1669 C1679 0.930 . S
C1670 H1664 0.930 . S
C1670 C1671 1.355 . S
C1670 C1672 1.415 . S
C1671 C1670 1.355 . S
C1671 C1673 1.419 . S
C1672 C1670 1.415 . S
C1672 C1677 1.425 . S
C1672 C1679 1.409 . S
C1673 H1665 0.930 . S
C1673 C1671 1.419 . S
C1673 C1674 1.362 . S
C1674 H1666 0.930 . S
C1674 C1673 1.362 . S
C1674 C1677 1.409 . S
C1675 H1667 0.930 . S
C1675 C1676 1.355 . S
C1675 C1677 1.415 . S
C1676 C1675 1.355 . S
C1676 C1678 1.419 . S
C1677 C1672 1.425 . S
C1677 C1674 1.409 . S
C1677 C1675 1.415 . S
C1678 H1668 0.930 . S
C1678 C1676 1.419 . S
C1678 C1679 1.362 . S
C1679 H1669 0.930 . S
C1679 C1672 1.409 . S
C1679 C1678 1.362 . S
H1680 C1686 0.930 . S
H1681 C1689 0.930 . S
H1682 C1690 0.930 . S
H1683 C1691 0.930 . S
H1684 C1694 0.930 . S
H1685 C1695 0.930 . S
C1686 H1680 0.930 . S
C1686 C1687 1.355 . S
C1686 C1688 1.415 . S
C1687 C1686 1.355 . S
C1687 C1689 1.419 . S
C1688 C1686 1.415 . S
C1688 C1693 1.425 . S
C1688 C1695 1.409 . S
C1689 H1681 0.930 . S
C1689 C1687 1.419 . S
C1689 C1690 1.362 . S
C1690 H1682 0.930 . S
C1690 C1689 1.362 . S
C1690 C1693 1.409 . S
C1691 H1683 0.930 . S
C1691 C1692 1.355 . S
C1691 C1693 1.415 . S
C1692 C1691 1.355 . S
C1692 C1694 1.419 . S
C1693 C1688 1.425 . S
C1693 C1690 1.409 . S
C1693 C1691 1.415 . S
C1694 H1684 0.930 . S
C1694 C1692 1.419 . S
C1694 C1695 1.362 . S
C1695 H1685 0.930 . S
C1695 C1688 1.409 . S
C1695 C1694 1.362 . S
H1696 C1702 0.930 . S
H1697 C1705 0.930 . S
H1698 C1706 0.930 . S
H1699 C1707 0.930 . S
H1700 C1710 0.930 . S
H1701 C1711 0.930 . S
C1702 H1696 0.930 . S
C1702 C1703 1.355 1_565 S
C1702 C1704 1.415 . S
C1703 C1702 1.355 1_545 S
C1703 C1705 1.419 . S
C1704 C1702 1.415 . S
C1704 C1709 1.425 1_565 S
C1704 C1711 1.409 . S
C1705 H1697 0.930 . S
C1705 C1703 1.419 . S
C1705 C1706 1.362 . S
C1706 H1698 0.930 . S
C1706 C1705 1.362 . S
C1706 C1709 1.409 . S
C1707 H1699 0.930 . S
C1707 C1708 1.355 1_545 S
C1707 C1709 1.415 . S
C1708 C1707 1.355 1_565 S
C1708 C1710 1.419 . S
C1709 C1704 1.425 1_545 S
C1709 C1706 1.409 . S
C1709 C1707 1.415 . S
C1710 H1700 0.930 . S
C1710 C1708 1.419 . S
C1710 C1711 1.362 . S
C1711 H1701 0.930 . S
C1711 C1704 1.409 . S
C1711 C1710 1.362 . S
H1712 C1718 0.930 . S
H1713 C1721 0.930 . S
H1714 C1722 0.930 . S
H1715 C1723 0.930 . S
H1716 C1726 0.930 . S
H1717 C1727 0.930 . S
C1718 H1712 0.930 . S
C1718 C1719 1.355 . S
C1718 C1720 1.415 . S
C1719 C1718 1.355 . S
C1719 C1721 1.419 . S
C1720 C1718 1.415 . S
C1720 C1725 1.425 . S
C1720 C1727 1.409 . S
C1721 H1713 0.930 . S
C1721 C1719 1.419 . S
C1721 C1722 1.362 . S
C1722 H1714 0.930 . S
C1722 C1721 1.362 . S
C1722 C1725 1.409 . S
C1723 H1715 0.930 . S
C1723 C1724 1.355 . S
C1723 C1725 1.415 . S
C1724 C1723 1.355 . S
C1724 C1726 1.419 . S
C1725 C1720 1.425 . S
C1725 C1722 1.409 . S
C1725 C1723 1.415 . S
C1726 H1716 0.930 . S
C1726 C1724 1.419 . S
C1726 C1727 1.362 . S
C1727 H1717 0.930 . S
C1727 C1720 1.409 . S
C1727 C1726 1.362 . S
H1728 C1734 0.930 . S
H1729 C1737 0.930 . S
H1730 C1738 0.930 . S
H1731 C1739 0.930 . S
H1732 C1742 0.930 . S
H1733 C1743 0.930 . S
C1734 H1728 0.930 . S
C1734 C1735 1.355 . S
C1734 C1736 1.415 . S
C1735 C1734 1.355 . S
C1735 C1737 1.419 . S
C1736 C1734 1.415 . S
C1736 C1741 1.425 . S
C1736 C1743 1.409 . S
C1737 H1729 0.930 . S
C1737 C1735 1.419 . S
C1737 C1738 1.362 . S
C1738 H1730 0.930 . S
C1738 C1737 1.362 . S
C1738 C1741 1.409 . S
C1739 H1731 0.930 . S
C1739 C1740 1.355 . S
C1739 C1741 1.415 . S
C1740 C1739 1.355 . S
C1740 C1742 1.419 . S
C1741 C1736 1.425 . S
C1741 C1738 1.409 . S
C1741 C1739 1.415 . S
C1742 H1732 0.930 . S
C1742 C1740 1.419 . S
C1742 C1743 1.362 . S
C1743 H1733 0.930 . S
C1743 C1736 1.409 . S
C1743 C1742 1.362 . S
H1744 C1750 0.930 . S
H1745 C1753 0.930 . S
H1746 C1754 0.930 . S
H1747 C1755 0.930 . S
H1748 C1758 0.930 . S
H1749 C1759 0.930 . S
C1750 H1744 0.930 . S
C1750 C1751 1.355 . S
C1750 C1752 1.415 . S
C1751 C1750 1.355 . S
C1751 C1753 1.419 . S
C1752 C1750 1.415 . S
C1752 C1757 1.425 . S
C1752 C1759 1.409 . S
C1753 H1745 0.930 . S
C1753 C1751 1.419 . S
C1753 C1754 1.362 . S
C1754 H1746 0.930 . S
C1754 C1753 1.362 . S
C1754 C1757 1.409 . S
C1755 H1747 0.930 . S
C1755 C1756 1.355 . S
C1755 C1757 1.415 . S
C1756 C1755 1.355 . S
C1756 C1758 1.419 . S
C1757 C1752 1.425 . S
C1757 C1754 1.409 . S
C1757 C1755 1.415 . S
C1758 H1748 0.930 . S
C1758 C1756 1.419 . S
C1758 C1759 1.362 . S
C1759 H1749 0.930 . S
C1759 C1752 1.409 . S
C1759 C1758 1.362 . S
H1760 C1766 0.930 . S
H1761 C1769 0.930 . S
H1762 C1770 0.930 . S
H1763 C1771 0.933 . S
H1764 C1774 0.930 . S
H1765 C1775 0.930 . S
C1766 H1760 0.930 . S
C1766 C1767 1.355 1_545 S
C1766 C1768 1.415 . S
C1767 C1766 1.355 1_565 S
C1767 C1769 1.419 . S
C1768 C1766 1.415 . S
C1768 C1773 1.425 1_545 S
C1768 C1775 1.409 . S
C1769 H1761 0.930 . S
C1769 C1767 1.419 . S
C1769 C1770 1.362 . S
C1770 H1762 0.930 . S
C1770 C1769 1.362 . S
C1770 C1773 1.409 . S
C1771 H1763 0.933 . S
C1771 C1772 1.350 1_565 S
C1771 C1773 1.416 . S
C1772 C1771 1.350 1_545 S
C1772 C1774 1.419 . S
C1773 C1768 1.425 1_565 S
C1773 C1770 1.409 . S
C1773 C1771 1.416 . S
C1774 H1764 0.930 . S
C1774 C1772 1.419 . S
C1774 C1775 1.362 . S
C1775 H1765 0.930 . S
C1775 C1768 1.409 . S
C1775 C1774 1.362 . S
H1776 C1782 0.930 . S
H1777 C1785 0.930 . S
H1778 C1786 0.930 . S
H1779 C1787 0.930 . S
H1780 C1790 0.930 . S
H1781 C1791 0.930 . S
C1782 H1776 0.930 . S
C1782 C1783 1.355 . S
C1782 C1784 1.415 . S
C1783 C1782 1.355 . S
C1783 C1785 1.419 . S
C1784 C1782 1.415 . S
C1784 C1789 1.425 . S
C1784 C1791 1.409 . S
C1785 H1777 0.930 . S
C1785 C1783 1.419 . S
C1785 C1786 1.362 . S
C1786 H1778 0.930 . S
C1786 C1785 1.362 . S
C1786 C1789 1.409 . S
C1787 H1779 0.930 . S
C1787 C1788 1.355 . S
C1787 C1789 1.415 . S
C1788 C1787 1.355 . S
C1788 C1790 1.419 . S
C1789 C1784 1.425 . S
C1789 C1786 1.409 . S
C1789 C1787 1.415 . S
C1790 H1780 0.930 . S
C1790 C1788 1.419 . S
C1790 C1791 1.362 . S
C1791 H1781 0.930 . S
C1791 C1784 1.409 . S
C1791 C1790 1.362 . S
H1792 C1798 0.930 . S
H1793 C1801 0.930 . S
H1794 C1802 0.930 . S
H1795 C1803 0.930 . S
H1796 C1806 0.930 . S
H1797 C1807 0.930 . S
C1798 H1792 0.930 . S
C1798 C1799 1.355 . S
C1798 C1800 1.415 . S
C1799 C1798 1.355 . S
C1799 C1801 1.419 1_545 S
C1800 C1798 1.415 . S
C1800 C1805 1.425 1_545 S
C1800 C1807 1.409 . S
C1801 H1793 0.930 . S
C1801 C1799 1.419 1_565 S
C1801 C1802 1.362 . S
C1802 H1794 0.930 . S
C1802 C1801 1.362 . S
C1802 C1805 1.409 . S
C1803 H1795 0.930 . S
C1803 C1804 1.355 1_565 S
C1803 C1805 1.415 . S
C1804 C1803 1.355 1_545 S
C1804 C1806 1.419 . S
C1805 C1800 1.425 1_565 S
C1805 C1802 1.409 . S
C1805 C1803 1.415 . S
C1806 H1796 0.930 . S
C1806 C1804 1.419 . S
C1806 C1807 1.362 . S
C1807 H1797 0.930 . S
C1807 C1800 1.409 . S
C1807 C1806 1.362 . S
H1808 C1814 0.930 . S
H1809 C1817 0.930 . S
H1810 C1818 0.930 . S
H1811 C1819 0.930 . S
H1812 C1822 0.930 . S
H1813 C1823 0.930 . S
C1814 H1808 0.930 . S
C1814 C1815 1.355 . S
C1814 C1816 1.415 . S
C1815 C1814 1.355 . S
C1815 C1817 1.419 . S
C1816 C1814 1.415 . S
C1816 C1821 1.425 . S
C1816 C1823 1.409 . S
C1817 H1809 0.930 . S
C1817 C1815 1.419 . S
C1817 C1818 1.362 . S
C1818 H1810 0.930 . S
C1818 C1817 1.362 . S
C1818 C1821 1.409 . S
C1819 H1811 0.930 . S
C1819 C1820 1.355 . S
C1819 C1821 1.415 . S
C1820 C1819 1.355 . S
C1820 C1822 1.419 . S
C1821 C1816 1.425 . S
C1821 C1818 1.409 . S
C1821 C1819 1.415 . S
C1822 H1812 0.930 . S
C1822 C1820 1.419 . S
C1822 C1823 1.362 . S
C1823 H1813 0.930 . S
C1823 C1816 1.409 . S
C1823 C1822 1.362 . S
H1824 C1830 0.930 . S
H1825 C1833 0.930 . S
H1826 C1834 0.930 . S
H1827 C1835 0.930 . S
H1828 C1838 0.920 1_554 S
H1829 C1839 0.930 . S
C1830 H1824 0.930 . S
C1830 C1831 1.355 1_554 S
C1830 C1832 1.415 1_554 S
C1831 C1830 1.355 1_556 S
C1831 C1833 1.419 . S
C1832 C1830 1.415 1_556 S
C1832 C1837 1.425 . S
C1832 C1839 1.409 1_556 S
C1833 H1825 0.930 . S
C1833 C1831 1.419 . S
C1833 C1834 1.362 . S
C1834 H1826 0.930 . S
C1834 C1833 1.362 . S
C1834 C1837 1.409 . S
C1835 H1827 0.930 . S
C1835 C1836 1.355 . S
C1835 C1837 1.415 . S
C1836 C1835 1.355 . S
C1836 C1838 1.419 . S
C1837 C1832 1.425 . S
C1837 C1834 1.409 . S
C1837 C1835 1.415 . S
C1838 H1828 0.920 1_556 S
C1838 C1836 1.419 . S
C1838 C1839 1.362 1_556 S
C1839 H1829 0.930 . S
C1839 C1832 1.409 1_554 S
C1839 C1838 1.362 1_554 S
H1840 C1846 0.930 1_556 S
H1841 C1849 0.930 . S
H1842 C1850 0.930 . S
H1843 C1851 0.930 . S
H1844 C1854 0.930 . S
H1845 C1855 0.930 . S
C1846 H1840 0.930 1_554 S
C1846 C1847 1.355 . S
C1846 C1848 1.415 . S
C1847 C1846 1.355 . S
C1847 C1849 1.419 . S
C1848 C1846 1.415 . S
C1848 C1853 1.425 . S
C1848 C1855 1.409 1_554 S
C1849 H1841 0.930 . S
C1849 C1847 1.419 . S
C1849 C1850 1.362 . S
C1850 H1842 0.930 . S
C1850 C1849 1.362 . S
C1850 C1853 1.409 . S
C1851 H1843 0.930 . S
C1851 C1852 1.355 . S
C1851 C1853 1.415 . S
C1852 C1851 1.355 . S
C1852 C1854 1.419 1_554 S
C1853 C1848 1.425 . S
C1853 C1850 1.409 . S
C1853 C1851 1.415 . S
C1854 H1844 0.930 . S
C1854 C1852 1.419 1_556 S
C1854 C1855 1.362 . S
C1855 H1845 0.930 . S
C1855 C1848 1.409 1_556 S
C1855 C1854 1.362 . S
H1856 C1862 0.930 . S
H1857 C1865 0.930 . S
H1858 C1866 0.930 . S
H1859 C1867 0.930 . S
H1860 C1870 0.930 . S
H1861 C1871 0.930 . S
C1862 H1856 0.930 . S
C1862 C1863 1.355 . S
C1862 C1864 1.415 . S
C1863 C1862 1.355 . S
C1863 C1865 1.419 . S
C1864 C1862 1.415 . S
C1864 C1869 1.425 . S
C1864 C1871 1.409 . S
C1865 H1857 0.930 . S
C1865 C1863 1.419 . S
C1865 C1866 1.362 . S
C1866 H1858 0.930 . S
C1866 C1865 1.362 . S
C1866 C1869 1.409 . S
C1867 H1859 0.930 . S
C1867 C1868 1.355 . S
C1867 C1869 1.415 . S
C1868 C1867 1.355 . S
C1868 C1870 1.419 . S
C1869 C1864 1.425 . S
C1869 C1866 1.409 . S
C1869 C1867 1.415 . S
C1870 H1860 0.930 . S
C1870 C1868 1.419 . S
C1870 C1871 1.362 . S
C1871 H1861 0.930 . S
C1871 C1864 1.409 . S
C1871 C1870 1.362 . S
H1872 C1878 0.930 . S
H1873 C1881 0.930 . S
H1874 C1882 0.930 . S
H1875 C1883 0.930 . S
H1876 C1886 0.930 . S
H1877 C1887 0.930 . S
C1878 H1872 0.930 . S
C1878 C1879 1.355 . S
C1878 C1880 1.415 . S
C1879 C1878 1.355 . S
C1879 C1881 1.419 . S
C1880 C1878 1.415 . S
C1880 C1885 1.425 . S
C1880 C1887 1.409 . S
C1881 H1873 0.930 . S
C1881 C1879 1.419 . S
C1881 C1882 1.362 . S
C1882 H1874 0.930 . S
C1882 C1881 1.362 . S
C1882 C1885 1.409 . S
C1883 H1875 0.930 . S
C1883 C1884 1.355 . S
C1883 C1885 1.415 . S
C1884 C1883 1.355 . S
C1884 C1886 1.419 . S
C1885 C1880 1.425 . S
C1885 C1882 1.409 . S
C1885 C1883 1.415 . S
C1886 H1876 0.930 . S
C1886 C1884 1.419 . S
C1886 C1887 1.362 . S
C1887 H1877 0.930 . S
C1887 C1880 1.409 . S
C1887 C1886 1.362 . S
H1888 C1894 0.930 . S
H1889 C1897 0.930 . S
H1890 C1898 0.930 . S
H1891 C1899 0.930 . S
H1892 C1902 0.930 . S
H1893 C1903 0.930 . S
C1894 H1888 0.930 . S
C1894 C1895 1.355 . S
C1894 C1896 1.415 . S
C1895 C1894 1.355 . S
C1895 C1897 1.419 . S
C1896 C1894 1.415 . S
C1896 C1901 1.425 . S
C1896 C1903 1.409 . S
C1897 H1889 0.930 . S
C1897 C1895 1.419 . S
C1897 C1898 1.362 . S
C1898 H1890 0.930 . S
C1898 C1897 1.362 . S
C1898 C1901 1.409 . S
C1899 H1891 0.930 . S
C1899 C1900 1.355 . S
C1899 C1901 1.415 . S
C1900 C1899 1.355 . S
C1900 C1902 1.419 . S
C1901 C1896 1.425 . S
C1901 C1898 1.409 . S
C1901 C1899 1.415 . S
C1902 H1892 0.930 . S
C1902 C1900 1.419 . S
C1902 C1903 1.362 . S
C1903 H1893 0.930 . S
C1903 C1896 1.409 . S
C1903 C1902 1.362 . S
H1904 C1910 0.930 . S
H1905 C1913 0.930 . S
H1906 C1914 0.930 . S
H1907 C1915 0.930 . S
H1908 C1918 0.930 1_545 S
H1909 C1919 0.930 . S
C1910 H1904 0.930 . S
C1910 C1911 1.355 . S
C1910 C1912 1.415 . S
C1911 C1910 1.355 . S
C1911 C1913 1.419 . S
C1912 C1910 1.415 . S
C1912 C1917 1.425 . S
C1912 C1919 1.409 . S
C1913 H1905 0.930 . S
C1913 C1911 1.419 . S
C1913 C1914 1.362 . S
C1914 H1906 0.930 . S
C1914 C1913 1.362 . S
C1914 C1917 1.409 . S
C1915 H1907 0.930 . S
C1915 C1916 1.355 . S
C1915 C1917 1.415 . S
C1916 C1915 1.355 . S
C1916 C1918 1.419 . S
C1917 C1912 1.425 . S
C1917 C1914 1.409 . S
C1917 C1915 1.415 . S
C1918 H1908 0.930 1_565 S
C1918 C1916 1.419 . S
C1918 C1919 1.362 . S
C1919 H1909 0.930 . S
C1919 C1912 1.409 . S
C1919 C1918 1.362 . S
H1920 C1926 0.930 . S
H1921 C1929 0.930 . S
H1922 C1930 0.930 . S
H1923 C1931 0.930 . S
H1924 C1934 0.930 . S
H1925 C1935 0.930 . S
C1926 H1920 0.930 . S
C1926 C1927 1.355 . S
C1926 C1928 1.415 . S
C1927 C1926 1.355 . S
C1927 C1929 1.419 . S
C1928 C1926 1.415 . S
C1928 C1933 1.425 . S
C1928 C1935 1.409 . S
C1929 H1921 0.930 . S
C1929 C1927 1.419 . S
C1929 C1930 1.362 . S
C1930 H1922 0.930 . S
C1930 C1929 1.362 . S
C1930 C1933 1.409 . S
C1931 H1923 0.930 . S
C1931 C1932 1.355 . S
C1931 C1933 1.415 . S
C1932 C1931 1.355 . S
C1932 C1934 1.419 . S
C1933 C1928 1.425 . S
C1933 C1930 1.409 . S
C1933 C1931 1.415 . S
C1934 H1924 0.930 . S
C1934 C1932 1.419 . S
C1934 C1935 1.362 . S
C1935 H1925 0.930 . S
C1935 C1928 1.409 . S
C1935 C1934 1.362 . S
H1936 C1942 0.930 . S
H1937 C1945 0.930 . S
H1938 C1946 0.930 . S
H1939 C1947 0.930 . S
H1940 C1950 0.930 . S
H1941 C1951 0.930 . S
C1942 H1936 0.930 . S
C1942 C1943 1.355 . S
C1942 C1944 1.415 . S
C1943 C1942 1.355 . S
C1943 C1945 1.419 . S
C1944 C1942 1.415 . S
C1944 C1949 1.425 . S
C1944 C1951 1.409 . S
C1945 H1937 0.930 . S
C1945 C1943 1.419 . S
C1945 C1946 1.362 . S
C1946 H1938 0.930 . S
C1946 C1945 1.362 . S
C1946 C1949 1.409 . S
C1947 H1939 0.930 . S
C1947 C1948 1.355 . S
C1947 C1949 1.415 . S
C1948 C1947 1.355 . S
C1948 C1950 1.419 . S
C1949 C1944 1.425 . S
C1949 C1946 1.409 . S
C1949 C1947 1.415 . S
C1950 H1940 0.930 . S
C1950 C1948 1.419 . S
C1950 C1951 1.362 . S
C1951 H1941 0.930 . S
C1951 C1944 1.409 . S
C1951 C1950 1.362 . S
H1952 C1958 0.930 . S
H1953 C1961 0.930 . S
H1954 C1962 0.930 . S
H1955 C1963 0.930 . S
H1956 C1966 0.930 . S
H1957 C1967 0.930 . S
C1958 H1952 0.930 . S
C1958 C1959 1.355 . S
C1958 C1960 1.415 . S
C1959 C1958 1.355 . S
C1959 C1961 1.419 . S
C1960 C1958 1.415 . S
C1960 C1965 1.425 . S
C1960 C1967 1.409 . S
C1961 H1953 0.930 . S
C1961 C1959 1.419 . S
C1961 C1962 1.362 . S
C1962 H1954 0.930 . S
C1962 C1961 1.362 . S
C1962 C1965 1.409 . S
C1963 H1955 0.930 . S
C1963 C1964 1.355 . S
C1963 C1965 1.415 . S
C1964 C1963 1.355 . S
C1964 C1966 1.419 . S
C1965 C1960 1.425 . S
C1965 C1962 1.409 . S
C1965 C1963 1.415 . S
C1966 H1956 0.930 . S
C1966 C1964 1.419 . S
C1966 C1967 1.362 . S
C1967 H1957 0.930 . S
C1967 C1960 1.409 . S
C1967 C1966 1.362 . S
H1968 C1974 0.930 . S
H1969 C1977 0.930 . S
H1970 C1978 0.930 . S
H1971 C1979 0.930 . S
H1972 C1982 0.930 . S
H1973 C1983 0.930 . S
C1974 H1968 0.930 . S
C1974 C1975 1.355 . S
C1974 C1976 1.415 . S
C1975 C1974 1.355 . S
C1975 C1977 1.419 . S
C1976 C1974 1.415 . S
C1976 C1981 1.425 . S
C1976 C1983 1.409 . S
C1977 H1969 0.930 . S
C1977 C1975 1.419 . S
C1977 C1978 1.362 . S
C1978 H1970 0.930 . S
C1978 C1977 1.362 . S
C1978 C1981 1.409 . S
C1979 H1971 0.930 . S
C1979 C1980 1.355 . S
C1979 C1981 1.415 . S
C1980 C1979 1.355 . S
C1980 C1982 1.419 . S
C1981 C1976 1.425 . S
C1981 C1978 1.409 . S
C1981 C1979 1.415 . S
C1982 H1972 0.930 . S
C1982 C1980 1.419 . S
C1982 C1983 1.362 . S
C1983 H1973 0.930 . S
C1983 C1976 1.409 . S
C1983 C1982 1.362 . S
H1984 C1990 0.930 . S
H1985 C1993 0.930 . S
H1986 C1994 0.930 . S
H1987 C1995 0.921 1_554 S
H1988 C1998 0.930 . S
H1989 C1999 0.930 . S
C1990 H1984 0.930 . S
C1990 C1991 1.355 . S
C1990 C1992 1.415 . S
C1991 C1990 1.355 . S
C1991 C1993 1.419 1_455 S
C1992 C1990 1.415 . S
C1992 C1997 1.425 1_455 S
C1992 C1999 1.409 . S
C1993 H1985 0.930 . S
C1993 C1991 1.419 1_655 S
C1993 C1994 1.362 . S
C1994 H1986 0.930 . S
C1994 C1993 1.362 . S
C1994 C1997 1.409 . S
C1995 H1987 0.921 1_556 S
C1995 C1996 1.355 1_655 S
C1995 C1997 1.415 . S
C1996 C1995 1.355 1_455 S
C1996 C1998 1.419 . S
C1997 C1992 1.425 1_655 S
C1997 C1994 1.409 . S
C1997 C1995 1.415 . S
C1998 H1988 0.930 . S
C1998 C1996 1.419 . S
C1998 C1999 1.362 . S
C1999 H1989 0.930 . S
C1999 C1992 1.409 . S
C1999 C1998 1.362 . S
H2000 C2006 0.930 . S
H2001 C2009 0.930 . S
H2002 C2010 0.930 . S
H2003 C2011 0.930 . S
H2004 C2014 0.930 . S
H2005 C2015 0.930 . S
C2006 H2000 0.930 . S
C2006 C2007 1.355 . S
C2006 C2008 1.415 . S
C2007 C2006 1.355 . S
C2007 C2009 1.419 . S
C2008 C2006 1.415 . S
C2008 C2013 1.425 . S
C2008 C2015 1.409 . S
C2009 H2001 0.930 . S
C2009 C2007 1.419 . S
C2009 C2010 1.362 . S
C2010 H2002 0.930 . S
C2010 C2009 1.362 . S
C2010 C2013 1.409 . S
C2011 H2003 0.930 . S
C2011 C2012 1.355 . S
C2011 C2013 1.415 . S
C2012 C2011 1.355 . S
C2012 C2014 1.419 . S
C2013 C2008 1.425 . S
C2013 C2010 1.409 . S
C2013 C2011 1.415 . S
C2014 H2004 0.930 . S
C2014 C2012 1.419 . S
C2014 C2015 1.362 . S
C2015 H2005 0.930 . S
C2015 C2008 1.409 . S
C2015 C2014 1.362 . S
H2016 C2022 0.930 . S
H2017 C2025 0.930 . S
H2018 C2026 0.930 . S
H2019 C2027 0.930 . S
H2020 C2030 0.930 . S
H2021 C2031 0.930 . S
C2022 H2016 0.930 . S
C2022 C2023 1.355 . S
C2022 C2024 1.415 . S
C2023 C2022 1.355 . S
C2023 C2025 1.419 . S
C2024 C2022 1.415 . S
C2024 C2029 1.425 . S
C2024 C2031 1.409 . S
C2025 H2017 0.930 . S
C2025 C2023 1.419 . S
C2025 C2026 1.362 . S
C2026 H2018 0.930 . S
C2026 C2025 1.362 . S
C2026 C2029 1.409 . S
C2027 H2019 0.930 . S
C2027 C2028 1.355 . S
C2027 C2029 1.415 . S
C2028 C2027 1.355 . S
C2028 C2030 1.419 . S
C2029 C2024 1.425 . S
C2029 C2026 1.409 . S
C2029 C2027 1.415 . S
C2030 H2020 0.930 . S
C2030 C2028 1.419 . S
C2030 C2031 1.362 . S
C2031 H2021 0.930 . S
C2031 C2024 1.409 . S
C2031 C2030 1.362 . S
H2032 C2038 0.930 . S
H2033 C2041 0.930 . S
H2034 C2042 0.930 . S
H2035 C2043 0.930 . S
H2036 C2046 0.930 . S
H2037 C2047 0.930 . S
C2038 H2032 0.930 . S
C2038 C2039 1.355 . S
C2038 C2040 1.415 . S
C2039 C2038 1.355 . S
C2039 C2041 1.419 . S
C2040 C2038 1.415 . S
C2040 C2045 1.425 . S
C2040 C2047 1.409 . S
C2041 H2033 0.930 . S
C2041 C2039 1.419 . S
C2041 C2042 1.362 . S
C2042 H2034 0.930 . S
C2042 C2041 1.362 . S
C2042 C2045 1.409 . S
C2043 H2035 0.930 . S
C2043 C2044 1.355 . S
C2043 C2045 1.415 . S
C2044 C2043 1.355 . S
C2044 C2046 1.419 . S
C2045 C2040 1.425 . S
C2045 C2042 1.409 . S
C2045 C2043 1.415 . S
C2046 H2036 0.930 . S
C2046 C2044 1.419 . S
C2046 C2047 1.362 . S
C2047 H2037 0.930 . S
C2047 C2040 1.409 . S
C2047 C2046 1.362 . S
H2048 C2054 0.930 . S
H2049 C2057 0.932 . S
H2050 C2058 0.930 . S
H2051 C2059 0.930 . S
H2052 C2062 0.930 . S
H2053 C2063 0.930 . S
C2054 H2048 0.930 . S
C2054 C2055 1.355 . S
C2054 C2056 1.415 . S
C2055 C2054 1.355 . S
C2055 C2057 1.419 . S
C2056 C2054 1.415 . S
C2056 C2061 1.425 . S
C2056 C2063 1.409 . S
C2057 H2049 0.932 . S
C2057 C2055 1.419 . S
C2057 C2058 1.362 . S
C2058 H2050 0.930 . S
C2058 C2057 1.362 . S
C2058 C2061 1.409 . S
C2059 H2051 0.930 . S
C2059 C2060 1.355 . S
C2059 C2061 1.415 . S
C2060 C2059 1.355 . S
C2060 C2062 1.419 . S
C2061 C2056 1.425 . S
C2061 C2058 1.409 . S
C2061 C2059 1.415 . S
C2062 H2052 0.930 . S
C2062 C2060 1.419 . S
C2062 C2063 1.362 . S
C2063 H2053 0.930 . S
C2063 C2056 1.409 . S
C2063 C2062 1.362 . S
H2064 C2070 0.930 . S
H2065 C2073 0.930 . S
H2066 C2074 0.930 . S
H2067 C2075 0.930 . S
H2068 C2078 0.930 . S
H2069 C2079 0.930 . S
C2070 H2064 0.930 . S
C2070 C2071 1.355 . S
C2070 C2072 1.415 . S
C2071 C2070 1.355 . S
C2071 C2073 1.419 . S
C2072 C2070 1.415 . S
C2072 C2077 1.425 . S
C2072 C2079 1.409 . S
C2073 H2065 0.930 . S
C2073 C2071 1.419 . S
C2073 C2074 1.362 . S
C2074 H2066 0.930 . S
C2074 C2073 1.362 . S
C2074 C2077 1.409 . S
C2075 H2067 0.930 . S
C2075 C2076 1.355 . S
C2075 C2077 1.415 . S
C2076 C2075 1.355 . S
C2076 C2078 1.419 . S
C2077 C2072 1.425 . S
C2077 C2074 1.409 . S
C2077 C2075 1.415 . S
C2078 H2068 0.930 . S
C2078 C2076 1.419 . S
C2078 C2079 1.362 . S
C2079 H2069 0.930 . S
C2079 C2072 1.409 . S
C2079 C2078 1.362 . S
H2080 C2086 0.930 . S
H2081 C2089 0.930 . S
H2082 C2090 0.930 . S
H2083 C2091 0.930 . S
H2084 C2094 0.930 . S
H2085 C2095 0.930 . S
C2086 H2080 0.930 . S
C2086 C2087 1.355 . S
C2086 C2088 1.415 . S
C2087 C2086 1.355 . S
C2087 C2089 1.419 . S
C2088 C2086 1.415 . S
C2088 C2093 1.425 . S
C2088 C2095 1.409 . S
C2089 H2081 0.930 . S
C2089 C2087 1.419 . S
C2089 C2090 1.362 . S
C2090 H2082 0.930 . S
C2090 C2089 1.362 . S
C2090 C2093 1.409 . S
C2091 H2083 0.930 . S
C2091 C2092 1.355 . S
C2091 C2093 1.415 . S
C2092 C2091 1.355 . S
C2092 C2094 1.419 . S
C2093 C2088 1.425 . S
C2093 C2090 1.409 . S
C2093 C2091 1.415 . S
C2094 H2084 0.930 . S
C2094 C2092 1.419 . S
C2094 C2095 1.362 . S
C2095 H2085 0.930 . S
C2095 C2088 1.409 . S
C2095 C2094 1.362 . S
H2096 C2102 0.930 . S
H2097 C2105 0.930 . S
H2098 C2106 0.930 . S
H2099 C2107 0.930 . S
H2100 C2110 0.930 . S
H2101 C2111 0.930 . S
C2102 H2096 0.930 . S
C2102 C2103 1.355 . S
C2102 C2104 1.415 . S
C2103 C2102 1.355 . S
C2103 C2105 1.419 . S
C2104 C2102 1.415 . S
C2104 C2109 1.425 . S
C2104 C2111 1.409 . S
C2105 H2097 0.930 . S
C2105 C2103 1.419 . S
C2105 C2106 1.362 . S
C2106 H2098 0.930 . S
C2106 C2105 1.362 . S
C2106 C2109 1.409 . S
C2107 H2099 0.930 . S
C2107 C2108 1.355 . S
C2107 C2109 1.415 . S
C2108 C2107 1.355 . S
C2108 C2110 1.419 . S
C2109 C2104 1.425 . S
C2109 C2106 1.409 . S
C2109 C2107 1.415 . S
C2110 H2100 0.930 . S
C2110 C2108 1.419 . S
C2110 C2111 1.362 . S
C2111 H2101 0.930 . S
C2111 C2104 1.409 . S
C2111 C2110 1.362 . S
H2112 C2118 0.930 . S
H2113 C2121 0.930 . S
H2114 C2122 0.930 . S
H2115 C2123 0.930 . S
H2116 C2126 0.930 . S
H2117 C2127 0.930 . S
C2118 H2112 0.930 . S
C2118 C2119 1.355 . S
C2118 C2120 1.415 . S
C2119 C2118 1.355 . S
C2119 C2121 1.419 . S
C2120 C2118 1.415 . S
C2120 C2125 1.425 . S
C2120 C2127 1.409 . S
C2121 H2113 0.930 . S
C2121 C2119 1.419 . S
C2121 C2122 1.362 . S
C2122 H2114 0.930 . S
C2122 C2121 1.362 . S
C2122 C2125 1.409 . S
C2123 H2115 0.930 . S
C2123 C2124 1.355 . S
C2123 C2125 1.415 . S
C2124 C2123 1.355 . S
C2124 C2126 1.419 . S
C2125 C2120 1.425 . S
C2125 C2122 1.409 . S
C2125 C2123 1.415 . S
C2126 H2116 0.930 . S
C2126 C2124 1.419 . S
C2126 C2127 1.362 . S
C2127 H2117 0.930 . S
C2127 C2120 1.409 . S
C2127 C2126 1.362 . S
H2128 C2134 0.930 . S
H2129 C2137 0.930 . S
H2130 C2138 0.930 . S
H2131 C2139 0.930 . S
H2132 C2142 0.930 . S
H2133 C2143 0.930 . S
C2134 H2128 0.930 . S
C2134 C2135 1.355 . S
C2134 C2136 1.415 . S
C2135 C2134 1.355 . S
C2135 C2137 1.419 . S
C2136 C2134 1.415 . S
C2136 C2141 1.425 . S
C2136 C2143 1.409 . S
C2137 H2129 0.930 . S
C2137 C2135 1.419 . S
C2137 C2138 1.362 . S
C2138 H2130 0.930 . S
C2138 C2137 1.362 . S
C2138 C2141 1.409 . S
C2139 H2131 0.930 . S
C2139 C2140 1.355 . S
C2139 C2141 1.415 . S
C2140 C2139 1.355 . S
C2140 C2142 1.419 . S
C2141 C2136 1.425 . S
C2141 C2138 1.409 . S
C2141 C2139 1.415 . S
C2142 H2132 0.930 . S
C2142 C2140 1.419 . S
C2142 C2143 1.362 . S
C2143 H2133 0.930 . S
C2143 C2136 1.409 . S
C2143 C2142 1.362 . S
H2144 C2150 0.930 . S
H2145 C2153 0.930 . S
H2146 C2154 0.930 . S
H2147 C2155 0.930 . S
H2148 C2158 0.930 . S
H2149 C2159 0.930 . S
C2150 H2144 0.930 . S
C2150 C2151 1.355 . S
C2150 C2152 1.415 . S
C2151 C2150 1.355 . S
C2151 C2153 1.419 . S
C2152 C2150 1.415 . S
C2152 C2157 1.425 . S
C2152 C2159 1.409 . S
C2153 H2145 0.930 . S
C2153 C2151 1.419 . S
C2153 C2154 1.362 . S
C2154 H2146 0.930 . S
C2154 C2153 1.362 . S
C2154 C2157 1.409 . S
C2155 H2147 0.930 . S
C2155 C2156 1.355 . S
C2155 C2157 1.415 . S
C2156 C2155 1.355 . S
C2156 C2158 1.419 . S
C2157 C2152 1.425 . S
C2157 C2154 1.409 . S
C2157 C2155 1.415 . S
C2158 H2148 0.930 . S
C2158 C2156 1.419 . S
C2158 C2159 1.362 . S
C2159 H2149 0.930 . S
C2159 C2152 1.409 . S
C2159 C2158 1.362 . S
H2160 C2166 0.930 . S
H2161 C2169 0.930 . S
H2162 C2170 0.930 . S
H2163 C2171 0.930 . S
H2164 C2174 0.930 . S
H2165 C2175 0.930 . S
C2166 H2160 0.930 . S
C2166 C2167 1.355 . S
C2166 C2168 1.415 . S
C2167 C2166 1.355 . S
C2167 C2169 1.419 . S
C2168 C2166 1.415 . S
C2168 C2173 1.425 . S
C2168 C2175 1.409 . S
C2169 H2161 0.930 . S
C2169 C2167 1.419 . S
C2169 C2170 1.362 . S
C2170 H2162 0.930 . S
C2170 C2169 1.362 . S
C2170 C2173 1.409 . S
C2171 H2163 0.930 . S
C2171 C2172 1.355 . S
C2171 C2173 1.415 . S
C2172 C2171 1.355 . S
C2172 C2174 1.419 . S
C2173 C2168 1.425 . S
C2173 C2170 1.409 . S
C2173 C2171 1.415 . S
C2174 H2164 0.930 . S
C2174 C2172 1.419 . S
C2174 C2175 1.362 . S
C2175 H2165 0.930 . S
C2175 C2168 1.409 . S
C2175 C2174 1.362 . S
H2176 C2182 0.930 . S
H2177 C2185 0.930 . S
H2178 C2186 0.930 . S
H2179 C2187 0.930 . S
H2180 C2190 0.930 . S
H2181 C2191 0.930 . S
C2182 H2176 0.930 . S
C2182 C2183 1.355 . S
C2182 C2184 1.415 . S
C2183 C2182 1.355 . S
C2183 C2185 1.419 . S
C2184 C2182 1.415 . S
C2184 C2189 1.425 . S
C2184 C2191 1.409 . S
C2185 H2177 0.930 . S
C2185 C2183 1.419 . S
C2185 C2186 1.362 . S
C2186 H2178 0.930 . S
C2186 C2185 1.362 . S
C2186 C2189 1.409 . S
C2187 H2179 0.930 . S
C2187 C2188 1.355 . S
C2187 C2189 1.415 . S
C2188 C2187 1.355 . S
C2188 C2190 1.419 . S
C2189 C2184 1.425 . S
C2189 C2186 1.409 . S
C2189 C2187 1.415 . S
C2190 H2180 0.930 . S
C2190 C2188 1.419 . S
C2190 C2191 1.362 . S
C2191 H2181 0.930 . S
C2191 C2184 1.409 . S
C2191 C2190 1.362 . S
H2192 C2198 0.930 . S
H2193 C2201 0.930 . S
H2194 C2202 0.930 . S
H2195 C2203 0.930 . S
H2196 C2206 0.930 . S
H2197 C2207 0.930 . S
C2198 H2192 0.930 . S
C2198 C2199 1.355 . S
C2198 C2200 1.415 . S
C2199 C2198 1.355 . S
C2199 C2201 1.419 . S
C2200 C2198 1.415 . S
C2200 C2205 1.425 . S
C2200 C2207 1.409 . S
C2201 H2193 0.930 . S
C2201 C2199 1.419 . S
C2201 C2202 1.362 . S
C2202 H2194 0.930 . S
C2202 C2201 1.362 . S
C2202 C2205 1.409 . S
C2203 H2195 0.930 . S
C2203 C2204 1.355 . S
C2203 C2205 1.415 . S
C2204 C2203 1.355 . S
C2204 C2206 1.419 . S
C2205 C2200 1.425 . S
C2205 C2202 1.409 . S
C2205 C2203 1.415 . S
C2206 H2196 0.930 . S
C2206 C2204 1.419 . S
C2206 C2207 1.362 . S
C2207 H2197 0.930 . S
C2207 C2200 1.409 . S
C2207 C2206 1.362 . S
H2208 C2214 0.930 . S
H2209 C2217 0.930 . S
H2210 C2218 0.930 . S
H2211 C2219 0.930 . S
H2212 C2222 0.930 . S
H2213 C2223 0.930 . S
C2214 H2208 0.930 . S
C2214 C2215 1.355 . S
C2214 C2216 1.415 . S
C2215 C2214 1.355 . S
C2215 C2217 1.419 . S
C2216 C2214 1.415 . S
C2216 C2221 1.425 . S
C2216 C2223 1.409 . S
C2217 H2209 0.930 . S
C2217 C2215 1.419 . S
C2217 C2218 1.362 . S
C2218 H2210 0.930 . S
C2218 C2217 1.362 . S
C2218 C2221 1.409 . S
C2219 H2211 0.930 . S
C2219 C2220 1.355 . S
C2219 C2221 1.415 . S
C2220 C2219 1.355 . S
C2220 C2222 1.419 . S
C2221 C2216 1.425 . S
C2221 C2218 1.409 . S
C2221 C2219 1.415 . S
C2222 H2212 0.930 . S
C2222 C2220 1.419 . S
C2222 C2223 1.362 . S
C2223 H2213 0.930 . S
C2223 C2216 1.409 . S
C2223 C2222 1.362 . S
H2224 C2230 0.930 . S
H2225 C2233 0.930 . S
H2226 C2234 0.930 . S
H2227 C2235 0.930 . S
H2228 C2238 0.930 . S
H2229 C2239 0.930 . S
C2230 H2224 0.930 . S
C2230 C2231 1.355 . S
C2230 C2232 1.415 . S
C2231 C2230 1.355 . S
C2231 C2233 1.419 . S
C2232 C2230 1.415 . S
C2232 C2237 1.425 . S
C2232 C2239 1.409 . S
C2233 H2225 0.930 . S
C2233 C2231 1.419 . S
C2233 C2234 1.362 . S
C2234 H2226 0.930 . S
C2234 C2233 1.362 . S
C2234 C2237 1.409 . S
C2235 H2227 0.930 . S
C2235 C2236 1.355 . S
C2235 C2237 1.415 . S
C2236 C2235 1.355 . S
C2236 C2238 1.419 . S
C2237 C2232 1.425 . S
C2237 C2234 1.409 . S
C2237 C2235 1.415 . S
C2238 H2228 0.930 . S
C2238 C2236 1.419 . S
C2238 C2239 1.362 . S
C2239 H2229 0.930 . S
C2239 C2232 1.409 . S
C2239 C2238 1.362 . S
H2240 C2246 0.930 . S
H2241 C2249 0.930 . S
H2242 C2250 0.930 . S
H2243 C2251 0.930 . S
H2244 C2254 0.930 . S
H2245 C2255 0.930 . S
C2246 H2240 0.930 . S
C2246 C2247 1.355 . S
C2246 C2248 1.415 . S
C2247 C2246 1.355 . S
C2247 C2249 1.419 . S
C2248 C2246 1.415 . S
C2248 C2253 1.425 . S
C2248 C2255 1.409 . S
C2249 H2241 0.930 . S
C2249 C2247 1.419 . S
C2249 C2250 1.362 . S
C2250 H2242 0.930 . S
C2250 C2249 1.362 . S
C2250 C2253 1.409 . S
C2251 H2243 0.930 . S
C2251 C2252 1.355 . S
C2251 C2253 1.415 . S
C2252 C2251 1.355 . S
C2252 C2254 1.419 . S
C2253 C2248 1.425 . S
C2253 C2250 1.409 . S
C2253 C2251 1.415 . S
C2254 H2244 0.930 . S
C2254 C2252 1.419 . S
C2254 C2255 1.362 . S
C2255 H2245 0.930 . S
C2255 C2248 1.409 . S
C2255 C2254 1.362 . S
H2256 C2262 0.930 . S
H2257 C2265 0.930 1_556 S
H2258 C2266 0.930 . S
H2259 C2267 0.930 1_556 S
H2260 C2270 0.930 . S
H2261 C2271 0.930 . S
C2262 H2256 0.930 . S
C2262 C2263 1.355 . S
C2262 C2264 1.415 . S
C2263 C2262 1.355 . S
C2263 C2265 1.419 . S
C2264 C2262 1.415 . S
C2264 C2269 1.425 . S
C2264 C2271 1.409 1_565 S
C2265 H2257 0.930 1_554 S
C2265 C2263 1.419 . S
C2265 C2266 1.362 1_554 S
C2266 H2258 0.930 . S
C2266 C2265 1.362 1_556 S
C2266 C2269 1.409 1_556 S
C2267 H2259 0.930 1_554 S
C2267 C2268 1.355 1_565 S
C2267 C2269 1.415 . S
C2268 C2267 1.355 1_545 S
C2268 C2270 1.419 . S
C2269 C2264 1.425 . S
C2269 C2266 1.409 1_554 S
C2269 C2267 1.415 . S
C2270 H2260 0.930 . S
C2270 C2268 1.419 . S
C2270 C2271 1.362 . S
C2271 H2261 0.930 . S
C2271 C2264 1.409 1_545 S
C2271 C2270 1.362 . S
H2272 C2278 0.930 . S
H2273 C2281 0.930 . S
H2274 C2282 0.930 . S
H2275 C2283 0.930 . S
H2276 C2286 0.930 . S
H2277 C2287 0.930 . S
C2278 H2272 0.930 . S
C2278 C2279 1.355 . S
C2278 C2280 1.415 . S
C2279 C2278 1.355 . S
C2279 C2281 1.419 . S
C2280 C2278 1.415 . S
C2280 C2285 1.425 . S
C2280 C2287 1.409 . S
C2281 H2273 0.930 . S
C2281 C2279 1.419 . S
C2281 C2282 1.362 . S
C2282 H2274 0.930 . S
C2282 C2281 1.362 . S
C2282 C2285 1.409 . S
C2283 H2275 0.930 . S
C2283 C2284 1.355 . S
C2283 C2285 1.415 . S
C2284 C2283 1.355 . S
C2284 C2286 1.419 . S
C2285 C2280 1.425 . S
C2285 C2282 1.409 . S
C2285 C2283 1.415 . S
C2286 H2276 0.930 . S
C2286 C2284 1.419 . S
C2286 C2287 1.362 . S
C2287 H2277 0.930 . S
C2287 C2280 1.409 . S
C2287 C2286 1.362 . S
H2288 C2294 0.930 1_556 S
H2289 C2297 0.930 . S
H2290 C2298 0.930 . S
H2291 C2299 0.930 . S
H2292 C2302 0.930 . S
H2293 C2303 0.924 1_556 S
C2294 H2288 0.930 1_554 S
C2294 C2295 1.355 . S
C2294 C2296 1.415 . S
C2295 C2294 1.355 . S
C2295 C2297 1.419 . S
C2296 C2294 1.415 . S
C2296 C2301 1.425 . S
C2296 C2303 1.412 . S
C2297 H2289 0.930 . S
C2297 C2295 1.419 . S
C2297 C2298 1.362 . S
C2298 H2290 0.930 . S
C2298 C2297 1.362 . S
C2298 C2301 1.409 . S
C2299 H2291 0.930 . S
C2299 C2300 1.355 . S
C2299 C2301 1.415 . S
C2300 C2299 1.355 . S
C2300 C2302 1.419 . S
C2301 C2296 1.425 . S
C2301 C2298 1.409 . S
C2301 C2299 1.415 . S
C2302 H2292 0.930 . S
C2302 C2300 1.419 . S
C2302 C2303 1.366 . S
C2303 H2293 0.924 1_554 S
C2303 C2296 1.412 . S
C2303 C2302 1.366 . S
H2304 C2310 0.930 . S
H2305 C2313 0.930 . S
H2306 C2314 0.930 . S
H2307 C2315 0.930 . S
H2308 C2318 0.930 . S
H2309 C2319 0.930 . S
C2310 H2304 0.930 . S
C2310 C2311 1.355 . S
C2310 C2312 1.415 . S
C2311 C2310 1.355 . S
C2311 C2313 1.419 . S
C2312 C2310 1.415 . S
C2312 C2317 1.425 . S
C2312 C2319 1.409 . S
C2313 H2305 0.930 . S
C2313 C2311 1.419 . S
C2313 C2314 1.362 . S
C2314 H2306 0.930 . S
C2314 C2313 1.362 . S
C2314 C2317 1.409 . S
C2315 H2307 0.930 . S
C2315 C2316 1.355 . S
C2315 C2317 1.415 . S
C2316 C2315 1.355 . S
C2316 C2318 1.419 . S
C2317 C2312 1.425 . S
C2317 C2314 1.409 . S
C2317 C2315 1.415 . S
C2318 H2308 0.930 . S
C2318 C2316 1.419 . S
C2318 C2319 1.362 . S
C2319 H2309 0.930 . S
C2319 C2312 1.409 . S
C2319 C2318 1.362 . S
H2320 C2326 0.930 . S
H2321 C2329 0.930 . S
H2322 C2330 0.930 . S
H2323 C2331 0.930 . S
H2324 C2334 0.930 . S
H2325 C2335 0.930 . S
C2326 H2320 0.930 . S
C2326 C2327 1.355 . S
C2326 C2328 1.415 . S
C2327 C2326 1.355 . S
C2327 C2329 1.419 . S
C2328 C2326 1.415 . S
C2328 C2333 1.425 . S
C2328 C2335 1.409 . S
C2329 H2321 0.930 . S
C2329 C2327 1.419 . S
C2329 C2330 1.362 . S
C2330 H2322 0.930 . S
C2330 C2329 1.362 . S
C2330 C2333 1.409 . S
C2331 H2323 0.930 . S
C2331 C2332 1.355 . S
C2331 C2333 1.415 . S
C2332 C2331 1.355 . S
C2332 C2334 1.419 . S
C2333 C2328 1.425 . S
C2333 C2330 1.409 . S
C2333 C2331 1.415 . S
C2334 H2324 0.930 . S
C2334 C2332 1.419 . S
C2334 C2335 1.362 . S
C2335 H2325 0.930 . S
C2335 C2328 1.409 . S
C2335 C2334 1.362 . S
H2336 C2342 0.930 . S
H2337 C2345 0.930 . S
H2338 C2346 0.930 . S
H2339 C2347 0.930 . S
H2340 C2350 0.930 . S
H2341 C2351 0.930 . S
C2342 H2336 0.930 . S
C2342 C2343 1.355 . S
C2342 C2344 1.415 . S
C2343 C2342 1.355 . S
C2343 C2345 1.419 . S
C2344 C2342 1.415 . S
C2344 C2349 1.425 . S
C2344 C2351 1.409 . S
C2345 H2337 0.930 . S
C2345 C2343 1.419 . S
C2345 C2346 1.362 . S
C2346 H2338 0.930 . S
C2346 C2345 1.362 . S
C2346 C2349 1.409 . S
C2347 H2339 0.930 . S
C2347 C2348 1.355 . S
C2347 C2349 1.415 . S
C2348 C2347 1.355 . S
C2348 C2350 1.419 . S
C2349 C2344 1.425 . S
C2349 C2346 1.409 . S
C2349 C2347 1.415 . S
C2350 H2340 0.930 . S
C2350 C2348 1.419 . S
C2350 C2351 1.362 . S
C2351 H2341 0.930 . S
C2351 C2344 1.409 . S
C2351 C2350 1.362 . S
H2352 C2358 0.930 . S
H2353 C2361 0.930 . S
H2354 C2362 0.930 . S
H2355 C2363 0.930 . S
H2356 C2366 0.930 . S
H2357 C2367 0.930 . S
C2358 H2352 0.930 . S
C2358 C2359 1.355 . S
C2358 C2360 1.415 . S
C2359 C2358 1.355 . S
C2359 C2361 1.419 . S
C2360 C2358 1.415 . S
C2360 C2365 1.425 . S
C2360 C2367 1.409 . S
C2361 H2353 0.930 . S
C2361 C2359 1.419 . S
C2361 C2362 1.362 . S
C2362 H2354 0.930 . S
C2362 C2361 1.362 . S
C2362 C2365 1.409 . S
C2363 H2355 0.930 . S
C2363 C2364 1.355 . S
C2363 C2365 1.415 . S
C2364 C2363 1.355 . S
C2364 C2366 1.419 . S
C2365 C2360 1.425 . S
C2365 C2362 1.409 . S
C2365 C2363 1.415 . S
C2366 H2356 0.930 . S
C2366 C2364 1.419 . S
C2366 C2367 1.362 . S
C2367 H2357 0.930 . S
C2367 C2360 1.409 . S
C2367 C2366 1.362 . S
H2368 C2374 0.930 . S
H2369 C2377 0.930 . S
H2370 C2378 0.930 . S
H2371 C2379 0.930 1_655 S
H2372 C2382 0.930 . S
H2373 C2383 0.930 . S
C2374 H2368 0.930 . S
C2374 C2375 1.355 . S
C2374 C2376 1.415 . S
C2375 C2374 1.355 . S
C2375 C2377 1.419 1_455 S
C2376 C2374 1.415 . S
C2376 C2381 1.425 . S
C2376 C2383 1.409 . S
C2377 H2369 0.930 . S
C2377 C2375 1.419 1_655 S
C2377 C2378 1.362 . S
C2378 H2370 0.930 . S
C2378 C2377 1.362 . S
C2378 C2381 1.409 1_655 S
C2379 H2371 0.930 1_455 S
C2379 C2380 1.355 . S
C2379 C2381 1.415 . S
C2380 C2379 1.355 . S
C2380 C2382 1.419 . S
C2381 C2376 1.425 . S
C2381 C2378 1.409 1_455 S
C2381 C2379 1.415 . S
C2382 H2372 0.930 . S
C2382 C2380 1.419 . S
C2382 C2383 1.362 . S
C2383 H2373 0.930 . S
C2383 C2376 1.409 . S
C2383 C2382 1.362 . S
H2384 C2390 0.930 . S
H2385 C2393 0.930 . S
H2386 C2394 0.930 . S
H2387 C2395 0.930 . S
H2388 C2398 0.930 . S
H2389 C2399 0.930 . S
C2390 H2384 0.930 . S
C2390 C2391 1.355 . S
C2390 C2392 1.415 . S
C2391 C2390 1.355 . S
C2391 C2393 1.419 . S
C2392 C2390 1.415 . S
C2392 C2397 1.425 . S
C2392 C2399 1.409 . S
C2393 H2385 0.930 . S
C2393 C2391 1.419 . S
C2393 C2394 1.362 . S
C2394 H2386 0.930 . S
C2394 C2393 1.362 . S
C2394 C2397 1.409 . S
C2395 H2387 0.930 . S
C2395 C2396 1.355 . S
C2395 C2397 1.415 . S
C2396 C2395 1.355 . S
C2396 C2398 1.419 . S
C2397 C2392 1.425 . S
C2397 C2394 1.409 . S
C2397 C2395 1.415 . S
C2398 H2388 0.930 . S
C2398 C2396 1.419 . S
C2398 C2399 1.362 . S
C2399 H2389 0.930 . S
C2399 C2392 1.409 . S
C2399 C2398 1.362 . S
H2400 C2406 0.930 . S
H2401 C2409 0.930 . S
H2402 C2410 0.930 . S
H2403 C2411 0.930 . S
H2404 C2414 0.930 . S
H2405 C2415 0.930 . S
C2406 H2400 0.930 . S
C2406 C2407 1.355 . S
C2406 C2408 1.415 . S
C2407 C2406 1.355 . S
C2407 C2409 1.419 . S
C2408 C2406 1.415 . S
C2408 C2413 1.425 . S
C2408 C2415 1.409 . S
C2409 H2401 0.930 . S
C2409 C2407 1.419 . S
C2409 C2410 1.362 . S
C2410 H2402 0.930 . S
C2410 C2409 1.362 . S
C2410 C2413 1.409 . S
C2411 H2403 0.930 . S
C2411 C2412 1.355 . S
C2411 C2413 1.415 . S
C2412 C2411 1.355 . S
C2412 C2414 1.419 . S
C2413 C2408 1.425 . S
C2413 C2410 1.409 . S
C2413 C2411 1.415 . S
C2414 H2404 0.930 . S
C2414 C2412 1.419 . S
C2414 C2415 1.362 . S
C2415 H2405 0.930 . S
C2415 C2408 1.409 . S
C2415 C2414 1.362 . S
H2416 C2422 0.930 . S
H2417 C2425 0.930 . S
H2418 C2426 0.930 . S
H2419 C2427 0.930 . S
H2420 C2430 0.930 . S
H2421 C2431 0.930 . S
C2422 H2416 0.930 . S
C2422 C2423 1.355 . S
C2422 C2424 1.415 . S
C2423 C2422 1.355 . S
C2423 C2425 1.419 . S
C2424 C2422 1.415 . S
C2424 C2429 1.425 . S
C2424 C2431 1.409 . S
C2425 H2417 0.930 . S
C2425 C2423 1.419 . S
C2425 C2426 1.362 . S
C2426 H2418 0.930 . S
C2426 C2425 1.362 . S
C2426 C2429 1.409 . S
C2427 H2419 0.930 . S
C2427 C2428 1.355 . S
C2427 C2429 1.415 . S
C2428 C2427 1.355 . S
C2428 C2430 1.419 . S
C2429 C2424 1.425 . S
C2429 C2426 1.409 . S
C2429 C2427 1.415 . S
C2430 H2420 0.930 . S
C2430 C2428 1.419 . S
C2430 C2431 1.362 . S
C2431 H2421 0.930 . S
C2431 C2424 1.409 . S
C2431 C2430 1.362 . S
H2432 C2438 0.930 . S
H2433 C2441 0.930 1_655 S
H2434 C2442 0.930 . S
H2435 C2443 0.930 1_655 S
H2436 C2446 0.930 . S
H2437 C2447 0.930 . S
C2438 H2432 0.930 . S
C2438 C2439 1.355 . S
C2438 C2440 1.415 . S
C2439 C2438 1.355 . S
C2439 C2441 1.419 . S
C2440 C2438 1.415 . S
C2440 C2445 1.425 . S
C2440 C2447 1.409 . S
C2441 H2433 0.930 1_455 S
C2441 C2439 1.419 . S
C2441 C2442 1.362 1_455 S
C2442 H2434 0.930 . S
C2442 C2441 1.362 1_655 S
C2442 C2445 1.409 1_655 S
C2443 H2435 0.930 1_455 S
C2443 C2444 1.355 . S
C2443 C2445 1.415 . S
C2444 C2443 1.355 . S
C2444 C2446 1.419 . S
C2445 C2440 1.425 . S
C2445 C2442 1.409 1_455 S
C2445 C2443 1.415 . S
C2446 H2436 0.930 . S
C2446 C2444 1.419 . S
C2446 C2447 1.362 . S
C2447 H2437 0.930 . S
C2447 C2440 1.409 . S
C2447 C2446 1.362 . S
H2448 C2454 0.930 . S
H2449 C2457 0.930 . S
H2450 C2458 0.930 . S
H2451 C2459 0.930 . S
H2452 C2462 0.930 . S
H2453 C2463 0.930 . S
C2454 H2448 0.930 . S
C2454 C2455 1.355 . S
C2454 C2456 1.415 . S
C2455 C2454 1.355 . S
C2455 C2457 1.419 . S
C2456 C2454 1.415 . S
C2456 C2461 1.425 . S
C2456 C2463 1.409 . S
C2457 H2449 0.930 . S
C2457 C2455 1.419 . S
C2457 C2458 1.362 . S
C2458 H2450 0.930 . S
C2458 C2457 1.362 . S
C2458 C2461 1.409 . S
C2459 H2451 0.930 . S
C2459 C2460 1.355 . S
C2459 C2461 1.415 . S
C2460 C2459 1.355 . S
C2460 C2462 1.419 . S
C2461 C2456 1.425 . S
C2461 C2458 1.409 . S
C2461 C2459 1.415 . S
C2462 H2452 0.930 . S
C2462 C2460 1.419 . S
C2462 C2463 1.362 . S
C2463 H2453 0.930 . S
C2463 C2456 1.409 . S
C2463 C2462 1.362 . S
H2464 C2470 0.930 . S
H2465 C2473 0.930 . S
H2466 C2474 0.930 . S
H2467 C2475 0.930 . S
H2468 C2478 0.930 . S
H2469 C2479 0.930 . S
C2470 H2464 0.930 . S
C2470 C2471 1.355 . S
C2470 C2472 1.415 . S
C2471 C2470 1.355 . S
C2471 C2473 1.419 . S
C2472 C2470 1.415 . S
C2472 C2477 1.425 . S
C2472 C2479 1.409 . S
C2473 H2465 0.930 . S
C2473 C2471 1.419 . S
C2473 C2474 1.362 . S
C2474 H2466 0.930 . S
C2474 C2473 1.362 . S
C2474 C2477 1.409 . S
C2475 H2467 0.930 . S
C2475 C2476 1.355 . S
C2475 C2477 1.415 . S
C2476 C2475 1.355 . S
C2476 C2478 1.419 . S
C2477 C2472 1.425 . S
C2477 C2474 1.409 . S
C2477 C2475 1.415 . S
C2478 H2468 0.930 . S
C2478 C2476 1.419 . S
C2478 C2479 1.362 . S
C2479 H2469 0.930 . S
C2479 C2472 1.409 . S
C2479 C2478 1.362 . S
H2480 C2486 0.930 . S
H2481 C2489 0.930 . S
H2482 C2490 0.930 . S
H2483 C2491 0.930 . S
H2484 C2494 0.930 . S
H2485 C2495 0.930 . S
C2486 H2480 0.930 . S
C2486 C2487 1.355 . S
C2486 C2488 1.415 . S
C2487 C2486 1.355 . S
C2487 C2489 1.419 . S
C2488 C2486 1.415 . S
C2488 C2493 1.425 . S
C2488 C2495 1.409 . S
C2489 H2481 0.930 . S
C2489 C2487 1.419 . S
C2489 C2490 1.362 . S
C2490 H2482 0.930 . S
C2490 C2489 1.362 . S
C2490 C2493 1.409 . S
C2491 H2483 0.930 . S
C2491 C2492 1.355 . S
C2491 C2493 1.415 . S
C2492 C2491 1.355 . S
C2492 C2494 1.419 . S
C2493 C2488 1.425 . S
C2493 C2490 1.409 . S
C2493 C2491 1.415 . S
C2494 H2484 0.930 . S
C2494 C2492 1.419 . S
C2494 C2495 1.362 . S
C2495 H2485 0.930 . S
C2495 C2488 1.409 . S
C2495 C2494 1.362 . S
H2496 C2502 0.930 . S
H2497 C2505 0.930 . S
H2498 C2506 0.930 . S
H2499 C2507 0.930 . S
H2500 C2510 0.930 . S
H2501 C2511 0.930 . S
C2502 H2496 0.930 . S
C2502 C2503 1.355 . S
C2502 C2504 1.415 . S
C2503 C2502 1.355 . S
C2503 C2505 1.419 . S
C2504 C2502 1.415 . S
C2504 C2509 1.425 . S
C2504 C2511 1.409 1_655 S
C2505 H2497 0.930 . S
C2505 C2503 1.419 . S
C2505 C2506 1.362 . S
C2506 H2498 0.930 . S
C2506 C2505 1.362 . S
C2506 C2509 1.409 . S
C2507 H2499 0.930 . S
C2507 C2508 1.355 . S
C2507 C2509 1.415 . S
C2508 C2507 1.355 . S
C2508 C2510 1.419 1_655 S
C2509 C2504 1.425 . S
C2509 C2506 1.409 . S
C2509 C2507 1.415 . S
C2510 H2500 0.930 . S
C2510 C2508 1.419 1_455 S
C2510 C2511 1.362 . S
C2511 H2501 0.930 . S
C2511 C2504 1.409 1_455 S
C2511 C2510 1.362 . S
H2512 C2518 0.930 . S
H2513 C2521 0.930 . S
H2514 C2522 0.930 . S
H2515 C2523 0.930 . S
H2516 C2526 0.930 . S
H2517 C2527 0.930 . S
C2518 H2512 0.930 . S
C2518 C2519 1.355 . S
C2518 C2520 1.415 . S
C2519 C2518 1.355 . S
C2519 C2521 1.419 . S
C2520 C2518 1.415 . S
C2520 C2525 1.425 . S
C2520 C2527 1.409 . S
C2521 H2513 0.930 . S
C2521 C2519 1.419 . S
C2521 C2522 1.362 . S
C2522 H2514 0.930 . S
C2522 C2521 1.362 . S
C2522 C2525 1.409 . S
C2523 H2515 0.930 . S
C2523 C2524 1.355 . S
C2523 C2525 1.415 . S
C2524 C2523 1.355 . S
C2524 C2526 1.419 . S
C2525 C2520 1.425 . S
C2525 C2522 1.409 . S
C2525 C2523 1.415 . S
C2526 H2516 0.930 . S
C2526 C2524 1.419 . S
C2526 C2527 1.362 . S
C2527 H2517 0.930 . S
C2527 C2520 1.409 . S
C2527 C2526 1.362 . S
H2528 C2534 0.930 . S
H2529 C2537 0.930 . S
H2530 C2538 0.930 . S
H2531 C2539 0.930 . S
H2532 C2542 0.930 . S
H2533 C2543 0.930 . S
C2534 H2528 0.930 . S
C2534 C2535 1.355 . S
C2534 C2536 1.415 . S
C2535 C2534 1.355 . S
C2535 C2537 1.419 . S
C2536 C2534 1.415 . S
C2536 C2541 1.425 . S
C2536 C2543 1.409 . S
C2537 H2529 0.930 . S
C2537 C2535 1.419 . S
C2537 C2538 1.362 . S
C2538 H2530 0.930 . S
C2538 C2537 1.362 . S
C2538 C2541 1.409 . S
C2539 H2531 0.930 . S
C2539 C2540 1.355 . S
C2539 C2541 1.415 . S
C2540 C2539 1.355 . S
C2540 C2542 1.419 . S
C2541 C2536 1.425 . S
C2541 C2538 1.409 . S
C2541 C2539 1.415 . S
C2542 H2532 0.930 . S
C2542 C2540 1.419 . S
C2542 C2543 1.362 . S
C2543 H2533 0.930 . S
C2543 C2536 1.409 . S
C2543 C2542 1.362 . S
H2544 C2550 0.930 . S
H2545 C2553 0.930 . S
H2546 C2554 0.930 . S
H2547 C2555 0.930 . S
H2548 C2558 0.930 . S
H2549 C2559 0.930 . S
C2550 H2544 0.930 . S
C2550 C2551 1.355 . S
C2550 C2552 1.415 . S
C2551 C2550 1.355 . S
C2551 C2553 1.419 . S
C2552 C2550 1.415 . S
C2552 C2557 1.425 . S
C2552 C2559 1.409 . S
C2553 H2545 0.930 . S
C2553 C2551 1.419 . S
C2553 C2554 1.362 . S
C2554 H2546 0.930 . S
C2554 C2553 1.362 . S
C2554 C2557 1.409 . S
C2555 H2547 0.930 . S
C2555 C2556 1.355 . S
C2555 C2557 1.415 . S
C2556 C2555 1.355 . S
C2556 C2558 1.419 . S
C2557 C2552 1.425 . S
C2557 C2554 1.409 . S
C2557 C2555 1.415 . S
C2558 H2548 0.930 . S
C2558 C2556 1.419 . S
C2558 C2559 1.362 . S
C2559 H2549 0.930 . S
C2559 C2552 1.409 . S
C2559 C2558 1.362 . S
H2560 C2566 0.930 . S
H2561 C2569 0.930 . S
H2562 C2570 0.930 . S
H2563 C2571 0.930 . S
H2564 C2574 0.930 1_455 S
H2565 C2575 0.930 1_455 S
C2566 H2560 0.930 . S
C2566 C2567 1.355 . S
C2566 C2568 1.415 . S
C2567 C2566 1.355 . S
C2567 C2569 1.419 . S
C2568 C2566 1.415 . S
C2568 C2573 1.425 . S
C2568 C2575 1.409 . S
C2569 H2561 0.930 . S
C2569 C2567 1.419 . S
C2569 C2570 1.362 . S
C2570 H2562 0.930 . S
C2570 C2569 1.362 . S
C2570 C2573 1.409 . S
C2571 H2563 0.930 . S
C2571 C2572 1.355 . S
C2571 C2573 1.415 . S
C2572 C2571 1.355 . S
C2572 C2574 1.419 . S
C2573 C2568 1.425 . S
C2573 C2570 1.409 . S
C2573 C2571 1.415 . S
C2574 H2564 0.930 1_655 S
C2574 C2572 1.419 . S
C2574 C2575 1.362 . S
C2575 H2565 0.930 1_655 S
C2575 C2568 1.409 . S
C2575 C2574 1.362 . S
H2576 C2582 0.930 . S
H2577 C2585 0.930 . S
H2578 C2586 0.930 . S
H2579 C2587 0.930 . S
H2580 C2590 0.930 . S
H2581 C2591 0.930 . S
C2582 H2576 0.930 . S
C2582 C2583 1.355 . S
C2582 C2584 1.415 . S
C2583 C2582 1.355 . S
C2583 C2585 1.419 . S
C2584 C2582 1.415 . S
C2584 C2589 1.425 . S
C2584 C2591 1.409 . S
C2585 H2577 0.930 . S
C2585 C2583 1.419 . S
C2585 C2586 1.362 . S
C2586 H2578 0.930 . S
C2586 C2585 1.362 . S
C2586 C2589 1.409 . S
C2587 H2579 0.930 . S
C2587 C2588 1.355 . S
C2587 C2589 1.415 . S
C2588 C2587 1.355 . S
C2588 C2590 1.419 . S
C2589 C2584 1.425 . S
C2589 C2586 1.409 . S
C2589 C2587 1.415 . S
C2590 H2580 0.930 . S
C2590 C2588 1.419 . S
C2590 C2591 1.362 . S
C2591 H2581 0.930 . S
C2591 C2584 1.409 . S
C2591 C2590 1.362 . S
H2592 C2598 0.930 . S
H2593 C2601 0.930 . S
H2594 C2602 0.930 . S
H2595 C2603 0.930 . S
H2596 C2606 0.930 . S
H2597 C2607 0.930 . S
C2598 H2592 0.930 . S
C2598 C2599 1.355 . S
C2598 C2600 1.415 . S
C2599 C2598 1.355 . S
C2599 C2601 1.419 . S
C2600 C2598 1.415 . S
C2600 C2605 1.425 . S
C2600 C2607 1.409 . S
C2601 H2593 0.930 . S
C2601 C2599 1.419 . S
C2601 C2602 1.362 . S
C2602 H2594 0.930 . S
C2602 C2601 1.362 . S
C2602 C2605 1.409 . S
C2603 H2595 0.930 . S
C2603 C2604 1.355 . S
C2603 C2605 1.415 . S
C2604 C2603 1.355 . S
C2604 C2606 1.419 . S
C2605 C2600 1.425 . S
C2605 C2602 1.409 . S
C2605 C2603 1.415 . S
C2606 H2596 0.930 . S
C2606 C2604 1.419 . S
C2606 C2607 1.362 . S
C2607 H2597 0.930 . S
C2607 C2600 1.409 . S
C2607 C2606 1.362 . S
H2608 C2614 0.930 . S
H2609 C2617 0.930 . S
H2610 C2618 0.930 . S
H2611 C2619 0.930 1_545 S
H2612 C2622 0.930 . S
H2613 C2623 0.930 . S
C2614 H2608 0.930 . S
C2614 C2615 1.355 . S
C2614 C2616 1.415 . S
C2615 C2614 1.355 . S
C2615 C2617 1.419 . S
C2616 C2614 1.415 . S
C2616 C2621 1.425 . S
C2616 C2623 1.409 . S
C2617 H2609 0.930 . S
C2617 C2615 1.419 . S
C2617 C2618 1.362 . S
C2618 H2610 0.930 . S
C2618 C2617 1.362 . S
C2618 C2621 1.409 . S
C2619 H2611 0.930 1_565 S
C2619 C2620 1.355 . S
C2619 C2621 1.415 . S
C2620 C2619 1.355 . S
C2620 C2622 1.419 . S
C2621 C2616 1.425 . S
C2621 C2618 1.409 . S
C2621 C2619 1.415 . S
C2622 H2612 0.930 . S
C2622 C2620 1.419 . S
C2622 C2623 1.362 . S
C2623 H2613 0.930 . S
C2623 C2616 1.409 . S
C2623 C2622 1.362 . S
H2624 C2630 0.930 . S
H2625 C2633 0.930 . S
H2626 C2634 0.930 . S
H2627 C2635 0.930 . S
H2628 C2638 0.930 . S
H2629 C2639 0.930 . S
C2630 H2624 0.930 . S
C2630 C2631 1.355 . S
C2630 C2632 1.415 . S
C2631 C2630 1.355 . S
C2631 C2633 1.419 . S
C2632 C2630 1.415 . S
C2632 C2637 1.425 . S
C2632 C2639 1.409 . S
C2633 H2625 0.930 . S
C2633 C2631 1.419 . S
C2633 C2634 1.362 . S
C2634 H2626 0.930 . S
C2634 C2633 1.362 . S
C2634 C2637 1.409 . S
C2635 H2627 0.930 . S
C2635 C2636 1.355 . S
C2635 C2637 1.415 . S
C2636 C2635 1.355 . S
C2636 C2638 1.419 . S
C2637 C2632 1.425 . S
C2637 C2634 1.409 . S
C2637 C2635 1.415 . S
C2638 H2628 0.930 . S
C2638 C2636 1.419 . S
C2638 C2639 1.362 . S
C2639 H2629 0.930 . S
C2639 C2632 1.409 . S
C2639 C2638 1.362 . S
H2640 C2646 0.930 . S
H2641 C2649 0.930 . S
H2642 C2650 0.930 . S
H2643 C2651 0.930 . S
H2644 C2654 0.930 . S
H2645 C2655 0.930 . S
C2646 H2640 0.930 . S
C2646 C2647 1.355 . S
C2646 C2648 1.417 . S
C2647 C2646 1.355 . S
C2647 C2649 1.416 1_556 S
C2648 C2646 1.417 . S
C2648 C2653 1.422 1_556 S
C2648 C2655 1.410 . S
C2649 H2641 0.930 . S
C2649 C2647 1.416 1_554 S
C2649 C2650 1.362 . S
C2650 H2642 0.930 . S
C2650 C2649 1.362 . S
C2650 C2653 1.409 . S
C2651 H2643 0.930 . S
C2651 C2652 1.355 . S
C2651 C2653 1.415 . S
C2652 C2651 1.355 . S
C2652 C2654 1.416 1_554 S
C2653 C2648 1.422 1_554 S
C2653 C2650 1.409 . S
C2653 C2651 1.415 . S
C2654 H2644 0.930 . S
C2654 C2652 1.416 1_556 S
C2654 C2655 1.365 . S
C2655 H2645 0.930 . S
C2655 C2648 1.410 . S
C2655 C2654 1.365 . S
H2656 C2662 0.930 . S
H2657 C2665 0.930 . S
H2658 C2666 0.930 . S
H2659 C2667 0.930 . S
H2660 C2670 0.930 . S
H2661 C2671 0.930 . S
C2662 H2656 0.930 . S
C2662 C2663 1.355 . S
C2662 C2664 1.415 . S
C2663 C2662 1.355 . S
C2663 C2665 1.419 . S
C2664 C2662 1.415 . S
C2664 C2669 1.425 . S
C2664 C2671 1.409 . S
C2665 H2657 0.930 . S
C2665 C2663 1.419 . S
C2665 C2666 1.362 . S
C2666 H2658 0.930 . S
C2666 C2665 1.362 . S
C2666 C2669 1.409 . S
C2667 H2659 0.930 . S
C2667 C2668 1.355 . S
C2667 C2669 1.415 . S
C2668 C2667 1.355 . S
C2668 C2670 1.419 . S
C2669 C2664 1.425 . S
C2669 C2666 1.409 . S
C2669 C2667 1.415 . S
C2670 H2660 0.930 . S
C2670 C2668 1.419 . S
C2670 C2671 1.362 . S
C2671 H2661 0.930 . S
C2671 C2664 1.409 . S
C2671 C2670 1.362 . S
H2672 C2678 0.930 . S
H2673 C2681 0.930 . S
H2674 C2682 0.930 . S
H2675 C2683 0.930 . S
H2676 C2686 0.930 . S
H2677 C2687 0.930 . S
C2678 H2672 0.930 . S
C2678 C2679 1.355 1_556 S
C2678 C2680 1.415 . S
C2679 C2678 1.355 1_554 S
C2679 C2681 1.419 . S
C2680 C2678 1.415 . S
C2680 C2685 1.425 1_556 S
C2680 C2687 1.409 . S
C2681 H2673 0.930 . S
C2681 C2679 1.419 . S
C2681 C2682 1.362 . S
C2682 H2674 0.930 . S
C2682 C2681 1.362 . S
C2682 C2685 1.409 . S
C2683 H2675 0.930 . S
C2683 C2684 1.355 1_554 S
C2683 C2685 1.415 . S
C2684 C2683 1.355 1_556 S
C2684 C2686 1.419 . S
C2685 C2680 1.425 1_554 S
C2685 C2682 1.409 . S
C2685 C2683 1.415 . S
C2686 H2676 0.930 . S
C2686 C2684 1.419 . S
C2686 C2687 1.362 . S
C2687 H2677 0.930 . S
C2687 C2680 1.409 . S
C2687 C2686 1.362 . S
H2688 C2694 0.930 . S
H2689 C2697 0.930 . S
H2690 C2698 0.930 . S
H2691 C2699 0.930 . S
H2692 C2702 0.930 . S
H2693 C2703 0.930 . S
C2694 H2688 0.930 . S
C2694 C2695 1.355 . S
C2694 C2696 1.415 . S
C2695 C2694 1.355 . S
C2695 C2697 1.419 . S
C2696 C2694 1.415 . S
C2696 C2701 1.425 . S
C2696 C2703 1.409 . S
C2697 H2689 0.930 . S
C2697 C2695 1.419 . S
C2697 C2698 1.362 . S
C2698 H2690 0.930 . S
C2698 C2697 1.362 . S
C2698 C2701 1.409 . S
C2699 H2691 0.930 . S
C2699 C2700 1.355 . S
C2699 C2701 1.415 . S
C2700 C2699 1.355 . S
C2700 C2702 1.419 . S
C2701 C2696 1.425 . S
C2701 C2698 1.409 . S
C2701 C2699 1.415 . S
C2702 H2692 0.930 . S
C2702 C2700 1.419 . S
C2702 C2703 1.362 . S
C2703 H2693 0.930 . S
C2703 C2696 1.409 . S
C2703 C2702 1.362 . S
H2704 C2710 0.930 . S
H2705 C2713 0.930 . S
H2706 C2714 0.930 . S
H2707 C2715 0.930 . S
H2708 C2718 0.930 . S
H2709 C2719 0.930 . S
C2710 H2704 0.930 . S
C2710 C2711 1.355 . S
C2710 C2712 1.415 . S
C2711 C2710 1.355 . S
C2711 C2713 1.419 . S
C2712 C2710 1.415 . S
C2712 C2717 1.425 . S
C2712 C2719 1.409 . S
C2713 H2705 0.930 . S
C2713 C2711 1.419 . S
C2713 C2714 1.362 . S
C2714 H2706 0.930 . S
C2714 C2713 1.362 . S
C2714 C2717 1.409 . S
C2715 H2707 0.930 . S
C2715 C2716 1.355 . S
C2715 C2717 1.415 . S
C2716 C2715 1.355 . S
C2716 C2718 1.419 . S
C2717 C2712 1.425 . S
C2717 C2714 1.409 . S
C2717 C2715 1.415 . S
C2718 H2708 0.930 . S
C2718 C2716 1.419 . S
C2718 C2719 1.362 . S
C2719 H2709 0.930 . S
C2719 C2712 1.409 . S
C2719 C2718 1.362 . S
C1191 C255 1.581 . S
C1196 C882 1.540 . S
C1207 C147 1.608 . S
C1212 C893 1.595 . S
C1223 C184 1.086 . S
C1228 C922 1.033 . S
C1244 C925 1.440 . S
C1239 C220 1.444 . S
C1255 C40 1.582 . S
C1260 C963 1.546 . S
C1276 C966 1.127 . S
C1271 C74 1.076 . S
C1292 C993 1.508 . S
C1287 C110 1.503 . S
C1303 C14 1.559 . S
C1308 C1022 1.520 . S
C1324 C873 1.590 1_655 S
C1319 C579 1.587 . S
C1335 C616 0.954 . S
C1340 C885 0.928 . S
C1356 C913 1.579 . S
C1351 C687 1.577 . S
C1372 C942 1.263 . S
C1367 C436 1.206 . S
C1383 C580 1.065 . S
C1388 C946 1.122 . S
C1404 C972 1.582 . S
C1399 C615 1.619 . S
C1420 C985 0.822 . S
C1415 C688 0.844 . S
C1436 C1013 1.608 . S
C1431 C435 1.635 . S
C1452 C865 1.531 . S
C1447 C410 1.495 . S
C1463 C722 1.763 . S
C1468 C1032 1.742 1_554 S
C1484 C1063 1.602 . S
C1479 C842 1.626 . S
C1500 C1082 1.063 . S
C1495 C794 1.005 . S
C1511 C302 1.431 . S
C1516 C1005 1.418 . S
C1527 C338 1.473 . S
C1532 C905 1.529 . S
C1543 C830 1.626 . S
C1548 C1093 1.622 . S
C1564 C1122 1.044 . S
C1559 C758 1.019 . S
C1580 C883 1.540 . S
C1575 C158 1.487 . S
C1596 C1112 1.624 . S
C1591 C254 1.621 . S
C1607 C218 1.089 . S
C1612 C923 0.987 . S
C1623 C194 1.341 . S
C1628 C1086 1.424 . S
C1644 C962 1.503 . S
C1639 C3 1.569 . S
C1655 C111 1.018 . S
C1660 C1045 0.999 . S
C1676 C992 1.491 . S
C1671 C76 1.477 . S
C1692 C1143 1.586 . S
C1687 C50 1.601 . S
C1708 C872 1.560 1_565 S
C1703 C364 1.560 . S
C1724 C1106 0.949 . S
C1719 C795 0.964 . S
C1735 C292 1.528 . S
C1740 C912 1.530 . S
C1751 C723 1.189 . S
C1756 C1103 1.196 . S
C1767 C363 1.101 . S
C1772 C945 1.090 . S
C1788 C1053 1.588 . S
C1783 C796 1.614 . S
C1799 C291 0.850 . S
C1804 C986 0.797 . S
C1815 C724 1.620 . S
C1820 C1132 1.604 . S
C1831 C482 1.461 . S
C1836 C866 1.497 . S
C1847 C434 1.747 . S
C1852 C1033 1.739 . S
C1863 C662 1.598 . S
C1868 C982 1.612 . S
C1879 C614 1.044 . S
C1884 C1083 0.965 . S
C1900 C1126 1.418 . S
C1895 C698 1.322 . S
C1911 C554 1.486 . S
C1916 C906 1.540 . S
C1932 C932 1.613 . S
C1927 C650 1.613 . S
C1948 C903 1.007 . S
C1943 C506 1.017 . S
C1959 C183 1.555 . S
C1964 C1162 1.491 . S
C1980 C1113 1.596 . S
C1975 C219 1.607 . S
C1991 C256 1.072 . S
C1996 C1182 1.001 . S
C2007 C148 1.435 . S
C2012 C1085 1.427 . S
C2023 C122 1.610 . S
C2028 C1043 1.551 . S
C2044 C1046 1.081 . S
C2039 C2 1.038 . S
C2060 C1073 1.430 . S
C2055 C39 1.407 . S
C2076 C1142 1.618 . S
C2071 C86 1.625 . S
C2092 C1153 1.596 . S
C2087 C651 1.615 . S
C2103 C472 0.993 . S
C2108 C1105 0.981 . S
C2124 C1173 1.555 . S
C2119 C507 1.574 . S
C2140 C1102 1.208 . S
C2135 C544 1.258 . S
C2156 C1026 1.136 . S
C2151 C652 1.094 . S
C2167 C471 1.602 . S
C2172 C1052 1.563 . S
C2188 C1065 0.808 . S
C2183 C508 0.829 . S
C2199 C543 1.659 . S
C2204 C1133 1.633 . S
C2220 C1145 1.552 . S
C2215 C806 1.514 . S
C2231 C326 1.752 . S
C2236 C952 1.703 . S
C2252 C983 1.581 . S
C2247 C374 1.601 . S
C2268 C1002 1.074 . S
C2263 C398 1.028 . S
C2284 C1125 1.394 . S
C2279 C770 1.427 . S
C2295 C734 1.518 1_554 S
C2300 C1165 1.474 . S
C2316 C933 1.649 . S
C2311 C362 1.648 . S
C2332 C902 0.980 . S
C2327 C290 1.066 . S
C2343 C230 1.441 . S
C2348 C1163 1.468 . S
C2364 C892 1.630 . S
C2359 C182 1.626 . S
C2375 C146 1.078 . S
C2380 C1183 1.033 . S
C2391 C266 1.402 . S
C2396 C926 1.418 . S
C2407 C75 1.598 . S
C2412 C1042 1.534 . S
C2428 C965 1.115 . S
C2423 C38 1.109 . S
C2439 C4 1.389 . S
C2444 C1072 1.406 . S
C2455 C112 1.640 . S
C2460 C1023 1.569 . S
C2476 C1152 1.574 . S
C2471 C832 1.562 . S
C2487 C399 1.026 . S
C2492 C886 0.976 . S
C2508 C1172 1.527 1_655 S
C2503 C760 1.524 . S
C2519 C327 1.175 . S
C2524 C943 1.173 . S
C2535 C831 1.133 . S
C2540 C1025 1.115 . S
C2556 C973 1.590 . S
C2551 C400 1.615 . S
C2567 C759 0.876 . S
C2572 C1066 0.831 . S
C2588 C1012 1.644 . S
C2583 C328 1.642 . S
C2604 C1146 1.534 . S
C2599 C626 1.505 . S
C2620 C953 1.747 1_565 S
C2615 C542 1.762 . S
C2631 C590 1.550 . S
C2636 C1062 1.557 . S
C2652 C1003 0.987 . S
C2647 C470 1.045 . S
C2663 C518 1.354 . S
C2668 C1006 1.382 . S
C2679 C446 1.475 . S
C2684 C1166 1.539 . S
C2700 C1092 1.595 . S
C2695 C578 1.588 . S
C2716 C1123 1.019 . S
C2711 C686 1.007 . S
