# Generated by pormake.
# Topology pth, (4,4)-cn, num edge types: 1
# Building blocks:
#     Node 0, Type 0, BuildingBlock: KUFVIS_clean_sbu_0, # of connection points: 4
#     Node 1, Type 0, BuildingBlock: KUFVIS_clean_sbu_0, # of connection points: 4
#     Node 2, Type 0, BuildingBlock: KUFVIS_clean_sbu_0, # of connection points: 4
#     Node 3, Type 1, BuildingBlock: MUDLON_clean_sbu_0, # of connection points: 4
#     Node 4, Type 1, BuildingBlock: MUDLON_clean_sbu_0, # of connection points: 4
#     Node 5, Type 1, BuildingBlock: MUDLON_clean_sbu_0, # of connection points: 4
#     Edge 6, Type (0, 1), BuildingBlock: FUNLAD_clean_linker_1, # of connection points: 2
#     Edge 7, Type (0, 1), BuildingBlock: FUNLAD_clean_linker_1, # of connection points: 2
#     Edge 8, Type (0, 1), BuildingBlock: FUNLAD_clean_linker_1, # of connection points: 2
#     Edge 9, Type (0, 1), BuildingBlock: FUNLAD_clean_linker_1, # of connection points: 2
#     Edge 10, Type (0, 1), BuildingBlock: FUNLAD_clean_linker_1, # of connection points: 2
#     Edge 11, Type (0, 1), BuildingBlock: FUNLAD_clean_linker_1, # of connection points: 2
#     Edge 12, Type (0, 1), BuildingBlock: FUNLAD_clean_linker_1, # of connection points: 2
#     Edge 13, Type (0, 1), BuildingBlock: FUNLAD_clean_linker_1, # of connection points: 2
#     Edge 14, Type (0, 1), BuildingBlock: FUNLAD_clean_linker_1, # of connection points: 2
#     Edge 15, Type (0, 1), BuildingBlock: FUNLAD_clean_linker_1, # of connection points: 2
#     Edge 16, Type (0, 1), BuildingBlock: FUNLAD_clean_linker_1, # of connection points: 2
#     Edge 17, Type (0, 1), BuildingBlock: FUNLAD_clean_linker_1, # of connection points: 2
# Relax obj value: 0.022
# Max RMSD: 0.096
# Mean RMSD: 0.069
data_MOF--net-pth--node1-KUFVIS_clean_sbu_0--node2-MUDLON_clean_sbu_0--edge1-FUNLAD_clean_linker_1
_symmetry_space_group_name_H-M    P1
_symmetry_Int_Tables_number       1
_symmetry_cell_setting            triclinic
loop_
_symmetry_equiv_pos_as_xyz
'x, y, z'
_cell_length_a     23.361241
_cell_length_b     23.430551
_cell_length_c     63.37979
_cell_angle_alpha  90.260008
_cell_angle_beta   92.250851
_cell_angle_gamma 119.79628
loop_
_atom_site_label
_atom_site_type_symbol
_atom_site_fract_x
_atom_site_fract_y
_atom_site_fract_z
_atom_type_partial_charge
Mn0 Mn 0.07267 0.12999 0.08272 0.0
Mn1 Mn 1.00533 0.20735 0.0553 0.0
C2 C 1.0003 0.07587 0.05378 0.0
C3 C 0.06618 0.0657 0.11188 0.0
C4 C 0.14732 0.23803 0.05125 0.0
O5 O 0.09267 0.20949 0.10192 0.0
O6 O 0.03031 0.24471 0.08463 0.0
C7 C 0.88336 0.16056 0.07872 0.0
N8 N 0.91312 0.16576 0.06021 0.0
C9 C 0.80804 0.10596 0.04108 0.0
C10 C 0.77628 0.10053 0.0599 0.0
C11 C 0.81412 0.12772 0.07881 0.0
C12 C 0.87717 0.13909 0.04198 0.0
H13 H 0.91227 0.18119 0.0933 0.0
C14 C 0.06671 0.24632 0.10052 0.0
O15 O 0.1217 0.10152 0.10292 0.0
O16 O 0.01541 0.06852 0.10432 0.0
N17 N 0.97823 0.17646 0.02665 0.0
C18 C 0.01647 0.18705 0.00978 0.0
C19 C 0.98614 0.1619 0.98972 0.0
C20 C 0.91692 0.1272 0.98714 0.0
C21 C 0.87863 0.11884 1.00458 0.0
C22 C 0.91161 0.14524 0.02418 0.0
H23 H 0.06965 0.21392 0.01161 0.0
O24 O 0.03775 0.05428 0.06164 0.0
O25 O 1.00481 0.12693 0.06356 0.0
O26 O 0.14452 0.19147 0.06257 0.0
O27 O 0.10004 0.25065 0.04898 0.0
C28 C 0.80907 0.0853 1.00331 0.0
C29 C 0.77381 0.07909 0.02152 0.0
H30 H 0.72289 0.07515 0.06004 0.0
H31 H 0.78995 0.12333 0.09342 0.0
H32 H 0.01605 0.1692 0.97629 0.0
H33 H 0.89371 0.10758 0.97166 0.0
H34 H 0.78218 0.06401 0.9884 0.0
H35 H 0.72033 0.05299 0.02036 0.0
Mn36 Mn 0.04588 0.13036 0.41357 0.0
Mn37 Mn 0.11282 0.27301 0.44216 0.0
C38 C 0.11658 0.14708 0.44306 0.0
C39 C 0.04684 0.06353 0.38599 0.0
C40 C 0.97155 0.1637 0.44617 0.0
O41 O 0.03269 0.19113 0.3932 0.0
O42 O 0.07889 0.28307 0.41386 0.0
C43 C 0.22652 0.35072 0.41561 0.0
N44 N 0.20253 0.32677 0.4348 0.0
C45 C 0.31148 0.38453 0.45156 0.0
C46 C 0.33734 0.40997 0.43199 0.0
C47 C 0.29469 0.39263 0.41392 0.0
C48 C 0.2433 0.34181 0.45219 0.0
H49 H 0.19388 0.33811 0.40171 0.0
C50 C 0.05006 0.25157 0.39657 0.0
O51 O 0.99248 0.05226 0.3943 0.0
O52 O 0.10067 0.11515 0.39307 0.0
N53 N 0.14859 0.27284 0.46985 0.0
C54 C 0.1155 0.24728 0.48775 0.0
C55 C 0.151 0.25993 0.50724 0.0
C56 C 0.21992 0.30057 0.50825 0.0
C57 C 0.2526 0.32892 0.4898 0.0
C58 C 0.21468 0.31379 0.47078 0.0
H59 H 0.0625 0.21668 0.48716 0.0
O60 O 0.07422 0.0884 0.43595 0.0
O61 O 0.11661 0.19485 0.43262 0.0
O62 O 0.97288 0.1255 0.43202 0.0
O63 O 0.02107 0.22 0.45128 0.0
C64 C 0.32119 0.37251 0.4896 0.0
C65 C 0.35063 0.40014 0.47048 0.0
H66 H 0.38981 0.44286 0.43067 0.0
H67 H 0.31427 0.41199 0.39875 0.0
H68 H 0.12524 0.2387 0.52146 0.0
H69 H 0.24712 0.31049 0.52332 0.0
H70 H 0.35178 0.38498 0.50405 0.0
H71 H 0.40346 0.43323 0.4705 0.0
Mn72 Mn 0.06687 0.11643 0.75742 0.0
Mn73 Mn 0.99082 0.17689 0.78749 0.0
C74 C 0.12251 0.17958 0.78768 0.0
C75 C 0.13132 0.12259 0.72897 0.0
C76 C 0.9618 0.03581 0.78942 0.0
O77 O 0.99197 0.10833 0.7374 0.0
O78 O 0.94712 0.1507 0.75881 0.0
C79 C 0.02808 0.29751 0.76339 0.0
N80 N 0.02497 0.26806 0.78212 0.0
C81 C 0.0711 0.37147 0.80132 0.0
C82 C 0.07449 0.40292 0.78225 0.0
C83 C 0.05311 0.36579 0.7632 0.0
C84 C 0.04591 0.30337 0.80051 0.0
H85 H 0.01168 0.26909 0.74873 0.0
C86 C 0.94986 0.12632 0.74107 0.0
O87 O 0.09001 0.06668 0.73682 0.0
O88 O 0.13403 0.17473 0.7372 0.0
N89 N 0.02497 0.20513 0.81585 0.0
C90 C 0.01868 0.16726 0.83282 0.0
C91 C 0.0344 0.19603 0.85324 0.0
C92 C 0.05817 0.26383 0.85597 0.0
C93 C 0.06434 0.30185 0.83828 0.0
C94 C 0.04474 0.26975 0.81844 0.0
H95 H 1.00104 0.11532 0.83081 0.0
O96 O 0.13841 0.13902 0.77937 0.0
O97 O 0.07389 0.18311 0.77795 0.0
O98 O 1.00207 0.04028 0.7756 0.0
O99 O 0.95294 0.08343 0.79465 0.0
C100 C 0.08861 0.3702 0.83955 0.0
C101 C 0.09263 0.4051 0.82106 0.0
H102 H 0.09385 0.45559 0.78204 0.0
H103 H 0.05582 0.38973 0.74841 0.0
H104 H 0.02936 0.16627 0.86681 0.0
H105 H 0.07181 0.28617 0.87169 0.0
H106 H 0.10471 0.39648 0.85465 0.0
H107 H 0.11225 0.45778 0.8222 0.0
Mg108 Mg 0.08601 0.64277 0.25172 0.0
C109 C 1.00461 0.49811 0.2654 0.0
O110 O 1.00333 0.48483 0.2452 0.0
C111 C 0.06722 0.73912 0.22497 0.0
O112 O 0.11524 0.77858 0.23838 0.0
C113 C 0.1168 0.57941 0.21678 0.0
O114 O 0.06135 0.57655 0.21021 0.0
O115 O 0.14465 0.60999 0.23419 0.0
O116 O 0.02836 0.55772 0.2717 0.0
O117 O 0.13396 0.7254 0.27489 0.0
C118 C 0.09263 0.73624 0.28416 0.0
O119 O 0.02932 0.69715 0.27958 0.0
O120 O 0.04093 0.67701 0.22707 0.0
Mg121 Mg 0.54379 0.12456 0.58721 0.0
C122 C 0.45802 0.13629 0.55486 0.0
O123 O 0.44106 0.07373 0.55481 0.0
C124 C 0.63688 0.13654 0.62111 0.0
O125 O 0.59182 0.07389 0.61945 0.0
C126 C 0.44451 0.10634 0.6172 0.0
O127 O 0.47735 0.16963 0.61355 0.0
O128 O 0.46103 0.06877 0.60779 0.0
O129 O 0.50546 0.17599 0.56742 0.0
O130 O 0.58098 0.0774 0.5657 0.0
C131 C 0.60281 0.10572 0.54831 0.0
O132 O 0.59423 0.15528 0.54315 0.0
O133 O 0.62993 0.17676 0.60925 0.0
Mg134 Mg 0.56478 0.61976 0.92618 0.0
C135 C 0.46914 0.55599 0.89032 0.0
O136 O 0.51934 0.54807 0.88602 0.0
C137 C 0.60559 0.7026 0.96661 0.0
O138 O 0.57319 0.64364 0.97437 0.0
C139 C 0.50192 0.4762 0.94193 0.0
O140 O 0.49264 0.45954 0.92178 0.0
O141 O 0.53545 0.53675 0.94754 0.0
O142 O 0.47355 0.58929 0.90689 0.0
O143 O 0.63852 0.64438 0.9022 0.0
C144 C 0.69554 0.6955 0.90356 0.0
O145 O 0.71698 0.72868 0.92162 0.0
O146 O 0.60537 0.70875 0.94664 0.0
H147 H 0.04566 0.31603 0.11707 0.0
C148 C 0.07606 0.29283 0.11803 0.0
H149 H 0.15268 0.28897 0.13585 0.0
H150 H 0.21885 0.57764 0.17151 0.0
H151 H 0.30525 0.61025 0.14652 0.0
H152 H 0.31049 0.52751 0.12371 0.0
H153 H 0.22894 0.41142 0.12564 0.0
C154 C 0.1197 0.30911 0.13457 0.0
C155 C 0.12441 0.35728 0.15113 0.0
C156 C 0.17362 0.42455 0.15041 0.0
C157 C 0.171 0.47232 0.16379 0.0
C158 C 0.21895 0.53938 0.16194 0.0
C159 C 0.26875 0.55873 0.14764 0.0
C160 C 0.27168 0.51213 0.13478 0.0
C161 C 0.22464 0.44576 0.13603 0.0
H162 H 0.18413 0.5392 0.2117 0.0
C163 C 0.14064 0.54007 0.20542 0.0
H164 H 0.06106 0.50098 0.18272 0.0
H165 H 0.02926 0.23163 0.15894 0.0
H166 H 0.94565 0.19812 0.18502 0.0
H167 H 0.94146 0.28043 0.20836 0.0
H168 H 0.02081 0.39678 0.20579 0.0
C169 C 0.106 0.50184 0.18838 0.0
C170 C 0.11964 0.45254 0.17809 0.0
C171 C 0.07372 0.38459 0.17997 0.0
C172 C 0.07611 0.33702 0.16651 0.0
C173 C 0.02913 0.26971 0.16864 0.0
C174 C 0.9811 0.24983 0.18358 0.0
C175 C 0.97874 0.29618 0.19672 0.0
C176 C 0.02435 0.36281 0.19501 0.0
H177 H 0.86295 0.10522 0.44882 0.0
C178 C 0.9087 0.14202 0.45683 0.0
H179 H 0.95293 0.20324 0.48385 0.0
H180 H 0.72868 0.24265 0.51667 0.0
H181 H 0.8096 0.35252 0.5071 0.0
H182 H 0.906 0.37207 0.48719 0.0
H183 H 0.92253 0.28193 0.47706 0.0
C184 C 0.90697 0.16651 0.47595 0.0
C185 C 0.84419 0.15178 0.48608 0.0
C186 C 0.83368 0.20479 0.49127 0.0
C187 C 0.77654 0.19313 0.50201 0.0
C188 C 0.7696 0.24786 0.50784 0.0
C189 C 0.81601 0.31151 0.50257 0.0
C190 C 0.87036 0.32254 0.49143 0.0
C191 C 0.87936 0.27014 0.48581 0.0
H192 H 0.67486 0.07125 0.54442 0.0
C193 C 0.64919 0.09342 0.53632 0.0
H194 H 0.64011 0.13972 0.50911 0.0
H195 H 0.8525 0.03967 0.48167 0.0
H196 H 0.76829 0.92875 0.48937 0.0
H197 H 0.6633 0.90717 0.504 0.0
H198 H 0.64271 0.99669 0.51164 0.0
C199 C 0.66631 0.11745 0.51683 0.0
C200 C 0.72801 0.128 0.50689 0.0
C201 C 0.73782 0.07475 0.50138 0.0
C202 C 0.79687 0.08685 0.49163 0.0
C203 C 0.80735 0.03319 0.48794 0.0
C204 C 0.75959 0.96922 0.49246 0.0
C205 C 0.70059 0.95709 0.50079 0.0
C206 C 0.68956 0.00902 0.50523 0.0
H207 H 0.9535 0.94532 0.80311 0.0
C208 C 0.92999 0.9753 0.80203 0.0
H209 H 0.85519 0.99177 0.8126 0.0
H210 H 0.79075 0.70154 0.85384 0.0
H211 H 0.78745 0.6621 0.81812 0.0
H212 H 0.81175 0.7358 0.78803 0.0
H213 H 0.84157 0.84985 0.79352 0.0
C214 C 0.87806 0.96123 0.8139 0.0
C215 C 0.85728 0.91333 0.83155 0.0
C216 C 0.83596 0.84561 0.82793 0.0
C217 C 0.81714 0.80169 0.84516 0.0
C218 C 0.80155 0.73589 0.84124 0.0
C219 C 0.80007 0.71276 0.82083 0.0
C220 C 0.81411 0.75436 0.8039 0.0
C221 C 0.83179 0.81998 0.80731 0.0
H222 H 0.69756 0.71151 0.86925 0.0
C223 C 0.72799 0.72655 0.88384 0.0
H224 H 0.81961 0.79282 0.89867 0.0
H225 H 0.89766 0.04014 0.8447 0.0
H226 H 0.89517 0.07795 0.87991 0.0
H227 H 0.85336 1.00031 0.90904 0.0
H228 H 0.8151 0.88491 0.90313 0.0
C229 C 0.78989 0.77821 0.88394 0.0
C230 C 0.81472 0.82418 0.86581 0.0
C231 C 0.83521 0.89175 0.86937 0.0
C232 C 0.85731 0.93628 0.85238 0.0
C233 C 0.87929 1.00369 0.85674 0.0
C234 C 0.87818 0.02628 0.87698 0.0
C235 C 0.85482 0.98264 0.89337 0.0
C236 C 0.83331 0.91625 0.88971 0.0
H237 H 0.02003 0.01163 0.14048 0.0
C238 C 0.05942 0.02285 0.12984 0.0
H239 H 0.13526 1.0045 0.12164 0.0
H240 H 0.19445 0.91096 0.20792 0.0
H241 H 0.29843 0.00836 0.20165 0.0
H242 H 0.30777 0.08122 0.17245 0.0
H243 H 0.21338 0.05648 0.14914 0.0
C244 C 0.09646 0.99383 0.13248 0.0
C245 C 0.08888 0.94983 0.15063 0.0
C246 C 0.14414 0.96579 0.16457 0.0
C247 C 0.13805 0.925 0.18195 0.0
C248 C 0.19517 0.94114 0.19496 0.0
C249 C 0.25553 0.99681 0.19146 0.0
C250 C 0.26084 0.03771 0.175 0.0
C251 C 0.2061 0.02267 0.16167 0.0
H252 H 0.03304 0.73706 0.19161 0.0
C253 C 0.05261 0.76742 0.20596 0.0
H254 H 0.08976 0.86084 0.22037 0.0
H255 H 0.97656 0.89538 0.12472 0.0
H256 H 0.87069 0.80147 0.13207 0.0
H257 H 0.85618 0.74031 0.16484 0.0
H258 H 0.94805 0.77125 0.19008 0.0
C259 C 0.07025 0.83178 0.20575 0.0
C260 C 0.07597 0.86932 0.18605 0.0
C261 C 0.02059 0.85328 0.17213 0.0
C262 C 0.02773 0.89187 0.15397 0.0
C263 C 0.97304 0.87079 0.1394 0.0
C264 C 0.91206 0.81647 0.14331 0.0
C265 C 0.90399 0.7818 0.16171 0.0
C266 C 0.95739 0.7998 0.176 0.0
H267 H 0.21415 0.15525 0.44637 0.0
C268 C 0.17567 0.15563 0.45532 0.0
H269 H 0.13562 0.14696 0.48458 0.0
H270 H 0.26909 0.03986 0.54542 0.0
H271 H 0.15225 0.96777 0.54965 0.0
H272 H 0.06953 0.97306 0.52564 0.0
H273 H 0.10272 0.0509 0.49771 0.0
C274 C 0.17785 0.15225 0.47648 0.0
C275 C 0.23011 0.1458 0.48931 0.0
C276 C 0.20958 0.09715 0.50509 0.0
C277 C 0.25725 0.09142 0.51826 0.0
C278 C 0.23511 0.04478 0.53451 0.0
C279 C 0.16812 1.00319 0.53719 0.0
C280 C 0.1216 0.0064 0.52375 0.0
C281 C 0.14166 0.05231 0.50785 0.0
H282 H 0.42755 0.2077 0.54375 0.0
C283 C 0.41966 0.15831 0.54136 0.0
H284 H 0.36505 0.06705 0.52496 0.0
H285 H 0.29092 0.25133 0.46304 0.0
H286 H 0.40701 0.31558 0.45716 0.0
H287 H 0.48769 0.29575 0.47719 0.0
H288 H 0.45204 0.21162 0.50343 0.0
C289 C 0.37336 0.11676 0.52692 0.0
C290 C 0.32561 0.13132 0.51505 0.0
C291 C 0.34656 0.17896 0.49914 0.0
C292 C 0.29921 0.18779 0.48672 0.0
C293 C 0.32304 0.23905 0.47204 0.0
C294 C 0.39017 0.27722 0.46867 0.0
C295 C 0.4356 0.26625 0.47999 0.0
C296 C 0.41438 0.21789 0.49509 0.0
H297 H 0.19809 0.21022 0.81353 0.0
C298 C 0.16756 0.22559 0.80465 0.0
H299 H 0.15541 0.3042 0.79609 0.0
H300 H 0.34239 0.39381 0.88847 0.0
H301 H 0.26507 0.28857 0.90238 0.0
H302 H 0.17172 0.20536 0.87999 0.0
H303 H 0.15617 0.22664 0.84379 0.0
C304 C 0.18042 0.28791 0.80706 0.0
C305 C 0.23434 0.33857 0.8218 0.0
C306 C 0.24197 0.32561 0.84346 0.0
C307 C 0.29483 0.37435 0.85668 0.0
C308 C 0.30265 0.35928 0.87787 0.0
C309 C 0.25862 0.29893 0.8861 0.0
C310 C 0.20625 0.25212 0.8735 0.0
C311 C 0.19802 0.26503 0.85251 0.0
H312 H 0.36278 0.52033 0.88237 0.0
C313 C 0.40642 0.51961 0.87743 0.0
H314 H 0.44607 0.48191 0.85552 0.0
H315 H 0.23738 0.38303 0.78123 0.0
H316 H 0.31059 0.4914 0.76895 0.0
H317 H 0.39731 0.57648 0.79277 0.0
H318 H 0.41107 0.55279 0.82924 0.0
C319 C 0.40213 0.48163 0.86069 0.0
C320 C 0.33928 0.43643 0.84858 0.0
C321 C 0.32975 0.4509 0.82753 0.0
C322 C 0.27808 0.4021 0.81404 0.0
C323 C 0.27313 0.41802 0.7927 0.0
C324 C 0.31559 0.4803 0.78526 0.0
C325 C 0.36455 0.52812 0.79863 0.0
C326 C 0.37202 0.51377 0.81948 0.0
H327 H 0.85373 0.11235 0.72942 0.0
C328 C 0.90108 0.12044 0.72436 0.0
H329 H 0.96322 0.14357 0.69874 0.0
H330 H 0.73295 0.04119 0.62748 0.0
H331 H 0.78028 0.97134 0.62135 0.0
H332 H 0.86705 0.97528 0.64579 0.0
H333 H 0.90748 0.04946 0.6764 0.0
C334 C 0.91553 0.13382 0.70399 0.0
C335 C 0.86678 0.13561 0.68823 0.0
C336 C 0.84342 0.09181 0.67042 0.0
C337 C 0.79224 0.08855 0.65657 0.0
C338 C 0.77055 0.04469 0.63879 0.0
C339 C 0.79753 1.00452 0.63502 0.0
C340 C 0.84646 0.00682 0.64875 0.0
C341 C 0.86926 0.04974 0.66628 0.0
H342 H 0.73779 0.20759 0.63434 0.0
C343 C 0.69676 0.15768 0.63521 0.0
H344 H 0.66095 0.06437 0.64848 0.0
H345 H 0.91217 0.23779 0.71717 0.0
H346 H 0.8643 0.30697 0.72362 0.0
H347 H 0.76769 0.29302 0.70208 0.0
H348 H 0.7197 0.21132 0.67358 0.0
C349 C 0.70177 0.11461 0.64821 0.0
C350 C 0.76335 0.12821 0.66064 0.0
C351 C 0.78895 0.1744 0.67787 0.0
C352 C 0.84212 0.17958 0.6912 0.0
C353 C 0.86953 0.22915 0.70736 0.0
C354 C 0.84292 0.26965 0.7111 0.0
C355 C 0.78873 0.26199 0.69891 0.0
C356 C 0.76182 0.215 0.68249 0.0
H357 H 0.95976 0.06073 0.02074 0.0
C358 C 0.95217 0.03957 0.03617 0.0
H359 H 0.89359 0.95718 0.05411 0.0
H360 H 0.62807 0.84975 0.99984 0.0
H361 H 0.60159 0.88327 0.03263 0.0
H362 H 0.68785 0.94329 0.06069 0.0
H363 H 0.80125 0.97185 0.05593 0.0
C364 C 0.90114 0.97874 0.0386 0.0
C365 C 0.84951 0.94231 0.02134 0.0
C366 C 0.78299 0.92487 0.0245 0.0
C367 C 0.73267 0.8883 0.00859 0.0
C368 C 0.6675 0.87477 0.01179 0.0
C369 C 0.65175 0.89426 0.03045 0.0
C370 C 0.70032 0.9281 0.04623 0.0
C371 C 0.76528 0.94382 0.04333 0.0
H372 H 0.65052 0.74699 0.99777 0.0
C373 C 0.65001 0.75812 0.98115 0.0
H374 H 0.69611 0.82933 0.95809 0.0
H375 H 0.97092 0.96336 0.0103 0.0
H376 H 0.9972 0.9323 0.9772 0.0
H377 H 0.91041 0.87127 0.94938 0.0
H378 H 0.79682 0.84046 0.95462 0.0
C379 C 0.69437 0.81832 0.97476 0.0
C380 C 0.74814 0.86664 0.98982 0.0
C381 C 0.81507 0.88653 0.98622 0.0
C382 C 0.8656 0.92346 1.00208 0.0
C383 C 0.93104 0.9383 0.99854 0.0
C384 C 0.94679 0.92003 0.97964 0.0
C385 C 0.89792 0.88552 0.96401 0.0
C386 C 0.83274 0.86828 0.96724 0.0
H387 H 0.99925 0.97416 0.36542 0.0
C388 C 0.04669 0.01622 0.37035 0.0
H389 H 0.15016 0.06217 0.36788 0.0
H390 H 0.04657 0.74826 0.34246 0.0
H391 H 0.02208 0.72886 0.37946 0.0
H392 H 0.03518 0.81856 0.40327 0.0
H393 H 0.07214 0.92795 0.39023 0.0
C394 C 0.10228 0.02015 0.36337 0.0
C395 C 0.10004 0.9671 0.34945 0.0
C396 C 0.07985 0.90364 0.35743 0.0
C397 C 0.07339 0.85208 0.34376 0.0
C398 C 0.05204 0.78905 0.35212 0.0
C399 C 0.03812 0.77731 0.37334 0.0
C400 C 0.04544 0.8278 0.38674 0.0
C401 C 0.06626 0.89032 0.379 0.0
H402 H 0.16703 0.82634 0.30224 0.0
C403 C 0.11455 0.79389 0.29879 0.0
H404 H 0.01775 0.77377 0.30429 0.0
H405 H 0.14615 0.08397 0.32953 0.0
H406 H 0.17386 0.1041 0.29277 0.0
H407 H 0.16225 0.01474 0.26908 0.0
H408 H 0.12329 0.9048 0.28199 0.0
C409 C 0.07025 0.8071 0.30738 0.0
C410 C 0.08837 0.86401 0.3222 0.0
C411 C 0.11191 0.92829 0.31448 0.0
C412 C 0.1181 0.97987 0.32814 0.0
C413 C 0.14068 0.04318 0.31988 0.0
C414 C 0.15664 0.05536 0.29881 0.0
C415 C 0.15011 1.00504 0.28547 0.0
C416 C 0.1278 0.94212 0.2931 0.0
H417 H 0.21029 0.17682 0.70677 0.0
C418 C 0.17625 0.12797 0.7122 0.0
H419 H 0.14455 0.02654 0.70935 0.0
H420 H 0.26482 0.04688 0.6195 0.0
H421 H 0.14744 0.98728 0.61017 0.0
H422 H 0.06606 0.97037 0.63659 0.0
H423 H 0.10155 0.01342 0.67252 0.0
C424 C 0.17915 0.07582 0.70441 0.0
C425 C 0.22869 0.08325 0.68869 0.0
C426 C 0.20732 0.0564 0.66786 0.0
C427 C 0.25441 0.06568 0.6526 0.0
C428 C 0.2314 0.04054 0.63176 0.0
C429 C 0.16411 0.00634 0.62617 0.0
C430 C 0.11827 0.99684 0.64105 0.0
C431 C 0.13932 0.02166 0.66164 0.0
H432 H 0.36511 0.02878 0.63582 0.0
C433 C 0.39041 0.08074 0.63227 0.0
H434 H 0.40004 0.17377 0.63856 0.0
H435 H 0.28685 0.13158 0.72799 0.0
H436 H 0.40405 0.18951 0.73742 0.0
H437 H 0.48541 0.20771 0.71085 0.0
H438 H 0.44992 0.16738 0.6747 0.0
C439 C 0.37327 0.12154 0.64174 0.0
C440 C 0.323 0.10119 0.65822 0.0
C441 C 0.34418 0.12549 0.6793 0.0
C442 C 0.29719 0.116 0.69456 0.0
C443 C 0.32021 0.13913 0.71559 0.0
C444 C 0.38743 0.17207 0.72128 0.0
C445 C 0.43324 0.18226 0.70633 0.0
C446 C 0.41218 0.15915 0.6856 0.0
H447 H 0.20811 0.32228 0.03169 0.0
C448 C 0.20598 0.27923 0.0389 0.0
H449 H 0.25155 0.22062 0.04079 0.0
H450 H 0.34001 0.39133 0.95151 0.0
H451 H 0.22632 0.31975 0.93968 0.0
H452 H 0.14706 0.23707 0.96321 0.0
H453 H 0.18108 0.22682 0.99895 0.0
C454 C 0.25189 0.26324 0.03398 0.0
C455 C 0.30301 0.30308 0.01848 0.0
C456 C 0.2838 0.30552 0.9971 0.0
C457 C 0.33071 0.35041 0.98308 0.0
C458 C 0.30804 0.35575 0.9625 0.0
C459 C 0.24247 0.31528 0.95552 0.0
C460 C 0.19777 0.26896 0.96879 0.0
C461 C 0.21788 0.26397 0.98934 0.0
H462 H 0.4413 0.37406 0.95243 0.0
C463 C 0.46366 0.42542 0.95745 0.0
H464 H 0.46914 0.49191 0.98109 0.0
H465 H 0.35752 0.30698 0.05771 0.0
H466 H 0.47306 0.37354 0.06915 0.0
H467 H 0.5555 0.44713 0.0445 0.0
H468 H 0.52303 0.45506 0.00827 0.0
C469 C 0.44738 0.44066 0.976 0.0
C470 C 0.3982 0.38989 0.99001 0.0
C471 C 0.41792 0.38462 0.01107 0.0
C472 C 0.37039 0.34144 0.02528 0.0
C473 C 0.39157 0.33858 0.04628 0.0
C474 C 0.45772 0.37648 0.05304 0.0
C475 C 0.50414 0.41797 0.03916 0.0
C476 C 0.48479 0.42219 0.01842 0.0
H477 H 0.05508 0.3412 0.38387 0.0
C478 C 0.03862 0.2899 0.37999 0.0
H479 H 0.99642 0.21598 0.35592 0.0
H480 H 0.92445 0.44924 0.32581 0.0
H481 H 0.85433 0.41697 0.35579 0.0
H482 H 0.85144 0.33443 0.3804 0.0
H483 H 0.91896 0.28394 0.37532 0.0
C484 C 0.01111 0.26628 0.36056 0.0
C485 C 1.00648 0.31061 0.34435 0.0
C486 C 0.96568 0.33885 0.34724 0.0
C487 C 0.96648 0.38577 0.33278 0.0
C488 C 0.92582 0.41354 0.33629 0.0
C489 C 0.88518 0.3953 0.35339 0.0
C490 C 0.88362 0.34888 0.36726 0.0
C491 C 0.92304 0.32065 0.36426 0.0
H492 H 0.96555 0.39461 0.27432 0.0
C493 C 0.98905 0.44483 0.28061 0.0
H494 H 0.03541 0.50675 0.30753 0.0
H495 H 0.08699 0.26291 0.33318 0.0
H496 H 0.15628 0.29428 0.30309 0.0
H497 H 0.15962 0.37708 0.27853 0.0
H498 H 0.0935 0.42864 0.28377 0.0
C499 C 0.01136 0.45681 0.30099 0.0
C500 C 1.00697 0.4037 0.31515 0.0
C501 C 0.04644 0.37407 0.31193 0.0
C502 C 0.0455 0.32702 0.32637 0.0
C503 C 0.08572 0.29877 0.32277 0.0
C504 C 0.1259 0.31644 0.30558 0.0
C505 C 0.1277 0.36298 0.29173 0.0
C506 C 0.08895 0.39188 0.29486 0.0
loop_
_geom_bond_atom_site_label_1
_geom_bond_atom_site_label_2
_geom_bond_distance
_geom_bond_site_symmetry_2
_ccdc_geom_bond_type
Mn0 O5 2.095 . S
Mn0 O15 2.162 . S
Mn0 O16 2.297 . S
Mn0 O24 2.385 . S
Mn0 O25 2.209 1_455 S
Mn0 O26 2.094 . S
Mn1 O6 2.121 . S
Mn1 N8 2.257 1_455 S
Mn1 N17 2.282 1_455 S
Mn1 O25 2.215 1_455 S
Mn1 O27 2.117 . S
C2 O24 1.234 1_655 S
C2 O25 1.283 . S
C3 O15 1.281 . S
C3 O16 1.236 . S
C4 O26 1.240 . S
C4 O27 1.264 . S
O5 Mn0 2.095 . S
O5 C14 1.250 . S
O6 Mn1 2.121 . S
O6 C14 1.258 . S
C7 N8 1.326 . S
C7 C11 1.460 . S
C7 H13 0.929 . S
N8 Mn1 2.257 1_655 S
N8 C7 1.326 . S
N8 C12 1.362 . S
C9 C10 1.258 . S
C9 C12 1.431 . S
C9 C29 1.449 . S
C10 C9 1.258 . S
C10 C11 1.477 . S
C10 H30 0.931 . S
C11 C7 1.460 . S
C11 C10 1.477 . S
C11 H31 0.930 . S
C12 N8 1.362 . S
C12 C9 1.431 . S
C12 C22 1.476 . S
H13 C7 0.929 . S
C14 O5 1.250 . S
C14 O6 1.258 . S
O15 Mn0 2.162 . S
O15 C3 1.281 . S
O16 Mn0 2.297 . S
O16 C3 1.236 . S
N17 Mn1 2.282 1_655 S
N17 C18 1.328 1_655 S
N17 C22 1.318 . S
C18 N17 1.328 1_455 S
C18 C19 1.457 1_454 S
C18 H23 0.929 . S
C19 C18 1.457 1_656 S
C19 C20 1.291 . S
C19 H32 0.931 1_655 S
C20 C19 1.291 . S
C20 C21 1.373 . S
C20 H33 0.929 . S
C21 C20 1.373 . S
C21 C22 1.396 1_556 S
C21 C28 1.403 . S
C22 C12 1.476 . S
C22 N17 1.318 . S
C22 C21 1.396 1_554 S
H23 C18 0.929 . S
O24 Mn0 2.385 . S
O24 C2 1.234 1_455 S
O25 Mn0 2.209 1_655 S
O25 Mn1 2.215 1_655 S
O25 C2 1.283 . S
O26 Mn0 2.094 . S
O26 C4 1.240 . S
O27 Mn1 2.117 . S
O27 C4 1.264 . S
C28 C21 1.403 . S
C28 C29 1.399 1_556 S
C28 H34 0.929 . S
C29 C9 1.449 . S
C29 C28 1.399 1_554 S
C29 H35 0.930 . S
H30 C10 0.931 . S
H31 C11 0.930 . S
H32 C19 0.931 1_455 S
H33 C20 0.929 . S
H34 C28 0.929 . S
H35 C29 0.930 . S
Mn36 O41 2.102 . S
Mn36 O51 2.162 1_445 S
Mn36 O52 2.297 . S
Mn36 O60 2.385 . S
Mn36 O61 2.209 . S
Mn36 O62 2.094 1_455 S
Mn37 O42 2.121 . S
Mn37 N44 2.257 . S
Mn37 N53 2.282 . S
Mn37 O61 2.215 . S
Mn37 O63 2.117 1_455 S
C38 O60 1.234 . S
C38 O61 1.283 . S
C39 O51 1.281 1_445 S
C39 O52 1.236 . S
C40 O62 1.240 . S
C40 O63 1.264 . S
O41 Mn36 2.102 . S
O41 C50 1.253 . S
O42 Mn37 2.121 . S
O42 C50 1.258 . S
C43 N44 1.326 . S
C43 C47 1.460 . S
C43 H49 0.929 . S
N44 Mn37 2.257 . S
N44 C43 1.326 . S
N44 C48 1.362 . S
C45 C46 1.258 . S
C45 C48 1.431 . S
C45 C65 1.449 . S
C46 C45 1.258 . S
C46 C47 1.477 . S
C46 H66 0.931 . S
C47 C43 1.460 . S
C47 C46 1.477 . S
C47 H67 0.930 . S
C48 N44 1.362 . S
C48 C45 1.431 . S
C48 C58 1.476 . S
H49 C43 0.929 . S
C50 O41 1.253 . S
C50 O42 1.258 . S
O51 Mn36 2.162 1_665 S
O51 C39 1.281 1_665 S
O52 Mn36 2.297 . S
O52 C39 1.236 . S
N53 Mn37 2.282 . S
N53 C54 1.328 . S
N53 C58 1.318 . S
C54 N53 1.328 . S
C54 C55 1.457 . S
C54 H59 0.929 . S
C55 C54 1.457 . S
C55 C56 1.291 . S
C55 H68 0.931 . S
C56 C55 1.291 . S
C56 C57 1.373 . S
C56 H69 0.929 . S
C57 C56 1.373 . S
C57 C58 1.396 . S
C57 C64 1.403 . S
C58 C48 1.476 . S
C58 N53 1.318 . S
C58 C57 1.396 . S
H59 C54 0.929 . S
O60 Mn36 2.385 . S
O60 C38 1.234 . S
O61 Mn36 2.209 . S
O61 Mn37 2.215 . S
O61 C38 1.283 . S
O62 Mn36 2.094 1_655 S
O62 C40 1.240 . S
O63 Mn37 2.117 1_655 S
O63 C40 1.264 . S
C64 C57 1.403 . S
C64 C65 1.399 . S
C64 H70 0.929 . S
C65 C45 1.449 . S
C65 C64 1.399 . S
C65 H71 0.930 . S
H66 C46 0.931 . S
H67 C47 0.930 . S
H68 C55 0.931 . S
H69 C56 0.929 . S
H70 C64 0.929 . S
H71 C65 0.930 . S
Mn72 O77 2.095 1_455 S
Mn72 O87 2.162 . S
Mn72 O88 2.297 . S
Mn72 O96 2.385 . S
Mn72 O97 2.209 . S
Mn72 O98 2.094 1_455 S
Mn73 O78 2.121 . S
Mn73 N80 2.257 1_655 S
Mn73 N89 2.282 1_655 S
Mn73 O97 2.215 1_655 S
Mn73 O99 2.117 . S
C74 O96 1.234 . S
C74 O97 1.283 . S
C75 O87 1.281 . S
C75 O88 1.236 . S
C76 O98 1.240 . S
C76 O99 1.264 . S
O77 Mn72 2.095 1_655 S
O77 C86 1.250 . S
O78 Mn73 2.121 . S
O78 C86 1.258 . S
C79 N80 1.326 . S
C79 C83 1.460 . S
C79 H85 0.929 1_455 S
N80 Mn73 2.257 1_455 S
N80 C79 1.326 . S
N80 C84 1.362 . S
C81 C82 1.258 . S
C81 C84 1.431 . S
C81 C101 1.449 . S
C82 C81 1.258 . S
C82 C83 1.477 . S
C82 H102 0.931 . S
C83 C79 1.460 . S
C83 C82 1.477 . S
C83 H103 0.930 . S
C84 N80 1.362 . S
C84 C81 1.431 . S
C84 C94 1.476 . S
H85 C79 0.929 1_655 S
C86 O77 1.250 . S
C86 O78 1.258 . S
O87 Mn72 2.162 . S
O87 C75 1.281 . S
O88 Mn72 2.297 . S
O88 C75 1.236 . S
N89 Mn73 2.282 1_455 S
N89 C90 1.328 . S
N89 C94 1.318 . S
C90 N89 1.328 . S
C90 C91 1.457 . S
C90 H95 0.929 . S
C91 C90 1.457 . S
C91 C92 1.291 . S
C91 H104 0.931 . S
C92 C91 1.291 . S
C92 C93 1.373 . S
C92 H105 0.929 . S
C93 C92 1.373 . S
C93 C94 1.396 . S
C93 C100 1.403 . S
C94 C84 1.476 . S
C94 N89 1.318 . S
C94 C93 1.396 . S
H95 C90 0.929 . S
O96 Mn72 2.385 . S
O96 C74 1.234 . S
O97 Mn72 2.209 . S
O97 Mn73 2.215 1_455 S
O97 C74 1.283 . S
O98 Mn72 2.094 1_655 S
O98 C76 1.240 . S
O99 Mn73 2.117 . S
O99 C76 1.264 . S
C100 C93 1.403 . S
C100 C101 1.399 . S
C100 H106 0.929 . S
C101 C81 1.449 . S
C101 C100 1.399 . S
C101 H107 0.930 . S
H102 C82 0.931 . S
H103 C83 0.930 . S
H104 C91 0.931 . S
H105 C92 0.929 . S
H106 C100 0.929 . S
H107 C101 0.930 . S
Mg108 O115 2.141 . S
Mg108 O116 2.048 . S
Mg108 O117 2.048 . S
Mg108 O120 2.141 . S
C109 O110 1.313 1_455 S
C109 O116 1.195 . S
O110 C109 1.313 1_655 S
C111 O112 1.245 1_455 S
C111 O120 1.289 . S
O112 C111 1.245 1_655 S
C113 O114 1.245 1_455 S
C113 O115 1.289 . S
O114 C113 1.245 1_655 S
O115 Mg108 2.141 . S
O115 C113 1.289 . S
O116 Mg108 2.048 . S
O116 C109 1.195 . S
O117 Mg108 2.048 . S
O117 C118 1.195 . S
C118 O117 1.195 . S
C118 O119 1.313 1_455 S
O119 C118 1.313 1_655 S
O120 Mg108 2.141 . S
O120 C111 1.289 . S
Mg121 O128 2.141 . S
Mg121 O129 2.048 . S
Mg121 O130 2.048 . S
Mg121 O133 2.141 . S
C122 O123 1.313 . S
C122 O129 1.195 . S
O123 C122 1.313 . S
C124 O125 1.245 . S
C124 O133 1.289 . S
O125 C124 1.245 . S
C126 O127 1.245 . S
C126 O128 1.289 . S
O127 C126 1.245 . S
O128 Mg121 2.141 . S
O128 C126 1.289 . S
O129 Mg121 2.048 . S
O129 C122 1.195 . S
O130 Mg121 2.048 . S
O130 C131 1.195 . S
C131 O130 1.195 . S
C131 O132 1.313 . S
O132 C131 1.313 . S
O133 Mg121 2.141 . S
O133 C124 1.289 . S
Mg134 O141 2.141 . S
Mg134 O142 2.048 . S
Mg134 O143 2.048 . S
Mg134 O146 2.141 . S
C135 O136 1.313 . S
C135 O142 1.195 . S
O136 C135 1.313 . S
C137 O138 1.245 . S
C137 O146 1.289 . S
O138 C137 1.245 . S
C139 O140 1.245 . S
C139 O141 1.289 . S
O140 C139 1.245 . S
O141 Mg134 2.141 . S
O141 C139 1.289 . S
O142 Mg134 2.048 . S
O142 C135 1.195 . S
O143 Mg134 2.048 . S
O143 C144 1.195 . S
C144 O143 1.195 . S
C144 O145 1.313 . S
O145 C144 1.313 . S
O146 Mg134 2.141 . S
O146 C137 1.289 . S
H147 C148 0.951 . S
C148 H147 0.951 . S
C148 C154 1.265 . S
H149 C154 0.950 . S
H150 C158 0.949 . S
H151 C159 0.950 . S
H152 C160 0.951 . S
H153 C161 0.951 . S
C154 C148 1.265 . S
C154 H149 0.950 . S
C154 C155 1.478 . S
C155 C154 1.478 . S
C155 C156 1.397 . S
C155 C172 1.394 . S
C156 C155 1.397 . S
C156 C157 1.438 . S
C156 C161 1.429 . S
C157 C156 1.438 . S
C157 C158 1.428 . S
C157 C170 1.394 . S
C158 H150 0.949 . S
C158 C157 1.428 . S
C158 C159 1.345 . S
C159 H151 0.950 . S
C159 C158 1.345 . S
C159 C160 1.424 . S
C160 H152 0.951 . S
C160 C159 1.424 . S
C160 C161 1.347 . S
C161 H153 0.951 . S
C161 C156 1.429 . S
C161 C160 1.347 . S
H162 C163 0.951 . S
C163 H162 0.951 . S
C163 C169 1.265 . S
H164 C169 0.950 1_655 S
H165 C173 0.949 . S
H166 C174 0.950 . S
H167 C175 0.951 . S
H168 C176 0.951 . S
C169 C163 1.265 . S
C169 H164 0.950 1_455 S
C169 C170 1.478 . S
C170 C157 1.394 . S
C170 C169 1.478 . S
C170 C171 1.397 . S
C171 C170 1.397 . S
C171 C172 1.438 . S
C171 C176 1.429 1_455 S
C172 C155 1.394 . S
C172 C171 1.438 . S
C172 C173 1.428 1_455 S
C173 H165 0.949 . S
C173 C172 1.428 1_655 S
C173 C174 1.345 . S
C174 H166 0.950 . S
C174 C173 1.345 . S
C174 C175 1.424 . S
C175 H167 0.951 . S
C175 C174 1.424 . S
C175 C176 1.347 . S
C176 H168 0.951 . S
C176 C171 1.429 1_655 S
C176 C175 1.347 . S
H177 C178 0.951 . S
C178 H177 0.951 . S
C178 C184 1.265 . S
H179 C184 0.950 . S
H180 C188 0.949 . S
H181 C189 0.950 . S
H182 C190 0.951 . S
H183 C191 0.951 . S
C184 C178 1.265 . S
C184 H179 0.950 . S
C184 C185 1.478 . S
C185 C184 1.478 . S
C185 C186 1.397 . S
C185 C202 1.394 . S
C186 C185 1.397 . S
C186 C187 1.438 . S
C186 C191 1.429 . S
C187 C186 1.438 . S
C187 C188 1.428 . S
C187 C200 1.394 . S
C188 H180 0.949 . S
C188 C187 1.428 . S
C188 C189 1.345 . S
C189 H181 0.950 . S
C189 C188 1.345 . S
C189 C190 1.424 . S
C190 H182 0.951 . S
C190 C189 1.424 . S
C190 C191 1.347 . S
C191 H183 0.951 . S
C191 C186 1.429 . S
C191 C190 1.347 . S
H192 C193 0.951 . S
C193 H192 0.951 . S
C193 C199 1.265 . S
H194 C199 0.950 . S
H195 C203 0.949 . S
H196 C204 0.950 . S
H197 C205 0.951 . S
H198 C206 0.951 . S
C199 C193 1.265 . S
C199 H194 0.950 . S
C199 C200 1.478 . S
C200 C187 1.394 . S
C200 C199 1.478 . S
C200 C201 1.397 . S
C201 C200 1.397 . S
C201 C202 1.438 . S
C201 C206 1.429 . S
C202 C185 1.394 . S
C202 C201 1.438 . S
C202 C203 1.428 . S
C203 H195 0.949 . S
C203 C202 1.428 . S
C203 C204 1.345 1_545 S
C204 H196 0.950 . S
C204 C203 1.345 1_565 S
C204 C205 1.424 . S
C205 H197 0.951 . S
C205 C204 1.424 . S
C205 C206 1.347 1_565 S
C206 H198 0.951 . S
C206 C201 1.429 . S
C206 C205 1.347 1_545 S
H207 C208 0.951 . S
C208 H207 0.951 . S
C208 C214 1.265 . S
H209 C214 0.950 . S
H210 C218 0.949 . S
H211 C219 0.950 . S
H212 C220 0.951 . S
H213 C221 0.951 . S
C214 C208 1.265 . S
C214 H209 0.950 . S
C214 C215 1.478 . S
C215 C214 1.478 . S
C215 C216 1.397 . S
C215 C232 1.394 . S
C216 C215 1.397 . S
C216 C217 1.438 . S
C216 C221 1.429 . S
C217 C216 1.438 . S
C217 C218 1.428 . S
C217 C230 1.394 . S
C218 H210 0.949 . S
C218 C217 1.428 . S
C218 C219 1.345 . S
C219 H211 0.950 . S
C219 C218 1.345 . S
C219 C220 1.424 . S
C220 H212 0.951 . S
C220 C219 1.424 . S
C220 C221 1.347 . S
C221 H213 0.951 . S
C221 C216 1.429 . S
C221 C220 1.347 . S
H222 C223 0.951 . S
C223 H222 0.951 . S
C223 C229 1.265 . S
H224 C229 0.950 . S
H225 C233 0.949 1_545 S
H226 C234 0.950 . S
H227 C235 0.951 . S
H228 C236 0.951 . S
C229 C223 1.265 . S
C229 H224 0.950 . S
C229 C230 1.478 . S
C230 C217 1.394 . S
C230 C229 1.478 . S
C230 C231 1.397 . S
C231 C230 1.397 . S
C231 C232 1.438 . S
C231 C236 1.429 . S
C232 C215 1.394 . S
C232 C231 1.438 . S
C232 C233 1.428 . S
C233 H225 0.949 1_565 S
C233 C232 1.428 . S
C233 C234 1.345 1_565 S
C234 H226 0.950 . S
C234 C233 1.345 1_545 S
C234 C235 1.424 1_545 S
C235 H227 0.951 . S
C235 C234 1.424 1_565 S
C235 C236 1.347 . S
C236 H228 0.951 . S
C236 C231 1.429 . S
C236 C235 1.347 . S
H237 C238 0.951 . S
C238 H237 0.951 . S
C238 C244 1.265 . S
H239 C244 0.949 1_545 S
H240 C248 0.949 . S
H241 C249 0.950 . S
H242 C250 0.951 . S
H243 C251 0.951 . S
C244 C238 1.265 . S
C244 H239 0.949 1_565 S
C244 C245 1.478 . S
C245 C244 1.478 . S
C245 C246 1.397 . S
C245 C262 1.394 . S
C246 C245 1.397 . S
C246 C247 1.438 . S
C246 C251 1.429 1_565 S
C247 C246 1.438 . S
C247 C248 1.428 . S
C247 C260 1.394 . S
C248 H240 0.949 . S
C248 C247 1.428 . S
C248 C249 1.345 . S
C249 H241 0.950 . S
C249 C248 1.345 . S
C249 C250 1.424 1_565 S
C250 H242 0.951 . S
C250 C249 1.424 1_545 S
C250 C251 1.347 . S
C251 H243 0.951 . S
C251 C246 1.429 1_545 S
C251 C250 1.347 . S
H252 C253 0.951 . S
C253 H252 0.951 . S
C253 C259 1.265 . S
H254 C259 0.950 1_655 S
H255 C263 0.949 . S
H256 C264 0.950 . S
H257 C265 0.951 . S
H258 C266 0.951 . S
C259 C253 1.265 . S
C259 H254 0.950 1_455 S
C259 C260 1.478 . S
C260 C247 1.394 . S
C260 C259 1.478 . S
C260 C261 1.397 . S
C261 C260 1.397 . S
C261 C262 1.438 . S
C261 C266 1.429 1_455 S
C262 C245 1.394 . S
C262 C261 1.438 . S
C262 C263 1.428 . S
C263 H255 0.949 . S
C263 C262 1.428 . S
C263 C264 1.345 1_455 S
C264 H256 0.950 . S
C264 C263 1.345 1_655 S
C264 C265 1.424 . S
C265 H257 0.951 . S
C265 C264 1.424 . S
C265 C266 1.347 . S
C266 H258 0.951 . S
C266 C261 1.429 1_655 S
C266 C265 1.347 . S
H267 C268 0.951 . S
C268 H267 0.951 . S
C268 C274 1.265 . S
H269 C274 0.950 . S
H270 C278 0.949 . S
H271 C279 0.950 1_565 S
H272 C280 0.951 1_565 S
H273 C281 0.951 . S
C274 C268 1.265 . S
C274 H269 0.950 . S
C274 C275 1.478 . S
C275 C274 1.478 . S
C275 C276 1.397 . S
C275 C292 1.394 . S
C276 C275 1.397 . S
C276 C277 1.438 . S
C276 C281 1.429 . S
C277 C276 1.438 . S
C277 C278 1.428 . S
C277 C290 1.394 . S
C278 H270 0.949 . S
C278 C277 1.428 . S
C278 C279 1.345 . S
C279 H271 0.950 1_545 S
C279 C278 1.345 . S
C279 C280 1.424 . S
C280 H272 0.951 1_545 S
C280 C279 1.424 . S
C280 C281 1.347 . S
C281 H273 0.951 . S
C281 C276 1.429 . S
C281 C280 1.347 . S
H282 C283 0.951 . S
C283 H282 0.951 . S
C283 C289 1.265 . S
H284 C289 0.950 . S
H285 C293 0.949 . S
H286 C294 0.950 . S
H287 C295 0.951 . S
H288 C296 0.951 . S
C289 C283 1.265 . S
C289 H284 0.950 . S
C289 C290 1.478 . S
C290 C277 1.394 . S
C290 C289 1.478 . S
C290 C291 1.397 . S
C291 C290 1.397 . S
C291 C292 1.438 . S
C291 C296 1.429 . S
C292 C275 1.394 . S
C292 C291 1.438 . S
C292 C293 1.428 . S
C293 H285 0.949 . S
C293 C292 1.428 . S
C293 C294 1.345 . S
C294 H286 0.950 . S
C294 C293 1.345 . S
C294 C295 1.424 . S
C295 H287 0.951 . S
C295 C294 1.424 . S
C295 C296 1.347 . S
C296 H288 0.951 . S
C296 C291 1.429 . S
C296 C295 1.347 . S
H297 C298 0.951 . S
C298 H297 0.951 . S
C298 C304 1.265 . S
H299 C304 0.950 . S
H300 C308 0.949 . S
H301 C309 0.950 . S
H302 C310 0.951 . S
H303 C311 0.951 . S
C304 C298 1.265 . S
C304 H299 0.950 . S
C304 C305 1.478 . S
C305 C304 1.478 . S
C305 C306 1.397 . S
C305 C322 1.394 . S
C306 C305 1.397 . S
C306 C307 1.438 . S
C306 C311 1.429 . S
C307 C306 1.438 . S
C307 C308 1.428 . S
C307 C320 1.394 . S
C308 H300 0.949 . S
C308 C307 1.428 . S
C308 C309 1.345 . S
C309 H301 0.950 . S
C309 C308 1.345 . S
C309 C310 1.424 . S
C310 H302 0.951 . S
C310 C309 1.424 . S
C310 C311 1.347 . S
C311 H303 0.951 . S
C311 C306 1.429 . S
C311 C310 1.347 . S
H312 C313 0.951 . S
C313 H312 0.951 . S
C313 C319 1.265 . S
H314 C319 0.950 . S
H315 C323 0.949 . S
H316 C324 0.950 . S
H317 C325 0.951 . S
H318 C326 0.951 . S
C319 C313 1.265 . S
C319 H314 0.950 . S
C319 C320 1.478 . S
C320 C307 1.394 . S
C320 C319 1.478 . S
C320 C321 1.397 . S
C321 C320 1.397 . S
C321 C322 1.438 . S
C321 C326 1.429 . S
C322 C305 1.394 . S
C322 C321 1.438 . S
C322 C323 1.428 . S
C323 H315 0.949 . S
C323 C322 1.428 . S
C323 C324 1.345 . S
C324 H316 0.950 . S
C324 C323 1.345 . S
C324 C325 1.424 . S
C325 H317 0.951 . S
C325 C324 1.424 . S
C325 C326 1.347 . S
C326 H318 0.951 . S
C326 C321 1.429 . S
C326 C325 1.347 . S
H327 C328 0.951 . S
C328 H327 0.951 . S
C328 C334 1.265 . S
H329 C334 0.950 . S
H330 C338 0.949 . S
H331 C339 0.950 1_565 S
H332 C340 0.951 1_565 S
H333 C341 0.951 . S
C334 C328 1.265 . S
C334 H329 0.950 . S
C334 C335 1.478 . S
C335 C334 1.478 . S
C335 C336 1.397 . S
C335 C352 1.394 . S
C336 C335 1.397 . S
C336 C337 1.438 . S
C336 C341 1.429 . S
C337 C336 1.438 . S
C337 C338 1.428 . S
C337 C350 1.394 . S
C338 H330 0.949 . S
C338 C337 1.428 . S
C338 C339 1.345 . S
C339 H331 0.950 1_545 S
C339 C338 1.345 . S
C339 C340 1.424 . S
C340 H332 0.951 1_545 S
C340 C339 1.424 . S
C340 C341 1.347 . S
C341 H333 0.951 . S
C341 C336 1.429 . S
C341 C340 1.347 . S
H342 C343 0.951 . S
C343 H342 0.951 . S
C343 C349 1.265 . S
H344 C349 0.950 . S
H345 C353 0.949 . S
H346 C354 0.950 . S
H347 C355 0.951 . S
H348 C356 0.951 . S
C349 C343 1.265 . S
C349 H344 0.950 . S
C349 C350 1.478 . S
C350 C337 1.394 . S
C350 C349 1.478 . S
C350 C351 1.397 . S
C351 C350 1.397 . S
C351 C352 1.438 . S
C351 C356 1.429 . S
C352 C335 1.394 . S
C352 C351 1.438 . S
C352 C353 1.428 . S
C353 H345 0.949 . S
C353 C352 1.428 . S
C353 C354 1.345 . S
C354 H346 0.950 . S
C354 C353 1.345 . S
C354 C355 1.424 . S
C355 H347 0.951 . S
C355 C354 1.424 . S
C355 C356 1.347 . S
C356 H348 0.951 . S
C356 C351 1.429 . S
C356 C355 1.347 . S
H357 C358 0.951 . S
C358 H357 0.951 . S
C358 C364 1.265 1_545 S
H359 C364 0.950 . S
H360 C368 0.949 1_556 S
H361 C369 0.950 . S
H362 C370 0.951 . S
H363 C371 0.951 . S
C364 C358 1.265 1_565 S
C364 H359 0.950 . S
C364 C365 1.478 . S
C365 C364 1.478 . S
C365 C366 1.397 . S
C365 C382 1.394 1_554 S
C366 C365 1.397 . S
C366 C367 1.438 . S
C366 C371 1.429 . S
C367 C366 1.438 . S
C367 C368 1.428 . S
C367 C380 1.394 1_554 S
C368 H360 0.949 1_554 S
C368 C367 1.428 . S
C368 C369 1.345 . S
C369 H361 0.950 . S
C369 C368 1.345 . S
C369 C370 1.424 . S
C370 H362 0.951 . S
C370 C369 1.424 . S
C370 C371 1.347 . S
C371 H363 0.951 . S
C371 C366 1.429 . S
C371 C370 1.347 . S
H372 C373 0.951 . S
C373 H372 0.951 . S
C373 C379 1.265 . S
H374 C379 0.950 . S
H375 C383 0.949 1_554 S
H376 C384 0.950 1_455 S
H377 C385 0.951 . S
H378 C386 0.951 . S
C379 C373 1.265 . S
C379 H374 0.950 . S
C379 C380 1.478 . S
C380 C367 1.394 1_556 S
C380 C379 1.478 . S
C380 C381 1.397 . S
C381 C380 1.397 . S
C381 C382 1.438 . S
C381 C386 1.429 . S
C382 C365 1.394 1_556 S
C382 C381 1.438 . S
C382 C383 1.428 . S
C383 H375 0.949 1_556 S
C383 C382 1.428 . S
C383 C384 1.345 . S
C384 H376 0.950 1_655 S
C384 C383 1.345 . S
C384 C385 1.424 . S
C385 H377 0.951 . S
C385 C384 1.424 . S
C385 C386 1.347 . S
C386 H378 0.951 . S
C386 C381 1.429 . S
C386 C385 1.347 . S
H387 C388 0.951 1_655 S
C388 H387 0.951 1_455 S
C388 C394 1.265 . S
H389 C394 0.950 . S
H390 C398 0.949 . S
H391 C399 0.950 . S
H392 C400 0.951 . S
H393 C401 0.951 . S
C394 C388 1.265 . S
C394 H389 0.950 . S
C394 C395 1.478 . S
C395 C394 1.478 . S
C395 C396 1.397 . S
C395 C412 1.394 . S
C396 C395 1.397 . S
C396 C397 1.438 . S
C396 C401 1.429 1_455 S
C397 C396 1.438 . S
C397 C398 1.428 1_455 S
C397 C410 1.394 . S
C398 H390 0.949 . S
C398 C397 1.428 1_655 S
C398 C399 1.345 . S
C399 H391 0.950 . S
C399 C398 1.345 . S
C399 C400 1.424 . S
C400 H392 0.951 . S
C400 C399 1.424 . S
C400 C401 1.347 . S
C401 H393 0.951 . S
C401 C396 1.429 1_655 S
C401 C400 1.347 . S
H402 C403 0.951 . S
C403 H402 0.951 . S
C403 C409 1.265 . S
H404 C409 0.950 1_655 S
H405 C413 0.949 1_545 S
H406 C414 0.950 . S
H407 C415 0.951 . S
H408 C416 0.951 . S
C409 C403 1.265 . S
C409 H404 0.950 1_455 S
C409 C410 1.478 . S
C410 C397 1.394 . S
C410 C409 1.478 . S
C410 C411 1.397 . S
C411 C410 1.397 . S
C411 C412 1.438 . S
C411 C416 1.429 . S
C412 C395 1.394 . S
C412 C411 1.438 . S
C412 C413 1.428 . S
C413 H405 0.949 1_565 S
C413 C412 1.428 . S
C413 C414 1.345 1_565 S
C414 H406 0.950 . S
C414 C413 1.345 1_545 S
C414 C415 1.424 1_545 S
C415 H407 0.951 . S
C415 C414 1.424 1_565 S
C415 C416 1.347 . S
C416 H408 0.951 . S
C416 C411 1.429 . S
C416 C415 1.347 . S
H417 C418 0.951 . S
C418 H417 0.951 . S
C418 C424 1.265 . S
H419 C424 0.950 . S
H420 C428 0.949 . S
H421 C429 0.950 . S
H422 C430 0.951 . S
H423 C431 0.952 1_565 S
C424 C418 1.265 . S
C424 H419 0.950 . S
C424 C425 1.478 . S
C425 C424 1.478 . S
C425 C426 1.397 . S
C425 C442 1.394 . S
C426 C425 1.397 . S
C426 C427 1.438 . S
C426 C431 1.429 . S
C427 C426 1.438 . S
C427 C428 1.428 . S
C427 C440 1.394 . S
C428 H420 0.949 . S
C428 C427 1.428 . S
C428 C429 1.345 1_545 S
C429 H421 0.950 . S
C429 C428 1.345 1_565 S
C429 C430 1.424 . S
C430 H422 0.951 . S
C430 C429 1.424 . S
C430 C431 1.347 1_565 S
C431 H423 0.952 1_545 S
C431 C426 1.429 . S
C431 C430 1.347 1_545 S
H432 C433 0.951 . S
C433 H432 0.951 . S
C433 C439 1.265 . S
H434 C439 0.950 . S
H435 C443 0.949 . S
H436 C444 0.950 . S
H437 C445 0.951 . S
H438 C446 0.951 . S
C439 C433 1.265 . S
C439 H434 0.950 . S
C439 C440 1.478 . S
C440 C427 1.394 . S
C440 C439 1.478 . S
C440 C441 1.397 . S
C441 C440 1.397 . S
C441 C442 1.438 . S
C441 C446 1.429 . S
C442 C425 1.394 . S
C442 C441 1.438 . S
C442 C443 1.428 . S
C443 H435 0.949 . S
C443 C442 1.428 . S
C443 C444 1.345 . S
C444 H436 0.950 . S
C444 C443 1.345 . S
C444 C445 1.424 . S
C445 H437 0.951 . S
C445 C444 1.424 . S
C445 C446 1.347 . S
C446 H438 0.951 . S
C446 C441 1.429 . S
C446 C445 1.347 . S
H447 C448 0.951 . S
C448 H447 0.951 . S
C448 C454 1.265 . S
H449 C454 0.950 . S
H450 C458 0.949 . S
H451 C459 0.950 . S
H452 C460 0.951 . S
H453 C461 0.951 . S
C454 C448 1.265 . S
C454 H449 0.950 . S
C454 C455 1.478 . S
C455 C454 1.478 . S
C455 C456 1.397 1_554 S
C455 C472 1.394 . S
C456 C455 1.397 1_556 S
C456 C457 1.438 . S
C456 C461 1.429 . S
C457 C456 1.438 . S
C457 C458 1.428 . S
C457 C470 1.394 . S
C458 H450 0.949 . S
C458 C457 1.428 . S
C458 C459 1.345 . S
C459 H451 0.950 . S
C459 C458 1.345 . S
C459 C460 1.424 . S
C460 H452 0.951 . S
C460 C459 1.424 . S
C460 C461 1.347 . S
C461 H453 0.951 . S
C461 C456 1.429 . S
C461 C460 1.347 . S
H462 C463 0.951 . S
C463 H462 0.951 . S
C463 C469 1.265 . S
H464 C469 0.950 . S
H465 C473 0.949 . S
H466 C474 0.950 . S
H467 C475 0.951 . S
H468 C476 0.951 . S
C469 C463 1.265 . S
C469 H464 0.950 . S
C469 C470 1.478 . S
C470 C457 1.394 . S
C470 C469 1.478 . S
C470 C471 1.397 1_556 S
C471 C470 1.397 1_554 S
C471 C472 1.438 . S
C471 C476 1.429 . S
C472 C455 1.394 . S
C472 C471 1.438 . S
C472 C473 1.428 . S
C473 H465 0.949 . S
C473 C472 1.428 . S
C473 C474 1.345 . S
C474 H466 0.950 . S
C474 C473 1.345 . S
C474 C475 1.424 . S
C475 H467 0.951 . S
C475 C474 1.424 . S
C475 C476 1.347 . S
C476 H468 0.951 . S
C476 C471 1.429 . S
C476 C475 1.347 . S
H477 C478 0.951 . S
C478 H477 0.951 . S
C478 C484 1.265 . S
H479 C484 0.950 1_655 S
H480 C488 0.949 . S
H481 C489 0.950 . S
H482 C490 0.951 . S
H483 C491 0.951 . S
C484 C478 1.265 . S
C484 H479 0.950 1_455 S
C484 C485 1.478 . S
C485 C484 1.478 . S
C485 C486 1.397 1_455 S
C485 C502 1.394 . S
C486 C485 1.397 1_655 S
C486 C487 1.438 1_655 S
C486 C491 1.429 . S
C487 C486 1.438 1_455 S
C487 C488 1.428 1_455 S
C487 C500 1.394 . S
C488 H480 0.949 . S
C488 C487 1.428 1_655 S
C488 C489 1.345 . S
C489 H481 0.950 . S
C489 C488 1.345 . S
C489 C490 1.424 . S
C490 H482 0.951 . S
C490 C489 1.424 . S
C490 C491 1.347 . S
C491 H483 0.951 . S
C491 C486 1.429 . S
C491 C490 1.347 . S
H492 C493 0.951 1_655 S
C493 H492 0.951 1_455 S
C493 C499 1.265 . S
H494 C499 0.950 . S
H495 C503 0.949 . S
H496 C504 0.950 . S
H497 C505 0.951 . S
H498 C506 0.951 . S
C499 C493 1.265 . S
C499 H494 0.950 . S
C499 C500 1.478 . S
C500 C487 1.394 . S
C500 C499 1.478 . S
C500 C501 1.397 . S
C501 C500 1.397 . S
C501 C502 1.438 . S
C501 C506 1.429 . S
C502 C485 1.394 . S
C502 C501 1.438 . S
C502 C503 1.428 . S
C503 H495 0.949 . S
C503 C502 1.428 . S
C503 C504 1.345 . S
C504 H496 0.950 . S
C504 C503 1.345 . S
C504 C505 1.424 . S
C505 H497 0.951 . S
C505 C504 1.424 . S
C505 C506 1.347 . S
C506 H498 0.951 . S
C506 C501 1.429 . S
C506 C505 1.347 . S
C163 C113 1.428 . S
C148 C14 1.366 . S
C178 C40 1.481 . S
C193 C131 1.475 . S
C208 C76 1.468 1_565 S
C223 C144 1.478 . S
C238 C3 1.366 1_565 S
C253 C111 1.388 . S
C283 C122 1.489 . S
C268 C38 1.471 . S
C298 C74 1.434 . S
C313 C135 1.481 . S
C343 C124 1.370 . S
C328 C86 1.304 . S
C358 C2 1.393 . S
C373 C137 1.378 . S
C403 C118 1.445 . S
C388 C39 1.435 1_565 S
C433 C126 1.361 . S
C418 C75 1.373 . S
C463 C139 1.361 . S
C448 C4 1.364 . S
C478 C50 1.439 . S
C493 C109 1.466 . S
