# Generated by pormake.
# Topology gar, (4,6)-cn, num edge types: 1
# Building blocks:
#     Node 0, Type 0, BuildingBlock: GALJAG_clean_sbu_0, # of connection points: 4
#     Node 1, Type 0, BuildingBlock: GALJAG_clean_sbu_0, # of connection points: 4
#     Node 2, Type 0, BuildingBlock: GALJAG_clean_sbu_0, # of connection points: 4
#     Node 3, Type 0, BuildingBlock: GALJAG_clean_sbu_0, # of connection points: 4
#     Node 4, Type 0, BuildingBlock: GALJAG_clean_sbu_0, # of connection points: 4
#     Node 5, Type 0, BuildingBlock: GALJAG_clean_sbu_0, # of connection points: 4
#     Node 6, Type 0, BuildingBlock: GALJAG_clean_sbu_0, # of connection points: 4
#     Node 7, Type 0, BuildingBlock: GALJAG_clean_sbu_0, # of connection points: 4
#     Node 8, Type 0, BuildingBlock: GALJAG_clean_sbu_0, # of connection points: 4
#     Node 9, Type 0, BuildingBlock: GALJAG_clean_sbu_0, # of connection points: 4
#     Node 10, Type 0, BuildingBlock: GALJAG_clean_sbu_0, # of connection points: 4
#     Node 11, Type 0, BuildingBlock: GALJAG_clean_sbu_0, # of connection points: 4
#     Node 12, Type 0, BuildingBlock: GALJAG_clean_sbu_0, # of connection points: 4
#     Node 13, Type 0, BuildingBlock: GALJAG_clean_sbu_0, # of connection points: 4
#     Node 14, Type 0, BuildingBlock: GALJAG_clean_sbu_0, # of connection points: 4
#     Node 15, Type 0, BuildingBlock: GALJAG_clean_sbu_0, # of connection points: 4
#     Node 16, Type 0, BuildingBlock: GALJAG_clean_sbu_0, # of connection points: 4
#     Node 17, Type 0, BuildingBlock: GALJAG_clean_sbu_0, # of connection points: 4
#     Node 18, Type 0, BuildingBlock: GALJAG_clean_sbu_0, # of connection points: 4
#     Node 19, Type 0, BuildingBlock: GALJAG_clean_sbu_0, # of connection points: 4
#     Node 20, Type 0, BuildingBlock: GALJAG_clean_sbu_0, # of connection points: 4
#     Node 21, Type 0, BuildingBlock: GALJAG_clean_sbu_0, # of connection points: 4
#     Node 22, Type 0, BuildingBlock: GALJAG_clean_sbu_0, # of connection points: 4
#     Node 23, Type 0, BuildingBlock: GALJAG_clean_sbu_0, # of connection points: 4
#     Node 24, Type 1, BuildingBlock: KUMBUR_clean_sbu_0, # of connection points: 6
#     Node 25, Type 1, BuildingBlock: KUMBUR_clean_sbu_0, # of connection points: 6
#     Node 26, Type 1, BuildingBlock: KUMBUR_clean_sbu_0, # of connection points: 6
#     Node 27, Type 1, BuildingBlock: KUMBUR_clean_sbu_0, # of connection points: 6
#     Node 28, Type 1, BuildingBlock: KUMBUR_clean_sbu_0, # of connection points: 6
#     Node 29, Type 1, BuildingBlock: KUMBUR_clean_sbu_0, # of connection points: 6
#     Node 30, Type 1, BuildingBlock: KUMBUR_clean_sbu_0, # of connection points: 6
#     Node 31, Type 1, BuildingBlock: KUMBUR_clean_sbu_0, # of connection points: 6
#     Node 32, Type 1, BuildingBlock: KUMBUR_clean_sbu_0, # of connection points: 6
#     Node 33, Type 1, BuildingBlock: KUMBUR_clean_sbu_0, # of connection points: 6
#     Node 34, Type 1, BuildingBlock: KUMBUR_clean_sbu_0, # of connection points: 6
#     Node 35, Type 1, BuildingBlock: KUMBUR_clean_sbu_0, # of connection points: 6
#     Node 36, Type 1, BuildingBlock: KUMBUR_clean_sbu_0, # of connection points: 6
#     Node 37, Type 1, BuildingBlock: KUMBUR_clean_sbu_0, # of connection points: 6
#     Node 38, Type 1, BuildingBlock: KUMBUR_clean_sbu_0, # of connection points: 6
#     Node 39, Type 1, BuildingBlock: KUMBUR_clean_sbu_0, # of connection points: 6
#     Edge 40, Type (0, 1), BuildingBlock: TEMPAE_clean_linker_10, # of connection points: 2
#     Edge 41, Type (0, 1), BuildingBlock: TEMPAE_clean_linker_10, # of connection points: 2
#     Edge 42, Type (0, 1), BuildingBlock: TEMPAE_clean_linker_10, # of connection points: 2
#     Edge 43, Type (0, 1), BuildingBlock: TEMPAE_clean_linker_10, # of connection points: 2
#     Edge 44, Type (0, 1), BuildingBlock: TEMPAE_clean_linker_10, # of connection points: 2
#     Edge 45, Type (0, 1), BuildingBlock: TEMPAE_clean_linker_10, # of connection points: 2
#     Edge 46, Type (0, 1), BuildingBlock: TEMPAE_clean_linker_10, # of connection points: 2
#     Edge 47, Type (0, 1), BuildingBlock: TEMPAE_clean_linker_10, # of connection points: 2
#     Edge 48, Type (0, 1), BuildingBlock: TEMPAE_clean_linker_10, # of connection points: 2
#     Edge 49, Type (0, 1), BuildingBlock: TEMPAE_clean_linker_10, # of connection points: 2
#     Edge 50, Type (0, 1), BuildingBlock: TEMPAE_clean_linker_10, # of connection points: 2
#     Edge 51, Type (0, 1), BuildingBlock: TEMPAE_clean_linker_10, # of connection points: 2
#     Edge 52, Type (0, 1), BuildingBlock: TEMPAE_clean_linker_10, # of connection points: 2
#     Edge 53, Type (0, 1), BuildingBlock: TEMPAE_clean_linker_10, # of connection points: 2
#     Edge 54, Type (0, 1), BuildingBlock: TEMPAE_clean_linker_10, # of connection points: 2
#     Edge 55, Type (0, 1), BuildingBlock: TEMPAE_clean_linker_10, # of connection points: 2
#     Edge 56, Type (0, 1), BuildingBlock: TEMPAE_clean_linker_10, # of connection points: 2
#     Edge 57, Type (0, 1), BuildingBlock: TEMPAE_clean_linker_10, # of connection points: 2
#     Edge 58, Type (0, 1), BuildingBlock: TEMPAE_clean_linker_10, # of connection points: 2
#     Edge 59, Type (0, 1), BuildingBlock: TEMPAE_clean_linker_10, # of connection points: 2
#     Edge 60, Type (0, 1), BuildingBlock: TEMPAE_clean_linker_10, # of connection points: 2
#     Edge 61, Type (0, 1), BuildingBlock: TEMPAE_clean_linker_10, # of connection points: 2
#     Edge 62, Type (0, 1), BuildingBlock: TEMPAE_clean_linker_10, # of connection points: 2
#     Edge 63, Type (0, 1), BuildingBlock: TEMPAE_clean_linker_10, # of connection points: 2
#     Edge 64, Type (0, 1), BuildingBlock: TEMPAE_clean_linker_10, # of connection points: 2
#     Edge 65, Type (0, 1), BuildingBlock: TEMPAE_clean_linker_10, # of connection points: 2
#     Edge 66, Type (0, 1), BuildingBlock: TEMPAE_clean_linker_10, # of connection points: 2
#     Edge 67, Type (0, 1), BuildingBlock: TEMPAE_clean_linker_10, # of connection points: 2
#     Edge 68, Type (0, 1), BuildingBlock: TEMPAE_clean_linker_10, # of connection points: 2
#     Edge 69, Type (0, 1), BuildingBlock: TEMPAE_clean_linker_10, # of connection points: 2
#     Edge 70, Type (0, 1), BuildingBlock: TEMPAE_clean_linker_10, # of connection points: 2
#     Edge 71, Type (0, 1), BuildingBlock: TEMPAE_clean_linker_10, # of connection points: 2
#     Edge 72, Type (0, 1), BuildingBlock: TEMPAE_clean_linker_10, # of connection points: 2
#     Edge 73, Type (0, 1), BuildingBlock: TEMPAE_clean_linker_10, # of connection points: 2
#     Edge 74, Type (0, 1), BuildingBlock: TEMPAE_clean_linker_10, # of connection points: 2
#     Edge 75, Type (0, 1), BuildingBlock: TEMPAE_clean_linker_10, # of connection points: 2
#     Edge 76, Type (0, 1), BuildingBlock: TEMPAE_clean_linker_10, # of connection points: 2
#     Edge 77, Type (0, 1), BuildingBlock: TEMPAE_clean_linker_10, # of connection points: 2
#     Edge 78, Type (0, 1), BuildingBlock: TEMPAE_clean_linker_10, # of connection points: 2
#     Edge 79, Type (0, 1), BuildingBlock: TEMPAE_clean_linker_10, # of connection points: 2
#     Edge 80, Type (0, 1), BuildingBlock: TEMPAE_clean_linker_10, # of connection points: 2
#     Edge 81, Type (0, 1), BuildingBlock: TEMPAE_clean_linker_10, # of connection points: 2
#     Edge 82, Type (0, 1), BuildingBlock: TEMPAE_clean_linker_10, # of connection points: 2
#     Edge 83, Type (0, 1), BuildingBlock: TEMPAE_clean_linker_10, # of connection points: 2
#     Edge 84, Type (0, 1), BuildingBlock: TEMPAE_clean_linker_10, # of connection points: 2
#     Edge 85, Type (0, 1), BuildingBlock: TEMPAE_clean_linker_10, # of connection points: 2
#     Edge 86, Type (0, 1), BuildingBlock: TEMPAE_clean_linker_10, # of connection points: 2
#     Edge 87, Type (0, 1), BuildingBlock: TEMPAE_clean_linker_10, # of connection points: 2
#     Edge 88, Type (0, 1), BuildingBlock: TEMPAE_clean_linker_10, # of connection points: 2
#     Edge 89, Type (0, 1), BuildingBlock: TEMPAE_clean_linker_10, # of connection points: 2
#     Edge 90, Type (0, 1), BuildingBlock: TEMPAE_clean_linker_10, # of connection points: 2
#     Edge 91, Type (0, 1), BuildingBlock: TEMPAE_clean_linker_10, # of connection points: 2
#     Edge 92, Type (0, 1), BuildingBlock: TEMPAE_clean_linker_10, # of connection points: 2
#     Edge 93, Type (0, 1), BuildingBlock: TEMPAE_clean_linker_10, # of connection points: 2
#     Edge 94, Type (0, 1), BuildingBlock: TEMPAE_clean_linker_10, # of connection points: 2
#     Edge 95, Type (0, 1), BuildingBlock: TEMPAE_clean_linker_10, # of connection points: 2
#     Edge 96, Type (0, 1), BuildingBlock: TEMPAE_clean_linker_10, # of connection points: 2
#     Edge 97, Type (0, 1), BuildingBlock: TEMPAE_clean_linker_10, # of connection points: 2
#     Edge 98, Type (0, 1), BuildingBlock: TEMPAE_clean_linker_10, # of connection points: 2
#     Edge 99, Type (0, 1), BuildingBlock: TEMPAE_clean_linker_10, # of connection points: 2
#     Edge 100, Type (0, 1), BuildingBlock: TEMPAE_clean_linker_10, # of connection points: 2
#     Edge 101, Type (0, 1), BuildingBlock: TEMPAE_clean_linker_10, # of connection points: 2
#     Edge 102, Type (0, 1), BuildingBlock: TEMPAE_clean_linker_10, # of connection points: 2
#     Edge 103, Type (0, 1), BuildingBlock: TEMPAE_clean_linker_10, # of connection points: 2
#     Edge 104, Type (0, 1), BuildingBlock: TEMPAE_clean_linker_10, # of connection points: 2
#     Edge 105, Type (0, 1), BuildingBlock: TEMPAE_clean_linker_10, # of connection points: 2
#     Edge 106, Type (0, 1), BuildingBlock: TEMPAE_clean_linker_10, # of connection points: 2
#     Edge 107, Type (0, 1), BuildingBlock: TEMPAE_clean_linker_10, # of connection points: 2
#     Edge 108, Type (0, 1), BuildingBlock: TEMPAE_clean_linker_10, # of connection points: 2
#     Edge 109, Type (0, 1), BuildingBlock: TEMPAE_clean_linker_10, # of connection points: 2
#     Edge 110, Type (0, 1), BuildingBlock: TEMPAE_clean_linker_10, # of connection points: 2
#     Edge 111, Type (0, 1), BuildingBlock: TEMPAE_clean_linker_10, # of connection points: 2
#     Edge 112, Type (0, 1), BuildingBlock: TEMPAE_clean_linker_10, # of connection points: 2
#     Edge 113, Type (0, 1), BuildingBlock: TEMPAE_clean_linker_10, # of connection points: 2
#     Edge 114, Type (0, 1), BuildingBlock: TEMPAE_clean_linker_10, # of connection points: 2
#     Edge 115, Type (0, 1), BuildingBlock: TEMPAE_clean_linker_10, # of connection points: 2
#     Edge 116, Type (0, 1), BuildingBlock: TEMPAE_clean_linker_10, # of connection points: 2
#     Edge 117, Type (0, 1), BuildingBlock: TEMPAE_clean_linker_10, # of connection points: 2
#     Edge 118, Type (0, 1), BuildingBlock: TEMPAE_clean_linker_10, # of connection points: 2
#     Edge 119, Type (0, 1), BuildingBlock: TEMPAE_clean_linker_10, # of connection points: 2
#     Edge 120, Type (0, 1), BuildingBlock: TEMPAE_clean_linker_10, # of connection points: 2
#     Edge 121, Type (0, 1), BuildingBlock: TEMPAE_clean_linker_10, # of connection points: 2
#     Edge 122, Type (0, 1), BuildingBlock: TEMPAE_clean_linker_10, # of connection points: 2
#     Edge 123, Type (0, 1), BuildingBlock: TEMPAE_clean_linker_10, # of connection points: 2
#     Edge 124, Type (0, 1), BuildingBlock: TEMPAE_clean_linker_10, # of connection points: 2
#     Edge 125, Type (0, 1), BuildingBlock: TEMPAE_clean_linker_10, # of connection points: 2
#     Edge 126, Type (0, 1), BuildingBlock: TEMPAE_clean_linker_10, # of connection points: 2
#     Edge 127, Type (0, 1), BuildingBlock: TEMPAE_clean_linker_10, # of connection points: 2
#     Edge 128, Type (0, 1), BuildingBlock: TEMPAE_clean_linker_10, # of connection points: 2
#     Edge 129, Type (0, 1), BuildingBlock: TEMPAE_clean_linker_10, # of connection points: 2
#     Edge 130, Type (0, 1), BuildingBlock: TEMPAE_clean_linker_10, # of connection points: 2
#     Edge 131, Type (0, 1), BuildingBlock: TEMPAE_clean_linker_10, # of connection points: 2
#     Edge 132, Type (0, 1), BuildingBlock: TEMPAE_clean_linker_10, # of connection points: 2
#     Edge 133, Type (0, 1), BuildingBlock: TEMPAE_clean_linker_10, # of connection points: 2
#     Edge 134, Type (0, 1), BuildingBlock: TEMPAE_clean_linker_10, # of connection points: 2
#     Edge 135, Type (0, 1), BuildingBlock: TEMPAE_clean_linker_10, # of connection points: 2
# Relax obj value: 0.136
# Max RMSD: 0.323
# Mean RMSD: 0.168
data_MOF--net-gar--node1-GALJAG_clean_sbu_0--node2-KUMBUR_clean_sbu_0--edge1-TEMPAE_clean_linker_10
_symmetry_space_group_name_H-M    P1
_symmetry_Int_Tables_number       1
_symmetry_cell_setting            triclinic
loop_
_symmetry_equiv_pos_as_xyz
'x, y, z'
_cell_length_a     62.09796
_cell_length_b     57.09526
_cell_length_c     57.075538
_cell_angle_alpha  100.32553
_cell_angle_beta   93.440939
_cell_angle_gamma 102.08642
loop_
_atom_site_label
_atom_site_type_symbol
_atom_site_fract_x
_atom_site_fract_y
_atom_site_fract_z
_atom_type_partial_charge
In0 In 0.10123 0.31264 0.38347 0.0
O1 O 0.118 0.29065 0.35592 0.0
O2 O 0.13721 0.32414 0.37652 0.0
C3 C 0.06425 0.30731 0.35372 0.0
C4 C 0.10142 0.28373 0.41611 0.0
C5 C 0.10123 0.35876 0.4044 0.0
O6 O 0.08342 0.31317 0.34745 0.0
O7 O 0.06372 0.30288 0.37455 0.0
O8 O 0.09172 0.34041 0.41223 0.0
O9 O 0.11146 0.35393 0.38637 0.0
C10 C 0.13639 0.30592 0.36002 0.0
O11 O 0.11344 0.305 0.41923 0.0
O12 O 0.08983 0.27668 0.39613 0.0
In13 In 0.00805 0.76821 0.6717 0.0
O14 O 0.03302 0.79033 0.65199 0.0
O15 O 1.00083 0.79753 0.65155 0.0
C16 C 1.00244 0.72506 0.64127 0.0
C17 C 0.04096 0.76702 0.70437 0.0
C18 C 0.97094 0.77232 0.69271 0.0
O19 O 0.01097 0.74511 0.63573 0.0
O20 O 0.99605 0.72683 0.66193 0.0
O21 O 0.99002 0.78293 0.70282 0.0
O22 O 0.97064 0.76056 0.67173 0.0
C23 C 0.01992 0.80216 0.64458 0.0
O24 O 0.03735 0.78692 0.70019 0.0
O25 O 0.02765 0.74824 0.69271 0.0
In26 In 0.58989 0.7968 0.87362 0.0
O27 O 0.62778 0.80162 0.8763 0.0
O28 O 0.61027 0.79283 0.84175 0.0
C29 C 0.55335 0.79129 0.84314 0.0
C30 C 0.58055 0.75916 0.89757 0.0
C31 C 0.5916 0.84292 0.89693 0.0
O32 O 0.56702 0.77786 0.83945 0.0
O33 O 0.55802 0.80725 0.86211 0.0
O34 O 0.58316 0.82429 0.90513 0.0
O35 O 0.59965 0.83827 0.87728 0.0
C36 C 0.62876 0.79763 0.85397 0.0
O37 O 0.59229 0.77983 0.90736 0.0
O38 O 0.5741 0.75747 0.8759 0.0
In39 In 0.51696 0.26704 0.1769 0.0
O40 O 0.50182 0.23388 0.14679 0.0
O41 O 0.5339 0.23649 0.16358 0.0
C42 C 0.52836 0.3042 0.15296 0.0
C43 C 0.47753 0.26737 0.19409 0.0
C44 C 0.54555 0.26836 0.21478 0.0
O45 O 0.53653 0.28563 0.14991 0.0
O46 O 0.51431 0.30404 0.16794 0.0
O47 O 0.5478 0.28521 0.20287 0.0
O48 O 0.52835 0.25161 0.20823 0.0
C49 C 0.5184 0.22438 0.14812 0.0
O50 O 0.49567 0.27937 0.2055 0.0
O51 O 0.47922 0.2549 0.17392 0.0
In52 In 0.09711 0.81861 0.12417 0.0
O53 O 0.07652 0.78087 0.10223 0.0
O54 O 0.11091 0.78644 0.10272 0.0
C55 C 0.09363 0.8598 0.10303 0.0
C56 C 0.06126 0.81402 0.1502 0.0
C57 C 0.13465 0.82156 0.15556 0.0
O58 O 0.10541 0.84494 0.09553 0.0
O59 O 0.08424 0.85421 0.12081 0.0
O60 O 0.11528 0.81065 0.15801 0.0
O61 O 0.13519 0.83242 0.13804 0.0
C62 C 0.09256 0.77145 0.09654 0.0
O63 O 0.08043 0.82597 0.15927 0.0
O64 O 0.06034 0.80444 0.12829 0.0
In65 In 0.52049 0.77494 0.43519 0.0
O66 O 0.54171 0.75764 0.40728 0.0
O67 O 0.54763 0.79602 0.41601 0.0
C68 C 0.48061 0.77259 0.40823 0.0
C69 C 0.52434 0.73499 0.45757 0.0
C70 C 0.52714 0.82111 0.46484 0.0
O71 O 0.49934 0.7767 0.40032 0.0
O72 O 0.48173 0.76851 0.42929 0.0
O73 O 0.50829 0.80709 0.45849 0.0
O74 O 0.54262 0.81104 0.45833 0.0
C75 C 0.55324 0.77774 0.40436 0.0
O76 O 0.53689 0.75608 0.46343 0.0
O77 O 0.5092 0.73425 0.44148 0.0
In78 In 0.59898 0.31852 0.61964 0.0
O79 O 0.61232 0.28641 0.59769 0.0
O80 O 0.57794 0.28125 0.59756 0.0
C81 C 0.59471 0.35868 0.59773 0.0
C82 C 0.56405 0.3144 0.64717 0.0
C83 C 0.63772 0.32195 0.64921 0.0
O84 O 0.60671 0.34398 0.59039 0.0
O85 O 0.58545 0.35337 0.61568 0.0
O86 O 0.61947 0.3075 0.64987 0.0
O87 O 0.63641 0.33598 0.63459 0.0
C88 C 0.59382 0.27166 0.59166 0.0
O89 O 0.58335 0.32653 0.65555 0.0
O90 O 0.56264 0.30442 0.62536 0.0
In91 In 0.02378 0.27477 0.93081 0.0
O92 O 0.03774 0.25532 0.96013 0.0
O93 O 0.01105 0.23378 0.93679 0.0
C94 C 0.03105 0.32301 0.95597 0.0
C95 C 0.0591 0.27624 0.90344 0.0
C96 C 0.98448 0.27499 0.90393 0.0
O97 O 0.01646 0.30581 0.96068 0.0
O98 O 0.04222 0.31576 0.93955 0.0
O99 O 0.99909 0.26431 0.89551 0.0
O100 O 0.98913 0.28449 0.9259 0.0
C101 C 0.0253 0.23431 0.95373 0.0
O102 O 0.0392 0.26826 0.89447 0.0
O103 O 0.06104 0.28322 0.92585 0.0
In104 In 0.43937 0.04059 0.30414 0.0
O105 O 0.46368 0.02128 0.28534 0.0
O106 O 0.44092 0.03388 0.26385 0.0
C107 C 0.46786 0.06415 0.34287 0.0
C108 C 0.41814 0.07242 0.2892 0.0
C109 C 0.41501 0.99783 0.31139 0.0
O110 O 0.47382 0.05939 0.32224 0.0
O111 O 0.44737 0.0575 0.344 0.0
O112 O 0.40931 0.01778 0.31778 0.0
O113 O 0.43289 0.9997 0.30195 0.0
C114 C 0.45677 0.02325 0.26468 0.0
O115 O 0.40828 0.05441 0.29737 0.0
O116 O 0.43876 0.07466 0.28902 0.0
In117 In 0.2936 0.19037 0.5114 0.0
O118 O 0.31366 0.2176 0.54491 0.0
O119 O 0.27898 0.2113 0.54298 0.0
C120 C 0.29567 0.20659 0.46862 0.0
C121 C 0.32678 0.16586 0.51508 0.0
C122 C 0.2525 0.16006 0.50633 0.0
O123 O 0.29644 0.22082 0.48855 0.0
O124 O 0.29417 0.18461 0.47038 0.0
O125 O 0.26979 0.15415 0.51377 0.0
O126 O 0.25598 0.18094 0.50099 0.0
C127 C 0.29707 0.22171 0.55525 0.0
O128 O 0.30819 0.1597 0.52277 0.0
O129 O 0.32869 0.18432 0.50538 0.0
In130 In 0.18108 0.0183 0.77577 0.0
O131 O 0.15808 0.03562 0.74987 0.0
O132 O 0.1621 1.00163 0.73466 0.0
C133 C 0.15788 0.02086 0.82021 0.0
C134 C 0.20584 0.97767 0.77518 0.0
C135 C 0.20982 0.06586 0.77845 0.0
O136 O 0.15039 1.00639 0.80035 0.0
O137 O 0.17665 0.03359 0.81781 0.0
O138 O 0.20947 0.04736 0.76222 0.0
O139 O 0.19704 0.06011 0.79395 0.0
C140 C 0.15391 0.0194 0.73095 0.0
O141 O 0.21448 1.00008 0.7757 0.0
O142 O 0.18503 0.97556 0.775 0.0
In143 In 0.32397 0.93725 0.02353 0.0
O144 O 0.31687 0.90826 0.04639 0.0
O145 O 0.34786 0.934 0.05369 0.0
C146 C 0.31704 0.90015 0.98527 0.0
C147 C 0.29045 0.95943 0.0345 0.0
C148 C 0.35926 0.97132 0.01764 0.0
O149 O 0.33477 0.90701 0.99895 0.0
O150 O 0.30238 0.91185 0.99099 0.0
O151 O 0.34687 0.95726 1.00018 0.0
O152 O 0.3529 0.96927 0.03789 0.0
C153 C 0.33538 0.91561 0.05887 0.0
O154 O 0.30039 0.96158 0.01611 0.0
O155 O 0.29742 0.94619 0.04723 0.0
In156 In 0.32125 0.38725 0.03403 0.0
O157 O 0.30406 0.35755 0.05431 0.0
O158 O 0.33429 0.38053 0.07067 0.0
C159 C 0.31585 0.35615 0.99024 0.0
C160 C 0.29129 0.41638 0.03325 0.0
C161 C 0.36188 0.41806 0.03653 0.0
O162 O 0.33209 0.35878 0.00562 0.0
O163 O 0.30156 0.36774 0.99756 0.0
O164 O 0.34791 0.42217 0.05107 0.0
O165 O 0.35546 0.39855 0.02122 0.0
C166 C 0.31829 0.36343 0.07234 0.0
O167 O 0.29086 0.40142 0.0471 0.0
O168 O 0.30692 0.41693 0.02012 0.0
In169 In 0.79026 0.14657 0.022 0.0
O170 O 0.80003 0.11122 0.00564 0.0
O171 O 0.82223 0.13565 0.03336 0.0
C172 C 0.74857 0.11956 0.0166 0.0
C173 C 0.79507 0.17744 0.06474 0.0
C174 C 0.79157 0.17378 0.98776 0.0
O175 O 0.76214 0.12047 0.03434 0.0
O176 O 0.75646 0.13119 1.00111 0.0
O177 O 0.78033 0.17631 0.00528 0.0
O178 O 0.8034 0.15837 0.9881 0.0
C179 C 0.81816 0.11566 0.01852 0.0
O180 O 0.81017 0.17867 0.05082 0.0
O181 O 0.77823 0.16051 0.05732 0.0
In182 In 0.20216 0.53902 0.25514 0.0
O183 O 0.23061 0.51949 0.25087 0.0
O184 O 0.20637 0.50769 0.27347 0.0
C185 C 0.23315 0.58048 0.27141 0.0
C186 C 0.18184 0.52752 0.21 0.0
C187 C 0.16768 0.54851 0.27837 0.0
O188 O 0.23179 0.56814 0.25048 0.0
O189 O 0.21912 0.57164 0.28439 0.0
O190 O 0.17657 0.5311 0.28122 0.0
O191 O 0.17627 0.5611 0.26388 0.0
C192 C 0.22426 0.5054 0.26499 0.0
O193 O 0.1956 0.54729 0.21825 0.0
O194 O 0.17913 0.51274 0.22411 0.0
In195 In 0.8239 0.89003 0.54363 0.0
O196 O 0.80717 0.85923 0.56325 0.0
O197 O 0.83435 0.88591 0.58206 0.0
C198 C 0.82053 0.86036 0.49888 0.0
C199 C 0.79348 0.91869 0.54333 0.0
C200 C 0.86472 0.92102 0.54898 0.0
O201 O 0.83857 0.86978 0.51166 0.0
O202 O 0.80391 0.86433 0.50925 0.0
O203 O 0.84692 0.92807 0.54622 0.0
O204 O 0.86192 0.89858 0.54949 0.0
C205 C 0.81973 0.86708 0.58259 0.0
O206 O 0.79675 0.9081 0.56038 0.0
O207 O 0.80574 0.91523 0.52682 0.0
In208 In 0.93679 0.07054 0.27994 0.0
O209 O 0.96987 0.07276 0.2573 0.0
O210 O 0.93997 0.06601 0.23678 0.0
C211 C 0.96346 0.0691 0.32463 0.0
C212 C 0.91279 0.11164 0.28193 0.0
C213 C 0.90785 0.02325 0.27833 0.0
O214 O 0.95765 0.05203 0.30644 0.0
O215 O 0.95717 0.08786 0.3202 0.0
O216 O 0.91649 0.03013 0.26045 0.0
O217 O 0.91238 0.04049 0.29643 0.0
C218 C 0.96067 0.06872 0.23599 0.0
O219 O 0.90386 0.08892 0.27793 0.0
O220 O 0.93363 0.11397 0.28558 0.0
In221 In 0.29156 0.64359 0.51615 0.0
O222 O 0.32585 0.63536 0.5212 0.0
O223 O 0.29962 0.60655 0.50301 0.0
C224 C 0.24767 0.62769 0.51767 0.0
C225 C 0.2995 0.67354 0.55956 0.0
C226 C 0.29494 0.66249 0.47625 0.0
O227 O 0.25555 0.644 0.50639 0.0
O228 O 0.26185 0.61897 0.52787 0.0
O229 O 0.30228 0.67514 0.4968 0.0
O230 O 0.28665 0.64026 0.47591 0.0
C231 C 0.31984 0.61332 0.51066 0.0
O232 O 0.30164 0.68149 0.54035 0.0
O233 O 0.29412 0.65059 0.5568 0.0
In234 In 0.43905 0.57484 0.77717 0.0
O235 O 0.40639 0.59409 0.77731 0.0
O236 O 0.43643 0.61854 0.78281 0.0
C237 C 0.41311 0.52528 0.77215 0.0
C238 C 0.46233 0.57144 0.7327 0.0
C239 C 0.46221 0.57529 0.82481 0.0
O240 O 0.40523 0.54283 0.76711 0.0
O241 O 0.43354 0.53248 0.77899 0.0
O242 O 0.46778 0.59147 0.81217 0.0
O243 O 0.44505 0.56014 0.81422 0.0
C244 C 0.41559 0.61668 0.78026 0.0
O245 O 0.47162 0.57516 0.75389 0.0
O246 O 0.44177 0.56957 0.73378 0.0
In247 In 0.70305 0.03188 0.74923 0.0
O248 O 0.73516 0.01894 0.74942 0.0
O249 O 0.70527 0.99253 0.74855 0.0
C250 C 0.72279 0.07857 0.74889 0.0
C251 C 0.67028 0.02108 0.71322 0.0
C252 C 0.69277 0.034 0.79431 0.0
O253 O 0.72741 0.06086 0.73497 0.0
O254 O 0.70783 0.07264 0.76202 0.0
O255 O 0.67865 0.02459 0.77645 0.0
O256 O 0.71214 0.04186 0.78933 0.0
C257 C 0.72613 0.99716 0.75006 0.0
O258 O 0.66763 0.02895 0.73466 0.0
O259 O 0.68963 0.01852 0.70979 0.0
In260 In 0.79676 0.69086 0.02009 0.0
O261 O 0.81118 0.65645 0.01055 0.0
O262 O 0.82994 0.68597 0.03654 0.0
C263 C 0.75597 0.66032 0.01675 0.0
C264 C 0.79851 0.72273 0.06268 0.0
C265 C 0.80232 0.71203 0.98034 0.0
O266 O 0.77037 0.66358 0.03426 0.0
O267 O 0.76229 0.67181 1.00058 0.0
O268 O 0.79489 0.72191 0.9988 0.0
O269 O 0.80772 0.69241 0.98242 0.0
C270 C 0.82861 0.66477 0.02471 0.0
O271 O 0.81562 0.71905 0.05305 0.0
O272 O 0.78064 0.71171 0.05009 0.0
In273 In 0.93339 0.54941 0.80396 0.0
O274 O 0.91165 0.55722 0.77415 0.0
O275 O 0.91776 0.58271 0.80711 0.0
C276 C 0.90739 0.50423 0.79884 0.0
C277 C 0.96798 0.54728 0.77801 0.0
C278 C 0.95232 0.56407 0.84956 0.0
O279 O 0.90237 0.52282 0.81084 0.0
O280 O 0.92505 0.50864 0.78902 0.0
O281 O 0.95926 0.57456 0.83296 0.0
O282 O 0.93532 0.54708 0.84335 0.0
C283 C 0.90882 0.57709 0.78581 0.0
O284 O 0.96135 0.53197 0.79089 0.0
O285 O 0.95737 0.56391 0.77854 0.0
In286 In 0.81888 0.4444 0.52495 0.0
O287 O 0.80396 0.41462 0.54512 0.0
O288 O 0.82206 0.44858 0.56542 0.0
C289 C 0.81386 0.40791 0.48655 0.0
C290 C 0.7939 0.47787 0.52631 0.0
C291 C 0.86137 0.4638 0.52024 0.0
O292 O 0.82757 0.41037 0.50451 0.0
O293 O 0.80191 0.42344 0.48824 0.0
O294 O 0.84568 0.4644 0.5054 0.0
O295 O 0.8555 0.45418 0.53776 0.0
C296 C 0.81143 0.42727 0.56555 0.0
O297 O 0.8143 0.48338 0.53321 0.0
O298 O 0.78607 0.45541 0.5182 0.0
In299 In 0.67978 0.51349 0.27277 0.0
O300 O 0.71233 0.49523 0.27903 0.0
O301 O 0.68322 0.47015 0.26617 0.0
C302 C 0.70969 0.56072 0.27737 0.0
C303 C 0.65329 0.51347 0.2271 0.0
C304 C 0.65514 0.51615 0.31618 0.0
O305 O 0.70142 0.55228 0.29468 0.0
O306 O 0.70442 0.54492 0.25822 0.0
O307 O 0.66 0.49699 0.30481 0.0
O308 O 0.66165 0.53348 0.30536 0.0
C309 C 0.70368 0.47246 0.27263 0.0
O310 O 0.64781 0.51949 0.24806 0.0
O311 O 0.67086 0.50566 0.2289 0.0
Tb312 Tb 0.03478 0.02795 0.01292 0.0
C313 C 0.08818 0.11498 0.07944 0.0
C314 C 0.09099 0.14692 0.05629 0.0
C315 C 0.09067 0.15698 0.09943 0.0
C316 C 0.08808 0.12198 0.0574 0.0
C317 C 0.09025 0.13257 0.10073 0.0
C318 C 0.09118 0.16418 0.07723 0.0
C319 C 0.09557 0.10172 0.12304 0.0
N320 N 0.08863 0.09138 0.08008 0.0
C321 C 0.09385 0.08502 0.10149 0.0
C322 C 0.09322 0.12544 0.12269 0.0
Tb323 Tb 0.0837 0.06557 0.04326 0.0
N324 N 0.08828 0.1049 0.03751 0.0
C325 C 0.09454 0.1121 0.01684 0.0
C326 C 0.0954 0.15403 0.03456 0.0
C327 C 0.09771 0.13664 0.01491 0.0
H328 H 0.09607 0.06691 0.10213 0.0
H329 H 0.10204 0.1421 0.99829 0.0
H330 H 0.0929 0.18334 0.07661 0.0
H331 H 0.09885 0.09633 0.1399 0.0
H332 H 0.09664 0.09903 1.0015 0.0
H333 H 0.01659 0.95501 0.06296 0.0
H334 H 0.09839 0.17308 0.03322 0.0
H335 H 0.02426 0.02461 0.95438 0.0
H336 H 0.02441 0.99724 0.0575 0.0
H337 H 0.01829 0.99359 0.91732 0.0
H338 H 0.09191 0.17068 0.11557 0.0
H339 H 0.01473 0.92127 0.02849 0.0
H340 H 0.01574 0.90782 0.98435 0.0
H341 H 0.09484 0.13841 0.13942 0.0
H342 H 0.01646 0.91841 0.94439 0.0
N343 N 0.02791 0.98856 0.02007 0.0
C344 C 0.0237 0.98314 0.04204 0.0
C345 C 0.01836 0.94 0.02596 0.0
C346 C 0.02123 0.94538 1.00329 0.0
C347 C 0.01925 0.95896 0.04537 0.0
C348 C 0.02566 0.97008 1.0009 0.0
H349 H 0.01694 0.95036 0.91916 0.0
N350 N 0.02753 0.99966 0.97742 0.0
C351 C 0.02046 0.98833 0.93446 0.0
C352 C 0.02569 0.9759 0.97867 0.0
C353 C 0.02383 1.00588 0.95563 0.0
C354 C 0.01982 0.96399 0.93555 0.0
C355 C 0.02185 0.9574 0.95788 0.0
O356 O 0.00669 0.03484 0.99508 0.0
O357 O 0.05261 0.06623 0.02431 0.0
O358 O 0.05883 0.06856 0.07056 0.0
O359 O 0.02926 0.0374 0.05242 0.0
O360 O 0.03675 0.05588 0.99073 0.0
O361 O 1.00515 0.02438 0.02929 0.0
O362 O 0.1102 0.04748 0.04151 0.0
O363 O 0.06624 0.02728 0.03168 0.0
O364 O 0.06022 0.0239 0.98645 0.0
O365 O 0.08883 0.05702 1.00349 0.0
O366 O 0.08136 0.03837 0.06597 0.0
O367 O 0.11641 0.08639 0.04738 0.0
C368 C 0.04832 0.07445 0.00546 0.0
C369 C 0.97182 0.0149 1.00405 0.0
C370 C 0.93226 0.01325 0.99855 0.0
C371 C 0.95419 0.0267 1.00444 0.0
C372 C 0.92819 0.98766 0.99209 0.0
C373 C 0.96762 0.98939 0.99737 0.0
C374 C 0.94584 0.97585 0.99137 0.0
C375 C 0.03902 0.05431 0.07167 0.0
C376 C 0.9942 0.02983 0.01172 0.0
C377 C 0.01916 0.93288 0.96011 0.0
C378 C 0.01876 0.92686 0.98283 0.0
C379 C 0.07035 0.01943 0.05094 0.0
C380 C 0.14288 0.06925 0.06571 0.0
C381 C 0.15733 0.0534 0.06192 0.0
C382 C 0.17482 0.05473 0.0793 0.0
C383 C 0.17734 0.07187 0.10087 0.0
C384 C 0.14613 0.08679 0.08705 0.0
C385 C 0.16308 0.0878 0.10464 0.0
C386 C 0.07956 0.03899 0.9848 0.0
C387 C 0.12518 0.06765 0.04672 0.0
H388 H 0.95752 0.04642 0.00995 0.0
H389 H 0.91143 0.97685 0.98744 0.0
H390 H 0.98107 0.98 0.99704 0.0
H391 H 0.9426 0.95615 0.9863 0.0
H392 H 0.15532 0.04055 0.04503 0.0
H393 H 0.19045 0.07309 0.11474 0.0
H394 H 0.13582 0.0999 0.09008 0.0
H395 H 0.16535 0.1012 0.12113 0.0
Tb396 Tb 0.31637 0.78335 0.26013 0.0
C397 C 0.30863 0.85691 0.34475 0.0
C398 C 0.32611 0.85093 0.3817 0.0
C399 C 0.32594 0.89198 0.37608 0.0
C400 C 0.31466 0.84142 0.35868 0.0
C401 C 0.31349 0.88236 0.3538 0.0
C402 C 0.33238 0.87629 0.38993 0.0
C403 C 0.29177 0.88697 0.31928 0.0
N404 N 0.29668 0.847 0.32317 0.0
C405 C 0.28756 0.86175 0.31089 0.0
C406 C 0.30494 0.89735 0.3407 0.0
Tb407 Tb 0.29096 0.80505 0.31169 0.0
N408 N 0.30788 0.81698 0.35042 0.0
C409 C 0.31003 0.80117 0.36555 0.0
C410 C 0.33005 0.83469 0.39623 0.0
C411 C 0.32159 0.80973 0.38828 0.0
H412 H 0.27684 0.85479 0.29461 0.0
H413 H 0.32394 0.79703 0.39967 0.0
H414 H 0.3414 0.88391 0.40742 0.0
H415 H 0.28465 0.89839 0.30926 0.0
H416 H 0.3039 0.78175 0.3599 0.0
H417 H 0.26022 0.69984 0.21485 0.0
H418 H 0.33886 0.84129 0.41394 0.0
H419 H 0.37215 0.79757 0.26756 0.0
H420 H 0.27053 0.74294 0.23446 0.0
H421 H 0.40218 0.77569 0.26574 0.0
H422 H 0.33008 0.91148 0.38309 0.0
H423 H 0.28806 0.67465 0.2129 0.0
H424 H 0.32713 0.67143 0.22276 0.0
H425 H 0.30766 0.91681 0.34741 0.0
H426 H 0.36559 0.69184 0.23795 0.0
N427 N 0.30404 0.74246 0.24488 0.0
C428 C 0.28295 0.73232 0.23433 0.0
C429 C 0.29266 0.69349 0.22224 0.0
C430 C 0.3143 0.70397 0.23259 0.0
C431 C 0.27695 0.70773 0.22306 0.0
C432 C 0.31963 0.7289 0.24367 0.0
H433 H 0.39374 0.7307 0.25402 0.0
N434 N 0.34622 0.76518 0.2593 0.0
C435 C 0.38516 0.76557 0.26189 0.0
C436 C 0.3414 0.74056 0.25147 0.0
C437 C 0.36793 0.77791 0.26302 0.0
C438 C 0.38032 0.74017 0.25534 0.0
C439 C 0.3583 0.72742 0.24925 0.0
O440 O 0.32708 0.80953 0.23896 0.0
O441 O 0.31042 0.81494 0.28416 0.0
O442 O 0.27664 0.81562 0.27961 0.0
O443 O 0.28168 0.78501 0.24963 0.0
O444 O 0.34204 0.81627 0.27455 0.0
O445 O 0.31295 0.77241 0.22258 0.0
O446 O 0.25743 0.78804 0.30145 0.0
O447 O 0.29221 0.77389 0.2843 0.0
O448 O 0.33556 0.77619 0.29097 0.0
O449 O 0.3252 0.80129 0.32353 0.0
O450 O 0.2908 0.76904 0.31921 0.0
O451 O 0.26733 0.80999 0.33621 0.0
C452 C 0.32987 0.82782 0.28745 0.0
C453 C 0.34154 0.79397 0.20403 0.0
C454 C 0.36366 0.81413 0.17646 0.0
C455 C 0.34606 0.81254 0.19091 0.0
C456 C 0.37695 0.79692 0.17557 0.0
C457 C 0.35466 0.77659 0.20258 0.0
C458 C 0.37241 0.77825 0.1886 0.0
C459 C 0.27085 0.80203 0.25778 0.0
C460 C 0.32322 0.79352 0.21921 0.0
C461 C 0.35285 0.70225 0.23973 0.0
C462 C 0.33094 0.69063 0.2311 0.0
C463 C 0.29188 0.75844 0.29774 0.0
C464 C 0.23776 0.77529 0.33188 0.0
C465 C 0.24779 0.76279 0.3468 0.0
C466 C 0.23558 0.74183 0.35346 0.0
C467 C 0.21288 0.7339 0.34556 0.0
C468 C 0.21514 0.76717 0.32413 0.0
C469 C 0.20273 0.74664 0.3311 0.0
C470 C 0.33861 0.78749 0.31382 0.0
C471 C 0.25113 0.79502 0.32217 0.0
H472 H 0.33539 0.82539 0.19149 0.0
H473 H 0.39067 0.79777 0.16468 0.0
H474 H 0.35118 0.76168 0.21204 0.0
H475 H 0.38255 0.76489 0.18767 0.0
H476 H 0.26512 0.76932 0.35317 0.0
H477 H 0.20306 0.7177 0.35029 0.0
H478 H 0.20719 0.77644 0.31233 0.0
H479 H 0.18529 0.74034 0.32495 0.0
Tb480 Tb 0.59091 0.05175 0.52428 0.0
C481 C 0.51127 1.00177 0.56876 0.0
C482 C 0.49343 0.96579 0.53948 0.0
C483 C 0.49133 0.9658 0.58187 0.0
C484 C 0.50663 0.98974 0.54528 0.0
C485 C 0.50346 0.99014 0.58738 0.0
C486 C 0.48624 0.95366 0.55791 0.0
C487 C 0.51855 0.02813 0.61517 0.0
N488 N 0.52266 0.02535 0.57322 0.0
C489 C 0.52571 0.03893 0.59602 0.0
C490 C 0.50757 1.00355 0.61087 0.0
Tb491 Tb 0.53491 0.04107 0.54088 0.0
N492 N 0.5138 1.00217 0.52806 0.0
C493 C 0.50709 0.99208 0.50448 0.0
C494 C 0.4872 0.95512 0.51536 0.0
C495 C 0.49396 0.96838 0.49779 0.0
H496 H 0.53432 0.05788 0.59957 0.0
H497 H 0.48899 0.9604 0.47907 0.0
H498 H 0.47633 0.93513 0.55382 0.0
H499 H 0.5215 0.03878 0.63322 0.0
H500 H 0.51202 1.00196 0.49057 0.0
H501 H 0.63601 0.13394 0.58466 0.0
H502 H 0.47664 0.937 0.51017 0.0
H503 H 0.59094 0.03398 0.46545 0.0
H504 H 0.61349 0.0921 0.57396 0.0
H505 H 0.60332 0.05243 0.43137 0.0
H506 H 0.48532 0.95645 0.59592 0.0
H507 H 0.64817 0.15657 0.55294 0.0
H508 H 0.64861 0.15729 0.50905 0.0
H509 H 0.50191 0.99527 0.62572 0.0
H510 H 0.6396 0.13513 0.46724 0.0
N511 N 0.61198 0.09081 0.53631 0.0
C512 C 0.61845 0.10157 0.55979 0.0
C513 C 0.63795 0.13824 0.54809 0.0
C514 C 0.63194 0.12693 0.5241 0.0
C515 C 0.63127 0.12544 0.56602 0.0
C516 C 0.61905 0.10283 0.51877 0.0
H517 H 0.62291 0.09589 0.43809 0.0
N518 N 0.60292 0.06678 0.49144 0.0
C519 C 0.6065 0.06334 0.44932 0.0
C520 C 0.61432 0.09036 0.49544 0.0
C521 C 0.59958 0.05291 0.46876 0.0
C522 C 0.61749 0.08788 0.45316 0.0
C523 C 0.62184 0.10164 0.4765 0.0
O524 O 0.61095 0.02767 0.51125 0.0
O525 O 0.56139 0.0246 0.52766 0.0
O526 O 0.55531 0.02743 0.56556 0.0
O527 O 0.58931 0.05259 0.56274 0.0
O528 O 0.57841 0.01647 0.49934 0.0
O529 O 0.61841 0.04957 0.54667 0.0
O530 O 0.51386 0.06372 0.55468 0.0
O531 O 0.56441 0.068 0.5377 0.0
O532 O 0.57092 0.06618 0.50021 0.0
O533 O 0.53673 0.04103 0.50244 0.0
O534 O 0.54712 0.07667 0.56555 0.0
O535 O 0.50835 0.04471 0.51808 0.0
C536 C 0.56167 1.00787 0.50981 0.0
C537 C 0.64855 0.03858 0.52725 0.0
C538 C 0.68439 0.02672 0.52923 0.0
C539 C 0.66148 0.02202 0.53211 0.0
C540 C 0.69388 0.04809 0.52113 0.0
C541 C 0.65858 0.05967 0.51927 0.0
C542 C 0.68107 0.06435 0.51621 0.0
C543 C 0.57602 0.03805 0.574 0.0
C544 C 0.6247 0.03381 0.5306 0.0
C545 C 0.63381 0.12605 0.48154 0.0
C546 C 0.63892 0.13866 0.50533 0.0
C547 C 0.56399 0.08508 0.55513 0.0
C548 C 0.47689 0.0534 0.53625 0.0
C549 C 0.46411 0.07039 0.53222 0.0
C550 C 0.44082 0.06441 0.53229 0.0
C551 C 0.43069 0.04144 0.53681 0.0
C552 C 0.46627 0.03076 0.54092 0.0
C553 C 0.44334 0.02487 0.54122 0.0
C554 C 0.55024 0.05588 0.49161 0.0
C555 C 0.50109 0.05901 0.53468 0.0
H556 H 0.65381 1.00575 0.53841 0.0
H557 H 0.71124 0.05212 0.51825 0.0
H558 H 0.64904 0.07253 0.51538 0.0
H559 H 0.68863 0.08065 0.50994 0.0
H560 H 0.47217 0.08792 0.52853 0.0
H561 H 0.41291 0.03638 0.53717 0.0
H562 H 0.47565 0.01755 0.54415 0.0
H563 H 0.43531 1.0073 0.54478 0.0
Tb564 Tb 0.28362 0.30243 0.76966 0.0
C565 C 0.3543 0.26176 0.81527 0.0
C566 C 0.36822 0.29241 0.85091 0.0
C567 C 0.3684 0.24991 0.85098 0.0
C568 C 0.35817 0.28562 0.82714 0.0
C569 C 0.36007 0.24369 0.82671 0.0
C570 C 0.37252 0.27429 0.86308 0.0
C571 C 0.35218 0.21582 0.7885 0.0
N572 N 0.34692 0.2568 0.79173 0.0
C573 C 0.34687 0.23447 0.77796 0.0
C574 C 0.35839 0.22031 0.8131 0.0
Tb575 Tb 0.33719 0.288 0.77613 0.0
N576 N 0.35416 0.30251 0.81453 0.0
C577 C 0.36179 0.32686 0.82411 0.0
C578 C 0.37477 0.31723 0.86123 0.0
C579 C 0.37188 0.33454 0.84762 0.0
H580 H 0.34181 0.23074 0.75897 0.0
H581 H 0.37737 0.35383 0.85524 0.0
H582 H 0.37987 0.27909 0.88149 0.0
H583 H 0.35139 0.19799 0.77766 0.0
H584 H 0.35968 0.34066 0.81412 0.0
H585 H 0.24258 0.24024 0.68878 0.0
H586 H 0.38291 0.32323 0.87927 0.0
H587 H 0.2782 0.35895 0.78983 0.0
H588 H 0.26068 0.25148 0.72979 0.0
H589 H 0.2691 0.39311 0.77322 0.0
H590 H 0.37264 0.23624 0.86023 0.0
H591 H 0.23698 0.27234 0.66671 0.0
H592 H 0.24052 0.31696 0.66658 0.0
H593 H 0.36264 0.20589 0.8212 0.0
H594 H 0.24806 0.3591 0.68972 0.0
N595 N 0.26669 0.28994 0.73108 0.0
C596 C 0.25868 0.26588 0.72057 0.0
C597 C 0.24548 0.27746 0.68461 0.0
C598 C 0.25238 0.30197 0.69589 0.0
C599 C 0.24836 0.25932 0.69713 0.0
C600 C 0.2627 0.30761 0.71953 0.0
H601 H 0.25821 0.38764 0.72981 0.0
N602 N 0.27385 0.3347 0.75597 0.0
C603 C 0.26846 0.37578 0.76149 0.0
C604 C 0.26661 0.33102 0.73248 0.0
C605 C 0.27354 0.35633 0.77085 0.0
C606 C 0.26246 0.37267 0.73698 0.0
C607 C 0.2608 0.34984 0.72225 0.0
O608 O 0.26315 0.31323 0.79609 0.0
O609 O 0.30971 0.29755 0.79417 0.0
O610 O 0.31306 0.25591 0.78434 0.0
O611 O 0.2795 0.26199 0.76878 0.0
O612 O 0.29575 0.32679 0.80396 0.0
O613 O 0.25263 0.27933 0.77154 0.0
O614 O 0.35814 0.27515 0.75125 0.0
O615 O 0.31102 0.29245 0.75125 0.0
O616 O 0.30748 0.33573 0.76363 0.0
O617 O 0.34176 0.32809 0.77496 0.0
O618 O 0.32499 0.2629 0.7424 0.0
O619 O 0.36779 0.31098 0.77277 0.0
C620 C 0.31002 0.31554 0.81093 0.0
C621 C 0.2244 0.29874 0.78601 0.0
C622 C 0.18784 0.29971 0.8005 0.0
C623 C 0.20927 0.29486 0.8034 0.0
C624 C 0.18192 0.30808 0.77981 0.0
C625 C 0.21774 0.30703 0.76567 0.0
C626 C 0.19669 0.31164 0.76263 0.0
C627 C 0.29143 0.24769 0.77716 0.0
C628 C 0.24706 0.29421 0.78893 0.0
C629 C 0.25235 0.34484 0.69805 0.0
C630 C 0.24806 0.32086 0.68488 0.0
C631 C 0.31076 0.27395 0.73495 0.0
C632 C 0.39675 0.29142 0.76132 0.0
C633 C 0.41227 0.29466 0.7442 0.0
C634 C 0.4341 0.29134 0.74864 0.0
C635 C 0.43998 0.28516 0.77058 0.0
C636 C 0.40338 0.28524 0.78287 0.0
C637 C 0.42479 0.28215 0.78743 0.0
C638 C 0.32942 0.3431 0.76883 0.0
C639 C 0.37384 0.29479 0.757 0.0
H640 H 0.21426 0.28846 0.8192 0.0
H641 H 0.16562 0.31161 0.7767 0.0
H642 H 0.22878 0.30983 0.75202 0.0
H643 H 0.19177 0.31797 0.74679 0.0
H644 H 0.4073 0.29944 0.72748 0.0
H645 H 0.45656 0.28295 0.77494 0.0
H646 H 0.39205 0.28299 0.79632 0.0
H647 H 0.42969 0.2775 0.80423 0.0
Tb648 Tb 0.05224 0.07031 0.54291 0.0
C649 C 0.08657 1.00358 0.46634 0.0
C650 C 0.05914 0.9957 0.43234 0.0
C651 C 0.09733 0.9949 0.42596 0.0
C652 C 0.06515 1.00175 0.45729 0.0
C653 C 0.10291 0.99979 0.45084 0.0
C654 C 0.07545 0.99285 0.41671 0.0
C655 C 0.12858 1.00422 0.48562 0.0
N656 N 0.0912 1.00829 0.49048 0.0
C657 C 0.11179 1.00776 0.50024 0.0
C658 C 0.12422 1.00052 0.46081 0.0
Tb659 Tb 0.06291 0.0159 0.51303 0.0
N660 N 0.04996 1.00452 0.47302 0.0
C661 C 0.02796 0.99931 0.46481 0.0
C662 C 0.03685 0.99196 0.4239 0.0
C663 C 0.02114 0.99333 0.44024 0.0
H664 H 0.1157 0.01058 0.5193 0.0
H665 H 1.00377 0.98997 0.43395 0.0
H666 H 0.07121 0.98847 0.3975 0.0
H667 H 0.14491 1.0044 0.49352 0.0
H668 H 0.01547 1.00036 0.47701 0.0
H669 H 0.114 0.09897 0.61971 0.0
H670 H 0.03154 0.98736 0.40488 0.0
H671 H 0.99875 0.07227 0.53876 0.0
H672 H 0.10084 0.08794 0.57705 0.0
H673 H 0.97008 0.07712 0.5659 0.0
H674 H 0.10968 0.99215 0.41375 0.0
H675 H 0.08727 0.10043 0.65005 0.0
H676 H 0.04778 0.09747 0.65916 0.0
H677 H 0.13725 0.99776 0.44954 0.0
H678 H 0.00855 0.09181 0.64449 0.0
N679 N 0.06655 0.08238 0.58247 0.0
C680 C 0.08877 0.08856 0.58977 0.0
C681 C 0.08131 0.09558 0.6312 0.0
C682 C 0.05871 0.09081 0.62368 0.0
C683 C 0.09643 0.09486 0.61413 0.0
C684 C 0.05185 0.08447 0.59891 0.0
H685 H 0.97947 0.08455 0.60972 0.0
N686 N 0.02451 0.07657 0.56676 0.0
C687 C 0.98689 0.07838 0.57315 0.0
C688 C 0.03001 0.08155 0.59076 0.0
C689 C 1.00332 0.07574 0.55779 0.0
C690 C 0.99222 0.08251 0.59786 0.0
C691 C 0.01408 0.08448 0.60698 0.0
O692 O 0.04112 0.09997 0.53323 0.0
O693 O 0.05176 0.04858 0.50656 0.0
O694 O 0.08805 0.04432 0.50327 0.0
O695 O 0.08738 0.07433 0.5361 0.0
O696 O 0.02635 0.06478 0.51266 0.0
O697 O 0.0755 0.10331 0.54486 0.0
O698 O 0.07134 0.98816 0.52896 0.0
O699 O 0.0632 0.03777 0.54943 0.0
O700 O 0.02789 0.04089 0.5527 0.0
O701 O 0.02768 0.01229 0.51869 0.0
O702 O 0.08905 0.02236 0.54327 0.0
O703 O 0.04117 0.98115 0.50577 0.0
C704 C 0.03401 0.05198 0.4957 0.0
C705 C 0.06288 0.13984 0.54785 0.0
C706 C 0.07246 0.18212 0.54268 0.0
C707 C 0.07029 0.15708 0.53385 0.0
C708 C 0.06698 0.1897 0.56596 0.0
C709 C 0.05764 0.14751 0.57109 0.0
C710 C 0.05971 0.17245 0.58008 0.0
C711 C 0.09716 0.0653 0.51768 0.0
C712 C 0.06084 0.11411 0.53716 0.0
C713 C 0.02056 0.0897 0.63171 0.0
C714 C 0.04288 0.09287 0.64006 0.0
C715 C 0.08125 0.03504 0.56024 0.0
C716 C 0.05604 0.94722 0.51117 0.0
C717 C 0.05245 0.93136 0.52729 0.0
C718 C 0.05535 0.90736 0.5213 0.0
C719 C 0.06151 0.89926 0.49844 0.0
C720 C 0.06238 0.93911 0.48853 0.0
C721 C 0.06499 0.91509 0.48219 0.0
C722 C 0.01826 0.02051 0.53765 0.0
C723 C 0.05356 0.9722 0.51931 0.0
H724 H 0.07398 0.15087 0.51574 0.0
H725 H 0.06848 0.2089 0.57326 0.0
H726 H 0.05193 0.13433 0.58212 0.0
H727 H 0.05562 0.17843 0.59802 0.0
H728 H 0.04727 0.93782 0.54464 0.0
H729 H 0.06398 0.88088 0.49328 0.0
H730 H 0.06534 0.95126 0.47594 0.0
H731 H 0.06989 0.90877 0.46471 0.0
Tb732 Tb 0.33495 0.81474 0.76896 0.0
C733 C 0.27957 0.74139 0.81001 0.0
C734 C 0.292 0.70526 0.79269 0.0
C735 C 0.27852 0.70854 0.83201 0.0
C736 C 0.28848 0.72866 0.79159 0.0
C737 C 0.27382 0.73119 0.8301 0.0
C738 C 0.28764 0.6956 0.81334 0.0
C739 C 0.25676 0.76497 0.84331 0.0
N740 N 0.27511 0.76311 0.80736 0.0
C741 C 0.2627 0.77428 0.82297 0.0
C742 C 0.2627 0.74356 0.84713 0.0
Tb743 Tb 0.28577 0.77684 0.7735 0.0
N744 N 0.29204 0.73842 0.77179 0.0
C745 C 0.29762 0.72489 0.75171 0.0
C746 C 0.29888 0.69187 0.77264 0.0
C747 C 0.30125 0.70153 0.7519 0.0
H748 H 0.25798 0.79079 0.82013 0.0
H749 H 0.3061 0.69112 0.73611 0.0
H750 H 0.29051 0.67779 0.81467 0.0
H751 H 0.2476 0.7743 0.85602 0.0
H752 H 0.29963 0.73218 0.73562 0.0
H753 H 0.38265 0.87954 0.84518 0.0
H754 H 0.30172 0.67381 0.77274 0.0
H755 H 0.31021 0.82378 0.71893 0.0
H756 H 0.36983 0.83902 0.81859 0.0
H757 H 0.30014 0.85827 0.70386 0.0
H758 H 0.27449 0.7005 0.84746 0.0
H759 H 0.36909 0.91499 0.83602 0.0
H760 H 0.34735 0.93237 0.8076 0.0
H761 H 0.25799 0.73634 0.86285 0.0
H762 H 0.32533 0.92671 0.76887 0.0
N763 N 0.34849 0.85127 0.79512 0.0
C764 C 0.36395 0.85447 0.81436 0.0
C765 C 0.36341 0.89728 0.8243 0.0
C766 C 0.34918 0.89436 0.8035 0.0
C767 C 0.37116 0.87733 0.8295 0.0
C768 C 0.3422 0.87091 0.7889 0.0
H769 H 0.30843 0.8994 0.72973 0.0
N770 N 0.32422 0.84505 0.75307 0.0
C771 C 0.30839 0.86116 0.72172 0.0
C772 C 0.32984 0.86773 0.76709 0.0
C773 C 0.31406 0.8416 0.73038 0.0
C774 C 0.31309 0.88435 0.73638 0.0
C775 C 0.32408 0.88792 0.75931 0.0
O776 O 0.35285 0.82304 0.74021 0.0
O777 O 0.32082 0.77562 0.76799 0.0
O778 O 0.30324 0.78812 0.80943 0.0
O779 O 0.32561 0.82428 0.80499 0.0
O780 O 0.34951 0.79071 0.78906 0.0
O781 O 0.36958 0.82023 0.77324 0.0
O782 O 0.25312 0.78159 0.76945 0.0
O783 O 0.29883 0.81338 0.76488 0.0
O784 O 0.32614 0.79008 0.73438 0.0
O785 O 0.28908 0.77339 0.73513 0.0
O786 O 0.27619 0.8113 0.78912 0.0
O787 O 0.26127 0.74869 0.75198 0.0
C788 C 0.33596 0.76984 0.78134 0.0
C789 C 0.38539 0.80741 0.73784 0.0
C790 C 0.41716 0.78837 0.73785 0.0
C791 C 0.40323 0.80166 0.75016 0.0
C792 C 0.41298 0.78064 0.71291 0.0
C793 C 0.38165 0.79979 0.71282 0.0
C794 C 0.39529 0.78633 0.70051 0.0
C795 C 0.31551 0.80994 0.81847 0.0
C796 C 0.37161 0.82236 0.75114 0.0
C797 C 0.32991 0.91106 0.77439 0.0
C798 C 0.34241 0.91427 0.79646 0.0
C799 C 0.28724 0.82663 0.77779 0.0
C800 C 0.22528 0.74596 0.76461 0.0
C801 C 0.20522 0.75265 0.76002 0.0
C802 C 0.18561 0.74056 0.76773 0.0
C803 C 0.18638 0.72182 0.78051 0.0
C804 C 0.2257 0.72683 0.77691 0.0
C805 C 0.20634 0.71498 0.78498 0.0
C806 C 0.30685 0.77729 0.72367 0.0
C807 C 0.24545 0.75983 0.75694 0.0
H808 H 0.40676 0.80823 0.76934 0.0
H809 H 0.42349 0.77039 0.70301 0.0
H810 H 0.36829 0.80431 0.70272 0.0
H811 H 0.3923 0.78053 0.68125 0.0
H812 H 0.20491 0.76746 0.75055 0.0
H813 H 0.17148 0.71208 0.78651 0.0
H814 H 0.24086 0.72102 0.78029 0.0
H815 H 0.20678 0.70033 0.79456 0.0
Tb816 Tb 0.56008 0.02551 0.03137 0.0
C817 C 0.50206 0.07037 0.96907 0.0
C818 C 0.47466 0.03528 0.94769 0.0
C819 C 0.46549 0.07506 0.95576 0.0
C820 C 0.49612 0.04565 0.95953 0.0
C821 C 0.48698 0.08545 0.96685 0.0
C822 C 0.45938 0.05005 0.94611 0.0
C823 C 0.51618 0.12041 0.98423 0.0
N824 N 0.52303 0.07991 0.97938 0.0
C825 C 0.53055 0.10479 0.98567 0.0
C826 C 0.49416 0.11066 0.97511 0.0
Tb827 Tb 0.54547 0.05293 0.98186 0.0
N828 N 0.5114 0.0319 0.9614 0.0
C829 C 0.50602 1.00758 0.95068 0.0
C830 C 0.46921 0.01045 0.93746 0.0
C831 C 0.48498 0.9966 0.93889 0.0
H832 H 0.54765 0.11251 0.99235 0.0
H833 H 0.48093 0.97731 0.931 0.0
H834 H 0.44287 0.04236 0.93711 0.0
H835 H 0.52214 0.13996 0.99 0.0
H836 H 0.51714 0.99573 0.95165 0.0
H837 H 0.62447 0.09372 0.0887 0.0
H838 H 0.45295 1.00184 0.92822 0.0
H839 H 0.55509 0.9659 0.01473 0.0
H840 H 0.58799 0.07789 0.06596 0.0
H841 H 0.57907 0.93633 0.01417 0.0
H842 H 0.45366 0.08631 0.95403 0.0
H843 H 0.65167 0.06772 0.08788 0.0
H844 H 0.66168 0.02785 0.07189 0.0
H845 H 0.48306 0.1228 0.97378 0.0
H846 H 0.64969 0.98519 0.05037 0.0
N847 N 0.5945 0.0433 0.05104 0.0
C848 C 0.5997 0.06633 0.06485 0.0
C849 C 0.6359 0.06087 0.0771 0.0
C850 C 0.63054 0.03731 0.0631 0.0
C851 C 0.62048 0.07549 0.07785 0.0
C852 C 0.60936 0.02887 0.05034 0.0
H853 H 0.61872 0.9507 0.02909 0.0
N854 N 0.58115 0.99683 0.02911 0.0
C855 C 0.58595 0.95557 0.0208 0.0
C856 C 0.60255 1.00484 0.0386 0.0
C857 C 0.5724 0.97234 0.02127 0.0
C858 C 0.60834 0.96378 0.02921 0.0
C859 C 0.61677 0.98858 0.03888 0.0
O860 O 0.54218 0.99908 0.04848 0.0
O861 O 0.5342 0.0319 0.00811 0.0
O862 O 0.53728 0.07504 0.01419 0.0
O863 O 0.55188 0.06052 0.04623 0.0
O864 O 0.53013 0.99784 0.01545 0.0
O865 O 0.55659 0.03574 0.06791 0.0
O866 O 0.56943 0.04763 0.95799 0.0
O867 O 0.57084 0.04939 0.00722 0.0
O868 O 0.57452 0.01049 0.99993 0.0
O869 O 0.55083 0.01577 0.96904 0.0
O870 O 0.57306 0.08311 0.99958 0.0
O871 O 0.5485 0.07216 0.95354 0.0
C872 C 0.52074 0.01167 1.00485 0.0
C873 C 0.55345 1.004 0.08962 0.0
C874 C 0.54711 0.99411 0.12861 0.0
C875 C 0.53995 1.00196 0.1082 0.0
C876 C 0.56779 0.98799 0.13029 0.0
C877 C 0.57399 0.99753 0.09131 0.0
C878 C 0.58109 0.98948 0.11152 0.0
C879 C 0.54221 0.07609 0.03732 0.0
C880 C 0.54602 0.01382 0.06928 0.0
C881 C 0.63844 0.99732 0.05011 0.0
C882 C 0.64525 0.02161 0.06239 0.0
C883 C 0.58301 0.07055 0.01138 0.0
C884 C 0.586 0.08409 0.94647 0.0
C885 C 0.60361 0.07735 0.93492 0.0
C886 C 0.62308 0.09478 0.93427 0.0
C887 C 0.62495 0.11916 0.94564 0.0
C888 C 0.58801 0.10861 0.95763 0.0
C889 C 0.60748 0.12597 0.95737 0.0
C890 C 0.56549 1.00459 0.97753 0.0
C891 C 0.56618 0.06502 0.94739 0.0
H892 H 0.52416 1.00722 0.10715 0.0
H893 H 0.57361 0.98215 0.14609 0.0
H894 H 0.58464 0.99888 0.0773 0.0
H895 H 0.59704 0.9847 0.11275 0.0
H896 H 0.60192 0.05853 0.92591 0.0
H897 H 0.63983 0.13289 0.94531 0.0
H898 H 0.57468 0.11443 0.96663 0.0
H899 H 0.60895 0.14478 0.9661 0.0
Tb900 Tb 0.31434 0.30592 0.28313 0.0
C901 C 0.24535 0.24425 0.2099 0.0
C902 C 0.21136 0.24099 0.22881 0.0
C903 C 0.21078 0.24246 0.18652 0.0
C904 C 0.23456 0.24393 0.23032 0.0
C905 C 0.23345 0.24256 0.18758 0.0
C906 C 0.1997 0.24151 0.20711 0.0
C907 C 0.2659 0.23589 0.16857 0.0
N908 N 0.26703 0.24327 0.21153 0.0
C909 C 0.2768 0.23704 0.19104 0.0
C910 C 0.24431 0.23933 0.16687 0.0
Tb911 Tb 0.28382 0.24817 0.2498 0.0
N912 N 0.2463 0.24282 0.25079 0.0
C913 C 0.23543 0.23549 0.26926 0.0
C914 C 0.20039 0.23546 0.24846 0.0
C915 C 0.21244 0.23205 0.26852 0.0
H916 H 0.29332 0.23386 0.19194 0.0
H917 H 0.20406 0.22626 0.28325 0.0
H918 H 0.18193 0.23979 0.20576 0.0
H919 H 0.27411 0.23214 0.15256 0.0
H920 H 0.24422 0.23198 0.28462 0.0
H921 H 0.31988 0.39031 0.25067 0.0
H922 H 0.18252 0.23215 0.24763 0.0
H923 H 0.35354 0.28022 0.30322 0.0
H924 H 0.30086 0.35358 0.26419 0.0
H925 H 0.39402 0.28962 0.30957 0.0
H926 H 0.20141 0.24156 0.16962 0.0
H927 H 0.36047 0.39895 0.24959 0.0
H928 H 0.3966 0.38777 0.25897 0.0
H929 H 0.23577 0.23802 0.1494 0.0
H930 H 0.4168 0.36094 0.27597 0.0
N931 N 0.33009 0.3402 0.26909 0.0
C932 C 0.31852 0.35678 0.26349 0.0
C933 C 0.35215 0.38252 0.2552 0.0
C934 C 0.36414 0.36658 0.26276 0.0
C935 C 0.32926 0.37774 0.25584 0.0
C936 C 0.3525 0.34537 0.26977 0.0
H937 H 0.41588 0.3257 0.29686 0.0
N938 N 0.35197 0.31023 0.28605 0.0
C939 C 0.38573 0.30105 0.30075 0.0
C940 C 0.36382 0.33002 0.27881 0.0
C941 C 0.36263 0.29583 0.29711 0.0
C942 C 0.39802 0.32123 0.29327 0.0
C943 C 0.38716 0.33579 0.2818 0.0
O944 O 0.33133 0.32237 0.31721 0.0
O945 O 0.28246 0.28027 0.27481 0.0
O946 O 0.2871 0.27544 0.22593 0.0
O947 O 0.31438 0.30959 0.24543 0.0
O948 O 0.283 0.31566 0.27379 0.0
O949 O 0.29821 0.32518 0.30894 0.0
O950 O 0.29999 0.22106 0.25755 0.0
O951 O 0.31601 0.27035 0.26437 0.0
O952 O 0.31521 0.27679 0.30372 0.0
O953 O 0.28224 0.24954 0.28884 0.0
O954 O 0.31321 0.24861 0.23071 0.0
O955 O 0.26712 0.21119 0.24001 0.0
C956 C 0.27005 0.29445 0.2715 0.0
C957 C 0.3228 0.36041 0.3314 0.0
C958 C 0.31744 0.40111 0.32845 0.0
C959 C 0.30984 0.37556 0.32367 0.0
C960 C 0.33795 0.41144 0.3421 0.0
C961 C 0.34311 0.37114 0.34517 0.0
C962 C 0.35056 0.39652 0.35057 0.0
C963 C 0.30098 0.2968 0.22637 0.0
C964 C 0.31591 0.33355 0.32373 0.0
C965 C 0.39887 0.35639 0.27408 0.0
C966 C 0.38737 0.37166 0.2644 0.0
C967 C 0.32656 0.26461 0.24668 0.0
C968 C 0.29167 0.18606 0.22713 0.0
C969 C 0.30942 0.17602 0.23323 0.0
C970 C 0.31815 0.16104 0.21576 0.0
C971 C 0.30852 0.15579 0.19195 0.0
C972 C 0.28202 0.18038 0.2033 0.0
C973 C 0.29048 0.16535 0.18584 0.0
C974 C 0.29868 0.25886 0.30621 0.0
C975 C 0.28446 0.20336 0.24574 0.0
H976 H 0.29388 0.36743 0.31357 0.0
H977 H 0.3445 0.43101 0.34587 0.0
H978 H 0.35341 0.35989 0.35139 0.0
H979 H 0.36636 0.40465 0.36097 0.0
H980 H 0.31638 0.1799 0.25177 0.0
H981 H 0.31496 0.14441 0.17806 0.0
H982 H 0.26811 0.18767 0.19808 0.0
H983 H 0.2831 0.1612 0.16748 0.0
Tb984 Tb 0.55124 0.57172 0.03889 0.0
C985 C 0.57192 0.51305 0.95917 0.0
C986 C 0.53676 0.50354 0.93494 0.0
C987 C 0.57088 0.51026 0.91601 0.0
C988 C 0.54917 0.50828 0.95754 0.0
C989 C 0.58303 0.51311 0.93829 0.0
C990 C 0.54774 0.50541 0.91433 0.0
C991 C 0.61668 0.51418 0.96218 0.0
N992 N 0.58297 0.51505 0.9809 0.0
C993 C 0.60481 0.51355 0.98219 0.0
C994 C 0.60585 0.51461 0.94021 0.0
Tb995 Tb 0.56224 0.51714 0.01341 0.0
N996 N 0.53917 0.50668 0.97791 0.0
C997 C 0.51676 0.4976 0.97622 0.0
C998 C 0.51373 0.49649 0.93365 0.0
C999 C 0.50373 0.49302 0.95433 0.0
H1000 H 0.61328 0.5126 0.99896 0.0
H1001 H 0.48598 0.48643 0.9534 0.0
H1002 H 0.53849 0.50235 0.89693 0.0
H1003 H 0.63412 0.5141 0.9637 0.0
H1004 H 0.50851 0.49317 0.9913 0.0
H1005 H 0.61768 0.65357 0.0639 0.0
H1006 H 0.50361 0.49272 0.9167 0.0
H1007 H 0.52008 0.54199 0.07556 0.0
H1008 H 0.58651 0.62524 0.03794 0.0
H1009 H 0.52308 0.53682 0.11694 0.0
H1010 H 0.57915 0.51069 0.89986 0.0
H1011 H 0.62665 0.64772 0.10495 0.0
H1012 H 0.61606 0.62541 0.13805 0.0
H1013 H 0.61499 0.51475 0.92463 0.0
H1014 H 0.58969 0.5942 0.15278 0.0
N1015 N 0.57915 0.60152 0.06283 0.0
C1016 C 0.59066 0.62184 0.05552 0.0
C1017 C 0.61322 0.63485 0.09339 0.0
C1018 C 0.59996 0.61577 0.10178 0.0
C1019 C 0.60821 0.63821 0.07029 0.0
C1020 C 0.58273 0.59941 0.08593 0.0
H1021 H 0.55499 0.56114 0.1451 0.0
N1022 N 0.55116 0.5674 0.07847 0.0
C1023 C 0.53603 0.54941 0.11073 0.0
C1024 C 0.56797 0.58201 0.09417 0.0
C1025 C 0.53464 0.5521 0.08684 0.0
C1026 C 0.55398 0.56322 0.12659 0.0
C1027 C 0.56999 0.58018 0.11854 0.0
O1028 O 0.51879 0.57713 0.04162 0.0
O1029 O 0.54411 0.54478 1.00475 0.0
O1030 O 0.59328 0.5443 0.01529 0.0
O1031 O 0.58304 0.58119 0.02418 0.0
O1032 O 0.55473 0.58039 1.00283 0.0
O1033 O 0.54567 0.60733 0.04292 0.0
O1034 O 0.57161 0.48379 1.0019 0.0
O1035 O 0.56291 0.54025 0.0491 0.0
O1036 O 0.51954 0.54483 0.03355 0.0
O1037 O 0.53063 0.50822 0.02828 0.0
O1038 O 0.59006 0.52668 0.04209 0.0
O1039 O 0.55024 0.48705 0.02944 0.0
C1040 C 0.54728 0.55916 0.98934 0.0
C1041 C 0.51238 0.60745 0.02048 0.0
C1042 C 0.512 0.6303 0.98798 0.0
C1043 C 0.5235 0.62386 0.00702 0.0
C1044 C 0.48927 0.61989 0.98234 0.0
C1045 C 0.48962 0.59751 0.01456 0.0
C1046 C 0.47821 0.60364 0.99556 0.0
C1047 C 0.59773 0.56823 0.01808 0.0
C1048 C 0.52441 0.59991 0.04009 0.0
C1049 C 0.58774 0.59551 0.13412 0.0
C1050 C 0.60277 0.61324 0.12572 0.0
C1051 C 0.58191 0.53891 0.0593 0.0
C1052 C 0.57721 0.46474 0.03461 0.0
C1053 C 0.56781 0.44775 0.04822 0.0
C1054 C 0.58125 0.43991 0.06462 0.0
C1055 C 0.60425 0.4495 0.06731 0.0
C1056 C 0.60024 0.474 0.03759 0.0
C1057 C 0.61362 0.46643 0.05388 0.0
C1058 C 0.51543 0.52101 0.03245 0.0
C1059 C 0.5627 0.47393 0.01873 0.0
H1060 H 0.54101 0.6319 0.01149 0.0
H1061 H 0.48006 0.62423 0.9676 0.0
H1062 H 0.48067 0.5848 0.0245 0.0
H1063 H 0.46071 0.5957 0.99101 0.0
H1064 H 0.55 0.44101 0.04631 0.0
H1065 H 0.6151 0.44362 0.07949 0.0
H1066 H 0.60795 0.48729 0.02758 0.0
H1067 H 0.63133 0.4737 0.05609 0.0
Tb1068 Tb 0.83066 0.30986 0.27034 0.0
C1069 C 0.77616 0.24463 0.32721 0.0
C1070 C 0.78708 0.20618 0.3165 0.0
C1071 C 0.77415 0.21715 0.35542 0.0
C1072 C 0.78452 0.2287 0.31115 0.0
C1073 C 0.77035 0.23881 0.34933 0.0
C1074 C 0.78251 0.20084 0.33901 0.0
C1075 C 0.7556 0.275 0.35675 0.0
N1076 N 0.77261 0.26527 0.3205 0.0
C1077 C 0.76162 0.27996 0.33461 0.0
C1078 C 0.76026 0.25453 0.36431 0.0
Tb1079 Tb 0.78363 0.27208 0.2839 0.0
N1080 N 0.78819 0.23433 0.28943 0.0
C1081 C 0.79248 0.21704 0.27149 0.0
C1082 C 0.79309 0.18923 0.29868 0.0
C1083 C 0.79531 0.19448 0.2759 0.0
H1084 H 0.75762 0.29582 0.32929 0.0
H1085 H 0.79937 0.18125 0.26175 0.0
H1086 H 0.78464 0.18378 0.34356 0.0
H1087 H 0.74738 0.28703 0.36799 0.0
H1088 H 0.79425 0.22067 0.25377 0.0
H1089 H 0.81766 0.40141 0.29727 0.0
H1090 H 0.79527 0.17175 0.30206 0.0
H1091 H 0.85184 0.28497 0.2217 0.0
H1092 H 0.82125 0.36085 0.30307 0.0
H1093 H 0.86006 0.29435 0.18253 0.0
H1094 H 0.77002 0.21248 0.37244 0.0
H1095 H 0.82195 0.41278 0.25772 0.0
H1096 H 0.83097 0.40172 0.21539 0.0
H1097 H 0.75554 0.25072 0.38145 0.0
H1098 H 0.84263 0.37259 0.18416 0.0
N1099 N 0.82721 0.34853 0.26698 0.0
C1100 C 0.82333 0.36531 0.28568 0.0
C1101 C 0.82364 0.39484 0.26016 0.0
C1102 C 0.82875 0.37816 0.24143 0.0
C1103 C 0.82129 0.38852 0.28251 0.0
C1104 C 0.8307 0.35501 0.24556 0.0
H1105 H 0.85372 0.33262 0.17183 0.0
N1106 N 0.84014 0.31734 0.23349 0.0
C1107 C 0.85367 0.30704 0.1952 0.0
C1108 C 0.83749 0.33887 0.2282 0.0
C1109 C 0.84898 0.30183 0.21762 0.0
C1110 C 0.85002 0.32861 0.18919 0.0
C1111 C 0.84217 0.34505 0.20591 0.0
O1112 O 0.86376 0.30668 0.27208 0.0
O1113 O 0.81969 0.27489 0.28293 0.0
O1114 O 0.80376 0.28598 0.31784 0.0
O1115 O 0.82417 0.32075 0.30775 0.0
O1116 O 0.84172 0.27538 0.25862 0.0
O1117 O 0.85433 0.33689 0.29409 0.0
O1118 O 0.75071 0.27543 0.27839 0.0
O1119 O 0.79478 0.30712 0.27142 0.0
O1120 O 0.8092 0.29662 0.23712 0.0
O1121 O 0.79128 0.26074 0.24697 0.0
O1122 O 0.77266 0.30673 0.29542 0.0
O1123 O 0.76037 0.24299 0.2619 0.0
C1124 C 0.8316 0.26114 0.27147 0.0
C1125 C 0.8908 0.34313 0.2822 0.0
C1126 C 0.93088 0.35093 0.28193 0.0
C1127 C 0.91092 0.33651 0.28643 0.0
C1128 C 0.93049 0.37231 0.27311 0.0
C1129 C 0.89053 0.36438 0.27317 0.0
C1130 C 0.91036 0.37889 0.26865 0.0
C1131 C 0.81649 0.30806 0.32388 0.0
C1132 C 0.87062 0.32712 0.28731 0.0
C1133 C 0.83928 0.36758 0.20124 0.0
C1134 C 0.83261 0.38414 0.219 0.0
C1135 C 0.78303 0.32109 0.28283 0.0
C1136 C 0.72421 0.23889 0.27434 0.0
C1137 C 0.70367 0.24443 0.26951 0.0
C1138 C 0.68472 0.23262 0.27853 0.0
C1139 C 0.68647 0.21517 0.29259 0.0
C1140 C 0.72565 0.22094 0.28791 0.0
C1141 C 0.70686 0.20925 0.29708 0.0
C1142 C 0.79814 0.27382 0.23088 0.0
C1143 C 0.74391 0.25331 0.26632 0.0
H1144 H 0.91104 0.32022 0.29368 0.0
H1145 H 0.94569 0.3838 0.26956 0.0
H1146 H 0.87514 0.36979 0.26973 0.0
H1147 H 0.91015 0.3953 0.26175 0.0
H1148 H 0.7025 0.25831 0.25906 0.0
H1149 H 0.67202 0.20584 0.29969 0.0
H1150 H 0.7412 0.21604 0.29156 0.0
H1151 H 0.70811 0.19558 0.30769 0.0
Tb1152 Tb 0.0629 0.53293 0.53898 0.0
C1153 C 1.00067 0.57847 0.4833 0.0
C1154 C 0.97303 0.54472 0.46014 0.0
C1155 C 0.9636 0.58384 0.47365 0.0
C1156 C 0.99457 0.55441 0.47176 0.0
C1157 C 0.98544 0.59367 0.48407 0.0
C1158 C 0.95743 0.55942 0.46158 0.0
C1159 C 0.01513 0.62758 0.50307 0.0
N1160 N 0.02202 0.5873 0.49266 0.0
C1161 C 0.02968 0.6118 0.50157 0.0
C1162 C 0.99283 0.61842 0.49457 0.0
Tb1163 Tb 0.04443 0.55985 0.49037 0.0
N1164 N 0.01015 0.54089 0.4708 0.0
C1165 C 0.0055 0.51775 0.45731 0.0
C1166 C 0.96807 0.52085 0.44686 0.0
C1167 C 0.98439 0.50733 0.44537 0.0
H1168 H 0.04685 0.61902 0.50833 0.0
H1169 H 0.98077 0.4889 0.43498 0.0
H1170 H 0.94072 0.55223 0.453 0.0
H1171 H 0.02114 0.64679 0.51073 0.0
H1172 H 0.01783 0.50696 0.4559 0.0
H1173 H 0.12488 0.60381 0.59658 0.0
H1174 H 0.95187 0.51289 0.43723 0.0
H1175 H 0.06113 0.4741 0.52047 0.0
H1176 H 0.08876 0.58607 0.57353 0.0
H1177 H 0.08671 0.44628 0.5201 0.0
H1178 H 0.95156 0.59514 0.4742 0.0
H1179 H 0.15358 0.57965 0.59628 0.0
H1180 H 0.16522 0.5405 0.58122 0.0
H1181 H 0.98163 0.63071 0.49563 0.0
H1182 H 0.15514 0.49782 0.55943 0.0
N1183 N 0.09686 0.55223 0.55906 0.0
C1184 C 0.10107 0.57527 0.57275 0.0
C1185 C 0.13787 0.57191 0.58554 0.0
C1186 C 0.13343 0.54823 0.57185 0.0
C1187 C 0.12164 0.58551 0.58594 0.0
C1188 C 0.11243 0.53874 0.55886 0.0
H1189 H 0.12576 0.46239 0.53675 0.0
N1190 N 0.08564 0.50588 0.53672 0.0
C1191 C 0.09261 0.46556 0.52743 0.0
C1192 C 0.1067 0.51475 0.547 0.0
C1193 C 0.07815 0.48136 0.52781 0.0
C1194 C 0.11465 0.47473 0.53686 0.0
C1195 C 0.12183 0.4995 0.54732 0.0
O1196 O 0.04707 0.5064 0.55726 0.0
O1197 O 0.03613 0.53546 0.51466 0.0
O1198 O 0.02901 0.5727 0.5217 0.0
O1199 O 0.05332 0.56778 0.55232 0.0
O1200 O 0.03488 0.50237 0.52312 0.0
O1201 O 0.05756 0.54433 0.57482 0.0
O1202 O 0.061 0.58599 0.47212 0.0
O1203 O 0.07112 0.5573 0.51477 0.0
O1204 O 0.0785 0.52046 0.50756 0.0
O1205 O 0.05366 0.52478 0.47715 0.0
O1206 O 0.07261 0.59034 0.50621 0.0
O1207 O 0.04909 0.54825 0.45439 0.0
C1208 C 0.02437 0.51417 0.5111 0.0
C1209 C 0.05849 0.51506 0.59878 0.0
C1210 C 0.05737 0.51419 0.64119 0.0
C1211 C 0.04897 0.52013 0.62015 0.0
C1212 C 0.07577 0.50345 0.64071 0.0
C1213 C 0.07658 0.50385 0.59841 0.0
C1214 C 0.08525 0.49825 0.61934 0.0
C1215 C 0.0373 0.57741 0.54433 0.0
C1216 C 0.04942 0.52209 0.57739 0.0
C1217 C 0.14321 0.50919 0.55908 0.0
C1218 C 0.14895 0.53348 0.57149 0.0
C1219 C 0.08297 0.57853 0.51838 0.0
C1220 C 0.0506 0.57804 0.43056 0.0
C1221 C 0.06401 0.57844 0.41181 0.0
C1222 C 0.05713 0.58501 0.39051 0.0
C1223 C 0.03646 0.59112 0.3881 0.0
C1224 C 0.03009 0.58445 0.42814 0.0
C1225 C 0.02308 0.59097 0.40695 0.0
C1226 C 0.06988 0.51534 0.48499 0.0
C1227 C 0.05838 0.57026 0.45202 0.0
H1228 H 0.03504 0.52887 0.62044 0.0
H1229 H 0.08248 0.49865 0.65669 0.0
H1230 H 0.08394 0.49932 0.58208 0.0
H1231 H 0.09925 0.48969 0.61896 0.0
H1232 H 0.07971 0.5731 0.41363 0.0
H1233 H 0.03078 0.59613 0.37177 0.0
H1234 H 0.01952 0.58434 0.44244 0.0
H1235 H 0.0072 0.59581 0.40511 0.0
Tb1236 Tb 0.78089 0.79837 0.27878 0.0
C1237 C 0.8544 0.76211 0.3212 0.0
C1238 C 0.86766 0.79377 0.35623 0.0
C1239 C 0.87092 0.75221 0.35682 0.0
C1240 C 0.85715 0.78595 0.3327 0.0
C1241 C 0.86206 0.74509 0.33272 0.0
C1242 C 0.87376 0.77658 0.36857 0.0
C1243 C 0.85555 0.71702 0.29465 0.0
N1244 N 0.84664 0.75641 0.29774 0.0
C1245 C 0.8484 0.7347 0.28403 0.0
C1246 C 0.86192 0.72203 0.31924 0.0
Tb1247 Tb 0.83529 0.78639 0.28154 0.0
N1248 N 0.85147 0.80196 0.31993 0.0
C1249 C 0.85709 0.82648 0.32926 0.0
C1250 C 0.87276 0.81874 0.36613 0.0
C1251 C 0.86762 0.8352 0.3525 0.0
H1252 H 0.84345 0.7307 0.265 0.0
H1253 H 0.87181 0.85461 0.35986 0.0
H1254 H 0.88152 0.78215 0.38681 0.0
H1255 H 0.85614 0.69957 0.28386 0.0
H1256 H 0.85331 0.83946 0.31902 0.0
H1257 H 0.73637 0.72883 0.20336 0.0
H1258 H 0.88144 0.82557 0.38384 0.0
H1259 H 0.77538 0.85709 0.29014 0.0
H1260 H 0.75263 0.74392 0.24428 0.0
H1261 H 0.76995 0.88801 0.26693 0.0
H1262 H 0.87662 0.73934 0.36613 0.0
H1263 H 0.73534 0.7572 0.1757 0.0
H1264 H 0.74303 0.80012 0.16901 0.0
H1265 H 0.86769 0.70842 0.32739 0.0
H1266 H 0.7534 0.84399 0.18621 0.0
N1267 N 0.76337 0.7813 0.24064 0.0
C1268 C 0.75349 0.75699 0.23284 0.0
C1269 C 0.74331 0.76413 0.19373 0.0
C1270 C 0.75189 0.78907 0.20203 0.0
C1271 C 0.74373 0.7481 0.20934 0.0
C1272 C 0.76158 0.79725 0.22597 0.0
H1273 H 0.76291 0.87698 0.22287 0.0
N1274 N 0.77379 0.82882 0.25943 0.0
C1275 C 0.76959 0.86959 0.25778 0.0
C1276 C 0.76739 0.8219 0.23561 0.0
C1277 C 0.77277 0.85188 0.27084 0.0
C1278 C 0.76572 0.86332 0.23294 0.0
C1279 C 0.76357 0.83902 0.22164 0.0
O1280 O 0.76284 0.81769 0.30269 0.0
O1281 O 0.81154 0.80231 0.30173 0.0
O1282 O 0.81234 0.7524 0.28843 0.0
O1283 O 0.77744 0.7582 0.27688 0.0
O1284 O 0.78239 0.78878 0.31403 0.0
O1285 O 0.74781 0.78207 0.28209 0.0
O1286 O 0.85558 0.77529 0.25494 0.0
O1287 O 0.80764 0.79005 0.25801 0.0
O1288 O 0.8055 0.83503 0.28482 0.0
O1289 O 0.83893 0.82485 0.27635 0.0
O1290 O 0.8217 0.76053 0.24872 0.0
O1291 O 0.86663 0.80878 0.2798 0.0
C1292 C 0.80327 0.79487 0.31963 0.0
C1293 C 0.72318 0.80726 0.29487 0.0
C1294 C 0.6852 0.806 0.30628 0.0
C1295 C 0.70635 0.80059 0.30981 0.0
C1296 C 0.6817 0.81888 0.28804 0.0
C1297 C 0.71861 0.81922 0.27641 0.0
C1298 C 0.69816 0.82526 0.27326 0.0
C1299 C 0.79042 0.74392 0.28306 0.0
C1300 C 0.74485 0.80037 0.29781 0.0
C1301 C 0.75601 0.83107 0.19727 0.0
C1302 C 0.75006 0.80608 0.1875 0.0
C1303 C 0.80707 0.77137 0.24178 0.0
C1304 C 0.89451 0.78908 0.2651 0.0
C1305 C 0.90953 0.79244 0.24752 0.0
C1306 C 0.9311 0.78801 0.25072 0.0
C1307 C 0.93723 0.7805 0.27187 0.0
C1308 C 0.90142 0.78171 0.28589 0.0
C1309 C 0.92254 0.7774 0.28918 0.0
C1310 C 0.82669 0.84146 0.28035 0.0
C1311 C 0.87196 0.79396 0.26225 0.0
H1312 H 0.70954 0.79066 0.32365 0.0
H1313 H 0.66613 0.82411 0.28511 0.0
H1314 H 0.73068 0.8237 0.26418 0.0
H1315 H 0.69497 0.8348 0.25911 0.0
H1316 H 0.9044 0.79828 0.23144 0.0
H1317 H 0.95365 0.77741 0.27529 0.0
H1318 H 0.89061 0.77959 0.29981 0.0
H1319 H 0.92765 0.77181 0.3054 0.0
Tb1320 Tb 0.82373 0.28394 0.74687 0.0
C1321 C 0.8095 0.35212 0.83191 0.0
C1322 C 0.82482 0.34742 0.87045 0.0
C1323 C 0.82317 0.38781 0.86384 0.0
C1324 C 0.8154 0.33732 0.84668 0.0
C1325 C 0.81256 0.37749 0.84077 0.0
C1326 C 0.82936 0.3728 0.87864 0.0
C1327 C 0.7924 0.38049 0.80456 0.0
N1328 N 0.79931 0.34151 0.8096 0.0
C1329 C 0.78987 0.35539 0.79642 0.0
C1330 C 0.80402 0.39164 0.82667 0.0
Tb1331 Tb 0.79681 0.29977 0.79866 0.0
N1332 N 0.81034 0.31286 0.83842 0.0
C1333 C 0.81256 0.29737 0.85383 0.0
C1334 C 0.82857 0.33167 0.88562 0.0
C1335 C 0.82208 0.30651 0.87736 0.0
H1336 H 0.78093 0.34805 0.77914 0.0
H1337 H 0.82449 0.29411 0.88907 0.0
H1338 H 0.83686 0.3809 0.8967 0.0
H1339 H 0.78534 0.39123 0.79367 0.0
H1340 H 0.80822 0.27785 0.84762 0.0
H1341 H 0.74997 0.22644 0.69058 0.0
H1342 H 0.83581 0.33873 0.90394 0.0
H1343 H 0.86819 0.26528 0.77123 0.0
H1344 H 0.76905 0.26108 0.71981 0.0
H1345 H 0.88168 0.22872 0.76843 0.0
H1346 H 0.82599 0.40729 0.87069 0.0
H1347 H 0.76706 0.19148 0.67864 0.0
H1348 H 0.79841 0.17159 0.6842 0.0
H1349 H 0.80555 0.41101 0.83307 0.0
H1350 H 0.83277 0.17108 0.70737 0.0
N1351 N 0.79951 0.24906 0.7242 0.0
C1352 C 0.77825 0.24754 0.71456 0.0
C1353 C 0.77621 0.20738 0.6914 0.0
C1354 C 0.79698 0.20787 0.70236 0.0
C1355 C 0.76659 0.22708 0.69801 0.0
C1356 C 0.8082 0.22898 0.71913 0.0
H1357 H 0.86271 0.1914 0.73988 0.0
N1358 N 0.83793 0.24928 0.74806 0.0
C1359 C 0.86627 0.22831 0.75826 0.0
C1360 C 0.82774 0.22888 0.73184 0.0
C1361 C 0.85765 0.24921 0.7605 0.0
C1362 C 0.85567 0.2074 0.74201 0.0
C1363 C 0.83649 0.20762 0.72819 0.0
O1364 O 0.85674 0.29054 0.73925 0.0
O1365 O 0.8218 0.31271 0.7765 0.0
O1366 O 0.77822 0.30778 0.76771 0.0
O1367 O 0.7945 0.2959 0.73276 0.0
O1368 O 0.82515 0.32165 0.74348 0.0
O1369 O 0.83041 0.28686 0.71162 0.0
O1370 O 0.76415 0.28031 0.78647 0.0
O1371 O 0.80045 0.27105 0.77004 0.0
O1372 O 0.8486 0.29377 0.77925 0.0
O1373 O 0.82904 0.29436 0.81274 0.0
O1374 O 0.80038 0.26357 0.80371 0.0
O1375 O 0.77258 0.29873 0.82298 0.0
C1376 C 0.82392 0.33033 0.76561 0.0
C1377 C 0.86361 0.31698 0.71224 0.0
C1378 C 0.86393 0.35279 0.69441 0.0
C1379 C 0.85294 0.32987 0.69821 0.0
C1380 C 0.88573 0.36288 0.70487 0.0
C1381 C 0.88556 0.32724 0.72226 0.0
C1382 C 0.89645 0.35011 0.7187 0.0
C1383 C 0.77854 0.30433 0.74402 0.0
C1384 C 0.85173 0.29365 0.71777 0.0
C1385 C 0.82601 0.18726 0.71069 0.0
C1386 C 0.80648 0.18756 0.69751 0.0
C1387 C 0.80175 0.25453 0.78165 0.0
C1388 C 0.74565 0.26141 0.81507 0.0
C1389 C 0.7554 0.25196 0.83297 0.0
C1390 C 0.74389 0.23142 0.84095 0.0
C1391 C 0.72254 0.21971 0.8298 0.0
C1392 C 0.72446 0.24943 0.80408 0.0
C1393 C 0.71305 0.22856 0.81133 0.0
C1394 C 0.8475 0.29351 0.80249 0.0
C1395 C 0.75746 0.2836 0.8076 0.0
H1396 H 0.83616 0.32203 0.69005 0.0
H1397 H 0.89446 0.38062 0.70231 0.0
H1398 H 0.8942 0.31772 0.73316 0.0
H1399 H 0.91325 0.35798 0.7267 0.0
H1400 H 0.77198 0.26075 0.84075 0.0
H1401 H 0.71292 0.20407 0.8356 0.0
H1402 H 0.71675 0.25626 0.78998 0.0
H1403 H 0.69664 0.21944 0.80287 0.0
Tb1404 Tb 0.81852 0.81328 0.79504 0.0
C1405 C 0.73408 0.74086 0.76034 0.0
C1406 C 0.72374 0.70764 0.7815 0.0
C1407 C 0.69517 0.72273 0.76192 0.0
C1408 C 0.74007 0.72505 0.77385 0.0
C1409 C 0.71149 0.73987 0.7542 0.0
C1410 C 0.70127 0.70675 0.77566 0.0
C1411 C 0.72273 0.77229 0.73266 0.0
N1412 N 0.75035 0.75711 0.7531 0.0
C1413 C 0.74487 0.77245 0.73896 0.0
C1414 C 0.70596 0.75595 0.74031 0.0
Tb1415 Tb 0.78613 0.75465 0.76361 0.0
N1416 N 0.76191 0.72625 0.77892 0.0
C1417 C 0.76849 0.70919 0.79017 0.0
C1418 C 0.73047 0.69124 0.7943 0.0
C1419 C 0.75296 0.69187 0.79844 0.0
H1420 H 0.75727 0.78549 0.73283 0.0
H1421 H 0.75835 0.67894 0.80787 0.0
H1422 H 0.6885 0.69352 0.78137 0.0
H1423 H 0.71863 0.7848 0.72185 0.0
H1424 H 0.7859 0.70938 0.79321 0.0
H1425 H 0.82949 0.89581 0.75813 0.0
H1426 H 0.71843 0.67768 0.80055 0.0
H1427 H 0.85648 0.78745 0.81955 0.0
H1428 H 0.8084 0.86202 0.77465 0.0
H1429 H 0.89656 0.79342 0.82372 0.0
H1430 H 0.67776 0.72156 0.75721 0.0
H1431 H 0.86949 0.89986 0.75508 0.0
H1432 H 0.90398 0.88556 0.76398 0.0
H1433 H 0.68882 0.7558 0.73526 0.0
H1434 H 0.92229 0.85824 0.7825 0.0
N1435 N 0.83603 0.84617 0.77999 0.0
C1436 C 0.82591 0.86362 0.77367 0.0
C1437 C 0.86032 0.88485 0.76224 0.0
C1438 C 0.87098 0.86818 0.77051 0.0
C1439 C 0.83775 0.88271 0.76407 0.0
C1440 C 0.85826 0.84878 0.77943 0.0
H1441 H 0.91974 0.82523 0.80638 0.0
N1442 N 0.85588 0.81487 0.79844 0.0
C1443 C 0.88887 0.80448 0.81377 0.0
C1444 C 0.86853 0.83288 0.78924 0.0
C1445 C 0.86587 0.80121 0.81126 0.0
C1446 C 0.90189 0.82228 0.80373 0.0
C1447 C 0.89183 0.83667 0.79119 0.0
O1448 O 0.80211 0.82455 0.82497 0.0
O1449 O 0.7864 0.78927 0.78586 0.0
O1450 O 0.79278 0.77938 0.73762 0.0
O1451 O 0.8159 0.81669 0.75727 0.0
O1452 O 0.7882 0.82556 0.7868 0.0
O1453 O 0.8368 0.83806 0.8251 0.0
O1454 O 0.78397 0.74384 0.72596 0.0
O1455 O 0.81818 0.77872 0.77247 0.0
O1456 O 0.81905 0.78504 0.81663 0.0
O1457 O 0.78663 0.75601 0.80258 0.0
O1458 O 0.81705 0.74291 0.77122 0.0
O1459 O 0.78723 0.71872 0.74926 0.0
C1460 C 0.77467 0.80442 0.78352 0.0
C1461 C 0.81726 0.86432 0.84649 0.0
C1462 C 0.80433 0.90091 0.84197 0.0
C1463 C 0.80589 0.87685 0.83287 0.0
C1464 C 0.81387 0.91212 0.86533 0.0
C1465 C 0.82675 0.87573 0.8697 0.0
C1466 C 0.82495 0.89951 0.8791 0.0
C1467 C 0.80462 0.8018 0.73786 0.0
C1468 C 0.81961 0.83955 0.83653 0.0
C1469 C 0.90442 0.85533 0.78146 0.0
C1470 C 0.89399 0.8709 0.77093 0.0
C1471 C 0.83037 0.76389 0.77354 0.0
C1472 C 0.80547 0.71431 0.71426 0.0
C1473 C 0.81693 0.69831 0.72294 0.0
C1474 C 0.83328 0.68951 0.71039 0.0
C1475 C 0.83847 0.69727 0.68899 0.0
C1476 C 0.81072 0.72164 0.69271 0.0
C1477 C 0.82728 0.71333 0.6803 0.0
C1478 C 0.80276 0.76715 0.81974 0.0
C1479 C 0.7877 0.72245 0.72748 0.0
H1480 H 0.79816 0.8678 0.81518 0.0
H1481 H 0.81311 0.93073 0.87278 0.0
H1482 H 0.83559 0.86628 0.88048 0.0
H1483 H 0.83235 0.90829 0.89702 0.0
H1484 H 0.81317 0.69264 0.73964 0.0
H1485 H 0.85092 0.69069 0.67883 0.0
H1486 H 0.80193 0.73362 0.68537 0.0
H1487 H 0.83129 0.71913 0.66373 0.0
Tb1488 Tb 0.53418 0.52638 0.51022 0.0
C1489 C 0.59122 0.61668 0.57269 0.0
C1490 C 0.59661 0.64647 0.54726 0.0
C1491 C 0.59699 0.6599 0.59015 0.0
C1492 C 0.59192 0.62195 0.55017 0.0
C1493 C 0.59428 0.63559 0.59307 0.0
C1494 C 0.5983 0.66536 0.56724 0.0
C1495 C 0.59512 0.60548 0.61766 0.0
N1496 N 0.58954 0.59312 0.57471 0.0
C1497 C 0.59259 0.58749 0.59691 0.0
C1498 C 0.59562 0.6296 0.61574 0.0
Tb1499 Tb 0.58359 0.56438 0.53962 0.0
N1500 N 0.59052 0.60319 0.53142 0.0
C1501 C 0.59574 0.60806 0.50953 0.0
C1502 C 0.60084 0.65134 0.52466 0.0
C1503 C 0.60063 0.63207 0.50577 0.0
H1504 H 0.59208 0.56888 0.59869 0.0
H1505 H 0.60434 0.63567 0.48829 0.0
H1506 H 0.60149 0.68427 0.56528 0.0
H1507 H 0.59674 0.60073 0.6351 0.0
H1508 H 0.59574 0.59362 0.49457 0.0
H1509 H 0.51814 0.45165 0.55811 0.0
H1510 H 0.60533 0.66993 0.52191 0.0
H1511 H 0.52072 0.52488 0.45257 0.0
H1512 H 0.52553 0.49434 0.55389 0.0
H1513 H 0.51234 0.49468 0.41487 0.0
H1514 H 0.59912 0.67467 0.60554 0.0
H1515 H 0.51537 0.41879 0.52259 0.0
H1516 H 0.51463 0.4066 0.47805 0.0
H1517 H 0.59786 0.64357 0.63183 0.0
H1518 H 0.51316 0.41842 0.43867 0.0
N1519 N 0.52803 0.48667 0.51621 0.0
C1520 C 0.5245 0.48057 0.53806 0.0
C1521 C 0.51886 0.43769 0.52063 0.0
C1522 C 0.52089 0.44379 0.49812 0.0
C1523 C 0.52027 0.45616 0.54064 0.0
C1524 C 0.52515 0.4687 0.49649 0.0
H1525 H 0.51163 0.45122 0.41492 0.0
N1526 N 0.52564 0.49915 0.47415 0.0
C1527 C 0.51574 0.48894 0.43152 0.0
C1528 C 0.52401 0.47523 0.47455 0.0
C1529 C 0.5205 0.50604 0.45305 0.0
C1530 C 0.51548 0.46447 0.4316 0.0
C1531 C 0.51906 0.45722 0.45336 0.0
O1532 O 0.50599 0.53566 0.49515 0.0
O1533 O 0.55192 0.56458 0.52222 0.0
O1534 O 0.55773 0.57005 0.56523 0.0
O1535 O 0.53052 0.53534 0.55017 0.0
O1536 O 0.5359 0.55493 0.48871 0.0
O1537 O 0.50458 0.51957 0.52636 0.0
O1538 O 0.61209 0.56008 0.55892 0.0
O1539 O 0.5662 0.52604 0.52779 0.0
O1540 O 0.5585 0.52128 0.48277 0.0
O1541 O 0.58822 0.55307 0.49995 0.0
O1542 O 0.58202 0.53656 0.56153 0.0
O1543 O 0.61323 0.56779 0.52344 0.0
C1544 C 0.54751 0.57324 0.50377 0.0
C1545 C 0.47154 0.51193 0.5009 0.0
C1546 C 0.4322 0.50943 0.49208 0.0
C1547 C 0.45378 0.52332 0.49934 0.0
C1548 C 0.42854 0.48387 0.48601 0.0
C1549 C 0.4678 0.48639 0.49451 0.0
C1550 C 0.44635 0.47246 0.487 0.0
C1551 C 0.5393 0.55425 0.56807 0.0
C1552 C 0.49345 0.52718 0.51045 0.0
C1553 C 0.51668 0.43251 0.45474 0.0
C1554 C 0.51753 0.42579 0.47715 0.0
C1555 C 0.57098 0.51784 0.54653 0.0
C1556 C 0.64629 0.58103 0.54905 0.0
C1557 C 0.66484 0.57077 0.54898 0.0
C1558 C 0.68623 0.58571 0.55329 0.0
C1559 C 0.68898 0.61119 0.558 0.0
C1560 C 0.6491 0.60651 0.55411 0.0
C1561 C 0.67042 0.62152 0.55867 0.0
C1562 C 0.57827 0.53554 0.48112 0.0
C1563 C 0.62451 0.56452 0.54202 0.0
H1564 H 0.45664 0.54305 0.50456 0.0
H1565 H 0.41198 0.47282 0.48047 0.0
H1566 H 0.4813 0.47725 0.49567 0.0
H1567 H 0.44349 0.45276 0.48224 0.0
H1568 H 0.66265 0.55106 0.54472 0.0
H1569 H 0.7054 0.62301 0.56121 0.0
H1570 H 0.63497 0.61477 0.55415 0.0
H1571 H 0.67256 0.64118 0.56239 0.0
Tb1572 Tb 0.09025 0.55163 0.02087 0.0
C1573 C 0.0162 0.50105 0.07223 0.0
C1574 C 0.99731 0.46557 0.04288 0.0
C1575 C 0.99799 0.46427 0.08525 0.0
C1576 C 0.01017 0.48969 0.04868 0.0
C1577 C 0.00976 0.48876 0.09087 0.0
C1578 C 0.99177 0.45268 0.06126 0.0
C1579 C 0.0251 0.52647 0.11897 0.0
N1580 N 0.02736 0.52475 0.07684 0.0
C1581 C 0.031 0.53789 0.09982 0.0
C1582 C 0.01472 0.50169 0.11451 0.0
Tb1583 Tb 0.03708 0.54166 0.04439 0.0
N1584 N 0.01564 0.5029 0.03155 0.0
C1585 C 0.00715 0.49359 0.00825 0.0
C1586 C 0.9897 0.4555 0.01889 0.0
C1587 C 0.99438 0.46971 1.00155 0.0
H1588 H 0.03904 0.55703 0.10348 0.0
H1589 H 0.9882 0.46227 0.98299 0.0
H1590 H 0.98214 0.43403 0.05715 0.0
H1591 H 0.02856 0.53679 0.13715 0.0
H1592 H 0.01062 0.50422 0.99454 0.0
H1593 H 0.13801 0.62998 0.08463 0.0
H1594 H 0.9796 0.43712 0.0137 0.0
H1595 H 0.08961 0.53786 0.9619 0.0
H1596 H 0.11573 0.58824 0.07187 0.0
H1597 H 0.10066 0.55915 0.92905 0.0
H1598 H 0.99308 0.45439 0.0993 0.0
H1599 H 0.14772 0.65594 0.05482 0.0
H1600 H 0.14619 0.6602 0.01167 0.0
H1601 H 0.01007 0.49292 0.12936 0.0
H1602 H 0.13599 0.64089 0.96914 0.0
N1603 N 0.1118 0.59025 0.03488 0.0
C1604 C 0.11962 0.59911 0.05845 0.0
C1605 C 0.13766 0.63761 0.04905 0.0
C1606 C 0.13063 0.62808 0.02485 0.0
C1607 C 0.13234 0.62294 0.06589 0.0
C1608 C 0.11782 0.60398 0.01829 0.0
H1609 H 0.11931 0.60301 0.9381 0.0
N1610 N 0.10118 0.56951 0.98931 0.0
C1611 C 0.10395 0.569 0.94742 0.0
C1612 C 0.11225 0.59321 0.99457 0.0
C1613 C 0.09775 0.55698 0.9661 0.0
C1614 C 0.1144 0.59377 0.95258 0.0
C1615 C 0.11905 0.60609 0.97645 0.0
O1616 O 0.10892 0.5281 1.00327 0.0
O1617 O 0.0614 0.52479 0.0262 0.0
O1618 O 0.05882 0.5269 0.06655 0.0
O1619 O 0.09289 0.54873 0.05872 0.0
O1620 O 0.07482 0.51798 0.9949 0.0
O1621 O 0.11863 0.54673 0.03967 0.0
O1622 O 0.01991 0.56724 0.06092 0.0
O1623 O 0.06561 0.56848 0.03827 0.0
O1624 O 0.06841 0.56577 0.99835 0.0
O1625 O 0.03405 0.54464 0.00654 0.0
O1626 O 0.0527 0.57571 0.06978 0.0
O1627 O 0.00639 0.54348 0.02746 0.0
C1628 C 0.0595 0.50898 0.00701 0.0
C1629 C 0.14712 0.53667 0.01708 0.0
C1630 C 0.18295 0.52493 0.01837 0.0
C1631 C 0.16011 0.52002 0.02136 0.0
C1632 C 0.19239 0.54658 0.01076 0.0
C1633 C 0.15699 0.55806 0.00947 0.0
C1634 C 0.17947 0.56291 0.00629 0.0
C1635 C 0.08053 0.5346 0.07109 0.0
C1636 C 0.1236 0.53209 0.02164 0.0
C1637 C 0.13079 0.63055 0.98278 0.0
C1638 C 0.1366 0.64154 0.00698 0.0
C1639 C 0.06756 0.58472 0.05712 0.0
C1640 C 0.98089 0.55738 0.05295 0.0
C1641 C 0.96548 0.57003 0.04494 0.0
C1642 C 0.94464 0.56853 0.05423 0.0
C1643 C 0.93987 0.55412 0.07175 0.0
C1644 C 0.97521 0.54275 0.06986 0.0
C1645 C 0.95487 0.5412 0.07919 0.0
C1646 C 0.0467 0.55805 0.99375 0.0
C1647 C 1.00319 0.56049 0.04447 0.0
H1648 H 0.15259 0.50358 0.0275 0.0
H1649 H 0.20978 0.55078 0.00802 0.0
H1650 H 0.14737 0.57107 0.00617 0.0
H1651 H 0.18696 0.57947 1.0004 0.0
H1652 H 0.96982 0.58096 0.03153 0.0
H1653 H 0.92464 0.55305 0.08017 0.0
H1654 H 0.98661 0.53284 0.07621 0.0
H1655 H 0.95082 0.53018 0.09258 0.0
C1656 C 0.04851 0.21198 0.97687 0.0
C1657 C 0.02841 0.21199 0.96397 0.0
C1658 C 0.05248 0.19095 0.98513 0.0
C1659 C 0.03576 0.16894 0.98145 0.0
C1660 C 0.01514 0.16911 0.96907 0.0
C1661 C 0.01188 0.19018 0.96026 0.0
C1662 C 0.07487 0.19246 0.99772 0.0
C1663 C 0.99637 0.14682 0.96497 0.0
C1664 C 0.05024 0.10536 0.97852 0.0
C1665 C 0.04725 0.10004 1.00148 0.0
C1666 C 0.04732 0.12761 0.97228 0.0
C1667 C 0.04021 0.14542 0.98891 0.0
C1668 C 0.03715 0.14023 0.01227 0.0
C1669 C 0.04077 0.1179 0.01827 0.0
C1670 C 0.05195 0.13203 0.9476 0.0
C1671 C 0.02972 0.15818 0.03095 0.0
H1672 H 0.06159 0.22841 0.97998 0.0
H1673 H 0.99621 0.18956 0.95048 0.0
H1674 H 0.07344 0.19415 0.01719 0.0
H1675 H 0.08092 0.1757 0.99136 0.0
H1676 H 0.08736 0.20853 0.99502 0.0
H1677 H 0.98079 0.15027 0.95713 0.0
H1678 H 1.00086 0.13161 0.95268 0.0
H1679 H 0.99334 0.14074 0.98214 0.0
H1680 H 0.05504 0.09186 0.96517 0.0
H1681 H 0.03793 0.11417 0.03592 0.0
H1682 H 0.064 0.1497 0.94901 0.0
H1683 H 0.03651 0.13327 0.93756 0.0
H1684 H 0.05868 0.11731 0.93715 0.0
H1685 H 0.04299 0.17504 0.03615 0.0
H1686 H 0.02583 0.15073 0.04728 0.0
H1687 H 0.01485 0.16341 0.02356 0.0
C1688 C 0.17638 0.83268 0.16815 0.0
C1689 C 0.15494 0.82004 0.17097 0.0
C1690 C 0.19545 0.83038 0.1819 0.0
C1691 C 0.19342 0.81484 0.19895 0.0
C1692 C 0.17179 0.80209 0.20185 0.0
C1693 C 0.15303 0.80489 0.18805 0.0
C1694 C 0.21789 0.84461 0.17811 0.0
C1695 C 0.16843 0.78517 0.21947 0.0
C1696 C 0.24393 0.79077 0.21967 0.0
C1697 C 0.25134 0.80561 0.24243 0.0
C1698 C 0.22541 0.79362 0.20544 0.0
C1699 C 0.21373 0.81193 0.21377 0.0
C1700 C 0.22125 0.82708 0.23662 0.0
C1701 C 0.23966 0.82367 0.25057 0.0
C1702 C 0.21817 0.77675 0.18146 0.0
C1703 C 0.20973 0.84695 0.2465 0.0
H1704 H 0.17831 0.84438 0.15507 0.0
H1705 H 0.13673 0.79484 0.19047 0.0
H1706 H 0.22608 0.85641 0.19526 0.0
H1707 H 0.2286 0.83186 0.17208 0.0
H1708 H 0.21686 0.85626 0.16463 0.0
H1709 H 0.1507 0.77643 0.21967 0.0
H1710 H 0.17773 0.77063 0.21493 0.0
H1711 H 0.17505 0.79542 0.23777 0.0
H1712 H 0.25252 0.77666 0.21295 0.0
H1713 H 0.2448 0.83524 0.26804 0.0
H1714 H 0.21841 0.78755 0.1671 0.0
H1715 H 0.20089 0.76638 0.18117 0.0
H1716 H 0.22892 0.76356 0.1773 0.0
H1717 H 0.20936 0.85943 0.23372 0.0
H1718 H 0.21796 0.85785 0.26406 0.0
H1719 H 0.19231 0.83879 0.24874 0.0
C1720 C 0.55219 0.86293 0.4816 0.0
C1721 C 0.53072 0.848 0.47589 0.0
C1722 C 0.55586 0.88862 0.48936 0.0
C1723 C 0.5377 0.90022 0.49138 0.0
C1724 C 0.51598 0.88512 0.48623 0.0
C1725 C 0.51279 0.85942 0.47878 0.0
C1726 C 0.57934 0.90352 0.49464 0.0
C1727 C 0.49596 0.89609 0.48826 0.0
C1728 C 0.54938 0.9679 0.5248 0.0
C1729 C 0.55244 0.98068 0.50592 0.0
C1730 C 0.54388 0.9419 0.52045 0.0
C1731 C 0.5416 0.92806 0.49666 0.0
C1732 C 0.5441 0.94107 0.47763 0.0
C1733 C 0.54962 0.9669 0.48248 0.0
C1734 C 0.54109 0.92923 0.54143 0.0
C1735 C 0.54144 0.92763 0.45196 0.0
H1736 H 0.56628 0.85457 0.47945 0.0
H1737 H 0.4961 0.84831 0.47448 0.0
H1738 H 0.58286 0.91538 0.48127 0.0
H1739 H 0.58155 0.91566 0.51253 0.0
H1740 H 0.59163 0.89188 0.49416 0.0
H1741 H 0.4804 0.88261 0.48062 0.0
H1742 H 0.49459 0.90293 0.50743 0.0
H1743 H 0.49766 0.91181 0.47902 0.0
H1744 H 0.55197 0.97819 0.54302 0.0
H1745 H 0.55213 0.97648 0.46774 0.0
H1746 H 0.55372 0.91817 0.54232 0.0
H1747 H 0.5246 0.91652 0.53905 0.0
H1748 H 0.54266 0.94235 0.55869 0.0
H1749 H 0.55432 0.91684 0.44917 0.0
H1750 H 0.5428 0.94022 0.43909 0.0
H1751 H 0.52509 0.9146 0.44786 0.0
C1752 C 0.54636 0.32261 0.68581 0.0
C1753 C 0.54442 0.31202 0.66137 0.0
C1754 C 0.52786 0.32002 0.6992 0.0
C1755 C 0.50676 0.30655 0.68799 0.0
C1756 C 0.50469 0.29614 0.66324 0.0
C1757 C 0.52344 0.29895 0.65032 0.0
C1758 C 0.53097 0.33138 0.72551 0.0
C1759 C 0.48267 0.28164 0.65041 0.0
C1760 C 0.46521 0.27782 0.72742 0.0
C1761 C 0.45118 0.29428 0.73109 0.0
C1762 C 0.48305 0.2815 0.71336 0.0
C1763 C 0.48719 0.30215 0.70237 0.0
C1764 C 0.47267 0.31846 0.70531 0.0
C1765 C 0.45487 0.31432 0.71956 0.0
C1766 C 0.49778 0.26342 0.71067 0.0
C1767 C 0.47628 0.34063 0.69386 0.0
H1768 H 0.56242 0.33278 0.69456 0.0
H1769 H 0.52163 0.29073 0.63146 0.0
H1770 H 0.51934 0.34356 0.72952 0.0
H1771 H 0.52711 0.31687 0.73619 0.0
H1772 H 0.54813 0.34212 0.73141 0.0
H1773 H 0.48351 0.27569 0.63092 0.0
H1774 H 0.47701 0.2652 0.65818 0.0
H1775 H 0.46998 0.29272 0.65289 0.0
H1776 H 0.46238 0.26203 0.73586 0.0
H1777 H 0.44432 0.32727 0.72234 0.0
H1778 H 0.51499 0.2728 0.71806 0.0
H1779 H 0.4982 0.25581 0.69144 0.0
H1780 H 0.49217 0.24806 0.71998 0.0
H1781 H 0.4925 0.35294 0.7012 0.0
H1782 H 0.46311 0.351 0.69696 0.0
H1783 H 0.4768 0.33508 0.67429 0.0
C1784 C 0.0115 0.83229 0.62045 0.0
C1785 C 0.02602 0.81847 0.62746 0.0
C1786 C 0.01669 0.84671 0.60315 0.0
C1787 C 0.03674 0.84706 0.59247 0.0
C1788 C 0.0515 0.83324 0.59961 0.0
C1789 C 0.04601 0.81922 0.61711 0.0
C1790 C 1.00067 0.86146 0.59621 0.0
C1791 C 0.07296 0.83301 0.58853 0.0
C1792 C 0.04019 0.86682 0.53232 0.0
C1793 C 0.05187 0.89121 0.53914 0.0
C1794 C 0.03541 0.8521 0.54945 0.0
C1795 C 0.04238 0.86207 0.57397 0.0
C1796 C 0.0546 0.8865 0.58089 0.0
C1797 C 0.05932 0.90068 0.5634 0.0
C1798 C 0.02254 0.82602 0.54139 0.0
C1799 C 0.06236 0.89781 0.60683 0.0
H1800 H 0.99602 0.83175 0.62838 0.0
H1801 H 0.05725 0.80845 0.62235 0.0
H1802 H 0.00907 0.88108 0.59933 0.0
H1803 H 0.99498 0.85562 0.57683 0.0
H1804 H 0.98595 0.85949 0.60645 0.0
H1805 H 0.08261 0.82125 0.59605 0.0
H1806 H 0.06951 0.8263 0.5689 0.0
H1807 H 0.08334 0.85183 0.59146 0.0
H1808 H 0.03424 0.85942 0.51367 0.0
H1809 H 0.06876 0.91937 0.56877 0.0
H1810 H 0.00654 0.82353 0.54933 0.0
H1811 H 0.03185 0.81339 0.54778 0.0
H1812 H 0.01912 0.82073 0.5216 0.0
H1813 H 0.0479 0.89748 0.61738 0.0
H1814 H 0.07186 0.91701 0.6092 0.0
H1815 H 0.07297 0.88704 0.61441 0.0
C1816 C 0.52299 0.80842 0.82764 0.0
C1817 C 0.5335 0.78887 0.82659 0.0
C1818 C 0.50413 0.80667 0.81211 0.0
C1819 C 0.4953 0.78463 0.79551 0.0
C1820 C 0.50574 0.76472 0.7945 0.0
C1821 C 0.52493 0.76719 0.80991 0.0
C1822 C 0.49367 0.82845 0.81349 0.0
C1823 C 0.49651 0.74081 0.77733 0.0
C1824 C 0.43502 0.77646 0.773 0.0
C1825 C 0.43682 0.7842 0.75109 0.0
C1826 C 0.45392 0.77563 0.78728 0.0
C1827 C 0.47506 0.78258 0.77935 0.0
C1828 C 0.4769 0.78941 0.75678 0.0
C1829 C 0.45772 0.79008 0.74287 0.0
C1830 C 0.45134 0.76824 0.81125 0.0
C1831 C 0.49919 0.79732 0.74791 0.0
H1832 H 0.52968 0.82526 0.84045 0.0
H1833 H 0.53301 0.75201 0.8092 0.0
H1834 H 0.49294 0.83389 0.79579 0.0
H1835 H 0.47641 0.82358 0.8181 0.0
H1836 H 0.50292 0.84443 0.82703 0.0
H1837 H 0.50653 0.72706 0.77885 0.0
H1838 H 0.4793 0.73323 0.78081 0.0
H1839 H 0.49584 0.74381 0.75865 0.0
H1840 H 0.41882 0.77161 0.77922 0.0
H1841 H 0.45917 0.79634 0.72606 0.0
H1842 H 0.46054 0.78321 0.82579 0.0
H1843 H 0.45855 0.75212 0.81188 0.0
H1844 H 0.43376 0.76379 0.81496 0.0
H1845 H 0.50849 0.81455 0.75969 0.0
H1846 H 0.4977 0.80038 0.72926 0.0
H1847 H 0.50913 0.78339 0.74869 0.0
C1848 C 0.53952 0.19262 0.1351 0.0
C1849 C 0.52002 0.20112 0.13286 0.0
C1850 C 0.542 0.17112 0.12037 0.0
C1851 C 0.5245 0.15768 0.103 0.0
C1852 C 0.50451 0.16578 0.10105 0.0
C1853 C 0.50252 0.18749 0.11599 0.0
C1854 C 0.56364 0.16323 0.12291 0.0
C1855 C 0.48549 0.15183 0.08277 0.0
C1856 C 0.54181 0.12001 0.04881 0.0
C1857 C 0.53731 0.09661 0.05414 0.0
C1858 C 0.53715 0.13988 0.06426 0.0
C1859 C 0.52792 0.13628 0.08576 0.0
C1860 C 0.52334 0.11261 0.0913 0.0
C1861 C 0.52825 0.09301 0.07544 0.0
C1862 C 0.54263 0.16485 0.05782 0.0
C1863 C 0.51345 0.10807 0.11404 0.0
H1864 H 0.55309 0.20301 0.14818 0.0
H1865 H 0.48738 0.19393 0.11429 0.0
H1866 H 0.56059 0.14408 0.12556 0.0
H1867 H 0.57187 0.16389 0.10624 0.0
H1868 H 0.57516 0.17502 0.13814 0.0
H1869 H 0.47053 0.15952 0.0847 0.0
H1870 H 0.49045 0.15226 0.06448 0.0
H1871 H 0.48116 0.13238 0.08447 0.0
H1872 H 0.54966 0.12299 0.0329 0.0
H1873 H 0.5248 0.07485 0.07955 0.0
H1874 H 0.55562 0.17726 0.07124 0.0
H1875 H 0.52783 0.17287 0.05815 0.0
H1876 H 0.54863 0.16426 0.03981 0.0
H1877 H 0.52502 0.11851 0.12979 0.0
H1878 H 0.50985 0.08842 0.11512 0.0
H1879 H 0.49788 0.11465 0.11522 0.0
C1880 C 0.1536 0.2823 0.32828 0.0
C1881 C 0.15513 0.30329 0.3458 0.0
C1882 C 0.171 0.27971 0.3142 0.0
C1883 C 0.19047 0.29853 0.31777 0.0
C1884 C 0.19194 0.31999 0.33522 0.0
C1885 C 0.17427 0.32208 0.3491 0.0
C1886 C 0.16862 0.25652 0.29598 0.0
C1887 C 0.21226 0.34066 0.33939 0.0
C1888 C 0.24605 0.2854 0.30348 0.0
C1889 C 0.24863 0.293 0.28159 0.0
C1890 C 0.2267 0.28591 0.31474 0.0
C1891 C 0.20988 0.29533 0.30443 0.0
C1892 C 0.21242 0.30313 0.28231 0.0
C1893 C 0.23185 0.30188 0.27113 0.0
C1894 C 0.22452 0.27689 0.33799 0.0
C1895 C 0.19495 0.31351 0.27089 0.0
H1896 H 0.1388 0.26775 0.32561 0.0
H1897 H 0.17543 0.33848 0.36249 0.0
H1898 H 0.17474 0.26067 0.27905 0.0
H1899 H 0.17862 0.24488 0.30301 0.0
H1900 H 0.15117 0.246 0.29213 0.0
H1901 H 0.21025 0.35669 0.35261 0.0
H1902 H 0.22677 0.33432 0.34603 0.0
H1903 H 0.21601 0.34658 0.32231 0.0
H1904 H 0.25935 0.27933 0.31203 0.0
H1905 H 0.23413 0.30827 0.25447 0.0
H1906 H 0.20877 0.2631 0.33675 0.0
H1907 H 0.22405 0.29229 0.35273 0.0
H1908 H 0.23843 0.26858 0.34274 0.0
H1909 H 0.17863 0.30049 0.26867 0.0
H1910 H 0.1989 0.3176 0.25312 0.0
H1911 H 0.19334 0.3306 0.28274 0.0
C1912 C 0.99475 0.06412 0.21094 0.0
C1913 C 0.97264 0.06708 0.21213 0.0
C1914 C 1.0054 0.06179 0.18894 0.0
C1915 C 0.9946 0.06323 0.16637 0.0
C1916 C 0.97241 0.06675 0.16765 0.0
C1917 C 0.96192 0.06809 0.18972 0.0
C1918 C 0.02854 0.05755 0.19017 0.0
C1919 C 0.95925 0.06928 0.14556 0.0
C1920 C 0.03356 0.07766 0.11459 0.0
C1921 C 0.02755 0.05673 0.09583 0.0
C1922 C 0.02316 0.08014 0.13671 0.0
C1923 C 0.00616 0.06096 0.14195 0.0
C1924 C 1.00033 0.03958 0.12314 0.0
C1925 C 0.01048 0.038 0.10085 0.0
C1926 C 0.03077 0.10394 0.15438 0.0
C1927 C 0.98324 0.01765 0.12623 0.0
H1928 H 1.00385 0.06312 0.22739 0.0
H1929 H 0.94501 0.07035 0.18935 0.0
H1930 H 0.03147 0.04584 0.17346 0.0
H1931 H 0.04055 0.07538 0.19274 0.0
H1932 H 0.03191 0.04887 0.20552 0.0
H1933 H 0.94699 0.08055 0.15027 0.0
H1934 H 0.97005 0.07763 0.13306 0.0
H1935 H 0.94994 0.05091 0.13613 0.0
H1936 H 0.04634 0.09274 0.11186 0.0
H1937 H 1.0051 0.02148 0.08734 0.0
H1938 H 0.04613 0.10346 0.16509 0.0
H1939 H 0.01819 0.10753 0.16673 0.0
H1940 H 0.03489 0.11945 0.14491 0.0
H1941 H 0.98188 0.01665 0.14533 0.0
H1942 H 0.98721 1.00048 0.1169 0.0
H1943 H 0.9669 0.01862 0.11797 0.0
C1944 C 0.28289 0.65865 0.433 0.0
C1945 C 0.29288 0.67344 0.45488 0.0
C1946 C 0.27646 0.66901 0.41396 0.0
C1947 C 0.28012 0.69472 0.41698 0.0
C1948 C 0.29196 0.70972 0.43826 0.0
C1949 C 0.29822 0.69887 0.457 0.0
C1950 C 0.26427 0.65244 0.39134 0.0
C1951 C 0.2964 0.73723 0.44202 0.0
C1952 C 0.26784 0.72468 0.36488 0.0
C1953 C 0.24663 0.72854 0.36881 0.0
C1954 C 0.279 0.71346 0.38022 0.0
C1955 C 0.26856 0.70577 0.39977 0.0
C1956 C 0.24695 0.70912 0.40346 0.0
C1957 C 0.23628 0.72049 0.38795 0.0
C1958 C 0.30192 0.71003 0.37558 0.0
C1959 C 0.23524 0.70114 0.42412 0.0
H1960 H 0.27898 0.63895 0.43117 0.0
H1961 H 0.30612 0.71038 0.47382 0.0
H1962 H 0.24683 0.6543 0.38968 0.0
H1963 H 0.27186 0.65781 0.37545 0.0
H1964 H 0.26432 0.63295 0.39106 0.0
H1965 H 0.30845 0.74618 0.4579 0.0
H1966 H 0.30284 0.74367 0.42603 0.0
H1967 H 0.28068 0.7432 0.44471 0.0
H1968 H 0.27574 0.73044 0.34978 0.0
H1969 H 0.22002 0.72368 0.39122 0.0
H1970 H 0.30185 0.69028 0.37173 0.0
H1971 H 0.31372 0.71853 0.39173 0.0
H1972 H 0.30808 0.71811 0.36026 0.0
H1973 H 0.23401 0.68133 0.4233 0.0
H1974 H 0.2183 0.70462 0.42416 0.0
H1975 H 0.2449 0.71101 0.44132 0.0
C1976 C 0.65632 0.0092 0.66985 0.0
C1977 C 0.65257 0.01724 0.6936 0.0
C1978 C 0.64076 0.00888 0.65087 0.0
C1979 C 0.62117 0.017 0.65586 0.0
C1980 C 0.61659 0.0234 0.67984 0.0
C1981 C 0.63236 0.02339 0.69846 0.0
C1982 C 0.64607 1.0016 0.62548 0.0
C1983 C 0.5959 0.03217 0.68587 0.0
C1984 C 0.60278 0.05096 0.61025 0.0
C1985 C 0.5853 0.03338 0.59655 0.0
C1986 C 0.61397 0.04605 0.63012 0.0
C1987 C 0.60765 0.02284 0.63631 0.0
C1988 C 0.58934 1.00532 0.62319 0.0
C1989 C 0.57821 0.01089 0.60344 0.0
C1990 C 0.63312 0.06547 0.64393 0.0
C1991 C 0.5822 0.98037 0.62925 0.0
H1992 H 0.67181 1.00413 0.66603 0.0
H1993 H 0.62928 0.02938 0.71683 0.0
H1994 H 0.63145 0.98918 0.61435 0.0
H1995 H 0.65041 0.01812 0.61752 0.0
H1996 H 0.66019 0.99241 0.6246 0.0
H1997 H 0.59307 0.03262 0.70497 0.0
H1998 H 0.59746 0.0509 0.68232 0.0
H1999 H 0.58117 0.02031 0.67447 0.0
H2000 H 0.60801 0.06852 0.60517 0.0
H2001 H 0.56468 0.99727 0.59278 0.0
H2002 H 0.64875 0.05911 0.64205 0.0
H2003 H 0.63079 0.06887 0.66326 0.0
H2004 H 0.63501 0.08302 0.6376 0.0
H2005 H 0.59482 0.96963 0.62448 0.0
H2006 H 0.56602 0.97014 0.61942 0.0
H2007 H 0.58097 0.98188 0.64874 0.0
C2008 C 0.33455 0.33853 0.95546 0.0
C2009 C 0.31524 0.34374 0.96471 0.0
C2010 C 0.33523 0.33066 0.93066 0.0
C2011 C 0.31606 0.32754 0.91457 0.0
C2012 C 0.29614 0.33124 0.92405 0.0
C2013 C 0.29603 0.3395 0.94886 0.0
C2014 C 0.35689 0.32727 0.92158 0.0
C2015 C 0.27515 0.32768 0.9078 0.0
C2016 C 0.32005 0.34093 0.8517 0.0
C2017 C 0.31518 0.31756 0.83714 0.0
C2018 C 0.32158 0.34427 0.87679 0.0
C2019 C 0.3174 0.3237 0.88791 0.0
C2020 C 0.3131 0.29993 0.8733 0.0
C2021 C 0.31204 0.29713 0.84806 0.0
C2022 C 0.32687 0.36997 0.89137 0.0
C2023 C 0.30847 0.27744 0.8842 0.0
H2024 H 0.34953 0.34184 0.96747 0.0
H2025 H 0.28099 0.34336 0.95577 0.0
H2026 H 0.35441 0.30996 0.90829 0.0
H2027 H 0.36356 0.34245 0.91246 0.0
H2028 H 0.36941 0.32712 0.93627 0.0
H2029 H 0.26051 0.32825 0.91797 0.0
H2030 H 0.27692 0.34229 0.89711 0.0
H2031 H 0.27208 0.30993 0.89504 0.0
H2032 H 0.32231 0.35677 0.84332 0.0
H2033 H 0.3078 0.27901 0.8369 0.0
H2034 H 0.34059 0.37221 0.90554 0.0
H2035 H 0.31221 0.37355 0.90037 0.0
H2036 H 0.33166 0.38391 0.8802 0.0
H2037 H 0.32075 0.27921 0.89971 0.0
H2038 H 0.30876 0.26065 0.87102 0.0
H2039 H 0.2919 0.27532 0.89088 0.0
C2040 C 0.97866 0.04366 0.35353 0.0
C2041 C 0.97555 0.06653 0.34904 0.0
C2042 C 0.98892 0.04052 0.37591 0.0
C2043 C 0.99721 0.06062 0.39552 0.0
C2044 C 0.99442 0.08382 0.39099 0.0
C2045 C 0.98378 0.0864 0.36853 0.0
C2046 C 0.99057 0.01518 0.37868 0.0
C2047 C 1.00273 0.10633 0.41018 0.0
C2048 C 1.00302 0.05101 0.46286 0.0
C2049 C 0.02575 0.05177 0.46888 0.0
C2050 C 0.9939 0.05333 0.43977 0.0
C2051 C 0.00738 0.05722 0.42076 0.0
C2052 C 0.03046 0.05785 0.42653 0.0
C2053 C 0.0392 0.05519 0.44994 0.0
C2054 C 0.96938 0.05175 0.43582 0.0
C2055 C 0.04625 0.06182 0.40789 0.0
H2056 H 0.97265 0.02773 0.33943 0.0
H2057 H 0.98193 0.10434 0.36628 0.0
H2058 H 0.00817 0.01465 0.38249 0.0
H2059 H 0.98189 0.01028 0.39416 0.0
H2060 H 0.98334 1.00119 0.36243 0.0
H2061 H 1.00102 0.12327 0.40397 0.0
H2062 H 0.99336 0.10482 0.42599 0.0
H2063 H 0.02041 0.10789 0.41614 0.0
H2064 H 0.99197 0.04866 0.47667 0.0
H2065 H 0.05676 0.05634 0.4535 0.0
H2066 H 0.96198 0.03739 0.41992 0.0
H2067 H 0.96646 0.06932 0.43214 0.0
H2068 H 0.96066 0.04754 0.45151 0.0
H2069 H 0.04113 0.04692 0.39191 0.0
H2070 H 0.06355 0.06239 0.4146 0.0
H2071 H 0.04568 0.07922 0.40204 0.0
C2072 C 0.30602 0.71516 0.58552 0.0
C2073 C 0.30168 0.68971 0.58332 0.0
C2074 C 0.30689 0.73054 0.60789 0.0
C2075 C 0.30334 0.72018 0.62848 0.0
C2076 C 0.29919 0.69451 0.62637 0.0
C2077 C 0.2984 0.67959 0.60382 0.0
C2078 C 0.31146 0.75783 0.60949 0.0
C2079 C 0.2956 0.68279 0.64797 0.0
C2080 C 0.32522 0.75846 0.68997 0.0
C2081 C 0.30595 0.7642 0.69871 0.0
C2082 C 0.32466 0.74441 0.66705 0.0
C2083 C 0.30433 0.73611 0.65236 0.0
C2084 C 0.28484 0.74215 0.66092 0.0
C2085 C 0.28585 0.756 0.68411 0.0
C2086 C 0.34578 0.73815 0.65876 0.0
C2087 C 0.26285 0.73355 0.64577 0.0
H2088 H 0.30851 0.72306 0.56971 0.0
H2089 H 0.29502 0.65993 0.60223 0.0
H2090 H 0.29761 0.76513 0.6171 0.0
H2091 H 0.32665 0.76679 0.62175 0.0
H2092 H 0.31365 0.76299 0.59178 0.0
H2093 H 0.29253 0.66255 0.64329 0.0
H2094 H 0.31031 0.68964 0.66137 0.0
H2095 H 0.28126 0.68786 0.65664 0.0
H2096 H 0.34069 0.76417 0.7014 0.0
H2097 H 0.2709 0.7603 0.69086 0.0
H2098 H 0.35081 0.7476 0.64393 0.0
H2099 H 0.34319 0.71823 0.65177 0.0
H2100 H 0.35956 0.74358 0.67335 0.0
H2101 H 0.26421 0.73939 0.62829 0.0
H2102 H 0.24945 0.74073 0.65461 0.0
H2103 H 0.25808 0.7133 0.64201 0.0
C2104 C 0.66424 0.0328 0.82292 0.0
C2105 C 0.68655 0.0386 0.81888 0.0
C2106 C 0.65743 0.04125 0.84516 0.0
C2107 C 0.6734 0.05559 0.86379 0.0
C2108 C 0.69615 0.05974 0.86044 0.0
C2109 C 0.70249 0.05128 0.83787 0.0
C2110 C 0.63295 0.03636 0.84809 0.0
C2111 C 0.71367 0.07446 0.88008 0.0
C2112 C 0.64808 0.10087 0.9025 0.0
C2113 C 0.64039 0.08759 0.91984 0.0
C2114 C 0.66062 0.0915 0.8851 0.0
C2115 C 0.66575 0.06852 0.88541 0.0
C2116 C 0.66002 0.05633 0.90439 0.0
C2117 C 0.64707 0.06586 0.92125 0.0
C2118 C 0.66646 0.10507 0.86511 0.0
C2119 C 0.666 0.0323 0.90583 0.0
H2120 H 0.65192 0.02282 0.80832 0.0
H2121 H 0.71982 0.0556 0.83484 0.0
H2122 H 0.62964 0.02847 0.86426 0.0
H2123 H 0.62737 0.05381 0.85056 0.0
H2124 H 0.62287 0.02364 0.83236 0.0
H2125 H 0.73031 0.07112 0.87667 0.0
H2126 H 0.71442 0.0942 0.8811 0.0
H2127 H 0.70971 0.07014 0.89774 0.0
H2128 H 0.64285 0.11764 0.90139 0.0
H2129 H 0.64139 0.05581 0.93497 0.0
H2130 H 0.6564 0.09483 0.84824 0.0
H2131 H 0.68413 0.10647 0.86212 0.0
H2132 H 0.66333 0.12378 0.86886 0.0
H2133 H 0.65442 0.01738 0.89307 0.0
H2134 H 0.66487 0.02818 0.92408 0.0
H2135 H 0.683 0.03236 0.90083 0.0
C2136 C 0.33346 0.35756 0.11244 0.0
C2137 C 0.31586 0.35234 0.09426 0.0
C2138 C 0.33117 0.3482 0.13369 0.0
C2139 C 0.31066 0.33348 0.13725 0.0
C2140 C 0.29285 0.32807 0.1189 0.0
C2141 C 0.2957 0.33738 0.09766 0.0
C2142 C 0.35075 0.35419 0.15244 0.0
C2143 C 0.27063 0.31271 0.12187 0.0
C2144 C 0.30942 0.2921 0.18354 0.0
C2145 C 0.30287 0.306 0.20356 0.0
C2146 C 0.31197 0.30073 0.16196 0.0
C2147 C 0.30781 0.3239 0.16017 0.0
C2148 C 0.30117 0.338 0.18044 0.0
C2149 C 0.29893 0.32896 0.20187 0.0
C2150 C 0.31946 0.28515 0.14117 0.0
C2151 C 0.29636 0.36267 0.17951 0.0
H2152 H 0.34912 0.36906 0.11009 0.0
H2153 H 0.28194 0.33331 0.08387 0.0
H2154 H 0.3467 0.36454 0.16935 0.0
H2155 H 0.3546 0.3371 0.15642 0.0
H2156 H 0.36577 0.36519 0.14674 0.0
H2157 H 0.25845 0.31001 0.10601 0.0
H2158 H 0.27247 0.29456 0.12494 0.0
H2159 H 0.26388 0.32158 0.13785 0.0
H2160 H 0.31313 0.27467 0.18497 0.0
H2161 H 0.29377 0.33974 0.21723 0.0
H2162 H 0.33538 0.29511 0.13633 0.0
H2163 H 0.30719 0.28139 0.12526 0.0
H2164 H 0.32169 0.26745 0.14527 0.0
H2165 H 0.3113 0.37509 0.17537 0.0
H2166 H 0.29115 0.37126 0.19665 0.0
H2167 H 0.28308 0.36079 0.16495 0.0
C2168 C 0.26329 0.97024 0.06269 0.0
C2169 C 0.27234 0.97171 0.04093 0.0
C2170 C 0.24664 0.9825 0.06952 0.0
C2171 C 0.23881 0.99644 0.05414 0.0
C2172 C 0.24754 0.99754 0.0319 0.0
C2173 C 0.26429 0.98521 0.02559 0.0
C2174 C 0.23779 0.98101 0.09341 0.0
C2175 C 0.23946 0.0121 0.01497 0.0
C2176 C 0.18398 0.01468 0.0625 0.0
C2177 C 0.19103 0.03917 0.07429 0.0
C2178 C 0.19933 1.00039 0.05609 0.0
C2179 C 0.22223 0.01082 0.06176 0.0
C2180 C 0.22942 0.03529 0.07424 0.0
C2181 C 0.21374 0.04919 0.08026 0.0
C2182 C 0.19105 0.97433 0.04283 0.0
C2183 C 0.25372 0.04697 0.08076 0.0
H2184 H 0.26946 0.95978 0.07459 0.0
H2185 H 0.27118 0.98629 0.00871 0.0
H2186 H 0.24161 0.99945 0.10503 0.0
H2187 H 0.21952 0.97454 0.09097 0.0
H2188 H 0.24497 0.96854 0.10281 0.0
H2189 H 0.24722 0.01016 0.99789 0.0
H2190 H 0.22122 1.00612 0.01086 0.0
H2191 H 0.24321 0.03173 0.02356 0.0
H2192 H 0.16644 1.00672 0.05814 0.0
H2193 H 0.21933 0.06819 0.08905 0.0
H2194 H 0.19777 0.96173 0.05241 0.0
H2195 H 0.19701 0.97224 0.02479 0.0
H2196 H 0.17269 0.96865 0.04073 0.0
H2197 H 0.26163 0.03583 0.09117 0.0
H2198 H 0.25651 0.06582 0.09145 0.0
H2199 H 0.26218 0.0477 0.06424 0.0
C2200 C 0.72374 0.64261 0.03731 0.0
C2201 C 0.73307 0.64569 0.01599 0.0
C2202 C 0.70158 0.6302 0.03702 0.0
C2203 C 0.68861 0.6199 0.01484 0.0
C2204 C 0.69815 0.62246 0.99323 0.0
C2205 C 0.72014 0.63567 0.99408 0.0
C2206 C 0.69192 0.62849 0.06048 0.0
C2207 C 0.68518 0.61112 0.96921 0.0
C2208 C 0.63827 0.56914 0.01661 0.0
C2209 C 0.62076 0.58116 0.01571 0.0
C2210 C 0.66024 0.58126 0.01546 0.0
C2211 C 0.66511 0.60636 0.01433 0.0
C2212 C 0.64755 0.61864 0.01338 0.0
C2213 C 0.62561 0.60578 0.01357 0.0
C2214 C 0.6783 0.56722 0.01587 0.0
C2215 C 0.65198 0.64553 0.01273 0.0
H2216 H 0.73358 0.65056 0.0543 0.0
H2217 H 0.72732 0.63796 0.97755 0.0
H2218 H 0.67702 0.63636 0.06118 0.0
H2219 H 0.68659 0.60908 0.06199 0.0
H2220 H 0.70392 0.63824 0.07617 0.0
H2221 H 0.69525 0.61393 0.95409 0.0
H2222 H 0.67898 0.59121 0.96806 0.0
H2223 H 0.67052 0.61909 0.96714 0.0
H2224 H 0.63495 0.55032 0.01875 0.0
H2225 H 0.61228 0.61513 0.01221 0.0
H2226 H 0.68934 0.57417 0.03279 0.0
H2227 H 0.6886 0.56991 1.00093 0.0
H2228 H 0.67156 0.54732 0.01439 0.0
H2229 H 0.66335 0.6561 0.0286 0.0
H2230 H 0.63657 0.65251 0.01255 0.0
H2231 H 0.66027 0.64901 0.99662 0.0
C2232 C 0.73934 0.45415 0.27987 0.0
C2233 C 0.71624 0.45055 0.27282 0.0
C2234 C 0.75085 0.43437 0.28027 0.0
C2235 C 0.7398 0.40897 0.27353 0.0
C2236 C 0.71652 0.40522 0.2663 0.0
C2237 C 0.70543 0.42533 0.26601 0.0
C2238 C 0.77529 0.44085 0.2882 0.0
C2239 C 0.70295 0.37947 0.25886 0.0
C2240 C 0.77266 0.35434 0.25791 0.0
C2241 C 0.77398 0.34466 0.27918 0.0
C2242 C 0.76231 0.37483 0.25589 0.0
C2243 C 0.75201 0.38683 0.27523 0.0
C2244 C 0.7534 0.37701 0.29655 0.0
C2245 C 0.7639 0.35684 0.29812 0.0
C2246 C 0.76229 0.38361 0.23258 0.0
C2247 C 0.74339 0.38778 0.31819 0.0
H2248 H 0.74873 0.47283 0.28529 0.0
H2249 H 0.68784 0.42109 0.26041 0.0
H2250 H 0.77841 0.43377 0.30467 0.0
H2251 H 0.78431 0.432 0.27423 0.0
H2252 H 0.78219 0.46088 0.29188 0.0
H2253 H 0.68542 0.37884 0.25298 0.0
H2254 H 0.71019 0.36938 0.24401 0.0
H2255 H 0.70338 0.3698 0.27404 0.0
H2256 H 0.77957 0.34577 0.24253 0.0
H2257 H 0.76404 0.35029 0.3148 0.0
H2258 H 0.76973 0.40349 0.23579 0.0
H2259 H 0.74498 0.38083 0.22459 0.0
H2260 H 0.77162 0.37391 0.21955 0.0
H2261 H 0.75083 0.40763 0.32357 0.0
H2262 H 0.74585 0.37897 0.33368 0.0
H2263 H 0.72537 0.38573 0.31371 0.0
C2264 C 0.89079 0.47871 0.49506 0.0
C2265 C 0.88484 0.47214 0.51668 0.0
C2266 C 0.91311 0.48534 0.49102 0.0
C2267 C 0.9298 0.48567 0.50916 0.0
C2268 C 0.92385 0.47919 0.53109 0.0
C2269 C 0.90143 0.47242 0.53455 0.0
C2270 C 0.9188 0.49224 0.46749 0.0
C2271 C 0.94116 0.47949 0.55098 0.0
C2272 C 0.98901 0.48335 0.49817 0.0
C2273 C 0.99998 0.50764 0.50717 0.0
C2274 C 0.96587 0.4761 0.49729 0.0
C2275 C 0.95357 0.49359 0.50585 0.0
C2276 C 0.96453 0.51832 0.51398 0.0
C2277 C 0.98761 0.52489 0.51501 0.0
C2278 C 0.95471 0.44957 0.48833 0.0
C2279 C 0.9521 0.53766 0.523 0.0
H2280 H 0.87799 0.4784 0.48115 0.0
H2281 H 0.89688 0.46729 0.55128 0.0
H2282 H 0.92622 0.5121 0.47055 0.0
H2283 H 0.93119 0.48243 0.45984 0.0
H2284 H 0.90403 0.48813 0.4542 0.0
H2285 H 0.93374 0.47352 0.56676 0.0
H2286 H 0.9522 0.46731 0.5444 0.0
H2287 H 0.95163 0.49821 0.55683 0.0
H2288 H 0.99861 0.46992 0.49239 0.0
H2289 H 0.99586 0.54339 0.5229 0.0
H2290 H 0.94035 0.44786 0.4751 0.0
H2291 H 0.94831 0.44144 0.5035 0.0
H2292 H 0.96621 0.43886 0.47989 0.0
H2293 H 0.96246 0.55641 0.52482 0.0
H2294 H 0.94671 0.5353 0.54078 0.0
H2295 H 0.93704 0.5359 0.51075 0.0
C2296 C 0.38524 0.0903 0.28539 0.0
C2297 C 0.40616 0.08826 0.27866 0.0
C2298 C 0.37289 0.10385 0.27422 0.0
C2299 C 0.38149 0.115 0.25547 0.0
C2300 C 0.40276 0.11324 0.24881 0.0
C2301 C 0.41499 0.10009 0.26074 0.0
C2302 C 0.35049 0.10588 0.28222 0.0
C2303 C 0.41218 0.12439 0.22851 0.0
C2304 C 0.33633 0.12568 0.21403 0.0
C2305 C 0.33666 0.15029 0.22297 0.0
C2306 C 0.35186 0.11433 0.22342 0.0
C2307 C 0.36775 0.12781 0.24249 0.0
C2308 C 0.36897 0.15298 0.25066 0.0
C2309 C 0.35361 0.16402 0.24051 0.0
C2310 C 0.35042 0.08754 0.21391 0.0
C2311 C 0.38564 0.16788 0.27105 0.0
H2312 H 0.3785 0.08121 0.29934 0.0
H2313 H 0.43112 0.09825 0.25538 0.0
H2314 H 0.34961 0.12536 0.28677 0.0
H2315 H 0.33736 0.09676 0.26742 0.0
H2316 H 0.34686 0.09743 0.29804 0.0
H2317 H 0.42945 0.12253 0.22646 0.0
H2318 H 0.40179 0.11532 0.2115 0.0
H2319 H 0.41187 0.14404 0.23138 0.0
H2320 H 0.32327 0.11493 0.20053 0.0
H2321 H 0.35435 0.18325 0.24698 0.0
H2322 H 0.34411 0.0768 0.22744 0.0
H2323 H 0.36705 0.08426 0.21053 0.0
H2324 H 0.33919 0.08059 0.19706 0.0
H2325 H 0.38302 0.16005 0.28738 0.0
H2326 H 0.38442 0.18728 0.27522 0.0
H2327 H 0.40267 0.16719 0.26666 0.0
C2328 C 0.36327 0.15647 0.50427 0.0
C2329 C 0.34484 0.15253 0.51735 0.0
C2330 C 0.38014 0.1435 0.50591 0.0
C2331 C 0.37884 0.12645 0.52133 0.0
C2332 C 0.36047 0.12279 0.53493 0.0
C2333 C 0.34365 0.13566 0.53261 0.0
C2334 C 0.39915 0.1477 0.49075 0.0
C2335 C 0.35846 0.10511 0.55185 0.0
C2336 C 0.40807 0.07347 0.51062 0.0
C2337 C 0.42664 0.0816 0.52766 0.0
C2338 C 0.39294 0.08823 0.50776 0.0
C2339 C 0.39612 0.11166 0.52261 0.0
C2340 C 0.4152 0.12026 0.53942 0.0
C2341 C 0.43033 0.10523 0.54159 0.0
C2342 C 0.37317 0.07841 0.48927 0.0
C2343 C 0.41916 0.14493 0.55582 0.0
H2344 H 0.36432 0.16941 0.49239 0.0
H2345 H 0.32958 0.13258 0.54291 0.0
H2346 H 0.41511 0.15333 0.50227 0.0
H2347 H 0.39941 0.13042 0.47837 0.0
H2348 H 0.39803 0.16191 0.48003 0.0
H2349 H 0.34381 0.10526 0.56208 0.0
H2350 H 0.35709 0.0863 0.54165 0.0
H2351 H 0.37355 0.10966 0.56471 0.0
H2352 H 0.4052 0.05528 0.4997 0.0
H2353 H 0.44452 0.11152 0.55494 0.0
H2354 H 0.37198 0.09175 0.47757 0.0
H2355 H 0.35777 0.07568 0.4983 0.0
H2356 H 0.37399 0.06073 0.47787 0.0
H2357 H 0.41862 0.15936 0.54527 0.0
H2358 H 0.43535 0.14958 0.56694 0.0
H2359 H 0.40581 0.1451 0.56789 0.0
C2360 C 0.72688 0.60486 0.3005 0.0
C2361 C 0.72298 0.58725 0.27895 0.0
C2362 C 0.73814 0.6298 0.30185 0.0
C2363 C 0.74615 0.63827 0.28121 0.0
C2364 C 0.74244 0.62048 0.25947 0.0
C2365 C 0.73109 0.59568 0.25861 0.0
C2366 C 0.74124 0.64731 0.32556 0.0
C2367 C 0.75035 0.62774 0.23679 0.0
C2368 C 0.75614 0.70798 0.27843 0.0
C2369 C 0.77935 0.7169 0.28331 0.0
C2370 C 0.7454 0.68305 0.27779 0.0
C2371 C 0.75771 0.66553 0.28217 0.0
C2372 C 0.78112 0.67441 0.2874 0.0
C2373 C 0.79142 0.69953 0.28799 0.0
C2374 C 0.72059 0.67544 0.2723 0.0
C2375 C 0.79548 0.65723 0.29229 0.0
H2376 H 0.72082 0.59921 0.31648 0.0
H2377 H 0.72836 0.58282 0.2417 0.0
H2378 H 0.75907 0.65586 0.33053 0.0
H2379 H 0.73262 0.66224 0.32407 0.0
H2380 H 0.73475 0.63821 0.34015 0.0
H2381 H 0.74699 0.61202 0.22145 0.0
H2382 H 0.74204 0.64194 0.23212 0.0
H2383 H 0.7684 0.63583 0.23955 0.0
H2384 H 0.74605 0.7206 0.2751 0.0
H2385 H 0.80913 0.70548 0.29215 0.0
H2386 H 0.7131 0.66779 0.28725 0.0
H2387 H 0.71622 0.66081 0.25602 0.0
H2388 H 0.71313 0.69088 0.26941 0.0
H2389 H 0.79017 0.64907 0.30783 0.0
H2390 H 0.81328 0.66651 0.29607 0.0
H2391 H 0.79347 0.642 0.27666 0.0
C2392 C 0.90126 0.4593 0.784 0.0
C2393 C 0.89416 0.4791 0.79694 0.0
C2394 C 0.88902 0.4353 0.7819 0.0
C2395 C 0.86914 0.43098 0.79295 0.0
C2396 C 0.86205 0.45086 0.80634 0.0
C2397 C 0.87471 0.47472 0.80826 0.0
C2398 C 0.89709 0.41461 0.76731 0.0
C2399 C 0.84103 0.44696 0.81845 0.0
C2400 C 0.82899 0.37314 0.76137 0.0
C2401 C 0.83285 0.35641 0.77539 0.0
C2402 C 0.83976 0.39779 0.76771 0.0
C2403 C 0.85498 0.40585 0.78852 0.0
C2404 C 0.85824 0.38918 0.80335 0.0
C2405 C 0.84727 0.36446 0.79643 0.0
C2406 C 0.83572 0.41487 0.75138 0.0
C2407 C 0.87416 0.39712 0.82577 0.0
H2408 H 0.91637 0.46256 0.77534 0.0
H2409 H 0.86927 0.48996 0.81846 0.0
H2410 H 0.89827 0.40045 0.77804 0.0
H2411 H 0.88506 0.40578 0.75141 0.0
H2412 H 0.91352 0.42089 0.76105 0.0
H2413 H 0.83705 0.46444 0.82685 0.0
H2414 H 0.82692 0.43635 0.80534 0.0
H2415 H 0.8428 0.43622 0.83254 0.0
H2416 H 0.81793 0.36673 0.74496 0.0
H2417 H 0.85056 0.35133 0.80696 0.0
H2418 H 0.85092 0.42069 0.74268 0.0
H2419 H 0.83185 0.43155 0.76185 0.0
H2420 H 0.82192 0.40618 0.73714 0.0
H2421 H 0.87238 0.38294 0.837 0.0
H2422 H 0.87154 0.41428 0.8366 0.0
H2423 H 0.89138 0.40082 0.82081 0.0
C2424 C 0.10758 0.89704 0.08357 0.0
C2425 C 0.09023 0.88154 0.09201 0.0
C2426 C 0.10454 0.91844 0.0752 0.0
C2427 C 0.08334 0.92444 0.074 0.0
C2428 C 0.06565 0.90823 0.08166 0.0
C2429 C 0.06937 0.88763 0.09089 0.0
C2430 C 0.12438 0.93528 0.06859 0.0
C2431 C 0.04252 0.91256 0.07998 0.0
C2432 C 0.07663 0.99133 0.079 0.0
C2433 C 0.07262 0.99414 0.05513 0.0
C2434 C 0.08067 0.96944 0.08505 0.0
C2435 C 0.07999 0.94854 0.06701 0.0
C2436 C 0.07578 0.95102 0.04274 0.0
C2437 C 0.07286 0.97377 0.0371 0.0
C2438 C 0.08599 0.96891 0.11108 0.0
C2439 C 0.07386 0.92942 0.02263 0.0
H2440 H 0.12386 0.893 0.08444 0.0
H2441 H 0.05567 0.87598 0.09709 0.0
H2442 H 0.12137 0.93784 0.04997 0.0
H2443 H 0.12711 0.95354 0.08044 0.0
H2444 H 0.13969 0.92828 0.07019 0.0
H2445 H 0.03038 0.89831 0.08618 0.0
H2446 H 0.04215 0.93064 0.09075 0.0
H2447 H 0.03721 0.91272 0.06113 0.0
H2448 H 0.07697 1.00672 0.09334 0.0
H2449 H 0.07058 0.97548 0.01857 0.0
H2450 H 0.10154 0.96254 0.11349 0.0
H2451 H 0.07262 0.95584 0.11708 0.0
H2452 H 0.08791 0.98712 0.12285 0.0
H2453 H 0.0895 0.92296 0.02257 0.0
H2454 H 0.07003 0.9338 1.00486 0.0
H2455 H 0.06057 0.91411 0.02538 0.0
C2456 C 0.95576 0.26137 0.8673 0.0
C2457 C 0.96421 0.27746 0.88914 0.0
C2458 C 0.93685 0.26379 0.85336 0.0
C2459 C 0.92623 0.28331 0.86078 0.0
C2460 C 0.93495 0.29981 0.88266 0.0
C2461 C 0.95341 0.29649 0.8966 0.0
C2462 C 0.92806 0.24521 0.83072 0.0
C2463 C 0.92493 0.32131 0.89126 0.0
C2464 C 0.88939 0.30165 0.81286 0.0
C2465 C 0.86777 0.29186 0.81778 0.0
C2466 C 0.90836 0.2994 0.8268 0.0
C2467 C 0.90601 0.28635 0.84589 0.0
C2468 C 0.88416 0.27625 0.85073 0.0
C2469 C 0.86553 0.27938 0.83697 0.0
C2470 C 0.93102 0.3112 0.82113 0.0
C2471 C 0.88039 0.26162 0.87025 0.0
H2472 H 0.96376 0.24656 0.86121 0.0
H2473 H 0.95975 0.30926 0.91324 0.0
H2474 H 0.91041 0.23668 0.83153 0.0
H2475 H 0.92884 0.2543 0.81508 0.0
H2476 H 0.93749 0.23059 0.82773 0.0
H2477 H 0.93402 0.3331 0.90804 0.0
H2478 H 0.92492 0.33255 0.87727 0.0
H2479 H 0.90744 0.31482 0.89447 0.0
H2480 H 0.89151 0.31134 0.79818 0.0
H2481 H 0.84905 0.27131 0.84083 0.0
H2482 H 0.94048 0.29703 0.81558 0.0
H2483 H 0.94039 0.3237 0.83738 0.0
H2484 H 0.9302 0.32171 0.80663 0.0
H2485 H 0.88853 0.24596 0.86679 0.0
H2486 H 0.86252 0.25452 0.87159 0.0
H2487 H 0.88799 0.27307 0.88777 0.0
C2488 C 0.60945 0.23387 0.5798 0.0
C2489 C 0.59105 0.24464 0.58179 0.0
C2490 C 0.60697 0.20817 0.57357 0.0
C2491 C 0.58553 0.19241 0.56882 0.0
C2492 C 0.56692 0.20329 0.56992 0.0
C2493 C 0.56987 0.22902 0.57644 0.0
C2494 C 0.62742 0.19788 0.57243 0.0
C2495 C 0.54371 0.18765 0.56499 0.0
C2496 C 0.5755 0.12403 0.53838 0.0
C2497 C 0.57272 0.11224 0.55797 0.0
C2498 C 0.58043 0.14995 0.54155 0.0
C2499 C 0.5824 0.1647 0.56486 0.0
C2500 C 0.58021 0.15274 0.58465 0.0
C2501 C 0.57526 0.12694 0.58095 0.0
C2502 C 0.58287 0.1615 0.51982 0.0
C2503 C 0.58254 0.16723 0.60988 0.0
H2504 H 0.62592 0.24554 0.58387 0.0
H2505 H 0.55545 0.23688 0.57792 0.0
H2506 H 0.62625 0.18306 0.58282 0.0
H2507 H 0.62884 0.1899 0.55355 0.0
H2508 H 0.64274 0.21205 0.57938 0.0
H2509 H 0.531 0.19872 0.56469 0.0
H2510 H 0.54182 0.1748 0.54754 0.0
H2511 H 0.54051 0.17651 0.579 0.0
H2512 H 0.5731 0.11304 0.5205 0.0
H2513 H 0.57294 0.11811 0.59622 0.0
H2514 H 0.599 0.17483 0.52192 0.0
H2515 H 0.56969 0.17171 0.51803 0.0
H2516 H 0.58187 0.14776 0.50309 0.0
H2517 H 0.59861 0.18077 0.61359 0.0
H2518 H 0.58156 0.15541 0.62345 0.0
H2519 H 0.56925 0.17754 0.61197 0.0
C2520 C 0.58296 0.80305 0.38544 0.0
C2521 C 0.57252 0.78008 0.38965 0.0
C2522 C 0.60163 0.80602 0.37241 0.0
C2523 C 0.61047 0.78558 0.36345 0.0
C2524 C 0.60008 0.76232 0.36777 0.0
C2525 C 0.58122 0.75983 0.38065 0.0
C2526 C 0.6118 0.83111 0.36807 0.0
C2527 C 0.60895 0.74004 0.35882 0.0
C2528 C 0.64452 0.79081 0.31012 0.0
C2529 C 0.66647 0.79837 0.32097 0.0
C2530 C 0.62636 0.7861 0.32359 0.0
C2531 C 0.62994 0.78854 0.34875 0.0
C2532 C 0.65207 0.79505 0.35977 0.0
C2533 C 0.67 0.79993 0.34582 0.0
C2534 C 0.60322 0.77926 0.3109 0.0
C2535 C 0.65679 0.79758 0.38644 0.0
H2536 H 0.57648 0.81886 0.39231 0.0
H2537 H 0.57346 0.74203 0.38394 0.0
H2538 H 0.62947 0.83657 0.37541 0.0
H2539 H 0.61125 0.83079 0.34855 0.0
H2540 H 0.60316 0.84519 0.37637 0.0
H2541 H 0.59953 0.72342 0.36427 0.0
H2542 H 0.60821 0.73664 0.339 0.0
H2543 H 0.62659 0.74318 0.3658 0.0
H2544 H 0.64142 0.78884 0.29091 0.0
H2545 H 0.68675 0.80577 0.35455 0.0
H2546 H 0.59411 0.79353 0.31741 0.0
H2547 H 0.59399 0.76187 0.31499 0.0
H2548 H 0.60318 0.77721 0.29117 0.0
H2549 H 0.65055 0.81318 0.39588 0.0
H2550 H 0.67476 0.80068 0.39208 0.0
H2551 H 0.64797 0.78093 0.39227 0.0
C2552 C 0.08509 0.2461 0.43127 0.0
C2553 C 0.09972 0.26904 0.43511 0.0
C2554 C 0.082 0.23281 0.44971 0.0
C2555 C 0.09382 0.24271 0.47257 0.0
C2556 C 0.10898 0.26564 0.47642 0.0
C2557 C 0.11174 0.27854 0.45763 0.0
C2558 C 0.06576 0.20835 0.44487 0.0
C2559 C 0.12194 0.27674 0.50049 0.0
C2560 C 0.06802 0.21784 0.52439 0.0
C2561 C 0.07971 0.1998 0.52698 0.0
C2562 C 0.07294 0.23254 0.50727 0.0
C2563 C 0.08999 0.22913 0.49246 0.0
C2564 C 0.10252 0.21172 0.49577 0.0
C2565 C 0.09723 0.19729 0.51299 0.0
C2566 C 0.05926 0.25097 0.50433 0.0
C2567 C 0.12095 0.20765 0.48051 0.0
H2568 H 0.07573 0.23867 0.41392 0.0
H2569 H 0.12305 0.29629 0.46073 0.0
H2570 H 0.07416 0.19399 0.44892 0.0
H2571 H 0.05231 0.20896 0.45675 0.0
H2572 H 0.05824 0.20297 0.42599 0.0
H2573 H 0.13365 0.29431 0.50032 0.0
H2574 H 0.1104 0.28003 0.51419 0.0
H2575 H 0.13143 0.2639 0.50612 0.0
H2576 H 0.05437 0.21974 0.53503 0.0
H2577 H 0.10655 0.18361 0.51518 0.0
H2578 H 0.04945 0.2455 0.48655 0.0
H2579 H 0.07018 0.26919 0.50501 0.0
H2580 H 0.0477 0.25262 0.51835 0.0
H2581 H 0.11398 0.20025 0.46163 0.0
H2582 H 0.13014 0.19469 0.48651 0.0
H2583 H 0.13281 0.22522 0.48088 0.0
C2584 C 0.56294 0.24344 0.23854 0.0
C2585 C 0.56349 0.26596 0.23174 0.0
C2586 C 0.58182 0.23875 0.24981 0.0
C2587 C 0.60156 0.25719 0.25473 0.0
C2588 C 0.60156 0.28071 0.25 0.0
C2589 C 0.58253 0.28476 0.23833 0.0
C2590 C 0.58117 0.21338 0.25437 0.0
C2591 C 0.62216 0.30101 0.25552 0.0
C2592 C 0.65052 0.24598 0.29099 0.0
C2593 C 0.66316 0.23838 0.27278 0.0
C2594 C 0.63046 0.25247 0.28551 0.0
C2595 C 0.62281 0.2508 0.26127 0.0
C2596 C 0.63542 0.24272 0.24284 0.0
C2597 C 0.65554 0.23683 0.24886 0.0
C2598 C 0.61764 0.26141 0.30559 0.0
C2599 C 0.62765 0.24025 0.21673 0.0
H2600 H 0.54822 0.22884 0.23354 0.0
H2601 H 0.58295 0.30227 0.2333 0.0
H2602 H 0.59049 0.20391 0.24118 0.0
H2603 H 0.58921 0.21417 0.27246 0.0
H2604 H 0.56397 0.20227 0.25273 0.0
H2605 H 0.61847 0.31906 0.25458 0.0
H2606 H 0.63033 0.30194 0.2736 0.0
H2607 H 0.63411 0.29733 0.2424 0.0
H2608 H 0.6566 0.24735 0.30951 0.0
H2609 H 0.66531 0.23077 0.23482 0.0
H2610 H 0.60071 0.24967 0.30352 0.0
H2611 H 0.61586 0.2802 0.30482 0.0
H2612 H 0.62582 0.26153 0.32348 0.0
H2613 H 0.61105 0.22776 0.21233 0.0
H2614 H 0.63915 0.2331 0.20463 0.0
H2615 H 0.62608 0.25828 0.21305 0.0
C2616 C 0.59892 0.88796 0.8978 0.0
C2617 C 0.59019 0.86797 0.90819 0.0
C2618 C 0.5963 0.91155 0.90738 0.0
C2619 C 0.5846 0.91519 0.92777 0.0
C2620 C 0.576 0.89511 0.93849 0.0
C2621 C 0.57897 0.87179 0.92863 0.0
C2622 C 0.6058 0.9325 0.89553 0.0
C2623 C 0.56359 0.89824 0.96037 0.0
C2624 C 0.59171 0.97737 0.96817 0.0
C2625 C 0.57186 0.98391 0.96199 0.0
C2626 C 0.59652 0.95554 0.95654 0.0
C2627 C 0.58122 0.93993 0.93803 0.0
C2628 C 0.56188 0.94724 0.93057 0.0
C2629 C 0.55748 0.96923 0.94258 0.0
C2630 C 0.61742 0.94863 0.96499 0.0
C2631 C 0.54521 0.93118 0.91078 0.0
H2632 H 0.60758 0.88513 0.88196 0.0
H2633 H 0.57216 0.85644 0.93674 0.0
H2634 H 0.59231 0.94053 0.88911 0.0
H2635 H 0.61728 0.94714 0.90867 0.0
H2636 H 0.61488 0.92673 0.88011 0.0
H2637 H 0.55702 0.88061 0.96587 0.0
H2638 H 0.57479 0.91056 0.97546 0.0
H2639 H 0.54958 0.90688 0.95696 0.0
H2640 H 0.60323 0.98893 0.98277 0.0
H2641 H 0.54228 0.97423 0.93744 0.0
H2642 H 0.62641 0.94275 0.94957 0.0
H2643 H 0.61308 0.93299 0.97419 0.0
H2644 H 0.62872 0.96396 0.97764 0.0
H2645 H 0.55355 0.92572 0.89469 0.0
H2646 H 0.53205 0.94038 0.90569 0.0
H2647 H 0.5373 0.9142 0.91669 0.0
C2648 C 0.93012 0.75856 0.69339 0.0
C2649 C 0.95067 0.77209 0.705 0.0
C2650 C 0.91091 0.75705 0.7053 0.0
C2651 C 0.91226 0.76946 0.72934 0.0
C2652 C 0.93301 0.78309 0.74111 0.0
C2653 C 0.95194 0.78433 0.72876 0.0
C2654 C 0.88916 0.74215 0.69217 0.0
C2655 C 0.93527 0.79707 0.76645 0.0
C2656 C 0.85868 0.7838 0.74971 0.0
C2657 C 0.85194 0.76608 0.76347 0.0
C2658 C 0.87866 0.78568 0.73931 0.0
C2659 C 0.89181 0.76866 0.74178 0.0
C2660 C 0.88486 0.75029 0.75521 0.0
C2661 C 0.86502 0.7493 0.76601 0.0
C2662 C 0.88557 0.80582 0.72555 0.0
C2663 C 0.89841 0.73175 0.75823 0.0
H2664 H 0.92905 0.74894 0.67502 0.0
H2665 H 0.96778 0.79484 0.7378 0.0
H2666 H 0.88067 0.72979 0.70332 0.0
H2667 H 0.87817 0.75446 0.6888 0.0
H2668 H 0.89131 0.73104 0.67474 0.0
H2669 H 0.95265 0.80162 0.77477 0.0
H2670 H 0.93003 0.81443 0.76618 0.0
H2671 H 0.92462 0.78669 0.77776 0.0
H2672 H 0.84835 0.79632 0.74702 0.0
H2673 H 0.85962 0.73529 0.77629 0.0
H2674 H 0.88581 0.79782 0.70639 0.0
H2675 H 0.90258 0.81638 0.73241 0.0
H2676 H 0.87426 0.81863 0.72685 0.0
H2677 H 0.90334 0.72374 0.74074 0.0
H2678 H 0.88931 0.71674 0.76628 0.0
H2679 H 0.91384 0.74096 0.77001 0.0
C2680 C 0.1503 0.04513 0.86168 0.0
C2681 C 0.14602 0.02318 0.84414 0.0
C2682 C 0.13954 0.04797 0.88355 0.0
C2683 C 0.12426 0.02809 0.89013 0.0
C2684 C 0.1203 1.00563 0.87263 0.0
C2685 C 0.13047 1.00374 0.8503 0.0
C2686 C 0.14476 0.07301 0.89935 0.0
C2687 C 0.10537 0.98281 0.87719 0.0
C2688 C 0.1142 0.03839 0.95997 0.0
C2689 C 0.09103 0.03612 0.96065 0.0
C2690 C 0.1248 0.0352 0.93798 0.0
C2691 C 0.11271 0.03077 0.91465 0.0
C2692 C 0.08931 0.0292 0.91539 0.0
C2693 C 0.07908 0.03123 0.93764 0.0
C2694 C 0.14931 0.03637 0.94039 0.0
C2695 C 0.07436 0.02567 0.89265 0.0
H2696 H 0.16196 0.06074 0.85807 0.0
H2697 H 0.12654 0.9864 0.83778 0.0
H2698 H 0.13174 0.07579 0.91136 0.0
H2699 H 0.16071 0.0756 0.91041 0.0
H2700 H 0.14686 0.08738 0.88835 0.0
H2701 H 0.11182 0.96648 0.87012 0.0
H2702 H 0.10351 0.98341 0.89649 0.0
H2703 H 0.0888 0.98041 0.86747 0.0
H2704 H 0.12432 0.04208 0.97693 0.0
H2705 H 0.0614 0.02977 0.93684 0.0
H2706 H 0.15835 0.05579 0.94499 0.0
H2707 H 0.15507 0.0274 0.9238 0.0
H2708 H 0.15377 0.02756 0.95527 0.0
H2709 H 0.08348 0.03105 0.87763 0.0
H2710 H 0.06145 0.03644 0.89557 0.0
H2711 H 0.06567 1.00616 0.88746 0.0
C2712 C 0.81905 0.43227 0.6097 0.0
C2713 C 0.81104 0.41696 0.58747 0.0
C2714 C 0.82375 0.4225 0.62975 0.0
C2715 C 0.82061 0.39688 0.62733 0.0
C2716 C 0.81047 0.38134 0.60556 0.0
C2717 C 0.80569 0.3916 0.58585 0.0
C2718 C 0.83406 0.43967 0.65283 0.0
C2719 C 0.80676 0.35391 0.6023 0.0
C2720 C 0.86434 0.37425 0.66017 0.0
C2721 C 0.85304 0.3655 0.67844 0.0
C2722 C 0.85394 0.38475 0.64367 0.0
C2723 C 0.83172 0.38671 0.64561 0.0
C2724 C 0.82037 0.37851 0.66444 0.0
C2725 C 0.83116 0.36783 0.68061 0.0
C2726 C 0.86663 0.3932 0.62379 0.0
C2727 C 0.79678 0.38059 0.66723 0.0
H2728 H 0.82289 0.45192 0.6111 0.0
H2729 H 0.79933 0.37971 0.56873 0.0
H2730 H 0.82715 0.4329 0.66848 0.0
H2731 H 0.85214 0.4407 0.65472 0.0
H2732 H 0.83146 0.45841 0.65328 0.0
H2733 H 0.79563 0.34443 0.58586 0.0
H2734 H 0.8229 0.34857 0.60089 0.0
H2735 H 0.79957 0.34746 0.61794 0.0
H2736 H 0.88115 0.37218 0.65834 0.0
H2737 H 0.82251 0.36123 0.69492 0.0
H2738 H 0.86733 0.41288 0.62439 0.0
H2739 H 0.85803 0.38303 0.60616 0.0
H2740 H 0.88384 0.39049 0.62498 0.0
H2741 H 0.79504 0.39945 0.66676 0.0
H2742 H 0.79116 0.37573 0.68421 0.0
H2743 H 0.78563 0.36823 0.65208 0.0
C2744 C 0.50565 0.06999 0.363 0.0
C2745 C 0.48384 0.07279 0.36432 0.0
C2746 C 0.51953 0.07197 0.38385 0.0
C2747 C 0.51144 0.07741 0.40636 0.0
C2748 C 0.49042 0.08323 0.40774 0.0
C2749 C 0.47668 0.0805 0.3866 0.0
C2750 C 0.54176 0.06545 0.38163 0.0
C2751 C 0.48159 0.08997 0.4315 0.0
C2752 C 0.52542 0.04338 0.45393 0.0
C2753 C 0.54165 0.06115 0.46914 0.0
C2754 C 0.51599 0.04837 0.43308 0.0
C2755 C 0.52261 0.07195 0.4277 0.0
C2756 C 0.5393 0.08991 0.44284 0.0
C2757 C 0.54889 0.08415 0.46334 0.0
C2758 C 0.49868 0.02845 0.417 0.0
C2759 C 0.54639 0.11537 0.43796 0.0
H2760 H 0.51127 0.06419 0.34573 0.0
H2761 H 0.45992 0.08308 0.38758 0.0
H2762 H 0.55459 0.07792 0.39515 0.0
H2763 H 0.54056 0.04665 0.38491 0.0
H2764 H 0.54724 0.06605 0.36353 0.0
H2765 H 0.46724 0.09855 0.42968 0.0
H2766 H 0.47612 0.07326 0.43892 0.0
H2767 H 0.49468 0.10271 0.44456 0.0
H2768 H 0.52011 0.02549 0.45832 0.0
H2769 H 0.56144 0.09791 0.47526 0.0
H2770 H 0.50328 0.02582 0.39838 0.0
H2771 H 0.4825 0.0338 0.4167 0.0
H2772 H 0.49654 0.01071 0.423 0.0
H2773 H 0.54979 0.11477 0.41903 0.0
H2774 H 0.56137 0.12616 0.44976 0.0
H2775 H 0.53275 0.12504 0.441 0.0
C2776 C 0.77959 0.73985 0.09747 0.0
C2777 C 0.79915 0.73592 0.08792 0.0
C2778 C 0.77933 0.74899 0.12209 0.0
C2779 C 0.79903 0.75407 0.13782 0.0
C2780 C 0.81903 0.75125 0.12805 0.0
C2781 C 0.81887 0.74236 0.10329 0.0
C2782 C 0.75769 0.75201 0.1314 0.0
C2783 C 0.84045 0.75625 0.14396 0.0
C2784 C 0.80471 0.78769 0.20343 0.0
C2785 C 0.80123 0.76809 0.21552 0.0
C2786 C 0.80294 0.78355 0.1781 0.0
C2787 C 0.79833 0.75927 0.16458 0.0
C2788 C 0.79437 0.73954 0.17687 0.0
C2789 C 0.79595 0.74421 0.20201 0.0
C2790 C 0.80673 0.80516 0.16588 0.0
C2791 C 0.78942 0.71337 0.16351 0.0
H2792 H 0.76425 0.73502 0.08581 0.0
H2793 H 0.83408 0.73937 0.09618 0.0
H2794 H 0.75167 0.73725 0.14126 0.0
H2795 H 0.76 0.76971 0.14405 0.0
H2796 H 0.74476 0.75117 0.11676 0.0
H2797 H 0.85487 0.75521 0.13352 0.0
H2798 H 0.84346 0.77461 0.15563 0.0
H2799 H 0.83929 0.7427 0.15581 0.0
H2800 H 0.80942 0.80619 0.21375 0.0
H2801 H 0.79368 0.729 0.2113 0.0
H2802 H 0.7936 0.80255 0.15097 0.0
H2803 H 0.82278 0.8068 0.15807 0.0
H2804 H 0.807 0.8225 0.17848 0.0
H2805 H 0.77498 0.7099 0.14995 0.0
H2806 H 0.78586 0.70012 0.17562 0.0
H2807 H 0.80378 0.70991 0.15384 0.0
C2808 C 0.13426 1.00209 0.68679 0.0
C2809 C 0.14153 0.02182 0.70663 0.0
C2810 C 0.12328 1.00444 0.66442 0.0
C2811 C 0.11926 0.02732 0.66027 0.0
C2812 C 0.12665 0.0473 0.6802 0.0
C2813 C 0.13714 0.04433 0.70255 0.0
C2814 C 0.11588 0.98202 0.64494 0.0
C2815 C 0.12371 0.07235 0.67785 0.0
C2816 C 0.11266 0.03733 0.5931 0.0
C2817 C 0.08975 0.03557 0.58706 0.0
C2818 C 0.12208 0.03531 0.61617 0.0
C2819 C 0.10874 0.03056 0.6351 0.0
C2820 C 0.08547 0.02888 0.6293 0.0
C2821 C 0.07644 0.03143 0.60596 0.0
C2822 C 0.14678 0.03819 0.62021 0.0
C2823 C 0.06977 0.0239 0.64782 0.0
H2824 H 0.13708 0.98441 0.68873 0.0
H2825 H 0.14235 0.06014 0.71693 0.0
H2826 H 0.09811 0.97964 0.6388 0.0
H2827 H 0.12533 0.98428 0.6293 0.0
H2828 H 0.11829 0.9652 0.65094 0.0
H2829 H 0.13126 0.08648 0.69389 0.0
H2830 H 0.13127 0.07763 0.66188 0.0
H2831 H 0.10582 0.07209 0.67517 0.0
H2832 H 0.12363 0.04028 0.57932 0.0
H2833 H 0.05876 0.0295 0.60239 0.0
H2834 H 0.15056 0.02083 0.62348 0.0
H2835 H 0.15364 0.05244 0.63636 0.0
H2836 H 0.15535 0.04327 0.60471 0.0
H2837 H 0.07181 1.00724 0.65437 0.0
H2838 H 0.05223 0.02145 0.64073 0.0
H2839 H 0.07374 0.03932 0.66342 0.0
C2840 C 0.83143 0.37848 0.46117 0.0
C2841 C 0.81361 0.38989 0.46443 0.0
C2842 C 0.83292 0.36351 0.43928 0.0
C2843 C 0.81597 0.35952 0.42037 0.0
C2844 C 0.79739 0.37004 0.42395 0.0
C2845 C 0.79654 0.38534 0.4459 0.0
C2846 C 0.85306 0.35278 0.43607 0.0
C2847 C 0.77875 0.36571 0.40432 0.0
C2848 C 0.82831 0.3457 0.35578 0.0
C2849 C 0.81925 0.32051 0.34932 0.0
C2850 C 0.82803 0.35844 0.37912 0.0
C2851 C 0.81832 0.34572 0.39636 0.0
C2852 C 0.81026 0.3201 0.39034 0.0
C2853 C 0.81113 0.30776 0.36697 0.0
C2854 C 0.83741 0.38569 0.38506 0.0
C2855 C 0.79965 0.30584 0.40813 0.0
H2856 H 0.84472 0.38203 0.47544 0.0
H2857 H 0.78269 0.39404 0.44842 0.0
H2858 H 0.848 0.33273 0.42956 0.0
H2859 H 0.86255 0.36056 0.42231 0.0
H2860 H 0.86419 0.35654 0.45293 0.0
H2861 H 0.7647 0.37357 0.41058 0.0
H2862 H 0.78492 0.37407 0.38919 0.0
H2863 H 0.77257 0.34583 0.39733 0.0
H2864 H 0.83505 0.3557 0.34246 0.0
H2865 H 0.80481 0.28819 0.36237 0.0
H2866 H 0.8494 0.39054 0.40131 0.0
H2867 H 0.82389 0.39534 0.389 0.0
H2868 H 0.84585 0.39251 0.37017 0.0
H2869 H 0.8095 0.31151 0.42587 0.0
H2870 H 0.79768 0.28584 0.40202 0.0
H2871 H 0.78302 0.30961 0.41055 0.0
C2872 C 0.47983 0.99717 0.24365 0.0
C2873 C 0.46724 0.01481 0.24336 0.0
C2874 C 0.49158 0.99056 0.22428 0.0
C2875 C 0.49111 1.00242 0.20458 0.0
C2876 C 0.47779 0.01965 0.20387 0.0
C2877 C 0.46575 0.02543 0.22323 0.0
C2878 C 0.50512 0.9716 0.22528 0.0
C2879 C 0.47721 0.03297 0.18332 0.0
C2880 C 0.54147 0.01056 0.17034 0.0
C2881 C 0.53356 0.99418 0.14879 0.0
C2882 C 0.52785 0.01313 0.18884 0.0
C2883 C 0.50605 0.99852 0.18575 0.0
C2884 C 0.49833 0.98117 0.16433 0.0
C2885 C 0.51214 0.97946 0.14586 0.0
C2886 C 0.53647 0.03218 0.21127 0.0
C2887 C 0.47537 0.96489 0.16072 0.0
H2888 H 0.48074 0.98877 0.25918 0.0
H2889 H 0.45601 0.03911 0.22309 0.0
H2890 H 0.50185 0.95788 0.20831 0.0
H2891 H 0.523 0.98049 0.22744 0.0
H2892 H 0.50155 0.96201 0.24039 0.0
H2893 H 0.46505 0.0448 0.18491 0.0
H2894 H 0.49385 0.04455 0.18275 0.0
H2895 H 0.47297 0.01976 0.16604 0.0
H2896 H 0.55801 0.02208 0.17228 0.0
H2897 H 0.50619 0.96684 0.12904 0.0
H2898 H 0.5354 0.02359 0.22724 0.0
H2899 H 0.5261 0.04592 0.21342 0.0
H2900 H 0.55393 0.0418 0.21091 0.0
H2901 H 0.47243 0.95557 0.17609 0.0
H2902 H 0.47272 0.95084 0.14398 0.0
H2903 H 0.46285 0.97608 0.15991 0.0
C2904 C 0.79572 0.74246 0.95496 0.0
C2905 C 0.80325 0.7214 0.95745 0.0
C2906 C 0.79548 0.75048 0.93292 0.0
C2907 C 0.8029 0.73713 0.91272 0.0
C2908 C 0.81068 0.71599 0.91523 0.0
C2909 C 0.81078 0.70844 0.93744 0.0
C2910 C 0.78713 0.77315 0.93118 0.0
C2911 C 0.81874 0.70113 0.89433 0.0
C2912 C 0.78404 0.7438 0.84945 0.0
C2913 C 0.8027 0.75939 0.84349 0.0
C2914 C 0.78382 0.73652 0.87182 0.0
C2915 C 0.80262 0.74522 0.88899 0.0
C2916 C 0.82138 0.76125 0.88321 0.0
C2917 C 0.8212 0.76809 0.86066 0.0
C2918 C 0.76344 0.71941 0.87704 0.0
C2919 C 0.84177 0.77111 0.90085 0.0
H2920 H 0.78978 0.75258 0.97021 0.0
H2921 H 0.81657 0.6921 0.93904 0.0
H2922 H 0.80012 0.78674 0.92527 0.0
H2923 H 0.77262 0.76857 0.91753 0.0
H2924 H 0.78222 0.78171 0.9485 0.0
H2925 H 0.82435 0.68521 0.89915 0.0
H2926 H 0.80529 0.69438 0.87944 0.0
H2927 H 0.83268 0.71275 0.88756 0.0
H2928 H 0.76941 0.73744 0.83673 0.0
H2929 H 0.83569 0.78029 0.85649 0.0
H2930 H 0.75675 0.72815 0.89311 0.0
H2931 H 0.76779 0.70257 0.88106 0.0
H2932 H 0.75023 0.71417 0.86183 0.0
H2933 H 0.83735 0.78088 0.91786 0.0
H2934 H 0.85481 0.78382 0.89392 0.0
H2935 H 0.84872 0.7558 0.9051 0.0
C2936 C 0.82975 0.07901 0.99673 0.0
C2937 C 0.83364 0.09909 0.01585 0.0
C2938 C 0.84478 0.06373 0.9933 0.0
C2939 C 0.86404 0.06852 0.00953 0.0
C2940 C 0.8678 0.08846 0.02918 0.0
C2941 C 0.85261 0.10358 0.03203 0.0
C2942 C 0.84029 0.04281 0.97202 0.0
C2943 C 0.88806 0.09402 0.047 0.0
C2944 C 0.89578 0.01871 0.01245 0.0
C2945 C 0.91384 0.02616 0.99982 0.0
C2946 C 0.87926 0.03214 0.01552 0.0
C2947 C 0.88074 0.05332 0.00548 0.0
C2948 C 0.8986 0.06044 0.99207 0.0
C2949 C 0.91498 0.04684 0.98951 0.0
C2950 C 0.86057 0.0241 0.0301 0.0
C2951 C 0.90062 0.0827 0.98078 0.0
H2952 H 0.81512 0.07547 0.98413 0.0
H2953 H 0.85565 0.11902 0.04689 0.0
H2954 H 0.85367 0.04551 0.96008 0.0
H2955 H 0.84026 0.02537 0.97803 0.0
H2956 H 0.8242 0.04107 0.9615 0.0
H2957 H 0.88801 0.10945 0.06192 0.0
H2958 H 0.88908 0.07767 0.05461 0.0
H2959 H 0.9032 0.09869 0.03786 0.0
H2960 H 0.89499 1.00286 0.02062 0.0
H2961 H 0.92883 0.05248 0.97953 0.0
H2962 H 0.84439 0.02168 0.01956 0.0
H2963 H 0.8612 0.03844 0.04623 0.0
H2964 H 0.86135 1.00671 0.03591 0.0
H2965 H 0.88531 0.08129 0.96905 0.0
H2966 H 0.91495 0.0851 0.97 0.0
H2967 H 0.9026 0.0993 0.99493 0.0
C2968 C 0.39594 0.43222 0.01693 0.0
C2969 C 0.38393 0.43465 0.03695 0.0
C2970 C 0.4169 0.44744 0.01682 0.0
C2971 C 0.42643 0.46531 0.03743 0.0
C2972 C 0.41437 0.46788 0.05772 0.0
C2973 C 0.39318 0.45271 0.05715 0.0
C2974 C 0.42892 0.44428 0.99463 0.0
C2975 C 0.42405 0.48635 0.08021 0.0
C2976 C 0.48942 0.4853 0.04283 0.0
C2977 C 0.49269 0.50776 0.03529 0.0
C2978 C 0.46802 0.4718 0.04443 0.0
C2979 C 0.44929 0.48064 0.03785 0.0
C2980 C 0.45252 0.50348 0.03051 0.0
C2981 C 0.47416 0.51688 0.02956 0.0
C2982 C 0.46546 0.44781 0.05277 0.0
C2983 C 0.4331 0.51341 0.02288 0.0
H2984 H 0.38886 0.41843 1.00117 0.0
H2985 H 0.38404 0.45465 0.07271 0.0
H2986 H 0.43353 0.46193 0.98861 0.0
H2987 H 0.44448 0.43852 0.99872 0.0
H2988 H 0.41878 0.43046 0.97966 0.0
H2989 H 0.41251 0.48635 0.09434 0.0
H2990 H 0.43963 0.48236 0.08734 0.0
H2991 H 0.42831 0.50495 0.07612 0.0
H2992 H 0.50365 0.47821 0.04748 0.0
H2993 H 0.47655 0.53412 0.02354 0.0
H2994 H 0.45721 0.43259 0.03796 0.0
H2995 H 0.45479 0.44755 0.06768 0.0
H2996 H 0.48163 0.44435 0.0589 0.0
H2997 H 0.42343 0.50085 0.00683 0.0
H2998 H 0.43834 0.53185 0.01857 0.0
H2999 H 0.42185 0.51443 0.03723 0.0
C3000 C 0.37975 0.63553 0.77654 0.0
C3001 C 0.40323 0.63878 0.7801 0.0
C3002 C 0.36838 0.65541 0.77602 0.0
C3003 C 0.37994 0.68059 0.77912 0.0
C3004 C 0.40364 0.68396 0.78263 0.0
C3005 C 0.4146 0.66375 0.78307 0.0
C3006 C 0.34348 0.64928 0.77208 0.0
C3007 C 0.41777 0.70943 0.78625 0.0
C3008 C 0.35179 0.73269 0.75855 0.0
C3009 C 0.34489 0.74529 0.77967 0.0
C3010 C 0.3625 0.71215 0.75802 0.0
C3011 C 0.36756 0.7029 0.77914 0.0
C3012 C 0.36076 0.71574 0.80046 0.0
C3013 C 0.35012 0.73619 0.80048 0.0
C3014 C 0.36879 0.70044 0.73442 0.0
C3015 C 0.36509 0.70807 0.82387 0.0
H3016 H 0.36992 0.61704 0.77406 0.0
H3017 H 0.4325 0.66774 0.78581 0.0
H3018 H 0.33667 0.65806 0.78804 0.0
H3019 H 0.33793 0.65669 0.75664 0.0
H3020 H 0.33645 0.62929 0.7687 0.0
H3021 H 0.43573 0.70968 0.78758 0.0
H3022 H 0.41378 0.71828 0.77125 0.0
H3023 H 0.41404 0.72051 0.8029 0.0
H3024 H 0.34907 0.73914 0.74212 0.0
H3025 H 0.34594 0.74536 0.81734 0.0
H3026 H 0.3618 0.68044 0.73086 0.0
H3027 H 0.38707 0.70321 0.73519 0.0
H3028 H 0.36289 0.70808 0.7193 0.0
H3029 H 0.35725 0.68846 0.82241 0.0
H3030 H 0.35867 0.71891 0.83892 0.0
H3031 H 0.38317 0.71023 0.8281 0.0
C3032 C 0.20845 0.6235 0.5021 0.0
C3033 C 0.22378 0.62021 0.51954 0.0
C3034 C 0.18563 0.61669 0.5038 0.0
C3035 C 0.17807 0.60701 0.52378 0.0
C3036 C 0.19359 0.60419 0.54167 0.0
C3037 C 0.21628 0.61047 0.53915 0.0
C3038 C 0.16963 0.61953 0.48406 0.0
C3039 C 0.18626 0.59458 0.56347 0.0
C3040 C 0.11836 0.60876 0.53337 0.0
C3041 C 0.10735 0.58492 0.52257 0.0
C3042 C 0.14156 0.61591 0.53514 0.0
C3043 C 0.15389 0.59895 0.52525 0.0
C3044 C 0.14282 0.57471 0.5148 0.0
C3045 C 0.1197 0.5681 0.5134 0.0
C3046 C 0.15281 0.64179 0.54685 0.0
C3047 C 0.15526 0.55605 0.50392 0.0
H3048 H 0.2143 0.63104 0.48691 0.0
H3049 H 0.22818 0.60824 0.5528 0.0
H3050 H 0.15876 0.60149 0.47592 0.0
H3051 H 0.15881 0.63159 0.49149 0.0
H3052 H 0.17823 0.62732 0.46974 0.0
H3053 H 0.20042 0.59456 0.57632 0.0
H3054 H 0.17564 0.60589 0.57273 0.0
H3055 H 0.1763 0.57565 0.55789 0.0
H3056 H 0.10876 0.62185 0.54019 0.0
H3057 H 0.11137 0.55005 0.50409 0.0
H3058 H 0.15996 0.65177 0.53313 0.0
H3059 H 0.16666 0.6419 0.56012 0.0
H3060 H 0.14117 0.65183 0.556 0.0
H3061 H 0.16287 0.56166 0.48811 0.0
H3062 H 0.14434 0.53752 0.49818 0.0
H3063 H 0.16885 0.55501 0.51693 0.0
C3064 C 0.72802 0.9564 0.75885 0.0
C3065 C 0.73885 0.98015 0.75735 0.0
C3066 C 0.73881 0.94193 0.77069 0.0
C3067 C 0.7607 0.9517 0.78154 0.0
C3068 C 0.77217 0.97499 0.77865 0.0
C3069 C 0.76114 0.9889 0.7664 0.0
C3070 C 0.72659 0.91656 0.77233 0.0
C3071 C 0.79572 0.98571 0.78956 0.0
C3072 C 0.77919 0.92906 0.83622 0.0
C3073 C 0.79313 0.91419 0.82673 0.0
C3074 C 0.76843 0.94131 0.82161 0.0
C3075 C 0.77131 0.93812 0.79688 0.0
C3076 C 0.78503 0.9228 0.78715 0.0
C3077 C 0.79619 0.91161 0.80234 0.0
C3078 C 0.75412 0.95782 0.83265 0.0
C3079 C 0.78853 0.91844 0.76089 0.0
H3080 H 0.71084 0.9495 0.75165 0.0
H3081 H 0.76959 1.00723 0.7652 0.0
H3082 H 0.7367 0.90314 0.76628 0.0
H3083 H 0.72383 0.9158 0.79123 0.0
H3084 H 0.7103 0.91096 0.76136 0.0
H3085 H 0.80242 1.00392 0.78532 0.0
H3086 H 0.79654 0.98758 0.80931 0.0
H3087 H 0.80652 0.97327 0.78294 0.0
H3088 H 0.77659 0.93102 0.85501 0.0
H3089 H 0.80757 0.901 0.79512 0.0
H3090 H 0.73694 0.95149 0.82383 0.0
H3091 H 0.76044 0.97666 0.82976 0.0
H3092 H 0.75369 0.95842 0.85217 0.0
H3093 H 0.80391 0.9312 0.75823 0.0
H3094 H 0.77463 0.92125 0.74939 0.0
H3095 H 0.79064 0.89953 0.75473 0.0
C3096 C 0.76302 0.93696 0.56109 0.0
C3097 C 0.77651 0.93366 0.54243 0.0
C3098 C 0.74693 0.95105 0.56025 0.0
C3099 C 0.74419 0.96216 0.54027 0.0
C3100 C 0.75766 0.95869 0.52131 0.0
C3101 C 0.77359 0.94454 0.52262 0.0
C3102 C 0.733 0.95425 0.58086 0.0
C3103 C 0.75541 0.97016 0.49968 0.0
C3104 C 0.6916 0.98429 0.52615 0.0
C3105 C 0.69866 0.00965 0.53426 0.0
C3106 C 0.70597 0.96851 0.52859 0.0
C3107 C 0.72795 0.97824 0.53949 0.0
C3108 C 0.73484 1.00369 0.54855 0.0
C3109 C 0.72018 0.019 0.54586 0.0
C3110 C 0.69787 0.94151 0.51873 0.0
C3111 C 0.75799 0.01494 0.56046 0.0
H3112 H 0.76508 0.92858 0.57643 0.0
H3113 H 0.78385 0.94207 0.50807 0.0
H3114 H 0.73601 0.97387 0.58933 0.0
H3115 H 0.71517 0.94815 0.57423 0.0
H3116 H 0.73661 0.94382 0.59472 0.0
H3117 H 0.76665 0.96517 0.48615 0.0
H3118 H 0.73812 0.96436 0.49113 0.0
H3119 H 0.75918 0.99034 0.50527 0.0
H3120 H 0.6751 0.97686 0.51705 0.0
H3121 H 0.72571 0.03849 0.55261 0.0
H3122 H 0.70095 0.93088 0.53257 0.0
H3123 H 0.7072 0.93597 0.50349 0.0
H3124 H 0.67993 0.93654 0.51244 0.0
H3125 H 0.76168 1.00573 0.57527 0.0
H3126 H 0.76041 0.03481 0.56774 0.0
H3127 H 0.77017 0.0123 0.54733 0.0
C3128 C 0.40589 0.48469 0.7876 0.0
C3129 C 0.39993 0.49877 0.77127 0.0
C3130 C 0.39415 0.46016 0.78742 0.0
C3131 C 0.37615 0.44792 0.76973 0.0
C3132 C 0.37032 0.4619 0.75286 0.0
C3133 C 0.38172 0.48688 0.75415 0.0
C3134 C 0.40099 0.44738 0.80661 0.0
C3135 C 0.35218 0.45025 0.73289 0.0
C3136 C 0.36108 0.37579 0.75807 0.0
C3137 C 0.34099 0.36986 0.76838 0.0
C3138 C 0.37205 0.4005 0.75768 0.0
C3139 C 0.36374 0.42082 0.7689 0.0
C3140 C 0.34367 0.41488 0.77978 0.0
C3141 C 0.33254 0.38996 0.77898 0.0
C3142 C 0.39264 0.40478 0.74491 0.0
C3143 C 0.33411 0.435 0.79303 0.0
H3144 H 0.41969 0.49314 0.80109 0.0
H3145 H 0.37672 0.49691 0.74116 0.0
H3146 H 0.38631 0.43948 0.81516 0.0
H3147 H 0.4083 0.43208 0.79854 0.0
H3148 H 0.41335 0.45988 0.82068 0.0
H3149 H 0.35067 0.46238 0.71997 0.0
H3150 H 0.35543 0.4329 0.7231 0.0
H3151 H 0.33611 0.44567 0.74037 0.0
H3152 H 0.36814 0.36092 0.74977 0.0
H3153 H 0.31745 0.38626 0.78755 0.0
H3154 H 0.40725 0.41318 0.75813 0.0
H3155 H 0.39148 0.41769 0.73271 0.0
H3156 H 0.39548 0.38757 0.73434 0.0
H3157 H 0.34676 0.44714 0.80702 0.0
H3158 H 0.31922 0.42781 0.80166 0.0
H3159 H 0.32951 0.44636 0.78055 0.0
C3160 C 0.26431 0.61275 0.26436 0.0
C3161 C 0.2481 0.6048 0.27893 0.0
C3162 C 0.27578 0.63721 0.26846 0.0
C3163 C 0.27063 0.65419 0.28739 0.0
C3164 C 0.25597 0.64568 0.30369 0.0
C3165 C 0.24479 0.62102 0.29922 0.0
C3166 C 0.29223 0.6445 0.25133 0.0
C3167 C 0.25116 0.66292 0.32505 0.0
C3168 C 0.30325 0.72021 0.30155 0.0
C3169 C 0.28844 0.73186 0.2913 0.0
C3170 C 0.29798 0.69481 0.30013 0.0
C3171 C 0.27748 0.68089 0.28801 0.0
C3172 C 0.2627 0.69267 0.27728 0.0
C3173 C 0.26803 0.71814 0.27988 0.0
C3174 C 0.31399 0.68299 0.31209 0.0
C3175 C 0.24103 0.67845 0.26344 0.0
H3176 H 0.26739 0.60011 0.249 0.0
H3177 H 0.23257 0.6148 0.31086 0.0
H3178 H 0.28326 0.64238 0.23342 0.0
H3179 H 0.30207 0.66342 0.25709 0.0
H3180 H 0.30378 0.63198 0.2494 0.0
H3181 H 0.24187 0.65302 0.33771 0.0
H3182 H 0.26685 0.67461 0.33471 0.0
H3183 H 0.24123 0.67516 0.31897 0.0
H3184 H 0.31859 0.73113 0.31145 0.0
H3185 H 0.25611 0.72742 0.27321 0.0
H3186 H 0.31944 0.66956 0.29852 0.0
H3187 H 0.30566 0.67285 0.32513 0.0
H3188 H 0.32884 0.69655 0.3216 0.0
H3189 H 0.24391 0.6632 0.24984 0.0
H3190 H 0.23255 0.69009 0.25421 0.0
H3191 H 0.22983 0.6704 0.27576 0.0
C3192 C 0.5487 0.71209 0.47848 0.0
C3193 C 0.52796 0.71268 0.46741 0.0
C3194 C 0.55288 0.69082 0.48609 0.0
C3195 C 0.53581 0.66924 0.48355 0.0
C3196 C 0.5146 0.67006 0.47309 0.0
C3197 C 0.51108 0.69132 0.4649 0.0
C3198 C 0.57588 0.6914 0.49645 0.0
C3199 C 0.49548 0.64824 0.47031 0.0
C3200 C 0.54847 0.60465 0.47755 0.0
C3201 C 0.5469 0.59915 0.5006 0.0
C3202 C 0.54579 0.62732 0.47222 0.0
C3203 C 0.54038 0.64541 0.49002 0.0
C3204 C 0.53882 0.64007 0.5135 0.0
C3205 C 0.54223 0.61731 0.51853 0.0
C3206 C 0.54867 0.63181 0.44722 0.0
C3207 C 0.53311 0.65825 0.53334 0.0
H3208 H 0.56206 0.72817 0.48056 0.0
H3209 H 0.49492 0.69119 0.45652 0.0
H3210 H 0.57562 0.69025 0.51561 0.0
H3211 H 0.58169 0.67544 0.4871 0.0
H3212 H 0.58792 0.70835 0.49506 0.0
H3213 H 0.4796 0.65226 0.46409 0.0
H3214 H 0.49873 0.63284 0.45721 0.0
H3215 H 0.49373 0.64212 0.48764 0.0
H3216 H 0.55192 0.59095 0.46338 0.0
H3217 H 0.54054 0.61345 0.53632 0.0
H3218 H 0.56077 0.64931 0.44793 0.0
H3219 H 0.53271 0.6334 0.43856 0.0
H3220 H 0.5545 0.61692 0.43585 0.0
H3221 H 0.54689 0.67467 0.53793 0.0
H3222 H 0.53012 0.65065 0.54976 0.0
H3223 H 0.51814 0.66423 0.5274 0.0
C3224 C 0.67831 0.33963 0.66563 0.0
C3225 C 0.65899 0.32098 0.66317 0.0
C3226 C 0.69831 0.33831 0.67836 0.0
C3227 C 0.69951 0.31756 0.68857 0.0
C3228 C 0.6801 0.29859 0.68583 0.0
C3229 C 0.66024 0.30064 0.67354 0.0
C3230 C 0.71818 0.35931 0.68108 0.0
C3231 C 0.68032 0.27584 0.69576 0.0
C3232 C 0.75623 0.30278 0.70428 0.0
C3233 C 0.75933 0.30949 0.72945 0.0
C3234 C 0.73718 0.30549 0.69083 0.0
C3235 C 0.72072 0.31577 0.7025 0.0
C3236 C 0.72416 0.32336 0.7278 0.0
C3237 C 0.74303 0.31987 0.74083 0.0
C3238 C 0.73437 0.29664 0.66406 0.0
C3239 C 0.70763 0.3349 0.7413 0.0
H3240 H 0.67776 0.35544 0.65777 0.0
H3241 H 0.64566 0.28593 0.67168 0.0
H3242 H 0.72362 0.3667 0.70036 0.0
H3243 H 0.73219 0.35287 0.67293 0.0
H3244 H 0.71466 0.37433 0.67257 0.0
H3245 H 0.66428 0.26224 0.69134 0.0
H3246 H 0.6936 0.2672 0.68855 0.0
H3247 H 0.68401 0.28068 0.71551 0.0
H3248 H 0.76842 0.29467 0.69501 0.0
H3249 H 0.7448 0.32512 0.76016 0.0
H3250 H 0.73239 0.31173 0.6549 0.0
H3251 H 0.7191 0.28199 0.65889 0.0
H3252 H 0.74864 0.2894 0.65748 0.0
H3253 H 0.70428 0.35032 0.73338 0.0
H3254 H 0.71347 0.34177 0.76058 0.0
H3255 H 0.69171 0.32132 0.73979 0.0
C3256 C 0.05455 0.36618 0.96736 0.0
C3257 C 0.03422 0.34972 0.96739 0.0
C3258 C 0.05759 0.3916 0.97634 0.0
C3259 C 0.03971 0.40145 0.98501 0.0
C3260 C 0.01917 0.38486 0.9853 0.0
C3261 C 0.01678 0.35935 0.9769 0.0
C3262 C 0.07999 0.40804 0.97608 0.0
C3263 C 0.99939 0.39417 0.99368 0.0
C3264 C 0.05303 0.46818 0.02107 0.0
C3265 C 0.05122 0.48164 1.00297 0.0
C3266 C 0.04876 0.44219 0.01576 0.0
C3267 C 0.04219 0.42908 0.99181 0.0
C3268 C 0.0394 0.44274 0.97381 0.0
C3269 C 0.04435 0.46857 0.97948 0.0
C3270 C 0.05242 0.42888 0.03566 0.0
C3271 C 0.03172 0.43008 0.94821 0.0
H3272 H 0.06821 0.35915 0.96018 0.0
H3273 H 1.00093 0.34702 0.97687 0.0
H3274 H 0.0789 0.42006 0.96299 0.0
H3275 H 0.08544 0.42002 0.99393 0.0
H3276 H 0.09278 0.39755 0.97118 0.0
H3277 H 0.98458 0.37916 0.99292 0.0
H3278 H 1.00331 0.4046 0.01235 0.0
H3279 H 0.9953 0.40688 0.98238 0.0
H3280 H 0.05878 0.47797 0.03919 0.0
H3281 H 0.04305 0.47871 0.96531 0.0
H3282 H 0.06695 0.42062 0.03272 0.0
H3283 H 0.03793 0.41377 0.03566 0.0
H3284 H 0.05544 0.44121 0.05352 0.0
H3285 H 0.04471 0.42127 0.94049 0.0
H3286 H 0.02806 0.44293 0.93685 0.0
H3287 H 0.01662 0.41548 0.94747 0.0
C3288 C 0.04308 0.82065 0.18862 0.0
C3289 C 0.04133 0.8113 0.16392 0.0
C3290 C 0.0244 0.81758 0.20169 0.0
C3291 C 1.00328 0.80495 0.18987 0.0
C3292 C 1.00138 0.79589 0.16484 0.0
C3293 C 0.02034 0.79909 0.15225 0.0
C3294 C 0.02736 0.82746 0.22832 0.0
C3295 C 0.97934 0.78241 0.15137 0.0
C3296 C 0.96123 0.77441 0.22772 0.0
C3297 C 0.94777 0.79132 0.23279 0.0
C3298 C 0.97897 0.77847 0.21359 0.0
C3299 C 0.98354 0.79996 0.2039 0.0
C3300 C 0.9695 0.81668 0.2081 0.0
C3301 C 0.95183 0.81217 0.22244 0.0
C3302 C 0.99322 0.75996 0.20957 0.0
C3303 C 0.97356 0.83971 0.198 0.0
H3304 H 0.05915 0.83013 0.19785 0.0
H3305 H 0.01869 0.79185 0.13317 0.0
H3306 H 0.01594 0.83975 0.23303 0.0
H3307 H 0.02308 0.81217 0.23801 0.0
H3308 H 0.04458 0.83769 0.23474 0.0
H3309 H 0.98031 0.77769 0.13177 0.0
H3310 H 0.97331 0.7653 0.15795 0.0
H3311 H 0.96686 0.79366 0.15464 0.0
H3312 H 0.9581 0.75801 0.23522 0.0
H3313 H 0.94172 0.82546 0.2263 0.0
H3314 H 0.01047 0.76861 0.21733 0.0
H3315 H 0.99367 0.75352 0.19012 0.0
H3316 H 0.98717 0.74388 0.21776 0.0
H3317 H 0.98977 0.85161 0.20599 0.0
H3318 H 0.96047 0.85012 0.20159 0.0
H3319 H 0.97434 0.83522 0.17838 0.0
C3320 C 0.52391 0.34378 0.14255 0.0
C3321 C 0.53502 0.32461 0.14033 0.0
C3322 C 0.53025 0.36334 0.13075 0.0
C3323 C 0.54823 0.36379 0.1166 0.0
C3324 C 0.55955 0.34452 0.11438 0.0
C3325 C 0.55273 0.32511 0.12618 0.0
C3326 C 0.51768 0.38347 0.13336 0.0
C3327 C 0.57892 0.34445 0.09961 0.0
C3328 C 0.55479 0.40107 0.06765 0.0
C3329 C 0.57148 0.42139 0.07857 0.0
C3330 C 0.54653 0.38258 0.0801 0.0
C3331 C 0.55529 0.38434 0.10399 0.0
C3332 C 0.57166 0.40514 0.11536 0.0
C3333 C 0.57949 0.42345 0.10255 0.0
C3334 C 0.52892 0.36077 0.06743 0.0
C3335 C 0.58141 0.40772 0.14082 0.0
H3336 H 0.51018 0.34345 0.15345 0.0
H3337 H 0.56143 0.31038 0.12448 0.0
H3338 H 0.52909 0.40127 0.14111 0.0
H3339 H 0.51059 0.38491 0.1155 0.0
H3340 H 0.50403 0.38035 0.14495 0.0
H3341 H 0.58607 0.32821 0.0999 0.0
H3342 H 0.57365 0.34472 0.08076 0.0
H3343 H 0.5921 0.36115 0.10642 0.0
H3344 H 0.54865 0.3992 0.04907 0.0
H3345 H 0.59211 0.43929 0.11125 0.0
H3346 H 0.51477 0.35768 0.07833 0.0
H3347 H 0.53576 0.34413 0.06515 0.0
H3348 H 0.52267 0.36304 0.04951 0.0
H3349 H 0.56806 0.40563 0.15286 0.0
H3350 H 0.59308 0.42565 0.14749 0.0
H3351 H 0.59039 0.39302 0.14194 0.0
C3352 C 0.02407 0.30722 0.34926 0.0
C3353 C 0.04431 0.3091 0.33932 0.0
C3354 C 0.00586 0.3128 0.33753 0.0
C3355 C 0.00791 0.32022 0.31523 0.0
C3356 C 0.02792 0.32085 0.30449 0.0
C3357 C 0.04595 0.31537 0.31673 0.0
C3358 C 0.98477 0.31189 0.34957 0.0
C3359 C 0.03059 0.32833 0.28057 0.0
C3360 C 0.95361 0.31949 0.28072 0.0
C3361 C 0.95194 0.34386 0.28757 0.0
C3362 C 0.97222 0.31171 0.2887 0.0
C3363 C 0.98949 0.32869 0.30401 0.0
C3364 C 0.98835 0.35355 0.31006 0.0
C3365 C 0.96959 0.36086 0.30167 0.0
C3366 C 0.97295 0.28512 0.28163 0.0
C3367 C 0.00642 0.37218 0.32642 0.0
H3368 H 0.02272 0.30241 0.36673 0.0
H3369 H 0.06156 0.3168 0.30895 0.0
H3370 H 0.98168 0.33055 0.35408 0.0
H3371 H 0.97046 0.30041 0.33724 0.0
H3372 H 0.98548 0.3045 0.36626 0.0
H3373 H 0.04637 0.32552 0.27358 0.0
H3374 H 0.01662 0.3178 0.26725 0.0
H3375 H 0.03031 0.34793 0.28237 0.0
H3376 H 0.94005 0.30637 0.26957 0.0
H3377 H 0.96825 0.37965 0.30714 0.0
H3378 H 0.97149 0.27647 0.29755 0.0
H3379 H 0.98902 0.28337 0.27484 0.0
H3380 H 0.95936 0.27486 0.26767 0.0
H3381 H 0.0071 0.36763 0.34452 0.0
H3382 H 1.00374 0.39103 0.32809 0.0
H3383 H 0.02276 0.37178 0.31971 0.0
C3384 C 0.99436 0.67955 0.63372 0.0
C3385 C 1.00267 0.70141 0.62609 0.0
C3386 C 0.99736 0.65721 0.62109 0.0
C3387 C 0.00908 0.65694 0.60059 0.0
C3388 C 0.01659 0.67882 0.59222 0.0
C3389 C 0.01319 0.70081 0.60504 0.0
C3390 C 0.98877 0.6341 0.63019 0.0
C3391 C 0.02906 0.67917 0.5703 0.0
C3392 C 0.04174 0.60905 0.58165 0.0
C3393 C 0.02876 0.59533 0.56089 0.0
C3394 C 0.03497 0.62856 0.59551 0.0
C3395 C 0.01465 0.63414 0.58846 0.0
C3396 C 1.00082 0.61929 0.56842 0.0
C3397 C 0.00807 0.60007 0.55484 0.0
C3398 C 0.05017 0.6441 0.6168 0.0
C3399 C 0.97895 0.62448 0.56045 0.0
H3400 H 0.98613 0.67997 0.64996 0.0
H3401 H 0.01957 0.71768 0.59907 0.0
H3402 H 0.97903 0.6197 0.61546 0.0
H3403 H 1.00289 0.62713 0.6368 0.0
H3404 H 0.9782 0.63708 0.64498 0.0
H3405 H 0.03318 0.69761 0.56577 0.0
H3406 H 0.04467 0.67311 0.57332 0.0
H3407 H 0.01909 0.66622 0.55469 0.0
H3408 H 0.05769 0.60536 0.58642 0.0
H3409 H 0.99779 0.58921 0.53899 0.0
H3410 H 0.04098 0.6464 0.63281 0.0
H3411 H 0.05663 0.66256 0.61306 0.0
H3412 H 0.06445 0.63612 0.62104 0.0
H3413 H 0.96935 0.62817 0.57595 0.0
H3414 H 0.96875 0.60909 0.54691 0.0
H3415 H 0.98201 0.64103 0.5524 0.0
C3416 C 0.67003 0.81093 0.85613 0.0
C3417 C 0.64978 0.79901 0.84281 0.0
C3418 C 0.68999 0.81272 0.84545 0.0
C3419 C 0.68971 0.80182 0.82105 0.0
C3420 C 0.66925 0.78993 0.80753 0.0
C3421 C 0.64954 0.7888 0.81853 0.0
C3422 C 0.71139 0.8262 0.86031 0.0
C3423 C 0.66816 0.7775 0.7817 0.0
C3424 C 0.74028 0.82033 0.78813 0.0
C3425 C 0.75206 0.80248 0.79118 0.0
C3426 C 0.71991 0.82036 0.79766 0.0
C3427 C 0.71091 0.80179 0.81009 0.0
C3428 C 0.72257 0.78348 0.81278 0.0
C3429 C 0.74324 0.78451 0.80394 0.0
C3430 C 0.70829 0.84059 0.79494 0.0
C3431 C 0.71336 0.7629 0.82526 0.0
H3432 H 0.67026 0.81911 0.87483 0.0
H3433 H 0.63391 0.77949 0.80818 0.0
H3434 H 0.70862 0.8352 0.87846 0.0
H3435 H 0.72218 0.8133 0.86226 0.0
H3436 H 0.72047 0.84029 0.85119 0.0
H3437 H 0.65101 0.77244 0.77271 0.0
H3438 H 0.67884 0.78926 0.77151 0.0
H3439 H 0.67439 0.76062 0.78105 0.0
H3440 H 0.74729 0.83462 0.77877 0.0
H3441 H 0.75254 0.77126 0.80725 0.0
H3442 H 0.70611 0.85061 0.81287 0.0
H3443 H 0.69154 0.8328 0.78534 0.0
H3444 H 0.71758 0.85382 0.785 0.0
H3445 H 0.7115 0.77033 0.84417 0.0
H3446 H 0.7241 0.74956 0.82496 0.0
H3447 H 0.69667 0.75308 0.81653 0.0
C3448 C 0.49562 0.56461 0.70728 0.0
C3449 C 0.47411 0.56937 0.70877 0.0
C3450 C 0.50617 0.56205 0.68523 0.0
C3451 C 0.49586 0.56494 0.66303 0.0
C3452 C 0.4743 0.57016 0.66456 0.0
C3453 C 0.46387 0.57187 0.68666 0.0
C3454 C 0.52855 0.55579 0.68571 0.0
C3455 C 0.46207 0.57425 0.64259 0.0
C3456 C 0.53264 0.57934 0.60972 0.0
C3457 C 0.52824 0.5572 0.59242 0.0
C3458 C 0.52239 0.58212 0.63194 0.0
C3459 C 0.50724 0.56227 0.6386 0.0
C3460 C 0.50303 0.5398 0.62135 0.0
C3461 C 0.51303 0.53771 0.59899 0.0
C3462 C 0.52768 0.60682 0.64831 0.0
C3463 C 0.48792 0.51745 0.62662 0.0
H3464 H 0.50427 0.56237 0.72349 0.0
H3465 H 0.44746 0.57559 0.68661 0.0
H3466 H 0.52804 0.53916 0.67201 0.0
H3467 H 0.54099 0.57084 0.68113 0.0
H3468 H 0.53413 0.5526 0.70348 0.0
H3469 H 0.44646 0.58004 0.64652 0.0
H3470 H 0.47274 0.58842 0.63478 0.0
H3471 H 0.45804 0.55718 0.62882 0.0
H3472 H 0.544 0.59495 0.60573 0.0
H3473 H 0.50905 0.52029 0.58664 0.0
H3474 H 0.53582 0.60562 0.66575 0.0
H3475 H 0.51215 0.61291 0.65191 0.0
H3476 H 0.53875 0.62084 0.64066 0.0
H3477 H 0.49346 0.51413 0.64435 0.0
H3478 H 0.48741 0.50087 0.61283 0.0
H3479 H 0.47088 0.52044 0.62748 0.0
C3480 C 0.80206 0.18397 0.94847 0.0
C3481 C 0.78807 0.18488 0.96683 0.0
C3482 C 0.79713 0.19206 0.92734 0.0
C3483 C 0.77749 0.20059 0.92441 0.0
C3484 C 0.76354 0.20188 0.94309 0.0
C3485 C 0.76917 0.19431 0.96418 0.0
C3486 C 0.81266 0.19108 0.90802 0.0
C3487 C 0.74226 0.21049 0.94052 0.0
C3488 C 0.76759 0.24012 0.88016 0.0
C3489 C 0.75389 0.22306 0.8615 0.0
C3490 C 0.77656 0.2328 0.90002 0.0
C3491 C 0.7711 0.20793 0.90179 0.0
C3492 C 0.75766 0.1905 0.88295 0.0
C3493 C 0.74943 0.19824 0.86292 0.0
C3494 C 0.79118 0.25187 0.91955 0.0
C3495 C 0.75117 0.16381 0.88438 0.0
H3496 H 0.81668 0.17665 0.9505 0.0
H3497 H 0.75818 0.19484 0.97823 0.0
H3498 H 0.80422 0.17787 0.89176 0.0
H3499 H 0.81736 0.2092 0.90293 0.0
H3500 H 0.82797 0.18556 0.91374 0.0
H3501 H 0.73322 0.21026 0.95672 0.0
H3502 H 0.74578 0.22936 0.93705 0.0
H3503 H 0.73125 0.19864 0.92496 0.0
H3504 H 0.77086 0.25942 0.87975 0.0
H3505 H 0.73924 0.18481 0.84854 0.0
H3506 H 0.80654 0.24597 0.92426 0.0
H3507 H 0.78245 0.25411 0.93592 0.0
H3508 H 0.79581 0.26992 0.91425 0.0
H3509 H 0.76608 0.15681 0.88827 0.0
H3510 H 0.74179 0.15237 0.86757 0.0
H3511 H 0.74071 0.16165 0.8993 0.0
C3512 C 0.1509 0.50268 0.17967 0.0
C3513 C 0.16783 0.52374 0.18718 0.0
C3514 C 0.13558 0.50066 0.15985 0.0
C3515 C 0.13719 0.52028 0.14751 0.0
C3516 C 0.15478 0.54115 0.15449 0.0
C3517 C 0.16994 0.54256 0.17415 0.0
C3518 C 0.11726 0.47797 0.15263 0.0
C3519 C 0.1571 0.56248 0.14178 0.0
C3520 C 0.10985 0.51575 0.08536 0.0
C3521 C 0.09223 0.52698 0.09047 0.0
C3522 C 0.12381 0.51184 0.10378 0.0
C3523 C 0.12016 0.51971 0.12786 0.0
C3524 C 0.10159 0.52988 0.13303 0.0
C3525 C 0.08779 0.53338 0.11418 0.0
C3526 C 0.14322 0.50067 0.09746 0.0
C3527 C 0.09722 0.53868 0.15848 0.0
H3528 H 0.14921 0.48808 0.18971 0.0
H3529 H 0.18299 0.55889 0.17986 0.0
H3530 H 0.10111 0.48262 0.15601 0.0
H3531 H 0.11651 0.47054 0.13318 0.0
H3532 H 0.11946 0.46352 0.16266 0.0
H3533 H 0.17206 0.57706 0.14904 0.0
H3534 H 0.15801 0.55622 0.12239 0.0
H3535 H 0.14232 0.57048 0.14358 0.0
H3536 H 0.11312 0.51068 0.0669 0.0
H3537 H 0.07445 0.54253 0.11808 0.0
H3538 H 0.14443 0.48633 0.10795 0.0
H3539 H 0.15879 0.51494 0.10206 0.0
H3540 H 0.14197 0.49253 0.07809 0.0
H3541 H 0.09797 0.52451 0.1693 0.0
H3542 H 0.08082 0.54351 0.15945 0.0
H3543 H 0.11022 0.5551 0.16674 0.0
C3544 C 0.79897 0.84008 0.45878 0.0
C3545 C 0.81932 0.84824 0.47309 0.0
C3546 C 0.7979 0.83083 0.43393 0.0
C3547 C 0.81765 0.8297 0.42286 0.0
C3548 C 0.83818 0.83742 0.43737 0.0
C3549 C 0.83876 0.84653 0.46215 0.0
C3550 C 0.77559 0.82272 0.41939 0.0
C3551 C 0.85964 0.83657 0.42663 0.0
C3552 C 0.81141 0.78786 0.36095 0.0
C3553 C 0.81127 0.80429 0.34543 0.0
C3554 C 0.81441 0.79592 0.38606 0.0
C3555 C 0.81675 0.82106 0.39609 0.0
C3556 C 0.81703 0.83778 0.38038 0.0
C3557 C 0.81404 0.82919 0.35533 0.0
C3558 C 0.81413 0.77734 0.40184 0.0
C3559 C 0.81966 0.86472 0.39 0.0
H3560 H 0.78383 0.84138 0.46692 0.0
H3561 H 0.85461 0.85284 0.47291 0.0
H3562 H 0.77472 0.83424 0.40579 0.0
H3563 H 0.77329 0.80358 0.40963 0.0
H3564 H 0.76174 0.82391 0.43067 0.0
H3565 H 0.8742 0.84258 0.4403 0.0
H3566 H 0.85922 0.8177 0.41719 0.0
H3567 H 0.8618 0.84855 0.41325 0.0
H3568 H 0.80859 0.76851 0.35339 0.0
H3569 H 0.81316 0.84187 0.34344 0.0
H3570 H 0.79915 0.77605 0.41163 0.0
H3571 H 0.82873 0.78311 0.41542 0.0
H3572 H 0.81411 0.75892 0.39143 0.0
H3573 H 0.80516 0.86777 0.3996 0.0
H3574 H 0.82112 0.87554 0.37559 0.0
H3575 H 0.83458 0.87167 0.40309 0.0
C3576 C 0.47497 0.54983 0.85508 0.0
C3577 C 0.47473 0.57295 0.84912 0.0
C3578 C 0.48632 0.54674 0.87689 0.0
C3579 C 0.49752 0.56709 0.89512 0.0
C3580 C 0.49686 0.59054 0.88954 0.0
C3581 C 0.48626 0.59313 0.867 0.0
C3582 C 0.48668 0.52122 0.88015 0.0
C3583 C 0.50724 0.61331 0.90774 0.0
C3584 C 0.51062 0.55666 0.96187 0.0
C3585 C 0.53377 0.55797 0.96462 0.0
C3586 C 0.49897 0.55963 0.94012 0.0
C3587 C 0.51001 0.56384 0.9193 0.0
C3588 C 0.53335 0.56503 0.92208 0.0
C3589 C 0.54466 0.56288 0.94426 0.0
C3590 C 0.47464 0.55919 0.93984 0.0
C3591 C 0.54676 0.56874 0.90139 0.0
H3592 H 0.46656 0.5337 0.84216 0.0
H3593 H 0.48657 0.61129 0.8637 0.0
H3594 H 0.50407 0.51954 0.88318 0.0
H3595 H 0.47845 0.51743 0.89621 0.0
H3596 H 0.47828 0.50714 0.86442 0.0
H3597 H 0.50195 0.6296 0.90348 0.0
H3598 H 0.50283 0.61114 0.92591 0.0
H3599 H 0.52552 0.61661 0.90823 0.0
H3600 H 0.50154 0.55408 0.97718 0.0
H3601 H 0.56246 0.56491 0.94557 0.0
H3602 H 0.46519 0.54495 0.92483 0.0
H3603 H 0.47174 0.57701 0.93682 0.0
H3604 H 0.46803 0.5556 0.95682 0.0
H3605 H 0.5384 0.55609 0.88473 0.0
H3606 H 0.56371 0.56572 0.9046 0.0
H3607 H 0.54817 0.58765 0.89845 0.0
C3608 C 0.77684 0.19706 0.09798 0.0
C3609 C 0.7964 0.19449 0.08778 0.0
C3610 C 0.7774 0.21211 0.12037 0.0
C3611 C 0.79806 0.2245 0.13314 0.0
C3612 C 0.8179 0.2225 0.12268 0.0
C3613 C 0.81682 0.20766 0.09993 0.0
C3614 C 0.75586 0.21411 0.13068 0.0
C3615 C 0.84025 0.23512 0.13597 0.0
C3616 C 0.79801 0.27443 0.18714 0.0
C3617 C 0.7973 0.26133 0.20574 0.0
C3618 C 0.79858 0.26283 0.16336 0.0
C3619 C 0.79875 0.23765 0.15823 0.0
C3620 C 0.7984 0.2245 0.17705 0.0
C3621 C 0.79747 0.23645 0.2005 0.0
C3622 C 0.79873 0.27739 0.14375 0.0
C3623 C 0.79902 0.19776 0.17243 0.0
H3624 H 0.76099 0.18714 0.08848 0.0
H3625 H 0.83195 0.20568 0.09205 0.0
H3626 H 0.75446 0.20535 0.14654 0.0
H3627 H 0.75546 0.23358 0.13677 0.0
H3628 H 0.74123 0.20521 0.11754 0.0
H3629 H 0.85398 0.2334 0.12463 0.0
H3630 H 0.84094 0.25478 0.14254 0.0
H3631 H 0.84293 0.22702 0.15189 0.0
H3632 H 0.79807 0.29374 0.19118 0.0
H3633 H 0.79745 0.22636 0.21483 0.0
H3634 H 0.78358 0.26979 0.13107 0.0
H3635 H 0.81313 0.27598 0.13341 0.0
H3636 H 0.79945 0.29701 0.15085 0.0
H3637 H 0.78393 0.18688 0.16094 0.0
H3638 H 0.80003 0.19061 0.18924 0.0
H3639 H 0.81348 0.19488 0.16269 0.0
C3640 C 0.14059 0.54013 0.30793 0.0
C3641 C 0.14926 0.55438 0.29168 0.0
C3642 C 0.12406 0.54639 0.32184 0.0
C3643 C 0.11608 0.5674 0.31939 0.0
C3644 C 0.12425 0.58141 0.30244 0.0
C3645 C 0.1408 0.57472 0.28876 0.0
C3646 C 0.1157 0.53097 0.33974 0.0
C3647 C 0.11607 0.60389 0.29935 0.0
C3648 C 0.06303 0.57084 0.34788 0.0
C3649 C 0.07145 0.58431 0.37077 0.0
C3650 C 0.0773 0.56631 0.3303 0.0
C3651 C 0.1004 0.57552 0.33591 0.0
C3652 C 0.10876 0.59058 0.35846 0.0
C3653 C 0.09415 0.59479 0.37564 0.0
C3654 C 0.06782 0.55034 0.30635 0.0
C3655 C 0.13327 0.60092 0.36504 0.0
H3656 H 0.14703 0.52433 0.31014 0.0
H3657 H 0.14743 0.58574 0.27612 0.0
H3658 H 0.12014 0.54196 0.35816 0.0
H3659 H 0.09738 0.5251 0.33695 0.0
H3660 H 0.12271 0.51447 0.33846 0.0
H3661 H 0.12263 0.61147 0.28392 0.0
H3662 H 0.09772 0.59961 0.29671 0.0
H3663 H 0.12124 0.61819 0.3158 0.0
H3664 H 0.04547 0.56267 0.34417 0.0
H3665 H 0.10058 0.6055 0.39328 0.0
H3666 H 0.07206 0.53225 0.30518 0.0
H3667 H 0.07509 0.55848 0.29157 0.0
H3668 H 0.04952 0.54747 0.30364 0.0
H3669 H 0.14171 0.58584 0.36648 0.0
H3670 H 0.13682 0.61419 0.38235 0.0
H3671 H 0.14056 0.61015 0.3509 0.0
C3672 C 0.79715 0.84125 0.60822 0.0
C3673 C 0.81733 0.85592 0.60449 0.0
C3674 C 0.79448 0.83203 0.62957 0.0
C3675 C 0.81258 0.83696 0.64755 0.0
C3676 C 0.83315 0.85124 0.64353 0.0
C3677 C 0.83517 0.86077 0.62235 0.0
C3678 C 0.77211 0.81745 0.63313 0.0
C3679 C 0.85312 0.85652 0.66169 0.0
C3680 C 0.80297 0.83383 0.713 0.0
C3681 C 0.80601 0.81049 0.71467 0.0
C3682 C 0.80462 0.84243 0.6913 0.0
C3683 C 0.80997 0.82761 0.67067 0.0
C3684 C 0.81325 0.80405 0.6724 0.0
C3685 C 0.81097 0.79572 0.69421 0.0
C3686 C 0.80054 0.86742 0.69046 0.0
C3687 C 0.81964 0.78779 0.65134 0.0
H3688 H 0.7832 0.83752 0.5947 0.0
H3689 H 0.85087 0.87198 0.61969 0.0
H3690 H 0.77345 0.79905 0.63592 0.0
H3691 H 0.76606 0.8266 0.64945 0.0
H3692 H 0.75964 0.81528 0.61765 0.0
H3693 H 0.86822 0.86673 0.65542 0.0
H3694 H 0.84989 0.86741 0.67872 0.0
H3695 H 0.85637 0.83918 0.66567 0.0
H3696 H 0.79888 0.84525 0.72863 0.0
H3697 H 0.81373 0.77786 0.69548 0.0
H3698 H 0.7872 0.86598 0.67608 0.0
H3699 H 0.81567 0.87937 0.68612 0.0
H3700 H 0.79575 0.87633 0.70771 0.0
H3701 H 0.80687 0.78411 0.63591 0.0
H3702 H 0.82169 0.77006 0.65554 0.0
H3703 H 0.83543 0.79718 0.6457 0.0
C3704 C 0.75849 0.49027 0.51769 0.0
C3705 C 0.7801 0.49611 0.529 0.0
C3706 C 0.74474 0.50692 0.52144 0.0
C3707 C 0.7527 0.52971 0.53722 0.0
C3708 C 0.77467 0.5359 0.5483 0.0
C3709 C 0.78819 0.51907 0.54389 0.0
C3710 C 0.72149 0.49984 0.509 0.0
C3711 C 0.78362 0.55987 0.56551 0.0
C3712 C 0.7198 0.57831 0.53404 0.0
C3713 C 0.70537 0.57419 0.55155 0.0
C3714 C 0.73581 0.56441 0.52956 0.0
C3715 C 0.73752 0.54634 0.54321 0.0
C3716 C 0.72371 0.5431 0.56178 0.0
C3717 C 0.70763 0.55691 0.56555 0.0
C3718 C 0.75005 0.56816 0.50943 0.0
C3719 C 0.72532 0.52435 0.57702 0.0
H3720 H 0.75225 0.47258 0.50607 0.0
H3721 H 0.80489 0.52361 0.55274 0.0
H3722 H 0.70937 0.49806 0.52244 0.0
H3723 H 0.71834 0.5143 0.49947 0.0
H3724 H 0.71843 0.48228 0.49591 0.0
H3725 H 0.80145 0.5625 0.57154 0.0
H3726 H 0.78137 0.57535 0.55705 0.0
H3727 H 0.77423 0.56056 0.58147 0.0
H3728 H 0.71779 0.5915 0.52306 0.0
H3729 H 0.69639 0.55382 0.57908 0.0
H3730 H 0.74569 0.55166 0.49495 0.0
H3731 H 0.76777 0.5707 0.51578 0.0
H3732 H 0.74788 0.5842 0.50179 0.0
H3733 H 0.7201 0.50572 0.56583 0.0
H3734 H 0.71475 0.52563 0.59203 0.0
H3735 H 0.7427 0.52665 0.58452 0.0
C3736 C 0.22647 0.12325 0.51502 0.0
C3737 C 0.22986 0.14447 0.50529 0.0
C3738 C 0.20499 0.10937 0.51576 0.0
C3739 C 0.18637 0.11672 0.50635 0.0
C3740 C 0.18975 0.13771 0.49582 0.0
C3741 C 0.21139 0.15136 0.49552 0.0
C3742 C 0.20219 0.08728 0.52734 0.0
C3743 C 0.17044 0.14613 0.48541 0.0
C3744 C 0.1303 0.07113 0.49405 0.0
C3745 C 0.11984 0.0785 0.51436 0.0
C3746 C 0.15189 0.08334 0.49113 0.0
C3747 C 0.16338 0.10344 0.50894 0.0
C3748 C 0.15286 0.11099 0.52941 0.0
C3749 C 0.13129 0.09856 0.5318 0.0
C3750 C 0.16237 0.07476 0.46894 0.0
C3751 C 0.16446 0.1322 0.54895 0.0
H3752 H 0.24061 0.11779 0.52265 0.0
H3753 H 0.21383 0.16768 0.48789 0.0
H3754 H 0.19335 0.09041 0.54355 0.0
H3755 H 0.19193 0.07102 0.51495 0.0
H3756 H 0.2183 0.08317 0.53263 0.0
H3757 H 0.17585 0.16172 0.47634 0.0
H3758 H 0.15957 0.13088 0.47232 0.0
H3759 H 0.16032 0.15183 0.49984 0.0
H3760 H 0.12159 0.05587 0.48031 0.0
H3761 H 0.12349 0.10456 0.54756 0.0
H3762 H 0.17809 0.06976 0.474 0.0
H3763 H 0.16649 0.08979 0.45892 0.0
H3764 H 0.15136 0.05872 0.45689 0.0
H3765 H 0.18016 0.12862 0.55626 0.0
H3766 H 0.15414 0.1356 0.56388 0.0
H3767 H 0.1688 0.14905 0.5415 0.0
C3768 C 0.2082 0.93186 0.77735 0.0
C3769 C 0.21869 0.9559 0.77483 0.0
C3770 C 0.21956 0.91191 0.77727 0.0
C3771 C 0.24273 0.9145 0.7742 0.0
C3772 C 0.25338 0.93865 0.77139 0.0
C3773 C 0.24169 0.95842 0.77192 0.0
C3774 C 0.20646 0.88764 0.78074 0.0
C3775 C 0.27759 0.94377 0.76766 0.0
C3776 C 0.27755 0.86852 0.79586 0.0
C3777 C 0.27864 0.85068 0.77526 0.0
C3778 C 0.26666 0.88873 0.7957 0.0
C3779 C 0.25555 0.89257 0.77435 0.0
C3780 C 0.25659 0.87464 0.75339 0.0
C3781 C 0.26733 0.85428 0.75417 0.0
C3782 C 0.26662 0.90589 0.81903 0.0
C3783 C 0.2459 0.87666 0.7297 0.0
H3784 H 0.19071 0.92848 0.77967 0.0
H3785 H 0.25084 0.97615 0.76982 0.0
H3786 H 0.20665 0.87335 0.76482 0.0
H3787 H 0.21424 0.88227 0.79637 0.0
H3788 H 0.18898 0.888 0.78359 0.0
H3789 H 0.28361 0.96238 0.76403 0.0
H3790 H 0.28746 0.94192 0.78381 0.0
H3791 H 0.28064 0.93014 0.75246 0.0
H3792 H 0.28508 0.86642 0.81277 0.0
H3793 H 0.26638 0.84073 0.738 0.0
H3794 H 0.24931 0.90554 0.82309 0.0
H3795 H 0.27431 0.92487 0.81754 0.0
H3796 H 0.27572 0.90111 0.8342 0.0
H3797 H 0.22766 0.87284 0.73 0.0
H3798 H 0.24998 0.86368 0.71457 0.0
H3799 H 0.25129 0.89552 0.7265 0.0
C3800 C 0.39772 0.99175 0.0347 0.0
C3801 C 0.38167 0.98478 0.01492 0.0
C3802 C 0.42022 0.99884 0.03171 0.0
C3803 C 0.4267 0.99956 0.00844 0.0
C3804 C 0.41039 0.99462 0.9887 0.0
C3805 C 0.38801 0.98704 0.99214 0.0
C3806 C 0.4371 1.0036 0.05319 0.0
C3807 C 0.41668 0.99613 0.96382 0.0
C3808 C 0.48714 0.0292 0.00784 0.0
C3809 C 0.49651 0.00875 1.00312 0.0
C3810 C 0.46421 0.02655 0.00798 0.0
C3811 C 0.45049 1.00285 1.00464 0.0
C3812 C 0.45988 0.9821 0.99983 0.0
C3813 C 0.4828 0.98534 0.99893 0.0
C3814 C 0.45479 0.04909 0.01236 0.0
C3815 C 0.44586 0.9565 0.99671 0.0
H3816 H 0.39289 0.98996 0.05235 0.0
H3817 H 0.3756 0.98182 0.97684 0.0
H3818 H 0.4467 0.98913 0.0512 0.0
H3819 H 0.44901 0.02131 0.05443 0.0
H3820 H 0.4293 1.00385 0.07023 0.0
H3821 H 0.402 0.99356 0.95072 0.0
H3822 H 0.42768 0.01416 0.96405 0.0
H3823 H 0.42601 0.98199 0.95765 0.0
H3824 H 0.49774 0.04734 0.01169 0.0
H3825 H 0.49012 0.96954 0.9956 0.0
H3826 H 0.44079 0.04736 0.99867 0.0
H3827 H 0.46739 0.06595 0.01194 0.0
H3828 H 0.44823 0.05112 0.03008 0.0
H3829 H 0.43809 0.95417 0.0134 0.0
H3830 H 0.45565 0.94236 0.99244 0.0
H3831 H 0.4323 0.95333 0.98216 0.0
C3832 C 0.88977 0.58683 0.75025 0.0
C3833 C 0.89729 0.59316 0.77471 0.0
C3834 C 0.87981 0.60236 0.73901 0.0
C3835 C 0.87719 0.6247 0.75258 0.0
C3836 C 0.88463 0.63116 0.77732 0.0
C3837 C 0.89465 0.61531 0.78809 0.0
C3838 C 0.87214 0.59489 0.71258 0.0
C3839 C 0.88196 0.65477 0.79239 0.0
C3840 C 0.86755 0.67481 0.72009 0.0
C3841 C 0.84458 0.67211 0.71987 0.0
C3842 C 0.87844 0.65948 0.73064 0.0
C3843 C 0.866 0.64094 0.74104 0.0
C3844 C 0.84275 0.63778 0.74036 0.0
C3845 C 0.83233 0.65332 0.7297 0.0
C3846 C 0.90328 0.6634 0.73102 0.0
C3847 C 0.82888 0.61815 0.75113 0.0
H3848 H 0.89187 0.56979 0.73977 0.0
H3849 H 0.90051 0.62031 0.80698 0.0
H3850 H 0.85404 0.59344 0.70967 0.0
H3851 H 0.88034 0.60903 0.70299 0.0
H3852 H 0.87575 0.5771 0.7045 0.0
H3853 H 0.88894 0.65729 0.81129 0.0
H3854 H 0.89026 0.6705 0.78482 0.0
H3855 H 0.86415 0.65513 0.79212 0.0
H3856 H 0.8771 0.68927 0.71256 0.0
H3857 H 0.8145 0.65077 0.72912 0.0
H3858 H 0.90785 0.64617 0.72292 0.0
H3859 H 0.91097 0.66867 0.7498 0.0
H3860 H 0.91038 0.67788 0.72121 0.0
H3861 H 0.83115 0.59992 0.74252 0.0
H3862 H 0.81097 0.61811 0.74909 0.0
H3863 H 0.83437 0.62084 0.77048 0.0
C3864 C 0.85898 0.65478 0.04935 0.0
C3865 C 0.8461 0.6509 0.02739 0.0
C3866 C 0.87529 0.64147 0.05245 0.0
C3867 C 0.87949 0.62447 0.03286 0.0
C3868 C 0.86696 0.62106 0.0104 0.0
C3869 C 0.85014 0.63395 0.00807 0.0
C3870 C 0.88764 0.64515 0.07691 0.0
C3871 C 0.87137 0.60386 0.98881 0.0
C3872 C 0.93459 0.60505 0.04003 0.0
C3873 C 0.92798 0.58216 0.04651 0.0
C3874 C 0.91898 0.61856 0.03456 0.0
C3875 C 0.89618 0.60944 0.03629 0.0
C3876 C 0.88934 0.58619 0.04229 0.0
C3877 C 0.90515 0.57271 0.04675 0.0
C3878 C 0.92697 0.64287 0.02742 0.0
C3879 C 0.86531 0.57582 0.04479 0.0
H3880 H 0.85587 0.66779 0.06436 0.0
H3881 H 0.8404 0.6311 0.99097 0.0
H3882 H 0.88495 0.62755 0.0832 0.0
H3883 H 0.90567 0.65125 0.07598 0.0
H3884 H 0.88228 0.65883 0.09035 0.0
H3885 H 0.86148 0.60472 0.97224 0.0
H3886 H 0.8892 0.60829 0.98607 0.0
H3887 H 0.86735 0.58482 0.99177 0.0
H3888 H 0.95203 0.61284 0.03982 0.0
H3889 H 0.89948 0.55474 0.05077 0.0
H3890 H 0.92484 0.65781 0.04181 0.0
H3891 H 0.91699 0.6439 0.011 0.0
H3892 H 0.9447 0.64608 0.02411 0.0
H3893 H 0.85923 0.58846 0.05862 0.0
H3894 H 0.86269 0.55762 0.0499 0.0
H3895 H 0.85505 0.57404 0.02772 0.0
C3896 C 0.22173 0.11211 0.79711 0.0
C3897 C 0.2229 0.09229 0.77873 0.0
C3898 C 0.2329 0.13685 0.79727 0.0
C3899 C 0.246 0.14296 0.77858 0.0
C3900 C 0.24736 0.123 0.76004 0.0
C3901 C 0.23601 0.09839 0.76032 0.0
C3902 C 0.23046 0.15667 0.81761 0.0
C3903 C 0.26081 0.12768 0.73956 0.0
C3904 C 0.25803 0.2103 0.76702 0.0
C3905 C 0.27985 0.22092 0.77783 0.0
C3906 C 0.24712 0.18553 0.76707 0.0
C3907 C 0.25781 0.16995 0.77827 0.0
C3908 C 0.27981 0.18059 0.78933 0.0
C3909 C 0.29031 0.20546 0.78905 0.0
C3910 C 0.22389 0.17597 0.75497 0.0
C3911 C 0.29242 0.16561 0.80167 0.0
H3912 H 0.21179 0.10833 0.81153 0.0
H3913 H 0.23729 0.08381 0.74581 0.0
H3914 H 0.24701 0.16659 0.82665 0.0
H3915 H 0.22273 0.17017 0.81053 0.0
H3916 H 0.2202 0.14936 0.83108 0.0
H3917 H 0.26082 0.11059 0.72671 0.0
H3918 H 0.25409 0.14017 0.72981 0.0
H3919 H 0.27816 0.13686 0.74653 0.0
H3920 H 0.24928 0.2214 0.75824 0.0
H3921 H 0.30684 0.21288 0.79796 0.0
H3922 H 0.21256 0.16989 0.7681 0.0
H3923 H 0.22334 0.15982 0.74067 0.0
H3924 H 0.21763 0.18992 0.74693 0.0
H3925 H 0.28345 0.1597 0.81659 0.0
H3926 H 0.30944 0.1759 0.80893 0.0
H3927 H 0.29351 0.14886 0.78895 0.0
C3928 C 0.38276 0.97201 0.32593 0.0
C3929 C 0.40134 0.97386 0.31305 0.0
C3930 C 0.36906 0.94911 0.32613 0.0
C3931 C 0.37384 0.92775 0.3127 0.0
C3932 C 0.39291 0.92958 0.30014 0.0
C3933 C 0.40651 0.95257 0.30067 0.0
C3934 C 0.34926 0.94787 0.34023 0.0
C3935 C 0.39859 0.90733 0.2854 0.0
C3936 C 0.35262 0.86204 0.31752 0.0
C3937 C 0.33696 0.85392 0.29751 0.0
C3938 C 0.36303 0.88685 0.32447 0.0
C3939 C 0.35849 0.90349 0.31021 0.0
C3940 C 0.34186 0.8954 0.2906 0.0
C3941 C 0.33128 0.8706 0.28447 0.0
C3942 C 0.38003 0.89484 0.346 0.0
C3943 C 0.33664 0.91241 0.27475 0.0
H3944 H 0.37882 0.98846 0.33565 0.0
H3945 H 0.42088 0.95392 0.29067 0.0
H3946 H 0.33394 0.94279 0.3277 0.0
H3947 H 0.34865 0.93364 0.35123 0.0
H3948 H 0.3495 0.96558 0.35219 0.0
H3949 H 0.41415 0.91193 0.27689 0.0
H3950 H 0.40044 0.89393 0.29682 0.0
H3951 H 0.38496 0.89827 0.27111 0.0
H3952 H 0.35716 0.84888 0.3273 0.0
H3953 H 0.31948 0.864 0.26866 0.0
H3954 H 0.3787 0.91271 0.35655 0.0
H3955 H 0.39687 0.89709 0.33997 0.0
H3956 H 0.37817 0.88122 0.35785 0.0
H3957 H 0.33447 0.92972 0.28567 0.0
H3958 H 0.32142 0.90409 0.26229 0.0
H3959 H 0.35068 0.91703 0.264 0.0
C3960 C 0.57012 0.38593 0.58532 0.0
C3961 C 0.59108 0.38008 0.58645 0.0
C3962 C 0.56625 0.4064 0.57603 0.0
C3963 C 0.58386 0.42265 0.56833 0.0
C3964 C 0.60512 0.41683 0.56946 0.0
C3965 C 0.60832 0.39556 0.57791 0.0
C3966 C 0.54306 0.41058 0.5744 0.0
C3967 C 0.62485 0.43376 0.56279 0.0
C3968 C 0.57327 0.47228 0.53207 0.0
C3969 C 0.57315 0.49248 0.55033 0.0
C3970 C 0.57615 0.44944 0.53743 0.0
C3971 C 0.58044 0.44676 0.56162 0.0
C3972 C 0.58119 0.46748 0.57987 0.0
C3973 C 0.57719 0.48944 0.5741 0.0
C3974 C 0.57416 0.42798 0.51714 0.0
C3975 C 0.58653 0.46666 0.60584 0.0
H3976 H 0.55652 0.37423 0.5916 0.0
H3977 H 0.62466 0.39166 0.57881 0.0
H3978 H 0.54265 0.42871 0.58505 0.0
H3979 H 0.53765 0.41053 0.55553 0.0
H3980 H 0.53104 0.39636 0.58078 0.0
H3981 H 0.64017 0.42672 0.5641 0.0
H3982 H 0.62166 0.43651 0.54427 0.0
H3983 H 0.62767 0.45192 0.57483 0.0
H3984 H 0.57088 0.47418 0.51361 0.0
H3985 H 0.57757 0.50472 0.58859 0.0
H3986 H 0.56135 0.41236 0.52015 0.0
H3987 H 0.59002 0.422 0.5165 0.0
H3988 H 0.56966 0.43235 0.49954 0.0
H3989 H 0.57316 0.45349 0.61172 0.0
H3990 H 0.58846 0.48477 0.61779 0.0
H3991 H 0.60208 0.46025 0.60812 0.0
C3992 C 0.43847 0.76492 0.40188 0.0
C3993 C 0.45934 0.7739 0.39451 0.0
C3994 C 0.4185 0.76662 0.38945 0.0
C3995 C 0.41906 0.77815 0.36929 0.0
C3996 C 0.44012 0.78743 0.36193 0.0
C3997 C 0.45979 0.78498 0.37435 0.0
C3998 C 0.39669 0.75587 0.39784 0.0
C3999 C 0.44192 0.80026 0.34097 0.0
C4000 C 0.36827 0.76467 0.32232 0.0
C4001 C 0.35843 0.78466 0.32896 0.0
C4002 C 0.3875 0.76213 0.3354 0.0
C4003 C 0.39777 0.78018 0.35572 0.0
C4004 C 0.38779 0.80033 0.36265 0.0
C4005 C 0.36829 0.80219 0.34942 0.0
C4006 C 0.3969 0.74005 0.32729 0.0
C4007 C 0.39802 0.82033 0.38379 0.0
H4008 H 0.43771 0.75631 0.41735 0.0
H4009 H 0.47567 0.79224 0.36847 0.0
H4010 H 0.38745 0.77036 0.40296 0.0
H4011 H 0.38633 0.74208 0.38303 0.0
H4012 H 0.39885 0.74706 0.4134 0.0
H4013 H 0.45938 0.80708 0.33776 0.0
H4014 H 0.43316 0.78764 0.3245 0.0
H4015 H 0.43378 0.81594 0.34417 0.0
H4016 H 0.36084 0.75077 0.30679 0.0
H4017 H 0.36111 0.81783 0.35479 0.0
H4018 H 0.39856 0.73041 0.34232 0.0
H4019 H 0.41369 0.74587 0.32176 0.0
H4020 H 0.38642 0.727 0.31201 0.0
H4021 H 0.39947 0.81255 0.40012 0.0
H4022 H 0.38823 0.83459 0.38719 0.0
H4023 H 0.41501 0.8291 0.38059 0.0
C4024 C 0.10868 0.73422 0.08296 0.0
C4025 C 0.09009 0.74447 0.08642 0.0
C4026 C 0.10661 0.70859 0.07607 0.0
C4027 C 0.0854 0.69236 0.07239 0.0
C4028 C 0.06655 0.70272 0.07511 0.0
C4029 C 0.0691 0.72838 0.08205 0.0
C4030 C 0.12725 0.69883 0.07316 0.0
C4031 C 0.04356 0.68656 0.07148 0.0
C4032 C 0.07559 0.6243 0.04061 0.0
C4033 C 0.07488 0.61214 0.06001 0.0
C4034 C 0.07977 0.65024 0.04421 0.0
C4035 C 0.0829 0.66467 0.0678 0.0
C4036 C 0.08263 0.65235 0.08734 0.0
C4037 C 0.07858 0.62655 0.08322 0.0
C4038 C 0.08018 0.66216 0.02268 0.0
C4039 C 0.08605 0.66644 0.11281 0.0
H4040 H 0.12502 0.74622 0.08623 0.0
H4041 H 0.05453 0.7358 0.08468 0.0
H4042 H 0.12788 0.68523 0.0847 0.0
H4043 H 0.12691 0.68934 0.05436 0.0
H4044 H 0.14258 0.71351 0.0777 0.0
H4045 H 0.0305 0.69725 0.07262 0.0
H4046 H 0.04089 0.67407 0.05376 0.0
H4047 H 0.04169 0.67504 0.08529 0.0
H4048 H 0.0723 0.61354 0.02258 0.0
H4049 H 0.07788 0.61748 0.09839 0.0
H4050 H 0.09532 0.67692 0.02443 0.0
H4051 H 0.06574 0.67066 0.02158 0.0
H4052 H 0.07968 0.64888 0.00574 0.0
H4053 H 0.10189 0.68034 0.11579 0.0
H4054 H 0.08631 0.65441 0.12607 0.0
H4055 H 0.07257 0.6763 0.11616 0.0
C4056 C 0.10018 0.28801 0.90047 0.0
C4057 C 0.07865 0.27806 0.88909 0.0
C4058 C 0.11881 0.29076 0.88734 0.0
C4059 C 0.11606 0.28339 0.86206 0.0
C4060 C 0.09439 0.27291 0.8505 0.0
C4061 C 0.07602 0.27041 0.86409 0.0
C4062 C 0.14144 0.3021 0.90055 0.0
C4063 C 0.09055 0.26474 0.82365 0.0
C4064 C 0.15884 0.31402 0.8249 0.0
C4065 C 0.17121 0.29627 0.81844 0.0
C4066 C 0.14126 0.3102 0.83929 0.0
C4067 C 0.1356 0.28798 0.84763 0.0
C4068 C 0.14845 0.27025 0.84183 0.0
C4069 C 0.1661 0.27462 0.82743 0.0
C4070 C 0.1284 0.32985 0.84514 0.0
C4071 C 0.14313 0.24632 0.85029 0.0
H4072 H 0.10251 0.29398 0.91976 0.0
H4073 H 0.05953 0.26268 0.85506 0.0
H4074 H 0.15295 0.2899 0.89592 0.0
H4075 H 0.14832 0.31958 0.89499 0.0
H4076 H 0.14102 0.30576 0.92028 0.0
H4077 H 0.07296 0.25581 0.81742 0.0
H4078 H 0.09544 0.28071 0.81499 0.0
H4079 H 0.10102 0.25175 0.81753 0.0
H4080 H 0.16275 0.33095 0.81835 0.0
H4081 H 0.17536 0.26069 0.82244 0.0
H4082 H 0.12844 0.33519 0.86482 0.0
H4083 H 0.11089 0.32272 0.83754 0.0
H4084 H 0.13528 0.34641 0.83799 0.0
H4085 H 0.14298 0.24969 0.87002 0.0
H4086 H 0.1552 0.23488 0.84526 0.0
H4087 H 0.12634 0.23591 0.8424 0.0
C4088 C 0.5601 0.71667 0.89823 0.0
C4089 C 0.57348 0.73896 0.91054 0.0
C4090 C 0.55148 0.69801 0.91037 0.0
C4091 C 0.5563 0.70165 0.93549 0.0
C4092 C 0.57048 0.72377 0.94791 0.0
C4093 C 0.5789 0.74217 0.93529 0.0
C4094 C 0.53652 0.67475 0.89639 0.0
C4095 C 0.57608 0.72836 0.97468 0.0
C4096 C 0.51375 0.66731 0.96973 0.0
C4097 C 0.52348 0.64835 0.9744 0.0
C4098 C 0.52431 0.68473 0.9572 0.0
C4099 C 0.54512 0.68316 0.94895 0.0
C4100 C 0.55498 0.66392 0.95342 0.0
C4101 C 0.54407 0.64678 0.96616 0.0
C4102 C 0.51319 0.70492 0.95286 0.0
C4103 C 0.57697 0.66137 0.94465 0.0
H4104 H 0.55589 0.71399 0.87908 0.0
H4105 H 0.58925 0.75932 0.94491 0.0
H4106 H 0.54255 0.65869 0.9001 0.0
H4107 H 0.5196 0.67312 0.90211 0.0
H4108 H 0.5355 0.67412 0.87678 0.0
H4109 H 0.58857 0.74568 0.98143 0.0
H4110 H 0.56088 0.72926 0.98376 0.0
H4111 H 0.58253 0.71307 0.97978 0.0
H4112 H 0.49794 0.66874 0.97625 0.0
H4113 H 0.55151 0.63194 0.96943 0.0
H4114 H 0.51032 0.70425 0.93335 0.0
H4115 H 0.52411 0.72296 0.96087 0.0
H4116 H 0.49706 0.70364 0.96055 0.0
H4117 H 0.57576 0.65896 0.92485 0.0
H4118 H 0.58255 0.6456 0.94987 0.0
H4119 H 0.58977 0.67826 0.95196 0.0
C4120 C 0.06379 0.74218 0.72171 0.0
C4121 C 0.06055 0.76527 0.71939 0.0
C4122 C 0.08375 0.7395 0.73248 0.0
C4123 C 0.10085 0.76045 0.74134 0.0
C4124 C 0.09716 0.78396 0.7405 0.0
C4125 C 0.07702 0.78611 0.72942 0.0
C4126 C 0.08703 0.71409 0.73294 0.0
C4127 C 0.11492 0.80674 0.75007 0.0
C4128 C 0.14944 0.75011 0.77879 0.0
C4129 C 0.16431 0.74694 0.76157 0.0
C4130 C 0.12899 0.75549 0.77275 0.0
C4131 C 0.12325 0.75738 0.74889 0.0
C4132 C 0.13838 0.75457 0.73156 0.0
C4133 C 0.15874 0.74946 0.73814 0.0
C4134 C 0.11336 0.75865 0.79174 0.0
C4135 C 0.13279 0.75616 0.70584 0.0
H4136 H 0.05107 0.726 0.71412 0.0
H4137 H 0.07455 0.804 0.72776 0.0
H4138 H 0.09954 0.70991 0.7207 0.0
H4139 H 0.0934 0.7129 0.75116 0.0
H4140 H 0.07147 0.69991 0.72729 0.0
H4141 H 0.10845 0.82359 0.75113 0.0
H4142 H 0.12225 0.8062 0.76812 0.0
H4143 H 0.12843 0.80775 0.73816 0.0
H4144 H 0.15384 0.74844 0.79699 0.0
H4145 H 0.1701 0.74675 0.72472 0.0
H4146 H 0.0983 0.74366 0.78736 0.0
H4147 H 0.10798 0.77606 0.79222 0.0
H4148 H 0.12102 0.75859 0.80982 0.0
H4149 H 0.11827 0.74135 0.69776 0.0
H4150 H 0.14676 0.75455 0.69483 0.0
H4151 H 0.12822 0.77378 0.705 0.0
C4152 C 0.10871 0.40352 0.40444 0.0
C4153 C 0.09916 0.38368 0.41459 0.0
C4154 C 0.10562 0.42704 0.41327 0.0
C4155 C 0.0927 0.4306 0.43264 0.0
C4156 C 0.08317 0.41062 0.44301 0.0
C4157 C 0.08654 0.38741 0.43387 0.0
C4158 C 0.11596 0.44798 0.40181 0.0
C4159 C 0.06923 0.41371 0.46367 0.0
C4160 C 0.0978 0.4907 0.47492 0.0
C4161 C 0.07773 0.49664 0.46857 0.0
C4162 C 0.10369 0.47003 0.46229 0.0
C4163 C 0.08928 0.45519 0.44263 0.0
C4164 C 0.07 0.46234 0.43479 0.0
C4165 C 0.06441 0.48307 0.44792 0.0
C4166 C 0.12437 0.46304 0.47128 0.0
C4167 C 0.0544 0.44711 0.41367 0.0
H4168 H 0.11839 0.40064 0.38942 0.0
H4169 H 0.07904 0.37209 0.44169 0.0
H4170 H 0.10288 0.4562 0.39475 0.0
H4171 H 0.12711 0.46249 0.41537 0.0
H4172 H 0.12559 0.44214 0.38692 0.0
H4173 H 0.06373 0.39649 0.47029 0.0
H4174 H 0.07876 0.42785 0.47867 0.0
H4175 H 0.05437 0.42006 0.45808 0.0
H4176 H 0.10845 0.50152 0.49054 0.0
H4177 H 0.04901 0.48775 0.44278 0.0
H4178 H 0.13391 0.45755 0.45623 0.0
H4179 H 0.11965 0.44712 0.48006 0.0
H4180 H 0.13527 0.47819 0.4845 0.0
H4181 H 0.06372 0.44155 0.39843 0.0
H4182 H 0.04219 0.45705 0.40764 0.0
H4183 H 0.04522 0.4302 0.41874 0.0
C4184 C 0.43621 0.25421 0.19085 0.0
C4185 C 0.45605 0.26835 0.20358 0.0
C4186 C 0.41577 0.25532 0.19977 0.0
C4187 C 0.41521 0.27101 0.22187 0.0
C4188 C 0.43524 0.28526 0.23473 0.0
C4189 C 0.4554 0.28376 0.22546 0.0
C4190 C 0.39478 0.23965 0.18558 0.0
C4191 C 0.43542 0.30211 0.25829 0.0
C4192 C 0.35957 0.28695 0.23118 0.0
C4193 C 0.35044 0.27008 0.24488 0.0
C4194 C 0.38122 0.28851 0.22478 0.0
C4195 C 0.39364 0.27217 0.23155 0.0
C4196 C 0.38458 0.25551 0.24595 0.0
C4197 C 0.36295 0.25449 0.2522 0.0
C4198 C 0.3903 0.30675 0.2097 0.0
C4199 C 0.39711 0.23771 0.25359 0.0
H4200 H 0.43664 0.24224 0.17392 0.0
H4201 H 0.4707 0.29477 0.23536 0.0
H4202 H 0.38598 0.22714 0.19647 0.0
H4203 H 0.38351 0.25134 0.18121 0.0
H4204 H 0.39803 0.22856 0.16865 0.0
H4205 H 0.45245 0.31136 0.26649 0.0
H4206 H 0.42627 0.31626 0.25552 0.0
H4207 H 0.42693 0.29162 0.27098 0.0
H4208 H 0.34955 0.29837 0.2248 0.0
H4209 H 0.35547 0.24084 0.26206 0.0
H4210 H 0.39178 0.29693 0.19145 0.0
H4211 H 0.40711 0.31724 0.21743 0.0
H4212 H 0.37954 0.31981 0.20818 0.0
H4213 H 0.39634 0.22243 0.23828 0.0
H4214 H 0.38994 0.22998 0.26866 0.0
H4215 H 0.4148 0.24655 0.25912 0.0
C4216 C 0.63516 0.53927 0.34962 0.0
C4217 C 0.64352 0.51851 0.34025 0.0
C4218 C 0.62469 0.54192 0.37169 0.0
C4219 C 0.62242 0.52381 0.38643 0.0
C4220 C 0.63106 0.50292 0.3772 0.0
C4221 C 0.64098 0.50047 0.35474 0.0
C4222 C 0.61578 0.56442 0.3792 0.0
C4223 C 0.63012 0.48294 0.39137 0.0
C4224 C 0.61245 0.54244 0.45548 0.0
C4225 C 0.58973 0.53222 0.45695 0.0
C4226 C 0.62307 0.53955 0.43349 0.0
C4227 C 0.61114 0.52664 0.41095 0.0
C4228 C 0.58815 0.51657 0.41229 0.0
C4229 C 0.57816 0.51908 0.43464 0.0
C4230 C 0.64749 0.55036 0.43454 0.0
C4231 C 0.5737 0.5032 0.38972 0.0
H4232 H 0.6366 0.55371 0.33943 0.0
H4233 H 0.64716 0.48426 0.3487 0.0
H4234 H 0.59811 0.5591 0.38236 0.0
H4235 H 0.62493 0.57527 0.39631 0.0
H4236 H 0.61722 0.57619 0.36559 0.0
H4237 H 0.63847 0.46856 0.38312 0.0
H4238 H 0.63807 0.49078 0.40986 0.0
H4239 H 0.61263 0.47432 0.39279 0.0
H4240 H 0.62231 0.55265 0.47185 0.0
H4241 H 0.56083 0.51089 0.43442 0.0
H4242 H 0.65022 0.56518 0.42414 0.0
H4243 H 0.65607 0.53623 0.42623 0.0
H4244 H 0.65516 0.55794 0.45318 0.0
H4245 H 0.57487 0.51502 0.37617 0.0
H4246 H 0.55606 0.49753 0.39291 0.0
H4247 H 0.57957 0.48669 0.38202 0.0
C4248 C 0.3269 0.88515 0.08508 0.0
C4249 C 0.34228 0.90322 0.07755 0.0
C4250 C 0.33339 0.87264 0.10226 0.0
C4251 C 0.35585 0.87817 0.11185 0.0
C4252 C 0.37143 0.89657 0.10449 0.0
C4253 C 0.36441 0.90901 0.08746 0.0
C4254 C 0.31623 0.85332 0.10996 0.0
C4255 C 0.39553 0.90274 0.1142 0.0
C4256 C 0.36355 0.85612 0.16958 0.0
C4257 C 0.36665 0.83257 0.161 0.0
C4258 C 0.36143 0.87197 0.15393 0.0
C4259 C 0.36282 0.86416 0.12924 0.0
C4260 C 0.36807 0.84136 0.12084 0.0
C4261 C 0.36979 0.82573 0.13683 0.0
C4262 C 0.35591 0.89619 0.16357 0.0
C4263 C 0.37011 0.83264 0.09465 0.0
H4264 H 0.30977 0.88075 0.0775 0.0
H4265 H 0.37636 0.92296 0.08158 0.0
H4266 H 0.32057 0.83528 0.1053 0.0
H4267 H 0.31595 0.85752 0.12968 0.0
H4268 H 0.29934 0.85186 0.10138 0.0
H4269 H 0.40535 0.91822 0.10733 0.0
H4270 H 0.39718 0.90749 0.13404 0.0
H4271 H 0.40276 0.88656 0.10917 0.0
H4272 H 0.36165 0.8617 0.18839 0.0
H4273 H 0.37214 0.80755 0.13006 0.0
H4274 H 0.33831 0.89531 0.15787 0.0
H4275 H 0.36612 0.91106 0.15626 0.0
H4276 H 0.35847 0.90097 0.18344 0.0
H4277 H 0.35346 0.82774 0.08452 0.0
H4278 H 0.37749 0.81636 0.09164 0.0
H4279 H 0.38042 0.84734 0.0872 0.0
C4280 C 0.98312 0.58846 0.8801 0.0
C4281 C 0.96492 0.56862 0.87327 0.0
C4282 C 0.99715 0.59071 0.90099 0.0
C4283 C 0.99309 0.57238 0.91492 0.0
C4284 C 0.97418 0.5529 0.90862 0.0
C4285 C 0.96018 0.55143 0.888 0.0
C4286 C 0.0168 0.61211 0.90761 0.0
C4287 C 0.96939 0.53283 0.92288 0.0
C4288 C 0.03976 0.55666 0.95027 0.0
C4289 C 0.03548 0.56493 0.97367 0.0
C4290 C 0.02669 0.56006 0.93081 0.0
C4291 C 0.00926 0.57235 0.9351 0.0
C4292 C 0.00586 0.58204 0.95885 0.0
C4293 C 0.01884 0.57785 0.97792 0.0
C4294 C 0.03057 0.54904 0.90577 0.0
C4295 C 0.98783 0.59575 0.96414 0.0
H4296 H 0.98675 0.60185 0.86877 0.0
H4297 H 0.94614 0.53603 0.88276 0.0
H4298 H 0.01774 0.62057 0.92684 0.0
H4299 H 0.03228 0.60568 0.9048 0.0
H4300 H 0.01605 0.62627 0.89673 0.0
H4301 H 0.9536 0.51941 0.91601 0.0
H4302 H 0.98303 0.52297 0.92223 0.0
H4303 H 0.96854 0.54069 0.94194 0.0
H4304 H 0.0524 0.54628 0.94717 0.0
H4305 H 0.0157 0.58422 0.9962 0.0
H4306 H 0.03184 0.5628 0.89416 0.0
H4307 H 0.01629 0.53383 0.89791 0.0
H4308 H 0.04587 0.54183 0.90545 0.0
H4309 H 0.988 0.60944 0.95255 0.0
H4310 H 0.98957 0.60522 0.98317 0.0
H4311 H 0.97144 0.5828 0.96022 0.0
C4312 C 0.27906 0.23833 0.59108 0.0
C4313 C 0.2984 0.23506 0.58062 0.0
C4314 C 0.27955 0.24784 0.61576 0.0
C4315 C 0.29988 0.25439 0.63062 0.0
C4316 C 0.31962 0.25226 0.61988 0.0
C4317 C 0.31865 0.24267 0.59513 0.0
C4318 C 0.25814 0.25022 0.62605 0.0
C4319 C 0.3417 0.25889 0.63482 0.0
C4320 C 0.30604 0.28922 0.69607 0.0
C4321 C 0.30466 0.27004 0.70862 0.0
C4322 C 0.30365 0.28452 0.67067 0.0
C4323 C 0.30023 0.26014 0.65755 0.0
C4324 C 0.29816 0.24082 0.67035 0.0
C4325 C 0.30049 0.24601 0.6955 0.0
C4326 C 0.30558 0.3057 0.65794 0.0
C4327 C 0.29415 0.21453 0.65746 0.0
H4328 H 0.26333 0.23273 0.58008 0.0
H4329 H 0.33372 0.24026 0.58732 0.0
H4330 H 0.25578 0.24034 0.64109 0.0
H4331 H 0.25884 0.26977 0.63322 0.0
H4332 H 0.24355 0.24302 0.6125 0.0
H4333 H 0.35572 0.25858 0.62364 0.0
H4334 H 0.34416 0.27735 0.64619 0.0
H4335 H 0.34205 0.24577 0.64694 0.0
H4336 H 0.30968 0.30787 0.70605 0.0
H4337 H 0.29955 0.23111 0.70509 0.0
H4338 H 0.29179 0.30204 0.64355 0.0
H4339 H 0.32125 0.30807 0.64936 0.0
H4340 H 0.30545 0.32303 0.67037 0.0
H4341 H 0.27907 0.20993 0.64458 0.0
H4342 H 0.29208 0.20156 0.66996 0.0
H4343 H 0.30827 0.21183 0.64706 0.0
C4344 C 0.64667 0.50672 0.17979 0.0
C4345 C 0.64115 0.51651 0.20282 0.0
C4346 C 0.63626 0.50996 0.15748 0.0
C4347 C 0.61961 0.52397 0.15678 0.0
C4348 C 0.61392 0.53384 0.17996 0.0
C4349 C 0.62436 0.53002 0.20201 0.0
C4350 C 0.64317 0.49806 0.13425 0.0
C4351 C 0.59688 0.54917 0.1816 0.0
C4352 C 0.60926 0.55174 0.09848 0.0
C4353 C 0.58922 0.53693 0.08577 0.0
C4354 C 0.61854 0.54833 0.12119 0.0
C4355 C 0.60875 0.52858 0.1323 0.0
C4356 C 0.58873 0.51313 0.11924 0.0
C4357 C 0.57941 0.51745 0.09684 0.0
C4358 C 0.63933 0.5661 0.13331 0.0
C4359 C 0.57705 0.49148 0.12879 0.0
H4360 H 0.65934 0.49622 0.17909 0.0
H4361 H 0.61948 0.53816 0.21893 0.0
H4362 H 0.62846 0.48604 0.12289 0.0
H4363 H 0.6504 0.51225 0.12421 0.0
H4364 H 0.65551 0.48703 0.13708 0.0
H4365 H 0.59229 0.55367 0.20012 0.0
H4366 H 0.60358 0.56646 0.17561 0.0
H4367 H 0.58173 0.53959 0.16953 0.0
H4368 H 0.61796 0.56636 0.09049 0.0
H4369 H 0.5646 0.50486 0.08752 0.0
H4370 H 0.65298 0.55642 0.1344 0.0
H4371 H 0.63673 0.57391 0.1519 0.0
H4372 H 0.6445 0.58131 0.12368 0.0
H4373 H 0.58906 0.48123 0.1346 0.0
H4374 H 0.56424 0.47881 0.11531 0.0
H4375 H 0.56892 0.49798 0.14472 0.0
C4376 C 0.33294 0.872 0.95641 0.0
C4377 C 0.3147 0.88158 0.96313 0.0
C4378 C 0.33231 0.85719 0.93388 0.0
C4379 C 0.31288 0.85166 0.91782 0.0
C4380 C 0.29386 0.85982 0.92516 0.0
C4381 C 0.29504 0.87485 0.94775 0.0
C4382 C 0.35298 0.84901 0.92664 0.0
C4383 C 0.27275 0.85396 0.9086 0.0
C4384 C 0.32066 0.84552 0.85205 0.0
C4385 C 0.31559 0.82013 0.84412 0.0
C4386 C 0.31998 0.85589 0.87601 0.0
C4387 C 0.31355 0.84049 0.89242 0.0
C4388 C 0.30822 0.81481 0.88455 0.0
C4389 C 0.30955 0.80489 0.86046 0.0
C4390 C 0.32604 0.8834 0.8837 0.0
C4391 C 0.30095 0.79787 0.90149 0.0
H4392 H 0.34815 0.87702 0.96831 0.0
H4393 H 0.28084 0.88205 0.95298 0.0
H4394 H 0.34903 0.82927 0.91848 0.0
H4395 H 0.36007 0.85908 0.91295 0.0
H4396 H 0.36578 0.85238 0.94206 0.0
H4397 H 0.25861 0.85844 0.91815 0.0
H4398 H 0.27512 0.86463 0.89414 0.0
H4399 H 0.26846 0.83432 0.89999 0.0
H4400 H 0.32475 0.85744 0.83942 0.0
H4401 H 0.30577 0.78525 0.85441 0.0
H4402 H 0.33975 0.88889 0.89834 0.0
H4403 H 0.31168 0.89004 0.89074 0.0
H4404 H 0.33125 0.89267 0.86876 0.0
H4405 H 0.31406 0.80081 0.91647 0.0
H4406 H 0.2972 0.77834 0.89245 0.0
H4407 H 0.28595 0.80198 0.9094 0.0
C4408 C 0.99171 0.56188 0.74754 0.0
C4409 C 0.98529 0.54458 0.76182 0.0
C4410 C 0.00587 0.5579 0.72976 0.0
C4411 C 0.01365 0.53606 0.72618 0.0
C4412 C 0.00823 0.51919 0.74146 0.0
C4413 C 0.99412 0.52369 0.75918 0.0
C4414 C 0.01144 0.5764 0.7139 0.0
C4415 C 0.01621 0.49569 0.73816 0.0
C4416 C 0.02344 0.51193 0.66253 0.0
C4417 C 0.04652 0.51887 0.66337 0.0
C4418 C 0.01262 0.5171 0.68299 0.0
C4419 C 0.02523 0.5296 0.70481 0.0
C4420 C 0.04859 0.5363 0.70591 0.0
C4421 C 0.05901 0.53075 0.68511 0.0
C4422 C 0.98767 0.50944 0.68116 0.0
C4423 C 0.06249 0.54976 0.72887 0.0
H4424 H 0.98503 0.57814 0.74965 0.0
H4425 H 0.98925 0.51032 0.77028 0.0
H4426 H 0.0295 0.58079 0.71235 0.0
H4427 H 1.003 0.5686 0.69562 0.0
H4428 H 0.00621 0.59361 0.72073 0.0
H4429 H 0.01268 0.48594 0.75317 0.0
H4430 H 0.00787 0.48345 0.72129 0.0
H4431 H 0.03427 0.49933 0.73661 0.0
H4432 H 0.01381 0.50242 0.64577 0.0
H4433 H 0.07687 0.53625 0.6857 0.0
H4434 H 0.98057 0.5258 0.68555 0.0
H4435 H 0.98255 0.49773 0.69431 0.0
H4436 H 0.98041 0.49925 0.663 0.0
H4437 H 0.05831 0.56776 0.73455 0.0
H4438 H 0.08051 0.55277 0.72695 0.0
H4439 H 0.0588 0.53939 0.74338 0.0
C4440 C 0.29865 0.19844 0.42414 0.0
C4441 C 0.29613 0.2146 0.44495 0.0
C4442 C 0.29891 0.20536 0.40159 0.0
C4443 C 0.29626 0.229 0.39945 0.0
C4444 C 0.29354 0.24536 0.42039 0.0
C4445 C 0.29368 0.23806 0.44282 0.0
C4446 C 0.30219 0.18735 0.38002 0.0
C4447 C 0.29038 0.2706 0.41907 0.0
C4448 C 0.31729 0.2554 0.34558 0.0
C4449 C 0.29797 0.25058 0.32972 0.0
C4450 C 0.31697 0.24841 0.36809 0.0
C4451 C 0.29675 0.23666 0.37542 0.0
C4452 C 0.27713 0.23194 0.35957 0.0
C4453 C 0.27801 0.2387 0.33692 0.0
C4454 C 0.33839 0.25354 0.38403 0.0
C4455 C 0.2551 0.21992 0.36663 0.0
H4456 H 0.3006 0.18029 0.42548 0.0
H4457 H 0.29159 0.25068 0.45868 0.0
H4458 H 0.28781 0.18358 0.36632 0.0
H4459 H 0.31706 0.19526 0.37178 0.0
H4460 H 0.30422 0.16978 0.3846 0.0
H4461 H 0.28784 0.28093 0.43673 0.0
H4462 H 0.30505 0.2811 0.41239 0.0
H4463 H 0.27586 0.26929 0.40618 0.0
H4464 H 0.33284 0.26452 0.3403 0.0
H4465 H 0.26291 0.23511 0.32506 0.0
H4466 H 0.34155 0.23622 0.38817 0.0
H4467 H 0.33717 0.26549 0.40127 0.0
H4468 H 0.35277 0.26252 0.37568 0.0
H4469 H 0.25561 0.20142 0.36977 0.0
H4470 H 0.24125 0.21825 0.35272 0.0
H4471 H 0.25163 0.23063 0.38365 0.0
C4472 C 0.32967 0.57522 0.48988 0.0
C4473 C 0.33525 0.5968 0.50728 0.0
C4474 C 0.3444 0.55964 0.48606 0.0
C4475 C 0.36495 0.56556 0.50035 0.0
C4476 C 0.37047 0.58714 0.51823 0.0
C4477 C 0.35565 0.60265 0.5213 0.0
C4478 C 0.33814 0.53708 0.4665 0.0
C4479 C 0.39207 0.59384 0.53412 0.0
C4480 C 0.39638 0.51622 0.50627 0.0
C4481 C 0.4136 0.52186 0.49205 0.0
C4482 C 0.3801 0.53 0.50878 0.0
C4483 C 0.38093 0.54951 0.49639 0.0
C4484 C 0.39777 0.55452 0.48114 0.0
C4485 C 0.41407 0.54079 0.47938 0.0
C4486 C 0.36263 0.52438 0.52551 0.0
C4487 C 0.39894 0.57482 0.46724 0.0
H4488 H 0.31394 0.57074 0.47893 0.0
H4489 H 0.35993 0.61926 0.53485 0.0
H4490 H 0.35053 0.53784 0.45327 0.0
H4491 H 0.33823 0.52054 0.47411 0.0
H4492 H 0.32152 0.53507 0.45698 0.0
H4493 H 0.39344 0.61071 0.54783 0.0
H4494 H 0.39369 0.57868 0.54335 0.0
H4495 H 0.40616 0.59671 0.52311 0.0
H4496 H 0.39622 0.50172 0.51625 0.0
H4497 H 0.42741 0.54503 0.46833 0.0
H4498 H 0.34587 0.52157 0.51608 0.0
H4499 H 0.36458 0.54014 0.54062 0.0
H4500 H 0.36365 0.50788 0.5329 0.0
H4501 H 0.38275 0.57294 0.45689 0.0
H4502 H 0.41193 0.57498 0.45466 0.0
H4503 H 0.40258 0.59271 0.4798 0.0
C4504 C 0.88956 0.9603 0.54385 0.0
C4505 C 0.88708 0.93733 0.55024 0.0
C4506 C 0.9107 0.97504 0.54317 0.0
C4507 C 0.92991 0.96683 0.54939 0.0
C4508 C 0.92747 0.94404 0.55671 0.0
C4509 C 0.90614 0.92952 0.55685 0.0
C4510 C 0.91247 0.999 0.53494 0.0
C4511 C 0.94741 0.93468 0.56381 0.0
C4512 C 0.98327 0.98901 0.52221 0.0
C4513 C 0.99561 1.00716 0.54092 0.0
C4514 C 0.96187 0.97612 0.52468 0.0
C4515 C 0.95248 0.98113 0.54653 0.0
C4516 C 0.96483 0.99943 0.56553 0.0
C4517 C 0.98618 0.01227 0.56248 0.0
C4518 C 0.9493 0.95706 0.50379 0.0
C4519 C 0.95561 1.00524 0.58921 0.0
H4520 H 0.87494 0.96647 0.53864 0.0
H4521 H 0.90441 0.91187 0.56194 0.0
H4522 H 0.92329 0.01406 0.54824 0.0
H4523 H 0.9202 0.99813 0.51786 0.0
H4524 H 0.89607 1.00351 0.53211 0.0
H4525 H 0.94278 0.91762 0.57092 0.0
H4526 H 0.9567 0.93097 0.54806 0.0
H4527 H 0.95878 0.94871 0.57761 0.0
H4528 H 0.99025 0.98488 0.50543 0.0
H4529 H 0.99559 0.0261 0.57712 0.0
H4530 H 0.93317 0.96129 0.49894 0.0
H4531 H 0.94574 0.93887 0.50886 0.0
H4532 H 0.9586 0.95591 0.48775 0.0
H4533 H 0.93943 0.0102 0.58645 0.0
H4534 H 0.96694 0.02049 0.60192 0.0
H4535 H 0.95264 0.98882 0.59747 0.0
C4536 C 0.91105 0.1586 0.28662 0.0
C4537 C 0.90009 0.1334 0.28193 0.0
C4538 C 0.89977 0.17854 0.28632 0.0
C4539 C 0.87616 0.17457 0.28114 0.0
C4540 C 0.86499 0.14918 0.2765 0.0
C4541 C 0.87668 0.12959 0.27696 0.0
C4542 C 0.91345 0.20432 0.29153 0.0
C4543 C 0.84022 0.1425 0.27071 0.0
C4544 C 0.84389 0.22951 0.29708 0.0
C4545 C 0.84099 0.23789 0.27528 0.0
C4546 C 0.85465 0.20938 0.29921 0.0
C4547 C 0.86363 0.19638 0.27938 0.0
C4548 C 0.86056 0.20482 0.2575 0.0
C4549 C 0.84981 0.22478 0.25587 0.0
C4550 C 0.8566 0.20211 0.32317 0.0
C4551 C 0.86897 0.19277 0.2353 0.0
H4552 H 0.92888 0.16297 0.29054 0.0
H4553 H 0.86719 0.11088 0.27318 0.0
H4554 H 0.91183 0.21279 0.27565 0.0
H4555 H 0.90722 0.21541 0.30653 0.0
H4556 H 0.93126 0.20518 0.29624 0.0
H4557 H 0.83338 0.12253 0.26824 0.0
H4558 H 0.83226 0.15205 0.28527 0.0
H4559 H 0.83571 0.14868 0.2541 0.0
H4560 H 0.83795 0.23886 0.31276 0.0
H4561 H 0.84841 0.23035 0.23877 0.0
H4562 H 0.87433 0.20477 0.32959 0.0
H4563 H 0.84889 0.18243 0.32141 0.0
H4564 H 0.84855 0.21285 0.33679 0.0
H4565 H 0.88719 0.19516 0.23826 0.0
H4566 H 0.86501 0.20037 0.21938 0.0
H4567 H 0.86164 0.17284 0.23144 0.0
C4568 C 0.71025 0.10962 0.9961 0.0
C4569 C 0.72469 0.10879 0.01562 0.0
C4570 C 0.68726 0.10239 0.99626 0.0
C4571 C 0.67848 0.09431 0.0165 0.0
C4572 C 0.69307 0.09295 0.03599 0.0
C4573 C 0.716 0.10004 0.03526 0.0
C4574 C 0.67244 0.10451 0.97519 0.0
C4575 C 0.68448 0.08453 0.05785 0.0
C4576 C 0.61925 0.0999 0.02427 0.0
C4577 C 0.60742 0.07601 0.01493 0.0
C4578 C 0.64248 0.10594 0.02575 0.0
C4579 C 0.65406 0.08769 0.0173 0.0
C4580 C 0.64213 0.06348 0.00803 0.0
C4581 C 0.61896 0.05802 0.00674 0.0
C4582 C 0.65459 0.13198 0.03572 0.0
C4583 C 0.65371 0.04357 0.99838 0.0
H4584 H 0.71688 0.11657 0.98091 0.0
H4585 H 0.72711 0.0995 0.05046 0.0
H4586 H 0.65791 0.0889 0.97097 0.0
H4587 H 0.66619 0.12143 0.97972 0.0
H4588 H 0.68138 0.10542 0.95897 0.0
H4589 H 0.69794 0.08562 0.07201 0.0
H4590 H 0.67306 0.09582 0.06536 0.0
H4591 H 0.67508 0.06533 0.05267 0.0
H4592 H 0.61027 0.11389 0.03019 0.0
H4593 H 0.60991 0.03977 0.99862 0.0
H4594 H 0.66262 0.14011 0.0213 0.0
H4595 H 0.66786 0.1325 0.04984 0.0
H4596 H 0.64335 0.14346 0.04339 0.0
H4597 H 0.66115 0.04753 0.9819 0.0
H4598 H 0.64224 0.02527 0.99398 0.0
H4599 H 0.66736 0.04299 0.01157 0.0
C4600 C 0.25954 0.49117 0.26707 0.0
C4601 C 0.23758 0.48896 0.27252 0.0
C4602 C 0.273 0.4771 0.2758 0.0
C4603 C 0.26415 0.46023 0.29005 0.0
C4604 C 0.24182 0.45749 0.2951 0.0
C4605 C 0.22883 0.47202 0.28639 0.0
C4606 C 0.29678 0.48061 0.27018 0.0
C4607 C 0.23173 0.43938 0.30991 0.0
C4608 C 0.29248 0.40857 0.29569 0.0
C4609 C 0.30418 0.41668 0.31855 0.0
C4610 C 0.27948 0.42257 0.28617 0.0
C4611 C 0.27826 0.44545 0.29973 0.0
C4612 C 0.29025 0.45402 0.32264 0.0
C4613 C 0.30298 0.43948 0.33184 0.0
C4614 C 0.26687 0.41272 0.2617 0.0
C4615 C 0.28947 0.47847 0.33752 0.0
H4616 H 0.2664 0.50437 0.25646 0.0
H4617 H 0.21184 0.47025 0.2906 0.0
H4618 H 0.308 0.4867 0.28705 0.0
H4619 H 0.30002 0.46302 0.26102 0.0
H4620 H 0.30104 0.4943 0.25863 0.0
H4621 H 0.21395 0.43903 0.31167 0.0
H4622 H 0.23332 0.42076 0.30168 0.0
H4623 H 0.24077 0.44404 0.32808 0.0
H4624 H 0.29349 0.39123 0.28508 0.0
H4625 H 0.31168 0.44581 0.34962 0.0
H4626 H 0.27168 0.42574 0.24964 0.0
H4627 H 0.24886 0.41072 0.26309 0.0
H4628 H 0.26987 0.39471 0.25334 0.0
H4629 H 0.29459 0.49314 0.32726 0.0
H4630 H 0.30039 0.48289 0.35459 0.0
H4631 H 0.27227 0.47856 0.3417 0.0
C4632 C 0.2738 0.44475 0.01358 0.0
C4633 C 0.27461 0.43159 0.03204 0.0
C4634 C 0.25801 0.459 0.01193 0.0
C4635 C 0.24272 0.46047 0.02932 0.0
C4636 C 0.24347 0.44725 0.04804 0.0
C4637 C 0.25928 0.43287 0.04908 0.0
C4638 C 0.25773 0.47255 0.99154 0.0
C4639 C 0.22773 0.44852 0.06714 0.0
C4640 C 0.21802 0.51688 0.03627 0.0
C4641 C 0.1972 0.50781 0.02303 0.0
C4642 C 0.23262 0.50154 0.03911 0.0
C4643 C 0.22646 0.47645 0.02822 0.0
C4644 C 0.2052 0.46703 0.01537 0.0
C4645 C 0.19079 0.48277 0.01308 0.0
C4646 C 0.25489 0.51237 0.05331 0.0
C4647 C 0.198 0.44048 1.0033 0.0
H4648 H 0.28547 0.44379 1.00025 0.0
H4649 H 0.25978 0.42279 0.06342 0.0
H4650 H 0.24108 0.4673 0.98137 0.0
H4651 H 0.26116 0.4925 0.99869 0.0
H4652 H 0.27016 0.46883 0.97899 0.0
H4653 H 0.23025 0.43698 0.08034 0.0
H4654 H 0.23 0.46769 0.0768 0.0
H4655 H 0.21037 0.44254 0.05883 0.0
H4656 H 0.223 0.53615 0.04428 0.0
H4657 H 0.17481 0.47565 1.00269 0.0
H4658 H 0.26823 0.51124 0.04135 0.0
H4659 H 0.25748 0.5018 0.06736 0.0
H4660 H 0.2566 0.5318 0.06199 0.0
H4661 H 0.20888 0.43637 0.98911 0.0
H4662 H 0.18058 0.43568 0.99507 0.0
H4663 H 0.1997 0.42861 0.01638 0.0
C4664 C 0.89285 0.988 0.30011 0.0
C4665 C 0.89495 0.99693 0.27859 0.0
C4666 C 0.88203 0.96333 0.30071 0.0
C4667 C 0.87203 0.94641 0.27934 0.0
C4668 C 0.87372 0.9555 0.2576 0.0
C4669 C 0.88527 0.98005 0.25744 0.0
C4670 C 0.88173 0.95521 0.32443 0.0
C4671 C 0.86311 0.93919 0.23423 0.0
C4672 C 0.86053 0.87531 0.27605 0.0
C4673 C 0.83805 0.86855 0.28044 0.0
C4674 C 0.87159 0.90001 0.27595 0.0
C4675 C 0.86023 0.91946 0.27973 0.0
C4676 C 0.83755 0.91282 0.2841 0.0
C4677 C 0.82712 0.88807 0.28492 0.0
C4678 C 0.89577 0.9053 0.27199 0.0
C4679 C 0.82403 0.932 0.28782 0.0
H4680 H 0.90025 1.00026 0.31672 0.0
H4681 H 0.8865 0.98613 0.24055 0.0
H4682 H 0.86441 0.94953 0.32855 0.0
H4683 H 0.88924 0.93909 0.32348 0.0
H4684 H 0.89087 0.96985 0.33934 0.0
H4685 H 0.86438 0.94902 0.21907 0.0
H4686 H 0.87116 0.92353 0.23015 0.0
H4687 H 0.84537 0.9316 0.23568 0.0
H4688 H 0.8698 0.86115 0.2728 0.0
H4689 H 0.81026 0.88419 0.28926 0.0
H4690 H 0.90534 0.91955 0.28696 0.0
H4691 H 0.89803 0.91256 0.25532 0.0
H4692 H 0.9028 0.8888 0.27059 0.0
H4693 H 0.83069 0.9455 0.30453 0.0
H4694 H 0.80631 0.92404 0.28905 0.0
H4695 H 0.82522 0.94207 0.27285 0.0
C4696 C 0.74865 0.11111 0.73392 0.0
C4697 C 0.73494 0.10412 0.7512 0.0
C4698 C 0.7607 0.1353 0.73655 0.0
C4699 C 0.7593 0.15271 0.75714 0.0
C4700 C 0.74553 0.14563 0.7747 0.0
C4701 C 0.73337 0.12147 0.77141 0.0
C4702 C 0.77468 0.14229 0.7172 0.0
C4703 C 0.74373 0.16353 0.79708 0.0
C4704 C 0.80335 0.21105 0.77892 0.0
C4705 C 0.79259 0.22844 0.77239 0.0
C4706 C 0.79321 0.18606 0.7729 0.0
C4707 C 0.77175 0.17852 0.76034 0.0
C4708 C 0.76113 0.19612 0.75321 0.0
C4709 C 0.7715 0.22092 0.75982 0.0
C4710 C 0.80496 0.1679 0.7811 0.0
C4711 C 0.73836 0.18891 0.73965 0.0
H4712 H 0.74982 0.09771 0.71826 0.0
H4713 H 0.72291 0.11606 0.78494 0.0
H4714 H 0.76842 0.15634 0.70943 0.0
H4715 H 0.79202 0.15031 0.72494 0.0
H4716 H 0.77451 0.12649 0.70259 0.0
H4717 H 0.7325 0.15493 0.80912 0.0
H4718 H 0.76033 0.17121 0.8071 0.0
H4719 H 0.73744 0.17903 0.79227 0.0
H4720 H 0.81945 0.21708 0.78921 0.0
H4721 H 0.76277 0.23454 0.75586 0.0
H4722 H 0.80495 0.15264 0.76603 0.0
H4723 H 0.79603 0.15996 0.79513 0.0
H4724 H 0.82235 0.17642 0.78854 0.0
H4725 H 0.73768 0.17395 0.72407 0.0
H4726 H 0.73355 0.20449 0.73314 0.0
H4727 H 0.72596 0.18202 0.75144 0.0
loop_
_geom_bond_atom_site_label_1
_geom_bond_atom_site_label_2
_geom_bond_distance
_geom_bond_site_symmetry_2
_ccdc_geom_bond_type
In0 O1 2.294 . S
In0 O2 2.326 . S
In0 O6 2.266 . S
In0 O7 2.326 . S
In0 O8 2.266 . S
In0 O9 2.326 . S
In0 O11 2.294 . S
In0 O12 2.326 . S
O1 In0 2.294 . S
O1 C10 1.240 . S
O2 In0 2.326 . S
O2 C10 1.252 . S
C3 O6 1.252 . S
C3 O7 1.260 . S
C4 O11 1.240 . S
C4 O12 1.252 . S
C5 O8 1.252 . S
C5 O9 1.260 . S
O6 In0 2.266 . S
O6 C3 1.252 . S
O7 In0 2.326 . S
O7 C3 1.260 . S
O8 In0 2.266 . S
O8 C5 1.252 . S
O9 In0 2.326 . S
O9 C5 1.260 . S
C10 O1 1.240 . S
C10 O2 1.252 . S
O11 In0 2.294 . S
O11 C4 1.240 . S
O12 In0 2.326 . S
O12 C4 1.252 . S
In13 O14 2.294 . S
In13 O15 2.326 . S
In13 O19 2.266 1_455 S
In13 O20 2.326 1_455 S
In13 O21 2.262 1_455 S
In13 O22 2.320 1_455 S
In13 O24 2.298 . S
In13 O25 2.332 . S
O14 In13 2.294 . S
O14 C23 1.240 . S
O15 In13 2.326 . S
O15 C23 1.252 . S
C16 O19 1.252 . S
C16 O20 1.260 . S
C17 O24 1.240 . S
C17 O25 1.252 . S
C18 O21 1.252 . S
C18 O22 1.260 . S
O19 In13 2.266 1_655 S
O19 C16 1.252 . S
O20 In13 2.326 1_655 S
O20 C16 1.260 . S
O21 In13 2.262 1_655 S
O21 C18 1.252 . S
O22 In13 2.320 1_655 S
O22 C18 1.260 . S
C23 O14 1.240 . S
C23 O15 1.252 . S
O24 In13 2.298 . S
O24 C17 1.240 . S
O25 In13 2.332 . S
O25 C17 1.252 . S
In26 O27 2.294 . S
In26 O28 2.326 . S
In26 O32 2.266 . S
In26 O33 2.326 . S
In26 O34 2.266 . S
In26 O35 2.326 . S
In26 O37 2.294 . S
In26 O38 2.326 . S
O27 In26 2.294 . S
O27 C36 1.240 . S
O28 In26 2.326 . S
O28 C36 1.252 . S
C29 O32 1.252 . S
C29 O33 1.260 . S
C30 O37 1.240 . S
C30 O38 1.252 . S
C31 O34 1.252 . S
C31 O35 1.260 . S
O32 In26 2.266 . S
O32 C29 1.252 . S
O33 In26 2.326 . S
O33 C29 1.260 . S
O34 In26 2.266 . S
O34 C31 1.252 . S
O35 In26 2.326 . S
O35 C31 1.260 . S
C36 O27 1.240 . S
C36 O28 1.252 . S
O37 In26 2.294 . S
O37 C30 1.240 . S
O38 In26 2.326 . S
O38 C30 1.252 . S
In39 O40 2.294 . S
In39 O41 2.326 . S
In39 O45 2.266 . S
In39 O46 2.326 . S
In39 O47 2.266 . S
In39 O48 2.326 . S
In39 O50 2.294 . S
In39 O51 2.326 . S
O40 In39 2.294 . S
O40 C49 1.240 . S
O41 In39 2.326 . S
O41 C49 1.252 . S
C42 O45 1.252 . S
C42 O46 1.260 . S
C43 O50 1.240 . S
C43 O51 1.252 . S
C44 O47 1.252 . S
C44 O48 1.260 . S
O45 In39 2.266 . S
O45 C42 1.252 . S
O46 In39 2.326 . S
O46 C42 1.260 . S
O47 In39 2.266 . S
O47 C44 1.252 . S
O48 In39 2.326 . S
O48 C44 1.260 . S
C49 O40 1.240 . S
C49 O41 1.252 . S
O50 In39 2.294 . S
O50 C43 1.240 . S
O51 In39 2.326 . S
O51 C43 1.252 . S
In52 O53 2.294 . S
In52 O54 2.326 . S
In52 O58 2.266 . S
In52 O59 2.326 . S
In52 O60 2.266 . S
In52 O61 2.326 . S
In52 O63 2.294 . S
In52 O64 2.326 . S
O53 In52 2.294 . S
O53 C62 1.240 . S
O54 In52 2.326 . S
O54 C62 1.252 . S
C55 O58 1.252 . S
C55 O59 1.260 . S
C56 O63 1.240 . S
C56 O64 1.252 . S
C57 O60 1.252 . S
C57 O61 1.260 . S
O58 In52 2.266 . S
O58 C55 1.252 . S
O59 In52 2.326 . S
O59 C55 1.260 . S
O60 In52 2.266 . S
O60 C57 1.252 . S
O61 In52 2.326 . S
O61 C57 1.260 . S
C62 O53 1.240 . S
C62 O54 1.252 . S
O63 In52 2.294 . S
O63 C56 1.240 . S
O64 In52 2.326 . S
O64 C56 1.252 . S
In65 O66 2.294 . S
In65 O67 2.326 . S
In65 O71 2.266 . S
In65 O72 2.326 . S
In65 O73 2.266 . S
In65 O74 2.326 . S
In65 O76 2.294 . S
In65 O77 2.326 . S
O66 In65 2.294 . S
O66 C75 1.240 . S
O67 In65 2.326 . S
O67 C75 1.252 . S
C68 O71 1.252 . S
C68 O72 1.260 . S
C69 O76 1.240 . S
C69 O77 1.252 . S
C70 O73 1.252 . S
C70 O74 1.260 . S
O71 In65 2.266 . S
O71 C68 1.252 . S
O72 In65 2.326 . S
O72 C68 1.260 . S
O73 In65 2.266 . S
O73 C70 1.252 . S
O74 In65 2.326 . S
O74 C70 1.260 . S
C75 O66 1.240 . S
C75 O67 1.252 . S
O76 In65 2.294 . S
O76 C69 1.240 . S
O77 In65 2.326 . S
O77 C69 1.252 . S
In78 O79 2.294 . S
In78 O80 2.326 . S
In78 O84 2.266 . S
In78 O85 2.326 . S
In78 O86 2.266 . S
In78 O87 2.326 . S
In78 O89 2.294 . S
In78 O90 2.326 . S
O79 In78 2.294 . S
O79 C88 1.240 . S
O80 In78 2.326 . S
O80 C88 1.252 . S
C81 O84 1.252 . S
C81 O85 1.260 . S
C82 O89 1.240 . S
C82 O90 1.252 . S
C83 O86 1.252 . S
C83 O87 1.260 . S
O84 In78 2.266 . S
O84 C81 1.252 . S
O85 In78 2.326 . S
O85 C81 1.260 . S
O86 In78 2.266 . S
O86 C83 1.252 . S
O87 In78 2.326 . S
O87 C83 1.260 . S
C88 O79 1.240 . S
C88 O80 1.252 . S
O89 In78 2.294 . S
O89 C82 1.240 . S
O90 In78 2.326 . S
O90 C82 1.252 . S
In91 O92 2.294 . S
In91 O93 2.326 . S
In91 O97 2.266 . S
In91 O98 2.326 . S
In91 O99 2.266 1_455 S
In91 O100 2.326 1_455 S
In91 O102 2.294 . S
In91 O103 2.326 . S
O92 In91 2.294 . S
O92 C101 1.240 . S
O93 In91 2.326 . S
O93 C101 1.252 . S
C94 O97 1.252 . S
C94 O98 1.260 . S
C95 O102 1.240 . S
C95 O103 1.252 . S
C96 O99 1.252 . S
C96 O100 1.260 . S
O97 In91 2.266 . S
O97 C94 1.252 . S
O98 In91 2.326 . S
O98 C94 1.260 . S
O99 In91 2.266 1_655 S
O99 C96 1.252 . S
O100 In91 2.326 1_655 S
O100 C96 1.260 . S
C101 O92 1.240 . S
C101 O93 1.252 . S
O102 In91 2.294 . S
O102 C95 1.240 . S
O103 In91 2.326 . S
O103 C95 1.252 . S
In104 O105 2.294 . S
In104 O106 2.326 . S
In104 O110 2.266 . S
In104 O111 2.326 . S
In104 O112 2.266 1_545 S
In104 O113 2.326 1_545 S
In104 O115 2.294 . S
In104 O116 2.326 . S
O105 In104 2.294 . S
O105 C114 1.240 . S
O106 In104 2.326 . S
O106 C114 1.252 . S
C107 O110 1.252 . S
C107 O111 1.260 . S
C108 O115 1.240 . S
C108 O116 1.252 . S
C109 O112 1.252 . S
C109 O113 1.260 . S
O110 In104 2.266 . S
O110 C107 1.252 . S
O111 In104 2.326 . S
O111 C107 1.260 . S
O112 In104 2.266 1_565 S
O112 C109 1.252 . S
O113 In104 2.326 1_565 S
O113 C109 1.260 . S
C114 O105 1.240 . S
C114 O106 1.252 . S
O115 In104 2.294 . S
O115 C108 1.240 . S
O116 In104 2.326 . S
O116 C108 1.252 . S
In117 O118 2.294 . S
In117 O119 2.326 . S
In117 O123 2.266 . S
In117 O124 2.326 . S
In117 O125 2.266 . S
In117 O126 2.326 . S
In117 O128 2.294 . S
In117 O129 2.326 . S
O118 In117 2.294 . S
O118 C127 1.240 . S
O119 In117 2.326 . S
O119 C127 1.252 . S
C120 O123 1.252 . S
C120 O124 1.260 . S
C121 O128 1.240 . S
C121 O129 1.252 . S
C122 O125 1.252 . S
C122 O126 1.260 . S
O123 In117 2.266 . S
O123 C120 1.252 . S
O124 In117 2.326 . S
O124 C120 1.260 . S
O125 In117 2.266 . S
O125 C122 1.252 . S
O126 In117 2.326 . S
O126 C122 1.260 . S
C127 O118 1.240 . S
C127 O119 1.252 . S
O128 In117 2.294 . S
O128 C121 1.240 . S
O129 In117 2.326 . S
O129 C121 1.252 . S
In130 O131 2.294 1_545 S
In130 O132 2.326 1_545 S
In130 O136 2.266 . S
In130 O137 2.326 . S
In130 O138 2.264 . S
In130 O139 2.322 . S
In130 O141 2.296 1_545 S
In130 O142 2.330 1_545 S
O131 In130 2.294 1_565 S
O131 C140 1.240 . S
O132 In130 2.326 1_565 S
O132 C140 1.252 . S
C133 O136 1.252 . S
C133 O137 1.260 . S
C134 O141 1.240 . S
C134 O142 1.252 . S
C135 O138 1.252 . S
C135 O139 1.260 . S
O136 In130 2.266 . S
O136 C133 1.252 . S
O137 In130 2.326 . S
O137 C133 1.260 . S
O138 In130 2.264 . S
O138 C135 1.252 . S
O139 In130 2.322 . S
O139 C135 1.260 . S
C140 O131 1.240 . S
C140 O132 1.252 . S
O141 In130 2.296 1_565 S
O141 C134 1.240 . S
O142 In130 2.330 1_565 S
O142 C134 1.252 . S
In143 O144 2.294 . S
In143 O145 2.326 . S
In143 O149 2.266 1_554 S
In143 O150 2.326 1_554 S
In143 O151 2.266 . S
In143 O152 2.326 . S
In143 O154 2.294 . S
In143 O155 2.326 . S
O144 In143 2.294 . S
O144 C153 1.240 . S
O145 In143 2.326 . S
O145 C153 1.252 . S
C146 O149 1.252 . S
C146 O150 1.260 . S
C147 O154 1.240 . S
C147 O155 1.252 . S
C148 O151 1.252 . S
C148 O152 1.260 . S
O149 In143 2.266 1_556 S
O149 C146 1.252 . S
O150 In143 2.326 1_556 S
O150 C146 1.260 . S
O151 In143 2.266 . S
O151 C148 1.252 . S
O152 In143 2.326 . S
O152 C148 1.260 . S
C153 O144 1.240 . S
C153 O145 1.252 . S
O154 In143 2.294 . S
O154 C147 1.240 . S
O155 In143 2.326 . S
O155 C147 1.252 . S
In156 O157 2.294 . S
In156 O158 2.326 . S
In156 O162 2.266 . S
In156 O163 2.326 1_554 S
In156 O164 2.266 . S
In156 O165 2.326 . S
In156 O167 2.294 . S
In156 O168 2.326 . S
O157 In156 2.294 . S
O157 C166 1.240 . S
O158 In156 2.326 . S
O158 C166 1.252 . S
C159 O162 1.252 1_556 S
C159 O163 1.260 . S
C160 O167 1.240 . S
C160 O168 1.252 . S
C161 O164 1.252 . S
C161 O165 1.260 . S
O162 In156 2.266 . S
O162 C159 1.252 1_554 S
O163 In156 2.326 1_556 S
O163 C159 1.260 . S
O164 In156 2.266 . S
O164 C161 1.252 . S
O165 In156 2.326 . S
O165 C161 1.260 . S
C166 O157 1.240 . S
C166 O158 1.252 . S
O167 In156 2.294 . S
O167 C160 1.240 . S
O168 In156 2.326 . S
O168 C160 1.252 . S
In169 O170 2.294 . S
In169 O171 2.326 . S
In169 O175 2.266 . S
In169 O176 2.326 . S
In169 O177 2.266 . S
In169 O178 2.326 1_554 S
In169 O180 2.294 . S
In169 O181 2.326 . S
O170 In169 2.294 . S
O170 C179 1.240 . S
O171 In169 2.326 . S
O171 C179 1.252 . S
C172 O175 1.252 . S
C172 O176 1.260 . S
C173 O180 1.240 . S
C173 O181 1.252 . S
C174 O177 1.252 1_556 S
C174 O178 1.260 . S
O175 In169 2.266 . S
O175 C172 1.252 . S
O176 In169 2.326 . S
O176 C172 1.260 . S
O177 In169 2.266 . S
O177 C174 1.252 1_554 S
O178 In169 2.326 1_556 S
O178 C174 1.260 . S
C179 O170 1.240 . S
C179 O171 1.252 . S
O180 In169 2.294 . S
O180 C173 1.240 . S
O181 In169 2.326 . S
O181 C173 1.252 . S
In182 O183 2.294 . S
In182 O184 2.326 . S
In182 O188 2.266 . S
In182 O189 2.326 . S
In182 O190 2.266 . S
In182 O191 2.326 . S
In182 O193 2.294 . S
In182 O194 2.326 . S
O183 In182 2.294 . S
O183 C192 1.240 . S
O184 In182 2.326 . S
O184 C192 1.252 . S
C185 O188 1.252 . S
C185 O189 1.260 . S
C186 O193 1.240 . S
C186 O194 1.252 . S
C187 O190 1.252 . S
C187 O191 1.260 . S
O188 In182 2.266 . S
O188 C185 1.252 . S
O189 In182 2.326 . S
O189 C185 1.260 . S
O190 In182 2.266 . S
O190 C187 1.252 . S
O191 In182 2.326 . S
O191 C187 1.260 . S
C192 O183 1.240 . S
C192 O184 1.252 . S
O193 In182 2.294 . S
O193 C186 1.240 . S
O194 In182 2.326 . S
O194 C186 1.252 . S
In195 O196 2.294 . S
In195 O197 2.326 . S
In195 O201 2.266 . S
In195 O202 2.326 . S
In195 O203 2.266 . S
In195 O204 2.326 . S
In195 O206 2.294 . S
In195 O207 2.326 . S
O196 In195 2.294 . S
O196 C205 1.240 . S
O197 In195 2.326 . S
O197 C205 1.252 . S
C198 O201 1.252 . S
C198 O202 1.260 . S
C199 O206 1.240 . S
C199 O207 1.252 . S
C200 O203 1.252 . S
C200 O204 1.260 . S
O201 In195 2.266 . S
O201 C198 1.252 . S
O202 In195 2.326 . S
O202 C198 1.260 . S
O203 In195 2.266 . S
O203 C200 1.252 . S
O204 In195 2.326 . S
O204 C200 1.260 . S
C205 O196 1.240 . S
C205 O197 1.252 . S
O206 In195 2.294 . S
O206 C199 1.240 . S
O207 In195 2.326 . S
O207 C199 1.252 . S
In208 O209 2.294 . S
In208 O210 2.326 . S
In208 O214 2.266 . S
In208 O215 2.326 . S
In208 O216 2.266 . S
In208 O217 2.326 . S
In208 O219 2.294 . S
In208 O220 2.326 . S
O209 In208 2.294 . S
O209 C218 1.240 . S
O210 In208 2.326 . S
O210 C218 1.252 . S
C211 O214 1.252 . S
C211 O215 1.260 . S
C212 O219 1.240 . S
C212 O220 1.252 . S
C213 O216 1.252 . S
C213 O217 1.260 . S
O214 In208 2.266 . S
O214 C211 1.252 . S
O215 In208 2.326 . S
O215 C211 1.260 . S
O216 In208 2.266 . S
O216 C213 1.252 . S
O217 In208 2.326 . S
O217 C213 1.260 . S
C218 O209 1.240 . S
C218 O210 1.252 . S
O219 In208 2.294 . S
O219 C212 1.240 . S
O220 In208 2.326 . S
O220 C212 1.252 . S
In221 O222 2.294 . S
In221 O223 2.326 . S
In221 O227 2.266 . S
In221 O228 2.326 . S
In221 O229 2.266 . S
In221 O230 2.326 . S
In221 O232 2.294 . S
In221 O233 2.326 . S
O222 In221 2.294 . S
O222 C231 1.240 . S
O223 In221 2.326 . S
O223 C231 1.252 . S
C224 O227 1.252 . S
C224 O228 1.260 . S
C225 O232 1.240 . S
C225 O233 1.252 . S
C226 O229 1.252 . S
C226 O230 1.260 . S
O227 In221 2.266 . S
O227 C224 1.252 . S
O228 In221 2.326 . S
O228 C224 1.260 . S
O229 In221 2.266 . S
O229 C226 1.252 . S
O230 In221 2.326 . S
O230 C226 1.260 . S
C231 O222 1.240 . S
C231 O223 1.252 . S
O232 In221 2.294 . S
O232 C225 1.240 . S
O233 In221 2.326 . S
O233 C225 1.252 . S
In234 O235 2.294 . S
In234 O236 2.326 . S
In234 O240 2.266 . S
In234 O241 2.326 . S
In234 O242 2.266 . S
In234 O243 2.326 . S
In234 O245 2.294 . S
In234 O246 2.326 . S
O235 In234 2.294 . S
O235 C244 1.240 . S
O236 In234 2.326 . S
O236 C244 1.252 . S
C237 O240 1.252 . S
C237 O241 1.260 . S
C238 O245 1.240 . S
C238 O246 1.252 . S
C239 O242 1.252 . S
C239 O243 1.260 . S
O240 In234 2.266 . S
O240 C237 1.252 . S
O241 In234 2.326 . S
O241 C237 1.260 . S
O242 In234 2.266 . S
O242 C239 1.252 . S
O243 In234 2.326 . S
O243 C239 1.260 . S
C244 O235 1.240 . S
C244 O236 1.252 . S
O245 In234 2.294 . S
O245 C238 1.240 . S
O246 In234 2.326 . S
O246 C238 1.252 . S
In247 O248 2.294 . S
In247 O249 2.326 . S
In247 O253 2.266 . S
In247 O254 2.326 . S
In247 O255 2.266 . S
In247 O256 2.326 . S
In247 O258 2.294 . S
In247 O259 2.326 . S
O248 In247 2.294 . S
O248 C257 1.240 . S
O249 In247 2.326 . S
O249 C257 1.252 . S
C250 O253 1.252 . S
C250 O254 1.260 . S
C251 O258 1.240 . S
C251 O259 1.252 . S
C252 O255 1.252 . S
C252 O256 1.260 . S
O253 In247 2.266 . S
O253 C250 1.252 . S
O254 In247 2.326 . S
O254 C250 1.260 . S
O255 In247 2.266 . S
O255 C252 1.252 . S
O256 In247 2.326 . S
O256 C252 1.260 . S
C257 O248 1.240 . S
C257 O249 1.252 . S
O258 In247 2.294 . S
O258 C251 1.240 . S
O259 In247 2.326 . S
O259 C251 1.252 . S
In260 O261 2.297 . S
In260 O262 2.327 . S
In260 O266 2.265 1_554 S
In260 O267 2.325 1_554 S
In260 O268 2.254 1_554 S
In260 O269 2.309 1_554 S
In260 O271 2.304 . S
In260 O272 2.343 . S
O261 In260 2.297 . S
O261 C270 1.240 . S
O262 In260 2.327 . S
O262 C270 1.252 . S
C263 O266 1.252 . S
C263 O267 1.260 . S
C264 O271 1.240 . S
C264 O272 1.252 . S
C265 O268 1.252 . S
C265 O269 1.260 . S
O266 In260 2.265 1_556 S
O266 C263 1.252 . S
O267 In260 2.325 1_556 S
O267 C263 1.260 . S
O268 In260 2.254 1_556 S
O268 C265 1.252 . S
O269 In260 2.309 1_556 S
O269 C265 1.260 . S
C270 O261 1.240 . S
C270 O262 1.252 . S
O271 In260 2.304 . S
O271 C264 1.240 . S
O272 In260 2.343 . S
O272 C264 1.252 . S
In273 O274 2.294 . S
In273 O275 2.326 . S
In273 O279 2.266 . S
In273 O280 2.326 . S
In273 O281 2.266 . S
In273 O282 2.326 . S
In273 O284 2.294 . S
In273 O285 2.326 . S
O274 In273 2.294 . S
O274 C283 1.240 . S
O275 In273 2.326 . S
O275 C283 1.252 . S
C276 O279 1.252 . S
C276 O280 1.260 . S
C277 O284 1.240 . S
C277 O285 1.252 . S
C278 O281 1.252 . S
C278 O282 1.260 . S
O279 In273 2.266 . S
O279 C276 1.252 . S
O280 In273 2.326 . S
O280 C276 1.260 . S
O281 In273 2.266 . S
O281 C278 1.252 . S
O282 In273 2.326 . S
O282 C278 1.260 . S
C283 O274 1.240 . S
C283 O275 1.252 . S
O284 In273 2.294 . S
O284 C277 1.240 . S
O285 In273 2.326 . S
O285 C277 1.252 . S
In286 O287 2.294 . S
In286 O288 2.326 . S
In286 O292 2.266 . S
In286 O293 2.326 . S
In286 O294 2.266 . S
In286 O295 2.326 . S
In286 O297 2.294 . S
In286 O298 2.326 . S
O287 In286 2.294 . S
O287 C296 1.240 . S
O288 In286 2.326 . S
O288 C296 1.252 . S
C289 O292 1.252 . S
C289 O293 1.260 . S
C290 O297 1.240 . S
C290 O298 1.252 . S
C291 O294 1.252 . S
C291 O295 1.260 . S
O292 In286 2.266 . S
O292 C289 1.252 . S
O293 In286 2.326 . S
O293 C289 1.260 . S
O294 In286 2.266 . S
O294 C291 1.252 . S
O295 In286 2.326 . S
O295 C291 1.260 . S
C296 O287 1.240 . S
C296 O288 1.252 . S
O297 In286 2.294 . S
O297 C290 1.240 . S
O298 In286 2.326 . S
O298 C290 1.252 . S
In299 O300 2.294 . S
In299 O301 2.326 . S
In299 O305 2.266 . S
In299 O306 2.326 . S
In299 O307 2.266 . S
In299 O308 2.326 . S
In299 O310 2.294 . S
In299 O311 2.326 . S
O300 In299 2.294 . S
O300 C309 1.240 . S
O301 In299 2.326 . S
O301 C309 1.252 . S
C302 O305 1.252 . S
C302 O306 1.260 . S
C303 O310 1.240 . S
C303 O311 1.252 . S
C304 O307 1.252 . S
C304 O308 1.260 . S
O305 In299 2.266 . S
O305 C302 1.252 . S
O306 In299 2.326 . S
O306 C302 1.260 . S
O307 In299 2.266 . S
O307 C304 1.252 . S
O308 In299 2.326 . S
O308 C304 1.260 . S
C309 O300 1.240 . S
C309 O301 1.252 . S
O310 In299 2.294 . S
O310 C303 1.240 . S
O311 In299 2.326 . S
O311 C303 1.252 . S
Tb312 N343 2.660 1_545 S
Tb312 N350 2.600 1_544 S
Tb312 O356 2.546 1_554 S
Tb312 O357 2.610 . S
Tb312 O359 2.320 . S
Tb312 O360 2.552 . S
Tb312 O361 2.413 1_455 S
Tb312 O363 2.362 . S
Tb312 O364 2.421 1_554 S
Tb312 C376 2.833 1_455 S
C313 C316 1.432 . S
C313 C317 1.414 . S
C313 N320 1.359 . S
C314 C316 1.417 . S
C314 C318 1.432 . S
C314 C326 1.410 . S
C315 C317 1.444 . S
C315 C318 1.317 . S
C315 H338 0.929 . S
C316 C313 1.432 . S
C316 C314 1.417 . S
C316 N324 1.360 . S
C317 C313 1.414 . S
C317 C315 1.444 . S
C317 C322 1.385 . S
C318 C314 1.432 . S
C318 C315 1.317 . S
C318 H330 0.930 . S
C319 C321 1.392 . S
C319 C322 1.370 . S
C319 H331 0.931 . S
N320 C313 1.359 . S
N320 C321 1.327 . S
N320 Tb323 2.600 . S
C321 C319 1.392 . S
C321 N320 1.327 . S
C321 H328 0.930 . S
C322 C317 1.385 . S
C322 C319 1.370 . S
C322 H341 0.930 . S
Tb323 N320 2.600 . S
Tb323 N324 2.660 . S
Tb323 O357 2.362 . S
Tb323 O358 2.421 . S
Tb323 O362 2.546 . S
Tb323 O363 2.610 . S
Tb323 O365 2.320 . S
Tb323 O366 2.552 . S
Tb323 O367 2.413 . S
Tb323 C387 2.833 . S
N324 C316 1.360 . S
N324 Tb323 2.660 . S
N324 C325 1.305 . S
C325 N324 1.305 . S
C325 C327 1.407 1_554 S
C325 H332 0.930 1_554 S
C326 C314 1.410 . S
C326 C327 1.345 1_554 S
C326 H334 0.930 . S
C327 C325 1.407 1_556 S
C327 C326 1.345 1_556 S
C327 H329 0.930 . S
H328 C321 0.930 . S
H329 C327 0.930 . S
H330 C318 0.930 . S
H331 C319 0.931 . S
H332 C325 0.930 1_556 S
H333 C347 0.930 . S
H334 C326 0.930 . S
H335 C353 0.930 1_545 S
H336 C344 0.930 1_545 S
H337 C351 0.931 . S
H338 C315 0.929 . S
H339 C345 0.924 1_655 S
H340 C378 0.930 . S
H341 C322 0.930 . S
H342 C377 0.929 . S
N343 Tb312 2.660 1_565 S
N343 C344 1.305 . S
N343 C348 1.360 . S
C344 H336 0.930 1_565 S
C344 N343 1.305 . S
C344 C347 1.407 . S
C345 H339 0.924 1_455 S
C345 C346 1.413 1_455 S
C345 C347 1.352 . S
C346 C345 1.413 1_655 S
C346 C348 1.409 1_655 S
C346 C378 1.439 . S
C347 H333 0.930 . S
C347 C344 1.407 . S
C347 C345 1.352 . S
C348 N343 1.360 . S
C348 C346 1.409 1_455 S
C348 C352 1.432 1_554 S
H349 C354 0.930 . S
N350 Tb312 2.600 1_566 S
N350 C352 1.359 . S
N350 C353 1.327 . S
C351 H337 0.931 . S
C351 C353 1.392 . S
C351 C354 1.370 1_455 S
C352 C348 1.432 1_556 S
C352 N350 1.359 . S
C352 C355 1.414 1_455 S
C353 H335 0.930 1_565 S
C353 N350 1.327 . S
C353 C351 1.392 . S
C354 H349 0.930 . S
C354 C351 1.370 1_655 S
C354 C355 1.385 . S
C355 C352 1.414 1_655 S
C355 C354 1.385 . S
C355 C377 1.444 . S
O356 Tb312 2.546 1_556 S
O356 C376 1.251 1_456 S
O357 Tb312 2.610 . S
O357 Tb323 2.362 . S
O357 C368 1.283 . S
O358 Tb323 2.421 . S
O358 C375 1.262 . S
O359 Tb312 2.320 . S
O359 C375 1.260 . S
O360 Tb312 2.552 . S
O360 C368 1.243 . S
O361 Tb312 2.413 1_655 S
O361 C376 1.256 . S
O362 Tb323 2.546 . S
O362 C387 1.251 . S
O363 Tb312 2.362 . S
O363 Tb323 2.610 . S
O363 C379 1.283 . S
O364 Tb312 2.421 1_556 S
O364 C386 1.262 . S
O365 Tb323 2.320 . S
O365 C386 1.260 1_554 S
O366 Tb323 2.552 . S
O366 C379 1.243 . S
O367 Tb323 2.413 . S
O367 C387 1.256 . S
C368 O357 1.283 . S
C368 O360 1.243 . S
C369 C371 1.374 1_556 S
C369 C373 1.404 . S
C369 C376 1.498 1_556 S
C370 C371 1.400 . S
C370 C372 1.384 1_554 S
C371 C369 1.374 1_554 S
C371 C370 1.400 . S
C371 H388 0.930 . S
C372 C370 1.384 1_556 S
C372 C374 1.392 . S
C372 H389 0.931 . S
C373 C369 1.404 . S
C373 C374 1.401 . S
C373 H390 0.930 . S
C374 C372 1.392 . S
C374 C373 1.401 . S
C374 H391 0.930 . S
C375 O358 1.262 . S
C375 O359 1.260 . S
C376 Tb312 2.833 1_655 S
C376 O356 1.251 1_654 S
C376 O361 1.256 . S
C376 C369 1.498 1_554 S
C377 H342 0.929 . S
C377 C355 1.444 . S
C377 C378 1.317 1_556 S
C378 H340 0.930 . S
C378 C346 1.439 . S
C378 C377 1.317 1_554 S
C379 O363 1.283 . S
C379 O366 1.243 . S
C380 C381 1.382 . S
C380 C384 1.393 . S
C380 C387 1.500 . S
C381 C380 1.382 . S
C381 C382 1.400 . S
C381 H392 0.930 . S
C382 C381 1.400 . S
C382 C383 1.384 . S
C383 C382 1.384 . S
C383 C385 1.392 . S
C383 H393 0.931 . S
C384 C380 1.393 . S
C384 C385 1.401 . S
C384 H394 0.930 . S
C385 C383 1.392 . S
C385 C384 1.401 . S
C385 H395 0.930 . S
C386 O364 1.262 . S
C386 O365 1.260 1_556 S
C387 Tb323 2.833 . S
C387 O362 1.251 . S
C387 O367 1.256 . S
C387 C380 1.500 . S
H388 C371 0.930 . S
H389 C372 0.931 . S
H390 C373 0.930 . S
H391 C374 0.930 . S
H392 C381 0.930 . S
H393 C383 0.931 . S
H394 C384 0.930 . S
H395 C385 0.930 . S
Tb396 N427 2.660 . S
Tb396 N434 2.600 . S
Tb396 O440 2.546 . S
Tb396 O441 2.610 . S
Tb396 O443 2.320 . S
Tb396 O444 2.552 . S
Tb396 O445 2.413 . S
Tb396 O447 2.362 . S
Tb396 O448 2.421 . S
Tb396 C460 2.833 . S
C397 C400 1.432 . S
C397 C401 1.414 . S
C397 N404 1.359 . S
C398 C400 1.417 . S
C398 C402 1.432 . S
C398 C410 1.410 . S
C399 C401 1.444 . S
C399 C402 1.317 . S
C399 H422 0.929 . S
C400 C397 1.432 . S
C400 C398 1.417 . S
C400 N408 1.360 . S
C401 C397 1.414 . S
C401 C399 1.444 . S
C401 C406 1.385 . S
C402 C398 1.432 . S
C402 C399 1.317 . S
C402 H414 0.930 . S
C403 C405 1.392 . S
C403 C406 1.370 . S
C403 H415 0.931 . S
N404 C397 1.359 . S
N404 C405 1.327 . S
N404 Tb407 2.600 . S
C405 C403 1.392 . S
C405 N404 1.327 . S
C405 H412 0.930 . S
C406 C401 1.385 . S
C406 C403 1.370 . S
C406 H425 0.930 . S
Tb407 N404 2.600 . S
Tb407 N408 2.660 . S
Tb407 O441 2.362 . S
Tb407 O442 2.421 . S
Tb407 O446 2.546 . S
Tb407 O447 2.610 . S
Tb407 O449 2.320 . S
Tb407 O450 2.552 . S
Tb407 O451 2.413 . S
Tb407 C471 2.833 . S
N408 C400 1.360 . S
N408 Tb407 2.660 . S
N408 C409 1.305 . S
C409 N408 1.305 . S
C409 C411 1.407 . S
C409 H416 0.930 . S
C410 C398 1.410 . S
C410 C411 1.345 . S
C410 H418 0.930 . S
C411 C409 1.407 . S
C411 C410 1.345 . S
C411 H413 0.930 . S
H412 C405 0.930 . S
H413 C411 0.930 . S
H414 C402 0.930 . S
H415 C403 0.931 . S
H416 C409 0.930 . S
H417 C431 0.930 . S
H418 C410 0.930 . S
H419 C437 0.930 . S
H420 C428 0.930 . S
H421 C435 0.931 . S
H422 C399 0.929 . S
H423 C429 0.930 . S
H424 C462 0.930 . S
H425 C406 0.930 . S
H426 C461 0.929 . S
N427 Tb396 2.660 . S
N427 C428 1.305 . S
N427 C432 1.360 . S
C428 H420 0.930 . S
C428 N427 1.305 . S
C428 C431 1.407 . S
C429 H423 0.930 . S
C429 C430 1.410 . S
C429 C431 1.345 . S
C430 C429 1.410 . S
C430 C432 1.417 . S
C430 C462 1.432 . S
C431 H417 0.930 . S
C431 C428 1.407 . S
C431 C429 1.345 . S
C432 N427 1.360 . S
C432 C430 1.417 . S
C432 C436 1.432 . S
H433 C438 0.930 . S
N434 Tb396 2.600 . S
N434 C436 1.359 . S
N434 C437 1.327 . S
C435 H421 0.931 . S
C435 C437 1.392 . S
C435 C438 1.370 . S
C436 C432 1.432 . S
C436 N434 1.359 . S
C436 C439 1.414 . S
C437 H419 0.930 . S
C437 N434 1.327 . S
C437 C435 1.392 . S
C438 H433 0.930 . S
C438 C435 1.370 . S
C438 C439 1.385 . S
C439 C436 1.414 . S
C439 C438 1.385 . S
C439 C461 1.444 . S
O440 Tb396 2.546 . S
O440 C460 1.251 . S
O441 Tb396 2.610 . S
O441 Tb407 2.362 . S
O441 C452 1.283 . S
O442 Tb407 2.421 . S
O442 C459 1.262 . S
O443 Tb396 2.320 . S
O443 C459 1.260 . S
O444 Tb396 2.552 . S
O444 C452 1.243 . S
O445 Tb396 2.413 . S
O445 C460 1.256 . S
O446 Tb407 2.546 . S
O446 C471 1.251 . S
O447 Tb396 2.362 . S
O447 Tb407 2.610 . S
O447 C463 1.283 . S
O448 Tb396 2.421 . S
O448 C470 1.262 . S
O449 Tb407 2.320 . S
O449 C470 1.260 . S
O450 Tb407 2.552 . S
O450 C463 1.243 . S
O451 Tb407 2.413 . S
O451 C471 1.256 . S
C452 O441 1.283 . S
C452 O444 1.243 . S
C453 C455 1.382 . S
C453 C457 1.393 . S
C453 C460 1.500 . S
C454 C455 1.400 . S
C454 C456 1.384 . S
C455 C453 1.382 . S
C455 C454 1.400 . S
C455 H472 0.930 . S
C456 C454 1.384 . S
C456 C458 1.392 . S
C456 H473 0.931 . S
C457 C453 1.393 . S
C457 C458 1.401 . S
C457 H474 0.930 . S
C458 C456 1.392 . S
C458 C457 1.401 . S
C458 H475 0.930 . S
C459 O442 1.262 . S
C459 O443 1.260 . S
C460 Tb396 2.833 . S
C460 O440 1.251 . S
C460 O445 1.256 . S
C460 C453 1.500 . S
C461 H426 0.929 . S
C461 C439 1.444 . S
C461 C462 1.317 . S
C462 H424 0.930 . S
C462 C430 1.432 . S
C462 C461 1.317 . S
C463 O447 1.283 . S
C463 O450 1.243 . S
C464 C465 1.382 . S
C464 C468 1.393 . S
C464 C471 1.500 . S
C465 C464 1.382 . S
C465 C466 1.400 . S
C465 H476 0.930 . S
C466 C465 1.400 . S
C466 C467 1.384 . S
C467 C466 1.384 . S
C467 C469 1.392 . S
C467 H477 0.931 . S
C468 C464 1.393 . S
C468 C469 1.401 . S
C468 H478 0.930 . S
C469 C467 1.392 . S
C469 C468 1.401 . S
C469 H479 0.930 . S
C470 O448 1.262 . S
C470 O449 1.260 . S
C471 Tb407 2.833 . S
C471 O446 1.251 . S
C471 O451 1.256 . S
C471 C464 1.500 . S
H472 C455 0.930 . S
H473 C456 0.931 . S
H474 C457 0.930 . S
H475 C458 0.930 . S
H476 C465 0.930 . S
H477 C467 0.931 . S
H478 C468 0.930 . S
H479 C469 0.930 . S
Tb480 N511 2.660 . S
Tb480 N518 2.600 . S
Tb480 O524 2.546 . S
Tb480 O525 2.610 1_545 S
Tb480 O527 2.320 . S
Tb480 O528 2.552 1_545 S
Tb480 O529 2.413 . S
Tb480 O531 2.362 . S
Tb480 O532 2.421 . S
Tb480 C544 2.833 . S
C481 C484 1.432 . S
C481 C485 1.414 . S
C481 N488 1.359 . S
C482 C484 1.417 . S
C482 C486 1.432 . S
C482 C494 1.410 . S
C483 C485 1.444 . S
C483 C486 1.317 . S
C483 H506 0.929 . S
C484 C481 1.432 . S
C484 C482 1.417 . S
C484 N492 1.360 . S
C485 C481 1.414 . S
C485 C483 1.444 . S
C485 C490 1.385 . S
C486 C482 1.432 . S
C486 C483 1.317 . S
C486 H498 0.930 . S
C487 C489 1.392 1_565 S
C487 C490 1.370 . S
C487 H499 0.931 . S
N488 C481 1.359 . S
N488 C489 1.327 1_565 S
N488 Tb491 2.600 1_565 S
C489 C487 1.392 1_545 S
C489 N488 1.327 1_545 S
C489 H496 0.930 . S
C490 C485 1.385 . S
C490 C487 1.370 . S
C490 H509 0.930 . S
Tb491 N488 2.600 1_545 S
Tb491 N492 2.660 1_545 S
Tb491 O525 2.362 1_545 S
Tb491 O526 2.421 . S
Tb491 O530 2.546 . S
Tb491 O531 2.610 . S
Tb491 O533 2.320 . S
Tb491 O534 2.552 . S
Tb491 O535 2.413 . S
Tb491 C555 2.833 . S
N492 C484 1.360 . S
N492 Tb491 2.660 1_565 S
N492 C493 1.305 . S
C493 N492 1.305 . S
C493 C495 1.407 . S
C493 H500 0.930 . S
C494 C482 1.410 . S
C494 C495 1.345 . S
C494 H502 0.930 . S
C495 C493 1.407 . S
C495 C494 1.345 . S
C495 H497 0.930 . S
H496 C489 0.930 . S
H497 C495 0.930 . S
H498 C486 0.930 . S
H499 C487 0.931 . S
H500 C493 0.930 . S
H501 C515 0.930 . S
H502 C494 0.930 . S
H503 C521 0.930 . S
H504 C512 0.930 . S
H505 C519 0.931 . S
H506 C483 0.929 . S
H507 C513 0.930 . S
H508 C546 0.930 . S
H509 C490 0.930 . S
H510 C545 0.929 . S
N511 Tb480 2.660 . S
N511 C512 1.305 . S
N511 C516 1.360 . S
C512 H504 0.930 . S
C512 N511 1.305 . S
C512 C515 1.407 . S
C513 H507 0.930 . S
C513 C514 1.410 . S
C513 C515 1.345 . S
C514 C513 1.410 . S
C514 C516 1.417 . S
C514 C546 1.432 . S
C515 H501 0.930 . S
C515 C512 1.407 . S
C515 C513 1.345 . S
C516 N511 1.360 . S
C516 C514 1.417 . S
C516 C520 1.432 . S
H517 C522 0.930 . S
N518 Tb480 2.600 . S
N518 C520 1.359 . S
N518 C521 1.327 . S
C519 H505 0.931 . S
C519 C521 1.392 . S
C519 C522 1.370 . S
C520 C516 1.432 . S
C520 N518 1.359 . S
C520 C523 1.414 . S
C521 H503 0.930 . S
C521 N518 1.327 . S
C521 C519 1.392 . S
C522 H517 0.930 . S
C522 C519 1.370 . S
C522 C523 1.385 . S
C523 C520 1.414 . S
C523 C522 1.385 . S
C523 C545 1.444 . S
O524 Tb480 2.546 . S
O524 C544 1.251 . S
O525 Tb480 2.610 1_565 S
O525 Tb491 2.362 1_565 S
O525 C536 1.283 . S
O526 Tb491 2.421 . S
O526 C543 1.262 . S
O527 Tb480 2.320 . S
O527 C543 1.260 . S
O528 Tb480 2.552 1_565 S
O528 C536 1.243 . S
O529 Tb480 2.413 . S
O529 C544 1.256 . S
O530 Tb491 2.546 . S
O530 C555 1.251 . S
O531 Tb480 2.362 . S
O531 Tb491 2.610 . S
O531 C547 1.283 . S
O532 Tb480 2.421 . S
O532 C554 1.262 . S
O533 Tb491 2.320 . S
O533 C554 1.260 . S
O534 Tb491 2.552 . S
O534 C547 1.243 . S
O535 Tb491 2.413 . S
O535 C555 1.256 . S
C536 O525 1.283 . S
C536 O528 1.243 . S
C537 C539 1.382 . S
C537 C541 1.393 . S
C537 C544 1.500 1_565 S
C538 C539 1.400 . S
C538 C540 1.384 . S
C539 C537 1.382 . S
C539 C538 1.400 . S
C539 H556 0.930 . S
C540 C538 1.384 . S
C540 C542 1.392 . S
C540 H557 0.931 . S
C541 C537 1.393 . S
C541 C542 1.401 . S
C541 H558 0.920 1_565 S
C542 C540 1.392 . S
C542 C541 1.401 . S
C542 H559 0.930 . S
C543 O526 1.262 . S
C543 O527 1.260 . S
C544 Tb480 2.833 . S
C544 O524 1.251 . S
C544 O529 1.256 . S
C544 C537 1.500 1_545 S
C545 H510 0.929 . S
C545 C523 1.444 . S
C545 C546 1.317 . S
C546 H508 0.930 . S
C546 C514 1.432 . S
C546 C545 1.317 . S
C547 O531 1.283 . S
C547 O534 1.243 . S
C548 C549 1.382 . S
C548 C552 1.393 . S
C548 C555 1.500 . S
C549 C548 1.382 . S
C549 C550 1.400 . S
C549 H560 0.930 . S
C550 C549 1.400 . S
C550 C551 1.384 . S
C551 C550 1.384 . S
C551 C553 1.392 . S
C551 H561 0.931 . S
C552 C548 1.393 . S
C552 C553 1.401 . S
C552 H562 0.930 . S
C553 C551 1.392 . S
C553 C552 1.401 . S
C553 H563 0.930 . S
C554 O532 1.262 . S
C554 O533 1.260 . S
C555 Tb491 2.833 . S
C555 O530 1.251 . S
C555 O535 1.256 . S
C555 C548 1.500 . S
H556 C539 0.930 . S
H557 C540 0.931 . S
H558 C541 0.920 1_545 S
H559 C542 0.930 . S
H560 C549 0.930 . S
H561 C551 0.931 . S
H562 C552 0.930 . S
H563 C553 0.930 . S
Tb564 N595 2.660 . S
Tb564 N602 2.600 . S
Tb564 O608 2.546 . S
Tb564 O609 2.610 . S
Tb564 O611 2.320 . S
Tb564 O612 2.552 . S
Tb564 O613 2.413 . S
Tb564 O615 2.362 . S
Tb564 O616 2.421 . S
Tb564 C628 2.833 . S
C565 C568 1.432 . S
C565 C569 1.414 . S
C565 N572 1.359 . S
C566 C568 1.417 . S
C566 C570 1.432 . S
C566 C578 1.410 . S
C567 C569 1.444 . S
C567 C570 1.317 . S
C567 H590 0.929 . S
C568 C565 1.432 . S
C568 C566 1.417 . S
C568 N576 1.360 . S
C569 C565 1.414 . S
C569 C567 1.444 . S
C569 C574 1.385 . S
C570 C566 1.432 . S
C570 C567 1.317 . S
C570 H582 0.930 . S
C571 C573 1.392 . S
C571 C574 1.370 . S
C571 H583 0.931 . S
N572 C565 1.359 . S
N572 C573 1.327 . S
N572 Tb575 2.600 . S
C573 C571 1.392 . S
C573 N572 1.327 . S
C573 H580 0.930 . S
C574 C569 1.385 . S
C574 C571 1.370 . S
C574 H593 0.930 . S
Tb575 N572 2.600 . S
Tb575 N576 2.660 . S
Tb575 O609 2.362 . S
Tb575 O610 2.421 . S
Tb575 O614 2.546 . S
Tb575 O615 2.610 . S
Tb575 O617 2.320 . S
Tb575 O618 2.552 . S
Tb575 O619 2.413 . S
Tb575 C639 2.833 . S
N576 C568 1.360 . S
N576 Tb575 2.660 . S
N576 C577 1.305 . S
C577 N576 1.305 . S
C577 C579 1.407 . S
C577 H584 0.930 . S
C578 C566 1.410 . S
C578 C579 1.345 . S
C578 H586 0.930 . S
C579 C577 1.407 . S
C579 C578 1.345 . S
C579 H581 0.930 . S
H580 C573 0.930 . S
H581 C579 0.930 . S
H582 C570 0.930 . S
H583 C571 0.931 . S
H584 C577 0.930 . S
H585 C599 0.930 . S
H586 C578 0.930 . S
H587 C605 0.930 . S
H588 C596 0.930 . S
H589 C603 0.931 . S
H590 C567 0.929 . S
H591 C597 0.930 . S
H592 C630 0.930 . S
H593 C574 0.930 . S
H594 C629 0.929 . S
N595 Tb564 2.660 . S
N595 C596 1.305 . S
N595 C600 1.360 . S
C596 H588 0.930 . S
C596 N595 1.305 . S
C596 C599 1.407 . S
C597 H591 0.930 . S
C597 C598 1.410 . S
C597 C599 1.345 . S
C598 C597 1.410 . S
C598 C600 1.417 . S
C598 C630 1.432 . S
C599 H585 0.930 . S
C599 C596 1.407 . S
C599 C597 1.345 . S
C600 N595 1.360 . S
C600 C598 1.417 . S
C600 C604 1.432 . S
H601 C606 0.930 . S
N602 Tb564 2.600 . S
N602 C604 1.359 . S
N602 C605 1.327 . S
C603 H589 0.931 . S
C603 C605 1.392 . S
C603 C606 1.370 . S
C604 C600 1.432 . S
C604 N602 1.359 . S
C604 C607 1.414 . S
C605 H587 0.930 . S
C605 N602 1.327 . S
C605 C603 1.392 . S
C606 H601 0.930 . S
C606 C603 1.370 . S
C606 C607 1.385 . S
C607 C604 1.414 . S
C607 C606 1.385 . S
C607 C629 1.444 . S
O608 Tb564 2.546 . S
O608 C628 1.251 . S
O609 Tb564 2.610 . S
O609 Tb575 2.362 . S
O609 C620 1.283 . S
O610 Tb575 2.421 . S
O610 C627 1.262 . S
O611 Tb564 2.320 . S
O611 C627 1.260 . S
O612 Tb564 2.552 . S
O612 C620 1.243 . S
O613 Tb564 2.413 . S
O613 C628 1.256 . S
O614 Tb575 2.546 . S
O614 C639 1.251 . S
O615 Tb564 2.362 . S
O615 Tb575 2.610 . S
O615 C631 1.283 . S
O616 Tb564 2.421 . S
O616 C638 1.262 . S
O617 Tb575 2.320 . S
O617 C638 1.260 . S
O618 Tb575 2.552 . S
O618 C631 1.243 . S
O619 Tb575 2.413 . S
O619 C639 1.256 . S
C620 O609 1.283 . S
C620 O612 1.243 . S
C621 C623 1.382 . S
C621 C625 1.393 . S
C621 C628 1.500 . S
C622 C623 1.400 . S
C622 C624 1.384 . S
C623 C621 1.382 . S
C623 C622 1.400 . S
C623 H640 0.930 . S
C624 C622 1.384 . S
C624 C626 1.392 . S
C624 H641 0.931 . S
C625 C621 1.393 . S
C625 C626 1.401 . S
C625 H642 0.930 . S
C626 C624 1.392 . S
C626 C625 1.401 . S
C626 H643 0.930 . S
C627 O610 1.262 . S
C627 O611 1.260 . S
C628 Tb564 2.833 . S
C628 O608 1.251 . S
C628 O613 1.256 . S
C628 C621 1.500 . S
C629 H594 0.929 . S
C629 C607 1.444 . S
C629 C630 1.317 . S
C630 H592 0.930 . S
C630 C598 1.432 . S
C630 C629 1.317 . S
C631 O615 1.283 . S
C631 O618 1.243 . S
C632 C633 1.382 . S
C632 C636 1.393 . S
C632 C639 1.500 . S
C633 C632 1.382 . S
C633 C634 1.400 . S
C633 H644 0.930 . S
C634 C633 1.400 . S
C634 C635 1.384 . S
C635 C634 1.384 . S
C635 C637 1.392 . S
C635 H645 0.931 . S
C636 C632 1.393 . S
C636 C637 1.401 . S
C636 H646 0.930 . S
C637 C635 1.392 . S
C637 C636 1.401 . S
C637 H647 0.930 . S
C638 O616 1.262 . S
C638 O617 1.260 . S
C639 Tb575 2.833 . S
C639 O614 1.251 . S
C639 O619 1.256 . S
C639 C632 1.500 . S
H640 C623 0.930 . S
H641 C624 0.931 . S
H642 C625 0.930 . S
H643 C626 0.930 . S
H644 C633 0.930 . S
H645 C635 0.931 . S
H646 C636 0.930 . S
H647 C637 0.930 . S
Tb648 N679 2.660 . S
Tb648 N686 2.600 . S
Tb648 O692 2.546 . S
Tb648 O693 2.610 . S
Tb648 O695 2.320 . S
Tb648 O696 2.552 . S
Tb648 O697 2.413 . S
Tb648 O699 2.362 . S
Tb648 O700 2.421 . S
Tb648 C712 2.833 . S
C649 C652 1.432 . S
C649 C653 1.414 . S
C649 N656 1.359 . S
C650 C652 1.417 . S
C650 C654 1.432 . S
C650 C662 1.410 . S
C651 C653 1.444 . S
C651 C654 1.317 . S
C651 H674 0.929 . S
C652 C649 1.432 . S
C652 C650 1.417 . S
C652 N660 1.360 . S
C653 C649 1.414 . S
C653 C651 1.444 . S
C653 C658 1.385 . S
C654 C650 1.432 . S
C654 C651 1.317 . S
C654 H666 0.930 . S
C655 C657 1.392 . S
C655 C658 1.370 . S
C655 H667 0.931 . S
N656 C649 1.359 . S
N656 C657 1.327 . S
N656 Tb659 2.600 . S
C657 C655 1.392 . S
C657 N656 1.327 . S
C657 H664 0.930 . S
C658 C653 1.385 . S
C658 C655 1.370 . S
C658 H677 0.930 . S
Tb659 N656 2.600 . S
Tb659 N660 2.660 . S
Tb659 O693 2.362 1_565 S
Tb659 O694 2.421 1_565 S
Tb659 O698 2.546 . S
Tb659 O699 2.610 1_565 S
Tb659 O701 2.320 . S
Tb659 O702 2.552 . S
Tb659 O703 2.413 . S
Tb659 C723 2.833 . S
N660 C652 1.360 . S
N660 Tb659 2.660 . S
N660 C661 1.305 . S
C661 N660 1.305 . S
C661 C663 1.407 . S
C661 H668 0.930 . S
C662 C650 1.410 . S
C662 C663 1.345 . S
C662 H670 0.930 . S
C663 C661 1.407 . S
C663 C662 1.345 . S
C663 H665 0.930 1_455 S
H664 C657 0.930 . S
H665 C663 0.930 1_655 S
H666 C654 0.930 . S
H667 C655 0.931 . S
H668 C661 0.930 . S
H669 C683 0.930 . S
H670 C662 0.930 . S
H671 C689 0.930 . S
H672 C680 0.930 . S
H673 C687 0.931 1_655 S
H674 C651 0.929 . S
H675 C681 0.930 . S
H676 C714 0.930 . S
H677 C658 0.930 . S
H678 C713 0.929 . S
N679 Tb648 2.660 . S
N679 C680 1.305 . S
N679 C684 1.360 . S
C680 H672 0.930 . S
C680 N679 1.305 . S
C680 C683 1.407 . S
C681 H675 0.930 . S
C681 C682 1.410 . S
C681 C683 1.345 . S
C682 C681 1.410 . S
C682 C684 1.417 . S
C682 C714 1.432 . S
C683 H669 0.930 . S
C683 C680 1.407 . S
C683 C681 1.345 . S
C684 N679 1.360 . S
C684 C682 1.417 . S
C684 C688 1.432 . S
H685 C690 0.930 . S
N686 Tb648 2.600 . S
N686 C688 1.359 . S
N686 C689 1.327 . S
C687 H673 0.931 1_455 S
C687 C689 1.392 . S
C687 C690 1.370 . S
C688 C684 1.432 . S
C688 N686 1.359 . S
C688 C691 1.414 . S
C689 H671 0.930 . S
C689 N686 1.327 . S
C689 C687 1.392 . S
C690 H685 0.930 . S
C690 C687 1.370 . S
C690 C691 1.385 . S
C691 C688 1.414 . S
C691 C690 1.385 . S
C691 C713 1.444 . S
O692 Tb648 2.546 . S
O692 C712 1.251 . S
O693 Tb648 2.610 . S
O693 Tb659 2.362 1_545 S
O693 C704 1.283 . S
O694 Tb659 2.421 1_545 S
O694 C711 1.262 . S
O695 Tb648 2.320 . S
O695 C711 1.260 . S
O696 Tb648 2.552 . S
O696 C704 1.243 . S
O697 Tb648 2.413 . S
O697 C712 1.256 . S
O698 Tb659 2.546 . S
O698 C723 1.251 . S
O699 Tb648 2.362 . S
O699 Tb659 2.610 1_545 S
O699 C715 1.283 . S
O700 Tb648 2.421 . S
O700 C722 1.262 . S
O701 Tb659 2.320 . S
O701 C722 1.260 1_565 S
O702 Tb659 2.552 . S
O702 C715 1.243 1_565 S
O703 Tb659 2.413 . S
O703 C723 1.256 . S
C704 O693 1.283 . S
C704 O696 1.243 . S
C705 C707 1.382 . S
C705 C709 1.393 . S
C705 C712 1.500 . S
C706 C707 1.400 . S
C706 C708 1.384 . S
C707 C705 1.382 . S
C707 C706 1.400 . S
C707 H724 0.930 . S
C708 C706 1.384 . S
C708 C710 1.392 . S
C708 H725 0.931 . S
C709 C705 1.393 . S
C709 C710 1.401 . S
C709 H726 0.930 . S
C710 C708 1.392 . S
C710 C709 1.401 . S
C710 H727 0.930 . S
C711 O694 1.262 . S
C711 O695 1.260 . S
C712 Tb648 2.833 . S
C712 O692 1.251 . S
C712 O697 1.256 . S
C712 C705 1.500 . S
C713 H678 0.929 . S
C713 C691 1.444 . S
C713 C714 1.317 . S
C714 H676 0.930 . S
C714 C682 1.432 . S
C714 C713 1.317 . S
C715 O699 1.283 . S
C715 O702 1.243 1_545 S
C716 C717 1.382 . S
C716 C720 1.393 . S
C716 C723 1.500 . S
C717 C716 1.382 . S
C717 C718 1.400 . S
C717 H728 0.930 . S
C718 C717 1.400 . S
C718 C719 1.384 . S
C719 C718 1.384 . S
C719 C721 1.392 . S
C719 H729 0.931 . S
C720 C716 1.393 . S
C720 C721 1.401 . S
C720 H730 0.930 . S
C721 C719 1.392 . S
C721 C720 1.401 . S
C721 H731 0.930 . S
C722 O700 1.262 . S
C722 O701 1.260 1_545 S
C723 Tb659 2.833 . S
C723 O698 1.251 . S
C723 O703 1.256 . S
C723 C716 1.500 . S
H724 C707 0.930 . S
H725 C708 0.931 . S
H726 C709 0.930 . S
H727 C710 0.930 . S
H728 C717 0.930 . S
H729 C719 0.931 . S
H730 C720 0.930 . S
H731 C721 0.930 . S
Tb732 N763 2.660 . S
Tb732 N770 2.600 . S
Tb732 O776 2.546 . S
Tb732 O777 2.610 . S
Tb732 O779 2.320 . S
Tb732 O780 2.552 . S
Tb732 O781 2.413 . S
Tb732 O783 2.362 . S
Tb732 O784 2.421 . S
Tb732 C796 2.833 . S
C733 C736 1.432 . S
C733 C737 1.414 . S
C733 N740 1.359 . S
C734 C736 1.417 . S
C734 C738 1.432 . S
C734 C746 1.410 . S
C735 C737 1.444 . S
C735 C738 1.317 . S
C735 H758 0.929 . S
C736 C733 1.432 . S
C736 C734 1.417 . S
C736 N744 1.360 . S
C737 C733 1.414 . S
C737 C735 1.444 . S
C737 C742 1.385 . S
C738 C734 1.432 . S
C738 C735 1.317 . S
C738 H750 0.930 . S
C739 C741 1.392 . S
C739 C742 1.370 . S
C739 H751 0.931 . S
N740 C733 1.359 . S
N740 C741 1.327 . S
N740 Tb743 2.600 . S
C741 C739 1.392 . S
C741 N740 1.327 . S
C741 H748 0.930 . S
C742 C737 1.385 . S
C742 C739 1.370 . S
C742 H761 0.930 . S
Tb743 N740 2.600 . S
Tb743 N744 2.660 . S
Tb743 O777 2.362 . S
Tb743 O778 2.421 . S
Tb743 O782 2.546 . S
Tb743 O783 2.610 . S
Tb743 O785 2.320 . S
Tb743 O786 2.552 . S
Tb743 O787 2.413 . S
Tb743 C807 2.833 . S
N744 C736 1.360 . S
N744 Tb743 2.660 . S
N744 C745 1.305 . S
C745 N744 1.305 . S
C745 C747 1.407 . S
C745 H752 0.930 . S
C746 C734 1.410 . S
C746 C747 1.345 . S
C746 H754 0.930 . S
C747 C745 1.407 . S
C747 C746 1.345 . S
C747 H749 0.930 . S
H748 C741 0.930 . S
H749 C747 0.930 . S
H750 C738 0.930 . S
H751 C739 0.931 . S
H752 C745 0.930 . S
H753 C767 0.930 . S
H754 C746 0.930 . S
H755 C773 0.930 . S
H756 C764 0.930 . S
H757 C771 0.931 . S
H758 C735 0.929 . S
H759 C765 0.930 . S
H760 C798 0.930 . S
H761 C742 0.930 . S
H762 C797 0.929 . S
N763 Tb732 2.660 . S
N763 C764 1.305 . S
N763 C768 1.360 . S
C764 H756 0.930 . S
C764 N763 1.305 . S
C764 C767 1.407 . S
C765 H759 0.930 . S
C765 C766 1.410 . S
C765 C767 1.345 . S
C766 C765 1.410 . S
C766 C768 1.417 . S
C766 C798 1.432 . S
C767 H753 0.930 . S
C767 C764 1.407 . S
C767 C765 1.345 . S
C768 N763 1.360 . S
C768 C766 1.417 . S
C768 C772 1.432 . S
H769 C774 0.930 . S
N770 Tb732 2.600 . S
N770 C772 1.359 . S
N770 C773 1.327 . S
C771 H757 0.931 . S
C771 C773 1.392 . S
C771 C774 1.370 . S
C772 C768 1.432 . S
C772 N770 1.359 . S
C772 C775 1.414 . S
C773 H755 0.930 . S
C773 N770 1.327 . S
C773 C771 1.392 . S
C774 H769 0.930 . S
C774 C771 1.370 . S
C774 C775 1.385 . S
C775 C772 1.414 . S
C775 C774 1.385 . S
C775 C797 1.444 . S
O776 Tb732 2.546 . S
O776 C796 1.251 . S
O777 Tb732 2.610 . S
O777 Tb743 2.362 . S
O777 C788 1.283 . S
O778 Tb743 2.421 . S
O778 C795 1.262 . S
O779 Tb732 2.320 . S
O779 C795 1.260 . S
O780 Tb732 2.552 . S
O780 C788 1.243 . S
O781 Tb732 2.413 . S
O781 C796 1.256 . S
O782 Tb743 2.546 . S
O782 C807 1.251 . S
O783 Tb732 2.362 . S
O783 Tb743 2.610 . S
O783 C799 1.283 . S
O784 Tb732 2.421 . S
O784 C806 1.262 . S
O785 Tb743 2.320 . S
O785 C806 1.260 . S
O786 Tb743 2.552 . S
O786 C799 1.243 . S
O787 Tb743 2.413 . S
O787 C807 1.256 . S
C788 O777 1.283 . S
C788 O780 1.243 . S
C789 C791 1.382 . S
C789 C793 1.393 . S
C789 C796 1.500 . S
C790 C791 1.400 . S
C790 C792 1.384 . S
C791 C789 1.382 . S
C791 C790 1.400 . S
C791 H808 0.930 . S
C792 C790 1.384 . S
C792 C794 1.392 . S
C792 H809 0.931 . S
C793 C789 1.393 . S
C793 C794 1.401 . S
C793 H810 0.930 . S
C794 C792 1.392 . S
C794 C793 1.401 . S
C794 H811 0.930 . S
C795 O778 1.262 . S
C795 O779 1.260 . S
C796 Tb732 2.833 . S
C796 O776 1.251 . S
C796 O781 1.256 . S
C796 C789 1.500 . S
C797 H762 0.929 . S
C797 C775 1.444 . S
C797 C798 1.317 . S
C798 H760 0.930 . S
C798 C766 1.432 . S
C798 C797 1.317 . S
C799 O783 1.283 . S
C799 O786 1.243 . S
C800 C801 1.382 . S
C800 C804 1.393 . S
C800 C807 1.500 . S
C801 C800 1.382 . S
C801 C802 1.400 . S
C801 H812 0.930 . S
C802 C801 1.400 . S
C802 C803 1.384 . S
C803 C802 1.384 . S
C803 C805 1.392 . S
C803 H813 0.931 . S
C804 C800 1.393 . S
C804 C805 1.401 . S
C804 H814 0.930 . S
C805 C803 1.392 . S
C805 C804 1.401 . S
C805 H815 0.930 . S
C806 O784 1.262 . S
C806 O785 1.260 . S
C807 Tb743 2.833 . S
C807 O782 1.251 . S
C807 O787 1.256 . S
C807 C800 1.500 . S
H808 C791 0.930 . S
H809 C792 0.931 . S
H810 C793 0.930 . S
H811 C794 0.930 . S
H812 C801 0.930 . S
H813 C803 0.931 . S
H814 C804 0.930 . S
H815 C805 0.930 . S
Tb816 N847 2.660 . S
Tb816 N854 2.600 . S
Tb816 O860 2.546 . S
Tb816 O861 2.610 . S
Tb816 O863 2.320 . S
Tb816 O864 2.552 . S
Tb816 O865 2.413 . S
Tb816 O867 2.362 . S
Tb816 O868 2.421 . S
Tb816 C880 2.833 . S
C817 C820 1.432 . S
C817 C821 1.414 . S
C817 N824 1.359 . S
C818 C820 1.417 . S
C818 C822 1.432 . S
C818 C830 1.410 1_545 S
C819 C821 1.444 . S
C819 C822 1.317 . S
C819 H842 0.929 . S
C820 C817 1.432 . S
C820 C818 1.417 . S
C820 N828 1.360 . S
C821 C817 1.414 . S
C821 C819 1.444 . S
C821 C826 1.385 . S
C822 C818 1.432 . S
C822 C819 1.317 . S
C822 H834 0.930 . S
C823 C825 1.392 . S
C823 C826 1.370 . S
C823 H835 0.931 . S
N824 C817 1.359 . S
N824 C825 1.327 . S
N824 Tb827 2.600 . S
C825 C823 1.392 . S
C825 N824 1.327 . S
C825 H832 0.930 . S
C826 C821 1.385 . S
C826 C823 1.370 . S
C826 H845 0.930 . S
Tb827 N824 2.600 . S
Tb827 N828 2.660 . S
Tb827 O861 2.362 1_556 S
Tb827 O862 2.421 1_556 S
Tb827 O866 2.546 . S
Tb827 O867 2.610 1_556 S
Tb827 O869 2.320 . S
Tb827 O870 2.552 . S
Tb827 O871 2.413 . S
Tb827 C891 2.833 . S
N828 C820 1.360 . S
N828 Tb827 2.660 . S
N828 C829 1.305 . S
C829 N828 1.305 . S
C829 C831 1.407 1_545 S
C829 H836 0.930 1_545 S
C830 C818 1.410 1_565 S
C830 C831 1.345 . S
C830 H838 0.930 . S
C831 C829 1.407 1_565 S
C831 C830 1.345 . S
C831 H833 0.930 . S
H832 C825 0.930 . S
H833 C831 0.930 . S
H834 C822 0.930 . S
H835 C823 0.931 . S
H836 C829 0.930 1_565 S
H837 C851 0.930 . S
H838 C830 0.930 . S
H839 C857 0.930 . S
H840 C848 0.930 . S
H841 C855 0.931 . S
H842 C819 0.929 . S
H843 C849 0.930 . S
H844 C882 0.930 . S
H845 C826 0.930 . S
H846 C881 0.929 . S
N847 Tb816 2.660 . S
N847 C848 1.305 . S
N847 C852 1.360 . S
C848 H840 0.930 . S
C848 N847 1.305 . S
C848 C851 1.407 . S
C849 H843 0.930 . S
C849 C850 1.410 . S
C849 C851 1.345 . S
C850 C849 1.410 . S
C850 C852 1.417 . S
C850 C882 1.432 . S
C851 H837 0.930 . S
C851 C848 1.407 . S
C851 C849 1.345 . S
C852 N847 1.360 . S
C852 C850 1.417 . S
C852 C856 1.432 . S
H853 C858 0.930 . S
N854 Tb816 2.600 . S
N854 C856 1.359 . S
N854 C857 1.327 1_545 S
C855 H841 0.931 . S
C855 C857 1.392 . S
C855 C858 1.370 . S
C856 C852 1.432 . S
C856 N854 1.359 . S
C856 C859 1.414 . S
C857 H839 0.930 . S
C857 N854 1.327 1_565 S
C857 C855 1.392 . S
C858 H853 0.930 . S
C858 C855 1.370 . S
C858 C859 1.385 1_565 S
C859 C856 1.414 . S
C859 C858 1.385 1_545 S
C859 C881 1.444 . S
O860 Tb816 2.546 . S
O860 C880 1.251 . S
O861 Tb816 2.610 . S
O861 Tb827 2.362 1_554 S
O861 C872 1.283 . S
O862 Tb827 2.421 1_554 S
O862 C879 1.262 . S
O863 Tb816 2.320 . S
O863 C879 1.260 . S
O864 Tb816 2.552 . S
O864 C872 1.243 . S
O865 Tb816 2.413 . S
O865 C880 1.256 . S
O866 Tb827 2.546 . S
O866 C891 1.251 . S
O867 Tb816 2.362 . S
O867 Tb827 2.610 1_554 S
O867 C883 1.283 . S
O868 Tb816 2.421 . S
O868 C890 1.262 1_554 S
O869 Tb827 2.320 . S
O869 C890 1.260 . S
O870 Tb827 2.552 . S
O870 C883 1.243 1_556 S
O871 Tb827 2.413 . S
O871 C891 1.256 . S
C872 O861 1.283 . S
C872 O864 1.243 . S
C873 C875 1.382 . S
C873 C877 1.393 1_545 S
C873 C880 1.500 . S
C874 C875 1.400 . S
C874 C876 1.393 . S
C875 C873 1.382 . S
C875 C874 1.400 . S
C875 H892 0.930 . S
C876 C874 1.393 . S
C876 C878 1.385 1_545 S
C876 H893 0.929 1_545 S
C877 C873 1.393 1_565 S
C877 C878 1.401 . S
C877 H894 0.930 . S
C878 C876 1.385 1_565 S
C878 C877 1.401 . S
C878 H895 0.930 . S
C879 O862 1.262 . S
C879 O863 1.260 . S
C880 Tb816 2.833 . S
C880 O860 1.251 . S
C880 O865 1.256 . S
C880 C873 1.500 . S
C881 H846 0.929 . S
C881 C859 1.444 . S
C881 C882 1.317 . S
C882 H844 0.930 . S
C882 C850 1.432 . S
C882 C881 1.317 . S
C883 O867 1.283 . S
C883 O870 1.243 1_554 S
C884 C885 1.382 . S
C884 C888 1.393 . S
C884 C891 1.500 . S
C885 C884 1.382 . S
C885 C886 1.400 . S
C885 H896 0.930 . S
C886 C885 1.400 . S
C886 C887 1.384 . S
C887 C886 1.384 . S
C887 C889 1.392 . S
C887 H897 0.931 . S
C888 C884 1.393 . S
C888 C889 1.401 . S
C888 H898 0.930 . S
C889 C887 1.392 . S
C889 C888 1.401 . S
C889 H899 0.930 . S
C890 O868 1.262 1_556 S
C890 O869 1.260 . S
C891 Tb827 2.833 . S
C891 O866 1.251 . S
C891 O871 1.256 . S
C891 C884 1.500 . S
H892 C875 0.930 . S
H893 C876 0.929 1_565 S
H894 C877 0.930 . S
H895 C878 0.930 . S
H896 C885 0.930 . S
H897 C887 0.931 . S
H898 C888 0.930 . S
H899 C889 0.930 . S
Tb900 N931 2.660 . S
Tb900 N938 2.600 . S
Tb900 O944 2.546 . S
Tb900 O945 2.610 . S
Tb900 O947 2.320 . S
Tb900 O948 2.552 . S
Tb900 O949 2.413 . S
Tb900 O951 2.362 . S
Tb900 O952 2.421 . S
Tb900 C964 2.833 . S
C901 C904 1.432 . S
C901 C905 1.414 . S
C901 N908 1.359 . S
C902 C904 1.417 . S
C902 C906 1.432 . S
C902 C914 1.410 . S
C903 C905 1.444 . S
C903 C906 1.317 . S
C903 H926 0.929 . S
C904 C901 1.432 . S
C904 C902 1.417 . S
C904 N912 1.360 . S
C905 C901 1.414 . S
C905 C903 1.444 . S
C905 C910 1.385 . S
C906 C902 1.432 . S
C906 C903 1.317 . S
C906 H918 0.930 . S
C907 C909 1.392 . S
C907 C910 1.370 . S
C907 H919 0.931 . S
N908 C901 1.359 . S
N908 C909 1.327 . S
N908 Tb911 2.600 . S
C909 C907 1.392 . S
C909 N908 1.327 . S
C909 H916 0.930 . S
C910 C905 1.385 . S
C910 C907 1.370 . S
C910 H929 0.930 . S
Tb911 N908 2.600 . S
Tb911 N912 2.660 . S
Tb911 O945 2.362 . S
Tb911 O946 2.421 . S
Tb911 O950 2.546 . S
Tb911 O951 2.610 . S
Tb911 O953 2.320 . S
Tb911 O954 2.552 . S
Tb911 O955 2.413 . S
Tb911 C975 2.833 . S
N912 C904 1.360 . S
N912 Tb911 2.660 . S
N912 C913 1.305 . S
C913 N912 1.305 . S
C913 C915 1.407 . S
C913 H920 0.930 . S
C914 C902 1.410 . S
C914 C915 1.345 . S
C914 H922 0.930 . S
C915 C913 1.407 . S
C915 C914 1.345 . S
C915 H917 0.930 . S
H916 C909 0.930 . S
H917 C915 0.930 . S
H918 C906 0.930 . S
H919 C907 0.931 . S
H920 C913 0.930 . S
H921 C935 0.930 . S
H922 C914 0.930 . S
H923 C941 0.930 . S
H924 C932 0.930 . S
H925 C939 0.931 . S
H926 C903 0.929 . S
H927 C933 0.930 . S
H928 C966 0.930 . S
H929 C910 0.930 . S
H930 C965 0.929 . S
N931 Tb900 2.660 . S
N931 C932 1.305 . S
N931 C936 1.360 . S
C932 H924 0.930 . S
C932 N931 1.305 . S
C932 C935 1.407 . S
C933 H927 0.930 . S
C933 C934 1.410 . S
C933 C935 1.345 . S
C934 C933 1.410 . S
C934 C936 1.417 . S
C934 C966 1.432 . S
C935 H921 0.930 . S
C935 C932 1.407 . S
C935 C933 1.345 . S
C936 N931 1.360 . S
C936 C934 1.417 . S
C936 C940 1.432 . S
H937 C942 0.930 . S
N938 Tb900 2.600 . S
N938 C940 1.359 . S
N938 C941 1.327 . S
C939 H925 0.931 . S
C939 C941 1.392 . S
C939 C942 1.370 . S
C940 C936 1.432 . S
C940 N938 1.359 . S
C940 C943 1.414 . S
C941 H923 0.930 . S
C941 N938 1.327 . S
C941 C939 1.392 . S
C942 H937 0.930 . S
C942 C939 1.370 . S
C942 C943 1.385 . S
C943 C940 1.414 . S
C943 C942 1.385 . S
C943 C965 1.444 . S
O944 Tb900 2.546 . S
O944 C964 1.251 . S
O945 Tb900 2.610 . S
O945 Tb911 2.362 . S
O945 C956 1.283 . S
O946 Tb911 2.421 . S
O946 C963 1.262 . S
O947 Tb900 2.320 . S
O947 C963 1.260 . S
O948 Tb900 2.552 . S
O948 C956 1.243 . S
O949 Tb900 2.413 . S
O949 C964 1.256 . S
O950 Tb911 2.546 . S
O950 C975 1.251 . S
O951 Tb900 2.362 . S
O951 Tb911 2.610 . S
O951 C967 1.283 . S
O952 Tb900 2.421 . S
O952 C974 1.262 . S
O953 Tb911 2.320 . S
O953 C974 1.260 . S
O954 Tb911 2.552 . S
O954 C967 1.243 . S
O955 Tb911 2.413 . S
O955 C975 1.256 . S
C956 O945 1.283 . S
C956 O948 1.243 . S
C957 C959 1.382 . S
C957 C961 1.393 . S
C957 C964 1.500 . S
C958 C959 1.400 . S
C958 C960 1.384 . S
C959 C957 1.382 . S
C959 C958 1.400 . S
C959 H976 0.930 . S
C960 C958 1.384 . S
C960 C962 1.392 . S
C960 H977 0.931 . S
C961 C957 1.393 . S
C961 C962 1.401 . S
C961 H978 0.930 . S
C962 C960 1.392 . S
C962 C961 1.401 . S
C962 H979 0.930 . S
C963 O946 1.262 . S
C963 O947 1.260 . S
C964 Tb900 2.833 . S
C964 O944 1.251 . S
C964 O949 1.256 . S
C964 C957 1.500 . S
C965 H930 0.929 . S
C965 C943 1.444 . S
C965 C966 1.317 . S
C966 H928 0.930 . S
C966 C934 1.432 . S
C966 C965 1.317 . S
C967 O951 1.283 . S
C967 O954 1.243 . S
C968 C969 1.382 . S
C968 C972 1.393 . S
C968 C975 1.500 . S
C969 C968 1.382 . S
C969 C970 1.400 . S
C969 H980 0.930 . S
C970 C969 1.400 . S
C970 C971 1.384 . S
C971 C970 1.384 . S
C971 C973 1.392 . S
C971 H981 0.931 . S
C972 C968 1.393 . S
C972 C973 1.401 . S
C972 H982 0.930 . S
C973 C971 1.392 . S
C973 C972 1.401 . S
C973 H983 0.930 . S
C974 O952 1.262 . S
C974 O953 1.260 . S
C975 Tb911 2.833 . S
C975 O950 1.251 . S
C975 O955 1.256 . S
C975 C968 1.500 . S
H976 C959 0.930 . S
H977 C960 0.931 . S
H978 C961 0.930 . S
H979 C962 0.930 . S
H980 C969 0.930 . S
H981 C971 0.931 . S
H982 C972 0.930 . S
H983 C973 0.930 . S
Tb984 N1015 2.660 . S
Tb984 N1022 2.600 . S
Tb984 O1028 2.546 . S
Tb984 O1029 2.610 1_554 S
Tb984 O1031 2.320 . S
Tb984 O1032 2.552 1_554 S
Tb984 O1033 2.413 . S
Tb984 O1035 2.362 . S
Tb984 O1036 2.421 . S
Tb984 C1048 2.833 . S
C985 C988 1.432 . S
C985 C989 1.414 . S
C985 N992 1.359 . S
C986 C988 1.417 . S
C986 C990 1.432 . S
C986 C998 1.410 . S
C987 C989 1.444 . S
C987 C990 1.317 . S
C987 H1010 0.929 . S
C988 C985 1.432 . S
C988 C986 1.417 . S
C988 N996 1.360 . S
C989 C985 1.414 . S
C989 C987 1.444 . S
C989 C994 1.385 . S
C990 C986 1.432 . S
C990 C987 1.317 . S
C990 H1002 0.930 . S
C991 C993 1.392 . S
C991 C994 1.370 . S
C991 H1003 0.931 . S
N992 C985 1.359 . S
N992 C993 1.327 . S
N992 Tb995 2.600 1_556 S
C993 C991 1.392 . S
C993 N992 1.327 . S
C993 H1000 0.930 . S
C994 C989 1.385 . S
C994 C991 1.370 . S
C994 H1013 0.930 . S
Tb995 N992 2.600 1_554 S
Tb995 N996 2.660 1_554 S
Tb995 O1029 2.362 1_554 S
Tb995 O1030 2.421 . S
Tb995 O1034 2.546 . S
Tb995 O1035 2.610 . S
Tb995 O1037 2.320 . S
Tb995 O1038 2.552 . S
Tb995 O1039 2.413 . S
Tb995 C1059 2.833 . S
N996 C988 1.360 . S
N996 Tb995 2.660 1_556 S
N996 C997 1.305 . S
C997 N996 1.305 . S
C997 C999 1.407 . S
C997 H1004 0.930 . S
C998 C986 1.410 . S
C998 C999 1.345 . S
C998 H1006 0.930 . S
C999 C997 1.407 . S
C999 C998 1.345 . S
C999 H1001 0.930 . S
H1000 C993 0.930 . S
H1001 C999 0.930 . S
H1002 C990 0.930 . S
H1003 C991 0.931 . S
H1004 C997 0.930 . S
H1005 C1019 0.930 . S
H1006 C998 0.930 . S
H1007 C1025 0.930 . S
H1008 C1016 0.930 . S
H1009 C1023 0.931 . S
H1010 C987 0.929 . S
H1011 C1017 0.930 . S
H1012 C1050 0.930 . S
H1013 C994 0.930 . S
H1014 C1049 0.929 . S
N1015 Tb984 2.660 . S
N1015 C1016 1.305 . S
N1015 C1020 1.360 . S
C1016 H1008 0.930 . S
C1016 N1015 1.305 . S
C1016 C1019 1.407 . S
C1017 H1011 0.930 . S
C1017 C1018 1.410 . S
C1017 C1019 1.345 . S
C1018 C1017 1.410 . S
C1018 C1020 1.417 . S
C1018 C1050 1.432 . S
C1019 H1005 0.930 . S
C1019 C1016 1.407 . S
C1019 C1017 1.345 . S
C1020 N1015 1.360 . S
C1020 C1018 1.417 . S
C1020 C1024 1.432 . S
H1021 C1026 0.930 . S
N1022 Tb984 2.600 . S
N1022 C1024 1.359 . S
N1022 C1025 1.327 . S
C1023 H1009 0.931 . S
C1023 C1025 1.392 . S
C1023 C1026 1.370 . S
C1024 C1020 1.432 . S
C1024 N1022 1.359 . S
C1024 C1027 1.414 . S
C1025 H1007 0.930 . S
C1025 N1022 1.327 . S
C1025 C1023 1.392 . S
C1026 H1021 0.930 . S
C1026 C1023 1.370 . S
C1026 C1027 1.385 . S
C1027 C1024 1.414 . S
C1027 C1026 1.385 . S
C1027 C1049 1.444 . S
O1028 Tb984 2.546 . S
O1028 C1048 1.251 . S
O1029 Tb984 2.610 1_556 S
O1029 Tb995 2.362 1_556 S
O1029 C1040 1.283 . S
O1030 Tb995 2.421 . S
O1030 C1047 1.262 . S
O1031 Tb984 2.320 . S
O1031 C1047 1.260 . S
O1032 Tb984 2.552 1_556 S
O1032 C1040 1.243 . S
O1033 Tb984 2.413 . S
O1033 C1048 1.256 . S
O1034 Tb995 2.546 . S
O1034 C1059 1.251 . S
O1035 Tb984 2.362 . S
O1035 Tb995 2.610 . S
O1035 C1051 1.283 . S
O1036 Tb984 2.421 . S
O1036 C1058 1.262 . S
O1037 Tb995 2.320 . S
O1037 C1058 1.260 . S
O1038 Tb995 2.552 . S
O1038 C1051 1.243 . S
O1039 Tb995 2.413 . S
O1039 C1059 1.256 . S
C1040 O1029 1.283 . S
C1040 O1032 1.243 . S
C1041 C1043 1.382 1_554 S
C1041 C1045 1.393 . S
C1041 C1048 1.500 . S
C1042 C1043 1.400 . S
C1042 C1044 1.384 . S
C1043 C1041 1.382 1_556 S
C1043 C1042 1.400 . S
C1043 H1060 0.930 . S
C1044 C1042 1.384 . S
C1044 C1046 1.392 1_556 S
C1044 H1061 0.931 . S
C1045 C1041 1.393 . S
C1045 C1046 1.401 . S
C1045 H1062 0.930 . S
C1046 C1044 1.392 1_554 S
C1046 C1045 1.401 . S
C1046 H1063 0.930 . S
C1047 O1030 1.262 . S
C1047 O1031 1.260 . S
C1048 Tb984 2.833 . S
C1048 O1028 1.251 . S
C1048 O1033 1.256 . S
C1048 C1041 1.500 . S
C1049 H1014 0.929 . S
C1049 C1027 1.444 . S
C1049 C1050 1.317 . S
C1050 H1012 0.930 . S
C1050 C1018 1.432 . S
C1050 C1049 1.317 . S
C1051 O1035 1.283 . S
C1051 O1038 1.243 . S
C1052 C1053 1.382 . S
C1052 C1056 1.393 . S
C1052 C1059 1.500 . S
C1053 C1052 1.382 . S
C1053 C1054 1.400 . S
C1053 H1064 0.930 . S
C1054 C1053 1.400 . S
C1054 C1055 1.384 . S
C1055 C1054 1.384 . S
C1055 C1057 1.392 . S
C1055 H1065 0.931 . S
C1056 C1052 1.393 . S
C1056 C1057 1.401 . S
C1056 H1066 0.930 1_554 S
C1057 C1055 1.392 . S
C1057 C1056 1.401 . S
C1057 H1067 0.930 . S
C1058 O1036 1.262 . S
C1058 O1037 1.260 . S
C1059 Tb995 2.833 . S
C1059 O1034 1.251 . S
C1059 O1039 1.256 . S
C1059 C1052 1.500 . S
H1060 C1043 0.930 . S
H1061 C1044 0.931 . S
H1062 C1045 0.930 . S
H1063 C1046 0.930 . S
H1064 C1053 0.930 . S
H1065 C1055 0.931 . S
H1066 C1056 0.930 1_556 S
H1067 C1057 0.930 . S
Tb1068 N1099 2.660 . S
Tb1068 N1106 2.600 . S
Tb1068 O1112 2.546 . S
Tb1068 O1113 2.610 . S
Tb1068 O1115 2.320 . S
Tb1068 O1116 2.552 . S
Tb1068 O1117 2.413 . S
Tb1068 O1119 2.362 . S
Tb1068 O1120 2.421 . S
Tb1068 C1132 2.833 . S
C1069 C1072 1.432 . S
C1069 C1073 1.414 . S
C1069 N1076 1.359 . S
C1070 C1072 1.417 . S
C1070 C1074 1.432 . S
C1070 C1082 1.410 . S
C1071 C1073 1.444 . S
C1071 C1074 1.317 . S
C1071 H1094 0.929 . S
C1072 C1069 1.432 . S
C1072 C1070 1.417 . S
C1072 N1080 1.360 . S
C1073 C1069 1.414 . S
C1073 C1071 1.444 . S
C1073 C1078 1.385 . S
C1074 C1070 1.432 . S
C1074 C1071 1.317 . S
C1074 H1086 0.930 . S
C1075 C1077 1.392 . S
C1075 C1078 1.370 . S
C1075 H1087 0.931 . S
N1076 C1069 1.359 . S
N1076 C1077 1.327 . S
N1076 Tb1079 2.600 . S
C1077 C1075 1.392 . S
C1077 N1076 1.327 . S
C1077 H1084 0.930 . S
C1078 C1073 1.385 . S
C1078 C1075 1.370 . S
C1078 H1097 0.930 . S
Tb1079 N1076 2.600 . S
Tb1079 N1080 2.660 . S
Tb1079 O1113 2.362 . S
Tb1079 O1114 2.421 . S
Tb1079 O1118 2.546 . S
Tb1079 O1119 2.610 . S
Tb1079 O1121 2.320 . S
Tb1079 O1122 2.552 . S
Tb1079 O1123 2.413 . S
Tb1079 C1143 2.833 . S
N1080 C1072 1.360 . S
N1080 Tb1079 2.660 . S
N1080 C1081 1.305 . S
C1081 N1080 1.305 . S
C1081 C1083 1.407 . S
C1081 H1088 0.930 . S
C1082 C1070 1.410 . S
C1082 C1083 1.345 . S
C1082 H1090 0.930 . S
C1083 C1081 1.407 . S
C1083 C1082 1.345 . S
C1083 H1085 0.930 . S
H1084 C1077 0.930 . S
H1085 C1083 0.930 . S
H1086 C1074 0.930 . S
H1087 C1075 0.931 . S
H1088 C1081 0.930 . S
H1089 C1103 0.930 . S
H1090 C1082 0.930 . S
H1091 C1109 0.930 . S
H1092 C1100 0.930 . S
H1093 C1107 0.931 . S
H1094 C1071 0.929 . S
H1095 C1101 0.930 . S
H1096 C1134 0.930 . S
H1097 C1078 0.930 . S
H1098 C1133 0.929 . S
N1099 Tb1068 2.660 . S
N1099 C1100 1.305 . S
N1099 C1104 1.360 . S
C1100 H1092 0.930 . S
C1100 N1099 1.305 . S
C1100 C1103 1.407 . S
C1101 H1095 0.930 . S
C1101 C1102 1.410 . S
C1101 C1103 1.345 . S
C1102 C1101 1.410 . S
C1102 C1104 1.417 . S
C1102 C1134 1.432 . S
C1103 H1089 0.930 . S
C1103 C1100 1.407 . S
C1103 C1101 1.345 . S
C1104 N1099 1.360 . S
C1104 C1102 1.417 . S
C1104 C1108 1.432 . S
H1105 C1110 0.930 . S
N1106 Tb1068 2.600 . S
N1106 C1108 1.359 . S
N1106 C1109 1.327 . S
C1107 H1093 0.931 . S
C1107 C1109 1.392 . S
C1107 C1110 1.370 . S
C1108 C1104 1.432 . S
C1108 N1106 1.359 . S
C1108 C1111 1.414 . S
C1109 H1091 0.930 . S
C1109 N1106 1.327 . S
C1109 C1107 1.392 . S
C1110 H1105 0.930 . S
C1110 C1107 1.370 . S
C1110 C1111 1.385 . S
C1111 C1108 1.414 . S
C1111 C1110 1.385 . S
C1111 C1133 1.444 . S
O1112 Tb1068 2.546 . S
O1112 C1132 1.251 . S
O1113 Tb1068 2.610 . S
O1113 Tb1079 2.362 . S
O1113 C1124 1.283 . S
O1114 Tb1079 2.421 . S
O1114 C1131 1.262 . S
O1115 Tb1068 2.320 . S
O1115 C1131 1.260 . S
O1116 Tb1068 2.552 . S
O1116 C1124 1.243 . S
O1117 Tb1068 2.413 . S
O1117 C1132 1.256 . S
O1118 Tb1079 2.546 . S
O1118 C1143 1.251 . S
O1119 Tb1068 2.362 . S
O1119 Tb1079 2.610 . S
O1119 C1135 1.283 . S
O1120 Tb1068 2.421 . S
O1120 C1142 1.262 . S
O1121 Tb1079 2.320 . S
O1121 C1142 1.260 . S
O1122 Tb1079 2.552 . S
O1122 C1135 1.243 . S
O1123 Tb1079 2.413 . S
O1123 C1143 1.256 . S
C1124 O1113 1.283 . S
C1124 O1116 1.243 . S
C1125 C1127 1.382 . S
C1125 C1129 1.393 . S
C1125 C1132 1.500 . S
C1126 C1127 1.400 . S
C1126 C1128 1.384 . S
C1127 C1125 1.382 . S
C1127 C1126 1.400 . S
C1127 H1144 0.930 . S
C1128 C1126 1.384 . S
C1128 C1130 1.392 . S
C1128 H1145 0.931 . S
C1129 C1125 1.393 . S
C1129 C1130 1.401 . S
C1129 H1146 0.930 . S
C1130 C1128 1.392 . S
C1130 C1129 1.401 . S
C1130 H1147 0.930 . S
C1131 O1114 1.262 . S
C1131 O1115 1.260 . S
C1132 Tb1068 2.833 . S
C1132 O1112 1.251 . S
C1132 O1117 1.256 . S
C1132 C1125 1.500 . S
C1133 H1098 0.929 . S
C1133 C1111 1.444 . S
C1133 C1134 1.317 . S
C1134 H1096 0.930 . S
C1134 C1102 1.432 . S
C1134 C1133 1.317 . S
C1135 O1119 1.283 . S
C1135 O1122 1.243 . S
C1136 C1137 1.382 . S
C1136 C1140 1.393 . S
C1136 C1143 1.500 . S
C1137 C1136 1.382 . S
C1137 C1138 1.400 . S
C1137 H1148 0.930 . S
C1138 C1137 1.400 . S
C1138 C1139 1.384 . S
C1139 C1138 1.384 . S
C1139 C1141 1.392 . S
C1139 H1149 0.931 . S
C1140 C1136 1.393 . S
C1140 C1141 1.401 . S
C1140 H1150 0.930 . S
C1141 C1139 1.392 . S
C1141 C1140 1.401 . S
C1141 H1151 0.930 . S
C1142 O1120 1.262 . S
C1142 O1121 1.260 . S
C1143 Tb1079 2.833 . S
C1143 O1118 1.251 . S
C1143 O1123 1.256 . S
C1143 C1136 1.500 . S
H1144 C1127 0.930 . S
H1145 C1128 0.931 . S
H1146 C1129 0.930 . S
H1147 C1130 0.930 . S
H1148 C1137 0.930 . S
H1149 C1139 0.931 . S
H1150 C1140 0.930 . S
H1151 C1141 0.930 . S
Tb1152 N1183 2.660 . S
Tb1152 N1190 2.600 . S
Tb1152 O1196 2.546 . S
Tb1152 O1197 2.610 . S
Tb1152 O1199 2.320 . S
Tb1152 O1200 2.552 . S
Tb1152 O1201 2.413 . S
Tb1152 O1203 2.362 . S
Tb1152 O1204 2.421 . S
Tb1152 C1216 2.833 . S
C1153 C1156 1.432 . S
C1153 C1157 1.414 . S
C1153 N1160 1.359 1_655 S
C1154 C1156 1.417 . S
C1154 C1158 1.432 . S
C1154 C1166 1.410 . S
C1155 C1157 1.444 . S
C1155 C1158 1.317 . S
C1155 H1178 0.929 . S
C1156 C1153 1.432 . S
C1156 C1154 1.417 . S
C1156 N1164 1.360 1_655 S
C1157 C1153 1.414 . S
C1157 C1155 1.444 . S
C1157 C1162 1.385 . S
C1158 C1154 1.432 . S
C1158 C1155 1.317 . S
C1158 H1170 0.930 . S
C1159 C1161 1.392 1_655 S
C1159 C1162 1.370 . S
C1159 H1171 0.931 . S
N1160 C1153 1.359 1_455 S
N1160 C1161 1.327 . S
N1160 Tb1163 2.600 . S
C1161 C1159 1.392 1_455 S
C1161 N1160 1.327 . S
C1161 H1168 0.930 . S
C1162 C1157 1.385 . S
C1162 C1159 1.370 . S
C1162 H1181 0.930 . S
Tb1163 N1160 2.600 . S
Tb1163 N1164 2.660 . S
Tb1163 O1197 2.362 . S
Tb1163 O1198 2.421 . S
Tb1163 O1202 2.546 . S
Tb1163 O1203 2.610 . S
Tb1163 O1205 2.320 . S
Tb1163 O1206 2.552 . S
Tb1163 O1207 2.413 . S
Tb1163 C1227 2.833 . S
N1164 C1156 1.360 1_455 S
N1164 Tb1163 2.660 . S
N1164 C1165 1.305 . S
C1165 N1164 1.305 . S
C1165 C1167 1.407 1_455 S
C1165 H1172 0.930 . S
C1166 C1154 1.410 . S
C1166 C1167 1.345 . S
C1166 H1174 0.930 . S
C1167 C1165 1.407 1_655 S
C1167 C1166 1.345 . S
C1167 H1169 0.930 . S
H1168 C1161 0.930 . S
H1169 C1167 0.930 . S
H1170 C1158 0.930 . S
H1171 C1159 0.931 . S
H1172 C1165 0.930 . S
H1173 C1187 0.930 . S
H1174 C1166 0.930 . S
H1175 C1193 0.930 . S
H1176 C1184 0.930 . S
H1177 C1191 0.931 . S
H1178 C1155 0.929 . S
H1179 C1185 0.930 . S
H1180 C1218 0.930 . S
H1181 C1162 0.930 . S
H1182 C1217 0.929 . S
N1183 Tb1152 2.660 . S
N1183 C1184 1.305 . S
N1183 C1188 1.360 . S
C1184 H1176 0.930 . S
C1184 N1183 1.305 . S
C1184 C1187 1.407 . S
C1185 H1179 0.930 . S
C1185 C1186 1.410 . S
C1185 C1187 1.345 . S
C1186 C1185 1.410 . S
C1186 C1188 1.417 . S
C1186 C1218 1.432 . S
C1187 H1173 0.930 . S
C1187 C1184 1.407 . S
C1187 C1185 1.345 . S
C1188 N1183 1.360 . S
C1188 C1186 1.417 . S
C1188 C1192 1.432 . S
H1189 C1194 0.930 . S
N1190 Tb1152 2.600 . S
N1190 C1192 1.359 . S
N1190 C1193 1.327 . S
C1191 H1177 0.931 . S
C1191 C1193 1.392 . S
C1191 C1194 1.370 . S
C1192 C1188 1.432 . S
C1192 N1190 1.359 . S
C1192 C1195 1.414 . S
C1193 H1175 0.930 . S
C1193 N1190 1.327 . S
C1193 C1191 1.392 . S
C1194 H1189 0.930 . S
C1194 C1191 1.370 . S
C1194 C1195 1.385 . S
C1195 C1192 1.414 . S
C1195 C1194 1.385 . S
C1195 C1217 1.444 . S
O1196 Tb1152 2.546 . S
O1196 C1216 1.251 . S
O1197 Tb1152 2.610 . S
O1197 Tb1163 2.362 . S
O1197 C1208 1.283 . S
O1198 Tb1163 2.421 . S
O1198 C1215 1.262 . S
O1199 Tb1152 2.320 . S
O1199 C1215 1.260 . S
O1200 Tb1152 2.552 . S
O1200 C1208 1.243 . S
O1201 Tb1152 2.413 . S
O1201 C1216 1.256 . S
O1202 Tb1163 2.546 . S
O1202 C1227 1.251 . S
O1203 Tb1152 2.362 . S
O1203 Tb1163 2.610 . S
O1203 C1219 1.283 . S
O1204 Tb1152 2.421 . S
O1204 C1226 1.262 . S
O1205 Tb1163 2.320 . S
O1205 C1226 1.260 . S
O1206 Tb1163 2.552 . S
O1206 C1219 1.243 . S
O1207 Tb1163 2.413 . S
O1207 C1227 1.256 . S
C1208 O1197 1.283 . S
C1208 O1200 1.243 . S
C1209 C1211 1.382 . S
C1209 C1213 1.393 . S
C1209 C1216 1.500 . S
C1210 C1211 1.400 1_655 S
C1210 C1212 1.384 . S
C1211 C1209 1.382 . S
C1211 C1210 1.400 1_455 S
C1211 H1228 0.930 . S
C1212 C1210 1.384 . S
C1212 C1214 1.392 1_655 S
C1212 H1229 0.931 . S
C1213 C1209 1.393 . S
C1213 C1214 1.401 . S
C1213 H1230 0.930 . S
C1214 C1212 1.392 1_455 S
C1214 C1213 1.401 . S
C1214 H1231 0.930 . S
C1215 O1198 1.262 . S
C1215 O1199 1.260 . S
C1216 Tb1152 2.833 . S
C1216 O1196 1.251 . S
C1216 O1201 1.256 . S
C1216 C1209 1.500 . S
C1217 H1182 0.929 . S
C1217 C1195 1.444 . S
C1217 C1218 1.317 . S
C1218 H1180 0.930 . S
C1218 C1186 1.432 . S
C1218 C1217 1.317 . S
C1219 O1203 1.283 . S
C1219 O1206 1.243 . S
C1220 C1221 1.382 . S
C1220 C1224 1.393 . S
C1220 C1227 1.500 . S
C1221 C1220 1.382 . S
C1221 C1222 1.400 . S
C1221 H1232 0.930 . S
C1222 C1221 1.400 . S
C1222 C1223 1.384 . S
C1223 C1222 1.384 . S
C1223 C1225 1.392 . S
C1223 H1233 0.931 . S
C1224 C1220 1.393 . S
C1224 C1225 1.401 . S
C1224 H1234 0.930 . S
C1225 C1223 1.392 . S
C1225 C1224 1.401 . S
C1225 H1235 0.930 . S
C1226 O1204 1.262 . S
C1226 O1205 1.260 . S
C1227 Tb1163 2.833 . S
C1227 O1202 1.251 . S
C1227 O1207 1.256 . S
C1227 C1220 1.500 . S
H1228 C1211 0.930 . S
H1229 C1212 0.931 . S
H1230 C1213 0.930 . S
H1231 C1214 0.930 . S
H1232 C1221 0.930 . S
H1233 C1223 0.931 . S
H1234 C1224 0.930 . S
H1235 C1225 0.930 . S
Tb1236 N1267 2.660 . S
Tb1236 N1274 2.600 . S
Tb1236 O1280 2.546 . S
Tb1236 O1281 2.610 . S
Tb1236 O1283 2.320 . S
Tb1236 O1284 2.552 . S
Tb1236 O1285 2.413 . S
Tb1236 O1287 2.362 . S
Tb1236 O1288 2.421 . S
Tb1236 C1300 2.833 . S
C1237 C1240 1.432 . S
C1237 C1241 1.414 . S
C1237 N1244 1.359 . S
C1238 C1240 1.417 . S
C1238 C1242 1.432 . S
C1238 C1250 1.410 . S
C1239 C1241 1.444 . S
C1239 C1242 1.317 . S
C1239 H1262 0.929 . S
C1240 C1237 1.432 . S
C1240 C1238 1.417 . S
C1240 N1248 1.360 . S
C1241 C1237 1.414 . S
C1241 C1239 1.444 . S
C1241 C1246 1.385 . S
C1242 C1238 1.432 . S
C1242 C1239 1.317 . S
C1242 H1254 0.930 . S
C1243 C1245 1.392 . S
C1243 C1246 1.370 . S
C1243 H1255 0.931 . S
N1244 C1237 1.359 . S
N1244 C1245 1.327 . S
N1244 Tb1247 2.600 . S
C1245 C1243 1.392 . S
C1245 N1244 1.327 . S
C1245 H1252 0.930 . S
C1246 C1241 1.385 . S
C1246 C1243 1.370 . S
C1246 H1265 0.930 . S
Tb1247 N1244 2.600 . S
Tb1247 N1248 2.660 . S
Tb1247 O1281 2.362 . S
Tb1247 O1282 2.421 . S
Tb1247 O1286 2.546 . S
Tb1247 O1287 2.610 . S
Tb1247 O1289 2.320 . S
Tb1247 O1290 2.552 . S
Tb1247 O1291 2.413 . S
Tb1247 C1311 2.833 . S
N1248 C1240 1.360 . S
N1248 Tb1247 2.660 . S
N1248 C1249 1.305 . S
C1249 N1248 1.305 . S
C1249 C1251 1.407 . S
C1249 H1256 0.930 . S
C1250 C1238 1.410 . S
C1250 C1251 1.345 . S
C1250 H1258 0.930 . S
C1251 C1249 1.407 . S
C1251 C1250 1.345 . S
C1251 H1253 0.930 . S
H1252 C1245 0.930 . S
H1253 C1251 0.930 . S
H1254 C1242 0.930 . S
H1255 C1243 0.931 . S
H1256 C1249 0.930 . S
H1257 C1271 0.930 . S
H1258 C1250 0.930 . S
H1259 C1277 0.930 . S
H1260 C1268 0.930 . S
H1261 C1275 0.931 . S
H1262 C1239 0.929 . S
H1263 C1269 0.930 . S
H1264 C1302 0.930 . S
H1265 C1246 0.930 . S
H1266 C1301 0.929 . S
N1267 Tb1236 2.660 . S
N1267 C1268 1.305 . S
N1267 C1272 1.360 . S
C1268 H1260 0.930 . S
C1268 N1267 1.305 . S
C1268 C1271 1.407 . S
C1269 H1263 0.930 . S
C1269 C1270 1.410 . S
C1269 C1271 1.345 . S
C1270 C1269 1.410 . S
C1270 C1272 1.417 . S
C1270 C1302 1.432 . S
C1271 H1257 0.930 . S
C1271 C1268 1.407 . S
C1271 C1269 1.345 . S
C1272 N1267 1.360 . S
C1272 C1270 1.417 . S
C1272 C1276 1.432 . S
H1273 C1278 0.930 . S
N1274 Tb1236 2.600 . S
N1274 C1276 1.359 . S
N1274 C1277 1.327 . S
C1275 H1261 0.931 . S
C1275 C1277 1.392 . S
C1275 C1278 1.370 . S
C1276 C1272 1.432 . S
C1276 N1274 1.359 . S
C1276 C1279 1.414 . S
C1277 H1259 0.930 . S
C1277 N1274 1.327 . S
C1277 C1275 1.392 . S
C1278 H1273 0.930 . S
C1278 C1275 1.370 . S
C1278 C1279 1.385 . S
C1279 C1276 1.414 . S
C1279 C1278 1.385 . S
C1279 C1301 1.444 . S
O1280 Tb1236 2.546 . S
O1280 C1300 1.251 . S
O1281 Tb1236 2.610 . S
O1281 Tb1247 2.362 . S
O1281 C1292 1.283 . S
O1282 Tb1247 2.421 . S
O1282 C1299 1.262 . S
O1283 Tb1236 2.320 . S
O1283 C1299 1.260 . S
O1284 Tb1236 2.552 . S
O1284 C1292 1.243 . S
O1285 Tb1236 2.413 . S
O1285 C1300 1.256 . S
O1286 Tb1247 2.546 . S
O1286 C1311 1.251 . S
O1287 Tb1236 2.362 . S
O1287 Tb1247 2.610 . S
O1287 C1303 1.283 . S
O1288 Tb1236 2.421 . S
O1288 C1310 1.262 . S
O1289 Tb1247 2.320 . S
O1289 C1310 1.260 . S
O1290 Tb1247 2.552 . S
O1290 C1303 1.243 . S
O1291 Tb1247 2.413 . S
O1291 C1311 1.256 . S
C1292 O1281 1.283 . S
C1292 O1284 1.243 . S
C1293 C1295 1.382 . S
C1293 C1297 1.393 . S
C1293 C1300 1.500 . S
C1294 C1295 1.400 . S
C1294 C1296 1.384 . S
C1295 C1293 1.382 . S
C1295 C1294 1.400 . S
C1295 H1312 0.930 . S
C1296 C1294 1.384 . S
C1296 C1298 1.392 . S
C1296 H1313 0.931 . S
C1297 C1293 1.393 . S
C1297 C1298 1.401 . S
C1297 H1314 0.930 . S
C1298 C1296 1.392 . S
C1298 C1297 1.401 . S
C1298 H1315 0.930 . S
C1299 O1282 1.262 . S
C1299 O1283 1.260 . S
C1300 Tb1236 2.833 . S
C1300 O1280 1.251 . S
C1300 O1285 1.256 . S
C1300 C1293 1.500 . S
C1301 H1266 0.929 . S
C1301 C1279 1.444 . S
C1301 C1302 1.317 . S
C1302 H1264 0.930 . S
C1302 C1270 1.432 . S
C1302 C1301 1.317 . S
C1303 O1287 1.283 . S
C1303 O1290 1.243 . S
C1304 C1305 1.382 . S
C1304 C1308 1.393 . S
C1304 C1311 1.500 . S
C1305 C1304 1.382 . S
C1305 C1306 1.400 . S
C1305 H1316 0.930 . S
C1306 C1305 1.400 . S
C1306 C1307 1.384 . S
C1307 C1306 1.384 . S
C1307 C1309 1.392 . S
C1307 H1317 0.931 . S
C1308 C1304 1.393 . S
C1308 C1309 1.401 . S
C1308 H1318 0.930 . S
C1309 C1307 1.392 . S
C1309 C1308 1.401 . S
C1309 H1319 0.930 . S
C1310 O1288 1.262 . S
C1310 O1289 1.260 . S
C1311 Tb1247 2.833 . S
C1311 O1286 1.251 . S
C1311 O1291 1.256 . S
C1311 C1304 1.500 . S
H1312 C1295 0.930 . S
H1313 C1296 0.931 . S
H1314 C1297 0.930 . S
H1315 C1298 0.930 . S
H1316 C1305 0.930 . S
H1317 C1307 0.931 . S
H1318 C1308 0.930 . S
H1319 C1309 0.930 . S
Tb1320 N1351 2.660 . S
Tb1320 N1358 2.600 . S
Tb1320 O1364 2.546 . S
Tb1320 O1365 2.610 . S
Tb1320 O1367 2.320 . S
Tb1320 O1368 2.552 . S
Tb1320 O1369 2.413 . S
Tb1320 O1371 2.362 . S
Tb1320 O1372 2.421 . S
Tb1320 C1384 2.833 . S
C1321 C1324 1.432 . S
C1321 C1325 1.414 . S
C1321 N1328 1.359 . S
C1322 C1324 1.417 . S
C1322 C1326 1.432 . S
C1322 C1334 1.410 . S
C1323 C1325 1.444 . S
C1323 C1326 1.317 . S
C1323 H1346 0.929 . S
C1324 C1321 1.432 . S
C1324 C1322 1.417 . S
C1324 N1332 1.360 . S
C1325 C1321 1.414 . S
C1325 C1323 1.444 . S
C1325 C1330 1.385 . S
C1326 C1322 1.432 . S
C1326 C1323 1.317 . S
C1326 H1338 0.930 . S
C1327 C1329 1.392 . S
C1327 C1330 1.370 . S
C1327 H1339 0.931 . S
N1328 C1321 1.359 . S
N1328 C1329 1.327 . S
N1328 Tb1331 2.600 . S
C1329 C1327 1.392 . S
C1329 N1328 1.327 . S
C1329 H1336 0.930 . S
C1330 C1325 1.385 . S
C1330 C1327 1.370 . S
C1330 H1349 0.930 . S
Tb1331 N1328 2.600 . S
Tb1331 N1332 2.660 . S
Tb1331 O1365 2.362 . S
Tb1331 O1366 2.421 . S
Tb1331 O1370 2.546 . S
Tb1331 O1371 2.610 . S
Tb1331 O1373 2.320 . S
Tb1331 O1374 2.552 . S
Tb1331 O1375 2.413 . S
Tb1331 C1395 2.833 . S
N1332 C1324 1.360 . S
N1332 Tb1331 2.660 . S
N1332 C1333 1.305 . S
C1333 N1332 1.305 . S
C1333 C1335 1.407 . S
C1333 H1340 0.930 . S
C1334 C1322 1.410 . S
C1334 C1335 1.345 . S
C1334 H1342 0.930 . S
C1335 C1333 1.407 . S
C1335 C1334 1.345 . S
C1335 H1337 0.930 . S
H1336 C1329 0.930 . S
H1337 C1335 0.930 . S
H1338 C1326 0.930 . S
H1339 C1327 0.931 . S
H1340 C1333 0.930 . S
H1341 C1355 0.930 . S
H1342 C1334 0.930 . S
H1343 C1361 0.930 . S
H1344 C1352 0.930 . S
H1345 C1359 0.931 . S
H1346 C1323 0.929 . S
H1347 C1353 0.930 . S
H1348 C1386 0.930 . S
H1349 C1330 0.930 . S
H1350 C1385 0.929 . S
N1351 Tb1320 2.660 . S
N1351 C1352 1.305 . S
N1351 C1356 1.360 . S
C1352 H1344 0.930 . S
C1352 N1351 1.305 . S
C1352 C1355 1.407 . S
C1353 H1347 0.930 . S
C1353 C1354 1.410 . S
C1353 C1355 1.345 . S
C1354 C1353 1.410 . S
C1354 C1356 1.417 . S
C1354 C1386 1.432 . S
C1355 H1341 0.930 . S
C1355 C1352 1.407 . S
C1355 C1353 1.345 . S
C1356 N1351 1.360 . S
C1356 C1354 1.417 . S
C1356 C1360 1.432 . S
H1357 C1362 0.930 . S
N1358 Tb1320 2.600 . S
N1358 C1360 1.359 . S
N1358 C1361 1.327 . S
C1359 H1345 0.931 . S
C1359 C1361 1.392 . S
C1359 C1362 1.370 . S
C1360 C1356 1.432 . S
C1360 N1358 1.359 . S
C1360 C1363 1.414 . S
C1361 H1343 0.930 . S
C1361 N1358 1.327 . S
C1361 C1359 1.392 . S
C1362 H1357 0.930 . S
C1362 C1359 1.370 . S
C1362 C1363 1.385 . S
C1363 C1360 1.414 . S
C1363 C1362 1.385 . S
C1363 C1385 1.444 . S
O1364 Tb1320 2.546 . S
O1364 C1384 1.251 . S
O1365 Tb1320 2.610 . S
O1365 Tb1331 2.362 . S
O1365 C1376 1.283 . S
O1366 Tb1331 2.421 . S
O1366 C1383 1.262 . S
O1367 Tb1320 2.320 . S
O1367 C1383 1.260 . S
O1368 Tb1320 2.552 . S
O1368 C1376 1.243 . S
O1369 Tb1320 2.413 . S
O1369 C1384 1.256 . S
O1370 Tb1331 2.546 . S
O1370 C1395 1.251 . S
O1371 Tb1320 2.362 . S
O1371 Tb1331 2.610 . S
O1371 C1387 1.283 . S
O1372 Tb1320 2.421 . S
O1372 C1394 1.262 . S
O1373 Tb1331 2.320 . S
O1373 C1394 1.260 . S
O1374 Tb1331 2.552 . S
O1374 C1387 1.243 . S
O1375 Tb1331 2.413 . S
O1375 C1395 1.256 . S
C1376 O1365 1.283 . S
C1376 O1368 1.243 . S
C1377 C1379 1.382 . S
C1377 C1381 1.393 . S
C1377 C1384 1.500 . S
C1378 C1379 1.400 . S
C1378 C1380 1.384 . S
C1379 C1377 1.382 . S
C1379 C1378 1.400 . S
C1379 H1396 0.930 . S
C1380 C1378 1.384 . S
C1380 C1382 1.392 . S
C1380 H1397 0.931 . S
C1381 C1377 1.393 . S
C1381 C1382 1.401 . S
C1381 H1398 0.930 . S
C1382 C1380 1.392 . S
C1382 C1381 1.401 . S
C1382 H1399 0.930 . S
C1383 O1366 1.262 . S
C1383 O1367 1.260 . S
C1384 Tb1320 2.833 . S
C1384 O1364 1.251 . S
C1384 O1369 1.256 . S
C1384 C1377 1.500 . S
C1385 H1350 0.929 . S
C1385 C1363 1.444 . S
C1385 C1386 1.317 . S
C1386 H1348 0.930 . S
C1386 C1354 1.432 . S
C1386 C1385 1.317 . S
C1387 O1371 1.283 . S
C1387 O1374 1.243 . S
C1388 C1389 1.382 . S
C1388 C1392 1.393 . S
C1388 C1395 1.500 . S
C1389 C1388 1.382 . S
C1389 C1390 1.400 . S
C1389 H1400 0.930 . S
C1390 C1389 1.400 . S
C1390 C1391 1.384 . S
C1391 C1390 1.384 . S
C1391 C1393 1.392 . S
C1391 H1401 0.931 . S
C1392 C1388 1.393 . S
C1392 C1393 1.401 . S
C1392 H1402 0.930 . S
C1393 C1391 1.392 . S
C1393 C1392 1.401 . S
C1393 H1403 0.930 . S
C1394 O1372 1.262 . S
C1394 O1373 1.260 . S
C1395 Tb1331 2.833 . S
C1395 O1370 1.251 . S
C1395 O1375 1.256 . S
C1395 C1388 1.500 . S
H1396 C1379 0.930 . S
H1397 C1380 0.931 . S
H1398 C1381 0.930 . S
H1399 C1382 0.930 . S
H1400 C1389 0.930 . S
H1401 C1391 0.931 . S
H1402 C1392 0.930 . S
H1403 C1393 0.930 . S
Tb1404 N1435 2.660 . S
Tb1404 N1442 2.600 . S
Tb1404 O1448 2.546 . S
Tb1404 O1449 2.610 . S
Tb1404 O1451 2.320 . S
Tb1404 O1452 2.552 . S
Tb1404 O1453 2.413 . S
Tb1404 O1455 2.362 . S
Tb1404 O1456 2.421 . S
Tb1404 C1468 2.833 . S
C1405 C1408 1.432 . S
C1405 C1409 1.414 . S
C1405 N1412 1.359 . S
C1406 C1408 1.417 . S
C1406 C1410 1.432 . S
C1406 C1418 1.410 . S
C1407 C1409 1.444 . S
C1407 C1410 1.317 . S
C1407 H1430 0.929 . S
C1408 C1405 1.432 . S
C1408 C1406 1.417 . S
C1408 N1416 1.360 . S
C1409 C1405 1.414 . S
C1409 C1407 1.444 . S
C1409 C1414 1.385 . S
C1410 C1406 1.432 . S
C1410 C1407 1.317 . S
C1410 H1422 0.930 . S
C1411 C1413 1.392 . S
C1411 C1414 1.370 . S
C1411 H1423 0.931 . S
N1412 C1405 1.359 . S
N1412 C1413 1.327 . S
N1412 Tb1415 2.600 . S
C1413 C1411 1.392 . S
C1413 N1412 1.327 . S
C1413 H1420 0.930 . S
C1414 C1409 1.385 . S
C1414 C1411 1.370 . S
C1414 H1433 0.930 . S
Tb1415 N1412 2.600 . S
Tb1415 N1416 2.660 . S
Tb1415 O1449 2.362 . S
Tb1415 O1450 2.421 . S
Tb1415 O1454 2.546 . S
Tb1415 O1455 2.610 . S
Tb1415 O1457 2.320 . S
Tb1415 O1458 2.552 . S
Tb1415 O1459 2.413 . S
Tb1415 C1479 2.833 . S
N1416 C1408 1.360 . S
N1416 Tb1415 2.660 . S
N1416 C1417 1.305 . S
C1417 N1416 1.305 . S
C1417 C1419 1.407 . S
C1417 H1424 0.930 . S
C1418 C1406 1.410 . S
C1418 C1419 1.345 . S
C1418 H1426 0.930 . S
C1419 C1417 1.407 . S
C1419 C1418 1.345 . S
C1419 H1421 0.930 . S
H1420 C1413 0.930 . S
H1421 C1419 0.930 . S
H1422 C1410 0.930 . S
H1423 C1411 0.931 . S
H1424 C1417 0.930 . S
H1425 C1439 0.930 . S
H1426 C1418 0.930 . S
H1427 C1445 0.930 . S
H1428 C1436 0.930 . S
H1429 C1443 0.931 . S
H1430 C1407 0.929 . S
H1431 C1437 0.930 . S
H1432 C1470 0.930 . S
H1433 C1414 0.930 . S
H1434 C1469 0.929 . S
N1435 Tb1404 2.660 . S
N1435 C1436 1.305 . S
N1435 C1440 1.360 . S
C1436 H1428 0.930 . S
C1436 N1435 1.305 . S
C1436 C1439 1.407 . S
C1437 H1431 0.930 . S
C1437 C1438 1.410 . S
C1437 C1439 1.345 . S
C1438 C1437 1.410 . S
C1438 C1440 1.417 . S
C1438 C1470 1.432 . S
C1439 H1425 0.930 . S
C1439 C1436 1.407 . S
C1439 C1437 1.345 . S
C1440 N1435 1.360 . S
C1440 C1438 1.417 . S
C1440 C1444 1.432 . S
H1441 C1446 0.930 . S
N1442 Tb1404 2.600 . S
N1442 C1444 1.359 . S
N1442 C1445 1.327 . S
C1443 H1429 0.931 . S
C1443 C1445 1.392 . S
C1443 C1446 1.370 . S
C1444 C1440 1.432 . S
C1444 N1442 1.359 . S
C1444 C1447 1.414 . S
C1445 H1427 0.930 . S
C1445 N1442 1.327 . S
C1445 C1443 1.392 . S
C1446 H1441 0.930 . S
C1446 C1443 1.370 . S
C1446 C1447 1.385 . S
C1447 C1444 1.414 . S
C1447 C1446 1.385 . S
C1447 C1469 1.444 . S
O1448 Tb1404 2.546 . S
O1448 C1468 1.251 . S
O1449 Tb1404 2.610 . S
O1449 Tb1415 2.362 . S
O1449 C1460 1.283 . S
O1450 Tb1415 2.421 . S
O1450 C1467 1.262 . S
O1451 Tb1404 2.320 . S
O1451 C1467 1.260 . S
O1452 Tb1404 2.552 . S
O1452 C1460 1.243 . S
O1453 Tb1404 2.413 . S
O1453 C1468 1.256 . S
O1454 Tb1415 2.546 . S
O1454 C1479 1.251 . S
O1455 Tb1404 2.362 . S
O1455 Tb1415 2.610 . S
O1455 C1471 1.283 . S
O1456 Tb1404 2.421 . S
O1456 C1478 1.262 . S
O1457 Tb1415 2.320 . S
O1457 C1478 1.260 . S
O1458 Tb1415 2.552 . S
O1458 C1471 1.243 . S
O1459 Tb1415 2.413 . S
O1459 C1479 1.256 . S
C1460 O1449 1.283 . S
C1460 O1452 1.243 . S
C1461 C1463 1.382 . S
C1461 C1465 1.393 . S
C1461 C1468 1.500 . S
C1462 C1463 1.400 . S
C1462 C1464 1.384 . S
C1463 C1461 1.382 . S
C1463 C1462 1.400 . S
C1463 H1480 0.930 . S
C1464 C1462 1.384 . S
C1464 C1466 1.392 . S
C1464 H1481 0.931 . S
C1465 C1461 1.393 . S
C1465 C1466 1.401 . S
C1465 H1482 0.930 . S
C1466 C1464 1.392 . S
C1466 C1465 1.401 . S
C1466 H1483 0.930 . S
C1467 O1450 1.262 . S
C1467 O1451 1.260 . S
C1468 Tb1404 2.833 . S
C1468 O1448 1.251 . S
C1468 O1453 1.256 . S
C1468 C1461 1.500 . S
C1469 H1434 0.929 . S
C1469 C1447 1.444 . S
C1469 C1470 1.317 . S
C1470 H1432 0.930 . S
C1470 C1438 1.432 . S
C1470 C1469 1.317 . S
C1471 O1455 1.283 . S
C1471 O1458 1.243 . S
C1472 C1473 1.382 . S
C1472 C1476 1.393 . S
C1472 C1479 1.500 . S
C1473 C1472 1.382 . S
C1473 C1474 1.400 . S
C1473 H1484 0.930 . S
C1474 C1473 1.400 . S
C1474 C1475 1.384 . S
C1475 C1474 1.384 . S
C1475 C1477 1.392 . S
C1475 H1485 0.931 . S
C1476 C1472 1.393 . S
C1476 C1477 1.401 . S
C1476 H1486 0.930 . S
C1477 C1475 1.392 . S
C1477 C1476 1.401 . S
C1477 H1487 0.930 . S
C1478 O1456 1.262 . S
C1478 O1457 1.260 . S
C1479 Tb1415 2.833 . S
C1479 O1454 1.251 . S
C1479 O1459 1.256 . S
C1479 C1472 1.500 . S
H1480 C1463 0.930 . S
H1481 C1464 0.931 . S
H1482 C1465 0.930 . S
H1483 C1466 0.930 . S
H1484 C1473 0.930 . S
H1485 C1475 0.931 . S
H1486 C1476 0.930 . S
H1487 C1477 0.930 . S
Tb1488 N1519 2.660 . S
Tb1488 N1526 2.600 . S
Tb1488 O1532 2.546 . S
Tb1488 O1533 2.610 . S
Tb1488 O1535 2.320 . S
Tb1488 O1536 2.552 . S
Tb1488 O1537 2.413 . S
Tb1488 O1539 2.362 . S
Tb1488 O1540 2.421 . S
Tb1488 C1552 2.833 . S
C1489 C1492 1.432 . S
C1489 C1493 1.414 . S
C1489 N1496 1.359 . S
C1490 C1492 1.417 . S
C1490 C1494 1.432 . S
C1490 C1502 1.410 . S
C1491 C1493 1.444 . S
C1491 C1494 1.317 . S
C1491 H1514 0.929 . S
C1492 C1489 1.432 . S
C1492 C1490 1.417 . S
C1492 N1500 1.360 . S
C1493 C1489 1.414 . S
C1493 C1491 1.444 . S
C1493 C1498 1.385 . S
C1494 C1490 1.432 . S
C1494 C1491 1.317 . S
C1494 H1506 0.930 . S
C1495 C1497 1.392 . S
C1495 C1498 1.370 . S
C1495 H1507 0.931 . S
N1496 C1489 1.359 . S
N1496 C1497 1.327 . S
N1496 Tb1499 2.600 . S
C1497 C1495 1.392 . S
C1497 N1496 1.327 . S
C1497 H1504 0.930 . S
C1498 C1493 1.385 . S
C1498 C1495 1.370 . S
C1498 H1517 0.930 . S
Tb1499 N1496 2.600 . S
Tb1499 N1500 2.660 . S
Tb1499 O1533 2.362 . S
Tb1499 O1534 2.421 . S
Tb1499 O1538 2.546 . S
Tb1499 O1539 2.610 . S
Tb1499 O1541 2.320 . S
Tb1499 O1542 2.552 . S
Tb1499 O1543 2.413 . S
Tb1499 C1563 2.833 . S
N1500 C1492 1.360 . S
N1500 Tb1499 2.660 . S
N1500 C1501 1.305 . S
C1501 N1500 1.305 . S
C1501 C1503 1.407 . S
C1501 H1508 0.930 . S
C1502 C1490 1.410 . S
C1502 C1503 1.345 . S
C1502 H1510 0.930 . S
C1503 C1501 1.407 . S
C1503 C1502 1.345 . S
C1503 H1505 0.930 . S
H1504 C1497 0.930 . S
H1505 C1503 0.930 . S
H1506 C1494 0.930 . S
H1507 C1495 0.931 . S
H1508 C1501 0.930 . S
H1509 C1523 0.930 . S
H1510 C1502 0.930 . S
H1511 C1529 0.930 . S
H1512 C1520 0.930 . S
H1513 C1527 0.931 . S
H1514 C1491 0.929 . S
H1515 C1521 0.930 . S
H1516 C1554 0.930 . S
H1517 C1498 0.930 . S
H1518 C1553 0.929 . S
N1519 Tb1488 2.660 . S
N1519 C1520 1.305 . S
N1519 C1524 1.360 . S
C1520 H1512 0.930 . S
C1520 N1519 1.305 . S
C1520 C1523 1.407 . S
C1521 H1515 0.930 . S
C1521 C1522 1.410 . S
C1521 C1523 1.345 . S
C1522 C1521 1.410 . S
C1522 C1524 1.417 . S
C1522 C1554 1.432 . S
C1523 H1509 0.930 . S
C1523 C1520 1.407 . S
C1523 C1521 1.345 . S
C1524 N1519 1.360 . S
C1524 C1522 1.417 . S
C1524 C1528 1.432 . S
H1525 C1530 0.930 . S
N1526 Tb1488 2.600 . S
N1526 C1528 1.359 . S
N1526 C1529 1.327 . S
C1527 H1513 0.931 . S
C1527 C1529 1.392 . S
C1527 C1530 1.370 . S
C1528 C1524 1.432 . S
C1528 N1526 1.359 . S
C1528 C1531 1.414 . S
C1529 H1511 0.930 . S
C1529 N1526 1.327 . S
C1529 C1527 1.392 . S
C1530 H1525 0.930 . S
C1530 C1527 1.370 . S
C1530 C1531 1.385 . S
C1531 C1528 1.414 . S
C1531 C1530 1.385 . S
C1531 C1553 1.444 . S
O1532 Tb1488 2.546 . S
O1532 C1552 1.251 . S
O1533 Tb1488 2.610 . S
O1533 Tb1499 2.362 . S
O1533 C1544 1.283 . S
O1534 Tb1499 2.421 . S
O1534 C1551 1.262 . S
O1535 Tb1488 2.320 . S
O1535 C1551 1.260 . S
O1536 Tb1488 2.552 . S
O1536 C1544 1.243 . S
O1537 Tb1488 2.413 . S
O1537 C1552 1.256 . S
O1538 Tb1499 2.546 . S
O1538 C1563 1.251 . S
O1539 Tb1488 2.362 . S
O1539 Tb1499 2.610 . S
O1539 C1555 1.283 . S
O1540 Tb1488 2.421 . S
O1540 C1562 1.262 . S
O1541 Tb1499 2.320 . S
O1541 C1562 1.260 . S
O1542 Tb1499 2.552 . S
O1542 C1555 1.243 . S
O1543 Tb1499 2.413 . S
O1543 C1563 1.256 . S
C1544 O1533 1.283 . S
C1544 O1536 1.243 . S
C1545 C1547 1.382 . S
C1545 C1549 1.393 . S
C1545 C1552 1.500 . S
C1546 C1547 1.400 . S
C1546 C1548 1.384 . S
C1547 C1545 1.382 . S
C1547 C1546 1.400 . S
C1547 H1564 0.930 . S
C1548 C1546 1.384 . S
C1548 C1550 1.392 . S
C1548 H1565 0.931 . S
C1549 C1545 1.393 . S
C1549 C1550 1.401 . S
C1549 H1566 0.930 . S
C1550 C1548 1.392 . S
C1550 C1549 1.401 . S
C1550 H1567 0.930 . S
C1551 O1534 1.262 . S
C1551 O1535 1.260 . S
C1552 Tb1488 2.833 . S
C1552 O1532 1.251 . S
C1552 O1537 1.256 . S
C1552 C1545 1.500 . S
C1553 H1518 0.929 . S
C1553 C1531 1.444 . S
C1553 C1554 1.317 . S
C1554 H1516 0.930 . S
C1554 C1522 1.432 . S
C1554 C1553 1.317 . S
C1555 O1539 1.283 . S
C1555 O1542 1.243 . S
C1556 C1557 1.382 . S
C1556 C1560 1.393 . S
C1556 C1563 1.500 . S
C1557 C1556 1.382 . S
C1557 C1558 1.400 . S
C1557 H1568 0.930 . S
C1558 C1557 1.400 . S
C1558 C1559 1.384 . S
C1559 C1558 1.384 . S
C1559 C1561 1.392 . S
C1559 H1569 0.931 . S
C1560 C1556 1.393 . S
C1560 C1561 1.401 . S
C1560 H1570 0.930 . S
C1561 C1559 1.392 . S
C1561 C1560 1.401 . S
C1561 H1571 0.930 . S
C1562 O1540 1.262 . S
C1562 O1541 1.260 . S
C1563 Tb1499 2.833 . S
C1563 O1538 1.251 . S
C1563 O1543 1.256 . S
C1563 C1556 1.500 . S
H1564 C1547 0.930 . S
H1565 C1548 0.931 . S
H1566 C1549 0.930 . S
H1567 C1550 0.930 . S
H1568 C1557 0.930 . S
H1569 C1559 0.931 . S
H1570 C1560 0.930 . S
H1571 C1561 0.930 . S
Tb1572 N1603 2.660 . S
Tb1572 N1610 2.600 1_554 S
Tb1572 O1616 2.546 1_554 S
Tb1572 O1617 2.610 . S
Tb1572 O1619 2.320 . S
Tb1572 O1620 2.552 . S
Tb1572 O1621 2.413 . S
Tb1572 O1623 2.362 . S
Tb1572 O1624 2.421 1_554 S
Tb1572 C1636 2.833 . S
C1573 C1576 1.432 . S
C1573 C1577 1.414 . S
C1573 N1580 1.348 1_655 S
C1574 C1576 1.417 . S
C1574 C1578 1.432 . S
C1574 C1586 1.410 . S
C1575 C1577 1.444 . S
C1575 C1578 1.317 . S
C1575 H1598 0.929 . S
C1576 C1573 1.432 . S
C1576 C1574 1.417 . S
C1576 N1584 1.360 . S
C1577 C1573 1.414 . S
C1577 C1575 1.444 . S
C1577 C1582 1.385 . S
C1578 C1574 1.432 . S
C1578 C1575 1.317 . S
C1578 H1590 0.930 . S
C1579 C1581 1.392 1_655 S
C1579 C1582 1.370 . S
C1579 H1591 0.931 . S
N1580 C1573 1.348 1_455 S
N1580 C1581 1.329 . S
N1580 Tb1583 2.607 . S
C1581 C1579 1.392 1_455 S
C1581 N1580 1.329 . S
C1581 H1588 0.930 . S
C1582 C1577 1.385 . S
C1582 C1579 1.370 . S
C1582 H1601 0.930 . S
Tb1583 N1580 2.607 . S
Tb1583 N1584 2.660 1_455 S
Tb1583 O1617 2.362 . S
Tb1583 O1618 2.421 . S
Tb1583 O1622 2.546 1_455 S
Tb1583 O1623 2.610 . S
Tb1583 O1625 2.320 . S
Tb1583 O1626 2.552 . S
Tb1583 O1627 2.413 1_455 S
Tb1583 C1647 2.833 1_455 S
N1584 C1576 1.360 . S
N1584 Tb1583 2.660 1_655 S
N1584 C1585 1.305 . S
C1585 N1584 1.305 . S
C1585 C1587 1.407 1_554 S
C1585 H1592 0.930 1_554 S
C1586 C1574 1.410 . S
C1586 C1587 1.345 1_554 S
C1586 H1594 0.932 . S
C1587 C1585 1.407 1_556 S
C1587 C1586 1.345 1_556 S
C1587 H1589 0.930 . S
H1588 C1581 0.930 . S
H1589 C1587 0.930 . S
H1590 C1578 0.930 . S
H1591 C1579 0.931 . S
H1592 C1585 0.930 1_556 S
H1593 C1607 0.930 . S
H1594 C1586 0.932 . S
H1595 C1613 0.930 . S
H1596 C1604 0.930 . S
H1597 C1611 0.931 . S
H1598 C1575 0.929 . S
H1599 C1605 0.930 . S
H1600 C1638 0.930 . S
H1601 C1582 0.930 . S
H1602 C1637 0.929 . S
N1603 Tb1572 2.660 . S
N1603 C1604 1.305 . S
N1603 C1608 1.360 . S
C1604 H1596 0.930 . S
C1604 N1603 1.305 . S
C1604 C1607 1.407 . S
C1605 H1599 0.930 . S
C1605 C1606 1.410 . S
C1605 C1607 1.345 . S
C1606 C1605 1.410 . S
C1606 C1608 1.417 . S
C1606 C1638 1.432 . S
C1607 H1593 0.930 . S
C1607 C1604 1.407 . S
C1607 C1605 1.345 . S
C1608 N1603 1.360 . S
C1608 C1606 1.417 . S
C1608 C1612 1.432 1_554 S
H1609 C1614 0.930 . S
N1610 Tb1572 2.600 1_556 S
N1610 C1612 1.359 . S
N1610 C1613 1.327 . S
C1611 H1597 0.931 . S
C1611 C1613 1.392 . S
C1611 C1614 1.370 . S
C1612 C1608 1.432 1_556 S
C1612 N1610 1.359 . S
C1612 C1615 1.414 . S
C1613 H1595 0.930 . S
C1613 N1610 1.327 . S
C1613 C1611 1.392 . S
C1614 H1609 0.930 . S
C1614 C1611 1.370 . S
C1614 C1615 1.385 . S
C1615 C1612 1.414 . S
C1615 C1614 1.385 . S
C1615 C1637 1.444 . S
O1616 Tb1572 2.546 1_556 S
O1616 C1636 1.251 1_556 S
O1617 Tb1572 2.610 . S
O1617 Tb1583 2.362 . S
O1617 C1628 1.283 . S
O1618 Tb1583 2.421 . S
O1618 C1635 1.262 . S
O1619 Tb1572 2.320 . S
O1619 C1635 1.260 . S
O1620 Tb1572 2.552 . S
O1620 C1628 1.243 . S
O1621 Tb1572 2.413 . S
O1621 C1636 1.256 . S
O1622 Tb1583 2.546 1_655 S
O1622 C1647 1.251 . S
O1623 Tb1572 2.362 . S
O1623 Tb1583 2.610 . S
O1623 C1639 1.283 . S
O1624 Tb1572 2.421 1_556 S
O1624 C1646 1.262 . S
O1625 Tb1583 2.320 . S
O1625 C1646 1.260 1_554 S
O1626 Tb1583 2.552 . S
O1626 C1639 1.243 . S
O1627 Tb1583 2.413 1_655 S
O1627 C1647 1.256 . S
C1628 O1617 1.283 . S
C1628 O1620 1.243 . S
C1629 C1631 1.382 1_556 S
C1629 C1633 1.393 . S
C1629 C1636 1.500 1_556 S
C1630 C1631 1.400 . S
C1630 C1632 1.384 1_554 S
C1631 C1629 1.382 1_554 S
C1631 C1630 1.400 . S
C1631 H1648 0.930 . S
C1632 C1630 1.384 1_556 S
C1632 C1634 1.392 . S
C1632 H1649 0.931 . S
C1633 C1629 1.393 . S
C1633 C1634 1.401 . S
C1633 H1650 0.930 . S
C1634 C1632 1.392 . S
C1634 C1633 1.401 . S
C1634 H1651 0.930 . S
C1635 O1618 1.262 . S
C1635 O1619 1.260 . S
C1636 Tb1572 2.833 . S
C1636 O1616 1.251 1_554 S
C1636 O1621 1.256 . S
C1636 C1629 1.500 1_554 S
C1637 H1602 0.929 . S
C1637 C1615 1.444 . S
C1637 C1638 1.317 1_556 S
C1638 H1600 0.930 . S
C1638 C1606 1.432 . S
C1638 C1637 1.317 1_554 S
C1639 O1623 1.283 . S
C1639 O1626 1.243 . S
C1640 C1641 1.382 . S
C1640 C1644 1.393 . S
C1640 C1647 1.500 . S
C1641 C1640 1.382 . S
C1641 C1642 1.400 . S
C1641 H1652 0.930 . S
C1642 C1641 1.400 . S
C1642 C1643 1.384 . S
C1643 C1642 1.384 . S
C1643 C1645 1.392 . S
C1643 H1653 0.931 . S
C1644 C1640 1.393 . S
C1644 C1645 1.401 . S
C1644 H1654 0.930 . S
C1645 C1643 1.392 . S
C1645 C1644 1.401 . S
C1645 H1655 0.930 . S
C1646 O1624 1.262 . S
C1646 O1625 1.260 1_556 S
C1647 Tb1583 2.833 1_655 S
C1647 O1622 1.251 . S
C1647 O1627 1.256 . S
C1647 C1640 1.500 . S
H1648 C1631 0.930 . S
H1649 C1632 0.931 . S
H1650 C1633 0.930 . S
H1651 C1634 0.930 . S
H1652 C1641 0.930 . S
H1653 C1643 0.931 . S
H1654 C1644 0.930 . S
H1655 C1645 0.930 . S
C1656 C1657 1.391 . S
C1656 C1658 1.412 . S
C1656 H1672 0.931 . S
C1657 C1656 1.391 . S
C1657 C1661 1.376 . S
C1658 C1656 1.412 . S
C1658 C1659 1.370 . S
C1658 C1662 1.512 1_556 S
C1659 C1658 1.370 . S
C1659 C1660 1.410 . S
C1659 C1667 1.503 1_556 S
C1660 C1659 1.410 . S
C1660 C1661 1.392 . S
C1660 C1663 1.527 . S
C1661 C1657 1.376 . S
C1661 C1660 1.392 . S
C1661 H1673 0.929 1_455 S
C1662 C1658 1.512 1_554 S
C1662 H1674 0.960 . S
C1662 H1675 0.962 . S
C1662 H1676 0.960 . S
C1663 C1660 1.527 . S
C1663 H1677 0.948 1_455 S
C1663 H1678 0.992 . S
C1663 H1679 0.928 1_455 S
C1664 C1665 1.370 . S
C1664 C1666 1.363 1_554 S
C1664 H1680 0.931 1_554 S
C1665 C1664 1.370 . S
C1665 C1669 1.408 . S
C1666 C1664 1.363 1_556 S
C1666 C1667 1.370 1_556 S
C1666 C1670 1.524 . S
C1667 C1659 1.503 1_554 S
C1667 C1666 1.370 1_554 S
C1667 C1668 1.403 . S
C1668 C1667 1.403 . S
C1668 C1669 1.404 . S
C1668 C1671 1.539 . S
C1669 C1665 1.408 . S
C1669 C1668 1.404 . S
C1669 H1681 0.930 . S
C1670 C1666 1.524 . S
C1670 H1682 0.956 . S
C1670 H1683 0.961 . S
C1670 H1684 0.961 . S
C1671 C1668 1.539 . S
C1671 H1685 0.958 . S
C1671 H1686 0.961 . S
C1671 H1687 0.960 . S
H1672 C1656 0.931 . S
H1673 C1661 0.929 1_655 S
H1674 C1662 0.960 . S
H1675 C1662 0.962 . S
H1676 C1662 0.960 . S
H1677 C1663 0.948 1_655 S
H1678 C1663 0.992 . S
H1679 C1663 0.928 1_655 S
H1680 C1664 0.931 1_556 S
H1681 C1669 0.930 . S
H1682 C1670 0.956 . S
H1683 C1670 0.961 . S
H1684 C1670 0.961 . S
H1685 C1671 0.958 . S
H1686 C1671 0.961 . S
H1687 C1671 0.960 . S
C1688 C1689 1.391 . S
C1688 C1690 1.394 . S
C1688 H1704 0.931 . S
C1689 C1688 1.391 . S
C1689 C1693 1.376 . S
C1690 C1688 1.394 . S
C1690 C1691 1.369 . S
C1690 C1694 1.531 . S
C1691 C1690 1.369 . S
C1691 C1692 1.410 . S
C1691 C1699 1.503 . S
C1692 C1691 1.410 . S
C1692 C1693 1.392 . S
C1692 C1695 1.511 . S
C1693 C1689 1.376 . S
C1693 C1692 1.392 . S
C1693 H1705 0.929 . S
C1694 C1690 1.531 . S
C1694 H1706 0.960 . S
C1694 H1707 0.962 . S
C1694 H1708 0.960 . S
C1695 C1692 1.511 . S
C1695 H1709 0.961 . S
C1695 H1710 0.961 . S
C1695 H1711 0.961 . S
C1696 C1697 1.370 . S
C1696 C1698 1.363 . S
C1696 H1712 0.931 . S
C1697 C1696 1.370 . S
C1697 C1701 1.408 . S
C1698 C1696 1.363 . S
C1698 C1699 1.370 . S
C1698 C1702 1.524 . S
C1699 C1691 1.503 . S
C1699 C1698 1.370 . S
C1699 C1700 1.403 . S
C1700 C1699 1.403 . S
C1700 C1701 1.404 . S
C1700 C1703 1.539 . S
C1701 C1697 1.408 . S
C1701 C1700 1.404 . S
C1701 H1713 0.930 . S
C1702 C1698 1.524 . S
C1702 H1714 0.956 . S
C1702 H1715 0.961 . S
C1702 H1716 0.961 . S
C1703 C1700 1.539 . S
C1703 H1717 0.958 . S
C1703 H1718 0.961 . S
C1703 H1719 0.960 . S
H1704 C1688 0.931 . S
H1705 C1693 0.929 . S
H1706 C1694 0.960 . S
H1707 C1694 0.962 . S
H1708 C1694 0.960 . S
H1709 C1695 0.961 . S
H1710 C1695 0.961 . S
H1711 C1695 0.961 . S
H1712 C1696 0.931 . S
H1713 C1701 0.930 . S
H1714 C1702 0.956 . S
H1715 C1702 0.961 . S
H1716 C1702 0.961 . S
H1717 C1703 0.958 . S
H1718 C1703 0.961 . S
H1719 C1703 0.960 . S
C1720 C1721 1.391 . S
C1720 C1722 1.394 . S
C1720 H1736 0.931 . S
C1721 C1720 1.391 . S
C1721 C1725 1.376 . S
C1722 C1720 1.394 . S
C1722 C1723 1.369 . S
C1722 C1726 1.531 . S
C1723 C1722 1.369 . S
C1723 C1724 1.410 . S
C1723 C1731 1.503 . S
C1724 C1723 1.410 . S
C1724 C1725 1.392 . S
C1724 C1727 1.511 . S
C1725 C1721 1.376 . S
C1725 C1724 1.392 . S
C1725 H1737 0.929 . S
C1726 C1722 1.531 . S
C1726 H1738 0.960 . S
C1726 H1739 0.962 . S
C1726 H1740 0.960 . S
C1727 C1724 1.511 . S
C1727 H1741 0.961 . S
C1727 H1742 0.961 . S
C1727 H1743 0.961 . S
C1728 C1729 1.370 . S
C1728 C1730 1.363 . S
C1728 H1744 0.931 . S
C1729 C1728 1.370 . S
C1729 C1733 1.408 . S
C1730 C1728 1.363 . S
C1730 C1731 1.370 . S
C1730 C1734 1.524 . S
C1731 C1723 1.503 . S
C1731 C1730 1.370 . S
C1731 C1732 1.403 . S
C1732 C1731 1.403 . S
C1732 C1733 1.404 . S
C1732 C1735 1.539 . S
C1733 C1729 1.408 . S
C1733 C1732 1.404 . S
C1733 H1745 0.930 . S
C1734 C1730 1.524 . S
C1734 H1746 0.956 . S
C1734 H1747 0.961 . S
C1734 H1748 0.961 . S
C1735 C1732 1.539 . S
C1735 H1749 0.958 . S
C1735 H1750 0.961 . S
C1735 H1751 0.960 . S
H1736 C1720 0.931 . S
H1737 C1725 0.929 . S
H1738 C1726 0.960 . S
H1739 C1726 0.962 . S
H1740 C1726 0.960 . S
H1741 C1727 0.961 . S
H1742 C1727 0.961 . S
H1743 C1727 0.961 . S
H1744 C1728 0.931 . S
H1745 C1733 0.930 . S
H1746 C1734 0.956 . S
H1747 C1734 0.961 . S
H1748 C1734 0.961 . S
H1749 C1735 0.958 . S
H1750 C1735 0.961 . S
H1751 C1735 0.960 . S
C1752 C1753 1.391 . S
C1752 C1754 1.394 . S
C1752 H1768 0.931 . S
C1753 C1752 1.391 . S
C1753 C1757 1.376 . S
C1754 C1752 1.394 . S
C1754 C1755 1.369 . S
C1754 C1758 1.531 . S
C1755 C1754 1.369 . S
C1755 C1756 1.410 . S
C1755 C1763 1.503 . S
C1756 C1755 1.410 . S
C1756 C1757 1.392 . S
C1756 C1759 1.511 . S
C1757 C1753 1.376 . S
C1757 C1756 1.392 . S
C1757 H1769 0.929 . S
C1758 C1754 1.531 . S
C1758 H1770 0.960 . S
C1758 H1771 0.962 . S
C1758 H1772 0.960 . S
C1759 C1756 1.511 . S
C1759 H1773 0.961 . S
C1759 H1774 0.961 . S
C1759 H1775 0.961 . S
C1760 C1761 1.370 . S
C1760 C1762 1.363 . S
C1760 H1776 0.931 . S
C1761 C1760 1.370 . S
C1761 C1765 1.408 . S
C1762 C1760 1.363 . S
C1762 C1763 1.370 . S
C1762 C1766 1.524 . S
C1763 C1755 1.503 . S
C1763 C1762 1.370 . S
C1763 C1764 1.403 . S
C1764 C1763 1.403 . S
C1764 C1765 1.404 . S
C1764 C1767 1.539 . S
C1765 C1761 1.408 . S
C1765 C1764 1.404 . S
C1765 H1777 0.930 . S
C1766 C1762 1.524 . S
C1766 H1778 0.956 . S
C1766 H1779 0.961 . S
C1766 H1780 0.961 . S
C1767 C1764 1.539 . S
C1767 H1781 0.958 . S
C1767 H1782 0.961 . S
C1767 H1783 0.960 . S
H1768 C1752 0.931 . S
H1769 C1757 0.929 . S
H1770 C1758 0.960 . S
H1771 C1758 0.962 . S
H1772 C1758 0.960 . S
H1773 C1759 0.961 . S
H1774 C1759 0.961 . S
H1775 C1759 0.961 . S
H1776 C1760 0.931 . S
H1777 C1765 0.930 . S
H1778 C1766 0.956 . S
H1779 C1766 0.961 . S
H1780 C1766 0.961 . S
H1781 C1767 0.958 . S
H1782 C1767 0.961 . S
H1783 C1767 0.960 . S
C1784 C1785 1.391 . S
C1784 C1786 1.394 . S
C1784 H1800 0.931 1_455 S
C1785 C1784 1.391 . S
C1785 C1789 1.376 . S
C1786 C1784 1.394 . S
C1786 C1787 1.369 . S
C1786 C1790 1.531 . S
C1787 C1786 1.369 . S
C1787 C1788 1.410 . S
C1787 C1795 1.503 . S
C1788 C1787 1.410 . S
C1788 C1789 1.392 . S
C1788 C1791 1.511 . S
C1789 C1785 1.376 . S
C1789 C1788 1.392 . S
C1789 H1801 0.929 . S
C1790 C1786 1.531 . S
C1790 H1802 0.960 . S
C1790 H1803 0.962 1_455 S
C1790 H1804 0.960 1_455 S
C1791 C1788 1.511 . S
C1791 H1805 0.961 . S
C1791 H1806 0.961 . S
C1791 H1807 0.961 . S
C1792 C1793 1.370 . S
C1792 C1794 1.363 . S
C1792 H1808 0.931 . S
C1793 C1792 1.370 . S
C1793 C1797 1.408 . S
C1794 C1792 1.363 . S
C1794 C1795 1.370 . S
C1794 C1798 1.524 . S
C1795 C1787 1.503 . S
C1795 C1794 1.370 . S
C1795 C1796 1.403 . S
C1796 C1795 1.403 . S
C1796 C1797 1.404 . S
C1796 C1799 1.539 . S
C1797 C1793 1.408 . S
C1797 C1796 1.404 . S
C1797 H1809 0.930 . S
C1798 C1794 1.524 . S
C1798 H1810 0.956 1_455 S
C1798 H1811 0.961 . S
C1798 H1812 0.961 . S
C1799 C1796 1.539 . S
C1799 H1813 0.958 . S
C1799 H1814 0.961 . S
C1799 H1815 0.960 . S
H1800 C1784 0.931 1_655 S
H1801 C1789 0.929 . S
H1802 C1790 0.960 . S
H1803 C1790 0.962 1_655 S
H1804 C1790 0.960 1_655 S
H1805 C1791 0.961 . S
H1806 C1791 0.961 . S
H1807 C1791 0.961 . S
H1808 C1792 0.931 . S
H1809 C1797 0.930 . S
H1810 C1798 0.956 1_655 S
H1811 C1798 0.961 . S
H1812 C1798 0.961 . S
H1813 C1799 0.958 . S
H1814 C1799 0.961 . S
H1815 C1799 0.960 . S
C1816 C1817 1.391 . S
C1816 C1818 1.394 . S
C1816 H1832 0.931 . S
C1817 C1816 1.391 . S
C1817 C1821 1.376 . S
C1818 C1816 1.394 . S
C1818 C1819 1.369 . S
C1818 C1822 1.531 . S
C1819 C1818 1.369 . S
C1819 C1820 1.410 . S
C1819 C1827 1.503 . S
C1820 C1819 1.410 . S
C1820 C1821 1.392 . S
C1820 C1823 1.511 . S
C1821 C1817 1.376 . S
C1821 C1820 1.392 . S
C1821 H1833 0.929 . S
C1822 C1818 1.531 . S
C1822 H1834 0.960 . S
C1822 H1835 0.962 . S
C1822 H1836 0.960 . S
C1823 C1820 1.511 . S
C1823 H1837 0.961 . S
C1823 H1838 0.961 . S
C1823 H1839 0.961 . S
C1824 C1825 1.370 . S
C1824 C1826 1.363 . S
C1824 H1840 0.931 . S
C1825 C1824 1.370 . S
C1825 C1829 1.408 . S
C1826 C1824 1.363 . S
C1826 C1827 1.370 . S
C1826 C1830 1.524 . S
C1827 C1819 1.503 . S
C1827 C1826 1.370 . S
C1827 C1828 1.403 . S
C1828 C1827 1.403 . S
C1828 C1829 1.404 . S
C1828 C1831 1.539 . S
C1829 C1825 1.408 . S
C1829 C1828 1.404 . S
C1829 H1841 0.930 . S
C1830 C1826 1.524 . S
C1830 H1842 0.956 . S
C1830 H1843 0.961 . S
C1830 H1844 0.961 . S
C1831 C1828 1.539 . S
C1831 H1845 0.958 . S
C1831 H1846 0.961 . S
C1831 H1847 0.960 . S
H1832 C1816 0.931 . S
H1833 C1821 0.929 . S
H1834 C1822 0.960 . S
H1835 C1822 0.962 . S
H1836 C1822 0.960 . S
H1837 C1823 0.961 . S
H1838 C1823 0.961 . S
H1839 C1823 0.961 . S
H1840 C1824 0.931 . S
H1841 C1829 0.930 . S
H1842 C1830 0.956 . S
H1843 C1830 0.961 . S
H1844 C1830 0.961 . S
H1845 C1831 0.958 . S
H1846 C1831 0.961 . S
H1847 C1831 0.960 . S
C1848 C1849 1.391 . S
C1848 C1850 1.394 . S
C1848 H1864 0.931 . S
C1849 C1848 1.391 . S
C1849 C1853 1.376 . S
C1850 C1848 1.394 . S
C1850 C1851 1.369 . S
C1850 C1854 1.531 . S
C1851 C1850 1.369 . S
C1851 C1852 1.410 . S
C1851 C1859 1.503 . S
C1852 C1851 1.410 . S
C1852 C1853 1.392 . S
C1852 C1855 1.511 . S
C1853 C1849 1.376 . S
C1853 C1852 1.392 . S
C1853 H1865 0.929 . S
C1854 C1850 1.531 . S
C1854 H1866 0.960 . S
C1854 H1867 0.962 . S
C1854 H1868 0.960 . S
C1855 C1852 1.511 . S
C1855 H1869 0.961 . S
C1855 H1870 0.961 . S
C1855 H1871 0.961 . S
C1856 C1857 1.370 . S
C1856 C1858 1.363 . S
C1856 H1872 0.931 . S
C1857 C1856 1.370 . S
C1857 C1861 1.408 . S
C1858 C1856 1.363 . S
C1858 C1859 1.370 . S
C1858 C1862 1.524 . S
C1859 C1851 1.503 . S
C1859 C1858 1.370 . S
C1859 C1860 1.403 . S
C1860 C1859 1.403 . S
C1860 C1861 1.404 . S
C1860 C1863 1.539 . S
C1861 C1857 1.408 . S
C1861 C1860 1.404 . S
C1861 H1873 0.930 . S
C1862 C1858 1.524 . S
C1862 H1874 0.956 . S
C1862 H1875 0.961 . S
C1862 H1876 0.961 . S
C1863 C1860 1.539 . S
C1863 H1877 0.958 . S
C1863 H1878 0.961 . S
C1863 H1879 0.960 . S
H1864 C1848 0.931 . S
H1865 C1853 0.929 . S
H1866 C1854 0.960 . S
H1867 C1854 0.962 . S
H1868 C1854 0.960 . S
H1869 C1855 0.961 . S
H1870 C1855 0.961 . S
H1871 C1855 0.961 . S
H1872 C1856 0.931 . S
H1873 C1861 0.930 . S
H1874 C1862 0.956 . S
H1875 C1862 0.961 . S
H1876 C1862 0.961 . S
H1877 C1863 0.958 . S
H1878 C1863 0.961 . S
H1879 C1863 0.960 . S
C1880 C1881 1.391 . S
C1880 C1882 1.394 . S
C1880 H1896 0.931 . S
C1881 C1880 1.391 . S
C1881 C1885 1.376 . S
C1882 C1880 1.394 . S
C1882 C1883 1.369 . S
C1882 C1886 1.531 . S
C1883 C1882 1.369 . S
C1883 C1884 1.410 . S
C1883 C1891 1.503 . S
C1884 C1883 1.410 . S
C1884 C1885 1.392 . S
C1884 C1887 1.511 . S
C1885 C1881 1.376 . S
C1885 C1884 1.392 . S
C1885 H1897 0.929 . S
C1886 C1882 1.531 . S
C1886 H1898 0.960 . S
C1886 H1899 0.962 . S
C1886 H1900 0.960 . S
C1887 C1884 1.511 . S
C1887 H1901 0.961 . S
C1887 H1902 0.961 . S
C1887 H1903 0.961 . S
C1888 C1889 1.370 . S
C1888 C1890 1.363 . S
C1888 H1904 0.931 . S
C1889 C1888 1.370 . S
C1889 C1893 1.408 . S
C1890 C1888 1.363 . S
C1890 C1891 1.370 . S
C1890 C1894 1.524 . S
C1891 C1883 1.503 . S
C1891 C1890 1.370 . S
C1891 C1892 1.403 . S
C1892 C1891 1.403 . S
C1892 C1893 1.404 . S
C1892 C1895 1.539 . S
C1893 C1889 1.408 . S
C1893 C1892 1.404 . S
C1893 H1905 0.930 . S
C1894 C1890 1.524 . S
C1894 H1906 0.956 . S
C1894 H1907 0.961 . S
C1894 H1908 0.961 . S
C1895 C1892 1.539 . S
C1895 H1909 0.958 . S
C1895 H1910 0.961 . S
C1895 H1911 0.960 . S
H1896 C1880 0.931 . S
H1897 C1885 0.929 . S
H1898 C1886 0.960 . S
H1899 C1886 0.962 . S
H1900 C1886 0.960 . S
H1901 C1887 0.961 . S
H1902 C1887 0.961 . S
H1903 C1887 0.961 . S
H1904 C1888 0.931 . S
H1905 C1893 0.930 . S
H1906 C1894 0.956 . S
H1907 C1894 0.961 . S
H1908 C1894 0.961 . S
H1909 C1895 0.958 . S
H1910 C1895 0.961 . S
H1911 C1895 0.960 . S
C1912 C1913 1.441 . S
C1912 C1914 1.365 1_655 S
C1912 H1928 0.911 1_655 S
C1913 C1912 1.441 . S
C1913 C1917 1.376 . S
C1914 C1912 1.365 1_455 S
C1914 C1915 1.359 1_455 S
C1914 C1918 1.531 . S
C1915 C1914 1.359 1_655 S
C1915 C1916 1.433 . S
C1915 C1923 1.490 1_655 S
C1916 C1915 1.433 . S
C1916 C1917 1.392 . S
C1916 C1919 1.511 . S
C1917 C1913 1.376 . S
C1917 C1916 1.392 . S
C1917 H1929 0.929 . S
C1918 C1914 1.531 . S
C1918 H1930 0.960 . S
C1918 H1931 0.962 . S
C1918 H1932 0.960 . S
C1919 C1916 1.511 . S
C1919 H1933 0.961 . S
C1919 H1934 0.961 . S
C1919 H1935 0.961 . S
C1920 C1921 1.370 . S
C1920 C1922 1.363 . S
C1920 H1936 0.931 . S
C1921 C1920 1.370 . S
C1921 C1925 1.408 . S
C1922 C1920 1.363 . S
C1922 C1923 1.370 . S
C1922 C1926 1.524 . S
C1923 C1915 1.490 1_455 S
C1923 C1922 1.370 . S
C1923 C1924 1.403 . S
C1924 C1923 1.403 . S
C1924 C1925 1.404 . S
C1924 C1927 1.539 . S
C1925 C1921 1.408 . S
C1925 C1924 1.404 . S
C1925 H1937 0.930 . S
C1926 C1922 1.524 . S
C1926 H1938 0.956 . S
C1926 H1939 0.961 1_455 S
C1926 H1940 0.961 . S
C1927 C1924 1.539 . S
C1927 H1941 0.958 . S
C1927 H1942 0.961 . S
C1927 H1943 0.960 1_455 S
H1928 C1912 0.911 1_455 S
H1929 C1917 0.929 . S
H1930 C1918 0.960 . S
H1931 C1918 0.962 . S
H1932 C1918 0.960 . S
H1933 C1919 0.961 . S
H1934 C1919 0.961 . S
H1935 C1919 0.961 . S
H1936 C1920 0.931 . S
H1937 C1925 0.930 . S
H1938 C1926 0.956 . S
H1939 C1926 0.961 1_655 S
H1940 C1926 0.961 . S
H1941 C1927 0.958 . S
H1942 C1927 0.961 . S
H1943 C1927 0.960 1_655 S
C1944 C1945 1.391 . S
C1944 C1946 1.394 . S
C1944 H1960 0.931 . S
C1945 C1944 1.391 . S
C1945 C1949 1.376 . S
C1946 C1944 1.394 . S
C1946 C1947 1.369 . S
C1946 C1950 1.531 . S
C1947 C1946 1.369 . S
C1947 C1948 1.410 . S
C1947 C1955 1.503 . S
C1948 C1947 1.410 . S
C1948 C1949 1.392 . S
C1948 C1951 1.511 . S
C1949 C1945 1.376 . S
C1949 C1948 1.392 . S
C1949 H1961 0.929 . S
C1950 C1946 1.531 . S
C1950 H1962 0.960 . S
C1950 H1963 0.962 . S
C1950 H1964 0.960 . S
C1951 C1948 1.511 . S
C1951 H1965 0.961 . S
C1951 H1966 0.961 . S
C1951 H1967 0.961 . S
C1952 C1953 1.370 . S
C1952 C1954 1.363 . S
C1952 H1968 0.931 . S
C1953 C1952 1.370 . S
C1953 C1957 1.408 . S
C1954 C1952 1.363 . S
C1954 C1955 1.370 . S
C1954 C1958 1.524 . S
C1955 C1947 1.503 . S
C1955 C1954 1.370 . S
C1955 C1956 1.403 . S
C1956 C1955 1.403 . S
C1956 C1957 1.404 . S
C1956 C1959 1.539 . S
C1957 C1953 1.408 . S
C1957 C1956 1.404 . S
C1957 H1969 0.930 . S
C1958 C1954 1.524 . S
C1958 H1970 0.956 . S
C1958 H1971 0.961 . S
C1958 H1972 0.961 . S
C1959 C1956 1.539 . S
C1959 H1973 0.958 . S
C1959 H1974 0.961 . S
C1959 H1975 0.960 . S
H1960 C1944 0.931 . S
H1961 C1949 0.929 . S
H1962 C1950 0.960 . S
H1963 C1950 0.962 . S
H1964 C1950 0.960 . S
H1965 C1951 0.961 . S
H1966 C1951 0.961 . S
H1967 C1951 0.961 . S
H1968 C1952 0.931 . S
H1969 C1957 0.930 . S
H1970 C1958 0.956 . S
H1971 C1958 0.961 . S
H1972 C1958 0.961 . S
H1973 C1959 0.958 . S
H1974 C1959 0.961 . S
H1975 C1959 0.960 . S
C1976 C1977 1.391 . S
C1976 C1978 1.394 . S
C1976 H1992 0.931 . S
C1977 C1976 1.391 . S
C1977 C1981 1.376 . S
C1978 C1976 1.394 . S
C1978 C1979 1.369 . S
C1978 C1982 1.531 1_545 S
C1979 C1978 1.369 . S
C1979 C1980 1.410 . S
C1979 C1987 1.503 . S
C1980 C1979 1.410 . S
C1980 C1981 1.392 . S
C1980 C1983 1.511 . S
C1981 C1977 1.376 . S
C1981 C1980 1.392 . S
C1981 H1993 0.929 . S
C1982 C1978 1.531 1_565 S
C1982 H1994 0.960 . S
C1982 H1995 0.962 . S
C1982 H1996 0.960 . S
C1983 C1980 1.511 . S
C1983 H1997 0.961 . S
C1983 H1998 0.961 . S
C1983 H1999 0.961 . S
C1984 C1985 1.370 . S
C1984 C1986 1.363 . S
C1984 H2000 0.931 . S
C1985 C1984 1.370 . S
C1985 C1989 1.408 . S
C1986 C1984 1.363 . S
C1986 C1987 1.370 . S
C1986 C1990 1.524 . S
C1987 C1979 1.503 . S
C1987 C1986 1.370 . S
C1987 C1988 1.403 . S
C1988 C1987 1.403 . S
C1988 C1989 1.404 . S
C1988 C1991 1.539 1_545 S
C1989 C1985 1.408 . S
C1989 C1988 1.404 . S
C1989 H2001 0.930 1_545 S
C1990 C1986 1.524 . S
C1990 H2002 0.956 . S
C1990 H2003 0.961 . S
C1990 H2004 0.961 . S
C1991 C1988 1.539 1_565 S
C1991 H2005 0.958 . S
C1991 H2006 0.961 . S
C1991 H2007 0.960 . S
H1992 C1976 0.931 . S
H1993 C1981 0.929 . S
H1994 C1982 0.960 . S
H1995 C1982 0.962 . S
H1996 C1982 0.960 . S
H1997 C1983 0.961 . S
H1998 C1983 0.961 . S
H1999 C1983 0.961 . S
H2000 C1984 0.931 . S
H2001 C1989 0.930 1_565 S
H2002 C1990 0.956 . S
H2003 C1990 0.961 . S
H2004 C1990 0.961 . S
H2005 C1991 0.958 . S
H2006 C1991 0.961 . S
H2007 C1991 0.960 . S
C2008 C2009 1.391 . S
C2008 C2010 1.394 . S
C2008 H2024 0.931 . S
C2009 C2008 1.391 . S
C2009 C2013 1.376 . S
C2010 C2008 1.394 . S
C2010 C2011 1.369 . S
C2010 C2014 1.531 . S
C2011 C2010 1.369 . S
C2011 C2012 1.410 . S
C2011 C2019 1.503 . S
C2012 C2011 1.410 . S
C2012 C2013 1.392 . S
C2012 C2015 1.511 . S
C2013 C2009 1.376 . S
C2013 C2012 1.392 . S
C2013 H2025 0.929 . S
C2014 C2010 1.531 . S
C2014 H2026 0.960 . S
C2014 H2027 0.962 . S
C2014 H2028 0.960 . S
C2015 C2012 1.511 . S
C2015 H2029 0.961 . S
C2015 H2030 0.961 . S
C2015 H2031 0.961 . S
C2016 C2017 1.370 . S
C2016 C2018 1.363 . S
C2016 H2032 0.931 . S
C2017 C2016 1.370 . S
C2017 C2021 1.408 . S
C2018 C2016 1.363 . S
C2018 C2019 1.370 . S
C2018 C2022 1.524 . S
C2019 C2011 1.503 . S
C2019 C2018 1.370 . S
C2019 C2020 1.403 . S
C2020 C2019 1.403 . S
C2020 C2021 1.404 . S
C2020 C2023 1.539 . S
C2021 C2017 1.408 . S
C2021 C2020 1.404 . S
C2021 H2033 0.930 . S
C2022 C2018 1.524 . S
C2022 H2034 0.956 . S
C2022 H2035 0.961 . S
C2022 H2036 0.961 . S
C2023 C2020 1.539 . S
C2023 H2037 0.958 . S
C2023 H2038 0.961 . S
C2023 H2039 0.960 . S
H2024 C2008 0.931 . S
H2025 C2013 0.929 . S
H2026 C2014 0.960 . S
H2027 C2014 0.962 . S
H2028 C2014 0.960 . S
H2029 C2015 0.961 . S
H2030 C2015 0.961 . S
H2031 C2015 0.961 . S
H2032 C2016 0.931 . S
H2033 C2021 0.930 . S
H2034 C2022 0.956 . S
H2035 C2022 0.961 . S
H2036 C2022 0.961 . S
H2037 C2023 0.958 . S
H2038 C2023 0.961 . S
H2039 C2023 0.960 . S
C2040 C2041 1.391 . S
C2040 C2042 1.394 1_655 S
C2040 H2056 0.931 . S
C2041 C2040 1.391 . S
C2041 C2045 1.376 . S
C2042 C2040 1.394 1_455 S
C2042 C2043 1.369 . S
C2042 C2046 1.531 . S
C2043 C2042 1.369 . S
C2043 C2044 1.410 1_455 S
C2043 C2051 1.503 . S
C2044 C2043 1.410 1_655 S
C2044 C2045 1.392 . S
C2044 C2047 1.508 . S
C2045 C2041 1.376 . S
C2045 C2044 1.392 . S
C2045 H2057 0.929 . S
C2046 C2042 1.531 . S
C2046 H2058 0.960 . S
C2046 H2059 0.962 . S
C2046 H2060 0.960 . S
C2047 C2044 1.508 . S
C2047 H2061 0.996 . S
C2047 H2062 0.954 1_655 S
C2047 H2063 0.937 1_655 S
C2048 C2049 1.370 . S
C2048 C2050 1.363 . S
C2048 H2064 0.931 . S
C2049 C2048 1.370 . S
C2049 C2053 1.408 . S
C2050 C2048 1.363 . S
C2050 C2051 1.370 . S
C2050 C2054 1.524 1_455 S
C2051 C2043 1.503 . S
C2051 C2050 1.370 . S
C2051 C2052 1.403 . S
C2052 C2051 1.403 . S
C2052 C2053 1.404 . S
C2052 C2055 1.539 . S
C2053 C2049 1.408 . S
C2053 C2052 1.404 . S
C2053 H2065 0.930 . S
C2054 C2050 1.524 1_655 S
C2054 H2066 0.956 . S
C2054 H2067 0.961 . S
C2054 H2068 0.961 . S
C2055 C2052 1.539 . S
C2055 H2069 0.958 . S
C2055 H2070 0.961 . S
C2055 H2071 0.960 . S
H2056 C2040 0.931 . S
H2057 C2045 0.929 . S
H2058 C2046 0.960 . S
H2059 C2046 0.962 . S
H2060 C2046 0.960 . S
H2061 C2047 0.996 . S
H2062 C2047 0.954 1_455 S
H2063 C2047 0.937 1_455 S
H2064 C2048 0.931 . S
H2065 C2053 0.930 . S
H2066 C2054 0.956 . S
H2067 C2054 0.961 . S
H2068 C2054 0.961 . S
H2069 C2055 0.958 . S
H2070 C2055 0.961 . S
H2071 C2055 0.960 . S
C2072 C2073 1.391 . S
C2072 C2074 1.394 . S
C2072 H2088 0.931 . S
C2073 C2072 1.391 . S
C2073 C2077 1.376 . S
C2074 C2072 1.394 . S
C2074 C2075 1.369 . S
C2074 C2078 1.531 . S
C2075 C2074 1.369 . S
C2075 C2076 1.410 . S
C2075 C2083 1.503 . S
C2076 C2075 1.410 . S
C2076 C2077 1.392 . S
C2076 C2079 1.511 . S
C2077 C2073 1.376 . S
C2077 C2076 1.392 . S
C2077 H2089 0.929 . S
C2078 C2074 1.531 . S
C2078 H2090 0.960 . S
C2078 H2091 0.962 . S
C2078 H2092 0.960 . S
C2079 C2076 1.511 . S
C2079 H2093 0.961 . S
C2079 H2094 0.961 . S
C2079 H2095 0.961 . S
C2080 C2081 1.370 . S
C2080 C2082 1.363 . S
C2080 H2096 0.931 . S
C2081 C2080 1.370 . S
C2081 C2085 1.408 . S
C2082 C2080 1.363 . S
C2082 C2083 1.370 . S
C2082 C2086 1.524 . S
C2083 C2075 1.503 . S
C2083 C2082 1.370 . S
C2083 C2084 1.403 . S
C2084 C2083 1.403 . S
C2084 C2085 1.404 . S
C2084 C2087 1.539 . S
C2085 C2081 1.408 . S
C2085 C2084 1.404 . S
C2085 H2097 0.930 . S
C2086 C2082 1.524 . S
C2086 H2098 0.956 . S
C2086 H2099 0.961 . S
C2086 H2100 0.961 . S
C2087 C2084 1.539 . S
C2087 H2101 0.958 . S
C2087 H2102 0.961 . S
C2087 H2103 0.960 . S
H2088 C2072 0.931 . S
H2089 C2077 0.929 . S
H2090 C2078 0.960 . S
H2091 C2078 0.962 . S
H2092 C2078 0.960 . S
H2093 C2079 0.961 . S
H2094 C2079 0.961 . S
H2095 C2079 0.961 . S
H2096 C2080 0.931 . S
H2097 C2085 0.930 . S
H2098 C2086 0.956 . S
H2099 C2086 0.961 . S
H2100 C2086 0.961 . S
H2101 C2087 0.958 . S
H2102 C2087 0.961 . S
H2103 C2087 0.960 . S
C2104 C2105 1.391 . S
C2104 C2106 1.394 . S
C2104 H2120 0.931 . S
C2105 C2104 1.391 . S
C2105 C2109 1.376 . S
C2106 C2104 1.394 . S
C2106 C2107 1.369 . S
C2106 C2110 1.531 . S
C2107 C2106 1.369 . S
C2107 C2108 1.410 . S
C2107 C2115 1.503 . S
C2108 C2107 1.410 . S
C2108 C2109 1.392 . S
C2108 C2111 1.511 . S
C2109 C2105 1.376 . S
C2109 C2108 1.392 . S
C2109 H2121 0.929 . S
C2110 C2106 1.531 . S
C2110 H2122 0.960 . S
C2110 H2123 0.962 . S
C2110 H2124 0.960 . S
C2111 C2108 1.511 . S
C2111 H2125 0.961 . S
C2111 H2126 0.961 . S
C2111 H2127 0.961 . S
C2112 C2113 1.370 . S
C2112 C2114 1.363 . S
C2112 H2128 0.931 . S
C2113 C2112 1.370 . S
C2113 C2117 1.408 . S
C2114 C2112 1.363 . S
C2114 C2115 1.370 . S
C2114 C2118 1.524 . S
C2115 C2107 1.503 . S
C2115 C2114 1.370 . S
C2115 C2116 1.403 . S
C2116 C2115 1.403 . S
C2116 C2117 1.404 . S
C2116 C2119 1.539 . S
C2117 C2113 1.408 . S
C2117 C2116 1.404 . S
C2117 H2129 0.930 . S
C2118 C2114 1.524 . S
C2118 H2130 0.956 . S
C2118 H2131 0.961 . S
C2118 H2132 0.961 . S
C2119 C2116 1.539 . S
C2119 H2133 0.958 . S
C2119 H2134 0.961 . S
C2119 H2135 0.960 . S
H2120 C2104 0.931 . S
H2121 C2109 0.929 . S
H2122 C2110 0.960 . S
H2123 C2110 0.962 . S
H2124 C2110 0.960 . S
H2125 C2111 0.961 . S
H2126 C2111 0.961 . S
H2127 C2111 0.961 . S
H2128 C2112 0.931 . S
H2129 C2117 0.930 . S
H2130 C2118 0.956 . S
H2131 C2118 0.961 . S
H2132 C2118 0.961 . S
H2133 C2119 0.958 . S
H2134 C2119 0.961 . S
H2135 C2119 0.960 . S
C2136 C2137 1.391 . S
C2136 C2138 1.394 . S
C2136 H2152 0.931 . S
C2137 C2136 1.391 . S
C2137 C2141 1.376 . S
C2138 C2136 1.394 . S
C2138 C2139 1.369 . S
C2138 C2142 1.531 . S
C2139 C2138 1.369 . S
C2139 C2140 1.410 . S
C2139 C2147 1.503 . S
C2140 C2139 1.410 . S
C2140 C2141 1.392 . S
C2140 C2143 1.511 . S
C2141 C2137 1.376 . S
C2141 C2140 1.392 . S
C2141 H2153 0.929 . S
C2142 C2138 1.531 . S
C2142 H2154 0.960 . S
C2142 H2155 0.962 . S
C2142 H2156 0.960 . S
C2143 C2140 1.511 . S
C2143 H2157 0.961 . S
C2143 H2158 0.961 . S
C2143 H2159 0.961 . S
C2144 C2145 1.370 . S
C2144 C2146 1.363 . S
C2144 H2160 0.931 . S
C2145 C2144 1.370 . S
C2145 C2149 1.408 . S
C2146 C2144 1.363 . S
C2146 C2147 1.370 . S
C2146 C2150 1.524 . S
C2147 C2139 1.503 . S
C2147 C2146 1.370 . S
C2147 C2148 1.403 . S
C2148 C2147 1.403 . S
C2148 C2149 1.404 . S
C2148 C2151 1.539 . S
C2149 C2145 1.408 . S
C2149 C2148 1.404 . S
C2149 H2161 0.930 . S
C2150 C2146 1.524 . S
C2150 H2162 0.956 . S
C2150 H2163 0.961 . S
C2150 H2164 0.961 . S
C2151 C2148 1.539 . S
C2151 H2165 0.958 . S
C2151 H2166 0.961 . S
C2151 H2167 0.960 . S
H2152 C2136 0.931 . S
H2153 C2141 0.929 . S
H2154 C2142 0.960 . S
H2155 C2142 0.962 . S
H2156 C2142 0.960 . S
H2157 C2143 0.961 . S
H2158 C2143 0.961 . S
H2159 C2143 0.961 . S
H2160 C2144 0.931 . S
H2161 C2149 0.930 . S
H2162 C2150 0.956 . S
H2163 C2150 0.961 . S
H2164 C2150 0.961 . S
H2165 C2151 0.958 . S
H2166 C2151 0.961 . S
H2167 C2151 0.960 . S
C2168 C2169 1.391 . S
C2168 C2170 1.394 . S
C2168 H2184 0.931 . S
C2169 C2168 1.391 . S
C2169 C2173 1.376 . S
C2170 C2168 1.394 . S
C2170 C2171 1.369 . S
C2170 C2174 1.531 . S
C2171 C2170 1.369 . S
C2171 C2172 1.410 . S
C2171 C2179 1.503 . S
C2172 C2171 1.410 . S
C2172 C2173 1.392 . S
C2172 C2175 1.535 1_554 S
C2173 C2169 1.376 . S
C2173 C2172 1.392 . S
C2173 H2185 0.929 1_554 S
C2174 C2170 1.531 . S
C2174 H2186 0.960 . S
C2174 H2187 0.962 . S
C2174 H2188 0.960 . S
C2175 C2172 1.535 1_556 S
C2175 H2189 0.971 . S
C2175 H2190 0.959 . S
C2175 H2191 0.935 1_565 S
C2176 C2177 1.370 1_565 S
C2176 C2178 1.363 . S
C2176 H2192 0.931 . S
C2177 C2176 1.370 1_545 S
C2177 C2181 1.408 . S
C2178 C2176 1.363 . S
C2178 C2179 1.370 . S
C2178 C2182 1.524 . S
C2179 C2171 1.503 . S
C2179 C2178 1.370 . S
C2179 C2180 1.403 1_565 S
C2180 C2179 1.403 1_545 S
C2180 C2181 1.404 . S
C2180 C2183 1.539 . S
C2181 C2177 1.408 . S
C2181 C2180 1.404 . S
C2181 H2193 0.930 . S
C2182 C2178 1.524 . S
C2182 H2194 0.956 . S
C2182 H2195 0.977 . S
C2182 H2196 0.961 . S
C2183 C2180 1.539 . S
C2183 H2197 0.958 . S
C2183 H2198 0.961 . S
C2183 H2199 0.960 . S
H2184 C2168 0.931 . S
H2185 C2173 0.929 1_556 S
H2186 C2174 0.960 . S
H2187 C2174 0.962 . S
H2188 C2174 0.960 . S
H2189 C2175 0.971 . S
H2190 C2175 0.959 . S
H2191 C2175 0.935 1_545 S
H2192 C2176 0.931 . S
H2193 C2181 0.930 . S
H2194 C2182 0.956 . S
H2195 C2182 0.977 . S
H2196 C2182 0.961 . S
H2197 C2183 0.958 . S
H2198 C2183 0.961 . S
H2199 C2183 0.960 . S
C2200 C2201 1.391 1_554 S
C2200 C2202 1.394 . S
C2200 H2216 0.931 . S
C2201 C2200 1.391 1_556 S
C2201 C2205 1.376 . S
C2202 C2200 1.394 . S
C2202 C2203 1.369 1_554 S
C2202 C2206 1.531 . S
C2203 C2202 1.369 1_556 S
C2203 C2204 1.410 . S
C2203 C2211 1.503 . S
C2204 C2203 1.410 . S
C2204 C2205 1.392 . S
C2204 C2207 1.511 . S
C2205 C2201 1.376 . S
C2205 C2204 1.392 . S
C2205 H2217 0.929 . S
C2206 C2202 1.531 . S
C2206 H2218 0.960 . S
C2206 H2219 0.962 . S
C2206 H2220 0.960 . S
C2207 C2204 1.511 . S
C2207 H2221 0.961 . S
C2207 H2222 0.961 . S
C2207 H2223 0.961 . S
C2208 C2209 1.370 . S
C2208 C2210 1.363 . S
C2208 H2224 0.931 . S
C2209 C2208 1.370 . S
C2209 C2213 1.408 1_556 S
C2210 C2208 1.363 . S
C2210 C2211 1.370 . S
C2210 C2214 1.524 . S
C2211 C2203 1.503 . S
C2211 C2210 1.370 . S
C2211 C2212 1.403 1_556 S
C2212 C2211 1.403 1_554 S
C2212 C2213 1.404 . S
C2212 C2215 1.539 . S
C2213 C2209 1.408 1_554 S
C2213 C2212 1.404 . S
C2213 H2225 0.930 . S
C2214 C2210 1.524 . S
C2214 H2226 0.956 . S
C2214 H2227 0.961 . S
C2214 H2228 0.961 . S
C2215 C2212 1.539 . S
C2215 H2229 0.958 . S
C2215 H2230 0.961 . S
C2215 H2231 0.960 . S
H2216 C2200 0.931 . S
H2217 C2205 0.929 . S
H2218 C2206 0.960 . S
H2219 C2206 0.962 . S
H2220 C2206 0.960 . S
H2221 C2207 0.961 . S
H2222 C2207 0.961 . S
H2223 C2207 0.961 . S
H2224 C2208 0.931 . S
H2225 C2213 0.930 . S
H2226 C2214 0.956 . S
H2227 C2214 0.961 . S
H2228 C2214 0.961 . S
H2229 C2215 0.958 . S
H2230 C2215 0.961 . S
H2231 C2215 0.960 . S
C2232 C2233 1.391 . S
C2232 C2234 1.394 . S
C2232 H2248 0.931 . S
C2233 C2232 1.391 . S
C2233 C2237 1.376 . S
C2234 C2232 1.394 . S
C2234 C2235 1.369 . S
C2234 C2238 1.531 . S
C2235 C2234 1.369 . S
C2235 C2236 1.410 . S
C2235 C2243 1.503 . S
C2236 C2235 1.410 . S
C2236 C2237 1.392 . S
C2236 C2239 1.511 . S
C2237 C2233 1.376 . S
C2237 C2236 1.392 . S
C2237 H2249 0.929 . S
C2238 C2234 1.531 . S
C2238 H2250 0.960 . S
C2238 H2251 0.962 . S
C2238 H2252 0.960 . S
C2239 C2236 1.511 . S
C2239 H2253 0.961 . S
C2239 H2254 0.961 . S
C2239 H2255 0.961 . S
C2240 C2241 1.370 . S
C2240 C2242 1.363 . S
C2240 H2256 0.931 . S
C2241 C2240 1.370 . S
C2241 C2245 1.408 . S
C2242 C2240 1.363 . S
C2242 C2243 1.370 . S
C2242 C2246 1.524 . S
C2243 C2235 1.503 . S
C2243 C2242 1.370 . S
C2243 C2244 1.403 . S
C2244 C2243 1.403 . S
C2244 C2245 1.404 . S
C2244 C2247 1.539 . S
C2245 C2241 1.408 . S
C2245 C2244 1.404 . S
C2245 H2257 0.930 . S
C2246 C2242 1.524 . S
C2246 H2258 0.956 . S
C2246 H2259 0.961 . S
C2246 H2260 0.961 . S
C2247 C2244 1.539 . S
C2247 H2261 0.958 . S
C2247 H2262 0.961 . S
C2247 H2263 0.960 . S
H2248 C2232 0.931 . S
H2249 C2237 0.929 . S
H2250 C2238 0.960 . S
H2251 C2238 0.962 . S
H2252 C2238 0.960 . S
H2253 C2239 0.961 . S
H2254 C2239 0.961 . S
H2255 C2239 0.961 . S
H2256 C2240 0.931 . S
H2257 C2245 0.930 . S
H2258 C2246 0.956 . S
H2259 C2246 0.961 . S
H2260 C2246 0.961 . S
H2261 C2247 0.958 . S
H2262 C2247 0.961 . S
H2263 C2247 0.960 . S
C2264 C2265 1.391 . S
C2264 C2266 1.394 . S
C2264 H2280 0.931 . S
C2265 C2264 1.391 . S
C2265 C2269 1.376 . S
C2266 C2264 1.394 . S
C2266 C2267 1.369 . S
C2266 C2270 1.531 . S
C2267 C2266 1.369 . S
C2267 C2268 1.410 . S
C2267 C2275 1.503 . S
C2268 C2267 1.410 . S
C2268 C2269 1.392 . S
C2268 C2271 1.511 . S
C2269 C2265 1.376 . S
C2269 C2268 1.392 . S
C2269 H2281 0.929 . S
C2270 C2266 1.531 . S
C2270 H2282 0.960 . S
C2270 H2283 0.962 . S
C2270 H2284 0.960 . S
C2271 C2268 1.511 . S
C2271 H2285 0.961 . S
C2271 H2286 0.961 . S
C2271 H2287 0.961 . S
C2272 C2273 1.370 . S
C2272 C2274 1.363 . S
C2272 H2288 0.931 . S
C2273 C2272 1.370 . S
C2273 C2277 1.408 . S
C2274 C2272 1.363 . S
C2274 C2275 1.370 . S
C2274 C2278 1.524 . S
C2275 C2267 1.503 . S
C2275 C2274 1.370 . S
C2275 C2276 1.403 . S
C2276 C2275 1.403 . S
C2276 C2277 1.404 . S
C2276 C2279 1.539 . S
C2277 C2273 1.408 . S
C2277 C2276 1.404 . S
C2277 H2289 0.930 1_655 S
C2278 C2274 1.524 . S
C2278 H2290 0.956 . S
C2278 H2291 0.961 . S
C2278 H2292 0.961 . S
C2279 C2276 1.539 . S
C2279 H2293 0.958 . S
C2279 H2294 0.961 . S
C2279 H2295 0.960 . S
H2280 C2264 0.931 . S
H2281 C2269 0.929 . S
H2282 C2270 0.960 . S
H2283 C2270 0.962 . S
H2284 C2270 0.960 . S
H2285 C2271 0.961 . S
H2286 C2271 0.961 . S
H2287 C2271 0.961 . S
H2288 C2272 0.931 . S
H2289 C2277 0.930 1_455 S
H2290 C2278 0.956 . S
H2291 C2278 0.961 . S
H2292 C2278 0.961 . S
H2293 C2279 0.958 . S
H2294 C2279 0.961 . S
H2295 C2279 0.960 . S
C2296 C2297 1.391 . S
C2296 C2298 1.394 . S
C2296 H2312 0.931 . S
C2297 C2296 1.391 . S
C2297 C2301 1.376 . S
C2298 C2296 1.394 . S
C2298 C2299 1.369 . S
C2298 C2302 1.531 . S
C2299 C2298 1.369 . S
C2299 C2300 1.410 . S
C2299 C2307 1.503 . S
C2300 C2299 1.410 . S
C2300 C2301 1.392 . S
C2300 C2303 1.511 . S
C2301 C2297 1.376 . S
C2301 C2300 1.392 . S
C2301 H2313 0.929 . S
C2302 C2298 1.531 . S
C2302 H2314 0.960 . S
C2302 H2315 0.962 . S
C2302 H2316 0.960 . S
C2303 C2300 1.511 . S
C2303 H2317 0.961 . S
C2303 H2318 0.961 . S
C2303 H2319 0.961 . S
C2304 C2305 1.370 . S
C2304 C2306 1.363 . S
C2304 H2320 0.931 . S
C2305 C2304 1.370 . S
C2305 C2309 1.408 . S
C2306 C2304 1.363 . S
C2306 C2307 1.370 . S
C2306 C2310 1.524 . S
C2307 C2299 1.503 . S
C2307 C2306 1.370 . S
C2307 C2308 1.403 . S
C2308 C2307 1.403 . S
C2308 C2309 1.404 . S
C2308 C2311 1.539 . S
C2309 C2305 1.408 . S
C2309 C2308 1.404 . S
C2309 H2321 0.930 . S
C2310 C2306 1.524 . S
C2310 H2322 0.956 . S
C2310 H2323 0.961 . S
C2310 H2324 0.961 . S
C2311 C2308 1.539 . S
C2311 H2325 0.958 . S
C2311 H2326 0.961 . S
C2311 H2327 0.960 . S
H2312 C2296 0.931 . S
H2313 C2301 0.929 . S
H2314 C2302 0.960 . S
H2315 C2302 0.962 . S
H2316 C2302 0.960 . S
H2317 C2303 0.961 . S
H2318 C2303 0.961 . S
H2319 C2303 0.961 . S
H2320 C2304 0.931 . S
H2321 C2309 0.930 . S
H2322 C2310 0.956 . S
H2323 C2310 0.961 . S
H2324 C2310 0.961 . S
H2325 C2311 0.958 . S
H2326 C2311 0.961 . S
H2327 C2311 0.960 . S
C2328 C2329 1.391 . S
C2328 C2330 1.394 . S
C2328 H2344 0.931 . S
C2329 C2328 1.391 . S
C2329 C2333 1.376 . S
C2330 C2328 1.394 . S
C2330 C2331 1.369 . S
C2330 C2334 1.531 . S
C2331 C2330 1.369 . S
C2331 C2332 1.410 . S
C2331 C2339 1.503 . S
C2332 C2331 1.410 . S
C2332 C2333 1.392 . S
C2332 C2335 1.511 . S
C2333 C2329 1.376 . S
C2333 C2332 1.392 . S
C2333 H2345 0.929 . S
C2334 C2330 1.531 . S
C2334 H2346 0.960 . S
C2334 H2347 0.962 . S
C2334 H2348 0.960 . S
C2335 C2332 1.511 . S
C2335 H2349 0.961 . S
C2335 H2350 0.961 . S
C2335 H2351 0.961 . S
C2336 C2337 1.370 . S
C2336 C2338 1.363 . S
C2336 H2352 0.931 . S
C2337 C2336 1.370 . S
C2337 C2341 1.408 . S
C2338 C2336 1.363 . S
C2338 C2339 1.370 . S
C2338 C2342 1.524 . S
C2339 C2331 1.503 . S
C2339 C2338 1.370 . S
C2339 C2340 1.403 . S
C2340 C2339 1.403 . S
C2340 C2341 1.404 . S
C2340 C2343 1.539 . S
C2341 C2337 1.408 . S
C2341 C2340 1.404 . S
C2341 H2353 0.930 . S
C2342 C2338 1.524 . S
C2342 H2354 0.956 . S
C2342 H2355 0.961 . S
C2342 H2356 0.961 . S
C2343 C2340 1.539 . S
C2343 H2357 0.958 . S
C2343 H2358 0.961 . S
C2343 H2359 0.960 . S
H2344 C2328 0.931 . S
H2345 C2333 0.929 . S
H2346 C2334 0.960 . S
H2347 C2334 0.962 . S
H2348 C2334 0.960 . S
H2349 C2335 0.961 . S
H2350 C2335 0.961 . S
H2351 C2335 0.961 . S
H2352 C2336 0.931 . S
H2353 C2341 0.930 . S
H2354 C2342 0.956 . S
H2355 C2342 0.961 . S
H2356 C2342 0.961 . S
H2357 C2343 0.958 . S
H2358 C2343 0.961 . S
H2359 C2343 0.960 . S
C2360 C2361 1.391 . S
C2360 C2362 1.394 . S
C2360 H2376 0.931 . S
C2361 C2360 1.391 . S
C2361 C2365 1.376 . S
C2362 C2360 1.394 . S
C2362 C2363 1.369 . S
C2362 C2366 1.531 . S
C2363 C2362 1.369 . S
C2363 C2364 1.410 . S
C2363 C2371 1.503 . S
C2364 C2363 1.410 . S
C2364 C2365 1.392 . S
C2364 C2367 1.511 . S
C2365 C2361 1.376 . S
C2365 C2364 1.392 . S
C2365 H2377 0.929 . S
C2366 C2362 1.531 . S
C2366 H2378 0.960 . S
C2366 H2379 0.962 . S
C2366 H2380 0.960 . S
C2367 C2364 1.511 . S
C2367 H2381 0.961 . S
C2367 H2382 0.961 . S
C2367 H2383 0.961 . S
C2368 C2369 1.370 . S
C2368 C2370 1.363 . S
C2368 H2384 0.931 . S
C2369 C2368 1.370 . S
C2369 C2373 1.408 . S
C2370 C2368 1.363 . S
C2370 C2371 1.370 . S
C2370 C2374 1.524 . S
C2371 C2363 1.503 . S
C2371 C2370 1.370 . S
C2371 C2372 1.403 . S
C2372 C2371 1.403 . S
C2372 C2373 1.404 . S
C2372 C2375 1.539 . S
C2373 C2369 1.408 . S
C2373 C2372 1.404 . S
C2373 H2385 0.930 . S
C2374 C2370 1.524 . S
C2374 H2386 0.956 . S
C2374 H2387 0.961 . S
C2374 H2388 0.961 . S
C2375 C2372 1.539 . S
C2375 H2389 0.958 . S
C2375 H2390 0.961 . S
C2375 H2391 0.960 . S
H2376 C2360 0.931 . S
H2377 C2365 0.929 . S
H2378 C2366 0.960 . S
H2379 C2366 0.962 . S
H2380 C2366 0.960 . S
H2381 C2367 0.961 . S
H2382 C2367 0.961 . S
H2383 C2367 0.961 . S
H2384 C2368 0.931 . S
H2385 C2373 0.930 . S
H2386 C2374 0.956 . S
H2387 C2374 0.961 . S
H2388 C2374 0.961 . S
H2389 C2375 0.958 . S
H2390 C2375 0.961 . S
H2391 C2375 0.960 . S
C2392 C2393 1.391 . S
C2392 C2394 1.394 . S
C2392 H2408 0.931 . S
C2393 C2392 1.391 . S
C2393 C2397 1.376 . S
C2394 C2392 1.394 . S
C2394 C2395 1.369 . S
C2394 C2398 1.531 . S
C2395 C2394 1.369 . S
C2395 C2396 1.410 . S
C2395 C2403 1.503 . S
C2396 C2395 1.410 . S
C2396 C2397 1.392 . S
C2396 C2399 1.511 . S
C2397 C2393 1.376 . S
C2397 C2396 1.392 . S
C2397 H2409 0.929 . S
C2398 C2394 1.531 . S
C2398 H2410 0.960 . S
C2398 H2411 0.962 . S
C2398 H2412 0.960 . S
C2399 C2396 1.511 . S
C2399 H2413 0.961 . S
C2399 H2414 0.961 . S
C2399 H2415 0.961 . S
C2400 C2401 1.370 . S
C2400 C2402 1.363 . S
C2400 H2416 0.931 . S
C2401 C2400 1.370 . S
C2401 C2405 1.408 . S
C2402 C2400 1.363 . S
C2402 C2403 1.370 . S
C2402 C2406 1.524 . S
C2403 C2395 1.503 . S
C2403 C2402 1.370 . S
C2403 C2404 1.403 . S
C2404 C2403 1.403 . S
C2404 C2405 1.404 . S
C2404 C2407 1.539 . S
C2405 C2401 1.408 . S
C2405 C2404 1.404 . S
C2405 H2417 0.930 . S
C2406 C2402 1.524 . S
C2406 H2418 0.956 . S
C2406 H2419 0.961 . S
C2406 H2420 0.961 . S
C2407 C2404 1.539 . S
C2407 H2421 0.958 . S
C2407 H2422 0.961 . S
C2407 H2423 0.960 . S
H2408 C2392 0.931 . S
H2409 C2397 0.929 . S
H2410 C2398 0.960 . S
H2411 C2398 0.962 . S
H2412 C2398 0.960 . S
H2413 C2399 0.961 . S
H2414 C2399 0.961 . S
H2415 C2399 0.961 . S
H2416 C2400 0.931 . S
H2417 C2405 0.930 . S
H2418 C2406 0.956 . S
H2419 C2406 0.961 . S
H2420 C2406 0.961 . S
H2421 C2407 0.958 . S
H2422 C2407 0.961 . S
H2423 C2407 0.960 . S
C2424 C2425 1.391 . S
C2424 C2426 1.394 . S
C2424 H2440 0.931 . S
C2425 C2424 1.391 . S
C2425 C2429 1.376 . S
C2426 C2424 1.394 . S
C2426 C2427 1.369 . S
C2426 C2430 1.531 . S
C2427 C2426 1.369 . S
C2427 C2428 1.410 . S
C2427 C2435 1.503 . S
C2428 C2427 1.410 . S
C2428 C2429 1.392 . S
C2428 C2431 1.511 . S
C2429 C2425 1.376 . S
C2429 C2428 1.392 . S
C2429 H2441 0.929 . S
C2430 C2426 1.531 . S
C2430 H2442 0.960 . S
C2430 H2443 0.962 . S
C2430 H2444 0.960 . S
C2431 C2428 1.511 . S
C2431 H2445 0.961 . S
C2431 H2446 0.961 . S
C2431 H2447 0.961 . S
C2432 C2433 1.370 . S
C2432 C2434 1.363 . S
C2432 H2448 0.931 . S
C2433 C2432 1.370 . S
C2433 C2437 1.408 . S
C2434 C2432 1.363 . S
C2434 C2435 1.370 . S
C2434 C2438 1.524 . S
C2435 C2427 1.503 . S
C2435 C2434 1.370 . S
C2435 C2436 1.403 . S
C2436 C2435 1.403 . S
C2436 C2437 1.404 . S
C2436 C2439 1.539 . S
C2437 C2433 1.408 . S
C2437 C2436 1.404 . S
C2437 H2449 0.930 . S
C2438 C2434 1.524 . S
C2438 H2450 0.956 . S
C2438 H2451 0.961 . S
C2438 H2452 0.961 . S
C2439 C2436 1.539 . S
C2439 H2453 0.958 . S
C2439 H2454 0.961 . S
C2439 H2455 0.960 . S
H2440 C2424 0.931 . S
H2441 C2429 0.929 . S
H2442 C2430 0.960 . S
H2443 C2430 0.962 . S
H2444 C2430 0.960 . S
H2445 C2431 0.961 . S
H2446 C2431 0.961 . S
H2447 C2431 0.961 . S
H2448 C2432 0.931 . S
H2449 C2437 0.930 . S
H2450 C2438 0.956 . S
H2451 C2438 0.961 . S
H2452 C2438 0.961 . S
H2453 C2439 0.958 . S
H2454 C2439 0.961 . S
H2455 C2439 0.960 . S
C2456 C2457 1.391 . S
C2456 C2458 1.394 . S
C2456 H2472 0.931 . S
C2457 C2456 1.391 . S
C2457 C2461 1.376 . S
C2458 C2456 1.394 . S
C2458 C2459 1.369 . S
C2458 C2462 1.531 . S
C2459 C2458 1.369 . S
C2459 C2460 1.410 . S
C2459 C2467 1.503 . S
C2460 C2459 1.410 . S
C2460 C2461 1.392 . S
C2460 C2463 1.511 . S
C2461 C2457 1.376 . S
C2461 C2460 1.392 . S
C2461 H2473 0.929 . S
C2462 C2458 1.531 . S
C2462 H2474 0.960 . S
C2462 H2475 0.962 . S
C2462 H2476 0.960 . S
C2463 C2460 1.511 . S
C2463 H2477 0.961 . S
C2463 H2478 0.961 . S
C2463 H2479 0.961 . S
C2464 C2465 1.370 . S
C2464 C2466 1.363 . S
C2464 H2480 0.931 . S
C2465 C2464 1.370 . S
C2465 C2469 1.408 . S
C2466 C2464 1.363 . S
C2466 C2467 1.370 . S
C2466 C2470 1.524 . S
C2467 C2459 1.503 . S
C2467 C2466 1.370 . S
C2467 C2468 1.403 . S
C2468 C2467 1.403 . S
C2468 C2469 1.404 . S
C2468 C2471 1.539 . S
C2469 C2465 1.408 . S
C2469 C2468 1.404 . S
C2469 H2481 0.930 . S
C2470 C2466 1.524 . S
C2470 H2482 0.956 . S
C2470 H2483 0.961 . S
C2470 H2484 0.961 . S
C2471 C2468 1.539 . S
C2471 H2485 0.958 . S
C2471 H2486 0.961 . S
C2471 H2487 0.960 . S
H2472 C2456 0.931 . S
H2473 C2461 0.929 . S
H2474 C2462 0.960 . S
H2475 C2462 0.962 . S
H2476 C2462 0.960 . S
H2477 C2463 0.961 . S
H2478 C2463 0.961 . S
H2479 C2463 0.961 . S
H2480 C2464 0.931 . S
H2481 C2469 0.930 . S
H2482 C2470 0.956 . S
H2483 C2470 0.961 . S
H2484 C2470 0.961 . S
H2485 C2471 0.958 . S
H2486 C2471 0.961 . S
H2487 C2471 0.960 . S
C2488 C2489 1.391 . S
C2488 C2490 1.394 . S
C2488 H2504 0.931 . S
C2489 C2488 1.391 . S
C2489 C2493 1.376 . S
C2490 C2488 1.394 . S
C2490 C2491 1.369 . S
C2490 C2494 1.531 . S
C2491 C2490 1.369 . S
C2491 C2492 1.410 . S
C2491 C2499 1.503 . S
C2492 C2491 1.410 . S
C2492 C2493 1.392 . S
C2492 C2495 1.511 . S
C2493 C2489 1.376 . S
C2493 C2492 1.392 . S
C2493 H2505 0.929 . S
C2494 C2490 1.531 . S
C2494 H2506 0.960 . S
C2494 H2507 0.962 . S
C2494 H2508 0.960 . S
C2495 C2492 1.511 . S
C2495 H2509 0.961 . S
C2495 H2510 0.961 . S
C2495 H2511 0.961 . S
C2496 C2497 1.370 . S
C2496 C2498 1.363 . S
C2496 H2512 0.931 . S
C2497 C2496 1.370 . S
C2497 C2501 1.408 . S
C2498 C2496 1.363 . S
C2498 C2499 1.370 . S
C2498 C2502 1.524 . S
C2499 C2491 1.503 . S
C2499 C2498 1.370 . S
C2499 C2500 1.403 . S
C2500 C2499 1.403 . S
C2500 C2501 1.404 . S
C2500 C2503 1.539 . S
C2501 C2497 1.408 . S
C2501 C2500 1.404 . S
C2501 H2513 0.930 . S
C2502 C2498 1.524 . S
C2502 H2514 0.956 . S
C2502 H2515 0.961 . S
C2502 H2516 0.961 . S
C2503 C2500 1.539 . S
C2503 H2517 0.958 . S
C2503 H2518 0.961 . S
C2503 H2519 0.960 . S
H2504 C2488 0.931 . S
H2505 C2493 0.929 . S
H2506 C2494 0.960 . S
H2507 C2494 0.962 . S
H2508 C2494 0.960 . S
H2509 C2495 0.961 . S
H2510 C2495 0.961 . S
H2511 C2495 0.961 . S
H2512 C2496 0.931 . S
H2513 C2501 0.930 . S
H2514 C2502 0.956 . S
H2515 C2502 0.961 . S
H2516 C2502 0.961 . S
H2517 C2503 0.958 . S
H2518 C2503 0.961 . S
H2519 C2503 0.960 . S
C2520 C2521 1.391 . S
C2520 C2522 1.394 . S
C2520 H2536 0.931 . S
C2521 C2520 1.391 . S
C2521 C2525 1.376 . S
C2522 C2520 1.394 . S
C2522 C2523 1.369 . S
C2522 C2526 1.531 . S
C2523 C2522 1.369 . S
C2523 C2524 1.410 . S
C2523 C2531 1.503 . S
C2524 C2523 1.410 . S
C2524 C2525 1.392 . S
C2524 C2527 1.511 . S
C2525 C2521 1.376 . S
C2525 C2524 1.392 . S
C2525 H2537 0.929 . S
C2526 C2522 1.531 . S
C2526 H2538 0.960 . S
C2526 H2539 0.962 . S
C2526 H2540 0.960 . S
C2527 C2524 1.511 . S
C2527 H2541 0.961 . S
C2527 H2542 0.961 . S
C2527 H2543 0.961 . S
C2528 C2529 1.370 . S
C2528 C2530 1.363 . S
C2528 H2544 0.931 . S
C2529 C2528 1.370 . S
C2529 C2533 1.408 . S
C2530 C2528 1.363 . S
C2530 C2531 1.370 . S
C2530 C2534 1.524 . S
C2531 C2523 1.503 . S
C2531 C2530 1.370 . S
C2531 C2532 1.403 . S
C2532 C2531 1.403 . S
C2532 C2533 1.404 . S
C2532 C2535 1.539 . S
C2533 C2529 1.408 . S
C2533 C2532 1.404 . S
C2533 H2545 0.930 . S
C2534 C2530 1.524 . S
C2534 H2546 0.956 . S
C2534 H2547 0.961 . S
C2534 H2548 0.961 . S
C2535 C2532 1.539 . S
C2535 H2549 0.958 . S
C2535 H2550 0.961 . S
C2535 H2551 0.960 . S
H2536 C2520 0.931 . S
H2537 C2525 0.929 . S
H2538 C2526 0.960 . S
H2539 C2526 0.962 . S
H2540 C2526 0.960 . S
H2541 C2527 0.961 . S
H2542 C2527 0.961 . S
H2543 C2527 0.961 . S
H2544 C2528 0.931 . S
H2545 C2533 0.930 . S
H2546 C2534 0.956 . S
H2547 C2534 0.961 . S
H2548 C2534 0.961 . S
H2549 C2535 0.958 . S
H2550 C2535 0.961 . S
H2551 C2535 0.960 . S
C2552 C2553 1.391 . S
C2552 C2554 1.394 . S
C2552 H2568 0.931 . S
C2553 C2552 1.391 . S
C2553 C2557 1.376 . S
C2554 C2552 1.394 . S
C2554 C2555 1.369 . S
C2554 C2558 1.531 . S
C2555 C2554 1.369 . S
C2555 C2556 1.410 . S
C2555 C2563 1.503 . S
C2556 C2555 1.410 . S
C2556 C2557 1.392 . S
C2556 C2559 1.511 . S
C2557 C2553 1.376 . S
C2557 C2556 1.392 . S
C2557 H2569 0.929 . S
C2558 C2554 1.531 . S
C2558 H2570 0.960 . S
C2558 H2571 0.962 . S
C2558 H2572 0.960 . S
C2559 C2556 1.511 . S
C2559 H2573 0.961 . S
C2559 H2574 0.961 . S
C2559 H2575 0.961 . S
C2560 C2561 1.370 . S
C2560 C2562 1.363 . S
C2560 H2576 0.931 . S
C2561 C2560 1.370 . S
C2561 C2565 1.408 . S
C2562 C2560 1.363 . S
C2562 C2563 1.370 . S
C2562 C2566 1.524 . S
C2563 C2555 1.503 . S
C2563 C2562 1.370 . S
C2563 C2564 1.403 . S
C2564 C2563 1.403 . S
C2564 C2565 1.404 . S
C2564 C2567 1.539 . S
C2565 C2561 1.408 . S
C2565 C2564 1.404 . S
C2565 H2577 0.930 . S
C2566 C2562 1.524 . S
C2566 H2578 0.956 . S
C2566 H2579 0.961 . S
C2566 H2580 0.961 . S
C2567 C2564 1.539 . S
C2567 H2581 0.958 . S
C2567 H2582 0.961 . S
C2567 H2583 0.960 . S
H2568 C2552 0.931 . S
H2569 C2557 0.929 . S
H2570 C2558 0.960 . S
H2571 C2558 0.962 . S
H2572 C2558 0.960 . S
H2573 C2559 0.961 . S
H2574 C2559 0.961 . S
H2575 C2559 0.961 . S
H2576 C2560 0.931 . S
H2577 C2565 0.930 . S
H2578 C2566 0.956 . S
H2579 C2566 0.961 . S
H2580 C2566 0.961 . S
H2581 C2567 0.958 . S
H2582 C2567 0.961 . S
H2583 C2567 0.960 . S
C2584 C2585 1.391 . S
C2584 C2586 1.394 . S
C2584 H2600 0.931 . S
C2585 C2584 1.391 . S
C2585 C2589 1.376 . S
C2586 C2584 1.394 . S
C2586 C2587 1.369 . S
C2586 C2590 1.531 . S
C2587 C2586 1.369 . S
C2587 C2588 1.410 . S
C2587 C2595 1.503 . S
C2588 C2587 1.410 . S
C2588 C2589 1.392 . S
C2588 C2591 1.511 . S
C2589 C2585 1.376 . S
C2589 C2588 1.392 . S
C2589 H2601 0.929 . S
C2590 C2586 1.531 . S
C2590 H2602 0.960 . S
C2590 H2603 0.962 . S
C2590 H2604 0.960 . S
C2591 C2588 1.511 . S
C2591 H2605 0.961 . S
C2591 H2606 0.961 . S
C2591 H2607 0.961 . S
C2592 C2593 1.370 . S
C2592 C2594 1.363 . S
C2592 H2608 0.931 . S
C2593 C2592 1.370 . S
C2593 C2597 1.408 . S
C2594 C2592 1.363 . S
C2594 C2595 1.370 . S
C2594 C2598 1.524 . S
C2595 C2587 1.503 . S
C2595 C2594 1.370 . S
C2595 C2596 1.403 . S
C2596 C2595 1.403 . S
C2596 C2597 1.404 . S
C2596 C2599 1.539 . S
C2597 C2593 1.408 . S
C2597 C2596 1.404 . S
C2597 H2609 0.930 . S
C2598 C2594 1.524 . S
C2598 H2610 0.956 . S
C2598 H2611 0.961 . S
C2598 H2612 0.961 . S
C2599 C2596 1.539 . S
C2599 H2613 0.958 . S
C2599 H2614 0.961 . S
C2599 H2615 0.960 . S
H2600 C2584 0.931 . S
H2601 C2589 0.929 . S
H2602 C2590 0.960 . S
H2603 C2590 0.962 . S
H2604 C2590 0.960 . S
H2605 C2591 0.961 . S
H2606 C2591 0.961 . S
H2607 C2591 0.961 . S
H2608 C2592 0.931 . S
H2609 C2597 0.930 . S
H2610 C2598 0.956 . S
H2611 C2598 0.961 . S
H2612 C2598 0.961 . S
H2613 C2599 0.958 . S
H2614 C2599 0.961 . S
H2615 C2599 0.960 . S
C2616 C2617 1.391 . S
C2616 C2618 1.394 . S
C2616 H2632 0.931 . S
C2617 C2616 1.391 . S
C2617 C2621 1.376 . S
C2618 C2616 1.394 . S
C2618 C2619 1.369 . S
C2618 C2622 1.531 . S
C2619 C2618 1.369 . S
C2619 C2620 1.410 . S
C2619 C2627 1.503 . S
C2620 C2619 1.410 . S
C2620 C2621 1.392 . S
C2620 C2623 1.511 . S
C2621 C2617 1.376 . S
C2621 C2620 1.392 . S
C2621 H2633 0.929 . S
C2622 C2618 1.531 . S
C2622 H2634 0.960 . S
C2622 H2635 0.962 . S
C2622 H2636 0.960 . S
C2623 C2620 1.511 . S
C2623 H2637 0.961 . S
C2623 H2638 0.961 . S
C2623 H2639 0.961 . S
C2624 C2625 1.370 . S
C2624 C2626 1.363 . S
C2624 H2640 0.909 1_556 S
C2625 C2624 1.370 . S
C2625 C2629 1.408 . S
C2626 C2624 1.363 . S
C2626 C2627 1.370 . S
C2626 C2630 1.524 . S
C2627 C2619 1.503 . S
C2627 C2626 1.370 . S
C2627 C2628 1.403 . S
C2628 C2627 1.403 . S
C2628 C2629 1.404 . S
C2628 C2631 1.539 . S
C2629 C2625 1.408 . S
C2629 C2628 1.404 . S
C2629 H2641 0.930 1_565 S
C2630 C2626 1.524 . S
C2630 H2642 0.956 . S
C2630 H2643 0.961 . S
C2630 H2644 0.961 . S
C2631 C2628 1.539 . S
C2631 H2645 0.958 . S
C2631 H2646 0.961 . S
C2631 H2647 0.960 . S
H2632 C2616 0.931 . S
H2633 C2621 0.929 . S
H2634 C2622 0.960 . S
H2635 C2622 0.962 . S
H2636 C2622 0.960 . S
H2637 C2623 0.961 . S
H2638 C2623 0.961 . S
H2639 C2623 0.961 . S
H2640 C2624 0.909 1_554 S
H2641 C2629 0.930 1_545 S
H2642 C2630 0.956 . S
H2643 C2630 0.961 . S
H2644 C2630 0.961 . S
H2645 C2631 0.958 . S
H2646 C2631 0.961 . S
H2647 C2631 0.960 . S
C2648 C2649 1.391 . S
C2648 C2650 1.394 . S
C2648 H2664 0.931 . S
C2649 C2648 1.391 . S
C2649 C2653 1.376 . S
C2650 C2648 1.394 . S
C2650 C2651 1.369 . S
C2650 C2654 1.531 . S
C2651 C2650 1.369 . S
C2651 C2652 1.410 . S
C2651 C2659 1.503 . S
C2652 C2651 1.410 . S
C2652 C2653 1.392 . S
C2652 C2655 1.511 . S
C2653 C2649 1.376 . S
C2653 C2652 1.392 . S
C2653 H2665 0.929 . S
C2654 C2650 1.531 . S
C2654 H2666 0.960 . S
C2654 H2667 0.962 . S
C2654 H2668 0.960 . S
C2655 C2652 1.511 . S
C2655 H2669 0.961 . S
C2655 H2670 0.961 . S
C2655 H2671 0.961 . S
C2656 C2657 1.370 . S
C2656 C2658 1.363 . S
C2656 H2672 0.931 . S
C2657 C2656 1.370 . S
C2657 C2661 1.408 . S
C2658 C2656 1.363 . S
C2658 C2659 1.370 . S
C2658 C2662 1.524 . S
C2659 C2651 1.503 . S
C2659 C2658 1.370 . S
C2659 C2660 1.403 . S
C2660 C2659 1.403 . S
C2660 C2661 1.404 . S
C2660 C2663 1.539 . S
C2661 C2657 1.408 . S
C2661 C2660 1.404 . S
C2661 H2673 0.930 . S
C2662 C2658 1.524 . S
C2662 H2674 0.956 . S
C2662 H2675 0.961 . S
C2662 H2676 0.961 . S
C2663 C2660 1.539 . S
C2663 H2677 0.958 . S
C2663 H2678 0.961 . S
C2663 H2679 0.960 . S
H2664 C2648 0.931 . S
H2665 C2653 0.929 . S
H2666 C2654 0.960 . S
H2667 C2654 0.962 . S
H2668 C2654 0.960 . S
H2669 C2655 0.961 . S
H2670 C2655 0.961 . S
H2671 C2655 0.961 . S
H2672 C2656 0.931 . S
H2673 C2661 0.930 . S
H2674 C2662 0.956 . S
H2675 C2662 0.961 . S
H2676 C2662 0.961 . S
H2677 C2663 0.958 . S
H2678 C2663 0.961 . S
H2679 C2663 0.960 . S
C2680 C2681 1.391 . S
C2680 C2682 1.394 . S
C2680 H2696 0.931 . S
C2681 C2680 1.391 . S
C2681 C2685 1.376 1_545 S
C2682 C2680 1.394 . S
C2682 C2683 1.369 . S
C2682 C2686 1.531 . S
C2683 C2682 1.369 . S
C2683 C2684 1.410 1_545 S
C2683 C2691 1.503 . S
C2684 C2683 1.410 1_565 S
C2684 C2685 1.392 . S
C2684 C2687 1.511 . S
C2685 C2681 1.376 1_565 S
C2685 C2684 1.392 . S
C2685 H2697 0.929 . S
C2686 C2682 1.531 . S
C2686 H2698 0.960 . S
C2686 H2699 0.962 . S
C2686 H2700 0.960 . S
C2687 C2684 1.511 . S
C2687 H2701 0.961 . S
C2687 H2702 0.961 . S
C2687 H2703 0.961 . S
C2688 C2689 1.370 . S
C2688 C2690 1.363 . S
C2688 H2704 0.931 . S
C2689 C2688 1.370 . S
C2689 C2693 1.408 . S
C2690 C2688 1.363 . S
C2690 C2691 1.370 . S
C2690 C2694 1.524 1_545 S
C2691 C2683 1.503 . S
C2691 C2690 1.370 . S
C2691 C2692 1.403 . S
C2692 C2691 1.403 . S
C2692 C2693 1.404 . S
C2692 C2695 1.539 . S
C2693 C2689 1.408 . S
C2693 C2692 1.404 . S
C2693 H2705 0.930 . S
C2694 C2690 1.524 1_565 S
C2694 H2706 0.956 1_565 S
C2694 H2707 0.961 . S
C2694 H2708 0.961 . S
C2695 C2692 1.539 . S
C2695 H2709 0.958 . S
C2695 H2710 0.961 . S
C2695 H2711 0.960 . S
H2696 C2680 0.931 . S
H2697 C2685 0.929 . S
H2698 C2686 0.960 . S
H2699 C2686 0.962 . S
H2700 C2686 0.960 . S
H2701 C2687 0.961 . S
H2702 C2687 0.961 . S
H2703 C2687 0.961 . S
H2704 C2688 0.931 . S
H2705 C2693 0.930 . S
H2706 C2694 0.956 1_545 S
H2707 C2694 0.961 . S
H2708 C2694 0.961 . S
H2709 C2695 0.958 . S
H2710 C2695 0.961 . S
H2711 C2695 0.960 . S
C2712 C2713 1.391 . S
C2712 C2714 1.394 . S
C2712 H2728 0.931 . S
C2713 C2712 1.391 . S
C2713 C2717 1.376 . S
C2714 C2712 1.394 . S
C2714 C2715 1.369 . S
C2714 C2718 1.531 . S
C2715 C2714 1.369 . S
C2715 C2716 1.410 . S
C2715 C2723 1.503 . S
C2716 C2715 1.410 . S
C2716 C2717 1.392 . S
C2716 C2719 1.511 . S
C2717 C2713 1.376 . S
C2717 C2716 1.392 . S
C2717 H2729 0.929 . S
C2718 C2714 1.531 . S
C2718 H2730 0.960 . S
C2718 H2731 0.962 . S
C2718 H2732 0.960 . S
C2719 C2716 1.511 . S
C2719 H2733 0.961 . S
C2719 H2734 0.961 . S
C2719 H2735 0.961 . S
C2720 C2721 1.370 . S
C2720 C2722 1.363 . S
C2720 H2736 0.931 . S
C2721 C2720 1.370 . S
C2721 C2725 1.408 . S
C2722 C2720 1.363 . S
C2722 C2723 1.370 . S
C2722 C2726 1.524 . S
C2723 C2715 1.503 . S
C2723 C2722 1.370 . S
C2723 C2724 1.403 . S
C2724 C2723 1.403 . S
C2724 C2725 1.404 . S
C2724 C2727 1.539 . S
C2725 C2721 1.408 . S
C2725 C2724 1.404 . S
C2725 H2737 0.930 . S
C2726 C2722 1.524 . S
C2726 H2738 0.956 . S
C2726 H2739 0.961 . S
C2726 H2740 0.961 . S
C2727 C2724 1.539 . S
C2727 H2741 0.958 . S
C2727 H2742 0.961 . S
C2727 H2743 0.960 . S
H2728 C2712 0.931 . S
H2729 C2717 0.929 . S
H2730 C2718 0.960 . S
H2731 C2718 0.962 . S
H2732 C2718 0.960 . S
H2733 C2719 0.961 . S
H2734 C2719 0.961 . S
H2735 C2719 0.961 . S
H2736 C2720 0.931 . S
H2737 C2725 0.930 . S
H2738 C2726 0.956 . S
H2739 C2726 0.961 . S
H2740 C2726 0.961 . S
H2741 C2727 0.958 . S
H2742 C2727 0.961 . S
H2743 C2727 0.960 . S
C2744 C2745 1.391 . S
C2744 C2746 1.394 . S
C2744 H2760 0.931 . S
C2745 C2744 1.391 . S
C2745 C2749 1.376 . S
C2746 C2744 1.394 . S
C2746 C2747 1.369 . S
C2746 C2750 1.531 . S
C2747 C2746 1.369 . S
C2747 C2748 1.410 . S
C2747 C2755 1.503 . S
C2748 C2747 1.410 . S
C2748 C2749 1.392 . S
C2748 C2751 1.511 . S
C2749 C2745 1.376 . S
C2749 C2748 1.392 . S
C2749 H2761 0.929 . S
C2750 C2746 1.531 . S
C2750 H2762 0.960 . S
C2750 H2763 0.962 1_545 S
C2750 H2764 0.960 . S
C2751 C2748 1.511 . S
C2751 H2765 0.961 . S
C2751 H2766 0.961 . S
C2751 H2767 0.961 . S
C2752 C2753 1.370 . S
C2752 C2754 1.363 . S
C2752 H2768 0.931 . S
C2753 C2752 1.370 . S
C2753 C2757 1.408 . S
C2754 C2752 1.363 . S
C2754 C2755 1.370 . S
C2754 C2758 1.524 1_545 S
C2755 C2747 1.503 . S
C2755 C2754 1.370 . S
C2755 C2756 1.403 . S
C2756 C2755 1.403 . S
C2756 C2757 1.404 . S
C2756 C2759 1.539 . S
C2757 C2753 1.408 . S
C2757 C2756 1.404 . S
C2757 H2769 0.930 . S
C2758 C2754 1.524 1_565 S
C2758 H2770 0.956 . S
C2758 H2771 0.948 1_565 S
C2758 H2772 0.961 . S
C2759 C2756 1.539 . S
C2759 H2773 0.958 . S
C2759 H2774 0.961 . S
C2759 H2775 0.960 . S
H2760 C2744 0.931 . S
H2761 C2749 0.929 . S
H2762 C2750 0.960 . S
H2763 C2750 0.962 1_565 S
H2764 C2750 0.960 . S
H2765 C2751 0.961 . S
H2766 C2751 0.961 . S
H2767 C2751 0.961 . S
H2768 C2752 0.931 . S
H2769 C2757 0.930 . S
H2770 C2758 0.956 . S
H2771 C2758 0.948 1_545 S
H2772 C2758 0.961 . S
H2773 C2759 0.958 . S
H2774 C2759 0.961 . S
H2775 C2759 0.960 . S
C2776 C2777 1.391 . S
C2776 C2778 1.394 . S
C2776 H2792 0.931 . S
C2777 C2776 1.391 . S
C2777 C2781 1.376 . S
C2778 C2776 1.394 . S
C2778 C2779 1.369 . S
C2778 C2782 1.531 . S
C2779 C2778 1.369 . S
C2779 C2780 1.410 . S
C2779 C2787 1.503 . S
C2780 C2779 1.410 . S
C2780 C2781 1.392 . S
C2780 C2783 1.511 . S
C2781 C2777 1.376 . S
C2781 C2780 1.392 . S
C2781 H2793 0.929 . S
C2782 C2778 1.531 . S
C2782 H2794 0.960 . S
C2782 H2795 0.962 . S
C2782 H2796 0.960 . S
C2783 C2780 1.511 . S
C2783 H2797 0.961 . S
C2783 H2798 0.961 . S
C2783 H2799 0.961 . S
C2784 C2785 1.370 . S
C2784 C2786 1.363 . S
C2784 H2800 0.931 . S
C2785 C2784 1.370 . S
C2785 C2789 1.408 . S
C2786 C2784 1.363 . S
C2786 C2787 1.370 . S
C2786 C2790 1.524 . S
C2787 C2779 1.503 . S
C2787 C2786 1.370 . S
C2787 C2788 1.403 . S
C2788 C2787 1.403 . S
C2788 C2789 1.404 . S
C2788 C2791 1.539 . S
C2789 C2785 1.408 . S
C2789 C2788 1.404 . S
C2789 H2801 0.930 . S
C2790 C2786 1.524 . S
C2790 H2802 0.956 . S
C2790 H2803 0.961 . S
C2790 H2804 0.961 . S
C2791 C2788 1.539 . S
C2791 H2805 0.958 . S
C2791 H2806 0.961 . S
C2791 H2807 0.960 . S
H2792 C2776 0.931 . S
H2793 C2781 0.929 . S
H2794 C2782 0.960 . S
H2795 C2782 0.962 . S
H2796 C2782 0.960 . S
H2797 C2783 0.961 . S
H2798 C2783 0.961 . S
H2799 C2783 0.961 . S
H2800 C2784 0.931 . S
H2801 C2789 0.930 . S
H2802 C2790 0.956 . S
H2803 C2790 0.961 . S
H2804 C2790 0.961 . S
H2805 C2791 0.958 . S
H2806 C2791 0.961 . S
H2807 C2791 0.960 . S
C2808 C2809 1.391 . S
C2808 C2810 1.394 . S
C2808 H2824 0.931 . S
C2809 C2808 1.391 . S
C2809 C2813 1.376 1_565 S
C2810 C2808 1.394 . S
C2810 C2811 1.369 . S
C2810 C2814 1.531 . S
C2811 C2810 1.369 . S
C2811 C2812 1.410 1_565 S
C2811 C2819 1.503 1_565 S
C2812 C2811 1.410 1_545 S
C2812 C2813 1.392 . S
C2812 C2815 1.511 . S
C2813 C2809 1.376 1_545 S
C2813 C2812 1.392 . S
C2813 H2825 0.929 . S
C2814 C2810 1.531 . S
C2814 H2826 0.960 . S
C2814 H2827 0.962 . S
C2814 H2828 0.960 . S
C2815 C2812 1.511 . S
C2815 H2829 0.961 . S
C2815 H2830 0.961 . S
C2815 H2831 0.961 . S
C2816 C2817 1.370 . S
C2816 C2818 1.363 . S
C2816 H2832 0.931 . S
C2817 C2816 1.370 . S
C2817 C2821 1.408 1_545 S
C2818 C2816 1.363 . S
C2818 C2819 1.370 . S
C2818 C2822 1.524 . S
C2819 C2811 1.503 1_545 S
C2819 C2818 1.370 . S
C2819 C2820 1.403 1_545 S
C2820 C2819 1.403 1_565 S
C2820 C2821 1.404 . S
C2820 C2823 1.539 . S
C2821 C2817 1.408 1_565 S
C2821 C2820 1.404 . S
C2821 H2833 0.930 . S
C2822 C2818 1.524 . S
C2822 H2834 0.956 . S
C2822 H2835 0.961 . S
C2822 H2836 0.961 . S
C2823 C2820 1.539 . S
C2823 H2837 0.958 . S
C2823 H2838 0.961 . S
C2823 H2839 0.960 . S
H2824 C2808 0.931 . S
H2825 C2813 0.929 . S
H2826 C2814 0.960 . S
H2827 C2814 0.962 . S
H2828 C2814 0.960 . S
H2829 C2815 0.961 . S
H2830 C2815 0.961 . S
H2831 C2815 0.961 . S
H2832 C2816 0.931 . S
H2833 C2821 0.930 . S
H2834 C2822 0.956 . S
H2835 C2822 0.961 . S
H2836 C2822 0.961 . S
H2837 C2823 0.958 . S
H2838 C2823 0.961 . S
H2839 C2823 0.960 . S
C2840 C2841 1.391 . S
C2840 C2842 1.394 . S
C2840 H2856 0.931 . S
C2841 C2840 1.391 . S
C2841 C2845 1.376 . S
C2842 C2840 1.394 . S
C2842 C2843 1.369 . S
C2842 C2846 1.531 . S
C2843 C2842 1.369 . S
C2843 C2844 1.410 . S
C2843 C2851 1.503 . S
C2844 C2843 1.410 . S
C2844 C2845 1.392 . S
C2844 C2847 1.511 . S
C2845 C2841 1.376 . S
C2845 C2844 1.392 . S
C2845 H2857 0.929 . S
C2846 C2842 1.531 . S
C2846 H2858 0.960 . S
C2846 H2859 0.962 . S
C2846 H2860 0.960 . S
C2847 C2844 1.511 . S
C2847 H2861 0.961 . S
C2847 H2862 0.961 . S
C2847 H2863 0.961 . S
C2848 C2849 1.370 . S
C2848 C2850 1.363 . S
C2848 H2864 0.931 . S
C2849 C2848 1.370 . S
C2849 C2853 1.408 . S
C2850 C2848 1.363 . S
C2850 C2851 1.370 . S
C2850 C2854 1.524 . S
C2851 C2843 1.503 . S
C2851 C2850 1.370 . S
C2851 C2852 1.403 . S
C2852 C2851 1.403 . S
C2852 C2853 1.404 . S
C2852 C2855 1.539 . S
C2853 C2849 1.408 . S
C2853 C2852 1.404 . S
C2853 H2865 0.930 . S
C2854 C2850 1.524 . S
C2854 H2866 0.956 . S
C2854 H2867 0.961 . S
C2854 H2868 0.961 . S
C2855 C2852 1.539 . S
C2855 H2869 0.958 . S
C2855 H2870 0.961 . S
C2855 H2871 0.960 . S
H2856 C2840 0.931 . S
H2857 C2845 0.929 . S
H2858 C2846 0.960 . S
H2859 C2846 0.962 . S
H2860 C2846 0.960 . S
H2861 C2847 0.961 . S
H2862 C2847 0.961 . S
H2863 C2847 0.961 . S
H2864 C2848 0.931 . S
H2865 C2853 0.930 . S
H2866 C2854 0.956 . S
H2867 C2854 0.961 . S
H2868 C2854 0.961 . S
H2869 C2855 0.958 . S
H2870 C2855 0.961 . S
H2871 C2855 0.960 . S
C2872 C2873 1.391 1_565 S
C2872 C2874 1.395 . S
C2872 H2888 0.931 . S
C2873 C2872 1.391 1_545 S
C2873 C2877 1.376 . S
C2874 C2872 1.395 . S
C2874 C2875 1.361 1_565 S
C2874 C2878 1.538 . S
C2875 C2874 1.361 1_545 S
C2875 C2876 1.410 . S
C2875 C2883 1.503 . S
C2876 C2875 1.410 . S
C2876 C2877 1.392 . S
C2876 C2879 1.511 . S
C2877 C2873 1.376 . S
C2877 C2876 1.392 . S
C2877 H2889 0.929 . S
C2878 C2874 1.538 . S
C2878 H2890 0.960 . S
C2878 H2891 0.962 . S
C2878 H2892 0.960 . S
C2879 C2876 1.511 . S
C2879 H2893 0.961 . S
C2879 H2894 0.961 . S
C2879 H2895 0.961 . S
C2880 C2881 1.370 . S
C2880 C2882 1.363 . S
C2880 H2896 0.931 . S
C2881 C2880 1.370 . S
C2881 C2885 1.408 . S
C2882 C2880 1.363 . S
C2882 C2883 1.370 . S
C2882 C2886 1.524 . S
C2883 C2875 1.503 . S
C2883 C2882 1.370 . S
C2883 C2884 1.403 . S
C2884 C2883 1.403 . S
C2884 C2885 1.404 . S
C2884 C2887 1.534 1_545 S
C2885 C2881 1.408 . S
C2885 C2884 1.404 . S
C2885 H2897 0.930 . S
C2886 C2882 1.524 . S
C2886 H2898 0.956 . S
C2886 H2899 0.961 . S
C2886 H2900 0.961 . S
C2887 C2884 1.534 1_565 S
C2887 H2901 0.988 . S
C2887 H2902 0.948 1_565 S
C2887 H2903 0.949 1_565 S
H2888 C2872 0.931 . S
H2889 C2877 0.929 . S
H2890 C2878 0.960 . S
H2891 C2878 0.962 . S
H2892 C2878 0.960 . S
H2893 C2879 0.961 . S
H2894 C2879 0.961 . S
H2895 C2879 0.961 . S
H2896 C2880 0.931 . S
H2897 C2885 0.930 . S
H2898 C2886 0.956 . S
H2899 C2886 0.961 . S
H2900 C2886 0.961 . S
H2901 C2887 0.988 . S
H2902 C2887 0.948 1_545 S
H2903 C2887 0.949 1_545 S
C2904 C2905 1.391 . S
C2904 C2906 1.394 . S
C2904 H2920 0.931 . S
C2905 C2904 1.391 . S
C2905 C2909 1.376 . S
C2906 C2904 1.394 . S
C2906 C2907 1.369 . S
C2906 C2910 1.531 . S
C2907 C2906 1.369 . S
C2907 C2908 1.410 . S
C2907 C2915 1.503 . S
C2908 C2907 1.410 . S
C2908 C2909 1.392 . S
C2908 C2911 1.511 . S
C2909 C2905 1.376 . S
C2909 C2908 1.392 . S
C2909 H2921 0.929 . S
C2910 C2906 1.531 . S
C2910 H2922 0.960 . S
C2910 H2923 0.962 . S
C2910 H2924 0.960 . S
C2911 C2908 1.511 . S
C2911 H2925 0.961 . S
C2911 H2926 0.961 . S
C2911 H2927 0.961 . S
C2912 C2913 1.370 . S
C2912 C2914 1.363 . S
C2912 H2928 0.931 . S
C2913 C2912 1.370 . S
C2913 C2917 1.408 . S
C2914 C2912 1.363 . S
C2914 C2915 1.370 . S
C2914 C2918 1.524 . S
C2915 C2907 1.503 . S
C2915 C2914 1.370 . S
C2915 C2916 1.403 . S
C2916 C2915 1.403 . S
C2916 C2917 1.404 . S
C2916 C2919 1.539 . S
C2917 C2913 1.408 . S
C2917 C2916 1.404 . S
C2917 H2929 0.930 . S
C2918 C2914 1.524 . S
C2918 H2930 0.956 . S
C2918 H2931 0.961 . S
C2918 H2932 0.961 . S
C2919 C2916 1.539 . S
C2919 H2933 0.958 . S
C2919 H2934 0.961 . S
C2919 H2935 0.960 . S
H2920 C2904 0.931 . S
H2921 C2909 0.929 . S
H2922 C2910 0.960 . S
H2923 C2910 0.962 . S
H2924 C2910 0.960 . S
H2925 C2911 0.961 . S
H2926 C2911 0.961 . S
H2927 C2911 0.961 . S
H2928 C2912 0.931 . S
H2929 C2917 0.930 . S
H2930 C2918 0.956 . S
H2931 C2918 0.961 . S
H2932 C2918 0.961 . S
H2933 C2919 0.958 . S
H2934 C2919 0.961 . S
H2935 C2919 0.960 . S
C2936 C2937 1.391 . S
C2936 C2938 1.394 . S
C2936 H2952 0.918 1_554 S
C2937 C2936 1.391 . S
C2937 C2941 1.376 . S
C2938 C2936 1.394 . S
C2938 C2939 1.369 . S
C2938 C2942 1.531 1_554 S
C2939 C2938 1.369 . S
C2939 C2940 1.410 . S
C2939 C2947 1.503 . S
C2940 C2939 1.410 . S
C2940 C2941 1.392 . S
C2940 C2943 1.511 . S
C2941 C2937 1.376 . S
C2941 C2940 1.392 . S
C2941 H2953 0.929 . S
C2942 C2938 1.531 1_556 S
C2942 H2954 0.960 . S
C2942 H2955 0.962 . S
C2942 H2956 0.960 . S
C2943 C2940 1.511 . S
C2943 H2957 0.961 . S
C2943 H2958 0.961 . S
C2943 H2959 0.961 . S
C2944 C2945 1.370 . S
C2944 C2946 1.363 . S
C2944 H2960 0.931 . S
C2945 C2944 1.370 . S
C2945 C2949 1.408 . S
C2946 C2944 1.363 . S
C2946 C2947 1.370 . S
C2946 C2950 1.524 . S
C2947 C2939 1.503 . S
C2947 C2946 1.370 . S
C2947 C2948 1.403 . S
C2948 C2947 1.403 . S
C2948 C2949 1.404 . S
C2948 C2951 1.539 . S
C2949 C2945 1.408 . S
C2949 C2948 1.404 . S
C2949 H2961 0.930 . S
C2950 C2946 1.524 . S
C2950 H2962 0.956 . S
C2950 H2963 0.961 . S
C2950 H2964 0.961 . S
C2951 C2948 1.539 . S
C2951 H2965 0.958 1_554 S
C2951 H2966 0.961 . S
C2951 H2967 0.960 . S
H2952 C2936 0.918 1_556 S
H2953 C2941 0.929 . S
H2954 C2942 0.960 . S
H2955 C2942 0.962 . S
H2956 C2942 0.960 . S
H2957 C2943 0.961 . S
H2958 C2943 0.961 . S
H2959 C2943 0.961 . S
H2960 C2944 0.931 . S
H2961 C2949 0.930 . S
H2962 C2950 0.956 . S
H2963 C2950 0.961 . S
H2964 C2950 0.961 . S
H2965 C2951 0.958 1_556 S
H2966 C2951 0.961 . S
H2967 C2951 0.960 . S
C2968 C2969 1.391 . S
C2968 C2970 1.394 . S
C2968 H2984 0.931 . S
C2969 C2968 1.391 . S
C2969 C2973 1.376 . S
C2970 C2968 1.394 . S
C2970 C2971 1.369 . S
C2970 C2974 1.531 . S
C2971 C2970 1.369 . S
C2971 C2972 1.410 . S
C2971 C2979 1.503 . S
C2972 C2971 1.410 . S
C2972 C2973 1.392 . S
C2972 C2975 1.511 . S
C2973 C2969 1.376 . S
C2973 C2972 1.392 . S
C2973 H2985 0.929 . S
C2974 C2970 1.531 . S
C2974 H2986 0.960 1_554 S
C2974 H2987 0.962 . S
C2974 H2988 0.960 1_554 S
C2975 C2972 1.511 . S
C2975 H2989 0.961 . S
C2975 H2990 0.961 . S
C2975 H2991 0.961 . S
C2976 C2977 1.370 . S
C2976 C2978 1.363 . S
C2976 H2992 0.931 . S
C2977 C2976 1.370 . S
C2977 C2981 1.408 . S
C2978 C2976 1.363 . S
C2978 C2979 1.370 . S
C2978 C2982 1.524 . S
C2979 C2971 1.503 . S
C2979 C2978 1.370 . S
C2979 C2980 1.403 . S
C2980 C2979 1.403 . S
C2980 C2981 1.404 . S
C2980 C2983 1.539 1_554 S
C2981 C2977 1.408 . S
C2981 C2980 1.404 . S
C2981 H2993 0.927 . S
C2982 C2978 1.524 . S
C2982 H2994 0.956 . S
C2982 H2995 0.961 . S
C2982 H2996 0.961 . S
C2983 C2980 1.539 1_556 S
C2983 H2997 0.958 . S
C2983 H2998 0.961 . S
C2983 H2999 0.960 . S
H2984 C2968 0.931 . S
H2985 C2973 0.929 . S
H2986 C2974 0.960 1_556 S
H2987 C2974 0.962 . S
H2988 C2974 0.960 1_556 S
H2989 C2975 0.961 . S
H2990 C2975 0.961 . S
H2991 C2975 0.961 . S
H2992 C2976 0.931 . S
H2993 C2981 0.927 . S
H2994 C2982 0.956 . S
H2995 C2982 0.961 . S
H2996 C2982 0.961 . S
H2997 C2983 0.958 . S
H2998 C2983 0.961 . S
H2999 C2983 0.960 . S
C3000 C3001 1.391 . S
C3000 C3002 1.394 . S
C3000 H3016 0.931 . S
C3001 C3000 1.391 . S
C3001 C3005 1.376 . S
C3002 C3000 1.394 . S
C3002 C3003 1.369 . S
C3002 C3006 1.531 . S
C3003 C3002 1.369 . S
C3003 C3004 1.410 . S
C3003 C3011 1.503 . S
C3004 C3003 1.410 . S
C3004 C3005 1.392 . S
C3004 C3007 1.511 . S
C3005 C3001 1.376 . S
C3005 C3004 1.392 . S
C3005 H3017 0.929 . S
C3006 C3002 1.531 . S
C3006 H3018 0.960 . S
C3006 H3019 0.962 . S
C3006 H3020 0.960 . S
C3007 C3004 1.511 . S
C3007 H3021 0.961 . S
C3007 H3022 0.961 . S
C3007 H3023 0.961 . S
C3008 C3009 1.370 . S
C3008 C3010 1.363 . S
C3008 H3024 0.931 . S
C3009 C3008 1.370 . S
C3009 C3013 1.408 . S
C3010 C3008 1.363 . S
C3010 C3011 1.370 . S
C3010 C3014 1.524 . S
C3011 C3003 1.503 . S
C3011 C3010 1.370 . S
C3011 C3012 1.403 . S
C3012 C3011 1.403 . S
C3012 C3013 1.404 . S
C3012 C3015 1.539 . S
C3013 C3009 1.408 . S
C3013 C3012 1.404 . S
C3013 H3025 0.930 . S
C3014 C3010 1.524 . S
C3014 H3026 0.956 . S
C3014 H3027 0.961 . S
C3014 H3028 0.961 . S
C3015 C3012 1.539 . S
C3015 H3029 0.958 . S
C3015 H3030 0.961 . S
C3015 H3031 0.960 . S
H3016 C3000 0.931 . S
H3017 C3005 0.929 . S
H3018 C3006 0.960 . S
H3019 C3006 0.962 . S
H3020 C3006 0.960 . S
H3021 C3007 0.961 . S
H3022 C3007 0.961 . S
H3023 C3007 0.961 . S
H3024 C3008 0.931 . S
H3025 C3013 0.930 . S
H3026 C3014 0.956 . S
H3027 C3014 0.961 . S
H3028 C3014 0.961 . S
H3029 C3015 0.958 . S
H3030 C3015 0.961 . S
H3031 C3015 0.960 . S
C3032 C3033 1.391 . S
C3032 C3034 1.394 . S
C3032 H3048 0.931 . S
C3033 C3032 1.391 . S
C3033 C3037 1.376 . S
C3034 C3032 1.394 . S
C3034 C3035 1.369 . S
C3034 C3038 1.531 . S
C3035 C3034 1.369 . S
C3035 C3036 1.410 . S
C3035 C3043 1.503 . S
C3036 C3035 1.410 . S
C3036 C3037 1.392 . S
C3036 C3039 1.511 . S
C3037 C3033 1.376 . S
C3037 C3036 1.392 . S
C3037 H3049 0.929 . S
C3038 C3034 1.531 . S
C3038 H3050 0.960 . S
C3038 H3051 0.962 . S
C3038 H3052 0.960 . S
C3039 C3036 1.511 . S
C3039 H3053 0.961 . S
C3039 H3054 0.961 . S
C3039 H3055 0.961 . S
C3040 C3041 1.370 . S
C3040 C3042 1.363 . S
C3040 H3056 0.931 . S
C3041 C3040 1.370 . S
C3041 C3045 1.408 . S
C3042 C3040 1.363 . S
C3042 C3043 1.370 . S
C3042 C3046 1.524 . S
C3043 C3035 1.503 . S
C3043 C3042 1.370 . S
C3043 C3044 1.403 . S
C3044 C3043 1.403 . S
C3044 C3045 1.404 . S
C3044 C3047 1.539 . S
C3045 C3041 1.408 . S
C3045 C3044 1.404 . S
C3045 H3057 0.930 . S
C3046 C3042 1.524 . S
C3046 H3058 0.956 . S
C3046 H3059 0.961 . S
C3046 H3060 0.961 . S
C3047 C3044 1.539 . S
C3047 H3061 0.958 . S
C3047 H3062 0.961 . S
C3047 H3063 0.960 . S
H3048 C3032 0.931 . S
H3049 C3037 0.929 . S
H3050 C3038 0.960 . S
H3051 C3038 0.962 . S
H3052 C3038 0.960 . S
H3053 C3039 0.961 . S
H3054 C3039 0.961 . S
H3055 C3039 0.961 . S
H3056 C3040 0.931 . S
H3057 C3045 0.930 . S
H3058 C3046 0.956 . S
H3059 C3046 0.961 . S
H3060 C3046 0.961 . S
H3061 C3047 0.958 . S
H3062 C3047 0.961 . S
H3063 C3047 0.960 . S
C3064 C3065 1.391 . S
C3064 C3066 1.394 . S
C3064 H3080 0.931 . S
C3065 C3064 1.391 . S
C3065 C3069 1.376 . S
C3066 C3064 1.394 . S
C3066 C3067 1.369 . S
C3066 C3070 1.531 . S
C3067 C3066 1.369 . S
C3067 C3068 1.410 . S
C3067 C3075 1.503 . S
C3068 C3067 1.410 . S
C3068 C3069 1.392 . S
C3068 C3071 1.511 . S
C3069 C3065 1.376 . S
C3069 C3068 1.392 . S
C3069 H3081 0.929 1_565 S
C3070 C3066 1.531 . S
C3070 H3082 0.960 . S
C3070 H3083 0.962 . S
C3070 H3084 0.960 . S
C3071 C3068 1.511 . S
C3071 H3085 0.961 . S
C3071 H3086 0.961 . S
C3071 H3087 0.961 . S
C3072 C3073 1.370 . S
C3072 C3074 1.363 . S
C3072 H3088 0.931 . S
C3073 C3072 1.370 . S
C3073 C3077 1.408 . S
C3074 C3072 1.363 . S
C3074 C3075 1.370 . S
C3074 C3078 1.524 . S
C3075 C3067 1.503 . S
C3075 C3074 1.370 . S
C3075 C3076 1.403 . S
C3076 C3075 1.403 . S
C3076 C3077 1.404 . S
C3076 C3079 1.539 . S
C3077 C3073 1.408 . S
C3077 C3076 1.404 . S
C3077 H3089 0.930 . S
C3078 C3074 1.524 . S
C3078 H3090 0.956 . S
C3078 H3091 0.961 . S
C3078 H3092 0.961 . S
C3079 C3076 1.539 . S
C3079 H3093 0.958 . S
C3079 H3094 0.961 . S
C3079 H3095 0.960 . S
H3080 C3064 0.931 . S
H3081 C3069 0.929 1_545 S
H3082 C3070 0.960 . S
H3083 C3070 0.962 . S
H3084 C3070 0.960 . S
H3085 C3071 0.961 . S
H3086 C3071 0.961 . S
H3087 C3071 0.961 . S
H3088 C3072 0.931 . S
H3089 C3077 0.930 . S
H3090 C3078 0.956 . S
H3091 C3078 0.961 . S
H3092 C3078 0.961 . S
H3093 C3079 0.958 . S
H3094 C3079 0.961 . S
H3095 C3079 0.960 . S
C3096 C3097 1.391 . S
C3096 C3098 1.394 . S
C3096 H3112 0.931 . S
C3097 C3096 1.391 . S
C3097 C3101 1.376 . S
C3098 C3096 1.394 . S
C3098 C3099 1.369 . S
C3098 C3102 1.531 . S
C3099 C3098 1.369 . S
C3099 C3100 1.410 . S
C3099 C3107 1.503 . S
C3100 C3099 1.410 . S
C3100 C3101 1.392 . S
C3100 C3103 1.511 . S
C3101 C3097 1.376 . S
C3101 C3100 1.392 . S
C3101 H3113 0.929 . S
C3102 C3098 1.531 . S
C3102 H3114 0.960 . S
C3102 H3115 0.962 . S
C3102 H3116 0.960 . S
C3103 C3100 1.511 . S
C3103 H3117 0.961 . S
C3103 H3118 0.961 . S
C3103 H3119 0.961 . S
C3104 C3105 1.370 . S
C3104 C3106 1.363 . S
C3104 H3120 0.931 . S
C3105 C3104 1.370 . S
C3105 C3109 1.408 . S
C3106 C3104 1.363 . S
C3106 C3107 1.370 . S
C3106 C3110 1.524 . S
C3107 C3099 1.503 . S
C3107 C3106 1.370 . S
C3107 C3108 1.403 . S
C3108 C3107 1.403 . S
C3108 C3109 1.404 . S
C3108 C3111 1.539 . S
C3109 C3105 1.408 . S
C3109 C3108 1.404 . S
C3109 H3121 0.930 . S
C3110 C3106 1.524 . S
C3110 H3122 0.956 . S
C3110 H3123 0.961 . S
C3110 H3124 0.961 . S
C3111 C3108 1.539 . S
C3111 H3125 0.958 . S
C3111 H3126 0.961 . S
C3111 H3127 0.960 . S
H3112 C3096 0.931 . S
H3113 C3101 0.929 . S
H3114 C3102 0.960 . S
H3115 C3102 0.962 . S
H3116 C3102 0.960 . S
H3117 C3103 0.961 . S
H3118 C3103 0.961 . S
H3119 C3103 0.961 . S
H3120 C3104 0.931 . S
H3121 C3109 0.930 . S
H3122 C3110 0.956 . S
H3123 C3110 0.961 . S
H3124 C3110 0.961 . S
H3125 C3111 0.958 . S
H3126 C3111 0.961 . S
H3127 C3111 0.960 . S
C3128 C3129 1.391 . S
C3128 C3130 1.394 . S
C3128 H3144 0.931 . S
C3129 C3128 1.391 . S
C3129 C3133 1.376 . S
C3130 C3128 1.394 . S
C3130 C3131 1.369 . S
C3130 C3134 1.531 . S
C3131 C3130 1.369 . S
C3131 C3132 1.410 . S
C3131 C3139 1.503 . S
C3132 C3131 1.410 . S
C3132 C3133 1.392 . S
C3132 C3135 1.511 . S
C3133 C3129 1.376 . S
C3133 C3132 1.392 . S
C3133 H3145 0.929 . S
C3134 C3130 1.531 . S
C3134 H3146 0.960 . S
C3134 H3147 0.962 . S
C3134 H3148 0.960 . S
C3135 C3132 1.511 . S
C3135 H3149 0.961 . S
C3135 H3150 0.961 . S
C3135 H3151 0.961 . S
C3136 C3137 1.370 . S
C3136 C3138 1.363 . S
C3136 H3152 0.931 . S
C3137 C3136 1.370 . S
C3137 C3141 1.408 . S
C3138 C3136 1.363 . S
C3138 C3139 1.370 . S
C3138 C3142 1.524 . S
C3139 C3131 1.503 . S
C3139 C3138 1.370 . S
C3139 C3140 1.403 . S
C3140 C3139 1.403 . S
C3140 C3141 1.404 . S
C3140 C3143 1.539 . S
C3141 C3137 1.408 . S
C3141 C3140 1.404 . S
C3141 H3153 0.930 . S
C3142 C3138 1.524 . S
C3142 H3154 0.956 . S
C3142 H3155 0.961 . S
C3142 H3156 0.961 . S
C3143 C3140 1.539 . S
C3143 H3157 0.958 . S
C3143 H3158 0.961 . S
C3143 H3159 0.960 . S
H3144 C3128 0.931 . S
H3145 C3133 0.929 . S
H3146 C3134 0.960 . S
H3147 C3134 0.962 . S
H3148 C3134 0.960 . S
H3149 C3135 0.961 . S
H3150 C3135 0.961 . S
H3151 C3135 0.961 . S
H3152 C3136 0.931 . S
H3153 C3141 0.930 . S
H3154 C3142 0.956 . S
H3155 C3142 0.961 . S
H3156 C3142 0.961 . S
H3157 C3143 0.958 . S
H3158 C3143 0.961 . S
H3159 C3143 0.960 . S
C3160 C3161 1.391 . S
C3160 C3162 1.394 . S
C3160 H3176 0.931 . S
C3161 C3160 1.391 . S
C3161 C3165 1.376 . S
C3162 C3160 1.394 . S
C3162 C3163 1.369 . S
C3162 C3166 1.531 . S
C3163 C3162 1.369 . S
C3163 C3164 1.410 . S
C3163 C3171 1.503 . S
C3164 C3163 1.410 . S
C3164 C3165 1.392 . S
C3164 C3167 1.511 . S
C3165 C3161 1.376 . S
C3165 C3164 1.392 . S
C3165 H3177 0.929 . S
C3166 C3162 1.531 . S
C3166 H3178 0.960 . S
C3166 H3179 0.962 . S
C3166 H3180 0.960 . S
C3167 C3164 1.511 . S
C3167 H3181 0.961 . S
C3167 H3182 0.961 . S
C3167 H3183 0.961 . S
C3168 C3169 1.370 . S
C3168 C3170 1.363 . S
C3168 H3184 0.931 . S
C3169 C3168 1.370 . S
C3169 C3173 1.408 . S
C3170 C3168 1.363 . S
C3170 C3171 1.370 . S
C3170 C3174 1.524 . S
C3171 C3163 1.503 . S
C3171 C3170 1.370 . S
C3171 C3172 1.403 . S
C3172 C3171 1.403 . S
C3172 C3173 1.404 . S
C3172 C3175 1.539 . S
C3173 C3169 1.408 . S
C3173 C3172 1.404 . S
C3173 H3185 0.930 . S
C3174 C3170 1.524 . S
C3174 H3186 0.956 . S
C3174 H3187 0.961 . S
C3174 H3188 0.961 . S
C3175 C3172 1.539 . S
C3175 H3189 0.958 . S
C3175 H3190 0.961 . S
C3175 H3191 0.960 . S
H3176 C3160 0.931 . S
H3177 C3165 0.929 . S
H3178 C3166 0.960 . S
H3179 C3166 0.962 . S
H3180 C3166 0.960 . S
H3181 C3167 0.961 . S
H3182 C3167 0.961 . S
H3183 C3167 0.961 . S
H3184 C3168 0.931 . S
H3185 C3173 0.930 . S
H3186 C3174 0.956 . S
H3187 C3174 0.961 . S
H3188 C3174 0.961 . S
H3189 C3175 0.958 . S
H3190 C3175 0.961 . S
H3191 C3175 0.960 . S
C3192 C3193 1.391 . S
C3192 C3194 1.394 . S
C3192 H3208 0.931 . S
C3193 C3192 1.391 . S
C3193 C3197 1.376 . S
C3194 C3192 1.394 . S
C3194 C3195 1.369 . S
C3194 C3198 1.531 . S
C3195 C3194 1.369 . S
C3195 C3196 1.410 . S
C3195 C3203 1.503 . S
C3196 C3195 1.410 . S
C3196 C3197 1.392 . S
C3196 C3199 1.511 . S
C3197 C3193 1.376 . S
C3197 C3196 1.392 . S
C3197 H3209 0.929 . S
C3198 C3194 1.531 . S
C3198 H3210 0.960 . S
C3198 H3211 0.962 . S
C3198 H3212 0.960 . S
C3199 C3196 1.511 . S
C3199 H3213 0.961 . S
C3199 H3214 0.961 . S
C3199 H3215 0.961 . S
C3200 C3201 1.370 . S
C3200 C3202 1.363 . S
C3200 H3216 0.931 . S
C3201 C3200 1.370 . S
C3201 C3205 1.408 . S
C3202 C3200 1.363 . S
C3202 C3203 1.370 . S
C3202 C3206 1.524 . S
C3203 C3195 1.503 . S
C3203 C3202 1.370 . S
C3203 C3204 1.403 . S
C3204 C3203 1.403 . S
C3204 C3205 1.404 . S
C3204 C3207 1.539 . S
C3205 C3201 1.408 . S
C3205 C3204 1.404 . S
C3205 H3217 0.930 . S
C3206 C3202 1.524 . S
C3206 H3218 0.956 . S
C3206 H3219 0.961 . S
C3206 H3220 0.961 . S
C3207 C3204 1.539 . S
C3207 H3221 0.958 . S
C3207 H3222 0.961 . S
C3207 H3223 0.960 . S
H3208 C3192 0.931 . S
H3209 C3197 0.929 . S
H3210 C3198 0.960 . S
H3211 C3198 0.962 . S
H3212 C3198 0.960 . S
H3213 C3199 0.961 . S
H3214 C3199 0.961 . S
H3215 C3199 0.961 . S
H3216 C3200 0.931 . S
H3217 C3205 0.930 . S
H3218 C3206 0.956 . S
H3219 C3206 0.961 . S
H3220 C3206 0.961 . S
H3221 C3207 0.958 . S
H3222 C3207 0.961 . S
H3223 C3207 0.960 . S
C3224 C3225 1.391 . S
C3224 C3226 1.394 . S
C3224 H3240 0.931 . S
C3225 C3224 1.391 . S
C3225 C3229 1.376 . S
C3226 C3224 1.394 . S
C3226 C3227 1.369 . S
C3226 C3230 1.531 . S
C3227 C3226 1.369 . S
C3227 C3228 1.410 . S
C3227 C3235 1.503 . S
C3228 C3227 1.410 . S
C3228 C3229 1.392 . S
C3228 C3231 1.511 . S
C3229 C3225 1.376 . S
C3229 C3228 1.392 . S
C3229 H3241 0.929 . S
C3230 C3226 1.531 . S
C3230 H3242 0.960 . S
C3230 H3243 0.962 . S
C3230 H3244 0.960 . S
C3231 C3228 1.511 . S
C3231 H3245 0.961 . S
C3231 H3246 0.961 . S
C3231 H3247 0.961 . S
C3232 C3233 1.370 . S
C3232 C3234 1.363 . S
C3232 H3248 0.931 . S
C3233 C3232 1.370 . S
C3233 C3237 1.408 . S
C3234 C3232 1.363 . S
C3234 C3235 1.370 . S
C3234 C3238 1.524 . S
C3235 C3227 1.503 . S
C3235 C3234 1.370 . S
C3235 C3236 1.403 . S
C3236 C3235 1.403 . S
C3236 C3237 1.404 . S
C3236 C3239 1.539 . S
C3237 C3233 1.408 . S
C3237 C3236 1.404 . S
C3237 H3249 0.930 . S
C3238 C3234 1.524 . S
C3238 H3250 0.956 . S
C3238 H3251 0.961 . S
C3238 H3252 0.961 . S
C3239 C3236 1.539 . S
C3239 H3253 0.958 . S
C3239 H3254 0.961 . S
C3239 H3255 0.960 . S
H3240 C3224 0.931 . S
H3241 C3229 0.929 . S
H3242 C3230 0.960 . S
H3243 C3230 0.962 . S
H3244 C3230 0.960 . S
H3245 C3231 0.961 . S
H3246 C3231 0.961 . S
H3247 C3231 0.961 . S
H3248 C3232 0.931 . S
H3249 C3237 0.930 . S
H3250 C3238 0.956 . S
H3251 C3238 0.961 . S
H3252 C3238 0.961 . S
H3253 C3239 0.958 . S
H3254 C3239 0.961 . S
H3255 C3239 0.960 . S
C3256 C3257 1.391 . S
C3256 C3258 1.394 . S
C3256 H3272 0.931 . S
C3257 C3256 1.391 . S
C3257 C3261 1.376 . S
C3258 C3256 1.394 . S
C3258 C3259 1.369 . S
C3258 C3262 1.531 . S
C3259 C3258 1.369 . S
C3259 C3260 1.410 . S
C3259 C3267 1.508 . S
C3260 C3259 1.410 . S
C3260 C3261 1.392 . S
C3260 C3263 1.511 1_456 S
C3261 C3257 1.376 . S
C3261 C3260 1.392 . S
C3261 H3273 0.929 1_455 S
C3262 C3258 1.531 . S
C3262 H3274 0.960 . S
C3262 H3275 0.962 . S
C3262 H3276 0.960 . S
C3263 C3260 1.511 1_654 S
C3263 H3277 0.961 . S
C3263 H3278 0.961 1_655 S
C3263 H3279 0.961 . S
C3264 C3265 1.370 . S
C3264 C3266 1.363 . S
C3264 H3280 0.931 . S
C3265 C3264 1.370 . S
C3265 C3269 1.408 . S
C3266 C3264 1.363 . S
C3266 C3267 1.357 1_554 S
C3266 C3270 1.524 . S
C3267 C3259 1.508 . S
C3267 C3266 1.357 1_556 S
C3267 C3268 1.412 . S
C3268 C3267 1.412 . S
C3268 C3269 1.404 1_556 S
C3268 C3271 1.539 . S
C3269 C3265 1.408 . S
C3269 C3268 1.404 1_554 S
C3269 H3281 0.930 1_554 S
C3270 C3266 1.524 . S
C3270 H3282 0.956 . S
C3270 H3283 0.961 . S
C3270 H3284 0.961 . S
C3271 C3268 1.539 . S
C3271 H3285 0.958 . S
C3271 H3286 0.961 1_455 S
C3271 H3287 0.960 1_455 S
H3272 C3256 0.931 . S
H3273 C3261 0.929 1_655 S
H3274 C3262 0.960 . S
H3275 C3262 0.962 . S
H3276 C3262 0.960 . S
H3277 C3263 0.961 . S
H3278 C3263 0.961 1_455 S
H3279 C3263 0.961 . S
H3280 C3264 0.931 . S
H3281 C3269 0.930 1_556 S
H3282 C3270 0.956 . S
H3283 C3270 0.961 . S
H3284 C3270 0.961 . S
H3285 C3271 0.958 . S
H3286 C3271 0.961 1_655 S
H3287 C3271 0.960 1_655 S
C3288 C3289 1.391 . S
C3288 C3290 1.394 . S
C3288 H3304 0.931 . S
C3289 C3288 1.391 . S
C3289 C3293 1.376 . S
C3290 C3288 1.394 . S
C3290 C3291 1.369 1_455 S
C3290 C3294 1.531 . S
C3291 C3290 1.369 1_655 S
C3291 C3292 1.410 . S
C3291 C3299 1.503 . S
C3292 C3291 1.410 . S
C3292 C3293 1.392 1_655 S
C3292 C3295 1.511 . S
C3293 C3289 1.376 . S
C3293 C3292 1.392 1_455 S
C3293 H3305 0.929 . S
C3294 C3290 1.531 . S
C3294 H3306 0.960 . S
C3294 H3307 0.962 . S
C3294 H3308 0.960 . S
C3295 C3292 1.511 . S
C3295 H3309 0.961 . S
C3295 H3310 0.961 . S
C3295 H3311 0.961 . S
C3296 C3297 1.370 . S
C3296 C3298 1.363 . S
C3296 H3312 0.931 . S
C3297 C3296 1.370 . S
C3297 C3301 1.408 . S
C3298 C3296 1.363 . S
C3298 C3299 1.370 . S
C3298 C3302 1.524 . S
C3299 C3291 1.503 . S
C3299 C3298 1.370 . S
C3299 C3300 1.403 . S
C3300 C3299 1.403 . S
C3300 C3301 1.404 . S
C3300 C3303 1.539 . S
C3301 C3297 1.408 . S
C3301 C3300 1.404 . S
C3301 H3313 0.930 . S
C3302 C3298 1.524 . S
C3302 H3314 0.956 . S
C3302 H3315 0.961 . S
C3302 H3316 0.961 . S
C3303 C3300 1.539 . S
C3303 H3317 0.958 . S
C3303 H3318 0.961 . S
C3303 H3319 0.960 . S
H3304 C3288 0.931 . S
H3305 C3293 0.929 . S
H3306 C3294 0.960 . S
H3307 C3294 0.962 . S
H3308 C3294 0.960 . S
H3309 C3295 0.961 . S
H3310 C3295 0.961 . S
H3311 C3295 0.961 . S
H3312 C3296 0.931 . S
H3313 C3301 0.930 . S
H3314 C3302 0.956 . S
H3315 C3302 0.961 . S
H3316 C3302 0.961 . S
H3317 C3303 0.958 . S
H3318 C3303 0.961 . S
H3319 C3303 0.960 . S
C3320 C3321 1.391 . S
C3320 C3322 1.394 . S
C3320 H3336 0.931 . S
C3321 C3320 1.391 . S
C3321 C3325 1.376 . S
C3322 C3320 1.394 . S
C3322 C3323 1.369 . S
C3322 C3326 1.531 . S
C3323 C3322 1.369 . S
C3323 C3324 1.410 . S
C3323 C3331 1.503 . S
C3324 C3323 1.410 . S
C3324 C3325 1.392 . S
C3324 C3327 1.511 . S
C3325 C3321 1.376 . S
C3325 C3324 1.392 . S
C3325 H3337 0.929 . S
C3326 C3322 1.531 . S
C3326 H3338 0.960 . S
C3326 H3339 0.962 . S
C3326 H3340 0.960 . S
C3327 C3324 1.511 . S
C3327 H3341 0.961 . S
C3327 H3342 0.961 . S
C3327 H3343 0.961 . S
C3328 C3329 1.370 . S
C3328 C3330 1.363 . S
C3328 H3344 0.931 . S
C3329 C3328 1.370 . S
C3329 C3333 1.408 . S
C3330 C3328 1.363 . S
C3330 C3331 1.370 . S
C3330 C3334 1.524 . S
C3331 C3323 1.503 . S
C3331 C3330 1.370 . S
C3331 C3332 1.403 . S
C3332 C3331 1.403 . S
C3332 C3333 1.404 . S
C3332 C3335 1.539 . S
C3333 C3329 1.408 . S
C3333 C3332 1.404 . S
C3333 H3345 0.930 . S
C3334 C3330 1.524 . S
C3334 H3346 0.956 . S
C3334 H3347 0.961 . S
C3334 H3348 0.961 . S
C3335 C3332 1.539 . S
C3335 H3349 0.958 . S
C3335 H3350 0.961 . S
C3335 H3351 0.960 . S
H3336 C3320 0.931 . S
H3337 C3325 0.929 . S
H3338 C3326 0.960 . S
H3339 C3326 0.962 . S
H3340 C3326 0.960 . S
H3341 C3327 0.961 . S
H3342 C3327 0.961 . S
H3343 C3327 0.961 . S
H3344 C3328 0.931 . S
H3345 C3333 0.930 . S
H3346 C3334 0.956 . S
H3347 C3334 0.961 . S
H3348 C3334 0.961 . S
H3349 C3335 0.958 . S
H3350 C3335 0.961 . S
H3351 C3335 0.960 . S
C3352 C3353 1.391 . S
C3352 C3354 1.394 . S
C3352 H3368 0.931 . S
C3353 C3352 1.391 . S
C3353 C3357 1.376 . S
C3354 C3352 1.394 . S
C3354 C3355 1.369 . S
C3354 C3358 1.531 . S
C3355 C3354 1.369 . S
C3355 C3356 1.410 . S
C3355 C3363 1.503 1_455 S
C3356 C3355 1.410 . S
C3356 C3357 1.392 . S
C3356 C3359 1.511 . S
C3357 C3353 1.376 . S
C3357 C3356 1.392 . S
C3357 H3369 0.929 . S
C3358 C3354 1.531 . S
C3358 H3370 0.960 1_455 S
C3358 H3371 0.962 1_455 S
C3358 H3372 0.960 . S
C3359 C3356 1.511 . S
C3359 H3373 0.961 . S
C3359 H3374 0.961 . S
C3359 H3375 0.961 . S
C3360 C3361 1.370 . S
C3360 C3362 1.363 . S
C3360 H3376 0.931 . S
C3361 C3360 1.370 . S
C3361 C3365 1.408 . S
C3362 C3360 1.363 . S
C3362 C3363 1.370 . S
C3362 C3366 1.524 . S
C3363 C3355 1.503 1_655 S
C3363 C3362 1.370 . S
C3363 C3364 1.403 . S
C3364 C3363 1.403 . S
C3364 C3365 1.404 . S
C3364 C3367 1.539 1_655 S
C3365 C3361 1.408 . S
C3365 C3364 1.404 . S
C3365 H3377 0.930 . S
C3366 C3362 1.524 . S
C3366 H3378 0.956 . S
C3366 H3379 0.961 . S
C3366 H3380 0.961 . S
C3367 C3364 1.539 1_455 S
C3367 H3381 0.958 . S
C3367 H3382 0.961 . S
C3367 H3383 0.960 . S
H3368 C3352 0.931 . S
H3369 C3357 0.929 . S
H3370 C3358 0.960 1_655 S
H3371 C3358 0.962 1_655 S
H3372 C3358 0.960 . S
H3373 C3359 0.961 . S
H3374 C3359 0.961 . S
H3375 C3359 0.961 . S
H3376 C3360 0.931 . S
H3377 C3365 0.930 . S
H3378 C3366 0.956 . S
H3379 C3366 0.961 . S
H3380 C3366 0.961 . S
H3381 C3367 0.958 . S
H3382 C3367 0.961 . S
H3383 C3367 0.960 . S
C3384 C3385 1.391 . S
C3384 C3386 1.394 . S
C3384 H3400 0.931 . S
C3385 C3384 1.391 . S
C3385 C3389 1.376 1_655 S
C3386 C3384 1.394 . S
C3386 C3387 1.369 . S
C3386 C3390 1.531 . S
C3387 C3386 1.369 . S
C3387 C3388 1.410 1_655 S
C3387 C3395 1.503 1_655 S
C3388 C3387 1.410 1_455 S
C3388 C3389 1.392 . S
C3388 C3391 1.511 . S
C3389 C3385 1.376 1_455 S
C3389 C3388 1.392 . S
C3389 H3401 0.929 . S
C3390 C3386 1.531 . S
C3390 H3402 0.960 . S
C3390 H3403 0.962 . S
C3390 H3404 0.960 . S
C3391 C3388 1.511 . S
C3391 H3405 0.961 . S
C3391 H3406 0.961 . S
C3391 H3407 0.961 . S
C3392 C3393 1.370 . S
C3392 C3394 1.363 . S
C3392 H3408 0.931 . S
C3393 C3392 1.370 . S
C3393 C3397 1.408 . S
C3394 C3392 1.363 . S
C3394 C3395 1.370 . S
C3394 C3398 1.524 . S
C3395 C3387 1.503 1_455 S
C3395 C3394 1.370 . S
C3395 C3396 1.405 . S
C3396 C3395 1.405 . S
C3396 C3397 1.410 . S
C3396 C3399 1.531 1_455 S
C3397 C3393 1.408 . S
C3397 C3396 1.410 . S
C3397 H3409 0.930 . S
C3398 C3394 1.524 . S
C3398 H3410 0.956 . S
C3398 H3411 0.961 . S
C3398 H3412 0.961 . S
C3399 C3396 1.531 1_655 S
C3399 H3413 0.958 . S
C3399 H3414 0.961 . S
C3399 H3415 0.960 . S
H3400 C3384 0.931 . S
H3401 C3389 0.929 . S
H3402 C3390 0.960 . S
H3403 C3390 0.962 . S
H3404 C3390 0.960 . S
H3405 C3391 0.961 . S
H3406 C3391 0.961 . S
H3407 C3391 0.961 . S
H3408 C3392 0.931 . S
H3409 C3397 0.930 . S
H3410 C3398 0.956 . S
H3411 C3398 0.961 . S
H3412 C3398 0.961 . S
H3413 C3399 0.958 . S
H3414 C3399 0.961 . S
H3415 C3399 0.960 . S
C3416 C3417 1.391 . S
C3416 C3418 1.394 . S
C3416 H3432 0.931 . S
C3417 C3416 1.391 . S
C3417 C3421 1.376 . S
C3418 C3416 1.394 . S
C3418 C3419 1.369 . S
C3418 C3422 1.531 . S
C3419 C3418 1.369 . S
C3419 C3420 1.410 . S
C3419 C3427 1.503 . S
C3420 C3419 1.410 . S
C3420 C3421 1.392 . S
C3420 C3423 1.511 . S
C3421 C3417 1.376 . S
C3421 C3420 1.392 . S
C3421 H3433 0.929 . S
C3422 C3418 1.531 . S
C3422 H3434 0.960 . S
C3422 H3435 0.962 . S
C3422 H3436 0.960 . S
C3423 C3420 1.511 . S
C3423 H3437 0.961 . S
C3423 H3438 0.961 . S
C3423 H3439 0.961 . S
C3424 C3425 1.370 . S
C3424 C3426 1.363 . S
C3424 H3440 0.931 . S
C3425 C3424 1.370 . S
C3425 C3429 1.408 . S
C3426 C3424 1.363 . S
C3426 C3427 1.370 . S
C3426 C3430 1.524 . S
C3427 C3419 1.503 . S
C3427 C3426 1.370 . S
C3427 C3428 1.403 . S
C3428 C3427 1.403 . S
C3428 C3429 1.404 . S
C3428 C3431 1.539 . S
C3429 C3425 1.408 . S
C3429 C3428 1.404 . S
C3429 H3441 0.930 . S
C3430 C3426 1.524 . S
C3430 H3442 0.956 . S
C3430 H3443 0.961 . S
C3430 H3444 0.961 . S
C3431 C3428 1.539 . S
C3431 H3445 0.958 . S
C3431 H3446 0.961 . S
C3431 H3447 0.960 . S
H3432 C3416 0.931 . S
H3433 C3421 0.929 . S
H3434 C3422 0.960 . S
H3435 C3422 0.962 . S
H3436 C3422 0.960 . S
H3437 C3423 0.961 . S
H3438 C3423 0.961 . S
H3439 C3423 0.961 . S
H3440 C3424 0.931 . S
H3441 C3429 0.930 . S
H3442 C3430 0.956 . S
H3443 C3430 0.961 . S
H3444 C3430 0.961 . S
H3445 C3431 0.958 . S
H3446 C3431 0.961 . S
H3447 C3431 0.960 . S
C3448 C3449 1.391 . S
C3448 C3450 1.394 . S
C3448 H3464 0.931 . S
C3449 C3448 1.391 . S
C3449 C3453 1.376 . S
C3450 C3448 1.394 . S
C3450 C3451 1.369 . S
C3450 C3454 1.531 . S
C3451 C3450 1.369 . S
C3451 C3452 1.410 . S
C3451 C3459 1.503 . S
C3452 C3451 1.410 . S
C3452 C3453 1.392 . S
C3452 C3455 1.511 . S
C3453 C3449 1.376 . S
C3453 C3452 1.392 . S
C3453 H3465 0.929 . S
C3454 C3450 1.531 . S
C3454 H3466 0.960 . S
C3454 H3467 0.962 . S
C3454 H3468 0.960 . S
C3455 C3452 1.511 . S
C3455 H3469 0.961 . S
C3455 H3470 0.961 . S
C3455 H3471 0.961 . S
C3456 C3457 1.370 . S
C3456 C3458 1.363 . S
C3456 H3472 0.931 . S
C3457 C3456 1.370 . S
C3457 C3461 1.408 . S
C3458 C3456 1.363 . S
C3458 C3459 1.370 . S
C3458 C3462 1.524 . S
C3459 C3451 1.503 . S
C3459 C3458 1.370 . S
C3459 C3460 1.403 . S
C3460 C3459 1.403 . S
C3460 C3461 1.404 . S
C3460 C3463 1.539 . S
C3461 C3457 1.408 . S
C3461 C3460 1.404 . S
C3461 H3473 0.930 . S
C3462 C3458 1.524 . S
C3462 H3474 0.956 . S
C3462 H3475 0.961 . S
C3462 H3476 0.961 . S
C3463 C3460 1.539 . S
C3463 H3477 0.958 . S
C3463 H3478 0.961 . S
C3463 H3479 0.960 . S
H3464 C3448 0.931 . S
H3465 C3453 0.929 . S
H3466 C3454 0.960 . S
H3467 C3454 0.962 . S
H3468 C3454 0.960 . S
H3469 C3455 0.961 . S
H3470 C3455 0.961 . S
H3471 C3455 0.961 . S
H3472 C3456 0.931 . S
H3473 C3461 0.930 . S
H3474 C3462 0.956 . S
H3475 C3462 0.961 . S
H3476 C3462 0.961 . S
H3477 C3463 0.958 . S
H3478 C3463 0.961 . S
H3479 C3463 0.960 . S
C3480 C3481 1.391 . S
C3480 C3482 1.394 . S
C3480 H3496 0.931 . S
C3481 C3480 1.391 . S
C3481 C3485 1.376 . S
C3482 C3480 1.394 . S
C3482 C3483 1.369 . S
C3482 C3486 1.531 . S
C3483 C3482 1.369 . S
C3483 C3484 1.410 . S
C3483 C3491 1.503 . S
C3484 C3483 1.410 . S
C3484 C3485 1.392 . S
C3484 C3487 1.511 . S
C3485 C3481 1.376 . S
C3485 C3484 1.392 . S
C3485 H3497 0.929 . S
C3486 C3482 1.531 . S
C3486 H3498 0.960 . S
C3486 H3499 0.962 . S
C3486 H3500 0.960 . S
C3487 C3484 1.511 . S
C3487 H3501 0.961 . S
C3487 H3502 0.961 . S
C3487 H3503 0.961 . S
C3488 C3489 1.370 . S
C3488 C3490 1.363 . S
C3488 H3504 0.931 . S
C3489 C3488 1.370 . S
C3489 C3493 1.408 . S
C3490 C3488 1.363 . S
C3490 C3491 1.370 . S
C3490 C3494 1.524 . S
C3491 C3483 1.503 . S
C3491 C3490 1.370 . S
C3491 C3492 1.403 . S
C3492 C3491 1.403 . S
C3492 C3493 1.404 . S
C3492 C3495 1.539 . S
C3493 C3489 1.408 . S
C3493 C3492 1.404 . S
C3493 H3505 0.930 . S
C3494 C3490 1.524 . S
C3494 H3506 0.956 . S
C3494 H3507 0.961 . S
C3494 H3508 0.961 . S
C3495 C3492 1.539 . S
C3495 H3509 0.958 . S
C3495 H3510 0.961 . S
C3495 H3511 0.960 . S
H3496 C3480 0.931 . S
H3497 C3485 0.929 . S
H3498 C3486 0.960 . S
H3499 C3486 0.962 . S
H3500 C3486 0.960 . S
H3501 C3487 0.961 . S
H3502 C3487 0.961 . S
H3503 C3487 0.961 . S
H3504 C3488 0.931 . S
H3505 C3493 0.930 . S
H3506 C3494 0.956 . S
H3507 C3494 0.961 . S
H3508 C3494 0.961 . S
H3509 C3495 0.958 . S
H3510 C3495 0.961 . S
H3511 C3495 0.960 . S
C3512 C3513 1.391 . S
C3512 C3514 1.394 . S
C3512 H3528 0.931 . S
C3513 C3512 1.391 . S
C3513 C3517 1.376 . S
C3514 C3512 1.394 . S
C3514 C3515 1.369 . S
C3514 C3518 1.531 . S
C3515 C3514 1.369 . S
C3515 C3516 1.410 . S
C3515 C3523 1.503 . S
C3516 C3515 1.410 . S
C3516 C3517 1.392 . S
C3516 C3519 1.511 . S
C3517 C3513 1.376 . S
C3517 C3516 1.392 . S
C3517 H3529 0.929 . S
C3518 C3514 1.531 . S
C3518 H3530 0.960 . S
C3518 H3531 0.962 . S
C3518 H3532 0.960 . S
C3519 C3516 1.511 . S
C3519 H3533 0.961 . S
C3519 H3534 0.961 . S
C3519 H3535 0.961 . S
C3520 C3521 1.370 . S
C3520 C3522 1.363 . S
C3520 H3536 0.931 . S
C3521 C3520 1.370 . S
C3521 C3525 1.408 . S
C3522 C3520 1.363 . S
C3522 C3523 1.370 . S
C3522 C3526 1.524 . S
C3523 C3515 1.503 . S
C3523 C3522 1.370 . S
C3523 C3524 1.403 . S
C3524 C3523 1.403 . S
C3524 C3525 1.404 . S
C3524 C3527 1.539 . S
C3525 C3521 1.408 . S
C3525 C3524 1.404 . S
C3525 H3537 0.930 . S
C3526 C3522 1.524 . S
C3526 H3538 0.956 . S
C3526 H3539 0.961 . S
C3526 H3540 0.961 . S
C3527 C3524 1.539 . S
C3527 H3541 0.958 . S
C3527 H3542 0.961 . S
C3527 H3543 0.960 . S
H3528 C3512 0.931 . S
H3529 C3517 0.929 . S
H3530 C3518 0.960 . S
H3531 C3518 0.962 . S
H3532 C3518 0.960 . S
H3533 C3519 0.961 . S
H3534 C3519 0.961 . S
H3535 C3519 0.961 . S
H3536 C3520 0.931 . S
H3537 C3525 0.930 . S
H3538 C3526 0.956 . S
H3539 C3526 0.961 . S
H3540 C3526 0.961 . S
H3541 C3527 0.958 . S
H3542 C3527 0.961 . S
H3543 C3527 0.960 . S
C3544 C3545 1.391 . S
C3544 C3546 1.394 . S
C3544 H3560 0.931 . S
C3545 C3544 1.391 . S
C3545 C3549 1.376 . S
C3546 C3544 1.394 . S
C3546 C3547 1.369 . S
C3546 C3550 1.531 . S
C3547 C3546 1.369 . S
C3547 C3548 1.410 . S
C3547 C3555 1.503 . S
C3548 C3547 1.410 . S
C3548 C3549 1.392 . S
C3548 C3551 1.511 . S
C3549 C3545 1.376 . S
C3549 C3548 1.392 . S
C3549 H3561 0.929 . S
C3550 C3546 1.531 . S
C3550 H3562 0.960 . S
C3550 H3563 0.962 . S
C3550 H3564 0.960 . S
C3551 C3548 1.511 . S
C3551 H3565 0.961 . S
C3551 H3566 0.961 . S
C3551 H3567 0.961 . S
C3552 C3553 1.370 . S
C3552 C3554 1.363 . S
C3552 H3568 0.931 . S
C3553 C3552 1.370 . S
C3553 C3557 1.408 . S
C3554 C3552 1.363 . S
C3554 C3555 1.370 . S
C3554 C3558 1.524 . S
C3555 C3547 1.503 . S
C3555 C3554 1.370 . S
C3555 C3556 1.403 . S
C3556 C3555 1.403 . S
C3556 C3557 1.404 . S
C3556 C3559 1.539 . S
C3557 C3553 1.408 . S
C3557 C3556 1.404 . S
C3557 H3569 0.930 . S
C3558 C3554 1.524 . S
C3558 H3570 0.956 . S
C3558 H3571 0.961 . S
C3558 H3572 0.961 . S
C3559 C3556 1.539 . S
C3559 H3573 0.958 . S
C3559 H3574 0.961 . S
C3559 H3575 0.960 . S
H3560 C3544 0.931 . S
H3561 C3549 0.929 . S
H3562 C3550 0.960 . S
H3563 C3550 0.962 . S
H3564 C3550 0.960 . S
H3565 C3551 0.961 . S
H3566 C3551 0.961 . S
H3567 C3551 0.961 . S
H3568 C3552 0.931 . S
H3569 C3557 0.930 . S
H3570 C3558 0.956 . S
H3571 C3558 0.961 . S
H3572 C3558 0.961 . S
H3573 C3559 0.958 . S
H3574 C3559 0.961 . S
H3575 C3559 0.960 . S
C3576 C3577 1.391 . S
C3576 C3578 1.394 . S
C3576 H3592 0.931 . S
C3577 C3576 1.391 . S
C3577 C3581 1.376 . S
C3578 C3576 1.394 . S
C3578 C3579 1.369 . S
C3578 C3582 1.531 . S
C3579 C3578 1.369 . S
C3579 C3580 1.410 . S
C3579 C3587 1.503 . S
C3580 C3579 1.410 . S
C3580 C3581 1.392 . S
C3580 C3583 1.511 . S
C3581 C3577 1.376 . S
C3581 C3580 1.392 . S
C3581 H3593 0.929 . S
C3582 C3578 1.531 . S
C3582 H3594 0.960 . S
C3582 H3595 0.962 . S
C3582 H3596 0.960 . S
C3583 C3580 1.511 . S
C3583 H3597 0.961 . S
C3583 H3598 0.961 . S
C3583 H3599 0.961 . S
C3584 C3585 1.370 . S
C3584 C3586 1.363 . S
C3584 H3600 0.931 . S
C3585 C3584 1.370 . S
C3585 C3589 1.408 . S
C3586 C3584 1.363 . S
C3586 C3587 1.370 . S
C3586 C3590 1.524 . S
C3587 C3579 1.503 . S
C3587 C3586 1.370 . S
C3587 C3588 1.403 . S
C3588 C3587 1.403 . S
C3588 C3589 1.404 . S
C3588 C3591 1.539 . S
C3589 C3585 1.408 . S
C3589 C3588 1.404 . S
C3589 H3601 0.930 . S
C3590 C3586 1.524 . S
C3590 H3602 0.956 . S
C3590 H3603 0.961 . S
C3590 H3604 0.961 . S
C3591 C3588 1.539 . S
C3591 H3605 0.958 . S
C3591 H3606 0.961 . S
C3591 H3607 0.960 . S
H3592 C3576 0.931 . S
H3593 C3581 0.929 . S
H3594 C3582 0.960 . S
H3595 C3582 0.962 . S
H3596 C3582 0.960 . S
H3597 C3583 0.961 . S
H3598 C3583 0.961 . S
H3599 C3583 0.961 . S
H3600 C3584 0.931 . S
H3601 C3589 0.930 . S
H3602 C3590 0.956 . S
H3603 C3590 0.961 . S
H3604 C3590 0.961 . S
H3605 C3591 0.958 . S
H3606 C3591 0.961 . S
H3607 C3591 0.960 . S
C3608 C3609 1.391 . S
C3608 C3610 1.394 . S
C3608 H3624 0.931 . S
C3609 C3608 1.391 . S
C3609 C3613 1.376 . S
C3610 C3608 1.394 . S
C3610 C3611 1.369 . S
C3610 C3614 1.531 . S
C3611 C3610 1.369 . S
C3611 C3612 1.410 . S
C3611 C3619 1.503 . S
C3612 C3611 1.410 . S
C3612 C3613 1.392 . S
C3612 C3615 1.511 . S
C3613 C3609 1.376 . S
C3613 C3612 1.392 . S
C3613 H3625 0.929 . S
C3614 C3610 1.531 . S
C3614 H3626 0.960 . S
C3614 H3627 0.962 . S
C3614 H3628 0.960 . S
C3615 C3612 1.511 . S
C3615 H3629 0.961 . S
C3615 H3630 0.961 . S
C3615 H3631 0.961 . S
C3616 C3617 1.370 . S
C3616 C3618 1.363 . S
C3616 H3632 0.931 . S
C3617 C3616 1.370 . S
C3617 C3621 1.408 . S
C3618 C3616 1.363 . S
C3618 C3619 1.370 . S
C3618 C3622 1.524 . S
C3619 C3611 1.503 . S
C3619 C3618 1.370 . S
C3619 C3620 1.403 . S
C3620 C3619 1.403 . S
C3620 C3621 1.404 . S
C3620 C3623 1.539 . S
C3621 C3617 1.408 . S
C3621 C3620 1.404 . S
C3621 H3633 0.930 . S
C3622 C3618 1.524 . S
C3622 H3634 0.956 . S
C3622 H3635 0.961 . S
C3622 H3636 0.961 . S
C3623 C3620 1.539 . S
C3623 H3637 0.958 . S
C3623 H3638 0.961 . S
C3623 H3639 0.960 . S
H3624 C3608 0.931 . S
H3625 C3613 0.929 . S
H3626 C3614 0.960 . S
H3627 C3614 0.962 . S
H3628 C3614 0.960 . S
H3629 C3615 0.961 . S
H3630 C3615 0.961 . S
H3631 C3615 0.961 . S
H3632 C3616 0.931 . S
H3633 C3621 0.930 . S
H3634 C3622 0.956 . S
H3635 C3622 0.961 . S
H3636 C3622 0.961 . S
H3637 C3623 0.958 . S
H3638 C3623 0.961 . S
H3639 C3623 0.960 . S
C3640 C3641 1.391 . S
C3640 C3642 1.394 . S
C3640 H3656 0.931 . S
C3641 C3640 1.391 . S
C3641 C3645 1.376 . S
C3642 C3640 1.394 . S
C3642 C3643 1.369 . S
C3642 C3646 1.531 . S
C3643 C3642 1.369 . S
C3643 C3644 1.410 . S
C3643 C3651 1.503 . S
C3644 C3643 1.410 . S
C3644 C3645 1.392 . S
C3644 C3647 1.511 . S
C3645 C3641 1.376 . S
C3645 C3644 1.392 . S
C3645 H3657 0.929 . S
C3646 C3642 1.531 . S
C3646 H3658 0.960 . S
C3646 H3659 0.962 . S
C3646 H3660 0.960 . S
C3647 C3644 1.511 . S
C3647 H3661 0.961 . S
C3647 H3662 0.961 . S
C3647 H3663 0.961 . S
C3648 C3649 1.370 . S
C3648 C3650 1.363 . S
C3648 H3664 0.931 . S
C3649 C3648 1.370 . S
C3649 C3653 1.408 . S
C3650 C3648 1.363 . S
C3650 C3651 1.370 . S
C3650 C3654 1.524 . S
C3651 C3643 1.503 . S
C3651 C3650 1.370 . S
C3651 C3652 1.403 . S
C3652 C3651 1.403 . S
C3652 C3653 1.404 . S
C3652 C3655 1.539 . S
C3653 C3649 1.408 . S
C3653 C3652 1.404 . S
C3653 H3665 0.930 . S
C3654 C3650 1.524 . S
C3654 H3666 0.956 . S
C3654 H3667 0.961 . S
C3654 H3668 0.961 . S
C3655 C3652 1.539 . S
C3655 H3669 0.958 . S
C3655 H3670 0.961 . S
C3655 H3671 0.960 . S
H3656 C3640 0.931 . S
H3657 C3645 0.929 . S
H3658 C3646 0.960 . S
H3659 C3646 0.962 . S
H3660 C3646 0.960 . S
H3661 C3647 0.961 . S
H3662 C3647 0.961 . S
H3663 C3647 0.961 . S
H3664 C3648 0.931 . S
H3665 C3653 0.930 . S
H3666 C3654 0.956 . S
H3667 C3654 0.961 . S
H3668 C3654 0.961 . S
H3669 C3655 0.958 . S
H3670 C3655 0.961 . S
H3671 C3655 0.960 . S
C3672 C3673 1.391 . S
C3672 C3674 1.394 . S
C3672 H3688 0.931 . S
C3673 C3672 1.391 . S
C3673 C3677 1.376 . S
C3674 C3672 1.394 . S
C3674 C3675 1.369 . S
C3674 C3678 1.531 . S
C3675 C3674 1.369 . S
C3675 C3676 1.410 . S
C3675 C3683 1.503 . S
C3676 C3675 1.410 . S
C3676 C3677 1.392 . S
C3676 C3679 1.511 . S
C3677 C3673 1.376 . S
C3677 C3676 1.392 . S
C3677 H3689 0.929 . S
C3678 C3674 1.531 . S
C3678 H3690 0.960 . S
C3678 H3691 0.962 . S
C3678 H3692 0.960 . S
C3679 C3676 1.511 . S
C3679 H3693 0.961 . S
C3679 H3694 0.961 . S
C3679 H3695 0.961 . S
C3680 C3681 1.370 . S
C3680 C3682 1.363 . S
C3680 H3696 0.931 . S
C3681 C3680 1.370 . S
C3681 C3685 1.408 . S
C3682 C3680 1.363 . S
C3682 C3683 1.370 . S
C3682 C3686 1.524 . S
C3683 C3675 1.503 . S
C3683 C3682 1.370 . S
C3683 C3684 1.403 . S
C3684 C3683 1.403 . S
C3684 C3685 1.404 . S
C3684 C3687 1.539 . S
C3685 C3681 1.408 . S
C3685 C3684 1.404 . S
C3685 H3697 0.930 . S
C3686 C3682 1.524 . S
C3686 H3698 0.956 . S
C3686 H3699 0.961 . S
C3686 H3700 0.961 . S
C3687 C3684 1.539 . S
C3687 H3701 0.958 . S
C3687 H3702 0.961 . S
C3687 H3703 0.960 . S
H3688 C3672 0.931 . S
H3689 C3677 0.929 . S
H3690 C3678 0.960 . S
H3691 C3678 0.962 . S
H3692 C3678 0.960 . S
H3693 C3679 0.961 . S
H3694 C3679 0.961 . S
H3695 C3679 0.961 . S
H3696 C3680 0.931 . S
H3697 C3685 0.930 . S
H3698 C3686 0.956 . S
H3699 C3686 0.961 . S
H3700 C3686 0.961 . S
H3701 C3687 0.958 . S
H3702 C3687 0.961 . S
H3703 C3687 0.960 . S
C3704 C3705 1.391 . S
C3704 C3706 1.394 . S
C3704 H3720 0.931 . S
C3705 C3704 1.391 . S
C3705 C3709 1.376 . S
C3706 C3704 1.394 . S
C3706 C3707 1.369 . S
C3706 C3710 1.531 . S
C3707 C3706 1.369 . S
C3707 C3708 1.410 . S
C3707 C3715 1.503 . S
C3708 C3707 1.410 . S
C3708 C3709 1.392 . S
C3708 C3711 1.511 . S
C3709 C3705 1.376 . S
C3709 C3708 1.392 . S
C3709 H3721 0.929 . S
C3710 C3706 1.531 . S
C3710 H3722 0.960 . S
C3710 H3723 0.962 . S
C3710 H3724 0.960 . S
C3711 C3708 1.511 . S
C3711 H3725 0.961 . S
C3711 H3726 0.961 . S
C3711 H3727 0.961 . S
C3712 C3713 1.370 . S
C3712 C3714 1.363 . S
C3712 H3728 0.931 . S
C3713 C3712 1.370 . S
C3713 C3717 1.408 . S
C3714 C3712 1.363 . S
C3714 C3715 1.370 . S
C3714 C3718 1.524 . S
C3715 C3707 1.503 . S
C3715 C3714 1.370 . S
C3715 C3716 1.403 . S
C3716 C3715 1.403 . S
C3716 C3717 1.404 . S
C3716 C3719 1.539 . S
C3717 C3713 1.408 . S
C3717 C3716 1.404 . S
C3717 H3729 0.930 . S
C3718 C3714 1.524 . S
C3718 H3730 0.956 . S
C3718 H3731 0.961 . S
C3718 H3732 0.961 . S
C3719 C3716 1.539 . S
C3719 H3733 0.958 . S
C3719 H3734 0.961 . S
C3719 H3735 0.960 . S
H3720 C3704 0.931 . S
H3721 C3709 0.929 . S
H3722 C3710 0.960 . S
H3723 C3710 0.962 . S
H3724 C3710 0.960 . S
H3725 C3711 0.961 . S
H3726 C3711 0.961 . S
H3727 C3711 0.961 . S
H3728 C3712 0.931 . S
H3729 C3717 0.930 . S
H3730 C3718 0.956 . S
H3731 C3718 0.961 . S
H3732 C3718 0.961 . S
H3733 C3719 0.958 . S
H3734 C3719 0.961 . S
H3735 C3719 0.960 . S
C3736 C3737 1.391 . S
C3736 C3738 1.394 . S
C3736 H3752 0.931 . S
C3737 C3736 1.391 . S
C3737 C3741 1.376 . S
C3738 C3736 1.394 . S
C3738 C3739 1.369 . S
C3738 C3742 1.531 . S
C3739 C3738 1.369 . S
C3739 C3740 1.410 . S
C3739 C3747 1.503 . S
C3740 C3739 1.410 . S
C3740 C3741 1.392 . S
C3740 C3743 1.511 . S
C3741 C3737 1.376 . S
C3741 C3740 1.392 . S
C3741 H3753 0.929 . S
C3742 C3738 1.531 . S
C3742 H3754 0.960 . S
C3742 H3755 0.962 . S
C3742 H3756 0.960 . S
C3743 C3740 1.511 . S
C3743 H3757 0.961 . S
C3743 H3758 0.961 . S
C3743 H3759 0.961 . S
C3744 C3745 1.370 . S
C3744 C3746 1.363 . S
C3744 H3760 0.931 . S
C3745 C3744 1.370 . S
C3745 C3749 1.408 . S
C3746 C3744 1.363 . S
C3746 C3747 1.370 . S
C3746 C3750 1.524 . S
C3747 C3739 1.503 . S
C3747 C3746 1.370 . S
C3747 C3748 1.403 . S
C3748 C3747 1.403 . S
C3748 C3749 1.404 . S
C3748 C3751 1.539 . S
C3749 C3745 1.408 . S
C3749 C3748 1.404 . S
C3749 H3761 0.930 . S
C3750 C3746 1.524 . S
C3750 H3762 0.956 . S
C3750 H3763 0.961 . S
C3750 H3764 0.961 . S
C3751 C3748 1.539 . S
C3751 H3765 0.958 . S
C3751 H3766 0.961 . S
C3751 H3767 0.960 . S
H3752 C3736 0.931 . S
H3753 C3741 0.929 . S
H3754 C3742 0.960 . S
H3755 C3742 0.962 . S
H3756 C3742 0.960 . S
H3757 C3743 0.961 . S
H3758 C3743 0.961 . S
H3759 C3743 0.961 . S
H3760 C3744 0.931 . S
H3761 C3749 0.930 . S
H3762 C3750 0.956 . S
H3763 C3750 0.961 . S
H3764 C3750 0.961 . S
H3765 C3751 0.958 . S
H3766 C3751 0.961 . S
H3767 C3751 0.960 . S
C3768 C3769 1.391 . S
C3768 C3770 1.394 . S
C3768 H3784 0.931 . S
C3769 C3768 1.391 . S
C3769 C3773 1.376 . S
C3770 C3768 1.394 . S
C3770 C3771 1.369 . S
C3770 C3774 1.531 . S
C3771 C3770 1.369 . S
C3771 C3772 1.410 . S
C3771 C3779 1.503 . S
C3772 C3771 1.410 . S
C3772 C3773 1.392 . S
C3772 C3775 1.511 . S
C3773 C3769 1.376 . S
C3773 C3772 1.392 . S
C3773 H3785 0.929 . S
C3774 C3770 1.531 . S
C3774 H3786 0.960 . S
C3774 H3787 0.962 . S
C3774 H3788 0.960 . S
C3775 C3772 1.511 . S
C3775 H3789 0.961 . S
C3775 H3790 0.961 . S
C3775 H3791 0.961 . S
C3776 C3777 1.370 . S
C3776 C3778 1.363 . S
C3776 H3792 0.931 . S
C3777 C3776 1.370 . S
C3777 C3781 1.408 . S
C3778 C3776 1.363 . S
C3778 C3779 1.370 . S
C3778 C3782 1.524 . S
C3779 C3771 1.503 . S
C3779 C3778 1.370 . S
C3779 C3780 1.403 . S
C3780 C3779 1.403 . S
C3780 C3781 1.404 . S
C3780 C3783 1.539 . S
C3781 C3777 1.408 . S
C3781 C3780 1.404 . S
C3781 H3793 0.930 . S
C3782 C3778 1.524 . S
C3782 H3794 0.956 . S
C3782 H3795 0.961 . S
C3782 H3796 0.961 . S
C3783 C3780 1.539 . S
C3783 H3797 0.958 . S
C3783 H3798 0.961 . S
C3783 H3799 0.960 . S
H3784 C3768 0.931 . S
H3785 C3773 0.929 . S
H3786 C3774 0.960 . S
H3787 C3774 0.962 . S
H3788 C3774 0.960 . S
H3789 C3775 0.961 . S
H3790 C3775 0.961 . S
H3791 C3775 0.961 . S
H3792 C3776 0.931 . S
H3793 C3781 0.930 . S
H3794 C3782 0.956 . S
H3795 C3782 0.961 . S
H3796 C3782 0.961 . S
H3797 C3783 0.958 . S
H3798 C3783 0.961 . S
H3799 C3783 0.960 . S
C3800 C3801 1.391 . S
C3800 C3802 1.394 . S
C3800 H3816 0.931 . S
C3801 C3800 1.391 . S
C3801 C3805 1.376 . S
C3802 C3800 1.394 . S
C3802 C3803 1.369 . S
C3802 C3806 1.531 . S
C3803 C3802 1.369 . S
C3803 C3804 1.410 . S
C3803 C3811 1.503 . S
C3804 C3803 1.410 . S
C3804 C3805 1.392 . S
C3804 C3807 1.511 1_565 S
C3805 C3801 1.376 . S
C3805 C3804 1.392 . S
C3805 H3817 0.929 . S
C3806 C3802 1.531 . S
C3806 H3818 0.960 1_554 S
C3806 H3819 0.962 . S
C3806 H3820 0.960 1_554 S
C3807 C3804 1.511 1_545 S
C3807 H3821 0.961 . S
C3807 H3822 0.961 . S
C3807 H3823 0.961 1_554 S
C3808 C3809 1.370 . S
C3808 C3810 1.363 . S
C3808 H3824 0.931 . S
C3809 C3808 1.370 . S
C3809 C3813 1.408 1_554 S
C3810 C3808 1.363 . S
C3810 C3811 1.370 1_545 S
C3810 C3814 1.524 . S
C3811 C3803 1.503 . S
C3811 C3810 1.370 1_565 S
C3811 C3812 1.403 1_564 S
C3812 C3811 1.403 1_546 S
C3812 C3813 1.404 . S
C3812 C3815 1.539 1_545 S
C3813 C3809 1.408 1_556 S
C3813 C3812 1.404 . S
C3813 H3825 0.930 . S
C3814 C3810 1.524 . S
C3814 H3826 0.956 1_545 S
C3814 H3827 0.961 . S
C3814 H3828 0.961 . S
C3815 C3812 1.539 1_565 S
C3815 H3829 0.958 . S
C3815 H3830 0.961 1_565 S
C3815 H3831 0.960 . S
H3816 C3800 0.931 . S
H3817 C3805 0.929 . S
H3818 C3806 0.960 1_556 S
H3819 C3806 0.962 . S
H3820 C3806 0.960 1_556 S
H3821 C3807 0.961 . S
H3822 C3807 0.961 . S
H3823 C3807 0.961 1_556 S
H3824 C3808 0.931 . S
H3825 C3813 0.930 . S
H3826 C3814 0.956 1_565 S
H3827 C3814 0.961 . S
H3828 C3814 0.961 . S
H3829 C3815 0.958 . S
H3830 C3815 0.961 1_545 S
H3831 C3815 0.960 . S
C3832 C3833 1.391 . S
C3832 C3834 1.394 . S
C3832 H3848 0.931 . S
C3833 C3832 1.391 . S
C3833 C3837 1.376 . S
C3834 C3832 1.394 . S
C3834 C3835 1.369 . S
C3834 C3838 1.531 . S
C3835 C3834 1.369 . S
C3835 C3836 1.410 . S
C3835 C3843 1.503 . S
C3836 C3835 1.410 . S
C3836 C3837 1.392 . S
C3836 C3839 1.511 . S
C3837 C3833 1.376 . S
C3837 C3836 1.392 . S
C3837 H3849 0.929 . S
C3838 C3834 1.531 . S
C3838 H3850 0.960 . S
C3838 H3851 0.962 . S
C3838 H3852 0.960 . S
C3839 C3836 1.511 . S
C3839 H3853 0.961 . S
C3839 H3854 0.961 . S
C3839 H3855 0.961 . S
C3840 C3841 1.370 . S
C3840 C3842 1.363 . S
C3840 H3856 0.931 . S
C3841 C3840 1.370 . S
C3841 C3845 1.408 . S
C3842 C3840 1.363 . S
C3842 C3843 1.370 . S
C3842 C3846 1.524 . S
C3843 C3835 1.503 . S
C3843 C3842 1.370 . S
C3843 C3844 1.403 . S
C3844 C3843 1.403 . S
C3844 C3845 1.404 . S
C3844 C3847 1.539 . S
C3845 C3841 1.408 . S
C3845 C3844 1.404 . S
C3845 H3857 0.930 . S
C3846 C3842 1.524 . S
C3846 H3858 0.956 . S
C3846 H3859 0.961 . S
C3846 H3860 0.961 . S
C3847 C3844 1.539 . S
C3847 H3861 0.958 . S
C3847 H3862 0.961 . S
C3847 H3863 0.960 . S
H3848 C3832 0.931 . S
H3849 C3837 0.929 . S
H3850 C3838 0.960 . S
H3851 C3838 0.962 . S
H3852 C3838 0.960 . S
H3853 C3839 0.961 . S
H3854 C3839 0.961 . S
H3855 C3839 0.961 . S
H3856 C3840 0.931 . S
H3857 C3845 0.930 . S
H3858 C3846 0.956 . S
H3859 C3846 0.961 . S
H3860 C3846 0.961 . S
H3861 C3847 0.958 . S
H3862 C3847 0.961 . S
H3863 C3847 0.960 . S
C3864 C3865 1.391 . S
C3864 C3866 1.394 . S
C3864 H3880 0.931 . S
C3865 C3864 1.391 . S
C3865 C3869 1.376 1_554 S
C3866 C3864 1.394 . S
C3866 C3867 1.369 . S
C3866 C3870 1.531 . S
C3867 C3866 1.369 . S
C3867 C3868 1.410 1_554 S
C3867 C3875 1.503 . S
C3868 C3867 1.410 1_556 S
C3868 C3869 1.392 . S
C3868 C3871 1.511 . S
C3869 C3865 1.376 1_556 S
C3869 C3868 1.392 . S
C3869 H3881 0.929 . S
C3870 C3866 1.531 . S
C3870 H3882 0.960 . S
C3870 H3883 0.962 . S
C3870 H3884 0.960 . S
C3871 C3868 1.511 . S
C3871 H3885 0.961 . S
C3871 H3886 0.961 . S
C3871 H3887 0.961 . S
C3872 C3873 1.370 . S
C3872 C3874 1.363 . S
C3872 H3888 0.931 . S
C3873 C3872 1.370 . S
C3873 C3877 1.408 . S
C3874 C3872 1.363 . S
C3874 C3875 1.370 . S
C3874 C3878 1.524 . S
C3875 C3867 1.503 . S
C3875 C3874 1.370 . S
C3875 C3876 1.403 . S
C3876 C3875 1.403 . S
C3876 C3877 1.404 . S
C3876 C3879 1.539 . S
C3877 C3873 1.408 . S
C3877 C3876 1.404 . S
C3877 H3889 0.930 . S
C3878 C3874 1.524 . S
C3878 H3890 0.956 . S
C3878 H3891 0.961 . S
C3878 H3892 0.961 . S
C3879 C3876 1.539 . S
C3879 H3893 0.958 . S
C3879 H3894 0.961 . S
C3879 H3895 0.960 . S
H3880 C3864 0.931 . S
H3881 C3869 0.929 . S
H3882 C3870 0.960 . S
H3883 C3870 0.962 . S
H3884 C3870 0.960 . S
H3885 C3871 0.961 . S
H3886 C3871 0.961 . S
H3887 C3871 0.961 . S
H3888 C3872 0.931 . S
H3889 C3877 0.930 . S
H3890 C3878 0.956 . S
H3891 C3878 0.961 . S
H3892 C3878 0.961 . S
H3893 C3879 0.958 . S
H3894 C3879 0.961 . S
H3895 C3879 0.960 . S
C3896 C3897 1.391 . S
C3896 C3898 1.394 . S
C3896 H3912 0.931 . S
C3897 C3896 1.391 . S
C3897 C3901 1.376 . S
C3898 C3896 1.394 . S
C3898 C3899 1.369 . S
C3898 C3902 1.531 . S
C3899 C3898 1.369 . S
C3899 C3900 1.410 . S
C3899 C3907 1.503 . S
C3900 C3899 1.410 . S
C3900 C3901 1.392 . S
C3900 C3903 1.511 . S
C3901 C3897 1.376 . S
C3901 C3900 1.392 . S
C3901 H3913 0.929 . S
C3902 C3898 1.531 . S
C3902 H3914 0.960 . S
C3902 H3915 0.962 . S
C3902 H3916 0.960 . S
C3903 C3900 1.511 . S
C3903 H3917 0.961 . S
C3903 H3918 0.961 . S
C3903 H3919 0.961 . S
C3904 C3905 1.370 . S
C3904 C3906 1.363 . S
C3904 H3920 0.931 . S
C3905 C3904 1.370 . S
C3905 C3909 1.408 . S
C3906 C3904 1.363 . S
C3906 C3907 1.370 . S
C3906 C3910 1.524 . S
C3907 C3899 1.503 . S
C3907 C3906 1.370 . S
C3907 C3908 1.403 . S
C3908 C3907 1.403 . S
C3908 C3909 1.404 . S
C3908 C3911 1.539 . S
C3909 C3905 1.408 . S
C3909 C3908 1.404 . S
C3909 H3921 0.930 . S
C3910 C3906 1.524 . S
C3910 H3922 0.956 . S
C3910 H3923 0.961 . S
C3910 H3924 0.961 . S
C3911 C3908 1.539 . S
C3911 H3925 0.958 . S
C3911 H3926 0.961 . S
C3911 H3927 0.960 . S
H3912 C3896 0.931 . S
H3913 C3901 0.929 . S
H3914 C3902 0.960 . S
H3915 C3902 0.962 . S
H3916 C3902 0.960 . S
H3917 C3903 0.961 . S
H3918 C3903 0.961 . S
H3919 C3903 0.961 . S
H3920 C3904 0.931 . S
H3921 C3909 0.930 . S
H3922 C3910 0.956 . S
H3923 C3910 0.961 . S
H3924 C3910 0.961 . S
H3925 C3911 0.958 . S
H3926 C3911 0.961 . S
H3927 C3911 0.960 . S
C3928 C3929 1.391 . S
C3928 C3930 1.394 . S
C3928 H3944 0.931 . S
C3929 C3928 1.391 . S
C3929 C3933 1.376 . S
C3930 C3928 1.394 . S
C3930 C3931 1.369 . S
C3930 C3934 1.531 . S
C3931 C3930 1.369 . S
C3931 C3932 1.410 . S
C3931 C3939 1.503 . S
C3932 C3931 1.410 . S
C3932 C3933 1.392 . S
C3932 C3935 1.511 . S
C3933 C3929 1.376 . S
C3933 C3932 1.392 . S
C3933 H3945 0.929 . S
C3934 C3930 1.531 . S
C3934 H3946 0.960 . S
C3934 H3947 0.962 . S
C3934 H3948 0.960 . S
C3935 C3932 1.511 . S
C3935 H3949 0.961 . S
C3935 H3950 0.961 . S
C3935 H3951 0.961 . S
C3936 C3937 1.370 . S
C3936 C3938 1.363 . S
C3936 H3952 0.931 . S
C3937 C3936 1.370 . S
C3937 C3941 1.408 . S
C3938 C3936 1.363 . S
C3938 C3939 1.370 . S
C3938 C3942 1.524 . S
C3939 C3931 1.503 . S
C3939 C3938 1.370 . S
C3939 C3940 1.403 . S
C3940 C3939 1.403 . S
C3940 C3941 1.404 . S
C3940 C3943 1.539 . S
C3941 C3937 1.408 . S
C3941 C3940 1.404 . S
C3941 H3953 0.930 . S
C3942 C3938 1.524 . S
C3942 H3954 0.956 . S
C3942 H3955 0.961 . S
C3942 H3956 0.961 . S
C3943 C3940 1.539 . S
C3943 H3957 0.958 . S
C3943 H3958 0.961 . S
C3943 H3959 0.960 . S
H3944 C3928 0.931 . S
H3945 C3933 0.929 . S
H3946 C3934 0.960 . S
H3947 C3934 0.962 . S
H3948 C3934 0.960 . S
H3949 C3935 0.961 . S
H3950 C3935 0.961 . S
H3951 C3935 0.961 . S
H3952 C3936 0.931 . S
H3953 C3941 0.930 . S
H3954 C3942 0.956 . S
H3955 C3942 0.961 . S
H3956 C3942 0.961 . S
H3957 C3943 0.958 . S
H3958 C3943 0.961 . S
H3959 C3943 0.960 . S
C3960 C3961 1.391 . S
C3960 C3962 1.394 . S
C3960 H3976 0.931 . S
C3961 C3960 1.391 . S
C3961 C3965 1.376 . S
C3962 C3960 1.394 . S
C3962 C3963 1.369 . S
C3962 C3966 1.531 . S
C3963 C3962 1.369 . S
C3963 C3964 1.410 . S
C3963 C3971 1.503 . S
C3964 C3963 1.410 . S
C3964 C3965 1.392 . S
C3964 C3967 1.511 . S
C3965 C3961 1.376 . S
C3965 C3964 1.392 . S
C3965 H3977 0.929 . S
C3966 C3962 1.531 . S
C3966 H3978 0.960 . S
C3966 H3979 0.962 . S
C3966 H3980 0.960 . S
C3967 C3964 1.511 . S
C3967 H3981 0.961 . S
C3967 H3982 0.961 . S
C3967 H3983 0.961 . S
C3968 C3969 1.370 . S
C3968 C3970 1.363 . S
C3968 H3984 0.931 . S
C3969 C3968 1.370 . S
C3969 C3973 1.408 . S
C3970 C3968 1.363 . S
C3970 C3971 1.370 . S
C3970 C3974 1.524 . S
C3971 C3963 1.503 . S
C3971 C3970 1.370 . S
C3971 C3972 1.403 . S
C3972 C3971 1.403 . S
C3972 C3973 1.404 . S
C3972 C3975 1.539 . S
C3973 C3969 1.408 . S
C3973 C3972 1.404 . S
C3973 H3985 0.930 . S
C3974 C3970 1.524 . S
C3974 H3986 0.956 . S
C3974 H3987 0.961 . S
C3974 H3988 0.961 . S
C3975 C3972 1.539 . S
C3975 H3989 0.958 . S
C3975 H3990 0.961 . S
C3975 H3991 0.960 . S
H3976 C3960 0.931 . S
H3977 C3965 0.929 . S
H3978 C3966 0.960 . S
H3979 C3966 0.962 . S
H3980 C3966 0.960 . S
H3981 C3967 0.961 . S
H3982 C3967 0.961 . S
H3983 C3967 0.961 . S
H3984 C3968 0.931 . S
H3985 C3973 0.930 . S
H3986 C3974 0.956 . S
H3987 C3974 0.961 . S
H3988 C3974 0.961 . S
H3989 C3975 0.958 . S
H3990 C3975 0.961 . S
H3991 C3975 0.960 . S
C3992 C3993 1.391 . S
C3992 C3994 1.394 . S
C3992 H4008 0.931 . S
C3993 C3992 1.391 . S
C3993 C3997 1.376 . S
C3994 C3992 1.394 . S
C3994 C3995 1.369 . S
C3994 C3998 1.531 . S
C3995 C3994 1.369 . S
C3995 C3996 1.410 . S
C3995 C4003 1.503 . S
C3996 C3995 1.410 . S
C3996 C3997 1.392 . S
C3996 C3999 1.511 . S
C3997 C3993 1.376 . S
C3997 C3996 1.392 . S
C3997 H4009 0.929 . S
C3998 C3994 1.531 . S
C3998 H4010 0.960 . S
C3998 H4011 0.962 . S
C3998 H4012 0.960 . S
C3999 C3996 1.511 . S
C3999 H4013 0.961 . S
C3999 H4014 0.961 . S
C3999 H4015 0.961 . S
C4000 C4001 1.370 . S
C4000 C4002 1.363 . S
C4000 H4016 0.931 . S
C4001 C4000 1.370 . S
C4001 C4005 1.408 . S
C4002 C4000 1.363 . S
C4002 C4003 1.370 . S
C4002 C4006 1.524 . S
C4003 C3995 1.503 . S
C4003 C4002 1.370 . S
C4003 C4004 1.403 . S
C4004 C4003 1.403 . S
C4004 C4005 1.404 . S
C4004 C4007 1.539 . S
C4005 C4001 1.408 . S
C4005 C4004 1.404 . S
C4005 H4017 0.930 . S
C4006 C4002 1.524 . S
C4006 H4018 0.956 . S
C4006 H4019 0.961 . S
C4006 H4020 0.961 . S
C4007 C4004 1.539 . S
C4007 H4021 0.958 . S
C4007 H4022 0.961 . S
C4007 H4023 0.960 . S
H4008 C3992 0.931 . S
H4009 C3997 0.929 . S
H4010 C3998 0.960 . S
H4011 C3998 0.962 . S
H4012 C3998 0.960 . S
H4013 C3999 0.961 . S
H4014 C3999 0.961 . S
H4015 C3999 0.961 . S
H4016 C4000 0.931 . S
H4017 C4005 0.930 . S
H4018 C4006 0.956 . S
H4019 C4006 0.961 . S
H4020 C4006 0.961 . S
H4021 C4007 0.958 . S
H4022 C4007 0.961 . S
H4023 C4007 0.960 . S
C4024 C4025 1.391 . S
C4024 C4026 1.394 . S
C4024 H4040 0.931 . S
C4025 C4024 1.391 . S
C4025 C4029 1.376 . S
C4026 C4024 1.394 . S
C4026 C4027 1.369 . S
C4026 C4030 1.531 . S
C4027 C4026 1.369 . S
C4027 C4028 1.410 . S
C4027 C4035 1.503 . S
C4028 C4027 1.410 . S
C4028 C4029 1.392 . S
C4028 C4031 1.511 . S
C4029 C4025 1.376 . S
C4029 C4028 1.392 . S
C4029 H4041 0.929 . S
C4030 C4026 1.531 . S
C4030 H4042 0.960 . S
C4030 H4043 0.962 . S
C4030 H4044 0.960 . S
C4031 C4028 1.511 . S
C4031 H4045 0.961 . S
C4031 H4046 0.961 . S
C4031 H4047 0.961 . S
C4032 C4033 1.370 . S
C4032 C4034 1.363 . S
C4032 H4048 0.931 . S
C4033 C4032 1.370 . S
C4033 C4037 1.408 . S
C4034 C4032 1.363 . S
C4034 C4035 1.370 . S
C4034 C4038 1.524 . S
C4035 C4027 1.503 . S
C4035 C4034 1.370 . S
C4035 C4036 1.403 . S
C4036 C4035 1.403 . S
C4036 C4037 1.404 . S
C4036 C4039 1.539 . S
C4037 C4033 1.408 . S
C4037 C4036 1.404 . S
C4037 H4049 0.930 . S
C4038 C4034 1.524 . S
C4038 H4050 0.956 . S
C4038 H4051 0.961 . S
C4038 H4052 0.961 . S
C4039 C4036 1.539 . S
C4039 H4053 0.958 . S
C4039 H4054 0.961 . S
C4039 H4055 0.960 . S
H4040 C4024 0.931 . S
H4041 C4029 0.929 . S
H4042 C4030 0.960 . S
H4043 C4030 0.962 . S
H4044 C4030 0.960 . S
H4045 C4031 0.961 . S
H4046 C4031 0.961 . S
H4047 C4031 0.961 . S
H4048 C4032 0.931 . S
H4049 C4037 0.930 . S
H4050 C4038 0.956 . S
H4051 C4038 0.961 . S
H4052 C4038 0.961 . S
H4053 C4039 0.958 . S
H4054 C4039 0.961 . S
H4055 C4039 0.960 . S
C4056 C4057 1.391 . S
C4056 C4058 1.394 . S
C4056 H4072 0.931 . S
C4057 C4056 1.391 . S
C4057 C4061 1.376 . S
C4058 C4056 1.394 . S
C4058 C4059 1.369 . S
C4058 C4062 1.531 . S
C4059 C4058 1.369 . S
C4059 C4060 1.410 . S
C4059 C4067 1.503 . S
C4060 C4059 1.410 . S
C4060 C4061 1.392 . S
C4060 C4063 1.511 . S
C4061 C4057 1.376 . S
C4061 C4060 1.392 . S
C4061 H4073 0.929 . S
C4062 C4058 1.531 . S
C4062 H4074 0.960 . S
C4062 H4075 0.962 . S
C4062 H4076 0.960 . S
C4063 C4060 1.511 . S
C4063 H4077 0.961 . S
C4063 H4078 0.961 . S
C4063 H4079 0.961 . S
C4064 C4065 1.370 . S
C4064 C4066 1.363 . S
C4064 H4080 0.931 . S
C4065 C4064 1.370 . S
C4065 C4069 1.408 . S
C4066 C4064 1.363 . S
C4066 C4067 1.370 . S
C4066 C4070 1.524 . S
C4067 C4059 1.503 . S
C4067 C4066 1.370 . S
C4067 C4068 1.403 . S
C4068 C4067 1.403 . S
C4068 C4069 1.404 . S
C4068 C4071 1.539 . S
C4069 C4065 1.408 . S
C4069 C4068 1.404 . S
C4069 H4081 0.930 . S
C4070 C4066 1.524 . S
C4070 H4082 0.956 . S
C4070 H4083 0.961 . S
C4070 H4084 0.961 . S
C4071 C4068 1.539 . S
C4071 H4085 0.958 . S
C4071 H4086 0.961 . S
C4071 H4087 0.960 . S
H4072 C4056 0.931 . S
H4073 C4061 0.929 . S
H4074 C4062 0.960 . S
H4075 C4062 0.962 . S
H4076 C4062 0.960 . S
H4077 C4063 0.961 . S
H4078 C4063 0.961 . S
H4079 C4063 0.961 . S
H4080 C4064 0.931 . S
H4081 C4069 0.930 . S
H4082 C4070 0.956 . S
H4083 C4070 0.961 . S
H4084 C4070 0.961 . S
H4085 C4071 0.958 . S
H4086 C4071 0.961 . S
H4087 C4071 0.960 . S
C4088 C4089 1.391 . S
C4088 C4090 1.394 . S
C4088 H4104 0.931 . S
C4089 C4088 1.391 . S
C4089 C4093 1.376 . S
C4090 C4088 1.394 . S
C4090 C4091 1.369 . S
C4090 C4094 1.531 . S
C4091 C4090 1.369 . S
C4091 C4092 1.410 . S
C4091 C4099 1.503 . S
C4092 C4091 1.410 . S
C4092 C4093 1.392 . S
C4092 C4095 1.511 . S
C4093 C4089 1.376 . S
C4093 C4092 1.392 . S
C4093 H4105 0.929 . S
C4094 C4090 1.531 . S
C4094 H4106 0.960 . S
C4094 H4107 0.962 . S
C4094 H4108 0.960 . S
C4095 C4092 1.511 . S
C4095 H4109 0.961 . S
C4095 H4110 0.961 . S
C4095 H4111 0.961 . S
C4096 C4097 1.370 . S
C4096 C4098 1.363 . S
C4096 H4112 0.931 . S
C4097 C4096 1.370 . S
C4097 C4101 1.408 . S
C4098 C4096 1.363 . S
C4098 C4099 1.370 . S
C4098 C4102 1.524 . S
C4099 C4091 1.503 . S
C4099 C4098 1.370 . S
C4099 C4100 1.403 . S
C4100 C4099 1.403 . S
C4100 C4101 1.404 . S
C4100 C4103 1.539 . S
C4101 C4097 1.408 . S
C4101 C4100 1.404 . S
C4101 H4113 0.930 . S
C4102 C4098 1.524 . S
C4102 H4114 0.956 . S
C4102 H4115 0.961 . S
C4102 H4116 0.961 . S
C4103 C4100 1.539 . S
C4103 H4117 0.958 . S
C4103 H4118 0.961 . S
C4103 H4119 0.960 . S
H4104 C4088 0.931 . S
H4105 C4093 0.929 . S
H4106 C4094 0.960 . S
H4107 C4094 0.962 . S
H4108 C4094 0.960 . S
H4109 C4095 0.961 . S
H4110 C4095 0.961 . S
H4111 C4095 0.961 . S
H4112 C4096 0.931 . S
H4113 C4101 0.930 . S
H4114 C4102 0.956 . S
H4115 C4102 0.961 . S
H4116 C4102 0.961 . S
H4117 C4103 0.958 . S
H4118 C4103 0.961 . S
H4119 C4103 0.960 . S
C4120 C4121 1.391 . S
C4120 C4122 1.394 . S
C4120 H4136 0.931 . S
C4121 C4120 1.391 . S
C4121 C4125 1.376 . S
C4122 C4120 1.394 . S
C4122 C4123 1.369 . S
C4122 C4126 1.531 . S
C4123 C4122 1.369 . S
C4123 C4124 1.410 . S
C4123 C4131 1.503 . S
C4124 C4123 1.410 . S
C4124 C4125 1.392 . S
C4124 C4127 1.511 . S
C4125 C4121 1.376 . S
C4125 C4124 1.392 . S
C4125 H4137 0.929 . S
C4126 C4122 1.531 . S
C4126 H4138 0.960 . S
C4126 H4139 0.962 . S
C4126 H4140 0.960 . S
C4127 C4124 1.511 . S
C4127 H4141 0.961 . S
C4127 H4142 0.961 . S
C4127 H4143 0.961 . S
C4128 C4129 1.370 . S
C4128 C4130 1.363 . S
C4128 H4144 0.931 . S
C4129 C4128 1.370 . S
C4129 C4133 1.408 . S
C4130 C4128 1.363 . S
C4130 C4131 1.370 . S
C4130 C4134 1.524 . S
C4131 C4123 1.503 . S
C4131 C4130 1.370 . S
C4131 C4132 1.403 . S
C4132 C4131 1.403 . S
C4132 C4133 1.404 . S
C4132 C4135 1.539 . S
C4133 C4129 1.408 . S
C4133 C4132 1.404 . S
C4133 H4145 0.930 . S
C4134 C4130 1.524 . S
C4134 H4146 0.956 . S
C4134 H4147 0.961 . S
C4134 H4148 0.961 . S
C4135 C4132 1.539 . S
C4135 H4149 0.958 . S
C4135 H4150 0.961 . S
C4135 H4151 0.960 . S
H4136 C4120 0.931 . S
H4137 C4125 0.929 . S
H4138 C4126 0.960 . S
H4139 C4126 0.962 . S
H4140 C4126 0.960 . S
H4141 C4127 0.961 . S
H4142 C4127 0.961 . S
H4143 C4127 0.961 . S
H4144 C4128 0.931 . S
H4145 C4133 0.930 . S
H4146 C4134 0.956 . S
H4147 C4134 0.961 . S
H4148 C4134 0.961 . S
H4149 C4135 0.958 . S
H4150 C4135 0.961 . S
H4151 C4135 0.960 . S
C4152 C4153 1.391 . S
C4152 C4154 1.394 . S
C4152 H4168 0.931 . S
C4153 C4152 1.391 . S
C4153 C4157 1.376 . S
C4154 C4152 1.394 . S
C4154 C4155 1.369 . S
C4154 C4158 1.531 . S
C4155 C4154 1.369 . S
C4155 C4156 1.410 . S
C4155 C4163 1.503 . S
C4156 C4155 1.410 . S
C4156 C4157 1.392 . S
C4156 C4159 1.511 . S
C4157 C4153 1.376 . S
C4157 C4156 1.392 . S
C4157 H4169 0.929 . S
C4158 C4154 1.531 . S
C4158 H4170 0.960 . S
C4158 H4171 0.962 . S
C4158 H4172 0.960 . S
C4159 C4156 1.511 . S
C4159 H4173 0.961 . S
C4159 H4174 0.961 . S
C4159 H4175 0.961 . S
C4160 C4161 1.370 . S
C4160 C4162 1.363 . S
C4160 H4176 0.931 . S
C4161 C4160 1.370 . S
C4161 C4165 1.408 . S
C4162 C4160 1.363 . S
C4162 C4163 1.370 . S
C4162 C4166 1.524 . S
C4163 C4155 1.503 . S
C4163 C4162 1.370 . S
C4163 C4164 1.403 . S
C4164 C4163 1.403 . S
C4164 C4165 1.404 . S
C4164 C4167 1.539 . S
C4165 C4161 1.408 . S
C4165 C4164 1.404 . S
C4165 H4177 0.930 . S
C4166 C4162 1.524 . S
C4166 H4178 0.956 . S
C4166 H4179 0.961 . S
C4166 H4180 0.961 . S
C4167 C4164 1.539 . S
C4167 H4181 0.958 . S
C4167 H4182 0.961 . S
C4167 H4183 0.960 . S
H4168 C4152 0.931 . S
H4169 C4157 0.929 . S
H4170 C4158 0.960 . S
H4171 C4158 0.962 . S
H4172 C4158 0.960 . S
H4173 C4159 0.961 . S
H4174 C4159 0.961 . S
H4175 C4159 0.961 . S
H4176 C4160 0.931 . S
H4177 C4165 0.930 . S
H4178 C4166 0.956 . S
H4179 C4166 0.961 . S
H4180 C4166 0.961 . S
H4181 C4167 0.958 . S
H4182 C4167 0.961 . S
H4183 C4167 0.960 . S
C4184 C4185 1.391 . S
C4184 C4186 1.394 . S
C4184 H4200 0.931 . S
C4185 C4184 1.391 . S
C4185 C4189 1.376 . S
C4186 C4184 1.394 . S
C4186 C4187 1.369 . S
C4186 C4190 1.531 . S
C4187 C4186 1.369 . S
C4187 C4188 1.410 . S
C4187 C4195 1.503 . S
C4188 C4187 1.410 . S
C4188 C4189 1.392 . S
C4188 C4191 1.511 . S
C4189 C4185 1.376 . S
C4189 C4188 1.392 . S
C4189 H4201 0.929 . S
C4190 C4186 1.531 . S
C4190 H4202 0.960 . S
C4190 H4203 0.962 . S
C4190 H4204 0.960 . S
C4191 C4188 1.511 . S
C4191 H4205 0.961 . S
C4191 H4206 0.961 . S
C4191 H4207 0.961 . S
C4192 C4193 1.370 . S
C4192 C4194 1.363 . S
C4192 H4208 0.931 . S
C4193 C4192 1.370 . S
C4193 C4197 1.408 . S
C4194 C4192 1.363 . S
C4194 C4195 1.370 . S
C4194 C4198 1.524 . S
C4195 C4187 1.503 . S
C4195 C4194 1.370 . S
C4195 C4196 1.403 . S
C4196 C4195 1.403 . S
C4196 C4197 1.404 . S
C4196 C4199 1.539 . S
C4197 C4193 1.408 . S
C4197 C4196 1.404 . S
C4197 H4209 0.930 . S
C4198 C4194 1.524 . S
C4198 H4210 0.956 . S
C4198 H4211 0.961 . S
C4198 H4212 0.961 . S
C4199 C4196 1.539 . S
C4199 H4213 0.958 . S
C4199 H4214 0.961 . S
C4199 H4215 0.960 . S
H4200 C4184 0.931 . S
H4201 C4189 0.929 . S
H4202 C4190 0.960 . S
H4203 C4190 0.962 . S
H4204 C4190 0.960 . S
H4205 C4191 0.961 . S
H4206 C4191 0.961 . S
H4207 C4191 0.961 . S
H4208 C4192 0.931 . S
H4209 C4197 0.930 . S
H4210 C4198 0.956 . S
H4211 C4198 0.961 . S
H4212 C4198 0.961 . S
H4213 C4199 0.958 . S
H4214 C4199 0.961 . S
H4215 C4199 0.960 . S
C4216 C4217 1.391 . S
C4216 C4218 1.394 . S
C4216 H4232 0.931 . S
C4217 C4216 1.391 . S
C4217 C4221 1.376 . S
C4218 C4216 1.394 . S
C4218 C4219 1.369 . S
C4218 C4222 1.531 . S
C4219 C4218 1.369 . S
C4219 C4220 1.410 . S
C4219 C4227 1.503 . S
C4220 C4219 1.410 . S
C4220 C4221 1.392 . S
C4220 C4223 1.511 . S
C4221 C4217 1.376 . S
C4221 C4220 1.392 . S
C4221 H4233 0.929 . S
C4222 C4218 1.531 . S
C4222 H4234 0.960 . S
C4222 H4235 0.962 . S
C4222 H4236 0.960 . S
C4223 C4220 1.511 . S
C4223 H4237 0.961 . S
C4223 H4238 0.961 . S
C4223 H4239 0.961 . S
C4224 C4225 1.370 . S
C4224 C4226 1.363 . S
C4224 H4240 0.931 . S
C4225 C4224 1.370 . S
C4225 C4229 1.408 . S
C4226 C4224 1.363 . S
C4226 C4227 1.370 . S
C4226 C4230 1.524 . S
C4227 C4219 1.503 . S
C4227 C4226 1.370 . S
C4227 C4228 1.403 . S
C4228 C4227 1.403 . S
C4228 C4229 1.404 . S
C4228 C4231 1.539 . S
C4229 C4225 1.408 . S
C4229 C4228 1.404 . S
C4229 H4241 0.930 . S
C4230 C4226 1.524 . S
C4230 H4242 0.956 . S
C4230 H4243 0.961 . S
C4230 H4244 0.961 . S
C4231 C4228 1.539 . S
C4231 H4245 0.958 . S
C4231 H4246 0.961 . S
C4231 H4247 0.960 . S
H4232 C4216 0.931 . S
H4233 C4221 0.929 . S
H4234 C4222 0.960 . S
H4235 C4222 0.962 . S
H4236 C4222 0.960 . S
H4237 C4223 0.961 . S
H4238 C4223 0.961 . S
H4239 C4223 0.961 . S
H4240 C4224 0.931 . S
H4241 C4229 0.930 . S
H4242 C4230 0.956 . S
H4243 C4230 0.961 . S
H4244 C4230 0.961 . S
H4245 C4231 0.958 . S
H4246 C4231 0.961 . S
H4247 C4231 0.960 . S
C4248 C4249 1.391 . S
C4248 C4250 1.394 . S
C4248 H4264 0.931 . S
C4249 C4248 1.391 . S
C4249 C4253 1.376 . S
C4250 C4248 1.394 . S
C4250 C4251 1.369 . S
C4250 C4254 1.531 . S
C4251 C4250 1.369 . S
C4251 C4252 1.410 . S
C4251 C4259 1.503 . S
C4252 C4251 1.410 . S
C4252 C4253 1.392 . S
C4252 C4255 1.511 . S
C4253 C4249 1.376 . S
C4253 C4252 1.392 . S
C4253 H4265 0.929 . S
C4254 C4250 1.531 . S
C4254 H4266 0.960 . S
C4254 H4267 0.962 . S
C4254 H4268 0.960 . S
C4255 C4252 1.511 . S
C4255 H4269 0.961 . S
C4255 H4270 0.961 . S
C4255 H4271 0.961 . S
C4256 C4257 1.370 . S
C4256 C4258 1.363 . S
C4256 H4272 0.931 . S
C4257 C4256 1.370 . S
C4257 C4261 1.408 . S
C4258 C4256 1.363 . S
C4258 C4259 1.370 . S
C4258 C4262 1.524 . S
C4259 C4251 1.503 . S
C4259 C4258 1.370 . S
C4259 C4260 1.403 . S
C4260 C4259 1.403 . S
C4260 C4261 1.404 . S
C4260 C4263 1.539 . S
C4261 C4257 1.408 . S
C4261 C4260 1.404 . S
C4261 H4273 0.930 . S
C4262 C4258 1.524 . S
C4262 H4274 0.956 . S
C4262 H4275 0.961 . S
C4262 H4276 0.961 . S
C4263 C4260 1.539 . S
C4263 H4277 0.958 . S
C4263 H4278 0.961 . S
C4263 H4279 0.960 . S
H4264 C4248 0.931 . S
H4265 C4253 0.929 . S
H4266 C4254 0.960 . S
H4267 C4254 0.962 . S
H4268 C4254 0.960 . S
H4269 C4255 0.961 . S
H4270 C4255 0.961 . S
H4271 C4255 0.961 . S
H4272 C4256 0.931 . S
H4273 C4261 0.930 . S
H4274 C4262 0.956 . S
H4275 C4262 0.961 . S
H4276 C4262 0.961 . S
H4277 C4263 0.958 . S
H4278 C4263 0.961 . S
H4279 C4263 0.960 . S
C4280 C4281 1.391 . S
C4280 C4282 1.394 . S
C4280 H4296 0.931 . S
C4281 C4280 1.391 . S
C4281 C4285 1.376 . S
C4282 C4280 1.394 . S
C4282 C4283 1.369 . S
C4282 C4286 1.531 . S
C4283 C4282 1.369 . S
C4283 C4284 1.410 . S
C4283 C4291 1.503 . S
C4284 C4283 1.410 . S
C4284 C4285 1.392 . S
C4284 C4287 1.511 . S
C4285 C4281 1.376 . S
C4285 C4284 1.392 . S
C4285 H4297 0.929 . S
C4286 C4282 1.531 . S
C4286 H4298 0.960 1_655 S
C4286 H4299 0.962 1_655 S
C4286 H4300 0.960 . S
C4287 C4284 1.511 . S
C4287 H4301 0.961 . S
C4287 H4302 0.961 . S
C4287 H4303 0.961 . S
C4288 C4289 1.370 . S
C4288 C4290 1.340 1_455 S
C4288 H4304 0.931 . S
C4289 C4288 1.370 . S
C4289 C4293 1.405 1_455 S
C4290 C4288 1.340 1_655 S
C4290 C4291 1.401 . S
C4290 C4294 1.526 . S
C4291 C4283 1.503 . S
C4291 C4290 1.401 . S
C4291 C4292 1.403 . S
C4292 C4291 1.403 . S
C4292 C4293 1.406 . S
C4292 C4295 1.539 . S
C4293 C4289 1.405 1_655 S
C4293 C4292 1.406 . S
C4293 H4305 0.930 1_655 S
C4294 C4290 1.526 . S
C4294 H4306 0.945 1_655 S
C4294 H4307 0.999 . S
C4294 H4308 0.926 1_655 S
C4295 C4292 1.539 . S
C4295 H4309 0.958 . S
C4295 H4310 0.961 . S
C4295 H4311 0.960 . S
H4296 C4280 0.931 . S
H4297 C4285 0.929 . S
H4298 C4286 0.960 1_455 S
H4299 C4286 0.962 1_455 S
H4300 C4286 0.960 . S
H4301 C4287 0.961 . S
H4302 C4287 0.961 . S
H4303 C4287 0.961 . S
H4304 C4288 0.931 . S
H4305 C4293 0.930 1_455 S
H4306 C4294 0.945 1_455 S
H4307 C4294 0.999 . S
H4308 C4294 0.926 1_455 S
H4309 C4295 0.958 . S
H4310 C4295 0.961 . S
H4311 C4295 0.960 . S
C4312 C4313 1.391 . S
C4312 C4314 1.394 . S
C4312 H4328 0.931 . S
C4313 C4312 1.391 . S
C4313 C4317 1.376 . S
C4314 C4312 1.394 . S
C4314 C4315 1.369 . S
C4314 C4318 1.531 . S
C4315 C4314 1.369 . S
C4315 C4316 1.410 . S
C4315 C4323 1.503 . S
C4316 C4315 1.410 . S
C4316 C4317 1.392 . S
C4316 C4319 1.511 . S
C4317 C4313 1.376 . S
C4317 C4316 1.392 . S
C4317 H4329 0.929 . S
C4318 C4314 1.531 . S
C4318 H4330 0.960 . S
C4318 H4331 0.962 . S
C4318 H4332 0.960 . S
C4319 C4316 1.511 . S
C4319 H4333 0.961 . S
C4319 H4334 0.961 . S
C4319 H4335 0.961 . S
C4320 C4321 1.370 . S
C4320 C4322 1.363 . S
C4320 H4336 0.931 . S
C4321 C4320 1.370 . S
C4321 C4325 1.408 . S
C4322 C4320 1.363 . S
C4322 C4323 1.370 . S
C4322 C4326 1.524 . S
C4323 C4315 1.503 . S
C4323 C4322 1.370 . S
C4323 C4324 1.403 . S
C4324 C4323 1.403 . S
C4324 C4325 1.404 . S
C4324 C4327 1.539 . S
C4325 C4321 1.408 . S
C4325 C4324 1.404 . S
C4325 H4337 0.930 . S
C4326 C4322 1.524 . S
C4326 H4338 0.956 . S
C4326 H4339 0.961 . S
C4326 H4340 0.961 . S
C4327 C4324 1.539 . S
C4327 H4341 0.958 . S
C4327 H4342 0.961 . S
C4327 H4343 0.960 . S
H4328 C4312 0.931 . S
H4329 C4317 0.929 . S
H4330 C4318 0.960 . S
H4331 C4318 0.962 . S
H4332 C4318 0.960 . S
H4333 C4319 0.961 . S
H4334 C4319 0.961 . S
H4335 C4319 0.961 . S
H4336 C4320 0.931 . S
H4337 C4325 0.930 . S
H4338 C4326 0.956 . S
H4339 C4326 0.961 . S
H4340 C4326 0.961 . S
H4341 C4327 0.958 . S
H4342 C4327 0.961 . S
H4343 C4327 0.960 . S
C4344 C4345 1.391 . S
C4344 C4346 1.394 . S
C4344 H4360 0.931 . S
C4345 C4344 1.391 . S
C4345 C4349 1.376 . S
C4346 C4344 1.394 . S
C4346 C4347 1.369 . S
C4346 C4350 1.531 . S
C4347 C4346 1.369 . S
C4347 C4348 1.410 . S
C4347 C4355 1.503 . S
C4348 C4347 1.410 . S
C4348 C4349 1.392 . S
C4348 C4351 1.511 . S
C4349 C4345 1.376 . S
C4349 C4348 1.392 . S
C4349 H4361 0.929 . S
C4350 C4346 1.531 . S
C4350 H4362 0.960 . S
C4350 H4363 0.962 . S
C4350 H4364 0.960 . S
C4351 C4348 1.511 . S
C4351 H4365 0.961 . S
C4351 H4366 0.961 . S
C4351 H4367 0.961 . S
C4352 C4353 1.370 . S
C4352 C4354 1.363 . S
C4352 H4368 0.931 . S
C4353 C4352 1.370 . S
C4353 C4357 1.408 . S
C4354 C4352 1.363 . S
C4354 C4355 1.370 . S
C4354 C4358 1.524 . S
C4355 C4347 1.503 . S
C4355 C4354 1.370 . S
C4355 C4356 1.403 . S
C4356 C4355 1.403 . S
C4356 C4357 1.404 . S
C4356 C4359 1.539 . S
C4357 C4353 1.408 . S
C4357 C4356 1.404 . S
C4357 H4369 0.930 . S
C4358 C4354 1.524 . S
C4358 H4370 0.956 . S
C4358 H4371 0.961 . S
C4358 H4372 0.961 . S
C4359 C4356 1.539 . S
C4359 H4373 0.958 . S
C4359 H4374 0.961 . S
C4359 H4375 0.960 . S
H4360 C4344 0.931 . S
H4361 C4349 0.929 . S
H4362 C4350 0.960 . S
H4363 C4350 0.962 . S
H4364 C4350 0.960 . S
H4365 C4351 0.961 . S
H4366 C4351 0.961 . S
H4367 C4351 0.961 . S
H4368 C4352 0.931 . S
H4369 C4357 0.930 . S
H4370 C4358 0.956 . S
H4371 C4358 0.961 . S
H4372 C4358 0.961 . S
H4373 C4359 0.958 . S
H4374 C4359 0.961 . S
H4375 C4359 0.960 . S
C4376 C4377 1.391 . S
C4376 C4378 1.394 . S
C4376 H4392 0.931 . S
C4377 C4376 1.391 . S
C4377 C4381 1.376 . S
C4378 C4376 1.394 . S
C4378 C4379 1.369 . S
C4378 C4382 1.531 . S
C4379 C4378 1.369 . S
C4379 C4380 1.410 . S
C4379 C4387 1.503 . S
C4380 C4379 1.410 . S
C4380 C4381 1.392 . S
C4380 C4383 1.511 . S
C4381 C4377 1.376 . S
C4381 C4380 1.392 . S
C4381 H4393 0.929 . S
C4382 C4378 1.531 . S
C4382 H4394 0.960 . S
C4382 H4395 0.962 . S
C4382 H4396 0.960 . S
C4383 C4380 1.511 . S
C4383 H4397 0.961 . S
C4383 H4398 0.961 . S
C4383 H4399 0.961 . S
C4384 C4385 1.370 . S
C4384 C4386 1.363 . S
C4384 H4400 0.931 . S
C4385 C4384 1.370 . S
C4385 C4389 1.408 . S
C4386 C4384 1.363 . S
C4386 C4387 1.370 . S
C4386 C4390 1.524 . S
C4387 C4379 1.503 . S
C4387 C4386 1.370 . S
C4387 C4388 1.403 . S
C4388 C4387 1.403 . S
C4388 C4389 1.404 . S
C4388 C4391 1.539 . S
C4389 C4385 1.408 . S
C4389 C4388 1.404 . S
C4389 H4401 0.930 . S
C4390 C4386 1.524 . S
C4390 H4402 0.956 . S
C4390 H4403 0.961 . S
C4390 H4404 0.961 . S
C4391 C4388 1.539 . S
C4391 H4405 0.958 . S
C4391 H4406 0.961 . S
C4391 H4407 0.960 . S
H4392 C4376 0.931 . S
H4393 C4381 0.929 . S
H4394 C4382 0.960 . S
H4395 C4382 0.962 . S
H4396 C4382 0.960 . S
H4397 C4383 0.961 . S
H4398 C4383 0.961 . S
H4399 C4383 0.961 . S
H4400 C4384 0.931 . S
H4401 C4389 0.930 . S
H4402 C4390 0.956 . S
H4403 C4390 0.961 . S
H4404 C4390 0.961 . S
H4405 C4391 0.958 . S
H4406 C4391 0.961 . S
H4407 C4391 0.960 . S
C4408 C4409 1.391 . S
C4408 C4410 1.394 . S
C4408 H4424 0.931 . S
C4409 C4408 1.391 . S
C4409 C4413 1.376 . S
C4410 C4408 1.394 . S
C4410 C4411 1.369 . S
C4410 C4414 1.531 . S
C4411 C4410 1.369 . S
C4411 C4412 1.410 . S
C4411 C4419 1.503 . S
C4412 C4411 1.410 . S
C4412 C4413 1.392 . S
C4412 C4415 1.511 . S
C4413 C4409 1.376 . S
C4413 C4412 1.392 . S
C4413 H4425 0.929 . S
C4414 C4410 1.531 . S
C4414 H4426 0.960 . S
C4414 H4427 0.962 . S
C4414 H4428 0.960 . S
C4415 C4412 1.511 . S
C4415 H4429 0.961 . S
C4415 H4430 0.961 . S
C4415 H4431 0.961 . S
C4416 C4417 1.370 . S
C4416 C4418 1.363 . S
C4416 H4432 0.931 . S
C4417 C4416 1.370 . S
C4417 C4421 1.427 . S
C4418 C4416 1.363 . S
C4418 C4419 1.370 . S
C4418 C4422 1.524 . S
C4419 C4411 1.503 . S
C4419 C4418 1.370 . S
C4419 C4420 1.403 . S
C4420 C4419 1.403 . S
C4420 C4421 1.421 . S
C4420 C4423 1.539 1_655 S
C4421 C4417 1.427 . S
C4421 C4420 1.421 . S
C4421 H4433 0.896 1_655 S
C4422 C4418 1.524 . S
C4422 H4434 0.956 . S
C4422 H4435 0.961 . S
C4422 H4436 0.961 . S
C4423 C4420 1.539 1_455 S
C4423 H4437 0.958 . S
C4423 H4438 0.961 . S
C4423 H4439 0.960 . S
H4424 C4408 0.931 . S
H4425 C4413 0.929 . S
H4426 C4414 0.960 . S
H4427 C4414 0.962 . S
H4428 C4414 0.960 . S
H4429 C4415 0.961 . S
H4430 C4415 0.961 . S
H4431 C4415 0.961 . S
H4432 C4416 0.931 . S
H4433 C4421 0.896 1_455 S
H4434 C4422 0.956 . S
H4435 C4422 0.961 . S
H4436 C4422 0.961 . S
H4437 C4423 0.958 . S
H4438 C4423 0.961 . S
H4439 C4423 0.960 . S
C4440 C4441 1.391 . S
C4440 C4442 1.394 . S
C4440 H4456 0.931 . S
C4441 C4440 1.391 . S
C4441 C4445 1.376 . S
C4442 C4440 1.394 . S
C4442 C4443 1.369 . S
C4442 C4446 1.531 . S
C4443 C4442 1.369 . S
C4443 C4444 1.410 . S
C4443 C4451 1.503 . S
C4444 C4443 1.410 . S
C4444 C4445 1.392 . S
C4444 C4447 1.511 . S
C4445 C4441 1.376 . S
C4445 C4444 1.392 . S
C4445 H4457 0.929 . S
C4446 C4442 1.531 . S
C4446 H4458 0.960 . S
C4446 H4459 0.962 . S
C4446 H4460 0.960 . S
C4447 C4444 1.511 . S
C4447 H4461 0.961 . S
C4447 H4462 0.961 . S
C4447 H4463 0.961 . S
C4448 C4449 1.370 . S
C4448 C4450 1.363 . S
C4448 H4464 0.931 . S
C4449 C4448 1.370 . S
C4449 C4453 1.408 . S
C4450 C4448 1.363 . S
C4450 C4451 1.370 . S
C4450 C4454 1.524 . S
C4451 C4443 1.503 . S
C4451 C4450 1.370 . S
C4451 C4452 1.403 . S
C4452 C4451 1.403 . S
C4452 C4453 1.404 . S
C4452 C4455 1.539 . S
C4453 C4449 1.408 . S
C4453 C4452 1.404 . S
C4453 H4465 0.930 . S
C4454 C4450 1.524 . S
C4454 H4466 0.956 . S
C4454 H4467 0.961 . S
C4454 H4468 0.961 . S
C4455 C4452 1.539 . S
C4455 H4469 0.958 . S
C4455 H4470 0.961 . S
C4455 H4471 0.960 . S
H4456 C4440 0.931 . S
H4457 C4445 0.929 . S
H4458 C4446 0.960 . S
H4459 C4446 0.962 . S
H4460 C4446 0.960 . S
H4461 C4447 0.961 . S
H4462 C4447 0.961 . S
H4463 C4447 0.961 . S
H4464 C4448 0.931 . S
H4465 C4453 0.930 . S
H4466 C4454 0.956 . S
H4467 C4454 0.961 . S
H4468 C4454 0.961 . S
H4469 C4455 0.958 . S
H4470 C4455 0.961 . S
H4471 C4455 0.960 . S
C4472 C4473 1.391 . S
C4472 C4474 1.394 . S
C4472 H4488 0.931 . S
C4473 C4472 1.391 . S
C4473 C4477 1.376 . S
C4474 C4472 1.394 . S
C4474 C4475 1.369 . S
C4474 C4478 1.531 . S
C4475 C4474 1.369 . S
C4475 C4476 1.410 . S
C4475 C4483 1.503 . S
C4476 C4475 1.410 . S
C4476 C4477 1.392 . S
C4476 C4479 1.511 . S
C4477 C4473 1.376 . S
C4477 C4476 1.392 . S
C4477 H4489 0.929 . S
C4478 C4474 1.531 . S
C4478 H4490 0.960 . S
C4478 H4491 0.962 . S
C4478 H4492 0.960 . S
C4479 C4476 1.511 . S
C4479 H4493 0.961 . S
C4479 H4494 0.961 . S
C4479 H4495 0.961 . S
C4480 C4481 1.370 . S
C4480 C4482 1.363 . S
C4480 H4496 0.931 . S
C4481 C4480 1.370 . S
C4481 C4485 1.408 . S
C4482 C4480 1.363 . S
C4482 C4483 1.370 . S
C4482 C4486 1.524 . S
C4483 C4475 1.503 . S
C4483 C4482 1.370 . S
C4483 C4484 1.403 . S
C4484 C4483 1.403 . S
C4484 C4485 1.404 . S
C4484 C4487 1.539 . S
C4485 C4481 1.408 . S
C4485 C4484 1.404 . S
C4485 H4497 0.930 . S
C4486 C4482 1.524 . S
C4486 H4498 0.956 . S
C4486 H4499 0.961 . S
C4486 H4500 0.961 . S
C4487 C4484 1.539 . S
C4487 H4501 0.958 . S
C4487 H4502 0.961 . S
C4487 H4503 0.960 . S
H4488 C4472 0.931 . S
H4489 C4477 0.929 . S
H4490 C4478 0.960 . S
H4491 C4478 0.962 . S
H4492 C4478 0.960 . S
H4493 C4479 0.961 . S
H4494 C4479 0.961 . S
H4495 C4479 0.961 . S
H4496 C4480 0.931 . S
H4497 C4485 0.930 . S
H4498 C4486 0.956 . S
H4499 C4486 0.961 . S
H4500 C4486 0.961 . S
H4501 C4487 0.958 . S
H4502 C4487 0.961 . S
H4503 C4487 0.960 . S
C4504 C4505 1.391 . S
C4504 C4506 1.394 . S
C4504 H4520 0.931 . S
C4505 C4504 1.391 . S
C4505 C4509 1.376 . S
C4506 C4504 1.394 . S
C4506 C4507 1.369 . S
C4506 C4510 1.531 . S
C4507 C4506 1.369 . S
C4507 C4508 1.410 . S
C4507 C4515 1.503 . S
C4508 C4507 1.410 . S
C4508 C4509 1.392 . S
C4508 C4511 1.511 . S
C4509 C4505 1.376 . S
C4509 C4508 1.392 . S
C4509 H4521 0.929 . S
C4510 C4506 1.531 . S
C4510 H4522 0.960 . S
C4510 H4523 0.962 . S
C4510 H4524 0.960 . S
C4511 C4508 1.511 . S
C4511 H4525 0.961 . S
C4511 H4526 0.961 . S
C4511 H4527 0.961 . S
C4512 C4513 1.370 . S
C4512 C4514 1.363 . S
C4512 H4528 0.931 . S
C4513 C4512 1.370 . S
C4513 C4517 1.408 . S
C4514 C4512 1.363 . S
C4514 C4515 1.370 . S
C4514 C4518 1.524 . S
C4515 C4507 1.503 . S
C4515 C4514 1.370 . S
C4515 C4516 1.403 . S
C4516 C4515 1.403 . S
C4516 C4517 1.404 . S
C4516 C4519 1.539 . S
C4517 C4513 1.408 . S
C4517 C4516 1.404 . S
C4517 H4529 0.957 . S
C4518 C4514 1.524 . S
C4518 H4530 0.956 . S
C4518 H4531 0.961 . S
C4518 H4532 0.961 . S
C4519 C4516 1.539 . S
C4519 H4533 0.958 . S
C4519 H4534 0.961 . S
C4519 H4535 0.960 . S
H4520 C4504 0.931 . S
H4521 C4509 0.929 . S
H4522 C4510 0.960 . S
H4523 C4510 0.962 . S
H4524 C4510 0.960 . S
H4525 C4511 0.961 . S
H4526 C4511 0.961 . S
H4527 C4511 0.961 . S
H4528 C4512 0.931 . S
H4529 C4517 0.957 . S
H4530 C4518 0.956 . S
H4531 C4518 0.961 . S
H4532 C4518 0.961 . S
H4533 C4519 0.958 . S
H4534 C4519 0.961 . S
H4535 C4519 0.960 . S
C4536 C4537 1.391 . S
C4536 C4538 1.394 . S
C4536 H4552 0.931 . S
C4537 C4536 1.391 . S
C4537 C4541 1.376 . S
C4538 C4536 1.394 . S
C4538 C4539 1.369 . S
C4538 C4542 1.531 . S
C4539 C4538 1.369 . S
C4539 C4540 1.410 . S
C4539 C4547 1.503 . S
C4540 C4539 1.410 . S
C4540 C4541 1.392 . S
C4540 C4543 1.511 . S
C4541 C4537 1.376 . S
C4541 C4540 1.392 . S
C4541 H4553 0.929 . S
C4542 C4538 1.531 . S
C4542 H4554 0.960 . S
C4542 H4555 0.962 . S
C4542 H4556 0.960 . S
C4543 C4540 1.511 . S
C4543 H4557 0.961 . S
C4543 H4558 0.961 . S
C4543 H4559 0.961 . S
C4544 C4545 1.370 . S
C4544 C4546 1.363 . S
C4544 H4560 0.931 . S
C4545 C4544 1.370 . S
C4545 C4549 1.408 . S
C4546 C4544 1.363 . S
C4546 C4547 1.370 . S
C4546 C4550 1.524 . S
C4547 C4539 1.503 . S
C4547 C4546 1.370 . S
C4547 C4548 1.403 . S
C4548 C4547 1.403 . S
C4548 C4549 1.404 . S
C4548 C4551 1.539 . S
C4549 C4545 1.408 . S
C4549 C4548 1.404 . S
C4549 H4561 0.930 . S
C4550 C4546 1.524 . S
C4550 H4562 0.956 . S
C4550 H4563 0.961 . S
C4550 H4564 0.961 . S
C4551 C4548 1.539 . S
C4551 H4565 0.958 . S
C4551 H4566 0.961 . S
C4551 H4567 0.960 . S
H4552 C4536 0.931 . S
H4553 C4541 0.929 . S
H4554 C4542 0.960 . S
H4555 C4542 0.962 . S
H4556 C4542 0.960 . S
H4557 C4543 0.961 . S
H4558 C4543 0.961 . S
H4559 C4543 0.961 . S
H4560 C4544 0.931 . S
H4561 C4549 0.930 . S
H4562 C4550 0.956 . S
H4563 C4550 0.961 . S
H4564 C4550 0.961 . S
H4565 C4551 0.958 . S
H4566 C4551 0.961 . S
H4567 C4551 0.960 . S
C4568 C4569 1.391 . S
C4568 C4570 1.394 . S
C4568 H4584 0.931 . S
C4569 C4568 1.391 . S
C4569 C4573 1.376 . S
C4570 C4568 1.394 . S
C4570 C4571 1.369 . S
C4570 C4574 1.531 1_554 S
C4571 C4570 1.369 . S
C4571 C4572 1.410 . S
C4571 C4579 1.503 . S
C4572 C4571 1.410 . S
C4572 C4573 1.392 . S
C4572 C4575 1.511 . S
C4573 C4569 1.376 . S
C4573 C4572 1.392 . S
C4573 H4585 0.929 . S
C4574 C4570 1.531 1_556 S
C4574 H4586 0.960 . S
C4574 H4587 0.962 1_556 S
C4574 H4588 0.960 . S
C4575 C4572 1.511 . S
C4575 H4589 0.961 . S
C4575 H4590 0.961 . S
C4575 H4591 0.961 . S
C4576 C4577 1.370 . S
C4576 C4578 1.363 . S
C4576 H4592 0.931 . S
C4577 C4576 1.370 . S
C4577 C4581 1.408 1_554 S
C4578 C4576 1.363 . S
C4578 C4579 1.370 . S
C4578 C4582 1.524 . S
C4579 C4571 1.503 . S
C4579 C4578 1.370 . S
C4579 C4580 1.403 1_554 S
C4580 C4579 1.403 1_556 S
C4580 C4581 1.404 . S
C4580 C4583 1.539 . S
C4581 C4577 1.408 1_556 S
C4581 C4580 1.404 . S
C4581 H4593 0.930 . S
C4582 C4578 1.524 . S
C4582 H4594 0.956 . S
C4582 H4595 0.961 . S
C4582 H4596 0.961 . S
C4583 C4580 1.539 . S
C4583 H4597 0.958 . S
C4583 H4598 0.961 . S
C4583 H4599 0.960 . S
H4584 C4568 0.931 . S
H4585 C4573 0.929 . S
H4586 C4574 0.960 . S
H4587 C4574 0.962 1_554 S
H4588 C4574 0.960 . S
H4589 C4575 0.961 . S
H4590 C4575 0.961 . S
H4591 C4575 0.961 . S
H4592 C4576 0.931 . S
H4593 C4581 0.930 . S
H4594 C4582 0.956 . S
H4595 C4582 0.961 . S
H4596 C4582 0.961 . S
H4597 C4583 0.958 . S
H4598 C4583 0.961 . S
H4599 C4583 0.960 . S
C4600 C4601 1.391 . S
C4600 C4602 1.394 . S
C4600 H4616 0.931 . S
C4601 C4600 1.391 . S
C4601 C4605 1.376 . S
C4602 C4600 1.394 . S
C4602 C4603 1.369 . S
C4602 C4606 1.531 . S
C4603 C4602 1.369 . S
C4603 C4604 1.410 . S
C4603 C4611 1.503 . S
C4604 C4603 1.410 . S
C4604 C4605 1.392 . S
C4604 C4607 1.511 . S
C4605 C4601 1.376 . S
C4605 C4604 1.392 . S
C4605 H4617 0.929 . S
C4606 C4602 1.531 . S
C4606 H4618 0.960 . S
C4606 H4619 0.962 . S
C4606 H4620 0.960 . S
C4607 C4604 1.511 . S
C4607 H4621 0.961 . S
C4607 H4622 0.961 . S
C4607 H4623 0.961 . S
C4608 C4609 1.370 . S
C4608 C4610 1.363 . S
C4608 H4624 0.931 . S
C4609 C4608 1.370 . S
C4609 C4613 1.408 . S
C4610 C4608 1.363 . S
C4610 C4611 1.370 . S
C4610 C4614 1.524 . S
C4611 C4603 1.503 . S
C4611 C4610 1.370 . S
C4611 C4612 1.403 . S
C4612 C4611 1.403 . S
C4612 C4613 1.404 . S
C4612 C4615 1.539 . S
C4613 C4609 1.408 . S
C4613 C4612 1.404 . S
C4613 H4625 0.930 . S
C4614 C4610 1.524 . S
C4614 H4626 0.956 . S
C4614 H4627 0.961 . S
C4614 H4628 0.961 . S
C4615 C4612 1.539 . S
C4615 H4629 0.958 . S
C4615 H4630 0.961 . S
C4615 H4631 0.960 . S
H4616 C4600 0.931 . S
H4617 C4605 0.929 . S
H4618 C4606 0.960 . S
H4619 C4606 0.962 . S
H4620 C4606 0.960 . S
H4621 C4607 0.961 . S
H4622 C4607 0.961 . S
H4623 C4607 0.961 . S
H4624 C4608 0.931 . S
H4625 C4613 0.930 . S
H4626 C4614 0.956 . S
H4627 C4614 0.961 . S
H4628 C4614 0.961 . S
H4629 C4615 0.958 . S
H4630 C4615 0.961 . S
H4631 C4615 0.960 . S
C4632 C4633 1.391 . S
C4632 C4634 1.394 . S
C4632 H4648 0.931 . S
C4633 C4632 1.391 . S
C4633 C4637 1.376 . S
C4634 C4632 1.394 . S
C4634 C4635 1.369 . S
C4634 C4638 1.531 1_554 S
C4635 C4634 1.369 . S
C4635 C4636 1.410 . S
C4635 C4643 1.503 . S
C4636 C4635 1.410 . S
C4636 C4637 1.392 . S
C4636 C4639 1.511 . S
C4637 C4633 1.376 . S
C4637 C4636 1.392 . S
C4637 H4649 0.929 . S
C4638 C4634 1.531 1_556 S
C4638 H4650 0.960 . S
C4638 H4651 0.962 . S
C4638 H4652 0.960 . S
C4639 C4636 1.511 . S
C4639 H4653 0.961 . S
C4639 H4654 0.961 . S
C4639 H4655 0.961 . S
C4640 C4641 1.370 . S
C4640 C4642 1.363 . S
C4640 H4656 0.931 . S
C4641 C4640 1.370 . S
C4641 C4645 1.408 . S
C4642 C4640 1.363 . S
C4642 C4643 1.370 . S
C4642 C4646 1.524 . S
C4643 C4635 1.503 . S
C4643 C4642 1.370 . S
C4643 C4644 1.403 . S
C4644 C4643 1.403 . S
C4644 C4645 1.404 . S
C4644 C4647 1.539 . S
C4645 C4641 1.408 . S
C4645 C4644 1.404 . S
C4645 H4657 0.930 . S
C4646 C4642 1.524 . S
C4646 H4658 0.956 . S
C4646 H4659 0.961 . S
C4646 H4660 0.961 . S
C4647 C4644 1.539 . S
C4647 H4661 0.958 . S
C4647 H4662 0.961 . S
C4647 H4663 0.960 . S
H4648 C4632 0.931 . S
H4649 C4637 0.929 . S
H4650 C4638 0.960 . S
H4651 C4638 0.962 . S
H4652 C4638 0.960 . S
H4653 C4639 0.961 . S
H4654 C4639 0.961 . S
H4655 C4639 0.961 . S
H4656 C4640 0.931 . S
H4657 C4645 0.930 . S
H4658 C4646 0.956 . S
H4659 C4646 0.961 . S
H4660 C4646 0.961 . S
H4661 C4647 0.958 . S
H4662 C4647 0.961 . S
H4663 C4647 0.960 . S
C4664 C4665 1.391 . S
C4664 C4666 1.394 . S
C4664 H4680 0.931 . S
C4665 C4664 1.391 . S
C4665 C4669 1.376 . S
C4666 C4664 1.394 . S
C4666 C4667 1.369 . S
C4666 C4670 1.531 . S
C4667 C4666 1.369 . S
C4667 C4668 1.410 . S
C4667 C4675 1.503 . S
C4668 C4667 1.410 . S
C4668 C4669 1.392 . S
C4668 C4671 1.511 . S
C4669 C4665 1.376 . S
C4669 C4668 1.392 . S
C4669 H4681 0.929 . S
C4670 C4666 1.531 . S
C4670 H4682 0.960 . S
C4670 H4683 0.962 . S
C4670 H4684 0.960 . S
C4671 C4668 1.511 . S
C4671 H4685 0.961 . S
C4671 H4686 0.961 . S
C4671 H4687 0.961 . S
C4672 C4673 1.370 . S
C4672 C4674 1.363 . S
C4672 H4688 0.931 . S
C4673 C4672 1.370 . S
C4673 C4677 1.408 . S
C4674 C4672 1.363 . S
C4674 C4675 1.370 . S
C4674 C4678 1.524 . S
C4675 C4667 1.503 . S
C4675 C4674 1.370 . S
C4675 C4676 1.403 . S
C4676 C4675 1.403 . S
C4676 C4677 1.404 . S
C4676 C4679 1.539 . S
C4677 C4673 1.408 . S
C4677 C4676 1.404 . S
C4677 H4689 0.930 . S
C4678 C4674 1.524 . S
C4678 H4690 0.956 . S
C4678 H4691 0.961 . S
C4678 H4692 0.961 . S
C4679 C4676 1.539 . S
C4679 H4693 0.958 . S
C4679 H4694 0.961 . S
C4679 H4695 0.960 . S
H4680 C4664 0.931 . S
H4681 C4669 0.929 . S
H4682 C4670 0.960 . S
H4683 C4670 0.962 . S
H4684 C4670 0.960 . S
H4685 C4671 0.961 . S
H4686 C4671 0.961 . S
H4687 C4671 0.961 . S
H4688 C4672 0.931 . S
H4689 C4677 0.930 . S
H4690 C4678 0.956 . S
H4691 C4678 0.961 . S
H4692 C4678 0.961 . S
H4693 C4679 0.958 . S
H4694 C4679 0.961 . S
H4695 C4679 0.960 . S
C4696 C4697 1.391 . S
C4696 C4698 1.394 . S
C4696 H4712 0.931 . S
C4697 C4696 1.391 . S
C4697 C4701 1.376 . S
C4698 C4696 1.394 . S
C4698 C4699 1.369 . S
C4698 C4702 1.531 . S
C4699 C4698 1.369 . S
C4699 C4700 1.410 . S
C4699 C4707 1.503 . S
C4700 C4699 1.410 . S
C4700 C4701 1.392 . S
C4700 C4703 1.511 . S
C4701 C4697 1.376 . S
C4701 C4700 1.392 . S
C4701 H4713 0.929 . S
C4702 C4698 1.531 . S
C4702 H4714 0.960 . S
C4702 H4715 0.962 . S
C4702 H4716 0.960 . S
C4703 C4700 1.511 . S
C4703 H4717 0.961 . S
C4703 H4718 0.961 . S
C4703 H4719 0.961 . S
C4704 C4705 1.370 . S
C4704 C4706 1.363 . S
C4704 H4720 0.931 . S
C4705 C4704 1.370 . S
C4705 C4709 1.408 . S
C4706 C4704 1.363 . S
C4706 C4707 1.370 . S
C4706 C4710 1.524 . S
C4707 C4699 1.503 . S
C4707 C4706 1.370 . S
C4707 C4708 1.403 . S
C4708 C4707 1.403 . S
C4708 C4709 1.404 . S
C4708 C4711 1.539 . S
C4709 C4705 1.408 . S
C4709 C4708 1.404 . S
C4709 H4721 0.930 . S
C4710 C4706 1.524 . S
C4710 H4722 0.956 . S
C4710 H4723 0.961 . S
C4710 H4724 0.961 . S
C4711 C4708 1.539 . S
C4711 H4725 0.958 . S
C4711 H4726 0.961 . S
C4711 H4727 0.960 . S
H4712 C4696 0.931 . S
H4713 C4701 0.929 . S
H4714 C4702 0.960 . S
H4715 C4702 0.962 . S
H4716 C4702 0.960 . S
H4717 C4703 0.961 . S
H4718 C4703 0.961 . S
H4719 C4703 0.961 . S
H4720 C4704 0.931 . S
H4721 C4709 0.930 . S
H4722 C4710 0.956 . S
H4723 C4710 0.961 . S
H4724 C4710 0.961 . S
H4725 C4711 0.958 . S
H4726 C4711 0.961 . S
H4727 C4711 0.960 . S
C1657 C101 1.733 . S
C1665 C368 1.564 . S
C1689 C57 2.162 . S
C1697 C459 2.141 . S
C1721 C70 1.388 . S
C1729 C536 1.279 . S
C1761 C634 1.458 . S
C1753 C82 1.539 . S
C1785 C23 1.605 . S
C1793 C718 1.585 . S
C1825 C790 0.851 . S
C1817 C29 0.904 . S
C1857 C879 0.817 . S
C1849 C49 0.866 . S
C1881 C10 1.535 . S
C1889 C956 1.349 . S
C1921 C375 1.927 . S
C1913 C218 2.029 . S
C1945 C226 0.709 . S
C1953 C466 0.705 . S
C1985 C543 1.233 . S
C1977 C251 1.233 . S
C2017 C620 1.406 . S
C2009 C159 1.534 . S
C2041 C211 2.086 . S
C2049 C704 1.889 . S
C2081 C806 1.143 . S
C2073 C225 1.193 . S
C2113 C886 0.810 . S
C2105 C252 0.805 . S
C2145 C963 1.478 . S
C2137 C166 1.610 . S
C2177 C382 1.411 . S
C2169 C147 1.476 . S
C2201 C263 1.885 . S
C2209 C1047 1.821 1_556 S
C2241 C1135 2.150 . S
C2233 C309 2.370 . S
C2273 C1208 0.532 1_655 S
C2265 C291 0.373 . S
C2297 C108 1.140 . S
C2305 C970 1.148 . S
C2329 C121 1.505 . S
C2337 C550 1.480 . S
C2361 C302 2.173 . S
C2369 C1299 2.102 . S
C2401 C1376 0.716 . S
C2393 C276 0.708 . S
C2433 C379 1.835 1_565 S
C2425 C55 1.921 . S
C2465 C1394 2.358 . S
C2457 C96 2.405 . S
C2489 C88 1.740 . S
C2497 C547 1.661 . S
C2521 C75 1.783 . S
C2529 C1294 1.648 . S
C2561 C706 1.609 . S
C2553 C4 1.664 . S
C2585 C44 1.137 . S
C2593 C1138 1.080 . S
C2625 C890 1.227 1_565 S
C2617 C31 1.211 . S
C2657 C1471 1.534 . S
C2649 C18 1.641 . S
C2689 C386 2.194 . S
C2681 C133 2.299 . S
C2721 C1378 0.871 . S
C2713 C296 0.881 . S
C2745 C107 1.408 . S
C2753 C554 1.382 . S
C2777 C264 1.858 . S
C2785 C1303 1.747 . S
C2809 C140 2.291 . S
C2817 C715 2.139 . S
C2849 C1131 1.263 . S
C2841 C289 1.343 . S
C2873 C114 0.996 . S
C2881 C874 0.933 . S
C2905 C265 1.853 . S
C2913 C1478 1.733 . S
C2937 C179 1.580 . S
C2945 C370 1.482 . S
C2969 C161 2.125 . S
C2977 C1058 2.046 . S
C3001 C244 2.611 . S
C3009 C788 2.439 . S
C3033 C224 0.846 . S
C3041 C1219 0.850 . S
C3073 C1462 0.955 . S
C3065 C257 0.984 1_565 S
C3097 C199 1.573 . S
C3105 C538 1.500 . S
C3137 C638 2.335 . S
C3129 C237 2.436 . S
C3169 C463 0.925 . S
C3161 C185 0.980 . S
C3193 C69 1.741 . S
C3201 C1544 1.555 . S
C3233 C1383 2.140 . S
C3225 C83 2.159 . S
C3257 C94 1.392 . S
C3265 C1628 1.289 . S
C3289 C56 1.549 . S
C3297 C1306 1.467 . S
C3321 C42 1.623 . S
C3329 C1054 1.595 . S
C3361 C1126 0.869 . S
C3353 C3 0.902 . S
C3393 C1215 0.829 . S
C3385 C16 0.802 . S
C3425 C1460 1.308 . S
C3417 C36 1.582 . S
C3457 C1551 1.937 . S
C3449 C238 2.037 . S
C3481 C174 0.769 . S
C3489 C1390 0.725 . S
C3521 C1635 1.222 . S
C3513 C186 1.222 . S
C3553 C1292 1.407 . S
C3545 C198 1.533 . S
C3585 C1040 1.904 . S
C3577 C239 2.074 . S
C3609 C173 1.245 . S
C3617 C1142 1.092 . S
C3649 C1222 0.809 . S
C3641 C187 0.812 . S
C3673 C205 1.599 . S
C3681 C1467 1.464 . S
C3713 C1558 1.419 . S
C3705 C290 1.489 . S
C3737 C122 1.868 . S
C3745 C711 1.817 . S
C3777 C799 2.183 . S
C3769 C134 2.367 . S
C3809 C872 0.614 . S
C3801 C148 0.337 . S
C3841 C1474 1.152 . S
C3833 C283 1.146 . S
C3865 C270 1.475 . S
C3873 C1642 1.481 . S
C3905 C627 2.108 . S
C3897 C135 2.173 . S
C3937 C452 0.687 . S
C3929 C109 0.659 . S
C3961 C81 1.940 . S
C3969 C1555 1.807 . S
C4001 C470 2.343 . S
C3993 C68 2.387 . S
C4025 C62 1.741 . S
C4033 C1639 1.656 . S
C4057 C95 1.774 . S
C4065 C622 1.636 . S
C4089 C30 1.670 . S
C4097 C1042 1.616 . S
C4129 C802 1.073 . S
C4121 C17 1.133 . S
C4153 C5 1.171 . S
C4161 C1226 1.221 . S
C4185 C43 1.651 . S
C4193 C967 1.507 . S
C4225 C1562 2.193 . S
C4217 C304 2.299 . S
C4249 C153 0.866 . S
C4257 C454 0.805 . S
C4289 C1646 1.376 . S
C4281 C278 1.424 . S
C4313 C127 1.863 . S
C4321 C631 1.751 . S
C4345 C303 2.287 . S
C4353 C1051 2.131 . S
C4385 C795 1.262 . S
C4377 C146 1.341 . S
C4409 C277 0.979 . S
C4417 C1210 0.899 . S
C4449 C974 1.718 . S
C4441 C120 1.854 . S
C4481 C1546 1.484 . S
C4473 C231 1.581 . S
C4513 C722 2.064 1_665 S
C4505 C200 2.134 . S
C4537 C212 2.615 . S
C4545 C1124 2.438 . S
C4577 C883 0.822 . S
C4569 C172 0.849 . S
C4601 C192 0.914 . S
C4609 C958 0.915 . S
C4633 C160 1.594 . S
C4641 C1630 1.522 . S
C4673 C1310 2.336 . S
C4665 C213 2.439 1_565 S
C4705 C1387 0.936 . S
C4697 C250 0.982 . S
