# Generated by pormake.
# Topology csq, (4,8)-cn, num edge types: 1
# Building blocks:
#     Node 0, Type 0, BuildingBlock: KOZSID_clean_sbu_0, # of connection points: 4
#     Node 1, Type 0, BuildingBlock: KOZSID_clean_sbu_0, # of connection points: 4
#     Node 2, Type 0, BuildingBlock: KOZSID_clean_sbu_0, # of connection points: 4
#     Node 3, Type 0, BuildingBlock: KOZSID_clean_sbu_0, # of connection points: 4
#     Node 4, Type 0, BuildingBlock: KOZSID_clean_sbu_0, # of connection points: 4
#     Node 5, Type 0, BuildingBlock: KOZSID_clean_sbu_0, # of connection points: 4
#     Node 6, Type 1, BuildingBlock: TAGTUT_clean_sbu_3, # of connection points: 8
#     Node 7, Type 1, BuildingBlock: TAGTUT_clean_sbu_3, # of connection points: 8
#     Node 8, Type 1, BuildingBlock: TAGTUT_clean_sbu_3, # of connection points: 8
#     Edge 9, Type (0, 1), None
#     Edge 10, Type (0, 1), None
#     Edge 11, Type (0, 1), None
#     Edge 12, Type (0, 1), None
#     Edge 13, Type (0, 1), None
#     Edge 14, Type (0, 1), None
#     Edge 15, Type (0, 1), None
#     Edge 16, Type (0, 1), None
#     Edge 17, Type (0, 1), None
#     Edge 18, Type (0, 1), None
#     Edge 19, Type (0, 1), None
#     Edge 20, Type (0, 1), None
#     Edge 21, Type (0, 1), None
#     Edge 22, Type (0, 1), None
#     Edge 23, Type (0, 1), None
#     Edge 24, Type (0, 1), None
#     Edge 25, Type (0, 1), None
#     Edge 26, Type (0, 1), None
#     Edge 27, Type (0, 1), None
#     Edge 28, Type (0, 1), None
#     Edge 29, Type (0, 1), None
#     Edge 30, Type (0, 1), None
#     Edge 31, Type (0, 1), None
#     Edge 32, Type (0, 1), None
# Relax obj value: 0.046
# Max RMSD: 0.129
# Mean RMSD: 0.039
data_MOF--net-csq--node1-KOZSID_clean_sbu_0--node2-TAGTUT_clean_sbu_3--edge1-none
_symmetry_space_group_name_H-M    P1
_symmetry_Int_Tables_number       1
_symmetry_cell_setting            triclinic
loop_
_symmetry_equiv_pos_as_xyz
'x, y, z'
_cell_length_a     30.022916
_cell_length_b     29.36206
_cell_length_c     10.987798
_cell_angle_alpha  84.872087
_cell_angle_beta   102.78392
_cell_angle_gamma 120.11096
loop_
_atom_site_label
_atom_site_type_symbol
_atom_site_fract_x
_atom_site_fract_y
_atom_site_fract_z
_atom_type_partial_charge
C0 C 0.35066 0.52327 0.45886 0.0
C1 C 0.39281 0.5736 0.4901 0.0
C2 C 0.37888 0.60761 0.42065 0.0
C3 C 0.32902 0.57622 0.35231 0.0
N4 N 0.31054 0.52497 0.37757 0.0
Co5 Co 0.24575 0.46365 0.28937 0.0
N6 N 0.23604 0.50715 0.14997 0.0
C7 C 0.26319 0.56017 0.14525 0.0
C8 C 0.24584 0.57903 0.03722 0.0
C9 C 0.20405 0.53533 0.97247 0.0
C10 C 0.19843 0.49212 0.04472 0.0
N11 N 0.18271 0.40009 0.20058 0.0
C12 C 0.15549 0.39439 0.08192 0.0
C13 C 0.11592 0.34232 0.05512 0.0
C14 C 0.11654 0.31545 0.16315 0.0
C15 C 0.15673 0.35212 0.24888 0.0
N16 N 0.25294 0.42027 0.43029 0.0
C17 C 0.21484 0.3748 0.46464 0.0
C18 C 0.23138 0.35833 0.57774 0.0
C19 C 0.28333 0.39558 0.61464 0.0
C20 C 0.29539 0.4318 0.51966 0.0
N21 N 0.20128 0.47863 0.3757 0.0
C22 C 0.14008 0.50415 0.49531 0.0
C23 C 0.1198 0.47797 0.37835 0.0
C24 C 0.15051 0.4657 0.32124 0.0
C25 C 0.19188 0.51652 0.5515 0.0
C26 C 0.2215 0.50371 0.49103 0.0
N27 N 0.29277 0.45227 0.20505 0.0
C28 C 0.3288 0.40083 0.14799 0.0
C29 C 0.36825 0.44526 0.09865 0.0
C30 C 0.36768 0.49216 0.10169 0.0
C31 C 0.33 0.49467 0.15273 0.0
C32 C 0.29234 0.40537 0.20308 0.0
H33 H 0.33162 0.53181 0.14874 0.0
H34 H 0.2636 0.37097 0.24275 0.0
H35 H 0.13182 0.44354 0.23543 0.0
H36 H 0.26034 0.51267 0.54075 0.0
C37 C 0.30543 0.59056 0.24252 0.0
C38 C 0.3475 0.4733 0.5051 0.0
C39 C 0.15297 0.43864 0.01616 0.0
C40 C 0.17048 0.34318 0.37525 0.0
H41 H 0.43009 0.58455 0.5529 0.0
H42 H 0.40396 0.6496 0.41296 0.0
H43 H 0.26088 0.61968 0.01021 0.0
H44 H 0.17905 0.53516 0.88455 0.0
H45 H 0.08621 0.32661 0.97048 0.0
H46 H 0.08941 0.27468 0.17865 0.0
H47 H 0.20973 0.32173 0.62303 0.0
H48 H 0.30976 0.39447 0.69785 0.0
H49 H 0.07901 0.4641 0.33394 0.0
H50 H 0.20859 0.53341 0.64534 0.0
H51 H 0.32566 0.36266 0.14277 0.0
H52 H 0.39475 0.52644 0.05792 0.0
C53 C 0.88108 0.28416 0.98511 0.0
C54 C 0.91898 0.27175 0.97193 0.0
C55 C 0.91593 0.23302 0.05456 0.0
C56 C 0.87625 0.22314 0.11296 0.0
N57 N 0.85219 0.25136 0.06821 0.0
Co58 Co 0.79422 0.24995 0.13402 0.0
N59 N 0.78867 0.1927 0.24994 0.0
C60 C 0.82637 0.17966 0.29 0.0
C61 C 0.81457 0.14263 0.38045 0.0
C62 C 0.76586 0.1308 0.39597 0.0
C63 C 0.74947 0.16038 0.31058 0.0
N64 N 0.73328 0.24543 0.19037 0.0
C65 C 0.6954 0.20438 0.24158 0.0
C66 C 0.65884 0.21701 0.26296 0.0
C67 C 0.67233 0.26586 0.21535 0.0
C68 C 0.71652 0.28078 0.17011 0.0
N69 N 0.80168 0.31029 0.02426 0.0
C70 C 0.77371 0.33533 0.01425 0.0
C71 C 0.79016 0.37823 0.93942 0.0
C72 C 0.83338 0.38281 0.90617 0.0
C73 C 0.84119 0.34289 0.96461 0.0
N74 N 0.7428 0.19665 0.00333 0.0
C75 C 0.66187 0.11028 0.85098 0.0
C76 C 0.65798 0.15529 0.86295 0.0
C77 C 0.6992 0.19832 0.93786 0.0
C78 C 0.70727 0.10984 0.91477 0.0
C79 C 0.74671 0.15285 0.99055 0.0
N80 N 0.84638 0.30251 0.26939 0.0
C81 C 0.86707 0.361 0.44119 0.0
C82 C 0.91968 0.38917 0.42968 0.0
C83 C 0.9359 0.37016 0.34776 0.0
C84 C 0.89935 0.3271 0.2705 0.0
C85 C 0.83113 0.31712 0.36136 0.0
H86 H 0.91614 0.31647 0.21066 0.0
H87 H 0.79116 0.29653 0.37371 0.0
H88 H 0.6951 0.23231 0.94448 0.0
H89 H 0.7797 0.14946 0.04109 0.0
C90 C 0.86533 0.1938 0.22111 0.0
C91 C 0.88593 0.33675 0.95692 0.0
C92 C 0.69594 0.15519 0.27977 0.0
C93 C 0.73642 0.32129 0.08719 0.0
H94 H 0.94986 0.29218 0.91958 0.0
H95 H 0.94256 0.21738 0.07691 0.0
H96 H 0.83716 0.12409 0.42485 0.0
H97 H 0.74557 0.10278 0.46223 0.0
H98 H 0.62569 0.1936 0.30734 0.0
H99 H 0.65092 0.28685 0.20786 0.0
H100 H 0.77359 0.40387 0.91507 0.0
H101 H 0.85698 0.41211 0.84637 0.0
H102 H 0.6242 0.15803 0.81161 0.0
H103 H 0.71238 0.07632 0.90631 0.0
H104 H 0.85324 0.3744 0.5057 0.0
H105 H 0.97669 0.3903 0.33853 0.0
C106 C 0.57248 0.73523 0.24805 0.0
C107 C 0.61192 0.75367 0.35632 0.0
C108 C 0.64773 0.80429 0.33701 0.0
C109 C 0.62846 0.81513 0.22056 0.0
N110 N 0.58222 0.77487 0.16363 0.0
Co111 Co 0.53881 0.78044 -0.00055 0.0
N112 N 0.59542 0.85285 0.96714 0.0
C113 C 0.64254 0.88067 0.04376 0.0
C114 C 0.67323 0.93021 0.00374 0.0
C115 C 0.64345 0.93498 0.89566 0.0
C116 C 0.59585 0.88812 0.87654 0.0
N117 N 0.49525 0.78762 0.83733 0.0
C118 C 0.50646 0.8271 0.75152 0.0
C119 C 0.46312 0.81418 0.65503 0.0
C120 C 0.42343 0.76645 0.68175 0.0
C121 C 0.44437 0.75253 0.79295 0.0
N122 N 0.48251 0.70838 0.0321 0.0
C123 C 0.43247 0.68504 0.9674 0.0
C124 C 0.39998 0.63838 0.01632 0.0
C125 C 0.43156 0.63144 0.11781 0.0
C126 C 0.48214 0.67324 0.12356 0.0
N127 N 0.51137 0.81157 0.0915 0.0
C128 C 0.52778 0.89098 0.24026 0.0
C129 C 0.50939 0.8903 0.11143 0.0
C130 C 0.5008 0.84976 0.03885 0.0
C131 C 0.52562 0.84547 0.29521 0.0
C132 C 0.51395 0.80438 0.21725 0.0
N133 N 0.56603 0.7476 0.9087 0.0
C134 C 0.54015 0.6821 0.75171 0.0
C135 C 0.56785 0.66121 0.8322 0.0
C136 C 0.60275 0.69015 0.93914 0.0
C137 C 0.60312 0.73509 0.9722 0.0
C138 C 0.53977 0.72547 0.79167 0.0
H139 H 0.6309 0.75665 0.0544 0.0
H140 H 0.51494 0.73747 0.72937 0.0
H141 H 0.4893 0.85227 0.94077 0.0
H142 H 0.51144 0.76905 0.25976 0.0
C143 C 0.65415 0.86164 0.15931 0.0
C144 C 0.52678 0.6803 0.22675 0.0
C145 C 0.55183 0.88162 0.77402 0.0
C146 C 0.41793 0.70727 0.85902 0.0
H147 H 0.61556 0.73454 0.4433 0.0
H148 H 0.68371 0.83019 0.40077 0.0
H149 H 0.71167 0.96023 0.05073 0.0
H150 H 0.65436 0.96978 0.83958 0.0
H151 H 0.45956 0.83837 0.57767 0.0
H152 H 0.38355 0.74527 0.6283 0.0
H153 H 0.35816 0.61285 0.98348 0.0
H154 H 0.4186 0.60051 0.1843 0.0
H155 H 0.505 0.92239 0.06507 0.0
H156 H 0.53401 0.84216 0.39567 0.0
H157 H 0.5147 0.66215 0.6644 0.0
H158 H 0.62746 0.67677 -0.00027 0.0
C159 C 0.90773 0.64724 0.20844 0.0
C160 C 0.94793 0.69969 0.22369 0.0
C161 C 0.92767 0.72916 0.16011 0.0
C162 C 0.87704 0.69337 0.10791 0.0
N163 N 0.86259 0.64286 0.13782 0.0
Co164 Co 0.79578 0.57825 0.06221 0.0
N165 N 0.76989 0.6212 0.94941 0.0
C166 C 0.7947 0.6746 0.94701 0.0
C167 C 0.76245 0.69461 0.89799 0.0
C168 C 0.7139 0.65196 0.87009 0.0
C169 C 0.71923 0.60719 0.89558 0.0
N170 N 0.7296 0.51393 0.98375 0.0
C171 C 0.68538 0.50884 0.9048 0.0
C172 C 0.65216 0.45716 0.86146 0.0
C173 C 0.67356 0.42814 0.92525 0.0
C174 C 0.71866 0.46365 0.00222 0.0
N175 N 0.82075 0.53538 0.17693 0.0
C176 C 0.79337 0.48267 0.19146 0.0
C177 C 0.82237 0.46366 0.26942 0.0
C178 C 0.87147 0.50628 0.30223 0.0
C179 C 0.87031 0.54928 0.24002 0.0
N180 N 0.75821 0.58228 0.18511 0.0
C181 C 0.68291 0.5857 0.2906 0.0
C182 C 0.67923 0.53776 0.26822 0.0
C183 C 0.71786 0.53701 0.21937 0.0
C184 C 0.72799 0.63212 0.27319 0.0
C185 C 0.76518 0.62952 0.22049 0.0
N186 N 0.83376 0.57369 0.94101 0.0
C187 C 0.87798 0.53025 0.88846 0.0
C188 C 0.91446 0.57654 0.84331 0.0
C189 C 0.90703 0.6205 0.83839 0.0
C190 C 0.86632 0.61797 0.88572 0.0
C191 C 0.83743 0.52929 0.93308 0.0
H192 H 0.86309 0.65277 0.88197 0.0
H193 H 0.8114 0.49272 0.96701 0.0
H194 H 0.7127 0.49918 0.20369 0.0
H195 H 0.79788 0.66617 0.20426 0.0
C196 C 0.84416 0.70536 0.01947 0.0
C197 C 0.91672 0.60284 0.24481 0.0
C198 C 0.67439 0.55222 0.8684 0.0
C199 C 0.74729 0.45105 0.10495 0.0
H200 H 0.98891 0.71508 0.26786 0.0
H201 H 0.94854 0.77114 0.14549 0.0
H202 H 0.77207 0.73545 0.89663 0.0
H203 H 0.67832 0.65438 0.8403 0.0
H204 H 0.61521 0.44142 0.79463 0.0
H205 H 0.65647 0.38576 0.9218 0.0
H206 H 0.81066 0.42295 0.29089 0.0
H207 H 0.90456 0.50499 0.36191 0.0
H208 H 0.64615 0.50074 0.28671 0.0
H209 H 0.73326 0.67009 0.29414 0.0
H210 H 0.881 0.49514 0.89066 0.0
H211 H 0.93287 0.65728 0.79961 0.0
C212 C 0.3123 0.90199 0.20543 0.0
C213 C 0.30779 0.94697 0.18197 0.0
C214 C 0.25789 0.93118 0.11564 0.0
C215 C 0.23455 0.87762 0.10058 0.0
N216 N 0.26681 0.85838 0.152 0.0
Co217 Co 0.2465 0.78212 0.15558 0.0
N218 N 0.17134 0.75754 0.06724 0.0
C219 C 0.14991 0.78885 0.03196 0.0
C220 C 0.10041 0.76305 0.95849 0.0
C221 C 0.09013 0.71265 0.94394 0.0
C222 C 0.13413 0.71027 0.00788 0.0
N223 N 0.22591 0.70581 0.16331 0.0
C224 C 0.17796 0.66196 0.1278 0.0
C225 C 0.17794 0.61763 0.18507 0.0
C226 C 0.22723 0.63404 0.25433 0.0
C227 C 0.25549 0.68651 0.23191 0.0
N228 N 0.32224 0.80605 0.23933 0.0
C229 C 0.34234 0.77363 0.27568 0.0
C230 C 0.39508 0.79943 0.32458 0.0
C231 C 0.40968 0.85153 0.32146 0.0
C232 C 0.36491 0.85518 0.26976 0.0
N233 N 0.2285 0.77771 0.31992 0.0
C234 C 0.17397 0.7362 0.51001 0.0
C235 C 0.21872 0.73272 0.51363 0.0
C236 C 0.24672 0.75561 0.41923 0.0
C237 C 0.1649 0.77134 0.42944 0.0
C238 C 0.19277 0.79169 0.33411 0.0
N239 N 0.26401 0.78753 0.99167 0.0
C240 C 0.34246 0.82166 0.91522 0.0
C241 C 0.33045 0.85858 0.84875 0.0
C242 C 0.27921 0.84923 0.82724 0.0
C243 C 0.24555 0.81148 0.89758 0.0
C244 C 0.30689 0.78437 0.98295 0.0
H245 H 0.20724 0.80689 0.88343 0.0
H246 H 0.31734 0.75809 0.03984 0.0
H247 H 0.28004 0.75116 0.42378 0.0
H248 H 0.18163 0.81469 0.26776 0.0
C249 C 0.18142 0.84381 0.04757 0.0
C250 C 0.3622 0.90414 0.27247 0.0
C251 C 0.13594 0.66058 0.02468 0.0
C252 C 0.3095 0.71901 0.2741 0.0
H253 H 0.33768 0.98716 0.20995 0.0
H254 H 0.2404 0.95577 0.08432 0.0
H255 H 0.07576 0.77955 0.91518 0.0
H256 H 0.05424 0.68107 0.89301 0.0
H257 H 0.14667 0.57717 0.17802 0.0
H258 H 0.24038 0.61029 0.31502 0.0
H259 H 0.4195 0.78224 0.36408 0.0
H260 H 0.44848 0.88248 0.36078 0.0
H261 H 0.2281 0.70732 0.57884 0.0
H262 H 0.13121 0.77619 0.42695 0.0
H263 H 0.38034 0.82429 0.92346 0.0
H264 H 0.26679 0.87378 0.76683 0.0
C265 C 0.51056 0.18548 0.44156 0.0
C266 C 0.55592 0.2002 0.53234 0.0
C267 C 0.59123 0.25051 0.50664 0.0
C268 C 0.56526 0.26327 0.4021 0.0
N269 N 0.51559 0.22469 0.36124 0.0
Co270 Co 0.46452 0.22484 0.21023 0.0
N271 N 0.52068 0.28828 0.14569 0.0
C272 C 0.57084 0.31804 0.20764 0.0
C273 C 0.6006 0.36073 0.14349 0.0
C274 C 0.56679 0.35896 0.03613 0.0
C275 C 0.51788 0.31619 0.04195 0.0
N276 N 0.41397 0.22295 0.05481 0.0
C277 C 0.42243 0.25402 0.95257 0.0
C278 C 0.37558 0.23636 0.86437 0.0
C279 C 0.33657 0.19669 0.91757 0.0
C280 C 0.36137 0.19102 0.03377 0.0
N281 N 0.40927 0.16268 0.28006 0.0
C282 C 0.35691 0.14195 0.24133 0.0
C283 C 0.32911 0.09558 0.29942 0.0
C284 C 0.36628 0.08642 0.37767 0.0
C285 C 0.41477 0.12768 0.36283 0.0
N286 N 0.45071 0.27239 0.29537 0.0
C287 C 0.4511 0.35695 0.39798 0.0
C288 C 0.42598 0.33973 0.27552 0.0
C289 C 0.42615 0.29803 0.22666 0.0
C290 C 0.46978 0.3266 0.47413 0.0
C291 C 0.46827 0.28377 0.42131 0.0
N292 N 0.47645 0.17726 0.12285 0.0
C293 C 0.43734 0.09878 -0.00462 0.0
C294 C 0.48638 0.10922 0.98043 0.0
C295 C 0.53135 0.15354 0.04279 0.0
C296 C 0.52536 0.18742 0.11336 0.0
C297 C 0.4333 0.13261 0.06622 0.0
H298 H 0.55986 0.22191 0.15847 0.0
H299 H 0.39438 0.12219 0.07219 0.0
H300 H 0.40776 0.28971 0.13082 0.0
H301 H 0.48329 0.26172 0.48262 0.0
C302 C 0.58866 0.30585 0.32729 0.0
C303 C 0.46532 0.13242 0.42825 0.0
C304 C 0.46899 0.30795 0.95622 0.0
C305 C 0.33704 0.15688 0.12624 0.0
H306 H 0.56319 0.17606 0.60553 0.0
H307 H 0.632 0.27351 0.55323 0.0
H308 H 0.64137 0.39054 0.17335 0.0
H309 H 0.57577 0.38774 0.96466 0.0
H310 H 0.36914 0.25232 0.77389 0.0
H311 H 0.29486 0.17571 0.87758 0.0
H312 H 0.28706 0.06893 0.27866 0.0
H313 H 0.35883 0.05244 0.43527 0.0
H314 H 0.40937 0.36078 0.21393 0.0
H315 H 0.4884 0.33766 0.57129 0.0
H316 H 0.40158 0.06445 0.95109 0.0
H317 H 0.57021 0.16281 0.03375 0.0
C318 C 0.10275 0.49993 0.57372 0.0
C319 C 0.10534 0.43438 0.97773 0.0
C320 C 0.93119 0.37868 0.93152 0.0
Mg321 Mg 0.04285 0.5629 0.43505 0.0
Mg322 Mg 0.0223 0.63829 0.58779 0.0
O323 O 0.00961 0.57022 0.56371 0.0
Mg324 Mg 0.02896 0.53359 0.70222 0.0
O325 O 0.04611 0.4897 0.82778 0.0
Mg326 Mg 0.01589 0.41886 0.73688 0.0
Mg327 Mg 0.03652 0.48726 0.98899 0.0
C328 C 0.95665 0.57897 0.78858 0.0
O329 O 0.08901 0.61068 0.83934 0.0
O330 O 0.98237 0.58301 0.30834 0.0
O331 O 0.07653 0.5729 0.0258 0.0
O332 O 0.1091 0.6489 0.47139 0.0
O333 O 0.97916 0.64316 0.41307 0.0
O334 O 0.10238 0.6949 0.61026 0.0
O335 O 0.96853 0.45225 0.59887 0.0
O336 O 0.97899 0.47787 0.406 0.0
C337 C 0.95596 0.44264 0.48168 0.0
C338 C 0.96272 0.61218 0.31912 0.0
O339 O 0.96476 0.53931 0.78876 0.0
O340 O 0.07333 0.40352 0.88491 0.0
O341 O 0.98088 0.62127 0.73112 0.0
O342 O 0.95096 0.37262 0.84759 0.0
O343 O 0.09629 0.46582 0.028 0.0
O344 O 0.95323 0.4234 0.98923 0.0
O345 O 0.09241 0.53665 0.5892 0.0
O346 O 0.07924 0.45561 0.62299 0.0
C347 C 0.12805 0.69007 0.53993 0.0
C348 C 0.09815 0.61409 0.9607 0.0
C349 C 0.475 0.0927 0.42256 0.0
C350 C 0.65181 0.11032 0.30224 0.0
C351 C 0.54689 0.93891 0.31217 0.0
Mg352 Mg 0.41423 0.00622 0.6163 0.0
Mg353 Mg 0.49215 0.97895 0.83641 0.0
O354 O 0.45695 0.97028 0.6655 0.0
Mg355 Mg 0.50916 0.00643 0.56595 0.0
O356 O 0.56308 0.04755 0.46739 0.0
Mg357 Mg 0.52018 0.03349 0.29687 0.0
Mg358 Mg 0.61219 0.02422 0.49702 0.0
C359 C 0.54339 0.92378 0.74761 0.0
O360 O 0.57554 0.05812 0.72864 0.0
O361 O 0.36118 0.93497 0.72451 0.0
O362 O 0.64227 0.05035 0.69149 0.0
O363 O 0.45109 0.05796 0.79535 0.0
O364 O 0.41895 0.9209 0.87191 0.0
O365 O 0.51577 0.05265 0.92763 0.0
O366 O 0.44747 0.96093 0.38304 0.0
O367 O 0.37756 0.95762 0.43102 0.0
C368 C 0.39735 0.94435 0.35827 0.0
C369 C 0.37223 0.9078 0.81265 0.0
O370 O 0.52908 0.9356 0.6343 0.0
O371 O 0.60472 0.10368 0.26209 0.0
O372 O 0.54502 0.9482 0.8409 0.0
O373 O 0.54091 0.97522 0.25309 0.0
O374 O 0.65896 0.07642 0.37164 0.0
O375 O 0.56983 0.94477 0.42648 0.0
O376 O 0.48011 0.06784 0.52145 0.0
O377 O 0.49426 0.09136 0.33149 0.0
C378 C 0.48698 0.07371 0.89438 0.0
C379 C 0.62366 0.06849 0.75655 0.0
C380 C 0.55421 0.60673 0.81312 0.0
C381 C 0.40108 0.44142 0.01824 0.0
C382 C 0.46499 0.3508 0.90545 0.0
Mg383 Mg 0.59779 0.61196 0.56013 0.0
Mg384 Mg 0.51903 0.52889 0.33196 0.0
O385 O 0.55053 0.53771 0.50329 0.0
Mg386 Mg 0.50993 0.50457 0.64125 0.0
O387 O 0.46962 0.47443 0.78087 0.0
Mg388 Mg 0.52385 0.48789 0.93075 0.0
Mg389 Mg 0.40795 0.40722 0.7682 0.0
C390 C 0.46584 0.41069 0.43486 0.0
O391 O 0.43509 0.50211 0.53213 0.0
O392 O 0.64976 0.6152 0.42588 0.0
O393 O 0.3801 0.41915 0.57615 0.0
O394 O 0.56021 0.64741 0.39893 0.0
O395 O 0.59255 0.55041 0.28321 0.0
O396 O 0.49828 0.5906 0.25421 0.0
O397 O 0.58282 0.50584 0.78628 0.0
O398 O 0.63671 0.58071 0.7067 0.0
C399 C 0.62972 0.54504 0.78658 0.0
C400 C 0.63946 0.58546 0.33263 0.0
O401 O 0.48188 0.42462 0.55121 0.0
O402 O 0.45242 0.46949 0.04163 0.0
O403 O 0.46907 0.44338 0.34563 0.0
O404 O 0.50025 0.39765 0.94699 0.0
O405 O 0.37555 0.41504 0.91583 0.0
O406 O 0.42485 0.34441 0.82374 0.0
O407 O 0.5408 0.58873 0.70155 0.0
O408 O 0.54799 0.57654 0.90769 0.0
C409 C 0.52721 0.63834 0.29583 0.0
C410 C 0.38855 0.46467 0.53608 0.0
loop_
_geom_bond_atom_site_label_1
_geom_bond_atom_site_label_2
_geom_bond_distance
_geom_bond_site_symmetry_2
_ccdc_geom_bond_type
C0 C1 1.443 . S
C0 N4 1.376 . S
C0 C38 1.389 . S
C1 C0 1.443 . S
C1 C2 1.340 . S
C1 H41 0.951 . S
C2 C1 1.340 . S
C2 C3 1.439 . S
C2 H42 0.950 . S
C3 C2 1.439 . S
C3 N4 1.374 . S
C3 C37 1.395 . S
N4 C0 1.376 . S
N4 C3 1.374 . S
N4 Co5 2.008 . S
Co5 N4 2.008 . S
Co5 N6 1.995 . S
Co5 N11 2.008 . S
Co5 N16 1.995 . S
Co5 N21 2.282 . S
Co5 N27 2.282 . S
N6 Co5 1.995 . S
N6 C7 1.376 . S
N6 C10 1.383 . S
C7 N6 1.376 . S
C7 C8 1.446 . S
C7 C37 1.391 . S
C8 C7 1.446 . S
C8 C9 1.339 . S
C8 H43 0.949 . S
C9 C8 1.339 . S
C9 C10 1.439 . S
C9 H44 0.950 . S
C10 N6 1.383 . S
C10 C9 1.439 . S
C10 C39 1.392 . S
N11 Co5 2.008 . S
N11 C12 1.376 . S
N11 C15 1.374 . S
C12 N11 1.376 . S
C12 C13 1.443 . S
C12 C39 1.389 . S
C13 C12 1.443 . S
C13 C14 1.340 . S
C13 H45 0.951 . S
C14 C13 1.340 . S
C14 C15 1.439 . S
C14 H46 0.950 . S
C15 N11 1.374 . S
C15 C14 1.439 . S
C15 C40 1.395 . S
N16 Co5 1.995 . S
N16 C17 1.376 . S
N16 C20 1.383 . S
C17 N16 1.376 . S
C17 C18 1.446 . S
C17 C40 1.391 . S
C18 C17 1.446 . S
C18 C19 1.339 . S
C18 H47 0.949 . S
C19 C18 1.339 . S
C19 C20 1.439 . S
C19 H48 0.950 . S
C20 N16 1.383 . S
C20 C19 1.439 . S
C20 C38 1.392 . S
N21 Co5 2.282 . S
N21 C24 1.332 . S
N21 C26 1.332 . S
C22 C23 1.386 . S
C22 C25 1.388 . S
C23 C22 1.386 . S
C23 C24 1.382 . S
C23 H49 0.950 . S
C24 N21 1.332 . S
C24 C23 1.382 . S
C24 H35 0.952 . S
C25 C22 1.388 . S
C25 C26 1.382 . S
C25 H50 0.950 . S
C26 N21 1.332 . S
C26 C25 1.382 . S
C26 H36 0.948 . S
N27 Co5 2.282 . S
N27 C31 1.332 . S
N27 C32 1.332 . S
C28 C29 1.388 . S
C28 C32 1.382 . S
C28 H51 0.950 . S
C29 C28 1.388 . S
C29 C30 1.386 . S
C30 C29 1.386 . S
C30 C31 1.382 . S
C30 H52 0.950 . S
C31 N27 1.332 . S
C31 C30 1.382 . S
C31 H33 0.952 . S
C32 N27 1.332 . S
C32 C28 1.382 . S
C32 H34 0.948 . S
H33 C31 0.952 . S
H34 C32 0.948 . S
H35 C24 0.952 . S
H36 C26 0.948 . S
C37 C3 1.395 . S
C37 C7 1.391 . S
C38 C0 1.389 . S
C38 C20 1.392 . S
C39 C10 1.392 . S
C39 C12 1.389 . S
C40 C15 1.395 . S
C40 C17 1.391 . S
H41 C1 0.951 . S
H42 C2 0.950 . S
H43 C8 0.949 . S
H44 C9 0.950 . S
H45 C13 0.951 . S
H46 C14 0.950 . S
H47 C18 0.949 . S
H48 C19 0.950 . S
H49 C23 0.950 . S
H50 C25 0.950 . S
H51 C28 0.950 . S
H52 C30 0.950 . S
C53 C54 1.443 . S
C53 N57 1.376 . S
C53 C91 1.389 . S
C54 C53 1.443 . S
C54 C55 1.340 . S
C54 H94 0.951 . S
C55 C54 1.340 . S
C55 C56 1.439 . S
C55 H95 0.950 . S
C56 C55 1.439 . S
C56 N57 1.374 . S
C56 C90 1.395 . S
N57 C53 1.376 . S
N57 C56 1.374 . S
N57 Co58 2.008 . S
Co58 N57 2.008 . S
Co58 N59 1.995 . S
Co58 N64 2.008 . S
Co58 N69 1.995 . S
Co58 N74 2.282 . S
Co58 N80 2.282 . S
N59 Co58 1.995 . S
N59 C60 1.376 . S
N59 C63 1.383 . S
C60 N59 1.376 . S
C60 C61 1.446 . S
C60 C90 1.391 . S
C61 C60 1.446 . S
C61 C62 1.339 . S
C61 H96 0.949 . S
C62 C61 1.339 . S
C62 C63 1.439 . S
C62 H97 0.950 . S
C63 N59 1.383 . S
C63 C62 1.439 . S
C63 C92 1.392 . S
N64 Co58 2.008 . S
N64 C65 1.376 . S
N64 C68 1.374 . S
C65 N64 1.376 . S
C65 C66 1.443 . S
C65 C92 1.389 . S
C66 C65 1.443 . S
C66 C67 1.340 . S
C66 H98 0.951 . S
C67 C66 1.340 . S
C67 C68 1.439 . S
C67 H99 0.950 . S
C68 N64 1.374 . S
C68 C67 1.439 . S
C68 C93 1.395 . S
N69 Co58 1.995 . S
N69 C70 1.376 . S
N69 C73 1.388 . S
C70 N69 1.376 . S
C70 C71 1.446 1_554 S
C70 C93 1.391 . S
C71 C70 1.446 1_556 S
C71 C72 1.339 . S
C71 H100 0.949 . S
C72 C71 1.339 . S
C72 C73 1.436 1_556 S
C72 H101 0.950 . S
C73 N69 1.388 . S
C73 C72 1.436 1_554 S
C73 C91 1.390 . S
N74 Co58 2.282 . S
N74 C77 1.332 1_554 S
N74 C79 1.332 . S
C75 C76 1.386 . S
C75 C78 1.388 . S
C76 C75 1.386 . S
C76 C77 1.382 . S
C76 H102 0.950 . S
C77 N74 1.332 1_556 S
C77 C76 1.382 . S
C77 H88 0.952 . S
C78 C75 1.388 . S
C78 C79 1.382 1_556 S
C78 H103 0.950 . S
C79 N74 1.332 . S
C79 C78 1.382 1_554 S
C79 H89 0.948 . S
N80 Co58 2.282 . S
N80 C84 1.332 . S
N80 C85 1.332 . S
C81 C82 1.388 . S
C81 C85 1.382 . S
C81 H104 0.950 . S
C82 C81 1.388 . S
C82 C83 1.386 . S
C83 C82 1.386 . S
C83 C84 1.382 . S
C83 H105 0.950 . S
C84 N80 1.332 . S
C84 C83 1.382 . S
C84 H86 0.952 . S
C85 N80 1.332 . S
C85 C81 1.382 . S
C85 H87 0.948 . S
H86 C84 0.952 . S
H87 C85 0.948 . S
H88 C77 0.952 . S
H89 C79 0.948 . S
C90 C56 1.395 . S
C90 C60 1.391 . S
C91 C53 1.389 . S
C91 C73 1.390 . S
C92 C63 1.392 . S
C92 C65 1.389 . S
C93 C68 1.395 . S
C93 C70 1.391 . S
H94 C54 0.951 . S
H95 C55 0.950 . S
H96 C61 0.949 . S
H97 C62 0.950 . S
H98 C66 0.951 . S
H99 C67 0.950 . S
H100 C71 0.949 . S
H101 C72 0.950 . S
H102 C76 0.950 . S
H103 C78 0.950 . S
H104 C81 0.950 . S
H105 C83 0.950 . S
C106 C107 1.443 . S
C106 N110 1.376 . S
C106 C144 1.389 . S
C107 C106 1.443 . S
C107 C108 1.340 . S
C107 H147 0.951 . S
C108 C107 1.340 . S
C108 C109 1.439 . S
C108 H148 0.950 . S
C109 C108 1.439 . S
C109 N110 1.374 . S
C109 C143 1.395 . S
N110 C106 1.376 . S
N110 C109 1.374 . S
N110 Co111 2.008 . S
Co111 N110 2.008 . S
Co111 N112 1.995 1_554 S
Co111 N117 2.008 1_554 S
Co111 N122 1.995 . S
Co111 N127 2.282 . S
Co111 N133 2.282 1_554 S
N112 Co111 1.995 1_556 S
N112 C113 1.376 . S
N112 C116 1.383 . S
C113 N112 1.376 . S
C113 C114 1.446 . S
C113 C143 1.391 1_556 S
C114 C113 1.446 . S
C114 C115 1.339 . S
C114 H149 0.949 . S
C115 C114 1.339 . S
C115 C116 1.439 . S
C115 H150 0.950 . S
C116 N112 1.383 . S
C116 C115 1.439 . S
C116 C145 1.392 . S
N117 Co111 2.008 1_556 S
N117 C118 1.376 . S
N117 C121 1.374 . S
C118 N117 1.376 . S
C118 C119 1.443 . S
C118 C145 1.389 . S
C119 C118 1.443 . S
C119 C120 1.340 . S
C119 H151 0.951 . S
C120 C119 1.340 . S
C120 C121 1.439 . S
C120 H152 0.950 . S
C121 N117 1.374 . S
C121 C120 1.439 . S
C121 C146 1.395 . S
N122 Co111 1.995 . S
N122 C123 1.376 . S
N122 C126 1.383 . S
C123 N122 1.376 . S
C123 C124 1.446 . S
C123 C146 1.391 1_554 S
C124 C123 1.446 . S
C124 C125 1.339 . S
C124 H153 0.949 . S
C125 C124 1.339 . S
C125 C126 1.439 . S
C125 H154 0.950 . S
C126 N122 1.383 . S
C126 C125 1.439 . S
C126 C144 1.392 . S
N127 Co111 2.282 . S
N127 C130 1.332 . S
N127 C132 1.332 . S
C128 C129 1.386 . S
C128 C131 1.388 . S
C129 C128 1.386 . S
C129 C130 1.382 . S
C129 H155 0.950 . S
C130 N127 1.332 . S
C130 C129 1.382 . S
C130 H141 0.952 . S
C131 C128 1.388 . S
C131 C132 1.382 . S
C131 H156 0.950 . S
C132 N127 1.332 . S
C132 C131 1.382 . S
C132 H142 0.948 . S
N133 Co111 2.282 1_556 S
N133 C137 1.332 . S
N133 C138 1.332 . S
C134 C135 1.388 . S
C134 C138 1.382 . S
C134 H157 0.950 . S
C135 C134 1.388 . S
C135 C136 1.386 . S
C136 C135 1.386 . S
C136 C137 1.382 . S
C136 H158 0.950 . S
C137 N133 1.332 . S
C137 C136 1.382 . S
C137 H139 0.952 . S
C138 N133 1.332 . S
C138 C134 1.382 . S
C138 H140 0.948 . S
H139 C137 0.952 . S
H140 C138 0.948 . S
H141 C130 0.952 . S
H142 C132 0.948 . S
C143 C109 1.395 . S
C143 C113 1.391 1_554 S
C144 C106 1.389 . S
C144 C126 1.392 . S
C145 C116 1.392 . S
C145 C118 1.389 . S
C146 C121 1.395 . S
C146 C123 1.391 1_556 S
H147 C107 0.951 . S
H148 C108 0.950 . S
H149 C114 0.949 . S
H150 C115 0.950 . S
H151 C119 0.951 . S
H152 C120 0.950 . S
H153 C124 0.949 . S
H154 C125 0.950 . S
H155 C129 0.950 . S
H156 C131 0.950 . S
H157 C134 0.950 . S
H158 C136 0.950 . S
C159 C160 1.443 . S
C159 N163 1.376 . S
C159 C197 1.389 . S
C160 C159 1.443 . S
C160 C161 1.340 . S
C160 H200 0.951 . S
C161 C160 1.340 . S
C161 C162 1.439 . S
C161 H201 0.950 . S
C162 C161 1.439 . S
C162 N163 1.374 . S
C162 C196 1.395 . S
N163 C159 1.376 . S
N163 C162 1.374 . S
N163 Co164 2.008 . S
Co164 N163 2.008 . S
Co164 N165 1.995 1_554 S
Co164 N170 2.008 1_554 S
Co164 N175 1.995 . S
Co164 N180 2.282 . S
Co164 N186 2.282 1_554 S
N165 Co164 1.995 1_556 S
N165 C166 1.376 . S
N165 C169 1.383 . S
C166 N165 1.376 . S
C166 C167 1.446 . S
C166 C196 1.391 1_556 S
C167 C166 1.446 . S
C167 C168 1.339 . S
C167 H202 0.949 . S
C168 C167 1.339 . S
C168 C169 1.439 . S
C168 H203 0.950 . S
C169 N165 1.383 . S
C169 C168 1.439 . S
C169 C198 1.392 . S
N170 Co164 2.008 1_556 S
N170 C171 1.376 . S
N170 C174 1.374 . S
C171 N170 1.376 . S
C171 C172 1.443 . S
C171 C198 1.389 . S
C172 C171 1.443 . S
C172 C173 1.340 . S
C172 H204 0.951 . S
C173 C172 1.340 . S
C173 C174 1.439 . S
C173 H205 0.950 . S
C174 N170 1.374 . S
C174 C173 1.439 . S
C174 C199 1.395 1_556 S
N175 Co164 1.995 . S
N175 C176 1.376 . S
N175 C179 1.383 . S
C176 N175 1.376 . S
C176 C177 1.446 . S
C176 C199 1.391 . S
C177 C176 1.446 . S
C177 C178 1.339 . S
C177 H206 0.949 . S
C178 C177 1.339 . S
C178 C179 1.439 . S
C178 H207 0.950 . S
C179 N175 1.383 . S
C179 C178 1.439 . S
C179 C197 1.392 . S
N180 Co164 2.282 . S
N180 C183 1.332 . S
N180 C185 1.332 . S
C181 C182 1.386 . S
C181 C184 1.388 . S
C182 C181 1.386 . S
C182 C183 1.382 . S
C182 H208 0.950 . S
C183 N180 1.332 . S
C183 C182 1.382 . S
C183 H194 0.952 . S
C184 C181 1.388 . S
C184 C185 1.382 . S
C184 H209 0.950 . S
C185 N180 1.332 . S
C185 C184 1.382 . S
C185 H195 0.948 . S
N186 Co164 2.282 1_556 S
N186 C190 1.332 . S
N186 C191 1.332 . S
C187 C188 1.388 . S
C187 C191 1.382 . S
C187 H210 0.950 . S
C188 C187 1.388 . S
C188 C189 1.386 . S
C189 C188 1.386 . S
C189 C190 1.382 . S
C189 H211 0.950 . S
C190 N186 1.332 . S
C190 C189 1.382 . S
C190 H192 0.952 . S
C191 N186 1.332 . S
C191 C187 1.382 . S
C191 H193 0.948 . S
H192 C190 0.952 . S
H193 C191 0.948 . S
H194 C183 0.952 . S
H195 C185 0.948 . S
C196 C162 1.395 . S
C196 C166 1.391 1_554 S
C197 C159 1.389 . S
C197 C179 1.392 . S
C198 C169 1.392 . S
C198 C171 1.389 . S
C199 C174 1.395 1_554 S
C199 C176 1.391 . S
H200 C160 0.951 . S
H201 C161 0.950 . S
H202 C167 0.949 . S
H203 C168 0.950 . S
H204 C172 0.951 . S
H205 C173 0.950 . S
H206 C177 0.949 . S
H207 C178 0.950 . S
H208 C182 0.950 . S
H209 C184 0.950 . S
H210 C187 0.950 . S
H211 C189 0.950 . S
C212 C213 1.443 . S
C212 N216 1.376 . S
C212 C250 1.389 . S
C213 C212 1.443 . S
C213 C214 1.340 . S
C213 H253 0.951 . S
C214 C213 1.340 . S
C214 C215 1.439 . S
C214 H254 0.950 . S
C215 C214 1.439 . S
C215 N216 1.374 . S
C215 C249 1.395 . S
N216 C212 1.376 . S
N216 C215 1.374 . S
N216 Co217 2.008 . S
Co217 N216 2.008 . S
Co217 N218 1.995 . S
Co217 N223 2.008 . S
Co217 N228 1.995 . S
Co217 N233 2.282 . S
Co217 N239 2.282 1_554 S
N218 Co217 1.995 . S
N218 C219 1.376 1_554 S
N218 C222 1.383 1_554 S
C219 N218 1.376 1_556 S
C219 C220 1.446 . S
C219 C249 1.391 1_556 S
C220 C219 1.446 . S
C220 C221 1.339 . S
C220 H255 0.949 . S
C221 C220 1.339 . S
C221 C222 1.439 . S
C221 H256 0.950 . S
C222 N218 1.383 1_556 S
C222 C221 1.439 . S
C222 C251 1.392 . S
N223 Co217 2.008 . S
N223 C224 1.376 . S
N223 C227 1.374 . S
C224 N223 1.376 . S
C224 C225 1.443 . S
C224 C251 1.389 1_554 S
C225 C224 1.443 . S
C225 C226 1.340 . S
C225 H257 0.951 1_554 S
C226 C225 1.340 . S
C226 C227 1.439 . S
C226 H258 0.950 . S
C227 N223 1.374 . S
C227 C226 1.439 . S
C227 C252 1.395 . S
N228 Co217 1.995 . S
N228 C229 1.376 . S
N228 C232 1.383 . S
C229 N228 1.376 . S
C229 C230 1.446 . S
C229 C252 1.391 . S
C230 C229 1.446 . S
C230 C231 1.339 . S
C230 H259 0.949 . S
C231 C230 1.339 . S
C231 C232 1.439 . S
C231 H260 0.950 . S
C232 N228 1.383 . S
C232 C231 1.439 . S
C232 C250 1.392 . S
N233 Co217 2.282 . S
N233 C236 1.332 . S
N233 C238 1.332 . S
C234 C235 1.386 . S
C234 C237 1.388 . S
C235 C234 1.386 . S
C235 C236 1.382 . S
C235 H261 0.950 . S
C236 N233 1.332 . S
C236 C235 1.382 . S
C236 H247 0.952 . S
C237 C234 1.388 . S
C237 C238 1.382 . S
C237 H262 0.950 . S
C238 N233 1.332 . S
C238 C237 1.382 . S
C238 H248 0.948 . S
N239 Co217 2.282 1_556 S
N239 C243 1.332 . S
N239 C244 1.332 . S
C240 C241 1.388 . S
C240 C244 1.382 . S
C240 H263 0.950 . S
C241 C240 1.388 . S
C241 C242 1.386 . S
C242 C241 1.386 . S
C242 C243 1.382 . S
C242 H264 0.950 . S
C243 N239 1.332 . S
C243 C242 1.382 . S
C243 H245 0.952 . S
C244 N239 1.332 . S
C244 C240 1.382 . S
C244 H246 0.948 1_556 S
H245 C243 0.952 . S
H246 C244 0.948 1_554 S
H247 C236 0.952 . S
H248 C238 0.948 . S
C249 C215 1.395 . S
C249 C219 1.391 1_554 S
C250 C212 1.389 . S
C250 C232 1.392 . S
C251 C222 1.392 . S
C251 C224 1.389 1_556 S
C252 C227 1.395 . S
C252 C229 1.391 . S
H253 C213 0.951 . S
H254 C214 0.950 . S
H255 C220 0.949 . S
H256 C221 0.950 . S
H257 C225 0.951 1_556 S
H258 C226 0.950 . S
H259 C230 0.949 . S
H260 C231 0.950 . S
H261 C235 0.950 . S
H262 C237 0.950 . S
H263 C240 0.950 . S
H264 C242 0.950 . S
C265 C266 1.443 . S
C265 N269 1.376 . S
C265 C303 1.389 . S
C266 C265 1.443 . S
C266 C267 1.340 . S
C266 H306 0.951 . S
C267 C266 1.340 . S
C267 C268 1.439 . S
C267 H307 0.950 . S
C268 C267 1.439 . S
C268 N269 1.374 . S
C268 C302 1.395 . S
N269 C265 1.376 . S
N269 C268 1.374 . S
N269 Co270 2.008 . S
Co270 N269 2.008 . S
Co270 N271 1.995 . S
Co270 N276 2.008 . S
Co270 N281 1.995 . S
Co270 N286 2.282 . S
Co270 N292 2.282 . S
N271 Co270 1.995 . S
N271 C272 1.376 . S
N271 C275 1.383 . S
C272 N271 1.376 . S
C272 C273 1.446 . S
C272 C302 1.391 . S
C273 C272 1.446 . S
C273 C274 1.339 . S
C273 H308 0.949 . S
C274 C273 1.339 . S
C274 C275 1.439 . S
C274 H309 0.950 1_554 S
C275 N271 1.383 . S
C275 C274 1.439 . S
C275 C304 1.392 . S
N276 Co270 2.008 . S
N276 C277 1.376 . S
N276 C280 1.374 . S
C277 N276 1.376 . S
C277 C278 1.443 1_554 S
C277 C304 1.389 . S
C278 C277 1.443 1_556 S
C278 C279 1.340 1_556 S
C278 H310 0.951 . S
C279 C278 1.340 1_554 S
C279 C280 1.439 . S
C279 H311 0.950 . S
C280 N276 1.374 . S
C280 C279 1.439 . S
C280 C305 1.395 . S
N281 Co270 1.995 . S
N281 C282 1.376 . S
N281 C285 1.383 . S
C282 N281 1.376 . S
C282 C283 1.446 . S
C282 C305 1.391 . S
C283 C282 1.446 . S
C283 C284 1.339 . S
C283 H312 0.949 . S
C284 C283 1.339 . S
C284 C285 1.439 . S
C284 H313 0.950 . S
C285 N281 1.383 . S
C285 C284 1.439 . S
C285 C303 1.392 . S
N286 Co270 2.282 . S
N286 C289 1.332 . S
N286 C291 1.332 . S
C287 C288 1.386 . S
C287 C290 1.388 . S
C288 C287 1.386 . S
C288 C289 1.382 . S
C288 H314 0.950 . S
C289 N286 1.332 . S
C289 C288 1.382 . S
C289 H300 0.952 . S
C290 C287 1.388 . S
C290 C291 1.382 . S
C290 H315 0.950 . S
C291 N286 1.332 . S
C291 C290 1.382 . S
C291 H301 0.948 . S
N292 Co270 2.282 . S
N292 C296 1.332 . S
N292 C297 1.332 . S
C293 C294 1.388 . S
C293 C297 1.382 1_556 S
C293 H316 0.950 . S
C294 C293 1.388 . S
C294 C295 1.386 . S
C295 C294 1.386 . S
C295 C296 1.382 1_556 S
C295 H317 0.950 . S
C296 N292 1.332 . S
C296 C295 1.382 1_554 S
C296 H298 0.952 . S
C297 N292 1.332 . S
C297 C293 1.382 1_554 S
C297 H299 0.948 . S
H298 C296 0.952 . S
H299 C297 0.948 . S
H300 C289 0.952 . S
H301 C291 0.948 . S
C302 C268 1.395 . S
C302 C272 1.391 . S
C303 C265 1.389 . S
C303 C285 1.392 . S
C304 C275 1.392 . S
C304 C277 1.389 . S
C305 C280 1.395 . S
C305 C282 1.391 . S
H306 C266 0.951 . S
H307 C267 0.950 . S
H308 C273 0.949 . S
H309 C274 0.950 1_556 S
H310 C278 0.951 . S
H311 C279 0.950 . S
H312 C283 0.949 . S
H313 C284 0.950 . S
H314 C288 0.950 . S
H315 C290 0.950 . S
H316 C293 0.950 . S
H317 C295 0.950 . S
C318 O345 1.312 . S
C318 O346 1.208 . S
C319 O340 1.331 1_554 S
C319 O343 1.244 . S
C320 O342 1.264 . S
C320 O344 1.273 1_556 S
Mg321 O323 1.923 1_455 S
Mg321 O330 2.063 1_455 S
Mg321 O332 2.031 . S
Mg321 O336 2.025 1_455 S
Mg321 O345 2.305 . S
Mg322 O323 1.963 . S
Mg322 O333 1.942 . S
Mg322 O334 1.955 1_655 S
Mg322 O341 1.986 . S
O323 Mg321 1.923 1_655 S
O323 Mg322 1.963 . S
O323 Mg324 1.915 1_655 S
Mg324 O323 1.915 1_455 S
Mg324 O325 1.915 . S
Mg324 O329 2.013 . S
Mg324 O335 2.114 1_455 S
Mg324 O339 2.013 1_455 S
Mg324 O345 2.114 . S
O325 Mg324 1.915 . S
O325 Mg326 1.936 . S
O325 Mg327 1.963 1_556 S
Mg326 O325 1.936 . S
Mg326 O335 2.291 1_455 S
Mg326 O340 2.081 . S
Mg326 O342 2.023 1_455 S
Mg326 O346 2.031 . S
Mg327 O325 1.963 1_554 S
Mg327 O331 1.986 1_554 S
Mg327 O343 1.942 . S
Mg327 O344 1.955 1_455 S
C328 O339 1.191 . S
C328 O341 1.307 . S
O329 Mg324 2.013 . S
O329 C348 1.191 . S
O330 Mg321 2.063 1_655 S
O330 C338 1.331 . S
O331 Mg327 1.986 1_556 S
O331 C348 1.307 . S
O332 Mg321 2.031 . S
O332 C347 1.264 . S
O333 Mg322 1.942 . S
O333 C338 1.244 . S
O334 Mg322 1.955 1_455 S
O334 C347 1.273 . S
O335 Mg324 2.114 1_655 S
O335 Mg326 2.291 1_655 S
O335 C337 1.312 . S
O336 Mg321 2.025 1_655 S
O336 C337 1.208 . S
C337 O335 1.312 . S
C337 O336 1.208 . S
C338 O330 1.331 . S
C338 O333 1.244 . S
O339 Mg324 2.013 1_655 S
O339 C328 1.191 . S
O340 C319 1.331 1_556 S
O340 Mg326 2.081 . S
O341 Mg322 1.986 . S
O341 C328 1.307 . S
O342 C320 1.264 . S
O342 Mg326 2.023 1_655 S
O343 C319 1.244 . S
O343 Mg327 1.942 . S
O344 C320 1.273 1_554 S
O344 Mg327 1.955 1_655 S
O345 C318 1.312 . S
O345 Mg321 2.305 . S
O345 Mg324 2.114 . S
O346 C318 1.208 . S
O346 Mg326 2.031 . S
C347 O332 1.264 . S
C347 O334 1.273 . S
C348 O329 1.191 . S
C348 O331 1.307 . S
C349 O376 1.312 . S
C349 O377 1.208 . S
C350 O371 1.331 . S
C350 O374 1.244 . S
C351 O373 1.264 . S
C351 O375 1.273 . S
Mg352 O354 1.936 1_545 S
Mg352 O361 2.081 1_545 S
Mg352 O363 2.023 . S
Mg352 O367 2.031 1_545 S
Mg352 O376 2.291 . S
Mg353 O354 1.963 . S
Mg353 O364 1.942 . S
Mg353 O365 1.955 1_565 S
Mg353 O372 1.986 . S
O354 Mg352 1.936 1_565 S
O354 Mg353 1.963 . S
O354 Mg355 1.915 1_565 S
Mg355 O354 1.915 1_545 S
Mg355 O356 1.915 . S
Mg355 O360 2.013 . S
Mg355 O366 2.114 1_545 S
Mg355 O370 2.013 1_545 S
Mg355 O376 2.114 . S
O356 Mg355 1.915 . S
O356 Mg357 1.936 . S
O356 Mg358 1.963 . S
Mg357 O356 1.936 . S
Mg357 O366 2.291 1_545 S
Mg357 O371 2.081 . S
Mg357 O373 2.023 1_545 S
Mg357 O377 2.031 . S
Mg358 O356 1.963 . S
Mg358 O362 1.986 . S
Mg358 O374 1.942 . S
Mg358 O375 1.955 1_545 S
C359 O370 1.191 . S
C359 O372 1.307 . S
O360 Mg355 2.013 . S
O360 C379 1.191 . S
O361 Mg352 2.081 1_565 S
O361 C369 1.331 . S
O362 Mg358 1.986 . S
O362 C379 1.307 . S
O363 Mg352 2.023 . S
O363 C378 1.264 . S
O364 Mg353 1.942 . S
O364 C369 1.244 . S
O365 Mg353 1.955 1_545 S
O365 C378 1.273 . S
O366 Mg355 2.114 1_565 S
O366 Mg357 2.291 1_565 S
O366 C368 1.312 . S
O367 Mg352 2.031 1_565 S
O367 C368 1.208 . S
C368 O366 1.312 . S
C368 O367 1.208 . S
C369 O361 1.331 . S
C369 O364 1.244 . S
O370 Mg355 2.013 1_565 S
O370 C359 1.191 . S
O371 C350 1.331 . S
O371 Mg357 2.081 . S
O372 Mg353 1.986 . S
O372 C359 1.307 . S
O373 C351 1.264 . S
O373 Mg357 2.023 1_565 S
O374 C350 1.244 . S
O374 Mg358 1.942 . S
O375 C351 1.273 . S
O375 Mg358 1.955 1_565 S
O376 C349 1.312 . S
O376 Mg352 2.291 . S
O376 Mg355 2.114 . S
O377 C349 1.208 . S
O377 Mg357 2.031 . S
C378 O363 1.264 . S
C378 O365 1.273 . S
C379 O360 1.191 . S
C379 O362 1.307 . S
C380 O407 1.312 . S
C380 O408 1.208 . S
C381 O402 1.331 1_556 S
C381 O405 1.244 . S
C382 O404 1.264 . S
C382 O406 1.273 . S
Mg383 O385 1.936 . S
Mg383 O392 2.081 . S
Mg383 O394 2.023 . S
Mg383 O398 2.031 . S
Mg383 O407 2.291 . S
Mg384 O385 1.963 . S
Mg384 O395 1.942 . S
Mg384 O396 1.955 . S
Mg384 O403 1.986 . S
O385 Mg383 1.936 . S
O385 Mg384 1.963 . S
O385 Mg386 1.915 . S
Mg386 O385 1.915 . S
Mg386 O387 1.915 . S
Mg386 O391 2.013 . S
Mg386 O397 2.114 . S
Mg386 O401 2.013 . S
Mg386 O407 2.114 . S
O387 Mg386 1.915 . S
O387 Mg388 1.936 . S
O387 Mg389 1.963 . S
Mg388 O387 1.936 . S
Mg388 O397 2.291 . S
Mg388 O402 2.081 1_556 S
Mg388 O404 2.023 . S
Mg388 O408 2.031 . S
Mg389 O387 1.963 . S
Mg389 O393 1.986 . S
Mg389 O405 1.942 . S
Mg389 O406 1.955 . S
C390 O401 1.191 . S
C390 O403 1.307 . S
O391 Mg386 2.013 . S
O391 C410 1.191 . S
O392 Mg383 2.081 . S
O392 C400 1.331 . S
O393 Mg389 1.986 . S
O393 C410 1.307 . S
O394 Mg383 2.023 . S
O394 C409 1.264 . S
O395 Mg384 1.942 . S
O395 C400 1.244 . S
O396 Mg384 1.955 . S
O396 C409 1.273 . S
O397 Mg386 2.114 . S
O397 Mg388 2.291 . S
O397 C399 1.312 . S
O398 Mg383 2.031 . S
O398 C399 1.208 . S
C399 O397 1.312 . S
C399 O398 1.208 . S
C400 O392 1.331 . S
C400 O395 1.244 . S
O401 Mg386 2.013 . S
O401 C390 1.191 . S
O402 C381 1.331 1_554 S
O402 Mg388 2.081 1_554 S
O403 Mg384 1.986 . S
O403 C390 1.307 . S
O404 C382 1.264 . S
O404 Mg388 2.023 . S
O405 C381 1.244 . S
O405 Mg389 1.942 . S
O406 C382 1.273 . S
O406 Mg389 1.955 . S
O407 C380 1.312 . S
O407 Mg383 2.291 . S
O407 Mg386 2.114 . S
O408 C380 1.208 . S
O408 Mg388 2.031 . S
C409 O394 1.264 . S
C409 O396 1.273 . S
C410 O391 1.191 . S
C410 O393 1.307 . S
C22 C318 2.208 . S
C92 C350 2.089 . S
C409 C144 2.283 . S
C338 C197 1.511 . S
C250 C368 2.411 . S
C390 C287 1.650 . S
C359 C145 2.466 . S
C198 C399 1.810 . S
C348 C251 2.606 . S
C294 C378 1.362 . S
C29 C381 1.718 1_554 S
C320 C91 2.209 1_556 S
C328 C188 1.842 . S
C369 C241 0.968 . S
C382 C304 1.918 1_556 S
C319 C39 1.181 . S
C379 C75 1.564 . S
C135 C380 1.389 . S
C349 C303 2.087 . S
C410 C38 1.459 . S
C337 C82 1.679 . S
C351 C128 1.053 . S
C181 C400 1.443 . S
C234 C347 1.137 . S
