# Generated by pormake.
# Topology pto, (3,4)-cn, num edge types: 1
# Building blocks:
#     Node 0, Type 0, BuildingBlock: WUSLED_clean_sbu_0, # of connection points: 3
#     Node 1, Type 0, BuildingBlock: WUSLED_clean_sbu_0, # of connection points: 3
#     Node 2, Type 0, BuildingBlock: WUSLED_clean_sbu_0, # of connection points: 3
#     Node 3, Type 0, BuildingBlock: WUSLED_clean_sbu_0, # of connection points: 3
#     Node 4, Type 0, BuildingBlock: WUSLED_clean_sbu_0, # of connection points: 3
#     Node 5, Type 0, BuildingBlock: WUSLED_clean_sbu_0, # of connection points: 3
#     Node 6, Type 0, BuildingBlock: WUSLED_clean_sbu_0, # of connection points: 3
#     Node 7, Type 0, BuildingBlock: WUSLED_clean_sbu_0, # of connection points: 3
#     Node 8, Type 1, BuildingBlock: NAWXER_clean_sbu_0, # of connection points: 4
#     Node 9, Type 1, BuildingBlock: NAWXER_clean_sbu_0, # of connection points: 4
#     Node 10, Type 1, BuildingBlock: NAWXER_clean_sbu_0, # of connection points: 4
#     Node 11, Type 1, BuildingBlock: NAWXER_clean_sbu_0, # of connection points: 4
#     Node 12, Type 1, BuildingBlock: NAWXER_clean_sbu_0, # of connection points: 4
#     Node 13, Type 1, BuildingBlock: NAWXER_clean_sbu_0, # of connection points: 4
#     Edge 14, Type (0, 1), BuildingBlock: OJICUG_clean_linker_0, # of connection points: 2
#     Edge 15, Type (0, 1), BuildingBlock: OJICUG_clean_linker_0, # of connection points: 2
#     Edge 16, Type (0, 1), BuildingBlock: OJICUG_clean_linker_0, # of connection points: 2
#     Edge 17, Type (0, 1), BuildingBlock: OJICUG_clean_linker_0, # of connection points: 2
#     Edge 18, Type (0, 1), BuildingBlock: OJICUG_clean_linker_0, # of connection points: 2
#     Edge 19, Type (0, 1), BuildingBlock: OJICUG_clean_linker_0, # of connection points: 2
#     Edge 20, Type (0, 1), BuildingBlock: OJICUG_clean_linker_0, # of connection points: 2
#     Edge 21, Type (0, 1), BuildingBlock: OJICUG_clean_linker_0, # of connection points: 2
#     Edge 22, Type (0, 1), BuildingBlock: OJICUG_clean_linker_0, # of connection points: 2
#     Edge 23, Type (0, 1), BuildingBlock: OJICUG_clean_linker_0, # of connection points: 2
#     Edge 24, Type (0, 1), BuildingBlock: OJICUG_clean_linker_0, # of connection points: 2
#     Edge 25, Type (0, 1), BuildingBlock: OJICUG_clean_linker_0, # of connection points: 2
#     Edge 26, Type (0, 1), BuildingBlock: OJICUG_clean_linker_0, # of connection points: 2
#     Edge 27, Type (0, 1), BuildingBlock: OJICUG_clean_linker_0, # of connection points: 2
#     Edge 28, Type (0, 1), BuildingBlock: OJICUG_clean_linker_0, # of connection points: 2
#     Edge 29, Type (0, 1), BuildingBlock: OJICUG_clean_linker_0, # of connection points: 2
#     Edge 30, Type (0, 1), BuildingBlock: OJICUG_clean_linker_0, # of connection points: 2
#     Edge 31, Type (0, 1), BuildingBlock: OJICUG_clean_linker_0, # of connection points: 2
#     Edge 32, Type (0, 1), BuildingBlock: OJICUG_clean_linker_0, # of connection points: 2
#     Edge 33, Type (0, 1), BuildingBlock: OJICUG_clean_linker_0, # of connection points: 2
#     Edge 34, Type (0, 1), BuildingBlock: OJICUG_clean_linker_0, # of connection points: 2
#     Edge 35, Type (0, 1), BuildingBlock: OJICUG_clean_linker_0, # of connection points: 2
#     Edge 36, Type (0, 1), BuildingBlock: OJICUG_clean_linker_0, # of connection points: 2
#     Edge 37, Type (0, 1), BuildingBlock: OJICUG_clean_linker_0, # of connection points: 2
# Relax obj value: 0.000
# Max RMSD: 0.007
# Mean RMSD: 0.004
data_MOF--net-pto--node1-WUSLED_clean_sbu_0--node2-NAWXER_clean_sbu_0--edge1-OJICUG_clean_linker_0
_symmetry_space_group_name_H-M    P1
_symmetry_Int_Tables_number       1
_symmetry_cell_setting            triclinic
loop_
_symmetry_equiv_pos_as_xyz
'x, y, z'
_cell_length_a     43.397708
_cell_length_b     41.154932
_cell_length_c     38.818827
_cell_angle_alpha  89.293472
_cell_angle_beta   90.513212
_cell_angle_gamma 90.378908
loop_
_atom_site_label
_atom_site_type_symbol
_atom_site_fract_x
_atom_site_fract_y
_atom_site_fract_z
_atom_type_partial_charge
C0 C 0.29529 0.23909 0.36617 0.0
C1 C 0.32309 0.22186 0.36453 0.0
C2 C 0.30296 0.18093 0.40459 0.0
C3 C 0.32698 0.19301 0.38382 0.0
C4 C 0.27559 0.19891 0.4067 0.0
C5 C 0.27183 0.22762 0.38771 0.0
U6 U 0.31265 0.29903 0.29127 0.0
O7 O 0.28015 0.31957 0.25328 0.0
O8 O 0.30515 0.35191 0.28849 0.0
C9 C 0.28372 0.34936 0.2645 0.0
C10 C 0.28923 0.26813 0.34469 0.0
C11 C 0.25501 0.3673 0.2701 0.0
C12 C 0.2064 0.37502 0.2997 0.0
C13 C 0.23456 0.35874 0.29661 0.0
C14 C 0.21931 0.40875 0.25024 0.0
C15 C 0.19825 0.39985 0.27612 0.0
C16 C 0.24734 0.39262 0.24728 0.0
C17 C 0.38249 0.28722 0.23274 0.0
C18 C 0.39078 0.31757 0.17931 0.0
C19 C 0.42616 0.27499 0.19663 0.0
C20 C 0.4091 0.2693 0.22647 0.0
C21 C 0.41691 0.29874 0.17234 0.0
C22 C 0.3736 0.31176 0.20926 0.0
C23 C 0.36356 0.27856 0.26282 0.0
O24 O 0.3088 0.29251 0.34751 0.0
O25 O 0.28085 0.26242 0.31272 0.0
O26 O 0.33615 0.26658 0.25564 0.0
O27 O 0.36335 0.29961 0.28802 0.0
H28 H 0.34145 0.23035 0.34789 0.0
H29 H 0.34826 0.17963 0.38161 0.0
H30 H 0.25685 0.19054 0.42286 0.0
H31 H 0.25026 0.24061 0.38937 0.0
H32 H 0.19064 0.36755 0.31982 0.0
H33 H 0.24012 0.33913 0.31443 0.0
H34 H 0.21404 0.42814 0.23206 0.0
H35 H 0.26287 0.3996 0.22673 0.0
H36 H 0.38301 0.33592 0.16104 0.0
H37 H 0.44644 0.26043 0.19233 0.0
H38 H 0.41636 0.25036 0.24434 0.0
H39 H 0.35302 0.32581 0.2137 0.0
C40 C 0.29164 0.81221 0.71753 0.0
C41 C 0.31122 0.83884 0.72414 0.0
C42 C 0.29816 0.86294 0.6681 0.0
C43 C 0.31448 0.86397 0.6996 0.0
C44 C 0.27968 0.8355 0.66117 0.0
C45 C 0.27643 0.81052 0.68561 0.0
U46 U 0.31294 0.7546 0.79377 0.0
O47 O 0.28569 0.74249 0.83982 0.0
O48 O 0.29796 0.7042 0.80374 0.0
C49 C 0.28235 0.71185 0.83129 0.0
C50 C 0.28491 0.78699 0.74395 0.0
C51 C 0.25085 0.69848 0.83296 0.0
C52 C 0.19714 0.69827 0.81469 0.0
C53 C 0.22653 0.71255 0.81415 0.0
C54 C 0.216 0.65606 0.85331 0.0
C55 C 0.19159 0.66954 0.83391 0.0
C56 C 0.24531 0.67041 0.85281 0.0
C57 C 0.39504 0.75191 0.83119 0.0
C58 C 0.40984 0.73307 0.88866 0.0
C59 C 0.449 0.74405 0.84594 0.0
C60 C 0.42614 0.75238 0.82188 0.0
C61 C 0.44121 0.73524 0.87994 0.0
C62 C 0.38693 0.74132 0.86447 0.0
C63 C 0.37179 0.76421 0.80644 0.0
O64 O 0.29747 0.75838 0.73954 0.0
O65 O 0.28536 0.79634 0.77622 0.0
O66 O 0.34989 0.78219 0.81937 0.0
O67 O 0.3616 0.74333 0.78361 0.0
H68 H 0.32332 0.84066 0.74858 0.0
H69 H 0.3288 0.88476 0.70585 0.0
H70 H 0.26725 0.83354 0.63695 0.0
H71 H 0.26134 0.79017 0.67988 0.0
H72 H 0.17883 0.70956 0.79977 0.0
H73 H 0.23038 0.73426 0.79868 0.0
H74 H 0.21281 0.63374 0.86795 0.0
H75 H 0.26387 0.65916 0.86741 0.0
H76 H 0.40303 0.72664 0.91465 0.0
H77 H 0.47289 0.7455 0.83821 0.0
H78 H 0.43285 0.76017 0.79624 0.0
H79 H 0.36298 0.74053 0.87211 0.0
C80 C 0.72897 0.77901 0.25831 0.0
C81 C 0.7344 0.75664 0.23201 0.0
C82 C 0.68272 0.7656 0.2085 0.0
C83 C 0.71148 0.74999 0.20732 0.0
C84 C 0.67711 0.78696 0.2358 0.0
C85 C 0.70001 0.79363 0.26034 0.0
U86 U 0.80502 0.76303 0.30633 0.0
O87 O 0.84444 0.79568 0.31569 0.0
O88 O 0.81943 0.77446 0.35946 0.0
C89 C 0.84079 0.79515 0.34929 0.0
C90 C 0.75352 0.78858 0.28282 0.0
C91 C 0.84082 0.82704 0.36628 0.0
C92 C 0.82583 0.88381 0.36816 0.0
C93 C 0.82588 0.85392 0.35132 0.0
C94 C 0.85577 0.86043 0.41508 0.0
C95 C 0.84045 0.8874 0.4005 0.0
C96 C 0.85594 0.83059 0.39811 0.0
C97 C 0.84605 0.68197 0.28928 0.0
C98 C 0.89407 0.6642 0.31615 0.0
C99 C 0.87257 0.63483 0.26773 0.0
C100 C 0.84775 0.65616 0.26628 0.0
C101 C 0.89629 0.63889 0.29226 0.0
C102 C 0.86914 0.68576 0.31455 0.0
C103 C 0.82057 0.70507 0.28521 0.0
O104 O 0.75515 0.77161 0.31169 0.0
O105 O 0.78063 0.79462 0.26925 0.0
O106 O 0.82716 0.73199 0.26821 0.0
O107 O 0.80352 0.7098 0.31249 0.0
H108 H 0.7566 0.74495 0.23007 0.0
H109 H 0.7167 0.7336 0.1866 0.0
H110 H 0.65508 0.79894 0.23795 0.0
H111 H 0.69528 0.81076 0.28057 0.0
H112 H 0.81417 0.9041 0.35586 0.0
H113 H 0.81409 0.85177 0.32672 0.0
H114 H 0.86687 0.86206 0.44009 0.0
H115 H 0.86759 0.81011 0.41009 0.0
H116 H 0.91209 0.66798 0.33519 0.0
H117 H 0.87342 0.61532 0.24929 0.0
H118 H 0.83009 0.65281 0.2467 0.0
H119 H 0.86817 0.70566 0.3325 0.0
C120 C 0.78167 0.23273 0.72583 0.0
C121 C 0.80399 0.20849 0.73143 0.0
C122 C 0.79501 0.18744 0.67362 0.0
C123 C 0.81062 0.18611 0.70555 0.0
C124 C 0.77341 0.21232 0.66787 0.0
C125 C 0.76673 0.2345 0.69366 0.0
U126 U 0.79763 0.30331 0.78803 0.0
O127 O 0.76872 0.34544 0.79954 0.0
O128 O 0.78203 0.31154 0.84103 0.0
C129 C 0.7655 0.33698 0.83208 0.0
C130 C 0.77247 0.2555 0.75323 0.0
C131 C 0.73385 0.33746 0.84544 0.0
C132 C 0.67991 0.32137 0.8424 0.0
C133 C 0.70962 0.32126 0.82858 0.0
C134 C 0.6983 0.35415 0.88981 0.0
C135 C 0.67392 0.33752 0.87344 0.0
C136 C 0.72793 0.35411 0.87591 0.0
C137 C 0.87791 0.34314 0.78858 0.0
C138 C 0.89043 0.39306 0.81878 0.0
C139 C 0.92828 0.36812 0.78214 0.0
C140 C 0.90756 0.34305 0.77475 0.0
C141 C 0.91971 0.39383 0.80352 0.0
C142 C 0.86957 0.3679 0.81122 0.0
C143 C 0.85561 0.31846 0.77707 0.0
O144 O 0.78503 0.25153 0.78397 0.0
O145 O 0.77026 0.28619 0.74379 0.0
O146 O 0.83272 0.32953 0.758 0.0
O147 O 0.8469 0.29686 0.80028 0.0
H148 H 0.81594 0.20639 0.75595 0.0
H149 H 0.82721 0.16715 0.71097 0.0
H150 H 0.76133 0.2145 0.64342 0.0
H151 H 0.74945 0.25288 0.68857 0.0
H152 H 0.66166 0.3086 0.82887 0.0
H153 H 0.71374 0.30832 0.80494 0.0
H154 H 0.69478 0.36637 0.91399 0.0
H155 H 0.74639 0.3667 0.88931 0.0
H156 H 0.88319 0.41265 0.83516 0.0
H157 H 0.9508 0.36789 0.77033 0.0
H158 H 0.91439 0.32408 0.75732 0.0
H159 H 0.84667 0.3683 0.8221 0.0
C160 C 0.83616 0.71219 0.78402 0.0
C161 C 0.85546 0.71857 0.7558 0.0
C162 C 0.88934 0.67423 0.77378 0.0
C163 C 0.88182 0.69963 0.75063 0.0
C164 C 0.86923 0.6674 0.80125 0.0
C165 C 0.843 0.68619 0.8063 0.0
U166 U 0.78105 0.78271 0.76323 0.0
O167 O 0.73146 0.78814 0.77327 0.0
O168 O 0.76492 0.82137 0.79711 0.0
C169 C 0.73589 0.8124 0.7945 0.0
C170 C 0.80985 0.73324 0.79199 0.0
C171 C 0.71836 0.81112 0.82677 0.0
C172 C 0.71156 0.79321 0.88613 0.0
C173 C 0.72884 0.79366 0.85579 0.0
C174 C 0.67334 0.82776 0.85871 0.0
C175 C 0.68348 0.81017 0.88792 0.0
C176 C 0.69063 0.82822 0.82851 0.0
C177 C 0.78828 0.83303 0.68087 0.0
C178 C 0.74938 0.87078 0.65921 0.0
C179 C 0.80325 0.87955 0.6458 0.0
C180 C 0.81105 0.85143 0.66418 0.0
C181 C 0.77244 0.88979 0.64355 0.0
C182 C 0.75728 0.84269 0.67806 0.0
C183 C 0.79782 0.80531 0.70279 0.0
O184 O 0.81685 0.76373 0.79827 0.0
O185 O 0.78509 0.72992 0.77255 0.0
O186 O 0.77769 0.78154 0.70664 0.0
O187 O 0.81175 0.81334 0.73168 0.0
H188 H 0.85053 0.73862 0.73829 0.0
H189 H 0.89684 0.70558 0.72931 0.0
H190 H 0.87399 0.64766 0.8192 0.0
H191 H 0.82835 0.68081 0.82813 0.0
H192 H 0.72022 0.77964 0.9082 0.0
H193 H 0.75031 0.7804 0.85495 0.0
H194 H 0.65164 0.8406 0.85885 0.0
H195 H 0.68219 0.84183 0.80632 0.0
H196 H 0.72551 0.87824 0.65789 0.0
H197 H 0.82142 0.8936 0.6336 0.0
H198 H 0.83505 0.84444 0.66606 0.0
H199 H 0.7393 0.82899 0.691 0.0
C200 C 0.7189 0.24822 0.17843 0.0
C201 C 0.71957 0.27251 0.15282 0.0
C202 C 0.67237 0.25052 0.12719 0.0
C203 C 0.69651 0.27363 0.12738 0.0
C204 C 0.67245 0.22568 0.15239 0.0
C205 C 0.69549 0.2246 0.17777 0.0
U206 U 0.79205 0.27737 0.2274 0.0
O207 O 0.79686 0.28468 0.28328 0.0
O208 O 0.82469 0.24786 0.25782 0.0
C209 C 0.81593 0.26024 0.28719 0.0
C210 C 0.74123 0.24786 0.20713 0.0
C211 C 0.80776 0.23643 0.31421 0.0
C212 C 0.77835 0.18939 0.33419 0.0
C213 C 0.78475 0.21284 0.3087 0.0
C214 C 0.81721 0.21364 0.37119 0.0
C215 C 0.79492 0.1892 0.36553 0.0
C216 C 0.82359 0.23695 0.34575 0.0
C217 C 0.84663 0.34352 0.19399 0.0
C218 C 0.89534 0.35588 0.22262 0.0
C219 C 0.87677 0.3909 0.17647 0.0
C220 C 0.85066 0.371 0.17275 0.0
C221 C 0.89945 0.38371 0.20157 0.0
C222 C 0.86917 0.33607 0.21894 0.0
C223 C 0.81881 0.32302 0.19004 0.0
O224 O 0.76894 0.23715 0.20025 0.0
O225 O 0.74152 0.27376 0.2266 0.0
O226 O 0.79641 0.32883 0.21165 0.0
O227 O 0.82381 0.29182 0.186 0.0
H228 H 0.73756 0.2909 0.15291 0.0
H229 H 0.69739 0.29282 0.10806 0.0
H230 H 0.65409 0.20775 0.15331 0.0
H231 H 0.6946 0.20573 0.19746 0.0
H232 H 0.76119 0.17084 0.32894 0.0
H233 H 0.77218 0.21222 0.28448 0.0
H234 H 0.82999 0.21457 0.39526 0.0
H235 H 0.8412 0.25516 0.35055 0.0
H236 H 0.91243 0.34926 0.2419 0.0
H237 H 0.87884 0.41232 0.16016 0.0
H238 H 0.83345 0.37722 0.15343 0.0
H239 H 0.86651 0.31493 0.23559 0.0
C240 C 0.22357 0.22515 0.68922 0.0
C241 C 0.24018 0.19904 0.70346 0.0
C242 C 0.22599 0.16529 0.65452 0.0
C243 C 0.24125 0.16936 0.68637 0.0
C244 C 0.20872 0.19134 0.64084 0.0
C245 C 0.20756 0.22099 0.65806 0.0
U246 U 0.26051 0.28516 0.75105 0.0
O247 O 0.26809 0.33791 0.74525 0.0
O248 O 0.23992 0.31888 0.78772 0.0
C249 C 0.24998 0.3448 0.77108 0.0
C250 C 0.22408 0.25715 0.70575 0.0
C251 C 0.22697 0.37037 0.76465 0.0
C252 C 0.18026 0.39061 0.73669 0.0
C253 C 0.20306 0.3667 0.7403 0.0
C254 C 0.20564 0.42224 0.78099 0.0
C255 C 0.18096 0.41831 0.7576 0.0
C256 C 0.22834 0.39852 0.78447 0.0
C257 C 0.33319 0.25644 0.80109 0.0
C258 C 0.35614 0.28174 0.85159 0.0
C259 C 0.38284 0.2382 0.82325 0.0
C260 C 0.35879 0.23598 0.79913 0.0
C261 C 0.38178 0.26096 0.84998 0.0
C262 C 0.33207 0.27951 0.82736 0.0
C263 C 0.30765 0.25235 0.77616 0.0
O264 O 0.21857 0.25704 0.739 0.0
O265 O 0.24737 0.27603 0.69712 0.0
O266 O 0.30908 0.27009 0.74782 0.0
O267 O 0.27981 0.25079 0.78916 0.0
H268 H 0.25276 0.2018 0.7275 0.0
H269 H 0.25442 0.14973 0.69791 0.0
H270 H 0.19705 0.18926 0.61619 0.0
H271 H 0.19474 0.24095 0.64661 0.0
H272 H 0.16146 0.38682 0.71861 0.0
H273 H 0.20167 0.34505 0.72474 0.0
H274 H 0.20708 0.44348 0.79715 0.0
H275 H 0.24667 0.40185 0.80327 0.0
H276 H 0.35435 0.29934 0.87197 0.0
H277 H 0.40238 0.2222 0.82076 0.0
H278 H 0.3601 0.21805 0.77899 0.0
H279 H 0.31247 0.29552 0.82936 0.0
C280 C 0.19452 0.73206 0.24655 0.0
C281 C 0.20072 0.71055 0.2197 0.0
C282 C 0.15748 0.67609 0.23729 0.0
C283 C 0.1822 0.68279 0.21499 0.0
C284 C 0.15106 0.69829 0.26352 0.0
C285 C 0.16939 0.72592 0.26807 0.0
U286 U 0.26658 0.78656 0.2334 0.0
O287 O 0.27046 0.83986 0.23694 0.0
O288 O 0.29628 0.80854 0.27295 0.0
C289 C 0.28842 0.83834 0.26435 0.0
C290 C 0.21437 0.76034 0.25387 0.0
C291 C 0.2803 0.85943 0.29315 0.0
C292 C 0.25182 0.87006 0.34551 0.0
C293 C 0.25707 0.85081 0.31659 0.0
C294 C 0.29232 0.907 0.32711 0.0
C295 C 0.26987 0.89801 0.35144 0.0
C296 C 0.29747 0.88787 0.29831 0.0
C297 C 0.32865 0.7681 0.1677 0.0
C298 C 0.3741 0.8025 0.16055 0.0
C299 C 0.37115 0.75026 0.13259 0.0
C300 C 0.34191 0.74494 0.14641 0.0
C301 C 0.3878 0.77889 0.13982 0.0
C302 C 0.34479 0.79706 0.17454 0.0
C303 C 0.29871 0.76091 0.18375 0.0
O304 O 0.24116 0.75375 0.26825 0.0
O305 O 0.21597 0.78301 0.22977 0.0
O306 O 0.27685 0.78238 0.17819 0.0
O307 O 0.30026 0.75078 0.21594 0.0
H308 H 0.22013 0.71492 0.20286 0.0
H309 H 0.18779 0.66608 0.19466 0.0
H310 H 0.13192 0.69416 0.28078 0.0
H311 H 0.1642 0.74229 0.28886 0.0
H312 H 0.23446 0.86244 0.36384 0.0
H313 H 0.24359 0.82885 0.31296 0.0
H314 H 0.30624 0.92868 0.3306 0.0
H315 H 0.3154 0.89495 0.28042 0.0
H316 H 0.38638 0.82469 0.16675 0.0
H317 H 0.3808 0.73182 0.11627 0.0
H318 H 0.3298 0.72247 0.14084 0.0
H319 H 0.33493 0.81517 0.19114 0.0
C320 C 1.00244 0.47287 0.2229 0.0
C321 C 0.0791 0.56136 0.2319 0.0
O322 O 1.01062 0.47923 0.25394 0.0
Zn323 Zn 0.0414 0.51132 0.2808 0.0
O324 O 1.01514 0.48828 0.19812 0.0
Zn325 Zn 0.04193 0.51638 0.22553 0.0
O326 O 0.07536 0.48381 0.24656 0.0
O327 O 0.07109 0.48212 0.30311 0.0
O328 O 0.0679 0.54993 0.20409 0.0
O329 O 0.0709 0.54887 0.26085 0.0
O330 O 1.01235 0.53688 0.30754 0.0
O331 O 1.00911 0.54549 0.25142 0.0
C332 C 0.08452 0.47288 0.27595 0.0
C333 C 0.99988 0.5515 0.28193 0.0
C334 C 1.00223 0.50486 0.81157 0.0
C335 C 0.08058 0.59148 0.82016 0.0
O336 O 1.01308 0.51617 0.83962 0.0
Zn337 Zn 0.04017 0.54903 0.81846 0.0
O338 O 1.01097 0.51719 0.7828 0.0
Zn339 Zn 0.04077 0.55375 0.76258 0.0
O340 O 0.06982 0.52669 0.73667 0.0
O341 O 0.07227 0.51912 0.79297 0.0
O342 O 0.07194 0.58505 0.78931 0.0
O343 O 0.06797 0.57655 0.84534 0.0
O344 O 1.00795 0.58254 0.79745 0.0
O345 O 1.01113 0.58397 0.74082 0.0
C346 C 0.08176 0.51228 0.76279 0.0
C347 C 0.9986 0.59381 0.76832 0.0
C348 C 0.29699 0.97152 0.57052 0.0
C349 C 0.30192 0.0627 0.4868 0.0
O350 O 0.27089 0.97971 0.55748 0.0
Zn351 Zn 0.25218 1.01409 0.52157 0.0
O352 O 0.32115 0.98691 0.56131 0.0
Zn353 Zn 0.30142 1.01733 0.52877 0.0
O354 O 0.27493 0.04731 0.56165 0.0
O355 O 0.22549 0.04053 0.54995 0.0
O356 O 0.32484 0.05076 0.50323 0.0
O357 O 0.27495 0.05081 0.49179 0.0
O358 O 0.23525 0.98648 0.48556 0.0
O359 O 0.28608 0.98633 0.48801 0.0
C360 C 0.24673 0.05444 0.56727 0.0
C361 C 0.26084 0.97662 0.47395 0.0
C362 C 0.59472 0.75353 0.09533 0.0
C363 C 0.5271 0.73895 0.99382 0.0
O364 O 0.58713 0.72653 0.08188 0.0
Zn365 Zn 0.56036 0.74377 0.0451 0.0
O366 O 0.58389 0.77995 0.08244 0.0
Zn367 Zn 0.55457 0.79589 0.04142 0.0
O368 O 0.51957 0.81541 0.06489 0.0
O369 O 0.52199 0.76229 0.07223 0.0
O370 O 0.53168 0.76842 1.00279 0.0
O371 O 0.53883 0.71584 1.01162 0.0
O372 O 0.59236 0.76881 1.01239 0.0
O373 O 0.58259 0.82139 1.01264 0.0
C374 C 0.50845 0.78928 0.07771 0.0
C375 C 0.59853 0.79776 1.00183 0.0
C376 C 0.76601 1.00443 0.55996 0.0
C377 C 0.78087 0.0879 0.46971 0.0
O378 O 0.74458 1.01567 0.54067 0.0
Zn379 Zn 0.77086 0.04611 0.5145 0.0
O380 O 0.7937 1.01463 0.55617 0.0
Zn381 Zn 0.8202 0.04695 0.52552 0.0
O382 O 0.83582 0.0771 0.56049 0.0
O383 O 0.78539 0.07944 0.55317 0.0
O384 O 0.80546 0.079 0.48558 0.0
O385 O 0.75512 0.07517 0.47809 0.0
O386 O 0.79729 1.01259 0.48626 0.0
O387 O 0.84638 1.01609 0.50096 0.0
C388 C 0.80995 0.08923 0.56857 0.0
C389 C 0.82506 1.00286 0.48308 0.0
C390 C 0.56805 0.26392 0.03345 0.0
C391 C 0.48182 0.26919 0.95048 0.0
O392 O 0.55535 0.23988 1.01842 0.0
Zn393 Zn 0.52483 0.26501 0.99242 0.0
O394 O 0.55782 0.29264 0.02769 0.0
Zn395 Zn 0.52302 0.31683 0.99754 0.0
O396 O 0.49737 0.33524 0.03365 0.0
O397 O 0.49621 0.2817 0.03287 0.0
O398 O 0.48989 0.29709 0.962 0.0
O399 O 0.49589 0.24397 0.96124 0.0
O400 O 0.55432 0.29185 0.95862 0.0
O401 O 0.54912 0.34423 0.96819 0.0
C402 C 0.48766 0.30842 0.04631 0.0
C403 C 0.56199 0.32136 0.95196 0.0
C404 C 0.15503 0.42659 0.30847 0.0
C405 C 0.16764 0.41596 0.2773 0.0
H406 H 0.11873 0.45303 0.33271 0.0
C407 C 0.15127 0.42189 0.24651 0.0
H408 H 0.16711 0.42238 0.33263 0.0
C409 C 0.12382 0.43928 0.24654 0.0
C410 C 0.11181 0.45127 0.27738 0.0
H411 H 0.15992 0.41337 0.22215 0.0
H412 H 0.11233 0.44389 0.22209 0.0
C413 C 0.12736 0.44415 0.30851 0.0
C414 C 0.14858 0.63621 0.86063 0.0
C415 C 0.16124 0.65237 0.83177 0.0
H416 H 0.11296 0.60455 0.87989 0.0
C417 C 0.14561 0.65027 0.80001 0.0
H418 H 0.15978 0.63765 0.88561 0.0
C419 C 0.11879 0.6316 0.79684 0.0
C420 C 0.10678 0.61438 0.8253 0.0
H421 H 0.15477 0.66196 0.77711 0.0
H422 H 0.108 0.62992 0.77165 0.0
C423 C 0.12161 0.61744 0.85745 0.0
C424 C 0.93758 0.61195 0.25907 0.0
C425 C 0.92393 0.61785 0.29099 0.0
H426 H 0.97197 0.58691 0.23137 0.0
C427 C 0.93641 0.60293 0.32077 0.0
H428 H 0.92893 0.62357 0.23577 0.0
C429 C 0.96143 0.58157 0.31832 0.0
C430 C 0.97444 0.57505 0.28607 0.0
H431 H 0.92631 0.6071 0.34573 0.0
H432 H 0.97022 0.56984 0.34148 0.0
C433 C 0.96242 0.59093 0.25664 0.0
C434 C 0.94722 0.43666 0.83882 0.0
C435 C 0.94028 0.42262 0.80676 0.0
H436 H 0.9727 0.47364 0.86585 0.0
C437 C 0.95317 0.43632 0.7769 0.0
H438 H 0.93751 0.42654 0.86225 0.0
C439 C 0.97286 0.46304 0.77887 0.0
C440 C 0.98046 0.47689 0.81082 0.0
H441 H 0.94784 0.42646 0.75177 0.0
H442 H 0.98233 0.47264 0.75508 0.0
C443 C 0.96737 0.46348 0.84088 0.0
C444 C 0.28021 0.12725 0.42121 0.0
C445 C 0.30518 0.14902 0.42288 0.0
H446 H 0.25995 0.08308 0.43941 0.0
C447 C 0.33095 0.14062 0.44336 0.0
H448 H 0.26033 0.13261 0.40507 0.0
C449 C 0.33082 0.11181 0.4633 0.0
C450 C 0.30495 0.09101 0.46291 0.0
H451 H 0.35057 0.15693 0.44506 0.0
H452 H 0.35035 0.10652 0.47995 0.0
C453 C 0.28008 0.09874 0.44089 0.0
C454 C 0.46423 0.70863 0.93348 0.0
C455 C 0.46566 0.73236 0.907 0.0
H456 H 0.48332 0.6914 0.98175 0.0
C457 C 0.48956 0.75552 0.9079 0.0
H458 H 0.44617 0.69035 0.9334 0.0
C459 C 0.51047 0.7561 0.9353 0.0
C460 C 0.50831 0.73341 0.96249 0.0
H461 H 0.49121 0.77441 0.88832 0.0
H462 H 0.52776 0.77522 0.93586 0.0
C463 C 0.48561 0.70899 0.96093 0.0
C464 C 0.81016 0.93566 0.41924 0.0
C465 C 0.83799 0.91843 0.41984 0.0
H466 H 0.78457 0.97558 0.43807 0.0
C467 C 0.86258 0.93042 0.44014 0.0
H468 H 0.79053 0.92704 0.40448 0.0
C469 C 0.85907 0.95851 0.45994 0.0
C470 C 0.83085 0.97508 0.45991 0.0
H471 H 0.88449 0.91798 0.44092 0.0
H472 H 0.87813 0.96673 0.47585 0.0
C473 C 0.80668 0.96352 0.43886 0.0
C474 C 0.62678 0.3055 0.88998 0.0
C475 C 0.64308 0.33512 0.89004 0.0
H476 H 0.58839 0.27822 0.90888 0.0
C477 C 0.6306 0.36145 0.90802 0.0
H478 H 0.63573 0.28457 0.87683 0.0
C479 C 0.60327 0.35774 0.92677 0.0
C480 C 0.58793 0.32757 0.92801 0.0
H481 H 0.64229 0.38478 0.90818 0.0
H482 H 0.5949 0.37807 0.94136 0.0
C483 C 0.59962 0.30181 0.90865 0.0
C484 C 0.27109 0.90105 0.62728 0.0
C485 C 0.29862 0.89101 0.64334 0.0
H486 H 0.24904 0.93388 0.59221 0.0
C487 C 0.326 0.90811 0.63565 0.0
H488 H 0.24946 0.88897 0.63305 0.0
C489 C 0.32578 0.9343 0.61202 0.0
C490 C 0.29814 0.94405 0.59582 0.0
H491 H 0.34764 0.90095 0.6475 0.0
H492 H 0.34722 0.94683 0.60641 0.0
C493 C 0.27085 0.92709 0.60393 0.0
C494 C 0.65372 0.73111 0.16507 0.0
C495 C 0.65942 0.7615 0.18031 0.0
H496 H 0.6286 0.70446 0.1265 0.0
C497 C 0.64316 0.78864 0.16773 0.0
H498 H 0.6657 0.70964 0.17425 0.0
C499 C 0.62202 0.78567 0.14065 0.0
C500 C 0.6164 0.75545 0.12516 0.0
H501 H 0.64727 0.81253 0.17829 0.0
H502 H 0.61029 0.80735 0.13164 0.0
C503 C 0.63234 0.72809 0.13785 0.0
C504 C 0.77415 0.14985 0.6287 0.0
C505 C 0.79968 0.1621 0.64698 0.0
H506 H 0.75739 0.11777 0.59012 0.0
C507 C 0.82911 0.14984 0.63956 0.0
H508 H 0.75107 0.15809 0.63416 0.0
C509 C 0.83282 0.1262 0.61407 0.0
C510 C 0.80714 0.11429 0.59566 0.0
H511 H 0.8493 0.15883 0.65308 0.0
H512 H 0.85571 0.11734 0.60878 0.0
C513 C 0.77781 0.12642 0.60346 0.0
C514 C 0.44169 0.3328 0.12522 0.0
C515 C 0.43365 0.30217 0.13914 0.0
H516 H 0.46528 0.35905 0.08497 0.0
C517 C 0.44214 0.27419 0.12131 0.0
H518 H 0.43545 0.35482 0.1384 0.0
C519 C 0.45894 0.27657 0.09094 0.0
C520 C 0.4679 0.30703 0.07741 0.0
H521 H 0.43579 0.25026 0.1309 0.0
H522 H 0.46526 0.25427 0.07835 0.0
C523 C 0.4588 0.33522 0.09469 0.0
C524 C 0.93615 0.64908 0.8007 0.0
C525 C 0.91867 0.65578 0.77087 0.0
H526 H 0.97488 0.62501 0.82309 0.0
C527 C 0.92912 0.64401 0.73913 0.0
H528 H 0.92929 0.65842 0.82543 0.0
C529 C 0.95572 0.62467 0.73767 0.0
C530 C 0.97235 0.61693 0.76794 0.0
H531 H 0.91618 0.64881 0.71565 0.0
H532 H 0.96267 0.61503 0.71313 0.0
C533 C 0.9625 0.62999 0.79927 0.0
C534 C 0.94144 0.42074 0.17829 0.0
C535 C 0.92672 0.40563 0.20653 0.0
H536 H 0.97696 0.45355 0.16108 0.0
C537 C 0.93789 0.41218 0.23986 0.0
H538 H 0.93376 0.41599 0.1522 0.0
C539 C 0.96276 0.43342 0.24489 0.0
C540 C 0.97721 0.44888 0.21676 0.0
H541 H 0.92694 0.40151 0.2623 0.0
H542 H 0.97029 0.43809 0.27105 0.0
C543 C 0.96638 0.44211 0.18334 0.0
C544 C 0.1431 0.4518 0.78917 0.0
C545 C 0.15502 0.44184 0.75758 0.0
H546 H 0.11112 0.48124 0.81543 0.0
C547 C 0.14211 0.45465 0.7269 0.0
H548 H 0.15203 0.44195 0.81325 0.0
C549 C 0.11823 0.47763 0.72805 0.0
C550 C 0.10671 0.48783 0.75991 0.0
H551 H 0.15086 0.44738 0.70214 0.0
H552 H 0.10893 0.48744 0.70415 0.0
C553 C 0.11939 0.47434 0.79033 0.0
C554 C 0.13182 0.62795 0.26481 0.0
C555 C 0.13904 0.64554 0.2347 0.0
H556 H 0.10776 0.58789 0.28744 0.0
C557 C 0.12776 0.63418 0.2029 0.0
H558 H 0.14064 0.6356 0.28964 0.0
C559 C 0.10868 0.60646 0.20153 0.0
C560 C 0.10076 0.58952 0.23195 0.0
H561 H 0.13293 0.64726 0.17924 0.0
H562 H 0.09971 0.59869 0.17683 0.0
C563 C 0.11301 0.60041 0.26347 0.0
C564 C 0.78257 0.94876 0.63462 0.0
C565 C 0.76527 0.92108 0.62606 0.0
H566 H 0.79546 0.99725 0.62076 0.0
C567 C 0.74365 0.92307 0.59888 0.0
H568 H 0.79894 0.94806 0.65586 0.0
C569 C 0.7415 0.95156 0.57865 0.0
C570 C 0.76093 0.97819 0.58557 0.0
H571 H 0.72998 0.90201 0.59191 0.0
H572 H 0.72647 0.95183 0.55622 0.0
C573 C 0.78042 0.97695 0.61463 0.0
C574 C 0.6338 0.28414 0.09449 0.0
C575 C 0.64622 0.25347 0.10222 0.0
H576 H 0.59963 0.31136 0.06718 0.0
C577 C 0.63268 0.22587 0.087 0.0
H578 H 0.6432 0.30585 0.1062 0.0
C579 C 0.60728 0.22897 0.0646 0.0
C580 C 0.59486 0.25974 0.05708 0.0
H581 H 0.64182 0.20187 0.09225 0.0
H582 H 0.5974 0.20733 0.05324 0.0
C583 C 0.60853 0.28723 0.07227 0.0
C584 C 0.2591 0.12025 0.6332 0.0
C585 C 0.23002 0.13496 0.63447 0.0
H586 H 0.28695 0.08337 0.61154 0.0
C587 C 0.20563 0.12144 0.61507 0.0
H588 H 0.27856 0.13019 0.64731 0.0
C589 C 0.21052 0.09441 0.59416 0.0
C590 C 0.23994 0.0805 0.59212 0.0
H591 H 0.18284 0.13195 0.61576 0.0
H592 H 0.19152 0.08506 0.57887 0.0
C593 C 0.26397 0.09342 0.61239 0.0
C594 C 0.44015 0.75694 0.12762 0.0
C595 C 0.41968 0.78322 0.12652 0.0
H596 H 0.48405 0.73849 0.11377 0.0
C597 C 0.42969 0.81285 0.11177 0.0
H598 H 0.43349 0.73403 0.13951 0.0
C599 C 0.45905 0.81554 0.09696 0.0
C600 C 0.47893 0.78867 0.0968 0.0
H601 H 0.41443 0.83356 0.11054 0.0
H602 H 0.46574 0.83824 0.08467 0.0
C603 C 0.4693 0.75962 0.113 0.0
C604 C 0.76098 0.15087 0.40018 0.0
C605 C 0.79049 0.16273 0.39156 0.0
H606 H 0.73454 0.11792 0.43184 0.0
C607 C 0.81631 0.14904 0.40803 0.0
H608 H 0.7406 0.16098 0.38797 0.0
C609 C 0.81287 0.1247 0.43294 0.0
C610 C 0.78347 0.11313 0.44218 0.0
H611 H 0.8394 0.15699 0.40149 0.0
H612 H 0.83351 0.115 0.44502 0.0
C613 C 0.75749 0.1263 0.42534 0.0
C614 C 0.42181 0.23462 0.88864 0.0
C615 C 0.40733 0.26294 0.87595 0.0
H616 H 0.45649 0.21425 0.92199 0.0
C617 C 0.41763 0.2932 0.88814 0.0
H618 H 0.41424 0.21085 0.88024 0.0
C619 C 0.44171 0.2951 0.91226 0.0
C620 C 0.45623 0.26682 0.92486 0.0
H621 H 0.4074 0.31554 0.87865 0.0
H622 H 0.44904 0.31888 0.92089 0.0
C623 C 0.44596 0.23653 0.91276 0.0
C624 C 0.23777 0.92534 0.39664 0.0
C625 C 0.26679 0.91697 0.38361 0.0
H626 H 0.21295 0.95098 0.43538 0.0
C627 C 0.29339 0.92718 0.40139 0.0
H628 H 0.21686 0.91784 0.38345 0.0
C629 C 0.29119 0.94593 0.43091 0.0
C630 C 0.26231 0.95512 0.44357 0.0
H631 H 0.31607 0.92061 0.39248 0.0
H632 H 0.31234 0.95352 0.44357 0.0
C633 C 0.23555 0.94437 0.42629 0.0
C634 C 0.66057 0.77858 0.93727 0.0
C635 C 0.66397 0.80822 0.91934 0.0
H636 H 0.63766 0.75221 0.9773 0.0
C637 C 0.64725 0.83531 0.93057 0.0
H638 H 0.67272 0.75712 0.92921 0.0
C639 C 0.6268 0.83246 0.95823 0.0
C640 C 0.6226 0.80244 0.97523 0.0
H641 H 0.64967 0.85866 0.91768 0.0
H642 H 0.61368 0.85351 0.96562 0.0
C643 C 0.6402 0.77574 0.96481 0.0
loop_
_geom_bond_atom_site_label_1
_geom_bond_atom_site_label_2
_geom_bond_distance
_geom_bond_site_symmetry_2
_ccdc_geom_bond_type
C0 C1 1.264 . S
C0 C5 1.479 . S
C0 C10 1.465 . S
C1 C0 1.264 . S
C1 C3 1.339 . S
C1 H28 0.931 . S
C2 C3 1.395 . S
C2 C4 1.320 . S
C3 C1 1.339 . S
C3 C2 1.395 . S
C3 H29 0.929 . S
C4 C2 1.320 . S
C4 C5 1.405 . S
C4 H30 0.930 . S
C5 C0 1.479 . S
C5 C4 1.405 . S
C5 H31 0.931 . S
U6 O7 2.454 . S
U6 O8 2.458 . S
U6 C9 2.984 . S
U6 C10 2.847 . S
U6 C23 2.882 . S
U6 O24 2.441 . S
U6 O25 2.420 . S
U6 O26 2.455 . S
U6 O27 2.449 . S
O7 U6 2.454 . S
O7 C9 1.353 . S
O8 U6 2.458 . S
O8 C9 1.286 . S
C9 U6 2.984 . S
C9 O7 1.353 . S
C9 O8 1.286 . S
C9 C11 1.363 . S
C10 C0 1.465 . S
C10 U6 2.847 . S
C10 O24 1.249 . S
C10 O25 1.202 . S
C11 C9 1.363 . S
C11 C13 1.408 . S
C11 C16 1.342 . S
C12 C13 1.310 . S
C12 C15 1.461 . S
C12 H32 0.932 . S
C13 C11 1.408 . S
C13 C12 1.310 . S
C13 H33 0.930 . S
C14 C15 1.474 . S
C14 C16 1.285 . S
C14 H34 0.929 . S
C15 C12 1.461 . S
C15 C14 1.474 . S
C16 C11 1.342 . S
C16 C14 1.285 . S
C16 H35 0.930 . S
C17 C20 1.424 . S
C17 C22 1.245 . S
C17 C23 1.428 . S
C18 C21 1.260 . S
C18 C22 1.477 . S
C18 H36 0.932 . S
C19 C20 1.384 . S
C19 C21 1.479 . S
C19 H37 0.929 . S
C20 C17 1.424 . S
C20 C19 1.384 . S
C20 H38 0.928 . S
C21 C18 1.260 . S
C21 C19 1.479 . S
C22 C17 1.245 . S
C22 C18 1.477 . S
C22 H39 0.932 . S
C23 U6 2.882 . S
C23 C17 1.428 . S
C23 O26 1.301 . S
C23 O27 1.282 . S
O24 U6 2.441 . S
O24 C10 1.249 . S
O25 U6 2.420 . S
O25 C10 1.202 . S
O26 U6 2.455 . S
O26 C23 1.301 . S
O27 U6 2.449 . S
O27 C23 1.282 . S
H28 C1 0.931 . S
H29 C3 0.929 . S
H30 C4 0.930 . S
H31 C5 0.931 . S
H32 C12 0.932 . S
H33 C13 0.930 . S
H34 C14 0.929 . S
H35 C16 0.930 . S
H36 C18 0.932 . S
H37 C19 0.929 . S
H38 C20 0.928 . S
H39 C22 0.932 . S
C40 C41 1.264 . S
C40 C45 1.479 . S
C40 C50 1.465 . S
C41 C40 1.264 . S
C41 C43 1.339 . S
C41 H68 0.931 . S
C42 C43 1.395 . S
C42 C44 1.320 . S
C43 C41 1.339 . S
C43 C42 1.395 . S
C43 H69 0.929 . S
C44 C42 1.320 . S
C44 C45 1.405 . S
C44 H70 0.930 . S
C45 C40 1.479 . S
C45 C44 1.405 . S
C45 H71 0.931 . S
U46 O47 2.454 . S
U46 O48 2.458 . S
U46 C49 2.984 . S
U46 C50 2.847 . S
U46 C63 2.882 . S
U46 O64 2.441 . S
U46 O65 2.420 . S
U46 O66 2.455 . S
U46 O67 2.449 . S
O47 U46 2.454 . S
O47 C49 1.353 . S
O48 U46 2.458 . S
O48 C49 1.286 . S
C49 U46 2.984 . S
C49 O47 1.353 . S
C49 O48 1.286 . S
C49 C51 1.363 . S
C50 C40 1.465 . S
C50 U46 2.847 . S
C50 O64 1.249 . S
C50 O65 1.202 . S
C51 C49 1.363 . S
C51 C53 1.408 . S
C51 C56 1.342 . S
C52 C53 1.310 . S
C52 C55 1.461 . S
C52 H72 0.932 . S
C53 C51 1.408 . S
C53 C52 1.310 . S
C53 H73 0.930 . S
C54 C55 1.474 . S
C54 C56 1.285 . S
C54 H74 0.929 . S
C55 C52 1.461 . S
C55 C54 1.474 . S
C56 C51 1.342 . S
C56 C54 1.285 . S
C56 H75 0.930 . S
C57 C60 1.424 . S
C57 C62 1.245 . S
C57 C63 1.428 . S
C58 C61 1.260 . S
C58 C62 1.477 . S
C58 H76 0.932 . S
C59 C60 1.384 . S
C59 C61 1.479 . S
C59 H77 0.929 . S
C60 C57 1.424 . S
C60 C59 1.384 . S
C60 H78 0.928 . S
C61 C58 1.260 . S
C61 C59 1.479 . S
C62 C57 1.245 . S
C62 C58 1.477 . S
C62 H79 0.932 . S
C63 U46 2.882 . S
C63 C57 1.428 . S
C63 O66 1.301 . S
C63 O67 1.282 . S
O64 U46 2.441 . S
O64 C50 1.249 . S
O65 U46 2.420 . S
O65 C50 1.202 . S
O66 U46 2.455 . S
O66 C63 1.301 . S
O67 U46 2.449 . S
O67 C63 1.282 . S
H68 C41 0.931 . S
H69 C43 0.929 . S
H70 C44 0.930 . S
H71 C45 0.931 . S
H72 C52 0.932 . S
H73 C53 0.930 . S
H74 C54 0.929 . S
H75 C56 0.930 . S
H76 C58 0.932 . S
H77 C59 0.929 . S
H78 C60 0.928 . S
H79 C62 0.932 . S
C80 C81 1.264 . S
C80 C85 1.479 . S
C80 C90 1.465 . S
C81 C80 1.264 . S
C81 C83 1.339 . S
C81 H108 0.931 . S
C82 C83 1.395 . S
C82 C84 1.320 . S
C83 C81 1.339 . S
C83 C82 1.395 . S
C83 H109 0.929 . S
C84 C82 1.320 . S
C84 C85 1.405 . S
C84 H110 0.930 . S
C85 C80 1.479 . S
C85 C84 1.405 . S
C85 H111 0.931 . S
U86 O87 2.454 . S
U86 O88 2.458 . S
U86 C89 2.984 . S
U86 C90 2.847 . S
U86 C103 2.882 . S
U86 O104 2.441 . S
U86 O105 2.420 . S
U86 O106 2.455 . S
U86 O107 2.449 . S
O87 U86 2.454 . S
O87 C89 1.353 . S
O88 U86 2.458 . S
O88 C89 1.286 . S
C89 U86 2.984 . S
C89 O87 1.353 . S
C89 O88 1.286 . S
C89 C91 1.363 . S
C90 C80 1.465 . S
C90 U86 2.847 . S
C90 O104 1.249 . S
C90 O105 1.202 . S
C91 C89 1.363 . S
C91 C93 1.408 . S
C91 C96 1.342 . S
C92 C93 1.310 . S
C92 C95 1.461 . S
C92 H112 0.932 . S
C93 C91 1.408 . S
C93 C92 1.310 . S
C93 H113 0.930 . S
C94 C95 1.474 . S
C94 C96 1.285 . S
C94 H114 0.929 . S
C95 C92 1.461 . S
C95 C94 1.474 . S
C96 C91 1.342 . S
C96 C94 1.285 . S
C96 H115 0.930 . S
C97 C100 1.424 . S
C97 C102 1.245 . S
C97 C103 1.428 . S
C98 C101 1.260 . S
C98 C102 1.477 . S
C98 H116 0.932 . S
C99 C100 1.384 . S
C99 C101 1.479 . S
C99 H117 0.929 . S
C100 C97 1.424 . S
C100 C99 1.384 . S
C100 H118 0.928 . S
C101 C98 1.260 . S
C101 C99 1.479 . S
C102 C97 1.245 . S
C102 C98 1.477 . S
C102 H119 0.932 . S
C103 U86 2.882 . S
C103 C97 1.428 . S
C103 O106 1.301 . S
C103 O107 1.282 . S
O104 U86 2.441 . S
O104 C90 1.249 . S
O105 U86 2.420 . S
O105 C90 1.202 . S
O106 U86 2.455 . S
O106 C103 1.301 . S
O107 U86 2.449 . S
O107 C103 1.282 . S
H108 C81 0.931 . S
H109 C83 0.929 . S
H110 C84 0.930 . S
H111 C85 0.931 . S
H112 C92 0.932 . S
H113 C93 0.930 . S
H114 C94 0.929 . S
H115 C96 0.930 . S
H116 C98 0.932 . S
H117 C99 0.929 . S
H118 C100 0.928 . S
H119 C102 0.932 . S
C120 C121 1.264 . S
C120 C125 1.479 . S
C120 C130 1.465 . S
C121 C120 1.264 . S
C121 C123 1.339 . S
C121 H148 0.931 . S
C122 C123 1.395 . S
C122 C124 1.320 . S
C123 C121 1.339 . S
C123 C122 1.395 . S
C123 H149 0.929 . S
C124 C122 1.320 . S
C124 C125 1.405 . S
C124 H150 0.930 . S
C125 C120 1.479 . S
C125 C124 1.405 . S
C125 H151 0.931 . S
U126 O127 2.454 . S
U126 O128 2.458 . S
U126 C129 2.984 . S
U126 C130 2.847 . S
U126 C143 2.882 . S
U126 O144 2.441 . S
U126 O145 2.420 . S
U126 O146 2.455 . S
U126 O147 2.449 . S
O127 U126 2.454 . S
O127 C129 1.353 . S
O128 U126 2.458 . S
O128 C129 1.286 . S
C129 U126 2.984 . S
C129 O127 1.353 . S
C129 O128 1.286 . S
C129 C131 1.363 . S
C130 C120 1.465 . S
C130 U126 2.847 . S
C130 O144 1.249 . S
C130 O145 1.202 . S
C131 C129 1.363 . S
C131 C133 1.408 . S
C131 C136 1.342 . S
C132 C133 1.310 . S
C132 C135 1.461 . S
C132 H152 0.932 . S
C133 C131 1.408 . S
C133 C132 1.310 . S
C133 H153 0.930 . S
C134 C135 1.474 . S
C134 C136 1.285 . S
C134 H154 0.929 . S
C135 C132 1.461 . S
C135 C134 1.474 . S
C136 C131 1.342 . S
C136 C134 1.285 . S
C136 H155 0.930 . S
C137 C140 1.424 . S
C137 C142 1.245 . S
C137 C143 1.428 . S
C138 C141 1.260 . S
C138 C142 1.477 . S
C138 H156 0.932 . S
C139 C140 1.384 . S
C139 C141 1.479 . S
C139 H157 0.929 . S
C140 C137 1.424 . S
C140 C139 1.384 . S
C140 H158 0.928 . S
C141 C138 1.260 . S
C141 C139 1.479 . S
C142 C137 1.245 . S
C142 C138 1.477 . S
C142 H159 0.932 . S
C143 U126 2.882 . S
C143 C137 1.428 . S
C143 O146 1.301 . S
C143 O147 1.282 . S
O144 U126 2.441 . S
O144 C130 1.249 . S
O145 U126 2.420 . S
O145 C130 1.202 . S
O146 U126 2.455 . S
O146 C143 1.301 . S
O147 U126 2.449 . S
O147 C143 1.282 . S
H148 C121 0.931 . S
H149 C123 0.929 . S
H150 C124 0.930 . S
H151 C125 0.931 . S
H152 C132 0.932 . S
H153 C133 0.930 . S
H154 C134 0.929 . S
H155 C136 0.930 . S
H156 C138 0.932 . S
H157 C139 0.929 . S
H158 C140 0.928 . S
H159 C142 0.932 . S
C160 C161 1.264 . S
C160 C165 1.479 . S
C160 C170 1.465 . S
C161 C160 1.264 . S
C161 C163 1.339 . S
C161 H188 0.931 . S
C162 C163 1.395 . S
C162 C164 1.320 . S
C163 C161 1.339 . S
C163 C162 1.395 . S
C163 H189 0.929 . S
C164 C162 1.320 . S
C164 C165 1.405 . S
C164 H190 0.930 . S
C165 C160 1.479 . S
C165 C164 1.405 . S
C165 H191 0.931 . S
U166 O167 2.454 . S
U166 O168 2.458 . S
U166 C169 2.984 . S
U166 C170 2.847 . S
U166 C183 2.882 . S
U166 O184 2.441 . S
U166 O185 2.420 . S
U166 O186 2.455 . S
U166 O187 2.449 . S
O167 U166 2.454 . S
O167 C169 1.353 . S
O168 U166 2.458 . S
O168 C169 1.286 . S
C169 U166 2.984 . S
C169 O167 1.353 . S
C169 O168 1.286 . S
C169 C171 1.363 . S
C170 C160 1.465 . S
C170 U166 2.847 . S
C170 O184 1.249 . S
C170 O185 1.202 . S
C171 C169 1.363 . S
C171 C173 1.408 . S
C171 C176 1.342 . S
C172 C173 1.310 . S
C172 C175 1.461 . S
C172 H192 0.932 . S
C173 C171 1.408 . S
C173 C172 1.310 . S
C173 H193 0.930 . S
C174 C175 1.474 . S
C174 C176 1.285 . S
C174 H194 0.929 . S
C175 C172 1.461 . S
C175 C174 1.474 . S
C176 C171 1.342 . S
C176 C174 1.285 . S
C176 H195 0.930 . S
C177 C180 1.424 . S
C177 C182 1.245 . S
C177 C183 1.428 . S
C178 C181 1.260 . S
C178 C182 1.477 . S
C178 H196 0.932 . S
C179 C180 1.384 . S
C179 C181 1.479 . S
C179 H197 0.929 . S
C180 C177 1.424 . S
C180 C179 1.384 . S
C180 H198 0.928 . S
C181 C178 1.260 . S
C181 C179 1.479 . S
C182 C177 1.245 . S
C182 C178 1.477 . S
C182 H199 0.932 . S
C183 U166 2.882 . S
C183 C177 1.428 . S
C183 O186 1.301 . S
C183 O187 1.282 . S
O184 U166 2.441 . S
O184 C170 1.249 . S
O185 U166 2.420 . S
O185 C170 1.202 . S
O186 U166 2.455 . S
O186 C183 1.301 . S
O187 U166 2.449 . S
O187 C183 1.282 . S
H188 C161 0.931 . S
H189 C163 0.929 . S
H190 C164 0.930 . S
H191 C165 0.931 . S
H192 C172 0.932 . S
H193 C173 0.930 . S
H194 C174 0.929 . S
H195 C176 0.930 . S
H196 C178 0.932 . S
H197 C179 0.929 . S
H198 C180 0.928 . S
H199 C182 0.932 . S
C200 C201 1.264 . S
C200 C205 1.479 . S
C200 C210 1.465 . S
C201 C200 1.264 . S
C201 C203 1.339 . S
C201 H228 0.931 . S
C202 C203 1.395 . S
C202 C204 1.320 . S
C203 C201 1.339 . S
C203 C202 1.395 . S
C203 H229 0.929 . S
C204 C202 1.320 . S
C204 C205 1.405 . S
C204 H230 0.930 . S
C205 C200 1.479 . S
C205 C204 1.405 . S
C205 H231 0.931 . S
U206 O207 2.454 . S
U206 O208 2.458 . S
U206 C209 2.984 . S
U206 C210 2.847 . S
U206 C223 2.882 . S
U206 O224 2.441 . S
U206 O225 2.420 . S
U206 O226 2.455 . S
U206 O227 2.449 . S
O207 U206 2.454 . S
O207 C209 1.353 . S
O208 U206 2.458 . S
O208 C209 1.286 . S
C209 U206 2.984 . S
C209 O207 1.353 . S
C209 O208 1.286 . S
C209 C211 1.363 . S
C210 C200 1.465 . S
C210 U206 2.847 . S
C210 O224 1.249 . S
C210 O225 1.202 . S
C211 C209 1.363 . S
C211 C213 1.408 . S
C211 C216 1.342 . S
C212 C213 1.310 . S
C212 C215 1.461 . S
C212 H232 0.932 . S
C213 C211 1.408 . S
C213 C212 1.310 . S
C213 H233 0.930 . S
C214 C215 1.474 . S
C214 C216 1.285 . S
C214 H234 0.929 . S
C215 C212 1.461 . S
C215 C214 1.474 . S
C216 C211 1.342 . S
C216 C214 1.285 . S
C216 H235 0.930 . S
C217 C220 1.424 . S
C217 C222 1.245 . S
C217 C223 1.428 . S
C218 C221 1.260 . S
C218 C222 1.477 . S
C218 H236 0.932 . S
C219 C220 1.384 . S
C219 C221 1.479 . S
C219 H237 0.929 . S
C220 C217 1.424 . S
C220 C219 1.384 . S
C220 H238 0.928 . S
C221 C218 1.260 . S
C221 C219 1.479 . S
C222 C217 1.245 . S
C222 C218 1.477 . S
C222 H239 0.932 . S
C223 U206 2.882 . S
C223 C217 1.428 . S
C223 O226 1.301 . S
C223 O227 1.282 . S
O224 U206 2.441 . S
O224 C210 1.249 . S
O225 U206 2.420 . S
O225 C210 1.202 . S
O226 U206 2.455 . S
O226 C223 1.301 . S
O227 U206 2.449 . S
O227 C223 1.282 . S
H228 C201 0.931 . S
H229 C203 0.929 . S
H230 C204 0.930 . S
H231 C205 0.931 . S
H232 C212 0.932 . S
H233 C213 0.930 . S
H234 C214 0.929 . S
H235 C216 0.930 . S
H236 C218 0.932 . S
H237 C219 0.929 . S
H238 C220 0.928 . S
H239 C222 0.932 . S
C240 C241 1.264 . S
C240 C245 1.479 . S
C240 C250 1.465 . S
C241 C240 1.264 . S
C241 C243 1.339 . S
C241 H268 0.931 . S
C242 C243 1.395 . S
C242 C244 1.320 . S
C243 C241 1.339 . S
C243 C242 1.395 . S
C243 H269 0.929 . S
C244 C242 1.320 . S
C244 C245 1.405 . S
C244 H270 0.930 . S
C245 C240 1.479 . S
C245 C244 1.405 . S
C245 H271 0.931 . S
U246 O247 2.454 . S
U246 O248 2.458 . S
U246 C249 2.984 . S
U246 C250 2.847 . S
U246 C263 2.882 . S
U246 O264 2.441 . S
U246 O265 2.420 . S
U246 O266 2.455 . S
U246 O267 2.449 . S
O247 U246 2.454 . S
O247 C249 1.353 . S
O248 U246 2.458 . S
O248 C249 1.286 . S
C249 U246 2.984 . S
C249 O247 1.353 . S
C249 O248 1.286 . S
C249 C251 1.363 . S
C250 C240 1.465 . S
C250 U246 2.847 . S
C250 O264 1.249 . S
C250 O265 1.202 . S
C251 C249 1.363 . S
C251 C253 1.408 . S
C251 C256 1.342 . S
C252 C253 1.310 . S
C252 C255 1.461 . S
C252 H272 0.932 . S
C253 C251 1.408 . S
C253 C252 1.310 . S
C253 H273 0.930 . S
C254 C255 1.474 . S
C254 C256 1.285 . S
C254 H274 0.929 . S
C255 C252 1.461 . S
C255 C254 1.474 . S
C256 C251 1.342 . S
C256 C254 1.285 . S
C256 H275 0.930 . S
C257 C260 1.424 . S
C257 C262 1.245 . S
C257 C263 1.428 . S
C258 C261 1.260 . S
C258 C262 1.477 . S
C258 H276 0.932 . S
C259 C260 1.384 . S
C259 C261 1.479 . S
C259 H277 0.929 . S
C260 C257 1.424 . S
C260 C259 1.384 . S
C260 H278 0.928 . S
C261 C258 1.260 . S
C261 C259 1.479 . S
C262 C257 1.245 . S
C262 C258 1.477 . S
C262 H279 0.932 . S
C263 U246 2.882 . S
C263 C257 1.428 . S
C263 O266 1.301 . S
C263 O267 1.282 . S
O264 U246 2.441 . S
O264 C250 1.249 . S
O265 U246 2.420 . S
O265 C250 1.202 . S
O266 U246 2.455 . S
O266 C263 1.301 . S
O267 U246 2.449 . S
O267 C263 1.282 . S
H268 C241 0.931 . S
H269 C243 0.929 . S
H270 C244 0.930 . S
H271 C245 0.931 . S
H272 C252 0.932 . S
H273 C253 0.930 . S
H274 C254 0.929 . S
H275 C256 0.930 . S
H276 C258 0.932 . S
H277 C259 0.929 . S
H278 C260 0.928 . S
H279 C262 0.932 . S
C280 C281 1.264 . S
C280 C285 1.479 . S
C280 C290 1.465 . S
C281 C280 1.264 . S
C281 C283 1.339 . S
C281 H308 0.931 . S
C282 C283 1.395 . S
C282 C284 1.320 . S
C283 C281 1.339 . S
C283 C282 1.395 . S
C283 H309 0.929 . S
C284 C282 1.320 . S
C284 C285 1.405 . S
C284 H310 0.930 . S
C285 C280 1.479 . S
C285 C284 1.405 . S
C285 H311 0.931 . S
U286 O287 2.454 . S
U286 O288 2.458 . S
U286 C289 2.984 . S
U286 C290 2.847 . S
U286 C303 2.882 . S
U286 O304 2.441 . S
U286 O305 2.420 . S
U286 O306 2.455 . S
U286 O307 2.449 . S
O287 U286 2.454 . S
O287 C289 1.353 . S
O288 U286 2.458 . S
O288 C289 1.286 . S
C289 U286 2.984 . S
C289 O287 1.353 . S
C289 O288 1.286 . S
C289 C291 1.363 . S
C290 C280 1.465 . S
C290 U286 2.847 . S
C290 O304 1.249 . S
C290 O305 1.202 . S
C291 C289 1.363 . S
C291 C293 1.408 . S
C291 C296 1.342 . S
C292 C293 1.310 . S
C292 C295 1.461 . S
C292 H312 0.932 . S
C293 C291 1.408 . S
C293 C292 1.310 . S
C293 H313 0.930 . S
C294 C295 1.474 . S
C294 C296 1.285 . S
C294 H314 0.929 . S
C295 C292 1.461 . S
C295 C294 1.474 . S
C296 C291 1.342 . S
C296 C294 1.285 . S
C296 H315 0.930 . S
C297 C300 1.424 . S
C297 C302 1.245 . S
C297 C303 1.428 . S
C298 C301 1.260 . S
C298 C302 1.477 . S
C298 H316 0.932 . S
C299 C300 1.384 . S
C299 C301 1.479 . S
C299 H317 0.929 . S
C300 C297 1.424 . S
C300 C299 1.384 . S
C300 H318 0.928 . S
C301 C298 1.260 . S
C301 C299 1.479 . S
C302 C297 1.245 . S
C302 C298 1.477 . S
C302 H319 0.932 . S
C303 U286 2.882 . S
C303 C297 1.428 . S
C303 O306 1.301 . S
C303 O307 1.282 . S
O304 U286 2.441 . S
O304 C290 1.249 . S
O305 U286 2.420 . S
O305 C290 1.202 . S
O306 U286 2.455 . S
O306 C303 1.301 . S
O307 U286 2.449 . S
O307 C303 1.282 . S
H308 C281 0.931 . S
H309 C283 0.929 . S
H310 C284 0.930 . S
H311 C285 0.931 . S
H312 C292 0.932 . S
H313 C293 0.930 . S
H314 C294 0.929 . S
H315 C296 0.930 . S
H316 C298 0.932 . S
H317 C299 0.929 . S
H318 C300 0.928 . S
H319 C302 0.932 . S
C320 O322 1.247 . S
C320 O324 1.258 . S
C321 O328 1.247 . S
C321 O329 1.258 . S
O322 C320 1.247 . S
O322 Zn323 2.028 1_655 S
Zn323 O322 2.028 1_455 S
Zn323 O327 2.035 . S
Zn323 O329 2.035 . S
Zn323 O330 2.028 1_455 S
O324 C320 1.258 . S
O324 Zn325 2.035 1_655 S
Zn325 O324 2.035 1_455 S
Zn325 O326 2.028 . S
Zn325 O328 2.028 . S
Zn325 O331 2.035 1_455 S
O326 Zn325 2.028 . S
O326 C332 1.247 . S
O327 Zn323 2.035 . S
O327 C332 1.258 . S
O328 C321 1.247 . S
O328 Zn325 2.028 . S
O329 C321 1.258 . S
O329 Zn323 2.035 . S
O330 Zn323 2.028 1_655 S
O330 C333 1.247 . S
O331 Zn325 2.035 1_655 S
O331 C333 1.258 . S
C332 O326 1.247 . S
C332 O327 1.258 . S
C333 O330 1.247 . S
C333 O331 1.258 . S
C334 O336 1.247 . S
C334 O338 1.258 . S
C335 O342 1.247 . S
C335 O343 1.258 . S
O336 C334 1.247 . S
O336 Zn337 2.028 1_655 S
Zn337 O336 2.028 1_455 S
Zn337 O341 2.035 . S
Zn337 O343 2.035 . S
Zn337 O344 2.028 1_455 S
O338 C334 1.258 . S
O338 Zn339 2.035 1_655 S
Zn339 O338 2.035 1_455 S
Zn339 O340 2.028 . S
Zn339 O342 2.028 . S
Zn339 O345 2.035 1_455 S
O340 Zn339 2.028 . S
O340 C346 1.247 . S
O341 Zn337 2.035 . S
O341 C346 1.258 . S
O342 C335 1.247 . S
O342 Zn339 2.028 . S
O343 C335 1.258 . S
O343 Zn337 2.035 . S
O344 Zn337 2.028 1_655 S
O344 C347 1.247 . S
O345 Zn339 2.035 1_655 S
O345 C347 1.258 . S
C346 O340 1.247 . S
C346 O341 1.258 . S
C347 O344 1.247 . S
C347 O345 1.258 . S
C348 O350 1.247 . S
C348 O352 1.258 . S
C349 O356 1.247 . S
C349 O357 1.258 . S
O350 C348 1.247 . S
O350 Zn351 2.028 1_565 S
Zn351 O350 2.028 1_545 S
Zn351 O355 2.035 . S
Zn351 O357 2.035 . S
Zn351 O358 2.028 1_545 S
O352 C348 1.258 . S
O352 Zn353 2.035 1_565 S
Zn353 O352 2.035 1_545 S
Zn353 O354 2.028 . S
Zn353 O356 2.028 . S
Zn353 O359 2.035 1_545 S
O354 Zn353 2.028 . S
O354 C360 1.247 . S
O355 Zn351 2.035 . S
O355 C360 1.258 . S
O356 C349 1.247 . S
O356 Zn353 2.028 . S
O357 C349 1.258 . S
O357 Zn351 2.035 . S
O358 Zn351 2.028 1_565 S
O358 C361 1.247 . S
O359 Zn353 2.035 1_565 S
O359 C361 1.258 . S
C360 O354 1.247 . S
C360 O355 1.258 . S
C361 O358 1.247 . S
C361 O359 1.258 . S
C362 O364 1.247 . S
C362 O366 1.258 . S
C363 O370 1.247 . S
C363 O371 1.258 . S
O364 C362 1.247 . S
O364 Zn365 2.028 . S
Zn365 O364 2.028 . S
Zn365 O369 2.035 . S
Zn365 O371 2.035 1_554 S
Zn365 O372 2.028 1_554 S
O366 C362 1.258 . S
O366 Zn367 2.035 . S
Zn367 O366 2.035 . S
Zn367 O368 2.028 . S
Zn367 O370 2.028 1_554 S
Zn367 O373 2.035 1_554 S
O368 Zn367 2.028 . S
O368 C374 1.247 . S
O369 Zn365 2.035 . S
O369 C374 1.258 . S
O370 C363 1.247 . S
O370 Zn367 2.028 1_556 S
O371 C363 1.258 . S
O371 Zn365 2.035 1_556 S
O372 Zn365 2.028 1_556 S
O372 C375 1.247 . S
O373 Zn367 2.035 1_556 S
O373 C375 1.258 . S
C374 O368 1.247 . S
C374 O369 1.258 . S
C375 O372 1.247 . S
C375 O373 1.258 . S
C376 O378 1.247 . S
C376 O380 1.258 . S
C377 O384 1.247 . S
C377 O385 1.258 . S
O378 C376 1.247 . S
O378 Zn379 2.017 1_565 S
Zn379 O378 2.017 1_545 S
Zn379 O383 2.046 . S
Zn379 O385 2.046 . S
Zn379 O386 2.017 1_545 S
O380 C376 1.258 . S
O380 Zn381 2.035 1_565 S
Zn381 O380 2.035 1_545 S
Zn381 O382 2.028 . S
Zn381 O384 2.028 . S
Zn381 O387 2.035 1_545 S
O382 Zn381 2.028 . S
O382 C388 1.247 . S
O383 Zn379 2.046 . S
O383 C388 1.258 . S
O384 C377 1.247 . S
O384 Zn381 2.028 . S
O385 C377 1.258 . S
O385 Zn379 2.046 . S
O386 Zn379 2.017 1_565 S
O386 C389 1.247 . S
O387 Zn381 2.035 1_565 S
O387 C389 1.258 . S
C388 O382 1.247 . S
C388 O383 1.258 . S
C389 O386 1.247 . S
C389 O387 1.258 . S
C390 O392 1.247 . S
C390 O394 1.258 . S
C391 O398 1.247 . S
C391 O399 1.258 . S
O392 C390 1.247 . S
O392 Zn393 2.028 . S
Zn393 O392 2.028 . S
Zn393 O397 2.035 . S
Zn393 O399 2.035 1_554 S
Zn393 O400 2.028 1_554 S
O394 C390 1.258 . S
O394 Zn395 2.055 . S
Zn395 O394 2.055 . S
Zn395 O396 2.048 . S
Zn395 O398 2.008 1_554 S
Zn395 O401 2.016 1_554 S
O396 Zn395 2.048 . S
O396 C402 1.247 . S
O397 Zn393 2.035 . S
O397 C402 1.258 . S
O398 C391 1.247 . S
O398 Zn395 2.008 1_556 S
O399 C391 1.258 . S
O399 Zn393 2.035 1_556 S
O400 Zn393 2.028 1_556 S
O400 C403 1.247 . S
O401 Zn395 2.016 1_556 S
O401 C403 1.258 . S
C402 O396 1.247 . S
C402 O397 1.258 . S
C403 O400 1.247 . S
C403 O401 1.258 . S
C404 C405 1.387 . S
C404 H408 0.950 . S
C404 C413 1.390 . S
C405 C404 1.387 . S
C405 C407 1.387 . S
H406 C413 0.950 . S
C407 C405 1.387 . S
C407 C409 1.390 . S
C407 H411 0.950 . S
H408 C404 0.950 . S
C409 C407 1.390 . S
C409 C410 1.387 . S
C409 H412 0.950 . S
C410 C409 1.387 . S
C410 C413 1.387 . S
H411 C407 0.950 . S
H412 C409 0.950 . S
C413 C404 1.390 . S
C413 H406 0.950 . S
C413 C410 1.387 . S
C414 C415 1.387 . S
C414 H418 0.950 . S
C414 C423 1.390 . S
C415 C414 1.387 . S
C415 C417 1.387 . S
H416 C423 0.950 . S
C417 C415 1.387 . S
C417 C419 1.390 . S
C417 H421 0.950 . S
H418 C414 0.950 . S
C419 C417 1.390 . S
C419 C420 1.387 . S
C419 H422 0.950 . S
C420 C419 1.387 . S
C420 C423 1.387 . S
H421 C417 0.950 . S
H422 C419 0.950 . S
C423 C414 1.390 . S
C423 H416 0.950 . S
C423 C420 1.387 . S
C424 C425 1.387 . S
C424 H428 0.950 . S
C424 C433 1.390 . S
C425 C424 1.387 . S
C425 C427 1.387 . S
H426 C433 0.950 . S
C427 C425 1.387 . S
C427 C429 1.390 . S
C427 H431 0.950 . S
H428 C424 0.950 . S
C429 C427 1.390 . S
C429 C430 1.387 . S
C429 H432 0.950 . S
C430 C429 1.387 . S
C430 C433 1.387 . S
H431 C427 0.950 . S
H432 C429 0.950 . S
C433 C424 1.390 . S
C433 H426 0.950 . S
C433 C430 1.387 . S
C434 C435 1.387 . S
C434 H438 0.950 . S
C434 C443 1.390 . S
C435 C434 1.387 . S
C435 C437 1.387 . S
H436 C443 0.950 . S
C437 C435 1.387 . S
C437 C439 1.390 . S
C437 H441 0.950 . S
H438 C434 0.950 . S
C439 C437 1.390 . S
C439 C440 1.387 . S
C439 H442 0.950 . S
C440 C439 1.387 . S
C440 C443 1.387 . S
H441 C437 0.950 . S
H442 C439 0.950 . S
C443 C434 1.390 . S
C443 H436 0.950 . S
C443 C440 1.387 . S
C444 C445 1.387 . S
C444 H448 0.950 . S
C444 C453 1.390 . S
C445 C444 1.387 . S
C445 C447 1.387 . S
H446 C453 0.950 . S
C447 C445 1.387 . S
C447 C449 1.390 . S
C447 H451 0.950 . S
H448 C444 0.950 . S
C449 C447 1.390 . S
C449 C450 1.387 . S
C449 H452 0.950 . S
C450 C449 1.387 . S
C450 C453 1.387 . S
H451 C447 0.950 . S
H452 C449 0.950 . S
C453 C444 1.390 . S
C453 H446 0.950 . S
C453 C450 1.387 . S
C454 C455 1.387 . S
C454 H458 0.950 . S
C454 C463 1.390 . S
C455 C454 1.387 . S
C455 C457 1.387 . S
H456 C463 0.950 . S
C457 C455 1.387 . S
C457 C459 1.390 . S
C457 H461 0.950 . S
H458 C454 0.950 . S
C459 C457 1.390 . S
C459 C460 1.387 . S
C459 H462 0.950 . S
C460 C459 1.387 . S
C460 C463 1.387 . S
H461 C457 0.950 . S
H462 C459 0.950 . S
C463 C454 1.390 . S
C463 H456 0.950 . S
C463 C460 1.387 . S
C464 C465 1.387 . S
C464 H468 0.950 . S
C464 C473 1.390 . S
C465 C464 1.387 . S
C465 C467 1.387 . S
H466 C473 0.950 . S
C467 C465 1.387 . S
C467 C469 1.390 . S
C467 H471 0.950 . S
H468 C464 0.950 . S
C469 C467 1.390 . S
C469 C470 1.387 . S
C469 H472 0.950 . S
C470 C469 1.387 . S
C470 C473 1.387 . S
H471 C467 0.950 . S
H472 C469 0.950 . S
C473 C464 1.390 . S
C473 H466 0.950 . S
C473 C470 1.387 . S
C474 C475 1.387 . S
C474 H478 0.950 . S
C474 C483 1.390 . S
C475 C474 1.387 . S
C475 C477 1.387 . S
H476 C483 0.950 . S
C477 C475 1.387 . S
C477 C479 1.390 . S
C477 H481 0.950 . S
H478 C474 0.950 . S
C479 C477 1.390 . S
C479 C480 1.387 . S
C479 H482 0.950 . S
C480 C479 1.387 . S
C480 C483 1.387 . S
H481 C477 0.950 . S
H482 C479 0.950 . S
C483 C474 1.390 . S
C483 H476 0.950 . S
C483 C480 1.387 . S
C484 C485 1.387 . S
C484 H488 0.950 . S
C484 C493 1.390 . S
C485 C484 1.387 . S
C485 C487 1.387 . S
H486 C493 0.950 . S
C487 C485 1.387 . S
C487 C489 1.390 . S
C487 H491 0.950 . S
H488 C484 0.950 . S
C489 C487 1.390 . S
C489 C490 1.387 . S
C489 H492 0.950 . S
C490 C489 1.387 . S
C490 C493 1.387 . S
H491 C487 0.950 . S
H492 C489 0.950 . S
C493 C484 1.390 . S
C493 H486 0.950 . S
C493 C490 1.387 . S
C494 C495 1.387 . S
C494 H498 0.950 . S
C494 C503 1.390 . S
C495 C494 1.387 . S
C495 C497 1.387 . S
H496 C503 0.950 . S
C497 C495 1.387 . S
C497 C499 1.390 . S
C497 H501 0.950 . S
H498 C494 0.950 . S
C499 C497 1.390 . S
C499 C500 1.387 . S
C499 H502 0.950 . S
C500 C499 1.387 . S
C500 C503 1.387 . S
H501 C497 0.950 . S
H502 C499 0.950 . S
C503 C494 1.390 . S
C503 H496 0.950 . S
C503 C500 1.387 . S
C504 C505 1.387 . S
C504 H508 0.950 . S
C504 C513 1.390 . S
C505 C504 1.387 . S
C505 C507 1.387 . S
H506 C513 0.950 . S
C507 C505 1.387 . S
C507 C509 1.390 . S
C507 H511 0.950 . S
H508 C504 0.950 . S
C509 C507 1.390 . S
C509 C510 1.387 . S
C509 H512 0.950 . S
C510 C509 1.387 . S
C510 C513 1.387 . S
H511 C507 0.950 . S
H512 C509 0.950 . S
C513 C504 1.390 . S
C513 H506 0.950 . S
C513 C510 1.387 . S
C514 C515 1.387 . S
C514 H518 0.950 . S
C514 C523 1.390 . S
C515 C514 1.387 . S
C515 C517 1.387 . S
H516 C523 0.950 . S
C517 C515 1.387 . S
C517 C519 1.390 . S
C517 H521 0.950 . S
H518 C514 0.950 . S
C519 C517 1.390 . S
C519 C520 1.387 . S
C519 H522 0.950 . S
C520 C519 1.387 . S
C520 C523 1.387 . S
H521 C517 0.950 . S
H522 C519 0.950 . S
C523 C514 1.390 . S
C523 H516 0.950 . S
C523 C520 1.387 . S
C524 C525 1.387 . S
C524 H528 0.950 . S
C524 C533 1.390 . S
C525 C524 1.387 . S
C525 C527 1.387 . S
H526 C533 0.950 . S
C527 C525 1.387 . S
C527 C529 1.390 . S
C527 H531 0.950 . S
H528 C524 0.950 . S
C529 C527 1.390 . S
C529 C530 1.387 . S
C529 H532 0.950 . S
C530 C529 1.387 . S
C530 C533 1.387 . S
H531 C527 0.950 . S
H532 C529 0.950 . S
C533 C524 1.390 . S
C533 H526 0.950 . S
C533 C530 1.387 . S
C534 C535 1.387 . S
C534 H538 0.950 . S
C534 C543 1.390 . S
C535 C534 1.387 . S
C535 C537 1.387 . S
H536 C543 0.950 . S
C537 C535 1.387 . S
C537 C539 1.390 . S
C537 H541 0.950 . S
H538 C534 0.950 . S
C539 C537 1.390 . S
C539 C540 1.387 . S
C539 H542 0.950 . S
C540 C539 1.387 . S
C540 C543 1.387 . S
H541 C537 0.950 . S
H542 C539 0.950 . S
C543 C534 1.390 . S
C543 H536 0.950 . S
C543 C540 1.387 . S
C544 C545 1.387 . S
C544 H548 0.950 . S
C544 C553 1.390 . S
C545 C544 1.387 . S
C545 C547 1.387 . S
H546 C553 0.950 . S
C547 C545 1.387 . S
C547 C549 1.390 . S
C547 H551 0.950 . S
H548 C544 0.950 . S
C549 C547 1.390 . S
C549 C550 1.387 . S
C549 H552 0.950 . S
C550 C549 1.387 . S
C550 C553 1.387 . S
H551 C547 0.950 . S
H552 C549 0.950 . S
C553 C544 1.390 . S
C553 H546 0.950 . S
C553 C550 1.387 . S
C554 C555 1.387 . S
C554 H558 0.950 . S
C554 C563 1.390 . S
C555 C554 1.387 . S
C555 C557 1.387 . S
H556 C563 0.950 . S
C557 C555 1.387 . S
C557 C559 1.390 . S
C557 H561 0.950 . S
H558 C554 0.950 . S
C559 C557 1.390 . S
C559 C560 1.387 . S
C559 H562 0.950 . S
C560 C559 1.387 . S
C560 C563 1.387 . S
H561 C557 0.950 . S
H562 C559 0.950 . S
C563 C554 1.390 . S
C563 H556 0.950 . S
C563 C560 1.387 . S
C564 C565 1.387 . S
C564 H568 0.950 . S
C564 C573 1.390 . S
C565 C564 1.387 . S
C565 C567 1.387 . S
H566 C573 0.950 . S
C567 C565 1.387 . S
C567 C569 1.390 . S
C567 H571 0.950 . S
H568 C564 0.950 . S
C569 C567 1.390 . S
C569 C570 1.387 . S
C569 H572 0.950 . S
C570 C569 1.387 . S
C570 C573 1.387 . S
H571 C567 0.950 . S
H572 C569 0.950 . S
C573 C564 1.390 . S
C573 H566 0.950 . S
C573 C570 1.387 . S
C574 C575 1.387 . S
C574 H578 0.950 . S
C574 C583 1.390 . S
C575 C574 1.387 . S
C575 C577 1.387 . S
H576 C583 0.950 . S
C577 C575 1.387 . S
C577 C579 1.390 . S
C577 H581 0.950 . S
H578 C574 0.950 . S
C579 C577 1.390 . S
C579 C580 1.387 . S
C579 H582 0.950 . S
C580 C579 1.387 . S
C580 C583 1.387 . S
H581 C577 0.950 . S
H582 C579 0.950 . S
C583 C574 1.390 . S
C583 H576 0.950 . S
C583 C580 1.387 . S
C584 C585 1.387 . S
C584 H588 0.950 . S
C584 C593 1.390 . S
C585 C584 1.387 . S
C585 C587 1.387 . S
H586 C593 0.950 . S
C587 C585 1.387 . S
C587 C589 1.390 . S
C587 H591 0.950 . S
H588 C584 0.950 . S
C589 C587 1.390 . S
C589 C590 1.387 . S
C589 H592 0.950 . S
C590 C589 1.387 . S
C590 C593 1.387 . S
H591 C587 0.950 . S
H592 C589 0.950 . S
C593 C584 1.390 . S
C593 H586 0.950 . S
C593 C590 1.387 . S
C594 C595 1.387 . S
C594 H598 0.950 . S
C594 C603 1.390 . S
C595 C594 1.387 . S
C595 C597 1.387 . S
H596 C603 0.950 . S
C597 C595 1.387 . S
C597 C599 1.390 . S
C597 H601 0.950 . S
H598 C594 0.950 . S
C599 C597 1.390 . S
C599 C600 1.387 . S
C599 H602 0.950 . S
C600 C599 1.387 . S
C600 C603 1.387 . S
H601 C597 0.950 . S
H602 C599 0.950 . S
C603 C594 1.390 . S
C603 H596 0.950 . S
C603 C600 1.387 . S
C604 C605 1.387 . S
C604 H608 0.950 . S
C604 C613 1.390 . S
C605 C604 1.387 . S
C605 C607 1.387 . S
H606 C613 0.950 . S
C607 C605 1.387 . S
C607 C609 1.390 . S
C607 H611 0.950 . S
H608 C604 0.950 . S
C609 C607 1.390 . S
C609 C610 1.387 . S
C609 H612 0.950 . S
C610 C609 1.387 . S
C610 C613 1.387 . S
H611 C607 0.950 . S
H612 C609 0.950 . S
C613 C604 1.390 . S
C613 H606 0.950 . S
C613 C610 1.387 . S
C614 C615 1.387 . S
C614 H618 0.950 . S
C614 C623 1.390 . S
C615 C614 1.387 . S
C615 C617 1.387 . S
H616 C623 0.950 . S
C617 C615 1.387 . S
C617 C619 1.390 . S
C617 H621 0.950 . S
H618 C614 0.950 . S
C619 C617 1.390 . S
C619 C620 1.387 . S
C619 H622 0.950 . S
C620 C619 1.387 . S
C620 C623 1.387 . S
H621 C617 0.950 . S
H622 C619 0.950 . S
C623 C614 1.390 . S
C623 H616 0.950 . S
C623 C620 1.387 . S
C624 C625 1.387 . S
C624 H628 0.950 . S
C624 C633 1.390 . S
C625 C624 1.387 . S
C625 C627 1.387 . S
H626 C633 0.950 . S
C627 C625 1.387 . S
C627 C629 1.390 . S
C627 H631 0.950 . S
H628 C624 0.950 . S
C629 C627 1.390 . S
C629 C630 1.387 . S
C629 H632 0.950 . S
C630 C629 1.387 . S
C630 C633 1.387 . S
H631 C627 0.950 . S
H632 C629 0.950 . S
C633 C624 1.390 . S
C633 H626 0.950 . S
C633 C630 1.387 . S
C634 C635 1.387 . S
C634 H638 0.950 . S
C634 C643 1.390 . S
C635 C634 1.387 . S
C635 C637 1.387 . S
H636 C643 0.950 . S
C637 C635 1.387 . S
C637 C639 1.390 . S
C637 H641 0.950 . S
H638 C634 0.950 . S
C639 C637 1.390 . S
C639 C640 1.387 . S
C639 H642 0.950 . S
C640 C639 1.387 . S
C640 C643 1.387 . S
H641 C637 0.950 . S
H642 C639 0.950 . S
C643 C634 1.390 . S
C643 H636 0.950 . S
C643 C640 1.387 . S
C410 C332 1.516 . S
C405 C15 1.517 . S
C420 C335 1.477 . S
C415 C55 1.479 . S
C430 C333 1.535 . S
C425 C101 1.515 . S
C440 C334 1.500 . S
C435 C141 1.494 . S
C450 C349 1.502 . S
C445 C2 1.488 . S
C460 C363 1.498 . S
C455 C61 1.491 . S
C465 C95 1.517 . S
C470 C389 1.517 . S
C480 C403 1.496 . S
C475 C135 1.500 . S
C490 C348 1.491 . S
C485 C42 1.478 . S
C495 C82 1.504 . S
C500 C362 1.517 . S
C510 C388 1.508 . S
C505 C122 1.505 . S
C520 C402 1.522 . S
C515 C21 1.512 . S
C525 C162 1.493 . S
C530 C347 1.499 . S
C540 C320 1.533 . S
C535 C221 1.534 . S
C545 C255 1.483 . S
C550 C346 1.482 . S
C555 C282 1.503 . S
C560 C321 1.517 . S
C570 C376 1.520 . S
C565 C181 1.519 . S
C580 C390 1.513 . S
C575 C202 1.509 . S
C590 C360 1.496 . S
C585 C242 1.486 . S
C595 C301 1.514 . S
C600 C374 1.522 . S
C610 C377 1.519 . S
C605 C215 1.521 . S
C620 C391 1.508 . S
C615 C261 1.502 . S
C630 C361 1.500 . S
C625 C295 1.501 . S
C635 C175 1.499 . S
C640 C375 1.495 . S
