# Generated by pormake.
# Topology myd, (4,6)-cn, num edge types: 1
# Building blocks:
#     Node 0, Type 0, BuildingBlock: NAWXER_clean_sbu_0, # of connection points: 4
#     Node 1, Type 0, BuildingBlock: NAWXER_clean_sbu_0, # of connection points: 4
#     Node 2, Type 0, BuildingBlock: NAWXER_clean_sbu_0, # of connection points: 4
#     Node 3, Type 0, BuildingBlock: NAWXER_clean_sbu_0, # of connection points: 4
#     Node 4, Type 0, BuildingBlock: NAWXER_clean_sbu_0, # of connection points: 4
#     Node 5, Type 0, BuildingBlock: NAWXER_clean_sbu_0, # of connection points: 4
#     Node 6, Type 0, BuildingBlock: NAWXER_clean_sbu_0, # of connection points: 4
#     Node 7, Type 0, BuildingBlock: NAWXER_clean_sbu_0, # of connection points: 4
#     Node 8, Type 0, BuildingBlock: NAWXER_clean_sbu_0, # of connection points: 4
#     Node 9, Type 0, BuildingBlock: NAWXER_clean_sbu_0, # of connection points: 4
#     Node 10, Type 0, BuildingBlock: NAWXER_clean_sbu_0, # of connection points: 4
#     Node 11, Type 0, BuildingBlock: NAWXER_clean_sbu_0, # of connection points: 4
#     Node 12, Type 1, BuildingBlock: VOLQOD_clean_sbu_1, # of connection points: 6
#     Node 13, Type 1, BuildingBlock: VOLQOD_clean_sbu_1, # of connection points: 6
#     Node 14, Type 1, BuildingBlock: VOLQOD_clean_sbu_1, # of connection points: 6
#     Node 15, Type 1, BuildingBlock: VOLQOD_clean_sbu_1, # of connection points: 6
#     Node 16, Type 1, BuildingBlock: VOLQOD_clean_sbu_1, # of connection points: 6
#     Node 17, Type 1, BuildingBlock: VOLQOD_clean_sbu_1, # of connection points: 6
#     Node 18, Type 1, BuildingBlock: VOLQOD_clean_sbu_1, # of connection points: 6
#     Node 19, Type 1, BuildingBlock: VOLQOD_clean_sbu_1, # of connection points: 6
#     Edge 20, Type (0, 1), BuildingBlock: AJUNOK_clean_linker_0, # of connection points: 2
#     Edge 21, Type (0, 1), BuildingBlock: AJUNOK_clean_linker_0, # of connection points: 2
#     Edge 22, Type (0, 1), BuildingBlock: AJUNOK_clean_linker_0, # of connection points: 2
#     Edge 23, Type (0, 1), BuildingBlock: AJUNOK_clean_linker_0, # of connection points: 2
#     Edge 24, Type (0, 1), BuildingBlock: AJUNOK_clean_linker_0, # of connection points: 2
#     Edge 25, Type (0, 1), BuildingBlock: AJUNOK_clean_linker_0, # of connection points: 2
#     Edge 26, Type (0, 1), BuildingBlock: AJUNOK_clean_linker_0, # of connection points: 2
#     Edge 27, Type (0, 1), BuildingBlock: AJUNOK_clean_linker_0, # of connection points: 2
#     Edge 28, Type (0, 1), BuildingBlock: AJUNOK_clean_linker_0, # of connection points: 2
#     Edge 29, Type (0, 1), BuildingBlock: AJUNOK_clean_linker_0, # of connection points: 2
#     Edge 30, Type (0, 1), BuildingBlock: AJUNOK_clean_linker_0, # of connection points: 2
#     Edge 31, Type (0, 1), BuildingBlock: AJUNOK_clean_linker_0, # of connection points: 2
#     Edge 32, Type (0, 1), BuildingBlock: AJUNOK_clean_linker_0, # of connection points: 2
#     Edge 33, Type (0, 1), BuildingBlock: AJUNOK_clean_linker_0, # of connection points: 2
#     Edge 34, Type (0, 1), BuildingBlock: AJUNOK_clean_linker_0, # of connection points: 2
#     Edge 35, Type (0, 1), BuildingBlock: AJUNOK_clean_linker_0, # of connection points: 2
#     Edge 36, Type (0, 1), BuildingBlock: AJUNOK_clean_linker_0, # of connection points: 2
#     Edge 37, Type (0, 1), BuildingBlock: AJUNOK_clean_linker_0, # of connection points: 2
#     Edge 38, Type (0, 1), BuildingBlock: AJUNOK_clean_linker_0, # of connection points: 2
#     Edge 39, Type (0, 1), BuildingBlock: AJUNOK_clean_linker_0, # of connection points: 2
#     Edge 40, Type (0, 1), BuildingBlock: AJUNOK_clean_linker_0, # of connection points: 2
#     Edge 41, Type (0, 1), BuildingBlock: AJUNOK_clean_linker_0, # of connection points: 2
#     Edge 42, Type (0, 1), BuildingBlock: AJUNOK_clean_linker_0, # of connection points: 2
#     Edge 43, Type (0, 1), BuildingBlock: AJUNOK_clean_linker_0, # of connection points: 2
#     Edge 44, Type (0, 1), BuildingBlock: AJUNOK_clean_linker_0, # of connection points: 2
#     Edge 45, Type (0, 1), BuildingBlock: AJUNOK_clean_linker_0, # of connection points: 2
#     Edge 46, Type (0, 1), BuildingBlock: AJUNOK_clean_linker_0, # of connection points: 2
#     Edge 47, Type (0, 1), BuildingBlock: AJUNOK_clean_linker_0, # of connection points: 2
#     Edge 48, Type (0, 1), BuildingBlock: AJUNOK_clean_linker_0, # of connection points: 2
#     Edge 49, Type (0, 1), BuildingBlock: AJUNOK_clean_linker_0, # of connection points: 2
#     Edge 50, Type (0, 1), BuildingBlock: AJUNOK_clean_linker_0, # of connection points: 2
#     Edge 51, Type (0, 1), BuildingBlock: AJUNOK_clean_linker_0, # of connection points: 2
#     Edge 52, Type (0, 1), BuildingBlock: AJUNOK_clean_linker_0, # of connection points: 2
#     Edge 53, Type (0, 1), BuildingBlock: AJUNOK_clean_linker_0, # of connection points: 2
#     Edge 54, Type (0, 1), BuildingBlock: AJUNOK_clean_linker_0, # of connection points: 2
#     Edge 55, Type (0, 1), BuildingBlock: AJUNOK_clean_linker_0, # of connection points: 2
#     Edge 56, Type (0, 1), BuildingBlock: AJUNOK_clean_linker_0, # of connection points: 2
#     Edge 57, Type (0, 1), BuildingBlock: AJUNOK_clean_linker_0, # of connection points: 2
#     Edge 58, Type (0, 1), BuildingBlock: AJUNOK_clean_linker_0, # of connection points: 2
#     Edge 59, Type (0, 1), BuildingBlock: AJUNOK_clean_linker_0, # of connection points: 2
#     Edge 60, Type (0, 1), BuildingBlock: AJUNOK_clean_linker_0, # of connection points: 2
#     Edge 61, Type (0, 1), BuildingBlock: AJUNOK_clean_linker_0, # of connection points: 2
#     Edge 62, Type (0, 1), BuildingBlock: AJUNOK_clean_linker_0, # of connection points: 2
#     Edge 63, Type (0, 1), BuildingBlock: AJUNOK_clean_linker_0, # of connection points: 2
#     Edge 64, Type (0, 1), BuildingBlock: AJUNOK_clean_linker_0, # of connection points: 2
#     Edge 65, Type (0, 1), BuildingBlock: AJUNOK_clean_linker_0, # of connection points: 2
#     Edge 66, Type (0, 1), BuildingBlock: AJUNOK_clean_linker_0, # of connection points: 2
#     Edge 67, Type (0, 1), BuildingBlock: AJUNOK_clean_linker_0, # of connection points: 2
# Relax obj value: 0.200
# Max RMSD: 0.165
# Mean RMSD: 0.125
data_MOF--net-myd--node1-NAWXER_clean_sbu_0--node2-VOLQOD_clean_sbu_1--edge1-AJUNOK_clean_linker_0
_symmetry_space_group_name_H-M    P1
_symmetry_Int_Tables_number       1
_symmetry_cell_setting            triclinic
loop_
_symmetry_equiv_pos_as_xyz
'x, y, z'
_cell_length_a     34.974276
_cell_length_b     35.040718
_cell_length_c     35.068401
_cell_angle_alpha  90.863278
_cell_angle_beta   90.022687
_cell_angle_gamma 90.913481
loop_
_atom_site_label
_atom_site_type_symbol
_atom_site_fract_x
_atom_site_fract_y
_atom_site_fract_z
_atom_type_partial_charge
C0 C 0.04507 0.21642 0.27036 0.0
C1 C 0.02091 0.31067 0.37266 0.0
O2 O 0.0711 0.23826 0.28467 0.0
Zn3 Zn 0.0387 0.26085 0.32496 0.0
O4 O 0.01117 0.217 0.28368 0.0
Zn5 Zn 0.97774 0.2442 0.32527 0.0
O6 O 0.94354 0.27124 0.2901 0.0
O7 O 0.00347 0.2923 0.28906 0.0
O8 O 0.99227 0.28969 0.36267 0.0
O9 O 0.0542 0.30216 0.3608 0.0
O10 O 0.02585 0.21137 0.35662 0.0
O11 O 0.96365 0.19977 0.3564 0.0
C12 C 0.96896 0.29456 0.27776 0.0
C13 C 0.99734 0.18994 0.36551 0.0
C14 C 0.05481 0.78341 0.23393 0.0
C15 C 0.04786 0.68976 0.12899 0.0
O16 O 0.08383 0.76686 0.21963 0.0
Zn17 Zn 0.05556 0.74051 0.1785 0.0
O18 O 0.02176 0.77864 0.21901 0.0
Zn19 Zn 0.99419 0.7487 0.17361 0.0
O20 O 0.95992 0.71789 0.20607 0.0
O21 O 0.02118 0.70452 0.21247 0.0
O22 O 0.01585 0.70546 0.13653 0.0
O23 O 0.07829 0.70235 0.14501 0.0
O24 O 0.04053 0.78826 0.14592 0.0
O25 O 0.97787 0.79192 0.14206 0.0
C26 C 0.98624 0.69822 0.22114 0.0
C27 C 0.01087 0.80606 0.13509 0.0
C28 C 0.37931 0.99471 0.19032 0.0
C29 C 0.28776 0.96384 0.29225 0.0
O30 O 0.36938 0.96098 0.19965 0.0
Zn31 Zn 0.33732 0.9743 0.24398 0.0
O32 O 0.37032 0.02278 0.21207 0.0
Zn33 Zn 0.33777 0.0344 0.26144 0.0
O34 O 0.37311 0.04939 0.30298 0.0
O35 O 0.37353 0.98746 0.29107 0.0
O36 O 0.29973 0.99842 0.29153 0.0
O37 O 0.30095 0.93917 0.26872 0.0
O38 O 0.29594 0.00824 0.21757 0.0
O39 O 0.2992 0.0679 0.23925 0.0
C40 C 0.38408 0.01616 0.31178 0.0
C41 C 0.2838 0.04235 0.21762 0.0
C42 C 0.75549 0.48726 0.21349 0.0
C43 C 0.65387 0.50068 0.30914 0.0
O44 O 0.74045 0.45944 0.23153 0.0
Zn45 Zn 0.70168 0.48904 0.25884 0.0
O46 O 0.74246 0.52088 0.21796 0.0
Zn47 Zn 0.69955 0.55057 0.24784 0.0
O48 O 0.73246 0.58519 0.27805 0.0
O49 O 0.73691 0.52425 0.29345 0.0
O50 O 0.6629 0.531 0.29121 0.0
O51 O 0.66718 0.46876 0.29794 0.0
O52 O 0.6676 0.504 0.21272 0.0
O53 O 0.66664 0.56652 0.20593 0.0
C54 C 0.74619 0.55926 0.29899 0.0
C55 C 0.65696 0.53315 0.19428 0.0
C56 C 0.22064 0.36963 0.99598 0.0
C57 C 0.32361 0.28097 0.96375 0.0
O58 O 0.23306 0.36296 0.96242 0.0
Zn59 Zn 0.27425 0.32871 0.97662 0.0
O60 O 0.23866 0.35651 0.02465 0.0
Zn61 Zn 0.28528 0.32037 0.03672 0.0
O62 O 0.32478 0.35176 0.06126 0.0
O63 O 0.31858 0.3644 1.00006 0.0
O64 O 0.31908 0.28765 0.99932 0.0
O65 O 0.30278 0.29763 0.93946 0.0
O66 O 0.24102 0.28502 0.00275 0.0
O67 O 0.25825 0.27931 0.0631 0.0
C68 C 0.33568 0.37005 0.03202 0.0
C69 C 0.23709 0.26902 0.03505 0.0
C70 C 0.22627 0.72992 0.47463 0.0
C71 C 0.32437 0.63141 0.48861 0.0
O72 O 0.24544 0.71554 0.44718 0.0
Zn73 Zn 0.27326 0.67791 0.47751 0.0
O74 O 0.23128 0.7183 0.50854 0.0
Zn75 Zn 0.26408 0.67885 0.53884 0.0
O76 O 0.29414 0.71392 0.57076 0.0
O77 O 0.30929 0.71555 0.5095 0.0
O78 O 0.30793 0.64207 0.51952 0.0
O79 O 0.31193 0.64298 0.45671 0.0
O80 O 0.22755 0.64257 0.49652 0.0
O81 O 0.22358 0.64705 0.55937 0.0
C82 C 0.31501 0.72677 0.5439 0.0
C83 C 0.21092 0.63379 0.52776 0.0
C84 C 0.7089 0.87222 0.48666 0.0
C85 C 0.80881 0.77788 0.46855 0.0
O86 O 0.7211 0.85837 0.45535 0.0
Zn87 Zn 0.75928 0.82519 0.47591 0.0
O88 O 0.72427 0.86233 0.51816 0.0
Zn89 Zn 0.76808 0.82441 0.53624 0.0
O90 O 0.80844 0.85589 0.55891 0.0
O91 O 0.8051 0.86161 0.49635 0.0
O92 O 0.80324 0.78763 0.50333 0.0
O93 O 0.78825 0.79163 0.44226 0.0
O94 O 0.72509 0.78392 0.50541 0.0
O95 O 0.74037 0.78677 0.56647 0.0
C96 C 0.82175 0.86952 0.52812 0.0
C97 C 0.72083 0.77172 0.5394 0.0
C98 C 0.54851 0.80235 0.76253 0.0
C99 C 0.54736 0.70467 0.86111 0.0
O100 O 0.51519 0.79111 0.7729 0.0
Zn101 Zn 0.48875 0.75234 0.81101 0.0
O102 O 0.57812 0.78803 0.77743 0.0
Zn103 Zn 0.55046 0.7551 0.81326 0.0
O104 O 0.5268 0.71281 0.77605 0.0
O105 O 0.4637 0.71612 0.77557 0.0
O106 O 0.5766 0.72246 0.84837 0.0
O107 O 0.51393 0.71411 0.85017 0.0
O108 O 0.46007 0.78754 0.84258 0.0
O109 O 0.52253 0.79558 0.84896 0.0
C110 C 0.49429 0.70027 0.7643 0.0
C111 C 0.48845 0.80555 0.85734 0.0
C112 C 0.5467 0.20144 0.73976 0.0
C113 C 0.52698 0.30075 0.64519 0.0
O114 O 0.5119 0.21057 0.73453 0.0
Zn115 Zn 0.47856 0.24777 0.70183 0.0
O116 O 0.57345 0.21834 0.72168 0.0
Zn117 Zn 0.53962 0.25032 0.6913 0.0
O118 O 0.51889 0.28934 0.73317 0.0
O119 O 0.45668 0.28024 0.74162 0.0
O120 O 0.55865 0.28518 0.65296 0.0
O121 O 0.49622 0.28877 0.66115 0.0
O122 O 0.44794 0.21065 0.67333 0.0
O123 O 0.50935 0.20799 0.65914 0.0
C124 C 0.48759 0.29829 0.74969 0.0
C125 C 0.47518 0.19498 0.65517 0.0
C126 C 0.78245 0.4759 0.70488 0.0
C127 C 0.87884 0.46855 0.80633 0.0
O128 O 0.79616 0.50814 0.71631 0.0
Zn129 Zn 0.83719 0.53098 0.75587 0.0
O130 O 0.79489 0.44505 0.71874 0.0
Zn131 Zn 0.83322 0.46971 0.75214 0.0
O132 O 0.79534 0.49645 0.79103 0.0
O133 O 0.80286 0.55931 0.78936 0.0
O134 O 0.86438 0.44087 0.78702 0.0
O135 O 0.87171 0.50283 0.79669 0.0
O136 O 0.87156 0.55702 0.72146 0.0
O137 O 0.87095 0.49471 0.71129 0.0
C138 C 0.78623 0.5298 0.80268 0.0
C139 C 0.88243 0.52822 0.70204 0.0
C140 C 0.24047 0.96334 0.70336 0.0
C141 C 0.15116 0.99349 0.80663 0.0
O142 O 0.22413 0.93899 0.7248 0.0
Zn143 Zn 0.19178 0.97565 0.75186 0.0
O144 O 0.23275 0.99875 0.70686 0.0
Zn145 Zn 0.19795 0.03545 0.74021 0.0
O146 O 0.23772 0.06617 0.76488 0.0
O147 O 0.23544 0.00601 0.78313 0.0
O148 O 0.16313 0.0227 0.78832 0.0
O149 O 0.15794 0.9602 0.7936 0.0
O150 O 0.15665 0.99503 0.7063 0.0
O151 O 0.16626 0.05718 0.70129 0.0
C152 C 0.25017 0.03963 0.78575 0.0
C153 C 0.1504 0.02643 0.68922 0.0
C154 C 0.7137 0.13332 0.01567 0.0
C155 C 0.81785 0.22216 0.04721 0.0
O156 O 0.72578 0.14204 0.04891 0.0
Zn157 Zn 0.76648 0.17718 0.03374 0.0
O158 O 0.73096 0.14703 0.98659 0.0
Zn159 Zn 0.77648 0.18515 0.97369 0.0
O160 O 0.81615 0.15512 0.94869 0.0
O161 O 0.81057 0.1423 0.0099 0.0
O162 O 0.81213 0.21716 0.01148 0.0
O163 O 0.7966 0.20553 0.07158 0.0
O164 O 0.73586 0.22351 0.00907 0.0
O165 O 0.74905 0.2257 0.94757 0.0
C166 C 0.82758 0.13735 0.97789 0.0
C167 C 0.73143 0.23899 0.97652 0.0
O168 O 0.1202 0.03921 0.12973 0.0
Zn169 Zn 0.06748 0.04125 0.10788 0.0
O170 O 0.07021 0.05726 0.0554 0.0
Zn171 Zn 0.05234 0.10949 0.05117 0.0
Zn172 Zn 0.12338 0.05593 0.04018 0.0
Zn173 Zn 0.03931 0.02272 0.02331 0.0
O174 O 1.00139 0.11034 0.02252 0.0
O175 O 0.98921 0.0486 0.01039 0.0
O176 O 0.04417 0.0808 0.14257 0.0
O177 O 0.04627 0.13062 0.10426 0.0
O178 O 0.09276 0.14628 0.03094 0.0
O179 O 0.14306 0.10915 0.03597 0.0
O180 O 0.12761 0.03124 0.98824 0.0
O181 O 0.04441 0.98816 0.1109 0.0
O182 O 0.06827 0.01208 0.97364 0.0
O183 O 0.02854 0.97253 0.05106 0.0
C184 C 0.15374 0.03636 0.11627 0.0
C185 C 0.97929 0.08354 0.00995 0.0
C186 C 0.12888 0.14191 0.03166 0.0
C187 C 0.04325 0.11672 0.13744 0.0
C188 C 0.1034 0.01691 0.96459 0.0
C189 C 0.0318 0.96392 0.08619 0.0
O190 O 0.15942 0.03634 0.08037 0.0
O191 O 0.91424 0.48157 0.12262 0.0
Zn192 Zn 0.96807 0.46742 0.10894 0.0
O193 O 0.96856 0.44194 0.05923 0.0
Zn194 Zn 0.98976 0.39148 0.06395 0.0
Zn195 Zn 0.91701 0.43438 0.04172 0.0
Zn196 Zn 0.99795 0.47094 0.02232 0.0
O197 O 0.04385 0.39081 0.04424 0.0
O198 O 0.04948 0.44577 0.01346 0.0
O199 O 0.97905 0.43062 0.15207 0.0
O200 O 0.98739 0.37736 0.11838 0.0
O201 O 0.9562 0.34895 0.04249 0.0
O202 O 0.90248 0.38065 0.04969 0.0
O203 O 0.91323 0.44469 0.98559 0.0
O204 O 1.00097 0.51586 0.10725 0.0
O205 O 0.96938 0.47175 0.97126 0.0
O206 O 0.0089 0.52417 0.0446 0.0
C207 C 0.88164 0.47616 0.10716 0.0
C208 C 0.06342 0.41432 0.0244 0.0
C209 C 0.92011 0.34941 0.04731 0.0
C210 C 0.98216 0.39443 0.15006 0.0
C211 C 0.93632 0.459 0.96135 0.0
C212 C 0.01187 0.5362 0.07913 0.0
O213 O 0.8782 0.4608 0.07422 0.0
O214 O 0.13959 0.8919 0.47454 0.0
Zn215 Zn 0.12151 0.94541 0.46679 0.0
O216 O 0.06902 0.94334 0.44758 0.0
Zn217 Zn 0.06968 0.95983 0.39505 0.0
Zn218 Zn 0.04887 0.89116 0.45059 0.0
Zn219 Zn 0.03643 0.97738 0.477 0.0
O220 O 0.04691 0.01226 0.38998 0.0
O221 O 0.0249 0.0258 0.44803 0.0
O222 O 0.16016 0.96297 0.42753 0.0
O223 O 0.12336 0.96126 0.37615 0.0
O224 O 0.04735 0.92063 0.3591 0.0
O225 O 0.04169 0.87089 0.39722 0.0
O226 O 0.99799 0.88934 0.47938 0.0
O227 O 0.12399 0.9758 0.51663 0.0
O228 O 0.98657 0.95096 0.49012 0.0
O229 O 0.06319 0.99192 0.5263 0.0
C230 C 0.12409 0.85882 0.47504 0.0
C231 C 0.03085 0.0351 0.41349 0.0
C232 C 0.04182 0.88506 0.36402 0.0
C233 C 0.15626 0.96274 0.39141 0.0
C234 C 0.97629 0.91595 0.49146 0.0
C235 C 0.09796 0.99097 0.53713 0.0
O236 O 0.08815 0.85426 0.47033 0.0
O237 O 0.9914 0.62833 0.38895 0.0
Zn238 Zn 0.98697 0.61563 0.44483 0.0
O239 O 0.96391 0.56479 0.44855 0.0
Zn240 Zn 0.91267 0.56969 0.4683 0.0
Zn241 Zn 0.96002 0.54225 0.39831 0.0
Zn242 Zn 0.99254 0.53172 0.4817 0.0
O243 O 0.91024 0.55551 0.52342 0.0
O244 O 0.96615 0.5279 0.53344 0.0
O245 O 0.95188 0.658 0.46269 0.0
O246 O 0.89832 0.62345 0.4648 0.0
O247 O 0.87151 0.54602 0.43534 0.0
O248 O 0.90568 0.54519 0.38226 0.0
O249 O 0.97738 0.48777 0.3986 0.0
O250 O 0.03861 0.61622 0.47199 0.0
O251 O 0.99981 0.47906 0.45727 0.0
O252 O 0.04402 0.55591 0.4911 0.0
C253 C 0.99051 0.60927 0.35773 0.0
C254 C 0.93386 0.53952 0.54552 0.0
C255 C 0.87357 0.54571 0.39911 0.0
C256 C 0.91553 0.65546 0.46368 0.0
C257 C 0.99227 0.46655 0.42368 0.0
C258 C 0.05756 0.58963 0.48751 0.0
O259 O 0.98512 0.57328 0.35731 0.0
O260 O 0.40562 0.94498 0.62677 0.0
Zn261 Zn 0.45941 0.95801 0.6107 0.0
O262 O 0.46649 0.94487 0.55804 0.0
Zn263 Zn 0.49322 0.89721 0.55512 0.0
Zn264 Zn 0.41571 0.94014 0.53775 0.0
Zn265 Zn 0.49415 0.98384 0.53056 0.0
O266 O 0.53675 0.90167 0.51774 0.0
O267 O 0.54827 0.96461 0.52059 0.0
O268 O 0.49554 0.93016 0.64514 0.0
O269 O 0.51765 0.8857 0.60576 0.0
O270 O 0.45574 0.85321 0.54579 0.0
O271 O 0.40209 0.88528 0.53705 0.0
O272 O 0.41298 0.96185 0.4847 0.0
O273 O 0.46514 0.01457 0.61591 0.0
O274 O 0.46856 0.99309 0.47912 0.0
O275 O 0.49153 0.03348 0.56138 0.0
C276 C 0.3748 0.95214 0.60911 0.0
C277 C 0.55859 0.93062 0.51214 0.0
C278 C 0.41958 0.85417 0.54139 0.0
C279 C 0.5162 0.90107 0.63884 0.0
C280 C 0.43625 0.98234 0.46543 0.0
C281 C 0.4775 0.04091 0.59429 0.0
O282 O 0.37548 0.96041 0.5738 0.0
O283 O 0.6213 0.51313 0.62859 0.0
Zn284 Zn 0.56753 0.52466 0.61075 0.0
O285 O 0.56806 0.54604 0.55977 0.0
Zn286 Zn 0.5477 0.5971 0.56067 0.0
Zn287 Zn 0.62052 0.54924 0.54273 0.0
Zn288 Zn 0.53735 0.51417 0.5245 0.0
O289 O 0.50121 0.60003 0.52768 0.0
O290 O 0.48605 0.53964 0.51308 0.0
O291 O 0.54153 0.55985 0.64907 0.0
O292 O 0.52829 0.60941 0.61294 0.0
O293 O 0.58772 0.63815 0.5493 0.0
O294 O 0.6403 0.60357 0.54646 0.0
O295 O 0.62309 0.53208 0.48782 0.0
O296 O 0.54188 0.47318 0.60895 0.0
O297 O 0.56541 0.50735 0.47456 0.0
O298 O 0.52974 0.46178 0.54732 0.0
C299 C 0.65269 0.50932 0.61052 0.0
C300 C 0.4779 0.57508 0.51392 0.0
C301 C 0.62402 0.63581 0.54756 0.0
C302 C 0.52732 0.59285 0.64495 0.0
C303 C 0.59942 0.51613 0.46468 0.0
C304 C 0.53122 0.45093 0.58182 0.0
O305 O 0.65567 0.51885 0.57572 0.0
O306 O 0.64693 0.40341 0.9705 0.0
Zn307 Zn 0.62693 0.45715 0.96715 0.0
O308 O 0.57466 0.45628 0.94955 0.0
Zn309 Zn 0.57469 0.47274 0.89728 0.0
Zn310 Zn 0.55332 0.405 0.95275 0.0
Zn311 Zn 0.54428 0.4916 0.98002 0.0
O312 O 0.55754 0.52652 0.89459 0.0
O313 O 0.53912 0.54237 0.95327 0.0
O314 O 0.66093 0.48663 0.93089 0.0
O315 O 0.62788 0.47873 0.87726 0.0
O316 O 0.54378 0.43718 0.86304 0.0
O317 O 0.5304 0.38949 0.90201 0.0
O318 O 0.5085 0.40456 0.98998 0.0
O319 O 0.62916 0.48096 0.01938 0.0
O320 O 0.49343 0.46624 0.99266 0.0
O321 O 0.57106 0.50388 0.02971 0.0
C322 C 0.63126 0.37033 0.96875 0.0
C323 C 0.54645 0.55123 0.9189 0.0
C324 C 0.52838 0.40465 0.8693 0.0
C325 C 0.65797 0.48991 0.89485 0.0
C326 C 0.48536 0.43118 0.9989 0.0
C327 C 0.60517 0.49815 0.04062 0.0
O328 O 0.59527 0.36606 0.96335 0.0
O329 O 0.517 0.11871 0.89187 0.0
Zn330 Zn 0.49401 0.10828 0.94325 0.0
O331 O 0.46807 0.05919 0.94302 0.0
Zn332 Zn 0.41592 0.06427 0.95987 0.0
Zn333 Zn 0.46564 0.04086 0.89117 0.0
Zn334 Zn 0.49395 0.02314 0.9753 0.0
O335 O 0.40957 0.04404 0.01346 0.0
O336 O 0.46509 0.01623 0.02506 0.0
O337 O 0.45733 0.15197 0.95275 0.0
O338 O 0.40266 0.1194 0.95879 0.0
O339 O 0.378 0.04188 0.92194 0.0
O340 O 0.41368 0.05115 0.87049 0.0
O341 O 0.47215 0.98413 0.89064 0.0
O342 O 0.53943 0.10667 0.9779 0.0
O343 O 0.49496 0.97135 0.94832 0.0
O344 O 0.54721 0.04429 0.98733 0.0
C345 C 0.51967 0.10014 0.86057 0.0
C346 C 0.43173 0.02605 0.03564 0.0
C347 C 0.38113 0.04688 0.88613 0.0
C348 C 0.42096 0.15081 0.95556 0.0
C349 C 0.48396 0.96049 0.91511 0.0
C350 C 0.55928 0.07887 0.98948 0.0
O351 O 0.50319 0.06766 0.85629 0.0
C352 C 0.98171 0.13141 0.40451 0.0
C353 C 0.00549 0.15071 0.37854 0.0
C354 C 0.99008 0.09403 0.41609 0.0
C355 C 0.02167 0.07428 0.40101 0.0
H356 H 0.95692 0.14543 0.41633 0.0
H357 H 0.97143 0.08033 0.43658 0.0
S358 S 0.09182 0.11164 0.33091 0.0
N359 N 0.06173 0.14685 0.33777 0.0
N360 N 0.07641 0.07688 0.35843 0.0
C361 C 0.04511 0.09312 0.37453 0.0
C362 C 0.03728 0.13122 0.36358 0.0
C363 C 0.03969 0.36962 0.41162 0.0
C364 C 0.01275 0.34905 0.38924 0.0
C365 C 0.0325 0.40731 0.42416 0.0
C366 C 0.99875 0.42595 0.41361 0.0
H367 H 0.06651 0.35666 0.41917 0.0
H368 H 0.05403 0.4224 0.44102 0.0
S369 S 0.9192 0.38512 0.35537 0.0
N370 N 0.95058 0.35062 0.35764 0.0
N371 N 0.93805 0.42097 0.38032 0.0
C372 C 0.97163 0.40563 0.39161 0.0
C373 C 0.97839 0.36733 0.37964 0.0
C374 C 0.99022 0.8626 0.09589 0.0
C375 C 0.01608 0.84588 0.1213 0.0
C376 C 0.99542 0.90071 0.08398 0.0
C377 C 0.02585 0.92372 0.09818 0.0
H378 H 0.96611 0.84606 0.08489 0.0
H379 H 0.97518 0.91244 0.0641 0.0
S380 S 0.10117 0.89395 0.16556 0.0
N381 N 0.07337 0.8558 0.16003 0.0
N382 N 0.08224 0.92681 0.13857 0.0
C383 C 0.05156 0.90736 0.12374 0.0
C384 C 0.0469 0.86866 0.13507 0.0
C385 C 0.06106 0.62032 0.12932 0.0
C386 C 0.04667 0.65186 0.10987 0.0
C387 C 0.05069 0.58282 0.11841 0.0
C388 C 0.02647 0.5755 0.087 0.0
H389 H 0.07804 0.62466 0.15492 0.0
H390 H 0.06073 0.55944 0.13542 0.0
S391 S 0.98379 0.64814 0.0248 0.0
N392 N 0.00838 0.67334 0.05688 0.0
N393 N 0.99047 0.60288 0.0351 0.0
C394 C 0.01399 0.60671 0.06582 0.0
C395 C 0.02366 0.6449 0.0776 0.0
C396 C 0.41635 0.97651 0.13093 0.0
C397 C 0.39463 0.00317 0.15167 0.0
C398 C 0.42894 0.98422 0.09357 0.0
C399 C 0.41911 0.01825 0.07524 0.0
H400 H 0.42375 0.94963 0.14365 0.0
H401 H 0.44576 0.96304 0.07863 0.0
S402 S 0.36263 0.09729 0.11676 0.0
N403 N 0.36427 0.06534 0.15077 0.0
N404 N 0.38686 0.07888 0.08078 0.0
C405 C 0.39736 0.04496 0.0956 0.0
C406 C 0.38541 0.03766 0.13372 0.0
C407 C 0.65458 0.49356 0.13562 0.0
C408 C 0.64154 0.52599 0.15563 0.0
C409 C 0.64276 0.48532 0.09849 0.0
C410 C 0.61683 0.50874 0.07982 0.0
H411 H 0.67489 0.47453 0.14845 0.0
H412 H 0.65381 0.46002 0.08445 0.0
S413 S 0.57404 0.59718 0.1192 0.0
N414 N 0.60176 0.58212 0.1539 0.0
N415 N 0.57828 0.56591 0.08374 0.0
C416 C 0.60315 0.54119 0.09936 0.0
C417 C 0.61594 0.55009 0.1373 0.0
C418 C 0.39415 0.9726 0.3662 0.0
C419 C 0.40153 0.0084 0.3496 0.0
C420 C 0.40567 0.96471 0.40342 0.0
C421 C 0.42592 0.99186 0.42563 0.0
H422 H 0.37798 0.95066 0.35086 0.0
H423 H 0.39852 0.93697 0.41493 0.0
S424 S 0.45417 0.08944 0.39565 0.0
N425 N 0.43101 0.0712 0.35836 0.0
N426 N 0.45407 0.05575 0.42816 0.0
C427 C 0.43472 0.0274 0.40922 0.0
C428 C 0.4221 0.03585 0.37135 0.0
C429 C 0.61938 0.47377 0.36629 0.0
C430 C 0.63548 0.5052 0.34711 0.0
C431 C 0.60646 0.47744 0.4042 0.0
C432 C 0.61051 0.51229 0.42435 0.0
H433 H 0.61731 0.44611 0.35216 0.0
H434 H 0.59452 0.45264 0.41823 0.0
S435 S 0.64926 0.6035 0.38755 0.0
N436 N 0.65278 0.57305 0.35147 0.0
N437 N 0.63005 0.57886 0.42256 0.0
C438 C 0.62581 0.54392 0.40549 0.0
C439 C 0.63786 0.54066 0.36689 0.0
C440 C 0.16296 0.37585 0.03694 0.0
C441 C 0.18189 0.38527 0.00276 0.0
C442 C 0.12486 0.38542 0.04335 0.0
C443 C 0.10399 0.4056 0.01629 0.0
H444 H 0.17717 0.35962 0.05869 0.0
H445 H 0.11164 0.37685 0.06989 0.0
S446 S 0.14008 0.43865 0.92273 0.0
N447 N 0.17679 0.41659 0.94162 0.0
N448 N 0.10514 0.43585 0.95433 0.0
C449 C 0.12265 0.41637 0.98243 0.0
C450 C 0.16152 0.40584 0.97548 0.0
C451 C 0.14121 0.63719 0.53883 0.0
C452 C 0.17249 0.61645 0.5249 0.0
C453 C 0.10383 0.62825 0.52676 0.0
C454 C 0.09662 0.59765 0.50132 0.0
H455 H 0.14588 0.66216 0.55693 0.0
H456 H 0.08054 0.64575 0.53683 0.0
S457 S 0.16834 0.53278 0.45919 0.0
N458 N 0.19374 0.56331 0.48559 0.0
N459 N 0.12323 0.54507 0.46462 0.0
C460 C 0.12736 0.57529 0.4891 0.0
C461 C 0.16544 0.58507 0.50047 0.0
C462 C 0.8685 0.91804 0.5041 0.0
C463 C 0.86089 0.8859 0.52652 0.0
C464 C 0.90616 0.9286 0.49446 0.0
C465 C 0.93739 0.90641 0.50552 0.0
H466 H 0.84508 0.93432 0.4928 0.0
H467 H 0.91067 0.95316 0.4765 0.0
S468 S 0.93279 0.82009 0.56524 0.0
N469 N 0.88778 0.83301 0.56103 0.0
N470 N 0.95832 0.85176 0.54132 0.0
C471 C 0.93023 0.87474 0.52867 0.0
C472 C 0.89203 0.86478 0.5396 0.0
C473 C 0.38724 0.63186 0.52028 0.0
C474 C 0.36307 0.61532 0.49235 0.0
C475 C 0.42416 0.61878 0.52612 0.0
C476 C 0.43872 0.588 0.50477 0.0
H477 H 0.37765 0.6556 0.5378 0.0
H478 H 0.4412 0.63266 0.54829 0.0
S479 S 0.38727 0.53471 0.42767 0.0
N480 N 0.35637 0.56706 0.44225 0.0
N481 N 0.42605 0.54123 0.45415 0.0
C482 C 0.41496 0.57092 0.47663 0.0
C483 C 0.37718 0.585 0.47005 0.0
C484 C 0.52012 0.65469 0.90399 0.0
C485 C 0.55107 0.66856 0.88208 0.0
C486 C 0.51912 0.61702 0.91723 0.0
C487 C 0.54853 0.59174 0.90801 0.0
H488 H 0.49583 0.67268 0.9098 0.0
H489 H 0.49447 0.60716 0.93321 0.0
S490 S 0.63755 0.61463 0.85483 0.0
N491 N 0.61324 0.65461 0.85464 0.0
N492 N 0.61099 0.58386 0.87874 0.0
C493 C 0.5804 0.60571 0.88772 0.0
C494 C 0.58181 0.64415 0.87501 0.0
C495 C 0.45507 0.86718 0.86627 0.0
C496 C 0.48332 0.84198 0.87828 0.0
C497 C 0.45521 0.90528 0.87897 0.0
C498 C 0.48314 0.91939 0.90472 0.0
H499 H 0.43411 0.85812 0.8451 0.0
H500 H 0.43366 0.92404 0.86791 0.0
S501 S 0.56089 0.86371 0.94786 0.0
N502 N 0.53839 0.83289 0.91931 0.0
N503 N 0.53795 0.90432 0.94405 0.0
C504 C 0.51009 0.89385 0.9188 0.0
C505 C 0.51037 0.85519 0.90532 0.0
C506 C 0.49616 0.36242 0.63076 0.0
C507 C 0.5256 0.33632 0.62303 0.0
C508 C 0.4968 0.39902 0.61534 0.0
C509 C 0.52617 0.4104 0.59069 0.0
H510 H 0.47357 0.35546 0.65073 0.0
H511 H 0.47504 0.41906 0.62395 0.0
S512 S 0.60827 0.35253 0.55882 0.0
N513 N 0.58396 0.32412 0.58753 0.0
N514 N 0.58436 0.39279 0.55755 0.0
C515 C 0.55459 0.38413 0.58093 0.0
C516 C 0.5545 0.34707 0.59733 0.0
C517 C 0.49645 0.14732 0.60661 0.0
C518 C 0.46993 0.15801 0.63491 0.0
C519 C 0.49804 0.10965 0.59278 0.0
C520 C 0.47368 0.08111 0.60726 0.0
H521 H 0.51711 0.16794 0.59608 0.0
H522 H 0.51956 0.1026 0.57168 0.0
S523 S 0.3969 0.09494 0.67923 0.0
N524 N 0.41702 0.1376 0.67502 0.0
N525 N 0.42001 0.06678 0.64929 0.0
C526 C 0.44581 0.0918 0.63431 0.0
C527 C 0.44387 0.13029 0.64797 0.0
C528 C 0.89117 0.56424 0.64198 0.0
C529 C 0.90136 0.53328 0.66468 0.0
C530 C 0.90205 0.56593 0.6036 0.0
C531 C 0.92426 0.53716 0.58658 0.0
H532 H 0.8729 0.58637 0.65331 0.0
H533 H 0.89264 0.58987 0.58701 0.0
S534 S 0.96084 0.45148 0.63449 0.0
N535 N 0.93623 0.47396 0.66792 0.0
N536 N 0.95787 0.47786 0.59598 0.0
C537 C 0.93623 0.50697 0.60942 0.0
C538 C 0.92444 0.50483 0.64838 0.0
C539 C 0.10167 0.99814 0.64472 0.0
C540 C 0.13182 0.02445 0.65138 0.0
C541 C 0.0894 0.9891 0.60752 0.0
C542 C 0.10778 0.00506 0.57576 0.0
H543 H 0.08848 0.98335 0.66836 0.0
H544 H 0.06682 0.96787 0.60352 0.0
S545 S 0.18629 0.07718 0.57758 0.0
N546 N 0.17789 0.06837 0.62299 0.0
N547 N 0.15578 0.04996 0.55307 0.0
C548 C 0.13693 0.03237 0.58194 0.0
C549 C 0.14866 0.04249 0.6198 0.0
C550 C 0.92259 0.49103 0.85904 0.0
C551 C 0.89835 0.46231 0.84334 0.0
C552 C 0.93596 0.48921 0.89678 0.0
C553 C 0.92476 0.45912 0.92059 0.0
H554 H 0.93045 0.51571 0.84234 0.0
H555 H 0.95388 0.51233 0.90784 0.0
S556 S 0.8641 0.37529 0.89277 0.0
N557 N 0.86587 0.40154 0.85409 0.0
N558 N 0.89024 0.39854 0.92501 0.0
C559 C 0.90172 0.42953 0.90486 0.0
C560 C 0.88877 0.43097 0.86625 0.0
C561 C 0.10918 0.97628 0.86282 0.0
C562 C 0.13791 0.99934 0.84646 0.0
C563 C 0.09784 0.98198 0.90109 0.0
C564 C 0.11584 0.00999 0.92455 0.0
H565 H 0.09511 0.95411 0.84586 0.0
H566 H 0.07517 0.9641 0.91249 0.0
S567 S 0.19403 0.07652 0.89558 0.0
N568 N 0.18463 0.05064 0.85696 0.0
N569 N 0.16421 0.06063 0.92834 0.0
C570 C 0.14508 0.03264 0.9085 0.0
C571 C 0.15589 0.02748 0.86964 0.0
C572 C 0.64231 0.88275 0.46431 0.0
C573 C 0.67317 0.89425 0.48779 0.0
C574 C 0.6054 0.89654 0.47085 0.0
C575 C 0.59833 0.92321 0.50026 0.0
H576 H 0.64607 0.86082 0.44258 0.0
H577 H 0.58192 0.885 0.45387 0.0
S578 S 0.67014 0.96558 0.56684 0.0
N579 N 0.69477 0.9358 0.5398 0.0
N580 N 0.62565 0.96288 0.55106 0.0
C581 C 0.62943 0.93712 0.522 0.0
C582 C 0.66682 0.92231 0.51604 0.0
C583 C 0.6593 0.115 0.97337 0.0
C584 C 0.67655 0.11306 0.0096 0.0
C585 C 0.6217 0.10258 0.96732 0.0
C586 C 0.59995 0.08691 0.99692 0.0
H587 H 0.67416 0.12798 0.94965 0.0
H588 H 0.60916 0.10618 0.93935 0.0
S589 S 0.63223 0.07089 0.09581 0.0
N590 N 0.66948 0.09136 0.07496 0.0
N591 N 0.59854 0.06692 0.06283 0.0
C592 C 0.61714 0.08237 0.03265 0.0
C593 C 0.65554 0.09572 0.03917 0.0
C594 C 0.40543 0.37425 0.04592 0.0
C595 C 0.37237 0.39154 0.03183 0.0
C596 C 0.44206 0.38821 0.0365 0.0
C597 C 0.44688 0.42051 0.01348 0.0
H598 H 0.40308 0.34807 0.06187 0.0
H599 H 0.46677 0.3728 0.04617 0.0
S600 S 0.36916 0.47819 0.97271 0.0
N601 N 0.34661 0.4438 0.99577 0.0
N602 N 0.41525 0.47104 0.97932 0.0
C603 C 0.41395 0.43961 1.00155 0.0
C604 C 0.37674 0.42484 0.01038 0.0
C605 C 0.89766 0.13743 0.96458 0.0
C606 C 0.86498 0.11804 0.97821 0.0
C607 C 0.93467 0.12556 0.97409 0.0
C608 C 0.94034 0.09318 0.99656 0.0
H609 H 0.89466 0.16361 0.94888 0.0
H610 H 0.95901 0.14243 0.96465 0.0
S611 S 0.86422 0.03061 0.03641 0.0
N612 N 0.84072 0.06396 0.01378 0.0
N613 N 0.91008 0.04049 0.02998 0.0
C614 C 0.90792 0.07214 0.00821 0.0
C615 C 0.8703 0.08487 0.99947 0.0
C616 C 0.03548 0.1532 0.23944 0.0
C617 C 0.05142 0.19029 0.23784 0.0
C618 C 0.03268 0.12976 0.20688 0.0
C619 C 0.04479 0.14285 0.17113 0.0
H620 H 0.02397 0.14259 0.26601 0.0
H621 H 0.0202 0.10144 0.20966 0.0
S622 S 0.0894 0.2378 0.15196 0.0
N623 N 0.08023 0.23892 0.19817 0.0
N624 N 0.07486 0.19525 0.13644 0.0
C625 C 0.06144 0.17984 0.16926 0.0
C626 C 0.06486 0.20343 0.20275 0.0
C627 C 0.97859 0.35946 0.25211 0.0
C628 C 0.96182 0.32274 0.24797 0.0
C629 C 0.98402 0.38327 0.22066 0.0
C630 C 0.97382 0.37069 0.18381 0.0
H631 H 0.98955 0.36899 0.27962 0.0
H632 H 0.99804 0.4108 0.22495 0.0
S633 S 0.92473 0.27873 0.15851 0.0
N634 N 0.93191 0.27643 0.20498 0.0
N635 N 0.9421 0.3207 0.14565 0.0
C636 C 0.95483 0.33492 0.17973 0.0
C637 C 0.94876 0.31107 0.21188 0.0
C638 C 0.07006 0.84477 0.26718 0.0
C639 C 0.05691 0.80686 0.26881 0.0
C640 C 0.06355 0.87037 0.29754 0.0
C641 C 0.04381 0.85879 0.33063 0.0
H642 H 0.08428 0.85503 0.24184 0.0
H643 H 0.07456 0.89931 0.29519 0.0
S644 S 0.00381 0.76193 0.34821 0.0
N645 N 0.02323 0.75871 0.30538 0.0
N646 N 0.01159 0.80637 0.36291 0.0
C647 C 0.03097 0.82063 0.33256 0.0
C648 C 0.03736 0.7948 0.30153 0.0
C649 C 0.96333 0.68495 0.28664 0.0
C650 C 0.97926 0.67145 0.25242 0.0
C651 C 0.9678 0.66481 0.32063 0.0
C652 C 0.98779 0.63016 0.32143 0.0
H653 H 0.94958 0.71243 0.28769 0.0
H654 H 0.95565 0.67665 0.34656 0.0
S655 S 0.0316 0.58111 0.23831 0.0
N656 N 0.01394 0.62058 0.22068 0.0
N657 N 0.0209 0.58189 0.28421 0.0
C658 C 1.00182 0.6153 0.28687 0.0
C659 C 0.99792 0.63618 0.25247 0.0
C660 C 0.25421 0.05491 0.15496 0.0
C661 C 0.24985 0.04911 0.19425 0.0
C662 C 0.22318 0.05008 0.12982 0.0
C663 C 0.18674 0.03867 0.14305 0.0
H664 H 0.28215 0.06169 0.14336 0.0
H665 H 0.22791 0.05516 0.09979 0.0
S666 S 0.1615 0.01786 0.24371 0.0
N667 N 0.20722 0.03027 0.2453 0.0
N668 N 0.1487 0.02114 0.19855 0.0
C669 C 0.18217 0.03293 0.18255 0.0
C670 C 0.21377 0.03808 0.20799 0.0
C671 C 0.81555 0.51206 0.18455 0.0
C672 C 0.78782 0.48255 0.18692 0.0
C673 C 0.84518 0.51054 0.15776 0.0
C674 C 0.84748 0.48005 0.13152 0.0
H675 H 0.81454 0.53646 0.20387 0.0
H676 H 0.86655 0.53328 0.15768 0.0
S677 S 0.78225 0.39544 0.12602 0.0
N678 N 0.7648 0.42177 0.16119 0.0
N679 N 0.82004 0.41913 0.11004 0.0
C680 C 0.81975 0.45047 0.13334 0.0
C681 C 0.79008 0.45161 0.16131 0.0
C682 C 0.25851 0.97169 0.35603 0.0
C683 C 0.25653 0.95546 0.31908 0.0
C684 C 0.22617 0.97345 0.37952 0.0
C685 C 0.19041 0.95989 0.36652 0.0
H686 H 0.28506 0.9845 0.36631 0.0
H687 H 0.22897 0.98674 0.4075 0.0
S688 S 0.1708 0.91222 0.27282 0.0
N689 N 0.21678 0.92361 0.27132 0.0
N690 N 0.15563 0.92693 0.31507 0.0
C691 C 0.18841 0.94219 0.33006 0.0
C692 C 0.22159 0.93988 0.30645 0.0
C693 C 0.81223 0.57709 0.31653 0.0
C694 C 0.77527 0.56686 0.32817 0.0
C695 C 0.84369 0.57022 0.33997 0.0
C696 C 0.8392 0.55305 0.37593 0.0
H697 H 0.81719 0.58765 0.28804 0.0
H698 H 0.87186 0.57769 0.32933 0.0
S699 S 0.74713 0.52515 0.42073 0.0
N700 N 0.73511 0.54152 0.37855 0.0
N701 N 0.79418 0.52956 0.42329 0.0
C702 C 0.80197 0.54526 0.3889 0.0
C703 C 0.77001 0.55193 0.36481 0.0
C704 C 0.21824 0.20234 0.05084 0.0
C705 C 0.20801 0.23844 0.03814 0.0
C706 C 0.19252 0.17136 0.04791 0.0
C707 C 0.15538 0.17547 0.03271 0.0
H708 H 0.24676 0.19767 0.06172 0.0
H709 H 0.20196 0.14394 0.05784 0.0
S710 S 0.11424 0.26561 0.99822 0.0
N711 N 0.15827 0.2775 0.01127 0.0
N712 N 0.10936 0.21955 0.0068 0.0
C713 C 0.14447 0.21196 0.02117 0.0
C714 C 0.17095 0.24335 0.02359 0.0
C715 C 0.21117 0.79691 0.45791 0.0
C716 C 0.19856 0.76069 0.46936 0.0
C717 C 0.18706 0.82852 0.46075 0.0
C718 C 0.14929 0.82499 0.47476 0.0
H719 H 0.24032 0.80117 0.44823 0.0
H720 H 0.19816 0.85596 0.45167 0.0
S721 S 0.1026 0.73538 0.50714 0.0
N722 N 0.14617 0.72259 0.49473 0.0
N723 N 0.10041 0.78161 0.49898 0.0
C724 C 0.13616 0.78852 0.4853 0.0
C725 C 0.16093 0.75653 0.48295 0.0
C726 C 0.87285 0.75215 0.48266 0.0
C727 C 0.83907 0.75023 0.46067 0.0
C728 C 0.89911 0.72237 0.48194 0.0
C729 C 0.89181 0.68945 0.45983 0.0
H730 H 0.87827 0.77627 0.50169 0.0
H731 H 0.92396 0.72417 0.50038 0.0
S732 S 0.80986 0.67222 0.39402 0.0
N733 N 0.80167 0.71449 0.41359 0.0
N734 N 0.8506 0.65805 0.41249 0.0
C735 C 0.85934 0.6882 0.43597 0.0
C736 C 0.83302 0.71879 0.43625 0.0
C737 C 0.37883 0.75434 0.5287 0.0
C738 C 0.34494 0.756 0.55041 0.0
C739 C 0.40433 0.78554 0.5273 0.0
C740 C 0.39604 0.81958 0.5468 0.0
H741 H 0.38487 0.72925 0.51141 0.0
H742 H 0.4294 0.78376 0.50927 0.0
S743 S 0.31332 0.83712 0.61073 0.0
N744 N 0.30633 0.79307 0.59443 0.0
N745 N 0.35378 0.85214 0.59137 0.0
C746 C 0.3634 0.82083 0.57031 0.0
C747 C 0.33793 0.78885 0.5723 0.0
C748 C 0.4774 0.67049 0.70147 0.0
C749 C 0.49413 0.6675 0.7376 0.0
C750 C 0.48644 0.64448 0.67214 0.0
C751 C 0.51211 0.61444 0.67815 0.0
H752 H 0.45966 0.69463 0.69502 0.0
H753 H 0.47469 0.6491 0.64401 0.0
S754 S 0.55893 0.59167 0.76986 0.0
N755 N 0.53415 0.6304 0.7793 0.0
N756 N 0.55063 0.58111 0.7245 0.0
C757 C 0.5263 0.60939 0.71521 0.0
C758 C 0.51748 0.63612 0.74485 0.0
C759 C 0.52825 0.86492 0.73901 0.0
C760 C 0.55069 0.83237 0.73365 0.0
C761 C 0.52022 0.88911 0.70876 0.0
C762 C 0.53357 0.88116 0.67164 0.0
H763 H 0.51485 0.87043 0.76638 0.0
H764 H 0.50098 0.91252 0.71407 0.0
S765 S 0.5981 0.80208 0.64412 0.0
N766 N 0.58984 0.79563 0.68998 0.0
N767 N 0.57454 0.84074 0.63253 0.0
C768 C 0.55872 0.85032 0.66667 0.0
C769 C 0.56731 0.82597 0.69783 0.0
C770 C 0.47817 0.32305 0.81593 0.0
C771 C 0.48908 0.32955 0.7781 0.0
C772 C 0.48908 0.34882 0.84515 0.0
C773 C 0.51097 0.38203 0.83738 0.0
H774 H 0.46358 0.29669 0.82336 0.0
H775 H 0.48185 0.34166 0.87424 0.0
S776 S 0.54132 0.41415 0.74135 0.0
N777 N 0.51904 0.37291 0.73341 0.0
N778 N 0.53902 0.42177 0.78788 0.0
C779 C 0.51912 0.3902 0.799 0.0
C780 C 0.50837 0.36376 0.76947 0.0
C781 C 0.56674 0.1786 0.80317 0.0
C782 C 0.55353 0.17018 0.76622 0.0
C783 C 0.55883 0.15369 0.83327 0.0
C784 C 0.53727 0.11967 0.82735 0.0
H785 H 0.57998 0.20613 0.80957 0.0
H786 H 0.56717 0.16263 0.86183 0.0
S787 S 0.50156 0.08259 0.7339 0.0
N788 N 0.52219 0.12398 0.72406 0.0
N789 N 0.50751 0.07687 0.78018 0.0
C790 C 0.5275 0.10926 0.78959 0.0
C791 C 0.53549 0.1347 0.75913 0.0
C792 C 0.71445 0.46376 0.68635 0.0
C793 C 0.7514 0.4764 0.67656 0.0
C794 C 0.68267 0.47342 0.66409 0.0
C795 C 0.68691 0.49564 0.63109 0.0
H796 H 0.70977 0.4485 0.71263 0.0
H797 H 0.65448 0.46441 0.67347 0.0
S798 S 0.77861 0.53371 0.59259 0.0
N799 N 0.79094 0.51079 0.63138 0.0
N800 N 0.73174 0.52826 0.58902 0.0
C801 C 0.72417 0.50666 0.62008 0.0
C802 C 0.75627 0.49727 0.64302 0.0
C803 C 0.3029 0.93348 0.68835 0.0
C804 C 0.27054 0.95289 0.67596 0.0
C805 C 0.33616 0.93255 0.66599 0.0
C806 C 0.33806 0.95069 0.63033 0.0
H807 H 0.3034 0.92113 0.71648 0.0
H808 H 0.36093 0.91839 0.67731 0.0
S809 S 0.25858 1.00094 0.58338 0.0
N810 N 0.24079 0.98766 0.6248 0.0
N811 N 0.30286 0.98531 0.58233 0.0
C812 C 0.30478 0.96788 0.61663 0.0
C813 C 0.27116 0.96917 0.6396 0.0
C814 C 0.7585 0.52055 0.86656 0.0
C815 C 0.7537 0.53206 0.82872 0.0
C816 C 0.72709 0.50869 0.88848 0.0
C817 C 0.69001 0.50688 0.87281 0.0
H818 H 0.78698 0.51833 0.87844 0.0
H819 H 0.7323 0.49875 0.91709 0.0
S820 S 0.66268 0.53667 0.7753 0.0
N821 N 0.70949 0.54337 0.77708 0.0
N822 N 0.65024 0.5207 0.81767 0.0
C823 C 0.68478 0.52029 0.83545 0.0
C824 C 0.71672 0.53296 0.81354 0.0
C825 C 0.28293 0.02391 0.8462 0.0
C826 C 0.28175 0.04605 0.81303 0.0
C827 C 0.31463 0.0253 0.87053 0.0
C828 C 0.34663 0.04826 0.86205 0.0
H829 H 0.25939 0.00473 0.85307 0.0
H830 H 0.31466 0.0072 0.8953 0.0
S831 S 0.35648 0.1143 0.78069 0.0
N832 N 0.31404 0.09376 0.77454 0.0
N833 N 0.37416 0.096 0.81994 0.0
C834 C 0.34525 0.07172 0.82982 0.0
C835 C 0.31261 0.07079 0.8054 0.0
C836 C 0.65932 0.73659 0.52683 0.0
C837 C 0.69489 0.73865 0.54562 0.0
C838 C 0.63596 0.70366 0.5285 0.0
C839 C 0.64799 0.67113 0.5479 0.0
H840 H 0.64966 0.76051 0.51035 0.0
H841 H 0.60891 0.70322 0.51342 0.0
S842 S 0.73851 0.66215 0.60217 0.0
N843 N 0.7405 0.70585 0.58516 0.0
N844 N 0.6974 0.64347 0.58724 0.0
C845 C 0.68334 0.67302 0.56717 0.0
C846 C 0.70658 0.70692 0.56633 0.0
C847 C 0.67776 0.27478 0.94602 0.0
C848 C 0.70665 0.27287 0.97384 0.0
C849 C 0.65251 0.30577 0.94529 0.0
C850 C 0.65604 0.33639 0.97166 0.0
H851 H 0.67415 0.25183 0.92523 0.0
H852 H 0.63062 0.30617 0.92344 0.0
S853 S 0.72749 0.34524 0.04957 0.0
N854 N 0.73711 0.30407 0.02845 0.0
N855 N 0.69101 0.36281 0.02602 0.0
C856 C 0.68516 0.33493 0.9992 0.0
C857 C 0.71008 0.30304 1.00058 0.0
C858 C 0.38726 0.25199 0.97182 0.0
C859 C 0.35158 0.25172 0.95308 0.0
C860 C 0.41074 0.21989 0.97095 0.0
C861 C 0.39871 0.18612 0.95227 0.0
H862 H 0.39623 0.27662 0.98882 0.0
H863 H 0.43734 0.22082 0.98681 0.0
S864 S 0.30964 0.17199 0.8957 0.0
N865 N 0.30697 0.21614 0.91262 0.0
N866 N 0.35059 0.15542 0.91146 0.0
C867 C 0.36408 0.18621 0.93165 0.0
C868 C 0.34062 0.21917 0.93189 0.0
C869 C 0.83769 0.28435 0.0746 0.0
C870 C 0.84802 0.24944 0.05814 0.0
C871 C 0.86214 0.31613 0.07212 0.0
C872 C 0.89772 0.31393 0.05319 0.0
H873 H 0.80937 0.28798 0.08652 0.0
H874 H 0.85229 0.34302 0.08381 0.0
S875 S 0.93994 0.22665 0.01115 0.0
N876 N 0.89734 0.21273 0.02642 0.0
N877 N 0.94389 0.27251 0.02236 0.0
C878 C 0.90972 0.27818 0.0398 0.0
C879 C 0.88462 0.24589 0.04208 0.0
loop_
_geom_bond_atom_site_label_1
_geom_bond_atom_site_label_2
_geom_bond_distance
_geom_bond_site_symmetry_2
_ccdc_geom_bond_type
C0 O2 1.247 . S
C0 O4 1.258 1_455 S
C1 O8 1.247 . S
C1 O9 1.258 1_655 S
O2 C0 1.247 . S
O2 Zn3 2.028 . S
Zn3 O2 2.028 . S
Zn3 O7 2.035 . S
Zn3 O9 2.035 . S
Zn3 O10 2.028 . S
O4 C0 1.258 1_655 S
O4 Zn5 2.035 . S
Zn5 O4 2.035 . S
Zn5 O6 2.028 . S
Zn5 O8 2.028 . S
Zn5 O11 2.035 . S
O6 Zn5 2.028 . S
O6 C12 1.247 . S
O7 Zn3 2.035 . S
O7 C12 1.258 1_455 S
O8 C1 1.247 . S
O8 Zn5 2.028 . S
O9 C1 1.258 1_455 S
O9 Zn3 2.035 . S
O10 Zn3 2.028 . S
O10 C13 1.247 . S
O11 Zn5 2.035 . S
O11 C13 1.258 1_655 S
C12 O6 1.247 . S
C12 O7 1.258 1_655 S
C13 O10 1.247 . S
C13 O11 1.258 1_455 S
C14 O16 1.247 . S
C14 O18 1.258 . S
C15 O22 1.247 1_455 S
C15 O23 1.258 . S
O16 C14 1.247 . S
O16 Zn17 2.028 . S
Zn17 O16 2.028 . S
Zn17 O21 2.035 . S
Zn17 O23 2.035 . S
Zn17 O24 2.028 . S
O18 C14 1.258 . S
O18 Zn19 2.035 1_455 S
Zn19 O18 2.035 1_655 S
Zn19 O20 2.028 . S
Zn19 O22 2.028 . S
Zn19 O25 2.035 1_655 S
O20 Zn19 2.028 . S
O20 C26 1.247 1_655 S
O21 Zn17 2.035 . S
O21 C26 1.258 . S
O22 C15 1.247 1_655 S
O22 Zn19 2.028 . S
O23 C15 1.258 . S
O23 Zn17 2.035 . S
O24 Zn17 2.028 . S
O24 C27 1.247 . S
O25 Zn19 2.035 1_455 S
O25 C27 1.258 . S
C26 O20 1.247 1_455 S
C26 O21 1.258 . S
C27 O24 1.247 . S
C27 O25 1.258 . S
C28 O30 1.247 1_545 S
C28 O32 1.258 . S
C29 O36 1.247 1_565 S
C29 O37 1.258 . S
O30 C28 1.247 1_565 S
O30 Zn31 2.028 . S
Zn31 O30 2.028 . S
Zn31 O35 2.035 . S
Zn31 O37 2.035 . S
Zn31 O38 2.028 . S
O32 C28 1.258 . S
O32 Zn33 2.035 . S
Zn33 O32 2.035 . S
Zn33 O34 2.028 . S
Zn33 O36 2.028 . S
Zn33 O39 2.035 . S
O34 Zn33 2.028 . S
O34 C40 1.247 1_545 S
O35 Zn31 2.035 . S
O35 C40 1.258 . S
O36 C29 1.247 1_545 S
O36 Zn33 2.028 . S
O37 C29 1.258 . S
O37 Zn31 2.035 . S
O38 Zn31 2.028 . S
O38 C41 1.247 1_565 S
O39 Zn33 2.035 . S
O39 C41 1.258 . S
C40 O34 1.247 1_565 S
C40 O35 1.258 . S
C41 O38 1.247 1_545 S
C41 O39 1.258 . S
C42 O44 1.247 . S
C42 O46 1.258 . S
C43 O50 1.247 . S
C43 O51 1.258 . S
O44 C42 1.247 . S
O44 Zn45 2.028 . S
Zn45 O44 2.028 . S
Zn45 O49 2.035 . S
Zn45 O51 2.035 . S
Zn45 O52 2.028 . S
O46 C42 1.258 . S
O46 Zn47 2.035 . S
Zn47 O46 2.035 . S
Zn47 O48 2.028 . S
Zn47 O50 2.028 . S
Zn47 O53 2.035 . S
O48 Zn47 2.028 . S
O48 C54 1.247 . S
O49 Zn45 2.035 . S
O49 C54 1.258 . S
O50 C43 1.247 . S
O50 Zn47 2.028 . S
O51 C43 1.258 . S
O51 Zn45 2.035 . S
O52 Zn45 2.028 . S
O52 C55 1.247 . S
O53 Zn47 2.035 . S
O53 C55 1.258 . S
C54 O48 1.247 . S
C54 O49 1.258 . S
C55 O52 1.247 . S
C55 O53 1.258 . S
C56 O58 1.247 1_554 S
C56 O60 1.258 . S
C57 O64 1.247 . S
C57 O65 1.258 1_554 S
O58 C56 1.247 1_556 S
O58 Zn59 2.028 . S
Zn59 O58 2.028 . S
Zn59 O63 2.035 . S
Zn59 O65 2.035 . S
Zn59 O66 2.028 . S
O60 C56 1.258 . S
O60 Zn61 2.035 . S
Zn61 O60 2.035 . S
Zn61 O62 2.028 . S
Zn61 O64 2.028 . S
Zn61 O67 2.035 . S
O62 Zn61 2.028 . S
O62 C68 1.247 . S
O63 Zn59 2.035 . S
O63 C68 1.258 1_556 S
O64 C57 1.247 . S
O64 Zn61 2.028 . S
O65 C57 1.258 1_556 S
O65 Zn59 2.035 . S
O66 Zn59 2.028 . S
O66 C69 1.247 1_556 S
O67 Zn61 2.035 . S
O67 C69 1.258 . S
C68 O62 1.247 . S
C68 O63 1.258 1_554 S
C69 O66 1.247 1_554 S
C69 O67 1.258 . S
C70 O72 1.247 . S
C70 O74 1.258 . S
C71 O78 1.247 . S
C71 O79 1.258 . S
O72 C70 1.247 . S
O72 Zn73 2.028 . S
Zn73 O72 2.028 . S
Zn73 O77 2.035 . S
Zn73 O79 2.035 . S
Zn73 O80 2.028 . S
O74 C70 1.258 . S
O74 Zn75 2.035 . S
Zn75 O74 2.035 . S
Zn75 O76 2.028 . S
Zn75 O78 2.028 . S
Zn75 O81 2.035 . S
O76 Zn75 2.028 . S
O76 C82 1.247 . S
O77 Zn73 2.035 . S
O77 C82 1.258 . S
O78 C71 1.247 . S
O78 Zn75 2.028 . S
O79 C71 1.258 . S
O79 Zn73 2.035 . S
O80 Zn73 2.028 . S
O80 C83 1.247 . S
O81 Zn75 2.035 . S
O81 C83 1.258 . S
C82 O76 1.247 . S
C82 O77 1.258 . S
C83 O80 1.247 . S
C83 O81 1.258 . S
C84 O86 1.247 . S
C84 O88 1.258 . S
C85 O92 1.247 . S
C85 O93 1.258 . S
O86 C84 1.247 . S
O86 Zn87 2.028 . S
Zn87 O86 2.028 . S
Zn87 O91 2.035 . S
Zn87 O93 2.035 . S
Zn87 O94 2.028 . S
O88 C84 1.258 . S
O88 Zn89 2.035 . S
Zn89 O88 2.035 . S
Zn89 O90 2.028 . S
Zn89 O92 2.028 . S
Zn89 O95 2.035 . S
O90 Zn89 2.028 . S
O90 C96 1.247 . S
O91 Zn87 2.035 . S
O91 C96 1.258 . S
O92 C85 1.247 . S
O92 Zn89 2.028 . S
O93 C85 1.258 . S
O93 Zn87 2.035 . S
O94 Zn87 2.028 . S
O94 C97 1.247 . S
O95 Zn89 2.035 . S
O95 C97 1.258 . S
C96 O90 1.247 . S
C96 O91 1.258 . S
C97 O94 1.247 . S
C97 O95 1.258 . S
C98 O100 1.247 . S
C98 O102 1.258 . S
C99 O106 1.247 . S
C99 O107 1.258 . S
O100 C98 1.247 . S
O100 Zn101 2.028 . S
Zn101 O100 2.028 . S
Zn101 O105 2.035 . S
Zn101 O107 2.035 . S
Zn101 O108 2.028 . S
O102 C98 1.258 . S
O102 Zn103 2.035 . S
Zn103 O102 2.035 . S
Zn103 O104 2.028 . S
Zn103 O106 2.028 . S
Zn103 O109 2.035 . S
O104 Zn103 2.028 . S
O104 C110 1.247 . S
O105 Zn101 2.035 . S
O105 C110 1.258 . S
O106 C99 1.247 . S
O106 Zn103 2.028 . S
O107 C99 1.258 . S
O107 Zn101 2.035 . S
O108 Zn101 2.028 . S
O108 C111 1.247 . S
O109 Zn103 2.035 . S
O109 C111 1.258 . S
C110 O104 1.247 . S
C110 O105 1.258 . S
C111 O108 1.247 . S
C111 O109 1.258 . S
C112 O114 1.247 . S
C112 O116 1.258 . S
C113 O120 1.247 . S
C113 O121 1.258 . S
O114 C112 1.247 . S
O114 Zn115 2.028 . S
Zn115 O114 2.028 . S
Zn115 O119 2.035 . S
Zn115 O121 2.035 . S
Zn115 O122 2.028 . S
O116 C112 1.258 . S
O116 Zn117 2.035 . S
Zn117 O116 2.035 . S
Zn117 O118 2.028 . S
Zn117 O120 2.028 . S
Zn117 O123 2.035 . S
O118 Zn117 2.028 . S
O118 C124 1.247 . S
O119 Zn115 2.035 . S
O119 C124 1.258 . S
O120 C113 1.247 . S
O120 Zn117 2.028 . S
O121 C113 1.258 . S
O121 Zn115 2.035 . S
O122 Zn115 2.028 . S
O122 C125 1.247 . S
O123 Zn117 2.035 . S
O123 C125 1.258 . S
C124 O118 1.247 . S
C124 O119 1.258 . S
C125 O122 1.247 . S
C125 O123 1.258 . S
C126 O128 1.247 . S
C126 O130 1.258 . S
C127 O134 1.247 . S
C127 O135 1.258 . S
O128 C126 1.247 . S
O128 Zn129 2.028 . S
Zn129 O128 2.028 . S
Zn129 O133 2.035 . S
Zn129 O135 2.035 . S
Zn129 O136 2.028 . S
O130 C126 1.258 . S
O130 Zn131 2.035 . S
Zn131 O130 2.035 . S
Zn131 O132 2.028 . S
Zn131 O134 2.028 . S
Zn131 O137 2.035 . S
O132 Zn131 2.028 . S
O132 C138 1.247 . S
O133 Zn129 2.035 . S
O133 C138 1.258 . S
O134 C127 1.247 . S
O134 Zn131 2.028 . S
O135 C127 1.258 . S
O135 Zn129 2.035 . S
O136 Zn129 2.028 . S
O136 C139 1.247 . S
O137 Zn131 2.035 . S
O137 C139 1.258 . S
C138 O132 1.247 . S
C138 O133 1.258 . S
C139 O136 1.247 . S
C139 O137 1.258 . S
C140 O142 1.247 1_545 S
C140 O144 1.258 . S
C141 O148 1.247 . S
C141 O149 1.258 1_545 S
O142 C140 1.247 1_565 S
O142 Zn143 2.028 . S
Zn143 O142 2.028 . S
Zn143 O147 2.035 . S
Zn143 O149 2.035 . S
Zn143 O150 2.028 . S
O144 C140 1.258 . S
O144 Zn145 2.035 . S
Zn145 O144 2.035 . S
Zn145 O146 2.028 . S
Zn145 O148 2.028 . S
Zn145 O151 2.035 . S
O146 Zn145 2.028 . S
O146 C152 1.247 . S
O147 Zn143 2.035 . S
O147 C152 1.258 1_565 S
O148 C141 1.247 . S
O148 Zn145 2.028 . S
O149 C141 1.258 1_565 S
O149 Zn143 2.035 . S
O150 Zn143 2.028 . S
O150 C153 1.247 1_565 S
O151 Zn145 2.035 . S
O151 C153 1.258 . S
C152 O146 1.247 . S
C152 O147 1.258 1_545 S
C153 O150 1.247 1_545 S
C153 O151 1.258 . S
C154 O156 1.247 1_556 S
C154 O158 1.258 . S
C155 O162 1.247 1_554 S
C155 O163 1.258 . S
O156 C154 1.247 1_554 S
O156 Zn157 2.028 . S
Zn157 O156 2.028 . S
Zn157 O161 2.035 . S
Zn157 O163 2.035 . S
Zn157 O164 2.028 . S
O158 C154 1.258 . S
O158 Zn159 2.035 . S
Zn159 O158 2.035 . S
Zn159 O160 2.028 . S
Zn159 O162 2.028 . S
Zn159 O165 2.035 . S
O160 Zn159 2.028 . S
O160 C166 1.247 1_556 S
O161 Zn157 2.035 . S
O161 C166 1.258 . S
O162 C155 1.247 1_556 S
O162 Zn159 2.028 . S
O163 C155 1.258 . S
O163 Zn157 2.035 . S
O164 Zn157 2.028 . S
O164 C167 1.247 1_554 S
O165 Zn159 2.035 . S
O165 C167 1.258 . S
C166 O160 1.247 1_554 S
C166 O161 1.258 . S
C167 O164 1.247 1_556 S
C167 O165 1.258 . S
O168 Zn169 1.953 . S
O168 C184 1.225 . S
Zn169 O168 1.953 . S
Zn169 O170 1.949 . S
Zn169 O176 1.919 . S
Zn169 O181 1.924 1_545 S
O170 Zn169 1.949 . S
O170 Zn171 1.923 . S
O170 Zn172 1.950 . S
O170 Zn173 1.945 . S
Zn171 O170 1.923 . S
Zn171 O174 1.933 1_455 S
Zn171 O177 1.941 . S
Zn171 O178 1.965 . S
Zn172 O170 1.950 . S
Zn172 O179 1.938 . S
Zn172 O180 1.906 1_554 S
Zn172 O190 1.953 . S
Zn173 O170 1.945 . S
Zn173 O175 1.932 1_455 S
Zn173 O182 1.977 1_544 S
Zn173 O183 1.910 1_545 S
O174 Zn171 1.933 1_655 S
O174 C185 1.226 . S
O175 Zn173 1.932 1_655 S
O175 C185 1.307 . S
O176 Zn169 1.919 . S
O176 C187 1.253 . S
O177 Zn171 1.941 . S
O177 C187 1.283 . S
O178 Zn171 1.965 . S
O178 C186 1.303 . S
O179 Zn172 1.938 . S
O179 C186 1.247 . S
O180 Zn172 1.906 1_556 S
O180 C188 1.304 . S
O181 Zn169 1.924 1_565 S
O181 C189 1.311 . S
O182 Zn173 1.977 1_566 S
O182 C188 1.272 1_565 S
O183 Zn173 1.910 1_565 S
O183 C189 1.231 . S
C184 O168 1.225 . S
C184 O190 1.298 . S
C185 O174 1.226 . S
C185 O175 1.307 . S
C186 O178 1.303 . S
C186 O179 1.247 . S
C187 O176 1.253 . S
C187 O177 1.283 . S
C188 O180 1.304 . S
C188 O182 1.272 1_545 S
C189 O181 1.311 . S
C189 O183 1.231 . S
O190 Zn172 1.953 . S
O190 C184 1.298 . S
O191 Zn192 1.953 . S
O191 C207 1.225 . S
Zn192 O191 1.953 . S
Zn192 O193 1.949 . S
Zn192 O199 1.919 . S
Zn192 O204 1.924 . S
O193 Zn192 1.949 . S
O193 Zn194 1.923 . S
O193 Zn195 1.950 . S
O193 Zn196 1.945 1_655 S
Zn194 O193 1.923 . S
Zn194 O197 1.933 1_655 S
Zn194 O200 1.941 . S
Zn194 O201 1.965 . S
Zn195 O193 1.950 . S
Zn195 O202 1.938 . S
Zn195 O203 1.906 1_554 S
Zn195 O213 1.953 . S
Zn196 O193 1.945 1_455 S
Zn196 O198 1.932 . S
Zn196 O205 1.977 1_454 S
Zn196 O206 1.910 . S
O197 Zn194 1.933 1_455 S
O197 C208 1.226 . S
O198 Zn196 1.932 . S
O198 C208 1.307 . S
O199 Zn192 1.919 . S
O199 C210 1.253 . S
O200 Zn194 1.941 . S
O200 C210 1.283 . S
O201 Zn194 1.965 . S
O201 C209 1.303 . S
O202 Zn195 1.938 . S
O202 C209 1.247 . S
O203 Zn195 1.906 1_556 S
O203 C211 1.304 . S
O204 Zn192 1.924 . S
O204 C212 1.311 1_655 S
O205 Zn196 1.977 1_656 S
O205 C211 1.272 . S
O206 Zn196 1.910 . S
O206 C212 1.231 . S
C207 O191 1.225 . S
C207 O213 1.298 . S
C208 O197 1.226 . S
C208 O198 1.307 . S
C209 O201 1.303 . S
C209 O202 1.247 . S
C210 O199 1.253 . S
C210 O200 1.283 . S
C211 O203 1.304 . S
C211 O205 1.272 . S
C212 O204 1.311 1_455 S
C212 O206 1.231 . S
O213 Zn195 1.953 . S
O213 C207 1.298 . S
O214 Zn215 1.953 . S
O214 C230 1.225 . S
Zn215 O214 1.953 . S
Zn215 O216 1.949 . S
Zn215 O222 1.919 . S
Zn215 O227 1.924 . S
O216 Zn215 1.949 . S
O216 Zn217 1.923 . S
O216 Zn218 1.950 . S
O216 Zn219 1.945 . S
Zn217 O216 1.923 . S
Zn217 O220 1.933 1_565 S
Zn217 O223 1.941 . S
Zn217 O224 1.965 . S
Zn218 O216 1.950 . S
Zn218 O225 1.938 . S
Zn218 O226 1.906 1_455 S
Zn218 O236 1.953 . S
Zn219 O216 1.945 . S
Zn219 O221 1.932 1_565 S
Zn219 O228 1.977 1_455 S
Zn219 O229 1.907 1_565 S
O220 Zn217 1.933 1_545 S
O220 C231 1.226 . S
O221 Zn219 1.932 1_545 S
O221 C231 1.307 . S
O222 Zn215 1.919 . S
O222 C233 1.253 . S
O223 Zn217 1.941 . S
O223 C233 1.283 . S
O224 Zn217 1.965 . S
O224 C232 1.303 . S
O225 Zn218 1.938 . S
O225 C232 1.247 . S
O226 Zn218 1.906 1_655 S
O226 C234 1.304 . S
O227 Zn215 1.924 . S
O227 C235 1.311 . S
O228 Zn219 1.977 1_655 S
O228 C234 1.272 . S
O229 Zn219 1.907 1_545 S
O229 C235 1.223 1_545 S
C230 O214 1.225 . S
C230 O236 1.298 . S
C231 O220 1.226 . S
C231 O221 1.307 . S
C232 O224 1.303 . S
C232 O225 1.247 . S
C233 O222 1.253 . S
C233 O223 1.283 . S
C234 O226 1.304 . S
C234 O228 1.272 . S
C235 O227 1.311 . S
C235 O229 1.223 1_565 S
O236 Zn218 1.953 . S
O236 C230 1.298 . S
O237 Zn238 1.953 . S
O237 C253 1.225 . S
Zn238 O237 1.953 . S
Zn238 O239 1.949 . S
Zn238 O245 1.919 . S
Zn238 O250 1.924 1_655 S
O239 Zn238 1.949 . S
O239 Zn240 1.923 . S
O239 Zn241 1.950 . S
O239 Zn242 1.945 . S
Zn240 O239 1.923 . S
Zn240 O243 1.933 . S
Zn240 O246 1.941 . S
Zn240 O247 1.965 . S
Zn241 O239 1.950 . S
Zn241 O248 1.938 . S
Zn241 O249 1.906 . S
Zn241 O259 1.953 . S
Zn242 O239 1.945 . S
Zn242 O244 1.932 . S
Zn242 O251 1.977 1_655 S
Zn242 O252 1.910 1_655 S
O243 Zn240 1.933 . S
O243 C254 1.226 . S
O244 Zn242 1.932 . S
O244 C254 1.307 . S
O245 Zn238 1.919 . S
O245 C256 1.253 . S
O246 Zn240 1.941 . S
O246 C256 1.283 . S
O247 Zn240 1.965 . S
O247 C255 1.303 . S
O248 Zn241 1.938 . S
O248 C255 1.247 . S
O249 Zn241 1.906 . S
O249 C257 1.304 1_655 S
O250 Zn238 1.924 1_455 S
O250 C258 1.311 . S
O251 Zn242 1.977 1_455 S
O251 C257 1.272 . S
O252 Zn242 1.910 1_455 S
O252 C258 1.231 . S
C253 O237 1.225 . S
C253 O259 1.298 . S
C254 O243 1.226 . S
C254 O244 1.307 . S
C255 O247 1.303 . S
C255 O248 1.247 . S
C256 O245 1.253 . S
C256 O246 1.283 . S
C257 O249 1.304 1_455 S
C257 O251 1.272 . S
C258 O250 1.311 . S
C258 O252 1.231 . S
O259 Zn241 1.953 . S
O259 C253 1.298 . S
O260 Zn261 1.953 . S
O260 C276 1.225 . S
Zn261 O260 1.953 . S
Zn261 O262 1.949 . S
Zn261 O268 1.919 . S
Zn261 O273 1.924 1_565 S
O262 Zn261 1.949 . S
O262 Zn263 1.923 . S
O262 Zn264 1.950 . S
O262 Zn265 1.945 . S
Zn263 O262 1.923 . S
Zn263 O266 1.933 . S
Zn263 O269 1.941 . S
Zn263 O270 1.965 . S
Zn264 O262 1.950 . S
Zn264 O271 1.938 . S
Zn264 O272 1.906 . S
Zn264 O282 1.953 . S
Zn265 O262 1.945 . S
Zn265 O267 1.932 . S
Zn265 O274 1.987 . S
Zn265 O275 1.910 1_565 S
O266 Zn263 1.933 . S
O266 C277 1.226 . S
O267 Zn265 1.932 . S
O267 C277 1.307 . S
O268 Zn261 1.919 . S
O268 C279 1.253 . S
O269 Zn263 1.941 . S
O269 C279 1.283 . S
O270 Zn263 1.965 . S
O270 C278 1.303 . S
O271 Zn264 1.938 . S
O271 C278 1.247 . S
O272 Zn264 1.906 . S
O272 C280 1.304 . S
O273 Zn261 1.924 1_545 S
O273 C281 1.311 . S
O274 Zn265 1.987 . S
O274 C280 1.279 . S
O275 Zn265 1.910 1_545 S
O275 C281 1.231 . S
C276 O260 1.225 . S
C276 O282 1.298 . S
C277 O266 1.226 . S
C277 O267 1.307 . S
C278 O270 1.303 . S
C278 O271 1.247 . S
C279 O268 1.253 . S
C279 O269 1.283 . S
C280 O272 1.304 . S
C280 O274 1.279 . S
C281 O273 1.311 . S
C281 O275 1.231 . S
O282 Zn264 1.953 . S
O282 C276 1.298 . S
O283 Zn284 1.953 . S
O283 C299 1.225 . S
Zn284 O283 1.953 . S
Zn284 O285 1.949 . S
Zn284 O291 1.919 . S
Zn284 O296 1.924 . S
O285 Zn284 1.949 . S
O285 Zn286 1.923 . S
O285 Zn287 1.950 . S
O285 Zn288 1.945 . S
Zn286 O285 1.923 . S
Zn286 O289 1.933 . S
Zn286 O292 1.941 . S
Zn286 O293 1.965 . S
Zn287 O285 1.950 . S
Zn287 O294 1.938 . S
Zn287 O295 1.906 . S
Zn287 O305 1.953 . S
Zn288 O285 1.945 . S
Zn288 O290 1.932 . S
Zn288 O297 1.977 . S
Zn288 O298 1.910 . S
O289 Zn286 1.933 . S
O289 C300 1.226 . S
O290 Zn288 1.932 . S
O290 C300 1.307 . S
O291 Zn284 1.919 . S
O291 C302 1.253 . S
O292 Zn286 1.941 . S
O292 C302 1.283 . S
O293 Zn286 1.965 . S
O293 C301 1.303 . S
O294 Zn287 1.938 . S
O294 C301 1.247 . S
O295 Zn287 1.906 . S
O295 C303 1.304 . S
O296 Zn284 1.924 . S
O296 C304 1.311 . S
O297 Zn288 1.977 . S
O297 C303 1.272 . S
O298 Zn288 1.910 . S
O298 C304 1.231 . S
C299 O283 1.225 . S
C299 O305 1.298 . S
C300 O289 1.226 . S
C300 O290 1.307 . S
C301 O293 1.303 . S
C301 O294 1.247 . S
C302 O291 1.253 . S
C302 O292 1.283 . S
C303 O295 1.304 . S
C303 O297 1.272 . S
C304 O296 1.311 . S
C304 O298 1.231 . S
O305 Zn287 1.953 . S
O305 C299 1.298 . S
O306 Zn307 1.953 . S
O306 C322 1.225 . S
Zn307 O306 1.953 . S
Zn307 O308 1.949 . S
Zn307 O314 1.919 . S
Zn307 O319 1.924 1_556 S
O308 Zn307 1.949 . S
O308 Zn309 1.923 . S
O308 Zn310 1.950 . S
O308 Zn311 1.945 . S
Zn309 O308 1.923 . S
Zn309 O312 1.933 . S
Zn309 O315 1.941 . S
Zn309 O316 1.965 . S
Zn310 O308 1.950 . S
Zn310 O317 1.938 . S
Zn310 O318 1.906 . S
Zn310 O328 1.953 . S
Zn311 O308 1.945 . S
Zn311 O313 1.932 . S
Zn311 O320 1.971 1_556 S
Zn311 O321 1.910 1_556 S
O312 Zn309 1.933 . S
O312 C323 1.226 . S
O313 Zn311 1.932 . S
O313 C323 1.307 . S
O314 Zn307 1.919 . S
O314 C325 1.253 . S
O315 Zn309 1.941 . S
O315 C325 1.283 . S
O316 Zn309 1.965 . S
O316 C324 1.303 . S
O317 Zn310 1.938 . S
O317 C324 1.247 . S
O318 Zn310 1.906 . S
O318 C326 1.304 . S
O319 Zn307 1.924 1_554 S
O319 C327 1.311 . S
O320 Zn311 1.971 1_554 S
O320 C326 1.267 1_554 S
O321 Zn311 1.910 1_554 S
O321 C327 1.231 . S
C322 O306 1.225 . S
C322 O328 1.298 . S
C323 O312 1.226 . S
C323 O313 1.307 . S
C324 O316 1.303 . S
C324 O317 1.247 . S
C325 O314 1.253 . S
C325 O315 1.283 . S
C326 O318 1.304 . S
C326 O320 1.267 1_556 S
C327 O319 1.311 . S
C327 O321 1.231 . S
O328 Zn310 1.953 . S
O328 C322 1.298 . S
O329 Zn330 1.953 . S
O329 C345 1.225 . S
Zn330 O329 1.953 . S
Zn330 O331 1.949 . S
Zn330 O337 1.919 . S
Zn330 O342 1.924 . S
O331 Zn330 1.949 . S
O331 Zn332 1.923 . S
O331 Zn333 1.950 . S
O331 Zn334 1.945 . S
Zn332 O331 1.923 . S
Zn332 O335 1.933 1_556 S
Zn332 O338 1.941 . S
Zn332 O339 1.965 . S
Zn333 O331 1.950 . S
Zn333 O340 1.938 . S
Zn333 O341 1.906 1_545 S
Zn333 O351 1.953 . S
Zn334 O331 1.945 . S
Zn334 O336 1.932 1_556 S
Zn334 O343 1.977 1_545 S
Zn334 O344 1.910 . S
O335 Zn332 1.933 1_554 S
O335 C346 1.226 . S
O336 Zn334 1.932 1_554 S
O336 C346 1.307 . S
O337 Zn330 1.919 . S
O337 C348 1.253 . S
O338 Zn332 1.941 . S
O338 C348 1.283 . S
O339 Zn332 1.965 . S
O339 C347 1.303 . S
O340 Zn333 1.938 . S
O340 C347 1.247 . S
O341 Zn333 1.906 1_565 S
O341 C349 1.304 . S
O342 Zn330 1.924 . S
O342 C350 1.311 . S
O343 Zn334 1.977 1_565 S
O343 C349 1.272 . S
O344 Zn334 1.910 . S
O344 C350 1.231 . S
C345 O329 1.225 . S
C345 O351 1.298 . S
C346 O335 1.226 . S
C346 O336 1.307 . S
C347 O339 1.303 . S
C347 O340 1.247 . S
C348 O337 1.253 . S
C348 O338 1.283 . S
C349 O341 1.304 . S
C349 O343 1.272 . S
C350 O342 1.311 . S
C350 O344 1.231 . S
O351 Zn333 1.953 . S
O351 C345 1.298 . S
C352 C353 1.369 1_655 S
C352 C354 1.419 . S
C352 H356 0.930 . S
C353 C352 1.369 1_455 S
C353 C362 1.429 . S
C354 C352 1.419 . S
C354 C355 1.363 1_655 S
C354 H357 0.929 . S
C355 C354 1.363 1_455 S
C355 C361 1.428 . S
H356 C352 0.930 . S
H357 C354 0.929 . S
S358 N359 1.613 . S
S358 N360 1.610 . S
N359 S358 1.613 . S
N359 C362 1.350 . S
N360 S358 1.610 . S
N360 C361 1.351 . S
C361 C355 1.428 . S
C361 N360 1.351 . S
C361 C362 1.434 . S
C362 C353 1.429 . S
C362 N359 1.350 . S
C362 C361 1.434 . S
C363 C364 1.369 1_455 S
C363 C365 1.419 . S
C363 H367 0.930 . S
C364 C363 1.369 1_655 S
C364 C373 1.429 . S
C365 C363 1.419 . S
C365 C366 1.356 1_455 S
C365 H368 0.929 . S
C366 C365 1.356 1_655 S
C366 C372 1.438 . S
H367 C363 0.930 . S
H368 C365 0.929 . S
S369 N370 1.613 . S
S369 N371 1.610 . S
N370 S369 1.613 . S
N370 C373 1.350 . S
N371 S369 1.610 . S
N371 C372 1.351 . S
C372 C366 1.438 . S
C372 N371 1.351 . S
C372 C373 1.434 . S
C373 C364 1.429 . S
C373 N370 1.350 . S
C373 C372 1.434 . S
C374 C375 1.369 . S
C374 C376 1.419 . S
C374 H378 0.930 . S
C375 C374 1.369 . S
C375 C384 1.429 . S
C376 C374 1.419 . S
C376 C377 1.363 . S
C376 H379 0.929 . S
C377 C376 1.363 . S
C377 C383 1.428 . S
H378 C374 0.930 . S
H379 C376 0.929 . S
S380 N381 1.613 . S
S380 N382 1.610 . S
N381 S380 1.613 . S
N381 C384 1.350 . S
N382 S380 1.610 . S
N382 C383 1.351 . S
C383 C377 1.428 . S
C383 N382 1.351 . S
C383 C384 1.434 . S
C384 C375 1.429 . S
C384 N381 1.350 . S
C384 C383 1.434 . S
C385 C386 1.369 . S
C385 C387 1.419 . S
C385 H389 0.930 . S
C386 C385 1.369 . S
C386 C395 1.429 . S
C387 C385 1.419 . S
C387 C388 1.363 . S
C387 H390 0.929 . S
C388 C387 1.363 . S
C388 C394 1.428 . S
H389 C385 0.930 . S
H390 C387 0.929 . S
S391 N392 1.616 . S
S391 N393 1.610 . S
N392 S391 1.616 . S
N392 C395 1.347 1_655 S
N393 S391 1.610 . S
N393 C394 1.351 1_655 S
C394 C388 1.428 . S
C394 N393 1.351 1_455 S
C394 C395 1.434 . S
C395 C386 1.429 . S
C395 N392 1.347 1_455 S
C395 C394 1.434 . S
C396 C397 1.369 1_565 S
C396 C398 1.419 . S
C396 H400 0.930 . S
C397 C396 1.369 1_545 S
C397 C406 1.429 . S
C398 C396 1.419 . S
C398 C399 1.363 1_565 S
C398 H401 0.929 . S
C399 C398 1.363 1_545 S
C399 C405 1.428 . S
H400 C396 0.930 . S
H401 C398 0.929 . S
S402 N403 1.613 . S
S402 N404 1.610 . S
N403 S402 1.613 . S
N403 C406 1.350 . S
N404 S402 1.610 . S
N404 C405 1.351 . S
C405 C399 1.428 . S
C405 N404 1.351 . S
C405 C406 1.434 . S
C406 C397 1.429 . S
C406 N403 1.350 . S
C406 C405 1.434 . S
C407 C408 1.369 . S
C407 C409 1.419 . S
C407 H411 0.930 . S
C408 C407 1.369 . S
C408 C417 1.429 . S
C409 C407 1.419 . S
C409 C410 1.363 . S
C409 H412 0.929 . S
C410 C409 1.363 . S
C410 C416 1.428 . S
H411 C407 0.930 . S
H412 C409 0.929 . S
S413 N414 1.613 . S
S413 N415 1.610 . S
N414 S413 1.613 . S
N414 C417 1.350 . S
N415 S413 1.610 . S
N415 C416 1.351 . S
C416 C410 1.428 . S
C416 N415 1.351 . S
C416 C417 1.434 . S
C417 C408 1.429 . S
C417 N414 1.350 . S
C417 C416 1.434 . S
C418 C419 1.369 . S
C418 C420 1.419 . S
C418 H422 0.930 . S
C419 C418 1.369 . S
C419 C428 1.429 1_565 S
C420 C418 1.419 . S
C420 C421 1.363 . S
C420 H423 0.929 . S
C421 C420 1.363 . S
C421 C427 1.428 1_565 S
H422 C418 0.930 . S
H423 C420 0.929 . S
S424 N425 1.613 . S
S424 N426 1.610 . S
N425 S424 1.613 . S
N425 C428 1.350 . S
N426 S424 1.610 . S
N426 C427 1.351 . S
C427 C421 1.428 1_545 S
C427 N426 1.351 . S
C427 C428 1.434 . S
C428 C419 1.429 1_545 S
C428 N425 1.350 . S
C428 C427 1.434 . S
C429 C430 1.369 . S
C429 C431 1.419 . S
C429 H433 0.930 . S
C430 C429 1.369 . S
C430 C439 1.429 . S
C431 C429 1.419 . S
C431 C432 1.363 . S
C431 H434 0.929 . S
C432 C431 1.363 . S
C432 C438 1.428 . S
H433 C429 0.930 . S
H434 C431 0.929 . S
S435 N436 1.613 . S
S435 N437 1.610 . S
N436 S435 1.613 . S
N436 C439 1.350 . S
N437 S435 1.610 . S
N437 C438 1.351 . S
C438 C432 1.428 . S
C438 N437 1.351 . S
C438 C439 1.434 . S
C439 C430 1.429 . S
C439 N436 1.350 . S
C439 C438 1.434 . S
C440 C441 1.369 . S
C440 C442 1.419 . S
C440 H444 0.930 . S
C441 C440 1.369 . S
C441 C450 1.429 . S
C442 C440 1.419 . S
C442 C443 1.363 . S
C442 H445 0.929 . S
C443 C442 1.363 . S
C443 C449 1.429 1_554 S
H444 C440 0.930 . S
H445 C442 0.929 . S
S446 N447 1.617 . S
S446 N448 1.610 . S
N447 S446 1.617 . S
N447 C450 1.347 1_556 S
N448 S446 1.610 . S
N448 C449 1.350 . S
C449 C443 1.429 1_556 S
C449 N448 1.350 . S
C449 C450 1.435 1_556 S
C450 C441 1.429 . S
C450 N447 1.347 1_554 S
C450 C449 1.435 1_554 S
C451 C452 1.369 . S
C451 C453 1.419 . S
C451 H455 0.930 . S
C452 C451 1.369 . S
C452 C461 1.429 . S
C453 C451 1.419 . S
C453 C454 1.363 . S
C453 H456 0.929 . S
C454 C453 1.363 . S
C454 C460 1.428 . S
H455 C451 0.930 . S
H456 C453 0.929 . S
S457 N458 1.613 . S
S457 N459 1.610 . S
N458 S457 1.613 . S
N458 C461 1.350 . S
N459 S457 1.610 . S
N459 C460 1.351 . S
C460 C454 1.428 . S
C460 N459 1.351 . S
C460 C461 1.434 . S
C461 C452 1.429 . S
C461 N458 1.350 . S
C461 C460 1.434 . S
C462 C463 1.369 . S
C462 C464 1.419 . S
C462 H466 0.930 . S
C463 C462 1.369 . S
C463 C472 1.429 . S
C464 C462 1.419 . S
C464 C465 1.363 . S
C464 H467 0.929 . S
C465 C464 1.363 . S
C465 C471 1.428 . S
H466 C462 0.930 . S
H467 C464 0.929 . S
S468 N469 1.613 . S
S468 N470 1.610 . S
N469 S468 1.613 . S
N469 C472 1.350 . S
N470 S468 1.610 . S
N470 C471 1.351 . S
C471 C465 1.428 . S
C471 N470 1.351 . S
C471 C472 1.434 . S
C472 C463 1.429 . S
C472 N469 1.350 . S
C472 C471 1.434 . S
C473 C474 1.369 . S
C473 C475 1.419 . S
C473 H477 0.930 . S
C474 C473 1.369 . S
C474 C483 1.429 . S
C475 C473 1.419 . S
C475 C476 1.363 . S
C475 H478 0.929 . S
C476 C475 1.363 . S
C476 C482 1.428 . S
H477 C473 0.930 . S
H478 C475 0.929 . S
S479 N480 1.613 . S
S479 N481 1.610 . S
N480 S479 1.613 . S
N480 C483 1.350 . S
N481 S479 1.610 . S
N481 C482 1.351 . S
C482 C476 1.428 . S
C482 N481 1.351 . S
C482 C483 1.434 . S
C483 C474 1.429 . S
C483 N480 1.350 . S
C483 C482 1.434 . S
C484 C485 1.369 . S
C484 C486 1.419 . S
C484 H488 0.930 . S
C485 C484 1.369 . S
C485 C494 1.429 . S
C486 C484 1.419 . S
C486 C487 1.363 . S
C486 H489 0.929 . S
C487 C486 1.363 . S
C487 C493 1.428 . S
H488 C484 0.930 . S
H489 C486 0.929 . S
S490 N491 1.613 . S
S490 N492 1.610 . S
N491 S490 1.613 . S
N491 C494 1.350 . S
N492 S490 1.610 . S
N492 C493 1.351 . S
C493 C487 1.428 . S
C493 N492 1.351 . S
C493 C494 1.434 . S
C494 C485 1.429 . S
C494 N491 1.350 . S
C494 C493 1.434 . S
C495 C496 1.369 . S
C495 C497 1.419 . S
C495 H499 0.930 . S
C496 C495 1.369 . S
C496 C505 1.429 . S
C497 C495 1.419 . S
C497 C498 1.363 . S
C497 H500 0.929 . S
C498 C497 1.363 . S
C498 C504 1.428 . S
H499 C495 0.930 . S
H500 C497 0.929 . S
S501 N502 1.613 . S
S501 N503 1.610 . S
N502 S501 1.613 . S
N502 C505 1.350 . S
N503 S501 1.610 . S
N503 C504 1.351 . S
C504 C498 1.428 . S
C504 N503 1.351 . S
C504 C505 1.434 . S
C505 C496 1.429 . S
C505 N502 1.350 . S
C505 C504 1.434 . S
C506 C507 1.369 . S
C506 C508 1.419 . S
C506 H510 0.930 . S
C507 C506 1.369 . S
C507 C516 1.429 . S
C508 C506 1.419 . S
C508 C509 1.363 . S
C508 H511 0.929 . S
C509 C508 1.363 . S
C509 C515 1.428 . S
H510 C506 0.930 . S
H511 C508 0.929 . S
S512 N513 1.613 . S
S512 N514 1.610 . S
N513 S512 1.613 . S
N513 C516 1.350 . S
N514 S512 1.610 . S
N514 C515 1.351 . S
C515 C509 1.428 . S
C515 N514 1.351 . S
C515 C516 1.434 . S
C516 C507 1.429 . S
C516 N513 1.350 . S
C516 C515 1.434 . S
C517 C518 1.369 . S
C517 C519 1.419 . S
C517 H521 0.930 . S
C518 C517 1.369 . S
C518 C527 1.429 . S
C519 C517 1.419 . S
C519 C520 1.363 . S
C519 H522 0.929 . S
C520 C519 1.363 . S
C520 C526 1.428 . S
H521 C517 0.930 . S
H522 C519 0.929 . S
S523 N524 1.613 . S
S523 N525 1.610 . S
N524 S523 1.613 . S
N524 C527 1.350 . S
N525 S523 1.610 . S
N525 C526 1.351 . S
C526 C520 1.428 . S
C526 N525 1.351 . S
C526 C527 1.434 . S
C527 C518 1.429 . S
C527 N524 1.350 . S
C527 C526 1.434 . S
C528 C529 1.369 . S
C528 C530 1.419 . S
C528 H532 0.930 . S
C529 C528 1.369 . S
C529 C538 1.429 . S
C530 C528 1.419 . S
C530 C531 1.363 . S
C530 H533 0.929 . S
C531 C530 1.363 . S
C531 C537 1.428 . S
H532 C528 0.930 . S
H533 C530 0.929 . S
S534 N535 1.613 . S
S534 N536 1.610 . S
N535 S534 1.613 . S
N535 C538 1.350 . S
N536 S534 1.610 . S
N536 C537 1.351 . S
C537 C531 1.428 . S
C537 N536 1.351 . S
C537 C538 1.434 . S
C538 C529 1.429 . S
C538 N535 1.350 . S
C538 C537 1.434 . S
C539 C540 1.380 . S
C539 C541 1.419 . S
C539 H543 0.930 . S
C540 C539 1.380 . S
C540 C549 1.418 1_565 S
C541 C539 1.419 . S
C541 C542 1.363 . S
C541 H544 0.929 . S
C542 C541 1.363 . S
C542 C548 1.428 1_565 S
H543 C539 0.930 . S
H544 C541 0.929 . S
S545 N546 1.613 . S
S545 N547 1.610 . S
N546 S545 1.613 . S
N546 C549 1.350 . S
N547 S545 1.610 . S
N547 C548 1.351 . S
C548 C542 1.428 1_545 S
C548 N547 1.351 . S
C548 C549 1.434 . S
C549 C540 1.418 1_545 S
C549 N546 1.350 . S
C549 C548 1.434 . S
C550 C551 1.369 . S
C550 C552 1.419 . S
C550 H554 0.930 . S
C551 C550 1.369 . S
C551 C560 1.429 . S
C552 C550 1.419 . S
C552 C553 1.363 . S
C552 H555 0.929 . S
C553 C552 1.363 . S
C553 C559 1.428 . S
H554 C550 0.930 . S
H555 C552 0.929 . S
S556 N557 1.613 . S
S556 N558 1.610 . S
N557 S556 1.613 . S
N557 C560 1.350 . S
N558 S556 1.610 . S
N558 C559 1.351 . S
C559 C553 1.428 . S
C559 N558 1.351 . S
C559 C560 1.434 . S
C560 C551 1.429 . S
C560 N557 1.350 . S
C560 C559 1.434 . S
C561 C562 1.369 1_565 S
C561 C563 1.419 . S
C561 H565 0.930 . S
C562 C561 1.369 1_545 S
C562 C571 1.429 . S
C563 C561 1.419 . S
C563 C564 1.363 1_565 S
C563 H566 0.929 . S
C564 C563 1.363 1_545 S
C564 C570 1.428 . S
H565 C561 0.930 . S
H566 C563 0.929 . S
S567 N568 1.613 . S
S567 N569 1.610 . S
N568 S567 1.613 . S
N568 C571 1.350 . S
N569 S567 1.610 . S
N569 C570 1.351 . S
C570 C564 1.428 . S
C570 N569 1.351 . S
C570 C571 1.434 . S
C571 C562 1.429 . S
C571 N568 1.350 . S
C571 C570 1.434 . S
C572 C573 1.369 . S
C572 C574 1.419 . S
C572 H576 0.930 . S
C573 C572 1.369 . S
C573 C582 1.429 . S
C574 C572 1.419 . S
C574 C575 1.363 . S
C574 H577 0.929 . S
C575 C574 1.363 . S
C575 C581 1.428 . S
H576 C572 0.930 . S
H577 C574 0.929 . S
S578 N579 1.613 . S
S578 N580 1.610 . S
N579 S578 1.613 . S
N579 C582 1.350 . S
N580 S578 1.610 . S
N580 C581 1.351 . S
C581 C575 1.428 . S
C581 N580 1.351 . S
C581 C582 1.434 . S
C582 C573 1.429 . S
C582 N579 1.350 . S
C582 C581 1.434 . S
C583 C584 1.369 . S
C583 C585 1.419 . S
C583 H587 0.930 . S
C584 C583 1.369 . S
C584 C593 1.429 1_556 S
C585 C583 1.419 . S
C585 C586 1.363 . S
C585 H588 0.929 . S
C586 C585 1.363 . S
C586 C592 1.428 1_556 S
H587 C583 0.930 . S
H588 C585 0.929 . S
S589 N590 1.613 . S
S589 N591 1.610 . S
N590 S589 1.613 . S
N590 C593 1.350 . S
N591 S589 1.610 . S
N591 C592 1.351 . S
C592 C586 1.428 1_554 S
C592 N591 1.351 . S
C592 C593 1.434 . S
C593 C584 1.429 1_554 S
C593 N590 1.350 . S
C593 C592 1.434 . S
C594 C595 1.384 . S
C594 C596 1.419 . S
C594 H598 0.930 . S
C595 C594 1.384 . S
C595 C604 1.412 1_554 S
C596 C594 1.419 . S
C596 C597 1.363 1_554 S
C596 H599 0.929 . S
C597 C596 1.363 1_556 S
C597 C603 1.428 . S
H598 C594 0.930 . S
H599 C596 0.929 . S
S600 N601 1.613 . S
S600 N602 1.610 . S
N601 S600 1.613 . S
N601 C604 1.350 . S
N602 S600 1.610 . S
N602 C603 1.351 . S
C603 C597 1.428 . S
C603 N602 1.351 . S
C603 C604 1.434 . S
C604 C595 1.412 1_556 S
C604 N601 1.350 . S
C604 C603 1.434 . S
C605 C606 1.369 . S
C605 C607 1.419 . S
C605 H609 0.930 . S
C606 C605 1.369 . S
C606 C615 1.429 1_554 S
C607 C605 1.419 . S
C607 C608 1.363 . S
C607 H610 0.929 . S
C608 C607 1.363 . S
C608 C614 1.428 1_554 S
H609 C605 0.930 . S
H610 C607 0.929 . S
S611 N612 1.613 . S
S611 N613 1.610 . S
N612 S611 1.613 . S
N612 C615 1.350 . S
N613 S611 1.610 . S
N613 C614 1.351 . S
C614 C608 1.428 1_556 S
C614 N613 1.351 . S
C614 C615 1.434 . S
C615 C606 1.429 1_556 S
C615 N612 1.350 . S
C615 C614 1.434 . S
C616 C617 1.369 1_655 S
C616 C618 1.419 . S
C616 H620 0.930 . S
C617 C616 1.369 1_455 S
C617 C626 1.429 . S
C618 C616 1.419 . S
C618 C619 1.363 1_655 S
C618 H621 0.929 . S
C619 C618 1.363 1_455 S
C619 C625 1.428 . S
H620 C616 0.930 . S
H621 C618 0.929 . S
S622 N623 1.613 . S
S622 N624 1.610 . S
N623 S622 1.613 . S
N623 C626 1.350 . S
N624 S622 1.610 . S
N624 C625 1.351 . S
C625 C619 1.428 . S
C625 N624 1.351 . S
C625 C626 1.434 . S
C626 C617 1.429 . S
C626 N623 1.350 . S
C626 C625 1.434 . S
C627 C628 1.369 1_455 S
C627 C629 1.419 . S
C627 H631 0.930 . S
C628 C627 1.369 1_655 S
C628 C637 1.429 . S
C629 C627 1.419 . S
C629 C630 1.363 . S
C629 H632 0.929 . S
C630 C629 1.363 . S
C630 C636 1.428 1_455 S
H631 C627 0.930 . S
H632 C629 0.929 . S
S633 N634 1.613 . S
S633 N635 1.610 . S
N634 S633 1.613 . S
N634 C637 1.350 . S
N635 S633 1.610 . S
N635 C636 1.351 . S
C636 C630 1.428 1_655 S
C636 N635 1.351 . S
C636 C637 1.434 . S
C637 C628 1.429 . S
C637 N634 1.350 . S
C637 C636 1.434 . S
C638 C639 1.369 . S
C638 C640 1.419 . S
C638 H642 0.930 . S
C639 C638 1.369 . S
C639 C648 1.429 . S
C640 C638 1.419 . S
C640 C641 1.363 . S
C640 H643 0.929 . S
C641 C640 1.363 . S
C641 C647 1.428 . S
H642 C638 0.930 . S
H643 C640 0.929 . S
S644 N645 1.613 1_655 S
S644 N646 1.610 1_655 S
N645 S644 1.613 1_455 S
N645 C648 1.350 . S
N646 S644 1.610 1_455 S
N646 C647 1.351 . S
C647 C641 1.428 . S
C647 N646 1.351 . S
C647 C648 1.434 . S
C648 C639 1.429 . S
C648 N645 1.350 . S
C648 C647 1.434 . S
C649 C650 1.369 1_655 S
C649 C651 1.419 . S
C649 H653 0.930 . S
C650 C649 1.369 1_455 S
C650 C659 1.429 . S
C651 C649 1.419 . S
C651 C652 1.363 1_655 S
C651 H654 0.929 . S
C652 C651 1.363 1_455 S
C652 C658 1.428 . S
H653 C649 0.930 . S
H654 C651 0.929 . S
S655 N656 1.613 . S
S655 N657 1.610 . S
N656 S655 1.613 . S
N656 C659 1.350 . S
N657 S655 1.610 . S
N657 C658 1.351 . S
C658 C652 1.428 . S
C658 N657 1.351 . S
C658 C659 1.434 . S
C659 C650 1.429 . S
C659 N656 1.350 . S
C659 C658 1.434 . S
C660 C661 1.369 . S
C660 C662 1.419 . S
C660 H664 0.930 . S
C661 C660 1.369 . S
C661 C670 1.429 1_545 S
C662 C660 1.419 . S
C662 C663 1.363 . S
C662 H665 0.929 . S
C663 C662 1.363 . S
C663 C669 1.428 1_545 S
H664 C660 0.930 . S
H665 C662 0.929 . S
S666 N667 1.613 . S
S666 N668 1.610 . S
N667 S666 1.613 . S
N667 C670 1.350 . S
N668 S666 1.610 . S
N668 C669 1.351 . S
C669 C663 1.428 1_565 S
C669 N668 1.351 . S
C669 C670 1.434 . S
C670 C661 1.429 1_565 S
C670 N667 1.350 . S
C670 C669 1.434 . S
C671 C672 1.369 . S
C671 C673 1.419 . S
C671 H675 0.930 . S
C672 C671 1.369 . S
C672 C681 1.429 . S
C673 C671 1.419 . S
C673 C674 1.363 . S
C673 H676 0.929 . S
C674 C673 1.363 . S
C674 C680 1.428 . S
H675 C671 0.930 . S
H676 C673 0.929 . S
S677 N678 1.613 . S
S677 N679 1.610 . S
N678 S677 1.613 . S
N678 C681 1.350 . S
N679 S677 1.610 . S
N679 C680 1.351 . S
C680 C674 1.428 . S
C680 N679 1.351 . S
C680 C681 1.434 . S
C681 C672 1.429 . S
C681 N678 1.350 . S
C681 C680 1.434 . S
C682 C683 1.369 1_545 S
C682 C684 1.419 . S
C682 H686 0.930 . S
C683 C682 1.369 1_565 S
C683 C692 1.429 . S
C684 C682 1.419 . S
C684 C685 1.363 1_545 S
C684 H687 0.929 . S
C685 C684 1.363 1_565 S
C685 C691 1.428 . S
H686 C682 0.930 . S
H687 C684 0.929 . S
S688 N689 1.613 . S
S688 N690 1.610 . S
N689 S688 1.613 . S
N689 C692 1.350 . S
N690 S688 1.610 . S
N690 C691 1.351 . S
C691 C685 1.428 . S
C691 N690 1.351 . S
C691 C692 1.434 . S
C692 C683 1.429 . S
C692 N689 1.350 . S
C692 C691 1.434 . S
C693 C694 1.369 . S
C693 C695 1.419 . S
C693 H697 0.930 . S
C694 C693 1.369 . S
C694 C703 1.429 . S
C695 C693 1.419 . S
C695 C696 1.363 . S
C695 H698 0.929 . S
C696 C695 1.363 . S
C696 C702 1.428 . S
H697 C693 0.930 . S
H698 C695 0.929 . S
S699 N700 1.613 . S
S699 N701 1.610 . S
N700 S699 1.613 . S
N700 C703 1.350 . S
N701 S699 1.610 . S
N701 C702 1.351 . S
C702 C696 1.428 . S
C702 N701 1.351 . S
C702 C703 1.434 . S
C703 C694 1.429 . S
C703 N700 1.350 . S
C703 C702 1.434 . S
C704 C705 1.369 . S
C704 C706 1.419 . S
C704 H708 0.930 . S
C705 C704 1.369 . S
C705 C714 1.429 . S
C706 C704 1.419 . S
C706 C707 1.363 . S
C706 H709 0.929 . S
C707 C706 1.363 . S
C707 C713 1.428 . S
H708 C704 0.930 . S
H709 C706 0.929 . S
S710 N711 1.613 . S
S710 N712 1.610 . S
N711 S710 1.613 . S
N711 C714 1.350 . S
N712 S710 1.610 . S
N712 C713 1.351 . S
C713 C707 1.428 . S
C713 N712 1.351 . S
C713 C714 1.434 . S
C714 C705 1.429 . S
C714 N711 1.350 . S
C714 C713 1.434 . S
C715 C716 1.369 . S
C715 C717 1.419 . S
C715 H719 0.930 . S
C716 C715 1.369 . S
C716 C725 1.429 . S
C717 C715 1.419 . S
C717 C718 1.363 . S
C717 H720 0.929 . S
C718 C717 1.363 . S
C718 C724 1.428 . S
H719 C715 0.930 . S
H720 C717 0.929 . S
S721 N722 1.613 . S
S721 N723 1.610 . S
N722 S721 1.613 . S
N722 C725 1.350 . S
N723 S721 1.610 . S
N723 C724 1.351 . S
C724 C718 1.428 . S
C724 N723 1.351 . S
C724 C725 1.434 . S
C725 C716 1.429 . S
C725 N722 1.350 . S
C725 C724 1.434 . S
C726 C727 1.369 . S
C726 C728 1.419 . S
C726 H730 0.930 . S
C727 C726 1.369 . S
C727 C736 1.429 . S
C728 C726 1.419 . S
C728 C729 1.363 . S
C728 H731 0.929 . S
C729 C728 1.363 . S
C729 C735 1.428 . S
H730 C726 0.930 . S
H731 C728 0.929 . S
S732 N733 1.613 . S
S732 N734 1.610 . S
N733 S732 1.613 . S
N733 C736 1.350 . S
N734 S732 1.610 . S
N734 C735 1.351 . S
C735 C729 1.428 . S
C735 N734 1.351 . S
C735 C736 1.434 . S
C736 C727 1.429 . S
C736 N733 1.350 . S
C736 C735 1.434 . S
C737 C738 1.369 . S
C737 C739 1.419 . S
C737 H741 0.930 . S
C738 C737 1.369 . S
C738 C747 1.429 . S
C739 C737 1.419 . S
C739 C740 1.363 . S
C739 H742 0.929 . S
C740 C739 1.363 . S
C740 C746 1.428 . S
H741 C737 0.930 . S
H742 C739 0.929 . S
S743 N744 1.613 . S
S743 N745 1.610 . S
N744 S743 1.613 . S
N744 C747 1.350 . S
N745 S743 1.610 . S
N745 C746 1.351 . S
C746 C740 1.428 . S
C746 N745 1.351 . S
C746 C747 1.434 . S
C747 C738 1.429 . S
C747 N744 1.350 . S
C747 C746 1.434 . S
C748 C749 1.369 . S
C748 C750 1.419 . S
C748 H752 0.930 . S
C749 C748 1.369 . S
C749 C758 1.429 . S
C750 C748 1.419 . S
C750 C751 1.363 . S
C750 H753 0.929 . S
C751 C750 1.363 . S
C751 C757 1.428 . S
H752 C748 0.930 . S
H753 C750 0.929 . S
S754 N755 1.613 . S
S754 N756 1.610 . S
N755 S754 1.613 . S
N755 C758 1.350 . S
N756 S754 1.610 . S
N756 C757 1.351 . S
C757 C751 1.428 . S
C757 N756 1.351 . S
C757 C758 1.434 . S
C758 C749 1.429 . S
C758 N755 1.350 . S
C758 C757 1.434 . S
C759 C760 1.369 . S
C759 C761 1.419 . S
C759 H763 0.930 . S
C760 C759 1.369 . S
C760 C769 1.429 . S
C761 C759 1.419 . S
C761 C762 1.363 . S
C761 H764 0.929 . S
C762 C761 1.363 . S
C762 C768 1.428 . S
H763 C759 0.930 . S
H764 C761 0.929 . S
S765 N766 1.613 . S
S765 N767 1.610 . S
N766 S765 1.613 . S
N766 C769 1.350 . S
N767 S765 1.610 . S
N767 C768 1.351 . S
C768 C762 1.428 . S
C768 N767 1.351 . S
C768 C769 1.434 . S
C769 C760 1.429 . S
C769 N766 1.350 . S
C769 C768 1.434 . S
C770 C771 1.369 . S
C770 C772 1.419 . S
C770 H774 0.930 . S
C771 C770 1.369 . S
C771 C780 1.429 . S
C772 C770 1.419 . S
C772 C773 1.363 . S
C772 H775 0.929 . S
C773 C772 1.363 . S
C773 C779 1.428 . S
H774 C770 0.930 . S
H775 C772 0.929 . S
S776 N777 1.613 . S
S776 N778 1.610 . S
N777 S776 1.613 . S
N777 C780 1.350 . S
N778 S776 1.610 . S
N778 C779 1.351 . S
C779 C773 1.428 . S
C779 N778 1.351 . S
C779 C780 1.434 . S
C780 C771 1.429 . S
C780 N777 1.350 . S
C780 C779 1.434 . S
C781 C782 1.369 . S
C781 C783 1.419 . S
C781 H785 0.930 . S
C782 C781 1.369 . S
C782 C791 1.429 . S
C783 C781 1.419 . S
C783 C784 1.363 . S
C783 H786 0.929 . S
C784 C783 1.363 . S
C784 C790 1.428 . S
H785 C781 0.930 . S
H786 C783 0.929 . S
S787 N788 1.613 . S
S787 N789 1.610 . S
N788 S787 1.613 . S
N788 C791 1.350 . S
N789 S787 1.610 . S
N789 C790 1.351 . S
C790 C784 1.428 . S
C790 N789 1.351 . S
C790 C791 1.434 . S
C791 C782 1.429 . S
C791 N788 1.350 . S
C791 C790 1.434 . S
C792 C793 1.369 . S
C792 C794 1.419 . S
C792 H796 0.930 . S
C793 C792 1.369 . S
C793 C802 1.429 . S
C794 C792 1.419 . S
C794 C795 1.363 . S
C794 H797 0.929 . S
C795 C794 1.363 . S
C795 C801 1.428 . S
H796 C792 0.930 . S
H797 C794 0.929 . S
S798 N799 1.613 . S
S798 N800 1.610 . S
N799 S798 1.613 . S
N799 C802 1.350 . S
N800 S798 1.610 . S
N800 C801 1.351 . S
C801 C795 1.428 . S
C801 N800 1.351 . S
C801 C802 1.434 . S
C802 C793 1.429 . S
C802 N799 1.350 . S
C802 C801 1.434 . S
C803 C804 1.386 . S
C803 C805 1.419 . S
C803 H807 0.930 . S
C804 C803 1.386 . S
C804 C813 1.415 1_565 S
C805 C803 1.419 . S
C805 C806 1.363 . S
C805 H808 0.929 . S
C806 C805 1.363 . S
C806 C812 1.428 1_565 S
H807 C803 0.930 . S
H808 C805 0.929 . S
S809 N810 1.613 . S
S809 N811 1.610 . S
N810 S809 1.613 . S
N810 C813 1.350 . S
N811 S809 1.610 . S
N811 C812 1.351 . S
C812 C806 1.428 1_545 S
C812 N811 1.351 . S
C812 C813 1.434 . S
C813 C804 1.415 1_545 S
C813 N810 1.350 . S
C813 C812 1.434 . S
C814 C815 1.369 . S
C814 C816 1.419 . S
C814 H818 0.930 . S
C815 C814 1.369 . S
C815 C824 1.429 . S
C816 C814 1.419 . S
C816 C817 1.363 . S
C816 H819 0.929 . S
C817 C816 1.363 . S
C817 C823 1.428 . S
H818 C814 0.930 . S
H819 C816 0.929 . S
S820 N821 1.613 . S
S820 N822 1.610 . S
N821 S820 1.613 . S
N821 C824 1.350 . S
N822 S820 1.610 . S
N822 C823 1.351 . S
C823 C817 1.428 . S
C823 N822 1.351 . S
C823 C824 1.434 . S
C824 C815 1.429 . S
C824 N821 1.350 . S
C824 C823 1.434 . S
C825 C826 1.369 1_565 S
C825 C827 1.418 . S
C825 H829 0.930 . S
C826 C825 1.369 1_545 S
C826 C835 1.429 . S
C827 C825 1.418 . S
C827 C828 1.337 1_565 S
C827 H830 0.957 . S
C828 C827 1.337 1_545 S
C828 C834 1.428 . S
H829 C825 0.930 . S
H830 C827 0.957 . S
S831 N832 1.613 . S
S831 N833 1.610 . S
N832 S831 1.613 . S
N832 C835 1.350 . S
N833 S831 1.610 . S
N833 C834 1.351 . S
C834 C828 1.428 . S
C834 N833 1.351 . S
C834 C835 1.434 . S
C835 C826 1.429 . S
C835 N832 1.350 . S
C835 C834 1.434 . S
C836 C837 1.369 . S
C836 C838 1.419 . S
C836 H840 0.930 . S
C837 C836 1.369 . S
C837 C846 1.429 . S
C838 C836 1.419 . S
C838 C839 1.363 . S
C838 H841 0.929 . S
C839 C838 1.363 . S
C839 C845 1.428 . S
H840 C836 0.930 . S
H841 C838 0.929 . S
S842 N843 1.613 . S
S842 N844 1.610 . S
N843 S842 1.613 . S
N843 C846 1.350 . S
N844 S842 1.610 . S
N844 C845 1.351 . S
C845 C839 1.428 . S
C845 N844 1.351 . S
C845 C846 1.434 . S
C846 C837 1.429 . S
C846 N843 1.350 . S
C846 C845 1.434 . S
C847 C848 1.369 . S
C847 C849 1.419 . S
C847 H851 0.930 . S
C848 C847 1.369 . S
C848 C857 1.437 . S
C849 C847 1.419 . S
C849 C850 1.363 . S
C849 H852 0.929 . S
C850 C849 1.363 . S
C850 C856 1.428 . S
H851 C847 0.930 . S
H852 C849 0.929 . S
S853 N854 1.613 . S
S853 N855 1.610 . S
N854 S853 1.613 . S
N854 C857 1.340 1_554 S
N855 S853 1.610 . S
N855 C856 1.351 1_554 S
C856 C850 1.428 . S
C856 N855 1.351 1_556 S
C856 C857 1.435 . S
C857 C848 1.437 . S
C857 N854 1.340 1_556 S
C857 C856 1.435 . S
C858 C859 1.369 . S
C858 C860 1.419 . S
C858 H862 0.930 . S
C859 C858 1.369 . S
C859 C868 1.429 1_554 S
C860 C858 1.419 . S
C860 C861 1.381 . S
C860 H863 0.929 . S
C861 C860 1.381 . S
C861 C867 1.411 1_554 S
H862 C858 0.930 . S
H863 C860 0.929 . S
S864 N865 1.613 . S
S864 N866 1.610 . S
N865 S864 1.613 . S
N865 C868 1.350 . S
N866 S864 1.610 . S
N866 C867 1.351 . S
C867 C861 1.411 1_556 S
C867 N866 1.351 . S
C867 C868 1.434 . S
C868 C859 1.429 1_556 S
C868 N865 1.350 . S
C868 C867 1.434 . S
C869 C870 1.369 . S
C869 C871 1.419 . S
C869 H873 0.930 1_554 S
C870 C869 1.369 . S
C870 C879 1.429 . S
C871 C869 1.419 . S
C871 C872 1.363 . S
C871 H874 0.929 1_554 S
C872 C871 1.363 . S
C872 C878 1.428 . S
H873 C869 0.930 1_556 S
H874 C871 0.929 1_556 S
S875 N876 1.613 . S
S875 N877 1.610 . S
N876 S875 1.613 . S
N876 C879 1.350 . S
N877 S875 1.610 . S
N877 C878 1.351 . S
C878 C872 1.428 . S
C878 N877 1.351 . S
C878 C879 1.434 . S
C879 C870 1.429 . S
C879 N876 1.350 . S
C879 C878 1.434 . S
C353 C13 1.603 . S
C355 C231 1.594 . S
C366 C257 1.641 1_655 S
C364 C1 1.671 . S
C377 C189 1.658 . S
C375 C27 1.630 . S
C386 C15 1.445 . S
C388 C212 1.460 . S
C397 C28 1.548 . S
C399 C346 1.539 . S
C408 C55 1.440 . S
C410 C327 1.459 . S
C421 C280 1.647 . S
C419 C40 1.691 . S
C430 C43 1.728 . S
C432 C303 1.700 . S
C443 C208 1.676 . S
C441 C56 1.694 . S
C454 C258 1.473 . S
C452 C83 1.455 . S
C463 C96 1.617 . S
C465 C234 1.580 . S
C474 C71 1.700 . S
C476 C300 1.679 . S
C487 C323 1.596 . S
C485 C99 1.602 . S
C498 C349 1.646 . S
C496 C111 1.670 . S
C507 C113 1.635 . S
C509 C304 1.658 . S
C520 C281 1.460 . S
C518 C125 1.440 . S
C529 C139 1.551 . S
C531 C254 1.544 . S
C540 C153 1.436 1_565 S
C542 C235 1.458 . S
C553 C211 1.646 . S
C551 C127 1.694 . S
C562 C141 1.727 . S
C564 C188 1.700 . S
C575 C277 1.673 . S
C573 C84 1.695 . S
C586 C350 1.474 . S
C584 C154 1.456 . S
C595 C68 1.622 . S
C597 C326 1.581 . S
C606 C166 1.699 . S
C608 C185 1.678 . S
C619 C187 1.333 . S
C617 C0 1.416 . S
C628 C12 1.542 . S
C630 C210 1.427 1_455 S
C641 C232 1.314 . S
C639 C14 1.296 . S
C652 C253 1.382 1_455 S
C650 C26 1.389 . S
C661 C41 1.455 . S
C663 C184 1.447 . S
C672 C42 1.450 . S
C674 C207 1.437 . S
C685 C233 1.410 . S
C683 C29 1.523 . S
C694 C54 1.393 . S
C696 C255 1.407 . S
C705 C69 1.339 . S
C707 C186 1.348 . S
C718 C230 1.397 . S
C716 C70 1.406 . S
C727 C85 1.474 . S
C729 C256 1.390 . S
C738 C82 1.270 . S
C740 C278 1.286 . S
C751 C302 1.338 . S
C749 C110 1.421 . S
C760 C98 1.543 . S
C762 C279 1.426 . S
C771 C124 1.303 . S
C773 C324 1.315 . S
C782 C112 1.391 . S
C784 C345 1.382 . S
C793 C126 1.460 . S
C795 C299 1.444 . S
C806 C276 1.438 . S
C804 C140 1.447 1_565 S
C815 C138 1.520 . S
C817 C325 1.417 . S
C828 C347 1.409 . S
C826 C152 1.390 . S
C839 C301 1.348 . S
C837 C97 1.332 . S
C850 C322 1.395 . S
C848 C167 1.402 . S
C861 C348 1.380 1_554 S
C859 C57 1.474 . S
C870 C155 1.276 . S
C872 C209 1.285 . S
