# Generated by pormake.
# Topology pyr, (3,6)-cn, num edge types: 1
# Building blocks:
#     Node 0, Type 0, BuildingBlock: WUSLED_clean_sbu_0, # of connection points: 3
#     Node 1, Type 0, BuildingBlock: WUSLED_clean_sbu_0, # of connection points: 3
#     Node 2, Type 0, BuildingBlock: WUSLED_clean_sbu_0, # of connection points: 3
#     Node 3, Type 0, BuildingBlock: WUSLED_clean_sbu_0, # of connection points: 3
#     Node 4, Type 0, BuildingBlock: WUSLED_clean_sbu_0, # of connection points: 3
#     Node 5, Type 0, BuildingBlock: WUSLED_clean_sbu_0, # of connection points: 3
#     Node 6, Type 0, BuildingBlock: WUSLED_clean_sbu_0, # of connection points: 3
#     Node 7, Type 0, BuildingBlock: WUSLED_clean_sbu_0, # of connection points: 3
#     Node 8, Type 1, BuildingBlock: FUNLAD_clean_sbu_0, # of connection points: 6
#     Node 9, Type 1, BuildingBlock: FUNLAD_clean_sbu_0, # of connection points: 6
#     Node 10, Type 1, BuildingBlock: FUNLAD_clean_sbu_0, # of connection points: 6
#     Node 11, Type 1, BuildingBlock: FUNLAD_clean_sbu_0, # of connection points: 6
#     Edge 12, Type (0, 1), BuildingBlock: KIFKEQ_clean_linker_1, # of connection points: 2
#     Edge 13, Type (0, 1), BuildingBlock: KIFKEQ_clean_linker_1, # of connection points: 2
#     Edge 14, Type (0, 1), BuildingBlock: KIFKEQ_clean_linker_1, # of connection points: 2
#     Edge 15, Type (0, 1), BuildingBlock: KIFKEQ_clean_linker_1, # of connection points: 2
#     Edge 16, Type (0, 1), BuildingBlock: KIFKEQ_clean_linker_1, # of connection points: 2
#     Edge 17, Type (0, 1), BuildingBlock: KIFKEQ_clean_linker_1, # of connection points: 2
#     Edge 18, Type (0, 1), BuildingBlock: KIFKEQ_clean_linker_1, # of connection points: 2
#     Edge 19, Type (0, 1), BuildingBlock: KIFKEQ_clean_linker_1, # of connection points: 2
#     Edge 20, Type (0, 1), BuildingBlock: KIFKEQ_clean_linker_1, # of connection points: 2
#     Edge 21, Type (0, 1), BuildingBlock: KIFKEQ_clean_linker_1, # of connection points: 2
#     Edge 22, Type (0, 1), BuildingBlock: KIFKEQ_clean_linker_1, # of connection points: 2
#     Edge 23, Type (0, 1), BuildingBlock: KIFKEQ_clean_linker_1, # of connection points: 2
#     Edge 24, Type (0, 1), BuildingBlock: KIFKEQ_clean_linker_1, # of connection points: 2
#     Edge 25, Type (0, 1), BuildingBlock: KIFKEQ_clean_linker_1, # of connection points: 2
#     Edge 26, Type (0, 1), BuildingBlock: KIFKEQ_clean_linker_1, # of connection points: 2
#     Edge 27, Type (0, 1), BuildingBlock: KIFKEQ_clean_linker_1, # of connection points: 2
#     Edge 28, Type (0, 1), BuildingBlock: KIFKEQ_clean_linker_1, # of connection points: 2
#     Edge 29, Type (0, 1), BuildingBlock: KIFKEQ_clean_linker_1, # of connection points: 2
#     Edge 30, Type (0, 1), BuildingBlock: KIFKEQ_clean_linker_1, # of connection points: 2
#     Edge 31, Type (0, 1), BuildingBlock: KIFKEQ_clean_linker_1, # of connection points: 2
#     Edge 32, Type (0, 1), BuildingBlock: KIFKEQ_clean_linker_1, # of connection points: 2
#     Edge 33, Type (0, 1), BuildingBlock: KIFKEQ_clean_linker_1, # of connection points: 2
#     Edge 34, Type (0, 1), BuildingBlock: KIFKEQ_clean_linker_1, # of connection points: 2
#     Edge 35, Type (0, 1), BuildingBlock: KIFKEQ_clean_linker_1, # of connection points: 2
# Relax obj value: 0.051
# Max RMSD: 0.061
# Mean RMSD: 0.028
data_MOF--net-pry--node1-WUSLED_clean_sbu_0--node2-FUNLAD_clean_sbu_0--edge1-KIFKEQ_clean_linker_1
_symmetry_space_group_name_H-M    P1
_symmetry_Int_Tables_number       1
_symmetry_cell_setting            triclinic
loop_
_symmetry_equiv_pos_as_xyz
'x, y, z'
_cell_length_a     47.083373
_cell_length_b     49.548459
_cell_length_c     49.893752
_cell_angle_alpha  90.29563
_cell_angle_beta   90.270294
_cell_angle_gamma 83.923301
loop_
_atom_site_label
_atom_site_type_symbol
_atom_site_fract_x
_atom_site_fract_y
_atom_site_fract_z
_atom_type_partial_charge
C0 C 0.12818 0.2422 0.14075 0.0
C1 C 0.10212 0.24496 0.12663 0.0
C2 C 0.10835 0.29194 0.11506 0.0
C3 C 0.0923 0.26949 0.11401 0.0
C4 C 0.13496 0.28871 0.1284 0.0
C5 C 0.14464 0.26425 0.14117 0.0
U6 U 0.15142 0.17411 0.18584 0.0
O7 O 0.16973 0.137 0.16462 0.0
O8 O 0.1973 0.16036 0.18923 0.0
C9 C 0.19581 0.13947 0.17312 0.0
C10 C 0.13668 0.21757 0.15711 0.0
C11 C 0.21972 0.13276 0.15407 0.0
C12 C 0.26051 0.14473 0.12821 0.0
C13 C 0.23561 0.15252 0.14312 0.0
C14 C 0.25347 0.09753 0.13442 0.0
C15 C 0.27016 0.11707 0.12428 0.0
C16 C 0.22863 0.10528 0.14905 0.0
C17 C 0.1171 0.14989 0.25335 0.0
C18 C 0.10822 0.1076 0.27541 0.0
C19 C 0.10288 0.14979 0.30031 0.0
C20 C 0.11082 0.16363 0.27762 0.0
C21 C 0.1009 0.12165 0.2995 0.0
C22 C 0.11606 0.1216 0.25249 0.0
C23 C 0.1213 0.16646 0.22916 0.0
O24 O 0.15575 0.21714 0.17649 0.0
O25 O 0.12643 0.19428 0.1525 0.0
O26 O 0.11562 0.15663 0.20543 0.0
O27 O 0.14316 0.18088 0.22904 0.0
H28 H 0.08874 0.22847 0.12617 0.0
H29 H 0.0716 0.27111 0.10428 0.0
H30 H 0.14831 0.30519 0.12922 0.0
H31 H 0.16485 0.26281 0.15181 0.0
H32 H 0.27283 0.16033 0.12074 0.0
H33 H 0.22929 0.17387 0.14675 0.0
H34 H 0.2599 0.07609 0.13142 0.0
H35 H 0.21683 0.08964 0.15729 0.0
H36 H 0.1069 0.08595 0.27397 0.0
H37 H 0.09798 0.1613 0.31852 0.0
H38 H 0.11123 0.18543 0.27886 0.0
H39 H 0.12057 0.11043 0.23402 0.0
C40 C 0.30966 0.89727 0.63876 0.0
C41 C 0.29953 0.92315 0.64849 0.0
C42 C 0.25883 0.92522 0.61737 0.0
C43 C 0.27428 0.93699 0.63792 0.0
C44 C 0.26918 0.89919 0.60803 0.0
C45 C 0.29421 0.88549 0.61855 0.0
U46 U 0.3774 0.87849 0.68486 0.0
O47 O 0.39462 0.83704 0.69616 0.0
O48 O 0.41974 0.86103 0.67032 0.0
C49 C 0.41729 0.83714 0.68089 0.0
C50 C 0.33635 0.88186 0.64847 0.0
C51 C 0.42423 0.81307 0.66318 0.0
C52 C 0.41071 0.77336 0.63889 0.0
C53 C 0.40315 0.79717 0.65383 0.0
C54 C 0.4604 0.78139 0.6416 0.0
C55 C 0.43954 0.76485 0.6329 0.0
C56 C 0.45284 0.80509 0.65656 0.0
C57 C 0.39323 0.92375 0.74762 0.0
C58 C 0.42713 0.91545 0.7847 0.0
C59 C 0.39846 0.95875 0.78137 0.0
C60 C 0.38572 0.9499 0.75793 0.0
C61 C 0.4194 0.94174 0.79529 0.0
C62 C 0.41415 0.90654 0.76116 0.0
C63 C 0.37777 0.91518 0.72348 0.0
O64 O 0.36021 0.89312 0.64574 0.0
O65 O 0.33514 0.86848 0.67103 0.0
O66 O 0.3647 0.8931 0.72535 0.0
O67 O 0.3899 0.91756 0.70005 0.0
H68 H 0.31117 0.93268 0.66406 0.0
H69 H 0.26713 0.95705 0.64554 0.0
H70 H 0.25774 0.88912 0.5927 0.0
H71 H 0.30158 0.86551 0.61078 0.0
H72 H 0.394 0.76119 0.63278 0.0
H73 H 0.38087 0.80283 0.65852 0.0
H74 H 0.48273 0.77598 0.63699 0.0
H75 H 0.46951 0.81702 0.66337 0.0
H76 H 0.44333 0.90175 0.79448 0.0
H77 H 0.39126 0.97883 0.78887 0.0
H78 H 0.36948 0.96351 0.748 0.0
H79 H 0.42033 0.88623 0.75366 0.0
C80 C 0.59202 0.4404 0.88229 0.0
C81 C 0.60997 0.45829 0.87134 0.0
C82 C 0.58151 0.46109 0.83058 0.0
C83 C 0.6048 0.46852 0.84561 0.0
C84 C 0.5625 0.44464 0.84246 0.0
C85 C 0.56785 0.43421 0.86812 0.0
U86 U 0.64315 0.42859 0.94003 0.0
O87 O 0.63717 0.41434 0.98116 0.0
O88 O 0.6669 0.39076 0.95396 0.0
C89 C 0.65236 0.39098 0.97639 0.0
C90 C 0.60065 0.4255 0.90664 0.0
C91 C 0.63695 0.36709 0.97968 0.0
C92 C 0.6036 0.33768 0.96139 0.0
C93 C 0.6173 0.36115 0.95984 0.0
C94 C 0.6282 0.32622 1.0033 0.0
C95 C 0.60908 0.3199 0.983 0.0
C96 C 0.64221 0.34969 1.00156 0.0
C97 C 0.70398 0.47213 0.94634 0.0
C98 C 0.74598 0.45687 0.97262 0.0
C99 C 0.74258 0.50051 0.95032 0.0
C100 C 0.71565 0.4962 0.94042 0.0
C101 C 0.75817 0.48065 0.96609 0.0
C102 C 0.71898 0.45268 0.96288 0.0
C103 C 0.67719 0.46648 0.93371 0.0
O104 O 0.6253 0.4106 0.90443 0.0
O105 O 0.59799 0.43946 0.92914 0.0
O106 O 0.65449 0.46965 0.94913 0.0
O107 O 0.6791 0.44396 0.9195 0.0
H108 H 0.62884 0.46311 0.88211 0.0
H109 H 0.61998 0.48094 0.83699 0.0
H110 H 0.54404 0.43903 0.83156 0.0
H111 H 0.55385 0.42041 0.8764 0.0
H112 H 0.58874 0.33342 0.94567 0.0
H113 H 0.6129 0.37449 0.94286 0.0
H114 H 0.63284 0.31266 0.02008 0.0
H115 H 0.65736 0.35403 1.01699 0.0
H116 H 0.75747 0.44141 0.98497 0.0
H117 H 0.75164 0.5189 0.94483 0.0
H118 H 0.70429 0.51131 0.92757 0.0
H119 H 0.71012 0.43398 0.96764 0.0
C120 C 0.82356 0.58307 0.44409 0.0
C121 C 0.8098 0.60236 0.46165 0.0
C122 C 0.77007 0.57516 0.46542 0.0
C123 C 0.78316 0.59848 0.47218 0.0
C124 C 0.78446 0.55541 0.44861 0.0
C125 C 0.81103 0.55942 0.43792 0.0
U126 U 0.88461 0.62597 0.43683 0.0
O127 O 0.92945 0.61496 0.42528 0.0
O128 O 0.90161 0.64374 0.401 0.0
C129 C 0.92635 0.62889 0.40291 0.0
C130 C 0.84991 0.58848 0.43077 0.0
C131 C 0.93479 0.61396 0.37845 0.0
C132 C 0.9229 0.58435 0.34223 0.0
C133 C 0.91713 0.59558 0.36755 0.0
C134 C 0.9649 0.60864 0.33924 0.0
C135 C 0.94649 0.59126 0.32763 0.0
C136 C 0.95899 0.62002 0.36449 0.0
C137 C 0.89313 0.68664 0.47782 0.0
C138 C 0.92722 0.71533 0.46022 0.0
C139 C 0.90272 0.72722 0.50199 0.0
C140 C 0.88821 0.70407 0.49985 0.0
C141 C 0.92203 0.7332 0.48195 0.0
C142 C 0.91298 0.69219 0.45825 0.0
C143 C 0.87711 0.66315 0.4741 0.0
O144 O 0.84771 0.6111 0.41693 0.0
O145 O 0.87322 0.58495 0.44552 0.0
O146 O 0.89197 0.63951 0.47815 0.0
O147 O 0.86202 0.664 0.45184 0.0
H148 H 0.81933 0.62073 0.46662 0.0
H149 H 0.77263 0.61384 0.48533 0.0
H150 H 0.7747 0.53737 0.44293 0.0
H151 H 0.82143 0.54443 0.4243 0.0
H152 H 0.90854 0.57084 0.33376 0.0
H153 H 0.8983 0.59078 0.37818 0.0
H154 H 0.98305 0.61449 0.32824 0.0
H155 H 0.97265 0.63434 0.37265 0.0
H156 H 0.94221 0.71933 0.44469 0.0
H157 H 0.89827 0.74085 0.51885 0.0
H158 H 0.8729 0.70003 0.51507 0.0
H159 H 0.91711 0.67881 0.44116 0.0
C160 C 0.89905 0.81588 0.90183 0.0
C161 C 0.90914 0.79492 0.88411 0.0
C162 C 0.9253 0.76547 0.92185 0.0
C163 C 0.9222 0.77004 0.89401 0.0
C164 C 0.91571 0.78689 0.93935 0.0
C165 C 0.90285 0.81166 0.92947 0.0
U166 U 0.87518 0.88127 0.85805 0.0
O167 O 0.83067 0.89695 0.84889 0.0
O168 O 0.85678 0.92081 0.87436 0.0
C169 C 0.83128 0.91843 0.86439 0.0
C170 C 0.88172 0.8411 0.89285 0.0
C171 C 0.80675 0.9249 0.88278 0.0
C172 C 0.76821 0.91163 0.91082 0.0
C173 C 0.79235 0.90462 0.89472 0.0
C174 C 0.77288 0.9592 0.90373 0.0
C175 C 0.75798 0.93906 0.91543 0.0
C176 C 0.79689 0.95218 0.88766 0.0
C177 C 0.91765 0.90213 0.79515 0.0
C178 C 0.90262 0.9319 0.75759 0.0
C179 C 0.95267 0.91657 0.76374 0.0
C180 C 0.94601 0.9021 0.78656 0.0
C181 C 0.9311 0.93158 0.7487 0.0
C182 C 0.89597 0.91738 0.78055 0.0
C183 C 0.91159 0.88488 0.81839 0.0
O184 O 0.89249 0.86428 0.89641 0.0
O185 O 0.8669 0.84021 0.87051 0.0
O186 O 0.88904 0.87139 0.81666 0.0
O187 O 0.91516 0.89491 0.84246 0.0
H188 H 0.90642 0.79751 0.86267 0.0
H189 H 0.92965 0.75432 0.87979 0.0
H190 H 0.91712 0.78427 0.96086 0.0
H191 H 0.89493 0.82732 0.94361 0.0
H192 H 0.75762 0.89552 0.91971 0.0
H193 H 0.79957 0.88338 0.89141 0.0
H194 H 0.76557 0.9805 0.90637 0.0
H195 H 0.80753 0.9682 0.87863 0.0
H196 H 0.88541 0.94342 0.74683 0.0
H197 H 0.97476 0.91535 0.75748 0.0
H198 H 0.96313 0.89036 0.7973 0.0
H199 H 0.8739 0.91782 0.7867 0.0
C200 C 0.60981 0.15549 0.29676 0.0
C201 C 0.6313 0.14086 0.28141 0.0
C202 C 0.59561 0.12689 0.24957 0.0
C203 C 0.62426 0.12664 0.25814 0.0
C204 C 0.57424 0.14102 0.26549 0.0
C205 C 0.58125 0.15505 0.28868 0.0
U206 U 0.65296 0.17578 0.35999 0.0
O207 O 0.66222 0.2166 0.37289 0.0
O208 O 0.63637 0.19299 0.39854 0.0
C209 C 0.64795 0.21576 0.39541 0.0
C210 C 0.61619 0.17273 0.32017 0.0
C211 C 0.63206 0.24129 0.40543 0.0
C212 C 0.60434 0.28536 0.39904 0.0
C213 C 0.61652 0.26026 0.38864 0.0
C214 C 0.62269 0.27258 0.44304 0.0
C215 C 0.60774 0.29207 0.42634 0.0
C216 C 0.63463 0.24762 0.43272 0.0
C217 C 0.72099 0.13058 0.38379 0.0
C218 C 0.76094 0.14244 0.41131 0.0
C219 C 0.75497 0.09526 0.40287 0.0
C220 C 0.73038 0.10307 0.38773 0.0
C221 C 0.77095 0.11479 0.41451 0.0
C222 C 0.73625 0.15027 0.39605 0.0
C223 C 0.6962 0.13784 0.36576 0.0
O224 O 0.61252 0.16286 0.34417 0.0
O225 O 0.63893 0.18594 0.31868 0.0
O226 O 0.69711 0.15934 0.35059 0.0
O227 O 0.67076 0.13596 0.37584 0.0
H228 H 0.65353 0.14083 0.2871 0.0
H229 H 0.64136 0.11616 0.24642 0.0
H230 H 0.55193 0.14135 0.25997 0.0
H231 H 0.56424 0.16608 0.30012 0.0
H232 H 0.59306 0.29983 0.38552 0.0
H233 H 0.61432 0.25594 0.36748 0.0
H234 H 0.62536 0.27665 0.4642 0.0
H235 H 0.64654 0.23339 0.44609 0.0
H236 H 0.77269 0.15806 0.41987 0.0
H237 H 0.76157 0.0738 0.40531 0.0
H238 H 0.71892 0.0875 0.37863 0.0
H239 H 0.72942 0.17166 0.39342 0.0
C240 C 0.32021 0.58594 0.10552 0.0
C241 C 0.30515 0.60393 0.08761 0.0
C242 C 0.26712 0.57445 0.08507 0.0
C243 C 0.27875 0.59825 0.07747 0.0
C244 C 0.28286 0.55605 0.10232 0.0
C245 C 0.3092 0.56182 0.11252 0.0
U246 U 0.37971 0.63153 0.11183 0.0
O247 O 0.39637 0.65038 0.14755 0.0
O248 O 0.42475 0.6217 0.12363 0.0
C249 C 0.4214 0.63605 0.14584 0.0
C250 C 0.34637 0.59304 0.11836 0.0
C251 C 0.43035 0.62186 0.17051 0.0
C252 C 0.41908 0.59344 0.20751 0.0
C253 C 0.41307 0.60362 0.18188 0.0
C254 C 0.46069 0.61838 0.20982 0.0
C255 C 0.44251 0.60133 0.22204 0.0
C256 C 0.45453 0.62869 0.18425 0.0
C257 C 0.38695 0.69197 0.07127 0.0
C258 C 0.42169 0.72002 0.08939 0.0
C259 C 0.39375 0.73475 0.05014 0.0
C260 C 0.37994 0.71107 0.05108 0.0
C261 C 0.41435 0.73958 0.06964 0.0
C262 C 0.4082 0.6964 0.09011 0.0
C263 C 0.37126 0.66822 0.07448 0.0
O264 O 0.3695 0.58995 0.10349 0.0
O265 O 0.34339 0.61608 0.13173 0.0
O266 O 0.35612 0.66893 0.09658 0.0
O267 O 0.3865 0.64473 0.07048 0.0
H268 H 0.31343 0.62273 0.08212 0.0
H269 H 0.26701 0.61296 0.06448 0.0
H270 H 0.27464 0.53736 0.1082 0.0
H271 H 0.32068 0.54774 0.12633 0.0
H272 H 0.40455 0.58055 0.21644 0.0
H273 H 0.39421 0.59828 0.17143 0.0
H274 H 0.47921 0.62438 0.22034 0.0
H275 H 0.46803 0.64277 0.17563 0.0
H276 H 0.43772 0.72312 0.10443 0.0
H277 H 0.38769 0.74966 0.03479 0.0
H278 H 0.36347 0.70797 0.03648 0.0
H279 H 0.41389 0.6818 0.10582 0.0
C280 C 0.10103 0.37734 0.60141 0.0
C281 C 0.12188 0.35828 0.59019 0.0
C282 C 0.08638 0.32668 0.5841 0.0
C283 C 0.11462 0.33301 0.58179 0.0
C284 C 0.06528 0.34635 0.59393 0.0
C285 C 0.07262 0.3715 0.60269 0.0
U286 U 0.14957 0.4338 0.60709 0.0
O287 O 0.13976 0.47618 0.6206 0.0
O288 O 0.17095 0.44844 0.64258 0.0
C289 C 0.15488 0.47179 0.64268 0.0
C290 C 0.10907 0.40224 0.61392 0.0
C291 C 0.13907 0.47722 0.66763 0.0
C292 C 0.11048 0.46061 0.70298 0.0
C293 C 0.12353 0.45705 0.67809 0.0
C294 C 0.12675 0.50536 0.70658 0.0
C295 C 0.11232 0.48461 0.71753 0.0
C296 C 0.14029 0.50158 0.68173 0.0
C297 C 0.21286 0.43775 0.56334 0.0
C298 C 0.25114 0.46218 0.58039 0.0
C299 C 0.25362 0.44346 0.53536 0.0
C300 C 0.22719 0.43358 0.53895 0.0
C301 C 0.2662 0.45734 0.55629 0.0
C302 C 0.22463 0.45264 0.5838 0.0
C303 C 0.18663 0.42526 0.56839 0.0
O304 O 0.13346 0.39935 0.62703 0.0
O305 O 0.10555 0.42432 0.59923 0.0
O306 O 0.16274 0.4414 0.56572 0.0
O307 O 0.18762 0.41065 0.59034 0.0
H308 H 0.14393 0.36255 0.58887 0.0
H309 H 0.13116 0.31818 0.57405 0.0
H310 H 0.0434 0.34179 0.59603 0.0
H311 H 0.05633 0.38601 0.61133 0.0
H312 H 0.09926 0.44449 0.71106 0.0
H313 H 0.12217 0.43819 0.66732 0.0
H314 H 0.1284 0.52399 0.71767 0.0
H315 H 0.15217 0.51733 0.67384 0.0
H316 H 0.26023 0.47245 0.59706 0.0
H317 H 0.26436 0.4399 0.51632 0.0
H318 H 0.21824 0.42224 0.52293 0.0
H319 H 0.21373 0.45607 0.60278 0.0
C320 C 0.03494 0.04107 0.47328 0.0
N321 N 0.02474 0.08446 0.54543 0.0
C322 C 0.04972 0.09296 0.53693 0.0
C323 C 0.0558 0.11933 0.54201 0.0
C324 C 0.03625 0.13695 0.55642 0.0
C325 C 1.01124 0.12747 0.56614 0.0
C326 C 1.00571 0.10092 0.56014 0.0
Zn327 Zn 0.01622 0.04733 0.53244 0.0
C328 C 0.9592 0.0485 0.50604 0.0
N329 N 1.00276 0.97027 0.5012 0.0
C330 C 0.02301 0.95234 0.48961 0.0
C331 C 0.97644 0.96313 0.50719 0.0
C332 C 0.96998 0.9368 0.50269 0.0
C333 C 0.99089 0.91743 0.49221 0.0
C334 C 0.01744 0.92555 0.48484 0.0
Zn335 Zn 1.01118 1.00744 0.51423 0.0
O336 O 0.03204 0.05695 0.49344 0.0
C337 C 0.06821 1.00639 0.54055 0.0
O338 O 0.02814 1.01702 0.47575 0.0
H339 H 0.9607 0.97757 0.51658 0.0
H340 H 0.06466 0.07948 0.52546 0.0
H341 H 0.04382 0.9585 0.4851 0.0
O342 O 0.05824 0.03083 0.54516 0.0
O343 O 0.05294 0.99117 0.52743 0.0
H344 H 0.98597 0.0937 0.56658 0.0
O345 O 0.99426 0.99792 0.55294 0.0
O346 O 1.00011 0.03721 0.5712 0.0
O347 O 0.96962 0.02427 0.50106 0.0
O348 O 0.97404 0.06369 0.51969 0.0
C349 C 0.99222 1.01351 0.57335 0.0
H350 H 0.07544 0.12602 0.53451 0.0
H351 H 0.99576 0.14072 0.57734 0.0
H352 H 0.94905 0.93146 0.50814 0.0
H353 H 0.03411 0.91112 0.47671 0.0
C354 C 0.57003 1.00494 1.00611 0.0
N355 N 0.52701 0.08338 0.99991 0.0
C356 C 0.55337 0.09046 1.0062 0.0
C357 C 0.56005 0.11663 1.00165 0.0
C358 C 0.53932 0.13598 0.99087 0.0
C359 C 0.51277 0.1279 0.98311 0.0
C360 C 0.50697 0.10123 0.98792 0.0
Zn361 Zn 0.51825 0.04673 1.01374 0.0
C362 C 0.49398 1.01173 0.97313 0.0
N363 N 0.50442 0.97065 0.0466 0.0
C364 C 0.52464 0.95328 0.05895 0.0
C365 C 0.47759 0.96379 0.04208 0.0
C366 C 0.47018 0.93862 0.04995 0.0
C367 C 0.49068 0.92007 0.06218 0.0
C368 C 0.51823 0.92754 0.06677 0.0
Zn369 Zn 0.51314 1.00711 0.03213 0.0
O370 O 0.5601 0.02939 1.00169 0.0
C371 C 0.53736 0.04249 0.07274 0.0
O372 O 0.55475 0.9898 1.01902 0.0
H373 H 0.462 0.9776 0.03174 0.0
H374 H 0.56891 0.07615 1.016 0.0
H375 H 0.54586 0.95917 0.06224 0.0
O376 O 0.53427 0.05784 0.05235 0.0
O377 O 0.53069 1.0183 0.07056 0.0
H378 H 0.48612 0.09515 0.98322 0.0
O379 O 0.47169 0.02481 0.04501 0.0
O380 O 0.47617 0.06372 0.02586 0.0
O381 O 0.49567 0.99639 0.99363 0.0
O382 O 0.50214 0.03536 0.9753 0.0
C383 C 0.46129 0.04892 0.03962 0.0
H384 H 0.58098 0.12194 1.00742 0.0
H385 H 0.49624 0.14233 0.97474 0.0
H386 H 0.44888 0.93334 0.04561 0.0
H387 H 0.53457 0.91361 0.07611 0.0
C388 C 0.53542 0.47681 0.50589 0.0
N389 N 0.53852 0.51205 0.58257 0.0
C390 C 0.53386 0.48803 0.59389 0.0
C391 C 0.54302 0.48219 0.62004 0.0
C392 C 0.55682 0.5014 0.63454 0.0
C393 C 0.56191 0.52571 0.62215 0.0
C394 C 0.55263 0.5306 0.59596 0.0
Zn395 Zn 0.52371 0.52186 0.54544 0.0
C396 C 0.56922 0.54506 0.5137 0.0
N397 N 0.49491 0.5458 0.46811 0.0
C398 C 0.48143 0.52704 0.45437 0.0
C399 C 0.49886 0.5702 0.45721 0.0
C400 C 0.48943 0.57632 0.4312 0.0
C401 C 0.47612 0.55699 0.41639 0.0
C402 C 0.47193 0.5322 0.42828 0.0
Zn403 Zn 0.50964 0.53596 0.50525 0.0
O404 O 0.53782 0.48168 0.53083 0.0
C405 C 0.46427 0.5124 0.53659 0.0
O406 O 0.52465 0.49584 0.49076 0.0
H407 H 0.50968 0.58474 0.46856 0.0
H408 H 0.52257 0.47364 0.5828 0.0
H409 H 0.47829 0.50787 0.46354 0.0
O410 O 0.48322 0.50954 0.55484 0.0
O411 O 0.47004 0.52275 0.51435 0.0
H412 H 0.55631 0.54948 0.58646 0.0
O413 O 0.49478 0.57609 0.5201 0.0
O414 O 0.50947 0.56194 0.55975 0.0
O415 O 0.54959 0.54902 0.49619 0.0
O416 O 0.56392 0.53409 0.53579 0.0
C417 C 0.49797 0.58092 0.54496 0.0
H418 H 0.5385 0.46331 0.62913 0.0
H419 H 0.57272 0.54087 0.63269 0.0
H420 H 0.49323 0.59558 0.42248 0.0
H421 H 0.46151 0.51694 0.41749 0.0
C422 C 0.99556 0.58088 1.00152 0.0
N423 N 0.99366 0.5456 0.07806 0.0
C424 C 0.99929 0.56956 0.0892 0.0
C425 C 0.99207 0.57545 0.11583 0.0
C426 C 0.97916 0.55637 0.13109 0.0
C427 C 0.973 0.53211 0.1188 0.0
C428 C 0.98038 0.52717 0.09212 0.0
Zn429 Zn 1.00656 0.53556 0.04038 0.0
C430 C 0.95993 0.5137 1.00948 0.0
N431 N 0.03292 0.5116 0.96217 0.0
C432 C 0.04984 0.52833 0.94989 0.0
C433 C 0.0232 0.49031 0.94895 0.0
C434 C 0.02971 0.48578 0.92192 0.0
C435 C 0.04665 0.50317 0.9086 0.0
C436 C 0.05728 0.52426 0.92317 0.0
Zn437 Zn 0.02024 0.52144 1.00001 0.0
O438 O 0.9924 0.57592 0.02628 0.0
C439 C 0.06679 0.54326 0.03169 0.0
O440 O 1.00675 0.56191 0.98645 0.0
H441 H 1.00974 0.4773 0.95915 0.0
H442 H 1.00982 0.5839 0.07756 0.0
H443 H 0.0571 0.54532 0.96065 0.0
O444 O 0.04706 0.54742 0.0489 0.0
O445 O 0.06148 0.53248 1.00933 0.0
H446 H 0.97607 0.50826 0.08282 0.0
O447 O 0.03358 0.48109 1.01346 0.0
O448 O 0.02122 0.49498 0.05389 0.0
O449 O 0.97898 0.51034 0.99149 0.0
O450 O 0.96601 0.52377 0.03193 0.0
C451 C 0.0316 0.47604 0.03831 0.0
H452 H 0.9968 0.59459 0.12442 0.0
H453 H 0.96343 0.51668 0.12987 0.0
H454 H 0.02088 0.46937 0.91146 0.0
H455 H 0.07102 0.53776 0.91399 0.0
H456 H 0.12045 0.07152 0.32071 0.0
H457 H 0.05693 0.13986 0.33287 0.0
H458 H 0.10465 0.05068 0.36181 0.0
H459 H 0.04131 0.11923 0.37361 0.0
H460 H 0.04417 0.093 0.46077 0.0
H461 H 0.0597 0.11056 0.41852 0.0
H462 H 0.06467 0.03019 0.3839 0.0
H463 H 0.04911 1.01239 0.42663 0.0
C464 C 0.10296 0.08199 0.33194 0.0
C465 C 0.09035 0.10765 0.32358 0.0
C466 C 0.09387 0.07003 0.35554 0.0
C467 C 0.07194 0.08341 0.37138 0.0
C468 C 0.05874 0.10858 0.36242 0.0
C469 C 0.06776 0.12047 0.33896 0.0
C470 C 0.0486 0.07894 0.44425 0.0
C471 C 0.04526 0.05121 0.44724 0.0
C472 C 0.05736 0.0891 0.41984 0.0
C473 C 0.06326 0.07191 0.39755 0.0
C474 C 0.06045 0.04405 0.40061 0.0
C475 C 0.0514 0.03385 0.42509 0.0
H476 H 0.43139 0.99355 0.80859 0.0
H477 H 0.4373 0.91228 0.84048 0.0
H478 H 0.44843 1.01015 0.85081 0.0
H479 H 0.45658 0.92854 0.88216 0.0
H480 H 0.46312 0.96856 0.96415 0.0
H481 H 0.44615 0.95177 0.92168 0.0
H482 H 0.4856 1.01424 0.87989 0.0
H483 H 0.50112 0.03179 0.92262 0.0
C484 C 0.43637 0.97907 0.82454 0.0
C485 C 0.43243 0.95147 0.82084 0.0
C486 C 0.44673 0.98862 0.84886 0.0
C487 C 0.45399 0.9709 0.87043 0.0
C488 C 0.4508 0.94313 0.86649 0.0
C489 C 0.44011 0.93362 0.8422 0.0
C490 C 0.46805 0.9788 0.94589 0.0
C491 C 0.48337 1.00168 0.94695 0.0
C492 C 0.45852 0.96897 0.92132 0.0
C493 C 0.46438 0.98141 0.89686 0.0
C494 C 0.47997 1.00424 0.89804 0.0
C495 C 0.48908 1.01432 0.92267 0.0
H496 H 0.56707 0.42884 0.78947 0.0
H497 H 0.59038 0.50924 0.80669 0.0
H498 H 0.5637 0.43962 0.74215 0.0
H499 H 0.58862 0.51953 0.75889 0.0
H500 H 0.54574 0.53659 0.67602 0.0
H501 H 0.55375 0.52774 0.72357 0.0
H502 H 0.59328 0.44717 0.70456 0.0
H503 H 0.58451 0.45591 0.65696 0.0
C504 C 0.5713 0.44891 0.78317 0.0
C505 C 0.57866 0.4683 0.80188 0.0
C506 C 0.56993 0.4549 0.75595 0.0
C507 C 0.57615 0.48034 0.74675 0.0
C508 C 0.58353 0.4998 0.76541 0.0
C509 C 0.58473 0.49385 0.79274 0.0
C510 C 0.55651 0.51715 0.68205 0.0
C511 C 0.56431 0.49681 0.66297 0.0
C512 C 0.56118 0.5121 0.70925 0.0
C513 C 0.57389 0.48667 0.71783 0.0
C514 C 0.58285 0.46676 0.69858 0.0
C515 C 0.57793 0.47174 0.67139 0.0
H516 H 0.99581 0.56993 0.30362 0.0
H517 H 0.90627 0.59333 0.28826 0.0
H518 H 1.00318 0.55973 0.25608 0.0
H519 H 0.91363 0.58382 0.24073 0.0
H520 H 0.93278 0.54395 0.15966 0.0
H521 H 0.92498 0.54899 0.20773 0.0
H522 H 1.00403 0.58553 0.21558 0.0
H523 H 1.01267 0.579 0.16791 0.0
C524 C 0.97773 0.57276 0.29004 0.0
C525 C 0.95052 0.58242 0.2995 0.0
C526 C 0.98193 0.56709 0.26285 0.0
C527 C 0.95904 0.57125 0.24461 0.0
C528 C 0.93164 0.5801 0.25429 0.0
C529 C 0.92741 0.58555 0.2815 0.0
C530 C 0.94862 0.55281 0.17171 0.0
C531 C 0.97337 0.56104 0.15997 0.0
C532 C 0.94401 0.55594 0.1992 0.0
C533 C 0.96396 0.56752 0.21548 0.0
C534 C 0.98849 0.57608 0.20367 0.0
C535 C 0.9932 0.57278 0.17625 0.0
H536 H 0.29292 0.13696 0.07833 0.0
H537 H 0.31121 0.0774 0.14052 0.0
H538 H 0.33819 0.12104 0.05652 0.0
H539 H 0.35639 0.06198 0.11938 0.0
H540 H 0.42208 1.02038 0.06389 0.0
H541 H 0.37605 0.03725 0.08263 0.0
H542 H 0.38917 0.11866 0.05862 0.0
H543 H 0.43509 0.10143 0.03895 0.0
C544 C 0.30669 0.12062 0.08747 0.0
C545 C 0.29817 0.10827 0.11104 0.0
C546 C 0.33274 0.1115 0.075 0.0
C547 C 0.35108 0.0899 0.08589 0.0
C548 C 0.34269 0.07808 0.10981 0.0
C549 C 0.31668 0.08701 0.12208 0.0
C550 C 0.41518 0.04189 0.06248 0.0
C551 C 0.43252 0.05952 0.05001 0.0
C552 C 0.38872 0.05167 0.07346 0.0
C553 C 0.37876 0.0795 0.07262 0.0
C554 C 0.39585 0.0971 0.05959 0.0
C555 C 0.42233 0.08723 0.04838 0.0
H556 H 0.241 0.92611 0.56482 0.0
H557 H 0.21549 0.957 0.64315 0.0
H558 H 0.19587 0.9463 0.54611 0.0
H559 H 0.17037 0.97759 0.62423 0.0
H560 H 0.10285 0.03118 0.57518 0.0
H561 H 0.14928 1.01317 0.59333 0.0
H562 H 0.14506 0.9392 0.54807 0.0
H563 H 0.0987 0.95721 0.52985 0.0
C564 C 0.22575 0.93711 0.57814 0.0
C565 C 0.23195 0.93956 0.60566 0.0
C566 C 0.1998 0.94874 0.56734 0.0
C567 C 0.17925 0.96339 0.58365 0.0
C568 C 0.18574 0.96662 0.611 0.0
C569 C 0.2117 0.95483 0.62187 0.0
C570 C 0.11184 1.0111 0.569 0.0
C571 C 0.09693 0.99567 0.55101 0.0
C572 C 0.13843 1.0007 0.57957 0.0
C573 C 0.15101 0.9747 0.57223 0.0
C574 C 0.13622 0.95941 0.55398 0.0
C575 C 0.10952 0.96969 0.54362 0.0
H576 H 0.77768 0.52554 0.98842 0.0
H577 H 0.80505 0.44369 0.9623 0.0
H578 H 0.82702 0.53207 0.99987 0.0
H579 H 0.85435 0.45011 0.97407 0.0
H580 H 0.94016 0.48852 0.96531 0.0
H581 H 0.8911 0.47917 0.95622 0.0
H582 H 0.86486 0.5139 0.0329 0.0
H583 H 0.91369 0.52336 0.04204 0.0
C584 C 0.79426 0.50895 0.98527 0.0
C585 C 0.78765 0.48413 0.97451 0.0
C586 C 0.82238 0.5126 0.99198 0.0
C587 C 0.84439 0.49158 0.9878 0.0
C588 C 0.83775 0.46667 0.97729 0.0
C589 C 0.80958 0.46293 0.97081 0.0
C590 C 0.92394 0.49403 0.98026 0.0
C591 C 0.93073 0.5068 1.0043 0.0
C592 C 0.89595 0.48855 0.97512 0.0
C593 C 0.87428 0.49594 0.99384 0.0
C594 C 0.88115 0.50829 1.01803 0.0
C595 C 0.90912 0.51358 0.02327 0.0
H596 H 0.7504 0.53024 0.48697 0.0
H597 H 0.7239 0.61315 0.46431 0.0
H598 H 0.70136 0.52457 0.49984 0.0
H599 H 0.67495 0.60759 0.47751 0.0
H600 H 0.58759 0.57146 0.4701 0.0
H601 H 0.63653 0.58004 0.45994 0.0
H602 H 0.66542 0.54259 0.53458 0.0
H603 H 0.61668 0.53391 0.54479 0.0
C604 C 0.73409 0.54724 0.48489 0.0
C605 C 0.74085 0.57211 0.47469 0.0
C606 C 0.70614 0.54408 0.49241 0.0
C607 C 0.68446 0.56566 0.48962 0.0
C608 C 0.69128 0.59061 0.47967 0.0
C609 C 0.71927 0.59384 0.47238 0.0
C610 C 0.60436 0.56524 0.48442 0.0
C611 C 0.59833 0.5519 0.50817 0.0
C612 C 0.6323 0.57026 0.47865 0.0
C613 C 0.65467 0.56185 0.49645 0.0
C614 C 0.64856 0.54899 0.52041 0.0
C615 C 0.62064 0.54416 0.52627 0.0
H616 H 0.11396 0.34319 0.13452 0.0
H617 H 0.07664 0.30202 0.06873 0.0
H618 H 0.09563 0.38677 0.11564 0.0
H619 H 0.05717 0.34574 0.05047 0.0
H620 H 0.05243 0.43011 1.01057 0.0
H621 H 0.07067 0.38588 0.02862 0.0
H622 H 0.05196 0.41554 0.10883 0.0
H623 H 0.03417 0.4598 0.09083 0.0
C624 C 0.10196 0.34333 0.11595 0.0
C625 C 0.09702 0.31881 0.10319 0.0
C626 C 0.09104 0.36846 0.10528 0.0
C627 C 0.07473 0.36999 0.08151 0.0
C628 C 0.06983 0.34551 0.06866 0.0
C629 C 0.08077 0.32032 0.07935 0.0
C630 C 0.05216 0.4272 0.03207 0.0
C631 C 0.04186 0.44867 0.0492 0.0
C632 C 0.06249 0.40172 0.04244 0.0
C633 C 0.06297 0.39698 0.07027 0.0
C634 C 0.0524 0.41842 0.08735 0.0
C635 C 0.04198 0.44385 0.07698 0.0
H636 H 0.58129 0.29967 0.02492 0.0
H637 H 0.60594 0.28309 0.94275 0.0
H638 H 0.55951 0.25712 0.02641 0.0
H639 H 0.58494 0.24022 0.94435 0.0
H640 H 0.52823 0.17214 0.94968 0.0
H641 H 0.54108 0.21874 0.94761 0.0
H642 H 0.57715 0.21019 0.02736 0.0
H643 H 0.5633 0.16455 0.02978 0.0
C644 C 0.58211 0.28682 1.00725 0.0
C645 C 0.59538 0.29448 0.98381 0.0
C646 C 0.56966 0.26251 1.00805 0.0
C647 C 0.5706 0.24525 0.98552 0.0
C648 C 0.58342 0.25325 0.96189 0.0
C649 C 0.59561 0.27768 0.96103 0.0
C650 C 0.53849 0.1805 0.96684 0.0
C651 C 0.54515 0.16467 0.98972 0.0
C652 C 0.54606 0.20702 0.9656 0.0
C653 C 0.56024 0.21811 0.98729 0.0
C654 C 0.56597 0.20245 1.01043 0.0
C655 C 0.5584 0.17612 1.01167 0.0
H656 H 0.92598 0.76959 0.44188 0.0
H657 H 0.94961 0.75356 0.52444 0.0
H658 H 0.94687 0.8125 0.44411 0.0
H659 H 0.97123 0.7962 0.52659 0.0
H660 H 0.96635 0.88895 0.53037 0.0
H661 H 0.95301 0.84311 0.52741 0.0
H662 H 0.99052 0.8343 0.44849 0.0
H663 H 1.00287 0.88105 0.45109 0.0
C664 C 0.9361 0.7751 0.46037 0.0
C665 C 0.93603 0.75846 0.48307 0.0
C666 C 0.94821 0.79957 0.46161 0.0
C667 C 0.96064 0.80779 0.48555 0.0
C668 C 0.96138 0.79064 0.50799 0.0
C669 C 0.94902 0.76628 0.50681 0.0
C670 C 0.97167 0.87728 0.51233 0.0
C671 C 0.98521 0.88868 0.49076 0.0
C672 C 0.96441 0.85084 0.51079 0.0
C673 C 0.97071 0.83504 0.48772 0.0
C674 C 0.98512 0.84611 0.46642 0.0
C675 C 0.9924 0.87273 0.46797 0.0
H676 H 0.41194 0.74102 0.59129 0.0
H677 H 0.48648 0.72823 0.64227 0.0
H678 H 0.42529 0.69714 0.56965 0.0
H679 H 0.50037 0.6852 0.61999 0.0
H680 H 0.50117 0.5964 0.59746 0.0
H681 H 0.48661 0.64043 0.61753 0.0
H682 H 0.45944 0.67188 0.53993 0.0
H683 H 0.47357 0.6273 0.51979 0.0
C684 C 0.43119 0.72895 0.5979 0.0
C685 C 0.44803 0.73839 0.61868 0.0
C686 C 0.43904 0.70385 0.58523 0.0
C687 C 0.4639 0.68735 0.59306 0.0
C688 C 0.48086 0.69699 0.61359 0.0
C689 C 0.47305 0.72201 0.6262 0.0
C690 C 0.49209 0.61263 0.58457 0.0
C691 C 0.48867 0.60816 0.55691 0.0
C692 C 0.48386 0.63807 0.59612 0.0
C693 C 0.472 0.66001 0.58043 0.0
C694 C 0.46827 0.65551 0.55275 0.0
C695 C 0.47653 0.62994 0.54115 0.0
H696 H 0.90123 0.93661 0.70096 0.0
H697 H 0.97777 0.95941 0.73899 0.0
H698 H 0.91433 0.95807 0.65952 0.0
H699 H 0.99124 0.98017 0.69732 0.0
H700 H 0.99503 0.03596 0.62394 0.0
H701 H 0.97917 1.018 0.66637 0.0
H702 H 0.94947 0.95014 0.62396 0.0
H703 H 0.96517 0.96804 0.58177 0.0
C704 C 0.92074 0.94637 0.70065 0.0
C705 C 0.93841 0.94605 0.72354 0.0
C706 C 0.92845 0.95846 0.67668 0.0
C707 C 0.954 0.97082 0.67483 0.0
C708 C 0.97133 0.97108 0.69789 0.0
C709 C 0.96371 0.95885 0.72181 0.0
C710 C 0.98494 1.01731 0.62365 0.0
C711 C 0.98144 1.00352 0.5993 0.0
C712 C 0.97599 1.00688 0.64805 0.0
C713 C 0.96295 0.98253 0.64878 0.0
C714 C 0.95906 0.96906 0.62432 0.0
C715 C 0.96827 0.97929 0.60004 0.0
H716 H 0.61784 0.07742 0.22822 0.0
H717 H 0.55572 0.14591 0.21203 0.0
H718 H 0.60483 0.05617 0.18602 0.0
H719 H 0.54245 0.12458 0.17042 0.0
H720 H 0.54752 0.09467 0.08404 0.0
H721 H 0.56224 0.11381 0.12622 0.0
H722 H 0.56507 0.03503 0.1632 0.0
H723 H 0.55025 1.01565 0.1206 0.0
C724 C 0.60146 0.088 0.21572 0.0
C725 C 0.58786 0.11346 0.22377 0.0
C726 C 0.59379 0.07567 0.19159 0.0
C727 C 0.57258 0.0886 0.1746 0.0
C728 C 0.55907 0.11404 0.1827 0.0
C729 C 0.56651 0.1262 0.20683 0.0
C730 C 0.55132 0.08127 0.10106 0.0
C731 C 0.54753 0.05352 0.09874 0.0
C732 C 0.55964 0.09236 0.12542 0.0
C733 C 0.56469 0.07611 0.14837 0.0
C734 C 0.56153 0.0482 0.14599 0.0
C735 C 0.55291 0.03708 0.12155 0.0
H736 H 0.43648 0.55224 0.2453 0.0
H737 H 0.45706 0.6334 0.26324 0.0
H738 H 0.44091 0.54083 0.29278 0.0
H739 H 0.46299 0.62161 0.3102 0.0
H740 H 0.44622 0.60224 0.39575 0.0
H741 H 0.43548 0.61192 0.34864 0.0
H742 H 0.47764 0.53318 0.32664 0.0
H743 H 0.48761 0.52334 0.37376 0.0
C744 C 0.44206 0.56758 0.25935 0.0
C745 C 0.44661 0.59365 0.25051 0.0
C746 C 0.4448 0.56099 0.28648 0.0
C747 C 0.45219 0.58036 0.30523 0.0
C748 C 0.45682 0.60636 0.29633 0.0
C749 C 0.45394 0.61297 0.26932 0.0
C750 C 0.45299 0.58702 0.38077 0.0
C751 C 0.46787 0.56217 0.38822 0.0
C752 C 0.44695 0.59254 0.35386 0.0
C753 C 0.45599 0.57342 0.33392 0.0
C754 C 0.4701 0.5482 0.34153 0.0
C755 C 0.4759 0.5426 0.36847 0.0
H756 H 0.07213 0.52331 0.73668 0.0
H757 H 0.12621 0.45122 0.75921 0.0
H758 H 0.05229 0.52664 0.7819 0.0
H759 H 0.1079 0.45516 0.80475 0.0
H760 H 0.05678 0.45583 0.8797 0.0
H761 H 0.06882 0.45087 0.83247 0.0
H762 H 0.06485 0.53816 0.82531 0.0
H763 H 0.05029 0.54314 0.87163 0.0
C764 C 0.07987 0.50837 0.7515 0.0
C765 C 0.10058 0.48707 0.74475 0.0
C766 C 0.06867 0.51026 0.77738 0.0
C767 C 0.07851 0.49118 0.79706 0.0
C768 C 0.09933 0.46987 0.79006 0.0
C769 C 0.11005 0.46772 0.76409 0.0
C770 C 0.05785 0.47397 0.86789 0.0
C771 C 0.05293 0.49987 0.8796 0.0
C772 C 0.06518 0.47112 0.84087 0.0
C773 C 0.06817 0.4941 0.82509 0.0
C774 C 0.0625 0.51999 0.83668 0.0
C775 C 0.05468 0.52283 0.86349 0.0
H776 H 0.70825 0.91426 0.91693 0.0
H777 H 0.74745 0.98168 0.95088 0.0
H778 H 0.66415 0.92898 0.94084 0.0
H779 H 0.70333 0.99647 0.97453 0.0
H780 H 0.60989 0.03374 0.98312 0.0
H781 H 0.65554 1.0167 0.96342 0.0
H782 H 0.64117 0.93497 0.98495 0.0
H783 H 0.59512 0.95209 1.00458 0.0
C784 C 0.70769 0.93199 0.92977 0.0
C785 C 0.73154 0.94686 0.93165 0.0
C786 C 0.68229 0.94047 0.94351 0.0
C787 C 0.67994 0.96411 0.95949 0.0
C788 C 0.70406 0.9785 0.962 0.0
C789 C 0.72944 0.96999 0.94835 0.0
C790 C 0.61645 1.01212 0.98382 0.0
C791 C 0.59867 0.99432 0.99545 0.0
C792 C 0.64281 1.00234 0.97262 0.0
C793 C 0.65221 0.97441 0.97253 0.0
C794 C 0.63456 0.95657 0.98439 0.0
C795 C 0.60821 0.96641 0.99582 0.0
H796 H 0.81246 0.07448 0.40031 0.0
H797 H 0.79208 0.13555 0.46123 0.0
H798 H 0.85671 0.05942 0.42347 0.0
H799 H 0.83655 0.12018 0.48481 0.0
H800 H 0.93342 0.10114 0.50484 0.0
H801 H 0.88797 0.11786 0.48368 0.0
H802 H 0.87444 0.03567 0.46193 0.0
H803 H 0.91995 1.01923 0.48224 0.0
C804 C 0.81723 0.08452 0.41888 0.0
C805 C 0.79839 0.1061 0.42896 0.0
C806 C 0.84272 0.07581 0.43227 0.0
C807 C 0.8503 0.08827 0.45632 0.0
C808 C 0.83168 0.11016 0.46627 0.0
C809 C 0.8061 0.11899 0.45274 0.0
C810 C 0.92064 0.08665 0.49564 0.0
C811 C 0.93057 0.05883 0.49507 0.0
C812 C 0.89446 0.09624 0.48357 0.0
C813 C 0.87747 0.07823 0.47069 0.0
C814 C 0.8871 0.05033 0.47097 0.0
C815 C 0.91324 0.04082 0.48285 0.0
H816 H 0.24308 0.58294 0.03533 0.0
H817 H 0.22531 0.55529 0.11493 0.0
H818 H 0.19423 0.57713 0.02167 0.0
H819 H 0.17704 0.54838 0.10099 0.0
H820 H 0.08456 0.56769 0.07694 0.0
H821 H 0.13308 0.57592 0.08891 0.0
H822 H 0.16349 0.54108 1.01342 0.0
H823 H 0.11481 0.53337 1.00113 0.0
C824 C 0.22878 0.57554 0.04986 0.0
C825 C 0.23804 0.56956 0.07619 0.0
C826 C 0.20092 0.57198 0.04198 0.0
C827 C 0.18179 0.56241 0.0603 0.0
C828 C 0.19117 0.55616 0.08652 0.0
C829 C 0.21896 0.55974 0.0944 0.0
C830 C 0.10156 0.56195 0.06281 0.0
C831 C 0.0959 0.54975 0.03815 0.0
C832 C 0.12937 0.5665 0.06975 0.0
C833 C 0.15211 0.5589 0.05221 0.0
C834 C 0.14637 0.54733 0.02726 0.0
C835 C 0.11851 0.54282 0.02028 0.0
H836 H 0.28697 0.50339 0.57581 0.0
H837 H 0.31195 0.42968 0.53109 0.0
H838 H 0.33581 0.51554 0.57299 0.0
H839 H 0.36023 0.44269 0.52729 0.0
H840 H 0.42777 0.49874 0.49801 0.0
H841 H 0.37998 0.48502 0.50371 0.0
H842 H 0.38813 0.49289 0.58953 0.0
H843 H 0.43654 0.50624 0.58394 0.0
C844 C 0.3028 0.48973 0.56548 0.0
C845 C 0.29545 0.46557 0.55359 0.0
C846 C 0.33068 0.49674 0.56388 0.0
C847 C 0.35155 0.47997 0.54999 0.0
C848 C 0.34432 0.45598 0.53797 0.0
C849 C 0.31661 0.44873 0.53993 0.0
C850 C 0.41943 0.49748 0.51812 0.0
C851 C 0.43577 0.50354 0.54056 0.0
C852 C 0.39219 0.48954 0.52134 0.0
C853 C 0.38059 0.48795 0.54701 0.0
C854 C 0.39676 0.4941 0.56954 0.0
C855 C 0.42437 0.50156 0.56635 0.0
H856 H 0.95873 0.75465 0.96699 0.0
H857 H 0.91913 0.71433 0.90193 0.0
H858 H 0.97562 0.71072 0.98622 0.0
H859 H 0.93657 0.67045 0.92096 0.0
H860 H 0.99592 0.59626 0.94887 0.0
H861 H 0.98016 0.64044 0.92957 0.0
H862 H 0.95765 0.6718 1.0084 0.0
H863 H 0.97367 0.62751 0.02782 0.0
C864 C 0.95346 0.7365 0.95676 0.0
C865 C 0.93734 0.73836 0.93281 0.0
C866 C 0.96323 0.71121 0.96786 0.0
C867 C 0.95743 0.68689 0.95528 0.0
C868 C 0.94179 0.68867 0.9311 0.0
C869 C 0.93184 0.71397 0.92009 0.0
C870 C 0.98765 0.61254 0.96217 0.0
C871 C 0.98609 0.60817 0.98998 0.0
C872 C 0.97843 0.63792 0.95102 0.0
C873 C 0.96752 0.65983 0.96733 0.0
C874 C 0.96618 0.65554 0.9952 0.0
C875 C 0.97524 0.63006 1.00635 0.0
H876 H 0.41939 0.77281 0.11249 0.0
H877 H 0.43899 0.76415 0.02822 0.0
H878 H 0.44125 0.81537 0.1139 0.0
H879 H 0.46081 0.80689 0.02959 0.0
H880 H 0.5199 0.87186 0.04777 0.0
H881 H 0.50351 0.82672 0.05143 0.0
H882 H 0.42808 0.8616 0.09312 0.0
H883 H 0.44449 0.90657 0.08951 0.0
C884 C 0.42856 0.77998 0.09433 0.0
C885 C 0.42754 0.76531 0.07022 0.0
C886 C 0.44095 0.80431 0.09512 0.0
C887 C 0.45281 0.81427 0.0719 0.0
C888 C 0.45211 0.79944 0.04785 0.0
C889 C 0.43939 0.77523 0.04698 0.0
C890 C 0.50018 0.86969 0.05825 0.0
C891 C 0.48337 0.89256 0.0683 0.0
C892 C 0.49068 0.844 0.06009 0.0
C893 C 0.46445 0.8408 0.07233 0.0
C894 C 0.44844 0.8635 0.08368 0.0
C895 C 0.45776 0.88919 0.08156 0.0
H896 H 0.11326 0.27967 0.60346 0.0
H897 H 0.04343 0.3115 0.55241 0.0
H898 H 0.09989 0.23372 0.59666 0.0
H899 H 0.03027 0.26537 0.54533 0.0
H900 H 0.04475 0.17327 0.51774 0.0
H901 H 0.05659 0.21991 0.52372 0.0
H902 H 0.05294 0.21064 0.6096 0.0
H903 H 0.04054 0.16407 0.60356 0.0
C904 C 0.09527 0.27672 0.59054 0.0
C905 C 0.07935 0.29895 0.57837 0.0
C906 C 0.08751 0.25058 0.58687 0.0
C907 C 0.064 0.24624 0.57065 0.0
C908 C 0.04849 0.26836 0.55793 0.0
C909 C 0.05594 0.2946 0.56199 0.0
C910 C 0.04628 0.18138 0.53785 0.0
C911 C 0.04177 0.16536 0.56024 0.0
C912 C 0.05294 0.20794 0.54124 0.0
C913 C 0.0557 0.21863 0.56708 0.0
C914 C 0.05103 0.20265 0.58949 0.0
C915 C 0.0438 0.17623 0.58608 0.0
H916 H 0.63388 0.32367 0.46224 0.0
H917 H 0.55644 0.3227 0.41576 0.0
H918 H 0.61591 0.3674 0.48136 0.0
H919 H 0.53831 0.36664 0.43505 0.0
H920 H 0.5284 0.45853 0.45451 0.0
H921 H 0.54517 0.41436 0.4353 0.0
H922 H 0.58093 0.38857 0.51201 0.0
H923 H 0.56447 0.43292 0.53112 0.0
C924 C 0.61285 0.33263 0.45626 0.0
C925 C 0.5966 0.31938 0.43749 0.0
C926 C 0.60248 0.35782 0.46731 0.0
C927 C 0.5755 0.3707 0.45999 0.0
C928 C 0.55931 0.3576 0.44101 0.0
C929 C 0.56972 0.33234 0.42991 0.0
C930 C 0.53984 0.44346 0.46733 0.0
C931 C 0.54515 0.44947 0.4944 0.0
C932 C 0.54931 0.41796 0.45631 0.0
C933 C 0.56455 0.3977 0.47197 0.0
C934 C 0.56965 0.40368 0.49913 0.0
C935 C 0.56004 0.42913 0.51019 0.0
loop_
_geom_bond_atom_site_label_1
_geom_bond_atom_site_label_2
_geom_bond_distance
_geom_bond_site_symmetry_2
_ccdc_geom_bond_type
C0 C1 1.264 . S
C0 C5 1.479 . S
C0 C10 1.465 . S
C1 C0 1.264 . S
C1 C3 1.339 . S
C1 H28 0.931 . S
C2 C3 1.395 . S
C2 C4 1.320 . S
C3 C1 1.339 . S
C3 C2 1.395 . S
C3 H29 0.929 . S
C4 C2 1.320 . S
C4 C5 1.405 . S
C4 H30 0.930 . S
C5 C0 1.479 . S
C5 C4 1.405 . S
C5 H31 0.931 . S
U6 O7 2.454 . S
U6 O8 2.458 . S
U6 C9 2.984 . S
U6 C10 2.847 . S
U6 C23 2.882 . S
U6 O24 2.441 . S
U6 O25 2.420 . S
U6 O26 2.455 . S
U6 O27 2.449 . S
O7 U6 2.454 . S
O7 C9 1.353 . S
O8 U6 2.458 . S
O8 C9 1.286 . S
C9 U6 2.984 . S
C9 O7 1.353 . S
C9 O8 1.286 . S
C9 C11 1.363 . S
C10 C0 1.465 . S
C10 U6 2.847 . S
C10 O24 1.249 . S
C10 O25 1.202 . S
C11 C9 1.363 . S
C11 C13 1.408 . S
C11 C16 1.342 . S
C12 C13 1.310 . S
C12 C15 1.461 . S
C12 H32 0.932 . S
C13 C11 1.408 . S
C13 C12 1.310 . S
C13 H33 0.930 . S
C14 C15 1.474 . S
C14 C16 1.285 . S
C14 H34 0.929 . S
C15 C12 1.461 . S
C15 C14 1.474 . S
C16 C11 1.342 . S
C16 C14 1.285 . S
C16 H35 0.930 . S
C17 C20 1.424 . S
C17 C22 1.245 . S
C17 C23 1.428 . S
C18 C21 1.260 . S
C18 C22 1.477 . S
C18 H36 0.932 . S
C19 C20 1.384 . S
C19 C21 1.479 . S
C19 H37 0.929 . S
C20 C17 1.424 . S
C20 C19 1.384 . S
C20 H38 0.928 . S
C21 C18 1.260 . S
C21 C19 1.479 . S
C22 C17 1.245 . S
C22 C18 1.477 . S
C22 H39 0.932 . S
C23 U6 2.882 . S
C23 C17 1.428 . S
C23 O26 1.301 . S
C23 O27 1.282 . S
O24 U6 2.441 . S
O24 C10 1.249 . S
O25 U6 2.420 . S
O25 C10 1.202 . S
O26 U6 2.455 . S
O26 C23 1.301 . S
O27 U6 2.449 . S
O27 C23 1.282 . S
H28 C1 0.931 . S
H29 C3 0.929 . S
H30 C4 0.930 . S
H31 C5 0.931 . S
H32 C12 0.932 . S
H33 C13 0.930 . S
H34 C14 0.929 . S
H35 C16 0.930 . S
H36 C18 0.932 . S
H37 C19 0.929 . S
H38 C20 0.928 . S
H39 C22 0.932 . S
C40 C41 1.264 . S
C40 C45 1.479 . S
C40 C50 1.465 . S
C41 C40 1.264 . S
C41 C43 1.339 . S
C41 H68 0.931 . S
C42 C43 1.395 . S
C42 C44 1.320 . S
C43 C41 1.339 . S
C43 C42 1.395 . S
C43 H69 0.929 . S
C44 C42 1.320 . S
C44 C45 1.405 . S
C44 H70 0.930 . S
C45 C40 1.479 . S
C45 C44 1.405 . S
C45 H71 0.931 . S
U46 O47 2.454 . S
U46 O48 2.458 . S
U46 C49 2.984 . S
U46 C50 2.847 . S
U46 C63 2.882 . S
U46 O64 2.441 . S
U46 O65 2.420 . S
U46 O66 2.455 . S
U46 O67 2.449 . S
O47 U46 2.454 . S
O47 C49 1.353 . S
O48 U46 2.458 . S
O48 C49 1.286 . S
C49 U46 2.984 . S
C49 O47 1.353 . S
C49 O48 1.286 . S
C49 C51 1.363 . S
C50 C40 1.465 . S
C50 U46 2.847 . S
C50 O64 1.249 . S
C50 O65 1.202 . S
C51 C49 1.363 . S
C51 C53 1.408 . S
C51 C56 1.342 . S
C52 C53 1.310 . S
C52 C55 1.461 . S
C52 H72 0.932 . S
C53 C51 1.408 . S
C53 C52 1.310 . S
C53 H73 0.930 . S
C54 C55 1.474 . S
C54 C56 1.285 . S
C54 H74 0.929 . S
C55 C52 1.461 . S
C55 C54 1.474 . S
C56 C51 1.342 . S
C56 C54 1.285 . S
C56 H75 0.930 . S
C57 C60 1.424 . S
C57 C62 1.245 . S
C57 C63 1.428 . S
C58 C61 1.260 . S
C58 C62 1.477 . S
C58 H76 0.932 . S
C59 C60 1.384 . S
C59 C61 1.479 . S
C59 H77 0.929 . S
C60 C57 1.424 . S
C60 C59 1.384 . S
C60 H78 0.928 . S
C61 C58 1.260 . S
C61 C59 1.479 . S
C62 C57 1.245 . S
C62 C58 1.477 . S
C62 H79 0.932 . S
C63 U46 2.882 . S
C63 C57 1.428 . S
C63 O66 1.301 . S
C63 O67 1.282 . S
O64 U46 2.441 . S
O64 C50 1.249 . S
O65 U46 2.420 . S
O65 C50 1.202 . S
O66 U46 2.455 . S
O66 C63 1.301 . S
O67 U46 2.449 . S
O67 C63 1.282 . S
H68 C41 0.931 . S
H69 C43 0.929 . S
H70 C44 0.930 . S
H71 C45 0.931 . S
H72 C52 0.932 . S
H73 C53 0.930 . S
H74 C54 0.929 . S
H75 C56 0.930 . S
H76 C58 0.932 . S
H77 C59 0.929 . S
H78 C60 0.928 . S
H79 C62 0.932 . S
C80 C81 1.264 . S
C80 C85 1.479 . S
C80 C90 1.465 . S
C81 C80 1.264 . S
C81 C83 1.339 . S
C81 H108 0.931 . S
C82 C83 1.395 . S
C82 C84 1.320 . S
C83 C81 1.339 . S
C83 C82 1.395 . S
C83 H109 0.929 . S
C84 C82 1.320 . S
C84 C85 1.405 . S
C84 H110 0.930 . S
C85 C80 1.479 . S
C85 C84 1.405 . S
C85 H111 0.931 . S
U86 O87 2.454 . S
U86 O88 2.458 . S
U86 C89 2.984 . S
U86 C90 2.847 . S
U86 C103 2.882 . S
U86 O104 2.441 . S
U86 O105 2.420 . S
U86 O106 2.455 . S
U86 O107 2.449 . S
O87 U86 2.454 . S
O87 C89 1.353 . S
O88 U86 2.458 . S
O88 C89 1.286 . S
C89 U86 2.984 . S
C89 O87 1.353 . S
C89 O88 1.286 . S
C89 C91 1.363 . S
C90 C80 1.465 . S
C90 U86 2.847 . S
C90 O104 1.249 . S
C90 O105 1.202 . S
C91 C89 1.363 . S
C91 C93 1.408 . S
C91 C96 1.342 . S
C92 C93 1.310 . S
C92 C95 1.461 . S
C92 H112 0.932 . S
C93 C91 1.408 . S
C93 C92 1.310 . S
C93 H113 0.930 . S
C94 C95 1.474 . S
C94 C96 1.285 . S
C94 H114 0.929 . S
C95 C92 1.461 . S
C95 C94 1.474 . S
C96 C91 1.342 . S
C96 C94 1.285 . S
C96 H115 0.930 . S
C97 C100 1.424 . S
C97 C102 1.245 . S
C97 C103 1.428 . S
C98 C101 1.260 . S
C98 C102 1.477 . S
C98 H116 0.932 . S
C99 C100 1.384 . S
C99 C101 1.479 . S
C99 H117 0.929 . S
C100 C97 1.424 . S
C100 C99 1.384 . S
C100 H118 0.928 . S
C101 C98 1.260 . S
C101 C99 1.479 . S
C102 C97 1.245 . S
C102 C98 1.477 . S
C102 H119 0.932 . S
C103 U86 2.882 . S
C103 C97 1.428 . S
C103 O106 1.301 . S
C103 O107 1.282 . S
O104 U86 2.441 . S
O104 C90 1.249 . S
O105 U86 2.420 . S
O105 C90 1.202 . S
O106 U86 2.455 . S
O106 C103 1.301 . S
O107 U86 2.449 . S
O107 C103 1.282 . S
H108 C81 0.931 . S
H109 C83 0.929 . S
H110 C84 0.930 . S
H111 C85 0.931 . S
H112 C92 0.932 . S
H113 C93 0.930 . S
H114 C94 0.929 . S
H115 C96 0.930 . S
H116 C98 0.932 . S
H117 C99 0.929 . S
H118 C100 0.928 . S
H119 C102 0.932 . S
C120 C121 1.264 . S
C120 C125 1.479 . S
C120 C130 1.465 . S
C121 C120 1.264 . S
C121 C123 1.339 . S
C121 H148 0.931 . S
C122 C123 1.395 . S
C122 C124 1.320 . S
C123 C121 1.339 . S
C123 C122 1.395 . S
C123 H149 0.929 . S
C124 C122 1.320 . S
C124 C125 1.405 . S
C124 H150 0.930 . S
C125 C120 1.479 . S
C125 C124 1.405 . S
C125 H151 0.931 . S
U126 O127 2.454 . S
U126 O128 2.458 . S
U126 C129 2.984 . S
U126 C130 2.847 . S
U126 C143 2.882 . S
U126 O144 2.441 . S
U126 O145 2.420 . S
U126 O146 2.455 . S
U126 O147 2.449 . S
O127 U126 2.454 . S
O127 C129 1.353 . S
O128 U126 2.458 . S
O128 C129 1.286 . S
C129 U126 2.984 . S
C129 O127 1.353 . S
C129 O128 1.286 . S
C129 C131 1.363 . S
C130 C120 1.465 . S
C130 U126 2.847 . S
C130 O144 1.249 . S
C130 O145 1.202 . S
C131 C129 1.363 . S
C131 C133 1.408 . S
C131 C136 1.342 . S
C132 C133 1.310 . S
C132 C135 1.461 . S
C132 H152 0.932 . S
C133 C131 1.408 . S
C133 C132 1.310 . S
C133 H153 0.930 . S
C134 C135 1.474 . S
C134 C136 1.285 . S
C134 H154 0.929 . S
C135 C132 1.461 . S
C135 C134 1.474 . S
C136 C131 1.342 . S
C136 C134 1.285 . S
C136 H155 0.930 . S
C137 C140 1.424 . S
C137 C142 1.245 . S
C137 C143 1.428 . S
C138 C141 1.260 . S
C138 C142 1.477 . S
C138 H156 0.932 . S
C139 C140 1.384 . S
C139 C141 1.479 . S
C139 H157 0.929 . S
C140 C137 1.424 . S
C140 C139 1.384 . S
C140 H158 0.928 . S
C141 C138 1.260 . S
C141 C139 1.479 . S
C142 C137 1.245 . S
C142 C138 1.477 . S
C142 H159 0.932 . S
C143 U126 2.882 . S
C143 C137 1.428 . S
C143 O146 1.301 . S
C143 O147 1.282 . S
O144 U126 2.441 . S
O144 C130 1.249 . S
O145 U126 2.420 . S
O145 C130 1.202 . S
O146 U126 2.455 . S
O146 C143 1.301 . S
O147 U126 2.449 . S
O147 C143 1.282 . S
H148 C121 0.931 . S
H149 C123 0.929 . S
H150 C124 0.930 . S
H151 C125 0.931 . S
H152 C132 0.932 . S
H153 C133 0.930 . S
H154 C134 0.929 . S
H155 C136 0.930 . S
H156 C138 0.932 . S
H157 C139 0.929 . S
H158 C140 0.928 . S
H159 C142 0.932 . S
C160 C161 1.264 . S
C160 C165 1.479 . S
C160 C170 1.465 . S
C161 C160 1.264 . S
C161 C163 1.339 . S
C161 H188 0.931 . S
C162 C163 1.395 . S
C162 C164 1.320 . S
C163 C161 1.339 . S
C163 C162 1.395 . S
C163 H189 0.929 . S
C164 C162 1.320 . S
C164 C165 1.405 . S
C164 H190 0.930 . S
C165 C160 1.479 . S
C165 C164 1.405 . S
C165 H191 0.931 . S
U166 O167 2.454 . S
U166 O168 2.458 . S
U166 C169 2.984 . S
U166 C170 2.847 . S
U166 C183 2.882 . S
U166 O184 2.441 . S
U166 O185 2.420 . S
U166 O186 2.455 . S
U166 O187 2.449 . S
O167 U166 2.454 . S
O167 C169 1.353 . S
O168 U166 2.458 . S
O168 C169 1.286 . S
C169 U166 2.984 . S
C169 O167 1.353 . S
C169 O168 1.286 . S
C169 C171 1.363 . S
C170 C160 1.465 . S
C170 U166 2.847 . S
C170 O184 1.249 . S
C170 O185 1.202 . S
C171 C169 1.363 . S
C171 C173 1.408 . S
C171 C176 1.342 . S
C172 C173 1.310 . S
C172 C175 1.461 . S
C172 H192 0.932 . S
C173 C171 1.408 . S
C173 C172 1.310 . S
C173 H193 0.930 . S
C174 C175 1.474 . S
C174 C176 1.285 . S
C174 H194 0.929 . S
C175 C172 1.461 . S
C175 C174 1.474 . S
C176 C171 1.342 . S
C176 C174 1.285 . S
C176 H195 0.930 . S
C177 C180 1.424 . S
C177 C182 1.245 . S
C177 C183 1.428 . S
C178 C181 1.260 . S
C178 C182 1.477 . S
C178 H196 0.932 . S
C179 C180 1.384 . S
C179 C181 1.479 . S
C179 H197 0.929 . S
C180 C177 1.424 . S
C180 C179 1.384 . S
C180 H198 0.928 . S
C181 C178 1.260 . S
C181 C179 1.479 . S
C182 C177 1.245 . S
C182 C178 1.477 . S
C182 H199 0.932 . S
C183 U166 2.882 . S
C183 C177 1.428 . S
C183 O186 1.301 . S
C183 O187 1.282 . S
O184 U166 2.441 . S
O184 C170 1.249 . S
O185 U166 2.420 . S
O185 C170 1.202 . S
O186 U166 2.455 . S
O186 C183 1.301 . S
O187 U166 2.449 . S
O187 C183 1.282 . S
H188 C161 0.931 . S
H189 C163 0.929 . S
H190 C164 0.930 . S
H191 C165 0.931 . S
H192 C172 0.932 . S
H193 C173 0.930 . S
H194 C174 0.929 . S
H195 C176 0.930 . S
H196 C178 0.932 . S
H197 C179 0.929 . S
H198 C180 0.928 . S
H199 C182 0.932 . S
C200 C201 1.264 . S
C200 C205 1.479 . S
C200 C210 1.465 . S
C201 C200 1.264 . S
C201 C203 1.339 . S
C201 H228 0.931 . S
C202 C203 1.395 . S
C202 C204 1.320 . S
C203 C201 1.339 . S
C203 C202 1.395 . S
C203 H229 0.929 . S
C204 C202 1.320 . S
C204 C205 1.405 . S
C204 H230 0.930 . S
C205 C200 1.479 . S
C205 C204 1.405 . S
C205 H231 0.931 . S
U206 O207 2.454 . S
U206 O208 2.458 . S
U206 C209 2.984 . S
U206 C210 2.847 . S
U206 C223 2.882 . S
U206 O224 2.441 . S
U206 O225 2.420 . S
U206 O226 2.455 . S
U206 O227 2.449 . S
O207 U206 2.454 . S
O207 C209 1.353 . S
O208 U206 2.458 . S
O208 C209 1.286 . S
C209 U206 2.984 . S
C209 O207 1.353 . S
C209 O208 1.286 . S
C209 C211 1.363 . S
C210 C200 1.465 . S
C210 U206 2.847 . S
C210 O224 1.249 . S
C210 O225 1.202 . S
C211 C209 1.363 . S
C211 C213 1.408 . S
C211 C216 1.342 . S
C212 C213 1.310 . S
C212 C215 1.461 . S
C212 H232 0.932 . S
C213 C211 1.408 . S
C213 C212 1.310 . S
C213 H233 0.930 . S
C214 C215 1.474 . S
C214 C216 1.285 . S
C214 H234 0.929 . S
C215 C212 1.461 . S
C215 C214 1.474 . S
C216 C211 1.342 . S
C216 C214 1.285 . S
C216 H235 0.930 . S
C217 C220 1.424 . S
C217 C222 1.245 . S
C217 C223 1.428 . S
C218 C221 1.260 . S
C218 C222 1.477 . S
C218 H236 0.932 . S
C219 C220 1.384 . S
C219 C221 1.479 . S
C219 H237 0.929 . S
C220 C217 1.424 . S
C220 C219 1.384 . S
C220 H238 0.928 . S
C221 C218 1.260 . S
C221 C219 1.479 . S
C222 C217 1.245 . S
C222 C218 1.477 . S
C222 H239 0.932 . S
C223 U206 2.882 . S
C223 C217 1.428 . S
C223 O226 1.301 . S
C223 O227 1.282 . S
O224 U206 2.441 . S
O224 C210 1.249 . S
O225 U206 2.420 . S
O225 C210 1.202 . S
O226 U206 2.455 . S
O226 C223 1.301 . S
O227 U206 2.449 . S
O227 C223 1.282 . S
H228 C201 0.931 . S
H229 C203 0.929 . S
H230 C204 0.930 . S
H231 C205 0.931 . S
H232 C212 0.932 . S
H233 C213 0.930 . S
H234 C214 0.929 . S
H235 C216 0.930 . S
H236 C218 0.932 . S
H237 C219 0.929 . S
H238 C220 0.928 . S
H239 C222 0.932 . S
C240 C241 1.264 . S
C240 C245 1.479 . S
C240 C250 1.465 . S
C241 C240 1.264 . S
C241 C243 1.339 . S
C241 H268 0.931 . S
C242 C243 1.395 . S
C242 C244 1.320 . S
C243 C241 1.339 . S
C243 C242 1.395 . S
C243 H269 0.929 . S
C244 C242 1.320 . S
C244 C245 1.405 . S
C244 H270 0.930 . S
C245 C240 1.479 . S
C245 C244 1.405 . S
C245 H271 0.931 . S
U246 O247 2.454 . S
U246 O248 2.458 . S
U246 C249 2.984 . S
U246 C250 2.847 . S
U246 C263 2.882 . S
U246 O264 2.441 . S
U246 O265 2.420 . S
U246 O266 2.455 . S
U246 O267 2.449 . S
O247 U246 2.454 . S
O247 C249 1.353 . S
O248 U246 2.458 . S
O248 C249 1.286 . S
C249 U246 2.984 . S
C249 O247 1.353 . S
C249 O248 1.286 . S
C249 C251 1.363 . S
C250 C240 1.465 . S
C250 U246 2.847 . S
C250 O264 1.249 . S
C250 O265 1.202 . S
C251 C249 1.363 . S
C251 C253 1.408 . S
C251 C256 1.342 . S
C252 C253 1.310 . S
C252 C255 1.461 . S
C252 H272 0.932 . S
C253 C251 1.408 . S
C253 C252 1.310 . S
C253 H273 0.930 . S
C254 C255 1.474 . S
C254 C256 1.285 . S
C254 H274 0.929 . S
C255 C252 1.461 . S
C255 C254 1.474 . S
C256 C251 1.342 . S
C256 C254 1.285 . S
C256 H275 0.930 . S
C257 C260 1.424 . S
C257 C262 1.245 . S
C257 C263 1.428 . S
C258 C261 1.260 . S
C258 C262 1.477 . S
C258 H276 0.932 . S
C259 C260 1.384 . S
C259 C261 1.479 . S
C259 H277 0.929 . S
C260 C257 1.424 . S
C260 C259 1.384 . S
C260 H278 0.928 . S
C261 C258 1.260 . S
C261 C259 1.479 . S
C262 C257 1.245 . S
C262 C258 1.477 . S
C262 H279 0.932 . S
C263 U246 2.882 . S
C263 C257 1.428 . S
C263 O266 1.301 . S
C263 O267 1.282 . S
O264 U246 2.441 . S
O264 C250 1.249 . S
O265 U246 2.420 . S
O265 C250 1.202 . S
O266 U246 2.455 . S
O266 C263 1.301 . S
O267 U246 2.449 . S
O267 C263 1.282 . S
H268 C241 0.931 . S
H269 C243 0.929 . S
H270 C244 0.930 . S
H271 C245 0.931 . S
H272 C252 0.932 . S
H273 C253 0.930 . S
H274 C254 0.929 . S
H275 C256 0.930 . S
H276 C258 0.932 . S
H277 C259 0.929 . S
H278 C260 0.928 . S
H279 C262 0.932 . S
C280 C281 1.264 . S
C280 C285 1.479 . S
C280 C290 1.465 . S
C281 C280 1.264 . S
C281 C283 1.339 . S
C281 H308 0.931 . S
C282 C283 1.395 . S
C282 C284 1.320 . S
C283 C281 1.339 . S
C283 C282 1.395 . S
C283 H309 0.929 . S
C284 C282 1.320 . S
C284 C285 1.405 . S
C284 H310 0.930 . S
C285 C280 1.479 . S
C285 C284 1.405 . S
C285 H311 0.931 . S
U286 O287 2.454 . S
U286 O288 2.458 . S
U286 C289 2.984 . S
U286 C290 2.847 . S
U286 C303 2.882 . S
U286 O304 2.441 . S
U286 O305 2.420 . S
U286 O306 2.455 . S
U286 O307 2.449 . S
O287 U286 2.454 . S
O287 C289 1.353 . S
O288 U286 2.458 . S
O288 C289 1.286 . S
C289 U286 2.984 . S
C289 O287 1.353 . S
C289 O288 1.286 . S
C289 C291 1.363 . S
C290 C280 1.465 . S
C290 U286 2.847 . S
C290 O304 1.249 . S
C290 O305 1.202 . S
C291 C289 1.363 . S
C291 C293 1.408 . S
C291 C296 1.342 . S
C292 C293 1.310 . S
C292 C295 1.461 . S
C292 H312 0.932 . S
C293 C291 1.408 . S
C293 C292 1.310 . S
C293 H313 0.930 . S
C294 C295 1.474 . S
C294 C296 1.285 . S
C294 H314 0.929 . S
C295 C292 1.461 . S
C295 C294 1.474 . S
C296 C291 1.342 . S
C296 C294 1.285 . S
C296 H315 0.930 . S
C297 C300 1.424 . S
C297 C302 1.245 . S
C297 C303 1.428 . S
C298 C301 1.260 . S
C298 C302 1.477 . S
C298 H316 0.932 . S
C299 C300 1.384 . S
C299 C301 1.479 . S
C299 H317 0.929 . S
C300 C297 1.424 . S
C300 C299 1.384 . S
C300 H318 0.928 . S
C301 C298 1.260 . S
C301 C299 1.479 . S
C302 C297 1.245 . S
C302 C298 1.477 . S
C302 H319 0.932 . S
C303 U286 2.882 . S
C303 C297 1.428 . S
C303 O306 1.301 . S
C303 O307 1.282 . S
O304 U286 2.441 . S
O304 C290 1.249 . S
O305 U286 2.420 . S
O305 C290 1.202 . S
O306 U286 2.455 . S
O306 C303 1.301 . S
O307 U286 2.449 . S
O307 C303 1.282 . S
H308 C281 0.931 . S
H309 C283 0.929 . S
H310 C284 0.930 . S
H311 C285 0.931 . S
H312 C292 0.932 . S
H313 C293 0.930 . S
H314 C294 0.929 . S
H315 C296 0.930 . S
H316 C298 0.932 . S
H317 C299 0.929 . S
H318 C300 0.928 . S
H319 C302 0.932 . S
C320 O336 1.251 . S
C320 O338 1.254 1_545 S
N321 C322 1.333 . S
N321 C326 1.307 . S
N321 Zn327 2.020 . S
C322 N321 1.333 . S
C322 C323 1.379 . S
C322 H340 0.952 . S
C323 C322 1.379 . S
C323 C324 1.390 . S
C323 H350 0.949 . S
C324 C323 1.390 . S
C324 C325 1.357 . S
C325 C324 1.357 . S
C325 C326 1.370 . S
C325 H351 0.950 . S
C326 N321 1.307 . S
C326 C325 1.370 . S
C326 H344 0.948 1_455 S
Zn327 N321 2.020 . S
Zn327 O336 2.039 . S
Zn327 O342 2.034 . S
Zn327 O346 2.025 1_455 S
Zn327 O348 2.024 1_455 S
C328 O347 1.266 . S
C328 O348 1.249 . S
N329 C330 1.307 . S
N329 C331 1.333 . S
N329 Zn335 2.020 . S
C330 N329 1.307 . S
C330 C334 1.370 . S
C330 H341 0.948 1_655 S
C331 N329 1.333 . S
C331 C332 1.379 . S
C331 H339 0.952 . S
C332 C331 1.379 . S
C332 C333 1.390 . S
C332 H352 0.949 . S
C333 C332 1.390 . S
C333 C334 1.357 . S
C334 C330 1.370 . S
C334 C333 1.357 . S
C334 H353 0.958 . S
Zn335 N329 2.020 . S
Zn335 O338 2.025 1_655 S
Zn335 O343 2.024 1_655 S
Zn335 O345 2.039 . S
Zn335 O347 2.024 1_565 S
O336 C320 1.251 . S
O336 Zn327 2.039 . S
C337 O342 1.246 1_565 S
C337 O343 1.249 . S
O338 C320 1.254 1_565 S
O338 Zn335 2.025 1_455 S
H339 C331 0.952 . S
H340 C322 0.952 . S
H341 C330 0.948 1_455 S
O342 Zn327 2.034 . S
O342 C337 1.246 1_545 S
O343 Zn335 2.024 1_455 S
O343 C337 1.249 . S
H344 C326 0.948 1_655 S
O345 Zn335 2.039 . S
O345 C349 1.251 . S
O346 Zn327 2.025 1_655 S
O346 C349 1.254 1_545 S
O347 C328 1.266 . S
O347 Zn335 2.024 1_545 S
O348 Zn327 2.024 1_655 S
O348 C328 1.249 . S
C349 O345 1.251 . S
C349 O346 1.254 1_565 S
H350 C323 0.949 . S
H351 C325 0.950 . S
H352 C332 0.949 . S
H353 C334 0.958 . S
C354 O370 1.251 1_565 S
C354 O372 1.247 1_556 S
N355 C356 1.333 . S
N355 C360 1.307 . S
N355 Zn361 2.020 . S
C356 N355 1.333 . S
C356 C357 1.379 . S
C356 H374 0.952 . S
C357 C356 1.379 . S
C357 C358 1.390 . S
C357 H384 0.949 . S
C358 C357 1.390 . S
C358 C359 1.357 . S
C359 C358 1.357 . S
C359 C360 1.370 . S
C359 H385 0.950 . S
C360 N355 1.307 . S
C360 C359 1.370 . S
C360 H378 0.948 . S
Zn361 N355 2.020 . S
Zn361 O370 2.039 . S
Zn361 O376 2.034 1_556 S
Zn361 O380 2.025 1_556 S
Zn361 O382 2.024 . S
C362 O381 1.246 . S
C362 O382 1.249 1_565 S
N363 C364 1.307 . S
N363 C365 1.333 . S
N363 Zn369 2.020 . S
C364 N363 1.307 . S
C364 C368 1.370 . S
C364 H375 0.948 . S
C365 N363 1.333 . S
C365 C366 1.379 . S
C365 H373 0.952 . S
C366 C365 1.379 . S
C366 C367 1.390 . S
C366 H386 0.949 . S
C367 C366 1.390 . S
C367 C368 1.357 . S
C368 C364 1.370 . S
C368 C367 1.357 . S
C368 H387 0.950 . S
Zn369 N363 2.020 . S
Zn369 O372 2.031 . S
Zn369 O377 2.024 . S
Zn369 O379 2.039 . S
Zn369 O381 2.034 1_554 S
O370 C354 1.251 1_545 S
O370 Zn361 2.039 . S
C371 O376 1.246 . S
C371 O377 1.249 1_545 S
O372 C354 1.247 1_554 S
O372 Zn369 2.031 . S
H373 C365 0.952 . S
H374 C356 0.952 . S
H375 C364 0.948 . S
O376 Zn361 2.034 1_554 S
O376 C371 1.246 . S
O377 Zn369 2.024 . S
O377 C371 1.249 1_565 S
H378 C360 0.948 . S
O379 Zn369 2.039 . S
O379 C383 1.251 1_565 S
O380 Zn361 2.025 1_554 S
O380 C383 1.254 . S
O381 C362 1.246 . S
O381 Zn369 2.034 1_556 S
O382 Zn361 2.024 . S
O382 C362 1.249 1_545 S
C383 O379 1.251 1_545 S
C383 O380 1.254 . S
H384 C357 0.949 . S
H385 C359 0.950 . S
H386 C366 0.949 . S
H387 C368 0.950 . S
C388 O404 1.251 . S
C388 O406 1.254 . S
N389 C390 1.333 . S
N389 C394 1.307 . S
N389 Zn395 2.020 . S
C390 N389 1.333 . S
C390 C391 1.379 . S
C390 H408 0.952 . S
C391 C390 1.379 . S
C391 C392 1.390 . S
C391 H418 0.949 . S
C392 C391 1.390 . S
C392 C393 1.357 . S
C393 C392 1.357 . S
C393 C394 1.370 . S
C393 H419 0.950 . S
C394 N389 1.307 . S
C394 C393 1.370 . S
C394 H412 0.948 . S
Zn395 N389 2.020 . S
Zn395 O404 2.039 . S
Zn395 O410 2.034 . S
Zn395 O414 2.025 . S
Zn395 O416 2.024 . S
C396 O415 1.246 . S
C396 O416 1.249 . S
N397 C398 1.307 . S
N397 C399 1.333 . S
N397 Zn403 2.020 . S
C398 N397 1.307 . S
C398 C402 1.370 . S
C398 H409 0.948 . S
C399 N397 1.333 . S
C399 C400 1.379 . S
C399 H407 0.952 . S
C400 C399 1.379 . S
C400 C401 1.390 . S
C400 H420 0.949 . S
C401 C400 1.390 . S
C401 C402 1.357 . S
C402 C398 1.370 . S
C402 C401 1.357 . S
C402 H421 0.950 . S
Zn403 N397 2.020 . S
Zn403 O406 2.025 . S
Zn403 O411 2.024 . S
Zn403 O413 2.039 . S
Zn403 O415 2.034 . S
O404 C388 1.251 . S
O404 Zn395 2.039 . S
C405 O410 1.246 . S
C405 O411 1.249 . S
O406 C388 1.254 . S
O406 Zn403 2.025 . S
H407 C399 0.952 . S
H408 C390 0.952 . S
H409 C398 0.948 . S
O410 Zn395 2.034 . S
O410 C405 1.246 . S
O411 Zn403 2.024 . S
O411 C405 1.249 . S
H412 C394 0.948 . S
O413 Zn403 2.039 . S
O413 C417 1.251 . S
O414 Zn395 2.025 . S
O414 C417 1.254 . S
O415 C396 1.246 . S
O415 Zn403 2.034 . S
O416 Zn395 2.024 . S
O416 C396 1.249 . S
C417 O413 1.251 . S
C417 O414 1.254 . S
H418 C391 0.949 . S
H419 C393 0.950 . S
H420 C400 0.949 . S
H421 C402 0.950 . S
C422 O438 1.251 1_556 S
C422 O440 1.269 . S
N423 C424 1.333 . S
N423 C428 1.307 . S
N423 Zn429 2.020 . S
C424 N423 1.333 . S
C424 C425 1.379 . S
C424 H442 0.952 . S
C425 C424 1.379 . S
C425 C426 1.390 . S
C425 H452 0.949 . S
C426 C425 1.390 . S
C426 C427 1.357 . S
C427 C426 1.357 . S
C427 C428 1.370 . S
C427 H453 0.950 . S
C428 N423 1.307 . S
C428 C427 1.370 . S
C428 H446 0.948 . S
Zn429 N423 2.020 . S
Zn429 O438 2.039 . S
Zn429 O444 2.034 1_655 S
Zn429 O448 2.025 1_655 S
Zn429 O450 2.024 . S
C430 O449 1.246 . S
C430 O450 1.249 1_556 S
N431 C432 1.307 . S
N431 C433 1.333 . S
N431 Zn437 2.020 . S
C432 N431 1.307 . S
C432 C436 1.370 . S
C432 H443 0.948 . S
C433 N431 1.333 . S
C433 C434 1.379 . S
C433 H441 0.952 . S
C434 C433 1.379 . S
C434 C435 1.390 . S
C434 H454 0.949 . S
C435 C434 1.390 . S
C435 C436 1.357 . S
C436 C432 1.370 . S
C436 C435 1.357 . S
C436 H455 0.950 . S
Zn437 N431 2.020 . S
Zn437 O440 2.016 1_455 S
Zn437 O445 2.024 . S
Zn437 O447 2.039 . S
Zn437 O449 2.034 1_455 S
O438 C422 1.251 1_554 S
O438 Zn429 2.039 . S
C439 O444 1.246 . S
C439 O445 1.249 1_554 S
O440 C422 1.269 . S
O440 Zn437 2.016 1_655 S
H441 C433 0.952 . S
H442 C424 0.952 . S
H443 C432 0.948 . S
O444 Zn429 2.034 1_455 S
O444 C439 1.246 . S
O445 Zn437 2.024 . S
O445 C439 1.249 1_556 S
H446 C428 0.948 . S
O447 Zn437 2.039 . S
O447 C451 1.251 1_556 S
O448 Zn429 2.025 1_455 S
O448 C451 1.254 . S
O449 C430 1.246 . S
O449 Zn437 2.034 1_655 S
O450 Zn429 2.024 . S
O450 C430 1.249 1_554 S
C451 O447 1.251 1_554 S
C451 O448 1.254 . S
H452 C425 0.949 . S
H453 C427 0.950 . S
H454 C434 0.949 . S
H455 C436 0.950 . S
H456 C464 0.950 . S
H457 C469 0.950 . S
H458 C466 0.950 . S
H459 C468 0.950 . S
H460 C470 0.950 1_655 S
H461 C472 0.950 . S
H462 C474 0.950 . S
H463 C475 0.950 . S
C464 H456 0.950 . S
C464 C465 1.386 . S
C464 C466 1.391 . S
C465 C464 1.386 . S
C465 C469 1.393 . S
C466 H458 0.950 . S
C466 C464 1.391 . S
C466 C467 1.400 . S
C467 C466 1.400 . S
C467 C468 1.398 . S
C467 C473 1.491 . S
C468 H459 0.950 . S
C468 C467 1.398 . S
C468 C469 1.391 . S
C469 H457 0.950 . S
C469 C465 1.393 . S
C469 C468 1.391 . S
C470 H460 0.950 1_455 S
C470 C471 1.386 . S
C470 C472 1.391 . S
C471 C470 1.386 . S
C471 C475 1.393 . S
C472 H461 0.950 . S
C472 C470 1.391 . S
C472 C473 1.400 . S
C473 C467 1.491 . S
C473 C472 1.400 . S
C473 C474 1.398 . S
C474 H462 0.950 . S
C474 C473 1.398 . S
C474 C475 1.391 . S
C475 H463 0.950 . S
C475 C471 1.393 . S
C475 C474 1.391 . S
H476 C484 0.950 . S
H477 C489 0.950 . S
H478 C486 0.950 . S
H479 C488 0.950 . S
H480 C490 0.950 . S
H481 C492 0.950 . S
H482 C494 0.950 1_545 S
H483 C495 0.950 1_545 S
C484 H476 0.950 . S
C484 C485 1.386 . S
C484 C486 1.391 . S
C485 C484 1.386 . S
C485 C489 1.393 . S
C486 H478 0.950 . S
C486 C484 1.391 . S
C486 C487 1.400 . S
C487 C486 1.400 . S
C487 C488 1.398 . S
C487 C493 1.491 . S
C488 H479 0.950 . S
C488 C487 1.398 . S
C488 C489 1.391 . S
C489 H477 0.950 . S
C489 C485 1.393 . S
C489 C488 1.391 . S
C490 H480 0.950 . S
C490 C491 1.386 . S
C490 C492 1.391 . S
C491 C490 1.386 . S
C491 C495 1.393 . S
C492 H481 0.950 . S
C492 C490 1.391 . S
C492 C493 1.400 . S
C493 C487 1.491 . S
C493 C492 1.400 . S
C493 C494 1.398 . S
C494 H482 0.950 1_565 S
C494 C493 1.398 . S
C494 C495 1.391 . S
C495 H483 0.950 1_565 S
C495 C491 1.393 . S
C495 C494 1.391 . S
H496 C504 0.950 . S
H497 C509 0.950 . S
H498 C506 0.950 . S
H499 C508 0.950 . S
H500 C510 0.950 . S
H501 C512 0.950 . S
H502 C514 0.950 . S
H503 C515 0.950 . S
C504 H496 0.950 . S
C504 C505 1.386 . S
C504 C506 1.391 . S
C505 C504 1.386 . S
C505 C509 1.393 . S
C506 H498 0.950 . S
C506 C504 1.391 . S
C506 C507 1.400 . S
C507 C506 1.400 . S
C507 C508 1.398 . S
C507 C513 1.491 . S
C508 H499 0.950 . S
C508 C507 1.398 . S
C508 C509 1.391 . S
C509 H497 0.950 . S
C509 C505 1.393 . S
C509 C508 1.391 . S
C510 H500 0.950 . S
C510 C511 1.386 . S
C510 C512 1.391 . S
C511 C510 1.386 . S
C511 C515 1.393 . S
C512 H501 0.950 . S
C512 C510 1.391 . S
C512 C513 1.400 . S
C513 C507 1.491 . S
C513 C512 1.400 . S
C513 C514 1.398 . S
C514 H502 0.950 . S
C514 C513 1.398 . S
C514 C515 1.391 . S
C515 H503 0.950 . S
C515 C511 1.393 . S
C515 C514 1.391 . S
H516 C524 0.950 . S
H517 C529 0.950 . S
H518 C526 0.950 . S
H519 C528 0.950 . S
H520 C530 0.950 . S
H521 C532 0.950 . S
H522 C534 0.950 . S
H523 C535 0.950 . S
C524 H516 0.950 . S
C524 C525 1.386 . S
C524 C526 1.391 . S
C525 C524 1.386 . S
C525 C529 1.393 . S
C526 H518 0.950 . S
C526 C524 1.391 . S
C526 C527 1.400 . S
C527 C526 1.400 . S
C527 C528 1.398 . S
C527 C533 1.491 . S
C528 H519 0.950 . S
C528 C527 1.398 . S
C528 C529 1.391 . S
C529 H517 0.950 . S
C529 C525 1.393 . S
C529 C528 1.391 . S
C530 H520 0.950 . S
C530 C531 1.386 . S
C530 C532 1.391 . S
C531 C530 1.386 . S
C531 C535 1.393 . S
C532 H521 0.950 . S
C532 C530 1.391 . S
C532 C533 1.400 . S
C533 C527 1.491 . S
C533 C532 1.400 . S
C533 C534 1.398 . S
C534 H522 0.950 . S
C534 C533 1.398 . S
C534 C535 1.391 . S
C535 H523 0.950 . S
C535 C531 1.393 . S
C535 C534 1.391 . S
H536 C544 0.950 . S
H537 C549 0.950 . S
H538 C546 0.950 . S
H539 C548 0.950 . S
H540 C550 0.950 . S
H541 C552 0.950 . S
H542 C554 0.950 . S
H543 C555 0.950 1_556 S
C544 H536 0.950 . S
C544 C545 1.386 . S
C544 C546 1.391 . S
C545 C544 1.386 . S
C545 C549 1.393 . S
C546 H538 0.950 . S
C546 C544 1.391 . S
C546 C547 1.400 . S
C547 C546 1.400 . S
C547 C548 1.398 . S
C547 C553 1.491 . S
C548 H539 0.950 . S
C548 C547 1.398 . S
C548 C549 1.391 . S
C549 H537 0.950 . S
C549 C545 1.393 . S
C549 C548 1.391 . S
C550 H540 0.950 . S
C550 C551 1.386 . S
C550 C552 1.391 . S
C551 C550 1.386 . S
C551 C555 1.393 . S
C552 H541 0.950 . S
C552 C550 1.391 . S
C552 C553 1.400 . S
C553 C547 1.491 . S
C553 C552 1.400 . S
C553 C554 1.398 . S
C554 H542 0.950 . S
C554 C553 1.398 . S
C554 C555 1.391 . S
C555 H543 0.950 1_554 S
C555 C551 1.393 . S
C555 C554 1.391 . S
H556 C564 0.950 . S
H557 C569 0.950 . S
H558 C566 0.950 . S
H559 C568 0.950 . S
H560 C570 0.950 . S
H561 C572 0.950 . S
H562 C574 0.950 . S
H563 C575 0.950 . S
C564 H556 0.950 . S
C564 C565 1.386 . S
C564 C566 1.391 . S
C565 C564 1.386 . S
C565 C569 1.393 . S
C566 H558 0.950 . S
C566 C564 1.391 . S
C566 C567 1.400 . S
C567 C566 1.400 . S
C567 C568 1.398 . S
C567 C573 1.491 . S
C568 H559 0.950 . S
C568 C567 1.398 . S
C568 C569 1.391 . S
C569 H557 0.950 . S
C569 C565 1.393 . S
C569 C568 1.391 . S
C570 H560 0.950 . S
C570 C571 1.386 . S
C570 C572 1.391 . S
C571 C570 1.386 . S
C571 C575 1.393 . S
C572 H561 0.950 . S
C572 C570 1.391 . S
C572 C573 1.400 . S
C573 C567 1.491 . S
C573 C572 1.400 . S
C573 C574 1.398 . S
C574 H562 0.950 . S
C574 C573 1.398 . S
C574 C575 1.391 . S
C575 H563 0.950 . S
C575 C571 1.393 . S
C575 C574 1.391 . S
H576 C584 0.950 . S
H577 C589 0.950 . S
H578 C586 0.950 . S
H579 C588 0.950 . S
H580 C590 0.950 . S
H581 C592 0.950 . S
H582 C594 0.949 1_554 S
H583 C595 0.950 1_554 S
C584 H576 0.950 . S
C584 C585 1.386 . S
C584 C586 1.391 . S
C585 C584 1.386 . S
C585 C589 1.393 . S
C586 H578 0.950 . S
C586 C584 1.391 . S
C586 C587 1.400 . S
C587 C586 1.400 . S
C587 C588 1.398 . S
C587 C593 1.491 . S
C588 H579 0.950 . S
C588 C587 1.398 . S
C588 C589 1.391 . S
C589 H577 0.950 . S
C589 C585 1.393 . S
C589 C588 1.391 . S
C590 H580 0.950 . S
C590 C591 1.386 . S
C590 C592 1.391 . S
C591 C590 1.386 . S
C591 C595 1.393 . S
C592 H581 0.950 . S
C592 C590 1.391 . S
C592 C593 1.400 . S
C593 C587 1.491 . S
C593 C592 1.400 . S
C593 C594 1.398 . S
C594 H582 0.949 1_556 S
C594 C593 1.398 . S
C594 C595 1.391 . S
C595 H583 0.950 1_556 S
C595 C591 1.393 . S
C595 C594 1.391 . S
H596 C604 0.950 . S
H597 C609 0.950 . S
H598 C606 0.950 . S
H599 C608 0.950 . S
H600 C610 0.950 . S
H601 C612 0.950 . S
H602 C614 0.950 . S
H603 C615 0.950 . S
C604 H596 0.950 . S
C604 C605 1.386 . S
C604 C606 1.391 . S
C605 C604 1.386 . S
C605 C609 1.393 . S
C606 H598 0.950 . S
C606 C604 1.391 . S
C606 C607 1.400 . S
C607 C606 1.400 . S
C607 C608 1.398 . S
C607 C613 1.491 . S
C608 H599 0.950 . S
C608 C607 1.398 . S
C608 C609 1.391 . S
C609 H597 0.950 . S
C609 C605 1.393 . S
C609 C608 1.391 . S
C610 H600 0.950 . S
C610 C611 1.386 . S
C610 C612 1.391 . S
C611 C610 1.386 . S
C611 C615 1.393 . S
C612 H601 0.950 . S
C612 C610 1.391 . S
C612 C613 1.400 . S
C613 C607 1.491 . S
C613 C612 1.400 . S
C613 C614 1.398 . S
C614 H602 0.950 . S
C614 C613 1.398 . S
C614 C615 1.391 . S
C615 H603 0.950 . S
C615 C611 1.393 . S
C615 C614 1.391 . S
H616 C624 0.950 . S
H617 C629 0.950 . S
H618 C626 0.950 . S
H619 C628 0.950 . S
H620 C630 0.950 1_655 S
H621 C632 0.950 1_655 S
H622 C634 0.950 . S
H623 C635 0.950 . S
C624 H616 0.950 . S
C624 C625 1.386 . S
C624 C626 1.391 . S
C625 C624 1.386 . S
C625 C629 1.393 . S
C626 H618 0.950 . S
C626 C624 1.391 . S
C626 C627 1.400 . S
C627 C626 1.400 . S
C627 C628 1.398 . S
C627 C633 1.491 . S
C628 H619 0.950 . S
C628 C627 1.398 . S
C628 C629 1.391 . S
C629 H617 0.950 . S
C629 C625 1.393 . S
C629 C628 1.391 . S
C630 H620 0.950 1_455 S
C630 C631 1.386 . S
C630 C632 1.391 . S
C631 C630 1.386 . S
C631 C635 1.393 . S
C632 H621 0.950 1_455 S
C632 C630 1.391 . S
C632 C633 1.400 . S
C633 C627 1.491 . S
C633 C632 1.400 . S
C633 C634 1.398 . S
C634 H622 0.950 . S
C634 C633 1.398 . S
C634 C635 1.391 . S
C635 H623 0.950 . S
C635 C631 1.393 . S
C635 C634 1.391 . S
H636 C644 0.950 . S
H637 C649 0.950 . S
H638 C646 0.950 . S
H639 C648 0.950 . S
H640 C650 0.950 . S
H641 C652 0.950 . S
H642 C654 0.948 1_554 S
H643 C655 0.927 1_554 S
C644 H636 0.950 . S
C644 C645 1.386 . S
C644 C646 1.391 . S
C645 C644 1.386 . S
C645 C649 1.393 . S
C646 H638 0.950 . S
C646 C644 1.391 . S
C646 C647 1.400 . S
C647 C646 1.400 . S
C647 C648 1.398 . S
C647 C653 1.491 . S
C648 H639 0.950 . S
C648 C647 1.398 . S
C648 C649 1.391 . S
C649 H637 0.950 . S
C649 C645 1.393 . S
C649 C648 1.391 . S
C650 H640 0.950 . S
C650 C651 1.386 . S
C650 C652 1.391 . S
C651 C650 1.386 . S
C651 C655 1.393 . S
C652 H641 0.950 . S
C652 C650 1.391 . S
C652 C653 1.400 . S
C653 C647 1.491 . S
C653 C652 1.400 . S
C653 C654 1.398 . S
C654 H642 0.948 1_556 S
C654 C653 1.398 . S
C654 C655 1.391 . S
C655 H643 0.927 1_556 S
C655 C651 1.393 . S
C655 C654 1.391 . S
H656 C664 0.950 . S
H657 C669 0.950 . S
H658 C666 0.950 . S
H659 C668 0.950 . S
H660 C670 0.950 . S
H661 C672 0.950 . S
H662 C674 0.950 . S
H663 C675 0.950 . S
C664 H656 0.950 . S
C664 C665 1.386 . S
C664 C666 1.391 . S
C665 C664 1.386 . S
C665 C669 1.393 . S
C666 H658 0.950 . S
C666 C664 1.391 . S
C666 C667 1.400 . S
C667 C666 1.400 . S
C667 C668 1.398 . S
C667 C673 1.491 . S
C668 H659 0.950 . S
C668 C667 1.398 . S
C668 C669 1.391 . S
C669 H657 0.950 . S
C669 C665 1.393 . S
C669 C668 1.391 . S
C670 H660 0.950 . S
C670 C671 1.386 . S
C670 C672 1.391 . S
C671 C670 1.386 . S
C671 C675 1.393 . S
C672 H661 0.950 . S
C672 C670 1.391 . S
C672 C673 1.400 . S
C673 C667 1.491 . S
C673 C672 1.400 . S
C673 C674 1.398 . S
C674 H662 0.950 . S
C674 C673 1.398 . S
C674 C675 1.391 . S
C675 H663 0.950 . S
C675 C671 1.393 . S
C675 C674 1.391 . S
H676 C684 0.950 . S
H677 C689 0.950 . S
H678 C686 0.950 . S
H679 C688 0.950 . S
H680 C690 0.950 . S
H681 C692 0.950 . S
H682 C694 0.950 . S
H683 C695 0.950 . S
C684 H676 0.950 . S
C684 C685 1.386 . S
C684 C686 1.391 . S
C685 C684 1.386 . S
C685 C689 1.393 . S
C686 H678 0.950 . S
C686 C684 1.391 . S
C686 C687 1.400 . S
C687 C686 1.400 . S
C687 C688 1.398 . S
C687 C693 1.491 . S
C688 H679 0.950 . S
C688 C687 1.398 . S
C688 C689 1.391 . S
C689 H677 0.950 . S
C689 C685 1.393 . S
C689 C688 1.391 . S
C690 H680 0.950 . S
C690 C691 1.386 . S
C690 C692 1.391 . S
C691 C690 1.386 . S
C691 C695 1.393 . S
C692 H681 0.950 . S
C692 C690 1.391 . S
C692 C693 1.400 . S
C693 C687 1.491 . S
C693 C692 1.400 . S
C693 C694 1.398 . S
C694 H682 0.950 . S
C694 C693 1.398 . S
C694 C695 1.391 . S
C695 H683 0.950 . S
C695 C691 1.393 . S
C695 C694 1.391 . S
H696 C704 0.950 . S
H697 C709 0.950 . S
H698 C706 0.950 . S
H699 C708 0.950 . S
H700 C710 0.950 1_455 S
H701 C712 0.950 1_455 S
H702 C714 0.950 . S
H703 C715 0.950 . S
C704 H696 0.950 . S
C704 C705 1.386 . S
C704 C706 1.391 . S
C705 C704 1.386 . S
C705 C709 1.393 . S
C706 H698 0.950 . S
C706 C704 1.391 . S
C706 C707 1.400 . S
C707 C706 1.400 . S
C707 C708 1.398 . S
C707 C713 1.491 . S
C708 H699 0.950 . S
C708 C707 1.398 . S
C708 C709 1.391 . S
C709 H697 0.950 . S
C709 C705 1.393 . S
C709 C708 1.391 . S
C710 H700 0.950 1_655 S
C710 C711 1.386 . S
C710 C712 1.391 . S
C711 C710 1.386 . S
C711 C715 1.393 . S
C712 H701 0.950 1_655 S
C712 C710 1.391 . S
C712 C713 1.400 . S
C713 C707 1.491 . S
C713 C712 1.400 . S
C713 C714 1.398 . S
C714 H702 0.950 . S
C714 C713 1.398 . S
C714 C715 1.391 . S
C715 H703 0.950 . S
C715 C711 1.393 . S
C715 C714 1.391 . S
H716 C724 0.950 . S
H717 C729 0.950 . S
H718 C726 0.950 . S
H719 C728 0.950 . S
H720 C730 0.950 . S
H721 C732 0.950 . S
H722 C734 0.950 . S
H723 C735 0.950 1_565 S
C724 H716 0.950 . S
C724 C725 1.386 . S
C724 C726 1.391 . S
C725 C724 1.386 . S
C725 C729 1.393 . S
C726 H718 0.950 . S
C726 C724 1.391 . S
C726 C727 1.400 . S
C727 C726 1.400 . S
C727 C728 1.398 . S
C727 C733 1.491 . S
C728 H719 0.950 . S
C728 C727 1.398 . S
C728 C729 1.391 . S
C729 H717 0.950 . S
C729 C725 1.393 . S
C729 C728 1.391 . S
C730 H720 0.950 . S
C730 C731 1.386 . S
C730 C732 1.391 . S
C731 C730 1.386 . S
C731 C735 1.393 . S
C732 H721 0.950 . S
C732 C730 1.391 . S
C732 C733 1.400 . S
C733 C727 1.491 . S
C733 C732 1.400 . S
C733 C734 1.398 . S
C734 H722 0.950 . S
C734 C733 1.398 . S
C734 C735 1.391 . S
C735 H723 0.950 1_545 S
C735 C731 1.393 . S
C735 C734 1.391 . S
H736 C744 0.950 . S
H737 C749 0.950 . S
H738 C746 0.950 . S
H739 C748 0.950 . S
H740 C750 0.950 . S
H741 C752 0.950 . S
H742 C754 0.950 . S
H743 C755 0.950 . S
C744 H736 0.950 . S
C744 C745 1.386 . S
C744 C746 1.391 . S
C745 C744 1.386 . S
C745 C749 1.393 . S
C746 H738 0.950 . S
C746 C744 1.391 . S
C746 C747 1.400 . S
C747 C746 1.400 . S
C747 C748 1.398 . S
C747 C753 1.491 . S
C748 H739 0.950 . S
C748 C747 1.398 . S
C748 C749 1.391 . S
C749 H737 0.950 . S
C749 C745 1.393 . S
C749 C748 1.391 . S
C750 H740 0.950 . S
C750 C751 1.386 . S
C750 C752 1.391 . S
C751 C750 1.386 . S
C751 C755 1.393 . S
C752 H741 0.950 . S
C752 C750 1.391 . S
C752 C753 1.400 . S
C753 C747 1.491 . S
C753 C752 1.400 . S
C753 C754 1.398 . S
C754 H742 0.950 . S
C754 C753 1.398 . S
C754 C755 1.391 . S
C755 H743 0.950 . S
C755 C751 1.393 . S
C755 C754 1.391 . S
H756 C764 0.950 . S
H757 C769 0.950 . S
H758 C766 0.950 . S
H759 C768 0.950 . S
H760 C770 0.950 . S
H761 C772 0.950 . S
H762 C774 0.950 . S
H763 C775 0.950 . S
C764 H756 0.950 . S
C764 C765 1.386 . S
C764 C766 1.391 . S
C765 C764 1.386 . S
C765 C769 1.393 . S
C766 H758 0.950 . S
C766 C764 1.391 . S
C766 C767 1.400 . S
C767 C766 1.400 . S
C767 C768 1.398 . S
C767 C773 1.491 . S
C768 H759 0.950 . S
C768 C767 1.398 . S
C768 C769 1.391 . S
C769 H757 0.950 . S
C769 C765 1.393 . S
C769 C768 1.391 . S
C770 H760 0.950 . S
C770 C771 1.386 . S
C770 C772 1.391 . S
C771 C770 1.386 . S
C771 C775 1.393 . S
C772 H761 0.950 . S
C772 C770 1.391 . S
C772 C773 1.400 . S
C773 C767 1.491 . S
C773 C772 1.400 . S
C773 C774 1.398 . S
C774 H762 0.950 . S
C774 C773 1.398 . S
C774 C775 1.391 . S
C775 H763 0.950 . S
C775 C771 1.393 . S
C775 C774 1.391 . S
H776 C784 0.950 . S
H777 C789 0.950 . S
H778 C786 0.950 . S
H779 C788 0.950 . S
H780 C790 0.950 1_545 S
H781 C792 0.950 1_545 S
H782 C794 0.950 . S
H783 C795 0.950 . S
C784 H776 0.950 . S
C784 C785 1.386 . S
C784 C786 1.391 . S
C785 C784 1.386 . S
C785 C789 1.393 . S
C786 H778 0.950 . S
C786 C784 1.391 . S
C786 C787 1.400 . S
C787 C786 1.400 . S
C787 C788 1.398 . S
C787 C793 1.491 . S
C788 H779 0.950 . S
C788 C787 1.398 . S
C788 C789 1.391 . S
C789 H777 0.950 . S
C789 C785 1.393 . S
C789 C788 1.391 . S
C790 H780 0.950 1_565 S
C790 C791 1.386 . S
C790 C792 1.391 . S
C791 C790 1.386 . S
C791 C795 1.393 . S
C792 H781 0.950 1_565 S
C792 C790 1.391 . S
C792 C793 1.400 . S
C793 C787 1.491 . S
C793 C792 1.400 . S
C793 C794 1.398 . S
C794 H782 0.950 . S
C794 C793 1.398 . S
C794 C795 1.391 . S
C795 H783 0.950 . S
C795 C791 1.393 . S
C795 C794 1.391 . S
H796 C804 0.950 . S
H797 C809 0.950 . S
H798 C806 0.950 . S
H799 C808 0.950 . S
H800 C810 0.950 . S
H801 C812 0.950 . S
H802 C814 0.950 . S
H803 C815 0.950 . S
C804 H796 0.950 . S
C804 C805 1.386 . S
C804 C806 1.391 . S
C805 C804 1.386 . S
C805 C809 1.393 . S
C806 H798 0.950 . S
C806 C804 1.391 . S
C806 C807 1.400 . S
C807 C806 1.400 . S
C807 C808 1.398 . S
C807 C813 1.491 . S
C808 H799 0.950 . S
C808 C807 1.398 . S
C808 C809 1.391 . S
C809 H797 0.950 . S
C809 C805 1.393 . S
C809 C808 1.391 . S
C810 H800 0.950 . S
C810 C811 1.386 . S
C810 C812 1.391 . S
C811 C810 1.386 . S
C811 C815 1.393 . S
C812 H801 0.950 . S
C812 C810 1.391 . S
C812 C813 1.400 . S
C813 C807 1.491 . S
C813 C812 1.400 . S
C813 C814 1.398 . S
C814 H802 0.950 . S
C814 C813 1.398 . S
C814 C815 1.391 . S
C815 H803 0.950 . S
C815 C811 1.393 . S
C815 C814 1.391 . S
H816 C824 0.950 . S
H817 C829 0.950 . S
H818 C826 0.950 1_556 S
H819 C828 0.950 . S
H820 C830 0.950 . S
H821 C832 0.950 . S
H822 C834 0.950 1_556 S
H823 C835 0.930 1_556 S
C824 H816 0.950 . S
C824 C825 1.386 . S
C824 C826 1.391 . S
C825 C824 1.386 . S
C825 C829 1.393 . S
C826 H818 0.950 1_554 S
C826 C824 1.391 . S
C826 C827 1.400 . S
C827 C826 1.400 . S
C827 C828 1.398 . S
C827 C833 1.491 . S
C828 H819 0.950 . S
C828 C827 1.398 . S
C828 C829 1.391 . S
C829 H817 0.950 . S
C829 C825 1.393 . S
C829 C828 1.391 . S
C830 H820 0.950 . S
C830 C831 1.386 . S
C830 C832 1.391 . S
C831 C830 1.386 . S
C831 C835 1.410 . S
C832 H821 0.950 . S
C832 C830 1.391 . S
C832 C833 1.400 . S
C833 C827 1.491 . S
C833 C832 1.400 . S
C833 C834 1.398 . S
C834 H822 0.950 1_554 S
C834 C833 1.398 . S
C834 C835 1.394 . S
C835 H823 0.930 1_554 S
C835 C831 1.410 . S
C835 C834 1.394 . S
H836 C844 0.950 . S
H837 C849 0.950 . S
H838 C846 0.950 . S
H839 C848 0.950 . S
H840 C850 0.950 . S
H841 C852 0.950 . S
H842 C854 0.950 . S
H843 C855 0.950 . S
C844 H836 0.950 . S
C844 C845 1.386 . S
C844 C846 1.391 . S
C845 C844 1.386 . S
C845 C849 1.393 . S
C846 H838 0.950 . S
C846 C844 1.391 . S
C846 C847 1.400 . S
C847 C846 1.400 . S
C847 C848 1.398 . S
C847 C853 1.491 . S
C848 H839 0.950 . S
C848 C847 1.398 . S
C848 C849 1.391 . S
C849 H837 0.950 . S
C849 C845 1.393 . S
C849 C848 1.391 . S
C850 H840 0.950 . S
C850 C851 1.386 . S
C850 C852 1.391 . S
C851 C850 1.386 . S
C851 C855 1.393 . S
C852 H841 0.950 . S
C852 C850 1.391 . S
C852 C853 1.400 . S
C853 C847 1.491 . S
C853 C852 1.400 . S
C853 C854 1.398 . S
C854 H842 0.950 . S
C854 C853 1.398 . S
C854 C855 1.391 . S
C855 H843 0.950 . S
C855 C851 1.393 . S
C855 C854 1.391 . S
H856 C864 0.950 . S
H857 C869 0.950 . S
H858 C866 0.950 . S
H859 C868 0.950 . S
H860 C870 0.950 . S
H861 C872 0.950 . S
H862 C874 0.950 . S
H863 C875 0.950 1_554 S
C864 H856 0.950 . S
C864 C865 1.386 . S
C864 C866 1.391 . S
C865 C864 1.386 . S
C865 C869 1.393 . S
C866 H858 0.950 . S
C866 C864 1.391 . S
C866 C867 1.400 . S
C867 C866 1.400 . S
C867 C868 1.398 . S
C867 C873 1.491 . S
C868 H859 0.950 . S
C868 C867 1.398 . S
C868 C869 1.391 . S
C869 H857 0.950 . S
C869 C865 1.393 . S
C869 C868 1.391 . S
C870 H860 0.950 . S
C870 C871 1.386 . S
C870 C872 1.391 . S
C871 C870 1.386 . S
C871 C875 1.393 . S
C872 H861 0.950 . S
C872 C870 1.391 . S
C872 C873 1.400 . S
C873 C867 1.491 . S
C873 C872 1.400 . S
C873 C874 1.398 . S
C874 H862 0.950 . S
C874 C873 1.398 . S
C874 C875 1.391 . S
C875 H863 0.950 1_556 S
C875 C871 1.393 . S
C875 C874 1.391 . S
H876 C884 0.950 . S
H877 C889 0.950 . S
H878 C886 0.950 . S
H879 C888 0.950 . S
H880 C890 0.950 . S
H881 C892 0.950 . S
H882 C894 0.950 . S
H883 C895 0.950 . S
C884 H876 0.950 . S
C884 C885 1.386 . S
C884 C886 1.391 . S
C885 C884 1.386 . S
C885 C889 1.393 . S
C886 H878 0.950 . S
C886 C884 1.391 . S
C886 C887 1.400 . S
C887 C886 1.400 . S
C887 C888 1.398 . S
C887 C893 1.491 . S
C888 H879 0.950 . S
C888 C887 1.398 . S
C888 C889 1.391 . S
C889 H877 0.950 . S
C889 C885 1.393 . S
C889 C888 1.391 . S
C890 H880 0.950 . S
C890 C891 1.386 . S
C890 C892 1.391 . S
C891 C890 1.386 . S
C891 C895 1.393 . S
C892 H881 0.950 . S
C892 C890 1.391 . S
C892 C893 1.400 . S
C893 C887 1.491 . S
C893 C892 1.400 . S
C893 C894 1.398 . S
C894 H882 0.950 . S
C894 C893 1.398 . S
C894 C895 1.391 . S
C895 H883 0.950 . S
C895 C891 1.393 . S
C895 C894 1.391 . S
H896 C904 0.950 . S
H897 C909 0.950 . S
H898 C906 0.950 . S
H899 C908 0.950 . S
H900 C910 0.950 . S
H901 C912 0.950 . S
H902 C914 0.950 . S
H903 C915 0.950 . S
C904 H896 0.950 . S
C904 C905 1.386 . S
C904 C906 1.391 . S
C905 C904 1.386 . S
C905 C909 1.393 . S
C906 H898 0.950 . S
C906 C904 1.391 . S
C906 C907 1.400 . S
C907 C906 1.400 . S
C907 C908 1.398 . S
C907 C913 1.491 . S
C908 H899 0.950 . S
C908 C907 1.398 . S
C908 C909 1.391 . S
C909 H897 0.950 . S
C909 C905 1.393 . S
C909 C908 1.391 . S
C910 H900 0.950 . S
C910 C911 1.386 . S
C910 C912 1.391 . S
C911 C910 1.386 . S
C911 C915 1.393 . S
C912 H901 0.950 . S
C912 C910 1.391 . S
C912 C913 1.400 . S
C913 C907 1.491 . S
C913 C912 1.400 . S
C913 C914 1.398 . S
C914 H902 0.950 . S
C914 C913 1.398 . S
C914 C915 1.391 . S
C915 H903 0.950 . S
C915 C911 1.393 . S
C915 C914 1.391 . S
H916 C924 0.950 . S
H917 C929 0.950 . S
H918 C926 0.950 . S
H919 C928 0.950 . S
H920 C930 0.950 . S
H921 C932 0.950 . S
H922 C934 0.950 . S
H923 C935 0.950 . S
C924 H916 0.950 . S
C924 C925 1.386 . S
C924 C926 1.391 . S
C925 C924 1.386 . S
C925 C929 1.393 . S
C926 H918 0.950 . S
C926 C924 1.391 . S
C926 C927 1.400 . S
C927 C926 1.400 . S
C927 C928 1.398 . S
C927 C933 1.491 . S
C928 H919 0.950 . S
C928 C927 1.398 . S
C928 C929 1.391 . S
C929 H917 0.950 . S
C929 C925 1.393 . S
C929 C928 1.391 . S
C930 H920 0.950 . S
C930 C931 1.386 . S
C930 C932 1.391 . S
C931 C930 1.386 . S
C931 C935 1.393 . S
C932 H921 0.950 . S
C932 C930 1.391 . S
C932 C933 1.400 . S
C933 C927 1.491 . S
C933 C932 1.400 . S
C933 C934 1.398 . S
C934 H922 0.950 . S
C934 C933 1.398 . S
C934 C935 1.391 . S
C935 H923 0.950 . S
C935 C931 1.393 . S
C935 C934 1.391 . S
C465 C21 2.395 . S
C471 C320 2.393 . S
C485 C61 2.277 . S
C491 C362 2.351 . S
C511 C392 1.014 . S
C505 C82 1.008 . S
C525 C135 1.125 . S
C531 C426 1.128 . S
C551 C383 1.903 . S
C545 C15 1.884 . S
C571 C337 1.923 . S
C565 C42 1.848 . S
C591 C430 1.417 . S
C585 C101 1.417 . S
C611 C396 1.449 . S
C605 C122 1.444 . S
C625 C2 2.286 . S
C631 C451 2.295 . S
C651 C358 1.152 . S
C645 C95 1.144 . S
C665 C141 1.212 . S
C671 C333 1.213 . S
C685 C55 2.196 . S
C691 C417 2.214 . S
C711 C349 2.403 . S
C705 C181 2.342 . S
C725 C202 2.266 . S
C731 C371 2.327 . S
C745 C255 1.011 . S
C751 C401 1.017 . S
C765 C295 1.096 . S
C771 C435 1.101 . S
C785 C175 1.882 . S
C791 C354 1.902 . S
C811 C328 1.933 . S
C805 C221 1.865 . S
C831 C439 1.363 . S
C825 C242 1.300 . S
C851 C405 1.512 . S
C845 C301 1.515 . S
C865 C162 2.161 . S
C871 C422 2.240 . S
C891 C367 1.170 . S
C885 C261 1.131 . S
C911 C324 1.206 . S
C905 C282 1.183 . S
C925 C215 2.227 . S
C931 C388 2.249 . S
