# Generated by pormake.
# Topology zzz, (3,6)-cn, num edge types: 1
# Building blocks:
#     Node 0, Type 0, BuildingBlock: WUSLED_clean_sbu_0, # of connection points: 3
#     Node 1, Type 0, BuildingBlock: WUSLED_clean_sbu_0, # of connection points: 3
#     Node 2, Type 0, BuildingBlock: WUSLED_clean_sbu_0, # of connection points: 3
#     Node 3, Type 0, BuildingBlock: WUSLED_clean_sbu_0, # of connection points: 3
#     Node 4, Type 0, BuildingBlock: WUSLED_clean_sbu_0, # of connection points: 3
#     Node 5, Type 0, BuildingBlock: WUSLED_clean_sbu_0, # of connection points: 3
#     Node 6, Type 0, BuildingBlock: WUSLED_clean_sbu_0, # of connection points: 3
#     Node 7, Type 0, BuildingBlock: WUSLED_clean_sbu_0, # of connection points: 3
#     Node 8, Type 1, BuildingBlock: MIFKUJ_clean_sbu_0, # of connection points: 6
#     Node 9, Type 1, BuildingBlock: MIFKUJ_clean_sbu_0, # of connection points: 6
#     Node 10, Type 1, BuildingBlock: MIFKUJ_clean_sbu_0, # of connection points: 6
#     Node 11, Type 1, BuildingBlock: MIFKUJ_clean_sbu_0, # of connection points: 6
#     Edge 12, Type (0, 1), BuildingBlock: EYOCIG_clean_linker_4, # of connection points: 2
#     Edge 13, Type (0, 1), BuildingBlock: EYOCIG_clean_linker_4, # of connection points: 2
#     Edge 14, Type (0, 1), BuildingBlock: EYOCIG_clean_linker_4, # of connection points: 2
#     Edge 15, Type (0, 1), BuildingBlock: EYOCIG_clean_linker_4, # of connection points: 2
#     Edge 16, Type (0, 1), BuildingBlock: EYOCIG_clean_linker_4, # of connection points: 2
#     Edge 17, Type (0, 1), BuildingBlock: EYOCIG_clean_linker_4, # of connection points: 2
#     Edge 18, Type (0, 1), BuildingBlock: EYOCIG_clean_linker_4, # of connection points: 2
#     Edge 19, Type (0, 1), BuildingBlock: EYOCIG_clean_linker_4, # of connection points: 2
#     Edge 20, Type (0, 1), BuildingBlock: EYOCIG_clean_linker_4, # of connection points: 2
#     Edge 21, Type (0, 1), BuildingBlock: EYOCIG_clean_linker_4, # of connection points: 2
#     Edge 22, Type (0, 1), BuildingBlock: EYOCIG_clean_linker_4, # of connection points: 2
#     Edge 23, Type (0, 1), BuildingBlock: EYOCIG_clean_linker_4, # of connection points: 2
#     Edge 24, Type (0, 1), BuildingBlock: EYOCIG_clean_linker_4, # of connection points: 2
#     Edge 25, Type (0, 1), BuildingBlock: EYOCIG_clean_linker_4, # of connection points: 2
#     Edge 26, Type (0, 1), BuildingBlock: EYOCIG_clean_linker_4, # of connection points: 2
#     Edge 27, Type (0, 1), BuildingBlock: EYOCIG_clean_linker_4, # of connection points: 2
#     Edge 28, Type (0, 1), BuildingBlock: EYOCIG_clean_linker_4, # of connection points: 2
#     Edge 29, Type (0, 1), BuildingBlock: EYOCIG_clean_linker_4, # of connection points: 2
#     Edge 30, Type (0, 1), BuildingBlock: EYOCIG_clean_linker_4, # of connection points: 2
#     Edge 31, Type (0, 1), BuildingBlock: EYOCIG_clean_linker_4, # of connection points: 2
#     Edge 32, Type (0, 1), BuildingBlock: EYOCIG_clean_linker_4, # of connection points: 2
#     Edge 33, Type (0, 1), BuildingBlock: EYOCIG_clean_linker_4, # of connection points: 2
#     Edge 34, Type (0, 1), BuildingBlock: EYOCIG_clean_linker_4, # of connection points: 2
#     Edge 35, Type (0, 1), BuildingBlock: EYOCIG_clean_linker_4, # of connection points: 2
# Relax obj value: 0.297
# Max RMSD: 0.203
# Mean RMSD: 0.185
data_MOF--net-zzz--node1-WUSLED_clean_sbu_0--node2-MIFKUJ_clean_sbu_0--edge1-EYOCIG_clean_linker_4
_symmetry_space_group_name_H-M    P1
_symmetry_Int_Tables_number       1
_symmetry_cell_setting            triclinic
loop_
_symmetry_equiv_pos_as_xyz
'x, y, z'
_cell_length_a     51.143022
_cell_length_b     52.590324
_cell_length_c     19.243792
_cell_angle_alpha  89.652844
_cell_angle_beta   89.821486
_cell_angle_gamma 91.346537
loop_
_atom_site_label
_atom_site_type_symbol
_atom_site_fract_x
_atom_site_fract_y
_atom_site_fract_z
_atom_type_partial_charge
C0 C 0.77549 0.5674 0.22238 0.0
C1 C 0.80181 0.56585 0.20248 0.0
C2 C 0.81503 0.56582 0.32419 0.0
C3 C 0.82142 0.56506 0.25321 0.0
C4 C 0.78877 0.56814 0.344 0.0
C5 C 0.76916 0.56891 0.29331 0.0
U6 U 0.74403 0.57125 0.0375 0.0
O7 O 0.7096 0.59402 0.0124 0.0
O8 O 0.70746 0.55205 0.00405 0.0
C9 C 0.69492 0.5736 0.00167 0.0
C10 C 0.7541 0.56763 0.17121 0.0
C11 C 0.67106 0.57522 0.96004 0.0
C12 C 0.62386 0.56882 0.95749 0.0
C13 C 0.64702 0.57221 0.99488 0.0
C14 C 0.64825 0.57393 0.84989 0.0
C15 C 0.6246 0.56844 0.88478 0.0
C16 C 0.67153 0.57718 0.8874 0.0
C17 C 0.79967 0.57804 0.89064 0.0
C18 C 0.80643 0.57615 0.7664 0.0
C19 C 0.84356 0.57852 0.84468 0.0
C20 C 0.82669 0.57999 0.90088 0.0
C21 C 0.83333 0.57479 0.77822 0.0
C22 C 0.78939 0.57733 0.82317 0.0
C23 C 0.78358 0.57503 0.95262 0.0
O24 O 0.75065 0.58927 0.13867 0.0
O25 O 0.75136 0.54775 0.13051 0.0
O26 O 0.77172 0.55305 0.96626 0.0
O27 O 0.77287 0.59501 0.98034 0.0
H28 H 0.80714 0.56492 0.14805 0.0
H29 H 0.84161 0.56332 0.23702 0.0
H30 H 0.78334 0.56877 0.39843 0.0
H31 H 0.74893 0.57035 0.30951 0.0
H32 H 0.60577 0.56474 0.98534 0.0
H33 H 0.64638 0.57093 0.05112 0.0
H34 H 0.649 0.57392 0.79362 0.0
H35 H 0.68989 0.57979 0.85979 0.0
H36 H 0.79854 0.57304 0.71485 0.0
H37 H 0.86439 0.57731 0.85423 0.0
H38 H 0.83478 0.58076 0.95286 0.0
H39 H 0.76848 0.57604 0.81478 0.0
C40 C 0.01433 0.76766 0.24997 0.0
C41 C 0.01768 0.79324 0.22996 0.0
C42 C 0.0076 0.80666 0.34779 0.0
C43 C 0.01442 0.81258 0.27877 0.0
C44 C 0.00467 0.78109 0.36814 0.0
C45 C 0.00802 0.76173 0.31937 0.0
U46 U 0.01635 0.73983 0.06401 0.0
O47 O 0.03433 0.70412 0.02956 0.0
O48 O 0.99113 0.70863 0.02493 0.0
C49 C 0.01118 0.69374 0.01698 0.0
C50 C 0.01541 0.74685 0.19918 0.0
C51 C 0.00808 0.66893 0.9837 0.0
C52 C 0.00741 0.62275 0.99221 0.0
C53 C 0.00942 0.64661 0.02394 0.0
C54 C 1.00222 0.64355 0.88037 0.0
C55 C 0.00414 0.62126 0.92004 0.0
C56 C 0.00411 0.6673 0.91201 0.0
C57 C 0.01521 0.79492 0.92126 0.0
C58 C 0.01224 0.80028 0.79626 0.0
C59 C 0.00863 0.8366 0.87285 0.0
C60 C 0.01148 0.82092 0.92995 0.0
C61 C 0.01003 0.82654 0.80616 0.0
C62 C 0.01484 0.78428 0.85437 0.0
C63 C 0.0176 0.78033 0.98528 0.0
O64 O 0.99436 0.74376 0.1611 0.0
O65 O 0.03721 0.74456 0.16351 0.0
O66 O 0.03882 0.76743 0.99826 0.0
O67 O 0.99597 0.77047 0.01164 0.0
H68 H 0.02234 0.79824 0.17657 0.0
H69 H 0.01682 0.83225 0.26234 0.0
H70 H 0.99946 0.77609 0.42118 0.0
H71 H 0.0052 0.74207 0.33552 0.0
H72 H 0.00889 0.60566 0.02356 0.0
H73 H 0.0123 0.64769 0.07964 0.0
H74 H 0.99969 0.64258 0.82454 0.0
H75 H 1.00293 0.68435 0.88042 0.0
H76 H 0.01338 0.7925 0.74435 0.0
H77 H 0.0069 0.8569 0.88089 0.0
H78 H 0.01122 0.82926 0.98134 0.0
H79 H 0.01715 0.76405 0.84723 0.0
C80 C 0.73273 0.9435 0.23947 0.0
C81 C 0.70642 0.94512 0.21997 0.0
C82 C 0.69319 0.94419 0.34178 0.0
C83 C 0.6868 0.94547 0.27096 0.0
C84 C 0.71943 0.94191 0.36127 0.0
C85 C 0.73906 0.94158 0.31029 0.0
U86 U 0.76458 0.93992 0.05435 0.0
O87 O 0.79917 0.91728 0.02959 0.0
O88 O 0.80131 0.95921 0.02148 0.0
C89 C 0.81394 0.93772 0.01893 0.0
C90 C 0.75411 0.94341 0.18796 0.0
C91 C 0.83754 0.93639 0.97532 0.0
C92 C 0.88475 0.94329 0.96855 0.0
C93 C 0.86188 0.93979 0.00798 0.0
C94 C 0.85948 0.93768 0.86327 0.0
C95 C 0.88347 0.94335 0.89578 0.0
C96 C 0.83652 0.93433 0.9028 0.0
C97 C 0.70861 0.93368 0.90843 0.0
C98 C 0.70065 0.93599 0.78471 0.0
C99 C 0.66429 0.93336 0.8661 0.0
C100 C 0.68169 0.93178 0.92093 0.0
C101 C 0.67384 0.93715 0.79867 0.0
C102 C 0.71823 0.93462 0.84007 0.0
C103 C 0.72542 0.9364 0.96887 0.0
O104 O 0.75767 0.9218 0.156 0.0
O105 O 0.7568 0.96333 0.14665 0.0
O106 O 0.73734 0.95831 0.98204 0.0
O107 O 0.73575 0.91631 0.99759 0.0
H108 H 0.7011 0.94636 0.16564 0.0
H109 H 0.66661 0.94723 0.25513 0.0
H110 H 0.72482 0.94092 0.41562 0.0
H111 H 0.75929 0.9401 0.32617 0.0
H112 H 0.90304 0.94747 0.99485 0.0
H113 H 0.86301 0.94117 0.0641 0.0
H114 H 0.85823 0.9374 0.8071 0.0
H115 H 0.81796 0.93144 0.87674 0.0
H116 H 0.70805 0.93906 0.73241 0.0
H117 H 0.64353 0.93435 0.87729 0.0
H118 H 0.67409 0.93085 0.97357 0.0
H119 H 0.73906 0.93585 0.82993 0.0
C120 C 0.45556 0.73617 0.24971 0.0
C121 C 0.45247 0.71031 0.23372 0.0
C122 C 0.46883 0.69887 0.34834 0.0
C123 C 0.45896 0.69179 0.28305 0.0
C124 C 0.47101 0.72472 0.36524 0.0
C125 C 0.46434 0.74323 0.31615 0.0
U126 U 0.45425 0.76706 0.06319 0.0
O127 O 0.47801 0.80148 0.04246 0.0
O128 O 0.43502 0.80263 0.03179 0.0
C129 C 0.45746 0.81544 0.0319 0.0
C130 C 0.4531 0.75632 0.19692 0.0
C131 C 0.46092 0.83854 0.9899 0.0
C132 C 0.46826 0.88438 0.98883 0.0
C133 C 0.46295 0.8618 0.02518 0.0
C134 C 0.46947 0.86063 0.88122 0.0
C135 C 0.47152 0.88381 0.91671 0.0
C136 C 0.46426 0.83797 0.91769 0.0
C137 C 0.45869 0.71325 0.91419 0.0
C138 C 0.45866 0.70367 0.79082 0.0
C139 C 0.46169 0.66974 0.87635 0.0
C140 C 0.46086 0.68739 0.92953 0.0
C141 C 0.46023 0.6777 0.80714 0.0
C142 C 0.45782 0.72153 0.84466 0.0
C143 C 0.45704 0.73072 0.97262 0.0
O144 O 0.47455 0.76144 0.16163 0.0
O145 O 0.43184 0.75696 0.15859 0.0
O146 O 0.43461 0.74053 0.99074 0.0
O147 O 0.47807 0.74102 0.00089 0.0
H148 H 0.44595 0.70446 0.18264 0.0
H149 H 0.45705 0.67188 0.2694 0.0
H150 H 0.47851 0.73063 0.41537 0.0
H151 H 0.46701 0.76315 0.32912 0.0
H152 H 0.46987 0.90214 0.01694 0.0
H153 H 0.46078 0.86241 0.08121 0.0
H154 H 0.47202 0.86007 0.82532 0.0
H155 H 0.46312 0.82013 0.88989 0.0
H156 H 0.45769 0.71 0.73721 0.0
H157 H 0.46303 0.64973 0.88942 0.0
H158 H 0.46158 0.68077 0.98292 0.0
H159 H 0.45625 0.74156 0.83231 0.0
C160 C 0.22782 0.41871 0.96889 0.0
C161 C 0.20115 0.41457 0.98267 0.0
C162 C 0.1903 0.42907 0.86565 0.0
C163 C 0.18255 0.41967 0.93124 0.0
C164 C 0.2171 0.43188 0.85057 0.0
C165 C 0.2357 0.42671 0.90193 0.0
U166 U 0.26218 0.41244 0.15442 0.0
O167 O 0.29784 0.43537 0.1698 0.0
O168 O 0.29993 0.39371 0.17477 0.0
C169 C 0.3128 0.41566 0.17716 0.0
C170 C 0.24789 0.4168 0.02354 0.0
C171 C 0.33535 0.41918 0.2239 0.0
C172 C 0.38117 0.43257 0.23143 0.0
C173 C 0.35985 0.42368 0.19249 0.0
C174 C 0.35425 0.43116 0.3352 0.0
C175 C 0.37834 0.43694 0.30274 0.0
C176 C 0.33272 0.42248 0.29593 0.0
C177 C 0.20795 0.40961 0.30746 0.0
C178 C 0.1938 0.41957 0.42424 0.0
C179 C 0.16332 0.42166 0.32808 0.0
C180 C 0.18262 0.41341 0.28251 0.0
C181 C 0.16971 0.42666 0.39747 0.0
C182 C 0.21295 0.41108 0.37901 0.0
C183 C 0.23065 0.40953 0.26118 0.0
O184 O 0.25073 0.43623 0.06565 0.0
O185 O 0.25133 0.39471 0.05432 0.0
O186 O 0.23983 0.43129 0.2362 0.0
O187 O 0.23649 0.38936 0.22473 0.0
H188 H 0.19469 0.4083 0.03372 0.0
H189 H 0.16198 0.41723 0.94368 0.0
H190 H 0.22361 0.439 0.80031 0.0
H191 H 0.25627 0.42987 0.89014 0.0
H192 H 0.39954 0.43696 0.20527 0.0
H193 H 0.36213 0.42162 0.13679 0.0
H194 H 0.35179 0.43439 0.39036 0.0
H195 H 0.31392 0.41946 0.3211 0.0
H196 H 0.19885 0.42339 0.47793 0.0
H197 H 0.14449 0.42696 0.30747 0.0
H198 H 0.17844 0.41227 0.22747 0.0
H199 H 0.23247 0.40818 0.39887 0.0
C200 C 0.01784 0.23932 0.94076 0.0
C201 C 0.02018 0.21375 0.95988 0.0
C202 C 0.01357 0.20127 0.83968 0.0
C203 C 0.01807 0.19483 0.90939 0.0
C204 C 0.01108 0.22684 0.82052 0.0
C205 C 0.01322 0.24579 0.87103 0.0
U206 U 0.01765 0.26992 0.12562 0.0
O207 O 0.99248 0.30208 0.14842 0.0
O208 O 0.03547 0.30727 0.15145 0.0
C209 C 0.01251 0.31801 0.15419 0.0
C210 C 0.01841 0.25965 0.9923 0.0
C211 C 0.00936 0.34073 0.19619 0.0
C212 C 0.00545 0.38666 0.199 0.0
C213 C 0.00853 0.36428 0.16156 0.0
C214 C 0.00351 0.36197 0.30593 0.0
C215 C 0.00325 0.38553 0.27143 0.0
C216 C 0.00655 0.33956 0.26845 0.0
C217 C 0.01806 0.21538 0.27558 0.0
C218 C 0.00937 0.20589 0.39722 0.0
C219 C 0.00966 0.17194 0.31236 0.0
C220 C 0.01607 0.18943 0.26034 0.0
C221 C 0.00501 0.1803 0.37992 0.0
C222 C 0.01581 0.22356 0.34468 0.0
C223 C 0.0184 0.23322 0.21696 0.0
O224 O 0.99688 0.26191 0.02863 0.0
O225 O 0.0398 0.26281 0.02938 0.0
O226 O 0.03983 0.24577 0.19807 0.0
O227 O 0.99651 0.24116 0.1896 0.0
H228 H 0.02338 0.20846 0.01362 0.0
H229 H 0.01986 0.1751 0.92482 0.0
H230 H 0.0074 0.23214 0.76699 0.0
H231 H 0.01102 0.26551 0.85584 0.0
H232 H 0.00528 0.40474 0.17167 0.0
H233 H 0.01044 0.36534 0.10548 0.0
H234 H 1.0018 0.36097 0.36203 0.0
H235 H 0.00691 0.32148 0.29565 0.0
H236 H 0.00611 0.21239 0.44981 0.0
H237 H 0.00658 0.15211 0.29877 0.0
H238 H 0.01777 0.18284 0.20729 0.0
H239 H 0.01742 0.24359 0.35712 0.0
C240 C 0.27346 0.08838 0.9475 0.0
C241 C 0.29998 0.09225 0.96413 0.0
C242 C 0.31294 0.07825 0.84836 0.0
C243 C 0.31952 0.08731 0.91476 0.0
C244 C 0.28642 0.07546 0.83068 0.0
C245 C 0.26689 0.08049 0.87991 0.0
U246 U 0.24413 0.09318 0.13566 0.0
O247 O 0.20627 0.10946 0.1682 0.0
O248 O 0.21266 0.068 0.17732 0.0
C249 C 0.19631 0.08676 0.18315 0.0
C250 C 0.25232 0.08994 1.00033 0.0
C251 C 0.17117 0.083 0.22066 0.0
C252 C 0.12455 0.07167 0.21596 0.0
C253 C 0.14796 0.07935 0.1825 0.0
C254 C 0.14695 0.07264 0.32654 0.0
C255 C 0.1241 0.06766 0.28827 0.0
C256 C 0.17034 0.0801 0.2931 0.0
C257 C 0.30157 0.09756 0.27707 0.0
C258 C 0.30682 0.08595 0.39841 0.0
C259 C 0.34405 0.0859 0.32003 0.0
C260 C 0.32844 0.09473 0.26659 0.0
C261 C 0.3329 0.07999 0.38462 0.0
C262 C 0.29092 0.09449 0.34409 0.0
C263 C 0.28561 0.09776 0.21408 0.0
O264 O 0.24974 0.07022 0.04201 0.0
O265 O 0.24921 0.11166 0.0326 0.0
O266 O 0.27151 0.11746 0.19729 0.0
O267 O 0.27609 0.07579 0.19268 0.0
H268 H 0.3056 0.09825 0.01582 0.0
H269 H 0.33987 0.08965 0.92936 0.0
H270 H 0.28079 0.06852 0.77985 0.0
H271 H 0.24656 0.07732 0.86594 0.0
H272 H 0.10718 0.06803 0.18513 0.0
H273 H 0.14822 0.08138 0.12641 0.0
H274 H 0.14695 0.06981 0.38235 0.0
H275 H 0.18795 0.08273 0.32359 0.0
H276 H 0.29815 0.0816 0.44868 0.0
H277 H 0.36421 0.08141 0.30882 0.0
H278 H 0.33692 0.09689 0.21511 0.0
H279 H 0.27017 0.0966 0.35298 0.0
C280 C 0.52284 0.27133 0.94132 0.0
C281 C 0.52103 0.29696 0.95962 0.0
C282 C 0.52345 0.30914 0.83755 0.0
C283 C 0.52134 0.31575 0.90785 0.0
C284 C 0.52599 0.28355 0.81929 0.0
C285 C 0.52568 0.26474 0.87112 0.0
U286 U 0.52415 0.24122 0.12772 0.0
O287 O 0.54883 0.2086 0.15056 0.0
O288 O 0.50574 0.20461 0.15999 0.0
C289 C 0.52846 0.19335 0.16047 0.0
C290 C 0.52268 0.25099 0.99376 0.0
C291 C 0.53166 0.1699 0.20006 0.0
C292 C 0.53267 0.12378 0.19899 0.0
C293 C 0.53131 0.14689 0.16343 0.0
C294 C 0.53617 0.14667 0.30784 0.0
C295 C 0.53433 0.12368 0.27148 0.0
C296 C 0.53482 0.16982 0.27223 0.0
C297 C 0.52579 0.29615 0.27419 0.0
C298 C 0.53184 0.30578 0.3965 0.0
C299 C 0.53216 0.33972 0.31042 0.0
C300 C 0.52767 0.32209 0.25825 0.0
C301 C 0.53494 0.33165 0.37921 0.0
C302 C 0.5273 0.28792 0.34366 0.0
C303 C 0.52476 0.27854 0.21583 0.0
O304 O 0.54441 0.24871 0.02898 0.0
O305 O 0.50152 0.24788 0.03221 0.0
O306 O 0.50288 0.26668 0.19811 0.0
O307 O 0.54633 0.26956 0.18917 0.0
H308 H 0.51923 0.30239 0.0136 0.0
H309 H 0.51958 0.33548 0.92264 0.0
H310 H 0.52784 0.27808 0.76533 0.0
H311 H 0.52749 0.24499 0.85643 0.0
H312 H 0.53122 0.10612 0.17031 0.0
H313 H 0.52922 0.14681 0.10738 0.0
H314 H 0.53752 0.14668 0.36404 0.0
H315 H 0.53547 0.18747 0.30096 0.0
H316 H 0.53355 0.29942 0.44993 0.0
H317 H 0.53422 0.3597 0.29665 0.0
H318 H 0.52654 0.32868 0.20489 0.0
H319 H 0.52576 0.26786 0.35653 0.0
Zn320 Zn 0.99657 0.04278 0.61722 0.0
Zn321 Zn 0.00953 0.9669 0.56532 0.0
C322 C 0.99622 0.0906 0.68557 0.0
O323 O 0.97108 0.08614 0.67738 0.0
C324 C 0.01007 0.91818 0.50038 0.0
O325 O 0.03503 0.92228 0.51253 0.0
O326 O 0.97226 0.05983 0.55388 0.0
O327 O 0.02126 0.02596 0.54706 0.0
O328 O 0.03293 0.98933 0.50324 0.0
C329 C 0.98598 0.07515 0.5173 0.0
O330 O 0.01158 0.07426 0.51987 0.0
O331 O 0.01247 0.07363 0.66871 0.0
C332 C 0.01659 0.93535 0.66764 0.0
O333 O 0.99124 0.93712 0.65965 0.0
O334 O 0.03198 0.94979 0.63291 0.0
O335 O 0.98589 0.9851 0.63337 0.0
O336 O 0.97361 0.02055 0.68077 0.0
O337 O 0.99383 0.93566 0.51348 0.0
C338 C 0.03552 0.0134 0.50579 0.0
C339 C 0.97124 0.9966 0.6756 0.0
Zn340 Zn 0.46426 0.01881 0.60886 0.0
Zn341 Zn 0.53878 0.99002 0.57968 0.0
C342 C 0.41661 0.03084 0.68307 0.0
O343 O 0.41277 0.00637 0.67327 0.0
C344 C 0.58715 0.97871 0.50915 0.0
O345 O 0.59042 0.00329 0.51818 0.0
O346 O 0.43856 0.0046 0.54097 0.0
O347 O 0.49041 0.03837 0.54678 0.0
O348 O 0.52709 0.0181 0.51977 0.0
C349 C 0.43001 0.02355 0.50771 0.0
O350 O 0.44243 0.04557 0.51186 0.0
O351 O 0.43846 0.04129 0.66461 0.0
C352 C 0.57166 0.9867 0.68297 0.0
O353 O 0.56002 0.96433 0.67821 0.0
O354 O 0.56292 0.0053 0.64882 0.0
O355 O 0.51283 0.97006 0.63961 0.0
O356 O 0.47646 0.99038 0.66928 0.0
O357 O 0.56541 0.9679 0.52658 0.0
C358 C 0.51116 0.03588 0.511 0.0
C359 C 0.49253 0.97257 0.67696 0.0
Zn360 Zn 0.50868 0.46902 0.61544 0.0
Zn361 Zn 0.49732 0.53948 0.56569 0.0
C362 C 0.52168 0.42119 0.68169 0.0
O363 O 0.54547 0.42976 0.66841 0.0
C364 C 0.48533 0.58834 0.50154 0.0
O365 O 0.46149 0.58092 0.51857 0.0
O366 O 0.53518 0.45691 0.54665 0.0
O367 O 0.47593 0.47602 0.55899 0.0
O368 O 0.47803 0.51367 0.50409 0.0
C369 C 0.52506 0.43827 0.51383 0.0
O370 O 0.49976 0.43387 0.51803 0.0
O371 O 0.50221 0.43531 0.66948 0.0
C372 C 0.48353 0.57036 0.67019 0.0
O373 O 0.5089 0.57391 0.66439 0.0
O374 O 0.47249 0.55212 0.63783 0.0
O375 O 0.53115 0.53079 0.61613 0.0
O376 O 0.52514 0.49548 0.67988 0.0
O377 O 0.50425 0.57326 0.51105 0.0
C378 C 0.46873 0.49108 0.51107 0.0
C379 C 0.53536 0.51756 0.67042 0.0
Zn380 Zn 0.0448 0.49514 0.61618 0.0
Zn381 Zn 0.96398 0.51319 0.57478 0.0
C382 C 0.09027 0.47943 0.69219 0.0
O383 O 0.095 0.50393 0.68465 0.0
C384 C 0.91845 0.52855 0.50022 0.0
O385 O 0.91431 0.50393 0.50677 0.0
O386 O 0.07048 0.50976 0.55047 0.0
O387 O 0.0155 0.48224 0.55121 0.0
O388 O 0.97504 0.48548 0.51288 0.0
C389 C 0.07732 0.49075 0.51548 0.0
O390 O 0.06389 0.46925 0.52068 0.0
O391 O 0.06848 0.46993 0.67053 0.0
C392 C 0.93185 0.51694 0.67609 0.0
O393 O 0.94583 0.53816 0.67354 0.0
O394 O 0.93881 0.49811 0.64062 0.0
O395 O 0.99314 0.5256 0.63951 0.0
O396 O 0.03346 0.52297 0.6783 0.0
O397 O 0.94006 0.53841 0.5219 0.0
C398 C 0.99692 0.47472 0.51184 0.0
C399 C 0.01132 0.53326 0.67968 0.0
C400 C 0.08424 0.04791 0.36198 0.0
C401 C 0.10122 0.05684 0.32402 0.0
C402 C 0.06655 0.03664 0.41171 0.0
C403 C 0.05228 0.02654 0.45508 0.0
C404 C 0.52774 0.08348 0.35127 0.0
C405 C 0.53074 0.1005 0.31001 0.0
C406 C 0.52182 0.06662 0.40617 0.0
C407 C 0.51629 0.05297 0.4545 0.0
C408 C 0.41625 0.4591 0.3768 0.0
C409 C 0.39939 0.44903 0.34163 0.0
C410 C 0.43477 0.47141 0.42091 0.0
C411 C 0.45026 0.48126 0.46062 0.0
C412 C 1.0016 0.42515 0.3537 0.0
C413 C 1.00235 0.40832 0.31181 0.0
C414 C 1.00186 0.44249 0.40908 0.0
C415 C 1.00131 0.45693 0.4573 0.0
C416 C 0.92264 0.96035 0.81535 0.0
C417 C 0.90549 0.95271 0.85441 0.0
C418 C 0.94052 0.97168 0.76663 0.0
C419 C 0.95468 0.9825 0.72451 0.0
C420 C 0.48094 0.92398 0.8378 0.0
C421 C 0.47665 0.9068 0.878 0.0
C422 C 0.48527 0.94156 0.78344 0.0
C423 C 0.48875 0.95564 0.73466 0.0
C424 C 0.58526 0.54997 0.80994 0.0
C425 C 0.60258 0.5583 0.84639 0.0
C426 C 0.56722 0.53812 0.764 0.0
C427 C 0.5526 0.5281 0.72256 0.0
C428 C 0.00333 0.58041 0.84255 0.0
C429 C 0.0039 0.59737 0.88424 0.0
C430 C 0.0039 0.56367 0.78571 0.0
C431 C 0.00591 0.54997 0.73618 0.0
C432 C 0.98263 0.14418 0.45313 0.0
C433 C 0.99266 0.1627 0.42704 0.0
C434 C 0.97474 0.11972 0.47418 0.0
C435 C 0.9752 0.09825 0.49453 0.0
C436 C 0.36218 0.04883 0.45399 0.0
C437 C 0.34679 0.06304 0.42882 0.0
C438 C 0.38276 0.03304 0.47237 0.0
C439 C 0.40325 0.02431 0.48892 0.0
C440 C 0.54615 0.37088 0.45615 0.0
C441 C 0.54138 0.35073 0.42945 0.0
C442 C 0.54668 0.3965 0.47631 0.0
C443 C 0.54071 0.41743 0.49399 0.0
C444 C 0.14097 0.46074 0.45649 0.0
C445 C 0.15509 0.44507 0.43366 0.0
C446 C 0.12278 0.47879 0.4749 0.0
C447 C 0.10349 0.48903 0.49347 0.0
C448 C 0.0188 0.86467 0.72542 0.0
C449 C 0.01442 0.84438 0.75156 0.0
C450 C 0.0247 0.88999 0.70923 0.0
C451 C 0.02541 0.91165 0.6909 0.0
C452 C 0.64009 0.9621 0.72763 0.0
C453 C 0.65753 0.95036 0.75196 0.0
C454 C 0.61897 0.97747 0.71341 0.0
C455 C 0.59843 0.98643 0.69968 0.0
C456 C 0.45953 0.63792 0.72771 0.0
C457 C 0.45956 0.6583 0.75541 0.0
C458 C 0.46209 0.6125 0.70756 0.0
C459 C 0.46874 0.59177 0.68999 0.0
C460 C 0.8653 0.54742 0.70957 0.0
C461 C 0.84859 0.56046 0.73197 0.0
C462 C 0.88519 0.53034 0.69934 0.0
C463 C 0.90506 0.51974 0.6888 0.0
C464 C 0.01027 0.16179 0.75617 0.0
C465 C 0.01143 0.18119 0.78926 0.0
C466 C 0.00829 0.1371 0.72761 0.0
C467 C 0.0047 0.1155 0.70819 0.0
C468 C 0.35236 0.06361 0.76768 0.0
C469 C 0.33352 0.06994 0.80166 0.0
C470 C 0.37557 0.05466 0.7352 0.0
C471 C 0.3952 0.04536 0.71125 0.0
C472 C 0.52031 0.34835 0.75201 0.0
C473 C 0.52201 0.32898 0.78558 0.0
C474 C 0.51832 0.37317 0.72359 0.0
C475 C 0.51816 0.39515 0.70462 0.0
C476 C 0.15225 0.44468 0.78221 0.0
C477 C 0.17056 0.43793 0.81744 0.0
C478 C 0.12966 0.45415 0.74795 0.0
C479 C 0.11066 0.46398 0.72212 0.0
C480 C 1.00055 0.84668 0.42807 0.0
C481 C 0.00326 0.82716 0.39608 0.0
C482 C 0.99959 0.8715 0.45657 0.0
C483 C 1.00186 0.89327 0.47639 0.0
C484 C 0.65327 0.94985 0.42814 0.0
C485 C 0.67271 0.94703 0.39317 0.0
C486 C 0.62923 0.95624 0.46027 0.0
C487 C 0.60898 0.96455 0.4828 0.0
C488 C 0.48366 0.66036 0.42728 0.0
C489 C 0.47753 0.67928 0.39563 0.0
C490 C 0.4885 0.63592 0.45577 0.0
C491 C 0.48944 0.61408 0.47603 0.0
C492 C 0.85454 0.55907 0.41136 0.0
C493 C 0.83543 0.56232 0.37544 0.0
C494 C 0.87801 0.55228 0.44596 0.0
C495 C 0.89766 0.54361 0.47126 0.0
loop_
_geom_bond_atom_site_label_1
_geom_bond_atom_site_label_2
_geom_bond_distance
_geom_bond_site_symmetry_2
_ccdc_geom_bond_type
C0 C1 1.264 . S
C0 C5 1.479 . S
C0 C10 1.465 . S
C1 C0 1.264 . S
C1 C3 1.339 . S
C1 H28 0.931 . S
C2 C3 1.395 . S
C2 C4 1.320 . S
C3 C1 1.339 . S
C3 C2 1.395 . S
C3 H29 0.929 . S
C4 C2 1.320 . S
C4 C5 1.405 . S
C4 H30 0.930 . S
C5 C0 1.479 . S
C5 C4 1.405 . S
C5 H31 0.931 . S
U6 O7 2.454 . S
U6 O8 2.458 1_554 S
U6 C9 2.984 1_554 S
U6 C10 2.847 . S
U6 C23 2.882 1_554 S
U6 O24 2.441 . S
U6 O25 2.420 . S
U6 O26 2.455 1_554 S
U6 O27 2.449 1_554 S
O7 U6 2.454 . S
O7 C9 1.353 1_554 S
O8 U6 2.458 1_556 S
O8 C9 1.286 . S
C9 U6 2.984 1_556 S
C9 O7 1.353 1_556 S
C9 O8 1.286 . S
C9 C11 1.363 . S
C10 C0 1.465 . S
C10 U6 2.847 . S
C10 O24 1.249 . S
C10 O25 1.202 . S
C11 C9 1.363 . S
C11 C13 1.408 1_556 S
C11 C16 1.342 . S
C12 C13 1.310 1_556 S
C12 C15 1.461 . S
C12 H32 0.932 1_556 S
C13 C11 1.408 1_554 S
C13 C12 1.310 1_554 S
C13 H33 0.930 . S
C14 C15 1.474 . S
C14 C16 1.285 . S
C14 H34 0.929 . S
C15 C12 1.461 . S
C15 C14 1.474 . S
C16 C11 1.342 . S
C16 C14 1.285 . S
C16 H35 0.930 . S
C17 C20 1.424 . S
C17 C22 1.245 . S
C17 C23 1.428 . S
C18 C21 1.260 . S
C18 C22 1.477 . S
C18 H36 0.932 . S
C19 C20 1.384 . S
C19 C21 1.479 . S
C19 H37 0.929 . S
C20 C17 1.424 . S
C20 C19 1.384 . S
C20 H38 0.928 . S
C21 C18 1.260 . S
C21 C19 1.479 . S
C22 C17 1.245 . S
C22 C18 1.477 . S
C22 H39 0.932 . S
C23 U6 2.882 1_556 S
C23 C17 1.428 . S
C23 O26 1.301 . S
C23 O27 1.282 . S
O24 U6 2.441 . S
O24 C10 1.249 . S
O25 U6 2.420 . S
O25 C10 1.202 . S
O26 U6 2.455 1_556 S
O26 C23 1.301 . S
O27 U6 2.449 1_556 S
O27 C23 1.282 . S
H28 C1 0.931 . S
H29 C3 0.929 . S
H30 C4 0.930 . S
H31 C5 0.931 . S
H32 C12 0.932 1_554 S
H33 C13 0.930 . S
H34 C14 0.929 . S
H35 C16 0.930 . S
H36 C18 0.932 . S
H37 C19 0.929 . S
H38 C20 0.928 . S
H39 C22 0.932 . S
C40 C41 1.264 . S
C40 C45 1.479 . S
C40 C50 1.465 . S
C41 C40 1.264 . S
C41 C43 1.339 . S
C41 H68 0.931 . S
C42 C43 1.395 . S
C42 C44 1.320 . S
C43 C41 1.339 . S
C43 C42 1.395 . S
C43 H69 0.929 . S
C44 C42 1.320 . S
C44 C45 1.405 . S
C44 H70 0.930 1_455 S
C45 C40 1.479 . S
C45 C44 1.405 . S
C45 H71 0.931 . S
U46 O47 2.454 . S
U46 O48 2.458 1_554 S
U46 C49 2.984 . S
U46 C50 2.847 . S
U46 C63 2.882 1_554 S
U46 O64 2.441 . S
U46 O65 2.420 . S
U46 O66 2.455 1_554 S
U46 O67 2.449 1_554 S
O47 U46 2.454 . S
O47 C49 1.353 . S
O48 U46 2.458 1_556 S
O48 C49 1.286 1_556 S
C49 U46 2.984 . S
C49 O47 1.353 . S
C49 O48 1.286 1_554 S
C49 C51 1.363 1_554 S
C50 C40 1.465 . S
C50 U46 2.847 . S
C50 O64 1.249 . S
C50 O65 1.202 . S
C51 C49 1.363 1_556 S
C51 C53 1.408 1_556 S
C51 C56 1.342 . S
C52 C53 1.310 . S
C52 C55 1.461 1_554 S
C52 H72 0.932 . S
C53 C51 1.408 1_554 S
C53 C52 1.310 . S
C53 H73 0.930 . S
C54 C55 1.474 1_655 S
C54 C56 1.285 1_655 S
C54 H74 0.930 . S
C55 C52 1.461 1_556 S
C55 C54 1.474 1_455 S
C56 C51 1.342 . S
C56 C54 1.285 1_455 S
C56 H75 0.933 . S
C57 C60 1.424 . S
C57 C62 1.245 . S
C57 C63 1.428 . S
C58 C61 1.260 . S
C58 C62 1.477 . S
C58 H76 0.932 . S
C59 C60 1.384 . S
C59 C61 1.479 . S
C59 H77 0.929 . S
C60 C57 1.424 . S
C60 C59 1.384 . S
C60 H78 0.928 . S
C61 C58 1.260 . S
C61 C59 1.479 . S
C62 C57 1.245 . S
C62 C58 1.477 . S
C62 H79 0.932 . S
C63 U46 2.882 1_556 S
C63 C57 1.428 . S
C63 O66 1.301 . S
C63 O67 1.282 . S
O64 U46 2.441 . S
O64 C50 1.249 . S
O65 U46 2.420 . S
O65 C50 1.202 . S
O66 U46 2.455 1_556 S
O66 C63 1.301 . S
O67 U46 2.449 1_556 S
O67 C63 1.282 . S
H68 C41 0.931 . S
H69 C43 0.929 . S
H70 C44 0.930 1_655 S
H71 C45 0.931 . S
H72 C52 0.932 . S
H73 C53 0.930 . S
H74 C54 0.930 . S
H75 C56 0.933 . S
H76 C58 0.932 . S
H77 C59 0.929 . S
H78 C60 0.928 . S
H79 C62 0.932 . S
C80 C81 1.264 . S
C80 C85 1.479 . S
C80 C90 1.465 . S
C81 C80 1.264 . S
C81 C83 1.339 . S
C81 H108 0.931 . S
C82 C83 1.395 . S
C82 C84 1.320 . S
C83 C81 1.339 . S
C83 C82 1.395 . S
C83 H109 0.929 . S
C84 C82 1.320 . S
C84 C85 1.405 . S
C84 H110 0.930 . S
C85 C80 1.479 . S
C85 C84 1.405 . S
C85 H111 0.931 . S
U86 O87 2.454 . S
U86 O88 2.458 1_554 S
U86 C89 2.984 1_554 S
U86 C90 2.847 . S
U86 C103 2.882 1_554 S
U86 O104 2.441 . S
U86 O105 2.420 . S
U86 O106 2.455 1_554 S
U86 O107 2.449 1_554 S
O87 U86 2.454 . S
O87 C89 1.353 1_554 S
O88 U86 2.458 1_556 S
O88 C89 1.286 . S
C89 U86 2.984 1_556 S
C89 O87 1.353 1_556 S
C89 O88 1.286 . S
C89 C91 1.363 . S
C90 C80 1.465 . S
C90 U86 2.847 . S
C90 O104 1.249 . S
C90 O105 1.202 . S
C91 C89 1.363 . S
C91 C93 1.408 1_556 S
C91 C96 1.342 . S
C92 C93 1.310 . S
C92 C95 1.461 1_554 S
C92 H112 0.932 . S
C93 C91 1.408 1_554 S
C93 C92 1.310 . S
C93 H113 0.930 . S
C94 C95 1.474 . S
C94 C96 1.285 . S
C94 H114 0.929 . S
C95 C92 1.461 1_556 S
C95 C94 1.474 . S
C96 C91 1.342 . S
C96 C94 1.285 . S
C96 H115 0.930 . S
C97 C100 1.424 . S
C97 C102 1.245 . S
C97 C103 1.428 . S
C98 C101 1.260 . S
C98 C102 1.477 . S
C98 H116 0.932 . S
C99 C100 1.384 . S
C99 C101 1.479 . S
C99 H117 0.929 . S
C100 C97 1.424 . S
C100 C99 1.384 . S
C100 H118 0.928 . S
C101 C98 1.260 . S
C101 C99 1.479 . S
C102 C97 1.245 . S
C102 C98 1.477 . S
C102 H119 0.932 . S
C103 U86 2.882 1_556 S
C103 C97 1.428 . S
C103 O106 1.301 . S
C103 O107 1.282 . S
O104 U86 2.441 . S
O104 C90 1.249 . S
O105 U86 2.420 . S
O105 C90 1.202 . S
O106 U86 2.455 1_556 S
O106 C103 1.301 . S
O107 U86 2.449 1_556 S
O107 C103 1.282 . S
H108 C81 0.931 . S
H109 C83 0.929 . S
H110 C84 0.930 . S
H111 C85 0.931 . S
H112 C92 0.932 . S
H113 C93 0.930 . S
H114 C94 0.929 . S
H115 C96 0.930 . S
H116 C98 0.932 . S
H117 C99 0.929 . S
H118 C100 0.928 . S
H119 C102 0.932 . S
C120 C121 1.264 . S
C120 C125 1.479 . S
C120 C130 1.465 . S
C121 C120 1.264 . S
C121 C123 1.339 . S
C121 H148 0.931 . S
C122 C123 1.395 . S
C122 C124 1.320 . S
C123 C121 1.339 . S
C123 C122 1.395 . S
C123 H149 0.929 . S
C124 C122 1.320 . S
C124 C125 1.405 . S
C124 H150 0.930 . S
C125 C120 1.479 . S
C125 C124 1.405 . S
C125 H151 0.931 . S
U126 O127 2.454 . S
U126 O128 2.458 1_554 S
U126 C129 2.984 . S
U126 C130 2.847 . S
U126 C143 2.882 1_554 S
U126 O144 2.441 . S
U126 O145 2.420 . S
U126 O146 2.455 1_554 S
U126 O147 2.449 1_554 S
O127 U126 2.454 . S
O127 C129 1.353 . S
O128 U126 2.458 1_556 S
O128 C129 1.286 1_556 S
C129 U126 2.984 . S
C129 O127 1.353 . S
C129 O128 1.286 1_554 S
C129 C131 1.363 1_554 S
C130 C120 1.465 . S
C130 U126 2.847 . S
C130 O144 1.249 . S
C130 O145 1.202 . S
C131 C129 1.363 1_556 S
C131 C133 1.408 1_556 S
C131 C136 1.342 . S
C132 C133 1.310 . S
C132 C135 1.461 1_554 S
C132 H152 0.932 . S
C133 C131 1.408 1_554 S
C133 C132 1.310 . S
C133 H153 0.930 . S
C134 C135 1.474 . S
C134 C136 1.285 . S
C134 H154 0.929 . S
C135 C132 1.461 1_556 S
C135 C134 1.474 . S
C136 C131 1.342 . S
C136 C134 1.285 . S
C136 H155 0.930 . S
C137 C140 1.424 . S
C137 C142 1.245 . S
C137 C143 1.428 . S
C138 C141 1.260 . S
C138 C142 1.477 . S
C138 H156 0.932 . S
C139 C140 1.384 . S
C139 C141 1.479 . S
C139 H157 0.929 . S
C140 C137 1.424 . S
C140 C139 1.384 . S
C140 H158 0.928 . S
C141 C138 1.260 . S
C141 C139 1.479 . S
C142 C137 1.245 . S
C142 C138 1.477 . S
C142 H159 0.932 . S
C143 U126 2.882 1_556 S
C143 C137 1.428 . S
C143 O146 1.301 . S
C143 O147 1.282 . S
O144 U126 2.441 . S
O144 C130 1.249 . S
O145 U126 2.420 . S
O145 C130 1.202 . S
O146 U126 2.455 1_556 S
O146 C143 1.301 . S
O147 U126 2.449 1_556 S
O147 C143 1.282 . S
H148 C121 0.931 . S
H149 C123 0.929 . S
H150 C124 0.930 . S
H151 C125 0.931 . S
H152 C132 0.932 . S
H153 C133 0.930 . S
H154 C134 0.929 . S
H155 C136 0.930 . S
H156 C138 0.932 . S
H157 C139 0.929 . S
H158 C140 0.928 . S
H159 C142 0.932 . S
C160 C161 1.264 . S
C160 C165 1.479 . S
C160 C170 1.465 1_556 S
C161 C160 1.264 . S
C161 C163 1.339 . S
C161 H188 0.931 . S
C162 C163 1.395 . S
C162 C164 1.320 . S
C163 C161 1.339 . S
C163 C162 1.395 . S
C163 H189 0.929 . S
C164 C162 1.320 . S
C164 C165 1.405 . S
C164 H190 0.930 . S
C165 C160 1.479 . S
C165 C164 1.405 . S
C165 H191 0.931 . S
U166 O167 2.454 . S
U166 O168 2.458 . S
U166 C169 2.984 . S
U166 C170 2.847 . S
U166 C183 2.882 . S
U166 O184 2.441 . S
U166 O185 2.420 . S
U166 O186 2.455 . S
U166 O187 2.449 . S
O167 U166 2.454 . S
O167 C169 1.353 . S
O168 U166 2.458 . S
O168 C169 1.286 . S
C169 U166 2.984 . S
C169 O167 1.353 . S
C169 O168 1.286 . S
C169 C171 1.363 . S
C170 C160 1.465 1_554 S
C170 U166 2.847 . S
C170 O184 1.249 . S
C170 O185 1.202 . S
C171 C169 1.363 . S
C171 C173 1.408 . S
C171 C176 1.342 . S
C172 C173 1.310 . S
C172 C175 1.461 . S
C172 H192 0.932 . S
C173 C171 1.408 . S
C173 C172 1.310 . S
C173 H193 0.930 . S
C174 C175 1.474 . S
C174 C176 1.285 . S
C174 H194 0.929 . S
C175 C172 1.461 . S
C175 C174 1.474 . S
C176 C171 1.342 . S
C176 C174 1.285 . S
C176 H195 0.930 . S
C177 C180 1.424 . S
C177 C182 1.245 . S
C177 C183 1.428 . S
C178 C181 1.260 . S
C178 C182 1.477 . S
C178 H196 0.932 . S
C179 C180 1.384 . S
C179 C181 1.479 . S
C179 H197 0.929 . S
C180 C177 1.424 . S
C180 C179 1.384 . S
C180 H198 0.928 . S
C181 C178 1.260 . S
C181 C179 1.479 . S
C182 C177 1.245 . S
C182 C178 1.477 . S
C182 H199 0.932 . S
C183 U166 2.882 . S
C183 C177 1.428 . S
C183 O186 1.301 . S
C183 O187 1.282 . S
O184 U166 2.441 . S
O184 C170 1.249 . S
O185 U166 2.420 . S
O185 C170 1.202 . S
O186 U166 2.455 . S
O186 C183 1.301 . S
O187 U166 2.449 . S
O187 C183 1.282 . S
H188 C161 0.931 . S
H189 C163 0.929 . S
H190 C164 0.930 . S
H191 C165 0.931 . S
H192 C172 0.932 . S
H193 C173 0.930 . S
H194 C174 0.929 . S
H195 C176 0.930 . S
H196 C178 0.932 . S
H197 C179 0.929 . S
H198 C180 0.928 . S
H199 C182 0.932 . S
C200 C201 1.264 . S
C200 C205 1.479 . S
C200 C210 1.465 1_556 S
C201 C200 1.264 . S
C201 C203 1.339 . S
C201 H228 0.931 . S
C202 C203 1.395 . S
C202 C204 1.320 . S
C203 C201 1.339 . S
C203 C202 1.395 . S
C203 H229 0.929 . S
C204 C202 1.320 . S
C204 C205 1.405 . S
C204 H230 0.922 1_455 S
C205 C200 1.479 . S
C205 C204 1.405 . S
C205 H231 0.931 . S
U206 O207 2.454 . S
U206 O208 2.458 . S
U206 C209 2.984 . S
U206 C210 2.847 . S
U206 C223 2.882 . S
U206 O224 2.441 . S
U206 O225 2.420 . S
U206 O226 2.455 . S
U206 O227 2.449 . S
O207 U206 2.454 . S
O207 C209 1.353 . S
O208 U206 2.458 . S
O208 C209 1.286 . S
C209 U206 2.984 . S
C209 O207 1.353 . S
C209 O208 1.286 . S
C209 C211 1.363 . S
C210 C200 1.465 1_554 S
C210 U206 2.847 . S
C210 O224 1.249 . S
C210 O225 1.202 . S
C211 C209 1.363 . S
C211 C213 1.408 . S
C211 C216 1.342 . S
C212 C213 1.310 . S
C212 C215 1.462 . S
C212 H232 0.932 . S
C213 C211 1.408 . S
C213 C212 1.310 . S
C213 H233 0.930 . S
C214 C215 1.474 1_655 S
C214 C216 1.286 1_655 S
C214 H234 0.929 . S
C215 C212 1.462 . S
C215 C214 1.474 1_455 S
C216 C211 1.342 . S
C216 C214 1.286 1_455 S
C216 H235 0.930 . S
C217 C220 1.424 . S
C217 C222 1.245 . S
C217 C223 1.428 . S
C218 C221 1.260 . S
C218 C222 1.477 . S
C218 H236 0.932 . S
C219 C220 1.384 . S
C219 C221 1.479 . S
C219 H237 0.929 . S
C220 C217 1.424 . S
C220 C219 1.384 . S
C220 H238 0.928 . S
C221 C218 1.260 . S
C221 C219 1.479 . S
C222 C217 1.245 . S
C222 C218 1.477 . S
C222 H239 0.932 . S
C223 U206 2.882 . S
C223 C217 1.428 . S
C223 O226 1.301 . S
C223 O227 1.282 . S
O224 U206 2.441 . S
O224 C210 1.249 . S
O225 U206 2.420 . S
O225 C210 1.202 . S
O226 U206 2.455 . S
O226 C223 1.301 . S
O227 U206 2.449 . S
O227 C223 1.282 . S
H228 C201 0.931 . S
H229 C203 0.929 . S
H230 C204 0.922 1_655 S
H231 C205 0.931 . S
H232 C212 0.932 . S
H233 C213 0.930 . S
H234 C214 0.929 . S
H235 C216 0.930 . S
H236 C218 0.932 . S
H237 C219 0.929 . S
H238 C220 0.928 . S
H239 C222 0.932 . S
C240 C241 1.264 . S
C240 C245 1.479 . S
C240 C250 1.465 1_556 S
C241 C240 1.264 . S
C241 C243 1.339 . S
C241 H268 0.931 . S
C242 C243 1.395 . S
C242 C244 1.320 . S
C243 C241 1.339 . S
C243 C242 1.395 . S
C243 H269 0.929 . S
C244 C242 1.320 . S
C244 C245 1.405 . S
C244 H270 0.930 . S
C245 C240 1.479 . S
C245 C244 1.405 . S
C245 H271 0.931 . S
U246 O247 2.454 . S
U246 O248 2.458 . S
U246 C249 2.984 . S
U246 C250 2.847 . S
U246 C263 2.882 . S
U246 O264 2.441 . S
U246 O265 2.420 . S
U246 O266 2.455 . S
U246 O267 2.449 . S
O247 U246 2.454 . S
O247 C249 1.353 . S
O248 U246 2.458 . S
O248 C249 1.286 . S
C249 U246 2.984 . S
C249 O247 1.353 . S
C249 O248 1.286 . S
C249 C251 1.363 . S
C250 C240 1.465 1_554 S
C250 U246 2.847 . S
C250 O264 1.249 . S
C250 O265 1.202 . S
C251 C249 1.363 . S
C251 C253 1.408 . S
C251 C256 1.342 . S
C252 C253 1.310 . S
C252 C255 1.461 . S
C252 H272 0.932 . S
C253 C251 1.408 . S
C253 C252 1.310 . S
C253 H273 0.930 . S
C254 C255 1.474 . S
C254 C256 1.285 . S
C254 H274 0.929 . S
C255 C252 1.461 . S
C255 C254 1.474 . S
C256 C251 1.342 . S
C256 C254 1.285 . S
C256 H275 0.930 . S
C257 C260 1.424 . S
C257 C262 1.245 . S
C257 C263 1.428 . S
C258 C261 1.260 . S
C258 C262 1.477 . S
C258 H276 0.932 . S
C259 C260 1.384 . S
C259 C261 1.479 . S
C259 H277 0.929 . S
C260 C257 1.424 . S
C260 C259 1.384 . S
C260 H278 0.928 . S
C261 C258 1.260 . S
C261 C259 1.479 . S
C262 C257 1.245 . S
C262 C258 1.477 . S
C262 H279 0.932 . S
C263 U246 2.882 . S
C263 C257 1.428 . S
C263 O266 1.301 . S
C263 O267 1.282 . S
O264 U246 2.441 . S
O264 C250 1.249 . S
O265 U246 2.420 . S
O265 C250 1.202 . S
O266 U246 2.455 . S
O266 C263 1.301 . S
O267 U246 2.449 . S
O267 C263 1.282 . S
H268 C241 0.931 . S
H269 C243 0.929 . S
H270 C244 0.930 . S
H271 C245 0.931 . S
H272 C252 0.932 . S
H273 C253 0.930 . S
H274 C254 0.929 . S
H275 C256 0.930 . S
H276 C258 0.932 . S
H277 C259 0.929 . S
H278 C260 0.928 . S
H279 C262 0.932 . S
C280 C281 1.264 . S
C280 C285 1.479 . S
C280 C290 1.465 1_556 S
C281 C280 1.264 . S
C281 C283 1.339 . S
C281 H308 0.931 . S
C282 C283 1.395 . S
C282 C284 1.320 . S
C283 C281 1.339 . S
C283 C282 1.395 . S
C283 H309 0.929 . S
C284 C282 1.320 . S
C284 C285 1.405 . S
C284 H310 0.930 . S
C285 C280 1.479 . S
C285 C284 1.405 . S
C285 H311 0.931 . S
U286 O287 2.454 . S
U286 O288 2.458 . S
U286 C289 2.984 . S
U286 C290 2.847 . S
U286 C303 2.882 . S
U286 O304 2.441 . S
U286 O305 2.420 . S
U286 O306 2.455 . S
U286 O307 2.449 . S
O287 U286 2.454 . S
O287 C289 1.353 . S
O288 U286 2.458 . S
O288 C289 1.286 . S
C289 U286 2.984 . S
C289 O287 1.353 . S
C289 O288 1.286 . S
C289 C291 1.363 . S
C290 C280 1.465 1_554 S
C290 U286 2.847 . S
C290 O304 1.249 . S
C290 O305 1.202 . S
C291 C289 1.363 . S
C291 C293 1.408 . S
C291 C296 1.342 . S
C292 C293 1.310 . S
C292 C295 1.461 . S
C292 H312 0.932 . S
C293 C291 1.408 . S
C293 C292 1.310 . S
C293 H313 0.930 . S
C294 C295 1.474 . S
C294 C296 1.285 . S
C294 H314 0.929 . S
C295 C292 1.461 . S
C295 C294 1.474 . S
C296 C291 1.342 . S
C296 C294 1.285 . S
C296 H315 0.930 . S
C297 C300 1.424 . S
C297 C302 1.245 . S
C297 C303 1.428 . S
C298 C301 1.260 . S
C298 C302 1.477 . S
C298 H316 0.932 . S
C299 C300 1.384 . S
C299 C301 1.479 . S
C299 H317 0.929 . S
C300 C297 1.424 . S
C300 C299 1.384 . S
C300 H318 0.928 . S
C301 C298 1.260 . S
C301 C299 1.479 . S
C302 C297 1.245 . S
C302 C298 1.477 . S
C302 H319 0.932 . S
C303 U286 2.882 . S
C303 C297 1.428 . S
C303 O306 1.301 . S
C303 O307 1.282 . S
O304 U286 2.441 . S
O304 C290 1.249 . S
O305 U286 2.420 . S
O305 C290 1.202 . S
O306 U286 2.455 . S
O306 C303 1.301 . S
O307 U286 2.449 . S
O307 C303 1.282 . S
H308 C281 0.931 . S
H309 C283 0.929 . S
H310 C284 0.930 . S
H311 C285 0.931 . S
H312 C292 0.932 . S
H313 C293 0.930 . S
H314 C294 0.929 . S
H315 C296 0.930 . S
H316 C298 0.932 . S
H317 C299 0.929 . S
H318 C300 0.928 . S
H319 C302 0.932 . S
Zn320 O326 1.969 . S
Zn320 O327 1.965 1_655 S
Zn320 O331 2.024 1_655 S
Zn320 O336 1.969 . S
Zn321 O328 1.969 . S
Zn321 O334 1.969 . S
Zn321 O335 1.965 1_455 S
Zn321 O337 2.024 1_455 S
C322 O323 1.229 1_455 S
C322 O331 1.058 . S
O323 C322 1.229 1_655 S
C324 O325 1.229 1_655 S
C324 O337 1.058 . S
O325 C324 1.229 1_455 S
O326 Zn320 1.969 . S
O326 C329 1.267 . S
O327 Zn320 1.965 1_455 S
O327 C338 1.260 . S
O328 Zn321 1.969 . S
O328 C338 1.258 1_565 S
C329 O326 1.267 . S
C329 O330 1.228 1_655 S
O330 C329 1.228 1_455 S
O331 Zn320 2.024 1_455 S
O331 C322 1.058 . S
C332 O333 1.228 1_455 S
C332 O334 1.267 . S
O333 C332 1.228 1_655 S
O334 Zn321 1.969 . S
O334 C332 1.267 . S
O335 Zn321 1.965 1_655 S
O335 C339 1.260 1_565 S
O336 Zn320 1.969 . S
O336 C339 1.258 . S
O337 Zn321 2.024 1_655 S
O337 C324 1.058 . S
C338 O327 1.260 . S
C338 O328 1.258 1_545 S
C339 O335 1.260 1_545 S
C339 O336 1.258 . S
Zn340 O346 1.969 . S
Zn340 O347 1.965 . S
Zn340 O351 2.024 . S
Zn340 O356 1.969 1_545 S
Zn341 O348 1.969 1_565 S
Zn341 O354 1.969 1_565 S
Zn341 O355 1.965 . S
Zn341 O357 2.024 . S
C342 O343 1.229 . S
C342 O351 1.058 . S
O343 C342 1.229 . S
C344 O345 1.229 . S
C344 O357 1.058 . S
O345 C344 1.229 . S
O346 Zn340 1.969 . S
O346 C349 1.267 . S
O347 Zn340 1.965 . S
O347 C358 1.260 . S
O348 Zn341 1.969 1_545 S
O348 C358 1.258 . S
C349 O346 1.267 . S
C349 O350 1.228 . S
O350 C349 1.228 . S
O351 Zn340 2.024 . S
O351 C342 1.058 . S
C352 O353 1.228 . S
C352 O354 1.267 1_565 S
O353 C352 1.228 . S
O354 Zn341 1.969 1_545 S
O354 C352 1.267 1_545 S
O355 Zn341 1.965 . S
O355 C359 1.260 . S
O356 Zn340 1.969 1_565 S
O356 C359 1.258 . S
O357 Zn341 2.024 . S
O357 C344 1.058 . S
C358 O347 1.260 . S
C358 O348 1.258 . S
C359 O355 1.260 . S
C359 O356 1.258 . S
Zn360 O366 1.969 . S
Zn360 O367 1.965 . S
Zn360 O371 2.024 . S
Zn360 O376 1.969 . S
Zn361 O368 1.969 . S
Zn361 O374 1.969 . S
Zn361 O375 1.965 . S
Zn361 O377 2.024 . S
C362 O363 1.229 . S
C362 O371 1.058 . S
O363 C362 1.229 . S
C364 O365 1.229 . S
C364 O377 1.058 . S
O365 C364 1.229 . S
O366 Zn360 1.969 . S
O366 C369 1.267 . S
O367 Zn360 1.965 . S
O367 C378 1.260 . S
O368 Zn361 1.969 . S
O368 C378 1.258 . S
C369 O366 1.267 . S
C369 O370 1.228 . S
O370 C369 1.228 . S
O371 Zn360 2.024 . S
O371 C362 1.058 . S
C372 O373 1.228 . S
C372 O374 1.267 . S
O373 C372 1.228 . S
O374 Zn361 1.969 . S
O374 C372 1.267 . S
O375 Zn361 1.965 . S
O375 C379 1.260 . S
O376 Zn360 1.969 . S
O376 C379 1.258 . S
O377 Zn361 2.024 . S
O377 C364 1.058 . S
C378 O367 1.260 . S
C378 O368 1.258 . S
C379 O375 1.260 . S
C379 O376 1.258 . S
Zn380 O386 1.969 . S
Zn380 O387 1.965 . S
Zn380 O391 2.024 . S
Zn380 O396 1.969 . S
Zn381 O388 1.969 . S
Zn381 O394 1.969 . S
Zn381 O395 1.965 . S
Zn381 O397 2.024 . S
C382 O383 1.229 . S
C382 O391 1.058 . S
O383 C382 1.229 . S
C384 O385 1.229 . S
C384 O397 1.058 . S
O385 C384 1.229 . S
O386 Zn380 1.969 . S
O386 C389 1.267 . S
O387 Zn380 1.965 . S
O387 C398 1.260 1_455 S
O388 Zn381 1.969 . S
O388 C398 1.258 . S
C389 O386 1.267 . S
C389 O390 1.228 . S
O390 C389 1.228 . S
O391 Zn380 2.024 . S
O391 C382 1.058 . S
C392 O393 1.228 . S
C392 O394 1.267 . S
O393 C392 1.228 . S
O394 Zn381 1.969 . S
O394 C392 1.267 . S
O395 Zn381 1.965 . S
O395 C399 1.260 1_655 S
O396 Zn380 1.969 . S
O396 C399 1.258 . S
O397 Zn381 2.024 . S
O397 C384 1.058 . S
C398 O387 1.260 1_655 S
C398 O388 1.258 . S
C399 O395 1.260 1_455 S
C399 O396 1.258 . S
C400 C401 1.170 . S
C400 C402 1.380 . S
C401 C400 1.170 . S
C402 C400 1.380 . S
C402 C403 1.170 . S
C403 C402 1.170 . S
C404 C405 1.170 . S
C404 C406 1.380 . S
C405 C404 1.170 . S
C406 C404 1.380 . S
C406 C407 1.170 . S
C407 C406 1.170 . S
C408 C409 1.170 . S
C408 C410 1.380 . S
C409 C408 1.170 . S
C410 C408 1.380 . S
C410 C411 1.170 . S
C411 C410 1.170 . S
C412 C413 1.170 . S
C412 C414 1.380 . S
C413 C412 1.170 . S
C414 C412 1.380 . S
C414 C415 1.170 . S
C415 C414 1.170 . S
C416 C417 1.170 . S
C416 C418 1.380 . S
C417 C416 1.170 . S
C418 C416 1.380 . S
C418 C419 1.170 . S
C419 C418 1.170 . S
C420 C421 1.170 . S
C420 C422 1.380 . S
C421 C420 1.170 . S
C422 C420 1.380 . S
C422 C423 1.170 . S
C423 C422 1.170 . S
C424 C425 1.170 . S
C424 C426 1.380 . S
C425 C424 1.170 . S
C426 C424 1.380 . S
C426 C427 1.170 . S
C427 C426 1.170 . S
C428 C429 1.170 . S
C428 C430 1.380 . S
C429 C428 1.170 . S
C430 C428 1.380 . S
C430 C431 1.170 . S
C431 C430 1.170 . S
C432 C433 1.170 . S
C432 C434 1.380 . S
C433 C432 1.170 . S
C434 C432 1.380 . S
C434 C435 1.170 . S
C435 C434 1.170 . S
C436 C437 1.170 . S
C436 C438 1.380 . S
C437 C436 1.170 . S
C438 C436 1.380 . S
C438 C439 1.170 . S
C439 C438 1.170 . S
C440 C441 1.170 . S
C440 C442 1.380 . S
C441 C440 1.170 . S
C442 C440 1.380 . S
C442 C443 1.170 . S
C443 C442 1.170 . S
C444 C445 1.170 . S
C444 C446 1.380 . S
C445 C444 1.170 . S
C446 C444 1.380 . S
C446 C447 1.170 . S
C447 C446 1.170 . S
C448 C449 1.165 1_455 S
C448 C450 1.380 . S
C449 C448 1.165 1_655 S
C450 C448 1.380 . S
C450 C451 1.170 . S
C451 C450 1.170 . S
C452 C453 1.170 . S
C452 C454 1.380 . S
C453 C452 1.170 . S
C454 C452 1.380 . S
C454 C455 1.170 . S
C455 C454 1.170 . S
C456 C457 1.170 . S
C456 C458 1.380 . S
C457 C456 1.170 . S
C458 C456 1.380 . S
C458 C459 1.170 . S
C459 C458 1.170 . S
C460 C461 1.170 . S
C460 C462 1.380 . S
C461 C460 1.170 . S
C462 C460 1.380 . S
C462 C463 1.170 . S
C463 C462 1.170 . S
C464 C465 1.170 . S
C464 C466 1.380 . S
C465 C464 1.170 . S
C466 C464 1.380 . S
C466 C467 1.170 . S
C467 C466 1.170 . S
C468 C469 1.170 . S
C468 C470 1.380 . S
C469 C468 1.170 . S
C470 C468 1.380 . S
C470 C471 1.170 . S
C471 C470 1.170 . S
C472 C473 1.170 . S
C472 C474 1.380 . S
C473 C472 1.170 . S
C474 C472 1.380 . S
C474 C475 1.170 . S
C475 C474 1.170 . S
C476 C477 1.170 . S
C476 C478 1.380 . S
C477 C476 1.170 . S
C478 C476 1.380 . S
C478 C479 1.170 . S
C479 C478 1.170 . S
C480 C481 1.170 . S
C480 C482 1.380 . S
C481 C480 1.170 . S
C482 C480 1.380 . S
C482 C483 1.170 . S
C483 C482 1.170 . S
C484 C485 1.170 . S
C484 C486 1.380 . S
C485 C484 1.170 . S
C486 C484 1.380 . S
C486 C487 1.170 . S
C487 C486 1.170 . S
C488 C489 1.170 . S
C488 C490 1.380 . S
C489 C488 1.170 . S
C490 C488 1.380 . S
C490 C491 1.170 . S
C491 C490 1.170 . S
C492 C493 1.170 . S
C492 C494 1.380 . S
C493 C492 1.170 . S
C494 C492 1.380 . S
C494 C495 1.170 . S
C495 C494 1.170 . S
C401 C255 2.074 . S
C403 C338 2.120 . S
C407 C358 1.720 . S
C405 C295 1.791 . S
C411 C378 2.094 . S
C409 C175 1.990 . S
C415 C398 1.744 . S
C413 C215 1.733 1_655 S
C419 C339 2.113 1_565 S
C417 C95 2.055 . S
C421 C135 1.803 . S
C423 C359 1.720 . S
C425 C15 2.012 . S
C427 C379 2.060 . S
C429 C55 1.774 . S
C431 C399 1.723 . S
C435 C329 0.857 . S
C433 C221 0.796 1_655 S
C439 C349 1.006 . S
C437 C261 1.172 . S
C443 C369 0.892 . S
C441 C301 0.806 . S
C445 C181 1.139 . S
C447 C389 1.085 . S
C449 C61 0.803 1_655 S
C451 C332 0.772 . S
C455 C352 1.090 . S
C453 C101 1.007 . S
C459 C372 0.868 . S
C457 C141 0.869 . S
C461 C21 1.022 . S
C463 C392 1.089 . S
C465 C202 2.340 . S
C467 C322 2.285 . S
C469 C242 2.467 . S
C471 C342 2.319 . S
C475 C362 2.193 . S
C473 C282 2.302 . S
C479 C382 2.412 . S
C477 C162 2.506 . S
C481 C42 2.383 1_655 S
C483 C324 2.253 . S
C487 C344 2.320 . S
C485 C82 2.366 . S
C491 C364 2.222 . S
C489 C122 2.360 . S
C493 C2 2.404 . S
C495 C384 2.411 . S
