# Generated by pormake.
# Topology gar, (4,6)-cn, num edge types: 1
# Building blocks:
#     Node 0, Type 0, BuildingBlock: CEKHIL_clean_sbu_0, # of connection points: 4
#     Node 1, Type 0, BuildingBlock: CEKHIL_clean_sbu_0, # of connection points: 4
#     Node 2, Type 0, BuildingBlock: CEKHIL_clean_sbu_0, # of connection points: 4
#     Node 3, Type 0, BuildingBlock: CEKHIL_clean_sbu_0, # of connection points: 4
#     Node 4, Type 0, BuildingBlock: CEKHIL_clean_sbu_0, # of connection points: 4
#     Node 5, Type 0, BuildingBlock: CEKHIL_clean_sbu_0, # of connection points: 4
#     Node 6, Type 0, BuildingBlock: CEKHIL_clean_sbu_0, # of connection points: 4
#     Node 7, Type 0, BuildingBlock: CEKHIL_clean_sbu_0, # of connection points: 4
#     Node 8, Type 0, BuildingBlock: CEKHIL_clean_sbu_0, # of connection points: 4
#     Node 9, Type 0, BuildingBlock: CEKHIL_clean_sbu_0, # of connection points: 4
#     Node 10, Type 0, BuildingBlock: CEKHIL_clean_sbu_0, # of connection points: 4
#     Node 11, Type 0, BuildingBlock: CEKHIL_clean_sbu_0, # of connection points: 4
#     Node 12, Type 0, BuildingBlock: CEKHIL_clean_sbu_0, # of connection points: 4
#     Node 13, Type 0, BuildingBlock: CEKHIL_clean_sbu_0, # of connection points: 4
#     Node 14, Type 0, BuildingBlock: CEKHIL_clean_sbu_0, # of connection points: 4
#     Node 15, Type 0, BuildingBlock: CEKHIL_clean_sbu_0, # of connection points: 4
#     Node 16, Type 0, BuildingBlock: CEKHIL_clean_sbu_0, # of connection points: 4
#     Node 17, Type 0, BuildingBlock: CEKHIL_clean_sbu_0, # of connection points: 4
#     Node 18, Type 0, BuildingBlock: CEKHIL_clean_sbu_0, # of connection points: 4
#     Node 19, Type 0, BuildingBlock: CEKHIL_clean_sbu_0, # of connection points: 4
#     Node 20, Type 0, BuildingBlock: CEKHIL_clean_sbu_0, # of connection points: 4
#     Node 21, Type 0, BuildingBlock: CEKHIL_clean_sbu_0, # of connection points: 4
#     Node 22, Type 0, BuildingBlock: CEKHIL_clean_sbu_0, # of connection points: 4
#     Node 23, Type 0, BuildingBlock: CEKHIL_clean_sbu_0, # of connection points: 4
#     Node 24, Type 1, BuildingBlock: GEDQOX_clean_sbu_0, # of connection points: 6
#     Node 25, Type 1, BuildingBlock: GEDQOX_clean_sbu_0, # of connection points: 6
#     Node 26, Type 1, BuildingBlock: GEDQOX_clean_sbu_0, # of connection points: 6
#     Node 27, Type 1, BuildingBlock: GEDQOX_clean_sbu_0, # of connection points: 6
#     Node 28, Type 1, BuildingBlock: GEDQOX_clean_sbu_0, # of connection points: 6
#     Node 29, Type 1, BuildingBlock: GEDQOX_clean_sbu_0, # of connection points: 6
#     Node 30, Type 1, BuildingBlock: GEDQOX_clean_sbu_0, # of connection points: 6
#     Node 31, Type 1, BuildingBlock: GEDQOX_clean_sbu_0, # of connection points: 6
#     Node 32, Type 1, BuildingBlock: GEDQOX_clean_sbu_0, # of connection points: 6
#     Node 33, Type 1, BuildingBlock: GEDQOX_clean_sbu_0, # of connection points: 6
#     Node 34, Type 1, BuildingBlock: GEDQOX_clean_sbu_0, # of connection points: 6
#     Node 35, Type 1, BuildingBlock: GEDQOX_clean_sbu_0, # of connection points: 6
#     Node 36, Type 1, BuildingBlock: GEDQOX_clean_sbu_0, # of connection points: 6
#     Node 37, Type 1, BuildingBlock: GEDQOX_clean_sbu_0, # of connection points: 6
#     Node 38, Type 1, BuildingBlock: GEDQOX_clean_sbu_0, # of connection points: 6
#     Node 39, Type 1, BuildingBlock: GEDQOX_clean_sbu_0, # of connection points: 6
#     Edge 40, Type (0, 1), BuildingBlock: TEMPAE_clean_linker_10, # of connection points: 2
#     Edge 41, Type (0, 1), BuildingBlock: TEMPAE_clean_linker_10, # of connection points: 2
#     Edge 42, Type (0, 1), BuildingBlock: TEMPAE_clean_linker_10, # of connection points: 2
#     Edge 43, Type (0, 1), BuildingBlock: TEMPAE_clean_linker_10, # of connection points: 2
#     Edge 44, Type (0, 1), BuildingBlock: TEMPAE_clean_linker_10, # of connection points: 2
#     Edge 45, Type (0, 1), BuildingBlock: TEMPAE_clean_linker_10, # of connection points: 2
#     Edge 46, Type (0, 1), BuildingBlock: TEMPAE_clean_linker_10, # of connection points: 2
#     Edge 47, Type (0, 1), BuildingBlock: TEMPAE_clean_linker_10, # of connection points: 2
#     Edge 48, Type (0, 1), BuildingBlock: TEMPAE_clean_linker_10, # of connection points: 2
#     Edge 49, Type (0, 1), BuildingBlock: TEMPAE_clean_linker_10, # of connection points: 2
#     Edge 50, Type (0, 1), BuildingBlock: TEMPAE_clean_linker_10, # of connection points: 2
#     Edge 51, Type (0, 1), BuildingBlock: TEMPAE_clean_linker_10, # of connection points: 2
#     Edge 52, Type (0, 1), BuildingBlock: TEMPAE_clean_linker_10, # of connection points: 2
#     Edge 53, Type (0, 1), BuildingBlock: TEMPAE_clean_linker_10, # of connection points: 2
#     Edge 54, Type (0, 1), BuildingBlock: TEMPAE_clean_linker_10, # of connection points: 2
#     Edge 55, Type (0, 1), BuildingBlock: TEMPAE_clean_linker_10, # of connection points: 2
#     Edge 56, Type (0, 1), BuildingBlock: TEMPAE_clean_linker_10, # of connection points: 2
#     Edge 57, Type (0, 1), BuildingBlock: TEMPAE_clean_linker_10, # of connection points: 2
#     Edge 58, Type (0, 1), BuildingBlock: TEMPAE_clean_linker_10, # of connection points: 2
#     Edge 59, Type (0, 1), BuildingBlock: TEMPAE_clean_linker_10, # of connection points: 2
#     Edge 60, Type (0, 1), BuildingBlock: TEMPAE_clean_linker_10, # of connection points: 2
#     Edge 61, Type (0, 1), BuildingBlock: TEMPAE_clean_linker_10, # of connection points: 2
#     Edge 62, Type (0, 1), BuildingBlock: TEMPAE_clean_linker_10, # of connection points: 2
#     Edge 63, Type (0, 1), BuildingBlock: TEMPAE_clean_linker_10, # of connection points: 2
#     Edge 64, Type (0, 1), BuildingBlock: TEMPAE_clean_linker_10, # of connection points: 2
#     Edge 65, Type (0, 1), BuildingBlock: TEMPAE_clean_linker_10, # of connection points: 2
#     Edge 66, Type (0, 1), BuildingBlock: TEMPAE_clean_linker_10, # of connection points: 2
#     Edge 67, Type (0, 1), BuildingBlock: TEMPAE_clean_linker_10, # of connection points: 2
#     Edge 68, Type (0, 1), BuildingBlock: TEMPAE_clean_linker_10, # of connection points: 2
#     Edge 69, Type (0, 1), BuildingBlock: TEMPAE_clean_linker_10, # of connection points: 2
#     Edge 70, Type (0, 1), BuildingBlock: TEMPAE_clean_linker_10, # of connection points: 2
#     Edge 71, Type (0, 1), BuildingBlock: TEMPAE_clean_linker_10, # of connection points: 2
#     Edge 72, Type (0, 1), BuildingBlock: TEMPAE_clean_linker_10, # of connection points: 2
#     Edge 73, Type (0, 1), BuildingBlock: TEMPAE_clean_linker_10, # of connection points: 2
#     Edge 74, Type (0, 1), BuildingBlock: TEMPAE_clean_linker_10, # of connection points: 2
#     Edge 75, Type (0, 1), BuildingBlock: TEMPAE_clean_linker_10, # of connection points: 2
#     Edge 76, Type (0, 1), BuildingBlock: TEMPAE_clean_linker_10, # of connection points: 2
#     Edge 77, Type (0, 1), BuildingBlock: TEMPAE_clean_linker_10, # of connection points: 2
#     Edge 78, Type (0, 1), BuildingBlock: TEMPAE_clean_linker_10, # of connection points: 2
#     Edge 79, Type (0, 1), BuildingBlock: TEMPAE_clean_linker_10, # of connection points: 2
#     Edge 80, Type (0, 1), BuildingBlock: TEMPAE_clean_linker_10, # of connection points: 2
#     Edge 81, Type (0, 1), BuildingBlock: TEMPAE_clean_linker_10, # of connection points: 2
#     Edge 82, Type (0, 1), BuildingBlock: TEMPAE_clean_linker_10, # of connection points: 2
#     Edge 83, Type (0, 1), BuildingBlock: TEMPAE_clean_linker_10, # of connection points: 2
#     Edge 84, Type (0, 1), BuildingBlock: TEMPAE_clean_linker_10, # of connection points: 2
#     Edge 85, Type (0, 1), BuildingBlock: TEMPAE_clean_linker_10, # of connection points: 2
#     Edge 86, Type (0, 1), BuildingBlock: TEMPAE_clean_linker_10, # of connection points: 2
#     Edge 87, Type (0, 1), BuildingBlock: TEMPAE_clean_linker_10, # of connection points: 2
#     Edge 88, Type (0, 1), BuildingBlock: TEMPAE_clean_linker_10, # of connection points: 2
#     Edge 89, Type (0, 1), BuildingBlock: TEMPAE_clean_linker_10, # of connection points: 2
#     Edge 90, Type (0, 1), BuildingBlock: TEMPAE_clean_linker_10, # of connection points: 2
#     Edge 91, Type (0, 1), BuildingBlock: TEMPAE_clean_linker_10, # of connection points: 2
#     Edge 92, Type (0, 1), BuildingBlock: TEMPAE_clean_linker_10, # of connection points: 2
#     Edge 93, Type (0, 1), BuildingBlock: TEMPAE_clean_linker_10, # of connection points: 2
#     Edge 94, Type (0, 1), BuildingBlock: TEMPAE_clean_linker_10, # of connection points: 2
#     Edge 95, Type (0, 1), BuildingBlock: TEMPAE_clean_linker_10, # of connection points: 2
#     Edge 96, Type (0, 1), BuildingBlock: TEMPAE_clean_linker_10, # of connection points: 2
#     Edge 97, Type (0, 1), BuildingBlock: TEMPAE_clean_linker_10, # of connection points: 2
#     Edge 98, Type (0, 1), BuildingBlock: TEMPAE_clean_linker_10, # of connection points: 2
#     Edge 99, Type (0, 1), BuildingBlock: TEMPAE_clean_linker_10, # of connection points: 2
#     Edge 100, Type (0, 1), BuildingBlock: TEMPAE_clean_linker_10, # of connection points: 2
#     Edge 101, Type (0, 1), BuildingBlock: TEMPAE_clean_linker_10, # of connection points: 2
#     Edge 102, Type (0, 1), BuildingBlock: TEMPAE_clean_linker_10, # of connection points: 2
#     Edge 103, Type (0, 1), BuildingBlock: TEMPAE_clean_linker_10, # of connection points: 2
#     Edge 104, Type (0, 1), BuildingBlock: TEMPAE_clean_linker_10, # of connection points: 2
#     Edge 105, Type (0, 1), BuildingBlock: TEMPAE_clean_linker_10, # of connection points: 2
#     Edge 106, Type (0, 1), BuildingBlock: TEMPAE_clean_linker_10, # of connection points: 2
#     Edge 107, Type (0, 1), BuildingBlock: TEMPAE_clean_linker_10, # of connection points: 2
#     Edge 108, Type (0, 1), BuildingBlock: TEMPAE_clean_linker_10, # of connection points: 2
#     Edge 109, Type (0, 1), BuildingBlock: TEMPAE_clean_linker_10, # of connection points: 2
#     Edge 110, Type (0, 1), BuildingBlock: TEMPAE_clean_linker_10, # of connection points: 2
#     Edge 111, Type (0, 1), BuildingBlock: TEMPAE_clean_linker_10, # of connection points: 2
#     Edge 112, Type (0, 1), BuildingBlock: TEMPAE_clean_linker_10, # of connection points: 2
#     Edge 113, Type (0, 1), BuildingBlock: TEMPAE_clean_linker_10, # of connection points: 2
#     Edge 114, Type (0, 1), BuildingBlock: TEMPAE_clean_linker_10, # of connection points: 2
#     Edge 115, Type (0, 1), BuildingBlock: TEMPAE_clean_linker_10, # of connection points: 2
#     Edge 116, Type (0, 1), BuildingBlock: TEMPAE_clean_linker_10, # of connection points: 2
#     Edge 117, Type (0, 1), BuildingBlock: TEMPAE_clean_linker_10, # of connection points: 2
#     Edge 118, Type (0, 1), BuildingBlock: TEMPAE_clean_linker_10, # of connection points: 2
#     Edge 119, Type (0, 1), BuildingBlock: TEMPAE_clean_linker_10, # of connection points: 2
#     Edge 120, Type (0, 1), BuildingBlock: TEMPAE_clean_linker_10, # of connection points: 2
#     Edge 121, Type (0, 1), BuildingBlock: TEMPAE_clean_linker_10, # of connection points: 2
#     Edge 122, Type (0, 1), BuildingBlock: TEMPAE_clean_linker_10, # of connection points: 2
#     Edge 123, Type (0, 1), BuildingBlock: TEMPAE_clean_linker_10, # of connection points: 2
#     Edge 124, Type (0, 1), BuildingBlock: TEMPAE_clean_linker_10, # of connection points: 2
#     Edge 125, Type (0, 1), BuildingBlock: TEMPAE_clean_linker_10, # of connection points: 2
#     Edge 126, Type (0, 1), BuildingBlock: TEMPAE_clean_linker_10, # of connection points: 2
#     Edge 127, Type (0, 1), BuildingBlock: TEMPAE_clean_linker_10, # of connection points: 2
#     Edge 128, Type (0, 1), BuildingBlock: TEMPAE_clean_linker_10, # of connection points: 2
#     Edge 129, Type (0, 1), BuildingBlock: TEMPAE_clean_linker_10, # of connection points: 2
#     Edge 130, Type (0, 1), BuildingBlock: TEMPAE_clean_linker_10, # of connection points: 2
#     Edge 131, Type (0, 1), BuildingBlock: TEMPAE_clean_linker_10, # of connection points: 2
#     Edge 132, Type (0, 1), BuildingBlock: TEMPAE_clean_linker_10, # of connection points: 2
#     Edge 133, Type (0, 1), BuildingBlock: TEMPAE_clean_linker_10, # of connection points: 2
#     Edge 134, Type (0, 1), BuildingBlock: TEMPAE_clean_linker_10, # of connection points: 2
#     Edge 135, Type (0, 1), BuildingBlock: TEMPAE_clean_linker_10, # of connection points: 2
# Relax obj value: 0.269
# Max RMSD: 0.435
# Mean RMSD: 0.173
data_MOF--net-gar--node1-CEKHIL_clean_sbu_0--node2-GEDQOX_clean_sbu_0--edge1-TEMPAE_clean_linker_10
_symmetry_space_group_name_H-M    P1
_symmetry_Int_Tables_number       1
_symmetry_cell_setting            triclinic
loop_
_symmetry_equiv_pos_as_xyz
'x, y, z'
_cell_length_a     61.763633
_cell_length_b     59.380693
_cell_length_c     53.012187
_cell_angle_alpha  98.201917
_cell_angle_beta   97.36109
_cell_angle_gamma 99.21337
loop_
_atom_site_label
_atom_site_type_symbol
_atom_site_fract_x
_atom_site_fract_y
_atom_site_fract_z
_atom_type_partial_charge
Co0 Co 0.11964 0.37691 0.49822 0.0
O1 O 0.14759 0.37071 0.48822 0.0
O2 O 0.11474 0.36166 0.46317 0.0
C3 C 0.12991 0.41407 0.51776 0.0
O4 O 0.08792 0.38029 0.49955 0.0
Co5 Co 0.11079 0.38927 0.55452 0.0
O6 O 0.08144 0.39487 0.53867 0.0
C7 C 0.11298 0.3411 0.53328 0.0
C8 C 0.13588 0.36169 0.46576 0.0
C9 C 0.07506 0.38779 0.51461 0.0
O10 O 0.11386 0.34636 0.51067 0.0
O11 O 0.11391 0.35607 0.55352 0.0
O12 O 0.12632 0.40891 0.49271 0.0
O13 O 0.13035 0.39667 0.52981 0.0
Co14 Co 0.99277 0.79549 0.65871 0.0
O15 O 0.96327 0.79992 0.66367 0.0
O16 O 0.9849 0.78251 0.6881 0.0
C17 C 1.00581 0.83174 0.65367 0.0
O18 O 1.02412 0.7893 0.66172 0.0
Co19 Co 1.01219 0.80167 0.60845 0.0
O20 O 0.04112 0.80134 0.62978 0.0
C21 C 0.9821 0.7582 0.61075 0.0
C22 C 0.96674 0.79081 0.6844 0.0
C23 C 0.04157 0.79408 0.6513 0.0
O24 O 0.98148 0.76494 0.63484 0.0
O25 O 0.99157 0.77127 0.59659 0.0
O26 O 1.00474 0.82679 0.67657 0.0
O27 O 0.99685 0.81544 0.6346 0.0
Co28 Co 0.62271 0.88386 0.98544 0.0
O29 O 0.64858 0.87172 0.97669 0.0
O30 O 0.61763 0.8702 0.94968 0.0
C31 C 0.63897 0.91885 0.0078 0.0
O32 O 0.59332 0.89465 0.986 0.0
Co33 Co 0.61371 0.89549 0.04178 0.0
O34 O 0.58718 0.9067 0.02619 0.0
C35 C 0.60796 0.84704 0.01695 0.0
C36 C 0.63743 0.86537 0.95349 0.0
C37 C 0.58167 0.90358 1.00177 0.0
O38 O 0.60981 0.85341 0.99502 0.0
O39 O 0.61146 0.8611 0.03831 0.0
O40 O 0.63629 0.9152 0.98271 0.0
O41 O 0.63499 0.90057 0.01828 0.0
Co42 Co 0.49286 0.28591 0.16007 0.0
O43 O 0.46398 0.28976 0.16822 0.0
O44 O 0.48875 0.27494 0.19175 0.0
C45 C 0.50342 0.32161 0.15161 0.0
O46 O 0.52427 0.28051 0.15948 0.0
Co47 Co 0.50664 0.28981 0.10626 0.0
O48 O 0.53728 0.29226 0.12496 0.0
C49 C 0.47995 0.24623 0.11468 0.0
C50 C 0.47001 0.28232 0.18947 0.0
C51 C 0.54019 0.28545 0.14668 0.0
O52 O 0.48112 0.25425 0.13884 0.0
O53 O 0.48717 0.25842 0.0984 0.0
O54 O 0.50478 0.31793 0.17522 0.0
O55 O 0.49351 0.30435 0.13406 0.0
Co56 Co 0.04304 0.80997 0.25237 0.0
O57 O 1.01037 0.80716 0.24539 0.0
O58 O 0.02765 0.80471 0.28285 0.0
C59 C 0.04878 0.84273 0.23348 0.0
O60 O 0.07781 0.81249 0.26629 0.0
Co61 Co 0.06957 0.80857 0.20609 0.0
O62 O 0.09634 0.8159 0.23259 0.0
C63 C 0.04268 0.76551 0.21547 0.0
C64 C 1.00868 0.80489 0.26892 0.0
C65 C 0.09643 0.81491 0.25647 0.0
O66 O 0.04015 0.77533 0.23817 0.0
O67 O 0.05159 0.77658 0.19929 0.0
O68 O 0.046 0.84424 0.25749 0.0
O69 O 0.04734 0.82191 0.22192 0.0
Co70 Co 0.57087 0.84752 0.39999 0.0
O71 O 0.60367 0.85311 0.40696 0.0
O72 O 0.58525 0.83706 0.3694 0.0
C73 C 0.56818 0.88346 0.42079 0.0
O74 O 0.53574 0.84073 0.38594 0.0
Co75 Co 0.54447 0.84925 0.44636 0.0
O76 O 0.51895 0.8505 0.42028 0.0
C77 C 0.5673 0.81011 0.43415 0.0
C78 C 0.60473 0.8442 0.38359 0.0
C79 C 0.51798 0.84471 0.396 0.0
O80 O 0.57029 0.81614 0.41212 0.0
O81 O 0.55904 0.82211 0.45118 0.0
O82 O 0.57162 0.88064 0.39691 0.0
O83 O 0.56792 0.86519 0.4312 0.0
Co84 Co 0.5436 0.30853 0.75055 0.0
O85 O 0.5111 0.30725 0.74337 0.0
O86 O 0.5274 0.30254 0.78038 0.0
C87 C 0.55083 0.34155 0.73242 0.0
O88 O 0.57822 0.31022 0.7648 0.0
Co89 Co 0.57055 0.30675 0.70442 0.0
O90 O 0.59694 0.31477 0.73146 0.0
C91 C 0.54306 0.26391 0.71327 0.0
C92 C 0.50882 0.30417 0.76653 0.0
C93 C 0.59697 0.3134 0.75525 0.0
O94 O 0.54009 0.27384 0.73575 0.0
O95 O 0.55246 0.27486 0.69733 0.0
O96 O 0.54743 0.34295 0.75624 0.0
O97 O 0.5489 0.32077 0.72061 0.0
Co98 Co 0.07212 0.34984 0.90368 0.0
O99 O 0.10491 0.35467 0.91032 0.0
O100 O 0.08612 0.33768 0.87335 0.0
C101 C 0.07127 0.38684 0.92311 0.0
O102 O 0.0368 0.34337 0.89012 0.0
Co103 Co 0.04626 0.3561 0.95037 0.0
O104 O 1.02049 0.35551 0.92403 0.0
C105 C 0.06689 0.31456 0.94021 0.0
C106 C 0.10573 0.34496 0.8872 0.0
C107 C 1.01907 0.34771 0.90008 0.0
O108 O 0.07071 0.31919 0.9178 0.0
O109 O 0.05925 0.3283 0.95623 0.0
O110 O 0.07381 0.38285 0.89898 0.0
O111 O 0.07027 0.36903 0.93425 0.0
Co112 Co 0.45646 0.14595 0.33433 0.0
O113 O 0.45604 0.1787 0.33278 0.0
O114 O 0.42727 0.15052 0.31978 0.0
C115 C 0.4748 0.14987 0.37569 0.0
O116 O 0.44822 0.11135 0.33438 0.0
Co117 Co 0.4985 0.12356 0.34268 0.0
O118 O 0.47762 0.09825 0.35232 0.0
C119 C 0.48232 0.13177 0.29028 0.0
C120 C 0.43498 0.17256 0.32352 0.0
C121 C 0.45685 0.0958 0.3446 0.0
O122 O 0.46564 0.13991 0.29826 0.0
O123 O 0.49735 0.12546 0.30521 0.0
O124 O 0.4539 0.15132 0.37137 0.0
O125 O 0.48435 0.14883 0.35537 0.0
Co126 Co 0.27541 0.14403 0.48841 0.0
O127 O 0.30557 0.14196 0.48406 0.0
O128 O 0.27937 0.11231 0.48597 0.0
C129 C 0.27044 0.16854 0.46016 0.0
O130 O 0.24268 0.1389 0.49246 0.0
Co131 Co 0.26103 0.19057 0.50836 0.0
O132 O 0.23037 0.17262 0.49863 0.0
C133 C 0.2892 0.16805 0.54276 0.0
C134 C 0.30003 0.11997 0.4845 0.0
C135 C 0.22699 0.15059 0.49484 0.0
O136 O 0.28451 0.14892 0.52684 0.0
O137 O 0.28327 0.18687 0.53788 0.0
O138 O 0.26794 0.14643 0.45171 0.0
O139 O 0.27699 0.17483 0.4845 0.0
Co140 Co 0.19776 0.05579 0.85023 0.0
O141 O 0.1932 0.02072 0.84801 0.0
O142 O 0.22413 0.04063 0.84334 0.0
C143 C 0.17902 0.06206 0.88753 0.0
O144 O 0.21279 0.09163 0.85134 0.0
Co145 Co 0.1644 0.08868 0.84952 0.0
O146 O 0.18858 0.116 0.8532 0.0
C147 C 0.1677 0.05959 0.80019 0.0
C148 C 0.21348 0.02006 0.84401 0.0
C149 C 0.20829 0.11267 0.85215 0.0
O150 O 0.18549 0.05312 0.81095 0.0
O151 O 0.15626 0.0717 0.81316 0.0
O152 O 0.19963 0.0591 0.88946 0.0
O153 O 0.17075 0.06162 0.86388 0.0
Co154 Co 0.23454 0.92055 0.06919 0.0
O155 O 0.20295 0.92167 0.06976 0.0
O156 O 0.23012 0.95116 0.08438 0.0
C157 C 0.23231 0.90175 0.02745 0.0
O158 O 0.26792 0.9281 0.07045 0.0
Co159 Co 0.25391 0.87513 0.06112 0.0
O160 O 0.28048 0.89624 0.055 0.0
C161 C 0.24477 0.89248 0.11298 0.0
C162 C 0.20888 0.94345 0.07993 0.0
C163 C 0.28329 0.91805 0.06235 0.0
O164 O 0.23907 0.91076 0.10511 0.0
O165 O 0.24939 0.87569 0.09791 0.0
O166 O 0.23134 0.92365 0.03224 0.0
O167 O 0.23165 0.89152 0.04733 0.0
Co168 Co 0.33189 0.49703 0.15007 0.0
O169 O 0.30061 0.49154 0.15104 0.0
O170 O 0.32496 0.51866 0.17774 0.0
C171 C 0.32841 0.49708 0.10748 0.0
O172 O 0.36546 0.50819 0.15326 0.0
Co173 Co 0.35166 0.45955 0.11694 0.0
O174 O 0.37903 0.48308 0.12596 0.0
C175 C 0.33811 0.45124 0.16673 0.0
C176 C 0.30425 0.50929 0.1693 0.0
C177 C 0.38137 0.50163 0.14221 0.0
O178 O 0.336 0.4726 0.17273 0.0
O179 O 0.3419 0.44264 0.14454 0.0
O180 O 0.32726 0.51576 0.1228 0.0
O181 O 0.32956 0.47895 0.11793 0.0
Co182 Co 0.87744 0.22465 0.07001 0.0
O183 O 0.90922 0.22398 0.07075 0.0
O184 O 0.88504 0.1954 0.07828 0.0
C185 C 0.87167 0.23835 0.03159 0.0
O186 O 0.84406 0.21697 0.06924 0.0
Co187 Co 0.85661 0.26922 0.06934 0.0
O188 O 0.82793 0.24702 0.0611 0.0
C189 C 0.87628 0.25896 0.11956 0.0
C190 C 0.9053 0.20279 0.07507 0.0
C191 C 0.82672 0.22603 0.06442 0.0
O192 O 0.88067 0.23945 0.10857 0.0
O193 O 0.86882 0.27361 0.10687 0.0
O194 O 0.87257 0.21668 0.03191 0.0
O195 O 0.87635 0.25125 0.05398 0.0
Co196 Co 0.15269 0.50617 0.33559 0.0
O197 O 0.15054 0.47277 0.33423 0.0
O198 O 0.17941 0.49593 0.32612 0.0
C199 C 0.14013 0.51359 0.37429 0.0
O200 O 0.16288 0.54054 0.33609 0.0
Co201 Co 0.11332 0.53271 0.33761 0.0
O202 O 0.13621 0.56128 0.34262 0.0
C203 C 0.12008 0.50781 0.28732 0.0
C204 C 0.17063 0.47517 0.32872 0.0
C205 C 0.15611 0.55996 0.33946 0.0
O206 O 0.13852 0.5027 0.29763 0.0
O207 O 0.10712 0.51747 0.30058 0.0
O208 O 0.16061 0.51124 0.37352 0.0
O209 O 0.12764 0.50983 0.35216 0.0
Co210 Co 0.83188 1.00148 0.64412 0.0
O211 O 0.80014 0.99603 0.64081 0.0
O212 O 0.82243 0.02275 0.67018 0.0
C213 C 0.83311 1.00222 0.60217 0.0
O214 O 0.8656 1.01259 0.65154 0.0
Co215 Co 0.85412 0.96382 0.6148 0.0
O216 O 0.88129 0.98721 0.62713 0.0
C217 C 0.83458 0.95502 0.66103 0.0
C218 C 0.80224 1.01351 0.65915 0.0
C219 C 0.88252 1.00589 0.64283 0.0
O220 O 0.83319 0.97661 0.66688 0.0
O221 O 0.84005 0.94649 0.63973 0.0
O222 O 0.83043 0.02066 0.61684 0.0
O223 O 0.83261 0.98386 0.61254 0.0
Co224 Co 0.91626 0.09282 0.31505 0.0
O225 O 0.92147 0.12801 0.31976 0.0
O226 O 0.88941 0.1073 0.30499 0.0
C227 C 0.93486 0.09081 0.35596 0.0
O228 O 0.90107 0.05646 0.3102 0.0
Co229 Co 0.95086 0.06111 0.31735 0.0
O230 O 0.92693 0.03483 0.31897 0.0
C231 C 0.94688 0.08469 0.27193 0.0
C232 C 0.9006 0.12823 0.31245 0.0
C233 C 0.90657 0.03649 0.31414 0.0
O234 O 0.92836 0.09079 0.27853 0.0
O235 O 0.95882 0.07443 0.28638 0.0
O236 O 0.91462 0.09467 0.35281 0.0
O237 O 0.94333 0.0892 0.33497 0.0
Co238 Co 0.37935 0.72337 0.56936 0.0
O239 O 0.41131 0.72409 0.56951 0.0
O240 O 0.38831 0.6946 0.57728 0.0
C241 C 0.37261 0.73724 0.53116 0.0
O242 O 0.34628 0.71378 0.56891 0.0
Co243 Co 0.35524 0.76565 0.56883 0.0
O244 O 0.32763 0.74182 0.5599 0.0
C245 C 0.37647 0.75659 0.61907 0.0
C246 C 0.40823 0.70284 0.57371 0.0
C247 C 0.32804 0.72115 0.56364 0.0
O248 O 0.38235 0.73787 0.60804 0.0
O249 O 0.36746 0.77038 0.60641 0.0
O250 O 0.3744 0.71574 0.53123 0.0
O251 O 0.37667 0.74994 0.55366 0.0
Co252 Co 0.41515 0.59218 0.81473 0.0
O253 O 0.42053 0.62731 0.81942 0.0
O254 O 0.38835 0.60671 0.80486 0.0
C255 C 0.43397 0.59011 0.8554 0.0
O256 O 0.39992 0.55583 0.80995 0.0
Co257 Co 0.44964 0.56032 0.81655 0.0
O258 O 0.42577 0.53418 0.8187 0.0
C259 C 0.44483 0.58335 0.77076 0.0
C260 C 0.39966 0.6276 0.81219 0.0
C261 C 0.40542 0.53587 0.81396 0.0
O262 O 0.42687 0.59019 0.77813 0.0
O263 O 0.45661 0.57246 0.78458 0.0
O264 O 0.41375 0.59405 0.85249 0.0
O265 O 0.4423 0.58846 0.83431 0.0
Co266 Co 0.65319 1.00683 0.82921 0.0
O267 O 0.65024 0.97326 0.82694 0.0
O268 O 0.67982 0.99629 0.82017 0.0
C269 C 0.6398 0.01399 0.86743 0.0
O270 O 0.66424 0.04126 0.8308 0.0
Co271 Co 0.61418 0.03414 0.83014 0.0
O272 O 0.63757 0.06234 0.8359 0.0
C273 C 0.6213 1.00894 0.78051 0.0
C274 C 0.67054 0.97552 0.82203 0.0
C275 C 0.65763 0.06081 0.83377 0.0
O276 O 0.63986 1.00436 0.79114 0.0
O277 O 0.60788 0.01818 0.79339 0.0
O278 O 0.66005 1.01059 0.86721 0.0
O279 O 0.62796 1.01102 0.84494 0.0
Co280 Co 0.7751 0.65385 0.98745 0.0
O281 O 0.80641 0.65612 0.98659 0.0
O282 O 0.78279 0.62347 0.98496 0.0
C283 C 0.76948 0.67833 0.95948 0.0
O284 O 0.74185 0.64443 0.98765 0.0
Co285 Co 0.75402 0.69654 1.0056 0.0
O286 O 0.72553 0.67568 0.99121 0.0
C287 C 0.77915 0.67435 0.04362 0.0
C288 C 0.80316 0.63385 0.98586 0.0
C289 C 0.72444 0.65384 0.9877 0.0
O290 O 0.78119 0.65783 0.02614 0.0
O291 O 0.77013 0.69161 0.03904 0.0
O292 O 0.76977 0.65674 0.95081 0.0
O293 O 0.77382 0.6844 0.98411 0.0
Co294 Co 0.95698 0.64576 0.83872 0.0
O295 O 0.95658 0.67811 0.83496 0.0
O296 O 0.92753 0.64998 0.82445 0.0
C297 C 0.97551 0.65136 0.88013 0.0
O298 O 0.94909 0.61145 0.84098 0.0
Co299 Co 0.99956 0.62435 0.84832 0.0
O300 O 0.97911 0.59986 0.8598 0.0
C301 C 0.98267 0.62985 0.79503 0.0
C302 C 0.93537 0.6719 0.8267 0.0
C303 C 0.95826 0.59678 0.85232 0.0
O304 O 0.96588 0.6381 0.80263 0.0
O305 O 0.99797 0.62446 0.81044 0.0
O306 O 0.95462 0.65276 0.87565 0.0
O307 O 0.98502 0.64964 0.85977 0.0
Co308 Co 0.73593 0.42213 0.56959 0.0
O309 O 0.70452 0.42374 0.57114 0.0
O310 O 0.73197 0.45316 0.58406 0.0
C311 C 0.73281 0.40279 0.52798 0.0
O312 O 0.76934 0.42893 0.56993 0.0
Co313 Co 0.75415 0.37597 0.56161 0.0
O314 O 0.78086 0.39633 0.55469 0.0
C315 C 0.74554 0.39408 0.61349 0.0
C316 C 0.71069 0.44568 0.58045 0.0
C317 C 0.78428 0.41821 0.56168 0.0
O318 O 0.74081 0.41277 0.6057 0.0
O319 O 0.74921 0.37682 0.5983 0.0
O320 O 0.73215 0.42476 0.53253 0.0
O321 O 0.73225 0.39282 0.54807 0.0
Co322 Co 0.69818 0.5568 0.34966 0.0
O323 O 0.69379 0.52178 0.34758 0.0
O324 O 0.72463 0.54174 0.34269 0.0
C325 C 0.67957 0.563 0.38703 0.0
O326 O 0.71273 0.59285 0.35069 0.0
Co327 Co 0.66381 0.58881 0.34889 0.0
O328 O 0.68794 0.61638 0.35486 0.0
C329 C 0.66792 0.5602 0.29955 0.0
C330 C 0.71404 0.52116 0.34349 0.0
C331 C 0.70772 0.61375 0.35278 0.0
O332 O 0.68579 0.55396 0.31042 0.0
O333 O 0.65622 0.57209 0.31238 0.0
O334 O 0.70023 0.56021 0.38893 0.0
O335 O 0.67118 0.56228 0.36338 0.0
Nd336 Nd 0.07533 0.0956 0.08256 0.0
Nd337 Nd 0.04664 0.05573 0.07575 0.0
C338 C 0.10204 0.13651 0.0892 0.0
C339 C 0.10071 0.15525 0.07351 0.0
C340 C 0.07997 0.15927 0.06262 0.0
C341 C 0.07853 0.17485 0.04524 0.0
C342 C 0.09777 0.18684 0.03813 0.0
C343 C 0.11857 0.18314 0.04943 0.0
C344 C 0.12 0.16743 0.06681 0.0
C345 C 0.07512 0.07512 0.03144 0.0
C346 C 1.02437 0.10001 0.0651 0.0
C347 C 1.02096 0.0143 0.06807 0.0
C348 C 1.02352 0.99482 0.08254 0.0
C349 C 0.04365 0.9865 0.08569 0.0
C350 C 0.04695 0.97044 0.10222 0.0
C351 C 0.03029 0.96228 0.11627 0.0
C352 C 1.00999 0.97029 0.11265 0.0
C353 C 1.00667 0.98629 0.09603 0.0
C354 C 0.04655 0.07683 0.12672 0.0
C355 C 0.09677 0.05187 0.09732 0.0
O356 O 0.08627 0.13206 0.1029 0.0
O357 O 0.10667 0.11763 0.07726 0.0
O358 O 0.07023 0.09526 0.03846 0.0
O359 O 0.07473 0.06439 0.05077 0.0
O360 O 0.04366 0.1109 0.0778 0.0
O361 O 1.02204 0.07746 0.05688 0.0
O362 O 0.03577 0.01992 0.05347 0.0
O363 O 1.0161 0.03252 0.08126 0.0
O364 O 0.05096 0.05641 0.12008 0.0
O365 O 0.04706 0.0871 0.10712 0.0
O366 O 0.07765 0.04017 0.08515 0.0
O367 O 0.09943 0.07467 0.10281 0.0
H368 H 0.06476 0.15003 0.06712 0.0
H369 H 0.06224 0.17751 0.03736 0.0
H370 H 0.13374 0.19193 0.04431 0.0
H371 H 0.13617 0.16438 0.07456 0.0
H372 H 0.05714 0.99279 0.07585 0.0
H373 H 0.06269 0.96452 0.10403 0.0
H374 H 0.99681 0.96479 0.12328 0.0
H375 H 0.99112 0.99259 0.09437 0.0
Nd376 Nd 0.31113 0.845 0.34323 0.0
Nd377 Nd 0.30038 0.80266 0.31328 0.0
C378 C 0.31823 0.88538 0.37466 0.0
C379 C 0.32932 0.90868 0.37231 0.0
C380 C 0.32901 0.9156 0.34804 0.0
C381 C 0.34162 0.93664 0.34546 0.0
C382 C 0.35502 0.95109 0.36705 0.0
C383 C 0.35485 0.94434 0.39144 0.0
C384 C 0.34212 0.9233 0.39401 0.0
C385 C 0.35041 0.83295 0.32828 0.0
C386 C 0.30078 0.84592 0.28265 0.0
C387 C 0.29226 0.76154 0.28332 0.0
C388 C 0.28112 0.73865 0.28751 0.0
C389 C 0.28917 0.72853 0.30839 0.0
C390 C 0.27693 0.70845 0.31409 0.0
C391 C 0.25627 0.69812 0.29921 0.0
C392 C 0.24861 0.70789 0.27783 0.0
C393 C 0.26094 0.72786 0.27202 0.0
C394 C 0.26123 0.81518 0.32827 0.0
C395 C 0.31126 0.80141 0.37338 0.0
O396 O 0.29962 0.8769 0.35925 0.0
O397 O 0.33118 0.87022 0.37621 0.0
O398 O 0.34367 0.85221 0.32568 0.0
O399 O 0.33507 0.81959 0.33563 0.0
O400 O 0.29972 0.85736 0.30543 0.0
O401 O 0.30578 0.82503 0.2812 0.0
O402 O 0.31147 0.77042 0.29736 0.0
O403 O 0.27956 0.77689 0.28131 0.0
O404 O 0.26784 0.79587 0.33094 0.0
O405 O 0.27665 0.82832 0.32084 0.0
O406 O 0.31281 0.79044 0.35061 0.0
O407 O 0.30566 0.82204 0.375 0.0
H408 H 0.31943 0.90449 0.33094 0.0
H409 H 0.34109 0.94146 0.32647 0.0
H410 H 0.36516 0.95491 0.40841 0.0
H411 H 0.34279 0.91812 0.41284 0.0
H412 H 0.30464 0.73642 0.32081 0.0
H413 H 0.28356 0.70119 0.33039 0.0
H414 H 0.23268 0.70061 0.2661 0.0
H415 H 0.25428 0.73538 0.25592 0.0
Nd416 Nd 0.57743 0.0824 0.57163 0.0
Nd417 Nd 0.52777 0.05992 0.57501 0.0
C418 C 0.61649 0.10272 0.56389 0.0
C419 C 0.63883 0.10049 0.57644 0.0
C420 C 0.65139 0.08635 0.5633 0.0
C421 C 0.67048 0.08072 0.57628 0.0
C422 C 0.67763 0.08927 0.60272 0.0
C423 C 0.66571 0.10442 0.61553 0.0
C424 C 0.64655 0.10996 0.60257 0.0
C425 C 0.57779 0.05622 0.61127 0.0
C426 C 0.5558 0.03132 0.53718 0.0
C427 C 0.48988 0.03845 0.58497 0.0
C428 C 0.46715 0.03748 0.57183 0.0
C429 C 0.4498 0.03909 0.58624 0.0
C430 C 0.42929 0.04277 0.57461 0.0
C431 C 0.4259 0.04522 0.5484 0.0
C432 C 0.44301 0.04235 0.53377 0.0
C433 C 0.46337 0.03845 0.54534 0.0
C434 C 0.5268 0.08518 0.53454 0.0
C435 C 0.54893 0.11121 0.60853 0.0
O436 O 0.60504 0.08417 0.5486 0.0
O437 O 0.60429 0.11323 0.5785 0.0
O438 O 0.59533 0.06747 0.60495 0.0
O439 O 0.56107 0.05905 0.59663 0.0
O440 O 0.57059 0.05055 0.53924 0.0
O441 O 0.53971 0.02985 0.55148 0.0
O442 O 0.49973 0.05894 0.59731 0.0
O443 O 0.50288 0.02785 0.57167 0.0
O444 O 0.50959 0.07365 0.54132 0.0
O445 O 0.54397 0.08314 0.54923 0.0
O446 O 0.53515 0.09151 0.60765 0.0
O447 O 0.56441 0.11285 0.59338 0.0
H448 H 0.6459 0.07874 0.54322 0.0
H449 H 0.67905 0.06882 0.56578 0.0
H450 H 0.67095 0.11169 0.63573 0.0
H451 H 0.63739 0.121 0.61337 0.0
H452 H 0.45242 0.0385 0.60672 0.0
H453 H 0.41634 0.04444 0.58635 0.0
H454 H 0.44118 0.04438 0.51368 0.0
H455 H 0.47651 0.03733 0.53377 0.0
Nd456 Nd 0.316 0.32673 0.8513 0.0
Nd457 Nd 0.29938 0.3185 0.8075 0.0
C458 C 0.32374 0.33399 0.90233 0.0
C459 C 0.31933 0.35305 0.92035 0.0
C460 C 0.30718 0.369 0.911 0.0
C461 C 0.30376 0.38797 0.92771 0.0
C462 C 0.31256 0.39133 0.95399 0.0
C463 C 0.32456 0.37514 0.96328 0.0
C464 C 0.3279 0.35609 0.94653 0.0
C465 C 0.32856 0.36894 0.83249 0.0
C466 C 0.26344 0.33311 0.84009 0.0
C467 C 0.29163 0.31209 0.75659 0.0
C468 C 0.29856 0.29567 0.73725 0.0
C469 C 0.30595 0.30317 0.71547 0.0
C470 C 0.31322 0.28784 0.69734 0.0
C471 C 0.31299 0.26469 0.70064 0.0
C472 C 0.3063 0.2575 0.72301 0.0
C473 C 0.29929 0.27291 0.74126 0.0
C474 C 0.28648 0.27709 0.82758 0.0
C475 C 0.35181 0.31109 0.81836 0.0
O476 O 0.30619 0.32046 0.88884 0.0
O477 O 0.33877 0.33978 0.88822 0.0
O478 O 0.34146 0.35806 0.84526 0.0
O479 O 0.30896 0.35659 0.82818 0.0
O480 O 0.27852 0.32734 0.85671 0.0
O481 O 0.26914 0.33508 0.81739 0.0
O482 O 0.30766 0.32763 0.7703 0.0
O483 O 0.27753 0.30338 0.77047 0.0
O484 O 0.27341 0.28834 0.81551 0.0
O485 O 0.30631 0.28875 0.83059 0.0
O486 O 0.33597 0.31457 0.80096 0.0
O487 O 0.34715 0.31174 0.84189 0.0
H488 H 0.30061 0.36692 0.89068 0.0
H489 H 0.29434 0.40006 0.92008 0.0
H490 H 0.33189 0.37752 0.98339 0.0
H491 H 0.33746 0.34399 0.95391 0.0
H492 H 0.30605 0.32085 0.71246 0.0
H493 H 0.31867 0.29399 0.68052 0.0
H494 H 0.3057 0.23977 0.72601 0.0
H495 H 0.29419 0.26694 0.75835 0.0
Nd496 Nd 0.05121 0.09761 0.58936 0.0
Nd497 Nd 0.06068 0.05002 0.56163 0.0
C498 C 0.03201 0.13075 0.60905 0.0
C499 C 0.03034 0.15219 0.59873 0.0
C500 C 0.02868 0.15166 0.57195 0.0
C501 C 0.03419 0.17193 0.56204 0.0
C502 C 0.04137 0.19309 0.57872 0.0
C503 C 0.04106 0.19399 0.60531 0.0
C504 C 0.03569 0.17358 0.6153 0.0
C505 C 0.0858 0.10577 0.56149 0.0
C506 C 0.03049 0.07773 0.52658 0.0
C507 C 0.07945 0.01459 0.54744 0.0
C508 C 0.08326 0.99696 0.56334 0.0
C509 C 0.09692 0.98087 0.55747 0.0
C510 C 0.0992 0.96376 0.57285 0.0
C511 C 0.0878 0.96265 0.5942 0.0
C512 C 0.07479 0.97946 0.60026 0.0
C513 C 0.07265 0.99641 0.58511 0.0
C514 C 1.02289 0.0479 0.58411 0.0
C515 C 0.08275 0.06949 0.62434 0.0
O516 O 1.02062 0.11157 0.59472 0.0
O517 O 0.05241 0.12902 0.61785 0.0
O518 O 0.07923 0.12209 0.57588 0.0
O519 O 0.07436 0.08683 0.56324 0.0
O520 O 0.02854 0.09045 0.54877 0.0
O521 O 0.04456 0.06298 0.52585 0.0
O522 O 0.09098 0.03527 0.55667 0.0
O523 O 0.05845 0.01483 0.53988 0.0
O524 O 1.02435 0.03411 0.56329 0.0
O525 O 0.04136 0.06052 0.59317 0.0
O526 O 0.08111 0.05401 0.60306 0.0
O527 O 0.07196 0.0872 0.62443 0.0
H528 H 1.02487 0.1354 0.55875 0.0
H529 H 0.03416 0.17089 0.54145 0.0
H530 H 0.04666 0.21019 0.61852 0.0
H531 H 0.03741 0.17432 0.63601 0.0
H532 H 0.10543 0.98128 0.54085 0.0
H533 H 0.10946 0.95117 0.56774 0.0
H534 H 0.06522 0.97896 0.61597 0.0
H535 H 0.06204 1.00873 0.58998 0.0
Nd536 Nd 0.327 0.8369 0.84284 0.0
Nd537 Nd 0.29009 0.81279 0.81076 0.0
C538 C 0.36334 0.86702 0.86419 0.0
C539 C 0.38741 0.87062 0.87271 0.0
C540 C 0.4003 0.89225 0.87247 0.0
C541 C 0.42226 0.89782 0.88498 0.0
C542 C 0.43165 0.88187 0.89811 0.0
C543 C 0.41898 0.85974 0.89712 0.0
C544 C 0.39707 0.85414 0.88448 0.0
C545 C 0.29474 0.82675 0.87303 0.0
C546 C 0.32869 0.78097 0.82973 0.0
C547 C 0.25355 0.7834 0.78844 0.0
C548 C 0.22995 0.78271 0.77988 0.0
C549 C 0.21954 0.80118 0.788 0.0
C550 C 0.19807 0.80181 0.77627 0.0
C551 C 0.18689 0.78411 0.75606 0.0
C552 C 0.19725 0.76529 0.74873 0.0
C553 C 0.21856 0.7646 0.76059 0.0
C554 C 0.3231 0.82247 0.78115 0.0
C555 C 0.28767 0.86843 0.82446 0.0
O556 O 0.35579 0.86381 0.83947 0.0
O557 O 0.35087 0.85446 0.87698 0.0
O558 O 0.31484 0.82278 0.87757 0.0
O559 O 0.29148 0.83308 0.85116 0.0
O560 O 0.34063 0.80148 0.84087 0.0
O561 O 0.30803 0.78081 0.81854 0.0
O562 O 0.26064 0.78662 0.81326 0.0
O563 O 0.2669 0.7952 0.77592 0.0
O564 O 0.30323 0.827 0.77629 0.0
O565 O 0.32567 0.81602 0.80295 0.0
O566 O 0.27606 0.84792 0.81292 0.0
O567 O 0.30838 0.8687 0.83565 0.0
H568 H 0.39308 0.90522 0.86356 0.0
H569 H 0.4317 0.91483 0.88493 0.0
H570 H 0.42561 0.84708 0.90718 0.0
H571 H 0.38738 0.83735 0.88499 0.0
H572 H 0.22827 0.81544 0.80273 0.0
H573 H 0.19044 0.81638 0.78264 0.0
H574 H 0.18936 0.75157 0.73299 0.0
H575 H 0.22656 0.7504 0.75386 0.0
Nd576 Nd 0.53576 0.05908 0.06454 0.0
Nd577 Nd 0.57499 0.09627 0.08447 0.0
C578 C 0.49939 0.03159 0.03867 0.0
C579 C 0.47573 0.02557 0.04023 0.0
C580 C 0.46695 0.03488 0.06167 0.0
C581 C 0.4449 0.02685 0.06423 0.0
C582 C 0.43139 1.00944 0.04534 0.0
C583 C 0.44014 1.00084 0.02346 0.0
C584 C 0.46215 1.00884 0.02097 0.0
C585 C 0.57144 0.04308 0.08784 0.0
C586 C 0.53673 0.08634 0.12202 0.0
C587 C 0.61179 0.1238 0.10926 0.0
C588 C 0.63472 0.13096 0.10492 0.0
C589 C 0.64492 0.11656 0.08867 0.0
C590 C 0.66632 0.12441 0.08368 0.0
C591 C 0.67777 0.14681 0.09473 0.0
C592 C 0.66741 0.16104 0.11109 0.0
C593 C 0.64612 0.15316 0.11614 0.0
C594 C 0.53923 0.11184 0.06046 0.0
C595 C 0.57404 0.0694 0.0267 0.0
O596 O 0.50652 0.0522 0.0336 0.0
O597 O 0.51285 0.02547 0.05649 0.0
O598 O 0.55104 0.03649 0.09114 0.0
O599 O 0.57218 0.05802 0.07322 0.0
O600 O 0.52345 0.07462 0.10116 0.0
O601 O 0.55808 0.09344 0.12123 0.0
O602 O 0.60592 0.10241 0.11277 0.0
O603 O 0.59657 0.13081 0.09442 0.0
O604 O 0.55967 0.11855 0.05741 0.0
O605 O 0.53854 0.09733 0.07555 0.0
O606 O 0.587 0.08267 0.04687 0.0
O607 O 0.5532 0.06055 0.02814 0.0
H608 H 0.4773 0.04784 0.07673 0.0
H609 H 0.43854 0.03396 0.08116 0.0
H610 H 0.43028 0.98722 0.00877 0.0
H611 H 0.46878 1.00138 1.0044 0.0
H612 H 0.63627 0.0994 0.07964 0.0
H613 H 0.67388 0.11294 0.07119 0.0
H614 H 0.67551 0.17853 0.11953 0.0
H615 H 0.63838 0.16459 0.12849 0.0
Nd616 Nd 0.28081 0.30224 0.29961 0.0
Nd617 Nd 0.31321 0.33173 0.34056 0.0
C618 C 0.24542 0.28433 0.26539 0.0
C619 C 0.22292 0.28524 0.27216 0.0
C620 C 0.21438 0.30581 0.27186 0.0
C621 C 0.20012 0.31183 0.28913 0.0
C622 C 0.19385 0.29719 0.30658 0.0
C623 C 0.19935 0.27502 0.3038 0.0
C624 C 0.2136 0.269 0.28654 0.0
C625 C 0.28165 0.28607 0.3454 0.0
C626 C 0.26674 0.34982 0.32949 0.0
C627 C 0.34506 0.35196 0.37758 0.0
C628 C 0.36797 0.34886 0.3742 0.0
C629 C 0.37265 0.32627 0.37058 0.0
C630 C 0.38825 0.32058 0.35508 0.0
C631 C 0.40021 0.33751 0.34358 0.0
C632 C 0.39806 0.36075 0.35069 0.0
C633 C 0.38203 0.36636 0.36578 0.0
C634 C 0.32056 0.33892 0.29155 0.0
C635 C 0.32662 0.28537 0.31176 0.0
O636 O 0.25772 0.30415 0.26429 0.0
O637 O 0.25667 0.27162 0.27809 0.0
O638 O 0.28039 0.27328 0.32332 0.0
O639 O 0.28212 0.30708 0.34345 0.0
O640 O 0.26068 0.33051 0.31245 0.0
O641 O 0.28636 0.35443 0.34427 0.0
O642 O 0.33144 0.33327 0.37994 0.0
O643 O 0.33593 0.36371 0.36133 0.0
O644 O 0.33598 0.33689 0.30954 0.0
O645 O 0.30227 0.33621 0.29955 0.0
O646 O 0.32638 0.29754 0.33448 0.0
O647 O 0.3127 0.28791 0.29155 0.0
H648 H 0.22067 0.31844 0.26048 0.0
H649 H 0.19545 0.32873 0.29029 0.0
H650 H 0.19453 0.26321 0.31674 0.0
H651 H 0.21939 0.25274 0.28686 0.0
H652 H 0.36245 0.31227 0.37703 0.0
H653 H 0.38928 0.30248 0.35032 0.0
H654 H 0.40763 0.37445 0.34314 0.0
H655 H 0.37904 0.38397 0.36844 0.0
Nd656 Nd 0.55492 0.59568 0.08592 0.0
Nd657 Nd 0.55982 0.55039 0.06165 0.0
C658 C 0.54227 0.63525 0.10016 0.0
C659 C 0.54465 0.65579 0.08753 0.0
C660 C 0.52913 0.67058 0.08818 0.0
C661 C 0.5315 0.68971 0.07536 0.0
C662 C 0.5495 0.69429 0.06182 0.0
C663 C 0.5648 0.67914 0.06111 0.0
C664 C 0.56227 0.66001 0.07356 0.0
C665 C 0.59235 0.59671 0.06259 0.0
C666 C 0.5306 0.57637 0.02468 0.0
C667 C 0.5751 0.51244 0.04717 0.0
C668 C 0.57755 0.49382 0.06204 0.0
C669 C 0.59042 0.47716 0.05535 0.0
C670 C 0.59145 0.459 0.06944 0.0
C671 C 0.57943 0.45726 0.09021 0.0
C672 C 0.5672 0.47462 0.09714 0.0
C673 C 0.56649 0.49277 0.08341 0.0
C674 C 0.52195 0.54938 0.08399 0.0
C675 C 0.58233 0.56835 0.12358 0.0
O676 O 0.52854 0.61711 0.08702 0.0
O677 O 0.5609 0.63017 0.11039 0.0
O678 O 0.59176 0.60875 0.08472 0.0
O679 O 0.57347 0.58521 0.05301 0.0
O680 O 0.53059 0.59025 0.04666 0.0
O681 O 0.54354 0.56067 0.02429 0.0
O682 O 0.58812 0.53223 0.05678 0.0
O683 O 0.55455 0.51466 0.04028 0.0
O684 O 0.52302 0.5368 0.06229 0.0
O685 O 0.54073 0.56091 0.0941 0.0
O686 O 0.58299 0.55496 0.10154 0.0
O687 O 0.56942 0.58412 0.1236 0.0
H688 H 0.5152 0.66732 0.09849 0.0
H689 H 0.51925 0.70085 0.07605 0.0
H690 H 0.57913 0.68228 0.05143 0.0
H691 H 0.57428 0.6486 0.07242 0.0
H692 H 0.59933 0.47799 0.03909 0.0
H693 H 0.60127 0.44613 0.06377 0.0
H694 H 0.55725 0.47377 0.11248 0.0
H695 H 0.55664 0.50568 0.089 0.0
Nd696 Nd 0.82636 0.3374 0.3434 0.0
Nd697 Nd 0.78953 0.31319 0.31127 0.0
C698 C 0.86217 0.36781 0.36588 0.0
C699 C 0.8856 0.37074 0.37684 0.0
C700 C 0.89476 0.35182 0.3833 0.0
C701 C 0.91535 0.35549 0.39907 0.0
C702 C 0.92697 0.37812 0.40863 0.0
C703 C 0.91826 0.39691 0.4008 0.0
C704 C 0.89768 0.39322 0.38505 0.0
C705 C 0.79406 0.32675 0.3733 0.0
C706 C 0.82836 0.28151 0.33025 0.0
C707 C 0.75267 0.28437 0.28882 0.0
C708 C 0.72958 0.2853 0.27929 0.0
C709 C 0.71473 0.26464 0.26929 0.0
C710 C 0.69398 0.26512 0.25563 0.0
C711 C 0.68785 0.28631 0.25164 0.0
C712 C 0.70237 0.30706 0.26294 0.0
C713 C 0.72311 0.30655 0.27666 0.0
C714 C 0.82241 0.32349 0.28174 0.0
C715 C 0.78736 0.36893 0.32444 0.0
O716 O 0.85643 0.36299 0.34081 0.0
O717 O 0.84837 0.35645 0.37827 0.0
O718 O 0.81408 0.32249 0.37766 0.0
O719 O 0.79087 0.33339 0.35161 0.0
O720 O 0.84024 0.30208 0.34134 0.0
O721 O 0.80757 0.28127 0.31931 0.0
O722 O 0.75906 0.2883 0.3138 0.0
O723 O 0.76715 0.29458 0.27633 0.0
O724 O 0.80247 0.32789 0.277 0.0
O725 O 0.82509 0.31681 0.30341 0.0
O726 O 0.7756 0.34838 0.3133 0.0
O727 O 0.80814 0.3692 0.33533 0.0
H728 H 0.88552 0.33434 0.37724 0.0
H729 H 0.92189 0.34066 0.40439 0.0
H730 H 0.92678 0.41453 0.40793 0.0
H731 H 0.89065 0.40801 0.38047 0.0
H732 H 0.71955 0.2481 0.27107 0.0
H733 H 0.68295 0.24888 0.24759 0.0
H734 H 0.69818 0.32364 0.2601 0.0
H735 H 0.73452 0.32267 0.2841 0.0
Nd736 Nd 0.0326 0.56999 0.56281 0.0
Nd737 Nd 0.07681 0.59721 0.59189 0.0
C738 C 0.99376 0.55155 0.53417 0.0
C739 C 0.97264 0.53794 0.53778 0.0
C740 C 0.96541 0.54005 0.56191 0.0
C741 C 0.94518 0.52712 0.56496 0.0
C742 C 0.9319 0.51174 0.54396 0.0
C743 C 0.93939 0.50956 0.51989 0.0
C744 C 0.95956 0.52257 0.51685 0.0
C745 C 0.05984 0.54381 0.58631 0.0
C746 C 0.03646 0.58773 0.62465 0.0
C747 C 0.11832 0.61588 0.6113 0.0
C748 C 0.1407 0.6174 0.60422 0.0
C749 C 0.144 0.61786 0.57856 0.0
C750 C 0.16533 0.62432 0.57278 0.0
C751 C 0.18378 0.63023 0.59255 0.0
C752 C 0.18051 0.62783 0.61792 0.0
C753 C 0.15914 0.62161 0.62371 0.0
C754 C 0.04537 0.62391 0.58259 0.0
C755 C 0.07394 0.57675 0.52995 0.0
O756 O 0.99864 0.57292 0.54627 0.0
O757 O 1.01084 0.54108 0.53517 0.0
O758 O 0.03847 0.54053 0.58583 0.0
O759 O 0.0655 0.5602 0.57467 0.0
O760 O 1.02317 0.58345 0.60219 0.0
O761 O 0.05821 0.5888 0.62566 0.0
O762 O 0.10862 0.59612 0.61654 0.0
O763 O 0.10484 0.6262 0.59782 0.0
O764 O 0.0596 0.62727 0.60345 0.0
O765 O 0.04855 0.60745 0.56631 0.0
O766 O 0.08681 0.5857 0.55216 0.0
O767 O 0.0521 0.57166 0.52836 0.0
H768 H 0.97533 0.55176 0.57837 0.0
H769 H 0.93982 0.52941 0.58367 0.0
H770 H 0.92977 0.49761 0.50344 0.0
H771 H 0.96498 0.52061 0.49814 0.0
H772 H 0.12998 0.61457 0.56316 0.0
H773 H 0.16714 0.62604 0.55307 0.0
H774 H 0.1944 0.63166 0.63351 0.0
H775 H 0.15692 0.62123 0.6436 0.0
Nd776 Nd 0.81523 0.82719 0.34986 0.0
Nd777 Nd 0.79967 0.8196 0.30636 0.0
C778 C 0.82338 0.83562 0.4008 0.0
C779 C 0.82258 0.85701 0.41768 0.0
C780 C 0.8155 0.87532 0.40682 0.0
C781 C 0.81455 0.89592 0.42253 0.0
C782 C 0.82067 0.89845 0.44932 0.0
C783 C 0.82789 0.88005 0.46008 0.0
C784 C 0.82881 0.85941 0.44432 0.0
C785 C 0.82817 0.86987 0.33186 0.0
C786 C 0.76282 0.83282 0.33784 0.0
C787 C 0.79397 0.81257 0.25539 0.0
C788 C 0.80155 0.79545 0.23716 0.0
C789 C 0.81892 0.80264 0.22377 0.0
C790 C 0.82733 0.78645 0.20782 0.0
C791 C 0.81836 0.76275 0.20477 0.0
C792 C 0.80115 0.75558 0.21844 0.0
C793 C 0.79288 0.77173 0.23451 0.0
C794 C 0.78632 0.77726 0.32482 0.0
C795 C 0.85148 0.81266 0.31811 0.0
O796 O 0.80431 0.825 0.38779 0.0
O797 O 0.83894 0.83713 0.38644 0.0
O798 O 0.84089 0.85875 0.34454 0.0
O799 O 0.80859 0.85754 0.32713 0.0
O800 O 0.77731 0.82582 0.35408 0.0
O801 O 0.76938 0.83632 0.3159 0.0
O802 O 0.80965 0.82814 0.26965 0.0
O803 O 0.77878 0.80481 0.26849 0.0
O804 O 0.77373 0.78824 0.31167 0.0
O805 O 0.80601 0.78936 0.3294 0.0
O806 O 0.83732 0.82016 0.3021 0.0
O807 O 0.84474 0.8091 0.33992 0.0
H808 H 0.81063 0.8736 0.38615 0.0
H809 H 0.8088 0.90973 0.41379 0.0
H810 H 0.83307 0.88172 0.48068 0.0
H811 H 0.83442 0.84543 0.45287 0.0
H812 H 0.8261 0.82081 0.22575 0.0
H813 H 0.84063 0.7925 0.1976 0.0
H814 H 0.7935 0.73752 0.21605 0.0
H815 H 0.77964 0.76556 0.24477 0.0
Nd816 Nd 0.81123 0.34614 0.84386 0.0
Nd817 Nd 0.80204 0.30446 0.81323 0.0
C818 C 0.8173 0.38595 0.87618 0.0
C819 C 0.83323 0.4078 0.87891 0.0
C820 C 0.82594 0.42899 0.88347 0.0
C821 C 0.8402 0.44974 0.88308 0.0
C822 C 0.86202 0.44967 0.87805 0.0
C823 C 0.86946 0.42841 0.87429 0.0
C824 C 0.8552 0.4077 0.87462 0.0
C825 C 0.85172 0.33641 0.82981 0.0
C826 C 0.80074 0.34768 0.78348 0.0
C827 C 0.79542 0.26366 0.78284 0.0
C828 C 0.78425 0.24057 0.78645 0.0
C829 C 0.7922 0.23008 0.80708 0.0
C830 C 0.77997 0.20978 0.81228 0.0
C831 C 0.75941 0.19954 0.79712 0.0
C832 C 0.75185 0.20965 0.77598 0.0
C833 C 0.76416 0.22988 0.77068 0.0
C834 C 0.76192 0.3147 0.82804 0.0
C835 C 0.81163 0.30239 0.87315 0.0
O836 O 0.80294 0.3809 0.85509 0.0
O837 O 0.82528 0.36797 0.8819 0.0
O838 O 0.84445 0.35554 0.82843 0.0
O839 O 0.83648 0.32203 0.83594 0.0
O840 O 0.79824 0.35801 0.80624 0.0
O841 O 0.80738 0.32757 0.78189 0.0
O842 O 0.81414 0.27272 0.79781 0.0
O843 O 0.78261 0.27884 0.78014 0.0
O844 O 0.76918 0.29558 0.82978 0.0
O845 O 0.77704 0.32876 0.82134 0.0
O846 O 0.81453 0.29225 0.85055 0.0
O847 O 0.80482 0.32242 0.87466 0.0
H848 H 0.80899 0.42942 0.88654 0.0
H849 H 0.83385 0.46575 0.88576 0.0
H850 H 0.88625 0.42775 0.87076 0.0
H851 H 0.86122 0.39157 0.87091 0.0
H852 H 0.8076 0.23785 0.8197 0.0
H853 H 0.78652 0.20226 0.82842 0.0
H854 H 0.73599 0.20243 0.76404 0.0
H855 H 0.75757 0.23764 0.75475 0.0
Nd856 Nd 0.7836 0.80461 0.79926 0.0
Nd857 Nd 0.81646 0.8374 0.83637 0.0
C858 C 0.75226 0.77695 0.76622 0.0
C859 C 0.72888 0.77635 0.7705 0.0
C860 C 0.71914 0.7959 0.76767 0.0
C861 C 0.7041 0.80221 0.78371 0.0
C862 C 0.69821 0.78883 0.80242 0.0
C863 C 0.70486 0.76727 0.80207 0.0
C864 C 0.71991 0.76094 0.78598 0.0
C865 C 0.77851 0.80102 0.84949 0.0
C866 C 0.76814 0.85189 0.82253 0.0
C867 C 0.84723 0.86458 0.87084 0.0
C868 C 0.87098 0.86464 0.86879 0.0
C869 C 0.87984 0.84469 0.87237 0.0
C870 C 0.8957 0.83803 0.85775 0.0
C871 C 0.90326 0.85147 0.83981 0.0
C872 C 0.89757 0.87344 0.83988 0.0
C873 C 0.88167 0.8801 0.85451 0.0
C874 C 0.81997 0.84223 0.78588 0.0
C875 C 0.83197 0.78998 0.81344 0.0
O876 O 0.76246 0.79631 0.76064 0.0
O877 O 0.7646 0.76927 0.78382 0.0
O878 O 0.76254 0.80202 0.83164 0.0
O879 O 0.79667 0.80344 0.84089 0.0
O880 O 0.76561 0.83568 0.80204 0.0
O881 O 0.78504 0.85376 0.84129 0.0
O882 O 0.83605 0.84549 0.87587 0.0
O883 O 0.83627 0.87233 0.85214 0.0
O884 O 0.83665 0.84153 0.80305 0.0
O885 O 0.80232 0.83901 0.79528 0.0
O886 O 0.83467 0.80652 0.83359 0.0
O887 O 0.81508 0.78804 0.79462 0.0
H888 H 0.72519 0.80796 0.75553 0.0
H889 H 0.69867 0.81862 0.78307 0.0
H890 H 0.70037 0.75646 0.8161 0.0
H891 H 0.72677 0.74554 0.78834 0.0
H892 H 0.87248 0.8326 0.88374 0.0
H893 H 0.90035 0.82128 0.85856 0.0
H894 H 0.90339 0.88429 0.82644 0.0
H895 H 0.87555 0.89582 0.85172 0.0
Nd896 Nd 0.57485 0.5962 0.58309 0.0
Nd897 Nd 0.54647 0.55696 0.57333 0.0
C898 C 0.59922 0.6383 0.59383 0.0
C899 C 0.59847 0.65744 0.57834 0.0
C900 C 0.57983 0.66832 0.57586 0.0
C901 C 0.57787 0.68417 0.55883 0.0
C902 C 0.59456 0.68982 0.5438 0.0
C903 C 0.61348 0.67937 0.54675 0.0
C904 C 0.61539 0.66342 0.56377 0.0
C905 C 0.57659 0.57783 0.53143 0.0
C906 C 0.52561 0.59981 0.55754 0.0
C907 C 0.52561 0.51303 0.56769 0.0
C908 C 0.52972 0.49273 0.57998 0.0
C909 C 0.55117 0.4879 0.58611 0.0
C910 C 0.55493 0.47123 0.60181 0.0
C911 C 0.53734 0.45898 0.61182 0.0
C912 C 0.51581 0.46339 0.60482 0.0
C913 C 0.5121 0.47997 0.58917 0.0
C914 C 0.53515 0.58236 0.61691 0.0
C915 C 0.59722 0.55368 0.59779 0.0
O916 O 0.58191 0.63223 0.60478 0.0
O917 O 0.6066 0.62034 0.5835 0.0
O918 O 0.5722 0.59801 0.53933 0.0
O919 O 0.57537 0.56629 0.54997 0.0
O920 O 0.54299 0.61039 0.57419 0.0
O921 O 0.52432 0.57743 0.54898 0.0
O922 O 0.53843 0.52045 0.55171 0.0
O923 O 0.5214 0.53001 0.58338 0.0
O924 O 0.52207 0.57319 0.59575 0.0
O925 O 0.55533 0.58034 0.61387 0.0
O926 O 0.57657 0.54279 0.59151 0.0
O927 O 0.6017 0.57604 0.5976 0.0
H928 H 0.56636 0.66416 0.5866 0.0
H929 H 0.56291 0.69152 0.55696 0.0
H930 H 0.62685 0.68347 0.53588 0.0
H931 H 0.62995 0.65536 0.56512 0.0
H932 H 0.56516 0.4974 0.5794 0.0
H933 H 0.57169 0.46814 0.60631 0.0
H934 H 0.50182 0.45471 0.61229 0.0
H935 H 0.49545 0.48354 0.58511 0.0
Nd936 Nd 0.07556 0.58274 0.07896 0.0
Nd937 Nd 0.03437 0.56144 0.0773 0.0
C938 C 0.11805 0.59749 0.07655 0.0
C939 C 0.13804 0.59191 0.09081 0.0
C940 C 0.1593 0.60162 0.08687 0.0
C941 C 0.17814 0.59593 0.10045 0.0
C942 C 0.17598 0.58054 0.11829 0.0
C943 C 0.15458 0.57109 0.12232 0.0
C944 C 0.13583 0.57666 0.10865 0.0
C945 C 0.07282 0.56106 0.12208 0.0
C946 C 0.06105 0.5318 0.04466 0.0
C947 C 0.99312 0.54503 0.08307 0.0
C948 C 0.9716 0.55158 0.07454 0.0
C949 C 0.96722 0.57364 0.08332 0.0
C950 C 0.94791 0.58052 0.07276 0.0
C951 C 0.9327 0.56557 0.05309 0.0
C952 C 0.93677 0.5433 0.04484 0.0
C953 C 0.95597 0.53633 0.05557 0.0
C954 C 0.03592 0.58299 0.03392 0.0
C955 C 0.04791 0.61414 0.1084 0.0
O956 O 0.10556 0.58042 0.06026 0.0
O957 O 0.10641 0.60917 0.09049 0.0
O958 O 0.08109 0.58244 0.12261 0.0
O959 O 0.06461 0.55172 0.09923 0.0
O960 O 0.07177 0.55277 0.04439 0.0
O961 O 0.04748 0.52929 0.06156 0.0
O962 O 1.00707 0.55959 0.10091 0.0
O963 O 1.0029 0.53622 0.06469 0.0
O964 O 0.02642 0.56208 0.03402 0.0
O965 O 0.04526 0.59232 0.0565 0.0
O966 O 0.03676 0.59345 0.10912 0.0
O967 O 0.06261 0.61573 0.0926 0.0
H968 H 0.16133 0.61347 0.07324 0.0
H969 H 0.1944 0.6036 0.09703 0.0
H970 H 0.15229 0.5589 0.13555 0.0
H971 H 0.11955 0.56883 0.11182 0.0
H972 H 0.97897 0.58588 0.0978 0.0
H973 H 0.94527 0.59785 0.07935 0.0
H974 H 0.92518 0.53134 0.02993 0.0
H975 H 0.95895 0.51924 0.04849 0.0
C976 C 0.08592 0.27938 0.93877 0.0
C977 C 0.07138 0.29272 0.94923 0.0
C978 C 0.09163 0.26042 0.94999 0.0
C979 C 0.08272 0.25482 0.97223 0.0
C980 C 0.06751 0.26779 0.9822 0.0
C981 C 0.06196 0.28626 0.97056 0.0
C982 C 0.10762 0.24677 0.9385 0.0
C983 C 0.05749 0.26262 1.00579 0.0
C984 C 0.07933 0.19758 0.99734 0.0
C985 C 0.09593 0.20318 0.01916 0.0
C986 C 0.07595 0.21359 0.98068 0.0
C987 C 0.08937 0.23594 0.98592 0.0
C988 C 0.10695 0.24124 1.00707 0.0
C989 C 0.11004 0.22483 0.02336 0.0
C990 C 0.05716 0.20701 0.95829 0.0
C991 C 0.12162 0.26483 0.01356 0.0
H992 H 0.09332 0.28413 0.92238 0.0
H993 H 0.05041 0.29606 0.97872 0.0
H994 H 0.12331 0.24956 0.95224 0.0
H995 H 0.10065 0.22798 0.93515 0.0
H996 H 0.11151 0.25184 0.91998 0.0
H997 H 0.04575 0.27423 0.01101 0.0
H998 H 0.04848 0.24448 1.00243 0.0
H999 H 0.07084 0.26458 0.0225 0.0
H1000 H 0.06864 0.18073 0.99352 0.0
H1001 H 0.12287 0.22943 0.04013 0.0
H1002 H 0.06268 0.2123 0.94056 0.0
H1003 H 0.04343 0.21621 0.96261 0.0
H1004 H 0.05054 0.18811 0.95441 0.0
H1005 H 0.12758 0.27011 0.99605 0.0
H1006 H 0.13621 0.26531 0.02838 0.0
H1007 H 0.11188 0.27777 0.02103 0.0
C1008 C 0.12587 0.82028 0.29838 0.0
C1009 C 0.11967 0.81512 0.27133 0.0
C1010 C 0.14832 0.82124 0.31043 0.0
C1011 C 0.16533 0.81674 0.2954 0.0
C1012 C 0.15895 0.81119 0.26829 0.0
C1013 C 0.13675 0.81049 0.25691 0.0
C1014 C 0.15394 0.82736 0.33935 0.0
C1015 C 0.17572 0.80587 0.25094 0.0
C1016 C 0.22927 0.83681 0.3167 0.0
C1017 C 0.23655 0.81656 0.3226 0.0
C1018 C 0.20631 0.83751 0.30942 0.0
C1019 C 0.18965 0.81739 0.30732 0.0
C1020 C 0.19694 0.79705 0.31377 0.0
C1021 C 0.21992 0.79695 0.32142 0.0
C1022 C 0.19995 0.85978 0.30317 0.0
C1023 C 0.18048 0.77489 0.31149 0.0
H1024 H 0.11335 0.82397 0.31014 0.0
H1025 H 0.13283 0.8061 0.23609 0.0
H1026 H 0.16061 0.81313 0.34729 0.0
H1027 H 0.16712 0.84304 0.34467 0.0
H1028 H 0.1393 0.83063 0.34852 0.0
H1029 H 0.16828 0.80148 0.23025 0.0
H1030 H 0.18937 0.82099 0.25335 0.0
H1031 H 0.18322 0.79114 0.2564 0.0
H1032 H 0.24161 0.85216 0.31738 0.0
H1033 H 0.22493 0.78106 0.32569 0.0
H1034 H 0.18601 0.86385 0.31324 0.0
H1035 H 0.19418 0.85786 0.28216 0.0
H1036 H 0.21407 0.87458 0.30872 0.0
H1037 H 0.16661 0.77798 0.32213 0.0
H1038 H 0.18821 0.76105 0.31902 0.0
H1039 H 0.17324 0.76866 0.29094 0.0
C1040 C 0.56889 0.90857 0.46311 0.0
C1041 C 0.56599 0.90594 0.43606 0.0
C1042 C 0.56738 0.92947 0.47846 0.0
C1043 C 0.56232 0.94832 0.46663 0.0
C1044 C 0.55915 0.94576 0.43926 0.0
C1045 C 0.56127 0.92471 0.42432 0.0
C1046 C 0.57133 0.93137 0.50747 0.0
C1047 C 0.5533 0.96519 0.42579 0.0
C1048 C 0.53868 0.99294 0.50935 0.0
C1049 C 0.55726 1.01061 0.51818 0.0
C1050 C 0.53986 0.97312 0.49177 0.0
C1051 C 0.56025 0.97049 0.48311 0.0
C1052 C 0.57902 0.98839 0.49177 0.0
C1053 C 0.57724 1.00827 0.50892 0.0
C1054 C 0.5193 0.95478 0.48279 0.0
C1055 C 0.60121 0.98621 0.48357 0.0
H1056 H 0.5727 0.89428 0.47245 0.0
H1057 H 0.55893 0.92284 0.40346 0.0
H1058 H 0.58488 0.94617 0.51602 0.0
H1059 H 0.55619 0.93477 0.51542 0.0
H1060 H 0.57584 0.91543 0.51371 0.0
H1061 H 0.55105 0.96045 0.40446 0.0
H1062 H 0.53774 0.97003 0.4314 0.0
H1063 H 0.56654 0.98073 0.43188 0.0
H1064 H 0.52308 0.99462 0.5161 0.0
H1065 H 0.59173 0.02174 0.51562 0.0
H1066 H 0.52175 0.93865 0.49014 0.0
H1067 H 0.51624 0.95062 0.46141 0.0
H1068 H 0.50433 0.96023 0.4895 0.0
H1069 H 0.60714 0.97123 0.49066 0.0
H1070 H 0.61398 1.00198 0.4911 0.0
H1071 H 0.59956 0.98288 0.46222 0.0
C1072 C 0.47719 0.28867 0.79094 0.0
C1073 C 0.48648 0.3047 0.77627 0.0
C1074 C 0.45545 0.28846 0.79788 0.0
C1075 C 0.44254 0.30529 0.79115 0.0
C1076 C 0.45226 0.32189 0.77702 0.0
C1077 C 0.47348 0.32103 0.76936 0.0
C1078 C 0.44602 0.26968 0.81185 0.0
C1079 C 0.44028 0.34089 0.77003 0.0
C1080 C 0.37787 0.29734 0.78744 0.0
C1081 C 0.3749 0.30839 0.81183 0.0
C1082 C 0.39936 0.29538 0.78096 0.0
C1083 C 0.41908 0.30565 0.79864 0.0
C1084 C 0.41611 0.31712 0.82317 0.0
C1085 C 0.3944 0.31788 0.82956 0.0
C1086 C 0.40088 0.28215 0.75496 0.0
C1087 C 0.43601 0.3294 0.84256 0.0
H1088 H 0.48658 0.27568 0.79625 0.0
H1089 H 0.48015 0.3336 0.7581 0.0
H1090 H 0.44298 0.2774 0.83109 0.0
H1091 H 0.42978 0.26028 0.80094 0.0
H1092 H 0.45725 0.25706 0.81447 0.0
H1093 H 0.45073 0.35383 0.76139 0.0
H1094 H 0.42504 0.33339 0.756 0.0
H1095 H 0.43506 0.34992 0.78742 0.0
H1096 H 0.36324 0.28986 0.77336 0.0
H1097 H 0.39273 0.32678 0.84833 0.0
H1098 H 0.41228 0.26963 0.75718 0.0
H1099 H 0.40783 0.29427 0.74272 0.0
H1100 H 0.38443 0.27259 0.74476 0.0
H1101 H 0.44661 0.3169 0.84793 0.0
H1102 H 0.43122 0.33822 0.86037 0.0
H1103 H 0.44623 0.34246 0.83386 0.0
C1104 C 0.04388 0.85474 0.6609 0.0
C1105 C 1.02158 0.85156 0.6497 0.0
C1106 C 0.05985 0.87163 0.65439 0.0
C1107 C 0.05293 0.88655 0.63764 0.0
C1108 C 0.03012 0.88403 0.62739 0.0
C1109 C 1.01481 0.86606 0.63295 0.0
C1110 C 0.08393 0.87299 0.66527 0.0
C1111 C 1.02186 0.90016 0.6103 0.0
C1112 C 0.08369 0.94572 0.6343 0.0
C1113 C 0.08662 0.94265 0.60826 0.0
C1114 C 0.07439 0.92705 0.64525 0.0
C1115 C 0.06911 0.90472 0.63018 0.0
C1116 C 0.07578 0.90098 0.6056 0.0
C1117 C 0.08407 0.92008 0.59463 0.0
C1118 C 0.06798 0.93167 0.67178 0.0
C1119 C 0.0721 0.87704 0.58989 0.0
H1120 H 0.04903 0.8433 0.6738 0.0
H1121 H 0.99749 0.8634 0.62437 0.0
H1122 H 0.09538 0.88041 0.65284 0.0
H1123 H 0.08766 0.88402 0.68458 0.0
H1124 H 0.08737 0.85557 0.66784 0.0
H1125 H 1.00344 0.89737 0.60632 0.0
H1126 H 0.02817 0.91845 0.61946 0.0
H1127 H 0.02814 0.89745 0.59162 0.0
H1128 H 0.08674 0.96303 0.64541 0.0
H1129 H 0.08666 0.91733 0.57468 0.0
H1130 H 0.07424 0.91969 0.68396 0.0
H1131 H 0.04961 0.92852 0.67018 0.0
H1132 H 0.07457 0.94973 0.68163 0.0
H1133 H 0.0761 0.86428 0.60236 0.0
H1134 H 0.08236 0.8764 0.57414 0.0
H1135 H 0.05438 0.87178 0.58108 0.0
C1136 C 0.55784 0.91532 0.96644 0.0
C1137 C 0.56009 0.90824 0.9906 0.0
C1138 C 0.53683 0.91479 0.95257 0.0
C1139 C 0.51767 0.9065 0.96294 0.0
C1140 C 0.51988 0.90105 0.98821 0.0
C1141 C 0.54117 0.90221 1.0019 0.0
C1142 C 0.5352 0.92139 0.92602 0.0
C1143 C 0.49985 0.89207 0.9999 0.0
C1144 C 0.46063 0.91062 0.92928 0.0
C1145 C 0.45407 0.88863 0.91394 0.0
C1146 C 0.48134 0.91684 0.94525 0.0
C1147 C 0.49572 0.90057 0.94609 0.0
C1148 C 0.48926 0.87841 0.93056 0.0
C1149 C 0.4686 0.87277 0.91458 0.0
C1150 C 0.48776 0.94069 0.96136 0.0
C1151 C 0.50416 0.86056 0.93092 0.0
H1152 H 0.57255 0.92026 0.95786 0.0
H1153 H 0.54292 0.89667 0.02057 0.0
H1154 H 0.5302 0.90552 0.91125 0.0
H1155 H 0.52235 0.93228 0.92326 0.0
H1156 H 0.55126 0.93094 0.92257 0.0
H1157 H 0.50416 0.89165 0.0208 0.0
H1158 H 0.48692 0.90288 0.99728 0.0
H1159 H 0.49253 0.87424 0.98991 0.0
H1160 H 0.44936 0.92287 0.92924 0.0
H1161 H 0.46381 0.85588 0.90253 0.0
H1162 H 0.50378 0.94957 0.95714 0.0
H1163 H 0.49018 0.93929 0.98214 0.0
H1164 H 0.47502 0.95159 0.95783 0.0
H1165 H 0.52008 0.86726 0.92468 0.0
H1166 H 0.49646 0.84397 0.9181 0.0
H1167 H 0.50811 0.85706 0.95085 0.0
C1168 C 0.48395 0.20681 0.12239 0.0
C1169 C 0.47528 0.22091 0.10608 0.0
C1170 C 0.48867 0.18532 0.11218 0.0
C1171 C 0.48396 0.1776 0.08516 0.0
C1172 C 0.47184 0.19001 0.06933 0.0
C1173 C 0.46796 0.21179 0.07991 0.0
C1174 C 0.50118 0.17236 0.12989 0.0
C1175 C 0.46506 0.18146 0.04078 0.0
C1176 C 0.53017 0.15105 0.05949 0.0
C1177 C 0.52302 0.12758 0.06004 0.0
C1178 C 0.51703 0.16739 0.06646 0.0
C1179 C 0.49588 0.15993 0.07329 0.0
C1180 C 0.48767 0.13598 0.07131 0.0
C1181 C 0.50151 0.12008 0.06507 0.0
C1182 C 0.52662 0.19278 0.06856 0.0
C1183 C 0.46497 0.12703 0.07734 0.0
H1184 H 0.48954 0.2137 0.14266 0.0
H1185 H 0.46089 0.22247 0.06728 0.0
H1186 H 0.49326 0.15385 0.12664 0.0
H1187 H 0.51841 0.17322 0.12565 0.0
H1188 H 0.50194 0.17963 0.15056 0.0
H1189 H 0.45156 0.18984 0.03254 0.0
H1190 H 0.47952 0.18552 0.03071 0.0
H1191 H 0.45942 0.16241 0.03686 0.0
H1192 H 0.54679 0.15692 0.05565 0.0
H1193 H 0.49589 0.10187 0.0654 0.0
H1194 H 0.52835 0.2015 0.08887 0.0
H1195 H 0.51532 0.20125 0.05665 0.0
H1196 H 0.54317 0.19562 0.06222 0.0
H1197 H 0.46638 0.12504 0.09795 0.0
H1198 H 0.45797 0.10972 0.06567 0.0
H1199 H 0.45321 0.13893 0.07373 0.0
C1200 C 0.16339 0.34033 0.44659 0.0
C1201 C 0.14571 0.3523 0.44352 0.0
C1202 C 0.1714 0.32996 0.42494 0.0
C1203 C 0.16198 0.33243 0.39986 0.0
C1204 C 0.14452 0.34509 0.39686 0.0
C1205 C 0.13636 0.35449 0.41869 0.0
C1206 C 0.18978 0.31626 0.42886 0.0
C1207 C 0.1346 0.34891 0.3706 0.0
C1208 C 0.19533 0.32769 0.34466 0.0
C1209 C 0.18493 0.30624 0.32994 0.0
C1210 C 0.18851 0.33605 0.36788 0.0
C1211 C 0.17076 0.3227 0.37661 0.0
C1212 C 0.16042 0.30084 0.3621 0.0
C1213 C 0.16766 0.29284 0.33892 0.0
C1214 C 0.20074 0.35892 0.38328 0.0
C1215 C 0.1418 0.28587 0.37114 0.0
H1216 H 0.17047 0.33847 0.46582 0.0
H1217 H 0.12276 0.36389 0.41633 0.0
H1218 H 0.18538 0.29917 0.41608 0.0
H1219 H 0.20518 0.32558 0.42366 0.0
H1220 H 0.19332 0.3135 0.44916 0.0
H1221 H 0.12219 0.36051 0.37176 0.0
H1222 H 0.14789 0.35658 0.3605 0.0
H1223 H 0.12639 0.3321 0.35865 0.0
H1224 H 0.20925 0.33773 0.33835 0.0
H1225 H 0.15979 0.27612 0.32779 0.0
H1226 H 0.21263 0.35572 0.39931 0.0
H1227 H 0.18922 0.36924 0.39183 0.0
H1228 H 0.21032 0.36933 0.37131 0.0
H1229 H 0.14702 0.28334 0.39121 0.0
H1230 H 0.1366 0.26865 0.35865 0.0
H1231 H 0.12721 0.2946 0.37126 0.0
C1232 C 0.97841 0.10309 0.2505 0.0
C1233 C 0.95691 0.08946 0.24752 0.0
C1234 C 0.9921 0.10267 0.23062 0.0
C1235 C 0.98487 0.08797 0.20627 0.0
C1236 C 0.96288 0.07466 0.20273 0.0
C1237 C 0.9495 0.07536 0.2231 0.0
C1238 C 1.01504 0.11728 0.23634 0.0
C1239 C 0.95376 0.05866 0.17761 0.0
C1240 C 1.01764 0.09772 0.14809 0.0
C1241 C 0.03162 0.081 0.14779 0.0
C1242 C 1.00246 0.10003 0.16638 0.0
C1243 C 1.00077 0.08547 0.18564 0.0
C1244 C 1.01499 0.06872 0.18546 0.0
C1245 C 0.02981 0.06667 0.16686 0.0
C1246 C 0.98797 0.11807 0.16485 0.0
C1247 C 1.01454 0.05266 0.20507 0.0
H1248 H 0.98515 0.1134 0.26924 0.0
H1249 H 0.93361 0.0638 0.22029 0.0
H1250 H 0.02762 0.10588 0.23685 0.0
H1251 H 1.01778 0.12766 0.22084 0.0
H1252 H 1.01784 0.12918 0.25509 0.0
H1253 H 0.93582 0.05149 0.17632 0.0
H1254 H 0.95613 0.06789 0.16111 0.0
H1255 H 0.96296 0.04407 0.17571 0.0
H1256 H 1.01821 0.10886 0.13361 0.0
H1257 H 0.04005 0.05347 0.16721 0.0
H1258 H 0.99165 0.13071 0.18308 0.0
H1259 H 0.97024 0.1098 0.16258 0.0
H1260 H 0.9904 0.12756 0.14853 0.0
H1261 H 1.01862 0.06287 0.22484 0.0
H1262 H 0.02644 0.0406 0.2028 0.0
H1263 H 0.9976 0.04235 0.20326 0.0
C1264 C 0.37011 0.76931 0.50525 0.0
C1265 C 0.36339 0.74612 0.50778 0.0
C1266 C 0.36134 0.77834 0.48369 0.0
C1267 C 0.34467 0.76415 0.46449 0.0
C1268 C 0.33748 0.7408 0.46727 0.0
C1269 C 0.34718 0.73198 0.48856 0.0
C1270 C 0.37025 0.80301 0.48126 0.0
C1271 C 0.31931 0.72517 0.44787 0.0
C1272 C 0.30989 0.79525 0.4197 0.0
C1273 C 0.31901 0.79175 0.39684 0.0
C1274 C 0.3176 0.78587 0.44159 0.0
C1275 C 0.33549 0.77349 0.44106 0.0
C1276 C 0.34498 0.77038 0.41811 0.0
C1277 C 0.3364 0.77911 0.39631 0.0
C1278 C 0.30647 0.78906 0.46524 0.0
C1279 C 0.36459 0.75823 0.4167 0.0
H1280 H 0.38261 0.78037 0.52 0.0
H1281 H 0.34161 0.71414 0.49054 0.0
H1282 H 0.37692 0.8034 0.46283 0.0
H1283 H 0.35668 0.81318 0.48083 0.0
H1284 H 0.38362 0.8116 0.4974 0.0
H1285 H 0.31453 0.70798 0.45357 0.0
H1286 H 0.30441 0.73338 0.44563 0.0
H1287 H 0.32483 0.72254 0.42873 0.0
H1288 H 0.29646 0.80493 0.42031 0.0
H1289 H 0.34382 0.77657 0.3789 0.0
H1290 H 0.31849 0.79952 0.48169 0.0
H1291 H 0.30084 0.772 0.47079 0.0
H1292 H 0.29197 0.7978 0.46215 0.0
H1293 H 0.37851 0.7671 0.43204 0.0
H1294 H 0.3705 0.7578 0.39774 0.0
H1295 H 0.36009 0.74019 0.42011 0.0
C1296 C 0.59363 0.99926 0.74015 0.0
C1297 C 0.61578 1.00695 0.75202 0.0
C1298 C 0.58613 1.00371 0.71544 0.0
C1299 C 0.60096 0.01673 0.70236 0.0
C1300 C 0.6237 0.02325 0.71354 0.0
C1301 C 0.63086 0.01813 0.73814 0.0
C1302 C 0.56193 0.99582 0.70414 0.0
C1303 C 0.64015 0.03726 0.70048 0.0
C1304 C 0.58568 0.02238 0.63144 0.0
C1305 C 0.57856 0.04374 0.63354 0.0
C1306 C 0.59223 1.01291 0.65354 0.0
C1307 C 0.5923 0.02543 0.67843 0.0
C1308 C 0.58456 0.0468 0.68052 0.0
C1309 C 0.57777 0.05564 0.65807 0.0
C1310 C 0.59995 0.98996 0.65025 0.0
C1311 C 0.58449 0.06093 0.70654 0.0
H1312 H 0.58182 0.99083 0.75088 0.0
H1313 H 0.64786 0.0246 0.74739 0.0
H1314 H 0.55349 1.01099 0.70481 0.0
H1315 H 0.56016 0.98772 0.68361 0.0
H1316 H 0.55331 0.98324 0.71484 0.0
H1317 H 0.65751 0.03897 0.71022 0.0
H1318 H 0.63903 0.02925 0.68002 0.0
H1319 H 0.63617 0.05485 0.70062 0.0
H1320 H 0.58697 1.0135 0.61249 0.0
H1321 H 0.573 0.07253 0.65976 0.0
H1322 H 0.59157 0.97829 0.66205 0.0
H1323 H 0.61805 0.99265 0.65715 0.0
H1324 H 0.59668 0.98125 0.62979 0.0
H1325 H 0.57466 0.05046 0.71829 0.0
H1326 H 0.57748 0.07686 0.70492 0.0
H1327 H 0.60171 0.06599 0.7171 0.0
C1328 C 0.3443 0.48843 0.06804 0.0
C1329 C 0.32692 0.49547 0.07963 0.0
C1330 C 0.34043 0.47706 0.0425 0.0
C1331 C 0.31854 0.4724 0.02877 0.0
C1332 C 0.30179 0.4827 0.03919 0.0
C1333 C 0.3062 0.49418 0.06482 0.0
C1334 C 0.35897 0.46699 0.0318 0.0
C1335 C 0.27849 0.47885 0.02471 0.0
C1336 C 0.31386 0.43406 0.96428 0.0
C1337 C 0.31018 0.41212 0.97161 0.0
C1338 C 0.31476 0.45414 0.98217 0.0
C1339 C 0.31231 0.45207 0.00793 0.0
C1340 C 0.30692 0.42988 0.01485 0.0
C1341 C 0.30579 0.41018 0.99652 0.0
C1342 C 0.31984 0.47741 0.97383 0.0
C1343 C 0.3039 0.42685 0.0421 0.0
H1344 H 0.36036 0.48972 0.07967 0.0
H1345 H 0.29278 0.49971 0.07402 0.0
H1346 H 0.35661 0.44824 0.03287 0.0
H1347 H 0.35882 0.46885 0.01127 0.0
H1348 H 0.3755 0.47542 0.04283 0.0
H1349 H 0.26946 0.49259 0.03194 0.0
H1350 H 0.27857 0.47838 1.00372 0.0
H1351 H 0.26925 0.46197 0.02746 0.0
H1352 H 0.3172 0.43565 0.94497 0.0
H1353 H 0.3023 0.3932 1.00196 0.0
H1354 H 0.33805 0.48365 0.97751 0.0
H1355 H 0.31198 0.49045 0.98469 0.0
H1356 H 0.31411 0.47623 0.95286 0.0
H1357 H 0.31983 0.4335 0.05528 0.0
H1358 H 0.2984 0.40844 0.04378 0.0
H1359 H 0.29146 0.43689 0.04883 0.0
C1360 C 0.93782 0.08317 0.40262 0.0
C1361 C 0.94803 0.08897 0.38157 0.0
C1362 C 0.95049 0.08098 0.42628 0.0
C1363 C 0.97414 0.08537 0.42966 0.0
C1364 C 0.98444 0.09167 0.40857 0.0
C1365 C 0.97141 0.09301 0.38495 0.0
C1366 C 0.93849 0.07359 0.44762 0.0
C1367 C 1.00941 0.09722 0.41099 0.0
C1368 C 1.0078 0.10012 0.49879 0.0
C1369 C 1.01601 0.07971 0.50186 0.0
C1370 C 0.99438 0.10223 0.47566 0.0
C1371 C 0.98815 0.08325 0.45493 0.0
C1372 C 0.99604 0.06244 0.45815 0.0
C1373 C 1.01001 0.06106 0.48117 0.0
C1374 C 0.98721 0.12505 0.47326 0.0
C1375 C 0.9896 0.04143 0.43725 0.0
H1376 H 0.91985 0.07985 0.40042 0.0
H1377 H 0.97967 0.09766 0.36909 0.0
H1378 H 0.94373 0.0577 0.45312 0.0
H1379 H 0.94297 0.08722 0.46499 0.0
H1380 H 0.92017 0.07012 0.44195 0.0
H1381 H 1.01498 0.10295 0.39344 0.0
H1382 H 1.01625 0.11107 0.42779 0.0
H1383 H 1.01657 0.08176 0.41447 0.0
H1384 H 1.01227 0.11476 0.51435 0.0
H1385 H 1.01593 0.04508 0.48314 0.0
H1386 H 0.96883 0.12265 0.46989 0.0
H1387 H 0.99318 0.13166 0.45636 0.0
H1388 H 0.99365 0.13831 0.49075 0.0
H1389 H 0.97125 0.03704 0.43211 0.0
H1390 H 0.9958 0.02612 0.44316 0.0
H1391 H 0.99635 0.04521 0.4196 0.0
C1392 C 0.36094 0.74868 0.6591 0.0
C1393 C 0.37662 0.762 0.64761 0.0
C1394 C 0.35421 0.75773 0.68251 0.0
C1395 C 0.36345 0.78069 0.69513 0.0
C1396 C 0.38053 0.79348 0.6846 0.0
C1397 C 0.3866 0.78418 0.66096 0.0
C1398 C 0.33586 0.74332 0.69257 0.0
C1399 C 0.39138 0.81772 0.69735 0.0
C1400 C 0.32728 0.81532 0.73385 0.0
C1401 C 0.3349 0.81363 0.75955 0.0
C1402 C 0.33638 0.80476 0.713 0.0
C1403 C 0.35381 0.79214 0.71759 0.0
C1404 C 0.36186 0.79073 0.74356 0.0
C1405 C 0.35234 0.80136 0.76407 0.0
C1406 C 0.32696 0.80673 0.68585 0.0
C1407 C 0.38034 0.77763 0.74971 0.0
H1408 H 0.35247 0.73191 0.64861 0.0
H1409 H 0.39823 0.79493 0.65201 0.0
H1410 H 0.34026 0.74359 0.71357 0.0
H1411 H 0.32053 0.75077 0.68969 0.0
H1412 H 0.33219 0.72507 0.68256 0.0
H1413 H 0.40629 0.82419 0.68895 0.0
H1414 H 0.37936 0.82957 0.69495 0.0
H1415 H 0.39631 0.81839 0.71836 0.0
H1416 H 0.31375 0.82451 0.72991 0.0
H1417 H 0.3583 0.79962 0.78372 0.0
H1418 H 0.32049 0.78922 0.67446 0.0
H1419 H 0.34023 0.81516 0.67623 0.0
H1420 H 0.31332 0.81688 0.68535 0.0
H1421 H 0.37478 0.75903 0.74151 0.0
H1422 H 0.38569 0.77922 0.77081 0.0
H1423 H 0.39487 0.78407 0.74071 0.0
C1424 C 0.64073 0.01923 0.91574 0.0
C1425 C 0.63119 0.02261 0.89139 0.0
C1426 C 0.63199 0.02665 0.93824 0.0
C1427 C 0.61361 0.03829 0.9365 0.0
C1428 C 0.60429 0.04216 0.91199 0.0
C1429 C 0.61294 0.034 0.88982 0.0
C1430 C 0.64201 0.0214 0.96375 0.0
C1431 C 0.58511 0.05498 0.90914 0.0
C1432 C 0.57547 0.04007 0.98801 0.0
C1433 C 0.58383 0.06183 1.00327 0.0
C1434 C 0.58541 0.03192 0.96682 0.0
C1435 C 0.6038 0.04613 0.96009 0.0
C1436 C 0.61221 0.0682 0.97536 0.0
C1437 C 0.60237 0.07561 0.99694 0.0
C1438 C 0.57607 1.0081 0.95158 0.0
C1439 C 0.63145 0.08416 0.96868 0.0
H1440 H 0.65469 1.01027 0.91714 0.0
H1441 H 0.60546 0.03681 0.87118 0.0
H1442 H 0.64634 0.03733 0.97846 0.0
H1443 H 0.62962 1.00908 0.97077 0.0
H1444 H 0.65712 0.01367 0.96225 0.0
H1445 H 0.58061 0.05783 0.88902 0.0
H1446 H 0.57034 0.04507 0.91503 0.0
H1447 H 0.58935 0.07202 0.92203 0.0
H1448 H 0.56142 0.02908 0.993 0.0
H1449 H 0.60903 0.09238 0.0087 0.0
H1450 H 0.58962 0.99848 0.94773 0.0
H1451 H 0.56698 1.00968 0.93266 0.0
H1452 H 0.56444 0.99777 0.96174 0.0
H1453 H 0.64618 0.07566 0.96877 0.0
H1454 H 0.636 0.10079 0.98236 0.0
H1455 H 0.62717 0.08791 0.94892 0.0
C1456 C 0.33724 0.41178 0.17816 0.0
C1457 C 0.33656 0.43531 0.18594 0.0
C1458 C 0.336 0.39607 0.19544 0.0
C1459 C 0.33401 0.4039 0.22131 0.0
C1460 C 0.33355 0.4276 0.22954 0.0
C1461 C 0.33479 0.44307 0.21172 0.0
C1462 C 0.33633 0.37092 0.18579 0.0
C1463 C 0.33147 0.43652 0.25707 0.0
C1464 C 0.30635 0.35891 0.25664 0.0
C1465 C 0.32457 0.35358 0.27177 0.0
C1466 C 0.30923 0.37545 0.24042 0.0
C1467 C 0.33091 0.38684 0.23911 0.0
C1468 C 0.34947 0.38106 0.25378 0.0
C1469 C 0.34608 0.36442 0.26997 0.0
C1470 C 0.28902 0.38091 0.22489 0.0
C1471 C 0.37285 0.3926 0.25259 0.0
H1472 H 0.33857 0.40541 0.15832 0.0
H1473 H 0.33437 0.46116 0.21797 0.0
H1474 H 0.34964 0.36495 0.1978 0.0
H1475 H 0.32034 0.3601 0.18745 0.0
H1476 H 0.33902 0.36783 0.16536 0.0
H1477 H 0.33249 0.45558 0.26076 0.0
H1478 H 0.31535 0.42817 0.2616 0.0
H1479 H 0.34477 0.43193 0.27048 0.0
H1480 H 0.28969 0.35056 0.25799 0.0
H1481 H 0.36019 0.36038 0.28172 0.0
H1482 H 0.29002 0.37725 0.204 0.0
H1483 H 0.28842 0.39958 0.22976 0.0
H1484 H 0.2733 0.37072 0.22841 0.0
H1485 H 0.3767 0.38835 0.23278 0.0
H1486 H 0.38537 0.3871 0.26626 0.0
H1487 H 0.37445 0.41168 0.25704 0.0
C1488 C 0.17199 0.9561 0.06877 0.0
C1489 C 0.19247 0.95917 0.08499 0.0
C1490 C 0.15724 0.97192 0.07205 0.0
C1491 C 0.16249 0.99096 0.09274 0.0
C1492 C 0.18287 0.99367 0.10965 0.0
C1493 C 0.19772 0.97814 0.10526 0.0
C1494 C 0.13624 0.96858 0.05287 0.0
C1495 C 0.18899 1.01297 0.13254 0.0
C1496 C 0.13419 0.04407 0.08829 0.0
C1497 C 0.11562 0.03892 0.10061 0.0
C1498 C 0.14954 0.02881 0.08572 0.0
C1499 C 0.14682 1.00808 0.09645 0.0
C1500 C 0.12858 1.0034 0.10995 0.0
C1501 C 0.11301 0.01847 0.11126 0.0
C1502 C 0.16797 0.03427 0.0702 0.0
C1503 C 0.1251 0.9821 0.12248 0.0
H1504 H 0.16783 0.94174 0.05284 0.0
H1505 H 0.21343 0.98071 0.11798 0.0
H1506 H 0.12152 0.96597 0.06282 0.0
H1507 H 0.13574 0.98435 0.04396 0.0
H1508 H 0.13486 0.95352 0.03732 0.0
H1509 H 0.20466 1.01194 0.14484 0.0
H1510 H 0.19098 0.02995 0.12586 0.0
H1511 H 0.17547 1.01241 0.14447 0.0
H1512 H 0.13593 0.05934 0.07915 0.0
H1513 H 0.09844 0.01401 0.12025 0.0
H1514 H 0.16599 0.02047 0.05314 0.0
H1515 H 0.1843 0.03461 0.08185 0.0
H1516 H 0.16813 0.05115 0.06342 0.0
H1517 H 0.12044 0.96642 0.10744 0.0
H1518 H 0.11181 0.98229 0.13476 0.0
H1519 H 0.14073 0.98062 0.13452 0.0
C1520 C 0.68334 0.64878 0.9859 0.0
C1521 C 0.70277 0.63936 0.98872 0.0
C1522 C 0.66392 0.63833 0.99383 0.0
C1523 C 0.66397 0.618 1.00487 0.0
C1524 C 0.68275 0.60708 1.0052 0.0
C1525 C 0.70196 0.61787 0.99703 0.0
C1526 C 0.64413 0.65036 0.99274 0.0
C1527 C 0.68336 0.58522 0.01652 0.0
C1528 C 0.63071 0.61556 0.05996 0.0
C1529 C 0.61109 0.60053 0.04811 0.0
C1530 C 0.64825 0.62078 0.0462 0.0
C1531 C 0.64612 0.61069 0.01991 0.0
C1532 C 0.62661 0.59486 0.00805 0.0
C1533 C 0.60926 0.58996 0.02233 0.0
C1534 C 0.66881 0.63768 0.05965 0.0
C1535 C 0.62381 0.58369 0.98014 0.0
H1536 H 0.6837 0.66519 0.97908 0.0
H1537 H 0.71684 0.61036 0.99916 0.0
H1538 H 0.62852 0.63773 0.98559 0.0
H1539 H 0.64297 0.65884 0.01245 0.0
H1540 H 0.64542 0.66379 0.98012 0.0
H1541 H 0.69714 0.57661 0.01092 0.0
H1542 H 0.68579 0.58954 0.03788 0.0
H1543 H 0.66746 0.57284 0.0103 0.0
H1544 H 0.63222 0.62363 0.07993 0.0
H1545 H 0.59411 0.57823 0.01317 0.0
H1546 H 0.67076 0.65328 0.05026 0.0
H1547 H 0.68378 0.62977 0.05797 0.0
H1548 H 0.6682 0.64322 0.08043 0.0
H1549 H 0.62248 0.597 0.9676 0.0
H1550 H 0.60874 0.56998 0.9746 0.0
H1551 H 0.63853 0.576 0.97627 0.0
C1552 C 0.74358 0.49711 0.32809 0.0
C1553 C 0.72456 0.49862 0.34029 0.0
C1554 C 0.75339 0.47655 0.32487 0.0
C1555 C 0.74501 0.45617 0.33472 0.0
C1556 C 0.72602 0.45773 0.34744 0.0
C1557 C 0.71605 0.47824 0.3496 0.0
C1558 C 0.77287 0.47664 0.31041 0.0
C1559 C 0.71624 0.43761 0.35932 0.0
C1560 C 0.75808 0.39392 0.30927 0.0
C1561 C 0.77678 0.39145 0.32655 0.0
C1562 C 0.74813 0.41444 0.31134 0.0
C1563 C 0.756 0.43367 0.33188 0.0
C1564 C 0.77459 0.43103 0.34969 0.0
C1565 C 0.78472 0.41069 0.34662 0.0
C1566 C 0.72905 0.41555 0.29106 0.0
C1567 C 0.7837 0.44974 0.37264 0.0
H1568 H 0.75076 0.51212 0.32051 0.0
H1569 H 0.70163 0.47842 0.35925 0.0
H1570 H 0.78781 0.475 0.32355 0.0
H1571 H 0.76947 0.46153 0.29458 0.0
H1572 H 0.77663 0.4927 0.30209 0.0
H1573 H 0.70289 0.44172 0.37042 0.0
H1574 H 0.70925 0.42251 0.34399 0.0
H1575 H 0.72941 0.43241 0.37238 0.0
H1576 H 0.75123 0.37974 0.2936 0.0
H1577 H 0.79877 0.40965 0.36062 0.0
H1578 H 0.7324 0.43182 0.28304 0.0
H1579 H 0.71372 0.41571 0.29987 0.0
H1580 H 0.72597 0.40064 0.27501 0.0
H1581 H 0.79701 0.44489 0.38584 0.0
H1582 H 0.77016 0.45347 0.38359 0.0
H1583 H 0.79053 0.46594 0.36605 0.0
C1584 C 0.82217 0.42118 0.54872 0.0
C1585 C 0.80626 0.43189 0.56005 0.0
C1586 C 0.84279 0.43399 0.54643 0.0
C1587 C 0.84767 0.45809 0.55569 0.0
C1588 C 0.8318 0.46899 0.56732 0.0
C1589 C 0.8113 0.45577 0.56932 0.0
C1590 C 0.85927 0.42176 0.53383 0.0
C1591 C 0.83643 0.49465 0.57746 0.0
C1592 C 0.90815 0.48808 0.56929 0.0
C1593 C 0.91028 0.49809 0.54709 0.0
C1594 C 0.88785 0.47511 0.57241 0.0
C1595 C 0.86925 0.47197 0.55282 0.0
C1596 C 0.87127 0.48203 0.53038 0.0
C1597 C 0.89172 0.495 0.52782 0.0
C1598 C 0.88635 0.46466 0.59662 0.0
C1599 C 0.8518 0.47909 0.50906 0.0
H1600 H 0.81848 0.4028 0.54138 0.0
H1601 H 0.79916 0.46426 0.57814 0.0
H1602 H 0.863 0.4292 0.51649 0.0
H1603 H 0.87511 0.42442 0.54728 0.0
H1604 H 0.85305 0.40288 0.52796 0.0
H1605 H 0.8225 0.50042 0.58641 0.0
H1606 H 0.85169 0.49922 0.59204 0.0
H1607 H 0.83941 0.50443 0.56152 0.0
H1608 H 0.92246 0.4901 0.58411 0.0
H1609 H 0.89311 0.50297 0.51079 0.0
H1610 H 0.88167 0.44555 0.59156 0.0
H1611 H 0.87317 0.47086 0.60663 0.0
H1612 H 0.90224 0.46902 0.61022 0.0
H1613 H 0.84567 0.46044 0.50152 0.0
H1614 H 0.85614 0.48793 0.49279 0.0
H1615 H 0.83793 0.48616 0.51673 0.0
C1616 C 0.39918 0.18244 0.30331 0.0
C1617 C 0.41988 0.18957 0.31926 0.0
C1618 C 0.38384 0.19756 0.30069 0.0
C1619 C 0.38902 0.22055 0.31448 0.0
C1620 C 0.40988 0.22775 0.33087 0.0
C1621 C 0.42508 0.21236 0.33272 0.0
C1622 C 0.36169 0.18865 0.28373 0.0
C1623 C 0.41612 0.25123 0.34776 0.0
C1624 C 0.35382 0.26389 0.29062 0.0
C1625 C 0.3413 0.26759 0.31059 0.0
C1626 C 0.36937 0.24873 0.29148 0.0
C1627 C 0.3722 0.23647 0.31259 0.0
C1628 C 0.35878 0.23954 0.33218 0.0
C1629 C 0.344 0.2553 0.3312 0.0
C1630 C 0.38286 0.24665 0.26977 0.0
C1631 C 0.36 0.2263 0.35445 0.0
H1632 H 0.39483 0.16482 0.29299 0.0
H1633 H 0.44073 0.21798 0.34561 0.0
H1634 H 0.34803 0.19144 0.29488 0.0
H1635 H 0.3602 0.19842 0.26743 0.0
H1636 H 0.35946 0.16995 0.27574 0.0
H1637 H 0.43396 0.25841 0.34836 0.0
H1638 H 0.40602 0.26379 0.3414 0.0
H1639 H 0.41381 0.24932 0.3678 0.0
H1640 H 0.35212 0.27347 0.27475 0.0
H1641 H 0.33435 0.25792 0.34671 0.0
H1642 H 0.37157 0.24176 0.25103 0.0
H1643 H 0.39414 0.23397 0.27108 0.0
H1644 H 0.39297 0.2638 0.26966 0.0
H1645 H 0.36103 0.20797 0.34773 0.0
H1646 H 0.34539 0.2267 0.36466 0.0
H1647 H 0.37511 0.23413 0.36853 0.0
C1648 C 0.33911 0.11371 0.48483 0.0
C1649 C 0.31708 0.10523 0.48726 0.0
C1650 C 0.35619 0.10179 0.49194 0.0
C1651 C 0.35113 0.08105 0.502 0.0
C1652 C 0.32875 0.0717 0.50302 0.0
C1653 C 0.31196 0.08385 0.49549 0.0
C1654 C 0.37981 0.11213 0.49014 0.0
C1655 C 0.32268 0.04968 0.51371 0.0
C1656 C 0.39601 0.04457 0.51103 0.0
C1657 C 0.40551 0.05279 0.5369 0.0
C1658 C 0.37812 0.05336 0.4994 0.0
C1659 C 0.36938 0.07062 0.51405 0.0
C1660 C 0.37845 0.0785 0.54034 0.0
C1661 C 0.39644 0.06961 0.55137 0.0
C1662 C 0.36901 0.04465 0.47127 0.0
C1663 C 0.36951 0.0968 0.5567 0.0
H1664 H 0.34315 0.13016 0.47833 0.0
H1665 H 0.29497 0.07718 0.49744 0.0
H1666 H 0.38917 0.11865 0.50982 0.0
H1667 H 0.38825 0.09878 0.48082 0.0
H1668 H 0.38068 0.12671 0.47907 0.0
H1669 H 0.30446 0.04337 0.51058 0.0
H1670 H 0.33077 0.03587 0.50472 0.0
H1671 H 0.32878 0.05282 0.53476 0.0
H1672 H 0.4027 0.03139 0.49975 0.0
H1673 H 0.40388 0.07647 0.57118 0.0
H1674 H 0.37248 0.05885 0.46002 0.0
H1675 H 0.35072 0.03913 0.46863 0.0
H1676 H 0.37642 0.0299 0.46315 0.0
H1677 H 0.37206 0.11321 0.54886 0.0
H1678 H 0.37769 0.10022 0.57714 0.0
H1679 H 0.35138 0.0914 0.55614 0.0
C1680 C 0.73955 0.63781 0.33399 0.0
C1681 C 0.72414 0.63625 0.35156 0.0
C1682 C 0.75137 0.65969 0.3299 0.0
C1683 C 0.74841 0.68127 0.34379 0.0
C1684 C 0.73353 0.6796 0.36219 0.0
C1685 C 0.72169 0.65769 0.3655 0.0
C1686 C 0.76645 0.65972 0.30972 0.0
C1687 C 0.72951 0.70125 0.37812 0.0
C1688 C 0.78966 0.74052 0.34663 0.0
C1689 C 0.77809 0.75216 0.32929 0.0
C1690 C 0.78061 0.71778 0.35126 0.0
C1691 C 0.75937 0.70541 0.33813 0.0
C1692 C 0.74798 0.71697 0.32025 0.0
C1693 C 0.75717 0.73971 0.31636 0.0
C1694 C 0.79371 0.70712 0.37083 0.0
C1695 C 0.72564 0.70533 0.30517 0.0
H1696 H 0.7416 0.62196 0.3224 0.0
H1697 H 0.70991 0.65741 0.379 0.0
H1698 H 0.75953 0.66791 0.2937 0.0
H1699 H 0.78304 0.67017 0.31798 0.0
H1700 H 0.76847 0.64198 0.30172 0.0
H1701 H 0.71931 0.69737 0.3933 0.0
H1702 H 0.74556 0.71232 0.38746 0.0
H1703 H 0.72082 0.71141 0.36544 0.0
H1704 H 0.80566 0.74941 0.35713 0.0
H1705 H 0.74767 0.74789 0.30287 0.0
H1706 H 0.79639 0.68993 0.36187 0.0
H1707 H 0.78415 0.70432 0.38682 0.0
H1708 H 0.81009 0.71814 0.37899 0.0
H1709 H 0.72669 0.68793 0.29505 0.0
H1710 H 0.71939 0.71552 0.29071 0.0
H1711 H 0.71337 0.70286 0.31854 0.0
C1712 C 0.9528 0.56143 0.87327 0.0
C1713 C 0.94411 0.57549 0.85684 0.0
C1714 C 0.93965 0.54129 0.87785 0.0
C1715 C 0.91728 0.53496 0.86567 0.0
C1716 C 0.90833 0.54916 0.84928 0.0
C1717 C 0.92183 0.56927 0.84512 0.0
C1718 C 0.94976 0.52671 0.89561 0.0
C1719 C 0.88455 0.54296 0.83591 0.0
C1720 C 0.88965 0.47175 0.85566 0.0
C1721 C 0.87662 0.47149 0.87549 0.0
C1722 C 0.90307 0.49223 0.85242 0.0
C1723 C 0.90343 0.51306 0.86934 0.0
C1724 C 0.89042 0.51295 0.88948 0.0
C1725 C 0.87718 0.49217 0.89232 0.0
C1726 C 0.91667 0.49162 0.83068 0.0
C1727 C 0.89042 0.5348 0.90796 0.0
H1728 H 0.96991 0.5662 0.88269 0.0
H1729 H 0.91493 0.58002 0.83247 0.0
H1730 H 0.94022 0.52515 0.91183 0.0
H1731 H 0.94884 0.50897 0.88504 0.0
H1732 H 0.96739 0.53407 0.90365 0.0
H1733 H 0.87996 0.55612 0.82428 0.0
H1734 H 0.88191 0.52601 0.82298 0.0
H1735 H 0.87315 0.54117 0.85035 0.0
H1736 H 0.88905 0.45597 0.84229 0.0
H1737 H 0.86735 0.49207 0.90785 0.0
H1738 H 0.93449 0.498 0.83848 0.0
H1739 H 0.91157 0.50328 0.81735 0.0
H1740 H 0.91483 0.47394 0.81948 0.0
H1741 H 0.9075 0.54197 0.91817 0.0
H1742 H 0.87931 0.53181 0.92253 0.0
H1743 H 0.88498 0.54811 0.89716 0.0
C1744 C 0.05375 0.85915 0.19313 0.0
C1745 C 0.04964 0.86244 0.21874 0.0
C1746 C 0.05185 0.87619 0.17743 0.0
C1747 C 0.04554 0.89721 0.18739 0.0
C1748 C 0.04211 0.90101 0.21353 0.0
C1749 C 0.04425 0.88364 0.2289 0.0
C1750 C 0.05589 0.87133 0.14985 0.0
C1751 C 0.03536 0.92309 0.225 0.0
C1752 C 0.0551 0.9476 0.14981 0.0
C1753 C 0.03416 0.94582 0.13486 0.0
C1754 C 0.05898 0.93221 0.16717 0.0
C1755 C 0.0415 0.91455 0.16998 0.0
C1756 C 1.02028 0.91281 0.15521 0.0
C1757 C 1.01691 0.92831 0.13787 0.0
C1758 C 0.08188 0.93475 0.18237 0.0
C1759 C 1.00113 0.89428 0.15744 0.0
H1760 H 0.05797 0.84289 0.18504 0.0
H1761 H 0.04089 0.88634 0.24857 0.0
H1762 H 0.04025 0.87043 0.13655 0.0
H1763 H 0.06822 0.8856 0.14579 0.0
H1764 H 0.06199 0.85481 0.14547 0.0
H1765 H 0.03478 0.92415 0.24599 0.0
H1766 H 0.04711 0.93831 0.22197 0.0
H1767 H 1.0187 0.92419 0.21511 0.0
H1768 H 0.06854 0.96122 0.14816 0.0
H1769 H 1.00074 0.9264 0.1263 0.0
H1770 H 0.08862 0.91868 0.17768 0.0
H1771 H 0.081 0.93727 0.20333 0.0
H1772 H 0.09363 0.94954 0.17832 0.0
H1773 H 1.00505 0.87695 0.1512 0.0
H1774 H 0.98543 0.89581 0.14554 0.0
H1775 H 0.99847 0.89527 0.17784 0.0
C1776 C 0.98885 0.33935 0.85832 0.0
C1777 C 0.99506 0.34319 0.88538 0.0
C1778 C 0.96606 0.33682 0.84651 0.0
C1779 C 0.94862 0.33821 0.86178 0.0
C1780 C 0.95486 0.34164 0.88891 0.0
C1781 C 0.97739 0.34388 0.90004 0.0
C1782 C 0.96063 0.33288 0.81753 0.0
C1783 C 0.93764 0.34349 0.90658 0.0
C1784 C 0.8925 0.35664 0.83881 0.0
C1785 C 0.87666 0.33604 0.83553 0.0
C1786 C 0.91566 0.35739 0.84625 0.0
C1787 C 0.92405 0.33695 0.8502 0.0
C1788 C 0.9082 0.31592 0.84601 0.0
C1789 C 0.88499 0.31575 0.83911 0.0
C1790 C 0.93114 0.38046 0.85096 0.0
C1791 C 0.91572 0.29347 0.84947 0.0
H1792 H 1.00176 0.33867 0.84633 0.0
H1793 H 0.98108 0.34645 0.92088 0.0
H1794 H 0.94729 0.31749 0.81076 0.0
H1795 H 0.95427 0.34795 0.81125 0.0
H1796 H 0.97532 0.33034 0.80812 0.0
H1797 H 0.94493 0.3462 0.92729 0.0
H1798 H 0.92913 0.35814 0.90321 0.0
H1799 H 0.92481 0.32754 0.90235 0.0
H1800 H 0.8867 0.37259 0.83636 0.0
H1801 H 0.8733 0.29964 0.83677 0.0
H1802 H 0.94499 0.37951 0.83967 0.0
H1803 H 0.93854 0.38492 0.87165 0.0
H1804 H 0.92255 0.3946 0.84575 0.0
H1805 H 0.93015 0.29152 0.83938 0.0
H1806 H 0.90228 0.27826 0.84208 0.0
H1807 H 0.92117 0.29354 0.87025 0.0
C1808 C 0.52409 0.2301 0.68047 0.0
C1809 C 0.53714 0.23845 0.7047 0.0
C1810 C 0.52433 0.20799 0.66685 0.0
C1811 C 0.53822 0.19377 0.67747 0.0
C1812 C 0.55024 0.20145 0.70278 0.0
C1813 C 0.54957 0.2237 0.71608 0.0
C1814 C 0.51101 0.20065 0.64016 0.0
C1815 C 0.56519 0.18696 0.71501 0.0
C1816 C 0.53048 0.13089 0.6433 0.0
C1817 C 0.54674 0.13212 0.62695 0.0
C1818 C 0.52786 0.15055 0.66025 0.0
C1819 C 0.54176 0.17216 0.66103 0.0
C1820 C 0.55843 0.17344 0.6449 0.0
C1821 C 0.56071 0.15352 0.62816 0.0
C1822 C 0.50991 0.14826 0.67702 0.0
C1823 C 0.57368 0.19603 0.64497 0.0
H1824 H 0.51484 0.24159 0.67132 0.0
H1825 H 0.56021 0.23025 0.73443 0.0
H1826 H 0.52244 0.20078 0.62562 0.0
H1827 H 0.50162 0.18275 0.63793 0.0
H1828 H 0.49914 0.21232 0.63588 0.0
H1829 H 0.57083 0.19363 0.73588 0.0
H1830 H 0.55657 0.16873 0.71267 0.0
H1831 H 0.58003 0.18701 0.70522 0.0
H1832 H 0.51959 0.11454 0.64273 0.0
H1833 H 0.57338 0.15482 0.61579 0.0
H1834 H 0.49746 0.15896 0.67155 0.0
H1835 H 0.51709 0.15484 0.69753 0.0
H1836 H 0.50127 0.13008 0.67529 0.0
H1837 H 0.56382 0.2088 0.63853 0.0
H1838 H 0.58636 0.19403 0.63213 0.0
H1839 H 0.5823 0.20328 0.66483 0.0
C1840 C 0.64669 0.85773 0.38791 0.0
C1841 C 0.62724 0.84272 0.37461 0.0
C1842 C 0.66814 0.85656 0.38112 0.0
C1843 C 0.67106 0.8394 0.3608 0.0
C1844 C 0.65148 0.82408 0.34729 0.0
C1845 C 0.63003 0.8261 0.35401 0.0
C1846 C 0.68782 0.87387 0.39592 0.0
C1847 C 0.65323 0.80504 0.32599 0.0
C1848 C 0.72551 0.84703 0.32974 0.0
C1849 C 0.73933 0.83469 0.34353 0.0
C1850 C 0.70364 0.84874 0.33508 0.0
C1851 C 0.69449 0.83733 0.35429 0.0
C1852 C 0.70828 0.82451 0.36791 0.0
C1853 C 0.73028 0.82363 0.36269 0.0
C1854 C 0.69039 0.8632 0.32031 0.0
C1855 C 0.69972 0.81146 0.38809 0.0
H1856 H 0.64516 0.87076 0.4038 0.0
H1857 H 0.61549 0.81415 0.34356 0.0
H1858 H 0.69945 0.86482 0.40659 0.0
H1859 H 0.69701 0.88273 0.38237 0.0
H1860 H 0.68288 0.88713 0.40995 0.0
H1861 H 0.6368 0.79434 0.31738 0.0
H1862 H 0.66095 0.81251 0.31056 0.0
H1863 H 0.66416 0.79364 0.33363 0.0
H1864 H 0.73193 0.85576 0.31492 0.0
H1865 H 0.74034 0.81381 0.3735 0.0
H1866 H 0.68582 0.877 0.33395 0.0
H1867 H 0.67471 0.85233 0.30964 0.0
H1868 H 0.69968 0.87137 0.30636 0.0
H1869 H 0.69637 0.82378 0.40429 0.0
H1870 H 0.71165 0.80108 0.39588 0.0
H1871 H 0.68378 0.79971 0.37976 0.0
C1872 C 0.11392 0.3094 0.55915 0.0
C1873 C 0.10718 0.31659 0.53582 0.0
C1874 C 0.10454 0.28771 0.56416 0.0
C1875 C 0.08765 0.27322 0.54562 0.0
C1876 C 0.08178 0.2798 0.52138 0.0
C1877 C 0.09184 0.30137 0.51665 0.0
C1878 C 0.11173 0.28097 0.58992 0.0
C1879 C 0.06368 0.2649 0.50125 0.0
C1880 C 0.06989 0.21136 0.55522 0.0
C1881 C 0.05206 0.21335 0.56882 0.0
C1882 C 0.0815 0.23064 0.54719 0.0
C1883 C 0.07484 0.25229 0.55257 0.0
C1884 C 0.05643 0.25424 0.56568 0.0
C1885 C 0.0454 0.23473 0.57396 0.0
C1886 C 0.10132 0.22801 0.53377 0.0
C1887 C 0.04862 0.277 0.57134 0.0
H1888 H 0.12587 0.32114 0.57393 0.0
H1889 H 0.08644 0.30702 0.49868 0.0
H1890 H 0.09821 0.28149 0.60179 0.0
H1891 H 0.115 0.26301 0.58727 0.0
H1892 H 0.12689 0.29274 0.60077 0.0
H1893 H 0.06283 0.27121 0.48246 0.0
H1894 H 0.06626 0.24672 0.4982 0.0
H1895 H 0.04742 0.26493 0.50806 0.0
H1896 H 0.07521 0.19481 0.55162 0.0
H1897 H 0.03159 0.23615 0.58446 0.0
H1898 H 0.11656 0.23855 0.54587 0.0
H1899 H 0.09945 0.23455 0.51518 0.0
H1900 H 0.10367 0.20974 0.52998 0.0
H1901 H 0.06172 0.28968 0.58473 0.0
H1902 H 0.03319 0.27523 0.58016 0.0
H1903 H 0.04551 0.28423 0.5533 0.0
C1904 C 0.58146 0.2979 0.15267 0.0
C1905 C 0.56277 0.28421 0.15873 0.0
C1906 C 0.60268 0.29873 0.16636 0.0
C1907 C 0.60517 0.28539 0.18632 0.0
C1908 C 0.58644 0.27096 0.19187 0.0
C1909 C 0.56548 0.2706 0.17805 0.0
C1910 C 0.6223 0.31439 0.16003 0.0
C1911 C 0.58844 0.25635 0.21288 0.0
C1912 C 0.66079 0.27117 0.2112 0.0
C1913 C 0.66697 0.28668 0.23457 0.0
C1914 C 0.64103 0.27105 0.19486 0.0
C1915 C 0.62716 0.28686 0.20206 0.0
C1916 C 0.63355 0.30294 0.2253 0.0
C1917 C 0.65339 0.30265 0.24131 0.0
C1918 C 0.63476 0.25367 0.1702 0.0
C1919 C 0.61911 0.32003 0.23361 0.0
H1920 H 0.57939 0.30863 0.13793 0.0
H1921 H 0.5511 0.25985 0.18269 0.0
H1922 H 0.62934 0.32813 0.17688 0.0
H1923 H 0.63557 0.30445 0.15597 0.0
H1924 H 0.61774 0.32275 0.14314 0.0
H1925 H 0.57235 0.24543 0.21412 0.0
H1926 H 0.60068 0.24491 0.20944 0.0
H1927 H 0.59459 0.26768 0.2318 0.0
H1928 H 0.67147 0.25914 0.2056 0.0
H1929 H 0.65805 0.3146 0.25939 0.0
H1930 H 0.63139 0.26262 0.15351 0.0
H1931 H 0.61929 0.24157 0.17103 0.0
H1932 H 0.64796 0.24342 0.16672 0.0
H1933 H 0.61509 0.32995 0.21796 0.0
H1934 H 0.62718 0.33241 0.2513 0.0
H1935 H 0.60318 0.31059 0.23745 0.0
C1936 C 0.6258 0.95642 0.01009 0.0
C1937 C 0.63734 0.94148 0.02231 0.0
C1938 C 0.61851 0.97461 0.02458 0.0
C1939 C 0.62357 0.97837 0.05187 0.0
C1940 C 0.63699 0.96465 0.06412 0.0
C1941 C 0.64343 0.9461 0.04919 0.0
C1942 C 0.60394 0.98862 0.01075 0.0
C1943 C 0.64329 0.96857 0.09307 0.0
C1944 C 0.60867 0.03444 0.082 0.0
C1945 C 0.58703 0.02671 0.08644 0.0
C1946 C 0.62167 0.01871 0.07274 0.0
C1947 C 0.61258 0.99479 0.06734 0.0
C1948 C 0.59144 0.98681 0.07382 0.0
C1949 C 0.57903 1.00291 0.08366 0.0
C1950 C 0.64438 0.02786 0.06683 0.0
C1951 C 0.58096 0.96147 0.06796 0.0
H1952 H 0.62085 0.95276 0.98934 0.0
H1953 H 0.65236 0.93453 0.05865 0.0
H1954 H 0.58751 0.98674 0.01737 0.0
H1955 H 0.61153 1.00725 0.01531 0.0
H1956 H 0.60125 0.98316 0.9895 0.0
H1957 H 0.65685 0.95933 0.09914 0.0
H1958 H 0.64864 0.98731 0.10077 0.0
H1959 H 0.62864 0.96222 0.10191 0.0
H1960 H 0.61488 0.05287 0.08416 0.0
H1961 H 0.56226 0.99685 0.08691 0.0
H1962 H 0.64343 0.02779 0.04578 0.0
H1963 H 0.65639 0.01673 0.07242 0.0
H1964 H 0.65079 0.04587 0.07695 0.0
H1965 H 0.57708 0.95581 0.04674 0.0
H1966 H 0.56537 0.9579 0.07624 0.0
H1967 H 0.59262 0.9508 0.07561 0.0
C1968 C 0.9365 0.80746 0.70321 0.0
C1969 C 0.9536 0.79458 0.70555 0.0
C1970 C 0.92749 0.81588 0.72492 0.0
C1971 C 0.93582 0.8113 0.74945 0.0
C1972 C 0.95207 0.79708 0.75162 0.0
C1973 C 0.96072 0.78886 0.72964 0.0
C1974 C 0.90978 0.83052 0.72181 0.0
C1975 C 0.96144 0.79164 0.77732 0.0
C1976 C 0.93139 0.85266 0.80953 0.0
C1977 C 0.9129 0.84079 0.81791 0.0
C1978 C 0.93906 0.84322 0.78723 0.0
C1979 C 0.92778 0.82159 0.77292 0.0
C1980 C 0.90907 0.80963 0.78131 0.0
C1981 C 0.90189 0.81936 0.80369 0.0
C1982 C 0.95905 0.85649 0.77877 0.0
C1983 C 0.89596 0.78697 0.76636 0.0
H1984 H 0.93091 0.81195 0.68466 0.0
H1985 H 0.97397 0.77897 0.73169 0.0
H1986 H 0.89484 0.82284 0.72935 0.0
H1987 H 0.91587 0.84808 0.73325 0.0
H1988 H 0.90484 0.83221 0.70136 0.0
H1989 H 0.9682 0.77534 0.77494 0.0
H1990 H 0.97522 0.80588 0.78682 0.0
H1991 H 0.94882 0.79013 0.79037 0.0
H1992 H 0.93973 0.86935 0.82033 0.0
H1993 H 0.88709 0.8105 0.80957 0.0
H1994 H 0.95461 0.85984 0.75886 0.0
H1995 H 0.9724 0.84602 0.77844 0.0
H1996 H 0.96567 0.87329 0.79169 0.0
H1997 H 0.9063 0.77666 0.75558 0.0
H1998 H 0.88251 0.79052 0.75232 0.0
H1999 H 0.8881 0.77639 0.77944 0.0
C2000 C 0.17347 0.06848 0.93624 0.0
C2001 C 0.16464 0.06352 0.90964 0.0
C2002 C 0.15965 0.06994 0.95619 0.0
C2003 C 0.13591 0.06576 0.9502 0.0
C2004 C 0.12701 0.06033 0.92339 0.0
C2005 C 0.14115 0.0596 0.90393 0.0
C2006 C 0.17062 0.07636 0.98393 0.0
C2007 C 0.10221 0.05506 0.91506 0.0
C2008 C 0.09821 0.05114 1.0031 0.0
C2009 C 0.0902 0.07181 0.01025 0.0
C2010 C 0.11271 0.04887 0.98397 0.0
C2011 C 0.12045 0.06782 0.97146 0.0
C2012 C 0.11267 0.08877 0.97898 0.0
C2013 C 0.09781 0.09038 0.9976 0.0
C2014 C 0.11969 0.0259 0.977 0.0
C2015 C 0.12028 0.10993 0.96748 0.0
H2016 H 0.19135 0.07163 0.94159 0.0
H2017 H 0.13358 0.05557 0.88385 0.0
H2018 H 0.1651 0.09198 0.99321 0.0
H2019 H 0.16553 0.06217 0.99465 0.0
H2020 H 0.18902 0.07987 0.98583 0.0
H2021 H 0.09756 0.04965 0.89385 0.0
H2022 H 0.09459 0.04108 0.92474 0.0
H2023 H 0.09499 0.07057 0.92098 0.0
H2024 H 0.09301 0.03651 0.01239 0.0
H2025 H 0.09239 0.10669 1.00261 0.0
H2026 H 0.13795 0.02783 0.98212 0.0
H2027 H 0.11548 0.01989 0.95586 0.0
H2028 H 0.11162 1.01243 0.98706 0.0
H2029 H 0.1387 0.11391 0.97023 0.0
H2030 H 0.11414 0.12537 0.97622 0.0
H2031 H 0.11434 0.10657 0.94642 0.0
C2032 C 0.73921 0.37306 0.65036 0.0
C2033 C 0.74978 0.3925 0.64149 0.0
C2034 C 0.74696 0.36746 0.6745 0.0
C2035 C 0.76637 0.3811 0.69 0.0
C2036 C 0.77667 0.40125 0.68152 0.0
C2037 C 0.76815 0.4068 0.65754 0.0
C2038 C 0.73493 0.34625 0.68285 0.0
C2039 C 0.79755 0.41615 0.69699 0.0
C2040 C 0.77926 0.37369 0.76086 0.0
C2041 C 0.79344 0.35734 0.75976 0.0
C2042 C 0.77052 0.38167 0.73853 0.0
C2043 C 0.77638 0.37359 0.71429 0.0
C2044 C 0.7912 0.35758 0.71317 0.0
C2045 C 0.79929 0.34947 0.73575 0.0
C2046 C 0.75443 0.39822 0.74078 0.0
C2047 C 0.79832 0.34876 0.68797 0.0
H2048 H 0.72531 0.36164 0.63785 0.0
H2049 H 0.77687 0.4214 0.6505 0.0
H2050 H 0.74546 0.33276 0.68252 0.0
H2051 H 0.7317 0.35047 0.70294 0.0
H2052 H 0.71888 0.33893 0.67012 0.0
H2053 H 0.80267 0.43207 0.68887 0.0
H2054 H 0.7952 0.4212 0.71728 0.0
H2055 H 0.81125 0.40611 0.69727 0.0
H2056 H 0.77434 0.37977 0.77916 0.0
H2057 H 0.81019 0.33687 0.73457 0.0
H2058 H 0.73811 0.39002 0.72914 0.0
H2059 H 0.76043 0.41402 0.73295 0.0
H2060 H 0.75197 0.40339 0.76105 0.0
H2061 H 0.78373 0.33857 0.67441 0.0
H2062 H 0.81103 0.33765 0.6905 0.0
H2063 H 0.80517 0.36352 0.67891 0.0
C2064 C 0.50652 0.13771 0.40215 0.0
C2065 C 0.48542 0.14398 0.40038 0.0
C2066 C 0.51583 0.12959 0.42408 0.0
C2067 C 0.50406 0.12804 0.44521 0.0
C2068 C 0.4832 0.13535 0.44404 0.0
C2069 C 0.47409 0.14303 0.42165 0.0
C2070 C 0.53785 0.12164 0.42408 0.0
C2071 C 0.47012 0.13434 0.46614 0.0
C2072 C 0.51158 0.08271 0.4884 0.0
C2073 C 0.52517 0.09568 0.51066 0.0
C2074 C 0.50545 0.09282 0.46674 0.0
C2075 C 0.51251 0.11684 0.46742 0.0
C2076 C 0.52682 0.12997 0.48961 0.0
C2077 C 0.53314 0.1192 0.51092 0.0
C2078 C 0.49065 0.07786 0.44348 0.0
C2079 C 0.53451 0.15564 0.4914 0.0
H2080 H 0.51555 0.13842 0.38598 0.0
H2081 H 0.45785 0.14786 0.42064 0.0
H2082 H 0.54945 0.13003 0.44188 0.0
H2083 H 0.53539 0.10269 0.42391 0.0
H2084 H 0.54572 0.12549 0.40709 0.0
H2085 H 0.45538 0.14279 0.46348 0.0
H2086 H 0.46439 0.11603 0.46791 0.0
H2087 H 0.48079 0.14287 0.48456 0.0
H2088 H 0.50515 0.06457 0.48822 0.0
H2089 H 0.54317 0.12944 0.52829 0.0
H2090 H 0.49786 0.08017 0.42569 0.0
H2091 H 0.47418 0.08316 0.44118 0.0
H2092 H 0.48816 0.0592 0.44509 0.0
H2093 H 0.54201 0.15934 0.47417 0.0
H2094 H 0.54683 0.16311 0.50896 0.0
H2095 H 0.52002 0.16451 0.49182 0.0
C2096 C 0.77659 0.68093 0.08983 0.0
C2097 C 0.78886 0.67483 0.0704 0.0
C2098 C 0.78716 0.68968 0.115 0.0
C2099 C 0.81062 0.69269 0.12054 0.0
C2100 C 0.82263 0.68334 0.10184 0.0
C2101 C 0.81151 0.67445 0.07671 0.0
C2102 C 0.77348 0.69864 0.13458 0.0
C2103 C 0.84745 0.68506 0.10732 0.0
C2104 C 0.82591 0.75137 0.16022 0.0
C2105 C 0.82451 0.7458 0.18483 0.0
C2106 C 0.82476 0.73402 0.13904 0.0
C2107 C 0.82203 0.7106 0.14267 0.0
C2108 C 0.82423 0.70532 0.16792 0.0
C2109 C 0.82529 0.72306 0.18884 0.0
C2110 C 0.82327 0.74058 0.11244 0.0
C2111 C 0.82291 0.68076 0.17272 0.0
H2112 H 0.75897 0.68078 0.08481 0.0
H2113 H 0.82093 0.66947 0.06158 0.0
H2114 H 0.77802 0.693 0.15329 0.0
H2115 H 0.77681 0.71785 0.13789 0.0
H2116 H 0.75539 0.69257 0.12807 0.0
H2117 H 0.85264 0.6701 0.09609 0.0
H2118 H 0.85569 0.70101 0.1013 0.0
H2119 H 0.85338 0.68581 0.12814 0.0
H2120 H 0.82556 0.76892 0.15694 0.0
H2121 H 0.82508 0.71881 0.20804 0.0
H2122 H 0.80585 0.73557 0.10248 0.0
H2123 H 0.83372 0.7313 0.10068 0.0
H2124 H 0.82862 0.75947 0.11319 0.0
H2125 H 0.80535 0.67305 0.1729 0.0
H2126 H 0.83252 0.68022 0.19177 0.0
H2127 H 0.82921 0.66996 0.15744 0.0
C2128 C 0.13643 0.04404 0.76358 0.0
C2129 C 0.15899 0.05407 0.77159 0.0
C2130 C 0.12504 0.04496 0.73887 0.0
C2131 C 0.13612 0.05655 0.7212 0.0
C2132 C 0.15922 0.06577 0.72865 0.0
C2133 C 0.17028 0.06452 0.75361 0.0
C2134 C 0.10063 0.03466 0.73232 0.0
C2135 C 0.17202 0.07821 0.71079 0.0
C2136 C 0.10722 0.047 0.65 0.0
C2137 C 0.09676 0.06639 0.64902 0.0
C2138 C 0.1202 0.04375 0.67292 0.0
C2139 C 0.12316 0.06023 0.69592 0.0
C2140 C 0.11275 0.07989 0.695 0.0
C2141 C 0.09981 0.08269 0.67184 0.0
C2142 C 0.13062 0.02242 0.67254 0.0
C2143 C 0.11508 0.09801 0.7187 0.0
H2144 H 0.12725 0.03649 0.77737 0.0
H2145 H 0.18741 0.0731 0.75963 0.0
H2146 H 0.09086 0.04871 0.73108 0.0
H2147 H 0.09708 0.02327 0.71322 0.0
H2148 H 0.0948 0.02445 0.74695 0.0
H2149 H 0.19014 0.08225 0.71795 0.0
H2150 H 0.1691 0.0676 0.69125 0.0
H2151 H 0.16608 0.09465 0.70885 0.0
H2152 H 0.10517 0.03412 0.63278 0.0
H2153 H 0.09201 0.09777 0.6717 0.0
H2154 H 0.12415 1.01196 0.68661 0.0
H2155 H 0.14885 0.02747 0.6785 0.0
H2156 H 0.12724 1.0114 0.65318 0.0
H2157 H 0.10792 0.09009 0.73423 0.0
H2158 H 0.10662 0.11262 0.71489 0.0
H2159 H 0.13289 0.10495 0.72601 0.0
C2160 C 0.73456 0.36706 0.49662 0.0
C2161 C 0.73917 0.39127 0.50356 0.0
C2162 C 0.74176 0.35576 0.4747 0.0
C2163 C 0.75461 0.36879 0.45956 0.0
C2164 C 0.75926 0.3933 0.46648 0.0
C2165 C 0.75128 0.40419 0.48807 0.0
C2166 C 0.73582 0.32974 0.46794 0.0
C2167 C 0.77337 0.40803 0.45158 0.0
C2168 C 0.79357 0.33847 0.421 0.0
C2169 C 0.78272 0.33526 0.39538 0.0
C2170 C 0.78468 0.34931 0.44182 0.0
C2171 C 0.76402 0.35678 0.43734 0.0
C2172 C 0.75262 0.35293 0.4116 0.0
C2173 C 0.76219 0.34254 0.39102 0.0
C2174 C 0.79782 0.35342 0.46863 0.0
C2175 C 0.73041 0.3601 0.40573 0.0
H2176 H 0.72528 0.35686 0.50841 0.0
H2177 H 0.75527 0.42286 0.49339 0.0
H2178 H 0.72796 0.32458 0.44745 0.0
H2179 H 0.75109 0.32215 0.47023 0.0
H2180 H 0.72431 0.32221 0.48028 0.0
H2181 H 0.77524 0.42681 0.45903 0.0
H2182 H 0.79012 0.40335 0.45273 0.0
H2183 H 0.76598 0.40472 0.43091 0.0
H2184 H 0.80954 0.33324 0.42477 0.0
H2185 H 0.75368 0.34036 0.37139 0.0
H2186 H 0.78789 0.34486 0.48176 0.0
H2187 H 0.8016 0.37223 0.47641 0.0
H2188 H 0.81369 0.34684 0.469 0.0
H2189 H 0.7188 0.35272 0.41802 0.0
H2190 H 0.72287 0.35441 0.38517 0.0
H2191 H 0.73237 0.3792 0.41027 0.0
C2192 C 0.48337 0.10356 0.25142 0.0
C2193 C 0.48387 0.12663 0.26233 0.0
C2194 C 0.49026 0.09777 0.22742 0.0
C2195 C 0.49813 0.1155 0.21381 0.0
C2196 C 0.49759 0.13884 0.2241 0.0
C2197 C 0.49055 0.14416 0.24831 0.0
C2198 C 0.49033 0.07267 0.21737 0.0
C2199 C 0.50558 0.15831 0.21021 0.0
C2200 C 0.54034 0.10096 0.16977 0.0
C2201 C 0.527 0.09401 0.14553 0.0
C2202 C 0.53125 0.10843 0.19195 0.0
C2203 C 0.50829 0.10949 0.18992 0.0
C2204 C 0.4949 0.10314 0.16531 0.0
C2205 C 0.50432 0.0953 0.14356 0.0
C2206 C 0.54619 0.11477 0.21771 0.0
C2207 C 0.47051 0.10444 0.16198 0.0
H2208 H 0.47857 0.08999 0.26239 0.0
H2209 H 0.49147 0.16205 0.2569 0.0
H2210 H 0.4816 0.06782 0.19722 0.0
H2211 H 0.50769 0.06999 0.21724 0.0
H2212 H 0.48229 0.06085 0.22929 0.0
H2213 H 0.50149 0.17499 0.21883 0.0
H2214 H 0.52385 0.16043 0.21112 0.0
H2215 H 0.49813 0.15424 0.18953 0.0
H2216 H 0.55787 0.1002 0.17151 0.0
H2217 H 0.4939 0.09044 0.12486 0.0
H2218 H 0.54046 0.10289 0.23085 0.0
H2219 H 0.54533 0.13256 0.22681 0.0
H2220 H 0.56378 0.11382 0.21601 0.0
H2221 H 0.46169 0.09205 0.1727 0.0
H2222 H 0.46268 0.1004 0.1414 0.0
H2223 H 0.46819 0.12199 0.17017 0.0
C2224 C 0.76304 0.71775 0.95437 0.0
C2225 C 0.7655 0.69567 0.94289 0.0
C2226 C 0.76252 0.73578 0.94011 0.0
C2227 C 0.76452 0.73166 0.91369 0.0
C2228 C 0.76567 0.70907 0.90157 0.0
C2229 C 0.76613 0.69126 0.91637 0.0
C2230 C 0.76118 0.75957 0.95371 0.0
C2231 C 0.76762 0.70405 0.87331 0.0
C2232 C 0.75296 0.77585 0.87097 0.0
C2233 C 0.77459 0.78658 0.86942 0.0
C2234 C 0.7493 0.75823 0.8858 0.0
C2235 C 0.76773 0.75141 0.89945 0.0
C2236 C 0.7895 0.76323 0.89921 0.0
C2237 C 0.79267 0.78071 0.88419 0.0
C2238 C 0.72584 0.74619 0.8858 0.0
C2239 C 0.80956 0.75674 0.91393 0.0
H2240 H 0.76234 0.72126 0.97485 0.0
H2241 H 0.76797 0.67422 0.90744 0.0
H2242 H 0.77735 0.77129 0.95509 0.0
H2243 H 0.74844 0.76704 0.9426 0.0
H2244 H 0.75714 0.75928 0.9735 0.0
H2245 H 0.76611 0.68524 0.86626 0.0
H2246 H 0.75463 0.71073 0.86161 0.0
H2247 H 0.78396 0.71305 0.87009 0.0
H2248 H 0.73891 0.78038 0.85959 0.0
H2249 H 0.80939 0.78906 0.88308 0.0
H2250 H 0.7227 0.74539 0.90582 0.0
H2251 H 0.72347 0.72812 0.87556 0.0
H2252 H 0.71331 0.75498 0.87617 0.0
H2253 H 0.80775 0.75738 0.93456 0.0
H2254 H 0.82525 0.76835 0.91265 0.0
H2255 H 0.8109 0.73872 0.90618 0.0
C2256 C 0.91947 0.16608 0.08327 0.0
C2257 C 0.92231 0.18711 0.07369 0.0
C2258 C 0.93487 0.15079 0.08106 0.0
C2259 C 0.95348 0.15611 0.06829 0.0
C2260 C 0.9562 0.17717 0.05824 0.0
C2261 C 0.94087 0.1924 0.0613 0.0
C2262 C 0.93142 0.12908 0.09288 0.0
C2263 C 0.97543 0.18368 0.04418 0.0
C2264 C 1.00666 0.13194 0.0852 0.0
C2265 C 1.00531 0.11317 0.06512 0.0
C2266 C 0.98983 0.14536 0.0867 0.0
C2267 C 0.97098 0.14071 0.06722 0.0
C2268 C 0.96934 0.12175 0.04681 0.0
C2269 C 0.98628 0.10803 0.0462 0.0
C2270 C 0.99236 0.16468 0.10933 0.0
C2271 C 0.94985 0.11624 0.02531 0.0
H2272 H 0.90525 0.16162 0.0928 0.0
H2273 H 0.94322 0.20834 0.05345 0.0
H2274 H 0.93048 0.11367 0.07798 0.0
H2275 H 0.9458 0.12938 0.10789 0.0
H2276 H 0.91605 0.12711 0.1018 0.0
H2277 H 0.97445 0.19968 0.03583 0.0
H2278 H 0.99129 0.18644 0.05762 0.0
H2279 H 0.97589 0.16937 0.02842 0.0
H2280 H 1.02101 0.13612 0.10024 0.0
H2281 H 0.9849 0.0937 0.03058 0.0
H2282 H 0.97753 0.16252 0.11918 0.0
H2283 H 0.99356 0.18156 0.10246 0.0
H2284 H 1.00732 0.1653 0.12366 0.0
H2285 H 0.93414 0.11265 0.0333 0.0
H2286 H 0.95082 0.10109 0.01084 0.0
H2287 H 0.9491 0.13144 0.01544 0.0
C2288 C 0.42205 0.50637 0.15245 0.0
C2289 C 0.40343 0.51642 0.14653 0.0
C2290 C 0.44288 0.51603 0.1472 0.0
C2291 C 0.44495 0.53602 0.13535 0.0
C2292 C 0.42671 0.54766 0.13205 0.0
C2293 C 0.40604 0.53768 0.13775 0.0
C2294 C 0.4619 0.5032 0.15143 0.0
C2295 C 0.42827 0.56913 0.11974 0.0
C2296 C 0.50273 0.55934 0.12188 0.0
C2297 C 0.50208 0.54742 0.09689 0.0
C2298 C 0.484 0.55658 0.1345 0.0
C2299 C 0.46429 0.54153 0.12176 0.0
C2300 C 0.46343 0.53007 0.09619 0.0
C2301 C 0.48232 0.53317 0.08411 0.0
C2302 C 0.48552 0.56917 0.16165 0.0
C2303 C 0.44274 0.5139 0.08179 0.0
H2304 H 0.41991 0.48982 0.15911 0.0
H2305 H 0.39153 0.54526 0.13284 0.0
H2306 H 0.46413 0.4936 0.13266 0.0
H2307 H 0.47763 0.51541 0.15938 0.0
H2308 H 0.45884 0.49058 0.16473 0.0
H2309 H 0.4147 0.57874 0.12363 0.0
H2310 H 0.44447 0.58083 0.12676 0.0
H2311 H 0.42697 0.56412 0.09854 0.0
H2312 H 0.51798 0.57052 0.13174 0.0
H2313 H 0.4817 0.5241 0.0647 0.0
H2314 H 0.48527 0.55658 0.17522 0.0
H2315 H 0.47099 0.57779 0.16346 0.0
H2316 H 0.50094 0.58236 0.16762 0.0
H2317 H 0.43897 0.49892 0.09187 0.0
H2318 H 0.44447 0.50725 0.06161 0.0
H2319 H 0.42831 0.5229 0.0814 0.0
C2320 C 0.36653 0.64995 0.81614 0.0
C2321 C 0.38922 0.65016 0.81389 0.0
C2322 C 0.3569 0.67062 0.81911 0.0
C2323 C 0.36956 0.69305 0.81901 0.0
C2324 C 0.39236 0.69329 0.81613 0.0
C2325 C 0.40179 0.67245 0.81421 0.0
C2326 C 0.33294 0.66839 0.8229 0.0
C2327 C 0.40705 0.71581 0.8148 0.0
C2328 C 0.337 0.74342 0.80344 0.0
C2329 C 0.33906 0.75843 0.82732 0.0
C2330 C 0.34707 0.72306 0.80041 0.0
C2331 C 0.35909 0.71584 0.82188 0.0
C2332 C 0.36088 0.73076 0.84615 0.0
C2333 C 0.35157 0.75167 0.84839 0.0
C2334 C 0.34509 0.7094 0.77372 0.0
C2335 C 0.37254 0.72449 0.8702 0.0
H2336 H 0.35619 0.63342 0.81628 0.0
H2337 H 0.41922 0.67366 0.81255 0.0
H2338 H 0.33147 0.68033 0.84048 0.0
H2339 H 0.32309 0.67344 0.80631 0.0
H2340 H 0.32558 0.65048 0.82476 0.0
H2341 H 0.42328 0.71318 0.80912 0.0
H2342 H 0.39868 0.72506 0.80075 0.0
H2343 H 0.41019 0.72712 0.8339 0.0
H2344 H 0.3279 0.748 0.78662 0.0
H2345 H 0.35368 0.76256 0.86708 0.0
H2346 H 0.33408 0.69244 0.77231 0.0
H2347 H 0.36159 0.70595 0.76982 0.0
H2348 H 0.33818 0.71855 0.75856 0.0
H2349 H 0.36618 0.70621 0.87161 0.0
H2350 H 0.37035 0.73577 0.88795 0.0
H2351 H 0.39055 0.72615 0.86931 0.0
C2352 C 0.30711 0.68504 0.5745 0.0
C2353 C 0.30687 0.70544 0.564 0.0
C2354 C 0.28733 0.67108 0.57747 0.0
C2355 C 0.26678 0.67751 0.56951 0.0
C2356 C 0.26633 0.69744 0.55775 0.0
C2357 C 0.2864 0.71126 0.55528 0.0
C2358 C 0.28852 0.65008 0.59031 0.0
C2359 C 0.24469 0.70466 0.54868 0.0
C2360 C 0.2134 0.63382 0.56403 0.0
C2361 C 0.20581 0.64109 0.58718 0.0
C2362 C 0.23326 0.64542 0.55798 0.0
C2363 C 0.24592 0.66459 0.5756 0.0
C2364 C 0.23863 0.67168 0.59921 0.0
C2365 C 0.21864 0.65996 0.60462 0.0
C2366 C 0.24052 0.63742 0.53259 0.0
C2367 C 0.25175 0.69194 0.61862 0.0
H2368 H 0.32281 0.68034 0.58132 0.0
H2369 H 0.28603 0.72685 0.54692 0.0
H2370 H 0.28277 0.65293 0.6093 0.0
H2371 H 0.27737 0.63463 0.57852 0.0
H2372 H 0.30563 0.64634 0.59339 0.0
H2373 H 0.24707 0.71925 0.53773 0.0
H2374 H 0.2331 0.68986 0.53626 0.0
H2375 H 0.23668 0.71006 0.56556 0.0
H2376 H 0.20374 0.61913 0.55055 0.0
H2377 H 0.21274 0.6661 0.62228 0.0
H2378 H 0.25734 0.63305 0.53599 0.0
H2379 H 0.24156 0.6516 0.521 0.0
H2380 H 0.22895 0.62205 0.52114 0.0
H2381 H 0.26896 0.68914 0.62396 0.0
H2382 H 0.2442 0.69471 0.63648 0.0
H2383 H 0.25282 0.70796 0.60998 0.0
C2384 C 0.70451 0.95891 0.81339 0.0
C2385 C 0.68327 0.95599 0.82068 0.0
C2386 C 0.71752 0.94143 0.8138 0.0
C2387 C 0.70936 0.92037 0.82198 0.0
C2388 C 0.68773 0.91715 0.82892 0.0
C2389 C 0.67503 0.93493 0.8282 0.0
C2390 C 0.74014 0.94558 0.80559 0.0
C2391 C 0.67814 0.89539 0.83817 0.0
C2392 C 0.7363 0.8681 0.80178 0.0
C2393 C 0.75237 0.8687 0.82336 0.0
C2394 C 0.72203 0.88442 0.80129 0.0
C2395 C 0.72351 0.90188 0.82299 0.0
C2396 C 0.73922 0.90218 0.84515 0.0
C2397 C 0.75351 0.88576 0.84502 0.0
C2398 C 0.70555 0.88317 0.77729 0.0
C2399 C 0.74083 0.91981 0.86911 0.0
H2400 H 0.71112 0.97505 0.80751 0.0
H2401 H 0.65879 0.93249 0.83416 0.0
H2402 H 0.75312 0.94507 0.82192 0.0
H2403 H 0.74122 0.93164 0.7897 0.0
H2404 H 0.74387 0.96251 0.79898 0.0
H2405 H 0.65972 0.89267 0.83567 0.0
H2406 H 0.68314 0.87986 0.82797 0.0
H2407 H 0.68437 0.89709 0.85904 0.0
H2408 H 0.73506 0.85504 0.78489 0.0
H2409 H 0.76563 0.88636 0.86192 0.0
H2410 H 0.70891 0.89945 0.7693 0.0
H2411 H 0.68848 0.88141 0.78215 0.0
H2412 H 0.70619 0.8684 0.76214 0.0
H2413 H 0.74534 0.93751 0.8647 0.0
H2414 H 0.75333 0.91739 0.88505 0.0
H2415 H 0.72443 0.91856 0.87578 0.0
C2416 C 0.78586 0.04872 0.67167 0.0
C2417 C 0.78289 0.02491 0.66251 0.0
C2418 C 0.76838 0.06098 0.6672 0.0
C2419 C 0.74762 0.0491 0.65317 0.0
C2420 C 0.74398 0.02471 0.64636 0.0
C2421 C 0.76161 1.01293 0.65123 0.0
C2422 C 0.77276 0.08688 0.67548 0.0
C2423 C 0.72211 1.01125 0.63158 0.0
C2424 C 0.69595 0.07608 0.64196 0.0
C2425 C 0.69672 0.08138 0.61703 0.0
C2426 C 0.71295 0.06667 0.65466 0.0
C2427 C 0.73101 0.06213 0.642 0.0
C2428 C 0.73228 0.06823 0.61726 0.0
C2429 C 0.71524 0.07789 0.6052 0.0
C2430 C 0.71105 0.06071 0.68113 0.0
C2431 C 0.75121 0.06366 0.60299 0.0
H2432 H 0.80223 0.05812 0.68045 0.0
H2433 H 0.75912 0.99447 0.64435 0.0
H2434 H 0.77524 0.09541 0.6585 0.0
H2435 H 0.75837 0.09262 0.68333 0.0
H2436 H 0.78782 0.09283 0.69027 0.0
H2437 H 0.72102 0.99228 0.63064 0.0
H2438 H 0.70803 0.01652 0.64052 0.0
H2439 H 0.72018 0.01502 0.61158 0.0
H2440 H 0.68164 0.07846 0.65124 0.0
H2441 H 0.71627 0.08237 0.58622 0.0
H2442 H 0.72719 0.06637 0.69411 0.0
H2443 H 0.7065 0.04167 0.67966 0.0
H2444 H 0.69821 0.06877 0.69003 0.0
H2445 H 0.76733 0.07185 0.61505 0.0
H2446 H 0.75025 0.0703 0.5844 0.0
H2447 H 0.75103 0.04476 0.59896 0.0
C2448 C 0.37278 0.51019 0.82946 0.0
C2449 C 0.38872 0.513 0.81266 0.0
C2450 C 0.36116 0.48776 0.83218 0.0
C2451 C 0.36496 0.46683 0.81769 0.0
C2452 C 0.38044 0.46976 0.80009 0.0
C2453 C 0.39208 0.49222 0.79816 0.0
C2454 C 0.34548 0.48644 0.85167 0.0
C2455 C 0.38539 0.44888 0.78363 0.0
C2456 C 0.35687 0.40716 0.8427 0.0
C2457 C 0.33631 0.39446 0.82899 0.0
C2458 C 0.36571 0.43031 0.83979 0.0
C2459 C 0.35436 0.44209 0.82213 0.0
C2460 C 0.33348 0.42948 0.80819 0.0
C2461 C 0.32475 0.4063 0.81187 0.0
C2462 C 0.38763 0.44217 0.85574 0.0
C2463 C 0.32046 0.44035 0.78877 0.0
H2464 H 0.37021 0.5255 0.84164 0.0
H2465 H 0.40451 0.49347 0.78548 0.0
H2466 H 0.32925 0.47558 0.84267 0.0
H2467 H 0.35237 0.47807 0.86755 0.0
H2468 H 0.3427 0.5038 0.86003 0.0
H2469 H 0.39578 0.45372 0.76893 0.0
H2470 H 0.3943 0.43867 0.79604 0.0
H2471 H 0.36971 0.43749 0.77366 0.0
H2472 H 0.36637 0.39887 0.85607 0.0
H2473 H 0.30902 0.39726 0.80078 0.0
H2474 H 0.38595 0.45917 0.86634 0.0
H2475 H 0.40022 0.44553 0.84293 0.0
H2476 H 0.39387 0.43169 0.86989 0.0
H2477 H 0.31709 0.45709 0.79815 0.0
H2478 H 0.30443 0.42902 0.7798 0.0
H2479 H 0.33041 0.44408 0.77335 0.0
C2480 C 0.19408 0.58058 0.33595 0.0
C2481 C 0.17163 0.58127 0.33736 0.0
C2482 C 0.20849 0.59978 0.33118 0.0
C2483 C 0.20029 0.62021 0.32757 0.0
C2484 C 0.17786 0.62133 0.32981 0.0
C2485 C 0.16383 0.6019 0.33476 0.0
C2486 C 0.23236 0.59798 0.32926 0.0
C2487 C 0.16847 0.6428 0.32605 0.0
C2488 C 0.24105 0.67657 0.33255 0.0
C2489 C 0.24237 0.6778 0.3065 0.0
C2490 C 0.22759 0.65787 0.33971 0.0
C2491 C 0.21492 0.64003 0.32038 0.0
C2492 C 0.2162 0.6411 0.29408 0.0
C2493 C 0.22996 0.65989 0.28747 0.0
C2494 C 0.2268 0.65728 0.36797 0.0
C2495 C 0.20294 0.62243 0.27287 0.0
H2496 H 0.20037 0.56481 0.33807 0.0
H2497 H 0.14654 0.60266 0.33575 0.0
H2498 H 0.23557 0.59923 0.30935 0.0
H2499 H 0.24371 0.61253 0.34237 0.0
H2500 H 0.23651 0.58144 0.33417 0.0
H2501 H 0.15103 0.64134 0.32971 0.0
H2502 H 0.17868 0.65813 0.33911 0.0
H2503 H 0.16902 0.64596 0.30599 0.0
H2504 H 0.25024 0.69046 0.34741 0.0
H2505 H 0.23109 0.66047 0.26734 0.0
H2506 H 0.23145 0.64102 0.37307 0.0
H2507 H 0.20964 0.65748 0.37201 0.0
H2508 H 0.23811 0.67217 0.38065 0.0
H2509 H 0.20758 0.60548 0.27525 0.0
H2510 H 0.20561 0.62593 0.25336 0.0
H2511 H 0.18498 0.62088 0.2741 0.0
C2512 C 0.59489 0.79113 0.4574 0.0
C2513 C 0.57437 0.789 0.44168 0.0
C2514 C 0.59952 0.77376 0.47175 0.0
C2515 C 0.58317 0.75374 0.47049 0.0
C2516 C 0.56294 0.75089 0.45331 0.0
C2517 C 0.5587 0.76865 0.43933 0.0
C2518 C 0.62128 0.77769 0.48974 0.0
C2519 C 0.54509 0.72984 0.45109 0.0
C2520 C 0.59909 0.70258 0.50079 0.0
C2521 C 0.59202 0.70632 0.525 0.0
C2522 C 0.59635 0.71775 0.48286 0.0
C2523 C 0.58624 0.73721 0.48912 0.0
C2524 C 0.57912 0.7411 0.51351 0.0
C2525 C 0.58213 0.72574 0.53106 0.0
C2526 C 0.60416 0.71288 0.45714 0.0
C2527 C 0.56832 0.7616 0.52116 0.0
H2528 H 0.60678 0.80713 0.45982 0.0
H2529 H 0.54258 0.76724 0.42777 0.0
H2530 H 0.61823 0.78108 0.50999 0.0
H2531 H 0.62901 0.76204 0.48754 0.0
H2532 H 0.6332 0.79262 0.48628 0.0
H2533 H 0.53171 0.72869 0.43456 0.0
H2534 H 0.55225 0.71382 0.44877 0.0
H2535 H 0.53758 0.73058 0.46905 0.0
H2536 H 0.60645 0.68753 0.4956 0.0
H2537 H 0.57691 0.72914 0.54977 0.0
H2538 H 0.6165 0.72782 0.45458 0.0
H2539 H 0.58998 0.71057 0.44131 0.0
H2540 H 0.61182 0.69714 0.45519 0.0
H2541 H 0.57984 0.7779 0.52082 0.0
H2542 H 0.56356 0.76216 0.54072 0.0
H2543 H 0.55322 0.76102 0.5071 0.0
C2544 C 0.62536 0.31366 0.79693 0.0
C2545 C 0.62038 0.31457 0.77038 0.0
C2546 C 0.6477 0.31435 0.8092 0.0
C2547 C 0.66588 0.31565 0.79484 0.0
C2548 C 0.66083 0.31654 0.76821 0.0
C2549 C 0.63874 0.31617 0.75668 0.0
C2550 C 0.65188 0.31368 0.83767 0.0
C2551 C 0.67889 0.31756 0.75145 0.0
C2552 C 0.72894 0.33614 0.82193 0.0
C2553 C 0.73707 0.31527 0.82209 0.0
C2554 C 0.70589 0.33654 0.8149 0.0
C2555 C 0.69006 0.31559 0.80679 0.0
C2556 C 0.69823 0.2945 0.80719 0.0
C2557 C 0.72121 0.29461 0.81509 0.0
C2558 C 0.69854 0.3596 0.81558 0.0
C2559 C 0.68278 0.27158 0.79808 0.0
H2560 H 0.61188 0.31242 0.80817 0.0
H2561 H 0.63598 0.31687 0.73625 0.0
H2562 H 0.65782 0.29751 0.84088 0.0
H2563 H 0.66513 0.32835 0.84749 0.0
H2564 H 0.63671 0.31452 0.84674 0.0
H2565 H 0.67242 0.31766 0.73093 0.0
H2566 H 0.69165 0.33335 0.7586 0.0
H2567 H 0.68729 0.30245 0.75241 0.0
H2568 H 0.74069 0.3523 0.82724 0.0
H2569 H 0.72691 0.27825 0.81479 0.0
H2570 H 0.68361 0.35969 0.82521 0.0
H2571 H 0.69393 0.36267 0.79561 0.0
H2572 H 0.71179 0.37411 0.82584 0.0
H2573 H 0.66833 0.27055 0.80858 0.0
H2574 H 0.69113 0.25668 0.80079 0.0
H2575 H 0.67626 0.27005 0.77728 0.0
C2576 C 0.0789 0.41395 0.96487 0.0
C2577 C 0.07106 0.40996 0.93826 0.0
C2578 C 0.07799 0.43475 0.98071 0.0
C2579 C 0.06845 0.45207 0.96997 0.0
C2580 C 0.06073 0.44834 0.94299 0.0
C2581 C 0.06239 0.42742 0.92736 0.0
C2582 C 0.08693 0.43798 0.00914 0.0
C2583 C 0.05006 0.46611 0.9308 0.0
C2584 C 0.04602 0.49201 0.01934 0.0
C2585 C 0.06281 0.51176 0.02501 0.0
C2586 C 0.04715 0.47303 1.00059 0.0
C2587 C 0.06579 0.47341 0.98746 0.0
C2588 C 0.08273 0.4934 0.99296 0.0
C2589 C 0.08091 0.5124 0.0114 0.0
C2590 C 0.0285 0.45234 0.99515 0.0
C2591 C 0.10314 0.49444 0.97998 0.0
H2592 H 0.08583 0.40064 0.97346 0.0
H2593 H 0.05617 0.42441 0.90688 0.0
H2594 H 0.09896 0.45449 0.01509 0.0
H2595 H 0.07316 0.43897 0.02056 0.0
H2596 H 0.09529 0.42362 0.01414 0.0
H2597 H 0.04582 0.46119 0.9095 0.0
H2598 H 0.03464 0.46818 0.93887 0.0
H2599 H 0.06129 0.48319 0.93542 0.0
H2600 H 0.0318 0.49143 0.02944 0.0
H2601 H 0.09395 0.52758 0.0156 0.0
H2602 H 0.03462 0.43723 1.00166 0.0
H2603 H 1.02256 0.44763 0.9741 0.0
H2604 H 1.01423 0.45556 1.00509 0.0
H2605 H 0.11262 0.48109 0.98562 0.0
H2606 H 0.11423 0.51163 0.98523 0.0
H2607 H 0.09834 0.49054 0.95872 0.0
C2608 C 0.96654 0.79186 0.26263 0.0
C2609 C 0.98626 0.80377 0.27865 0.0
C2610 C 0.94513 0.79209 0.26994 0.0
C2611 C 0.94259 0.80551 0.29354 0.0
C2612 C 0.96249 0.81768 0.30979 0.0
C2613 C 0.98383 0.81632 0.30247 0.0
C2614 C 0.92506 0.77798 0.25207 0.0
C2615 C 0.96121 0.83302 0.33459 0.0
C2616 C 0.88515 0.82459 0.29619 0.0
C2617 C 0.87485 0.8106 0.31226 0.0
C2618 C 0.90703 0.82358 0.29071 0.0
C2619 C 0.91929 0.80747 0.30051 0.0
C2620 C 0.90881 0.79299 0.31644 0.0
C2621 C 0.8872 0.79504 0.32249 0.0
C2622 C 0.91714 0.8401 0.27448 0.0
C2623 C 0.92027 0.77485 0.32671 0.0
H2624 H 0.96786 0.78215 0.24413 0.0
H2625 H 0.99863 0.82604 0.31497 0.0
H2626 H 0.91443 0.76735 0.26296 0.0
H2627 H 0.91496 0.78966 0.24356 0.0
H2628 H 0.92971 0.76635 0.23611 0.0
H2629 H 0.97789 0.84144 0.3452 0.0
H2630 H 0.9516 0.84667 0.33034 0.0
H2631 H 0.9523 0.82283 0.34731 0.0
H2632 H 0.8762 0.83687 0.2882 0.0
H2633 H 0.87972 0.78397 0.3348 0.0
H2634 H 0.91962 0.83034 0.25594 0.0
H2635 H 0.9337 0.84946 0.28451 0.0
H2636 H 0.90657 0.85299 0.27022 0.0
H2637 H 0.92454 0.76323 0.31048 0.0
H2638 H 0.90983 0.76423 0.33783 0.0
H2639 H 0.93605 0.78317 0.3394 0.0
C2640 C 0.54061 0.34558 0.15443 0.0
C2641 C 0.51783 0.34125 0.14503 0.0
C2642 C 0.55501 0.36315 0.14673 0.0
C2643 C 0.54609 0.37741 0.13047 0.0
C2644 C 0.52292 0.3734 0.12154 0.0
C2645 C 0.50912 0.35489 0.12841 0.0
C2646 C 0.57971 0.36595 0.15533 0.0
C2647 C 0.51266 0.38875 0.10488 0.0
C2648 C 0.57373 0.43834 0.12874 0.0
C2649 C 0.57726 0.43642 0.10292 0.0
C2650 C 0.56484 0.41892 0.13873 0.0
C2651 C 0.56063 0.39691 0.12297 0.0
C2652 C 0.56728 0.39443 0.09832 0.0
C2653 C 0.57513 0.41429 0.08833 0.0
C2654 C 0.55774 0.4224 0.16503 0.0
C2655 C 0.56425 0.37103 0.08154 0.0
H2656 H 0.54725 0.3347 0.1671 0.0
H2657 H 0.49146 0.35133 0.12122 0.0
H2658 H 0.58807 0.36262 0.13821 0.0
H2659 H 0.58668 0.38393 0.16504 0.0
H2660 H 0.58384 0.35389 0.16867 0.0
H2661 H 0.49425 0.38426 0.10117 0.0
H2662 H 0.51758 0.40713 0.11429 0.0
H2663 H 0.51882 0.38719 0.08607 0.0
H2664 H 0.57631 0.45528 0.14059 0.0
H2665 H 0.57796 0.41241 0.06846 0.0
H2666 H 0.56295 0.4095 0.17657 0.0
H2667 H 0.53935 0.41992 0.16267 0.0
H2668 H 0.56465 0.44001 0.17602 0.0
H2669 H 0.56838 0.35775 0.0932 0.0
H2670 H 0.57476 0.37141 0.06604 0.0
H2671 H 0.54665 0.36564 0.07234 0.0
C2672 C 0.03873 0.40189 0.51387 0.0
C2673 C 0.05194 0.38726 0.50291 0.0
C2674 C 1.01739 0.40233 0.50117 0.0
C2675 C 1.00914 0.38748 0.47731 0.0
C2676 C 1.02213 0.37208 0.46676 0.0
C2677 C 0.04334 0.37225 0.47961 0.0
C2678 C 1.00398 0.41906 0.51285 0.0
C2679 C 1.01382 0.35567 0.44158 0.0
C2680 C 0.94867 0.36953 0.44812 0.0
C2681 C 0.94753 0.38213 0.42769 0.0
C2682 C 0.96828 0.37229 0.46567 0.0
C2683 C 0.98716 0.38803 0.46266 0.0
C2684 C 0.98577 0.40168 0.44289 0.0
C2685 C 0.96595 0.39854 0.42558 0.0
C2686 C 0.96912 0.35745 0.48652 0.0
C2687 C 1.0056 0.41863 0.43907 0.0
H2688 H 0.04527 0.41335 0.53196 0.0
H2689 H 0.0533 0.36056 0.47123 0.0
H2690 H 1.00181 0.43217 0.50021 0.0
H2691 H 0.98716 0.40985 0.51418 0.0
H2692 H 1.01205 0.42817 0.53237 0.0
H2693 H 0.02579 0.34429 0.4365 0.0
H2694 H 0.99783 0.34459 0.44272 0.0
H2695 H 1.01076 0.36564 0.42572 0.0
H2696 H 0.93427 0.35726 0.45022 0.0
H2697 H 0.96514 0.40833 0.40983 0.0
H2698 H 0.97687 0.36809 0.50541 0.0
H2699 H 0.97954 0.34427 0.48198 0.0
H2700 H 0.95237 0.34836 0.48837 0.0
H2701 H 1.01357 0.4296 0.45769 0.0
H2702 H 1.00103 0.43 0.42511 0.0
H2703 H 1.01812 0.40899 0.43173 0.0
C2704 C 0.97779 0.72564 0.57405 0.0
C2705 C 0.97647 0.73309 0.60011 0.0
C2706 C 0.98272 0.70376 0.56593 0.0
C2707 C 0.98602 0.68903 0.58423 0.0
C2708 C 0.98042 0.69472 0.60916 0.0
C2709 C 0.97574 0.71683 0.6169 0.0
C2710 C 0.98777 0.69805 0.5389 0.0
C2711 C 0.98263 0.67893 0.6289 0.0
C2712 C 1.00779 0.63283 0.56865 0.0
C2713 C 0.03042 0.64033 0.57802 0.0
C2714 C 0.99287 0.64844 0.56989 0.0
C2715 C 1.00108 0.67208 0.58019 0.0
C2716 C 1.0242 0.67982 0.58828 0.0
C2717 C 0.03847 0.6638 0.58733 0.0
C2718 C 0.96842 0.63949 0.56092 0.0
C2719 C 0.03386 0.70491 0.59913 0.0
H2720 H 0.97756 0.73779 0.56062 0.0
H2721 H 0.9741 0.72211 0.6369 0.0
H2722 H 1.006 0.70205 0.53923 0.0
H2723 H 0.98208 0.67939 0.53111 0.0
H2724 H 0.97984 0.70834 0.52568 0.0
H2725 H 0.97306 0.68308 0.64479 0.0
H2726 H 0.97684 0.66054 0.61986 0.0
H2727 H 1.00037 0.68102 0.63737 0.0
H2728 H 1.00155 0.61465 0.56186 0.0
H2729 H 0.05601 0.66956 0.59466 0.0
H2730 H 0.96351 0.64462 0.542 0.0
H2731 H 0.95832 0.64705 0.57463 0.0
H2732 H 0.9643 0.62032 0.5586 0.0
H2733 H 0.02861 0.71622 0.58546 0.0
H2734 H 0.0523 0.70819 0.6031 0.0
H2735 H 0.02763 0.71004 0.61743 0.0
C2736 C 0.63745 0.85331 0.90656 0.0
C2737 C 0.64658 0.85318 0.93214 0.0
C2738 C 0.64576 0.842 0.88586 0.0
C2739 C 0.66325 0.8297 0.89082 0.0
C2740 C 0.67235 0.82921 0.91662 0.0
C2741 C 0.66406 0.84121 0.93703 0.0
C2742 C 0.6362 0.84368 0.85865 0.0
C2743 C 0.69097 0.81623 0.92264 0.0
C2744 C 0.67136 0.78628 0.83424 0.0
C2745 C 0.68865 0.79907 0.82469 0.0
C2746 C 0.66322 0.79583 0.85618 0.0
C2747 C 0.67273 0.8186 0.86884 0.0
C2748 C 0.69059 0.83131 0.8596 0.0
C2749 C 0.6983 0.82139 0.83768 0.0
C2750 C 0.64451 0.78158 0.86584 0.0
C2751 C 0.7021 0.85515 0.8731 0.0
H2752 H 0.62403 0.86268 0.90269 0.0
H2753 H 0.67107 0.84098 0.95679 0.0
H2754 H 0.64959 0.85111 0.84852 0.0
H2755 H 0.62889 0.82616 0.84777 0.0
H2756 H 0.62317 0.8546 0.85809 0.0
H2757 H 0.6945 0.81535 0.94352 0.0
H2758 H 0.68685 0.79836 0.91159 0.0
H2759 H 0.70629 0.82495 0.91668 0.0
H2760 H 0.66412 0.76889 0.82448 0.0
H2761 H 0.71229 0.831 0.831 0.0
H2762 H 0.62973 0.79004 0.86449 0.0
H2763 H 0.64939 0.78055 0.88647 0.0
H2764 H 0.63976 0.76374 0.85471 0.0
H2765 H 0.69041 0.86532 0.88148 0.0
H2766 H 0.71059 0.86498 0.85978 0.0
H2767 H 0.7149 0.85344 0.88906 0.0
C2768 C 0.45413 0.56711 0.72695 0.0
C2769 C 0.45352 0.58673 0.74529 0.0
C2770 C 0.46779 0.56776 0.70707 0.0
C2771 C 0.48226 0.58848 0.70499 0.0
C2772 C 0.48152 0.6085 0.72318 0.0
C2773 C 0.46755 0.60736 0.74287 0.0
C2774 C 0.46721 0.54578 0.68861 0.0
C2775 C 0.49627 0.63116 0.72252 0.0
C2776 C 0.53245 0.58289 0.66619 0.0
C2777 C 0.52437 0.58717 0.64149 0.0
C2778 C 0.51944 0.58384 0.68696 0.0
C2779 C 0.49748 0.58912 0.68358 0.0
C2780 C 0.48969 0.59407 0.65888 0.0
C2781 C 0.50293 0.59306 0.63869 0.0
C2782 C 0.52905 0.57847 0.71252 0.0
C2783 C 0.46685 0.59992 0.65339 0.0
H2784 H 0.44443 0.5507 0.72883 0.0
H2785 H 0.4685 0.62252 0.7573 0.0
H2786 H 0.46332 0.54867 0.66843 0.0
H2787 H 0.4838 0.54072 0.69079 0.0
H2788 H 0.45473 0.53123 0.69186 0.0
H2789 H 0.49332 0.64545 0.73689 0.0
H2790 H 0.51392 0.62932 0.72652 0.0
H2791 H 0.49349 0.63592 0.70303 0.0
H2792 H 0.54859 0.5779 0.66911 0.0
H2793 H 0.49604 0.5964 0.62002 0.0
H2794 H 0.51922 0.56225 0.71622 0.0
H2795 H 0.52796 0.59247 0.72833 0.0
H2796 H 0.54666 0.57639 0.71315 0.0
H2797 H 0.45416 0.58572 0.65693 0.0
H2798 H 0.46274 0.60277 0.63321 0.0
H2799 H 0.4657 0.61578 0.66663 0.0
C2800 C 0.86947 0.27033 1.00545 0.0
C2801 C 0.86253 0.24722 0.00817 0.0
C2802 C 0.86079 0.2793 0.98381 0.0
C2803 C 0.84401 0.26515 0.9647 0.0
C2804 C 0.83659 0.24189 0.96768 0.0
C2805 C 0.84619 0.23312 0.98906 0.0
C2806 C 0.8699 0.30386 0.98118 0.0
C2807 C 0.81832 0.22631 0.94837 0.0
C2808 C 0.80975 0.29625 0.91941 0.0
C2809 C 0.819 0.29257 0.89666 0.0
C2810 C 0.81724 0.28693 0.94143 0.0
C2811 C 0.83501 0.27437 0.94113 0.0
C2812 C 0.84457 0.27099 0.91827 0.0
C2813 C 0.83625 0.27973 0.89636 0.0
C2814 C 0.80606 0.29043 0.965 0.0
C2815 C 0.864 0.25853 0.91706 0.0
H2816 H 0.88208 0.28135 0.02011 0.0
H2817 H 0.84045 0.21536 0.99118 0.0
H2818 H 0.8767 0.30401 0.9628 0.0
H2819 H 0.85642 0.31414 0.98049 0.0
H2820 H 0.88323 0.31248 0.99736 0.0
H2821 H 0.81335 0.20923 0.95425 0.0
H2822 H 0.80353 0.23469 0.94601 0.0
H2823 H 0.82383 0.22343 0.92926 0.0
H2824 H 0.79643 0.30609 0.91987 0.0
H2825 H 0.84379 0.27703 0.87905 0.0
H2826 H 0.81809 0.30092 0.98143 0.0
H2827 H 0.80027 0.27347 0.9707 0.0
H2828 H 0.79165 0.29927 0.96173 0.0
H2829 H 0.87789 0.26724 0.93251 0.0
H2830 H 0.87006 0.25799 0.89818 0.0
H2831 H 0.85921 0.24053 0.92044 0.0
C2832 C 0.09152 0.50275 0.24814 0.0
C2833 C 0.11405 0.50575 0.25875 0.0
C2834 C 0.08484 0.50806 0.22363 0.0
C2835 C 0.10105 0.51652 0.20899 0.0
C2836 C 0.12384 0.51749 0.21851 0.0
C2837 C 0.13008 0.51213 0.2433 0.0
C2838 C 0.0604 0.5067 0.21457 0.0
C2839 C 0.14174 0.52601 0.20347 0.0
C2840 C 0.07998 0.52514 0.14013 0.0
C2841 C 0.07902 0.54883 0.14389 0.0
C2842 C 0.08768 0.51441 0.16088 0.0
C2843 C 0.09419 0.52756 0.18607 0.0
C2844 C 0.09301 0.55144 0.18984 0.0
C2845 C 0.08565 0.56172 0.16879 0.0
C2846 C 0.08904 0.48907 0.15585 0.0
C2847 C 0.09935 0.5662 0.21626 0.0
H2848 H 0.07897 0.49778 0.25986 0.0
H2849 H 0.14752 0.51476 0.25133 0.0
H2850 H 0.05667 0.52447 0.21587 0.0
H2851 H 0.05576 0.49826 0.19411 0.0
H2852 H 0.04984 0.49702 0.22638 0.0
H2853 H 0.15799 0.52172 0.21084 0.0
H2854 H 0.13712 0.51845 0.18271 0.0
H2855 H 0.14373 0.54508 0.20503 0.0
H2856 H 0.07521 0.51512 0.12089 0.0
H2857 H 0.08503 0.58004 0.17187 0.0
H2858 H 0.07825 0.4794 0.16738 0.0
H2859 H 0.10628 0.48674 0.16204 0.0
H2860 H 0.08396 0.48136 0.13515 0.0
H2861 H 0.08877 0.55911 0.22973 0.0
H2862 H 0.09755 0.58448 0.21597 0.0
H2863 H 0.11682 0.56588 0.22407 0.0
C2864 C 0.85243 0.99148 0.56596 0.0
C2865 C 0.83518 1.00123 0.57497 0.0
C2866 C 0.85041 0.9813 0.54017 0.0
C2867 C 0.83041 0.98057 0.52346 0.0
C2868 C 0.81467 0.99381 0.53153 0.0
C2869 C 0.81721 1.00405 0.55753 0.0
C2870 C 0.86807 0.96816 0.53208 0.0
C2871 C 0.7937 0.9944 0.51381 0.0
C2872 C 0.82826 0.94174 0.45989 0.0
C2873 C 0.81977 0.92023 0.46618 0.0
C2874 C 0.83004 0.96222 0.47749 0.0
C2875 C 0.82349 0.9609 0.50191 0.0
C2876 C 0.81327 0.93938 0.50742 0.0
C2877 C 0.81145 0.91934 0.48939 0.0
C2878 C 0.84027 0.98485 0.47046 0.0
C2879 C 0.80573 0.93714 0.53315 0.0
H2880 H 0.8665 0.98979 0.57955 0.0
H2881 H 0.80396 1.01183 0.56466 0.0
H2882 H 0.8623 0.94939 0.53163 0.0
H2883 H 0.87124 0.97063 0.51246 0.0
H2884 H 0.88394 0.97369 0.54565 0.0
H2885 H 0.78666 1.01 0.52002 0.0
H2886 H 0.7968 0.99414 0.49362 0.0
H2887 H 0.78113 0.97891 0.51423 0.0
H2888 H 0.83456 0.94251 0.4418 0.0
H2889 H 0.80422 0.90278 0.49387 0.0
H2890 H 0.85857 0.98757 0.47582 0.0
H2891 H 0.83428 0.99973 0.48069 0.0
H2892 H 0.83657 0.98459 0.44934 0.0
H2893 H 0.82031 0.94144 0.5487 0.0
H2894 H 0.79693 0.91939 0.53362 0.0
H2895 H 0.79444 0.94943 0.53755 0.0
C2896 C 0.43718 0.58277 0.90212 0.0
C2897 C 0.44726 0.58822 0.88087 0.0
C2898 C 0.44996 0.58055 0.92567 0.0
C2899 C 0.47359 0.58451 0.92867 0.0
C2900 C 0.48377 0.59044 0.90737 0.0
C2901 C 0.47062 0.59186 0.88389 0.0
C2902 C 0.43811 0.5736 0.9473 0.0
C2903 C 0.50873 0.59548 0.90941 0.0
C2904 C 0.5081 0.59912 0.99727 0.0
C2905 C 0.51586 0.57846 1.00026 0.0
C2906 C 0.49451 0.60134 0.97433 0.0
C2907 C 0.48771 0.58227 0.95376 0.0
C2908 C 0.49516 0.56124 0.95694 0.0
C2909 C 0.50926 0.55971 0.97976 0.0
C2910 C 0.48777 0.62435 0.97193 0.0
C2911 C 0.48813 0.54017 0.93617 0.0
H2912 H 0.41923 0.57977 0.90017 0.0
H2913 H 0.47877 0.59622 0.86784 0.0
H2914 H 0.44304 0.55756 0.95276 0.0
H2915 H 0.44303 0.58727 0.9646 0.0
H2916 H 0.41977 0.57055 0.94194 0.0
H2917 H 0.51421 0.60094 0.8917 0.0
H2918 H 0.51592 0.60937 0.92607 0.0
H2919 H 0.51562 0.57988 0.91291 0.0
H2920 H 0.51304 0.61383 0.01274 0.0
H2921 H 0.51486 0.54357 0.98171 0.0
H2922 H 0.46941 0.62233 0.96877 0.0
H2923 H 0.49372 0.63074 0.95491 0.0
H2924 H 0.49453 0.63761 0.98933 0.0
H2925 H 0.46975 0.53615 0.93134 0.0
H2926 H 0.49408 0.52472 0.94204 0.0
H2927 H 0.49473 0.54367 0.91834 0.0
C2928 C 0.88578 0.28686 0.1612 0.0
C2929 C 0.87626 0.26447 0.14806 0.0
C2930 C 0.87965 0.29601 0.18482 0.0
C2931 C 0.86306 0.28279 0.19561 0.0
C2932 C 0.85438 0.25962 0.18326 0.0
C2933 C 0.86114 0.25076 0.15981 0.0
C2934 C 0.88985 0.32053 0.19725 0.0
C2935 C 0.8366 0.24476 0.19369 0.0
C2936 C 0.85225 0.3035 0.26458 0.0
C2937 C 0.83424 0.31502 0.26008 0.0
C2938 C 0.86185 0.2931 0.24404 0.0
C2939 C 0.85329 0.29396 0.21807 0.0
C2940 C 0.83532 0.30585 0.21348 0.0
C2941 C 0.82616 0.31623 0.23437 0.0
C2942 C 0.881 0.28086 0.25013 0.0
C2943 C 0.82541 0.30726 0.18633 0.0
H2944 H 0.89707 0.29785 0.15208 0.0
H2945 H 0.85308 0.23376 0.14952 0.0
H2946 H 0.87735 0.33185 0.19479 0.0
H2947 H 0.89501 0.32151 0.21827 0.0
H2948 H 0.9045 0.32741 0.18865 0.0
H2949 H 0.83345 0.22645 0.1839 0.0
H2950 H 0.84128 0.24533 0.21471 0.0
H2951 H 0.82091 0.25158 0.19084 0.0
H2952 H 0.8586 0.30219 0.28425 0.0
H2953 H 0.8122 0.32485 0.23046 0.0
H2954 H 0.89536 0.28812 0.24132 0.0
H2955 H 0.8762 0.26225 0.24167 0.0
H2956 H 0.88633 0.28238 0.27123 0.0
H2957 H 0.83829 0.31597 0.17641 0.0
H2958 H 0.81138 0.31687 0.18585 0.0
H2959 H 0.81935 0.28958 0.17521 0.0
C2960 C 0.11347 0.51031 0.40597 0.0
C2961 C 0.13202 0.52279 0.39824 0.0
C2962 C 0.10469 0.51919 0.4278 0.0
C2963 C 0.11396 0.54167 0.44162 0.0
C2964 C 0.13259 0.55446 0.4336 0.0
C2965 C 0.14163 0.5447 0.41233 0.0
C2966 C 0.08539 0.50449 0.43599 0.0
C2967 C 0.14261 0.57873 0.44706 0.0
C2968 C 0.07581 0.57108 0.48215 0.0
C2969 C 0.08463 0.5691 0.50729 0.0
C2970 C 0.08564 0.563 0.46075 0.0
C2971 C 0.10416 0.55171 0.46438 0.0
C2972 C 0.11289 0.54943 0.48978 0.0
C2973 C 0.10331 0.55849 0.51087 0.0
C2974 C 0.07618 0.56656 0.43423 0.0
C2975 C 0.13191 0.53672 0.49465 0.0
H2976 H 0.10592 0.49341 0.39501 0.0
H2977 H 0.15573 0.55456 0.40609 0.0
H2978 H 0.08861 0.50422 0.45701 0.0
H2979 H 0.07021 0.51201 0.43219 0.0
H2980 H 0.08206 0.4864 0.42552 0.0
H2981 H 0.15661 0.58665 0.43808 0.0
H2982 H 0.12972 0.58978 0.44651 0.0
H2983 H 0.14873 0.57868 0.46764 0.0
H2984 H 0.06138 0.57921 0.47925 0.0
H2985 H 0.10996 0.55647 0.5302 0.0
H2986 H 0.06885 0.5496 0.42207 0.0
H2987 H 0.08959 0.57489 0.42471 0.0
H2988 H 0.06315 0.57744 0.43486 0.0
H2989 H 0.1271 0.51858 0.48441 0.0
H2990 H 0.13689 0.53653 0.51549 0.0
H2991 H 0.14654 0.54483 0.4869 0.0
C2992 C 0.83111 0.94668 0.70589 0.0
C2993 C 0.83079 0.93881 0.6796 0.0
C2994 C 0.82949 0.93096 0.72344 0.0
C2995 C 0.82747 0.90694 0.7144 0.0
C2996 C 0.82666 0.89893 0.68785 0.0
C2997 C 0.82824 0.91489 0.67085 0.0
C2998 C 0.83021 0.94005 0.75166 0.0
C2999 C 0.82437 0.87347 0.67736 0.0
C3000 C 0.84302 0.86666 0.76077 0.0
C3001 C 0.8221 0.85674 0.76557 0.0
C3002 C 0.84506 0.88314 0.74423 0.0
C3003 C 0.82574 0.88991 0.73243 0.0
C3004 C 0.80458 0.87954 0.73681 0.0
C3005 C 0.80302 0.86296 0.75315 0.0
C3006 C 0.86788 0.89351 0.73962 0.0
C3007 C 0.78358 0.88618 0.72453 0.0
H3008 H 0.83313 0.96507 0.71284 0.0
H3009 H 0.82771 0.90848 0.65054 0.0
H3010 H 0.81503 0.93193 0.75842 0.0
H3011 H 0.84461 0.93533 0.76319 0.0
H3012 H 0.83155 0.95914 0.75558 0.0
H3013 H 0.82412 0.8701 0.65616 0.0
H3014 H 0.83837 0.86649 0.68677 0.0
H3015 H 0.80884 0.86373 0.68182 0.0
H3016 H 0.8578 0.86195 0.77041 0.0
H3017 H 0.7868 0.85538 0.75683 0.0
H3018 H 0.87099 0.91253 0.74587 0.0
H3019 H 0.8689 0.89028 0.71871 0.0
H3020 H 0.8812 0.88629 0.75012 0.0
H3021 H 0.78424 0.90506 0.72992 0.0
H3022 H 0.76846 0.87686 0.73042 0.0
H3023 H 0.78207 0.88234 0.70321 0.0
C3024 C 0.67156 0.45324 0.58368 0.0
C3025 C 0.69441 0.46172 0.58538 0.0
C3026 C 0.65614 0.46832 0.58722 0.0
C3027 C 0.66347 0.49272 0.59233 0.0
C3028 C 0.68655 0.50134 0.5943 0.0
C3029 C 0.70161 0.48587 0.59097 0.0
C3030 C 0.63185 0.45811 0.58507 0.0
C3031 C 0.69535 0.52704 0.59941 0.0
C3032 C 0.62178 0.53171 0.57393 0.0
C3033 C 0.61531 0.53955 0.59761 0.0
C3034 C 0.63734 0.51672 0.57202 0.0
C3035 C 0.64697 0.50915 0.59437 0.0
C3036 C 0.64064 0.51727 0.61847 0.0
C3037 C 0.62481 0.53218 0.61978 0.0
C3038 C 0.64321 0.50872 0.54584 0.0
C3039 C 0.65041 0.50997 0.6429 0.0
H3040 H 0.66564 0.43471 0.57941 0.0
H3041 H 0.71912 0.49282 0.59227 0.0
H3042 H 0.6253 0.46479 0.60265 0.0
H3043 H 0.62228 0.46345 0.56846 0.0
H3044 H 0.62882 0.43891 0.58241 0.0
H3045 H 0.71375 0.5311 0.60144 0.0
H3046 H 0.68825 0.53506 0.58336 0.0
H3047 H 0.69015 0.53516 0.61729 0.0
H3048 H 0.61429 0.53707 0.55665 0.0
H3049 H 0.61971 0.53787 0.63809 0.0
H3050 H 0.63837 0.48963 0.54074 0.0
H3051 H 0.66142 0.51308 0.54628 0.0
H3052 H 0.63484 0.51666 0.53046 0.0
H3053 H 0.64594 0.49091 0.64136 0.0
H3054 H 0.64449 0.5183 0.6602 0.0
H3055 H 0.6688 0.51444 0.64564 0.0
C3056 C 0.18564 0.14593 0.48778 0.0
C3057 C 0.20487 0.13835 0.49753 0.0
C3058 C 0.16497 0.13728 0.49439 0.0
C3059 C 0.16376 0.12148 0.51205 0.0
C3060 C 0.18297 0.11287 0.52083 0.0
C3061 C 0.20324 0.12113 0.51308 0.0
C3062 C 0.14472 0.14623 0.48381 0.0
C3063 C 0.18262 0.09661 0.5403 0.0
C3064 C 0.12193 0.12888 0.5576 0.0
C3065 C 0.10561 0.10911 0.54872 0.0
C3066 C 0.14103 0.1328 0.54605 0.0
C3067 C 0.14353 0.11694 0.52444 0.0
C3068 C 0.12689 0.09705 0.5151 0.0
C3069 C 0.10823 0.09315 0.52768 0.0
C3070 C 0.15862 0.1539 0.55713 0.0
C3071 C 0.12862 0.0802 0.49161 0.0
H3072 H 0.1869 0.15917 0.47564 0.0
H3073 H 0.21817 0.11545 0.52087 0.0
H3074 H 0.13018 0.13193 0.47809 0.0
H3075 H 0.14056 0.15904 0.49896 0.0
H3076 H 0.14749 0.15477 0.46688 0.0
H3077 H 0.19812 0.08936 0.54275 0.0
H3078 H 0.18072 0.10613 0.55926 0.0
H3079 H 0.1683 0.08212 0.53456 0.0
H3080 H 0.11993 0.14118 0.57396 0.0
H3081 H 0.09545 0.07795 0.52073 0.0
H3082 H 0.1603 0.16563 0.54271 0.0
H3083 H 0.17495 0.14869 0.56177 0.0
H3084 H 0.1547 0.16373 0.57491 0.0
H3085 H 0.12958 0.08935 0.47482 0.0
H3086 H 0.11424 0.06565 0.48675 0.0
H3087 H 0.14406 0.07302 0.49477 0.0
C3088 C 0.21494 0.97671 0.8488 0.0
C3089 C 0.22404 0.99754 0.84075 0.0
C3090 C 0.22497 0.95623 0.84656 0.0
C3091 C 0.24471 0.95524 0.83515 0.0
C3092 C 0.25374 0.97611 0.82662 0.0
C3093 C 0.24376 0.99656 0.82981 0.0
C3094 C 0.21441 0.93551 0.85695 0.0
C3095 C 0.27411 0.97685 0.81366 0.0
C3096 C 0.28394 0.90945 0.84772 0.0
C3097 C 0.27694 0.89085 0.82676 0.0
C3098 C 0.2736 0.92966 0.85088 0.0
C3099 C 0.25582 0.93283 0.83227 0.0
C3100 C 0.24892 0.91424 0.81084 0.0
C3101 C 0.25898 0.8938 0.80868 0.0
C3102 C 0.28161 0.94762 0.87475 0.0
C3103 C 0.23078 0.91598 0.78971 0.0
H3104 H 0.19996 0.97647 0.85746 0.0
H3105 H 0.25143 1.01193 0.82325 0.0
H3106 H 0.2083 0.92077 0.84093 0.0
H3107 H 0.22692 0.93007 0.87065 0.0
H3108 H 0.20027 0.93907 0.86695 0.0
H3109 H 0.27851 0.99338 0.80641 0.0
H3110 H 0.28841 0.97467 0.82745 0.0
H3111 H 0.27138 0.96232 0.79724 0.0
H3112 H 0.29737 0.90799 0.86235 0.0
H3113 H 0.25288 0.88011 0.7923 0.0
H3114 H 0.28896 0.96421 0.86933 0.0
H3115 H 0.29424 0.94232 0.88845 0.0
H3116 H 0.2674 0.95086 0.88475 0.0
H3117 H 0.21492 0.91591 0.79745 0.0
H3118 H 0.22833 0.90148 0.77327 0.0
H3119 H 0.23476 0.93257 0.78248 0.0
C3120 C 0.30799 0.95676 0.06713 0.0
C3121 C 0.30496 0.93253 0.0612 0.0
C3122 C 0.32813 0.97073 0.06531 0.0
C3123 C 0.34572 0.96024 0.05745 0.0
C3124 C 0.34289 0.93583 0.05166 0.0
C3125 C 0.32255 0.92227 0.05354 0.0
C3126 C 0.33051 0.99672 0.07153 0.0
C3127 C 0.36133 0.92402 0.0433 0.0
C3128 C 0.39124 0.9936 0.02841 0.0
C3129 C 0.40879 0.99901 0.04913 0.0
C3130 C 0.3704 0.98156 0.03107 0.0
C3131 C 0.36706 0.97474 0.05501 0.0
C3132 C 0.38447 0.98085 0.07625 0.0
C3133 C 0.40513 0.99293 0.07305 0.0
C3134 C 0.35216 0.97554 0.00804 0.0
C3135 C 0.38153 0.97388 0.10208 0.0
H3136 H 0.2945 0.96491 0.07299 0.0
H3137 H 0.32042 0.90361 0.04889 0.0
H3138 H 0.34475 1.00385 0.08713 0.0
H3139 H 0.33406 1.00453 0.05436 0.0
H3140 H 0.31534 1.00216 0.07771 0.0
H3141 H 0.3566 0.90486 0.03992 0.0
H3142 H 0.3659 0.92952 0.02525 0.0
H3143 H 0.37634 0.92923 0.05822 0.0
H3144 H 0.39391 0.99853 0.00998 0.0
H3145 H 0.4187 0.9968 0.08905 0.0
H3146 H 0.33697 0.98164 0.01314 0.0
H3147 H 0.34782 0.95647 1.0022 0.0
H3148 H 0.35703 0.98326 0.99125 0.0
H3149 H 0.36668 0.97963 0.10873 0.0
H3150 H 0.3962 0.98126 0.11707 0.0
H3151 H 0.37875 0.95475 0.10017 0.0
C3152 C 0.89825 0.68443 0.82674 0.0
C3153 C 0.92036 0.68898 0.82228 0.0
C3154 C 0.88409 0.70075 0.82433 0.0
C3155 C 0.89177 0.72204 0.81632 0.0
C3156 C 0.91397 0.72646 0.81118 0.0
C3157 C 0.92801 0.7101 0.81455 0.0
C3158 C 0.86105 0.69548 0.83123 0.0
C3159 C 0.92293 0.74822 0.80155 0.0
C3160 C 0.84672 0.75548 0.79194 0.0
C3161 C 0.84764 0.77292 0.81321 0.0
C3162 C 0.86124 0.73922 0.79238 0.0
C3163 C 0.87691 0.73998 0.81476 0.0
C3164 C 0.87788 0.75759 0.8362 0.0
C3165 C 0.86347 0.77375 0.83511 0.0
C3166 C 0.86022 0.72157 0.76861 0.0
C3167 C 0.89401 0.7592 0.8606 0.0
H3168 H 0.89219 0.66831 0.83301 0.0
H3169 H 0.94496 0.71373 0.81082 0.0
H3170 H 0.85905 0.70896 0.84713 0.0
H3171 H 0.84845 0.69586 0.81447 0.0
H3172 H 0.85757 0.67831 0.83737 0.0
H3173 H 0.91786 0.76361 0.81198 0.0
H3174 H 0.94132 0.75125 0.8035 0.0
H3175 H 0.91611 0.74648 0.78083 0.0
H3176 H 0.83476 0.75461 0.77483 0.0
H3177 H 0.86447 0.78696 0.85179 0.0
H3178 H 0.85631 0.70384 0.77313 0.0
H3179 H 0.87669 0.7234 0.76207 0.0
H3180 H 0.84758 0.72346 0.75253 0.0
H3181 H 0.89244 0.77353 0.87581 0.0
H3182 H 0.91128 0.762 0.85637 0.0
H3183 H 0.89121 0.7427 0.86825 0.0
C3184 C 0.81848 0.59821 0.9923 0.0
C3185 C 0.82207 0.62157 0.98944 0.0
C3186 C 0.83631 0.58744 0.99999 0.0
C3187 C 0.85819 0.60038 1.00492 0.0
C3188 C 0.86201 0.62355 1.00053 0.0
C3189 C 0.8439 0.63386 0.99283 0.0
C3190 C 0.83161 0.56265 1.00428 0.0
C3191 C 0.88512 0.63788 1.0054 0.0
C3192 C 0.90002 0.58533 0.05578 0.0
C3193 C 0.91304 0.57354 0.04068 0.0
C3194 C 0.88192 0.5938 0.04432 0.0
C3195 C 0.8768 0.59053 0.01707 0.0
C3196 C 0.88977 0.57848 1.0017 0.0
C3197 C 0.9077 0.57002 0.01371 0.0
C3198 C 0.86843 0.60651 0.0614 0.0
C3199 C 0.88495 0.57484 0.97261 0.0
H3200 H 0.80167 0.58858 0.98964 0.0
H3201 H 0.84682 0.65189 0.99054 0.0
H3202 H 0.84267 0.55242 0.99465 0.0
H3203 H 0.83504 0.56209 0.02523 0.0
H3204 H 0.81409 0.55427 0.99696 0.0
H3205 H 0.88552 0.65473 0.99851 0.0
H3206 H 0.89144 0.6413 0.0264 0.0
H3207 H 0.89663 0.62833 0.99572 0.0
H3208 H 0.904 0.58788 0.07663 0.0
H3209 H 0.9179 0.56114 1.00198 0.0
H3210 H 0.8507 0.59804 0.0569 0.0
H3211 H 0.86938 0.62453 0.05766 0.0
H3212 H 0.87426 0.60706 0.08223 0.0
H3213 H 0.86791 0.56487 0.9658 0.0
H3214 H 0.89687 0.56544 0.96348 0.0
H3215 H 0.88567 0.59177 0.96589 0.0
C3216 C 0.22671 0.14077 0.82497 0.0
C3217 C 0.22524 0.13411 0.84938 0.0
C3218 C 0.23814 0.16303 0.82186 0.0
C3219 C 0.24868 0.18012 0.84359 0.0
C3220 C 0.2476 0.17332 0.8683 0.0
C3221 C 0.23589 0.15096 0.87085 0.0
C3222 C 0.23817 0.16856 0.79498 0.0
C3223 C 0.25812 0.19016 0.89241 0.0
C3224 C 0.29126 0.23511 0.83494 0.0
C3225 C 0.27812 0.25246 0.83326 0.0
C3226 C 0.28216 0.21193 0.83819 0.0
C3227 C 0.25922 0.20527 0.84051 0.0
C3228 C 0.24617 0.22297 0.83943 0.0
C3229 C 0.2555 0.24568 0.83557 0.0
C3230 C 0.29715 0.19429 0.83864 0.0
C3231 C 0.22195 0.21791 0.84221 0.0
H3232 H 0.21804 0.12874 0.80803 0.0
H3233 H 0.23446 0.14696 0.88995 0.0
H3234 H 0.22823 0.18228 0.79233 0.0
H3235 H 0.25534 0.17534 0.79212 0.0
H3236 H 0.23112 0.15321 0.77992 0.0
H3237 H 0.25776 0.18206 0.91002 0.0
H3238 H 0.27561 0.19724 0.89108 0.0
H3239 H 0.24919 0.20495 0.8944 0.0
H3240 H 0.30862 0.23942 0.833 0.0
H3241 H 0.24481 0.25842 0.83442 0.0
H3242 H 0.29075 0.17968 0.8225 0.0
H3243 H 0.29719 0.18707 0.85683 0.0
H3244 H 0.31448 0.20171 0.83694 0.0
H3245 H 0.21283 0.20439 0.82606 0.0
H3246 H 0.21411 0.23349 0.84235 0.0
H3247 H 0.22006 0.21105 0.86037 0.0
C3248 C 0.41944 0.07011 0.33704 0.0
C3249 C 0.44202 0.0744 0.34767 0.0
C3250 C 0.40507 0.05028 0.34037 0.0
C3251 C 0.41343 0.03434 0.35473 0.0
C3252 C 0.43616 0.03856 0.36558 0.0
C3253 C 0.45019 0.0585 0.36189 0.0
C3254 C 0.38092 0.04638 0.3285 0.0
C3255 C 0.44568 0.02201 0.3811 0.0
C3256 C 0.3725 0.99294 0.38197 0.0
C3257 C 0.3698 0.97258 0.3639 0.0
C3258 C 0.38668 1.01317 0.37927 0.0
C3259 C 0.39843 1.01305 0.35801 0.0
C3260 C 0.39575 0.99259 0.33971 0.0
C3261 C 0.38154 0.97262 0.34292 0.0
C3262 C 0.38909 0.03467 0.39918 0.0
C3263 C 0.40798 0.99176 0.31677 0.0
H3264 H 0.41291 0.08226 0.32607 0.0
H3265 H 0.46754 0.06172 0.37039 0.0
H3266 H 0.37655 0.02981 0.31476 0.0
H3267 H 0.37023 0.04499 0.34371 0.0
H3268 H 0.37699 0.06054 0.31809 0.0
H3269 H 0.46362 0.02801 0.38864 0.0
H3270 H 0.43663 0.01986 0.39763 0.0
H3271 H 0.44348 1.00471 0.36897 0.0
H3272 H 0.36335 0.99313 0.3981 0.0
H3273 H 0.37989 0.95687 0.32913 0.0
H3274 H 0.38502 0.0493 0.38973 0.0
H3275 H 0.40656 0.03972 0.40895 0.0
H3276 H 0.37818 0.03215 0.41403 0.0
H3277 H 0.40375 1.00497 0.30508 0.0
H3278 H 0.40394 0.97454 0.30419 0.0
H3279 H 0.42616 0.99593 0.32345 0.0
C3280 C 0.54409 0.38119 0.72527 0.0
C3281 C 0.55309 0.36143 0.71799 0.0
C3282 C 0.54278 0.39805 0.70907 0.0
C3283 C 0.551 0.39535 0.68518 0.0
C3284 C 0.56117 0.37603 0.6785 0.0
C3285 C 0.56189 0.35929 0.69478 0.0
C3286 C 0.5316 0.41819 0.71693 0.0
C3287 C 0.57055 0.37251 0.65359 0.0
C3288 C 0.52562 0.42217 0.62947 0.0
C3289 C 0.54132 0.44231 0.63014 0.0
C3290 C 0.52849 0.407 0.64731 0.0
C3291 C 0.54768 0.41175 0.66639 0.0
C3292 C 0.56377 0.43183 0.667 0.0
C3293 C 0.56039 0.44683 0.64902 0.0
C3294 C 0.5109 0.38581 0.64572 0.0
C3295 C 0.58458 0.43754 0.68676 0.0
H3296 H 0.53702 0.38288 0.74298 0.0
H3297 H 0.56891 0.34412 0.68898 0.0
H3298 H 0.54241 0.43473 0.71583 0.0
H3299 H 0.51601 0.41682 0.70336 0.0
H3300 H 0.52752 0.4188 0.7368 0.0
H3301 H 0.57978 0.35789 0.65234 0.0
H3302 H 0.55687 0.36893 0.63701 0.0
H3303 H 0.58189 0.38845 0.65163 0.0
H3304 H 0.511 0.41811 0.61481 0.0
H3305 H 0.57256 0.46241 0.65013 0.0
H3306 H 0.50458 0.38584 0.6644 0.0
H3307 H 0.51817 0.36996 0.64198 0.0
H3308 H 0.49667 0.38482 0.63024 0.0
H3309 H 0.58013 0.43989 0.70646 0.0
H3310 H 0.59572 0.4535 0.68443 0.0
H3311 H 0.59383 0.42298 0.68519 0.0
C3312 C 0.4796 0.85529 0.39215 0.0
C3313 C 0.49461 0.84285 0.3807 0.0
C3314 C 0.4568 0.85244 0.38177 0.0
C3315 C 0.44776 0.83681 0.35863 0.0
C3316 C 0.46282 0.82466 0.34624 0.0
C3317 C 0.48583 0.82771 0.35732 0.0
C3318 C 0.44217 0.86601 0.39618 0.0
C3319 C 0.45447 0.80802 0.32141 0.0
C3320 C 0.38338 0.8163 0.34849 0.0
C3321 C 0.37521 0.8319 0.3336 0.0
C3322 C 0.40662 0.81706 0.35583 0.0
C3323 C 0.42273 0.8336 0.34797 0.0
C3324 C 0.4145 0.84879 0.33213 0.0
C3325 C 0.39121 0.8479 0.32544 0.0
C3326 C 0.41392 0.80063 0.37298 0.0
C3327 C 0.43039 0.86665 0.32278 0.0
H3328 H 0.48564 0.8673 0.41 0.0
H3329 H 0.49669 0.81771 0.34805 0.0
H3330 H 0.43439 0.87685 0.38359 0.0
H3331 H 0.42855 0.85395 0.40161 0.0
H3332 H 0.45148 0.87743 0.41397 0.0
H3333 H 0.46811 0.80097 0.31309 0.0
H3334 H 0.44222 0.79341 0.32489 0.0
H3335 H 0.4458 0.81675 0.30706 0.0
H3336 H 0.37155 0.80391 0.35526 0.0
H3337 H 0.38549 0.86015 0.314 0.0
H3338 H 0.42232 0.81056 0.392 0.0
H3339 H 0.42613 0.79128 0.36446 0.0
H3340 H 0.39977 0.78777 0.37611 0.0
H3341 H 0.43907 0.87998 0.33935 0.0
H3342 H 0.42179 0.87538 0.30834 0.0
H3343 H 0.44324 0.8585 0.31406 0.0
C3344 C 0.04998 0.72543 0.2167 0.0
C3345 C 0.03661 0.74011 0.20681 0.0
C3346 C 0.05015 0.70334 0.2027 0.0
C3347 C 0.03664 0.69575 0.17822 0.0
C3348 C 1.02183 0.70984 0.16925 0.0
C3349 C 1.02214 0.73183 0.18351 0.0
C3350 C 0.06614 0.68898 0.21316 0.0
C3351 C 1.00694 0.70257 0.1435 0.0
C3352 C 0.05754 0.65682 0.12621 0.0
C3353 C 0.04477 0.63499 0.12609 0.0
C3354 C 0.05521 0.67651 0.14322 0.0
C3355 C 0.03968 0.67454 0.16072 0.0
C3356 C 0.02674 0.65255 0.16072 0.0
C3357 C 0.02943 0.63311 0.14347 0.0
C3358 C 0.06936 0.69954 0.14238 0.0
C3359 C 1.00998 0.64957 0.17888 0.0
H3360 H 0.06168 0.73196 0.23428 0.0
H3361 H 1.01215 0.7433 0.17548 0.0
H3362 H 0.05786 0.67067 0.21122 0.0
H3363 H 0.08007 0.68932 0.20183 0.0
H3364 H 0.07311 0.69557 0.23376 0.0
H3365 H 0.99443 0.71389 0.14083 0.0
H3366 H 1.01716 0.70338 0.12778 0.0
H3367 H 0.99815 0.68444 0.14149 0.0
H3368 H 0.06949 0.65855 0.11299 0.0
H3369 H 1.01948 0.61637 0.14367 0.0
H3370 H 0.07916 0.70679 0.16168 0.0
H3371 H 0.05859 0.71202 0.13734 0.0
H3372 H 0.08097 0.69816 0.12811 0.0
H3373 H 1.01826 0.65553 0.19912 0.0
H3374 H 1.00149 0.6313 0.17691 0.0
H3375 H 0.99726 0.66043 0.17512 0.0
C3376 C 0.13093 0.32593 0.85811 0.0
C3377 C 0.12815 0.34314 0.8781 0.0
C3378 C 0.15234 0.3238 0.85131 0.0
C3379 C 0.1719 0.33961 0.86409 0.0
C3380 C 0.16898 0.35732 0.88381 0.0
C3381 C 0.14759 0.35861 0.89071 0.0
C3382 C 0.1541 0.30416 0.83072 0.0
C3383 C 0.18861 0.37515 0.8978 0.0
C3384 C 0.23153 0.32477 0.86613 0.0
C3385 C 0.24008 0.3351 0.84621 0.0
C3386 C 0.20957 0.32555 0.87156 0.0
C3387 C 0.1953 0.33756 0.85739 0.0
C3388 C 0.20396 0.34828 0.83744 0.0
C3389 C 0.22579 0.34662 0.8319 0.0
C3390 C 0.20153 0.31323 0.89253 0.0
C3391 C 0.19022 0.36191 0.82206 0.0
H3392 H 0.11641 0.31363 0.84819 0.0
H3393 H 0.14608 0.3721 0.90611 0.0
H3394 H 0.16139 0.31107 0.81471 0.0
H3395 H 0.16541 0.29331 0.8388 0.0
H3396 H 0.13773 0.29304 0.82277 0.0
H3397 H 0.18367 0.38873 0.91141 0.0
H3398 H 0.20053 0.36665 0.9088 0.0
H3399 H 0.19748 0.38356 0.8837 0.0
H3400 H 0.24195 0.31555 0.87734 0.0
H3401 H 0.2318 0.35476 0.81647 0.0
H3402 H 0.18566 0.30114 0.88483 0.0
H3403 H 0.19824 0.32595 0.90837 0.0
H3404 H 0.21377 0.30333 0.90067 0.0
H3405 H 0.17461 0.35057 0.81187 0.0
H3406 H 0.19919 0.36968 0.80761 0.0
H3407 H 0.18552 0.37597 0.83523 0.0
C3408 C 0.57877 0.81194 1.00318 0.0
C3409 C 0.59935 0.82269 0.01763 0.0
C3410 C 0.5684 0.79015 1.00704 0.0
C3411 C 0.57928 0.77874 0.02522 0.0
C3412 C 0.6007 0.78904 0.03869 0.0
C3413 C 0.61029 0.81115 0.0351 0.0
C3414 C 0.54532 0.78004 0.99289 0.0
C3415 C 0.61314 0.77709 0.05762 0.0
C3416 C 0.54969 0.73661 0.06221 0.0
C3417 C 0.55337 0.71541 0.04973 0.0
C3418 C 0.55662 0.75727 0.0532 0.0
C3419 C 0.56793 0.75675 0.03158 0.0
C3420 C 0.57045 0.73531 0.01794 0.0
C3421 C 0.56284 0.71487 0.02696 0.0
C3422 C 0.55304 0.77979 0.06782 0.0
C3423 C 0.58256 0.73405 0.99492 0.0
H3424 H 0.57023 0.82119 0.98999 0.0
H3425 H 0.62619 0.81963 0.04626 0.0
H3426 H 0.54426 0.76171 0.98413 0.0
H3427 H 0.53333 0.78035 1.00678 0.0
H3428 H 0.54017 0.78984 0.97749 0.0
H3429 H 0.63045 0.7864 0.06452 0.0
H3430 H 0.60443 0.77596 0.07457 0.0
H3431 H 0.61362 0.75916 0.04861 0.0
H3432 H 0.54248 0.73732 0.07982 0.0
H3433 H 0.56513 0.69849 0.01671 0.0
H3434 H 0.54657 0.79064 0.05428 0.0
H3435 H 0.56912 0.78964 0.07867 0.0
H3436 H 0.54127 0.77699 0.08174 0.0
H3437 H 0.57634 0.74474 0.98106 0.0
H3438 H 0.58085 0.71602 0.9847 0.0
H3439 H 0.60048 0.74111 1.00145 0.0
C3440 C 0.06521 0.79439 0.693 0.0
C3441 C 0.06304 0.79241 0.66606 0.0
C3442 C 0.0854 0.79345 0.70778 0.0
C3443 C 0.10379 0.79005 0.69529 0.0
C3444 C 0.10174 0.78795 0.66809 0.0
C3445 C 0.08139 0.78942 0.65377 0.0
C3446 C 0.08706 0.79625 0.73679 0.0
C3447 C 0.12097 0.78395 0.65415 0.0
C3448 C 0.16117 0.80713 0.73521 0.0
C3449 C 0.16516 0.78582 0.74147 0.0
C3450 C 0.14126 0.80877 0.72017 0.0
C3451 C 0.1251 0.78856 0.71085 0.0
C3452 C 0.12896 0.76702 0.7171 0.0
C3453 C 0.14885 0.76595 0.73254 0.0
C3454 C 0.13753 0.83211 0.71421 0.0
C3455 C 0.1121 0.74508 0.70744 0.0
H3456 H 0.05117 0.7971 0.70267 0.0
H3457 H 0.07974 0.78789 0.63296 0.0
H3458 H 0.09153 0.78053 0.74359 0.0
H3459 H 0.10043 0.81101 0.746 0.0
H3460 H 0.0713 0.79929 0.74351 0.0
H3461 H 0.11659 0.78246 0.63291 0.0
H3462 H 0.13522 0.79839 0.66105 0.0
H3463 H 0.12656 0.76786 0.65845 0.0
H3464 H 0.17381 0.82251 0.74162 0.0
H3465 H 0.15163 0.74948 0.73758 0.0
H3466 H 0.12219 0.83624 0.72117 0.0
H3467 H 0.13511 0.83173 0.69305 0.0
H3468 H 0.15163 0.84621 0.72326 0.0
H3469 H 0.0964 0.74658 0.71508 0.0
H3470 H 0.11802 0.72958 0.71322 0.0
H3471 H 0.10819 0.74241 0.68608 0.0
C3472 C 0.11571 0.45118 0.51707 0.0
C3473 C 0.12526 0.43602 0.53115 0.0
C3474 C 0.10693 0.46938 0.52951 0.0
C3475 C 0.10781 0.4725 0.55666 0.0
C3476 C 0.11863 0.45812 0.5711 0.0
C3477 C 0.12728 0.44008 0.55817 0.0
C3478 C 0.09565 0.48446 0.5134 0.0
C3479 C 0.12001 0.46098 0.60005 0.0
C3480 C 0.09569 0.53036 0.58567 0.0
C3481 C 0.07276 0.52496 0.58586 0.0
C3482 C 0.10767 0.5132 0.57766 0.0
C3483 C 0.09639 0.49009 0.56962 0.0
C3484 C 0.07359 0.48427 0.57176 0.0
C3485 C 0.06202 0.50181 0.57999 0.0
C3486 C 0.13199 0.52008 0.57598 0.0
C3487 C 0.06092 0.45986 0.5632 0.0
H3488 H 0.11403 0.44814 0.4962 0.0
H3489 H 0.13475 0.4285 0.56919 0.0
H3490 H 0.07753 0.48097 0.51393 0.0
H3491 H 0.10184 0.50303 0.52137 0.0
H3492 H 0.09832 0.48128 0.49297 0.0
H3493 H 0.13086 0.44994 0.60866 0.0
H3494 H 0.12643 0.47929 0.60897 0.0
H3495 H 0.10315 0.45626 0.60503 0.0
H3496 H 0.104 0.5483 0.59016 0.0
H3497 H 0.04427 0.49759 0.57986 0.0
H3498 H 0.13442 0.51767 0.55546 0.0
H3499 H 0.14181 0.50883 0.58575 0.0
H3500 H 0.13865 0.53842 0.58477 0.0
H3501 H 0.05833 0.45584 0.54182 0.0
H3502 H 0.04442 0.45748 0.5697 0.0
H3503 H 0.07045 0.44723 0.57063 0.0
C3504 C 0.47288 0.29856 0.23552 0.0
C3505 C 0.45937 0.28789 0.21229 0.0
C3506 C 0.46372 0.3078 0.25664 0.0
C3507 C 0.44034 0.30502 0.25506 0.0
C3508 C 0.42655 0.29374 0.23165 0.0
C3509 C 0.43633 0.28579 0.21035 0.0
C3510 C 0.4792 0.32088 0.28045 0.0
C3511 C 0.40152 0.2901 0.22829 0.0
C3512 C 0.42229 0.31067 0.3213 0.0
C3513 C 0.41244 0.33045 0.32201 0.0
C3514 C 0.43088 0.30185 0.29946 0.0
C3515 C 0.43069 0.31375 0.2781 0.0
C3516 C 0.42197 0.33447 0.27923 0.0
C3517 C 0.41246 0.3422 0.30079 0.0
C3518 C 0.43961 0.2795 0.29968 0.0
C3519 C 0.4222 0.34838 0.2575 0.0
H3520 H 0.49078 0.30083 0.23676 0.0
H3521 H 0.42592 0.27792 0.19217 0.0
H3522 H 0.47324 0.33674 0.28826 0.0
H3523 H 0.47981 0.30978 0.29558 0.0
H3524 H 0.49638 0.32594 0.27647 0.0
H3525 H 0.39545 0.29971 0.21314 0.0
H3526 H 0.39456 0.27149 0.2213 0.0
H3527 H 0.39486 0.29573 0.24611 0.0
H3528 H 0.42309 0.30178 0.33775 0.0
H3529 H 0.40454 0.3572 0.3006 0.0
H3530 H 0.45295 0.28157 0.31645 0.0
H3531 H 0.44605 0.27331 0.2819 0.0
H3532 H 0.4261 0.26573 0.30223 0.0
H3533 H 0.43788 0.34877 0.24927 0.0
H3534 H 0.42023 0.36647 0.26399 0.0
H3535 H 0.40821 0.34033 0.24191 0.0
C3536 C 0.64195 0.56248 0.40363 0.0
C3537 C 0.66535 0.5649 0.40923 0.0
C3538 C 0.6279 0.56356 0.42316 0.0
C3539 C 0.63686 0.56771 0.44993 0.0
C3540 C 0.66052 0.57032 0.45582 0.0
C3541 C 0.67422 0.56866 0.43579 0.0
C3542 C 0.60314 0.56006 0.41493 0.0
C3543 C 0.67153 0.57517 0.48357 0.0
C3544 C 0.60042 0.59335 0.49873 0.0
C3545 C 0.59159 0.57448 0.51022 0.0
C3546 C 0.61518 0.59149 0.48004 0.0
C3547 C 0.62157 0.57 0.4713 0.0
C3548 C 0.61258 0.55077 0.48267 0.0
C3549 C 0.59821 0.55326 0.50188 0.0
C3550 C 0.62417 0.61291 0.46974 0.0
C3551 C 0.61808 0.52728 0.4744 0.0
H3552 H 0.63435 0.5594 0.38357 0.0
H3553 H 0.69203 0.5706 0.44104 0.0
H3554 H 0.5947 0.54589 0.42374 0.0
H3555 H 0.59693 0.57598 0.42192 0.0
H3556 H 0.59837 0.55577 0.39364 0.0
H3557 H 0.6899 0.57746 0.48543 0.0
H3558 H 0.66702 0.59105 0.49368 0.0
H3559 H 0.66547 0.56072 0.49351 0.0
H3560 H 0.59606 0.61005 0.50471 0.0
H3561 H 0.592 0.53836 0.51026 0.0
H3562 H 0.61833 0.61063 0.4487 0.0
H3563 H 0.64258 0.61572 0.47255 0.0
H3564 H 0.61895 0.62863 0.47929 0.0
H3565 H 0.60881 0.51367 0.4833 0.0
H3566 H 0.63612 0.52782 0.47992 0.0
H3567 H 0.61419 0.5224 0.45309 0.0
C3568 C 0.23757 0.87341 0.15112 0.0
C3569 C 0.24953 0.89126 0.141 0.0
C3570 C 0.24545 0.86768 0.1752 0.0
C3571 C 0.26633 0.87941 0.18919 0.0
C3572 C 0.27814 0.89793 0.17935 0.0
C3573 C 0.26953 0.90373 0.15558 0.0
C3574 C 0.23186 0.84832 0.18507 0.0
C3575 C 0.30061 0.91068 0.1931 0.0
C3576 C 0.2816 0.87376 0.2603 0.0
C3577 C 0.29359 0.85547 0.2588 0.0
C3578 C 0.27274 0.88171 0.23801 0.0
C3579 C 0.27622 0.87156 0.21333 0.0
C3580 C 0.28883 0.85351 0.21172 0.0
C3581 C 0.2971 0.84554 0.23433 0.0
C3582 C 0.25907 0.90058 0.24085 0.0
C3583 C 0.29342 0.8424 0.186 0.0
H3584 H 0.22243 0.86327 0.13967 0.0
H3585 H 0.27926 0.91697 0.14748 0.0
H3586 H 0.24042 0.83324 0.18432 0.0
H3587 H 0.23015 0.85382 0.20552 0.0
H3588 H 0.21502 0.84268 0.17356 0.0
H3589 H 0.30706 0.92558 0.18397 0.0
H3590 H 0.29977 0.91709 0.21359 0.0
H3591 H 0.31262 0.89864 0.1929 0.0
H3592 H 0.27847 0.88148 0.27897 0.0
H3593 H 0.30626 0.83141 0.2328 0.0
H3594 H 0.24197 0.89399 0.2304 0.0
H3595 H 0.26622 0.91538 0.23205 0.0
H3596 H 0.25811 0.90697 0.26135 0.0
H3597 H 0.27759 0.83355 0.17373 0.0
H3598 H 0.30451 0.82956 0.18802 0.0
H3599 H 0.30122 0.85585 0.17576 0.0
C3600 C 0.97332 0.64129 0.92464 0.0
C3601 C 0.9859 0.64558 0.90498 0.0
C3602 C 0.98229 0.63311 0.94674 0.0
C3603 C 1.00446 0.62908 0.94944 0.0
C3604 C 1.01746 0.6342 0.9301 0.0
C3605 C 1.00808 0.64236 0.90823 0.0
C3606 C 0.96771 0.62791 0.96673 0.0
C3607 C 0.04108 0.63013 0.93193 0.0
C3608 C 0.03288 0.61965 0.01517 0.0
C3609 C 0.02943 0.59541 0.01226 0.0
C3610 C 1.02495 0.6309 0.99498 0.0
C3611 C 1.01338 0.61766 0.97122 0.0
C3612 C 1.01025 0.5932 0.96814 0.0
C3613 C 1.01826 0.58247 0.98857 0.0
C3614 C 0.02864 0.65698 0.99919 0.0
C3615 C 0.99816 0.57823 0.94329 0.0
H3616 H 0.95616 0.6436 0.92239 0.0
H3617 H 1.01802 0.64561 0.89326 0.0
H3618 H 0.96421 0.60897 0.96661 0.0
H3619 H 0.97636 0.6362 0.98629 0.0
H3620 H 0.95165 0.63395 0.96315 0.0
H3621 H 0.04959 0.63668 0.91648 0.0
H3622 H 0.05073 0.63867 0.95093 0.0
H3623 H 0.04118 0.61132 0.93041 0.0
H3624 H 0.04136 0.62981 0.0334 0.0
H3625 H 1.01551 0.56374 0.98603 0.0
H3626 H 1.0124 0.66282 0.99735 0.0
H3627 H 0.03766 0.66356 0.98416 0.0
H3628 H 0.03824 0.66484 0.01847 0.0
H3629 H 0.98089 0.58138 0.93959 0.0
H3630 H 0.99755 0.55949 0.9437 0.0
H3631 H 1.00639 0.5828 0.92683 0.0
C3632 C 0.32291 0.18173 0.57462 0.0
C3633 C 0.30129 0.16899 0.5685 0.0
C3634 C 0.33122 0.19277 0.59995 0.0
C3635 C 0.31716 0.19139 0.61894 0.0
C3636 C 0.297 0.17516 0.61364 0.0
C3637 C 0.28917 0.16413 0.58819 0.0
C3638 C 0.35336 0.20891 0.60527 0.0
C3639 C 0.28195 0.1725 0.6337 0.0
C3640 C 0.3285 0.22951 0.68483 0.0
C3641 C 0.31726 0.24751 0.67959 0.0
C3642 C 0.32976 0.2115 0.66509 0.0
C3643 C 0.31937 0.21152 0.63973 0.0
C3644 C 0.30909 0.23034 0.63417 0.0
C3645 C 0.30814 0.24801 0.65416 0.0
C3646 C 0.34127 0.19209 0.67182 0.0
C3647 C 0.298 0.23135 0.60729 0.0
H3648 H 0.33228 0.18528 0.55922 0.0
H3649 H 0.27244 0.15417 0.58327 0.0
H3650 H 0.35078 0.22663 0.60299 0.0
H3651 H 0.36166 0.20962 0.62529 0.0
H3652 H 0.36447 0.20351 0.59156 0.0
H3653 H 0.26943 0.15627 0.62833 0.0
H3654 H 0.29169 0.17253 0.65279 0.0
H3655 H 0.27302 0.18732 0.63556 0.0
H3656 H 0.33588 0.22923 0.70444 0.0
H3657 H 0.29916 0.26164 0.65 0.0
H3658 H 0.34841 0.18408 0.65534 0.0
H3659 H 0.32905 0.17849 0.67724 0.0
H3660 H 0.35471 0.1983 0.68857 0.0
H3661 H 0.30995 0.23005 0.59345 0.0
H3662 H 0.29145 0.24761 0.60623 0.0
H3663 H 0.28399 0.21657 0.6009 0.0
C3664 C 0.67003 0.56669 0.25348 0.0
C3665 C 0.65949 0.55469 0.27092 0.0
C3666 C 0.65873 0.56777 0.22861 0.0
C3667 C 0.63614 0.55671 0.22066 0.0
C3668 C 0.62587 0.54362 0.23777 0.0
C3669 C 0.63748 0.54297 0.26246 0.0
C3670 C 0.67062 0.58195 0.21142 0.0
C3671 C 0.60205 0.5313 0.23061 0.0
C3672 C 0.59746 0.58073 0.17165 0.0
C3673 C 0.59615 0.5654 0.14841 0.0
C3674 C 0.61052 0.5783 0.19488 0.0
C3675 C 0.62277 0.55996 0.19545 0.0
C3676 C 0.62149 0.54441 0.17204 0.0
C3677 C 0.6084 0.54732 0.14904 0.0
C3678 C 0.6111 0.59543 0.21899 0.0
C3679 C 0.63388 0.52446 0.17131 0.0
H3680 H 0.68665 0.57658 0.25992 0.0
H3681 H 0.62882 0.53424 0.27588 0.0
H3682 H 0.66868 0.57191 0.19169 0.0
H3683 H 0.66313 0.59757 0.20982 0.0
H3684 H 0.68861 0.58755 0.21895 0.0
H3685 H 0.59705 0.52008 0.24472 0.0
H3686 H 0.59096 0.54422 0.22975 0.0
H3687 H 0.59943 0.5205 0.21121 0.0
H3688 H 0.58827 0.59483 0.17174 0.0
H3689 H 0.60769 0.53522 0.13147 0.0
H3690 H 0.6285 0.60382 0.22685 0.0
H3691 H 0.60446 0.58629 0.234 0.0
H3692 H 0.60125 0.60908 0.21546 0.0
H3693 H 0.65188 0.53103 0.17776 0.0
H3694 H 0.63154 0.514 0.15171 0.0
H3695 H 0.62813 0.513 0.18485 0.0
C3696 C 0.25023 0.90366 0.98713 0.0
C3697 C 0.23877 0.89049 1.00294 0.0
C3698 C 0.2583 0.89301 0.96545 0.0
C3699 C 0.25443 0.86849 0.9588 0.0
C3700 C 0.24219 0.85519 0.97424 0.0
C3701 C 0.23486 0.86626 0.99619 0.0
C3702 C 0.27169 0.90805 0.95019 0.0
C3703 C 0.23708 0.82912 0.96779 0.0
C3704 C 0.26242 0.84191 0.89048 0.0
C3705 C 0.28329 0.83535 0.89498 0.0
C3706 C 0.25264 0.85221 0.91094 0.0
C3707 C 0.26415 0.85675 0.93666 0.0
C3708 C 0.28519 0.85008 0.94126 0.0
C3709 C 0.29428 0.83928 0.92059 0.0
C3710 C 0.23003 0.85846 0.90495 0.0
C3711 C 0.29847 0.85495 0.96804 0.0
H3712 H 0.25364 0.92235 0.99226 0.0
H3713 H 0.22606 0.85586 0.00819 0.0
H3714 H 0.28873 0.90413 0.95133 0.0
H3715 H 0.26419 0.90427 0.92954 0.0
H3716 H 0.27286 0.92679 0.95733 0.0
H3717 H 0.22587 0.82132 0.98027 0.0
H3718 H 0.22922 0.82359 0.94734 0.0
H3719 H 0.25271 0.82215 0.97016 0.0
H3720 H 0.25379 0.83918 0.87085 0.0
H3721 H 0.3105 0.83463 0.92448 0.0
H3722 H 0.23136 0.87752 0.90916 0.0
H3723 H 0.21871 0.85088 0.91743 0.0
H3724 H 0.22249 0.85233 0.88445 0.0
H3725 H 0.30152 0.87379 0.97555 0.0
H3726 H 0.31472 0.84913 0.96847 0.0
H3727 H 0.28897 0.84613 0.98135 0.0
C3728 C 0.98898 0.64118 0.75195 0.0
C3729 C 0.98439 0.62403 0.76715 0.0
C3730 C 0.99607 0.63587 0.72774 0.0
C3731 C 0.99861 0.61287 0.71853 0.0
C3732 C 0.99285 0.59539 0.73335 0.0
C3733 C 0.98603 0.60121 0.7574 0.0
C3734 C 1.00196 0.65509 0.71267 0.0
C3735 C 0.99496 0.57063 0.72442 0.0
C3736 C 1.00384 0.59298 0.6478 0.0
C3737 C 0.02682 0.59355 0.64886 0.0
C3738 C 0.99452 0.5996 0.67006 0.0
C3739 C 1.00839 0.60711 0.69425 0.0
C3740 C 0.0316 0.60782 0.69545 0.0
C3741 C 0.04049 0.60104 0.67288 0.0
C3742 C 0.96973 0.5984 0.66771 0.0
C3743 C 0.04711 0.61569 0.72071 0.0
H3744 H 0.98826 0.65893 0.7596 0.0
H3745 H 0.98281 0.58793 0.76922 0.0
H3746 H 1.02013 0.65828 0.71245 0.0
H3747 H 0.99368 0.65005 0.69234 0.0
H3748 H 0.99718 0.67147 0.72108 0.0
H3749 H 0.98821 0.55878 0.73712 0.0
H3750 H 0.98608 0.5645 0.70446 0.0
H3751 H 1.01269 0.56954 0.72417 0.0
H3752 H 0.993 0.5874 0.62944 0.0
H3753 H 0.05825 0.60181 0.67406 0.0
H3754 H 0.96601 0.61558 0.67506 0.0
H3755 H 0.96267 0.58609 0.67972 0.0
H3756 H 0.96123 0.59278 0.64748 0.0
H3757 H 0.04511 0.63322 0.72944 0.0
H3758 H 0.06479 0.61615 0.71837 0.0
H3759 H 0.04288 0.60386 0.73448 0.0
C3760 C 0.26664 0.2088 0.45543 0.0
C3761 C 0.26714 0.18617 0.44367 0.0
C3762 C 0.26687 0.22691 0.44118 0.0
C3763 C 0.2677 0.22236 0.41449 0.0
C3764 C 0.26701 0.19934 0.40218 0.0
C3765 C 0.26668 0.18143 0.41697 0.0
C3766 C 0.2674 0.25113 0.45498 0.0
C3767 C 0.26775 0.19385 0.37365 0.0
C3768 C 0.25653 0.26612 0.371 0.0
C3769 C 0.27814 0.27563 0.36818 0.0
C3770 C 0.25279 0.2494 0.38696 0.0
C3771 C 0.27116 0.2419 0.39991 0.0
C3772 C 0.29305 0.2525 0.39814 0.0
C3773 C 0.29625 0.26927 0.3822 0.0
C3774 C 0.22924 0.23872 0.38855 0.0
C3775 C 0.31309 0.24508 0.41171 0.0
H3776 H 0.26682 0.2126 0.47606 0.0
H3777 H 0.26709 0.164 0.40783 0.0
H3778 H 0.28386 0.26192 0.45516 0.0
H3779 H 0.25475 0.2593 0.44469 0.0
H3780 H 0.26438 0.25139 0.47523 0.0
H3781 H 0.2653 0.17494 0.36666 0.0
H3782 H 0.25478 0.20107 0.36258 0.0
H3783 H 0.28406 0.20208 0.3695 0.0
H3784 H 0.24258 0.27064 0.35942 0.0
H3785 H 0.31292 0.2763 0.37936 0.0
H3786 H 0.22703 0.23817 0.40891 0.0
H3787 H 0.22555 0.22061 0.37818 0.0
H3788 H 0.21698 0.24834 0.37987 0.0
H3789 H 0.31211 0.24588 0.43256 0.0
H3790 H 0.32891 0.25602 0.40958 0.0
H3791 H 0.31345 0.22686 0.40365 0.0
C3792 C 0.43142 0.68196 0.54581 0.0
C3793 C 0.4252 0.68751 0.57022 0.0
C3794 C 0.44612 0.66629 0.5413 0.0
C3795 C 0.45571 0.65631 0.56185 0.0
C3796 C 0.44959 0.66208 0.58665 0.0
C3797 C 0.43414 0.67713 0.59038 0.0
C3798 C 0.45129 0.66028 0.51436 0.0
C3799 C 0.45971 0.65265 0.60944 0.0
C3800 C 0.48438 0.60287 0.55019 0.0
C3801 C 0.50692 0.61316 0.55346 0.0
C3802 C 0.46749 0.61654 0.55212 0.0
C3803 C 0.47313 0.64117 0.55781 0.0
C3804 C 0.4958 0.6515 0.56019 0.0
C3805 C 0.51215 0.63753 0.55781 0.0
C3806 C 0.44364 0.60456 0.5489 0.0
C3807 C 0.50304 0.67745 0.56642 0.0
H3808 H 0.42429 0.6895 0.52997 0.0
H3809 H 0.42933 0.6811 0.60924 0.0
H3810 H 0.46915 0.66648 0.51398 0.0
H3811 H 0.44798 0.64122 0.50832 0.0
H3812 H 0.44134 0.66805 0.50009 0.0
H3813 H 0.45331 0.65858 0.62742 0.0
H3814 H 0.45619 0.63347 0.60545 0.0
H3815 H 0.47802 0.65816 0.61265 0.0
H3816 H 0.47998 0.58417 0.5473 0.0
H3817 H 0.5294 0.64585 0.56038 0.0
H3818 H 0.43301 0.61247 0.53548 0.0
H3819 H 0.43761 0.60675 0.56777 0.0
H3820 H 0.44156 0.58576 0.54148 0.0
H3821 H 0.49458 0.68577 0.55153 0.0
H3822 H 0.52126 0.68288 0.56761 0.0
H3823 H 0.4982 0.68408 0.58514 0.0
C3824 C 0.92303 1.01178 0.6557 0.0
C3825 C 0.90434 0.02118 0.64805 0.0
C3826 C 0.94392 0.02084 0.65008 0.0
C3827 C 0.94596 0.0395 0.6361 0.0
C3828 C 0.9277 0.05082 0.63125 0.0
C3829 C 0.90699 0.04151 0.63738 0.0
C3830 C 0.96302 1.0085 0.65613 0.0
C3831 C 0.92923 0.07094 0.61672 0.0
C3832 C 1.00355 0.06096 0.6208 0.0
C3833 C 1.00293 0.04716 0.59682 0.0
C3834 C 0.9849 0.05938 0.63359 0.0
C3835 C 0.96527 0.04359 0.62208 0.0
C3836 C 0.96441 0.03021 0.59744 0.0
C3837 C 0.98325 0.03216 0.58516 0.0
C3838 C 0.98646 0.07399 0.65971 0.0
C3839 C 0.94375 1.01327 0.58432 0.0
H3840 H 0.92088 0.99593 0.66378 0.0
H3841 H 0.89245 0.04857 0.63112 0.0
H3842 H 0.9653 0.99744 0.6383 0.0
H3843 H 0.9787 0.02107 0.66314 0.0
H3844 H 0.95999 0.99731 0.67089 0.0
H3845 H 0.91566 0.08085 0.6195 0.0
H3846 H 0.94543 0.08283 0.62286 0.0
H3847 H 0.92788 0.06433 0.5958 0.0
H3848 H 1.01875 0.0727 0.62981 0.0
H3849 H 0.98268 0.02161 0.56654 0.0
H3850 H 0.98713 0.06285 0.6748 0.0
H3851 H 0.97156 0.08211 0.66082 0.0
H3852 H 1.00149 0.0878 0.66417 0.0
H3853 H 0.94012 0.99942 0.59601 0.0
H3854 H 0.94546 1.00506 0.56466 0.0
H3855 H 0.92926 0.02215 0.58279 0.0
C3856 C 0.86742 0.15045 0.31715 0.0
C3857 C 0.88998 0.15074 0.31426 0.0
C3858 C 0.85764 0.17103 0.32037 0.0
C3859 C 0.86993 0.19357 0.31957 0.0
C3860 C 0.89264 0.1938 0.31592 0.0
C3861 C 0.90224 0.17305 0.31407 0.0
C3862 C 0.83385 0.16815 0.32498 0.0
C3863 C 0.90737 0.21602 0.31367 0.0
C3864 C 0.83247 0.24095 0.3063 0.0
C3865 C 0.83881 0.25892 0.32797 0.0
C3866 C 0.84257 0.2206 0.30304 0.0
C3867 C 0.85921 0.21634 0.32246 0.0
C3868 C 0.86532 0.23432 0.34471 0.0
C3869 C 0.85574 0.25509 0.34676 0.0
C3870 C 0.83522 0.20394 0.27802 0.0
C3871 C 0.88206 0.232 0.36706 0.0
H3872 H 0.85725 0.13391 0.31767 0.0
H3873 H 0.91959 0.17439 0.31191 0.0
H3874 H 0.82997 0.18416 0.33554 0.0
H3875 H 0.82276 0.16336 0.30613 0.0
H3876 H 0.83002 0.1539 0.33612 0.0
H3877 H 0.91899 0.2127 0.2998 0.0
H3878 H 0.89778 0.22904 0.30733 0.0
H3879 H 0.91758 0.2234 0.33271 0.0
H3880 H 0.81983 0.24307 0.29108 0.0
H3881 H 0.86134 0.26826 0.36373 0.0
H3882 H 0.81923 0.1928 0.27903 0.0
H3883 H 0.8475 0.19277 0.27369 0.0
H3884 H 0.83225 0.21348 0.26171 0.0
H3885 H 0.88343 0.21373 0.36798 0.0
H3886 H 0.87765 0.2398 0.38561 0.0
H3887 H 0.89854 0.24167 0.3652 0.0
C3888 C 0.80269 0.18951 0.0705 0.0
C3889 C 0.80456 0.21205 0.06475 0.0
C3890 C 0.78216 0.17702 0.07359 0.0
C3891 C 0.76302 0.18729 0.0709 0.0
C3892 C 0.76459 0.2096 0.064 0.0
C3893 C 0.78531 0.22169 0.06098 0.0
C3894 C 0.78112 0.15319 0.08075 0.0
C3895 C 0.74454 0.22112 0.06087 0.0
C3896 C 0.70511 0.15129 0.06367 0.0
C3897 C 0.70019 0.15573 0.08884 0.0
C3898 C 0.72572 0.16094 0.05762 0.0
C3899 C 0.7417 0.17552 0.07715 0.0
C3900 C 0.73704 0.1796 0.1027 0.0
C3901 C 0.71642 0.16957 0.10824 0.0
C3902 C 0.73017 0.15604 0.03021 0.0
C3903 C 0.75366 0.19501 0.1241 0.0
H3904 H 0.81739 0.18179 0.07332 0.0
H3905 H 0.78648 0.23901 0.05639 0.0
H3906 H 0.77729 0.15359 0.10067 0.0
H3907 H 0.76761 0.14068 0.06776 0.0
H3908 H 0.79699 0.1468 0.07977 0.0
H3909 H 0.7482 0.2378 0.0537 0.0
H3910 H 0.73077 0.20955 0.04725 0.0
H3911 H 0.73861 0.22448 0.07971 0.0
H3912 H 0.69262 0.14082 0.0485 0.0
H3913 H 0.71294 0.17272 0.12784 0.0
H3914 H 0.74605 0.14962 0.02978 0.0
H3915 H 0.73187 0.17226 0.02195 0.0
H3916 H 0.71668 0.14306 0.0177 0.0
H3917 H 0.76959 0.18856 0.12581 0.0
H3918 H 0.74769 0.19596 0.14305 0.0
H3919 H 0.75714 0.21277 0.11952 0.0
C3920 C 0.20514 0.45905 0.32094 0.0
C3921 C 0.1836 0.45579 0.3274 0.0
C3922 C 0.21816 0.44154 0.32123 0.0
C3923 C 0.2097 0.42008 0.3284 0.0
C3924 C 0.18773 0.41651 0.33433 0.0
C3925 C 0.17509 0.43435 0.33388 0.0
C3926 C 0.24106 0.44602 0.3138 0.0
C3927 C 0.17746 0.39426 0.3421 0.0
C3928 C 0.23636 0.36755 0.30814 0.0
C3929 C 0.25165 0.36733 0.33013 0.0
C3930 C 0.22256 0.3843 0.30744 0.0
C3931 C 0.22383 0.40152 0.32932 0.0
C3932 C 0.23907 0.40128 0.35174 0.0
C3933 C 0.25291 0.38441 0.3518 0.0
C3934 C 0.20668 0.38365 0.28311 0.0
C3935 C 0.24039 0.41858 0.37589 0.0
H3936 H 0.21197 0.47546 0.31581 0.0
H3937 H 0.15857 0.43155 0.33907 0.0
H3938 H 0.25371 0.44517 0.33032 0.0
H3939 H 0.24248 0.43243 0.2977 0.0
H3940 H 0.24497 0.46319 0.30777 0.0
H3941 H 0.15922 0.3904 0.33566 0.0
H3942 H 0.18456 0.37923 0.33424 0.0
H3943 H 0.18029 0.39637 0.36345 0.0
H3944 H 0.23553 0.35487 0.29105 0.0
H3945 H 0.26458 0.38447 0.36892 0.0
H3946 H 0.21004 0.40036 0.27599 0.0
H3947 H 0.18939 0.38126 0.2873 0.0
H3948 H 0.20792 0.36945 0.26757 0.0
H3949 H 0.24544 0.43638 0.372 0.0
H3950 H 0.25237 0.41565 0.39206 0.0
H3951 H 0.22375 0.41751 0.38196 0.0
C3952 C 0.28882 0.54514 0.18104 0.0
C3953 C 0.28552 0.52095 0.17488 0.0
C3954 C 0.27094 0.55694 0.17723 0.0
C3955 C 0.2494 0.54419 0.16709 0.0
C3956 C 0.24569 0.51973 0.16379 0.0
C3957 C 0.2638 0.50842 0.16776 0.0
C3958 C 0.27552 0.58304 0.18158 0.0
C3959 C 0.22301 0.50537 0.15332 0.0
C3960 C 0.19758 0.57126 0.15792 0.0
C3961 C 0.19581 0.57334 0.13169 0.0
C3962 C 0.21544 0.56275 0.17016 0.0
C3963 C 0.23175 0.5559 0.15574 0.0
C3964 C 0.23034 0.55859 0.12945 0.0
C3965 C 0.21247 0.56734 0.11782 0.0
C3966 C 0.21644 0.56044 0.19825 0.0
C3967 C 0.24726 0.55134 0.11325 0.0
H3968 H 0.30557 0.55495 0.18652 0.0
H3969 H 0.26114 0.4897 0.16319 0.0
H3970 H 0.27601 0.58905 0.16275 0.0
H3971 H 0.26215 0.59006 0.19045 0.0
H3972 H 0.29168 0.59028 0.19413 0.0
H3973 H 0.22223 0.48694 0.1555 0.0
H3974 H 0.21009 0.51226 0.16321 0.0
H3975 H 0.21893 0.50619 0.1325 0.0
H3976 H 0.18488 0.57611 0.16884 0.0
H3977 H 0.21109 0.56863 0.09751 0.0
H3978 H 0.23336 0.56754 0.20895 0.0
H3979 H 0.21268 0.54187 0.19999 0.0
H3980 H 0.20436 0.56944 0.20759 0.0
H3981 H 0.26423 0.56005 0.12254 0.0
H3982 H 0.24434 0.5555 0.09346 0.0
H3983 H 0.24669 0.53241 0.11174 0.0
C3984 C 0.8938 0.99267 0.29913 0.0
C3985 C 0.88986 0.0136 0.31273 0.0
C3986 C 0.88196 0.97028 0.30097 0.0
C3987 C 0.86563 0.96758 0.31759 0.0
C3988 C 0.86125 0.98865 0.33117 0.0
C3989 C 0.8731 1.011 0.32852 0.0
C3990 C 0.88758 0.94924 0.28549 0.0
C3991 C 0.84463 0.98757 0.34962 0.0
C3992 C 0.82522 0.90705 0.31066 0.0
C3993 C 0.83609 0.89541 0.32859 0.0
C3994 C 0.83423 0.93017 0.30707 0.0
C3995 C 0.85466 0.94295 0.32196 0.0
C3996 C 0.86526 0.9314 0.34047 0.0
C3997 C 0.8562 0.90827 0.34326 0.0
C3998 C 0.82202 0.94077 0.28672 0.0
C3999 C 0.88663 0.94347 0.35746 0.0
H4000 H 0.90681 0.99375 0.2872 0.0
H4001 H 0.87 0.02644 0.34 0.0
H4002 H 0.89589 0.93922 0.29867 0.0
H4003 H 0.8722 0.93775 0.27485 0.0
H4004 H 0.89873 0.95388 0.27145 0.0
H4005 H 0.84157 1.00498 0.35731 0.0
H4006 H 0.82865 0.9766 0.33995 0.0
H4007 H 0.85084 0.97943 0.36604 0.0
H4008 H 0.80988 0.89785 0.29883 0.0
H4009 H 0.86514 0.90013 0.35728 0.0
H4010 H 0.83269 0.94427 0.27187 0.0
H4011 H 0.81837 0.95761 0.29541 0.0
H4012 H 0.8062 0.92938 0.27713 0.0
H4013 H 0.89991 0.94664 0.34548 0.0
H4014 H 0.89218 0.93322 0.37222 0.0
H4015 H 0.88454 0.96056 0.36741 0.0
C4016 C 0.66608 0.10286 0.82979 0.0
C4017 C 0.67355 0.08205 0.83231 0.0
C4018 C 0.68045 0.12227 0.82534 0.0
C4019 C 0.70291 0.12095 0.82356 0.0
C4020 C 0.71079 0.10034 0.82711 0.0
C4021 C 0.69603 0.08115 0.83137 0.0
C4022 C 0.67139 0.14393 0.82163 0.0
C4023 C 0.73468 0.09833 0.82566 0.0
C4024 C 0.73334 0.1612 0.78457 0.0
C4025 C 0.74551 0.17897 0.80392 0.0
C4026 C 0.71952 0.14221 0.79071 0.0
C4027 C 0.7179 0.1408 0.81688 0.0
C4028 C 0.73036 0.15847 0.83654 0.0
C4029 C 0.74391 0.17736 0.82983 0.0
C4030 C 0.70649 0.12372 0.76916 0.0
C4031 C 0.72919 0.15755 0.86466 0.0
H4032 H 0.64877 0.1038 0.83042 0.0
H4033 H 0.70207 0.06524 0.83341 0.0
H4034 H 0.68155 0.15908 0.83503 0.0
H4035 H 0.67236 0.14731 0.80172 0.0
H4036 H 0.65384 0.14259 0.82488 0.0
H4037 H 0.73855 0.08166 0.83051 0.0
H4038 H 0.73826 0.09971 0.8059 0.0
H4039 H 0.74599 0.11273 0.83905 0.0
H4040 H 0.73468 0.16207 0.76453 0.0
H4041 H 0.75293 0.19114 0.84495 0.0
H4042 H 0.68846 0.12231 0.76991 0.0
H4043 H 0.71089 0.10667 0.77155 0.0
H4044 H 0.70961 0.12735 0.74982 0.0
H4045 H 0.71199 0.15792 0.86845 0.0
H4046 H 0.74054 0.17222 0.87765 0.0
H4047 H 0.73351 0.14111 0.86958 0.0
loop_
_geom_bond_atom_site_label_1
_geom_bond_atom_site_label_2
_geom_bond_distance
_geom_bond_site_symmetry_2
_ccdc_geom_bond_type
Co0 O1 2.216 . S
Co0 O2 2.091 . S
Co0 O4 2.004 . S
Co0 O10 2.021 . S
Co0 O12 2.137 . S
Co0 O13 2.244 . S
O1 Co0 2.216 . S
O1 C8 1.247 . S
O2 Co0 2.091 . S
O2 C8 1.261 . S
C3 O12 1.247 . S
C3 O13 1.272 . S
O4 Co0 2.004 . S
O4 C9 1.259 . S
Co5 O6 2.061 . S
Co5 O11 2.052 . S
Co5 O13 2.135 . S
O6 Co5 2.061 . S
O6 C9 1.235 . S
C7 O10 1.238 . S
C7 O11 1.241 . S
C8 O1 1.247 . S
C8 O2 1.261 . S
C9 O4 1.259 . S
C9 O6 1.235 . S
O10 Co0 2.021 . S
O10 C7 1.238 . S
O11 Co5 2.052 . S
O11 C7 1.241 . S
O12 Co0 2.137 . S
O12 C3 1.247 . S
O13 Co0 2.244 . S
O13 C3 1.272 . S
O13 Co5 2.135 . S
Co14 O15 2.216 . S
Co14 O16 2.091 . S
Co14 O18 2.004 1_655 S
Co14 O24 2.021 . S
Co14 O26 2.137 . S
Co14 O27 2.244 1_655 S
O15 Co14 2.216 . S
O15 C22 1.247 . S
O16 Co14 2.091 . S
O16 C22 1.261 . S
C17 O26 1.247 1_455 S
C17 O27 1.272 . S
O18 Co14 2.004 1_455 S
O18 C23 1.259 . S
Co19 O20 2.061 . S
Co19 O25 2.052 . S
Co19 O27 2.135 . S
O20 Co19 2.061 . S
O20 C23 1.235 . S
C21 O24 1.238 . S
C21 O25 1.241 1_655 S
C22 O15 1.247 . S
C22 O16 1.261 . S
C23 O18 1.259 . S
C23 O20 1.235 . S
O24 Co14 2.021 . S
O24 C21 1.238 . S
O25 Co19 2.052 . S
O25 C21 1.241 1_455 S
O26 Co14 2.137 . S
O26 C17 1.247 1_655 S
O27 Co14 2.244 1_455 S
O27 C17 1.272 . S
O27 Co19 2.135 . S
Co28 O29 2.216 1_556 S
Co28 O30 2.091 . S
Co28 O32 2.004 . S
Co28 O38 2.021 1_556 S
Co28 O40 2.137 . S
Co28 O41 2.244 1_556 S
O29 Co28 2.216 1_554 S
O29 C36 1.247 1_554 S
O30 Co28 2.091 . S
O30 C36 1.261 . S
C31 O40 1.216 1_554 S
C31 O41 1.272 . S
O32 Co28 2.004 . S
O32 C37 1.259 . S
Co33 O34 2.061 . S
Co33 O39 2.052 . S
Co33 O41 2.135 . S
O34 Co33 2.061 . S
O34 C37 1.235 1_554 S
C35 O38 1.238 . S
C35 O39 1.241 . S
C36 O29 1.247 1_556 S
C36 O30 1.261 . S
C37 O32 1.259 . S
C37 O34 1.235 1_556 S
O38 Co28 2.021 1_554 S
O38 C35 1.238 . S
O39 Co33 2.052 . S
O39 C35 1.241 . S
O40 Co28 2.137 . S
O40 C31 1.216 1_556 S
O41 Co28 2.244 1_554 S
O41 C31 1.272 . S
O41 Co33 2.135 . S
Co42 O43 2.216 . S
Co42 O44 2.091 . S
Co42 O46 2.004 . S
Co42 O52 2.021 . S
Co42 O54 2.137 . S
Co42 O55 2.244 . S
O43 Co42 2.216 . S
O43 C50 1.247 . S
O44 Co42 2.091 . S
O44 C50 1.261 . S
C45 O54 1.247 . S
C45 O55 1.272 . S
O46 Co42 2.004 . S
O46 C51 1.259 . S
Co47 O48 2.061 . S
Co47 O53 2.052 . S
Co47 O55 2.135 . S
O48 Co47 2.061 . S
O48 C51 1.235 . S
C49 O52 1.238 . S
C49 O53 1.241 . S
C50 O43 1.247 . S
C50 O44 1.261 . S
C51 O46 1.259 . S
C51 O48 1.235 . S
O52 Co42 2.021 . S
O52 C49 1.238 . S
O53 Co47 2.052 . S
O53 C49 1.241 . S
O54 Co42 2.137 . S
O54 C45 1.247 . S
O55 Co42 2.244 . S
O55 C45 1.272 . S
O55 Co47 2.135 . S
Co56 O57 2.216 1_455 S
Co56 O58 2.091 . S
Co56 O60 2.004 . S
Co56 O66 2.021 . S
Co56 O68 2.137 . S
Co56 O69 2.244 . S
O57 Co56 2.216 1_655 S
O57 C64 1.247 . S
O58 Co56 2.091 . S
O58 C64 1.261 1_455 S
C59 O68 1.247 . S
C59 O69 1.272 . S
O60 Co56 2.004 . S
O60 C65 1.259 . S
Co61 O62 2.061 . S
Co61 O67 2.052 . S
Co61 O69 2.135 . S
O62 Co61 2.061 . S
O62 C65 1.235 . S
C63 O66 1.238 . S
C63 O67 1.241 . S
C64 O57 1.247 . S
C64 O58 1.261 1_655 S
C65 O60 1.259 . S
C65 O62 1.235 . S
O66 Co56 2.021 . S
O66 C63 1.238 . S
O67 Co61 2.052 . S
O67 C63 1.241 . S
O68 Co56 2.137 . S
O68 C59 1.247 . S
O69 Co56 2.244 . S
O69 C59 1.272 . S
O69 Co61 2.135 . S
Co70 O71 2.216 . S
Co70 O72 2.091 . S
Co70 O74 2.004 . S
Co70 O80 2.021 . S
Co70 O82 2.137 . S
Co70 O83 2.244 . S
O71 Co70 2.216 . S
O71 C78 1.247 . S
O72 Co70 2.091 . S
O72 C78 1.261 . S
C73 O82 1.247 . S
C73 O83 1.272 . S
O74 Co70 2.004 . S
O74 C79 1.259 . S
Co75 O76 2.061 . S
Co75 O81 2.052 . S
Co75 O83 2.135 . S
O76 Co75 2.061 . S
O76 C79 1.235 . S
C77 O80 1.238 . S
C77 O81 1.241 . S
C78 O71 1.247 . S
C78 O72 1.261 . S
C79 O74 1.259 . S
C79 O76 1.235 . S
O80 Co70 2.021 . S
O80 C77 1.238 . S
O81 Co75 2.052 . S
O81 C77 1.241 . S
O82 Co70 2.137 . S
O82 C73 1.247 . S
O83 Co70 2.244 . S
O83 C73 1.272 . S
O83 Co75 2.135 . S
Co84 O85 2.216 . S
Co84 O86 2.091 . S
Co84 O88 2.004 . S
Co84 O94 2.021 . S
Co84 O96 2.137 . S
Co84 O97 2.244 . S
O85 Co84 2.216 . S
O85 C92 1.247 . S
O86 Co84 2.091 . S
O86 C92 1.261 . S
C87 O96 1.247 . S
C87 O97 1.272 . S
O88 Co84 2.004 . S
O88 C93 1.259 . S
Co89 O90 2.061 . S
Co89 O95 2.052 . S
Co89 O97 2.135 . S
O90 Co89 2.061 . S
O90 C93 1.235 . S
C91 O94 1.238 . S
C91 O95 1.241 . S
C92 O85 1.247 . S
C92 O86 1.261 . S
C93 O88 1.259 . S
C93 O90 1.235 . S
O94 Co84 2.021 . S
O94 C91 1.238 . S
O95 Co89 2.052 . S
O95 C91 1.241 . S
O96 Co84 2.137 . S
O96 C87 1.247 . S
O97 Co84 2.244 . S
O97 C87 1.272 . S
O97 Co89 2.135 . S
Co98 O99 2.216 . S
Co98 O100 2.091 . S
Co98 O102 2.004 . S
Co98 O108 2.021 . S
Co98 O110 2.137 . S
Co98 O111 2.244 . S
O99 Co98 2.216 . S
O99 C106 1.247 . S
O100 Co98 2.091 . S
O100 C106 1.261 . S
C101 O110 1.247 . S
C101 O111 1.272 . S
O102 Co98 2.004 . S
O102 C107 1.259 1_455 S
Co103 O104 2.061 1_455 S
Co103 O109 2.052 . S
Co103 O111 2.135 . S
O104 Co103 2.061 1_655 S
O104 C107 1.235 . S
C105 O108 1.238 . S
C105 O109 1.241 . S
C106 O99 1.247 . S
C106 O100 1.261 . S
C107 O102 1.259 1_655 S
C107 O104 1.235 . S
O108 Co98 2.021 . S
O108 C105 1.238 . S
O109 Co103 2.052 . S
O109 C105 1.241 . S
O110 Co98 2.137 . S
O110 C101 1.247 . S
O111 Co98 2.244 . S
O111 C101 1.272 . S
O111 Co103 2.135 . S
Co112 O113 2.216 . S
Co112 O114 2.091 . S
Co112 O116 2.004 . S
Co112 O122 2.021 . S
Co112 O124 2.137 . S
Co112 O125 2.244 . S
O113 Co112 2.216 . S
O113 C120 1.247 . S
O114 Co112 2.091 . S
O114 C120 1.261 . S
C115 O124 1.247 . S
C115 O125 1.272 . S
O116 Co112 2.004 . S
O116 C121 1.259 . S
Co117 O118 2.061 . S
Co117 O123 2.052 . S
Co117 O125 2.135 . S
O118 Co117 2.061 . S
O118 C121 1.235 . S
C119 O122 1.238 . S
C119 O123 1.241 . S
C120 O113 1.247 . S
C120 O114 1.261 . S
C121 O116 1.259 . S
C121 O118 1.235 . S
O122 Co112 2.021 . S
O122 C119 1.238 . S
O123 Co117 2.052 . S
O123 C119 1.241 . S
O124 Co112 2.137 . S
O124 C115 1.247 . S
O125 Co112 2.244 . S
O125 C115 1.272 . S
O125 Co117 2.135 . S
Co126 O127 2.216 . S
Co126 O128 2.091 . S
Co126 O130 2.004 . S
Co126 O136 2.021 . S
Co126 O138 2.137 . S
Co126 O139 2.244 . S
O127 Co126 2.216 . S
O127 C134 1.247 . S
O128 Co126 2.091 . S
O128 C134 1.261 . S
C129 O138 1.247 . S
C129 O139 1.272 . S
O130 Co126 2.004 . S
O130 C135 1.259 . S
Co131 O132 2.061 . S
Co131 O137 2.052 . S
Co131 O139 2.135 . S
O132 Co131 2.061 . S
O132 C135 1.235 . S
C133 O136 1.238 . S
C133 O137 1.241 . S
C134 O127 1.247 . S
C134 O128 1.261 . S
C135 O130 1.259 . S
C135 O132 1.235 . S
O136 Co126 2.021 . S
O136 C133 1.238 . S
O137 Co131 2.052 . S
O137 C133 1.241 . S
O138 Co126 2.137 . S
O138 C129 1.247 . S
O139 Co126 2.244 . S
O139 C129 1.272 . S
O139 Co131 2.135 . S
Co140 O141 2.171 1_545 S
Co140 O142 2.091 . S
Co140 O144 2.004 . S
Co140 O150 2.021 . S
Co140 O152 2.137 . S
Co140 O153 2.244 . S
O141 Co140 2.171 1_565 S
O141 C148 1.250 . S
O142 Co140 2.091 . S
O142 C148 1.240 1_545 S
C143 O152 1.247 . S
C143 O153 1.272 . S
O144 Co140 2.004 . S
O144 C149 1.259 . S
Co145 O146 2.061 . S
Co145 O151 2.052 . S
Co145 O153 2.135 . S
O146 Co145 2.061 . S
O146 C149 1.235 . S
C147 O150 1.238 . S
C147 O151 1.241 . S
C148 O141 1.250 . S
C148 O142 1.240 1_565 S
C149 O144 1.259 . S
C149 O146 1.235 . S
O150 Co140 2.021 . S
O150 C147 1.238 . S
O151 Co145 2.052 . S
O151 C147 1.241 . S
O152 Co140 2.137 . S
O152 C143 1.247 . S
O153 Co140 2.244 . S
O153 C143 1.272 . S
O153 Co145 2.135 . S
Co154 O155 2.216 . S
Co154 O156 2.091 . S
Co154 O158 2.004 . S
Co154 O164 2.021 . S
Co154 O166 2.137 . S
Co154 O167 2.244 . S
O155 Co154 2.216 . S
O155 C162 1.247 . S
O156 Co154 2.091 . S
O156 C162 1.261 . S
C157 O166 1.247 . S
C157 O167 1.272 . S
O158 Co154 2.004 . S
O158 C163 1.259 . S
Co159 O160 2.061 . S
Co159 O165 2.052 . S
Co159 O167 2.135 . S
O160 Co159 2.061 . S
O160 C163 1.235 . S
C161 O164 1.238 . S
C161 O165 1.241 . S
C162 O155 1.247 . S
C162 O156 1.261 . S
C163 O158 1.259 . S
C163 O160 1.235 . S
O164 Co154 2.021 . S
O164 C161 1.238 . S
O165 Co159 2.052 . S
O165 C161 1.241 . S
O166 Co154 2.137 . S
O166 C157 1.247 . S
O167 Co154 2.244 . S
O167 C157 1.272 . S
O167 Co159 2.135 . S
Co168 O169 2.216 . S
Co168 O170 2.091 . S
Co168 O172 2.004 . S
Co168 O178 2.021 . S
Co168 O180 2.137 . S
Co168 O181 2.244 . S
O169 Co168 2.216 . S
O169 C176 1.247 . S
O170 Co168 2.091 . S
O170 C176 1.261 . S
C171 O180 1.247 . S
C171 O181 1.272 . S
O172 Co168 2.004 . S
O172 C177 1.259 . S
Co173 O174 2.061 . S
Co173 O179 2.052 . S
Co173 O181 2.135 . S
O174 Co173 2.061 . S
O174 C177 1.235 . S
C175 O178 1.238 . S
C175 O179 1.241 . S
C176 O169 1.247 . S
C176 O170 1.261 . S
C177 O172 1.259 . S
C177 O174 1.235 . S
O178 Co168 2.021 . S
O178 C175 1.238 . S
O179 Co173 2.052 . S
O179 C175 1.241 . S
O180 Co168 2.137 . S
O180 C171 1.247 . S
O181 Co168 2.244 . S
O181 C171 1.272 . S
O181 Co173 2.135 . S
Co182 O183 2.216 . S
Co182 O184 2.091 . S
Co182 O186 2.004 . S
Co182 O192 2.021 . S
Co182 O194 2.137 . S
Co182 O195 2.244 . S
O183 Co182 2.216 . S
O183 C190 1.247 . S
O184 Co182 2.091 . S
O184 C190 1.261 . S
C185 O194 1.247 . S
C185 O195 1.272 . S
O186 Co182 2.004 . S
O186 C191 1.259 . S
Co187 O188 2.061 . S
Co187 O193 2.052 . S
Co187 O195 2.135 . S
O188 Co187 2.061 . S
O188 C191 1.235 . S
C189 O192 1.238 . S
C189 O193 1.241 . S
C190 O183 1.247 . S
C190 O184 1.261 . S
C191 O186 1.259 . S
C191 O188 1.235 . S
O192 Co182 2.021 . S
O192 C189 1.238 . S
O193 Co187 2.052 . S
O193 C189 1.241 . S
O194 Co182 2.137 . S
O194 C185 1.247 . S
O195 Co182 2.244 . S
O195 C185 1.272 . S
O195 Co187 2.135 . S
Co196 O197 2.216 . S
Co196 O198 2.091 . S
Co196 O200 2.004 . S
Co196 O206 2.021 . S
Co196 O208 2.137 . S
Co196 O209 2.244 . S
O197 Co196 2.216 . S
O197 C204 1.247 . S
O198 Co196 2.091 . S
O198 C204 1.261 . S
C199 O208 1.247 . S
C199 O209 1.272 . S
O200 Co196 2.004 . S
O200 C205 1.259 . S
Co201 O202 2.061 . S
Co201 O207 2.052 . S
Co201 O209 2.135 . S
O202 Co201 2.061 . S
O202 C205 1.235 . S
C203 O206 1.238 . S
C203 O207 1.241 . S
C204 O197 1.247 . S
C204 O198 1.261 . S
C205 O200 1.259 . S
C205 O202 1.235 . S
O206 Co196 2.021 . S
O206 C203 1.238 . S
O207 Co201 2.052 . S
O207 C203 1.241 . S
O208 Co196 2.137 . S
O208 C199 1.247 . S
O209 Co196 2.244 . S
O209 C199 1.272 . S
O209 Co201 2.135 . S
Co210 O211 2.216 . S
Co210 O212 2.091 1_565 S
Co210 O214 2.004 1_565 S
Co210 O220 2.021 . S
Co210 O222 2.137 . S
Co210 O223 2.244 . S
O211 Co210 2.216 . S
O211 C218 1.247 . S
O212 Co210 2.091 1_545 S
O212 C218 1.261 1_545 S
C213 O222 1.247 . S
C213 O223 1.272 . S
O214 Co210 2.004 1_545 S
O214 C219 1.236 1_545 S
Co215 O216 2.061 . S
Co215 O221 2.052 . S
Co215 O223 2.135 . S
O216 Co215 2.061 . S
O216 C219 1.278 . S
C217 O220 1.238 . S
C217 O221 1.241 . S
C218 O211 1.247 . S
C218 O212 1.261 1_565 S
C219 O214 1.236 1_565 S
C219 O216 1.278 . S
O220 Co210 2.021 . S
O220 C217 1.238 . S
O221 Co215 2.052 . S
O221 C217 1.241 . S
O222 Co210 2.137 . S
O222 C213 1.247 . S
O223 Co210 2.244 . S
O223 C213 1.272 . S
O223 Co215 2.135 . S
Co224 O225 2.216 . S
Co224 O226 2.091 . S
Co224 O228 2.004 . S
Co224 O234 2.021 . S
Co224 O236 2.137 . S
Co224 O237 2.244 . S
O225 Co224 2.216 . S
O225 C232 1.247 . S
O226 Co224 2.091 . S
O226 C232 1.261 . S
C227 O236 1.247 . S
C227 O237 1.272 . S
O228 Co224 2.004 . S
O228 C233 1.259 . S
Co229 O230 2.061 . S
Co229 O235 2.052 . S
Co229 O237 2.135 . S
O230 Co229 2.061 . S
O230 C233 1.235 . S
C231 O234 1.238 . S
C231 O235 1.241 . S
C232 O225 1.247 . S
C232 O226 1.261 . S
C233 O228 1.259 . S
C233 O230 1.235 . S
O234 Co224 2.021 . S
O234 C231 1.238 . S
O235 Co229 2.052 . S
O235 C231 1.241 . S
O236 Co224 2.137 . S
O236 C227 1.247 . S
O237 Co224 2.244 . S
O237 C227 1.272 . S
O237 Co229 2.135 . S
Co238 O239 2.216 . S
Co238 O240 2.091 . S
Co238 O242 2.004 . S
Co238 O248 2.021 . S
Co238 O250 2.137 . S
Co238 O251 2.244 . S
O239 Co238 2.216 . S
O239 C246 1.247 . S
O240 Co238 2.091 . S
O240 C246 1.261 . S
C241 O250 1.247 . S
C241 O251 1.272 . S
O242 Co238 2.004 . S
O242 C247 1.259 . S
Co243 O244 2.061 . S
Co243 O249 2.052 . S
Co243 O251 2.135 . S
O244 Co243 2.061 . S
O244 C247 1.235 . S
C245 O248 1.238 . S
C245 O249 1.241 . S
C246 O239 1.247 . S
C246 O240 1.261 . S
C247 O242 1.259 . S
C247 O244 1.235 . S
O248 Co238 2.021 . S
O248 C245 1.238 . S
O249 Co243 2.052 . S
O249 C245 1.241 . S
O250 Co238 2.137 . S
O250 C241 1.247 . S
O251 Co238 2.244 . S
O251 C241 1.272 . S
O251 Co243 2.135 . S
Co252 O253 2.216 . S
Co252 O254 2.091 . S
Co252 O256 2.004 . S
Co252 O262 2.021 . S
Co252 O264 2.137 . S
Co252 O265 2.244 . S
O253 Co252 2.216 . S
O253 C260 1.247 . S
O254 Co252 2.091 . S
O254 C260 1.261 . S
C255 O264 1.247 . S
C255 O265 1.272 . S
O256 Co252 2.004 . S
O256 C261 1.259 . S
Co257 O258 2.061 . S
Co257 O263 2.052 . S
Co257 O265 2.135 . S
O258 Co257 2.061 . S
O258 C261 1.235 . S
C259 O262 1.238 . S
C259 O263 1.241 . S
C260 O253 1.247 . S
C260 O254 1.261 . S
C261 O256 1.259 . S
C261 O258 1.235 . S
O262 Co252 2.021 . S
O262 C259 1.238 . S
O263 Co257 2.052 . S
O263 C259 1.241 . S
O264 Co252 2.137 . S
O264 C255 1.247 . S
O265 Co252 2.244 . S
O265 C255 1.272 . S
O265 Co257 2.135 . S
Co266 O267 2.216 . S
Co266 O268 2.091 . S
Co266 O270 2.004 1_565 S
Co266 O276 2.021 . S
Co266 O278 2.137 . S
Co266 O279 2.244 1_565 S
O267 Co266 2.216 . S
O267 C274 1.247 . S
O268 Co266 2.091 . S
O268 C274 1.261 . S
C269 O278 1.247 1_545 S
C269 O279 1.272 . S
O270 Co266 2.004 1_545 S
O270 C275 1.259 . S
Co271 O272 2.061 . S
Co271 O277 2.052 . S
Co271 O279 2.135 . S
O272 Co271 2.061 . S
O272 C275 1.235 . S
C273 O276 1.238 . S
C273 O277 1.241 1_565 S
C274 O267 1.247 . S
C274 O268 1.261 . S
C275 O270 1.259 . S
C275 O272 1.235 . S
O276 Co266 2.021 . S
O276 C273 1.238 . S
O277 Co271 2.052 . S
O277 C273 1.241 1_545 S
O278 Co266 2.137 . S
O278 C269 1.247 1_565 S
O279 Co266 2.244 1_545 S
O279 C269 1.272 . S
O279 Co271 2.135 . S
Co280 O281 2.216 1_556 S
Co280 O282 2.091 . S
Co280 O284 2.004 . S
Co280 O290 2.021 1_556 S
Co280 O292 2.137 . S
Co280 O293 2.244 . S
O281 Co280 2.216 1_554 S
O281 C288 1.247 . S
O282 Co280 2.091 . S
O282 C288 1.261 1_556 S
C283 O292 1.247 . S
C283 O293 1.272 . S
O284 Co280 2.004 . S
O284 C289 1.259 . S
Co285 O286 2.061 1_554 S
Co285 O291 2.052 . S
Co285 O293 2.135 1_554 S
O286 Co285 2.061 1_556 S
O286 C289 1.235 . S
C287 O290 1.238 . S
C287 O291 1.241 . S
C288 O281 1.247 . S
C288 O282 1.261 1_554 S
C289 O284 1.259 . S
C289 O286 1.235 . S
O290 Co280 2.021 1_554 S
O290 C287 1.238 . S
O291 Co285 2.052 . S
O291 C287 1.241 . S
O292 Co280 2.137 . S
O292 C283 1.247 . S
O293 Co280 2.244 . S
O293 C283 1.272 . S
O293 Co285 2.135 1_556 S
Co294 O295 2.216 . S
Co294 O296 2.091 . S
Co294 O298 2.004 . S
Co294 O304 2.021 . S
Co294 O306 2.137 . S
Co294 O307 2.244 . S
O295 Co294 2.216 . S
O295 C302 1.247 . S
O296 Co294 2.091 . S
O296 C302 1.261 . S
C297 O306 1.247 . S
C297 O307 1.272 . S
O298 Co294 2.004 . S
O298 C303 1.259 . S
Co299 O300 2.061 . S
Co299 O305 2.052 . S
Co299 O307 2.135 . S
O300 Co299 2.061 . S
O300 C303 1.235 . S
C301 O304 1.238 . S
C301 O305 1.241 . S
C302 O295 1.247 . S
C302 O296 1.261 . S
C303 O298 1.259 . S
C303 O300 1.235 . S
O304 Co294 2.021 . S
O304 C301 1.238 . S
O305 Co299 2.052 . S
O305 C301 1.241 . S
O306 Co294 2.137 . S
O306 C297 1.247 . S
O307 Co294 2.244 . S
O307 C297 1.272 . S
O307 Co299 2.135 . S
Co308 O309 2.216 . S
Co308 O310 2.091 . S
Co308 O312 2.004 . S
Co308 O318 2.021 . S
Co308 O320 2.137 . S
Co308 O321 2.244 . S
O309 Co308 2.216 . S
O309 C316 1.247 . S
O310 Co308 2.091 . S
O310 C316 1.261 . S
C311 O320 1.247 . S
C311 O321 1.272 . S
O312 Co308 2.004 . S
O312 C317 1.259 . S
Co313 O314 2.061 . S
Co313 O319 2.052 . S
Co313 O321 2.135 . S
O314 Co313 2.061 . S
O314 C317 1.235 . S
C315 O318 1.238 . S
C315 O319 1.241 . S
C316 O309 1.247 . S
C316 O310 1.261 . S
C317 O312 1.259 . S
C317 O314 1.235 . S
O318 Co308 2.021 . S
O318 C315 1.238 . S
O319 Co313 2.052 . S
O319 C315 1.241 . S
O320 Co308 2.137 . S
O320 C311 1.247 . S
O321 Co308 2.244 . S
O321 C311 1.272 . S
O321 Co313 2.135 . S
Co322 O323 2.216 . S
Co322 O324 2.091 . S
Co322 O326 2.004 . S
Co322 O332 2.021 . S
Co322 O334 2.137 . S
Co322 O335 2.244 . S
O323 Co322 2.216 . S
O323 C330 1.247 . S
O324 Co322 2.091 . S
O324 C330 1.261 . S
C325 O334 1.247 . S
C325 O335 1.272 . S
O326 Co322 2.004 . S
O326 C331 1.259 . S
Co327 O328 2.061 . S
Co327 O333 2.052 . S
Co327 O335 2.135 . S
O328 Co327 2.061 . S
O328 C331 1.235 . S
C329 O332 1.238 . S
C329 O333 1.241 . S
C330 O323 1.247 . S
C330 O324 1.261 . S
C331 O326 1.259 . S
C331 O328 1.235 . S
O332 Co322 2.021 . S
O332 C329 1.238 . S
O333 Co327 2.052 . S
O333 C329 1.241 . S
O334 Co322 2.137 . S
O334 C325 1.247 . S
O335 Co322 2.244 . S
O335 C325 1.272 . S
O335 Co327 2.135 . S
Nd336 C338 2.836 . S
Nd336 O356 2.500 . S
Nd336 O357 2.492 . S
Nd336 O358 2.487 . S
Nd336 O359 2.682 . S
Nd336 O360 2.410 . S
Nd336 O365 2.414 . S
Nd336 O367 2.424 . S
Nd337 C347 2.836 1_545 S
Nd337 O359 2.414 . S
Nd337 O361 2.424 1_455 S
Nd337 O362 2.500 1_545 S
Nd337 O363 2.519 . S
Nd337 O364 2.487 . S
Nd337 O365 2.682 . S
Nd337 O366 2.410 . S
C338 Nd336 2.836 . S
C338 C339 1.498 . S
C338 O356 1.258 . S
C338 O357 1.239 . S
C339 C338 1.498 . S
C339 C340 1.366 . S
C339 C344 1.407 . S
C340 C339 1.366 . S
C340 C341 1.392 . S
C340 H368 0.930 . S
C341 C340 1.392 . S
C341 C342 1.398 . S
C341 H369 0.929 . S
C342 C341 1.398 . S
C342 C343 1.352 . S
C343 C342 1.352 . S
C343 C344 1.384 . S
C343 H370 0.930 . S
C344 C339 1.407 . S
C344 C343 1.384 . S
C344 H371 0.929 . S
C345 O358 1.241 . S
C345 O359 1.273 . S
C346 O360 1.212 1_655 S
C346 O361 1.275 . S
C347 Nd337 2.836 1_565 S
C347 C348 1.498 . S
C347 O362 1.258 . S
C347 O363 1.223 1_565 S
C348 C347 1.498 . S
C348 C349 1.366 . S
C348 C353 1.407 . S
C349 C348 1.366 . S
C349 C350 1.392 . S
C349 H372 0.930 . S
C350 C349 1.392 . S
C350 C351 1.398 . S
C350 H373 0.929 . S
C351 C350 1.398 . S
C351 C352 1.352 . S
C352 C351 1.352 . S
C352 C353 1.384 . S
C352 H374 0.930 . S
C353 C348 1.407 . S
C353 C352 1.384 . S
C353 H375 0.929 . S
C354 O364 1.241 . S
C354 O365 1.273 . S
C355 O366 1.251 . S
C355 O367 1.268 . S
O356 Nd336 2.500 . S
O356 C338 1.258 . S
O357 Nd336 2.492 . S
O357 C338 1.239 . S
O358 Nd336 2.487 . S
O358 C345 1.241 . S
O359 Nd336 2.682 . S
O359 Nd337 2.414 . S
O359 C345 1.273 . S
O360 Nd336 2.410 . S
O360 C346 1.212 1_455 S
O361 Nd337 2.424 1_655 S
O361 C346 1.275 . S
O362 Nd337 2.500 1_565 S
O362 C347 1.258 . S
O363 Nd337 2.519 . S
O363 C347 1.223 1_545 S
O364 Nd337 2.487 . S
O364 C354 1.241 . S
O365 Nd336 2.414 . S
O365 Nd337 2.682 . S
O365 C354 1.273 . S
O366 Nd337 2.410 . S
O366 C355 1.251 . S
O367 Nd336 2.424 . S
O367 C355 1.268 . S
H368 C340 0.930 . S
H369 C341 0.929 . S
H370 C343 0.930 . S
H371 C344 0.929 . S
H372 C349 0.930 . S
H373 C350 0.929 . S
H374 C352 0.930 . S
H375 C353 0.929 . S
Nd376 C378 2.836 . S
Nd376 O396 2.500 . S
Nd376 O397 2.492 . S
Nd376 O398 2.487 . S
Nd376 O399 2.682 . S
Nd376 O400 2.410 . S
Nd376 O405 2.414 . S
Nd376 O407 2.424 . S
Nd377 C387 2.836 . S
Nd377 O399 2.414 . S
Nd377 O401 2.424 . S
Nd377 O402 2.500 . S
Nd377 O403 2.492 . S
Nd377 O404 2.487 . S
Nd377 O405 2.682 . S
Nd377 O406 2.410 . S
C378 Nd376 2.836 . S
C378 C379 1.498 . S
C378 O396 1.258 . S
C378 O397 1.239 . S
C379 C378 1.498 . S
C379 C380 1.366 . S
C379 C384 1.407 . S
C380 C379 1.366 . S
C380 C381 1.392 . S
C380 H408 0.930 . S
C381 C380 1.392 . S
C381 C382 1.398 . S
C381 H409 0.929 . S
C382 C381 1.398 . S
C382 C383 1.352 . S
C383 C382 1.352 . S
C383 C384 1.384 . S
C383 H410 0.930 . S
C384 C379 1.407 . S
C384 C383 1.384 . S
C384 H411 0.929 . S
C385 O398 1.241 . S
C385 O399 1.273 . S
C386 O400 1.251 . S
C386 O401 1.268 . S
C387 Nd377 2.836 . S
C387 C388 1.498 . S
C387 O402 1.258 . S
C387 O403 1.239 . S
C388 C387 1.498 . S
C388 C389 1.366 . S
C388 C393 1.407 . S
C389 C388 1.366 . S
C389 C390 1.392 . S
C389 H412 0.930 . S
C390 C389 1.392 . S
C390 C391 1.398 . S
C390 H413 0.929 . S
C391 C390 1.398 . S
C391 C392 1.352 . S
C392 C391 1.352 . S
C392 C393 1.384 . S
C392 H414 0.930 . S
C393 C388 1.407 . S
C393 C392 1.384 . S
C393 H415 0.929 . S
C394 O404 1.241 . S
C394 O405 1.273 . S
C395 O406 1.251 . S
C395 O407 1.268 . S
O396 Nd376 2.500 . S
O396 C378 1.258 . S
O397 Nd376 2.492 . S
O397 C378 1.239 . S
O398 Nd376 2.487 . S
O398 C385 1.241 . S
O399 Nd376 2.682 . S
O399 Nd377 2.414 . S
O399 C385 1.273 . S
O400 Nd376 2.410 . S
O400 C386 1.251 . S
O401 Nd377 2.424 . S
O401 C386 1.268 . S
O402 Nd377 2.500 . S
O402 C387 1.258 . S
O403 Nd377 2.492 . S
O403 C387 1.239 . S
O404 Nd377 2.487 . S
O404 C394 1.241 . S
O405 Nd376 2.414 . S
O405 Nd377 2.682 . S
O405 C394 1.273 . S
O406 Nd377 2.410 . S
O406 C395 1.251 . S
O407 Nd376 2.424 . S
O407 C395 1.268 . S
H408 C380 0.930 . S
H409 C381 0.929 . S
H410 C383 0.930 . S
H411 C384 0.929 . S
H412 C389 0.930 . S
H413 C390 0.929 . S
H414 C392 0.930 . S
H415 C393 0.929 . S
Nd416 C418 2.836 . S
Nd416 O436 2.500 . S
Nd416 O437 2.492 . S
Nd416 O438 2.487 . S
Nd416 O439 2.682 . S
Nd416 O440 2.410 . S
Nd416 O445 2.414 . S
Nd416 O447 2.424 . S
Nd417 C427 2.836 . S
Nd417 O439 2.414 . S
Nd417 O441 2.424 . S
Nd417 O442 2.500 . S
Nd417 O443 2.492 . S
Nd417 O444 2.487 . S
Nd417 O445 2.682 . S
Nd417 O446 2.410 . S
C418 Nd416 2.836 . S
C418 C419 1.498 . S
C418 O436 1.258 . S
C418 O437 1.239 . S
C419 C418 1.498 . S
C419 C420 1.366 . S
C419 C424 1.407 . S
C420 C419 1.366 . S
C420 C421 1.392 . S
C420 H448 0.930 . S
C421 C420 1.392 . S
C421 C422 1.398 . S
C421 H449 0.929 . S
C422 C421 1.398 . S
C422 C423 1.352 . S
C423 C422 1.352 . S
C423 C424 1.384 . S
C423 H450 0.930 . S
C424 C419 1.407 . S
C424 C423 1.384 . S
C424 H451 0.929 . S
C425 O438 1.241 . S
C425 O439 1.273 . S
C426 O440 1.251 . S
C426 O441 1.268 . S
C427 Nd417 2.836 . S
C427 C428 1.498 . S
C427 O442 1.258 . S
C427 O443 1.239 . S
C428 C427 1.498 . S
C428 C429 1.366 . S
C428 C433 1.407 . S
C429 C428 1.366 . S
C429 C430 1.392 . S
C429 H452 0.930 . S
C430 C429 1.392 . S
C430 C431 1.398 . S
C430 H453 0.929 . S
C431 C430 1.398 . S
C431 C432 1.352 . S
C432 C431 1.352 . S
C432 C433 1.384 . S
C432 H454 0.930 . S
C433 C428 1.407 . S
C433 C432 1.384 . S
C433 H455 0.929 . S
C434 O444 1.241 . S
C434 O445 1.273 . S
C435 O446 1.251 . S
C435 O447 1.268 . S
O436 Nd416 2.500 . S
O436 C418 1.258 . S
O437 Nd416 2.492 . S
O437 C418 1.239 . S
O438 Nd416 2.487 . S
O438 C425 1.241 . S
O439 Nd416 2.682 . S
O439 Nd417 2.414 . S
O439 C425 1.273 . S
O440 Nd416 2.410 . S
O440 C426 1.251 . S
O441 Nd417 2.424 . S
O441 C426 1.268 . S
O442 Nd417 2.500 . S
O442 C427 1.258 . S
O443 Nd417 2.492 . S
O443 C427 1.239 . S
O444 Nd417 2.487 . S
O444 C434 1.241 . S
O445 Nd416 2.414 . S
O445 Nd417 2.682 . S
O445 C434 1.273 . S
O446 Nd417 2.410 . S
O446 C435 1.251 . S
O447 Nd416 2.424 . S
O447 C435 1.268 . S
H448 C420 0.930 . S
H449 C421 0.929 . S
H450 C423 0.930 . S
H451 C424 0.929 . S
H452 C429 0.930 . S
H453 C430 0.929 . S
H454 C432 0.930 . S
H455 C433 0.929 . S
Nd456 C458 2.836 . S
Nd456 O476 2.500 . S
Nd456 O477 2.492 . S
Nd456 O478 2.487 . S
Nd456 O479 2.682 . S
Nd456 O480 2.410 . S
Nd456 O485 2.414 . S
Nd456 O487 2.424 . S
Nd457 C467 2.836 . S
Nd457 O479 2.414 . S
Nd457 O481 2.424 . S
Nd457 O482 2.500 . S
Nd457 O483 2.492 . S
Nd457 O484 2.487 . S
Nd457 O485 2.682 . S
Nd457 O486 2.410 . S
C458 Nd456 2.836 . S
C458 C459 1.498 . S
C458 O476 1.258 . S
C458 O477 1.239 . S
C459 C458 1.498 . S
C459 C460 1.366 . S
C459 C464 1.407 . S
C460 C459 1.366 . S
C460 C461 1.392 . S
C460 H488 0.930 . S
C461 C460 1.392 . S
C461 C462 1.398 . S
C461 H489 0.929 . S
C462 C461 1.398 . S
C462 C463 1.352 . S
C463 C462 1.352 . S
C463 C464 1.384 . S
C463 H490 0.930 . S
C464 C459 1.407 . S
C464 C463 1.384 . S
C464 H491 0.929 . S
C465 O478 1.241 . S
C465 O479 1.273 . S
C466 O480 1.251 . S
C466 O481 1.268 . S
C467 Nd457 2.836 . S
C467 C468 1.498 . S
C467 O482 1.258 . S
C467 O483 1.239 . S
C468 C467 1.498 . S
C468 C469 1.366 . S
C468 C473 1.407 . S
C469 C468 1.366 . S
C469 C470 1.392 . S
C469 H492 0.930 . S
C470 C469 1.392 . S
C470 C471 1.398 . S
C470 H493 0.929 . S
C471 C470 1.398 . S
C471 C472 1.352 . S
C472 C471 1.352 . S
C472 C473 1.384 . S
C472 H494 0.930 . S
C473 C468 1.407 . S
C473 C472 1.384 . S
C473 H495 0.929 . S
C474 O484 1.241 . S
C474 O485 1.273 . S
C475 O486 1.251 . S
C475 O487 1.268 . S
O476 Nd456 2.500 . S
O476 C458 1.258 . S
O477 Nd456 2.492 . S
O477 C458 1.239 . S
O478 Nd456 2.487 . S
O478 C465 1.241 . S
O479 Nd456 2.682 . S
O479 Nd457 2.414 . S
O479 C465 1.273 . S
O480 Nd456 2.410 . S
O480 C466 1.251 . S
O481 Nd457 2.424 . S
O481 C466 1.268 . S
O482 Nd457 2.500 . S
O482 C467 1.258 . S
O483 Nd457 2.492 . S
O483 C467 1.239 . S
O484 Nd457 2.487 . S
O484 C474 1.241 . S
O485 Nd456 2.414 . S
O485 Nd457 2.682 . S
O485 C474 1.273 . S
O486 Nd457 2.410 . S
O486 C475 1.251 . S
O487 Nd456 2.424 . S
O487 C475 1.268 . S
H488 C460 0.930 . S
H489 C461 0.929 . S
H490 C463 0.930 . S
H491 C464 0.929 . S
H492 C469 0.930 . S
H493 C470 0.929 . S
H494 C472 0.930 . S
H495 C473 0.929 . S
Nd496 C498 2.836 . S
Nd496 O516 2.500 . S
Nd496 O517 2.492 . S
Nd496 O518 2.487 . S
Nd496 O519 2.682 . S
Nd496 O520 2.410 . S
Nd496 O525 2.414 . S
Nd496 O527 2.424 . S
Nd497 C507 2.836 1_545 S
Nd497 O519 2.414 . S
Nd497 O521 2.424 . S
Nd497 O522 2.500 . S
Nd497 O523 2.492 1_545 S
Nd497 O524 2.487 1_455 S
Nd497 O525 2.682 . S
Nd497 O526 2.410 . S
C498 Nd496 2.836 . S
C498 C499 1.498 . S
C498 O516 1.258 . S
C498 O517 1.239 . S
C499 C498 1.498 . S
C499 C500 1.366 . S
C499 C504 1.407 . S
C500 C499 1.366 . S
C500 C501 1.392 1_455 S
C500 H528 0.930 1_455 S
C501 C500 1.392 1_655 S
C501 C502 1.398 1_655 S
C501 H529 0.929 . S
C502 C501 1.398 1_455 S
C502 C503 1.352 . S
C503 C502 1.352 . S
C503 C504 1.384 . S
C503 H530 0.930 . S
C504 C499 1.407 . S
C504 C503 1.384 . S
C504 H531 0.929 . S
C505 O518 1.241 . S
C505 O519 1.273 . S
C506 O520 1.251 . S
C506 O521 1.268 . S
C507 Nd497 2.836 1_565 S
C507 C508 1.498 . S
C507 O522 1.258 1_565 S
C507 O523 1.239 . S
C508 C507 1.498 . S
C508 C509 1.366 . S
C508 C513 1.407 . S
C509 C508 1.366 . S
C509 C510 1.392 . S
C509 H532 0.930 . S
C510 C509 1.392 . S
C510 C511 1.398 . S
C510 H533 0.929 . S
C511 C510 1.398 . S
C511 C512 1.352 . S
C512 C511 1.352 . S
C512 C513 1.384 . S
C512 H534 0.930 . S
C513 C508 1.407 . S
C513 C512 1.384 . S
C513 H535 0.929 . S
C514 O524 1.241 . S
C514 O525 1.273 1_655 S
C515 O526 1.251 . S
C515 O527 1.268 . S
O516 Nd496 2.500 . S
O516 C498 1.258 . S
O517 Nd496 2.492 . S
O517 C498 1.239 . S
O518 Nd496 2.487 . S
O518 C505 1.241 . S
O519 Nd496 2.682 . S
O519 Nd497 2.414 . S
O519 C505 1.273 . S
O520 Nd496 2.410 . S
O520 C506 1.251 . S
O521 Nd497 2.424 . S
O521 C506 1.268 . S
O522 Nd497 2.500 . S
O522 C507 1.258 1_545 S
O523 Nd497 2.492 1_565 S
O523 C507 1.239 . S
O524 Nd497 2.487 1_655 S
O524 C514 1.241 . S
O525 Nd496 2.414 . S
O525 Nd497 2.682 . S
O525 C514 1.273 1_455 S
O526 Nd497 2.410 . S
O526 C515 1.251 . S
O527 Nd496 2.424 . S
O527 C515 1.268 . S
H528 C500 0.930 1_655 S
H529 C501 0.929 . S
H530 C503 0.930 . S
H531 C504 0.929 . S
H532 C509 0.930 . S
H533 C510 0.929 . S
H534 C512 0.930 . S
H535 C513 0.929 . S
Nd536 C538 2.836 . S
Nd536 O556 2.500 . S
Nd536 O557 2.492 . S
Nd536 O558 2.487 . S
Nd536 O559 2.682 . S
Nd536 O560 2.410 . S
Nd536 O565 2.414 . S
Nd536 O567 2.424 . S
Nd537 C547 2.836 . S
Nd537 O559 2.414 . S
Nd537 O561 2.424 . S
Nd537 O562 2.500 . S
Nd537 O563 2.492 . S
Nd537 O564 2.487 . S
Nd537 O565 2.682 . S
Nd537 O566 2.410 . S
C538 Nd536 2.836 . S
C538 C539 1.498 . S
C538 O556 1.258 . S
C538 O557 1.239 . S
C539 C538 1.498 . S
C539 C540 1.366 . S
C539 C544 1.407 . S
C540 C539 1.366 . S
C540 C541 1.392 . S
C540 H568 0.930 . S
C541 C540 1.392 . S
C541 C542 1.398 . S
C541 H569 0.929 . S
C542 C541 1.398 . S
C542 C543 1.352 . S
C543 C542 1.352 . S
C543 C544 1.384 . S
C543 H570 0.930 . S
C544 C539 1.407 . S
C544 C543 1.384 . S
C544 H571 0.929 . S
C545 O558 1.241 . S
C545 O559 1.273 . S
C546 O560 1.251 . S
C546 O561 1.268 . S
C547 Nd537 2.836 . S
C547 C548 1.498 . S
C547 O562 1.258 . S
C547 O563 1.239 . S
C548 C547 1.498 . S
C548 C549 1.366 . S
C548 C553 1.407 . S
C549 C548 1.366 . S
C549 C550 1.392 . S
C549 H572 0.930 . S
C550 C549 1.392 . S
C550 C551 1.398 . S
C550 H573 0.929 . S
C551 C550 1.398 . S
C551 C552 1.352 . S
C552 C551 1.352 . S
C552 C553 1.384 . S
C552 H574 0.930 . S
C553 C548 1.407 . S
C553 C552 1.384 . S
C553 H575 0.929 . S
C554 O564 1.241 . S
C554 O565 1.273 . S
C555 O566 1.251 . S
C555 O567 1.268 . S
O556 Nd536 2.500 . S
O556 C538 1.258 . S
O557 Nd536 2.492 . S
O557 C538 1.239 . S
O558 Nd536 2.487 . S
O558 C545 1.241 . S
O559 Nd536 2.682 . S
O559 Nd537 2.414 . S
O559 C545 1.273 . S
O560 Nd536 2.410 . S
O560 C546 1.251 . S
O561 Nd537 2.424 . S
O561 C546 1.268 . S
O562 Nd537 2.500 . S
O562 C547 1.258 . S
O563 Nd537 2.492 . S
O563 C547 1.239 . S
O564 Nd537 2.487 . S
O564 C554 1.241 . S
O565 Nd536 2.414 . S
O565 Nd537 2.682 . S
O565 C554 1.273 . S
O566 Nd537 2.410 . S
O566 C555 1.251 . S
O567 Nd536 2.424 . S
O567 C555 1.268 . S
H568 C540 0.930 . S
H569 C541 0.929 . S
H570 C543 0.930 . S
H571 C544 0.929 . S
H572 C549 0.930 . S
H573 C550 0.929 . S
H574 C552 0.930 . S
H575 C553 0.929 . S
Nd576 C578 2.836 . S
Nd576 O596 2.500 . S
Nd576 O597 2.492 . S
Nd576 O598 2.487 . S
Nd576 O599 2.682 . S
Nd576 O600 2.410 . S
Nd576 O605 2.414 . S
Nd576 O607 2.424 . S
Nd577 C587 2.836 . S
Nd577 O599 2.414 . S
Nd577 O601 2.424 . S
Nd577 O602 2.500 . S
Nd577 O603 2.492 . S
Nd577 O604 2.487 . S
Nd577 O605 2.682 . S
Nd577 O606 2.410 . S
C578 Nd576 2.836 . S
C578 C579 1.498 . S
C578 O596 1.258 . S
C578 O597 1.239 . S
C579 C578 1.498 . S
C579 C580 1.366 . S
C579 C584 1.407 . S
C580 C579 1.366 . S
C580 C581 1.392 . S
C580 H608 0.930 . S
C581 C580 1.392 . S
C581 C582 1.398 . S
C581 H609 0.929 . S
C582 C581 1.398 . S
C582 C583 1.352 . S
C583 C582 1.352 . S
C583 C584 1.384 . S
C583 H610 0.930 1_545 S
C584 C579 1.407 . S
C584 C583 1.384 . S
C584 H611 0.929 1_545 S
C585 O598 1.241 . S
C585 O599 1.273 . S
C586 O600 1.251 . S
C586 O601 1.268 . S
C587 Nd577 2.836 . S
C587 C588 1.498 . S
C587 O602 1.258 . S
C587 O603 1.239 . S
C588 C587 1.498 . S
C588 C589 1.366 . S
C588 C593 1.407 . S
C589 C588 1.366 . S
C589 C590 1.392 . S
C589 H612 0.930 . S
C590 C589 1.392 . S
C590 C591 1.398 . S
C590 H613 0.929 . S
C591 C590 1.398 . S
C591 C592 1.352 . S
C592 C591 1.352 . S
C592 C593 1.384 . S
C592 H614 0.930 . S
C593 C588 1.407 . S
C593 C592 1.384 . S
C593 H615 0.929 . S
C594 O604 1.241 . S
C594 O605 1.273 . S
C595 O606 1.251 . S
C595 O607 1.268 . S
O596 Nd576 2.500 . S
O596 C578 1.258 . S
O597 Nd576 2.492 . S
O597 C578 1.239 . S
O598 Nd576 2.487 . S
O598 C585 1.241 . S
O599 Nd576 2.682 . S
O599 Nd577 2.414 . S
O599 C585 1.273 . S
O600 Nd576 2.410 . S
O600 C586 1.251 . S
O601 Nd577 2.424 . S
O601 C586 1.268 . S
O602 Nd577 2.500 . S
O602 C587 1.258 . S
O603 Nd577 2.492 . S
O603 C587 1.239 . S
O604 Nd577 2.487 . S
O604 C594 1.241 . S
O605 Nd576 2.414 . S
O605 Nd577 2.682 . S
O605 C594 1.273 . S
O606 Nd577 2.410 . S
O606 C595 1.251 . S
O607 Nd576 2.424 . S
O607 C595 1.268 . S
H608 C580 0.930 . S
H609 C581 0.929 . S
H610 C583 0.930 1_565 S
H611 C584 0.929 1_565 S
H612 C589 0.930 . S
H613 C590 0.929 . S
H614 C592 0.930 . S
H615 C593 0.929 . S
Nd616 C618 2.836 . S
Nd616 O636 2.500 . S
Nd616 O637 2.492 . S
Nd616 O638 2.487 . S
Nd616 O639 2.682 . S
Nd616 O640 2.410 . S
Nd616 O645 2.414 . S
Nd616 O647 2.424 . S
Nd617 C627 2.836 . S
Nd617 O639 2.414 . S
Nd617 O641 2.424 . S
Nd617 O642 2.500 . S
Nd617 O643 2.492 . S
Nd617 O644 2.487 . S
Nd617 O645 2.682 . S
Nd617 O646 2.410 . S
C618 Nd616 2.836 . S
C618 C619 1.498 . S
C618 O636 1.258 . S
C618 O637 1.239 . S
C619 C618 1.498 . S
C619 C620 1.366 . S
C619 C624 1.407 . S
C620 C619 1.366 . S
C620 C621 1.392 . S
C620 H648 0.930 . S
C621 C620 1.392 . S
C621 C622 1.398 . S
C621 H649 0.929 . S
C622 C621 1.398 . S
C622 C623 1.352 . S
C623 C622 1.352 . S
C623 C624 1.384 . S
C623 H650 0.930 . S
C624 C619 1.407 . S
C624 C623 1.384 . S
C624 H651 0.929 . S
C625 O638 1.241 . S
C625 O639 1.273 . S
C626 O640 1.251 . S
C626 O641 1.268 . S
C627 Nd617 2.836 . S
C627 C628 1.498 . S
C627 O642 1.258 . S
C627 O643 1.239 . S
C628 C627 1.498 . S
C628 C629 1.366 . S
C628 C633 1.407 . S
C629 C628 1.366 . S
C629 C630 1.392 . S
C629 H652 0.930 . S
C630 C629 1.392 . S
C630 C631 1.398 . S
C630 H653 0.929 . S
C631 C630 1.398 . S
C631 C632 1.352 . S
C632 C631 1.352 . S
C632 C633 1.384 . S
C632 H654 0.930 . S
C633 C628 1.407 . S
C633 C632 1.384 . S
C633 H655 0.929 . S
C634 O644 1.241 . S
C634 O645 1.273 . S
C635 O646 1.251 . S
C635 O647 1.268 . S
O636 Nd616 2.500 . S
O636 C618 1.258 . S
O637 Nd616 2.492 . S
O637 C618 1.239 . S
O638 Nd616 2.487 . S
O638 C625 1.241 . S
O639 Nd616 2.682 . S
O639 Nd617 2.414 . S
O639 C625 1.273 . S
O640 Nd616 2.410 . S
O640 C626 1.251 . S
O641 Nd617 2.424 . S
O641 C626 1.268 . S
O642 Nd617 2.500 . S
O642 C627 1.258 . S
O643 Nd617 2.492 . S
O643 C627 1.239 . S
O644 Nd617 2.487 . S
O644 C634 1.241 . S
O645 Nd616 2.414 . S
O645 Nd617 2.682 . S
O645 C634 1.273 . S
O646 Nd617 2.410 . S
O646 C635 1.251 . S
O647 Nd616 2.424 . S
O647 C635 1.268 . S
H648 C620 0.930 . S
H649 C621 0.929 . S
H650 C623 0.930 . S
H651 C624 0.929 . S
H652 C629 0.930 . S
H653 C630 0.929 . S
H654 C632 0.930 . S
H655 C633 0.929 . S
Nd656 C658 2.836 . S
Nd656 O676 2.500 . S
Nd656 O677 2.492 . S
Nd656 O678 2.487 . S
Nd656 O679 2.682 . S
Nd656 O680 2.410 . S
Nd656 O685 2.414 . S
Nd656 O687 2.424 . S
Nd657 C667 2.836 . S
Nd657 O679 2.414 . S
Nd657 O681 2.424 . S
Nd657 O682 2.500 . S
Nd657 O683 2.492 . S
Nd657 O684 2.487 . S
Nd657 O685 2.682 . S
Nd657 O686 2.410 . S
C658 Nd656 2.836 . S
C658 C659 1.498 . S
C658 O676 1.258 . S
C658 O677 1.239 . S
C659 C658 1.498 . S
C659 C660 1.366 . S
C659 C664 1.407 . S
C660 C659 1.366 . S
C660 C661 1.392 . S
C660 H688 0.930 . S
C661 C660 1.392 . S
C661 C662 1.398 . S
C661 H689 0.929 . S
C662 C661 1.398 . S
C662 C663 1.352 . S
C663 C662 1.352 . S
C663 C664 1.384 . S
C663 H690 0.930 . S
C664 C659 1.407 . S
C664 C663 1.384 . S
C664 H691 0.929 . S
C665 O678 1.241 . S
C665 O679 1.273 . S
C666 O680 1.251 . S
C666 O681 1.268 . S
C667 Nd657 2.836 . S
C667 C668 1.498 . S
C667 O682 1.258 . S
C667 O683 1.239 . S
C668 C667 1.498 . S
C668 C669 1.366 . S
C668 C673 1.407 . S
C669 C668 1.366 . S
C669 C670 1.392 . S
C669 H692 0.930 . S
C670 C669 1.392 . S
C670 C671 1.398 . S
C670 H693 0.929 . S
C671 C670 1.398 . S
C671 C672 1.352 . S
C672 C671 1.352 . S
C672 C673 1.384 . S
C672 H694 0.930 . S
C673 C668 1.407 . S
C673 C672 1.384 . S
C673 H695 0.929 . S
C674 O684 1.241 . S
C674 O685 1.273 . S
C675 O686 1.251 . S
C675 O687 1.268 . S
O676 Nd656 2.500 . S
O676 C658 1.258 . S
O677 Nd656 2.492 . S
O677 C658 1.239 . S
O678 Nd656 2.487 . S
O678 C665 1.241 . S
O679 Nd656 2.682 . S
O679 Nd657 2.414 . S
O679 C665 1.273 . S
O680 Nd656 2.410 . S
O680 C666 1.251 . S
O681 Nd657 2.424 . S
O681 C666 1.268 . S
O682 Nd657 2.500 . S
O682 C667 1.258 . S
O683 Nd657 2.492 . S
O683 C667 1.239 . S
O684 Nd657 2.487 . S
O684 C674 1.241 . S
O685 Nd656 2.414 . S
O685 Nd657 2.682 . S
O685 C674 1.273 . S
O686 Nd657 2.410 . S
O686 C675 1.251 . S
O687 Nd656 2.424 . S
O687 C675 1.268 . S
H688 C660 0.930 . S
H689 C661 0.929 . S
H690 C663 0.930 . S
H691 C664 0.929 . S
H692 C669 0.930 . S
H693 C670 0.929 . S
H694 C672 0.930 . S
H695 C673 0.929 . S
Nd696 C698 2.836 . S
Nd696 O716 2.500 . S
Nd696 O717 2.492 . S
Nd696 O718 2.487 . S
Nd696 O719 2.682 . S
Nd696 O720 2.410 . S
Nd696 O725 2.414 . S
Nd696 O727 2.424 . S
Nd697 C707 2.836 . S
Nd697 O719 2.414 . S
Nd697 O721 2.424 . S
Nd697 O722 2.500 . S
Nd697 O723 2.492 . S
Nd697 O724 2.487 . S
Nd697 O725 2.682 . S
Nd697 O726 2.410 . S
C698 Nd696 2.836 . S
C698 C699 1.498 . S
C698 O716 1.258 . S
C698 O717 1.239 . S
C699 C698 1.498 . S
C699 C700 1.366 . S
C699 C704 1.407 . S
C700 C699 1.366 . S
C700 C701 1.392 . S
C700 H728 0.930 . S
C701 C700 1.392 . S
C701 C702 1.398 . S
C701 H729 0.929 . S
C702 C701 1.398 . S
C702 C703 1.352 . S
C703 C702 1.352 . S
C703 C704 1.384 . S
C703 H730 0.930 . S
C704 C699 1.407 . S
C704 C703 1.384 . S
C704 H731 0.929 . S
C705 O718 1.241 . S
C705 O719 1.273 . S
C706 O720 1.251 . S
C706 O721 1.268 . S
C707 Nd697 2.836 . S
C707 C708 1.498 . S
C707 O722 1.258 . S
C707 O723 1.239 . S
C708 C707 1.498 . S
C708 C709 1.366 . S
C708 C713 1.407 . S
C709 C708 1.366 . S
C709 C710 1.392 . S
C709 H732 0.930 . S
C710 C709 1.392 . S
C710 C711 1.398 . S
C710 H733 0.929 . S
C711 C710 1.398 . S
C711 C712 1.352 . S
C712 C711 1.352 . S
C712 C713 1.384 . S
C712 H734 0.930 . S
C713 C708 1.407 . S
C713 C712 1.384 . S
C713 H735 0.929 . S
C714 O724 1.241 . S
C714 O725 1.273 . S
C715 O726 1.251 . S
C715 O727 1.268 . S
O716 Nd696 2.500 . S
O716 C698 1.258 . S
O717 Nd696 2.492 . S
O717 C698 1.239 . S
O718 Nd696 2.487 . S
O718 C705 1.241 . S
O719 Nd696 2.682 . S
O719 Nd697 2.414 . S
O719 C705 1.273 . S
O720 Nd696 2.410 . S
O720 C706 1.251 . S
O721 Nd697 2.424 . S
O721 C706 1.268 . S
O722 Nd697 2.500 . S
O722 C707 1.258 . S
O723 Nd697 2.492 . S
O723 C707 1.239 . S
O724 Nd697 2.487 . S
O724 C714 1.241 . S
O725 Nd696 2.414 . S
O725 Nd697 2.682 . S
O725 C714 1.273 . S
O726 Nd697 2.410 . S
O726 C715 1.251 . S
O727 Nd696 2.424 . S
O727 C715 1.268 . S
H728 C700 0.930 . S
H729 C701 0.929 . S
H730 C703 0.930 . S
H731 C704 0.929 . S
H732 C709 0.930 . S
H733 C710 0.929 . S
H734 C712 0.930 . S
H735 C713 0.929 . S
Nd736 C738 2.821 1_455 S
Nd736 O756 2.485 1_455 S
Nd736 O757 2.480 1_455 S
Nd736 O758 2.495 . S
Nd736 O759 2.696 . S
Nd736 O760 2.409 . S
Nd736 O765 2.418 . S
Nd736 O767 2.436 . S
Nd737 C747 2.836 . S
Nd737 O759 2.414 . S
Nd737 O761 2.424 . S
Nd737 O762 2.500 . S
Nd737 O763 2.492 . S
Nd737 O764 2.487 . S
Nd737 O765 2.682 . S
Nd737 O766 2.410 . S
C738 Nd736 2.821 1_655 S
C738 C739 1.498 . S
C738 O756 1.258 . S
C738 O757 1.239 . S
C739 C738 1.498 . S
C739 C740 1.366 . S
C739 C744 1.407 . S
C740 C739 1.366 . S
C740 C741 1.392 . S
C740 H768 0.930 . S
C741 C740 1.392 . S
C741 C742 1.398 . S
C741 H769 0.929 . S
C742 C741 1.398 . S
C742 C743 1.352 . S
C743 C742 1.352 . S
C743 C744 1.384 . S
C743 H770 0.930 . S
C744 C739 1.407 . S
C744 C743 1.384 . S
C744 H771 0.929 . S
C745 O758 1.241 . S
C745 O759 1.273 . S
C746 O760 1.251 . S
C746 O761 1.268 . S
C747 Nd737 2.836 . S
C747 C748 1.498 . S
C747 O762 1.258 . S
C747 O763 1.239 . S
C748 C747 1.498 . S
C748 C749 1.366 . S
C748 C753 1.407 . S
C749 C748 1.366 . S
C749 C750 1.392 . S
C749 H772 0.930 . S
C750 C749 1.392 . S
C750 C751 1.398 . S
C750 H773 0.929 . S
C751 C750 1.398 . S
C751 C752 1.352 . S
C752 C751 1.352 . S
C752 C753 1.384 . S
C752 H774 0.930 . S
C753 C748 1.407 . S
C753 C752 1.384 . S
C753 H775 0.929 . S
C754 O764 1.241 . S
C754 O765 1.273 . S
C755 O766 1.251 . S
C755 O767 1.268 . S
O756 Nd736 2.485 1_655 S
O756 C738 1.258 . S
O757 Nd736 2.480 1_655 S
O757 C738 1.239 . S
O758 Nd736 2.495 . S
O758 C745 1.241 . S
O759 Nd736 2.696 . S
O759 Nd737 2.414 . S
O759 C745 1.273 . S
O760 Nd736 2.409 . S
O760 C746 1.251 . S
O761 Nd737 2.424 . S
O761 C746 1.268 . S
O762 Nd737 2.500 . S
O762 C747 1.258 . S
O763 Nd737 2.492 . S
O763 C747 1.239 . S
O764 Nd737 2.487 . S
O764 C754 1.241 . S
O765 Nd736 2.418 . S
O765 Nd737 2.682 . S
O765 C754 1.273 . S
O766 Nd737 2.410 . S
O766 C755 1.251 . S
O767 Nd736 2.436 . S
O767 C755 1.268 . S
H768 C740 0.930 . S
H769 C741 0.929 . S
H770 C743 0.930 . S
H771 C744 0.929 . S
H772 C749 0.930 . S
H773 C750 0.929 . S
H774 C752 0.930 . S
H775 C753 0.929 . S
Nd776 C778 2.836 . S
Nd776 O796 2.500 . S
Nd776 O797 2.492 . S
Nd776 O798 2.487 . S
Nd776 O799 2.682 . S
Nd776 O800 2.410 . S
Nd776 O805 2.414 . S
Nd776 O807 2.424 . S
Nd777 C787 2.836 . S
Nd777 O799 2.414 . S
Nd777 O801 2.424 . S
Nd777 O802 2.500 . S
Nd777 O803 2.492 . S
Nd777 O804 2.487 . S
Nd777 O805 2.682 . S
Nd777 O806 2.410 . S
C778 Nd776 2.836 . S
C778 C779 1.498 . S
C778 O796 1.258 . S
C778 O797 1.239 . S
C779 C778 1.498 . S
C779 C780 1.366 . S
C779 C784 1.407 . S
C780 C779 1.366 . S
C780 C781 1.392 . S
C780 H808 0.930 . S
C781 C780 1.392 . S
C781 C782 1.398 . S
C781 H809 0.929 . S
C782 C781 1.398 . S
C782 C783 1.352 . S
C783 C782 1.352 . S
C783 C784 1.384 . S
C783 H810 0.930 . S
C784 C779 1.407 . S
C784 C783 1.384 . S
C784 H811 0.929 . S
C785 O798 1.241 . S
C785 O799 1.273 . S
C786 O800 1.251 . S
C786 O801 1.268 . S
C787 Nd777 2.836 . S
C787 C788 1.498 . S
C787 O802 1.258 . S
C787 O803 1.239 . S
C788 C787 1.498 . S
C788 C789 1.366 . S
C788 C793 1.407 . S
C789 C788 1.366 . S
C789 C790 1.392 . S
C789 H812 0.930 . S
C790 C789 1.392 . S
C790 C791 1.398 . S
C790 H813 0.929 . S
C791 C790 1.398 . S
C791 C792 1.352 . S
C792 C791 1.352 . S
C792 C793 1.384 . S
C792 H814 0.930 . S
C793 C788 1.407 . S
C793 C792 1.384 . S
C793 H815 0.929 . S
C794 O804 1.241 . S
C794 O805 1.273 . S
C795 O806 1.251 . S
C795 O807 1.268 . S
O796 Nd776 2.500 . S
O796 C778 1.258 . S
O797 Nd776 2.492 . S
O797 C778 1.239 . S
O798 Nd776 2.487 . S
O798 C785 1.241 . S
O799 Nd776 2.682 . S
O799 Nd777 2.414 . S
O799 C785 1.273 . S
O800 Nd776 2.410 . S
O800 C786 1.251 . S
O801 Nd777 2.424 . S
O801 C786 1.268 . S
O802 Nd777 2.500 . S
O802 C787 1.258 . S
O803 Nd777 2.492 . S
O803 C787 1.239 . S
O804 Nd777 2.487 . S
O804 C794 1.241 . S
O805 Nd776 2.414 . S
O805 Nd777 2.682 . S
O805 C794 1.273 . S
O806 Nd777 2.410 . S
O806 C795 1.251 . S
O807 Nd776 2.424 . S
O807 C795 1.268 . S
H808 C780 0.930 . S
H809 C781 0.929 . S
H810 C783 0.930 . S
H811 C784 0.929 . S
H812 C789 0.930 . S
H813 C790 0.929 . S
H814 C792 0.930 . S
H815 C793 0.929 . S
Nd816 C818 2.836 . S
Nd816 O836 2.500 . S
Nd816 O837 2.492 . S
Nd816 O838 2.487 . S
Nd816 O839 2.682 . S
Nd816 O840 2.410 . S
Nd816 O845 2.414 . S
Nd816 O847 2.424 . S
Nd817 C827 2.836 . S
Nd817 O839 2.414 . S
Nd817 O841 2.424 . S
Nd817 O842 2.500 . S
Nd817 O843 2.492 . S
Nd817 O844 2.487 . S
Nd817 O845 2.682 . S
Nd817 O846 2.410 . S
C818 Nd816 2.836 . S
C818 C819 1.498 . S
C818 O836 1.258 . S
C818 O837 1.239 . S
C819 C818 1.498 . S
C819 C820 1.366 . S
C819 C824 1.407 . S
C820 C819 1.366 . S
C820 C821 1.392 . S
C820 H848 0.930 . S
C821 C820 1.392 . S
C821 C822 1.398 . S
C821 H849 0.929 . S
C822 C821 1.398 . S
C822 C823 1.352 . S
C823 C822 1.352 . S
C823 C824 1.384 . S
C823 H850 0.930 . S
C824 C819 1.407 . S
C824 C823 1.384 . S
C824 H851 0.929 . S
C825 O838 1.241 . S
C825 O839 1.273 . S
C826 O840 1.251 . S
C826 O841 1.268 . S
C827 Nd817 2.836 . S
C827 C828 1.498 . S
C827 O842 1.258 . S
C827 O843 1.239 . S
C828 C827 1.498 . S
C828 C829 1.366 . S
C828 C833 1.407 . S
C829 C828 1.366 . S
C829 C830 1.392 . S
C829 H852 0.930 . S
C830 C829 1.392 . S
C830 C831 1.398 . S
C830 H853 0.929 . S
C831 C830 1.398 . S
C831 C832 1.352 . S
C832 C831 1.352 . S
C832 C833 1.384 . S
C832 H854 0.930 . S
C833 C828 1.407 . S
C833 C832 1.384 . S
C833 H855 0.929 . S
C834 O844 1.241 . S
C834 O845 1.273 . S
C835 O846 1.251 . S
C835 O847 1.268 . S
O836 Nd816 2.500 . S
O836 C818 1.258 . S
O837 Nd816 2.492 . S
O837 C818 1.239 . S
O838 Nd816 2.487 . S
O838 C825 1.241 . S
O839 Nd816 2.682 . S
O839 Nd817 2.414 . S
O839 C825 1.273 . S
O840 Nd816 2.410 . S
O840 C826 1.251 . S
O841 Nd817 2.424 . S
O841 C826 1.268 . S
O842 Nd817 2.500 . S
O842 C827 1.258 . S
O843 Nd817 2.492 . S
O843 C827 1.239 . S
O844 Nd817 2.487 . S
O844 C834 1.241 . S
O845 Nd816 2.414 . S
O845 Nd817 2.682 . S
O845 C834 1.273 . S
O846 Nd817 2.410 . S
O846 C835 1.251 . S
O847 Nd816 2.424 . S
O847 C835 1.268 . S
H848 C820 0.930 . S
H849 C821 0.929 . S
H850 C823 0.930 . S
H851 C824 0.929 . S
H852 C829 0.930 . S
H853 C830 0.929 . S
H854 C832 0.930 . S
H855 C833 0.929 . S
Nd856 C858 2.836 . S
Nd856 O876 2.500 . S
Nd856 O877 2.492 . S
Nd856 O878 2.487 . S
Nd856 O879 2.682 . S
Nd856 O880 2.410 . S
Nd856 O885 2.414 . S
Nd856 O887 2.424 . S
Nd857 C867 2.836 . S
Nd857 O879 2.414 . S
Nd857 O881 2.424 . S
Nd857 O882 2.500 . S
Nd857 O883 2.492 . S
Nd857 O884 2.487 . S
Nd857 O885 2.682 . S
Nd857 O886 2.410 . S
C858 Nd856 2.836 . S
C858 C859 1.498 . S
C858 O876 1.258 . S
C858 O877 1.239 . S
C859 C858 1.498 . S
C859 C860 1.366 . S
C859 C864 1.407 . S
C860 C859 1.366 . S
C860 C861 1.392 . S
C860 H888 0.930 . S
C861 C860 1.392 . S
C861 C862 1.398 . S
C861 H889 0.929 . S
C862 C861 1.398 . S
C862 C863 1.352 . S
C863 C862 1.352 . S
C863 C864 1.384 . S
C863 H890 0.930 . S
C864 C859 1.407 . S
C864 C863 1.384 . S
C864 H891 0.929 . S
C865 O878 1.241 . S
C865 O879 1.273 . S
C866 O880 1.251 . S
C866 O881 1.268 . S
C867 Nd857 2.836 . S
C867 C868 1.498 . S
C867 O882 1.258 . S
C867 O883 1.239 . S
C868 C867 1.498 . S
C868 C869 1.366 . S
C868 C873 1.407 . S
C869 C868 1.366 . S
C869 C870 1.392 . S
C869 H892 0.930 . S
C870 C869 1.392 . S
C870 C871 1.398 . S
C870 H893 0.929 . S
C871 C870 1.398 . S
C871 C872 1.352 . S
C872 C871 1.352 . S
C872 C873 1.384 . S
C872 H894 0.930 . S
C873 C868 1.407 . S
C873 C872 1.384 . S
C873 H895 0.929 . S
C874 O884 1.241 . S
C874 O885 1.273 . S
C875 O886 1.251 . S
C875 O887 1.268 . S
O876 Nd856 2.500 . S
O876 C858 1.258 . S
O877 Nd856 2.492 . S
O877 C858 1.239 . S
O878 Nd856 2.487 . S
O878 C865 1.241 . S
O879 Nd856 2.682 . S
O879 Nd857 2.414 . S
O879 C865 1.273 . S
O880 Nd856 2.410 . S
O880 C866 1.251 . S
O881 Nd857 2.424 . S
O881 C866 1.268 . S
O882 Nd857 2.500 . S
O882 C867 1.258 . S
O883 Nd857 2.492 . S
O883 C867 1.239 . S
O884 Nd857 2.487 . S
O884 C874 1.241 . S
O885 Nd856 2.414 . S
O885 Nd857 2.682 . S
O885 C874 1.273 . S
O886 Nd857 2.410 . S
O886 C875 1.251 . S
O887 Nd856 2.424 . S
O887 C875 1.268 . S
H888 C860 0.930 . S
H889 C861 0.929 . S
H890 C863 0.930 . S
H891 C864 0.929 . S
H892 C869 0.930 . S
H893 C870 0.929 . S
H894 C872 0.930 . S
H895 C873 0.929 . S
Nd896 C898 2.836 . S
Nd896 O916 2.500 . S
Nd896 O917 2.492 . S
Nd896 O918 2.487 . S
Nd896 O919 2.682 . S
Nd896 O920 2.410 . S
Nd896 O925 2.414 . S
Nd896 O927 2.424 . S
Nd897 C907 2.836 . S
Nd897 O919 2.414 . S
Nd897 O921 2.424 . S
Nd897 O922 2.500 . S
Nd897 O923 2.492 . S
Nd897 O924 2.487 . S
Nd897 O925 2.682 . S
Nd897 O926 2.410 . S
C898 Nd896 2.836 . S
C898 C899 1.498 . S
C898 O916 1.258 . S
C898 O917 1.239 . S
C899 C898 1.498 . S
C899 C900 1.366 . S
C899 C904 1.407 . S
C900 C899 1.366 . S
C900 C901 1.392 . S
C900 H928 0.930 . S
C901 C900 1.392 . S
C901 C902 1.398 . S
C901 H929 0.929 . S
C902 C901 1.398 . S
C902 C903 1.352 . S
C903 C902 1.352 . S
C903 C904 1.384 . S
C903 H930 0.930 . S
C904 C899 1.407 . S
C904 C903 1.384 . S
C904 H931 0.929 . S
C905 O918 1.241 . S
C905 O919 1.273 . S
C906 O920 1.251 . S
C906 O921 1.268 . S
C907 Nd897 2.836 . S
C907 C908 1.498 . S
C907 O922 1.258 . S
C907 O923 1.239 . S
C908 C907 1.498 . S
C908 C909 1.366 . S
C908 C913 1.407 . S
C909 C908 1.366 . S
C909 C910 1.392 . S
C909 H932 0.930 . S
C910 C909 1.392 . S
C910 C911 1.398 . S
C910 H933 0.929 . S
C911 C910 1.398 . S
C911 C912 1.352 . S
C912 C911 1.352 . S
C912 C913 1.384 . S
C912 H934 0.930 . S
C913 C908 1.407 . S
C913 C912 1.384 . S
C913 H935 0.929 . S
C914 O924 1.241 . S
C914 O925 1.273 . S
C915 O926 1.251 . S
C915 O927 1.268 . S
O916 Nd896 2.500 . S
O916 C898 1.258 . S
O917 Nd896 2.492 . S
O917 C898 1.239 . S
O918 Nd896 2.487 . S
O918 C905 1.241 . S
O919 Nd896 2.682 . S
O919 Nd897 2.414 . S
O919 C905 1.273 . S
O920 Nd896 2.410 . S
O920 C906 1.251 . S
O921 Nd897 2.424 . S
O921 C906 1.268 . S
O922 Nd897 2.500 . S
O922 C907 1.258 . S
O923 Nd897 2.492 . S
O923 C907 1.239 . S
O924 Nd897 2.487 . S
O924 C914 1.241 . S
O925 Nd896 2.414 . S
O925 Nd897 2.682 . S
O925 C914 1.273 . S
O926 Nd897 2.410 . S
O926 C915 1.251 . S
O927 Nd896 2.424 . S
O927 C915 1.268 . S
H928 C900 0.930 . S
H929 C901 0.929 . S
H930 C903 0.930 . S
H931 C904 0.929 . S
H932 C909 0.930 . S
H933 C910 0.929 . S
H934 C912 0.930 . S
H935 C913 0.929 . S
Nd936 C938 2.836 . S
Nd936 O956 2.500 . S
Nd936 O957 2.492 . S
Nd936 O958 2.487 . S
Nd936 O959 2.682 . S
Nd936 O960 2.410 . S
Nd936 O965 2.414 . S
Nd936 O967 2.424 . S
Nd937 C947 2.836 . S
Nd937 O959 2.414 1_655 S
Nd937 O961 2.424 1_655 S
Nd937 O962 2.500 . S
Nd937 O963 2.492 . S
Nd937 O964 2.487 1_655 S
Nd937 O965 2.682 1_655 S
Nd937 O966 2.410 1_655 S
C938 Nd936 2.836 . S
C938 C939 1.498 . S
C938 O956 1.258 . S
C938 O957 1.239 . S
C939 C938 1.498 . S
C939 C940 1.366 . S
C939 C944 1.407 . S
C940 C939 1.366 . S
C940 C941 1.392 . S
C940 H968 0.930 . S
C941 C940 1.392 . S
C941 C942 1.398 . S
C941 H969 0.929 . S
C942 C941 1.398 . S
C942 C943 1.352 . S
C943 C942 1.352 . S
C943 C944 1.384 . S
C943 H970 0.930 . S
C944 C939 1.407 . S
C944 C943 1.384 . S
C944 H971 0.929 . S
C945 O958 1.241 . S
C945 O959 1.273 . S
C946 O960 1.251 . S
C946 O961 1.268 . S
C947 Nd937 2.836 . S
C947 C948 1.498 . S
C947 O962 1.258 . S
C947 O963 1.239 . S
C948 C947 1.498 . S
C948 C949 1.366 . S
C948 C953 1.407 . S
C949 C948 1.366 . S
C949 C950 1.392 . S
C949 H972 0.930 . S
C950 C949 1.392 . S
C950 C951 1.398 . S
C950 H973 0.929 . S
C951 C950 1.398 . S
C951 C952 1.352 . S
C952 C951 1.352 . S
C952 C953 1.384 . S
C952 H974 0.930 . S
C953 C948 1.407 . S
C953 C952 1.384 . S
C953 H975 0.929 . S
C954 O964 1.241 . S
C954 O965 1.273 . S
C955 O966 1.251 . S
C955 O967 1.268 . S
O956 Nd936 2.500 . S
O956 C938 1.258 . S
O957 Nd936 2.492 . S
O957 C938 1.239 . S
O958 Nd936 2.487 . S
O958 C945 1.241 . S
O959 Nd936 2.682 . S
O959 Nd937 2.414 1_455 S
O959 C945 1.273 . S
O960 Nd936 2.410 . S
O960 C946 1.251 . S
O961 Nd937 2.424 1_455 S
O961 C946 1.268 . S
O962 Nd937 2.500 . S
O962 C947 1.258 . S
O963 Nd937 2.492 . S
O963 C947 1.239 . S
O964 Nd937 2.487 1_455 S
O964 C954 1.241 . S
O965 Nd936 2.414 . S
O965 Nd937 2.682 1_455 S
O965 C954 1.273 . S
O966 Nd937 2.410 1_455 S
O966 C955 1.251 . S
O967 Nd936 2.424 . S
O967 C955 1.268 . S
H968 C940 0.930 . S
H969 C941 0.929 . S
H970 C943 0.930 . S
H971 C944 0.929 . S
H972 C949 0.930 . S
H973 C950 0.929 . S
H974 C952 0.930 . S
H975 C953 0.929 . S
C976 C977 1.391 . S
C976 C978 1.394 . S
C976 H992 0.931 . S
C977 C976 1.391 . S
C977 C981 1.376 . S
C978 C976 1.394 . S
C978 C979 1.369 . S
C978 C982 1.531 . S
C979 C978 1.369 . S
C979 C980 1.410 . S
C979 C987 1.503 1_556 S
C980 C979 1.410 . S
C980 C981 1.392 . S
C980 C983 1.511 1_556 S
C981 C977 1.376 . S
C981 C980 1.392 . S
C981 H993 0.929 . S
C982 C978 1.531 . S
C982 H994 0.960 . S
C982 H995 0.962 . S
C982 H996 0.960 . S
C983 C980 1.511 1_554 S
C983 H997 0.961 . S
C983 H998 0.961 . S
C983 H999 0.961 . S
C984 C985 1.370 . S
C984 C986 1.363 . S
C984 H1000 0.931 . S
C985 C984 1.370 . S
C985 C989 1.408 . S
C986 C984 1.363 . S
C986 C987 1.370 . S
C986 C990 1.524 1_554 S
C987 C979 1.503 1_554 S
C987 C986 1.370 . S
C987 C988 1.403 . S
C988 C987 1.403 . S
C988 C989 1.404 . S
C988 C991 1.539 . S
C989 C985 1.408 . S
C989 C988 1.404 . S
C989 H1001 0.930 . S
C990 C986 1.524 1_556 S
C990 H1002 0.956 . S
C990 H1003 0.961 1_455 S
C990 H1004 0.961 1_455 S
C991 C988 1.539 . S
C991 H1005 0.958 . S
C991 H1006 0.961 . S
C991 H1007 0.960 . S
H992 C976 0.931 . S
H993 C981 0.929 . S
H994 C982 0.960 . S
H995 C982 0.962 . S
H996 C982 0.960 . S
H997 C983 0.961 . S
H998 C983 0.961 . S
H999 C983 0.961 . S
H1000 C984 0.931 . S
H1001 C989 0.930 . S
H1002 C990 0.956 . S
H1003 C990 0.961 1_655 S
H1004 C990 0.961 1_655 S
H1005 C991 0.958 . S
H1006 C991 0.961 . S
H1007 C991 0.960 . S
C1008 C1009 1.391 . S
C1008 C1010 1.394 . S
C1008 H1024 0.931 . S
C1009 C1008 1.391 . S
C1009 C1013 1.376 . S
C1010 C1008 1.394 . S
C1010 C1011 1.369 . S
C1010 C1014 1.531 . S
C1011 C1010 1.369 . S
C1011 C1012 1.410 . S
C1011 C1019 1.503 . S
C1012 C1011 1.410 . S
C1012 C1013 1.392 . S
C1012 C1015 1.511 . S
C1013 C1009 1.376 . S
C1013 C1012 1.392 . S
C1013 H1025 0.929 . S
C1014 C1010 1.531 . S
C1014 H1026 0.960 . S
C1014 H1027 0.962 . S
C1014 H1028 0.960 . S
C1015 C1012 1.511 . S
C1015 H1029 0.961 . S
C1015 H1030 0.961 . S
C1015 H1031 0.961 . S
C1016 C1017 1.370 . S
C1016 C1018 1.363 . S
C1016 H1032 0.931 . S
C1017 C1016 1.370 . S
C1017 C1021 1.408 . S
C1018 C1016 1.363 . S
C1018 C1019 1.370 . S
C1018 C1022 1.524 . S
C1019 C1011 1.503 . S
C1019 C1018 1.370 . S
C1019 C1020 1.403 . S
C1020 C1019 1.403 . S
C1020 C1021 1.404 . S
C1020 C1023 1.539 . S
C1021 C1017 1.408 . S
C1021 C1020 1.404 . S
C1021 H1033 0.930 . S
C1022 C1018 1.524 . S
C1022 H1034 0.956 . S
C1022 H1035 0.961 . S
C1022 H1036 0.961 . S
C1023 C1020 1.539 . S
C1023 H1037 0.958 . S
C1023 H1038 0.961 . S
C1023 H1039 0.960 . S
H1024 C1008 0.931 . S
H1025 C1013 0.929 . S
H1026 C1014 0.960 . S
H1027 C1014 0.962 . S
H1028 C1014 0.960 . S
H1029 C1015 0.961 . S
H1030 C1015 0.961 . S
H1031 C1015 0.961 . S
H1032 C1016 0.931 . S
H1033 C1021 0.930 . S
H1034 C1022 0.956 . S
H1035 C1022 0.961 . S
H1036 C1022 0.961 . S
H1037 C1023 0.958 . S
H1038 C1023 0.961 . S
H1039 C1023 0.960 . S
C1040 C1041 1.391 . S
C1040 C1042 1.394 . S
C1040 H1056 0.931 . S
C1041 C1040 1.391 . S
C1041 C1045 1.376 . S
C1042 C1040 1.394 . S
C1042 C1043 1.369 . S
C1042 C1046 1.531 . S
C1043 C1042 1.369 . S
C1043 C1044 1.410 . S
C1043 C1051 1.503 . S
C1044 C1043 1.410 . S
C1044 C1045 1.392 . S
C1044 C1047 1.511 . S
C1045 C1041 1.376 . S
C1045 C1044 1.392 . S
C1045 H1057 0.929 . S
C1046 C1042 1.531 . S
C1046 H1058 0.960 . S
C1046 H1059 0.962 . S
C1046 H1060 0.960 . S
C1047 C1044 1.511 . S
C1047 H1061 0.961 . S
C1047 H1062 0.961 . S
C1047 H1063 0.961 . S
C1048 C1049 1.388 . S
C1048 C1050 1.363 . S
C1048 H1064 0.931 . S
C1049 C1048 1.388 . S
C1049 C1053 1.405 1_565 S
C1050 C1048 1.363 . S
C1050 C1051 1.370 . S
C1050 C1054 1.524 . S
C1051 C1043 1.503 . S
C1051 C1050 1.370 . S
C1051 C1052 1.403 . S
C1052 C1051 1.403 . S
C1052 C1053 1.404 1_565 S
C1052 C1055 1.539 . S
C1053 C1049 1.405 1_545 S
C1053 C1052 1.404 1_545 S
C1053 H1065 0.930 . S
C1054 C1050 1.524 . S
C1054 H1066 0.956 . S
C1054 H1067 0.961 . S
C1054 H1068 0.961 . S
C1055 C1052 1.539 . S
C1055 H1069 0.958 . S
C1055 H1070 0.954 1_565 S
C1055 H1071 0.960 . S
H1056 C1040 0.931 . S
H1057 C1045 0.929 . S
H1058 C1046 0.960 . S
H1059 C1046 0.962 . S
H1060 C1046 0.960 . S
H1061 C1047 0.961 . S
H1062 C1047 0.961 . S
H1063 C1047 0.961 . S
H1064 C1048 0.931 . S
H1065 C1053 0.930 . S
H1066 C1054 0.956 . S
H1067 C1054 0.961 . S
H1068 C1054 0.961 . S
H1069 C1055 0.958 . S
H1070 C1055 0.954 1_545 S
H1071 C1055 0.960 . S
C1072 C1073 1.391 . S
C1072 C1074 1.394 . S
C1072 H1088 0.931 . S
C1073 C1072 1.391 . S
C1073 C1077 1.376 . S
C1074 C1072 1.394 . S
C1074 C1075 1.369 . S
C1074 C1078 1.531 . S
C1075 C1074 1.369 . S
C1075 C1076 1.410 . S
C1075 C1083 1.503 . S
C1076 C1075 1.410 . S
C1076 C1077 1.392 . S
C1076 C1079 1.511 . S
C1077 C1073 1.376 . S
C1077 C1076 1.392 . S
C1077 H1089 0.929 . S
C1078 C1074 1.531 . S
C1078 H1090 0.960 . S
C1078 H1091 0.962 . S
C1078 H1092 0.960 . S
C1079 C1076 1.511 . S
C1079 H1093 0.961 . S
C1079 H1094 0.961 . S
C1079 H1095 0.961 . S
C1080 C1081 1.370 . S
C1080 C1082 1.363 . S
C1080 H1096 0.931 . S
C1081 C1080 1.370 . S
C1081 C1085 1.408 . S
C1082 C1080 1.363 . S
C1082 C1083 1.370 . S
C1082 C1086 1.524 . S
C1083 C1075 1.503 . S
C1083 C1082 1.370 . S
C1083 C1084 1.403 . S
C1084 C1083 1.403 . S
C1084 C1085 1.404 . S
C1084 C1087 1.539 . S
C1085 C1081 1.408 . S
C1085 C1084 1.404 . S
C1085 H1097 0.930 . S
C1086 C1082 1.524 . S
C1086 H1098 0.956 . S
C1086 H1099 0.961 . S
C1086 H1100 0.961 . S
C1087 C1084 1.539 . S
C1087 H1101 0.958 . S
C1087 H1102 0.961 . S
C1087 H1103 0.960 . S
H1088 C1072 0.931 . S
H1089 C1077 0.929 . S
H1090 C1078 0.960 . S
H1091 C1078 0.962 . S
H1092 C1078 0.960 . S
H1093 C1079 0.961 . S
H1094 C1079 0.961 . S
H1095 C1079 0.961 . S
H1096 C1080 0.931 . S
H1097 C1085 0.930 . S
H1098 C1086 0.956 . S
H1099 C1086 0.961 . S
H1100 C1086 0.961 . S
H1101 C1087 0.958 . S
H1102 C1087 0.961 . S
H1103 C1087 0.960 . S
C1104 C1105 1.391 . S
C1104 C1106 1.394 . S
C1104 H1120 0.931 . S
C1105 C1104 1.391 . S
C1105 C1109 1.376 1_455 S
C1106 C1104 1.394 . S
C1106 C1107 1.369 . S
C1106 C1110 1.531 . S
C1107 C1106 1.369 . S
C1107 C1108 1.410 . S
C1107 C1115 1.503 . S
C1108 C1107 1.410 . S
C1108 C1109 1.392 1_455 S
C1108 C1111 1.511 1_455 S
C1109 C1105 1.376 1_655 S
C1109 C1108 1.392 1_655 S
C1109 H1121 0.929 . S
C1110 C1106 1.531 . S
C1110 H1122 0.960 . S
C1110 H1123 0.962 . S
C1110 H1124 0.960 . S
C1111 C1108 1.511 1_655 S
C1111 H1125 0.961 . S
C1111 H1126 0.961 . S
C1111 H1127 0.961 . S
C1112 C1113 1.370 . S
C1112 C1114 1.363 . S
C1112 H1128 0.931 . S
C1113 C1112 1.370 . S
C1113 C1117 1.408 . S
C1114 C1112 1.363 . S
C1114 C1115 1.370 . S
C1114 C1118 1.524 . S
C1115 C1107 1.503 . S
C1115 C1114 1.370 . S
C1115 C1116 1.403 . S
C1116 C1115 1.403 . S
C1116 C1117 1.404 . S
C1116 C1119 1.539 . S
C1117 C1113 1.408 . S
C1117 C1116 1.404 . S
C1117 H1129 0.930 . S
C1118 C1114 1.524 . S
C1118 H1130 0.956 . S
C1118 H1131 0.961 . S
C1118 H1132 0.961 . S
C1119 C1116 1.539 . S
C1119 H1133 0.958 . S
C1119 H1134 0.961 . S
C1119 H1135 0.960 . S
H1120 C1104 0.931 . S
H1121 C1109 0.929 . S
H1122 C1110 0.960 . S
H1123 C1110 0.962 . S
H1124 C1110 0.960 . S
H1125 C1111 0.961 . S
H1126 C1111 0.961 . S
H1127 C1111 0.961 . S
H1128 C1112 0.931 . S
H1129 C1117 0.930 . S
H1130 C1118 0.956 . S
H1131 C1118 0.961 . S
H1132 C1118 0.961 . S
H1133 C1119 0.958 . S
H1134 C1119 0.961 . S
H1135 C1119 0.960 . S
C1136 C1137 1.391 . S
C1136 C1138 1.394 . S
C1136 H1152 0.931 . S
C1137 C1136 1.391 . S
C1137 C1141 1.376 . S
C1138 C1136 1.394 . S
C1138 C1139 1.369 . S
C1138 C1142 1.531 . S
C1139 C1138 1.369 . S
C1139 C1140 1.410 . S
C1139 C1147 1.503 . S
C1140 C1139 1.410 . S
C1140 C1141 1.392 . S
C1140 C1143 1.511 . S
C1141 C1137 1.376 . S
C1141 C1140 1.392 . S
C1141 H1153 0.929 . S
C1142 C1138 1.531 . S
C1142 H1154 0.960 . S
C1142 H1155 0.962 . S
C1142 H1156 0.960 . S
C1143 C1140 1.511 . S
C1143 H1157 0.961 . S
C1143 H1158 0.961 . S
C1143 H1159 0.961 . S
C1144 C1145 1.370 . S
C1144 C1146 1.363 . S
C1144 H1160 0.931 . S
C1145 C1144 1.370 . S
C1145 C1149 1.408 . S
C1146 C1144 1.363 . S
C1146 C1147 1.370 . S
C1146 C1150 1.524 . S
C1147 C1139 1.503 . S
C1147 C1146 1.370 . S
C1147 C1148 1.403 . S
C1148 C1147 1.403 . S
C1148 C1149 1.404 . S
C1148 C1151 1.539 . S
C1149 C1145 1.408 . S
C1149 C1148 1.404 . S
C1149 H1161 0.930 . S
C1150 C1146 1.524 . S
C1150 H1162 0.956 . S
C1150 H1163 0.961 . S
C1150 H1164 0.961 . S
C1151 C1148 1.539 . S
C1151 H1165 0.958 . S
C1151 H1166 0.961 . S
C1151 H1167 0.960 . S
H1152 C1136 0.931 . S
H1153 C1141 0.929 . S
H1154 C1142 0.960 . S
H1155 C1142 0.962 . S
H1156 C1142 0.960 . S
H1157 C1143 0.961 . S
H1158 C1143 0.961 . S
H1159 C1143 0.961 . S
H1160 C1144 0.931 . S
H1161 C1149 0.930 . S
H1162 C1150 0.956 . S
H1163 C1150 0.961 . S
H1164 C1150 0.961 . S
H1165 C1151 0.958 . S
H1166 C1151 0.961 . S
H1167 C1151 0.960 . S
C1168 C1169 1.391 . S
C1168 C1170 1.394 . S
C1168 H1184 0.931 . S
C1169 C1168 1.391 . S
C1169 C1173 1.376 . S
C1170 C1168 1.394 . S
C1170 C1171 1.369 . S
C1170 C1174 1.531 . S
C1171 C1170 1.369 . S
C1171 C1172 1.410 . S
C1171 C1179 1.503 . S
C1172 C1171 1.410 . S
C1172 C1173 1.392 . S
C1172 C1175 1.511 . S
C1173 C1169 1.376 . S
C1173 C1172 1.392 . S
C1173 H1185 0.929 . S
C1174 C1170 1.531 . S
C1174 H1186 0.960 . S
C1174 H1187 0.962 . S
C1174 H1188 0.960 . S
C1175 C1172 1.511 . S
C1175 H1189 0.961 . S
C1175 H1190 0.961 . S
C1175 H1191 0.961 . S
C1176 C1177 1.370 . S
C1176 C1178 1.363 . S
C1176 H1192 0.931 . S
C1177 C1176 1.370 . S
C1177 C1181 1.408 . S
C1178 C1176 1.363 . S
C1178 C1179 1.370 . S
C1178 C1182 1.524 . S
C1179 C1171 1.503 . S
C1179 C1178 1.370 . S
C1179 C1180 1.403 . S
C1180 C1179 1.403 . S
C1180 C1181 1.404 . S
C1180 C1183 1.539 . S
C1181 C1177 1.408 . S
C1181 C1180 1.404 . S
C1181 H1193 0.930 . S
C1182 C1178 1.524 . S
C1182 H1194 0.956 . S
C1182 H1195 0.961 . S
C1182 H1196 0.961 . S
C1183 C1180 1.539 . S
C1183 H1197 0.958 . S
C1183 H1198 0.961 . S
C1183 H1199 0.960 . S
H1184 C1168 0.931 . S
H1185 C1173 0.929 . S
H1186 C1174 0.960 . S
H1187 C1174 0.962 . S
H1188 C1174 0.960 . S
H1189 C1175 0.961 . S
H1190 C1175 0.961 . S
H1191 C1175 0.961 . S
H1192 C1176 0.931 . S
H1193 C1181 0.930 . S
H1194 C1182 0.956 . S
H1195 C1182 0.961 . S
H1196 C1182 0.961 . S
H1197 C1183 0.958 . S
H1198 C1183 0.961 . S
H1199 C1183 0.960 . S
C1200 C1201 1.391 . S
C1200 C1202 1.394 . S
C1200 H1216 0.931 . S
C1201 C1200 1.391 . S
C1201 C1205 1.376 . S
C1202 C1200 1.394 . S
C1202 C1203 1.369 . S
C1202 C1206 1.531 . S
C1203 C1202 1.369 . S
C1203 C1204 1.410 . S
C1203 C1211 1.503 . S
C1204 C1203 1.410 . S
C1204 C1205 1.392 . S
C1204 C1207 1.511 . S
C1205 C1201 1.376 . S
C1205 C1204 1.392 . S
C1205 H1217 0.929 . S
C1206 C1202 1.531 . S
C1206 H1218 0.960 . S
C1206 H1219 0.962 . S
C1206 H1220 0.960 . S
C1207 C1204 1.511 . S
C1207 H1221 0.961 . S
C1207 H1222 0.961 . S
C1207 H1223 0.961 . S
C1208 C1209 1.370 . S
C1208 C1210 1.363 . S
C1208 H1224 0.931 . S
C1209 C1208 1.370 . S
C1209 C1213 1.408 . S
C1210 C1208 1.363 . S
C1210 C1211 1.370 . S
C1210 C1214 1.524 . S
C1211 C1203 1.503 . S
C1211 C1210 1.370 . S
C1211 C1212 1.403 . S
C1212 C1211 1.403 . S
C1212 C1213 1.404 . S
C1212 C1215 1.539 . S
C1213 C1209 1.408 . S
C1213 C1212 1.404 . S
C1213 H1225 0.930 . S
C1214 C1210 1.524 . S
C1214 H1226 0.956 . S
C1214 H1227 0.961 . S
C1214 H1228 0.961 . S
C1215 C1212 1.539 . S
C1215 H1229 0.958 . S
C1215 H1230 0.961 . S
C1215 H1231 0.960 . S
H1216 C1200 0.931 . S
H1217 C1205 0.929 . S
H1218 C1206 0.960 . S
H1219 C1206 0.962 . S
H1220 C1206 0.960 . S
H1221 C1207 0.961 . S
H1222 C1207 0.961 . S
H1223 C1207 0.961 . S
H1224 C1208 0.931 . S
H1225 C1213 0.930 . S
H1226 C1214 0.956 . S
H1227 C1214 0.961 . S
H1228 C1214 0.961 . S
H1229 C1215 0.958 . S
H1230 C1215 0.961 . S
H1231 C1215 0.960 . S
C1232 C1233 1.391 . S
C1232 C1234 1.394 . S
C1232 H1248 0.931 . S
C1233 C1232 1.391 . S
C1233 C1237 1.376 . S
C1234 C1232 1.394 . S
C1234 C1235 1.369 . S
C1234 C1238 1.531 . S
C1235 C1234 1.369 . S
C1235 C1236 1.410 . S
C1235 C1243 1.503 . S
C1236 C1235 1.410 . S
C1236 C1237 1.392 . S
C1236 C1239 1.511 . S
C1237 C1233 1.376 . S
C1237 C1236 1.392 . S
C1237 H1249 0.929 . S
C1238 C1234 1.531 . S
C1238 H1250 0.960 . S
C1238 H1251 0.962 . S
C1238 H1252 0.960 . S
C1239 C1236 1.511 . S
C1239 H1253 0.961 . S
C1239 H1254 0.961 . S
C1239 H1255 0.961 . S
C1240 C1241 1.370 . S
C1240 C1242 1.363 1_455 S
C1240 H1256 0.931 . S
C1241 C1240 1.370 . S
C1241 C1245 1.408 1_455 S
C1242 C1240 1.363 1_655 S
C1242 C1243 1.370 . S
C1242 C1246 1.524 . S
C1243 C1235 1.503 . S
C1243 C1242 1.370 . S
C1243 C1244 1.403 . S
C1244 C1243 1.403 . S
C1244 C1245 1.404 . S
C1244 C1247 1.539 . S
C1245 C1241 1.408 1_655 S
C1245 C1244 1.404 . S
C1245 H1257 0.930 . S
C1246 C1242 1.524 . S
C1246 H1258 0.953 1_655 S
C1246 H1259 0.961 . S
C1246 H1260 0.961 1_655 S
C1247 C1244 1.539 . S
C1247 H1261 0.958 . S
C1247 H1262 0.961 . S
C1247 H1263 0.960 . S
H1248 C1232 0.931 . S
H1249 C1237 0.929 . S
H1250 C1238 0.960 . S
H1251 C1238 0.962 . S
H1252 C1238 0.960 . S
H1253 C1239 0.961 . S
H1254 C1239 0.961 . S
H1255 C1239 0.961 . S
H1256 C1240 0.931 . S
H1257 C1245 0.930 . S
H1258 C1246 0.953 1_455 S
H1259 C1246 0.961 . S
H1260 C1246 0.961 1_455 S
H1261 C1247 0.958 . S
H1262 C1247 0.961 . S
H1263 C1247 0.960 . S
C1264 C1265 1.391 . S
C1264 C1266 1.394 . S
C1264 H1280 0.931 . S
C1265 C1264 1.391 . S
C1265 C1269 1.376 . S
C1266 C1264 1.394 . S
C1266 C1267 1.369 . S
C1266 C1270 1.531 . S
C1267 C1266 1.369 . S
C1267 C1268 1.410 . S
C1267 C1275 1.503 . S
C1268 C1267 1.410 . S
C1268 C1269 1.392 . S
C1268 C1271 1.511 . S
C1269 C1265 1.376 . S
C1269 C1268 1.392 . S
C1269 H1281 0.929 . S
C1270 C1266 1.531 . S
C1270 H1282 0.960 . S
C1270 H1283 0.962 . S
C1270 H1284 0.960 . S
C1271 C1268 1.511 . S
C1271 H1285 0.961 . S
C1271 H1286 0.961 . S
C1271 H1287 0.961 . S
C1272 C1273 1.370 . S
C1272 C1274 1.363 . S
C1272 H1288 0.931 . S
C1273 C1272 1.370 . S
C1273 C1277 1.408 . S
C1274 C1272 1.363 . S
C1274 C1275 1.370 . S
C1274 C1278 1.524 . S
C1275 C1267 1.503 . S
C1275 C1274 1.370 . S
C1275 C1276 1.403 . S
C1276 C1275 1.403 . S
C1276 C1277 1.404 . S
C1276 C1279 1.539 . S
C1277 C1273 1.408 . S
C1277 C1276 1.404 . S
C1277 H1289 0.930 . S
C1278 C1274 1.524 . S
C1278 H1290 0.956 . S
C1278 H1291 0.961 . S
C1278 H1292 0.961 . S
C1279 C1276 1.539 . S
C1279 H1293 0.958 . S
C1279 H1294 0.961 . S
C1279 H1295 0.960 . S
H1280 C1264 0.931 . S
H1281 C1269 0.929 . S
H1282 C1270 0.960 . S
H1283 C1270 0.962 . S
H1284 C1270 0.960 . S
H1285 C1271 0.961 . S
H1286 C1271 0.961 . S
H1287 C1271 0.961 . S
H1288 C1272 0.931 . S
H1289 C1277 0.930 . S
H1290 C1278 0.956 . S
H1291 C1278 0.961 . S
H1292 C1278 0.961 . S
H1293 C1279 0.958 . S
H1294 C1279 0.961 . S
H1295 C1279 0.960 . S
C1296 C1297 1.391 . S
C1296 C1298 1.394 . S
C1296 H1312 0.931 . S
C1297 C1296 1.391 . S
C1297 C1301 1.376 . S
C1298 C1296 1.394 . S
C1298 C1299 1.369 . S
C1298 C1302 1.531 . S
C1299 C1298 1.369 . S
C1299 C1300 1.410 . S
C1299 C1307 1.503 . S
C1300 C1299 1.410 . S
C1300 C1301 1.392 . S
C1300 C1303 1.511 . S
C1301 C1297 1.376 . S
C1301 C1300 1.392 . S
C1301 H1313 0.929 . S
C1302 C1298 1.531 . S
C1302 H1314 0.960 . S
C1302 H1315 0.962 . S
C1302 H1316 0.960 . S
C1303 C1300 1.511 . S
C1303 H1317 0.961 . S
C1303 H1318 0.961 . S
C1303 H1319 0.961 . S
C1304 C1305 1.370 . S
C1304 C1306 1.363 . S
C1304 H1320 0.931 . S
C1305 C1304 1.370 . S
C1305 C1309 1.408 . S
C1306 C1304 1.363 . S
C1306 C1307 1.370 . S
C1306 C1310 1.524 1_545 S
C1307 C1299 1.503 . S
C1307 C1306 1.370 . S
C1307 C1308 1.403 . S
C1308 C1307 1.403 . S
C1308 C1309 1.404 . S
C1308 C1311 1.539 . S
C1309 C1305 1.408 . S
C1309 C1308 1.404 . S
C1309 H1321 0.930 . S
C1310 C1306 1.524 1_565 S
C1310 H1322 0.956 . S
C1310 H1323 0.961 . S
C1310 H1324 0.961 . S
C1311 C1308 1.539 . S
C1311 H1325 0.958 . S
C1311 H1326 0.961 . S
C1311 H1327 0.960 . S
H1312 C1296 0.931 . S
H1313 C1301 0.929 . S
H1314 C1302 0.960 . S
H1315 C1302 0.962 . S
H1316 C1302 0.960 . S
H1317 C1303 0.961 . S
H1318 C1303 0.961 . S
H1319 C1303 0.961 . S
H1320 C1304 0.931 . S
H1321 C1309 0.930 . S
H1322 C1310 0.956 . S
H1323 C1310 0.961 . S
H1324 C1310 0.961 . S
H1325 C1311 0.958 . S
H1326 C1311 0.961 . S
H1327 C1311 0.960 . S
C1328 C1329 1.391 . S
C1328 C1330 1.394 . S
C1328 H1344 0.931 . S
C1329 C1328 1.391 . S
C1329 C1333 1.376 . S
C1330 C1328 1.394 . S
C1330 C1331 1.369 . S
C1330 C1334 1.531 . S
C1331 C1330 1.369 . S
C1331 C1332 1.410 . S
C1331 C1339 1.503 . S
C1332 C1331 1.410 . S
C1332 C1333 1.392 . S
C1332 C1335 1.511 . S
C1333 C1329 1.376 . S
C1333 C1332 1.392 . S
C1333 H1345 0.929 . S
C1334 C1330 1.531 . S
C1334 H1346 0.960 . S
C1334 H1347 0.962 . S
C1334 H1348 0.960 . S
C1335 C1332 1.511 . S
C1335 H1349 0.961 . S
C1335 H1350 0.961 . S
C1335 H1351 0.961 . S
C1336 C1337 1.370 . S
C1336 C1338 1.363 1_556 S
C1336 H1352 0.931 . S
C1337 C1336 1.370 . S
C1337 C1341 1.408 1_556 S
C1338 C1336 1.363 1_554 S
C1338 C1339 1.370 . S
C1338 C1342 1.524 . S
C1339 C1331 1.503 . S
C1339 C1338 1.370 . S
C1339 C1340 1.403 . S
C1340 C1339 1.403 . S
C1340 C1341 1.404 . S
C1340 C1343 1.539 . S
C1341 C1337 1.408 1_554 S
C1341 C1340 1.404 . S
C1341 H1353 0.930 . S
C1342 C1338 1.524 . S
C1342 H1354 0.956 . S
C1342 H1355 0.961 . S
C1342 H1356 0.961 1_554 S
C1343 C1340 1.539 . S
C1343 H1357 0.958 . S
C1343 H1358 0.961 . S
C1343 H1359 0.960 . S
H1344 C1328 0.931 . S
H1345 C1333 0.929 . S
H1346 C1334 0.960 . S
H1347 C1334 0.962 . S
H1348 C1334 0.960 . S
H1349 C1335 0.961 . S
H1350 C1335 0.961 . S
H1351 C1335 0.961 . S
H1352 C1336 0.931 . S
H1353 C1341 0.930 . S
H1354 C1342 0.956 . S
H1355 C1342 0.961 . S
H1356 C1342 0.961 1_556 S
H1357 C1343 0.958 . S
H1358 C1343 0.961 . S
H1359 C1343 0.960 . S
C1360 C1361 1.391 . S
C1360 C1362 1.394 . S
C1360 H1376 0.931 . S
C1361 C1360 1.391 . S
C1361 C1365 1.376 . S
C1362 C1360 1.394 . S
C1362 C1363 1.369 . S
C1362 C1366 1.531 . S
C1363 C1362 1.369 . S
C1363 C1364 1.410 . S
C1363 C1371 1.503 . S
C1364 C1363 1.410 . S
C1364 C1365 1.392 . S
C1364 C1367 1.511 . S
C1365 C1361 1.376 . S
C1365 C1364 1.392 . S
C1365 H1377 0.929 . S
C1366 C1362 1.531 . S
C1366 H1378 0.960 . S
C1366 H1379 0.962 . S
C1366 H1380 0.960 . S
C1367 C1364 1.511 . S
C1367 H1381 0.961 . S
C1367 H1382 0.962 . S
C1367 H1383 0.961 1_655 S
C1368 C1369 1.370 . S
C1368 C1370 1.363 . S
C1368 H1384 0.931 . S
C1369 C1368 1.370 . S
C1369 C1373 1.420 . S
C1370 C1368 1.363 . S
C1370 C1371 1.370 . S
C1370 C1374 1.524 . S
C1371 C1363 1.503 . S
C1371 C1370 1.370 . S
C1371 C1372 1.403 . S
C1372 C1371 1.403 . S
C1372 C1373 1.417 . S
C1372 C1375 1.539 . S
C1373 C1369 1.420 . S
C1373 C1372 1.417 . S
C1373 H1385 0.907 1_655 S
C1374 C1370 1.524 . S
C1374 H1386 0.956 . S
C1374 H1387 0.961 . S
C1374 H1388 0.961 . S
C1375 C1372 1.539 . S
C1375 H1389 0.958 . S
C1375 H1390 0.961 1_655 S
C1375 H1391 0.960 . S
H1376 C1360 0.931 . S
H1377 C1365 0.929 . S
H1378 C1366 0.960 . S
H1379 C1366 0.962 . S
H1380 C1366 0.960 . S
H1381 C1367 0.961 . S
H1382 C1367 0.962 . S
H1383 C1367 0.961 1_455 S
H1384 C1368 0.931 . S
H1385 C1373 0.907 1_455 S
H1386 C1374 0.956 . S
H1387 C1374 0.961 . S
H1388 C1374 0.961 . S
H1389 C1375 0.958 . S
H1390 C1375 0.961 1_455 S
H1391 C1375 0.960 . S
C1392 C1393 1.391 . S
C1392 C1394 1.394 . S
C1392 H1408 0.931 . S
C1393 C1392 1.391 . S
C1393 C1397 1.376 . S
C1394 C1392 1.394 . S
C1394 C1395 1.369 . S
C1394 C1398 1.531 . S
C1395 C1394 1.369 . S
C1395 C1396 1.410 . S
C1395 C1403 1.503 . S
C1396 C1395 1.410 . S
C1396 C1397 1.392 . S
C1396 C1399 1.511 . S
C1397 C1393 1.376 . S
C1397 C1396 1.392 . S
C1397 H1409 0.929 . S
C1398 C1394 1.531 . S
C1398 H1410 0.960 . S
C1398 H1411 0.962 . S
C1398 H1412 0.960 . S
C1399 C1396 1.511 . S
C1399 H1413 0.961 . S
C1399 H1414 0.961 . S
C1399 H1415 0.961 . S
C1400 C1401 1.370 . S
C1400 C1402 1.363 . S
C1400 H1416 0.931 . S
C1401 C1400 1.370 . S
C1401 C1405 1.408 . S
C1402 C1400 1.363 . S
C1402 C1403 1.370 . S
C1402 C1406 1.524 . S
C1403 C1395 1.503 . S
C1403 C1402 1.370 . S
C1403 C1404 1.403 . S
C1404 C1403 1.403 . S
C1404 C1405 1.404 . S
C1404 C1407 1.539 . S
C1405 C1401 1.408 . S
C1405 C1404 1.404 . S
C1405 H1417 0.930 . S
C1406 C1402 1.524 . S
C1406 H1418 0.956 . S
C1406 H1419 0.961 . S
C1406 H1420 0.961 . S
C1407 C1404 1.539 . S
C1407 H1421 0.958 . S
C1407 H1422 0.961 . S
C1407 H1423 0.960 . S
H1408 C1392 0.931 . S
H1409 C1397 0.929 . S
H1410 C1398 0.960 . S
H1411 C1398 0.962 . S
H1412 C1398 0.960 . S
H1413 C1399 0.961 . S
H1414 C1399 0.961 . S
H1415 C1399 0.961 . S
H1416 C1400 0.931 . S
H1417 C1405 0.930 . S
H1418 C1406 0.956 . S
H1419 C1406 0.961 . S
H1420 C1406 0.961 . S
H1421 C1407 0.958 . S
H1422 C1407 0.961 . S
H1423 C1407 0.960 . S
C1424 C1425 1.391 . S
C1424 C1426 1.394 . S
C1424 H1440 0.931 . S
C1425 C1424 1.391 . S
C1425 C1429 1.376 . S
C1426 C1424 1.394 . S
C1426 C1427 1.369 . S
C1426 C1430 1.531 . S
C1427 C1426 1.369 . S
C1427 C1428 1.410 . S
C1427 C1435 1.503 . S
C1428 C1427 1.410 . S
C1428 C1429 1.392 . S
C1428 C1431 1.511 . S
C1429 C1425 1.376 . S
C1429 C1428 1.392 . S
C1429 H1441 0.929 . S
C1430 C1426 1.531 . S
C1430 H1442 0.960 . S
C1430 H1443 0.962 . S
C1430 H1444 0.960 . S
C1431 C1428 1.511 . S
C1431 H1445 0.961 . S
C1431 H1446 0.961 . S
C1431 H1447 0.961 . S
C1432 C1433 1.370 . S
C1432 C1434 1.363 . S
C1432 H1448 0.931 1_556 S
C1433 C1432 1.370 . S
C1433 C1437 1.408 . S
C1434 C1432 1.363 . S
C1434 C1435 1.370 . S
C1434 C1438 1.524 . S
C1435 C1427 1.503 . S
C1435 C1434 1.370 . S
C1435 C1436 1.403 . S
C1436 C1435 1.403 . S
C1436 C1437 1.404 . S
C1436 C1439 1.539 . S
C1437 C1433 1.408 . S
C1437 C1436 1.404 . S
C1437 H1449 0.930 . S
C1438 C1434 1.524 . S
C1438 H1450 0.956 . S
C1438 H1451 0.961 1_545 S
C1438 H1452 0.961 1_545 S
C1439 C1436 1.539 . S
C1439 H1453 0.958 . S
C1439 H1454 0.961 . S
C1439 H1455 0.960 . S
H1440 C1424 0.931 . S
H1441 C1429 0.929 . S
H1442 C1430 0.960 . S
H1443 C1430 0.962 . S
H1444 C1430 0.960 . S
H1445 C1431 0.961 . S
H1446 C1431 0.961 . S
H1447 C1431 0.961 . S
H1448 C1432 0.931 1_554 S
H1449 C1437 0.930 . S
H1450 C1438 0.956 . S
H1451 C1438 0.961 1_565 S
H1452 C1438 0.961 1_565 S
H1453 C1439 0.958 . S
H1454 C1439 0.961 . S
H1455 C1439 0.960 . S
C1456 C1457 1.391 . S
C1456 C1458 1.394 . S
C1456 H1472 0.931 . S
C1457 C1456 1.391 . S
C1457 C1461 1.376 . S
C1458 C1456 1.394 . S
C1458 C1459 1.369 . S
C1458 C1462 1.531 . S
C1459 C1458 1.369 . S
C1459 C1460 1.410 . S
C1459 C1467 1.503 . S
C1460 C1459 1.410 . S
C1460 C1461 1.392 . S
C1460 C1463 1.511 . S
C1461 C1457 1.376 . S
C1461 C1460 1.392 . S
C1461 H1473 0.929 . S
C1462 C1458 1.531 . S
C1462 H1474 0.960 . S
C1462 H1475 0.962 . S
C1462 H1476 0.960 . S
C1463 C1460 1.511 . S
C1463 H1477 0.961 . S
C1463 H1478 0.961 . S
C1463 H1479 0.961 . S
C1464 C1465 1.370 . S
C1464 C1466 1.363 . S
C1464 H1480 0.931 . S
C1465 C1464 1.370 . S
C1465 C1469 1.408 . S
C1466 C1464 1.363 . S
C1466 C1467 1.370 . S
C1466 C1470 1.524 . S
C1467 C1459 1.503 . S
C1467 C1466 1.370 . S
C1467 C1468 1.403 . S
C1468 C1467 1.403 . S
C1468 C1469 1.404 . S
C1468 C1471 1.539 . S
C1469 C1465 1.408 . S
C1469 C1468 1.404 . S
C1469 H1481 0.930 . S
C1470 C1466 1.524 . S
C1470 H1482 0.956 . S
C1470 H1483 0.961 . S
C1470 H1484 0.961 . S
C1471 C1468 1.539 . S
C1471 H1485 0.958 . S
C1471 H1486 0.961 . S
C1471 H1487 0.960 . S
H1472 C1456 0.931 . S
H1473 C1461 0.929 . S
H1474 C1462 0.960 . S
H1475 C1462 0.962 . S
H1476 C1462 0.960 . S
H1477 C1463 0.961 . S
H1478 C1463 0.961 . S
H1479 C1463 0.961 . S
H1480 C1464 0.931 . S
H1481 C1469 0.930 . S
H1482 C1470 0.956 . S
H1483 C1470 0.961 . S
H1484 C1470 0.961 . S
H1485 C1471 0.958 . S
H1486 C1471 0.961 . S
H1487 C1471 0.960 . S
C1488 C1489 1.391 . S
C1488 C1490 1.394 . S
C1488 H1504 0.931 . S
C1489 C1488 1.391 . S
C1489 C1493 1.376 . S
C1490 C1488 1.394 . S
C1490 C1491 1.369 . S
C1490 C1494 1.531 . S
C1491 C1490 1.369 . S
C1491 C1492 1.410 . S
C1491 C1499 1.503 . S
C1492 C1491 1.410 . S
C1492 C1493 1.392 . S
C1492 C1495 1.511 1_565 S
C1493 C1489 1.376 . S
C1493 C1492 1.392 . S
C1493 H1505 0.929 . S
C1494 C1490 1.531 . S
C1494 H1506 0.960 . S
C1494 H1507 0.962 . S
C1494 H1508 0.960 . S
C1495 C1492 1.511 1_545 S
C1495 H1509 0.961 . S
C1495 H1510 0.961 . S
C1495 H1511 0.961 . S
C1496 C1497 1.370 . S
C1496 C1498 1.363 . S
C1496 H1512 0.931 . S
C1497 C1496 1.370 . S
C1497 C1501 1.408 . S
C1498 C1496 1.363 . S
C1498 C1499 1.370 1_545 S
C1498 C1502 1.524 . S
C1499 C1491 1.503 . S
C1499 C1498 1.370 1_565 S
C1499 C1500 1.403 . S
C1500 C1499 1.403 . S
C1500 C1501 1.404 1_565 S
C1500 C1503 1.539 . S
C1501 C1497 1.408 . S
C1501 C1500 1.404 1_545 S
C1501 H1513 0.930 . S
C1502 C1498 1.524 . S
C1502 H1514 0.956 1_545 S
C1502 H1515 0.961 . S
C1502 H1516 0.961 . S
C1503 C1500 1.539 . S
C1503 H1517 0.958 . S
C1503 H1518 0.961 . S
C1503 H1519 0.960 . S
H1504 C1488 0.931 . S
H1505 C1493 0.929 . S
H1506 C1494 0.960 . S
H1507 C1494 0.962 . S
H1508 C1494 0.960 . S
H1509 C1495 0.961 . S
H1510 C1495 0.961 . S
H1511 C1495 0.961 . S
H1512 C1496 0.931 . S
H1513 C1501 0.930 . S
H1514 C1502 0.956 1_565 S
H1515 C1502 0.961 . S
H1516 C1502 0.961 . S
H1517 C1503 0.958 . S
H1518 C1503 0.961 . S
H1519 C1503 0.960 . S
C1520 C1521 1.391 . S
C1520 C1522 1.394 1_556 S
C1520 H1536 0.931 . S
C1521 C1520 1.391 . S
C1521 C1525 1.376 1_556 S
C1522 C1520 1.394 1_554 S
C1522 C1523 1.369 . S
C1522 C1526 1.531 . S
C1523 C1522 1.369 . S
C1523 C1524 1.410 . S
C1523 C1531 1.503 . S
C1524 C1523 1.410 . S
C1524 C1525 1.392 . S
C1524 C1527 1.511 . S
C1525 C1521 1.376 1_554 S
C1525 C1524 1.392 . S
C1525 H1537 0.929 . S
C1526 C1522 1.531 . S
C1526 H1538 0.960 . S
C1526 H1539 0.962 . S
C1526 H1540 0.960 1_554 S
C1527 C1524 1.511 . S
C1527 H1541 0.961 . S
C1527 H1542 0.961 . S
C1527 H1543 0.961 . S
C1528 C1529 1.370 . S
C1528 C1530 1.363 . S
C1528 H1544 0.931 . S
C1529 C1528 1.370 . S
C1529 C1533 1.408 . S
C1530 C1528 1.363 . S
C1530 C1531 1.370 . S
C1530 C1534 1.524 . S
C1531 C1523 1.503 . S
C1531 C1530 1.370 . S
C1531 C1532 1.403 . S
C1532 C1531 1.403 . S
C1532 C1533 1.404 . S
C1532 C1535 1.539 1_554 S
C1533 C1529 1.408 . S
C1533 C1532 1.404 . S
C1533 H1545 0.930 . S
C1534 C1530 1.524 . S
C1534 H1546 0.956 . S
C1534 H1547 0.961 . S
C1534 H1548 0.961 . S
C1535 C1532 1.539 1_556 S
C1535 H1549 0.958 . S
C1535 H1550 0.961 . S
C1535 H1551 0.960 . S
H1536 C1520 0.931 . S
H1537 C1525 0.929 . S
H1538 C1526 0.960 . S
H1539 C1526 0.962 . S
H1540 C1526 0.960 1_556 S
H1541 C1527 0.961 . S
H1542 C1527 0.961 . S
H1543 C1527 0.961 . S
H1544 C1528 0.931 . S
H1545 C1533 0.930 . S
H1546 C1534 0.956 . S
H1547 C1534 0.961 . S
H1548 C1534 0.961 . S
H1549 C1535 0.958 . S
H1550 C1535 0.961 . S
H1551 C1535 0.960 . S
C1552 C1553 1.391 . S
C1552 C1554 1.394 . S
C1552 H1568 0.931 . S
C1553 C1552 1.391 . S
C1553 C1557 1.376 . S
C1554 C1552 1.394 . S
C1554 C1555 1.369 . S
C1554 C1558 1.531 . S
C1555 C1554 1.369 . S
C1555 C1556 1.410 . S
C1555 C1563 1.503 . S
C1556 C1555 1.410 . S
C1556 C1557 1.392 . S
C1556 C1559 1.511 . S
C1557 C1553 1.376 . S
C1557 C1556 1.392 . S
C1557 H1569 0.929 . S
C1558 C1554 1.531 . S
C1558 H1570 0.960 . S
C1558 H1571 0.962 . S
C1558 H1572 0.960 . S
C1559 C1556 1.511 . S
C1559 H1573 0.961 . S
C1559 H1574 0.961 . S
C1559 H1575 0.961 . S
C1560 C1561 1.370 . S
C1560 C1562 1.363 . S
C1560 H1576 0.931 . S
C1561 C1560 1.370 . S
C1561 C1565 1.408 . S
C1562 C1560 1.363 . S
C1562 C1563 1.370 . S
C1562 C1566 1.524 . S
C1563 C1555 1.503 . S
C1563 C1562 1.370 . S
C1563 C1564 1.403 . S
C1564 C1563 1.403 . S
C1564 C1565 1.404 . S
C1564 C1567 1.539 . S
C1565 C1561 1.408 . S
C1565 C1564 1.404 . S
C1565 H1577 0.930 . S
C1566 C1562 1.524 . S
C1566 H1578 0.956 . S
C1566 H1579 0.961 . S
C1566 H1580 0.961 . S
C1567 C1564 1.539 . S
C1567 H1581 0.958 . S
C1567 H1582 0.961 . S
C1567 H1583 0.960 . S
H1568 C1552 0.931 . S
H1569 C1557 0.929 . S
H1570 C1558 0.960 . S
H1571 C1558 0.962 . S
H1572 C1558 0.960 . S
H1573 C1559 0.961 . S
H1574 C1559 0.961 . S
H1575 C1559 0.961 . S
H1576 C1560 0.931 . S
H1577 C1565 0.930 . S
H1578 C1566 0.956 . S
H1579 C1566 0.961 . S
H1580 C1566 0.961 . S
H1581 C1567 0.958 . S
H1582 C1567 0.961 . S
H1583 C1567 0.960 . S
C1584 C1585 1.391 . S
C1584 C1586 1.394 . S
C1584 H1600 0.931 . S
C1585 C1584 1.391 . S
C1585 C1589 1.376 . S
C1586 C1584 1.394 . S
C1586 C1587 1.369 . S
C1586 C1590 1.531 . S
C1587 C1586 1.369 . S
C1587 C1588 1.410 . S
C1587 C1595 1.503 . S
C1588 C1587 1.410 . S
C1588 C1589 1.392 . S
C1588 C1591 1.511 . S
C1589 C1585 1.376 . S
C1589 C1588 1.392 . S
C1589 H1601 0.929 . S
C1590 C1586 1.531 . S
C1590 H1602 0.960 . S
C1590 H1603 0.962 . S
C1590 H1604 0.960 . S
C1591 C1588 1.511 . S
C1591 H1605 0.961 . S
C1591 H1606 0.961 . S
C1591 H1607 0.961 . S
C1592 C1593 1.370 . S
C1592 C1594 1.363 . S
C1592 H1608 0.931 . S
C1593 C1592 1.370 . S
C1593 C1597 1.408 . S
C1594 C1592 1.363 . S
C1594 C1595 1.370 . S
C1594 C1598 1.524 . S
C1595 C1587 1.503 . S
C1595 C1594 1.370 . S
C1595 C1596 1.403 . S
C1596 C1595 1.403 . S
C1596 C1597 1.404 . S
C1596 C1599 1.539 . S
C1597 C1593 1.408 . S
C1597 C1596 1.404 . S
C1597 H1609 0.930 . S
C1598 C1594 1.524 . S
C1598 H1610 0.956 . S
C1598 H1611 0.961 . S
C1598 H1612 0.961 . S
C1599 C1596 1.539 . S
C1599 H1613 0.958 . S
C1599 H1614 0.961 . S
C1599 H1615 0.960 . S
H1600 C1584 0.931 . S
H1601 C1589 0.929 . S
H1602 C1590 0.960 . S
H1603 C1590 0.962 . S
H1604 C1590 0.960 . S
H1605 C1591 0.961 . S
H1606 C1591 0.961 . S
H1607 C1591 0.961 . S
H1608 C1592 0.931 . S
H1609 C1597 0.930 . S
H1610 C1598 0.956 . S
H1611 C1598 0.961 . S
H1612 C1598 0.961 . S
H1613 C1599 0.958 . S
H1614 C1599 0.961 . S
H1615 C1599 0.960 . S
C1616 C1617 1.391 . S
C1616 C1618 1.394 . S
C1616 H1632 0.931 . S
C1617 C1616 1.391 . S
C1617 C1621 1.376 . S
C1618 C1616 1.394 . S
C1618 C1619 1.369 . S
C1618 C1622 1.531 . S
C1619 C1618 1.369 . S
C1619 C1620 1.410 . S
C1619 C1627 1.503 . S
C1620 C1619 1.410 . S
C1620 C1621 1.392 . S
C1620 C1623 1.511 . S
C1621 C1617 1.376 . S
C1621 C1620 1.392 . S
C1621 H1633 0.929 . S
C1622 C1618 1.531 . S
C1622 H1634 0.960 . S
C1622 H1635 0.962 . S
C1622 H1636 0.960 . S
C1623 C1620 1.511 . S
C1623 H1637 0.961 . S
C1623 H1638 0.961 . S
C1623 H1639 0.961 . S
C1624 C1625 1.370 . S
C1624 C1626 1.363 . S
C1624 H1640 0.931 . S
C1625 C1624 1.370 . S
C1625 C1629 1.408 . S
C1626 C1624 1.363 . S
C1626 C1627 1.370 . S
C1626 C1630 1.524 . S
C1627 C1619 1.503 . S
C1627 C1626 1.370 . S
C1627 C1628 1.403 . S
C1628 C1627 1.403 . S
C1628 C1629 1.404 . S
C1628 C1631 1.539 . S
C1629 C1625 1.408 . S
C1629 C1628 1.404 . S
C1629 H1641 0.930 . S
C1630 C1626 1.524 . S
C1630 H1642 0.956 . S
C1630 H1643 0.961 . S
C1630 H1644 0.961 . S
C1631 C1628 1.539 . S
C1631 H1645 0.958 . S
C1631 H1646 0.961 . S
C1631 H1647 0.960 . S
H1632 C1616 0.931 . S
H1633 C1621 0.929 . S
H1634 C1622 0.960 . S
H1635 C1622 0.962 . S
H1636 C1622 0.960 . S
H1637 C1623 0.961 . S
H1638 C1623 0.961 . S
H1639 C1623 0.961 . S
H1640 C1624 0.931 . S
H1641 C1629 0.930 . S
H1642 C1630 0.956 . S
H1643 C1630 0.961 . S
H1644 C1630 0.961 . S
H1645 C1631 0.958 . S
H1646 C1631 0.961 . S
H1647 C1631 0.960 . S
C1648 C1649 1.391 . S
C1648 C1650 1.394 . S
C1648 H1664 0.931 . S
C1649 C1648 1.391 . S
C1649 C1653 1.376 . S
C1650 C1648 1.394 . S
C1650 C1651 1.369 . S
C1650 C1654 1.531 . S
C1651 C1650 1.369 . S
C1651 C1652 1.410 . S
C1651 C1659 1.503 . S
C1652 C1651 1.410 . S
C1652 C1653 1.392 . S
C1652 C1655 1.511 . S
C1653 C1649 1.376 . S
C1653 C1652 1.392 . S
C1653 H1665 0.929 . S
C1654 C1650 1.531 . S
C1654 H1666 0.960 . S
C1654 H1667 0.962 . S
C1654 H1668 0.960 . S
C1655 C1652 1.511 . S
C1655 H1669 0.961 . S
C1655 H1670 0.961 . S
C1655 H1671 0.961 . S
C1656 C1657 1.370 . S
C1656 C1658 1.363 . S
C1656 H1672 0.931 . S
C1657 C1656 1.370 . S
C1657 C1661 1.408 . S
C1658 C1656 1.363 . S
C1658 C1659 1.370 . S
C1658 C1662 1.524 . S
C1659 C1651 1.503 . S
C1659 C1658 1.370 . S
C1659 C1660 1.403 . S
C1660 C1659 1.403 . S
C1660 C1661 1.404 . S
C1660 C1663 1.539 . S
C1661 C1657 1.408 . S
C1661 C1660 1.404 . S
C1661 H1673 0.930 . S
C1662 C1658 1.524 . S
C1662 H1674 0.956 . S
C1662 H1675 0.961 . S
C1662 H1676 0.961 . S
C1663 C1660 1.539 . S
C1663 H1677 0.958 . S
C1663 H1678 0.961 . S
C1663 H1679 0.960 . S
H1664 C1648 0.931 . S
H1665 C1653 0.929 . S
H1666 C1654 0.960 . S
H1667 C1654 0.962 . S
H1668 C1654 0.960 . S
H1669 C1655 0.961 . S
H1670 C1655 0.961 . S
H1671 C1655 0.961 . S
H1672 C1656 0.931 . S
H1673 C1661 0.930 . S
H1674 C1662 0.956 . S
H1675 C1662 0.961 . S
H1676 C1662 0.961 . S
H1677 C1663 0.958 . S
H1678 C1663 0.961 . S
H1679 C1663 0.960 . S
C1680 C1681 1.391 . S
C1680 C1682 1.394 . S
C1680 H1696 0.931 . S
C1681 C1680 1.391 . S
C1681 C1685 1.376 . S
C1682 C1680 1.394 . S
C1682 C1683 1.369 . S
C1682 C1686 1.531 . S
C1683 C1682 1.369 . S
C1683 C1684 1.410 . S
C1683 C1691 1.503 . S
C1684 C1683 1.410 . S
C1684 C1685 1.392 . S
C1684 C1687 1.511 . S
C1685 C1681 1.376 . S
C1685 C1684 1.392 . S
C1685 H1697 0.929 . S
C1686 C1682 1.531 . S
C1686 H1698 0.960 . S
C1686 H1699 0.962 . S
C1686 H1700 0.960 . S
C1687 C1684 1.511 . S
C1687 H1701 0.961 . S
C1687 H1702 0.961 . S
C1687 H1703 0.961 . S
C1688 C1689 1.370 . S
C1688 C1690 1.363 . S
C1688 H1704 0.931 . S
C1689 C1688 1.370 . S
C1689 C1693 1.408 . S
C1690 C1688 1.363 . S
C1690 C1691 1.370 . S
C1690 C1694 1.524 . S
C1691 C1683 1.503 . S
C1691 C1690 1.370 . S
C1691 C1692 1.403 . S
C1692 C1691 1.403 . S
C1692 C1693 1.404 . S
C1692 C1695 1.539 . S
C1693 C1689 1.408 . S
C1693 C1692 1.404 . S
C1693 H1705 0.930 . S
C1694 C1690 1.524 . S
C1694 H1706 0.956 . S
C1694 H1707 0.961 . S
C1694 H1708 0.961 . S
C1695 C1692 1.539 . S
C1695 H1709 0.958 . S
C1695 H1710 0.961 . S
C1695 H1711 0.960 . S
H1696 C1680 0.931 . S
H1697 C1685 0.929 . S
H1698 C1686 0.960 . S
H1699 C1686 0.962 . S
H1700 C1686 0.960 . S
H1701 C1687 0.961 . S
H1702 C1687 0.961 . S
H1703 C1687 0.961 . S
H1704 C1688 0.931 . S
H1705 C1693 0.930 . S
H1706 C1694 0.956 . S
H1707 C1694 0.961 . S
H1708 C1694 0.961 . S
H1709 C1695 0.958 . S
H1710 C1695 0.961 . S
H1711 C1695 0.960 . S
C1712 C1713 1.391 . S
C1712 C1714 1.394 . S
C1712 H1728 0.931 . S
C1713 C1712 1.391 . S
C1713 C1717 1.376 . S
C1714 C1712 1.394 . S
C1714 C1715 1.369 . S
C1714 C1718 1.531 . S
C1715 C1714 1.369 . S
C1715 C1716 1.410 . S
C1715 C1723 1.503 . S
C1716 C1715 1.410 . S
C1716 C1717 1.392 . S
C1716 C1719 1.511 . S
C1717 C1713 1.376 . S
C1717 C1716 1.392 . S
C1717 H1729 0.929 . S
C1718 C1714 1.531 . S
C1718 H1730 0.960 . S
C1718 H1731 0.962 . S
C1718 H1732 0.960 . S
C1719 C1716 1.511 . S
C1719 H1733 0.961 . S
C1719 H1734 0.961 . S
C1719 H1735 0.961 . S
C1720 C1721 1.370 . S
C1720 C1722 1.363 . S
C1720 H1736 0.931 . S
C1721 C1720 1.370 . S
C1721 C1725 1.408 . S
C1722 C1720 1.363 . S
C1722 C1723 1.370 . S
C1722 C1726 1.524 . S
C1723 C1715 1.503 . S
C1723 C1722 1.370 . S
C1723 C1724 1.403 . S
C1724 C1723 1.403 . S
C1724 C1725 1.404 . S
C1724 C1727 1.539 . S
C1725 C1721 1.408 . S
C1725 C1724 1.404 . S
C1725 H1737 0.930 . S
C1726 C1722 1.524 . S
C1726 H1738 0.956 . S
C1726 H1739 0.961 . S
C1726 H1740 0.961 . S
C1727 C1724 1.539 . S
C1727 H1741 0.958 . S
C1727 H1742 0.961 . S
C1727 H1743 0.960 . S
H1728 C1712 0.931 . S
H1729 C1717 0.929 . S
H1730 C1718 0.960 . S
H1731 C1718 0.962 . S
H1732 C1718 0.960 . S
H1733 C1719 0.961 . S
H1734 C1719 0.961 . S
H1735 C1719 0.961 . S
H1736 C1720 0.931 . S
H1737 C1725 0.930 . S
H1738 C1726 0.956 . S
H1739 C1726 0.961 . S
H1740 C1726 0.961 . S
H1741 C1727 0.958 . S
H1742 C1727 0.961 . S
H1743 C1727 0.960 . S
C1744 C1745 1.391 . S
C1744 C1746 1.394 . S
C1744 H1760 0.931 . S
C1745 C1744 1.391 . S
C1745 C1749 1.376 . S
C1746 C1744 1.394 . S
C1746 C1747 1.369 . S
C1746 C1750 1.531 . S
C1747 C1746 1.369 . S
C1747 C1748 1.410 . S
C1747 C1755 1.503 . S
C1748 C1747 1.410 . S
C1748 C1749 1.392 . S
C1748 C1751 1.511 . S
C1749 C1745 1.376 . S
C1749 C1748 1.392 . S
C1749 H1761 0.929 . S
C1750 C1746 1.531 . S
C1750 H1762 0.960 1_455 S
C1750 H1763 0.962 . S
C1750 H1764 0.960 1_455 S
C1751 C1748 1.511 . S
C1751 H1765 0.961 . S
C1751 H1766 0.961 . S
C1751 H1767 0.961 . S
C1752 C1753 1.370 . S
C1752 C1754 1.363 . S
C1752 H1768 0.931 . S
C1753 C1752 1.370 . S
C1753 C1757 1.408 . S
C1754 C1752 1.363 . S
C1754 C1755 1.370 . S
C1754 C1758 1.524 . S
C1755 C1747 1.503 . S
C1755 C1754 1.370 . S
C1755 C1756 1.403 . S
C1756 C1755 1.403 . S
C1756 C1757 1.404 . S
C1756 C1759 1.539 1_455 S
C1757 C1753 1.408 . S
C1757 C1756 1.404 . S
C1757 H1769 0.933 . S
C1758 C1754 1.524 . S
C1758 H1770 0.956 . S
C1758 H1771 0.961 . S
C1758 H1772 0.961 . S
C1759 C1756 1.539 1_655 S
C1759 H1773 0.958 . S
C1759 H1774 0.961 . S
C1759 H1775 0.960 . S
H1760 C1744 0.931 . S
H1761 C1749 0.929 . S
H1762 C1750 0.960 1_655 S
H1763 C1750 0.962 . S
H1764 C1750 0.960 1_655 S
H1765 C1751 0.961 . S
H1766 C1751 0.961 . S
H1767 C1751 0.961 . S
H1768 C1752 0.931 . S
H1769 C1757 0.933 . S
H1770 C1758 0.956 . S
H1771 C1758 0.961 . S
H1772 C1758 0.961 . S
H1773 C1759 0.958 . S
H1774 C1759 0.961 . S
H1775 C1759 0.960 . S
C1776 C1777 1.391 . S
C1776 C1778 1.394 . S
C1776 H1792 0.931 . S
C1777 C1776 1.391 . S
C1777 C1781 1.376 . S
C1778 C1776 1.394 . S
C1778 C1779 1.369 . S
C1778 C1782 1.531 . S
C1779 C1778 1.369 . S
C1779 C1780 1.410 . S
C1779 C1787 1.503 . S
C1780 C1779 1.410 . S
C1780 C1781 1.392 . S
C1780 C1783 1.511 . S
C1781 C1777 1.376 . S
C1781 C1780 1.392 . S
C1781 H1793 0.929 . S
C1782 C1778 1.531 . S
C1782 H1794 0.960 . S
C1782 H1795 0.962 . S
C1782 H1796 0.960 . S
C1783 C1780 1.511 . S
C1783 H1797 0.961 . S
C1783 H1798 0.961 . S
C1783 H1799 0.961 . S
C1784 C1785 1.370 . S
C1784 C1786 1.363 . S
C1784 H1800 0.931 . S
C1785 C1784 1.370 . S
C1785 C1789 1.408 . S
C1786 C1784 1.363 . S
C1786 C1787 1.370 . S
C1786 C1790 1.524 . S
C1787 C1779 1.503 . S
C1787 C1786 1.370 . S
C1787 C1788 1.403 . S
C1788 C1787 1.403 . S
C1788 C1789 1.404 . S
C1788 C1791 1.539 . S
C1789 C1785 1.408 . S
C1789 C1788 1.404 . S
C1789 H1801 0.930 . S
C1790 C1786 1.524 . S
C1790 H1802 0.956 . S
C1790 H1803 0.961 . S
C1790 H1804 0.961 . S
C1791 C1788 1.539 . S
C1791 H1805 0.958 . S
C1791 H1806 0.961 . S
C1791 H1807 0.960 . S
H1792 C1776 0.931 . S
H1793 C1781 0.929 . S
H1794 C1782 0.960 . S
H1795 C1782 0.962 . S
H1796 C1782 0.960 . S
H1797 C1783 0.961 . S
H1798 C1783 0.961 . S
H1799 C1783 0.961 . S
H1800 C1784 0.931 . S
H1801 C1789 0.930 . S
H1802 C1790 0.956 . S
H1803 C1790 0.961 . S
H1804 C1790 0.961 . S
H1805 C1791 0.958 . S
H1806 C1791 0.961 . S
H1807 C1791 0.960 . S
C1808 C1809 1.391 . S
C1808 C1810 1.394 . S
C1808 H1824 0.931 . S
C1809 C1808 1.391 . S
C1809 C1813 1.376 . S
C1810 C1808 1.394 . S
C1810 C1811 1.369 . S
C1810 C1814 1.531 . S
C1811 C1810 1.369 . S
C1811 C1812 1.410 . S
C1811 C1819 1.503 . S
C1812 C1811 1.410 . S
C1812 C1813 1.392 . S
C1812 C1815 1.511 . S
C1813 C1809 1.376 . S
C1813 C1812 1.392 . S
C1813 H1825 0.929 . S
C1814 C1810 1.531 . S
C1814 H1826 0.960 . S
C1814 H1827 0.962 . S
C1814 H1828 0.960 . S
C1815 C1812 1.511 . S
C1815 H1829 0.961 . S
C1815 H1830 0.961 . S
C1815 H1831 0.961 . S
C1816 C1817 1.370 . S
C1816 C1818 1.363 . S
C1816 H1832 0.931 . S
C1817 C1816 1.370 . S
C1817 C1821 1.408 . S
C1818 C1816 1.363 . S
C1818 C1819 1.370 . S
C1818 C1822 1.524 . S
C1819 C1811 1.503 . S
C1819 C1818 1.370 . S
C1819 C1820 1.403 . S
C1820 C1819 1.403 . S
C1820 C1821 1.404 . S
C1820 C1823 1.539 . S
C1821 C1817 1.408 . S
C1821 C1820 1.404 . S
C1821 H1833 0.930 . S
C1822 C1818 1.524 . S
C1822 H1834 0.956 . S
C1822 H1835 0.961 . S
C1822 H1836 0.961 . S
C1823 C1820 1.539 . S
C1823 H1837 0.958 . S
C1823 H1838 0.961 . S
C1823 H1839 0.960 . S
H1824 C1808 0.931 . S
H1825 C1813 0.929 . S
H1826 C1814 0.960 . S
H1827 C1814 0.962 . S
H1828 C1814 0.960 . S
H1829 C1815 0.961 . S
H1830 C1815 0.961 . S
H1831 C1815 0.961 . S
H1832 C1816 0.931 . S
H1833 C1821 0.930 . S
H1834 C1822 0.956 . S
H1835 C1822 0.961 . S
H1836 C1822 0.961 . S
H1837 C1823 0.958 . S
H1838 C1823 0.961 . S
H1839 C1823 0.960 . S
C1840 C1841 1.391 . S
C1840 C1842 1.394 . S
C1840 H1856 0.931 . S
C1841 C1840 1.391 . S
C1841 C1845 1.376 . S
C1842 C1840 1.394 . S
C1842 C1843 1.369 . S
C1842 C1846 1.531 . S
C1843 C1842 1.369 . S
C1843 C1844 1.410 . S
C1843 C1851 1.503 . S
C1844 C1843 1.410 . S
C1844 C1845 1.392 . S
C1844 C1847 1.511 . S
C1845 C1841 1.376 . S
C1845 C1844 1.392 . S
C1845 H1857 0.929 . S
C1846 C1842 1.531 . S
C1846 H1858 0.960 . S
C1846 H1859 0.962 . S
C1846 H1860 0.960 . S
C1847 C1844 1.511 . S
C1847 H1861 0.961 . S
C1847 H1862 0.961 . S
C1847 H1863 0.961 . S
C1848 C1849 1.370 . S
C1848 C1850 1.363 . S
C1848 H1864 0.931 . S
C1849 C1848 1.370 . S
C1849 C1853 1.408 . S
C1850 C1848 1.363 . S
C1850 C1851 1.370 . S
C1850 C1854 1.524 . S
C1851 C1843 1.503 . S
C1851 C1850 1.370 . S
C1851 C1852 1.403 . S
C1852 C1851 1.403 . S
C1852 C1853 1.404 . S
C1852 C1855 1.539 . S
C1853 C1849 1.408 . S
C1853 C1852 1.404 . S
C1853 H1865 0.930 . S
C1854 C1850 1.524 . S
C1854 H1866 0.956 . S
C1854 H1867 0.961 . S
C1854 H1868 0.961 . S
C1855 C1852 1.539 . S
C1855 H1869 0.958 . S
C1855 H1870 0.961 . S
C1855 H1871 0.960 . S
H1856 C1840 0.931 . S
H1857 C1845 0.929 . S
H1858 C1846 0.960 . S
H1859 C1846 0.962 . S
H1860 C1846 0.960 . S
H1861 C1847 0.961 . S
H1862 C1847 0.961 . S
H1863 C1847 0.961 . S
H1864 C1848 0.931 . S
H1865 C1853 0.930 . S
H1866 C1854 0.956 . S
H1867 C1854 0.961 . S
H1868 C1854 0.961 . S
H1869 C1855 0.958 . S
H1870 C1855 0.961 . S
H1871 C1855 0.960 . S
C1872 C1873 1.391 . S
C1872 C1874 1.394 . S
C1872 H1888 0.931 . S
C1873 C1872 1.391 . S
C1873 C1877 1.376 . S
C1874 C1872 1.394 . S
C1874 C1875 1.369 . S
C1874 C1878 1.531 . S
C1875 C1874 1.369 . S
C1875 C1876 1.410 . S
C1875 C1883 1.503 . S
C1876 C1875 1.410 . S
C1876 C1877 1.392 . S
C1876 C1879 1.511 . S
C1877 C1873 1.376 . S
C1877 C1876 1.392 . S
C1877 H1889 0.929 . S
C1878 C1874 1.531 . S
C1878 H1890 0.960 . S
C1878 H1891 0.962 . S
C1878 H1892 0.960 . S
C1879 C1876 1.511 . S
C1879 H1893 0.961 . S
C1879 H1894 0.961 . S
C1879 H1895 0.965 . S
C1880 C1881 1.370 . S
C1880 C1882 1.363 . S
C1880 H1896 0.931 . S
C1881 C1880 1.370 . S
C1881 C1885 1.395 1_455 S
C1882 C1880 1.363 . S
C1882 C1883 1.370 . S
C1882 C1886 1.524 . S
C1883 C1875 1.503 . S
C1883 C1882 1.370 . S
C1883 C1884 1.403 . S
C1884 C1883 1.403 . S
C1884 C1885 1.401 1_455 S
C1884 C1887 1.539 1_455 S
C1885 C1881 1.395 1_655 S
C1885 C1884 1.401 1_655 S
C1885 H1897 0.946 . S
C1886 C1882 1.524 . S
C1886 H1898 0.956 . S
C1886 H1899 0.961 . S
C1886 H1900 0.961 . S
C1887 C1884 1.539 1_655 S
C1887 H1901 0.958 . S
C1887 H1902 0.961 . S
C1887 H1903 0.960 . S
H1888 C1872 0.931 . S
H1889 C1877 0.929 . S
H1890 C1878 0.960 . S
H1891 C1878 0.962 . S
H1892 C1878 0.960 . S
H1893 C1879 0.961 . S
H1894 C1879 0.961 . S
H1895 C1879 0.965 . S
H1896 C1880 0.931 . S
H1897 C1885 0.946 . S
H1898 C1886 0.956 . S
H1899 C1886 0.961 . S
H1900 C1886 0.961 . S
H1901 C1887 0.958 . S
H1902 C1887 0.961 . S
H1903 C1887 0.960 . S
C1904 C1905 1.391 . S
C1904 C1906 1.394 . S
C1904 H1920 0.931 . S
C1905 C1904 1.391 . S
C1905 C1909 1.376 . S
C1906 C1904 1.394 . S
C1906 C1907 1.369 . S
C1906 C1910 1.531 . S
C1907 C1906 1.369 . S
C1907 C1908 1.410 . S
C1907 C1915 1.503 . S
C1908 C1907 1.410 . S
C1908 C1909 1.392 . S
C1908 C1911 1.511 . S
C1909 C1905 1.376 . S
C1909 C1908 1.392 . S
C1909 H1921 0.929 . S
C1910 C1906 1.531 . S
C1910 H1922 0.960 . S
C1910 H1923 0.962 . S
C1910 H1924 0.960 . S
C1911 C1908 1.511 . S
C1911 H1925 0.961 . S
C1911 H1926 0.961 . S
C1911 H1927 0.961 . S
C1912 C1913 1.370 . S
C1912 C1914 1.363 . S
C1912 H1928 0.931 . S
C1913 C1912 1.370 . S
C1913 C1917 1.408 . S
C1914 C1912 1.363 . S
C1914 C1915 1.370 . S
C1914 C1918 1.524 . S
C1915 C1907 1.503 . S
C1915 C1914 1.370 . S
C1915 C1916 1.403 . S
C1916 C1915 1.403 . S
C1916 C1917 1.404 . S
C1916 C1919 1.539 . S
C1917 C1913 1.408 . S
C1917 C1916 1.404 . S
C1917 H1929 0.930 . S
C1918 C1914 1.524 . S
C1918 H1930 0.956 . S
C1918 H1931 0.961 . S
C1918 H1932 0.961 . S
C1919 C1916 1.539 . S
C1919 H1933 0.958 . S
C1919 H1934 0.961 . S
C1919 H1935 0.960 . S
H1920 C1904 0.931 . S
H1921 C1909 0.929 . S
H1922 C1910 0.960 . S
H1923 C1910 0.962 . S
H1924 C1910 0.960 . S
H1925 C1911 0.961 . S
H1926 C1911 0.961 . S
H1927 C1911 0.961 . S
H1928 C1912 0.931 . S
H1929 C1917 0.930 . S
H1930 C1918 0.956 . S
H1931 C1918 0.961 . S
H1932 C1918 0.961 . S
H1933 C1919 0.958 . S
H1934 C1919 0.961 . S
H1935 C1919 0.960 . S
C1936 C1937 1.391 . S
C1936 C1938 1.394 . S
C1936 H1952 0.931 1_554 S
C1937 C1936 1.391 . S
C1937 C1941 1.376 . S
C1938 C1936 1.394 . S
C1938 C1939 1.369 . S
C1938 C1942 1.531 1_554 S
C1939 C1938 1.369 . S
C1939 C1940 1.410 . S
C1939 C1947 1.503 . S
C1940 C1939 1.410 . S
C1940 C1941 1.392 . S
C1940 C1943 1.511 . S
C1941 C1937 1.376 . S
C1941 C1940 1.392 . S
C1941 H1953 0.929 . S
C1942 C1938 1.531 1_556 S
C1942 H1954 0.961 . S
C1942 H1955 0.962 1_556 S
C1942 H1956 0.960 . S
C1943 C1940 1.511 . S
C1943 H1957 0.961 . S
C1943 H1958 0.961 . S
C1943 H1959 0.961 . S
C1944 C1945 1.370 . S
C1944 C1946 1.363 1_545 S
C1944 H1960 0.931 . S
C1945 C1944 1.370 . S
C1945 C1949 1.413 . S
C1946 C1944 1.363 1_565 S
C1946 C1947 1.370 . S
C1946 C1950 1.524 . S
C1947 C1939 1.503 . S
C1947 C1946 1.370 . S
C1947 C1948 1.403 . S
C1948 C1947 1.403 . S
C1948 C1949 1.396 1_565 S
C1948 C1951 1.539 . S
C1949 C1945 1.413 . S
C1949 C1948 1.396 1_545 S
C1949 H1961 0.933 . S
C1950 C1946 1.524 . S
C1950 H1962 0.956 . S
C1950 H1963 0.961 . S
C1950 H1964 0.961 1_565 S
C1951 C1948 1.539 . S
C1951 H1965 0.958 . S
C1951 H1966 0.961 . S
C1951 H1967 0.960 . S
H1952 C1936 0.931 1_556 S
H1953 C1941 0.929 . S
H1954 C1942 0.961 . S
H1955 C1942 0.962 1_554 S
H1956 C1942 0.960 . S
H1957 C1943 0.961 . S
H1958 C1943 0.961 . S
H1959 C1943 0.961 . S
H1960 C1944 0.931 . S
H1961 C1949 0.933 . S
H1962 C1950 0.956 . S
H1963 C1950 0.961 . S
H1964 C1950 0.961 1_545 S
H1965 C1951 0.958 . S
H1966 C1951 0.961 . S
H1967 C1951 0.960 . S
C1968 C1969 1.391 . S
C1968 C1970 1.394 . S
C1968 H1984 0.931 . S
C1969 C1968 1.391 . S
C1969 C1973 1.376 . S
C1970 C1968 1.394 . S
C1970 C1971 1.369 . S
C1970 C1974 1.531 . S
C1971 C1970 1.369 . S
C1971 C1972 1.410 . S
C1971 C1979 1.503 . S
C1972 C1971 1.410 . S
C1972 C1973 1.392 . S
C1972 C1975 1.511 . S
C1973 C1969 1.376 . S
C1973 C1972 1.392 . S
C1973 H1985 0.929 . S
C1974 C1970 1.531 . S
C1974 H1986 0.960 . S
C1974 H1987 0.962 . S
C1974 H1988 0.960 . S
C1975 C1972 1.511 . S
C1975 H1989 0.961 . S
C1975 H1990 0.961 . S
C1975 H1991 0.961 . S
C1976 C1977 1.370 . S
C1976 C1978 1.363 . S
C1976 H1992 0.931 . S
C1977 C1976 1.370 . S
C1977 C1981 1.408 . S
C1978 C1976 1.363 . S
C1978 C1979 1.370 . S
C1978 C1982 1.524 . S
C1979 C1971 1.503 . S
C1979 C1978 1.370 . S
C1979 C1980 1.403 . S
C1980 C1979 1.403 . S
C1980 C1981 1.404 . S
C1980 C1983 1.539 . S
C1981 C1977 1.408 . S
C1981 C1980 1.404 . S
C1981 H1993 0.930 . S
C1982 C1978 1.524 . S
C1982 H1994 0.956 . S
C1982 H1995 0.961 . S
C1982 H1996 0.961 . S
C1983 C1980 1.539 . S
C1983 H1997 0.958 . S
C1983 H1998 0.961 . S
C1983 H1999 0.960 . S
H1984 C1968 0.931 . S
H1985 C1973 0.929 . S
H1986 C1974 0.960 . S
H1987 C1974 0.962 . S
H1988 C1974 0.960 . S
H1989 C1975 0.961 . S
H1990 C1975 0.961 . S
H1991 C1975 0.961 . S
H1992 C1976 0.931 . S
H1993 C1981 0.930 . S
H1994 C1982 0.956 . S
H1995 C1982 0.961 . S
H1996 C1982 0.961 . S
H1997 C1983 0.958 . S
H1998 C1983 0.961 . S
H1999 C1983 0.960 . S
C2000 C2001 1.391 . S
C2000 C2002 1.394 . S
C2000 H2016 0.931 . S
C2001 C2000 1.391 . S
C2001 C2005 1.376 . S
C2002 C2000 1.394 . S
C2002 C2003 1.369 . S
C2002 C2006 1.531 . S
C2003 C2002 1.369 . S
C2003 C2004 1.410 . S
C2003 C2011 1.503 . S
C2004 C2003 1.410 . S
C2004 C2005 1.392 . S
C2004 C2007 1.511 . S
C2005 C2001 1.376 . S
C2005 C2004 1.392 . S
C2005 H2017 0.929 . S
C2006 C2002 1.531 . S
C2006 H2018 0.960 . S
C2006 H2019 0.962 . S
C2006 H2020 0.960 . S
C2007 C2004 1.511 . S
C2007 H2021 0.961 1_545 S
C2007 H2022 0.961 . S
C2007 H2023 0.961 . S
C2008 C2009 1.370 1_554 S
C2008 C2010 1.360 1_554 S
C2008 H2024 0.934 . S
C2009 C2008 1.370 1_556 S
C2009 C2013 1.408 . S
C2010 C2008 1.360 1_556 S
C2010 C2011 1.370 . S
C2010 C2014 1.524 . S
C2011 C2003 1.503 . S
C2011 C2010 1.370 . S
C2011 C2012 1.403 . S
C2012 C2011 1.403 . S
C2012 C2013 1.404 . S
C2012 C2015 1.539 . S
C2013 C2009 1.408 . S
C2013 C2012 1.404 . S
C2013 H2025 0.930 . S
C2014 C2010 1.524 . S
C2014 H2026 0.956 . S
C2014 H2027 0.961 . S
C2014 H2028 0.961 . S
C2015 C2012 1.539 . S
C2015 H2029 0.958 . S
C2015 H2030 0.961 . S
C2015 H2031 0.960 . S
H2016 C2000 0.931 . S
H2017 C2005 0.929 . S
H2018 C2006 0.960 . S
H2019 C2006 0.962 . S
H2020 C2006 0.960 . S
H2021 C2007 0.961 1_565 S
H2022 C2007 0.961 . S
H2023 C2007 0.961 . S
H2024 C2008 0.934 . S
H2025 C2013 0.930 . S
H2026 C2014 0.956 . S
H2027 C2014 0.961 . S
H2028 C2014 0.961 . S
H2029 C2015 0.958 . S
H2030 C2015 0.961 . S
H2031 C2015 0.960 . S
C2032 C2033 1.391 . S
C2032 C2034 1.394 . S
C2032 H2048 0.931 . S
C2033 C2032 1.391 . S
C2033 C2037 1.376 . S
C2034 C2032 1.394 . S
C2034 C2035 1.369 . S
C2034 C2038 1.531 . S
C2035 C2034 1.369 . S
C2035 C2036 1.410 . S
C2035 C2043 1.503 . S
C2036 C2035 1.410 . S
C2036 C2037 1.392 . S
C2036 C2039 1.511 . S
C2037 C2033 1.376 . S
C2037 C2036 1.392 . S
C2037 H2049 0.929 . S
C2038 C2034 1.531 . S
C2038 H2050 0.960 . S
C2038 H2051 0.962 . S
C2038 H2052 0.960 . S
C2039 C2036 1.511 . S
C2039 H2053 0.961 . S
C2039 H2054 0.961 . S
C2039 H2055 0.961 . S
C2040 C2041 1.370 . S
C2040 C2042 1.363 . S
C2040 H2056 0.931 . S
C2041 C2040 1.370 . S
C2041 C2045 1.408 . S
C2042 C2040 1.363 . S
C2042 C2043 1.370 . S
C2042 C2046 1.524 . S
C2043 C2035 1.503 . S
C2043 C2042 1.370 . S
C2043 C2044 1.403 . S
C2044 C2043 1.403 . S
C2044 C2045 1.404 . S
C2044 C2047 1.539 . S
C2045 C2041 1.408 . S
C2045 C2044 1.404 . S
C2045 H2057 0.930 . S
C2046 C2042 1.524 . S
C2046 H2058 0.956 . S
C2046 H2059 0.961 . S
C2046 H2060 0.961 . S
C2047 C2044 1.539 . S
C2047 H2061 0.958 . S
C2047 H2062 0.961 . S
C2047 H2063 0.960 . S
H2048 C2032 0.931 . S
H2049 C2037 0.929 . S
H2050 C2038 0.960 . S
H2051 C2038 0.962 . S
H2052 C2038 0.960 . S
H2053 C2039 0.961 . S
H2054 C2039 0.961 . S
H2055 C2039 0.961 . S
H2056 C2040 0.931 . S
H2057 C2045 0.930 . S
H2058 C2046 0.956 . S
H2059 C2046 0.961 . S
H2060 C2046 0.961 . S
H2061 C2047 0.958 . S
H2062 C2047 0.961 . S
H2063 C2047 0.960 . S
C2064 C2065 1.391 . S
C2064 C2066 1.394 . S
C2064 H2080 0.931 . S
C2065 C2064 1.391 . S
C2065 C2069 1.376 . S
C2066 C2064 1.394 . S
C2066 C2067 1.369 . S
C2066 C2070 1.531 . S
C2067 C2066 1.369 . S
C2067 C2068 1.410 . S
C2067 C2075 1.503 . S
C2068 C2067 1.410 . S
C2068 C2069 1.392 . S
C2068 C2071 1.511 . S
C2069 C2065 1.376 . S
C2069 C2068 1.392 . S
C2069 H2081 0.929 . S
C2070 C2066 1.531 . S
C2070 H2082 0.960 . S
C2070 H2083 0.962 . S
C2070 H2084 0.960 . S
C2071 C2068 1.511 . S
C2071 H2085 0.961 . S
C2071 H2086 0.961 . S
C2071 H2087 0.961 . S
C2072 C2073 1.370 . S
C2072 C2074 1.363 . S
C2072 H2088 0.931 . S
C2073 C2072 1.370 . S
C2073 C2077 1.408 . S
C2074 C2072 1.363 . S
C2074 C2075 1.370 . S
C2074 C2078 1.524 . S
C2075 C2067 1.503 . S
C2075 C2074 1.370 . S
C2075 C2076 1.403 . S
C2076 C2075 1.403 . S
C2076 C2077 1.404 . S
C2076 C2079 1.539 . S
C2077 C2073 1.408 . S
C2077 C2076 1.404 . S
C2077 H2089 0.930 . S
C2078 C2074 1.524 . S
C2078 H2090 0.956 . S
C2078 H2091 0.961 . S
C2078 H2092 0.961 . S
C2079 C2076 1.539 . S
C2079 H2093 0.958 . S
C2079 H2094 0.961 . S
C2079 H2095 0.960 . S
H2080 C2064 0.931 . S
H2081 C2069 0.929 . S
H2082 C2070 0.960 . S
H2083 C2070 0.962 . S
H2084 C2070 0.960 . S
H2085 C2071 0.961 . S
H2086 C2071 0.961 . S
H2087 C2071 0.961 . S
H2088 C2072 0.931 . S
H2089 C2077 0.930 . S
H2090 C2078 0.956 . S
H2091 C2078 0.961 . S
H2092 C2078 0.961 . S
H2093 C2079 0.958 . S
H2094 C2079 0.961 . S
H2095 C2079 0.960 . S
C2096 C2097 1.391 . S
C2096 C2098 1.394 . S
C2096 H2112 0.931 . S
C2097 C2096 1.391 . S
C2097 C2101 1.376 . S
C2098 C2096 1.394 . S
C2098 C2099 1.369 . S
C2098 C2102 1.531 . S
C2099 C2098 1.369 . S
C2099 C2100 1.410 . S
C2099 C2107 1.503 . S
C2100 C2099 1.410 . S
C2100 C2101 1.392 . S
C2100 C2103 1.511 . S
C2101 C2097 1.376 . S
C2101 C2100 1.392 . S
C2101 H2113 0.929 . S
C2102 C2098 1.531 . S
C2102 H2114 0.960 . S
C2102 H2115 0.962 . S
C2102 H2116 0.960 . S
C2103 C2100 1.511 . S
C2103 H2117 0.961 . S
C2103 H2118 0.961 . S
C2103 H2119 0.961 . S
C2104 C2105 1.370 . S
C2104 C2106 1.363 . S
C2104 H2120 0.931 . S
C2105 C2104 1.370 . S
C2105 C2109 1.408 . S
C2106 C2104 1.363 . S
C2106 C2107 1.370 . S
C2106 C2110 1.524 . S
C2107 C2099 1.503 . S
C2107 C2106 1.370 . S
C2107 C2108 1.403 . S
C2108 C2107 1.403 . S
C2108 C2109 1.404 . S
C2108 C2111 1.539 . S
C2109 C2105 1.408 . S
C2109 C2108 1.404 . S
C2109 H2121 0.930 . S
C2110 C2106 1.524 . S
C2110 H2122 0.956 . S
C2110 H2123 0.961 . S
C2110 H2124 0.961 . S
C2111 C2108 1.539 . S
C2111 H2125 0.958 . S
C2111 H2126 0.961 . S
C2111 H2127 0.960 . S
H2112 C2096 0.931 . S
H2113 C2101 0.929 . S
H2114 C2102 0.960 . S
H2115 C2102 0.962 . S
H2116 C2102 0.960 . S
H2117 C2103 0.961 . S
H2118 C2103 0.961 . S
H2119 C2103 0.961 . S
H2120 C2104 0.931 . S
H2121 C2109 0.930 . S
H2122 C2110 0.956 . S
H2123 C2110 0.961 . S
H2124 C2110 0.961 . S
H2125 C2111 0.958 . S
H2126 C2111 0.961 . S
H2127 C2111 0.960 . S
C2128 C2129 1.391 . S
C2128 C2130 1.394 . S
C2128 H2144 0.931 . S
C2129 C2128 1.391 . S
C2129 C2133 1.376 . S
C2130 C2128 1.394 . S
C2130 C2131 1.369 . S
C2130 C2134 1.531 . S
C2131 C2130 1.369 . S
C2131 C2132 1.410 . S
C2131 C2139 1.503 . S
C2132 C2131 1.410 . S
C2132 C2133 1.392 . S
C2132 C2135 1.511 . S
C2133 C2129 1.376 . S
C2133 C2132 1.392 . S
C2133 H2145 0.929 . S
C2134 C2130 1.531 . S
C2134 H2146 0.960 . S
C2134 H2147 0.962 . S
C2134 H2148 0.960 . S
C2135 C2132 1.511 . S
C2135 H2149 0.961 . S
C2135 H2150 0.961 . S
C2135 H2151 0.961 . S
C2136 C2137 1.370 . S
C2136 C2138 1.363 . S
C2136 H2152 0.931 . S
C2137 C2136 1.370 . S
C2137 C2141 1.408 . S
C2138 C2136 1.363 . S
C2138 C2139 1.370 . S
C2138 C2142 1.524 . S
C2139 C2131 1.503 . S
C2139 C2138 1.370 . S
C2139 C2140 1.403 . S
C2140 C2139 1.403 . S
C2140 C2141 1.404 . S
C2140 C2143 1.539 . S
C2141 C2137 1.408 . S
C2141 C2140 1.404 . S
C2141 H2153 0.930 . S
C2142 C2138 1.524 . S
C2142 H2154 0.962 . S
C2142 H2155 0.961 . S
C2142 H2156 0.961 1_545 S
C2143 C2140 1.539 . S
C2143 H2157 0.958 . S
C2143 H2158 0.961 . S
C2143 H2159 0.960 . S
H2144 C2128 0.931 . S
H2145 C2133 0.929 . S
H2146 C2134 0.960 . S
H2147 C2134 0.962 . S
H2148 C2134 0.960 . S
H2149 C2135 0.961 . S
H2150 C2135 0.961 . S
H2151 C2135 0.961 . S
H2152 C2136 0.931 . S
H2153 C2141 0.930 . S
H2154 C2142 0.962 . S
H2155 C2142 0.961 . S
H2156 C2142 0.961 1_565 S
H2157 C2143 0.958 . S
H2158 C2143 0.961 . S
H2159 C2143 0.960 . S
C2160 C2161 1.391 . S
C2160 C2162 1.394 . S
C2160 H2176 0.931 . S
C2161 C2160 1.391 . S
C2161 C2165 1.376 . S
C2162 C2160 1.394 . S
C2162 C2163 1.369 . S
C2162 C2166 1.531 . S
C2163 C2162 1.369 . S
C2163 C2164 1.410 . S
C2163 C2171 1.503 . S
C2164 C2163 1.410 . S
C2164 C2165 1.392 . S
C2164 C2167 1.511 . S
C2165 C2161 1.376 . S
C2165 C2164 1.392 . S
C2165 H2177 0.929 . S
C2166 C2162 1.531 . S
C2166 H2178 0.960 . S
C2166 H2179 0.962 . S
C2166 H2180 0.960 . S
C2167 C2164 1.511 . S
C2167 H2181 0.961 . S
C2167 H2182 0.961 . S
C2167 H2183 0.961 . S
C2168 C2169 1.370 . S
C2168 C2170 1.363 . S
C2168 H2184 0.931 . S
C2169 C2168 1.370 . S
C2169 C2173 1.408 . S
C2170 C2168 1.363 . S
C2170 C2171 1.370 . S
C2170 C2174 1.524 . S
C2171 C2163 1.503 . S
C2171 C2170 1.370 . S
C2171 C2172 1.403 . S
C2172 C2171 1.403 . S
C2172 C2173 1.404 . S
C2172 C2175 1.539 . S
C2173 C2169 1.408 . S
C2173 C2172 1.404 . S
C2173 H2185 0.930 . S
C2174 C2170 1.524 . S
C2174 H2186 0.956 . S
C2174 H2187 0.961 . S
C2174 H2188 0.961 . S
C2175 C2172 1.539 . S
C2175 H2189 0.958 . S
C2175 H2190 0.961 . S
C2175 H2191 0.960 . S
H2176 C2160 0.931 . S
H2177 C2165 0.929 . S
H2178 C2166 0.960 . S
H2179 C2166 0.962 . S
H2180 C2166 0.960 . S
H2181 C2167 0.961 . S
H2182 C2167 0.961 . S
H2183 C2167 0.961 . S
H2184 C2168 0.931 . S
H2185 C2173 0.930 . S
H2186 C2174 0.956 . S
H2187 C2174 0.961 . S
H2188 C2174 0.961 . S
H2189 C2175 0.958 . S
H2190 C2175 0.961 . S
H2191 C2175 0.960 . S
C2192 C2193 1.391 . S
C2192 C2194 1.394 . S
C2192 H2208 0.931 . S
C2193 C2192 1.391 . S
C2193 C2197 1.376 . S
C2194 C2192 1.394 . S
C2194 C2195 1.369 . S
C2194 C2198 1.531 . S
C2195 C2194 1.369 . S
C2195 C2196 1.410 . S
C2195 C2203 1.503 . S
C2196 C2195 1.410 . S
C2196 C2197 1.392 . S
C2196 C2199 1.511 . S
C2197 C2193 1.376 . S
C2197 C2196 1.392 . S
C2197 H2209 0.929 . S
C2198 C2194 1.531 . S
C2198 H2210 0.960 . S
C2198 H2211 0.962 . S
C2198 H2212 0.960 . S
C2199 C2196 1.511 . S
C2199 H2213 0.961 . S
C2199 H2214 0.961 . S
C2199 H2215 0.961 . S
C2200 C2201 1.370 . S
C2200 C2202 1.363 . S
C2200 H2216 0.931 . S
C2201 C2200 1.370 . S
C2201 C2205 1.408 . S
C2202 C2200 1.363 . S
C2202 C2203 1.370 . S
C2202 C2206 1.524 . S
C2203 C2195 1.503 . S
C2203 C2202 1.370 . S
C2203 C2204 1.403 . S
C2204 C2203 1.403 . S
C2204 C2205 1.404 . S
C2204 C2207 1.539 . S
C2205 C2201 1.408 . S
C2205 C2204 1.404 . S
C2205 H2217 0.930 . S
C2206 C2202 1.524 . S
C2206 H2218 0.956 . S
C2206 H2219 0.961 . S
C2206 H2220 0.961 . S
C2207 C2204 1.539 . S
C2207 H2221 0.958 . S
C2207 H2222 0.961 . S
C2207 H2223 0.960 . S
H2208 C2192 0.931 . S
H2209 C2197 0.929 . S
H2210 C2198 0.960 . S
H2211 C2198 0.962 . S
H2212 C2198 0.960 . S
H2213 C2199 0.961 . S
H2214 C2199 0.961 . S
H2215 C2199 0.961 . S
H2216 C2200 0.931 . S
H2217 C2205 0.930 . S
H2218 C2206 0.956 . S
H2219 C2206 0.961 . S
H2220 C2206 0.961 . S
H2221 C2207 0.958 . S
H2222 C2207 0.961 . S
H2223 C2207 0.960 . S
C2224 C2225 1.391 . S
C2224 C2226 1.394 . S
C2224 H2240 0.931 . S
C2225 C2224 1.391 . S
C2225 C2229 1.376 . S
C2226 C2224 1.394 . S
C2226 C2227 1.369 . S
C2226 C2230 1.531 . S
C2227 C2226 1.369 . S
C2227 C2228 1.410 . S
C2227 C2235 1.503 . S
C2228 C2227 1.410 . S
C2228 C2229 1.392 . S
C2228 C2231 1.511 . S
C2229 C2225 1.376 . S
C2229 C2228 1.392 . S
C2229 H2241 0.929 . S
C2230 C2226 1.531 . S
C2230 H2242 0.960 . S
C2230 H2243 0.962 . S
C2230 H2244 0.960 . S
C2231 C2228 1.511 . S
C2231 H2245 0.961 . S
C2231 H2246 0.961 . S
C2231 H2247 0.961 . S
C2232 C2233 1.370 . S
C2232 C2234 1.363 . S
C2232 H2248 0.931 . S
C2233 C2232 1.370 . S
C2233 C2237 1.408 . S
C2234 C2232 1.363 . S
C2234 C2235 1.370 . S
C2234 C2238 1.524 . S
C2235 C2227 1.503 . S
C2235 C2234 1.370 . S
C2235 C2236 1.403 . S
C2236 C2235 1.403 . S
C2236 C2237 1.404 . S
C2236 C2239 1.539 . S
C2237 C2233 1.408 . S
C2237 C2236 1.404 . S
C2237 H2249 0.930 . S
C2238 C2234 1.524 . S
C2238 H2250 0.956 . S
C2238 H2251 0.961 . S
C2238 H2252 0.961 . S
C2239 C2236 1.539 . S
C2239 H2253 0.958 . S
C2239 H2254 0.961 . S
C2239 H2255 0.960 . S
H2240 C2224 0.931 . S
H2241 C2229 0.929 . S
H2242 C2230 0.960 . S
H2243 C2230 0.962 . S
H2244 C2230 0.960 . S
H2245 C2231 0.961 . S
H2246 C2231 0.961 . S
H2247 C2231 0.961 . S
H2248 C2232 0.931 . S
H2249 C2237 0.930 . S
H2250 C2238 0.956 . S
H2251 C2238 0.961 . S
H2252 C2238 0.961 . S
H2253 C2239 0.958 . S
H2254 C2239 0.961 . S
H2255 C2239 0.960 . S
C2256 C2257 1.391 . S
C2256 C2258 1.394 . S
C2256 H2272 0.931 . S
C2257 C2256 1.391 . S
C2257 C2261 1.376 . S
C2258 C2256 1.394 . S
C2258 C2259 1.369 . S
C2258 C2262 1.531 . S
C2259 C2258 1.369 . S
C2259 C2260 1.410 . S
C2259 C2267 1.503 . S
C2260 C2259 1.410 . S
C2260 C2261 1.392 . S
C2260 C2263 1.511 . S
C2261 C2257 1.376 . S
C2261 C2260 1.392 . S
C2261 H2273 0.929 . S
C2262 C2258 1.531 . S
C2262 H2274 0.960 . S
C2262 H2275 0.962 . S
C2262 H2276 0.960 . S
C2263 C2260 1.511 . S
C2263 H2277 0.961 . S
C2263 H2278 0.961 . S
C2263 H2279 0.961 . S
C2264 C2265 1.370 . S
C2264 C2266 1.363 . S
C2264 H2280 0.931 . S
C2265 C2264 1.370 . S
C2265 C2269 1.408 . S
C2266 C2264 1.363 . S
C2266 C2267 1.370 . S
C2266 C2270 1.524 . S
C2267 C2259 1.503 . S
C2267 C2266 1.370 . S
C2267 C2268 1.403 . S
C2268 C2267 1.403 . S
C2268 C2269 1.404 . S
C2268 C2271 1.539 . S
C2269 C2265 1.408 . S
C2269 C2268 1.404 . S
C2269 H2281 0.930 . S
C2270 C2266 1.524 . S
C2270 H2282 0.956 . S
C2270 H2283 0.961 . S
C2270 H2284 0.961 . S
C2271 C2268 1.539 . S
C2271 H2285 0.958 . S
C2271 H2286 0.961 1_554 S
C2271 H2287 0.960 . S
H2272 C2256 0.931 . S
H2273 C2261 0.929 . S
H2274 C2262 0.960 . S
H2275 C2262 0.962 . S
H2276 C2262 0.960 . S
H2277 C2263 0.961 . S
H2278 C2263 0.961 . S
H2279 C2263 0.961 . S
H2280 C2264 0.931 . S
H2281 C2269 0.930 . S
H2282 C2270 0.956 . S
H2283 C2270 0.961 . S
H2284 C2270 0.961 . S
H2285 C2271 0.958 . S
H2286 C2271 0.961 1_556 S
H2287 C2271 0.960 . S
C2288 C2289 1.391 . S
C2288 C2290 1.394 . S
C2288 H2304 0.931 . S
C2289 C2288 1.391 . S
C2289 C2293 1.376 . S
C2290 C2288 1.394 . S
C2290 C2291 1.369 . S
C2290 C2294 1.531 . S
C2291 C2290 1.369 . S
C2291 C2292 1.410 . S
C2291 C2299 1.503 . S
C2292 C2291 1.410 . S
C2292 C2293 1.392 . S
C2292 C2295 1.511 . S
C2293 C2289 1.376 . S
C2293 C2292 1.392 . S
C2293 H2305 0.929 . S
C2294 C2290 1.531 . S
C2294 H2306 0.960 . S
C2294 H2307 0.962 . S
C2294 H2308 0.960 . S
C2295 C2292 1.511 . S
C2295 H2309 0.961 . S
C2295 H2310 0.961 . S
C2295 H2311 0.961 . S
C2296 C2297 1.370 . S
C2296 C2298 1.363 . S
C2296 H2312 0.931 . S
C2297 C2296 1.370 . S
C2297 C2301 1.408 . S
C2298 C2296 1.363 . S
C2298 C2299 1.370 . S
C2298 C2302 1.524 . S
C2299 C2291 1.503 . S
C2299 C2298 1.370 . S
C2299 C2300 1.403 . S
C2300 C2299 1.403 . S
C2300 C2301 1.404 . S
C2300 C2303 1.539 . S
C2301 C2297 1.408 . S
C2301 C2300 1.404 . S
C2301 H2313 0.930 . S
C2302 C2298 1.524 . S
C2302 H2314 0.956 . S
C2302 H2315 0.961 . S
C2302 H2316 0.961 . S
C2303 C2300 1.539 . S
C2303 H2317 0.958 . S
C2303 H2318 0.961 . S
C2303 H2319 0.960 . S
H2304 C2288 0.931 . S
H2305 C2293 0.929 . S
H2306 C2294 0.960 . S
H2307 C2294 0.962 . S
H2308 C2294 0.960 . S
H2309 C2295 0.961 . S
H2310 C2295 0.961 . S
H2311 C2295 0.961 . S
H2312 C2296 0.931 . S
H2313 C2301 0.930 . S
H2314 C2302 0.956 . S
H2315 C2302 0.961 . S
H2316 C2302 0.961 . S
H2317 C2303 0.958 . S
H2318 C2303 0.961 . S
H2319 C2303 0.960 . S
C2320 C2321 1.391 . S
C2320 C2322 1.394 . S
C2320 H2336 0.931 . S
C2321 C2320 1.391 . S
C2321 C2325 1.376 . S
C2322 C2320 1.394 . S
C2322 C2323 1.369 . S
C2322 C2326 1.531 . S
C2323 C2322 1.369 . S
C2323 C2324 1.410 . S
C2323 C2331 1.503 . S
C2324 C2323 1.410 . S
C2324 C2325 1.392 . S
C2324 C2327 1.511 . S
C2325 C2321 1.376 . S
C2325 C2324 1.392 . S
C2325 H2337 0.929 . S
C2326 C2322 1.531 . S
C2326 H2338 0.960 . S
C2326 H2339 0.962 . S
C2326 H2340 0.960 . S
C2327 C2324 1.511 . S
C2327 H2341 0.961 . S
C2327 H2342 0.961 . S
C2327 H2343 0.961 . S
C2328 C2329 1.370 . S
C2328 C2330 1.363 . S
C2328 H2344 0.931 . S
C2329 C2328 1.370 . S
C2329 C2333 1.408 . S
C2330 C2328 1.363 . S
C2330 C2331 1.370 . S
C2330 C2334 1.524 . S
C2331 C2323 1.503 . S
C2331 C2330 1.370 . S
C2331 C2332 1.403 . S
C2332 C2331 1.403 . S
C2332 C2333 1.404 . S
C2332 C2335 1.539 . S
C2333 C2329 1.408 . S
C2333 C2332 1.404 . S
C2333 H2345 0.930 . S
C2334 C2330 1.524 . S
C2334 H2346 0.956 . S
C2334 H2347 0.961 . S
C2334 H2348 0.961 . S
C2335 C2332 1.539 . S
C2335 H2349 0.958 . S
C2335 H2350 0.961 . S
C2335 H2351 0.960 . S
H2336 C2320 0.931 . S
H2337 C2325 0.929 . S
H2338 C2326 0.960 . S
H2339 C2326 0.962 . S
H2340 C2326 0.960 . S
H2341 C2327 0.961 . S
H2342 C2327 0.961 . S
H2343 C2327 0.961 . S
H2344 C2328 0.931 . S
H2345 C2333 0.930 . S
H2346 C2334 0.956 . S
H2347 C2334 0.961 . S
H2348 C2334 0.961 . S
H2349 C2335 0.958 . S
H2350 C2335 0.961 . S
H2351 C2335 0.960 . S
C2352 C2353 1.391 . S
C2352 C2354 1.394 . S
C2352 H2368 0.931 . S
C2353 C2352 1.391 . S
C2353 C2357 1.376 . S
C2354 C2352 1.394 . S
C2354 C2355 1.369 . S
C2354 C2358 1.531 . S
C2355 C2354 1.369 . S
C2355 C2356 1.410 . S
C2355 C2363 1.503 . S
C2356 C2355 1.410 . S
C2356 C2357 1.392 . S
C2356 C2359 1.511 . S
C2357 C2353 1.376 . S
C2357 C2356 1.392 . S
C2357 H2369 0.929 . S
C2358 C2354 1.531 . S
C2358 H2370 0.960 . S
C2358 H2371 0.962 . S
C2358 H2372 0.960 . S
C2359 C2356 1.511 . S
C2359 H2373 0.961 . S
C2359 H2374 0.961 . S
C2359 H2375 0.961 . S
C2360 C2361 1.370 . S
C2360 C2362 1.363 . S
C2360 H2376 0.931 . S
C2361 C2360 1.370 . S
C2361 C2365 1.408 . S
C2362 C2360 1.363 . S
C2362 C2363 1.370 . S
C2362 C2366 1.524 . S
C2363 C2355 1.503 . S
C2363 C2362 1.370 . S
C2363 C2364 1.403 . S
C2364 C2363 1.403 . S
C2364 C2365 1.404 . S
C2364 C2367 1.539 . S
C2365 C2361 1.408 . S
C2365 C2364 1.404 . S
C2365 H2377 0.930 . S
C2366 C2362 1.524 . S
C2366 H2378 0.956 . S
C2366 H2379 0.961 . S
C2366 H2380 0.961 . S
C2367 C2364 1.539 . S
C2367 H2381 0.958 . S
C2367 H2382 0.961 . S
C2367 H2383 0.960 . S
H2368 C2352 0.931 . S
H2369 C2357 0.929 . S
H2370 C2358 0.960 . S
H2371 C2358 0.962 . S
H2372 C2358 0.960 . S
H2373 C2359 0.961 . S
H2374 C2359 0.961 . S
H2375 C2359 0.961 . S
H2376 C2360 0.931 . S
H2377 C2365 0.930 . S
H2378 C2366 0.956 . S
H2379 C2366 0.961 . S
H2380 C2366 0.961 . S
H2381 C2367 0.958 . S
H2382 C2367 0.961 . S
H2383 C2367 0.960 . S
C2384 C2385 1.391 . S
C2384 C2386 1.394 . S
C2384 H2400 0.931 . S
C2385 C2384 1.391 . S
C2385 C2389 1.376 . S
C2386 C2384 1.394 . S
C2386 C2387 1.369 . S
C2386 C2390 1.531 . S
C2387 C2386 1.369 . S
C2387 C2388 1.410 . S
C2387 C2395 1.503 . S
C2388 C2387 1.410 . S
C2388 C2389 1.392 . S
C2388 C2391 1.511 . S
C2389 C2385 1.376 . S
C2389 C2388 1.392 . S
C2389 H2401 0.929 . S
C2390 C2386 1.531 . S
C2390 H2402 0.960 . S
C2390 H2403 0.962 . S
C2390 H2404 0.960 . S
C2391 C2388 1.511 . S
C2391 H2405 0.961 . S
C2391 H2406 0.961 . S
C2391 H2407 0.961 . S
C2392 C2393 1.370 . S
C2392 C2394 1.363 . S
C2392 H2408 0.931 . S
C2393 C2392 1.370 . S
C2393 C2397 1.408 . S
C2394 C2392 1.363 . S
C2394 C2395 1.370 . S
C2394 C2398 1.524 . S
C2395 C2387 1.503 . S
C2395 C2394 1.370 . S
C2395 C2396 1.403 . S
C2396 C2395 1.403 . S
C2396 C2397 1.404 . S
C2396 C2399 1.539 . S
C2397 C2393 1.408 . S
C2397 C2396 1.404 . S
C2397 H2409 0.930 . S
C2398 C2394 1.524 . S
C2398 H2410 0.956 . S
C2398 H2411 0.961 . S
C2398 H2412 0.961 . S
C2399 C2396 1.539 . S
C2399 H2413 0.958 . S
C2399 H2414 0.961 . S
C2399 H2415 0.960 . S
H2400 C2384 0.931 . S
H2401 C2389 0.929 . S
H2402 C2390 0.960 . S
H2403 C2390 0.962 . S
H2404 C2390 0.960 . S
H2405 C2391 0.961 . S
H2406 C2391 0.961 . S
H2407 C2391 0.961 . S
H2408 C2392 0.931 . S
H2409 C2397 0.930 . S
H2410 C2398 0.956 . S
H2411 C2398 0.961 . S
H2412 C2398 0.961 . S
H2413 C2399 0.958 . S
H2414 C2399 0.961 . S
H2415 C2399 0.960 . S
C2416 C2417 1.391 . S
C2416 C2418 1.394 . S
C2416 H2432 0.931 . S
C2417 C2416 1.391 . S
C2417 C2421 1.376 1_545 S
C2418 C2416 1.394 . S
C2418 C2419 1.369 . S
C2418 C2422 1.531 . S
C2419 C2418 1.369 . S
C2419 C2420 1.410 1_545 S
C2419 C2427 1.503 . S
C2420 C2419 1.410 1_565 S
C2420 C2421 1.392 . S
C2420 C2423 1.511 . S
C2421 C2417 1.376 1_565 S
C2421 C2420 1.392 . S
C2421 H2433 0.929 . S
C2422 C2418 1.531 . S
C2422 H2434 0.960 . S
C2422 H2435 0.962 . S
C2422 H2436 0.960 . S
C2423 C2420 1.511 . S
C2423 H2437 0.961 . S
C2423 H2438 0.961 . S
C2423 H2439 0.961 . S
C2424 C2425 1.370 . S
C2424 C2426 1.363 . S
C2424 H2440 0.931 . S
C2425 C2424 1.370 . S
C2425 C2429 1.408 . S
C2426 C2424 1.363 . S
C2426 C2427 1.370 . S
C2426 C2430 1.524 1_545 S
C2427 C2419 1.503 . S
C2427 C2426 1.370 . S
C2427 C2428 1.403 . S
C2428 C2427 1.403 . S
C2428 C2429 1.404 . S
C2428 C2431 1.539 . S
C2429 C2425 1.408 . S
C2429 C2428 1.404 . S
C2429 H2441 0.930 . S
C2430 C2426 1.524 1_565 S
C2430 H2442 0.956 1_565 S
C2430 H2443 0.961 . S
C2430 H2444 0.961 . S
C2431 C2428 1.539 . S
C2431 H2445 0.958 . S
C2431 H2446 0.961 . S
C2431 H2447 0.960 . S
H2432 C2416 0.931 . S
H2433 C2421 0.929 . S
H2434 C2422 0.960 . S
H2435 C2422 0.962 . S
H2436 C2422 0.960 . S
H2437 C2423 0.961 . S
H2438 C2423 0.961 . S
H2439 C2423 0.961 . S
H2440 C2424 0.931 . S
H2441 C2429 0.930 . S
H2442 C2430 0.956 1_545 S
H2443 C2430 0.961 . S
H2444 C2430 0.961 . S
H2445 C2431 0.958 . S
H2446 C2431 0.961 . S
H2447 C2431 0.960 . S
C2448 C2449 1.391 . S
C2448 C2450 1.394 . S
C2448 H2464 0.931 . S
C2449 C2448 1.391 . S
C2449 C2453 1.376 . S
C2450 C2448 1.394 . S
C2450 C2451 1.369 . S
C2450 C2454 1.531 . S
C2451 C2450 1.369 . S
C2451 C2452 1.410 . S
C2451 C2459 1.503 . S
C2452 C2451 1.410 . S
C2452 C2453 1.392 . S
C2452 C2455 1.511 . S
C2453 C2449 1.376 . S
C2453 C2452 1.392 . S
C2453 H2465 0.929 . S
C2454 C2450 1.531 . S
C2454 H2466 0.960 . S
C2454 H2467 0.962 . S
C2454 H2468 0.960 . S
C2455 C2452 1.511 . S
C2455 H2469 0.961 . S
C2455 H2470 0.961 . S
C2455 H2471 0.961 . S
C2456 C2457 1.370 . S
C2456 C2458 1.363 . S
C2456 H2472 0.931 . S
C2457 C2456 1.370 . S
C2457 C2461 1.408 . S
C2458 C2456 1.363 . S
C2458 C2459 1.370 . S
C2458 C2462 1.524 . S
C2459 C2451 1.503 . S
C2459 C2458 1.370 . S
C2459 C2460 1.403 . S
C2460 C2459 1.403 . S
C2460 C2461 1.404 . S
C2460 C2463 1.539 . S
C2461 C2457 1.408 . S
C2461 C2460 1.404 . S
C2461 H2473 0.930 . S
C2462 C2458 1.524 . S
C2462 H2474 0.956 . S
C2462 H2475 0.961 . S
C2462 H2476 0.961 . S
C2463 C2460 1.539 . S
C2463 H2477 0.958 . S
C2463 H2478 0.961 . S
C2463 H2479 0.960 . S
H2464 C2448 0.931 . S
H2465 C2453 0.929 . S
H2466 C2454 0.960 . S
H2467 C2454 0.962 . S
H2468 C2454 0.960 . S
H2469 C2455 0.961 . S
H2470 C2455 0.961 . S
H2471 C2455 0.961 . S
H2472 C2456 0.931 . S
H2473 C2461 0.930 . S
H2474 C2462 0.956 . S
H2475 C2462 0.961 . S
H2476 C2462 0.961 . S
H2477 C2463 0.958 . S
H2478 C2463 0.961 . S
H2479 C2463 0.960 . S
C2480 C2481 1.391 . S
C2480 C2482 1.394 . S
C2480 H2496 0.931 . S
C2481 C2480 1.391 . S
C2481 C2485 1.376 . S
C2482 C2480 1.394 . S
C2482 C2483 1.369 . S
C2482 C2486 1.531 . S
C2483 C2482 1.369 . S
C2483 C2484 1.410 . S
C2483 C2491 1.503 . S
C2484 C2483 1.410 . S
C2484 C2485 1.392 . S
C2484 C2487 1.511 . S
C2485 C2481 1.376 . S
C2485 C2484 1.392 . S
C2485 H2497 0.929 . S
C2486 C2482 1.531 . S
C2486 H2498 0.960 . S
C2486 H2499 0.962 . S
C2486 H2500 0.960 . S
C2487 C2484 1.511 . S
C2487 H2501 0.961 . S
C2487 H2502 0.961 . S
C2487 H2503 0.961 . S
C2488 C2489 1.370 . S
C2488 C2490 1.363 . S
C2488 H2504 0.931 . S
C2489 C2488 1.370 . S
C2489 C2493 1.408 . S
C2490 C2488 1.363 . S
C2490 C2491 1.370 . S
C2490 C2494 1.524 . S
C2491 C2483 1.503 . S
C2491 C2490 1.370 . S
C2491 C2492 1.403 . S
C2492 C2491 1.403 . S
C2492 C2493 1.404 . S
C2492 C2495 1.539 . S
C2493 C2489 1.408 . S
C2493 C2492 1.404 . S
C2493 H2505 0.930 . S
C2494 C2490 1.524 . S
C2494 H2506 0.956 . S
C2494 H2507 0.961 . S
C2494 H2508 0.961 . S
C2495 C2492 1.539 . S
C2495 H2509 0.958 . S
C2495 H2510 0.961 . S
C2495 H2511 0.960 . S
H2496 C2480 0.931 . S
H2497 C2485 0.929 . S
H2498 C2486 0.960 . S
H2499 C2486 0.962 . S
H2500 C2486 0.960 . S
H2501 C2487 0.961 . S
H2502 C2487 0.961 . S
H2503 C2487 0.961 . S
H2504 C2488 0.931 . S
H2505 C2493 0.930 . S
H2506 C2494 0.956 . S
H2507 C2494 0.961 . S
H2508 C2494 0.961 . S
H2509 C2495 0.958 . S
H2510 C2495 0.961 . S
H2511 C2495 0.960 . S
C2512 C2513 1.391 . S
C2512 C2514 1.394 . S
C2512 H2528 0.931 . S
C2513 C2512 1.391 . S
C2513 C2517 1.376 . S
C2514 C2512 1.394 . S
C2514 C2515 1.369 . S
C2514 C2518 1.531 . S
C2515 C2514 1.369 . S
C2515 C2516 1.410 . S
C2515 C2523 1.503 . S
C2516 C2515 1.410 . S
C2516 C2517 1.392 . S
C2516 C2519 1.511 . S
C2517 C2513 1.376 . S
C2517 C2516 1.392 . S
C2517 H2529 0.929 . S
C2518 C2514 1.531 . S
C2518 H2530 0.960 . S
C2518 H2531 0.962 . S
C2518 H2532 0.960 . S
C2519 C2516 1.511 . S
C2519 H2533 0.961 . S
C2519 H2534 0.961 . S
C2519 H2535 0.961 . S
C2520 C2521 1.370 . S
C2520 C2522 1.363 . S
C2520 H2536 0.931 . S
C2521 C2520 1.370 . S
C2521 C2525 1.408 . S
C2522 C2520 1.363 . S
C2522 C2523 1.370 . S
C2522 C2526 1.524 . S
C2523 C2515 1.503 . S
C2523 C2522 1.370 . S
C2523 C2524 1.403 . S
C2524 C2523 1.403 . S
C2524 C2525 1.404 . S
C2524 C2527 1.539 . S
C2525 C2521 1.408 . S
C2525 C2524 1.404 . S
C2525 H2537 0.930 . S
C2526 C2522 1.524 . S
C2526 H2538 0.956 . S
C2526 H2539 0.961 . S
C2526 H2540 0.961 . S
C2527 C2524 1.539 . S
C2527 H2541 0.958 . S
C2527 H2542 0.961 . S
C2527 H2543 0.960 . S
H2528 C2512 0.931 . S
H2529 C2517 0.929 . S
H2530 C2518 0.960 . S
H2531 C2518 0.962 . S
H2532 C2518 0.960 . S
H2533 C2519 0.961 . S
H2534 C2519 0.961 . S
H2535 C2519 0.961 . S
H2536 C2520 0.931 . S
H2537 C2525 0.930 . S
H2538 C2526 0.956 . S
H2539 C2526 0.961 . S
H2540 C2526 0.961 . S
H2541 C2527 0.958 . S
H2542 C2527 0.961 . S
H2543 C2527 0.960 . S
C2544 C2545 1.391 . S
C2544 C2546 1.394 . S
C2544 H2560 0.931 . S
C2545 C2544 1.391 . S
C2545 C2549 1.376 . S
C2546 C2544 1.394 . S
C2546 C2547 1.369 . S
C2546 C2550 1.531 . S
C2547 C2546 1.369 . S
C2547 C2548 1.410 . S
C2547 C2555 1.503 . S
C2548 C2547 1.410 . S
C2548 C2549 1.392 . S
C2548 C2551 1.511 . S
C2549 C2545 1.376 . S
C2549 C2548 1.392 . S
C2549 H2561 0.929 . S
C2550 C2546 1.531 . S
C2550 H2562 0.960 . S
C2550 H2563 0.962 . S
C2550 H2564 0.960 . S
C2551 C2548 1.511 . S
C2551 H2565 0.961 . S
C2551 H2566 0.961 . S
C2551 H2567 0.961 . S
C2552 C2553 1.370 . S
C2552 C2554 1.363 . S
C2552 H2568 0.931 . S
C2553 C2552 1.370 . S
C2553 C2557 1.408 . S
C2554 C2552 1.363 . S
C2554 C2555 1.370 . S
C2554 C2558 1.524 . S
C2555 C2547 1.503 . S
C2555 C2554 1.370 . S
C2555 C2556 1.403 . S
C2556 C2555 1.403 . S
C2556 C2557 1.404 . S
C2556 C2559 1.539 . S
C2557 C2553 1.408 . S
C2557 C2556 1.404 . S
C2557 H2569 0.930 . S
C2558 C2554 1.524 . S
C2558 H2570 0.956 . S
C2558 H2571 0.961 . S
C2558 H2572 0.961 . S
C2559 C2556 1.539 . S
C2559 H2573 0.958 . S
C2559 H2574 0.961 . S
C2559 H2575 0.960 . S
H2560 C2544 0.931 . S
H2561 C2549 0.929 . S
H2562 C2550 0.960 . S
H2563 C2550 0.962 . S
H2564 C2550 0.960 . S
H2565 C2551 0.961 . S
H2566 C2551 0.961 . S
H2567 C2551 0.961 . S
H2568 C2552 0.931 . S
H2569 C2557 0.930 . S
H2570 C2558 0.956 . S
H2571 C2558 0.961 . S
H2572 C2558 0.961 . S
H2573 C2559 0.958 . S
H2574 C2559 0.961 . S
H2575 C2559 0.960 . S
C2576 C2577 1.391 . S
C2576 C2578 1.394 . S
C2576 H2592 0.931 . S
C2577 C2576 1.391 . S
C2577 C2581 1.376 . S
C2578 C2576 1.394 . S
C2578 C2579 1.369 . S
C2578 C2582 1.531 1_556 S
C2579 C2578 1.369 . S
C2579 C2580 1.410 . S
C2579 C2587 1.503 1_556 S
C2580 C2579 1.410 . S
C2580 C2581 1.392 . S
C2580 C2583 1.511 . S
C2581 C2577 1.376 . S
C2581 C2580 1.392 . S
C2581 H2593 0.929 . S
C2582 C2578 1.531 1_554 S
C2582 H2594 0.960 . S
C2582 H2595 0.962 . S
C2582 H2596 0.960 . S
C2583 C2580 1.511 . S
C2583 H2597 0.961 . S
C2583 H2598 0.961 . S
C2583 H2599 0.961 . S
C2584 C2585 1.370 . S
C2584 C2586 1.363 . S
C2584 H2600 0.931 . S
C2585 C2584 1.370 . S
C2585 C2589 1.408 . S
C2586 C2584 1.363 . S
C2586 C2587 1.370 . S
C2586 C2590 1.524 . S
C2587 C2579 1.503 1_554 S
C2587 C2586 1.370 . S
C2587 C2588 1.403 . S
C2588 C2587 1.403 . S
C2588 C2589 1.404 . S
C2588 C2591 1.539 1_554 S
C2589 C2585 1.408 . S
C2589 C2588 1.404 . S
C2589 H2601 0.930 . S
C2590 C2586 1.524 . S
C2590 H2602 0.956 . S
C2590 H2603 0.961 1_554 S
C2590 H2604 0.961 1_455 S
C2591 C2588 1.539 1_556 S
C2591 H2605 0.958 1_556 S
C2591 H2606 0.961 . S
C2591 H2607 0.960 . S
H2592 C2576 0.931 . S
H2593 C2581 0.929 . S
H2594 C2582 0.960 . S
H2595 C2582 0.962 . S
H2596 C2582 0.960 . S
H2597 C2583 0.961 . S
H2598 C2583 0.961 . S
H2599 C2583 0.961 . S
H2600 C2584 0.931 . S
H2601 C2589 0.930 . S
H2602 C2590 0.956 . S
H2603 C2590 0.961 1_556 S
H2604 C2590 0.961 1_655 S
H2605 C2591 0.958 1_554 S
H2606 C2591 0.961 . S
H2607 C2591 0.960 . S
C2608 C2609 1.391 . S
C2608 C2610 1.394 . S
C2608 H2624 0.931 . S
C2609 C2608 1.391 . S
C2609 C2613 1.376 . S
C2610 C2608 1.394 . S
C2610 C2611 1.369 . S
C2610 C2614 1.531 . S
C2611 C2610 1.369 . S
C2611 C2612 1.410 . S
C2611 C2619 1.503 . S
C2612 C2611 1.410 . S
C2612 C2613 1.392 . S
C2612 C2615 1.511 . S
C2613 C2609 1.376 . S
C2613 C2612 1.392 . S
C2613 H2625 0.929 . S
C2614 C2610 1.531 . S
C2614 H2626 0.960 . S
C2614 H2627 0.962 . S
C2614 H2628 0.960 . S
C2615 C2612 1.511 . S
C2615 H2629 0.961 . S
C2615 H2630 0.961 . S
C2615 H2631 0.961 . S
C2616 C2617 1.370 . S
C2616 C2618 1.363 . S
C2616 H2632 0.931 . S
C2617 C2616 1.370 . S
C2617 C2621 1.408 . S
C2618 C2616 1.363 . S
C2618 C2619 1.370 . S
C2618 C2622 1.524 . S
C2619 C2611 1.503 . S
C2619 C2618 1.370 . S
C2619 C2620 1.403 . S
C2620 C2619 1.403 . S
C2620 C2621 1.404 . S
C2620 C2623 1.539 . S
C2621 C2617 1.408 . S
C2621 C2620 1.404 . S
C2621 H2633 0.930 . S
C2622 C2618 1.524 . S
C2622 H2634 0.956 . S
C2622 H2635 0.961 . S
C2622 H2636 0.961 . S
C2623 C2620 1.539 . S
C2623 H2637 0.958 . S
C2623 H2638 0.961 . S
C2623 H2639 0.960 . S
H2624 C2608 0.931 . S
H2625 C2613 0.929 . S
H2626 C2614 0.960 . S
H2627 C2614 0.962 . S
H2628 C2614 0.960 . S
H2629 C2615 0.961 . S
H2630 C2615 0.961 . S
H2631 C2615 0.961 . S
H2632 C2616 0.931 . S
H2633 C2621 0.930 . S
H2634 C2622 0.956 . S
H2635 C2622 0.961 . S
H2636 C2622 0.961 . S
H2637 C2623 0.958 . S
H2638 C2623 0.961 . S
H2639 C2623 0.960 . S
C2640 C2641 1.391 . S
C2640 C2642 1.394 . S
C2640 H2656 0.931 . S
C2641 C2640 1.391 . S
C2641 C2645 1.376 . S
C2642 C2640 1.394 . S
C2642 C2643 1.369 . S
C2642 C2646 1.531 . S
C2643 C2642 1.369 . S
C2643 C2644 1.410 . S
C2643 C2651 1.503 . S
C2644 C2643 1.410 . S
C2644 C2645 1.392 . S
C2644 C2647 1.511 . S
C2645 C2641 1.376 . S
C2645 C2644 1.392 . S
C2645 H2657 0.929 . S
C2646 C2642 1.531 . S
C2646 H2658 0.960 . S
C2646 H2659 0.962 . S
C2646 H2660 0.960 . S
C2647 C2644 1.511 . S
C2647 H2661 0.961 . S
C2647 H2662 0.961 . S
C2647 H2663 0.961 . S
C2648 C2649 1.370 . S
C2648 C2650 1.363 . S
C2648 H2664 0.931 . S
C2649 C2648 1.370 . S
C2649 C2653 1.408 . S
C2650 C2648 1.363 . S
C2650 C2651 1.370 . S
C2650 C2654 1.524 . S
C2651 C2643 1.503 . S
C2651 C2650 1.370 . S
C2651 C2652 1.403 . S
C2652 C2651 1.403 . S
C2652 C2653 1.404 . S
C2652 C2655 1.539 . S
C2653 C2649 1.408 . S
C2653 C2652 1.404 . S
C2653 H2665 0.930 . S
C2654 C2650 1.524 . S
C2654 H2666 0.956 . S
C2654 H2667 0.961 . S
C2654 H2668 0.961 . S
C2655 C2652 1.539 . S
C2655 H2669 0.958 . S
C2655 H2670 0.961 . S
C2655 H2671 0.960 . S
H2656 C2640 0.931 . S
H2657 C2645 0.929 . S
H2658 C2646 0.960 . S
H2659 C2646 0.962 . S
H2660 C2646 0.960 . S
H2661 C2647 0.961 . S
H2662 C2647 0.961 . S
H2663 C2647 0.961 . S
H2664 C2648 0.931 . S
H2665 C2653 0.930 . S
H2666 C2654 0.956 . S
H2667 C2654 0.961 . S
H2668 C2654 0.961 . S
H2669 C2655 0.958 . S
H2670 C2655 0.961 . S
H2671 C2655 0.960 . S
C2672 C2673 1.391 . S
C2672 C2674 1.394 1_455 S
C2672 H2688 0.931 . S
C2673 C2672 1.391 . S
C2673 C2677 1.376 . S
C2674 C2672 1.394 1_655 S
C2674 C2675 1.369 . S
C2674 C2678 1.531 . S
C2675 C2674 1.369 . S
C2675 C2676 1.410 . S
C2675 C2683 1.503 . S
C2676 C2675 1.410 . S
C2676 C2677 1.392 1_655 S
C2676 C2679 1.511 . S
C2677 C2673 1.376 . S
C2677 C2676 1.392 1_455 S
C2677 H2689 0.929 . S
C2678 C2674 1.531 . S
C2678 H2690 0.960 . S
C2678 H2691 0.962 . S
C2678 H2692 0.960 . S
C2679 C2676 1.511 . S
C2679 H2693 0.961 . S
C2679 H2694 0.961 . S
C2679 H2695 0.961 . S
C2680 C2681 1.370 . S
C2680 C2682 1.363 . S
C2680 H2696 0.931 . S
C2681 C2680 1.370 . S
C2681 C2685 1.408 . S
C2682 C2680 1.363 . S
C2682 C2683 1.370 . S
C2682 C2686 1.524 . S
C2683 C2675 1.503 . S
C2683 C2682 1.370 . S
C2683 C2684 1.403 . S
C2684 C2683 1.403 . S
C2684 C2685 1.404 . S
C2684 C2687 1.539 . S
C2685 C2681 1.408 . S
C2685 C2684 1.404 . S
C2685 H2697 0.930 . S
C2686 C2682 1.524 . S
C2686 H2698 0.956 . S
C2686 H2699 0.961 . S
C2686 H2700 0.961 . S
C2687 C2684 1.539 . S
C2687 H2701 0.958 . S
C2687 H2702 0.961 . S
C2687 H2703 0.960 . S
H2688 C2672 0.931 . S
H2689 C2677 0.929 . S
H2690 C2678 0.960 . S
H2691 C2678 0.962 . S
H2692 C2678 0.960 . S
H2693 C2679 0.961 . S
H2694 C2679 0.961 . S
H2695 C2679 0.961 . S
H2696 C2680 0.931 . S
H2697 C2685 0.930 . S
H2698 C2686 0.956 . S
H2699 C2686 0.961 . S
H2700 C2686 0.961 . S
H2701 C2687 0.958 . S
H2702 C2687 0.961 . S
H2703 C2687 0.960 . S
C2704 C2705 1.391 1_455 S
C2704 C2706 1.394 . S
C2704 H2720 0.931 . S
C2705 C2704 1.391 1_655 S
C2705 C2709 1.376 . S
C2706 C2704 1.394 . S
C2706 C2707 1.369 . S
C2706 C2710 1.531 . S
C2707 C2706 1.369 . S
C2707 C2708 1.410 1_455 S
C2707 C2715 1.503 . S
C2708 C2707 1.410 1_655 S
C2708 C2709 1.392 . S
C2708 C2711 1.511 . S
C2709 C2705 1.376 . S
C2709 C2708 1.392 . S
C2709 H2721 0.929 . S
C2710 C2706 1.531 . S
C2710 H2722 0.960 . S
C2710 H2723 0.962 . S
C2710 H2724 0.960 . S
C2711 C2708 1.511 . S
C2711 H2725 0.961 . S
C2711 H2726 0.961 . S
C2711 H2727 0.961 . S
C2712 C2713 1.370 . S
C2712 C2714 1.363 . S
C2712 H2728 0.931 . S
C2713 C2712 1.370 . S
C2713 C2717 1.408 . S
C2714 C2712 1.363 . S
C2714 C2715 1.370 . S
C2714 C2718 1.524 . S
C2715 C2707 1.503 . S
C2715 C2714 1.370 . S
C2715 C2716 1.403 . S
C2716 C2715 1.403 . S
C2716 C2717 1.404 . S
C2716 C2719 1.539 . S
C2717 C2713 1.408 . S
C2717 C2716 1.404 . S
C2717 H2729 0.930 . S
C2718 C2714 1.524 . S
C2718 H2730 0.956 . S
C2718 H2731 0.961 1_455 S
C2718 H2732 0.961 . S
C2719 C2716 1.539 . S
C2719 H2733 0.958 . S
C2719 H2734 0.961 1_455 S
C2719 H2735 0.960 1_455 S
H2720 C2704 0.931 . S
H2721 C2709 0.929 . S
H2722 C2710 0.960 . S
H2723 C2710 0.962 . S
H2724 C2710 0.960 . S
H2725 C2711 0.961 . S
H2726 C2711 0.961 . S
H2727 C2711 0.961 . S
H2728 C2712 0.931 . S
H2729 C2717 0.930 . S
H2730 C2718 0.956 . S
H2731 C2718 0.961 1_655 S
H2732 C2718 0.961 . S
H2733 C2719 0.958 . S
H2734 C2719 0.961 1_655 S
H2735 C2719 0.960 1_655 S
C2736 C2737 1.391 . S
C2736 C2738 1.394 . S
C2736 H2752 0.931 . S
C2737 C2736 1.391 . S
C2737 C2741 1.376 . S
C2738 C2736 1.394 . S
C2738 C2739 1.369 . S
C2738 C2742 1.531 . S
C2739 C2738 1.369 . S
C2739 C2740 1.410 . S
C2739 C2747 1.503 . S
C2740 C2739 1.410 . S
C2740 C2741 1.392 . S
C2740 C2743 1.511 . S
C2741 C2737 1.376 . S
C2741 C2740 1.392 . S
C2741 H2753 0.929 . S
C2742 C2738 1.531 . S
C2742 H2754 0.960 . S
C2742 H2755 0.962 . S
C2742 H2756 0.960 . S
C2743 C2740 1.511 . S
C2743 H2757 0.961 . S
C2743 H2758 0.961 . S
C2743 H2759 0.961 . S
C2744 C2745 1.370 . S
C2744 C2746 1.363 . S
C2744 H2760 0.931 . S
C2745 C2744 1.370 . S
C2745 C2749 1.408 . S
C2746 C2744 1.363 . S
C2746 C2747 1.370 . S
C2746 C2750 1.524 . S
C2747 C2739 1.503 . S
C2747 C2746 1.370 . S
C2747 C2748 1.403 . S
C2748 C2747 1.403 . S
C2748 C2749 1.404 . S
C2748 C2751 1.539 . S
C2749 C2745 1.408 . S
C2749 C2748 1.404 . S
C2749 H2761 0.930 . S
C2750 C2746 1.524 . S
C2750 H2762 0.956 . S
C2750 H2763 0.961 . S
C2750 H2764 0.961 . S
C2751 C2748 1.539 . S
C2751 H2765 0.958 . S
C2751 H2766 0.961 . S
C2751 H2767 0.960 . S
H2752 C2736 0.931 . S
H2753 C2741 0.929 . S
H2754 C2742 0.960 . S
H2755 C2742 0.962 . S
H2756 C2742 0.960 . S
H2757 C2743 0.961 . S
H2758 C2743 0.961 . S
H2759 C2743 0.961 . S
H2760 C2744 0.931 . S
H2761 C2749 0.930 . S
H2762 C2750 0.956 . S
H2763 C2750 0.961 . S
H2764 C2750 0.961 . S
H2765 C2751 0.958 . S
H2766 C2751 0.961 . S
H2767 C2751 0.960 . S
C2768 C2769 1.391 . S
C2768 C2770 1.394 . S
C2768 H2784 0.931 . S
C2769 C2768 1.391 . S
C2769 C2773 1.376 . S
C2770 C2768 1.394 . S
C2770 C2771 1.369 . S
C2770 C2774 1.531 . S
C2771 C2770 1.369 . S
C2771 C2772 1.410 . S
C2771 C2779 1.503 . S
C2772 C2771 1.410 . S
C2772 C2773 1.392 . S
C2772 C2775 1.511 . S
C2773 C2769 1.376 . S
C2773 C2772 1.392 . S
C2773 H2785 0.929 . S
C2774 C2770 1.531 . S
C2774 H2786 0.960 . S
C2774 H2787 0.962 . S
C2774 H2788 0.960 . S
C2775 C2772 1.511 . S
C2775 H2789 0.961 . S
C2775 H2790 0.961 . S
C2775 H2791 0.961 . S
C2776 C2777 1.370 . S
C2776 C2778 1.363 . S
C2776 H2792 0.931 . S
C2777 C2776 1.370 . S
C2777 C2781 1.408 . S
C2778 C2776 1.363 . S
C2778 C2779 1.370 . S
C2778 C2782 1.524 . S
C2779 C2771 1.503 . S
C2779 C2778 1.370 . S
C2779 C2780 1.403 . S
C2780 C2779 1.403 . S
C2780 C2781 1.404 . S
C2780 C2783 1.539 . S
C2781 C2777 1.408 . S
C2781 C2780 1.404 . S
C2781 H2793 0.930 . S
C2782 C2778 1.524 . S
C2782 H2794 0.956 . S
C2782 H2795 0.961 . S
C2782 H2796 0.961 . S
C2783 C2780 1.539 . S
C2783 H2797 0.958 . S
C2783 H2798 0.961 . S
C2783 H2799 0.960 . S
H2784 C2768 0.931 . S
H2785 C2773 0.929 . S
H2786 C2774 0.960 . S
H2787 C2774 0.962 . S
H2788 C2774 0.960 . S
H2789 C2775 0.961 . S
H2790 C2775 0.961 . S
H2791 C2775 0.961 . S
H2792 C2776 0.931 . S
H2793 C2781 0.930 . S
H2794 C2782 0.956 . S
H2795 C2782 0.961 . S
H2796 C2782 0.961 . S
H2797 C2783 0.958 . S
H2798 C2783 0.961 . S
H2799 C2783 0.960 . S
C2800 C2801 1.391 . S
C2800 C2802 1.394 . S
C2800 H2816 0.931 . S
C2801 C2800 1.391 . S
C2801 C2805 1.376 . S
C2802 C2800 1.394 . S
C2802 C2803 1.369 . S
C2802 C2806 1.531 . S
C2803 C2802 1.369 . S
C2803 C2804 1.410 . S
C2803 C2811 1.503 . S
C2804 C2803 1.410 . S
C2804 C2805 1.392 . S
C2804 C2807 1.511 . S
C2805 C2801 1.376 . S
C2805 C2804 1.392 . S
C2805 H2817 0.929 . S
C2806 C2802 1.531 . S
C2806 H2818 0.960 . S
C2806 H2819 0.962 . S
C2806 H2820 0.960 . S
C2807 C2804 1.511 . S
C2807 H2821 0.961 . S
C2807 H2822 0.961 . S
C2807 H2823 0.961 . S
C2808 C2809 1.370 . S
C2808 C2810 1.363 . S
C2808 H2824 0.931 . S
C2809 C2808 1.370 . S
C2809 C2813 1.408 . S
C2810 C2808 1.363 . S
C2810 C2811 1.370 . S
C2810 C2814 1.524 . S
C2811 C2803 1.503 . S
C2811 C2810 1.370 . S
C2811 C2812 1.403 . S
C2812 C2811 1.403 . S
C2812 C2813 1.404 . S
C2812 C2815 1.539 . S
C2813 C2809 1.408 . S
C2813 C2812 1.404 . S
C2813 H2825 0.930 . S
C2814 C2810 1.524 . S
C2814 H2826 0.956 . S
C2814 H2827 0.961 . S
C2814 H2828 0.961 . S
C2815 C2812 1.539 . S
C2815 H2829 0.958 . S
C2815 H2830 0.961 . S
C2815 H2831 0.960 . S
H2816 C2800 0.931 . S
H2817 C2805 0.929 . S
H2818 C2806 0.960 . S
H2819 C2806 0.962 . S
H2820 C2806 0.960 . S
H2821 C2807 0.961 . S
H2822 C2807 0.961 . S
H2823 C2807 0.961 . S
H2824 C2808 0.931 . S
H2825 C2813 0.930 . S
H2826 C2814 0.956 . S
H2827 C2814 0.961 . S
H2828 C2814 0.961 . S
H2829 C2815 0.958 . S
H2830 C2815 0.961 . S
H2831 C2815 0.960 . S
C2832 C2833 1.391 . S
C2832 C2834 1.394 . S
C2832 H2848 0.931 . S
C2833 C2832 1.391 . S
C2833 C2837 1.376 . S
C2834 C2832 1.394 . S
C2834 C2835 1.369 . S
C2834 C2838 1.531 . S
C2835 C2834 1.369 . S
C2835 C2836 1.410 . S
C2835 C2843 1.503 . S
C2836 C2835 1.410 . S
C2836 C2837 1.392 . S
C2836 C2839 1.511 . S
C2837 C2833 1.376 . S
C2837 C2836 1.392 . S
C2837 H2849 0.929 . S
C2838 C2834 1.531 . S
C2838 H2850 0.960 . S
C2838 H2851 0.962 . S
C2838 H2852 0.960 . S
C2839 C2836 1.511 . S
C2839 H2853 0.961 . S
C2839 H2854 0.961 . S
C2839 H2855 0.961 . S
C2840 C2841 1.370 . S
C2840 C2842 1.363 . S
C2840 H2856 0.931 . S
C2841 C2840 1.370 . S
C2841 C2845 1.408 . S
C2842 C2840 1.363 . S
C2842 C2843 1.370 . S
C2842 C2846 1.524 . S
C2843 C2835 1.503 . S
C2843 C2842 1.370 . S
C2843 C2844 1.403 . S
C2844 C2843 1.403 . S
C2844 C2845 1.404 . S
C2844 C2847 1.539 . S
C2845 C2841 1.408 . S
C2845 C2844 1.404 . S
C2845 H2857 0.930 . S
C2846 C2842 1.524 . S
C2846 H2858 0.956 . S
C2846 H2859 0.961 . S
C2846 H2860 0.961 . S
C2847 C2844 1.539 . S
C2847 H2861 0.958 . S
C2847 H2862 0.961 . S
C2847 H2863 0.960 . S
H2848 C2832 0.931 . S
H2849 C2837 0.929 . S
H2850 C2838 0.960 . S
H2851 C2838 0.962 . S
H2852 C2838 0.960 . S
H2853 C2839 0.961 . S
H2854 C2839 0.961 . S
H2855 C2839 0.961 . S
H2856 C2840 0.931 . S
H2857 C2845 0.930 . S
H2858 C2846 0.956 . S
H2859 C2846 0.961 . S
H2860 C2846 0.961 . S
H2861 C2847 0.958 . S
H2862 C2847 0.961 . S
H2863 C2847 0.960 . S
C2864 C2865 1.391 . S
C2864 C2866 1.394 . S
C2864 H2880 0.931 . S
C2865 C2864 1.391 . S
C2865 C2869 1.376 . S
C2866 C2864 1.394 . S
C2866 C2867 1.369 . S
C2866 C2870 1.531 . S
C2867 C2866 1.369 . S
C2867 C2868 1.410 . S
C2867 C2875 1.503 . S
C2868 C2867 1.410 . S
C2868 C2869 1.392 . S
C2868 C2871 1.511 . S
C2869 C2865 1.376 . S
C2869 C2868 1.392 . S
C2869 H2881 0.929 . S
C2870 C2866 1.531 . S
C2870 H2882 0.960 . S
C2870 H2883 0.962 . S
C2870 H2884 0.960 . S
C2871 C2868 1.511 . S
C2871 H2885 0.961 . S
C2871 H2886 0.961 . S
C2871 H2887 0.961 . S
C2872 C2873 1.370 . S
C2872 C2874 1.363 . S
C2872 H2888 0.931 . S
C2873 C2872 1.370 . S
C2873 C2877 1.408 . S
C2874 C2872 1.363 . S
C2874 C2875 1.370 . S
C2874 C2878 1.524 . S
C2875 C2867 1.503 . S
C2875 C2874 1.370 . S
C2875 C2876 1.403 . S
C2876 C2875 1.403 . S
C2876 C2877 1.404 . S
C2876 C2879 1.539 . S
C2877 C2873 1.408 . S
C2877 C2876 1.404 . S
C2877 H2889 0.930 . S
C2878 C2874 1.524 . S
C2878 H2890 0.956 . S
C2878 H2891 0.961 . S
C2878 H2892 0.961 . S
C2879 C2876 1.539 . S
C2879 H2893 0.958 . S
C2879 H2894 0.961 . S
C2879 H2895 0.960 . S
H2880 C2864 0.931 . S
H2881 C2869 0.929 . S
H2882 C2870 0.960 . S
H2883 C2870 0.962 . S
H2884 C2870 0.960 . S
H2885 C2871 0.961 . S
H2886 C2871 0.961 . S
H2887 C2871 0.961 . S
H2888 C2872 0.931 . S
H2889 C2877 0.930 . S
H2890 C2878 0.956 . S
H2891 C2878 0.961 . S
H2892 C2878 0.961 . S
H2893 C2879 0.958 . S
H2894 C2879 0.961 . S
H2895 C2879 0.960 . S
C2896 C2897 1.391 . S
C2896 C2898 1.394 . S
C2896 H2912 0.931 . S
C2897 C2896 1.391 . S
C2897 C2901 1.376 . S
C2898 C2896 1.394 . S
C2898 C2899 1.369 . S
C2898 C2902 1.531 . S
C2899 C2898 1.369 . S
C2899 C2900 1.410 . S
C2899 C2907 1.503 . S
C2900 C2899 1.410 . S
C2900 C2901 1.392 . S
C2900 C2903 1.511 . S
C2901 C2897 1.376 . S
C2901 C2900 1.392 . S
C2901 H2913 0.929 . S
C2902 C2898 1.531 . S
C2902 H2914 0.960 . S
C2902 H2915 0.962 . S
C2902 H2916 0.960 . S
C2903 C2900 1.511 . S
C2903 H2917 0.961 . S
C2903 H2918 0.961 . S
C2903 H2919 0.961 . S
C2904 C2905 1.370 . S
C2904 C2906 1.363 . S
C2904 H2920 0.931 1_556 S
C2905 C2904 1.370 . S
C2905 C2909 1.408 . S
C2906 C2904 1.363 . S
C2906 C2907 1.370 . S
C2906 C2910 1.524 . S
C2907 C2899 1.503 . S
C2907 C2906 1.370 . S
C2907 C2908 1.403 . S
C2908 C2907 1.403 . S
C2908 C2909 1.404 . S
C2908 C2911 1.539 . S
C2909 C2905 1.408 . S
C2909 C2908 1.404 . S
C2909 H2921 0.930 . S
C2910 C2906 1.524 . S
C2910 H2922 0.956 . S
C2910 H2923 0.961 . S
C2910 H2924 0.961 . S
C2911 C2908 1.539 . S
C2911 H2925 0.958 . S
C2911 H2926 0.961 . S
C2911 H2927 0.960 . S
H2912 C2896 0.931 . S
H2913 C2901 0.929 . S
H2914 C2902 0.960 . S
H2915 C2902 0.962 . S
H2916 C2902 0.960 . S
H2917 C2903 0.961 . S
H2918 C2903 0.961 . S
H2919 C2903 0.961 . S
H2920 C2904 0.931 1_554 S
H2921 C2909 0.930 . S
H2922 C2910 0.956 . S
H2923 C2910 0.961 . S
H2924 C2910 0.961 . S
H2925 C2911 0.958 . S
H2926 C2911 0.961 . S
H2927 C2911 0.960 . S
C2928 C2929 1.391 . S
C2928 C2930 1.394 . S
C2928 H2944 0.931 . S
C2929 C2928 1.391 . S
C2929 C2933 1.376 . S
C2930 C2928 1.394 . S
C2930 C2931 1.369 . S
C2930 C2934 1.531 . S
C2931 C2930 1.369 . S
C2931 C2932 1.410 . S
C2931 C2939 1.503 . S
C2932 C2931 1.410 . S
C2932 C2933 1.392 . S
C2932 C2935 1.511 . S
C2933 C2929 1.376 . S
C2933 C2932 1.392 . S
C2933 H2945 0.929 . S
C2934 C2930 1.531 . S
C2934 H2946 0.960 . S
C2934 H2947 0.962 . S
C2934 H2948 0.960 . S
C2935 C2932 1.511 . S
C2935 H2949 0.961 . S
C2935 H2950 0.961 . S
C2935 H2951 0.961 . S
C2936 C2937 1.370 . S
C2936 C2938 1.363 . S
C2936 H2952 0.931 . S
C2937 C2936 1.370 . S
C2937 C2941 1.408 . S
C2938 C2936 1.363 . S
C2938 C2939 1.370 . S
C2938 C2942 1.524 . S
C2939 C2931 1.503 . S
C2939 C2938 1.370 . S
C2939 C2940 1.403 . S
C2940 C2939 1.403 . S
C2940 C2941 1.404 . S
C2940 C2943 1.539 . S
C2941 C2937 1.408 . S
C2941 C2940 1.404 . S
C2941 H2953 0.930 . S
C2942 C2938 1.524 . S
C2942 H2954 0.956 . S
C2942 H2955 0.961 . S
C2942 H2956 0.961 . S
C2943 C2940 1.539 . S
C2943 H2957 0.958 . S
C2943 H2958 0.961 . S
C2943 H2959 0.960 . S
H2944 C2928 0.931 . S
H2945 C2933 0.929 . S
H2946 C2934 0.960 . S
H2947 C2934 0.962 . S
H2948 C2934 0.960 . S
H2949 C2935 0.961 . S
H2950 C2935 0.961 . S
H2951 C2935 0.961 . S
H2952 C2936 0.931 . S
H2953 C2941 0.930 . S
H2954 C2942 0.956 . S
H2955 C2942 0.961 . S
H2956 C2942 0.961 . S
H2957 C2943 0.958 . S
H2958 C2943 0.961 . S
H2959 C2943 0.960 . S
C2960 C2961 1.391 . S
C2960 C2962 1.394 . S
C2960 H2976 0.931 . S
C2961 C2960 1.391 . S
C2961 C2965 1.376 . S
C2962 C2960 1.394 . S
C2962 C2963 1.369 . S
C2962 C2966 1.531 . S
C2963 C2962 1.369 . S
C2963 C2964 1.410 . S
C2963 C2971 1.503 . S
C2964 C2963 1.410 . S
C2964 C2965 1.392 . S
C2964 C2967 1.511 . S
C2965 C2961 1.376 . S
C2965 C2964 1.392 . S
C2965 H2977 0.929 . S
C2966 C2962 1.531 . S
C2966 H2978 0.960 . S
C2966 H2979 0.962 . S
C2966 H2980 0.960 . S
C2967 C2964 1.511 . S
C2967 H2981 0.961 . S
C2967 H2982 0.961 . S
C2967 H2983 0.961 . S
C2968 C2969 1.370 . S
C2968 C2970 1.363 . S
C2968 H2984 0.931 . S
C2969 C2968 1.370 . S
C2969 C2973 1.408 . S
C2970 C2968 1.363 . S
C2970 C2971 1.370 . S
C2970 C2974 1.524 . S
C2971 C2963 1.503 . S
C2971 C2970 1.370 . S
C2971 C2972 1.403 . S
C2972 C2971 1.403 . S
C2972 C2973 1.404 . S
C2972 C2975 1.539 . S
C2973 C2969 1.408 . S
C2973 C2972 1.404 . S
C2973 H2985 0.930 . S
C2974 C2970 1.524 . S
C2974 H2986 0.956 . S
C2974 H2987 0.961 . S
C2974 H2988 0.961 . S
C2975 C2972 1.539 . S
C2975 H2989 0.958 . S
C2975 H2990 0.961 . S
C2975 H2991 0.960 . S
H2976 C2960 0.931 . S
H2977 C2965 0.929 . S
H2978 C2966 0.960 . S
H2979 C2966 0.962 . S
H2980 C2966 0.960 . S
H2981 C2967 0.961 . S
H2982 C2967 0.961 . S
H2983 C2967 0.961 . S
H2984 C2968 0.931 . S
H2985 C2973 0.930 . S
H2986 C2974 0.956 . S
H2987 C2974 0.961 . S
H2988 C2974 0.961 . S
H2989 C2975 0.958 . S
H2990 C2975 0.961 . S
H2991 C2975 0.960 . S
C2992 C2993 1.391 . S
C2992 C2994 1.394 . S
C2992 H3008 0.931 . S
C2993 C2992 1.391 . S
C2993 C2997 1.376 . S
C2994 C2992 1.394 . S
C2994 C2995 1.369 . S
C2994 C2998 1.531 . S
C2995 C2994 1.369 . S
C2995 C2996 1.410 . S
C2995 C3003 1.503 . S
C2996 C2995 1.410 . S
C2996 C2997 1.392 . S
C2996 C2999 1.511 . S
C2997 C2993 1.376 . S
C2997 C2996 1.392 . S
C2997 H3009 0.929 . S
C2998 C2994 1.531 . S
C2998 H3010 0.960 . S
C2998 H3011 0.962 . S
C2998 H3012 0.960 . S
C2999 C2996 1.511 . S
C2999 H3013 0.961 . S
C2999 H3014 0.961 . S
C2999 H3015 0.961 . S
C3000 C3001 1.370 . S
C3000 C3002 1.363 . S
C3000 H3016 0.931 . S
C3001 C3000 1.370 . S
C3001 C3005 1.408 . S
C3002 C3000 1.363 . S
C3002 C3003 1.370 . S
C3002 C3006 1.524 . S
C3003 C2995 1.503 . S
C3003 C3002 1.370 . S
C3003 C3004 1.403 . S
C3004 C3003 1.403 . S
C3004 C3005 1.404 . S
C3004 C3007 1.539 . S
C3005 C3001 1.408 . S
C3005 C3004 1.404 . S
C3005 H3017 0.930 . S
C3006 C3002 1.524 . S
C3006 H3018 0.956 . S
C3006 H3019 0.961 . S
C3006 H3020 0.961 . S
C3007 C3004 1.539 . S
C3007 H3021 0.958 . S
C3007 H3022 0.961 . S
C3007 H3023 0.960 . S
H3008 C2992 0.931 . S
H3009 C2997 0.929 . S
H3010 C2998 0.960 . S
H3011 C2998 0.962 . S
H3012 C2998 0.960 . S
H3013 C2999 0.961 . S
H3014 C2999 0.961 . S
H3015 C2999 0.961 . S
H3016 C3000 0.931 . S
H3017 C3005 0.930 . S
H3018 C3006 0.956 . S
H3019 C3006 0.961 . S
H3020 C3006 0.961 . S
H3021 C3007 0.958 . S
H3022 C3007 0.961 . S
H3023 C3007 0.960 . S
C3024 C3025 1.391 . S
C3024 C3026 1.394 . S
C3024 H3040 0.931 . S
C3025 C3024 1.391 . S
C3025 C3029 1.376 . S
C3026 C3024 1.394 . S
C3026 C3027 1.369 . S
C3026 C3030 1.531 . S
C3027 C3026 1.369 . S
C3027 C3028 1.410 . S
C3027 C3035 1.503 . S
C3028 C3027 1.410 . S
C3028 C3029 1.392 . S
C3028 C3031 1.511 . S
C3029 C3025 1.376 . S
C3029 C3028 1.392 . S
C3029 H3041 0.929 . S
C3030 C3026 1.531 . S
C3030 H3042 0.960 . S
C3030 H3043 0.962 . S
C3030 H3044 0.960 . S
C3031 C3028 1.511 . S
C3031 H3045 0.961 . S
C3031 H3046 0.961 . S
C3031 H3047 0.961 . S
C3032 C3033 1.370 . S
C3032 C3034 1.363 . S
C3032 H3048 0.931 . S
C3033 C3032 1.370 . S
C3033 C3037 1.408 . S
C3034 C3032 1.363 . S
C3034 C3035 1.370 . S
C3034 C3038 1.524 . S
C3035 C3027 1.503 . S
C3035 C3034 1.370 . S
C3035 C3036 1.403 . S
C3036 C3035 1.403 . S
C3036 C3037 1.404 . S
C3036 C3039 1.539 . S
C3037 C3033 1.408 . S
C3037 C3036 1.404 . S
C3037 H3049 0.930 . S
C3038 C3034 1.524 . S
C3038 H3050 0.956 . S
C3038 H3051 0.961 . S
C3038 H3052 0.961 . S
C3039 C3036 1.539 . S
C3039 H3053 0.958 . S
C3039 H3054 0.961 . S
C3039 H3055 0.960 . S
H3040 C3024 0.931 . S
H3041 C3029 0.929 . S
H3042 C3030 0.960 . S
H3043 C3030 0.962 . S
H3044 C3030 0.960 . S
H3045 C3031 0.961 . S
H3046 C3031 0.961 . S
H3047 C3031 0.961 . S
H3048 C3032 0.931 . S
H3049 C3037 0.930 . S
H3050 C3038 0.956 . S
H3051 C3038 0.961 . S
H3052 C3038 0.961 . S
H3053 C3039 0.958 . S
H3054 C3039 0.961 . S
H3055 C3039 0.960 . S
C3056 C3057 1.391 . S
C3056 C3058 1.394 . S
C3056 H3072 0.931 . S
C3057 C3056 1.391 . S
C3057 C3061 1.376 . S
C3058 C3056 1.394 . S
C3058 C3059 1.369 . S
C3058 C3062 1.531 . S
C3059 C3058 1.369 . S
C3059 C3060 1.410 . S
C3059 C3067 1.503 . S
C3060 C3059 1.410 . S
C3060 C3061 1.392 . S
C3060 C3063 1.511 . S
C3061 C3057 1.376 . S
C3061 C3060 1.392 . S
C3061 H3073 0.929 . S
C3062 C3058 1.531 . S
C3062 H3074 0.960 . S
C3062 H3075 0.962 . S
C3062 H3076 0.960 . S
C3063 C3060 1.511 . S
C3063 H3077 0.961 . S
C3063 H3078 0.961 . S
C3063 H3079 0.961 . S
C3064 C3065 1.370 . S
C3064 C3066 1.363 . S
C3064 H3080 0.931 . S
C3065 C3064 1.370 . S
C3065 C3069 1.408 . S
C3066 C3064 1.363 . S
C3066 C3067 1.370 . S
C3066 C3070 1.524 . S
C3067 C3059 1.503 . S
C3067 C3066 1.370 . S
C3067 C3068 1.403 . S
C3068 C3067 1.403 . S
C3068 C3069 1.404 . S
C3068 C3071 1.539 . S
C3069 C3065 1.408 . S
C3069 C3068 1.404 . S
C3069 H3081 0.930 . S
C3070 C3066 1.524 . S
C3070 H3082 0.956 . S
C3070 H3083 0.961 . S
C3070 H3084 0.961 . S
C3071 C3068 1.539 . S
C3071 H3085 0.958 . S
C3071 H3086 0.961 . S
C3071 H3087 0.960 . S
H3072 C3056 0.931 . S
H3073 C3061 0.929 . S
H3074 C3062 0.960 . S
H3075 C3062 0.962 . S
H3076 C3062 0.960 . S
H3077 C3063 0.961 . S
H3078 C3063 0.961 . S
H3079 C3063 0.961 . S
H3080 C3064 0.931 . S
H3081 C3069 0.930 . S
H3082 C3070 0.956 . S
H3083 C3070 0.961 . S
H3084 C3070 0.961 . S
H3085 C3071 0.958 . S
H3086 C3071 0.961 . S
H3087 C3071 0.960 . S
C3088 C3089 1.391 . S
C3088 C3090 1.394 . S
C3088 H3104 0.931 . S
C3089 C3088 1.391 . S
C3089 C3093 1.376 . S
C3090 C3088 1.394 . S
C3090 C3091 1.369 . S
C3090 C3094 1.531 . S
C3091 C3090 1.369 . S
C3091 C3092 1.410 . S
C3091 C3099 1.503 . S
C3092 C3091 1.410 . S
C3092 C3093 1.392 . S
C3092 C3095 1.511 . S
C3093 C3089 1.376 . S
C3093 C3092 1.392 . S
C3093 H3105 0.929 . S
C3094 C3090 1.531 . S
C3094 H3106 0.960 . S
C3094 H3107 0.962 . S
C3094 H3108 0.960 . S
C3095 C3092 1.511 . S
C3095 H3109 0.961 . S
C3095 H3110 0.961 . S
C3095 H3111 0.961 . S
C3096 C3097 1.370 . S
C3096 C3098 1.363 . S
C3096 H3112 0.931 . S
C3097 C3096 1.370 . S
C3097 C3101 1.408 . S
C3098 C3096 1.363 . S
C3098 C3099 1.370 . S
C3098 C3102 1.524 . S
C3099 C3091 1.503 . S
C3099 C3098 1.370 . S
C3099 C3100 1.403 . S
C3100 C3099 1.403 . S
C3100 C3101 1.404 . S
C3100 C3103 1.539 . S
C3101 C3097 1.408 . S
C3101 C3100 1.404 . S
C3101 H3113 0.930 . S
C3102 C3098 1.524 . S
C3102 H3114 0.956 . S
C3102 H3115 0.961 . S
C3102 H3116 0.961 . S
C3103 C3100 1.539 . S
C3103 H3117 0.958 . S
C3103 H3118 0.961 . S
C3103 H3119 0.960 . S
H3104 C3088 0.931 . S
H3105 C3093 0.929 . S
H3106 C3094 0.960 . S
H3107 C3094 0.962 . S
H3108 C3094 0.960 . S
H3109 C3095 0.961 . S
H3110 C3095 0.961 . S
H3111 C3095 0.961 . S
H3112 C3096 0.931 . S
H3113 C3101 0.930 . S
H3114 C3102 0.956 . S
H3115 C3102 0.961 . S
H3116 C3102 0.961 . S
H3117 C3103 0.958 . S
H3118 C3103 0.961 . S
H3119 C3103 0.960 . S
C3120 C3121 1.391 . S
C3120 C3122 1.394 . S
C3120 H3136 0.931 . S
C3121 C3120 1.391 . S
C3121 C3125 1.376 . S
C3122 C3120 1.394 . S
C3122 C3123 1.369 . S
C3122 C3126 1.531 . S
C3123 C3122 1.369 . S
C3123 C3124 1.410 . S
C3123 C3131 1.503 . S
C3124 C3123 1.410 . S
C3124 C3125 1.392 . S
C3124 C3127 1.511 . S
C3125 C3121 1.376 . S
C3125 C3124 1.392 . S
C3125 H3137 0.929 . S
C3126 C3122 1.531 . S
C3126 H3138 0.960 1_565 S
C3126 H3139 0.962 . S
C3126 H3140 0.971 . S
C3127 C3124 1.511 . S
C3127 H3141 0.961 . S
C3127 H3142 0.961 . S
C3127 H3143 0.961 . S
C3128 C3129 1.370 1_565 S
C3128 C3130 1.363 . S
C3128 H3144 0.931 . S
C3129 C3128 1.370 1_545 S
C3129 C3133 1.408 . S
C3130 C3128 1.363 . S
C3130 C3131 1.370 . S
C3130 C3134 1.524 . S
C3131 C3123 1.503 . S
C3131 C3130 1.370 . S
C3131 C3132 1.403 1_565 S
C3132 C3131 1.403 1_545 S
C3132 C3133 1.404 . S
C3132 C3135 1.539 . S
C3133 C3129 1.408 . S
C3133 C3132 1.404 . S
C3133 H3145 0.930 . S
C3134 C3130 1.524 . S
C3134 H3146 0.956 . S
C3134 H3147 0.961 . S
C3134 H3148 0.961 . S
C3135 C3132 1.539 . S
C3135 H3149 0.958 . S
C3135 H3150 0.961 . S
C3135 H3151 0.960 . S
H3136 C3120 0.931 . S
H3137 C3125 0.929 . S
H3138 C3126 0.960 1_545 S
H3139 C3126 0.962 . S
H3140 C3126 0.971 . S
H3141 C3127 0.961 . S
H3142 C3127 0.961 . S
H3143 C3127 0.961 . S
H3144 C3128 0.931 . S
H3145 C3133 0.930 . S
H3146 C3134 0.956 . S
H3147 C3134 0.961 . S
H3148 C3134 0.961 . S
H3149 C3135 0.958 . S
H3150 C3135 0.961 . S
H3151 C3135 0.960 . S
C3152 C3153 1.391 . S
C3152 C3154 1.394 . S
C3152 H3168 0.931 . S
C3153 C3152 1.391 . S
C3153 C3157 1.376 . S
C3154 C3152 1.394 . S
C3154 C3155 1.369 . S
C3154 C3158 1.531 . S
C3155 C3154 1.369 . S
C3155 C3156 1.410 . S
C3155 C3163 1.503 . S
C3156 C3155 1.410 . S
C3156 C3157 1.392 . S
C3156 C3159 1.511 . S
C3157 C3153 1.376 . S
C3157 C3156 1.392 . S
C3157 H3169 0.929 . S
C3158 C3154 1.531 . S
C3158 H3170 0.960 . S
C3158 H3171 0.962 . S
C3158 H3172 0.960 . S
C3159 C3156 1.511 . S
C3159 H3173 0.961 . S
C3159 H3174 0.961 . S
C3159 H3175 0.961 . S
C3160 C3161 1.370 . S
C3160 C3162 1.363 . S
C3160 H3176 0.931 . S
C3161 C3160 1.370 . S
C3161 C3165 1.408 . S
C3162 C3160 1.363 . S
C3162 C3163 1.370 . S
C3162 C3166 1.524 . S
C3163 C3155 1.503 . S
C3163 C3162 1.370 . S
C3163 C3164 1.403 . S
C3164 C3163 1.403 . S
C3164 C3165 1.404 . S
C3164 C3167 1.539 . S
C3165 C3161 1.408 . S
C3165 C3164 1.404 . S
C3165 H3177 0.930 . S
C3166 C3162 1.524 . S
C3166 H3178 0.956 . S
C3166 H3179 0.961 . S
C3166 H3180 0.961 . S
C3167 C3164 1.539 . S
C3167 H3181 0.958 . S
C3167 H3182 0.961 . S
C3167 H3183 0.960 . S
H3168 C3152 0.931 . S
H3169 C3157 0.929 . S
H3170 C3158 0.960 . S
H3171 C3158 0.962 . S
H3172 C3158 0.960 . S
H3173 C3159 0.961 . S
H3174 C3159 0.961 . S
H3175 C3159 0.961 . S
H3176 C3160 0.931 . S
H3177 C3165 0.930 . S
H3178 C3166 0.956 . S
H3179 C3166 0.961 . S
H3180 C3166 0.961 . S
H3181 C3167 0.958 . S
H3182 C3167 0.961 . S
H3183 C3167 0.960 . S
C3184 C3185 1.391 . S
C3184 C3186 1.394 . S
C3184 H3200 0.931 1_554 S
C3185 C3184 1.391 . S
C3185 C3189 1.376 . S
C3186 C3184 1.394 . S
C3186 C3187 1.369 . S
C3186 C3190 1.531 . S
C3187 C3186 1.369 . S
C3187 C3188 1.410 . S
C3187 C3195 1.503 . S
C3188 C3187 1.410 . S
C3188 C3189 1.392 . S
C3188 C3191 1.511 . S
C3189 C3185 1.376 . S
C3189 C3188 1.392 . S
C3189 H3201 0.929 . S
C3190 C3186 1.531 . S
C3190 H3202 0.960 . S
C3190 H3203 0.962 . S
C3190 H3204 0.960 . S
C3191 C3188 1.511 . S
C3191 H3205 0.961 . S
C3191 H3206 0.961 . S
C3191 H3207 0.961 . S
C3192 C3193 1.370 . S
C3192 C3194 1.363 . S
C3192 H3208 0.931 . S
C3193 C3192 1.370 . S
C3193 C3197 1.408 . S
C3194 C3192 1.363 . S
C3194 C3195 1.370 . S
C3194 C3198 1.524 . S
C3195 C3187 1.503 . S
C3195 C3194 1.370 . S
C3195 C3196 1.403 . S
C3196 C3195 1.403 . S
C3196 C3197 1.404 . S
C3196 C3199 1.539 . S
C3197 C3193 1.408 . S
C3197 C3196 1.404 . S
C3197 H3209 0.930 . S
C3198 C3194 1.524 . S
C3198 H3210 0.956 . S
C3198 H3211 0.961 . S
C3198 H3212 0.961 . S
C3199 C3196 1.539 . S
C3199 H3213 0.958 . S
C3199 H3214 0.961 . S
C3199 H3215 0.960 . S
H3200 C3184 0.931 1_556 S
H3201 C3189 0.929 . S
H3202 C3190 0.960 . S
H3203 C3190 0.962 . S
H3204 C3190 0.960 . S
H3205 C3191 0.961 . S
H3206 C3191 0.961 . S
H3207 C3191 0.961 . S
H3208 C3192 0.931 . S
H3209 C3197 0.930 . S
H3210 C3198 0.956 . S
H3211 C3198 0.961 . S
H3212 C3198 0.961 . S
H3213 C3199 0.958 . S
H3214 C3199 0.961 . S
H3215 C3199 0.960 . S
C3216 C3217 1.391 . S
C3216 C3218 1.394 . S
C3216 H3232 0.931 . S
C3217 C3216 1.391 . S
C3217 C3221 1.376 . S
C3218 C3216 1.394 . S
C3218 C3219 1.369 . S
C3218 C3222 1.531 . S
C3219 C3218 1.369 . S
C3219 C3220 1.410 . S
C3219 C3227 1.503 . S
C3220 C3219 1.410 . S
C3220 C3221 1.392 . S
C3220 C3223 1.511 . S
C3221 C3217 1.376 . S
C3221 C3220 1.392 . S
C3221 H3233 0.929 . S
C3222 C3218 1.531 . S
C3222 H3234 0.960 . S
C3222 H3235 0.962 . S
C3222 H3236 0.960 . S
C3223 C3220 1.511 . S
C3223 H3237 0.961 . S
C3223 H3238 0.961 . S
C3223 H3239 0.961 . S
C3224 C3225 1.370 . S
C3224 C3226 1.363 . S
C3224 H3240 0.931 . S
C3225 C3224 1.370 . S
C3225 C3229 1.408 . S
C3226 C3224 1.363 . S
C3226 C3227 1.370 . S
C3226 C3230 1.524 . S
C3227 C3219 1.503 . S
C3227 C3226 1.370 . S
C3227 C3228 1.403 . S
C3228 C3227 1.403 . S
C3228 C3229 1.404 . S
C3228 C3231 1.539 . S
C3229 C3225 1.408 . S
C3229 C3228 1.404 . S
C3229 H3241 0.930 . S
C3230 C3226 1.524 . S
C3230 H3242 0.956 . S
C3230 H3243 0.961 . S
C3230 H3244 0.961 . S
C3231 C3228 1.539 . S
C3231 H3245 0.958 . S
C3231 H3246 0.961 . S
C3231 H3247 0.960 . S
H3232 C3216 0.931 . S
H3233 C3221 0.929 . S
H3234 C3222 0.960 . S
H3235 C3222 0.962 . S
H3236 C3222 0.960 . S
H3237 C3223 0.961 . S
H3238 C3223 0.961 . S
H3239 C3223 0.961 . S
H3240 C3224 0.931 . S
H3241 C3229 0.930 . S
H3242 C3230 0.956 . S
H3243 C3230 0.961 . S
H3244 C3230 0.961 . S
H3245 C3231 0.958 . S
H3246 C3231 0.961 . S
H3247 C3231 0.960 . S
C3248 C3249 1.391 . S
C3248 C3250 1.394 . S
C3248 H3264 0.931 . S
C3249 C3248 1.391 . S
C3249 C3253 1.376 . S
C3250 C3248 1.394 . S
C3250 C3251 1.369 . S
C3250 C3254 1.531 . S
C3251 C3250 1.369 . S
C3251 C3252 1.410 . S
C3251 C3259 1.503 . S
C3252 C3251 1.410 . S
C3252 C3253 1.392 . S
C3252 C3255 1.511 1_545 S
C3253 C3249 1.376 . S
C3253 C3252 1.392 . S
C3253 H3265 0.929 . S
C3254 C3250 1.531 . S
C3254 H3266 0.960 . S
C3254 H3267 0.962 . S
C3254 H3268 0.960 . S
C3255 C3252 1.511 1_565 S
C3255 H3269 0.961 . S
C3255 H3270 0.961 . S
C3255 H3271 0.961 . S
C3256 C3257 1.370 . S
C3256 C3258 1.363 1_565 S
C3256 H3272 0.931 . S
C3257 C3256 1.370 . S
C3257 C3261 1.408 . S
C3258 C3256 1.363 1_545 S
C3258 C3259 1.370 . S
C3258 C3262 1.524 . S
C3259 C3251 1.503 . S
C3259 C3258 1.370 . S
C3259 C3260 1.403 1_545 S
C3260 C3259 1.403 1_565 S
C3260 C3261 1.404 . S
C3260 C3263 1.539 . S
C3261 C3257 1.408 . S
C3261 C3260 1.404 . S
C3261 H3273 0.930 . S
C3262 C3258 1.524 . S
C3262 H3274 0.956 . S
C3262 H3275 0.961 . S
C3262 H3276 0.961 . S
C3263 C3260 1.539 . S
C3263 H3277 0.958 1_565 S
C3263 H3278 0.961 . S
C3263 H3279 0.960 1_565 S
H3264 C3248 0.931 . S
H3265 C3253 0.929 . S
H3266 C3254 0.960 . S
H3267 C3254 0.962 . S
H3268 C3254 0.960 . S
H3269 C3255 0.961 . S
H3270 C3255 0.961 . S
H3271 C3255 0.961 . S
H3272 C3256 0.931 . S
H3273 C3261 0.930 . S
H3274 C3262 0.956 . S
H3275 C3262 0.961 . S
H3276 C3262 0.961 . S
H3277 C3263 0.958 1_545 S
H3278 C3263 0.961 . S
H3279 C3263 0.960 1_545 S
C3280 C3281 1.391 . S
C3280 C3282 1.394 . S
C3280 H3296 0.931 . S
C3281 C3280 1.391 . S
C3281 C3285 1.376 . S
C3282 C3280 1.394 . S
C3282 C3283 1.369 . S
C3282 C3286 1.531 . S
C3283 C3282 1.369 . S
C3283 C3284 1.410 . S
C3283 C3291 1.503 . S
C3284 C3283 1.410 . S
C3284 C3285 1.392 . S
C3284 C3287 1.511 . S
C3285 C3281 1.376 . S
C3285 C3284 1.392 . S
C3285 H3297 0.929 . S
C3286 C3282 1.531 . S
C3286 H3298 0.960 . S
C3286 H3299 0.962 . S
C3286 H3300 0.960 . S
C3287 C3284 1.511 . S
C3287 H3301 0.961 . S
C3287 H3302 0.961 . S
C3287 H3303 0.961 . S
C3288 C3289 1.370 . S
C3288 C3290 1.363 . S
C3288 H3304 0.931 . S
C3289 C3288 1.370 . S
C3289 C3293 1.408 . S
C3290 C3288 1.363 . S
C3290 C3291 1.370 . S
C3290 C3294 1.524 . S
C3291 C3283 1.503 . S
C3291 C3290 1.370 . S
C3291 C3292 1.403 . S
C3292 C3291 1.403 . S
C3292 C3293 1.404 . S
C3292 C3295 1.539 . S
C3293 C3289 1.408 . S
C3293 C3292 1.404 . S
C3293 H3305 0.930 . S
C3294 C3290 1.524 . S
C3294 H3306 0.956 . S
C3294 H3307 0.961 . S
C3294 H3308 0.961 . S
C3295 C3292 1.539 . S
C3295 H3309 0.958 . S
C3295 H3310 0.961 . S
C3295 H3311 0.960 . S
H3296 C3280 0.931 . S
H3297 C3285 0.929 . S
H3298 C3286 0.960 . S
H3299 C3286 0.962 . S
H3300 C3286 0.960 . S
H3301 C3287 0.961 . S
H3302 C3287 0.961 . S
H3303 C3287 0.961 . S
H3304 C3288 0.931 . S
H3305 C3293 0.930 . S
H3306 C3294 0.956 . S
H3307 C3294 0.961 . S
H3308 C3294 0.961 . S
H3309 C3295 0.958 . S
H3310 C3295 0.961 . S
H3311 C3295 0.960 . S
C3312 C3313 1.391 . S
C3312 C3314 1.394 . S
C3312 H3328 0.931 . S
C3313 C3312 1.391 . S
C3313 C3317 1.376 . S
C3314 C3312 1.394 . S
C3314 C3315 1.369 . S
C3314 C3318 1.531 . S
C3315 C3314 1.369 . S
C3315 C3316 1.410 . S
C3315 C3323 1.503 . S
C3316 C3315 1.410 . S
C3316 C3317 1.392 . S
C3316 C3319 1.511 . S
C3317 C3313 1.376 . S
C3317 C3316 1.392 . S
C3317 H3329 0.929 . S
C3318 C3314 1.531 . S
C3318 H3330 0.960 . S
C3318 H3331 0.962 . S
C3318 H3332 0.960 . S
C3319 C3316 1.511 . S
C3319 H3333 0.961 . S
C3319 H3334 0.961 . S
C3319 H3335 0.961 . S
C3320 C3321 1.370 . S
C3320 C3322 1.363 . S
C3320 H3336 0.931 . S
C3321 C3320 1.370 . S
C3321 C3325 1.408 . S
C3322 C3320 1.363 . S
C3322 C3323 1.370 . S
C3322 C3326 1.524 . S
C3323 C3315 1.503 . S
C3323 C3322 1.370 . S
C3323 C3324 1.403 . S
C3324 C3323 1.403 . S
C3324 C3325 1.404 . S
C3324 C3327 1.539 . S
C3325 C3321 1.408 . S
C3325 C3324 1.404 . S
C3325 H3337 0.930 . S
C3326 C3322 1.524 . S
C3326 H3338 0.956 . S
C3326 H3339 0.961 . S
C3326 H3340 0.961 . S
C3327 C3324 1.539 . S
C3327 H3341 0.958 . S
C3327 H3342 0.961 . S
C3327 H3343 0.960 . S
H3328 C3312 0.931 . S
H3329 C3317 0.929 . S
H3330 C3318 0.960 . S
H3331 C3318 0.962 . S
H3332 C3318 0.960 . S
H3333 C3319 0.961 . S
H3334 C3319 0.961 . S
H3335 C3319 0.961 . S
H3336 C3320 0.931 . S
H3337 C3325 0.930 . S
H3338 C3326 0.956 . S
H3339 C3326 0.961 . S
H3340 C3326 0.961 . S
H3341 C3327 0.958 . S
H3342 C3327 0.961 . S
H3343 C3327 0.960 . S
C3344 C3345 1.391 . S
C3344 C3346 1.394 . S
C3344 H3360 0.931 . S
C3345 C3344 1.391 . S
C3345 C3349 1.406 . S
C3346 C3344 1.394 . S
C3346 C3347 1.369 . S
C3346 C3350 1.531 . S
C3347 C3346 1.369 . S
C3347 C3348 1.450 . S
C3347 C3355 1.503 . S
C3348 C3347 1.450 . S
C3348 C3349 1.393 . S
C3348 C3351 1.484 1_455 S
C3349 C3345 1.406 . S
C3349 C3348 1.393 . S
C3349 H3361 0.885 1_455 S
C3350 C3346 1.531 . S
C3350 H3362 0.960 . S
C3350 H3363 0.962 . S
C3350 H3364 0.960 . S
C3351 C3348 1.484 1_655 S
C3351 H3365 0.961 . S
C3351 H3366 0.961 . S
C3351 H3367 0.961 . S
C3352 C3353 1.370 . S
C3352 C3354 1.363 . S
C3352 H3368 0.931 . S
C3353 C3352 1.370 . S
C3353 C3357 1.408 . S
C3354 C3352 1.363 . S
C3354 C3355 1.370 . S
C3354 C3358 1.524 . S
C3355 C3347 1.503 . S
C3355 C3354 1.370 . S
C3355 C3356 1.403 . S
C3356 C3355 1.403 . S
C3356 C3357 1.404 . S
C3356 C3359 1.539 . S
C3357 C3353 1.408 . S
C3357 C3356 1.404 . S
C3357 H3369 0.930 . S
C3358 C3354 1.524 . S
C3358 H3370 0.956 . S
C3358 H3371 0.961 . S
C3358 H3372 0.961 . S
C3359 C3356 1.539 . S
C3359 H3373 0.958 . S
C3359 H3374 0.961 1_455 S
C3359 H3375 0.960 1_455 S
H3360 C3344 0.931 . S
H3361 C3349 0.885 1_655 S
H3362 C3350 0.960 . S
H3363 C3350 0.962 . S
H3364 C3350 0.960 . S
H3365 C3351 0.961 . S
H3366 C3351 0.961 . S
H3367 C3351 0.961 . S
H3368 C3352 0.931 . S
H3369 C3357 0.930 . S
H3370 C3358 0.956 . S
H3371 C3358 0.961 . S
H3372 C3358 0.961 . S
H3373 C3359 0.958 . S
H3374 C3359 0.961 1_655 S
H3375 C3359 0.960 1_655 S
C3376 C3377 1.391 . S
C3376 C3378 1.394 . S
C3376 H3392 0.931 . S
C3377 C3376 1.391 . S
C3377 C3381 1.376 . S
C3378 C3376 1.394 . S
C3378 C3379 1.369 . S
C3378 C3382 1.531 . S
C3379 C3378 1.369 . S
C3379 C3380 1.410 . S
C3379 C3387 1.503 . S
C3380 C3379 1.410 . S
C3380 C3381 1.392 . S
C3380 C3383 1.511 . S
C3381 C3377 1.376 . S
C3381 C3380 1.392 . S
C3381 H3393 0.929 . S
C3382 C3378 1.531 . S
C3382 H3394 0.960 . S
C3382 H3395 0.962 . S
C3382 H3396 0.960 . S
C3383 C3380 1.511 . S
C3383 H3397 0.961 . S
C3383 H3398 0.961 . S
C3383 H3399 0.961 . S
C3384 C3385 1.370 . S
C3384 C3386 1.363 . S
C3384 H3400 0.931 . S
C3385 C3384 1.370 . S
C3385 C3389 1.408 . S
C3386 C3384 1.363 . S
C3386 C3387 1.370 . S
C3386 C3390 1.524 . S
C3387 C3379 1.503 . S
C3387 C3386 1.370 . S
C3387 C3388 1.403 . S
C3388 C3387 1.403 . S
C3388 C3389 1.404 . S
C3388 C3391 1.539 . S
C3389 C3385 1.408 . S
C3389 C3388 1.404 . S
C3389 H3401 0.930 . S
C3390 C3386 1.524 . S
C3390 H3402 0.956 . S
C3390 H3403 0.961 . S
C3390 H3404 0.961 . S
C3391 C3388 1.539 . S
C3391 H3405 0.958 . S
C3391 H3406 0.961 . S
C3391 H3407 0.960 . S
H3392 C3376 0.931 . S
H3393 C3381 0.929 . S
H3394 C3382 0.960 . S
H3395 C3382 0.962 . S
H3396 C3382 0.960 . S
H3397 C3383 0.961 . S
H3398 C3383 0.961 . S
H3399 C3383 0.961 . S
H3400 C3384 0.931 . S
H3401 C3389 0.930 . S
H3402 C3390 0.956 . S
H3403 C3390 0.961 . S
H3404 C3390 0.961 . S
H3405 C3391 0.958 . S
H3406 C3391 0.961 . S
H3407 C3391 0.960 . S
C3408 C3409 1.391 . S
C3408 C3410 1.394 . S
C3408 H3424 0.931 . S
C3409 C3408 1.391 . S
C3409 C3413 1.376 . S
C3410 C3408 1.394 . S
C3410 C3411 1.369 . S
C3410 C3414 1.531 . S
C3411 C3410 1.369 . S
C3411 C3412 1.410 . S
C3411 C3419 1.503 . S
C3412 C3411 1.410 . S
C3412 C3413 1.392 . S
C3412 C3415 1.511 . S
C3413 C3409 1.376 . S
C3413 C3412 1.392 . S
C3413 H3425 0.929 . S
C3414 C3410 1.531 . S
C3414 H3426 0.960 1_554 S
C3414 H3427 0.962 . S
C3414 H3428 0.960 1_554 S
C3415 C3412 1.511 . S
C3415 H3429 0.961 . S
C3415 H3430 0.961 . S
C3415 H3431 0.961 . S
C3416 C3417 1.370 . S
C3416 C3418 1.363 . S
C3416 H3432 0.931 . S
C3417 C3416 1.370 . S
C3417 C3421 1.408 . S
C3418 C3416 1.363 . S
C3418 C3419 1.370 . S
C3418 C3422 1.524 . S
C3419 C3411 1.503 . S
C3419 C3418 1.370 . S
C3419 C3420 1.403 . S
C3420 C3419 1.403 . S
C3420 C3421 1.404 . S
C3420 C3423 1.539 1_554 S
C3421 C3417 1.408 . S
C3421 C3420 1.404 . S
C3421 H3433 0.930 1_554 S
C3422 C3418 1.524 . S
C3422 H3434 0.956 . S
C3422 H3435 0.961 . S
C3422 H3436 0.961 . S
C3423 C3420 1.539 1_556 S
C3423 H3437 0.958 . S
C3423 H3438 0.961 . S
C3423 H3439 0.960 . S
H3424 C3408 0.931 . S
H3425 C3413 0.929 . S
H3426 C3414 0.960 1_556 S
H3427 C3414 0.962 . S
H3428 C3414 0.960 1_556 S
H3429 C3415 0.961 . S
H3430 C3415 0.961 . S
H3431 C3415 0.961 . S
H3432 C3416 0.931 . S
H3433 C3421 0.930 1_556 S
H3434 C3422 0.956 . S
H3435 C3422 0.961 . S
H3436 C3422 0.961 . S
H3437 C3423 0.958 . S
H3438 C3423 0.961 . S
H3439 C3423 0.960 . S
C3440 C3441 1.391 . S
C3440 C3442 1.394 . S
C3440 H3456 0.931 . S
C3441 C3440 1.391 . S
C3441 C3445 1.376 . S
C3442 C3440 1.394 . S
C3442 C3443 1.369 . S
C3442 C3446 1.531 . S
C3443 C3442 1.369 . S
C3443 C3444 1.410 . S
C3443 C3451 1.503 . S
C3444 C3443 1.410 . S
C3444 C3445 1.392 . S
C3444 C3447 1.511 . S
C3445 C3441 1.376 . S
C3445 C3444 1.392 . S
C3445 H3457 0.929 . S
C3446 C3442 1.531 . S
C3446 H3458 0.960 . S
C3446 H3459 0.962 . S
C3446 H3460 0.960 . S
C3447 C3444 1.511 . S
C3447 H3461 0.961 . S
C3447 H3462 0.961 . S
C3447 H3463 0.961 . S
C3448 C3449 1.370 . S
C3448 C3450 1.363 . S
C3448 H3464 0.931 . S
C3449 C3448 1.370 . S
C3449 C3453 1.408 . S
C3450 C3448 1.363 . S
C3450 C3451 1.370 . S
C3450 C3454 1.524 . S
C3451 C3443 1.503 . S
C3451 C3450 1.370 . S
C3451 C3452 1.403 . S
C3452 C3451 1.403 . S
C3452 C3453 1.404 . S
C3452 C3455 1.539 . S
C3453 C3449 1.408 . S
C3453 C3452 1.404 . S
C3453 H3465 0.930 . S
C3454 C3450 1.524 . S
C3454 H3466 0.956 . S
C3454 H3467 0.961 . S
C3454 H3468 0.961 . S
C3455 C3452 1.539 . S
C3455 H3469 0.958 . S
C3455 H3470 0.961 . S
C3455 H3471 0.960 . S
H3456 C3440 0.931 . S
H3457 C3445 0.929 . S
H3458 C3446 0.960 . S
H3459 C3446 0.962 . S
H3460 C3446 0.960 . S
H3461 C3447 0.961 . S
H3462 C3447 0.961 . S
H3463 C3447 0.961 . S
H3464 C3448 0.931 . S
H3465 C3453 0.930 . S
H3466 C3454 0.956 . S
H3467 C3454 0.961 . S
H3468 C3454 0.961 . S
H3469 C3455 0.958 . S
H3470 C3455 0.961 . S
H3471 C3455 0.960 . S
C3472 C3473 1.391 . S
C3472 C3474 1.394 . S
C3472 H3488 0.931 . S
C3473 C3472 1.391 . S
C3473 C3477 1.376 . S
C3474 C3472 1.394 . S
C3474 C3475 1.369 . S
C3474 C3478 1.531 . S
C3475 C3474 1.369 . S
C3475 C3476 1.410 . S
C3475 C3483 1.503 . S
C3476 C3475 1.410 . S
C3476 C3477 1.392 . S
C3476 C3479 1.511 . S
C3477 C3473 1.376 . S
C3477 C3476 1.392 . S
C3477 H3489 0.929 . S
C3478 C3474 1.531 . S
C3478 H3490 0.960 . S
C3478 H3491 0.962 . S
C3478 H3492 0.960 . S
C3479 C3476 1.511 . S
C3479 H3493 0.961 . S
C3479 H3494 0.961 . S
C3479 H3495 0.961 . S
C3480 C3481 1.370 . S
C3480 C3482 1.363 . S
C3480 H3496 0.931 . S
C3481 C3480 1.370 . S
C3481 C3485 1.408 . S
C3482 C3480 1.363 . S
C3482 C3483 1.370 . S
C3482 C3486 1.524 . S
C3483 C3475 1.503 . S
C3483 C3482 1.370 . S
C3483 C3484 1.403 . S
C3484 C3483 1.403 . S
C3484 C3485 1.404 . S
C3484 C3487 1.539 . S
C3485 C3481 1.408 . S
C3485 C3484 1.404 . S
C3485 H3497 0.930 . S
C3486 C3482 1.524 . S
C3486 H3498 0.956 . S
C3486 H3499 0.961 . S
C3486 H3500 0.961 . S
C3487 C3484 1.539 . S
C3487 H3501 0.958 . S
C3487 H3502 0.961 1_455 S
C3487 H3503 0.960 . S
H3488 C3472 0.931 . S
H3489 C3477 0.929 . S
H3490 C3478 0.960 . S
H3491 C3478 0.962 . S
H3492 C3478 0.960 . S
H3493 C3479 0.961 . S
H3494 C3479 0.961 . S
H3495 C3479 0.961 . S
H3496 C3480 0.931 . S
H3497 C3485 0.930 . S
H3498 C3486 0.956 . S
H3499 C3486 0.961 . S
H3500 C3486 0.961 . S
H3501 C3487 0.958 . S
H3502 C3487 0.961 1_655 S
H3503 C3487 0.960 . S
C3504 C3505 1.391 . S
C3504 C3506 1.394 . S
C3504 H3520 0.931 . S
C3505 C3504 1.391 . S
C3505 C3509 1.376 . S
C3506 C3504 1.394 . S
C3506 C3507 1.369 . S
C3506 C3510 1.531 . S
C3507 C3506 1.369 . S
C3507 C3508 1.410 . S
C3507 C3515 1.503 . S
C3508 C3507 1.410 . S
C3508 C3509 1.392 . S
C3508 C3511 1.511 . S
C3509 C3505 1.376 . S
C3509 C3508 1.392 . S
C3509 H3521 0.929 . S
C3510 C3506 1.531 . S
C3510 H3522 0.960 . S
C3510 H3523 0.962 . S
C3510 H3524 0.960 . S
C3511 C3508 1.511 . S
C3511 H3525 0.961 . S
C3511 H3526 0.961 . S
C3511 H3527 0.961 . S
C3512 C3513 1.370 . S
C3512 C3514 1.363 . S
C3512 H3528 0.931 . S
C3513 C3512 1.370 . S
C3513 C3517 1.408 . S
C3514 C3512 1.363 . S
C3514 C3515 1.370 . S
C3514 C3518 1.524 . S
C3515 C3507 1.503 . S
C3515 C3514 1.370 . S
C3515 C3516 1.403 . S
C3516 C3515 1.403 . S
C3516 C3517 1.404 . S
C3516 C3519 1.539 . S
C3517 C3513 1.408 . S
C3517 C3516 1.404 . S
C3517 H3529 0.930 . S
C3518 C3514 1.524 . S
C3518 H3530 0.956 . S
C3518 H3531 0.961 . S
C3518 H3532 0.961 . S
C3519 C3516 1.539 . S
C3519 H3533 0.958 . S
C3519 H3534 0.961 . S
C3519 H3535 0.960 . S
H3520 C3504 0.931 . S
H3521 C3509 0.929 . S
H3522 C3510 0.960 . S
H3523 C3510 0.962 . S
H3524 C3510 0.960 . S
H3525 C3511 0.961 . S
H3526 C3511 0.961 . S
H3527 C3511 0.961 . S
H3528 C3512 0.931 . S
H3529 C3517 0.930 . S
H3530 C3518 0.956 . S
H3531 C3518 0.961 . S
H3532 C3518 0.961 . S
H3533 C3519 0.958 . S
H3534 C3519 0.961 . S
H3535 C3519 0.960 . S
C3536 C3537 1.391 . S
C3536 C3538 1.394 . S
C3536 H3552 0.931 . S
C3537 C3536 1.391 . S
C3537 C3541 1.376 . S
C3538 C3536 1.394 . S
C3538 C3539 1.369 . S
C3538 C3542 1.531 . S
C3539 C3538 1.369 . S
C3539 C3540 1.410 . S
C3539 C3547 1.503 . S
C3540 C3539 1.410 . S
C3540 C3541 1.392 . S
C3540 C3543 1.511 . S
C3541 C3537 1.376 . S
C3541 C3540 1.392 . S
C3541 H3553 0.929 . S
C3542 C3538 1.531 . S
C3542 H3554 0.960 . S
C3542 H3555 0.962 . S
C3542 H3556 0.960 . S
C3543 C3540 1.511 . S
C3543 H3557 0.961 . S
C3543 H3558 0.961 . S
C3543 H3559 0.961 . S
C3544 C3545 1.370 . S
C3544 C3546 1.363 . S
C3544 H3560 0.931 . S
C3545 C3544 1.370 . S
C3545 C3549 1.408 . S
C3546 C3544 1.363 . S
C3546 C3547 1.370 . S
C3546 C3550 1.524 . S
C3547 C3539 1.503 . S
C3547 C3546 1.370 . S
C3547 C3548 1.403 . S
C3548 C3547 1.403 . S
C3548 C3549 1.404 . S
C3548 C3551 1.539 . S
C3549 C3545 1.408 . S
C3549 C3548 1.404 . S
C3549 H3561 0.930 . S
C3550 C3546 1.524 . S
C3550 H3562 0.956 . S
C3550 H3563 0.961 . S
C3550 H3564 0.961 . S
C3551 C3548 1.539 . S
C3551 H3565 0.958 . S
C3551 H3566 0.961 . S
C3551 H3567 0.960 . S
H3552 C3536 0.931 . S
H3553 C3541 0.929 . S
H3554 C3542 0.960 . S
H3555 C3542 0.962 . S
H3556 C3542 0.960 . S
H3557 C3543 0.961 . S
H3558 C3543 0.961 . S
H3559 C3543 0.961 . S
H3560 C3544 0.931 . S
H3561 C3549 0.930 . S
H3562 C3550 0.956 . S
H3563 C3550 0.961 . S
H3564 C3550 0.961 . S
H3565 C3551 0.958 . S
H3566 C3551 0.961 . S
H3567 C3551 0.960 . S
C3568 C3569 1.391 . S
C3568 C3570 1.394 . S
C3568 H3584 0.931 . S
C3569 C3568 1.391 . S
C3569 C3573 1.376 . S
C3570 C3568 1.394 . S
C3570 C3571 1.369 . S
C3570 C3574 1.531 . S
C3571 C3570 1.369 . S
C3571 C3572 1.410 . S
C3571 C3579 1.503 . S
C3572 C3571 1.410 . S
C3572 C3573 1.392 . S
C3572 C3575 1.511 . S
C3573 C3569 1.376 . S
C3573 C3572 1.392 . S
C3573 H3585 0.929 . S
C3574 C3570 1.531 . S
C3574 H3586 0.960 . S
C3574 H3587 0.962 . S
C3574 H3588 0.960 . S
C3575 C3572 1.511 . S
C3575 H3589 0.961 . S
C3575 H3590 0.961 . S
C3575 H3591 0.961 . S
C3576 C3577 1.370 . S
C3576 C3578 1.363 . S
C3576 H3592 0.931 . S
C3577 C3576 1.370 . S
C3577 C3581 1.408 . S
C3578 C3576 1.363 . S
C3578 C3579 1.370 . S
C3578 C3582 1.524 . S
C3579 C3571 1.503 . S
C3579 C3578 1.370 . S
C3579 C3580 1.403 . S
C3580 C3579 1.403 . S
C3580 C3581 1.404 . S
C3580 C3583 1.539 . S
C3581 C3577 1.408 . S
C3581 C3580 1.404 . S
C3581 H3593 0.930 . S
C3582 C3578 1.524 . S
C3582 H3594 0.956 . S
C3582 H3595 0.961 . S
C3582 H3596 0.961 . S
C3583 C3580 1.539 . S
C3583 H3597 0.958 . S
C3583 H3598 0.961 . S
C3583 H3599 0.960 . S
H3584 C3568 0.931 . S
H3585 C3573 0.929 . S
H3586 C3574 0.960 . S
H3587 C3574 0.962 . S
H3588 C3574 0.960 . S
H3589 C3575 0.961 . S
H3590 C3575 0.961 . S
H3591 C3575 0.961 . S
H3592 C3576 0.931 . S
H3593 C3581 0.930 . S
H3594 C3582 0.956 . S
H3595 C3582 0.961 . S
H3596 C3582 0.961 . S
H3597 C3583 0.958 . S
H3598 C3583 0.961 . S
H3599 C3583 0.960 . S
C3600 C3601 1.391 . S
C3600 C3602 1.394 . S
C3600 H3616 0.931 . S
C3601 C3600 1.391 . S
C3601 C3605 1.376 . S
C3602 C3600 1.394 . S
C3602 C3603 1.369 . S
C3602 C3606 1.531 . S
C3603 C3602 1.369 . S
C3603 C3604 1.410 1_655 S
C3603 C3611 1.498 1_655 S
C3604 C3603 1.410 1_455 S
C3604 C3605 1.392 1_455 S
C3604 C3607 1.511 . S
C3605 C3601 1.376 . S
C3605 C3604 1.392 1_655 S
C3605 H3617 0.929 1_655 S
C3606 C3602 1.531 . S
C3606 H3618 0.960 . S
C3606 H3619 0.962 . S
C3606 H3620 0.960 . S
C3607 C3604 1.511 . S
C3607 H3621 0.961 . S
C3607 H3622 0.961 . S
C3607 H3623 0.961 . S
C3608 C3609 1.370 . S
C3608 C3610 1.363 . S
C3608 H3624 0.931 1_556 S
C3609 C3608 1.370 . S
C3609 C3613 1.408 . S
C3610 C3608 1.363 . S
C3610 C3611 1.369 . S
C3610 C3614 1.524 1_455 S
C3611 C3603 1.498 1_455 S
C3611 C3610 1.369 . S
C3611 C3612 1.409 . S
C3612 C3611 1.409 . S
C3612 C3613 1.404 . S
C3612 C3615 1.539 . S
C3613 C3609 1.408 . S
C3613 C3612 1.404 . S
C3613 H3625 0.930 . S
C3614 C3610 1.524 1_655 S
C3614 H3626 0.956 . S
C3614 H3627 0.961 1_655 S
C3614 H3628 0.961 1_655 S
C3615 C3612 1.539 . S
C3615 H3629 0.958 1_455 S
C3615 H3630 0.961 . S
C3615 H3631 0.960 . S
H3616 C3600 0.931 . S
H3617 C3605 0.929 1_455 S
H3618 C3606 0.960 . S
H3619 C3606 0.962 . S
H3620 C3606 0.960 . S
H3621 C3607 0.961 . S
H3622 C3607 0.961 . S
H3623 C3607 0.961 . S
H3624 C3608 0.931 1_554 S
H3625 C3613 0.930 . S
H3626 C3614 0.956 . S
H3627 C3614 0.961 1_455 S
H3628 C3614 0.961 1_455 S
H3629 C3615 0.958 1_655 S
H3630 C3615 0.961 . S
H3631 C3615 0.960 . S
C3632 C3633 1.391 . S
C3632 C3634 1.394 . S
C3632 H3648 0.931 . S
C3633 C3632 1.391 . S
C3633 C3637 1.376 . S
C3634 C3632 1.394 . S
C3634 C3635 1.369 . S
C3634 C3638 1.531 . S
C3635 C3634 1.369 . S
C3635 C3636 1.410 . S
C3635 C3643 1.503 . S
C3636 C3635 1.410 . S
C3636 C3637 1.392 . S
C3636 C3639 1.511 . S
C3637 C3633 1.376 . S
C3637 C3636 1.392 . S
C3637 H3649 0.929 . S
C3638 C3634 1.531 . S
C3638 H3650 0.960 . S
C3638 H3651 0.962 . S
C3638 H3652 0.960 . S
C3639 C3636 1.511 . S
C3639 H3653 0.961 . S
C3639 H3654 0.961 . S
C3639 H3655 0.961 . S
C3640 C3641 1.370 . S
C3640 C3642 1.363 . S
C3640 H3656 0.931 . S
C3641 C3640 1.370 . S
C3641 C3645 1.408 . S
C3642 C3640 1.363 . S
C3642 C3643 1.370 . S
C3642 C3646 1.524 . S
C3643 C3635 1.503 . S
C3643 C3642 1.370 . S
C3643 C3644 1.403 . S
C3644 C3643 1.403 . S
C3644 C3645 1.404 . S
C3644 C3647 1.539 . S
C3645 C3641 1.408 . S
C3645 C3644 1.404 . S
C3645 H3657 0.930 . S
C3646 C3642 1.524 . S
C3646 H3658 0.956 . S
C3646 H3659 0.961 . S
C3646 H3660 0.961 . S
C3647 C3644 1.539 . S
C3647 H3661 0.958 . S
C3647 H3662 0.961 . S
C3647 H3663 0.960 . S
H3648 C3632 0.931 . S
H3649 C3637 0.929 . S
H3650 C3638 0.960 . S
H3651 C3638 0.962 . S
H3652 C3638 0.960 . S
H3653 C3639 0.961 . S
H3654 C3639 0.961 . S
H3655 C3639 0.961 . S
H3656 C3640 0.931 . S
H3657 C3645 0.930 . S
H3658 C3646 0.956 . S
H3659 C3646 0.961 . S
H3660 C3646 0.961 . S
H3661 C3647 0.958 . S
H3662 C3647 0.961 . S
H3663 C3647 0.960 . S
C3664 C3665 1.391 . S
C3664 C3666 1.394 . S
C3664 H3680 0.931 . S
C3665 C3664 1.391 . S
C3665 C3669 1.376 . S
C3666 C3664 1.394 . S
C3666 C3667 1.369 . S
C3666 C3670 1.531 . S
C3667 C3666 1.369 . S
C3667 C3668 1.410 . S
C3667 C3675 1.503 . S
C3668 C3667 1.410 . S
C3668 C3669 1.392 . S
C3668 C3671 1.511 . S
C3669 C3665 1.376 . S
C3669 C3668 1.392 . S
C3669 H3681 0.929 . S
C3670 C3666 1.531 . S
C3670 H3682 0.960 . S
C3670 H3683 0.962 . S
C3670 H3684 0.960 . S
C3671 C3668 1.511 . S
C3671 H3685 0.961 . S
C3671 H3686 0.961 . S
C3671 H3687 0.961 . S
C3672 C3673 1.370 . S
C3672 C3674 1.363 . S
C3672 H3688 0.931 . S
C3673 C3672 1.370 . S
C3673 C3677 1.408 . S
C3674 C3672 1.363 . S
C3674 C3675 1.370 . S
C3674 C3678 1.524 . S
C3675 C3667 1.503 . S
C3675 C3674 1.370 . S
C3675 C3676 1.403 . S
C3676 C3675 1.403 . S
C3676 C3677 1.404 . S
C3676 C3679 1.539 . S
C3677 C3673 1.408 . S
C3677 C3676 1.404 . S
C3677 H3689 0.930 . S
C3678 C3674 1.524 . S
C3678 H3690 0.956 . S
C3678 H3691 0.961 . S
C3678 H3692 0.961 . S
C3679 C3676 1.539 . S
C3679 H3693 0.958 . S
C3679 H3694 0.961 . S
C3679 H3695 0.960 . S
H3680 C3664 0.931 . S
H3681 C3669 0.929 . S
H3682 C3670 0.960 . S
H3683 C3670 0.962 . S
H3684 C3670 0.960 . S
H3685 C3671 0.961 . S
H3686 C3671 0.961 . S
H3687 C3671 0.961 . S
H3688 C3672 0.931 . S
H3689 C3677 0.930 . S
H3690 C3678 0.956 . S
H3691 C3678 0.961 . S
H3692 C3678 0.961 . S
H3693 C3679 0.958 . S
H3694 C3679 0.961 . S
H3695 C3679 0.960 . S
C3696 C3697 1.391 1_556 S
C3696 C3698 1.394 . S
C3696 H3712 0.931 . S
C3697 C3696 1.391 1_554 S
C3697 C3701 1.376 . S
C3698 C3696 1.394 . S
C3698 C3699 1.369 . S
C3698 C3702 1.531 . S
C3699 C3698 1.369 . S
C3699 C3700 1.410 . S
C3699 C3707 1.503 . S
C3700 C3699 1.410 . S
C3700 C3701 1.392 1_556 S
C3700 C3703 1.511 . S
C3701 C3697 1.376 . S
C3701 C3700 1.392 1_554 S
C3701 H3713 0.929 . S
C3702 C3698 1.531 . S
C3702 H3714 0.960 . S
C3702 H3715 0.962 . S
C3702 H3716 0.960 . S
C3703 C3700 1.511 . S
C3703 H3717 0.961 1_556 S
C3703 H3718 0.961 . S
C3703 H3719 0.961 . S
C3704 C3705 1.370 . S
C3704 C3706 1.363 . S
C3704 H3720 0.931 . S
C3705 C3704 1.370 . S
C3705 C3709 1.408 . S
C3706 C3704 1.363 . S
C3706 C3707 1.370 . S
C3706 C3710 1.524 . S
C3707 C3699 1.503 . S
C3707 C3706 1.370 . S
C3707 C3708 1.403 . S
C3708 C3707 1.403 . S
C3708 C3709 1.404 . S
C3708 C3711 1.539 . S
C3709 C3705 1.408 . S
C3709 C3708 1.404 . S
C3709 H3721 0.930 . S
C3710 C3706 1.524 . S
C3710 H3722 0.956 . S
C3710 H3723 0.961 . S
C3710 H3724 0.961 . S
C3711 C3708 1.539 . S
C3711 H3725 0.958 . S
C3711 H3726 0.961 . S
C3711 H3727 0.960 . S
H3712 C3696 0.931 . S
H3713 C3701 0.929 . S
H3714 C3702 0.960 . S
H3715 C3702 0.962 . S
H3716 C3702 0.960 . S
H3717 C3703 0.961 1_554 S
H3718 C3703 0.961 . S
H3719 C3703 0.961 . S
H3720 C3704 0.931 . S
H3721 C3709 0.930 . S
H3722 C3710 0.956 . S
H3723 C3710 0.961 . S
H3724 C3710 0.961 . S
H3725 C3711 0.958 . S
H3726 C3711 0.961 . S
H3727 C3711 0.960 . S
C3728 C3729 1.391 . S
C3728 C3730 1.394 . S
C3728 H3744 0.931 . S
C3729 C3728 1.391 . S
C3729 C3733 1.376 . S
C3730 C3728 1.394 . S
C3730 C3731 1.369 . S
C3730 C3734 1.531 . S
C3731 C3730 1.369 . S
C3731 C3732 1.410 . S
C3731 C3739 1.503 . S
C3732 C3731 1.410 . S
C3732 C3733 1.392 . S
C3732 C3735 1.511 1_655 S
C3733 C3729 1.376 . S
C3733 C3732 1.392 . S
C3733 H3745 0.929 . S
C3734 C3730 1.531 . S
C3734 H3746 0.960 . S
C3734 H3747 0.962 . S
C3734 H3748 0.960 . S
C3735 C3732 1.511 1_455 S
C3735 H3749 0.961 . S
C3735 H3750 0.961 . S
C3735 H3751 0.961 . S
C3736 C3737 1.370 1_655 S
C3736 C3738 1.363 . S
C3736 H3752 0.931 . S
C3737 C3736 1.370 1_455 S
C3737 C3741 1.408 . S
C3738 C3736 1.363 . S
C3738 C3739 1.370 . S
C3738 C3742 1.524 . S
C3739 C3731 1.503 . S
C3739 C3738 1.370 . S
C3739 C3740 1.403 1_655 S
C3740 C3739 1.403 1_455 S
C3740 C3741 1.404 . S
C3740 C3743 1.539 . S
C3741 C3737 1.408 . S
C3741 C3740 1.404 . S
C3741 H3753 0.930 . S
C3742 C3738 1.524 . S
C3742 H3754 0.956 . S
C3742 H3755 0.961 . S
C3742 H3756 0.961 . S
C3743 C3740 1.539 . S
C3743 H3757 0.958 . S
C3743 H3758 0.961 . S
C3743 H3759 0.960 . S
H3744 C3728 0.931 . S
H3745 C3733 0.929 . S
H3746 C3734 0.960 . S
H3747 C3734 0.962 . S
H3748 C3734 0.960 . S
H3749 C3735 0.961 . S
H3750 C3735 0.961 . S
H3751 C3735 0.961 . S
H3752 C3736 0.931 . S
H3753 C3741 0.930 . S
H3754 C3742 0.956 . S
H3755 C3742 0.961 . S
H3756 C3742 0.961 . S
H3757 C3743 0.958 . S
H3758 C3743 0.961 . S
H3759 C3743 0.960 . S
C3760 C3761 1.391 . S
C3760 C3762 1.394 . S
C3760 H3776 0.931 . S
C3761 C3760 1.391 . S
C3761 C3765 1.376 . S
C3762 C3760 1.394 . S
C3762 C3763 1.369 . S
C3762 C3766 1.531 . S
C3763 C3762 1.369 . S
C3763 C3764 1.410 . S
C3763 C3771 1.503 . S
C3764 C3763 1.410 . S
C3764 C3765 1.392 . S
C3764 C3767 1.511 . S
C3765 C3761 1.376 . S
C3765 C3764 1.392 . S
C3765 H3777 0.929 . S
C3766 C3762 1.531 . S
C3766 H3778 0.960 . S
C3766 H3779 0.962 . S
C3766 H3780 0.960 . S
C3767 C3764 1.511 . S
C3767 H3781 0.961 . S
C3767 H3782 0.961 . S
C3767 H3783 0.961 . S
C3768 C3769 1.370 . S
C3768 C3770 1.363 . S
C3768 H3784 0.931 . S
C3769 C3768 1.370 . S
C3769 C3773 1.408 . S
C3770 C3768 1.363 . S
C3770 C3771 1.370 . S
C3770 C3774 1.524 . S
C3771 C3763 1.503 . S
C3771 C3770 1.370 . S
C3771 C3772 1.403 . S
C3772 C3771 1.403 . S
C3772 C3773 1.404 . S
C3772 C3775 1.539 . S
C3773 C3769 1.408 . S
C3773 C3772 1.404 . S
C3773 H3785 0.930 . S
C3774 C3770 1.524 . S
C3774 H3786 0.956 . S
C3774 H3787 0.961 . S
C3774 H3788 0.961 . S
C3775 C3772 1.539 . S
C3775 H3789 0.958 . S
C3775 H3790 0.961 . S
C3775 H3791 0.960 . S
H3776 C3760 0.931 . S
H3777 C3765 0.929 . S
H3778 C3766 0.960 . S
H3779 C3766 0.962 . S
H3780 C3766 0.960 . S
H3781 C3767 0.961 . S
H3782 C3767 0.961 . S
H3783 C3767 0.961 . S
H3784 C3768 0.931 . S
H3785 C3773 0.930 . S
H3786 C3774 0.956 . S
H3787 C3774 0.961 . S
H3788 C3774 0.961 . S
H3789 C3775 0.958 . S
H3790 C3775 0.961 . S
H3791 C3775 0.960 . S
C3792 C3793 1.391 . S
C3792 C3794 1.394 . S
C3792 H3808 0.931 . S
C3793 C3792 1.391 . S
C3793 C3797 1.376 . S
C3794 C3792 1.394 . S
C3794 C3795 1.369 . S
C3794 C3798 1.531 . S
C3795 C3794 1.369 . S
C3795 C3796 1.410 . S
C3795 C3803 1.503 . S
C3796 C3795 1.410 . S
C3796 C3797 1.392 . S
C3796 C3799 1.511 . S
C3797 C3793 1.376 . S
C3797 C3796 1.392 . S
C3797 H3809 0.929 . S
C3798 C3794 1.531 . S
C3798 H3810 0.960 . S
C3798 H3811 0.962 . S
C3798 H3812 0.960 . S
C3799 C3796 1.511 . S
C3799 H3813 0.961 . S
C3799 H3814 0.961 . S
C3799 H3815 0.961 . S
C3800 C3801 1.370 . S
C3800 C3802 1.363 . S
C3800 H3816 0.931 . S
C3801 C3800 1.370 . S
C3801 C3805 1.408 . S
C3802 C3800 1.363 . S
C3802 C3803 1.370 . S
C3802 C3806 1.524 . S
C3803 C3795 1.503 . S
C3803 C3802 1.370 . S
C3803 C3804 1.403 . S
C3804 C3803 1.403 . S
C3804 C3805 1.404 . S
C3804 C3807 1.539 . S
C3805 C3801 1.408 . S
C3805 C3804 1.404 . S
C3805 H3817 0.930 . S
C3806 C3802 1.524 . S
C3806 H3818 0.956 . S
C3806 H3819 0.961 . S
C3806 H3820 0.961 . S
C3807 C3804 1.539 . S
C3807 H3821 0.958 . S
C3807 H3822 0.961 . S
C3807 H3823 0.960 . S
H3808 C3792 0.931 . S
H3809 C3797 0.929 . S
H3810 C3798 0.960 . S
H3811 C3798 0.962 . S
H3812 C3798 0.960 . S
H3813 C3799 0.961 . S
H3814 C3799 0.961 . S
H3815 C3799 0.961 . S
H3816 C3800 0.931 . S
H3817 C3805 0.930 . S
H3818 C3806 0.956 . S
H3819 C3806 0.961 . S
H3820 C3806 0.961 . S
H3821 C3807 0.958 . S
H3822 C3807 0.961 . S
H3823 C3807 0.960 . S
C3824 C3825 1.391 . S
C3824 C3826 1.394 . S
C3824 H3840 0.931 1_545 S
C3825 C3824 1.391 . S
C3825 C3829 1.376 . S
C3826 C3824 1.394 . S
C3826 C3827 1.369 . S
C3826 C3830 1.531 . S
C3827 C3826 1.369 . S
C3827 C3828 1.410 . S
C3827 C3835 1.503 . S
C3828 C3827 1.410 . S
C3828 C3829 1.392 . S
C3828 C3831 1.511 . S
C3829 C3825 1.376 . S
C3829 C3828 1.392 . S
C3829 H3841 0.929 . S
C3830 C3826 1.531 . S
C3830 H3842 0.959 1_545 S
C3830 H3843 0.962 . S
C3830 H3844 0.960 1_545 S
C3831 C3828 1.511 . S
C3831 H3845 0.961 . S
C3831 H3846 0.961 . S
C3831 H3847 0.961 . S
C3832 C3833 1.370 . S
C3832 C3834 1.363 . S
C3832 H3848 0.931 . S
C3833 C3832 1.370 . S
C3833 C3837 1.408 . S
C3834 C3832 1.363 . S
C3834 C3835 1.370 . S
C3834 C3838 1.524 . S
C3835 C3827 1.503 . S
C3835 C3834 1.370 . S
C3835 C3836 1.403 . S
C3836 C3835 1.403 . S
C3836 C3837 1.404 . S
C3836 C3839 1.539 1_545 S
C3837 C3833 1.408 . S
C3837 C3836 1.404 . S
C3837 H3849 0.930 . S
C3838 C3834 1.524 . S
C3838 H3850 0.956 . S
C3838 H3851 0.961 . S
C3838 H3852 0.961 . S
C3839 C3836 1.539 1_565 S
C3839 H3853 0.958 . S
C3839 H3854 0.961 . S
C3839 H3855 0.960 . S
H3840 C3824 0.931 1_565 S
H3841 C3829 0.929 . S
H3842 C3830 0.959 1_565 S
H3843 C3830 0.962 . S
H3844 C3830 0.960 1_565 S
H3845 C3831 0.961 . S
H3846 C3831 0.961 . S
H3847 C3831 0.961 . S
H3848 C3832 0.931 . S
H3849 C3837 0.930 . S
H3850 C3838 0.956 . S
H3851 C3838 0.961 . S
H3852 C3838 0.961 . S
H3853 C3839 0.958 . S
H3854 C3839 0.961 . S
H3855 C3839 0.960 . S
C3856 C3857 1.391 . S
C3856 C3858 1.394 . S
C3856 H3872 0.931 . S
C3857 C3856 1.391 . S
C3857 C3861 1.376 . S
C3858 C3856 1.394 . S
C3858 C3859 1.369 . S
C3858 C3862 1.531 . S
C3859 C3858 1.369 . S
C3859 C3860 1.410 . S
C3859 C3867 1.503 . S
C3860 C3859 1.410 . S
C3860 C3861 1.392 . S
C3860 C3863 1.511 . S
C3861 C3857 1.376 . S
C3861 C3860 1.392 . S
C3861 H3873 0.929 . S
C3862 C3858 1.531 . S
C3862 H3874 0.960 . S
C3862 H3875 0.962 . S
C3862 H3876 0.960 . S
C3863 C3860 1.511 . S
C3863 H3877 0.961 . S
C3863 H3878 0.961 . S
C3863 H3879 0.961 . S
C3864 C3865 1.370 . S
C3864 C3866 1.363 . S
C3864 H3880 0.931 . S
C3865 C3864 1.370 . S
C3865 C3869 1.408 . S
C3866 C3864 1.363 . S
C3866 C3867 1.370 . S
C3866 C3870 1.524 . S
C3867 C3859 1.503 . S
C3867 C3866 1.370 . S
C3867 C3868 1.403 . S
C3868 C3867 1.403 . S
C3868 C3869 1.404 . S
C3868 C3871 1.539 . S
C3869 C3865 1.408 . S
C3869 C3868 1.404 . S
C3869 H3881 0.930 . S
C3870 C3866 1.524 . S
C3870 H3882 0.956 . S
C3870 H3883 0.961 . S
C3870 H3884 0.961 . S
C3871 C3868 1.539 . S
C3871 H3885 0.958 . S
C3871 H3886 0.961 . S
C3871 H3887 0.960 . S
H3872 C3856 0.931 . S
H3873 C3861 0.929 . S
H3874 C3862 0.960 . S
H3875 C3862 0.962 . S
H3876 C3862 0.960 . S
H3877 C3863 0.961 . S
H3878 C3863 0.961 . S
H3879 C3863 0.961 . S
H3880 C3864 0.931 . S
H3881 C3869 0.930 . S
H3882 C3870 0.956 . S
H3883 C3870 0.961 . S
H3884 C3870 0.961 . S
H3885 C3871 0.958 . S
H3886 C3871 0.961 . S
H3887 C3871 0.960 . S
C3888 C3889 1.391 . S
C3888 C3890 1.394 . S
C3888 H3904 0.931 . S
C3889 C3888 1.391 . S
C3889 C3893 1.376 . S
C3890 C3888 1.394 . S
C3890 C3891 1.369 . S
C3890 C3894 1.531 . S
C3891 C3890 1.369 . S
C3891 C3892 1.410 . S
C3891 C3899 1.503 . S
C3892 C3891 1.410 . S
C3892 C3893 1.392 . S
C3892 C3895 1.511 . S
C3893 C3889 1.376 . S
C3893 C3892 1.392 . S
C3893 H3905 0.929 . S
C3894 C3890 1.531 . S
C3894 H3906 0.960 . S
C3894 H3907 0.962 . S
C3894 H3908 0.960 . S
C3895 C3892 1.511 . S
C3895 H3909 0.961 1_554 S
C3895 H3910 0.961 . S
C3895 H3911 0.961 . S
C3896 C3897 1.370 . S
C3896 C3898 1.363 . S
C3896 H3912 0.931 . S
C3897 C3896 1.370 . S
C3897 C3901 1.408 . S
C3898 C3896 1.363 . S
C3898 C3899 1.370 . S
C3898 C3902 1.524 . S
C3899 C3891 1.503 . S
C3899 C3898 1.370 . S
C3899 C3900 1.403 . S
C3900 C3899 1.403 . S
C3900 C3901 1.404 . S
C3900 C3903 1.539 . S
C3901 C3897 1.408 . S
C3901 C3900 1.404 . S
C3901 H3913 0.930 . S
C3902 C3898 1.524 . S
C3902 H3914 0.956 . S
C3902 H3915 0.961 . S
C3902 H3916 0.961 . S
C3903 C3900 1.539 . S
C3903 H3917 0.958 . S
C3903 H3918 0.961 . S
C3903 H3919 0.960 . S
H3904 C3888 0.931 . S
H3905 C3893 0.929 . S
H3906 C3894 0.960 . S
H3907 C3894 0.962 . S
H3908 C3894 0.960 . S
H3909 C3895 0.961 1_556 S
H3910 C3895 0.961 . S
H3911 C3895 0.961 . S
H3912 C3896 0.931 . S
H3913 C3901 0.930 . S
H3914 C3902 0.956 . S
H3915 C3902 0.961 . S
H3916 C3902 0.961 . S
H3917 C3903 0.958 . S
H3918 C3903 0.961 . S
H3919 C3903 0.960 . S
C3920 C3921 1.391 . S
C3920 C3922 1.394 . S
C3920 H3936 0.931 . S
C3921 C3920 1.391 . S
C3921 C3925 1.376 . S
C3922 C3920 1.394 . S
C3922 C3923 1.369 . S
C3922 C3926 1.531 . S
C3923 C3922 1.369 . S
C3923 C3924 1.410 . S
C3923 C3931 1.503 . S
C3924 C3923 1.410 . S
C3924 C3925 1.392 . S
C3924 C3927 1.511 . S
C3925 C3921 1.376 . S
C3925 C3924 1.392 . S
C3925 H3937 0.929 . S
C3926 C3922 1.531 . S
C3926 H3938 0.960 . S
C3926 H3939 0.962 . S
C3926 H3940 0.960 . S
C3927 C3924 1.511 . S
C3927 H3941 0.961 . S
C3927 H3942 0.961 . S
C3927 H3943 0.961 . S
C3928 C3929 1.370 . S
C3928 C3930 1.363 . S
C3928 H3944 0.931 . S
C3929 C3928 1.370 . S
C3929 C3933 1.408 . S
C3930 C3928 1.363 . S
C3930 C3931 1.370 . S
C3930 C3934 1.524 . S
C3931 C3923 1.503 . S
C3931 C3930 1.370 . S
C3931 C3932 1.403 . S
C3932 C3931 1.403 . S
C3932 C3933 1.404 . S
C3932 C3935 1.539 . S
C3933 C3929 1.408 . S
C3933 C3932 1.404 . S
C3933 H3945 0.930 . S
C3934 C3930 1.524 . S
C3934 H3946 0.956 . S
C3934 H3947 0.961 . S
C3934 H3948 0.961 . S
C3935 C3932 1.539 . S
C3935 H3949 0.958 . S
C3935 H3950 0.961 . S
C3935 H3951 0.960 . S
H3936 C3920 0.931 . S
H3937 C3925 0.929 . S
H3938 C3926 0.960 . S
H3939 C3926 0.962 . S
H3940 C3926 0.960 . S
H3941 C3927 0.961 . S
H3942 C3927 0.961 . S
H3943 C3927 0.961 . S
H3944 C3928 0.931 . S
H3945 C3933 0.930 . S
H3946 C3934 0.956 . S
H3947 C3934 0.961 . S
H3948 C3934 0.961 . S
H3949 C3935 0.958 . S
H3950 C3935 0.961 . S
H3951 C3935 0.960 . S
C3952 C3953 1.391 . S
C3952 C3954 1.394 . S
C3952 H3968 0.931 . S
C3953 C3952 1.391 . S
C3953 C3957 1.376 . S
C3954 C3952 1.394 . S
C3954 C3955 1.369 . S
C3954 C3958 1.531 . S
C3955 C3954 1.369 . S
C3955 C3956 1.410 . S
C3955 C3963 1.503 . S
C3956 C3955 1.410 . S
C3956 C3957 1.392 . S
C3956 C3959 1.511 . S
C3957 C3953 1.376 . S
C3957 C3956 1.392 . S
C3957 H3969 0.929 . S
C3958 C3954 1.531 . S
C3958 H3970 0.960 . S
C3958 H3971 0.962 . S
C3958 H3972 0.960 . S
C3959 C3956 1.511 . S
C3959 H3973 0.961 . S
C3959 H3974 0.961 . S
C3959 H3975 0.961 . S
C3960 C3961 1.370 . S
C3960 C3962 1.363 . S
C3960 H3976 0.931 . S
C3961 C3960 1.370 . S
C3961 C3965 1.408 . S
C3962 C3960 1.363 . S
C3962 C3963 1.370 . S
C3962 C3966 1.524 . S
C3963 C3955 1.503 . S
C3963 C3962 1.370 . S
C3963 C3964 1.403 . S
C3964 C3963 1.403 . S
C3964 C3965 1.404 . S
C3964 C3967 1.539 . S
C3965 C3961 1.408 . S
C3965 C3964 1.404 . S
C3965 H3977 0.930 . S
C3966 C3962 1.524 . S
C3966 H3978 0.956 . S
C3966 H3979 0.961 . S
C3966 H3980 0.961 . S
C3967 C3964 1.539 . S
C3967 H3981 0.958 . S
C3967 H3982 0.961 . S
C3967 H3983 0.960 . S
H3968 C3952 0.931 . S
H3969 C3957 0.929 . S
H3970 C3958 0.960 . S
H3971 C3958 0.962 . S
H3972 C3958 0.960 . S
H3973 C3959 0.961 . S
H3974 C3959 0.961 . S
H3975 C3959 0.961 . S
H3976 C3960 0.931 . S
H3977 C3965 0.930 . S
H3978 C3966 0.956 . S
H3979 C3966 0.961 . S
H3980 C3966 0.961 . S
H3981 C3967 0.958 . S
H3982 C3967 0.961 . S
H3983 C3967 0.960 . S
C3984 C3985 1.368 1_565 S
C3984 C3986 1.394 . S
C3984 H4000 0.931 . S
C3985 C3984 1.368 1_545 S
C3985 C3989 1.375 1_545 S
C3986 C3984 1.394 . S
C3986 C3987 1.369 . S
C3986 C3990 1.531 . S
C3987 C3986 1.369 . S
C3987 C3988 1.410 . S
C3987 C3995 1.503 . S
C3988 C3987 1.410 . S
C3988 C3989 1.392 . S
C3988 C3991 1.511 . S
C3989 C3985 1.375 1_565 S
C3989 C3988 1.392 . S
C3989 H4001 0.929 1_565 S
C3990 C3986 1.531 . S
C3990 H4002 0.960 . S
C3990 H4003 0.962 . S
C3990 H4004 0.960 . S
C3991 C3988 1.511 . S
C3991 H4005 0.961 . S
C3991 H4006 0.961 . S
C3991 H4007 0.961 . S
C3992 C3993 1.370 . S
C3992 C3994 1.363 . S
C3992 H4008 0.931 . S
C3993 C3992 1.370 . S
C3993 C3997 1.408 . S
C3994 C3992 1.363 . S
C3994 C3995 1.370 . S
C3994 C3998 1.524 . S
C3995 C3987 1.503 . S
C3995 C3994 1.370 . S
C3995 C3996 1.403 . S
C3996 C3995 1.403 . S
C3996 C3997 1.404 . S
C3996 C3999 1.539 . S
C3997 C3993 1.408 . S
C3997 C3996 1.404 . S
C3997 H4009 0.930 . S
C3998 C3994 1.524 . S
C3998 H4010 0.956 . S
C3998 H4011 0.961 . S
C3998 H4012 0.961 . S
C3999 C3996 1.539 . S
C3999 H4013 0.958 . S
C3999 H4014 0.961 . S
C3999 H4015 0.960 . S
H4000 C3984 0.931 . S
H4001 C3989 0.929 1_545 S
H4002 C3990 0.960 . S
H4003 C3990 0.962 . S
H4004 C3990 0.960 . S
H4005 C3991 0.961 . S
H4006 C3991 0.961 . S
H4007 C3991 0.961 . S
H4008 C3992 0.931 . S
H4009 C3997 0.930 . S
H4010 C3998 0.956 . S
H4011 C3998 0.961 . S
H4012 C3998 0.961 . S
H4013 C3999 0.958 . S
H4014 C3999 0.961 . S
H4015 C3999 0.960 . S
C4016 C4017 1.391 . S
C4016 C4018 1.394 . S
C4016 H4032 0.931 . S
C4017 C4016 1.391 . S
C4017 C4021 1.376 . S
C4018 C4016 1.394 . S
C4018 C4019 1.369 . S
C4018 C4022 1.531 . S
C4019 C4018 1.369 . S
C4019 C4020 1.410 . S
C4019 C4027 1.503 . S
C4020 C4019 1.410 . S
C4020 C4021 1.392 . S
C4020 C4023 1.511 . S
C4021 C4017 1.376 . S
C4021 C4020 1.392 . S
C4021 H4033 0.929 . S
C4022 C4018 1.531 . S
C4022 H4034 0.960 . S
C4022 H4035 0.962 . S
C4022 H4036 0.960 . S
C4023 C4020 1.511 . S
C4023 H4037 0.961 . S
C4023 H4038 0.961 . S
C4023 H4039 0.961 . S
C4024 C4025 1.370 . S
C4024 C4026 1.363 . S
C4024 H4040 0.931 . S
C4025 C4024 1.370 . S
C4025 C4029 1.408 . S
C4026 C4024 1.363 . S
C4026 C4027 1.370 . S
C4026 C4030 1.524 . S
C4027 C4019 1.503 . S
C4027 C4026 1.370 . S
C4027 C4028 1.403 . S
C4028 C4027 1.403 . S
C4028 C4029 1.404 . S
C4028 C4031 1.539 . S
C4029 C4025 1.408 . S
C4029 C4028 1.404 . S
C4029 H4041 0.930 . S
C4030 C4026 1.524 . S
C4030 H4042 0.956 . S
C4030 H4043 0.961 . S
C4030 H4044 0.961 . S
C4031 C4028 1.539 . S
C4031 H4045 0.958 . S
C4031 H4046 0.961 . S
C4031 H4047 0.960 . S
H4032 C4016 0.931 . S
H4033 C4021 0.929 . S
H4034 C4022 0.960 . S
H4035 C4022 0.962 . S
H4036 C4022 0.960 . S
H4037 C4023 0.961 . S
H4038 C4023 0.961 . S
H4039 C4023 0.961 . S
H4040 C4024 0.931 . S
H4041 C4029 0.930 . S
H4042 C4030 0.956 . S
H4043 C4030 0.961 . S
H4044 C4030 0.961 . S
H4045 C4031 0.958 . S
H4046 C4031 0.961 . S
H4047 C4031 0.960 . S
C977 C105 1.324 . S
C985 C342 1.327 . S
C1009 C65 2.004 . S
C1017 C394 1.896 . S
C1041 C73 1.387 . S
C1049 C426 1.372 1_565 S
C1081 C475 2.529 . S
C1073 C92 2.526 . S
C1105 C17 1.101 . S
C1113 C511 1.037 . S
C1145 C542 0.511 . S
C1137 C37 0.338 . S
C1177 C594 0.444 . S
C1169 C49 0.553 . S
C1201 C8 1.644 . S
C1209 C622 1.582 . S
C1241 C354 1.945 . S
C1233 C231 2.038 . S
C1265 C241 1.678 . S
C1273 C395 1.683 . S
C1305 C425 1.824 . S
C1297 C273 1.820 1_545 S
C1337 C462 0.624 . S
C1329 C171 0.518 . S
C1361 C227 1.848 . S
C1369 C506 1.858 1_655 S
C1401 C554 1.943 . S
C1393 C245 1.904 . S
C1433 C595 1.662 1_556 S
C1425 C269 1.628 . S
C1465 C634 1.665 . S
C1457 C175 1.784 . S
C1497 C355 2.305 . S
C1489 C162 2.284 . S
C1521 C289 1.708 . S
C1529 C665 1.641 . S
C1561 C715 2.438 . S
C1553 C330 2.434 . S
C1593 C742 1.028 . S
C1585 C317 1.016 . S
C1617 C120 2.507 . S
C1625 C635 2.540 . S
C1649 C134 1.326 . S
C1657 C431 1.282 . S
C1681 C331 2.476 . S
C1689 C794 2.376 . S
C1721 C822 1.192 . S
C1713 C303 1.218 . S
C1753 C351 1.286 . S
C1745 C59 1.371 . S
C1785 C825 1.952 . S
C1777 C107 2.048 . S
C1809 C91 1.339 . S
C1817 C435 1.428 . S
C1841 C78 2.594 . S
C1849 C786 2.592 . S
C1881 C502 1.093 . S
C1873 C7 1.037 . S
C1905 C51 0.459 . S
C1913 C711 0.576 . S
C1945 C585 0.388 . S
C1937 C31 0.309 . S
C1977 C871 1.476 . S
C1969 C22 1.504 . S
C2009 C345 1.974 1_556 S
C2001 C143 2.126 . S
C2041 C826 1.754 . S
C2033 C315 1.605 . S
C2065 C115 2.030 . S
C2073 C434 1.879 . S
C2097 C287 0.660 . S
C2105 C791 0.593 . S
C2129 C147 1.796 . S
C2137 C515 1.906 . S
C2169 C705 1.950 . S
C2161 C311 1.981 . S
C2193 C119 1.648 . S
C2201 C586 1.728 . S
C2225 C283 1.808 . S
C2233 C865 1.697 . S
C2257 C190 2.281 . S
C2265 C346 2.360 . S
C2289 C177 1.731 . S
C2297 C674 1.721 . S
C2321 C260 2.461 . S
C2329 C546 2.488 . S
C2353 C247 1.063 . S
C2361 C751 1.055 . S
C2393 C866 2.507 . S
C2385 C274 2.484 . S
C2417 C218 1.314 1_545 S
C2425 C422 1.312 . S
C2457 C465 2.429 . S
C2449 C261 2.512 . S
C2489 C391 1.184 . S
C2481 C205 1.260 . S
C2513 C77 1.276 . S
C2521 C902 1.330 . S
C2553 C834 1.904 . S
C2545 C93 2.017 . S
C2577 C101 1.413 . S
C2585 C946 1.412 . S
C2609 C64 2.536 . S
C2617 C795 2.534 . S
C2641 C45 1.095 . S
C2649 C671 1.045 . S
C2681 C702 0.564 . S
C2673 C9 0.451 . S
C2713 C754 0.384 . S
C2705 C21 0.538 . S
C2745 C862 1.439 . S
C2737 C36 1.568 . S
C2777 C914 1.937 . S
C2769 C259 2.043 . S
C2801 C185 1.697 1_556 S
C2809 C835 1.697 . S
C2841 C945 1.815 . S
C2833 C203 1.832 . S
C2873 C782 0.620 . S
C2865 C213 0.491 . S
C2905 C666 1.877 1_556 S
C2897 C255 1.872 . S
C2929 C189 1.876 . S
C2937 C714 1.948 . S
C2969 C755 1.658 . S
C2961 C199 1.663 . S
C2993 C217 1.766 . S
C3001 C874 1.704 . S
C3033 C915 2.305 . S
C3025 C316 2.273 . S
C3057 C135 1.697 . S
C3065 C505 1.670 . S
C3097 C555 2.433 . S
C3089 C148 2.445 . S
C3129 C582 1.048 . S
C3121 C163 1.065 . S
C3161 C875 2.517 . S
C3153 C302 2.529 . S
C3185 C288 1.344 . S
C3193 C951 1.203 . S
C3225 C474 2.398 . S
C3217 C149 2.483 . S
C3257 C382 1.174 . S
C3249 C121 1.247 . S
C3281 C87 1.380 . S
C3289 C911 1.293 . S
C3321 C385 1.943 . S
C3313 C79 2.059 . S
C3345 C63 1.407 . S
C3353 C955 1.446 . S
C3377 C106 2.603 . S
C3385 C466 2.593 . S
C3409 C35 1.088 . S
C3417 C662 1.078 . S
C3449 C551 0.544 . S
C3441 C23 0.521 . S
C3473 C3 0.302 . S
C3481 C745 0.359 . S
C3505 C50 1.490 . S
C3513 C631 1.416 . S
C3545 C905 1.968 . S
C3537 C325 2.126 . S
C3569 C161 1.617 . S
C3577 C386 1.754 . S
C3609 C954 1.901 1_556 S
C3601 C297 2.008 . S
C3633 C133 0.557 . S
C3641 C471 0.616 . S
C3665 C329 1.861 . S
C3673 C675 1.927 . S
C3705 C545 1.970 . S
C3697 C157 1.998 . S
C3729 C301 1.639 . S
C3737 C746 1.715 . S
C3769 C625 1.658 . S
C3761 C129 1.789 . S
C3801 C906 2.323 . S
C3793 C246 2.305 . S
C3833 C514 1.727 . S
C3825 C219 1.704 1_545 S
C3857 C232 2.462 . S
C3865 C706 2.483 . S
C3897 C591 1.063 . S
C3889 C191 1.072 . S
C3921 C204 2.491 . S
C3929 C626 2.499 . S
C3953 C176 1.303 . S
C3961 C942 1.297 . S
C3993 C785 2.412 . S
C3985 C233 2.516 . S
C4025 C831 1.190 . S
C4017 C275 1.274 . S
