# Generated by pormake.
# Topology pth, (4,4)-cn, num edge types: 1
# Building blocks:
#     Node 0, Type 0, BuildingBlock: QUQFOY_clean_sbu_3, # of connection points: 4
#     Node 1, Type 0, BuildingBlock: QUQFOY_clean_sbu_3, # of connection points: 4
#     Node 2, Type 0, BuildingBlock: QUQFOY_clean_sbu_3, # of connection points: 4
#     Node 3, Type 1, BuildingBlock: KOZSID_clean_sbu_0, # of connection points: 4
#     Node 4, Type 1, BuildingBlock: KOZSID_clean_sbu_0, # of connection points: 4
#     Node 5, Type 1, BuildingBlock: KOZSID_clean_sbu_0, # of connection points: 4
#     Edge 6, Type (0, 1), BuildingBlock: FUNLAD_clean_linker_1, # of connection points: 2
#     Edge 7, Type (0, 1), BuildingBlock: FUNLAD_clean_linker_1, # of connection points: 2
#     Edge 8, Type (0, 1), BuildingBlock: FUNLAD_clean_linker_1, # of connection points: 2
#     Edge 9, Type (0, 1), BuildingBlock: FUNLAD_clean_linker_1, # of connection points: 2
#     Edge 10, Type (0, 1), BuildingBlock: FUNLAD_clean_linker_1, # of connection points: 2
#     Edge 11, Type (0, 1), BuildingBlock: FUNLAD_clean_linker_1, # of connection points: 2
#     Edge 12, Type (0, 1), BuildingBlock: FUNLAD_clean_linker_1, # of connection points: 2
#     Edge 13, Type (0, 1), BuildingBlock: FUNLAD_clean_linker_1, # of connection points: 2
#     Edge 14, Type (0, 1), BuildingBlock: FUNLAD_clean_linker_1, # of connection points: 2
#     Edge 15, Type (0, 1), BuildingBlock: FUNLAD_clean_linker_1, # of connection points: 2
#     Edge 16, Type (0, 1), BuildingBlock: FUNLAD_clean_linker_1, # of connection points: 2
#     Edge 17, Type (0, 1), BuildingBlock: FUNLAD_clean_linker_1, # of connection points: 2
# Relax obj value: 0.008
# Max RMSD: 0.066
# Mean RMSD: 0.043
data_MOF--net-pth--node1-QUQFOY_clean_sbu_3--node2-KOZSID_clean_sbu_0--edge1-FUNLAD_clean_linker_1
_symmetry_space_group_name_H-M    P1
_symmetry_Int_Tables_number       1
_symmetry_cell_setting            triclinic
loop_
_symmetry_equiv_pos_as_xyz
'x, y, z'
_cell_length_a     27.731626
_cell_length_b     27.521429
_cell_length_c     64.496979
_cell_angle_alpha  87.397662
_cell_angle_beta   88.199685
_cell_angle_gamma 120.72311
loop_
_atom_site_label
_atom_site_type_symbol
_atom_site_fract_x
_atom_site_fract_y
_atom_site_fract_z
_atom_type_partial_charge
C0 C 0.01919 0.13374 0.06351 0.0
O1 O 0.9953 0.13286 0.04694 0.0
Cd2 Cd 0.99683 0.081 0.01816 0.0
O3 O 0.0421 0.10407 0.06595 0.0
Cd4 Cd 0.05652 0.03583 0.04677 0.0
C5 C 0.13954 0.14161 0.01034 0.0
O6 O 0.96751 0.98478 0.02964 0.0
O7 O 0.03552 0.97389 0.0184 0.0
O8 O 0.02899 0.97276 0.07836 0.0
C9 C 0.98422 0.9593 0.01813 0.0
O10 O 0.09403 0.13549 0.00379 0.0
C11 C 0.07425 0.97181 0.07864 0.0
O12 O 0.13898 0.11255 0.02638 0.0
O13 O 0.11208 0.00164 0.06436 0.0
C14 C 0.16739 0.1018 0.39108 0.0
O15 O 0.18612 0.12454 0.37285 0.0
Cd16 Cd 0.12823 0.12766 0.34688 0.0
O17 O 0.11563 0.08089 0.39676 0.0
Cd18 Cd 0.03063 0.07148 0.38018 0.0
C19 C 0.03756 0.98472 0.34615 0.0
O20 O 0.07309 0.16485 0.3609 0.0
O21 O 0.99132 0.1007 0.35212 0.0
O22 O 0.00646 0.09739 0.41297 0.0
C23 C 0.02968 0.15242 0.35114 0.0
O24 O 0.07703 0.03028 0.33681 0.0
C25 C 0.95452 0.06036 0.41367 0.0
O26 O 0.01354 0.98595 0.36311 0.0
O27 O 0.93804 0.02568 0.3995 0.0
C28 C 0.99509 0.107 0.68291 0.0
O29 O 0.99801 0.13779 0.69745 0.0
Cd30 Cd 0.04529 0.14127 0.72847 0.0
O31 O 0.02029 0.07925 0.68373 0.0
Cd32 Cd 0.08154 0.06417 0.70711 0.0
C33 C 0.97308 0.99915 0.74352 0.0
O34 O 0.13834 0.1585 0.72049 0.0
O35 O 0.1397 0.08859 0.73669 0.0
O36 O 0.14408 0.07975 0.67697 0.0
C37 C 0.15913 0.14145 0.73429 0.0
O38 O 0.98383 0.04889 0.74671 0.0
C39 C 0.14222 0.03282 0.67953 0.0
O40 O 1.00023 0.99074 0.7292 0.0
O41 O 0.11093 0.99924 0.69474 0.0
C42 C 0.10557 0.67043 0.18784 0.0
C43 C 0.15706 0.71628 0.18003 0.0
C44 C 0.19642 0.70095 0.18249 0.0
C45 C 0.16772 0.64776 0.19235 0.0
N46 N 0.11284 0.62894 0.19651 0.0
Co47 Co 0.05862 0.55804 0.21332 0.0
N48 N 0.11979 0.55042 0.22519 0.0
C49 C 0.17301 0.57577 0.21696 0.0
C50 C 0.20562 0.56001 0.22739 0.0
C51 C 0.17075 0.522 0.24313 0.0
C52 C 0.11827 0.51687 0.24158 0.0
N53 N 0.00413 0.4867 0.22978 0.0
C54 C 0.01231 0.45727 0.24537 0.0
C55 C 0.96484 0.40316 0.2488 0.0
C56 C 0.92548 0.40026 0.23584 0.0
C57 C 0.95111 0.45152 0.22465 0.0
N58 N 0.99761 0.56557 0.20144 0.0
C59 C 0.94432 0.52301 0.20022 0.0
C60 C 0.91123 0.54004 0.19082 0.0
C61 C 0.94608 0.59685 0.18567 0.0
C62 C 0.99887 0.6116 0.19234 0.0
N63 N 0.05755 0.51358 0.19027 0.0
C64 C 0.04809 0.44503 0.15794 0.0
C65 C 0.04719 0.49505 0.15406 0.0
C66 C 0.0523 0.52887 0.17038 0.0
C67 C 0.0546 0.43056 0.17836 0.0
C68 C 0.05962 0.46544 0.19416 0.0
N69 N 0.05917 0.60226 0.23623 0.0
C70 C 0.00782 0.62664 0.26017 0.0
C71 C 0.05786 0.6751 0.26492 0.0
C72 C 0.1087 0.68391 0.25602 0.0
C73 C 0.1085 0.64707 0.24175 0.0
C74 C 0.00946 0.59091 0.24581 0.0
H75 H 0.14814 0.65591 0.23465 0.0
H76 H 0.97025 0.55499 0.24194 0.0
H77 H 0.05096 0.56687 0.16695 0.0
H78 H 0.06379 0.45243 0.20965 0.0
C79 C 0.19272 0.61994 0.20154 0.0
C80 C 0.05046 0.66662 0.18661 0.0
C81 C 0.06701 0.47655 0.25465 0.0
C82 C 0.9256 0.46999 0.2105 0.0
H83 H 0.16638 0.75738 0.17369 0.0
H84 H 0.24125 0.72709 0.17881 0.0
H85 H 0.24984 0.57525 0.22424 0.0
H86 H 0.18321 0.50007 0.25401 0.0
H87 H 0.95929 0.36758 0.25856 0.0
H88 H 0.88348 0.36462 0.23455 0.0
H89 H 0.8669 0.51452 0.18831 0.0
H90 H 0.93423 0.62366 0.17724 0.0
H91 H 0.04202 0.50772 0.13853 0.0
H92 H 0.05412 0.3918 0.18249 0.0
H93 H 0.96746 0.6163 0.26717 0.0
H94 H 0.14841 0.72023 0.25951 0.0
C95 C 0.43933 0.99249 0.57067 0.0
C96 C 0.3949 0.93878 0.57743 0.0
C97 C 0.40845 0.90054 0.57078 0.0
C98 C 0.45915 0.9323 0.55973 0.0
N99 N 0.47829 0.98826 0.55887 0.0
Co100 Co 0.54605 0.04811 0.54203 0.0
N101 N 0.5494 0.99171 0.52473 0.0
C102 C 0.52255 0.93542 0.52959 0.0
C103 C 0.53241 0.90635 0.51504 0.0
C104 C 0.56843 0.94679 0.50017 0.0
C105 C 0.57876 0.99896 0.50645 0.0
N106 N 0.61416 0.1082 0.52547 0.0
C107 C 0.63904 0.10629 0.50731 0.0
C108 C 0.68312 0.16003 0.50049 0.0
C109 C 0.68884 0.19538 0.51566 0.0
C110 C 0.64691 0.16209 0.53055 0.0
N111 N 0.54238 0.10419 0.55926 0.0
C112 C 0.58471 0.15728 0.5615 0.0
C113 C 0.56989 0.18625 0.57448 0.0
C114 C 0.51475 0.14909 0.58077 0.0
C115 C 0.49869 0.09937 0.57105 0.0
N116 N 0.59439 0.04057 0.56176 0.0
C117 C 0.67061 0.04401 0.58998 0.0
C118 C 0.62046 0.04026 0.59697 0.0
C119 C 0.58299 0.03861 0.58266 0.0
C120 C 0.68016 0.0425 0.56859 0.0
C121 C 0.6416 0.04081 0.5548 0.0
N122 N 0.49777 0.05634 0.52246 0.0
C123 C 0.46935 0.11611 0.50516 0.0
C124 C 0.42254 0.06887 0.49808 0.0
C125 C 0.41476 0.01506 0.50299 0.0
C126 C 0.45277 0.00974 0.51528 0.0
C127 C 0.50683 0.10908 0.51701 0.0
H128 H 0.44486 0.96783 0.51944 0.0
H129 H 0.54232 0.1464 0.52225 0.0
H130 H 0.54553 0.03745 0.58852 0.0
H131 H 0.65085 0.04108 0.53845 0.0
C132 C 0.48257 0.91061 0.54629 0.0
C133 C 0.44393 0.04683 0.57531 0.0
C134 C 0.62425 0.05407 0.49688 0.0
C135 C 0.63266 0.18174 0.54794 0.0
H136 H 0.35542 0.92715 0.58551 0.0
H137 H 0.38222 0.85481 0.57239 0.0
H138 H 0.51487 0.86104 0.51506 0.0
H139 H 0.58649 0.93835 0.48671 0.0
H140 H 0.70895 0.17268 0.48613 0.0
H141 H 0.71876 0.2404 0.51549 0.0
H142 H 0.59526 0.22997 0.57819 0.0
H143 H 0.48951 0.15756 0.59147 0.0
H144 H 0.61097 0.04032 0.61339 0.0
H145 H 0.71704 0.04292 0.56237 0.0
H146 H 0.47684 0.15838 0.50162 0.0
H147 H 0.37859 0.97723 0.4981 0.0
C148 C 0.6831 0.60902 0.85012 0.0
C149 C 0.72455 0.59592 0.84559 0.0
C150 C 0.70781 0.54484 0.85568 0.0
C151 C 0.65734 0.52919 0.86568 0.0
N152 N 0.64073 0.56732 0.8629 0.0
Co153 Co 0.56836 0.55884 0.87445 0.0
N154 N 0.54457 0.4836 0.88945 0.0
C155 C 0.57415 0.45689 0.8896 0.0
C156 C 0.5461 0.40387 0.89943 0.0
C157 C 0.49573 0.39626 0.9063 0.0
C158 C 0.49641 0.44626 0.90092 0.0
N159 N 0.49475 0.5491 0.885 0.0
C160 C 0.45002 0.50493 0.89607 0.0
C161 C 0.40638 0.51573 0.89898 0.0
C162 C 0.42393 0.56767 0.88942 0.0
C163 C 0.47695 0.58601 0.88123 0.0
N164 N 0.59333 0.63522 0.86031 0.0
C165 C 0.56738 0.66513 0.86255 0.0
C166 C 0.59828 0.71997 0.85442 0.0
C167 C 0.64676 0.72539 0.84624 0.0
C168 C 0.6417 0.67242 0.84899 0.0
N169 N 0.53113 0.52112 0.84933 0.0
C170 C 0.46523 0.46009 0.81699 0.0
C171 C 0.47031 0.51134 0.82178 0.0
C172 C 0.50322 0.54099 0.83785 0.0
C173 C 0.49701 0.44191 0.82769 0.0
C174 C 0.52966 0.47305 0.84362 0.0
N175 N 0.60544 0.59707 0.89968 0.0
C176 C 0.62081 0.66428 0.92532 0.0
C177 C 0.66748 0.66294 0.93195 0.0
C178 C 0.68013 0.62482 0.92322 0.0
C179 C 0.64847 0.59221 0.90736 0.0
C180 C 0.59057 0.63127 0.90937 0.0
H181 H 0.65997 0.56375 0.90145 0.0
H182 H 0.55585 0.63495 0.90505 0.0
H183 H 0.50443 0.57929 0.84103 0.0
H184 H 0.5527 0.45701 0.85129 0.0
C185 C 0.6254 0.47966 0.8783 0.0
C186 C 0.68395 0.65945 0.84095 0.0
C187 C 0.44919 0.45507 0.90586 0.0
C188 C 0.51292 0.63973 0.87156 0.0
H189 H 0.76291 0.61967 0.83583 0.0
H190 H 0.72974 0.52169 0.85564 0.0
H191 H 0.55954 0.37324 0.90056 0.0
H192 H 0.46198 0.35691 0.91365 0.0
H193 H 0.36641 0.49016 0.90768 0.0
H194 H 0.40134 0.59015 0.88905 0.0
H195 H 0.5871 0.75233 0.85457 0.0
H196 H 0.68191 0.76456 0.83932 0.0
H197 H 0.4475 0.52775 0.81358 0.0
H198 H 0.49685 0.4039 0.82397 0.0
H199 H 0.60845 0.69199 0.93204 0.0
H200 H 0.71411 0.61982 0.9285 0.0
H201 H 0.0446 0.17101 0.09368 0.0
C202 C 0.02423 0.17206 0.07967 0.0
H203 H 0.98755 0.21216 0.06327 0.0
H204 H 0.94376 0.30468 0.14649 0.0
H205 H 0.84889 0.23044 0.14074 0.0
H206 H 0.83078 0.16564 0.11292 0.0
H207 H 0.90763 0.17456 0.09073 0.0
C208 C 0.00855 0.21065 0.07701 0.0
C209 C 0.01939 0.25231 0.0928 0.0
C210 C 0.97395 0.24749 0.10526 0.0
C211 C 0.98437 0.2854 0.12111 0.0
C212 C 0.93831 0.27801 0.13391 0.0
C213 C 0.88358 0.23532 0.13085 0.0
C214 C 0.87338 0.1988 0.1152 0.0
C215 C 0.91787 0.20445 0.10256 0.0
H216 H 0.02093 0.41378 0.12684 0.0
C217 C 0.0391 0.40764 0.1407 0.0
H218 H 0.07382 0.36154 0.15423 0.0
H219 H 0.11549 0.27774 0.06993 0.0
H220 H 0.21032 0.35269 0.07538 0.0
H221 H 0.22854 0.41745 0.10323 0.0
H222 H 0.15187 0.40784 0.12571 0.0
C223 C 0.05193 0.36659 0.14144 0.0
C224 C 0.04024 0.32871 0.12419 0.0
C225 C 0.08555 0.33435 0.1114 0.0
C226 C 0.07511 0.29648 0.09555 0.0
C227 C 0.12106 0.3043 0.08257 0.0
C228 C 0.17574 0.34743 0.08544 0.0
C229 C 0.18598 0.38392 0.1011 0.0
C230 C 0.1416 0.3778 0.11393 0.0
H231 H 0.93296 0.0922 0.44106 0.0
C232 C 0.91522 0.06209 0.42916 0.0
H233 H 0.84056 0.00367 0.4156 0.0
H234 H 0.69512 0.98471 0.49845 0.0
H235 H 0.69561 0.89721 0.50374 0.0
H236 H 0.75357 0.87607 0.4803 0.0
H237 H 0.8117 0.94265 0.45146 0.0
C238 C 0.85932 0.03358 0.42748 0.0
C239 C 0.82197 0.04494 0.44092 0.0
C240 C 0.78736 0.00515 0.4574 0.0
C241 C 0.75325 0.01698 0.47071 0.0
C242 C 0.72076 0.97738 0.48754 0.0
C243 C 0.7209 0.92708 0.49084 0.0
C244 C 0.75358 0.91521 0.47765 0.0
C245 C 0.78669 0.95373 0.46115 0.0
H246 H 0.64134 0.02172 0.46942 0.0
C247 C 0.65975 0.0534 0.48072 0.0
H248 H 0.73957 0.10774 0.49399 0.0
H249 H 0.87945 0.12815 0.40958 0.0
H250 H 0.87806 0.21513 0.40403 0.0
H251 H 0.81942 0.23584 0.42727 0.0
H252 H 0.76162 0.16944 0.45615 0.0
C253 C 0.71845 0.08128 0.48143 0.0
C254 C 0.75286 0.06807 0.46719 0.0
C255 C 0.78677 0.10743 0.45051 0.0
C256 C 0.82109 0.09574 0.43726 0.0
C257 C 0.85352 0.13532 0.42041 0.0
C258 C 0.85289 0.18532 0.41696 0.0
C259 C 0.81984 0.19696 0.43004 0.0
C260 C 0.78696 0.15856 0.44659 0.0
H261 H 0.90441 0.96176 0.76788 0.0
C262 C 0.92775 0.95163 0.75677 0.0
H263 H 0.93624 0.88599 0.74477 0.0
H264 H 0.78785 0.79796 0.83762 0.0
H265 H 0.87378 0.86776 0.85194 0.0
H266 H 0.95934 0.92867 0.82919 0.0
H267 H 0.95858 0.92113 0.79188 0.0
C268 C 0.91459 0.89751 0.75608 0.0
C269 C 0.86776 0.85204 0.77007 0.0
C270 C 0.87012 0.85397 0.79199 0.0
C271 C 0.82205 0.81596 0.80522 0.0
C272 C 0.82399 0.82299 0.82688 0.0
C273 C 0.87301 0.86342 0.83533 0.0
C274 C 0.92106 0.89791 0.82253 0.0
C275 C 0.91988 0.89346 0.80111 0.0
H276 H 0.76582 0.69517 0.8245 0.0
C277 C 0.72698 0.69551 0.82551 0.0
H278 H 0.68285 0.72725 0.80759 0.0
H279 H 0.85018 0.83458 0.72884 0.0
H280 H 0.76668 0.75983 0.71457 0.0
H281 H 0.68584 0.68933 0.73762 0.0
H282 H 0.68767 0.69357 0.77507 0.0
C283 C 0.72319 0.73159 0.81045 0.0
C284 C 0.77314 0.7728 0.79661 0.0
C285 C 0.77189 0.76895 0.77476 0.0
C286 C 0.81905 0.80889 0.76147 0.0
C287 C 0.81593 0.80499 0.73968 0.0
C288 C 0.76822 0.76228 0.73127 0.0
C289 C 0.72268 0.72263 0.74424 0.0
C290 C 0.72424 0.72568 0.76573 0.0
H291 H 0.12231 0.93806 0.09396 0.0
C292 C 0.08204 0.93592 0.09424 0.0
H293 H 0.99879 0.89412 0.10761 0.0
H294 H 0.00609 0.6721 0.13255 0.0
H295 H 0.94981 0.64246 0.10249 0.0
H296 H 0.93702 0.7107 0.08078 0.0
H297 H 0.98033 0.80897 0.08898 0.0
C298 C 0.04002 0.89855 0.10777 0.0
C299 C 0.04634 0.85735 0.12142 0.0
C300 C 0.02045 0.80002 0.11645 0.0
C301 C 0.02821 0.76079 0.12884 0.0
C302 C 0.00206 0.70381 0.12351 0.0
C303 C 0.96952 0.68619 0.10634 0.0
C304 C 0.96227 0.7246 0.09413 0.0
C305 C 0.98734 0.78089 0.09903 0.0
H306 H 0.00948 0.71466 0.1816 0.0
C307 C 0.04472 0.71013 0.17665 0.0
H308 H 0.09993 0.72624 0.14951 0.0
H309 H 0.09698 0.96263 0.13641 0.0
H310 H 0.15231 0.99189 0.16674 0.0
H311 H 0.16703 0.92413 0.18792 0.0
H312 H 0.12626 0.82662 0.17897 0.0
C313 C 0.07408 0.73914 0.1578 0.0
C314 C 0.0616 0.7789 0.14622 0.0
C315 C 0.08588 0.83569 0.15164 0.0
C316 C 0.0781 0.87498 0.13925 0.0
C317 C 0.10235 0.93133 0.1451 0.0
C318 C 0.13404 0.94861 0.1625 0.0
C319 C 0.14227 0.91044 0.17444 0.0
C320 C 0.11863 0.85459 0.16914 0.0
H321 H 0.24688 0.10714 0.39808 0.0
C322 C 0.20638 0.0974 0.40501 0.0
H323 H 0.15366 0.07103 0.43251 0.0
H324 H 0.26425 0.94931 0.47895 0.0
H325 H 0.16748 0.87359 0.47767 0.0
H326 H 0.10047 0.88807 0.458 0.0
H327 H 0.12952 0.9786 0.43979 0.0
C328 C 0.1943 0.08176 0.42545 0.0
C329 C 0.23427 0.07427 0.43835 0.0
C330 C 0.21682 0.0206 0.44862 0.0
C331 C 0.25592 0.01173 0.4595 0.0
C332 C 0.2368 0.95816 0.47009 0.0
C333 C 0.18126 0.91427 0.46953 0.0
C334 C 0.14351 0.92246 0.45849 0.0
C335 C 0.16081 0.97481 0.44812 0.0
H336 H 0.37625 0.11232 0.49045 0.0
C337 C 0.38148 0.07713 0.48661 0.0
H338 H 0.35869 0.01095 0.4667 0.0
H339 H 0.27885 0.1859 0.42495 0.0
H340 H 0.37696 0.26007 0.42414 0.0
H341 H 0.4478 0.24047 0.4379 0.0
H342 H 0.42057 0.14743 0.4533 0.0
C343 C 0.35347 0.0458 0.47097 0.0
C344 C 0.31288 0.05599 0.45964 0.0
C345 C 0.33048 0.10949 0.44912 0.0
C346 C 0.29054 0.11943 0.43948 0.0
C347 C 0.30812 0.17493 0.43115 0.0
C348 C 0.36423 0.21808 0.43077 0.0
C349 C 0.40402 0.20714 0.43864 0.0
C350 C 0.38764 0.15359 0.44767 0.0
H351 H 0.2176 0.16162 0.75917 0.0
C352 C 0.20271 0.18015 0.74765 0.0
H353 H 0.21131 0.25604 0.73441 0.0
H354 H 0.32068 0.31863 0.82741 0.0
H355 H 0.22518 0.25627 0.84176 0.0
H356 H 0.14834 0.20255 0.81886 0.0
H357 H 0.16667 0.21057 0.78149 0.0
C358 C 0.22428 0.23644 0.74624 0.0
C359 C 0.26918 0.27344 0.75994 0.0
C360 C 0.25752 0.26914 0.78175 0.0
C361 C 0.30166 0.3009 0.79491 0.0
C362 C 0.28887 0.2954 0.81665 0.0
C363 C 0.23415 0.25989 0.82511 0.0
C364 C 0.19091 0.22959 0.81223 0.0
C365 C 0.20213 0.23422 0.7908 0.0
H366 H 0.4118 0.44857 0.79064 0.0
C367 C 0.4259 0.42684 0.8011 0.0
H368 H 0.41238 0.34653 0.81151 0.0
H369 H 0.30513 0.29415 0.71874 0.0
H370 H 0.40039 0.35783 0.70431 0.0
H371 H 0.47711 0.4123 0.72716 0.0
H372 H 0.45904 0.40359 0.76457 0.0
C373 C 0.40291 0.37055 0.80027 0.0
C374 C 0.35714 0.33797 0.78623 0.0
C375 C 0.36853 0.34347 0.76438 0.0
C376 C 0.32438 0.31149 0.75121 0.0
C377 C 0.337 0.31745 0.72947 0.0
C378 C 0.39153 0.35379 0.72097 0.0
C379 C 0.43472 0.3845 0.73384 0.0
C380 C 0.42367 0.37937 0.75529 0.0
H381 H 0.96155 0.07676 0.65252 0.0
C382 C 0.9595 0.09988 0.66543 0.0
H383 H 0.91924 0.14001 0.67852 0.0
H384 H 0.82461 0.17949 0.596 0.0
H385 H 0.89621 0.27569 0.60204 0.0
H386 H 0.96278 0.29469 0.62934 0.0
H387 H 0.95785 0.21755 0.6509 0.0
C388 C 0.9216 0.11652 0.66582 0.0
C389 C 0.88236 0.10436 0.64892 0.0
C390 C 0.88628 0.14985 0.63626 0.0
C391 C 0.84849 0.13882 0.62028 0.0
C392 C 0.85271 0.18525 0.60816 0.0
C393 C 0.89356 0.24076 0.61148 0.0
C394 C 0.93099 0.25147 0.62687 0.0
C395 C 0.92762 0.20676 0.63916 0.0
H396 H 0.69705 0.03978 0.62173 0.0
C397 C 0.71179 0.05008 0.6054 0.0
H398 H 0.78413 0.08619 0.58458 0.0
H399 H 0.85811 0.00732 0.67205 0.0
H400 H 0.78922 0.91105 0.66508 0.0
H401 H 0.72947 0.89164 0.63539 0.0
H402 H 0.73748 0.96859 0.6128 0.0
C403 C 0.76681 0.07134 0.60045 0.0
C404 C 0.80708 0.08223 0.61687 0.0
C405 C 0.80379 0.03661 0.62928 0.0
C406 C 0.8404 0.04772 0.64569 0.0
C407 C 0.83342 0.00144 0.65874 0.0
C408 C 0.79365 0.94586 0.65502 0.0
C409 C 0.75986 0.93494 0.63836 0.0
C410 C 0.76466 0.97958 0.6256 0.0
H411 H 0.96511 0.89705 0.99476 0.0
C412 C 0.94699 0.91584 0.00441 0.0
H413 H 0.87301 0.91565 0.01345 0.0
H414 H 0.81885 0.79763 0.92231 0.0
H415 H 0.88988 0.89073 0.90737 0.0
H416 H 0.94516 0.96835 0.92982 0.0
H417 H 0.92996 0.95323 0.96734 0.0
C418 C 0.89235 0.89879 0.00342 0.0
C419 C 0.85615 0.85351 0.9897 0.0
C420 C 0.86503 0.86334 0.96775 0.0
C421 C 0.83251 0.81882 0.95479 0.0
C422 C 0.8424 0.8298 0.93292 0.0
C423 C 0.88295 0.88313 0.92411 0.0
C424 C 0.91412 0.92681 0.93675 0.0
C425 C 0.90526 0.91738 0.9583 0.0
H426 H 0.68277 0.72114 0.95683 0.0
C427 C 0.70164 0.70205 0.94773 0.0
H428 H 0.77766 0.70451 0.94006 0.0
H429 H 0.82695 0.82118 0.03112 0.0
H430 H 0.75512 0.72832 0.04607 0.0
H431 H 0.69937 0.65086 0.02362 0.0
H432 H 0.71497 0.66582 0.98608 0.0
C433 C 0.75596 0.71905 0.94998 0.0
C434 C 0.79031 0.76491 0.96378 0.0
C435 C 0.78084 0.75531 0.98571 0.0
C436 C 0.8135 0.79981 0.99868 0.0
C437 C 0.80334 0.78898 0.02053 0.0
C438 C 0.7623 0.73582 0.02933 0.0
C439 C 0.73087 0.69223 0.01669 0.0
C440 C 0.74001 0.70152 0.99514 0.0
H441 H 0.9845 0.8915 0.34472 0.0
C442 C 0.02109 0.92965 0.3376 0.0
H443 H 0.08794 0.96397 0.3145 0.0
H444 H 0.02673 0.69754 0.32025 0.0
H445 H 0.05168 0.71058 0.35613 0.0
H446 H 0.07226 0.79809 0.37236 0.0
H447 H 0.067 0.87253 0.353 0.0
C448 C 0.0518 0.92582 0.32185 0.0
C449 C 0.03694 0.87132 0.31277 0.0
C450 C 0.04184 0.82888 0.32422 0.0
C451 C 0.03237 0.77939 0.31459 0.0
C452 C 0.03536 0.73673 0.32658 0.0
C453 C 0.04937 0.74355 0.34722 0.0
C454 C 0.06077 0.79274 0.35638 0.0
C455 C 0.05727 0.83508 0.34509 0.0
H456 H 0.09919 0.74912 0.28402 0.0
C457 C 0.05892 0.71808 0.27846 0.0
H458 H 0.97431 0.69654 0.27611 0.0
H459 H 0.02111 0.94269 0.28677 0.0
H460 H 0.99907 0.93084 0.25059 0.0
H461 H 0.98695 0.84727 0.23348 0.0
H462 H 0.99634 0.77485 0.25247 0.0
C463 C 0.01427 0.72392 0.2826 0.0
C464 C 0.02026 0.77345 0.29333 0.0
C465 C 0.0146 0.81546 0.282 0.0
C466 C 0.02267 0.86421 0.29175 0.0
C467 C 0.01641 0.90529 0.28005 0.0
C468 C 0.00357 0.89895 0.25928 0.0
C469 C 0.99664 0.85185 0.24966 0.0
C470 C 0.00204 0.8105 0.26079 0.0
H471 H 0.17355 0.97801 0.66891 0.0
C472 C 0.17672 0.0188 0.66603 0.0
H473 H 0.21847 0.09776 0.64841 0.0
H474 H 0.43087 0.06783 0.63298 0.0
H475 H 0.45747 0.116 0.66492 0.0
H476 H 0.39084 0.13201 0.68542 0.0
H477 H 0.29719 0.09996 0.67411 0.0
C478 C 0.2138 0.05628 0.65116 0.0
C479 C 0.25289 0.04454 0.63915 0.0
C480 C 0.30731 0.06328 0.64605 0.0
C481 C 0.3456 0.0538 0.63429 0.0
C482 C 0.39991 0.07343 0.64142 0.0
C483 C 0.41578 0.10127 0.6597 0.0
C484 C 0.37828 0.11033 0.67124 0.0
C485 C 0.32465 0.0917 0.66457 0.0
H486 H 0.39763 0.08784 0.58265 0.0
C487 C 0.40054 0.05035 0.58593 0.0
H488 H 0.38067 0.9865 0.61084 0.0
H489 H 0.15231 0.00457 0.62144 0.0
H490 H 0.1257 0.95653 0.58942 0.0
H491 H 0.19181 0.93925 0.56918 0.0
H492 H 0.285 0.97004 0.58075 0.0
C493 C 0.36933 0.01533 0.60359 0.0
C494 C 0.32945 0.02589 0.61562 0.0
C495 C 0.27512 0.00732 0.60867 0.0
C496 C 0.2368 0.01679 0.62044 0.0
C497 C 0.1829 0.99817 0.61312 0.0
C498 C 0.16712 0.97057 0.59479 0.0
C499 C 0.20436 0.96086 0.58338 0.0
C500 C 0.25776 0.97886 0.59017 0.0
H501 H 0.23209 0.1867 0.00474 0.0
C502 C 0.19388 0.18361 0.99941 0.0
H503 H 0.15914 0.2148 0.97758 0.0
H504 H 0.4203 0.43123 0.97112 0.0
H505 H 0.40129 0.44561 0.00655 0.0
H506 H 0.31319 0.37586 0.02642 0.0
H507 H 0.24373 0.2912 0.01103 0.0
C508 C 0.19712 0.21836 0.98337 0.0
C509 C 0.25144 0.25977 0.97189 0.0
C510 C 0.29166 0.30908 0.98117 0.0
C511 C 0.34226 0.34963 0.96963 0.0
C512 C 0.38138 0.39883 0.97919 0.0
C513 C 0.37092 0.40775 0.99951 0.0
C514 C 0.32134 0.36846 0.0107 0.0
C515 C 0.28192 0.3198 0.0017 0.0
H516 H 0.36119 0.41077 0.91677 0.0
C517 C 0.40193 0.41572 0.91916 0.0
H518 H 0.44456 0.39504 0.94238 0.0
H519 H 0.18334 0.1696 0.94963 0.0
H520 H 0.20238 0.15482 0.91426 0.0
H521 H 0.2907 0.22416 0.89443 0.0
H522 H 0.36019 0.30865 0.90976 0.0
C523 C 0.40432 0.38464 0.93654 0.0
C524 C 0.35214 0.34121 0.94876 0.0
C525 C 0.31222 0.29145 0.93958 0.0
C526 C 0.26164 0.25101 0.95112 0.0
C527 C 0.22238 0.20182 0.94157 0.0
C528 C 0.23284 0.19267 0.92129 0.0
C529 C 0.28252 0.23172 0.91012 0.0
C530 C 0.32198 0.28039 0.9191 0.0
H531 H 0.98862 0.18 0.32872 0.0
C532 C 0.02424 0.19501 0.3384 0.0
H533 H 0.09531 0.26688 0.3488 0.0
H534 H 0.03877 0.35217 0.25868 0.0
H535 H 0.06575 0.29091 0.24299 0.0
H536 H 0.09071 0.23176 0.26463 0.0
H537 H 0.08719 0.23267 0.30216 0.0
C538 C 0.06093 0.25094 0.33851 0.0
C539 C 0.05371 0.29253 0.32539 0.0
C540 C 0.05931 0.29411 0.3034 0.0
C541 C 0.04856 0.33106 0.29089 0.0
C542 C 0.04977 0.32789 0.26901 0.0
C543 C 0.06466 0.2923 0.25974 0.0
C544 C 0.07842 0.25881 0.27192 0.0
C545 C 0.07581 0.25948 0.29348 0.0
H546 H 0.11383 0.45808 0.27678 0.0
C547 C 0.07275 0.4504 0.27321 0.0
H548 H 0.98904 0.40945 0.28845 0.0
H549 H 0.03923 0.3 0.36702 0.0
H550 H 0.0161 0.36446 0.38288 0.0
H551 H 0.00288 0.43249 0.36122 0.0
H552 H 0.01211 0.43612 0.32355 0.0
C553 C 0.02896 0.41111 0.28723 0.0
C554 C 0.03619 0.36947 0.30039 0.0
C555 C 0.03132 0.36835 0.32237 0.0
C556 C 0.03986 0.3297 0.33487 0.0
C557 C 0.03381 0.32889 0.35679 0.0
C558 C 0.02051 0.36563 0.3661 0.0
C559 C 0.013 0.4039 0.3539 0.0
C560 C 0.01836 0.40549 0.33229 0.0
loop_
_geom_bond_atom_site_label_1
_geom_bond_atom_site_label_2
_geom_bond_distance
_geom_bond_site_symmetry_2
_ccdc_geom_bond_type
C0 O1 1.306 . S
C0 O3 1.160 . S
O1 C0 1.306 . S
O1 Cd2 2.228 . S
Cd2 O1 2.228 . S
Cd2 O6 2.273 1_455 S
Cd2 O10 2.277 . S
O3 C0 1.160 . S
O3 Cd4 2.203 . S
Cd4 O3 2.203 . S
Cd4 O6 2.411 1_455 S
Cd4 O7 2.333 1_545 S
Cd4 O8 2.352 1_545 S
Cd4 O12 2.277 . S
Cd4 O13 2.356 1_545 S
C5 O10 1.209 . S
C5 O12 1.226 . S
O6 Cd2 2.273 1_655 S
O6 Cd4 2.411 1_655 S
O6 C9 1.320 1_545 S
O7 Cd4 2.333 1_565 S
O7 C9 1.214 1_455 S
O8 Cd4 2.352 1_565 S
O8 C11 1.258 . S
C9 O6 1.320 1_565 S
C9 O7 1.214 1_655 S
O10 Cd2 2.277 . S
O10 C5 1.209 . S
C11 O8 1.258 . S
C11 O13 1.282 . S
O12 Cd4 2.277 . S
O12 C5 1.226 . S
O13 Cd4 2.356 1_565 S
O13 C11 1.282 . S
C14 O15 1.306 . S
C14 O17 1.160 . S
O15 C14 1.306 . S
O15 Cd16 2.228 . S
Cd16 O15 2.228 . S
Cd16 O20 2.273 . S
Cd16 O24 2.277 . S
O17 C14 1.160 . S
O17 Cd18 2.203 . S
Cd18 O17 2.203 . S
Cd18 O20 2.411 . S
Cd18 O21 2.333 1_455 S
Cd18 O22 2.352 1_455 S
Cd18 O26 2.277 1_445 S
Cd18 O27 2.356 1_455 S
C19 O24 1.209 1_565 S
C19 O26 1.226 1_455 S
O20 Cd16 2.273 . S
O20 Cd18 2.411 . S
O20 C23 1.320 . S
O21 Cd18 2.333 1_655 S
O21 C23 1.214 1_655 S
O22 Cd18 2.352 1_655 S
O22 C25 1.258 . S
C23 O20 1.320 . S
C23 O21 1.214 1_455 S
O24 Cd16 2.277 . S
O24 C19 1.209 1_545 S
C25 O22 1.258 . S
C25 O27 1.282 . S
O26 Cd18 2.277 1_665 S
O26 C19 1.226 1_655 S
O27 Cd18 2.356 1_655 S
O27 C25 1.282 . S
C28 O29 1.306 . S
C28 O31 1.160 1_655 S
O29 C28 1.306 . S
O29 Cd30 2.228 1_655 S
Cd30 O29 2.228 1_455 S
Cd30 O34 2.273 . S
Cd30 O38 2.277 1_455 S
O31 C28 1.160 1_455 S
O31 Cd32 2.203 . S
Cd32 O31 2.203 . S
Cd32 O34 2.411 . S
Cd32 O35 2.333 . S
Cd32 O36 2.352 . S
Cd32 O40 2.277 1_545 S
Cd32 O41 2.373 . S
C33 O38 1.209 1_565 S
C33 O40 1.226 1_655 S
O34 Cd30 2.273 . S
O34 Cd32 2.411 . S
O34 C37 1.320 . S
O35 Cd32 2.333 . S
O35 C37 1.214 . S
O36 Cd32 2.352 . S
O36 C39 1.258 . S
C37 O34 1.320 . S
C37 O35 1.214 . S
O38 Cd30 2.277 1_655 S
O38 C33 1.209 1_545 S
C39 O36 1.258 . S
C39 O41 1.297 . S
O40 Cd32 2.277 1_565 S
O40 C33 1.226 1_455 S
O41 Cd32 2.373 . S
O41 C39 1.297 . S
C42 C43 1.443 . S
C42 N46 1.376 . S
C42 C80 1.389 . S
C43 C42 1.443 . S
C43 C44 1.340 . S
C43 H83 0.951 . S
C44 C43 1.340 . S
C44 C45 1.439 . S
C44 H84 0.950 . S
C45 C44 1.439 . S
C45 N46 1.374 . S
C45 C79 1.395 . S
N46 C42 1.376 . S
N46 C45 1.374 . S
N46 Co47 2.008 . S
Co47 N46 2.008 . S
Co47 N48 1.995 . S
Co47 N53 2.008 1_455 S
Co47 N58 1.995 1_455 S
Co47 N63 2.282 . S
Co47 N69 2.282 . S
N48 Co47 1.995 . S
N48 C49 1.376 . S
N48 C52 1.383 . S
C49 N48 1.376 . S
C49 C50 1.446 . S
C49 C79 1.391 . S
C50 C49 1.446 . S
C50 C51 1.339 . S
C50 H85 0.949 . S
C51 C50 1.339 . S
C51 C52 1.439 . S
C51 H86 0.950 . S
C52 N48 1.383 . S
C52 C51 1.439 . S
C52 C81 1.392 . S
N53 Co47 2.008 1_655 S
N53 C54 1.376 . S
N53 C57 1.374 . S
C54 N53 1.376 . S
C54 C55 1.443 . S
C54 C81 1.389 1_655 S
C55 C54 1.443 . S
C55 C56 1.340 . S
C55 H87 0.951 . S
C56 C55 1.340 . S
C56 C57 1.439 . S
C56 H88 0.950 . S
C57 N53 1.374 . S
C57 C56 1.439 . S
C57 C82 1.395 . S
N58 Co47 1.995 1_655 S
N58 C59 1.376 . S
N58 C62 1.383 1_655 S
C59 N58 1.376 . S
C59 C60 1.446 . S
C59 C82 1.391 . S
C60 C59 1.446 . S
C60 C61 1.339 . S
C60 H89 0.949 . S
C61 C60 1.339 . S
C61 C62 1.439 1_655 S
C61 H90 0.950 . S
C62 N58 1.383 1_455 S
C62 C61 1.439 1_455 S
C62 C80 1.392 . S
N63 Co47 2.282 . S
N63 C66 1.332 . S
N63 C68 1.332 . S
C64 C65 1.386 . S
C64 C67 1.388 . S
C65 C64 1.386 . S
C65 C66 1.382 . S
C65 H91 0.950 1_455 S
C66 N63 1.332 . S
C66 C65 1.382 . S
C66 H77 0.952 1_455 S
C67 C64 1.388 . S
C67 C68 1.382 . S
C67 H92 0.950 . S
C68 N63 1.332 . S
C68 C67 1.382 . S
C68 H78 0.948 . S
N69 Co47 2.282 . S
N69 C73 1.332 . S
N69 C74 1.314 1_455 S
C70 C71 1.388 1_655 S
C70 C74 1.390 . S
C70 H93 0.950 . S
C71 C70 1.388 1_455 S
C71 C72 1.386 . S
C72 C71 1.386 . S
C72 C73 1.382 . S
C72 H94 0.950 . S
C73 N69 1.332 . S
C73 C72 1.382 . S
C73 H75 0.952 . S
C74 N69 1.314 1_655 S
C74 C70 1.390 . S
C74 H76 0.959 . S
H75 C73 0.952 . S
H76 C74 0.959 . S
H77 C66 0.952 1_655 S
H78 C68 0.948 . S
C79 C45 1.395 . S
C79 C49 1.391 . S
C80 C42 1.389 . S
C80 C62 1.392 . S
C81 C52 1.392 . S
C81 C54 1.389 1_455 S
C82 C57 1.395 . S
C82 C59 1.391 . S
H83 C43 0.951 . S
H84 C44 0.950 . S
H85 C50 0.949 . S
H86 C51 0.950 . S
H87 C55 0.951 . S
H88 C56 0.950 . S
H89 C60 0.949 . S
H90 C61 0.950 . S
H91 C65 0.950 1_655 S
H92 C67 0.950 . S
H93 C70 0.950 . S
H94 C72 0.950 . S
C95 C96 1.443 1_545 S
C95 N99 1.376 . S
C95 C133 1.389 . S
C96 C95 1.443 1_565 S
C96 C97 1.340 . S
C96 H136 0.951 . S
C97 C96 1.340 . S
C97 C98 1.439 . S
C97 H137 0.950 . S
C98 C97 1.439 . S
C98 N99 1.374 1_565 S
C98 C132 1.395 . S
N99 C95 1.376 . S
N99 C98 1.374 1_545 S
N99 Co100 2.008 . S
Co100 N99 2.008 . S
Co100 N101 1.995 . S
Co100 N106 2.008 . S
Co100 N111 1.995 . S
Co100 N116 2.282 . S
Co100 N122 2.282 . S
N101 Co100 1.995 . S
N101 C102 1.376 1_545 S
N101 C105 1.383 . S
C102 N101 1.376 1_565 S
C102 C103 1.446 . S
C102 C132 1.391 . S
C103 C102 1.446 . S
C103 C104 1.339 . S
C103 H138 0.949 . S
C104 C103 1.339 . S
C104 C105 1.439 1_565 S
C104 H139 0.950 . S
C105 N101 1.383 . S
C105 C104 1.439 1_545 S
C105 C134 1.392 . S
N106 Co100 2.008 . S
N106 C107 1.376 . S
N106 C110 1.374 . S
C107 N106 1.376 . S
C107 C108 1.443 . S
C107 C134 1.389 . S
C108 C107 1.443 . S
C108 C109 1.340 . S
C108 H140 0.951 . S
C109 C108 1.340 . S
C109 C110 1.439 . S
C109 H141 0.950 . S
C110 N106 1.374 . S
C110 C109 1.439 . S
C110 C135 1.395 . S
N111 Co100 1.995 . S
N111 C112 1.376 . S
N111 C115 1.383 . S
C112 N111 1.376 . S
C112 C113 1.446 . S
C112 C135 1.391 . S
C113 C112 1.446 . S
C113 C114 1.339 . S
C113 H142 0.949 . S
C114 C113 1.339 . S
C114 C115 1.439 . S
C114 H143 0.950 . S
C115 N111 1.383 . S
C115 C114 1.439 . S
C115 C133 1.392 . S
N116 Co100 2.282 . S
N116 C119 1.332 . S
N116 C121 1.332 . S
C117 C118 1.386 . S
C117 C120 1.388 . S
C118 C117 1.386 . S
C118 C119 1.382 . S
C118 H144 0.950 . S
C119 N116 1.332 . S
C119 C118 1.382 . S
C119 H130 0.952 . S
C120 C117 1.388 . S
C120 C121 1.382 . S
C120 H145 0.950 1_545 S
C121 N116 1.332 . S
C121 C120 1.382 . S
C121 H131 0.948 1_545 S
N122 Co100 2.282 . S
N122 C126 1.332 . S
N122 C127 1.332 . S
C123 C124 1.388 . S
C123 C127 1.382 . S
C123 H146 0.950 . S
C124 C123 1.388 . S
C124 C125 1.386 . S
C125 C124 1.386 . S
C125 C126 1.382 . S
C125 H147 0.950 1_545 S
C126 N122 1.332 . S
C126 C125 1.382 . S
C126 H128 0.952 1_545 S
C127 N122 1.332 . S
C127 C123 1.382 . S
C127 H129 0.948 . S
H128 C126 0.952 1_565 S
H129 C127 0.948 . S
H130 C119 0.952 . S
H131 C121 0.948 1_565 S
C132 C98 1.395 . S
C132 C102 1.391 . S
C133 C95 1.389 . S
C133 C115 1.392 . S
C134 C105 1.392 . S
C134 C107 1.389 . S
C135 C110 1.395 . S
C135 C112 1.391 . S
H136 C96 0.951 . S
H137 C97 0.950 . S
H138 C103 0.949 . S
H139 C104 0.950 . S
H140 C108 0.951 . S
H141 C109 0.950 . S
H142 C113 0.949 . S
H143 C114 0.950 . S
H144 C118 0.950 . S
H145 C120 0.950 1_565 S
H146 C123 0.950 . S
H147 C125 0.950 1_565 S
C148 C149 1.443 . S
C148 N152 1.376 . S
C148 C186 1.389 . S
C149 C148 1.443 . S
C149 C150 1.340 . S
C149 H189 0.951 . S
C150 C149 1.340 . S
C150 C151 1.439 . S
C150 H190 0.950 . S
C151 C150 1.439 . S
C151 N152 1.374 . S
C151 C185 1.395 . S
N152 C148 1.376 . S
N152 C151 1.374 . S
N152 Co153 2.008 . S
Co153 N152 2.008 . S
Co153 N154 1.995 . S
Co153 N159 2.008 . S
Co153 N164 1.995 . S
Co153 N169 2.282 . S
Co153 N175 2.282 . S
N154 Co153 1.995 . S
N154 C155 1.376 . S
N154 C158 1.383 . S
C155 N154 1.376 . S
C155 C156 1.446 . S
C155 C185 1.391 . S
C156 C155 1.446 . S
C156 C157 1.339 . S
C156 H191 0.949 . S
C157 C156 1.339 . S
C157 C158 1.439 . S
C157 H192 0.950 . S
C158 N154 1.383 . S
C158 C157 1.439 . S
C158 C187 1.392 . S
N159 Co153 2.008 . S
N159 C160 1.376 . S
N159 C163 1.374 . S
C160 N159 1.376 . S
C160 C161 1.443 . S
C160 C187 1.389 . S
C161 C160 1.443 . S
C161 C162 1.340 . S
C161 H193 0.951 . S
C162 C161 1.340 . S
C162 C163 1.439 . S
C162 H194 0.950 . S
C163 N159 1.374 . S
C163 C162 1.439 . S
C163 C188 1.395 . S
N164 Co153 1.995 . S
N164 C165 1.376 . S
N164 C168 1.383 . S
C165 N164 1.376 . S
C165 C166 1.446 . S
C165 C188 1.391 . S
C166 C165 1.446 . S
C166 C167 1.339 . S
C166 H195 0.949 . S
C167 C166 1.339 . S
C167 C168 1.439 . S
C167 H196 0.950 . S
C168 N164 1.383 . S
C168 C167 1.439 . S
C168 C186 1.392 . S
N169 Co153 2.282 . S
N169 C172 1.332 . S
N169 C174 1.332 . S
C170 C171 1.386 . S
C170 C173 1.388 . S
C171 C170 1.386 . S
C171 C172 1.382 . S
C171 H197 0.950 . S
C172 N169 1.332 . S
C172 C171 1.382 . S
C172 H183 0.952 . S
C173 C170 1.388 . S
C173 C174 1.382 . S
C173 H198 0.950 . S
C174 N169 1.332 . S
C174 C173 1.382 . S
C174 H184 0.948 . S
N175 Co153 2.282 . S
N175 C179 1.332 . S
N175 C180 1.332 . S
C176 C177 1.388 . S
C176 C180 1.382 . S
C176 H199 0.950 . S
C177 C176 1.388 . S
C177 C178 1.386 . S
C178 C177 1.386 . S
C178 C179 1.382 . S
C178 H200 0.950 . S
C179 N175 1.332 . S
C179 C178 1.382 . S
C179 H181 0.952 . S
C180 N175 1.332 . S
C180 C176 1.382 . S
C180 H182 0.948 . S
H181 C179 0.952 . S
H182 C180 0.948 . S
H183 C172 0.952 . S
H184 C174 0.948 . S
C185 C151 1.395 . S
C185 C155 1.391 . S
C186 C148 1.389 . S
C186 C168 1.392 . S
C187 C158 1.392 . S
C187 C160 1.389 . S
C188 C163 1.395 . S
C188 C165 1.391 . S
H189 C149 0.951 . S
H190 C150 0.950 . S
H191 C156 0.949 . S
H192 C157 0.950 . S
H193 C161 0.951 . S
H194 C162 0.950 . S
H195 C166 0.949 . S
H196 C167 0.950 . S
H197 C171 0.950 . S
H198 C173 0.950 . S
H199 C176 0.950 . S
H200 C178 0.950 . S
H201 C202 0.951 . S
C202 H201 0.951 . S
C202 C208 1.265 . S
H203 C208 0.950 . S
H204 C212 0.949 . S
H205 C213 0.950 . S
H206 C214 0.951 . S
H207 C215 0.951 . S
C208 C202 1.265 . S
C208 H203 0.950 . S
C208 C209 1.478 . S
C209 C208 1.478 . S
C209 C210 1.397 . S
C209 C226 1.394 . S
C210 C209 1.397 . S
C210 C211 1.438 . S
C210 C215 1.429 1_455 S
C211 C210 1.438 . S
C211 C212 1.428 1_455 S
C211 C224 1.394 . S
C212 H204 0.949 . S
C212 C211 1.428 1_655 S
C212 C213 1.345 . S
C213 H205 0.950 . S
C213 C212 1.345 . S
C213 C214 1.424 . S
C214 H206 0.951 . S
C214 C213 1.424 . S
C214 C215 1.347 . S
C215 H207 0.951 . S
C215 C210 1.429 1_655 S
C215 C214 1.347 . S
H216 C217 0.951 . S
C217 H216 0.951 . S
C217 C223 1.265 . S
H218 C223 0.950 . S
H219 C227 0.949 . S
H220 C228 0.950 . S
H221 C229 0.951 . S
H222 C230 0.951 . S
C223 C217 1.265 . S
C223 H218 0.950 . S
C223 C224 1.478 . S
C224 C211 1.394 . S
C224 C223 1.478 . S
C224 C225 1.397 . S
C225 C224 1.397 . S
C225 C226 1.438 . S
C225 C230 1.429 . S
C226 C209 1.394 . S
C226 C225 1.438 . S
C226 C227 1.428 . S
C227 H219 0.949 . S
C227 C226 1.428 . S
C227 C228 1.345 . S
C228 H220 0.950 . S
C228 C227 1.345 . S
C228 C229 1.424 . S
C229 H221 0.951 . S
C229 C228 1.424 . S
C229 C230 1.347 . S
C230 H222 0.951 . S
C230 C225 1.429 . S
C230 C229 1.347 . S
H231 C232 0.951 . S
C232 H231 0.951 . S
C232 C238 1.265 . S
H233 C238 0.950 . S
H234 C242 0.949 . S
H235 C243 0.950 . S
H236 C244 0.951 . S
H237 C245 0.951 . S
C238 C232 1.265 . S
C238 H233 0.950 . S
C238 C239 1.478 . S
C239 C238 1.478 . S
C239 C240 1.397 . S
C239 C256 1.394 . S
C240 C239 1.397 . S
C240 C241 1.438 . S
C240 C245 1.429 1_545 S
C241 C240 1.438 . S
C241 C242 1.428 1_545 S
C241 C254 1.394 . S
C242 H234 0.949 . S
C242 C241 1.428 1_565 S
C242 C243 1.345 . S
C243 H235 0.950 . S
C243 C242 1.345 . S
C243 C244 1.424 . S
C244 H236 0.951 . S
C244 C243 1.424 . S
C244 C245 1.347 . S
C245 H237 0.951 . S
C245 C240 1.429 1_565 S
C245 C244 1.347 . S
H246 C247 0.951 . S
C247 H246 0.951 . S
C247 C253 1.265 . S
H248 C253 0.950 . S
H249 C257 0.949 . S
H250 C258 0.950 . S
H251 C259 0.951 . S
H252 C260 0.951 . S
C253 C247 1.265 . S
C253 H248 0.950 . S
C253 C254 1.478 . S
C254 C241 1.394 . S
C254 C253 1.478 . S
C254 C255 1.397 . S
C255 C254 1.397 . S
C255 C256 1.438 . S
C255 C260 1.429 . S
C256 C239 1.394 . S
C256 C255 1.438 . S
C256 C257 1.428 . S
C257 H249 0.949 . S
C257 C256 1.428 . S
C257 C258 1.345 . S
C258 H250 0.950 . S
C258 C257 1.345 . S
C258 C259 1.424 . S
C259 H251 0.951 . S
C259 C258 1.424 . S
C259 C260 1.347 . S
C260 H252 0.951 . S
C260 C255 1.429 . S
C260 C259 1.347 . S
H261 C262 0.951 . S
C262 H261 0.951 . S
C262 C268 1.265 . S
H263 C268 0.950 . S
H264 C272 0.949 . S
H265 C273 0.950 . S
H266 C274 0.951 . S
H267 C275 0.951 . S
C268 C262 1.265 . S
C268 H263 0.950 . S
C268 C269 1.478 . S
C269 C268 1.478 . S
C269 C270 1.397 . S
C269 C286 1.394 . S
C270 C269 1.397 . S
C270 C271 1.438 . S
C270 C275 1.429 . S
C271 C270 1.438 . S
C271 C272 1.428 . S
C271 C284 1.394 . S
C272 H264 0.949 . S
C272 C271 1.428 . S
C272 C273 1.345 . S
C273 H265 0.950 . S
C273 C272 1.345 . S
C273 C274 1.424 . S
C274 H266 0.951 . S
C274 C273 1.424 . S
C274 C275 1.347 . S
C275 H267 0.951 . S
C275 C270 1.429 . S
C275 C274 1.347 . S
H276 C277 0.951 . S
C277 H276 0.951 . S
C277 C283 1.265 . S
H278 C283 0.950 . S
H279 C287 0.949 . S
H280 C288 0.950 . S
H281 C289 0.951 . S
H282 C290 0.951 . S
C283 C277 1.265 . S
C283 H278 0.950 . S
C283 C284 1.478 . S
C284 C271 1.394 . S
C284 C283 1.478 . S
C284 C285 1.397 . S
C285 C284 1.397 . S
C285 C286 1.438 . S
C285 C290 1.429 . S
C286 C269 1.394 . S
C286 C285 1.438 . S
C286 C287 1.428 . S
C287 H279 0.949 . S
C287 C286 1.428 . S
C287 C288 1.345 . S
C288 H280 0.950 . S
C288 C287 1.345 . S
C288 C289 1.424 . S
C289 H281 0.951 . S
C289 C288 1.424 . S
C289 C290 1.347 . S
C290 H282 0.951 . S
C290 C285 1.429 . S
C290 C289 1.347 . S
H291 C292 0.951 . S
C292 H291 0.951 . S
C292 C298 1.265 . S
H293 C298 0.950 . S
H294 C302 0.949 . S
H295 C303 0.950 . S
H296 C304 0.951 . S
H297 C305 0.951 . S
C298 C292 1.265 . S
C298 H293 0.950 . S
C298 C299 1.478 . S
C299 C298 1.478 . S
C299 C300 1.397 . S
C299 C316 1.394 . S
C300 C299 1.397 . S
C300 C301 1.438 . S
C300 C305 1.429 1_455 S
C301 C300 1.438 . S
C301 C302 1.428 . S
C301 C314 1.394 . S
C302 H294 0.949 . S
C302 C301 1.428 . S
C302 C303 1.345 1_455 S
C303 H295 0.950 . S
C303 C302 1.345 1_655 S
C303 C304 1.424 . S
C304 H296 0.951 . S
C304 C303 1.424 . S
C304 C305 1.347 . S
C305 H297 0.951 . S
C305 C300 1.429 1_655 S
C305 C304 1.347 . S
H306 C307 0.951 . S
C307 H306 0.951 . S
C307 C313 1.265 . S
H308 C313 0.950 . S
H309 C317 0.949 . S
H310 C318 0.950 . S
H311 C319 0.951 . S
H312 C320 0.951 . S
C313 C307 1.265 . S
C313 H308 0.950 . S
C313 C314 1.478 . S
C314 C301 1.394 . S
C314 C313 1.478 . S
C314 C315 1.397 . S
C315 C314 1.397 . S
C315 C316 1.438 . S
C315 C320 1.429 . S
C316 C299 1.394 . S
C316 C315 1.438 . S
C316 C317 1.428 . S
C317 H309 0.949 . S
C317 C316 1.428 . S
C317 C318 1.345 . S
C318 H310 0.950 . S
C318 C317 1.345 . S
C318 C319 1.424 . S
C319 H311 0.951 . S
C319 C318 1.424 . S
C319 C320 1.347 . S
C320 H312 0.951 . S
C320 C315 1.429 . S
C320 C319 1.347 . S
H321 C322 0.951 . S
C322 H321 0.951 . S
C322 C328 1.265 . S
H323 C328 0.950 . S
H324 C332 0.949 . S
H325 C333 0.950 . S
H326 C334 0.951 . S
H327 C335 0.951 . S
C328 C322 1.265 . S
C328 H323 0.950 . S
C328 C329 1.478 . S
C329 C328 1.478 . S
C329 C330 1.397 . S
C329 C346 1.394 . S
C330 C329 1.397 . S
C330 C331 1.438 . S
C330 C335 1.429 1_545 S
C331 C330 1.438 . S
C331 C332 1.428 1_545 S
C331 C344 1.394 . S
C332 H324 0.949 . S
C332 C331 1.428 1_565 S
C332 C333 1.345 . S
C333 H325 0.950 . S
C333 C332 1.345 . S
C333 C334 1.424 . S
C334 H326 0.951 . S
C334 C333 1.424 . S
C334 C335 1.347 . S
C335 H327 0.951 . S
C335 C330 1.429 1_565 S
C335 C334 1.347 . S
H336 C337 0.951 . S
C337 H336 0.951 . S
C337 C343 1.265 . S
H338 C343 0.950 . S
H339 C347 0.949 . S
H340 C348 0.950 . S
H341 C349 0.951 . S
H342 C350 0.951 . S
C343 C337 1.265 . S
C343 H338 0.950 . S
C343 C344 1.478 . S
C344 C331 1.394 . S
C344 C343 1.478 . S
C344 C345 1.397 . S
C345 C344 1.397 . S
C345 C346 1.438 . S
C345 C350 1.429 . S
C346 C329 1.394 . S
C346 C345 1.438 . S
C346 C347 1.428 . S
C347 H339 0.949 . S
C347 C346 1.428 . S
C347 C348 1.345 . S
C348 H340 0.950 . S
C348 C347 1.345 . S
C348 C349 1.424 . S
C349 H341 0.951 . S
C349 C348 1.424 . S
C349 C350 1.347 . S
C350 H342 0.951 . S
C350 C345 1.429 . S
C350 C349 1.347 . S
H351 C352 0.951 . S
C352 H351 0.951 . S
C352 C358 1.265 . S
H353 C358 0.950 . S
H354 C362 0.949 . S
H355 C363 0.950 . S
H356 C364 0.951 . S
H357 C365 0.951 . S
C358 C352 1.265 . S
C358 H353 0.950 . S
C358 C359 1.478 . S
C359 C358 1.478 . S
C359 C360 1.397 . S
C359 C376 1.394 . S
C360 C359 1.397 . S
C360 C361 1.438 . S
C360 C365 1.429 . S
C361 C360 1.438 . S
C361 C362 1.428 . S
C361 C374 1.394 . S
C362 H354 0.949 . S
C362 C361 1.428 . S
C362 C363 1.345 . S
C363 H355 0.950 . S
C363 C362 1.345 . S
C363 C364 1.424 . S
C364 H356 0.951 . S
C364 C363 1.424 . S
C364 C365 1.347 . S
C365 H357 0.951 . S
C365 C360 1.429 . S
C365 C364 1.347 . S
H366 C367 0.951 . S
C367 H366 0.951 . S
C367 C373 1.265 . S
H368 C373 0.950 . S
H369 C377 0.949 . S
H370 C378 0.950 . S
H371 C379 0.951 . S
H372 C380 0.951 . S
C373 C367 1.265 . S
C373 H368 0.950 . S
C373 C374 1.478 . S
C374 C361 1.394 . S
C374 C373 1.478 . S
C374 C375 1.397 . S
C375 C374 1.397 . S
C375 C376 1.438 . S
C375 C380 1.429 . S
C376 C359 1.394 . S
C376 C375 1.438 . S
C376 C377 1.428 . S
C377 H369 0.949 . S
C377 C376 1.428 . S
C377 C378 1.345 . S
C378 H370 0.950 . S
C378 C377 1.345 . S
C378 C379 1.424 . S
C379 H371 0.951 . S
C379 C378 1.424 . S
C379 C380 1.347 . S
C380 H372 0.951 . S
C380 C375 1.429 . S
C380 C379 1.347 . S
H381 C382 0.951 . S
C382 H381 0.951 . S
C382 C388 1.265 . S
H383 C388 0.950 . S
H384 C392 0.949 . S
H385 C393 0.950 . S
H386 C394 0.951 . S
H387 C395 0.951 . S
C388 C382 1.265 . S
C388 H383 0.950 . S
C388 C389 1.478 . S
C389 C388 1.478 . S
C389 C390 1.397 . S
C389 C406 1.394 . S
C390 C389 1.397 . S
C390 C391 1.438 . S
C390 C395 1.429 . S
C391 C390 1.438 . S
C391 C392 1.428 . S
C391 C404 1.394 . S
C392 H384 0.949 . S
C392 C391 1.428 . S
C392 C393 1.345 . S
C393 H385 0.950 . S
C393 C392 1.345 . S
C393 C394 1.424 . S
C394 H386 0.951 . S
C394 C393 1.424 . S
C394 C395 1.347 . S
C395 H387 0.951 . S
C395 C390 1.429 . S
C395 C394 1.347 . S
H396 C397 0.951 . S
C397 H396 0.951 . S
C397 C403 1.265 . S
H398 C403 0.950 . S
H399 C407 0.949 . S
H400 C408 0.950 . S
H401 C409 0.951 . S
H402 C410 0.951 . S
C403 C397 1.265 . S
C403 H398 0.950 . S
C403 C404 1.478 . S
C404 C391 1.394 . S
C404 C403 1.478 . S
C404 C405 1.397 . S
C405 C404 1.397 . S
C405 C406 1.438 . S
C405 C410 1.429 1_545 S
C406 C389 1.394 . S
C406 C405 1.438 . S
C406 C407 1.428 1_545 S
C407 H399 0.949 . S
C407 C406 1.428 1_565 S
C407 C408 1.345 . S
C408 H400 0.950 . S
C408 C407 1.345 . S
C408 C409 1.424 . S
C409 H401 0.951 . S
C409 C408 1.424 . S
C409 C410 1.347 . S
C410 H402 0.951 . S
C410 C405 1.429 1_565 S
C410 C409 1.347 . S
H411 C412 0.951 . S
C412 H411 0.951 . S
C412 C418 1.265 1_554 S
H413 C418 0.950 . S
H414 C422 0.949 . S
H415 C423 0.950 . S
H416 C424 0.951 1_455 S
H417 C425 0.951 . S
C418 C412 1.265 1_556 S
C418 H413 0.950 . S
C418 C419 1.478 . S
C419 C418 1.478 . S
C419 C420 1.397 . S
C419 C436 1.394 . S
C420 C419 1.397 . S
C420 C421 1.438 . S
C420 C425 1.429 . S
C421 C420 1.438 . S
C421 C422 1.428 . S
C421 C434 1.394 . S
C422 H414 0.949 . S
C422 C421 1.428 . S
C422 C423 1.345 . S
C423 H415 0.950 . S
C423 C422 1.345 . S
C423 C424 1.424 . S
C424 H416 0.951 1_655 S
C424 C423 1.424 . S
C424 C425 1.347 . S
C425 H417 0.951 . S
C425 C420 1.429 . S
C425 C424 1.347 . S
H426 C427 0.951 . S
C427 H426 0.951 . S
C427 C433 1.265 . S
H428 C433 0.950 . S
H429 C437 0.949 . S
H430 C438 0.950 . S
H431 C439 0.951 . S
H432 C440 0.951 . S
C433 C427 1.265 . S
C433 H428 0.950 . S
C433 C434 1.478 . S
C434 C421 1.394 . S
C434 C433 1.478 . S
C434 C435 1.397 . S
C435 C434 1.397 . S
C435 C436 1.438 . S
C435 C440 1.429 . S
C436 C419 1.394 . S
C436 C435 1.438 . S
C436 C437 1.428 1_556 S
C437 H429 0.949 . S
C437 C436 1.428 1_554 S
C437 C438 1.345 . S
C438 H430 0.950 . S
C438 C437 1.345 . S
C438 C439 1.424 . S
C439 H431 0.951 . S
C439 C438 1.424 . S
C439 C440 1.347 1_554 S
C440 H432 0.951 . S
C440 C435 1.429 . S
C440 C439 1.347 1_556 S
H441 C442 0.951 . S
C442 H441 0.951 . S
C442 C448 1.265 . S
H443 C448 0.950 . S
H444 C452 0.949 . S
H445 C453 0.950 . S
H446 C454 0.951 . S
H447 C455 0.951 . S
C448 C442 1.265 . S
C448 H443 0.950 . S
C448 C449 1.478 . S
C449 C448 1.478 . S
C449 C450 1.397 . S
C449 C466 1.394 . S
C450 C449 1.397 . S
C450 C451 1.438 . S
C450 C455 1.429 1_455 S
C451 C450 1.438 . S
C451 C452 1.428 1_455 S
C451 C464 1.394 . S
C452 H444 0.949 . S
C452 C451 1.428 1_655 S
C452 C453 1.345 . S
C453 H445 0.950 . S
C453 C452 1.345 . S
C453 C454 1.424 . S
C454 H446 0.951 . S
C454 C453 1.424 . S
C454 C455 1.347 . S
C455 H447 0.951 . S
C455 C450 1.429 1_655 S
C455 C454 1.347 . S
H456 C457 0.951 . S
C457 H456 0.951 . S
C457 C463 1.265 . S
H458 C463 0.950 . S
H459 C467 0.949 . S
H460 C468 0.950 1_545 S
H461 C469 0.951 . S
H462 C470 0.951 . S
C463 C457 1.265 . S
C463 H458 0.950 . S
C463 C464 1.478 . S
C464 C451 1.394 . S
C464 C463 1.478 . S
C464 C465 1.397 . S
C465 C464 1.397 . S
C465 C466 1.438 . S
C465 C470 1.429 . S
C466 C449 1.394 . S
C466 C465 1.438 . S
C466 C467 1.428 . S
C467 H459 0.949 . S
C467 C466 1.428 . S
C467 C468 1.345 . S
C468 H460 0.950 1_565 S
C468 C467 1.345 . S
C468 C469 1.424 . S
C469 H461 0.951 . S
C469 C468 1.424 . S
C469 C470 1.347 . S
C470 H462 0.951 . S
C470 C465 1.429 . S
C470 C469 1.347 . S
H471 C472 0.951 . S
C472 H471 0.951 . S
C472 C478 1.265 . S
H473 C478 0.950 . S
H474 C482 0.949 . S
H475 C483 0.950 . S
H476 C484 0.951 . S
H477 C485 0.951 . S
C478 C472 1.265 . S
C478 H473 0.950 . S
C478 C479 1.478 . S
C479 C478 1.478 . S
C479 C480 1.397 . S
C479 C496 1.394 . S
C480 C479 1.397 . S
C480 C481 1.438 . S
C480 C485 1.429 . S
C481 C480 1.438 . S
C481 C482 1.428 . S
C481 C494 1.394 . S
C482 H474 0.949 . S
C482 C481 1.428 . S
C482 C483 1.345 . S
C483 H475 0.950 . S
C483 C482 1.345 . S
C483 C484 1.424 . S
C484 H476 0.951 . S
C484 C483 1.424 . S
C484 C485 1.347 . S
C485 H477 0.951 . S
C485 C480 1.429 . S
C485 C484 1.347 . S
H486 C487 0.951 . S
C487 H486 0.951 . S
C487 C493 1.265 . S
H488 C493 0.950 1_565 S
H489 C497 0.949 . S
H490 C498 0.950 . S
H491 C499 0.951 . S
H492 C500 0.951 1_565 S
C493 C487 1.265 . S
C493 H488 0.950 1_545 S
C493 C494 1.478 . S
C494 C481 1.394 . S
C494 C493 1.478 . S
C494 C495 1.397 . S
C495 C494 1.397 . S
C495 C496 1.438 . S
C495 C500 1.429 . S
C496 C479 1.394 . S
C496 C495 1.438 . S
C496 C497 1.428 . S
C497 H489 0.949 . S
C497 C496 1.428 . S
C497 C498 1.345 1_545 S
C498 H490 0.950 . S
C498 C497 1.345 1_565 S
C498 C499 1.424 . S
C499 H491 0.951 . S
C499 C498 1.424 . S
C499 C500 1.347 1_565 S
C500 H492 0.951 1_545 S
C500 C495 1.429 . S
C500 C499 1.347 1_545 S
H501 C502 0.951 . S
C502 H501 0.951 . S
C502 C508 1.275 . S
H503 C508 0.950 . S
H504 C512 0.949 . S
H505 C513 0.950 . S
H506 C514 0.951 1_554 S
H507 C515 0.951 1_554 S
C508 C502 1.275 . S
C508 H503 0.950 . S
C508 C509 1.478 . S
C509 C508 1.478 . S
C509 C510 1.397 . S
C509 C526 1.394 . S
C510 C509 1.397 . S
C510 C511 1.438 . S
C510 C515 1.429 . S
C511 C510 1.438 . S
C511 C512 1.428 . S
C511 C524 1.394 . S
C512 H504 0.949 . S
C512 C511 1.428 . S
C512 C513 1.345 . S
C513 H505 0.950 . S
C513 C512 1.345 . S
C513 C514 1.424 . S
C514 H506 0.951 1_556 S
C514 C513 1.424 . S
C514 C515 1.347 . S
C515 H507 0.951 1_556 S
C515 C510 1.429 . S
C515 C514 1.347 . S
H516 C517 0.951 . S
C517 H516 0.951 . S
C517 C523 1.265 . S
H518 C523 0.950 . S
H519 C527 0.949 . S
H520 C528 0.950 . S
H521 C529 0.951 . S
H522 C530 0.951 . S
C523 C517 1.265 . S
C523 H518 0.950 . S
C523 C524 1.478 . S
C524 C511 1.394 . S
C524 C523 1.478 . S
C524 C525 1.397 . S
C525 C524 1.397 . S
C525 C526 1.438 . S
C525 C530 1.429 . S
C526 C509 1.394 . S
C526 C525 1.438 . S
C526 C527 1.428 . S
C527 H519 0.949 . S
C527 C526 1.428 . S
C527 C528 1.345 . S
C528 H520 0.950 . S
C528 C527 1.345 . S
C528 C529 1.424 . S
C529 H521 0.951 . S
C529 C528 1.424 . S
C529 C530 1.347 . S
C530 H522 0.951 . S
C530 C525 1.429 . S
C530 C529 1.347 . S
H531 C532 0.951 1_655 S
C532 H531 0.951 1_455 S
C532 C538 1.265 . S
H533 C538 0.950 . S
H534 C542 0.949 . S
H535 C543 0.950 . S
H536 C544 0.951 . S
H537 C545 0.951 . S
C538 C532 1.265 . S
C538 H533 0.950 . S
C538 C539 1.478 . S
C539 C538 1.478 . S
C539 C540 1.397 . S
C539 C556 1.394 . S
C540 C539 1.397 . S
C540 C541 1.438 . S
C540 C545 1.429 . S
C541 C540 1.438 . S
C541 C542 1.428 . S
C541 C554 1.394 . S
C542 H534 0.949 . S
C542 C541 1.428 . S
C542 C543 1.345 . S
C543 H535 0.950 . S
C543 C542 1.345 . S
C543 C544 1.424 . S
C544 H536 0.951 . S
C544 C543 1.424 . S
C544 C545 1.347 . S
C545 H537 0.951 . S
C545 C540 1.429 . S
C545 C544 1.347 . S
H546 C547 0.951 . S
C547 H546 0.951 . S
C547 C553 1.265 . S
H548 C553 0.950 1_655 S
H549 C557 0.949 . S
H550 C558 0.950 . S
H551 C559 0.951 . S
H552 C560 0.951 . S
C553 C547 1.265 . S
C553 H548 0.950 1_455 S
C553 C554 1.478 . S
C554 C541 1.394 . S
C554 C553 1.478 . S
C554 C555 1.397 . S
C555 C554 1.397 . S
C555 C556 1.438 . S
C555 C560 1.429 1_455 S
C556 C539 1.394 . S
C556 C555 1.438 . S
C556 C557 1.428 . S
C557 H549 0.949 . S
C557 C556 1.428 . S
C557 C558 1.345 1_455 S
C558 H550 0.950 . S
C558 C557 1.345 1_655 S
C558 C559 1.424 . S
C559 H551 0.951 . S
C559 C558 1.424 . S
C559 C560 1.347 . S
C560 H552 0.951 . S
C560 C555 1.429 1_655 S
C560 C559 1.347 . S
C217 C64 1.436 . S
C202 C0 1.452 . S
C232 C25 1.488 . S
C247 C134 1.473 . S
C262 C33 1.487 . S
C277 C186 1.491 . S
C292 C11 1.428 . S
C307 C80 1.437 . S
C337 C124 1.481 . S
C322 C14 1.453 . S
C352 C37 1.472 . S
C367 C170 1.502 . S
C397 C117 1.466 . S
C382 C28 1.484 . S
C412 C9 1.473 . S
C427 C177 1.500 . S
C457 C71 1.519 . S
C442 C19 1.527 . S
C487 C133 1.485 . S
C472 C39 1.479 . S
C517 C187 1.501 . S
C502 C5 1.494 1_556 S
C532 C23 1.514 . S
C547 C81 1.542 . S
