# Generated by pormake.
# Topology soc, (4,6)-cn, num edge types: 1
# Building blocks:
#     Node 0, Type 0, BuildingBlock: ESEHIV_clean_sbu_0, # of connection points: 4
#     Node 1, Type 0, BuildingBlock: ESEHIV_clean_sbu_0, # of connection points: 4
#     Node 2, Type 0, BuildingBlock: ESEHIV_clean_sbu_0, # of connection points: 4
#     Node 3, Type 0, BuildingBlock: ESEHIV_clean_sbu_0, # of connection points: 4
#     Node 4, Type 0, BuildingBlock: ESEHIV_clean_sbu_0, # of connection points: 4
#     Node 5, Type 0, BuildingBlock: ESEHIV_clean_sbu_0, # of connection points: 4
#     Node 6, Type 0, BuildingBlock: ESEHIV_clean_sbu_0, # of connection points: 4
#     Node 7, Type 0, BuildingBlock: ESEHIV_clean_sbu_0, # of connection points: 4
#     Node 8, Type 0, BuildingBlock: ESEHIV_clean_sbu_0, # of connection points: 4
#     Node 9, Type 0, BuildingBlock: ESEHIV_clean_sbu_0, # of connection points: 4
#     Node 10, Type 0, BuildingBlock: ESEHIV_clean_sbu_0, # of connection points: 4
#     Node 11, Type 0, BuildingBlock: ESEHIV_clean_sbu_0, # of connection points: 4
#     Node 12, Type 1, BuildingBlock: GEDQOX_clean_sbu_0, # of connection points: 6
#     Node 13, Type 1, BuildingBlock: GEDQOX_clean_sbu_0, # of connection points: 6
#     Node 14, Type 1, BuildingBlock: GEDQOX_clean_sbu_0, # of connection points: 6
#     Node 15, Type 1, BuildingBlock: GEDQOX_clean_sbu_0, # of connection points: 6
#     Node 16, Type 1, BuildingBlock: GEDQOX_clean_sbu_0, # of connection points: 6
#     Node 17, Type 1, BuildingBlock: GEDQOX_clean_sbu_0, # of connection points: 6
#     Node 18, Type 1, BuildingBlock: GEDQOX_clean_sbu_0, # of connection points: 6
#     Node 19, Type 1, BuildingBlock: GEDQOX_clean_sbu_0, # of connection points: 6
#     Edge 20, Type (0, 1), BuildingBlock: MIFKUJ_clean_linker_0, # of connection points: 2
#     Edge 21, Type (0, 1), BuildingBlock: MIFKUJ_clean_linker_0, # of connection points: 2
#     Edge 22, Type (0, 1), BuildingBlock: MIFKUJ_clean_linker_0, # of connection points: 2
#     Edge 23, Type (0, 1), BuildingBlock: MIFKUJ_clean_linker_0, # of connection points: 2
#     Edge 24, Type (0, 1), BuildingBlock: MIFKUJ_clean_linker_0, # of connection points: 2
#     Edge 25, Type (0, 1), BuildingBlock: MIFKUJ_clean_linker_0, # of connection points: 2
#     Edge 26, Type (0, 1), BuildingBlock: MIFKUJ_clean_linker_0, # of connection points: 2
#     Edge 27, Type (0, 1), BuildingBlock: MIFKUJ_clean_linker_0, # of connection points: 2
#     Edge 28, Type (0, 1), BuildingBlock: MIFKUJ_clean_linker_0, # of connection points: 2
#     Edge 29, Type (0, 1), BuildingBlock: MIFKUJ_clean_linker_0, # of connection points: 2
#     Edge 30, Type (0, 1), BuildingBlock: MIFKUJ_clean_linker_0, # of connection points: 2
#     Edge 31, Type (0, 1), BuildingBlock: MIFKUJ_clean_linker_0, # of connection points: 2
#     Edge 32, Type (0, 1), BuildingBlock: MIFKUJ_clean_linker_0, # of connection points: 2
#     Edge 33, Type (0, 1), BuildingBlock: MIFKUJ_clean_linker_0, # of connection points: 2
#     Edge 34, Type (0, 1), BuildingBlock: MIFKUJ_clean_linker_0, # of connection points: 2
#     Edge 35, Type (0, 1), BuildingBlock: MIFKUJ_clean_linker_0, # of connection points: 2
#     Edge 36, Type (0, 1), BuildingBlock: MIFKUJ_clean_linker_0, # of connection points: 2
#     Edge 37, Type (0, 1), BuildingBlock: MIFKUJ_clean_linker_0, # of connection points: 2
#     Edge 38, Type (0, 1), BuildingBlock: MIFKUJ_clean_linker_0, # of connection points: 2
#     Edge 39, Type (0, 1), BuildingBlock: MIFKUJ_clean_linker_0, # of connection points: 2
#     Edge 40, Type (0, 1), BuildingBlock: MIFKUJ_clean_linker_0, # of connection points: 2
#     Edge 41, Type (0, 1), BuildingBlock: MIFKUJ_clean_linker_0, # of connection points: 2
#     Edge 42, Type (0, 1), BuildingBlock: MIFKUJ_clean_linker_0, # of connection points: 2
#     Edge 43, Type (0, 1), BuildingBlock: MIFKUJ_clean_linker_0, # of connection points: 2
#     Edge 44, Type (0, 1), BuildingBlock: MIFKUJ_clean_linker_0, # of connection points: 2
#     Edge 45, Type (0, 1), BuildingBlock: MIFKUJ_clean_linker_0, # of connection points: 2
#     Edge 46, Type (0, 1), BuildingBlock: MIFKUJ_clean_linker_0, # of connection points: 2
#     Edge 47, Type (0, 1), BuildingBlock: MIFKUJ_clean_linker_0, # of connection points: 2
#     Edge 48, Type (0, 1), BuildingBlock: MIFKUJ_clean_linker_0, # of connection points: 2
#     Edge 49, Type (0, 1), BuildingBlock: MIFKUJ_clean_linker_0, # of connection points: 2
#     Edge 50, Type (0, 1), BuildingBlock: MIFKUJ_clean_linker_0, # of connection points: 2
#     Edge 51, Type (0, 1), BuildingBlock: MIFKUJ_clean_linker_0, # of connection points: 2
#     Edge 52, Type (0, 1), BuildingBlock: MIFKUJ_clean_linker_0, # of connection points: 2
#     Edge 53, Type (0, 1), BuildingBlock: MIFKUJ_clean_linker_0, # of connection points: 2
#     Edge 54, Type (0, 1), BuildingBlock: MIFKUJ_clean_linker_0, # of connection points: 2
#     Edge 55, Type (0, 1), BuildingBlock: MIFKUJ_clean_linker_0, # of connection points: 2
#     Edge 56, Type (0, 1), BuildingBlock: MIFKUJ_clean_linker_0, # of connection points: 2
#     Edge 57, Type (0, 1), BuildingBlock: MIFKUJ_clean_linker_0, # of connection points: 2
#     Edge 58, Type (0, 1), BuildingBlock: MIFKUJ_clean_linker_0, # of connection points: 2
#     Edge 59, Type (0, 1), BuildingBlock: MIFKUJ_clean_linker_0, # of connection points: 2
#     Edge 60, Type (0, 1), BuildingBlock: MIFKUJ_clean_linker_0, # of connection points: 2
#     Edge 61, Type (0, 1), BuildingBlock: MIFKUJ_clean_linker_0, # of connection points: 2
#     Edge 62, Type (0, 1), BuildingBlock: MIFKUJ_clean_linker_0, # of connection points: 2
#     Edge 63, Type (0, 1), BuildingBlock: MIFKUJ_clean_linker_0, # of connection points: 2
#     Edge 64, Type (0, 1), BuildingBlock: MIFKUJ_clean_linker_0, # of connection points: 2
#     Edge 65, Type (0, 1), BuildingBlock: MIFKUJ_clean_linker_0, # of connection points: 2
#     Edge 66, Type (0, 1), BuildingBlock: MIFKUJ_clean_linker_0, # of connection points: 2
#     Edge 67, Type (0, 1), BuildingBlock: MIFKUJ_clean_linker_0, # of connection points: 2
# Relax obj value: 0.174
# Max RMSD: 0.218
# Mean RMSD: 0.169
data_MOF--net-soc--node1-ESEHIV_clean_sbu_0--node2-GEDQOX_clean_sbu_0--edge1-MIFKUJ_clean_linker_0
_symmetry_space_group_name_H-M    P1
_symmetry_Int_Tables_number       1
_symmetry_cell_setting            triclinic
loop_
_symmetry_equiv_pos_as_xyz
'x, y, z'
_cell_length_a     57.019478
_cell_length_b     58.973146
_cell_length_c     64.825556
_cell_angle_alpha  93.816254
_cell_angle_beta   100.94342
_cell_angle_gamma 85.998352
loop_
_atom_site_label
_atom_site_type_symbol
_atom_site_fract_x
_atom_site_fract_y
_atom_site_fract_z
_atom_type_partial_charge
Cu0 Cu 0.05238 0.09648 0.27777 0.0
N1 N 0.06786 0.1164 0.26311 0.0
N2 N 0.0904 0.14504 0.25828 0.0
C3 C 0.08305 0.13245 0.27241 0.0
C4 C 0.07948 0.1364 0.23934 0.0
C5 C 0.0658 0.11884 0.24233 0.0
O6 O 0.07876 0.07502 0.29127 0.0
C7 C 1.01918 0.13237 0.2824 0.0
O8 O 1.01961 0.13157 0.26219 0.0
H9 H 0.08812 0.1352 0.2893 0.0
H10 H 0.05503 0.1087 0.23011 0.0
N11 N 1.0296 0.07682 0.26174 0.0
N12 N 1.00312 0.0491 0.25513 0.0
C13 C 1.02007 0.0595 0.26958 0.0
C14 C 1.0181 0.07751 0.24163 0.0
C15 C 1.002 0.06053 0.23752 0.0
C16 C 0.09036 0.06454 0.27794 0.0
O17 O 0.08368 0.0692 0.25807 0.0
H18 H 1.02544 0.05476 0.2857 0.0
H19 H 1.02063 0.08987 0.2308 0.0
O20 O 1.03279 0.11788 0.29387 0.0
H21 H 0.08136 0.14223 0.22429 0.0
H22 H 0.98984 0.05741 0.22278 0.0
Cu23 Cu 1.03473 0.0799 0.76905 0.0
N24 N 1.01101 0.06056 0.75426 0.0
N25 N 0.9822 0.03522 0.74938 0.0
C26 C 0.99707 0.04821 0.76349 0.0
C27 C 0.98712 0.03976 0.7305 0.0
C28 C 1.00479 0.05519 0.73355 0.0
O29 O 1.0164 0.10357 0.78441 0.0
C30 C 0.06928 0.04473 0.76841 0.0
O31 O 0.06059 0.04831 0.74856 0.0
H32 H 0.99824 0.04852 0.78035 0.0
H33 H 1.0127 0.06174 0.72145 0.0
N34 N 0.05013 0.09762 0.75278 0.0
N35 N 0.07585 0.12251 0.74624 0.0
C36 C 0.06979 0.10936 0.76059 0.0
C37 C 0.04345 0.10357 0.73275 0.0
C38 C 0.05924 0.11872 0.72866 0.0
C39 C 0.99823 0.1132 0.77252 0.0
O40 O 0.99349 0.10622 0.75259 0.0
H41 H 0.07888 0.10886 0.77681 0.0
H42 H 1.0278 0.09794 0.72201 0.0
O43 O 0.06079 0.05776 0.78232 0.0
H44 H 0.97857 0.03258 0.71539 0.0
H45 H 0.05828 0.12647 0.71384 0.0
Cu46 Cu 0.2387 0.03989 0.00288 0.0
N47 N 0.26371 1.02127 -0.00454 0.0
N48 N 0.2837 0.99073 0.98368 0.0
C49 C 0.26204 1.00043 0.98582 0.0
C50 C 0.29954 1.00627 0.99245 0.0
C51 C 0.28714 1.02506 -0.00031 0.0
O52 O 0.21496 1.02045 0.00834 0.0
C53 C 0.22798 0.05757 0.96253 0.0
O54 O 0.23296 0.03647 0.9562 0.0
H55 H 0.24512 0.9928 0.98033 0.0
H56 H 0.29466 0.04031 0.00772 0.0
N57 N 0.25041 0.05481 0.02842 0.0
N58 N 0.25443 0.08028 0.05558 0.0
C59 C 0.2437 0.07575 0.03547 0.0
C60 C 0.26578 0.04575 0.04455 0.0
C61 C 0.26842 0.06149 0.06133 0.0
C62 C 0.20078 0.02772 0.02056 0.0
O63 O 0.19654 0.04981 0.02318 0.0
H64 H 0.23099 0.08724 0.02612 0.0
H65 H 0.27396 0.02865 0.04426 0.0
O66 O 0.22774 0.06222 0.98193 0.0
H67 H 0.31875 1.00429 -0.00623 0.0
H68 H 0.27917 0.05902 0.07676 0.0
Cu69 Cu 0.08737 0.33519 0.00829 0.0
N70 N 0.10909 0.32044 0.99173 0.0
N71 N 0.1339 0.31526 0.96826 0.0
C72 C 0.11681 0.32911 0.97546 0.0
C73 C 0.13689 0.29716 0.98036 0.0
C74 C 0.12161 0.3003 -0.0054 0.0
O75 O 0.1063 0.35318 0.03188 0.0
C76 C 0.05179 0.33819 0.97291 0.0
O77 O 0.06073 0.3172 0.97087 0.0
H78 H 0.11059 0.34559 0.96946 0.0
H79 H 0.12035 0.28886 0.00663 0.0
N80 N 0.07128 0.31599 0.02246 0.0
N81 N 0.04792 0.30747 0.0449 0.0
C82 C 0.05566 0.32408 0.03487 0.0
C83 C 0.07338 0.29335 0.02458 0.0
C84 C 0.05909 0.28807 0.03844 0.0
C85 C 0.12277 0.34147 0.0436 0.0
O86 O 0.12606 0.31975 0.03845 0.0
H87 H 0.05074 0.34202 0.03706 0.0
H88 H 0.08471 0.28148 0.01692 0.0
O89 O 0.06124 0.3508 0.98875 0.0
H90 H 0.14937 0.28267 0.97906 0.0
H91 H 0.05712 0.27125 0.0434 0.0
Cu92 Cu 0.78497 0.08042 0.07992 0.0
N93 N 0.76688 0.09467 0.0569 0.0
N94 N 0.75777 0.11691 0.02961 0.0
C95 C 0.77361 0.11192 0.04722 0.0
C96 C 0.7402 0.10238 0.02838 0.0
C97 C 0.74592 0.08863 0.04523 0.0
O98 O 0.79954 0.10422 0.09955 0.0
C99 C 0.82043 0.06294 0.05672 0.0
O100 O 0.8227 0.08445 0.05384 0.0
H101 H 0.79012 0.12027 0.05278 0.0
H102 H 0.73598 0.07466 0.04833 0.0
N103 N 0.76473 0.06527 0.09301 0.0
N104 N 0.75249 0.04029 0.11248 0.0
C105 C 0.76931 0.04484 0.10148 0.0
C106 C 0.74423 0.07385 0.09862 0.0
C107 C 0.73665 0.05848 0.1107 0.0
C108 C 0.80275 0.10274 0.11942 0.0
O109 O 0.79977 0.08325 0.12699 0.0
H110 H 0.78547 0.03425 0.10078 0.0
H111 H 0.73601 0.09055 0.09498 0.0
O112 O 0.80687 0.05798 0.06906 0.0
H113 H 0.72491 0.10101 0.0157 0.0
H114 H 0.72112 0.06079 0.11815 0.0
Cu115 Cu 0.03818 0.8255 0.02315 0.0
N116 N 1.0165 0.84449 0.0058 0.0
N117 N 0.98597 0.85558 0.98072 0.0
C118 C 0.99606 0.83857 0.99305 0.0
C119 C 1.00063 0.87289 0.98605 0.0
C120 C 1.01943 0.86599 0.00148 0.0
O121 O 1.02135 0.80369 0.03467 0.0
C122 C 0.07939 0.82023 0.00544 0.0
O123 O 0.08343 0.84024 0.01513 0.0
H124 H 0.98939 0.82174 0.99203 0.0
H125 H 1.03465 0.87566 0.0085 0.0
N126 N 0.05476 0.84184 0.04637 0.0
N127 N 0.08142 0.84897 0.07571 0.0
C128 C 0.07455 0.83403 0.05935 0.0
C129 C 0.04874 0.86236 0.05485 0.0
C130 C 0.0652 0.86683 0.07296 0.0
C131 C 1.01057 0.78681 0.02508 0.0
O132 O 1.01025 0.78252 0.00489 0.0
H133 H 0.08329 0.81739 0.05712 0.0
H134 H 1.03319 0.87307 0.04858 0.0
O135 O 0.06054 0.81055 0.00684 0.0
H136 H 0.99827 0.88921 0.97898 0.0
H137 H 0.06516 0.882 0.08332 0.0
Cu138 Cu 0.53825 0.57953 0.77559 0.0
N139 N 0.5537 0.59664 0.75875 0.0
N140 N 0.57762 0.62299 0.75177 0.0
C141 C 0.57214 0.61001 0.7665 0.0
C142 C 0.56206 0.61739 0.73399 0.0
C143 C 0.54745 0.6012 0.73829 0.0
O144 O 0.56517 0.56153 0.79247 0.0
C145 C 0.5015 0.61246 0.77449 0.0
O146 O 0.49997 0.60458 0.75487 0.0
H147 H 0.58059 0.61102 0.78294 0.0
H148 H 0.53268 0.594 0.72745 0.0
N149 N 0.51696 0.5574 0.76146 0.0
N150 N 0.49109 0.52937 0.75722 0.0
C151 C 0.50174 0.54612 0.77034 0.0
C152 C 0.51557 0.54756 0.74196 0.0
C153 C 0.49982 0.53032 0.73935 0.0
C154 C 0.57638 0.54741 0.78126 0.0
O155 O 0.56915 0.54633 0.76077 0.0
H156 H 0.49934 0.54945 0.78645 0.0
H157 H 0.52595 0.55201 0.73064 0.0
O158 O 0.51771 0.60309 0.7884 0.0
H159 H 0.56103 0.62474 0.71895 0.0
H160 H 0.49535 0.51913 0.72543 0.0
Cu161 Cu 0.55454 0.5934 0.27365 0.0
N162 N 0.52959 0.5757 0.25855 0.0
N163 N 0.49858 0.55289 0.25356 0.0
C164 C 0.51684 0.56188 0.26753 0.0
C165 C 0.50006 0.56141 0.23503 0.0
C166 C 0.51901 0.57542 0.23814 0.0
O167 O 0.53631 0.61809 0.28811 0.0
C168 C 0.58515 0.55376 0.27576 0.0
O169 O 0.57407 0.55286 0.25604 0.0
H170 H 0.52045 0.55917 0.28421 0.0
H171 H 0.52417 0.58521 0.2264 0.0
N172 N 0.57175 0.60955 0.25752 0.0
N173 N 0.59676 0.63483 0.2505 0.0
C174 C 0.58672 0.62621 0.26543 0.0
C175 C 0.5726 0.60739 0.23687 0.0
C176 C 0.5878 0.62298 0.2325 0.0
C177 C 0.5228 0.63092 0.27481 0.0
O178 O 0.52337 0.62638 0.25479 0.0
H179 H 0.58999 0.63202 0.28186 0.0
H180 H 0.56315 0.59517 0.22576 0.0
O181 O 0.57933 0.57058 0.28792 0.0
H182 H 0.4882 0.55794 0.22019 0.0
H183 H 0.5923 0.62505 0.21728 0.0
Cu184 Cu 0.83253 0.59426 0.47326 0.0
N185 N 0.81729 0.61382 0.45261 0.0
N186 N 0.812 0.63969 0.42814 0.0
C187 C 0.8267 0.63127 0.44514 0.0
C188 C 0.79261 0.62711 0.42488 0.0
C189 C 0.79593 0.61121 0.43998 0.0
O190 O 0.85422 0.61186 0.49404 0.0
C191 C 0.86171 0.55303 0.46586 0.0
O192 O 0.87043 0.55332 0.4861 0.0
H193 H 0.84449 0.63683 0.45133 0.0
H194 H 0.78403 0.59804 0.44117 0.0
N195 N 0.81001 0.58317 0.48713 0.0
N196 N 0.79507 0.56366 0.50971 0.0
C197 C 0.81279 0.56458 0.49861 0.0
C198 C 0.78961 0.59417 0.49076 0.0
C199 C 0.78034 0.5822 0.50462 0.0
C200 C 0.8627 0.60491 0.51228 0.0
O201 O 0.85981 0.58387 0.51625 0.0
H202 H 0.82835 0.55283 0.49993 0.0
H203 H 0.78261 0.61039 0.4846 0.0
O204 O 0.84708 0.56903 0.45838 0.0
H205 H 0.77734 0.62896 0.4122 0.0
H206 H 0.76441 0.58723 0.51098 0.0
Cu207 Cu 0.54237 0.91892 0.53946 0.0
N208 N 0.56081 0.93326 0.52407 0.0
N209 N 0.58516 0.93722 0.50157 0.0
C210 C 0.57357 0.92253 0.51053 0.0
C211 C 0.57949 0.95804 0.5098 0.0
C212 C 0.5643 0.95556 0.52361 0.0
O213 O 0.56406 0.89965 0.55863 0.0
C214 C 0.50317 0.88992 0.52196 0.0
O215 O 0.50112 0.88581 0.54119 0.0
H216 H 0.57456 0.90423 0.50757 0.0
H217 H 0.55628 0.96908 0.53253 0.0
N218 N 0.52709 0.94069 0.55531 0.0
N219 N 0.50142 0.95542 0.57537 0.0
C220 C 0.50504 0.94009 0.55972 0.0
C221 C 0.53768 0.95722 0.56838 0.0
C222 C 0.52188 0.96638 0.58075 0.0
C223 C 0.5588 0.89356 0.57558 0.0
O224 O 0.53704 0.89827 0.5792 0.0
H225 H 0.49277 0.92722 0.55309 0.0
H226 H 0.55622 0.9611 0.56994 0.0
O227 O 0.51938 0.90244 0.51897 0.0
H228 H 0.5856 0.97391 0.50589 0.0
H229 H 0.52574 0.97898 0.59365 0.0
Cu230 Cu 0.35972 0.64406 0.5882 0.0
N231 N 0.33921 0.67006 0.58436 0.0
N232 N 0.32545 0.70457 0.57405 0.0
C233 C 0.34417 0.68914 0.57626 0.0
C234 C 0.30771 0.69467 0.58053 0.0
C235 C 0.31632 0.67333 0.58698 0.0
O236 O 0.39306 0.65189 0.59139 0.0
C237 C 0.3596 0.6232 0.54699 0.0
O238 O 0.37377 0.63921 0.5449 0.0
H239 H 0.36073 0.69115 0.57089 0.0
H240 H 0.30623 0.66072 0.59225 0.0
N241 N 0.35572 0.62897 0.61143 0.0
N242 N 0.35987 0.60134 0.63396 0.0
C243 C 0.36695 0.60894 0.61708 0.0
C244 C 0.341 0.63437 0.62519 0.0
C245 C 0.34356 0.61738 0.63915 0.0
C246 C 0.40296 0.66917 0.60141 0.0
O247 O 0.42511 0.6726 0.60004 0.0
H248 H 0.37982 0.60005 0.60867 0.0
H249 H 0.32919 0.64952 0.6251 0.0
O250 O 0.35174 0.62276 0.56405 0.0
H251 H 0.28964 0.70197 0.57983 0.0
H252 H 0.33348 0.61654 0.65161 0.0
Cu253 Cu 0.50907 0.32021 0.55201 0.0
N254 N 0.52869 0.30136 0.53681 0.0
N255 N 0.5548 0.29288 0.51499 0.0
C256 C 0.53981 0.30902 0.52221 0.0
C257 C 0.55292 0.27427 0.52555 0.0
C258 C 0.53697 0.27957 0.53904 0.0
O259 O 0.53263 0.33604 0.57353 0.0
C260 C 0.47517 0.32434 0.51616 0.0
O261 O 0.47783 0.30236 0.51883 0.0
H262 H 0.53713 0.32632 0.51727 0.0
H263 H 0.53245 0.26856 0.5502 0.0
N264 N 0.48921 0.30447 0.5661 0.0
N265 N 0.46342 0.29773 0.58714 0.0
C266 C 0.47718 0.31315 0.58128 0.0
C267 C 0.48292 0.28279 0.56238 0.0
C268 C 0.46713 0.27863 0.57521 0.0
C269 C 0.54356 0.32339 0.5881 0.0
O270 O 0.53688 0.30252 0.58813 0.0
H271 H 0.47808 0.33062 0.58753 0.0
H272 H 0.48905 0.27089 0.55086 0.0
O273 O 0.48755 0.33748 0.52996 0.0
H274 H 0.56303 0.25818 0.52428 0.0
H275 H 0.45908 0.26264 0.57575 0.0
Nd276 Nd 0.30515 0.34315 0.26984 0.0
Nd277 Nd 0.27574 0.37912 0.29896 0.0
C278 C 0.31745 0.32072 0.2368 0.0
C279 C 0.30453 0.30803 0.21847 0.0
C280 C 0.28194 0.30013 0.21878 0.0
C281 C 0.27092 0.28587 0.20227 0.0
C282 C 0.28236 0.27933 0.18524 0.0
C283 C 0.30425 0.28855 0.1844 0.0
C284 C 0.31529 0.30275 0.20095 0.0
C285 C 0.3272 0.34514 0.31202 0.0
C286 C 0.25702 0.32661 0.2857 0.0
C287 C 0.26342 0.40255 0.33182 0.0
C288 C 0.27381 0.4175 0.34988 0.0
C289 C 0.29743 0.42403 0.35251 0.0
C290 C 0.30653 0.43918 0.36922 0.0
C291 C 0.29201 0.44843 0.38342 0.0
C292 C 0.26835 0.44165 0.38066 0.0
C293 C 0.25943 0.42627 0.36415 0.0
C294 C 0.25353 0.3768 0.25671 0.0
C295 C 0.3229 0.39558 0.28093 0.0
O296 O 0.31283 0.34283 0.23759 0.0
O297 O 0.31867 0.31154 0.25491 0.0
O298 O 0.33483 0.33147 0.29781 0.0
O299 O 0.30859 0.35597 0.30323 0.0
O300 O 0.27283 0.32315 0.27301 0.0
O301 O 0.25592 0.34546 0.29822 0.0
O302 O 0.27059 0.3809 0.33213 0.0
O303 O 0.26123 0.41082 0.31322 0.0
O304 O 0.24537 0.38987 0.27106 0.0
O305 O 0.27253 0.36654 0.26553 0.0
O306 O 0.30738 0.39991 0.29392 0.0
O307 O 0.32388 0.37628 0.2693 0.0
H308 H 0.27328 0.30428 0.23216 0.0
H309 H 0.25415 0.27895 0.20345 0.0
H310 H 0.31327 0.28411 0.17128 0.0
H311 H 0.33259 0.30896 0.2004 0.0
H312 H 0.30868 0.41772 0.34144 0.0
H313 H 0.32491 0.44367 0.37095 0.0
H314 H 0.25644 0.44862 0.39095 0.0
H315 H 0.24107 0.42159 0.36225 0.0
Nd316 Nd 0.78436 0.33019 0.29641 0.0
Nd317 Nd 0.81919 0.35114 0.27047 0.0
C318 C 0.74636 0.3268 0.31409 0.0
C319 C 0.73571 0.32467 0.33312 0.0
C320 C 0.71858 0.34146 0.338 0.0
C321 C 0.70601 0.33888 0.35421 0.0
C322 C 0.71015 0.31936 0.36611 0.0
C323 C 0.72772 0.30274 0.36149 0.0
C324 C 0.7403 0.30533 0.34517 0.0
C325 C 0.82708 0.30331 0.30001 0.0
C326 C 0.82664 0.36357 0.32058 0.0
C327 C 0.84866 0.36181 0.24584 0.0
C328 C 0.86257 0.35466 0.22907 0.0
C329 C 0.87136 0.33209 0.22583 0.0
C330 C 0.88547 0.32646 0.21035 0.0
C331 C 0.89112 0.34327 0.19782 0.0
C332 C 0.88208 0.36579 0.20122 0.0
C333 C 0.868 0.37134 0.21655 0.0
C334 C 0.7795 0.37891 0.27733 0.0
C335 C 0.78717 0.30777 0.24987 0.0
O336 O 0.75484 0.34627 0.31143 0.0
O337 O 0.75816 0.30921 0.30669 0.0
O338 O 0.80961 0.29955 0.30947 0.0
O339 O 0.82153 0.32132 0.29022 0.0
O340 O 0.8059 0.35475 0.32071 0.0
O341 O 0.83715 0.3617 0.30396 0.0
O342 O 0.85598 0.35399 0.2646 0.0
O343 O 0.8253 0.36428 0.2406 0.0
O344 O 0.80058 0.38596 0.27755 0.0
O345 O 0.77952 0.35761 0.27257 0.0
O346 O 0.80578 0.31989 0.24981 0.0
O347 O 0.77371 0.31089 0.26446 0.0
H348 H 0.71434 0.35638 0.32878 0.0
H349 H 0.69241 0.3519 0.35691 0.0
H350 H 0.73172 0.28762 0.37041 0.0
H351 H 0.75327 0.29198 0.34177 0.0
H352 H 0.86745 0.31888 0.2353 0.0
H353 H 0.89181 0.30889 0.20814 0.0
H354 H 0.88629 0.37938 0.19234 0.0
H355 H 0.86163 0.3889 0.21887 0.0
Nd356 Nd 0.81018 0.8424 0.29285 0.0
Nd357 Nd 0.81273 0.82711 0.24711 0.0
C358 C 0.80831 0.84572 0.33344 0.0
C359 C 0.78988 0.85305 0.34577 0.0
C360 C 0.79632 0.85761 0.3675 0.0
C361 C 0.77885 0.86495 0.37931 0.0
C362 C 0.75469 0.86776 0.3695 0.0
C363 C 0.74835 0.86317 0.34767 0.0
C364 C 0.76585 0.85593 0.33587 0.0
C365 C 0.78348 0.87034 0.26375 0.0
C366 C 0.77211 0.806 0.26672 0.0
C367 C 0.81397 0.82192 0.20641 0.0
C368 C 0.82924 0.81111 0.19204 0.0
C369 C 0.8503 0.8208 0.1896 0.0
C370 C 0.86399 0.81082 0.17531 0.0
C371 C 0.85693 0.79095 0.16313 0.0
C372 C 0.83592 0.78123 0.16567 0.0
C373 C 0.82218 0.79125 0.1799 0.0
C374 C 0.83748 0.79826 0.27689 0.0
C375 C 0.84859 0.86616 0.27165 0.0
O376 O 0.80467 0.82698 0.32168 0.0
O377 O 0.81578 0.86171 0.32373 0.0
O378 O 0.79257 0.87725 0.28276 0.0
O379 O 0.78595 0.84902 0.26163 0.0
O380 O 0.78488 0.81238 0.28522 0.0
O381 O 0.7762 0.81402 0.24925 0.0
O382 O 0.8217 0.83971 0.21824 0.0
O383 O 0.8033 0.8083 0.21624 0.0
O384 O 0.82842 0.79178 0.25774 0.0
O385 O 0.83639 0.8197 0.27855 0.0
O386 O 0.83621 0.8583 0.25352 0.0
O387 O 0.84496 0.85895 0.28968 0.0
H388 H 0.81483 0.85545 0.37533 0.0
H389 H 0.78417 0.86816 0.39614 0.0
H390 H 0.72991 0.86539 0.3397 0.0
H391 H 0.76065 0.85259 0.31904 0.0
H392 H 0.85612 0.83624 0.19853 0.0
H393 H 0.87984 0.819 0.17347 0.0
H394 H 0.83009 0.76583 0.15668 0.0
H395 H 0.80591 0.78352 0.18133 0.0
Nd396 Nd 0.31921 0.85999 0.27899 0.0
Nd397 Nd 0.29273 0.83154 0.29799 0.0
C398 C 0.33485 0.89431 0.26242 0.0
C399 C 0.32132 0.90842 0.24576 0.0
C400 C 0.2965 0.91268 0.24428 0.0
C401 C 0.2828 0.92292 0.22682 0.0
C402 C 0.29357 0.92887 0.21033 0.0
C403 C 0.31852 0.92512 0.21207 0.0
C404 C 0.33228 0.91497 0.22966 0.0
C405 C 0.33925 0.81543 0.27887 0.0
C406 C 0.27821 0.83332 0.24865 0.0
C407 C 0.27892 0.80294 0.32211 0.0
C408 C 0.28925 0.79749 0.34399 0.0
C409 C 0.31179 0.7858 0.3491 0.0
C410 C 0.32278 0.78373 0.37013 0.0
C411 C 0.3116 0.79363 0.38631 0.0
C412 C 0.28891 0.80484 0.38125 0.0
C413 C 0.27775 0.80658 0.3603 0.0
C414 C 0.26571 0.87138 0.28712 0.0
C415 C 0.33523 0.85804 0.32905 0.0
O416 O 0.3276 0.89631 0.28043 0.0
O417 O 0.33912 0.87312 0.25643 0.0
O418 O 0.33571 0.8282 0.26292 0.0
O419 O 0.33158 0.82612 0.29408 0.0
O420 O 0.28757 0.85322 0.2525 0.0
O421 O 0.28166 0.81863 0.26352 0.0
O422 O 0.29145 0.79626 0.3076 0.0
O423 O 0.26958 0.82369 0.31995 0.0
O424 O 0.25768 0.85117 0.28397 0.0
O425 O 0.28779 0.87014 0.29547 0.0
O426 O 0.31553 0.84727 0.3278 0.0
O427 O 0.34212 0.86378 0.31194 0.0
H428 H 0.28749 0.90729 0.25626 0.0
H429 H 0.26363 0.92531 0.22584 0.0
H430 H 0.32733 0.92973 0.19968 0.0
H431 H 0.35132 0.91153 0.23036 0.0
H432 H 0.32121 0.77872 0.33691 0.0
H433 H 0.3402 0.7748 0.37377 0.0
H434 H 0.27974 0.81214 0.39353 0.0
H435 H 0.2604 0.81566 0.35683 0.0
Nd436 Nd 0.26753 0.81108 0.77474 0.0
Nd437 Nd 0.30341 0.84225 0.77669 0.0
C438 C 0.23044 0.78961 0.78094 0.0
C439 C 0.22156 0.78463 0.79992 0.0
C440 C 0.19705 0.78749 0.80024 0.0
C441 C 0.1886 0.78447 0.81868 0.0
C442 C 0.20455 0.7784 0.83713 0.0
C443 C 0.22908 0.77506 0.83657 0.0
C444 C 0.23753 0.77829 0.8182 0.0
C445 C 0.31156 0.78812 0.77425 0.0
C446 C 0.29561 0.82992 0.82098 0.0
C447 C 0.33819 0.8675 0.77136 0.0
C448 C 0.34791 0.87386 0.75323 0.0
C449 C 0.35185 0.85771 0.73711 0.0
C450 C 0.36019 0.86436 0.71963 0.0
C451 C 0.36439 0.88729 0.71788 0.0
C452 C 0.36031 0.90339 0.73397 0.0
C453 C 0.35222 0.8967 0.75153 0.0
C454 C 0.25959 0.86416 0.78021 0.0
C455 C 0.28148 0.81745 0.73088 0.0
O456 O 0.22899 0.81101 0.77656 0.0
O457 O 0.25075 0.77924 0.77841 0.0
O458 O 0.29157 0.78256 0.76244 0.0
O459 O 0.30812 0.8056 0.78608 0.0
O460 O 0.27528 0.82285 0.81004 0.0
O461 O 0.31243 0.83547 0.81131 0.0
O462 O 0.34172 0.84629 0.77639 0.0
O463 O 0.31659 0.87576 0.77226 0.0
O464 O 0.27964 0.86795 0.79274 0.0
O465 O 0.26269 0.84821 0.76654 0.0
O466 O 0.29953 0.82766 0.74259 0.0
O467 O 0.26353 0.81177 0.73914 0.0
H468 H 0.1845 0.79259 0.78636 0.0
H469 H 0.16965 0.78762 0.81863 0.0
H470 H 0.24183 0.77012 0.85038 0.0
H471 H 0.2566 0.77617 0.81842 0.0
H472 H 0.34832 0.84 0.73791 0.0
H473 H 0.36305 0.85166 0.70735 0.0
H474 H 0.36369 0.92112 0.73311 0.0
H475 H 0.34915 0.90941 0.76374 0.0
Nd476 Nd 0.27529 0.33365 0.75744 0.0
Nd477 Nd 0.30817 0.31173 0.79147 0.0
C478 C 0.25807 0.35714 0.72439 0.0
C479 C 0.27147 0.3714 0.71358 0.0
C480 C 0.29533 0.36486 0.71205 0.0
C481 C 0.30983 0.38022 0.70589 0.0
C482 C 0.30073 0.40234 0.70124 0.0
C483 C 0.27667 0.40864 0.70203 0.0
C484 C 0.26212 0.39324 0.70816 0.0
C485 C 0.25667 0.33517 0.79396 0.0
C486 C 0.32397 0.36021 0.7807 0.0
C487 C 0.32613 0.28794 0.82446 0.0
C488 C 0.3153 0.27187 0.83578 0.0
C489 C 0.29066 0.27391 0.83615 0.0
C490 C 0.28002 0.25742 0.84524 0.0
C491 C 0.29379 0.23841 0.85374 0.0
C492 C 0.31846 0.23651 0.85349 0.0
C493 C 0.32913 0.25315 0.84462 0.0
C494 C 0.32641 0.30997 0.75489 0.0
C495 C 0.26052 0.28475 0.76601 0.0
O496 O 0.26344 0.3352 0.72297 0.0
O497 O 0.25641 0.36471 0.74352 0.0
O498 O 0.24417 0.3328 0.77513 0.0
O499 O 0.27829 0.33843 0.79324 0.0
O500 O 0.307 0.35733 0.76396 0.0
O501 O 0.32677 0.34597 0.79605 0.0
O502 O 0.31844 0.30932 0.82602 0.0
O503 O 0.32817 0.28106 0.80526 0.0
O504 O 0.33904 0.31288 0.77362 0.0
O505 O 0.30488 0.30655 0.75579 0.0
O506 O 0.27675 0.28735 0.7834 0.0
O507 O 0.25819 0.29938 0.75117 0.0
H508 H 0.30315 0.34827 0.71662 0.0
H509 H 0.32841 0.37513 0.70562 0.0
H510 H 0.2693 0.42564 0.69834 0.0
H511 H 0.24393 0.3987 0.70958 0.0
H512 H 0.27953 0.28795 0.82896 0.0
H513 H 0.26094 0.25916 0.84503 0.0
H514 H 0.3295 0.22209 0.8601 0.0
H515 H 0.34809 0.25115 0.84426 0.0
Nd516 Nd 0.81202 0.35809 0.76679 0.0
Nd517 Nd 0.78835 0.328 0.78762 0.0
C518 C 0.82586 0.38817 0.74348 0.0
C519 C 0.81785 0.40134 0.72442 0.0
C520 C 0.81695 0.42522 0.72626 0.0
C521 C 0.81209 0.43798 0.70831 0.0
C522 C 0.80821 0.42715 0.68802 0.0
C523 C 0.80841 0.40321 0.68624 0.0
C524 C 0.81314 0.39046 0.7042 0.0
C525 C 0.83769 0.31627 0.77253 0.0
C526 C 0.76443 0.3343 0.73944 0.0
C527 C 0.77284 0.29739 0.80911 0.0
C528 C 0.77774 0.28197 0.82649 0.0
C529 C 0.79228 0.28782 0.84589 0.0
C530 C 0.79347 0.2743 0.86307 0.0
C531 C 0.77998 0.25491 0.86108 0.0
C532 C 0.76646 0.24859 0.84133 0.0
C533 C 0.76537 0.262 0.82422 0.0
C534 C 0.76249 0.36956 0.7827 0.0
C535 C 0.83528 0.35297 0.81515 0.0
O536 O 0.81643 0.39401 0.76009 0.0
O537 O 0.82957 0.36616 0.74077 0.0
O538 O 0.84693 0.33592 0.77524 0.0
O539 O 0.81516 0.31879 0.7664 0.0
O540 O 0.77812 0.35172 0.74155 0.0
O541 O 0.76728 0.31977 0.75442 0.0
O542 O 0.78221 0.29198 0.79241 0.0
O543 O 0.77176 0.31925 0.81394 0.0
O544 O 0.75359 0.34981 0.77954 0.0
O545 O 0.78514 0.36732 0.78843 0.0
O546 O 0.822 0.33517 0.81308 0.0
O547 O 0.83242 0.3673 0.79998 0.0
H548 H 0.82058 0.43406 0.74162 0.0
H549 H 0.81164 0.45636 0.71037 0.0
H550 H 0.80579 0.3942 0.67095 0.0
H551 H 0.81378 0.37206 0.70216 0.0
H552 H 0.80198 0.30322 0.84794 0.0
H553 H 0.80402 0.27957 0.87812 0.0
H554 H 0.75623 0.23353 0.83923 0.0
H555 H 0.75406 0.25723 0.80937 0.0
Nd556 Nd 0.78684 0.82806 0.75337 0.0
Nd557 Nd 0.77205 0.84698 0.79454 0.0
C558 C 0.79066 0.81331 0.71464 0.0
C559 C 0.79872 0.79366 0.70206 0.0
C560 C 0.78625 0.78931 0.68155 0.0
C561 C 0.79523 0.77277 0.66821 0.0
C562 C 0.81697 0.76034 0.67511 0.0
C563 C 0.82891 0.76407 0.69602 0.0
C564 C 0.81985 0.78059 0.7094 0.0
C565 C 0.81925 0.81836 0.78941 0.0
C566 C 0.74934 0.7993 0.77423 0.0
C567 C 0.76993 0.8629 0.83334 0.0
C568 C 0.78324 0.87559 0.85164 0.0
C569 C 0.8065 0.88235 0.85218 0.0
C570 C 0.8183 0.89488 0.86983 0.0
C571 C 0.80706 0.9006 0.88721 0.0
C572 C 0.78384 0.89352 0.88648 0.0
C573 C 0.77211 0.88117 0.86891 0.0
C574 C 0.73919 0.85581 0.75879 0.0
C575 C 0.80692 0.87573 0.77207 0.0
O576 O 0.77115 0.81184 0.72222 0.0
O577 O 0.80727 0.82392 0.72763 0.0
O578 O 0.82543 0.82173 0.77169 0.0
O579 O 0.7969 0.81806 0.78695 0.0
O580 O 0.7599 0.80179 0.758 0.0
O581 O 0.75254 0.81353 0.79111 0.0
O582 O 0.77859 0.84242 0.82884 0.0
O583 O 0.76126 0.8743 0.81666 0.0
O584 O 0.73338 0.85185 0.77658 0.0
O585 O 0.76152 0.85684 0.76073 0.0
O586 O 0.80265 0.86963 0.79027 0.0
O587 O 0.7972 0.86497 0.75434 0.0
H588 H 0.76991 0.79921 0.67563 0.0
H589 H 0.78533 0.76996 0.65235 0.0
H590 H 0.84573 0.75488 0.70181 0.0
H591 H 0.82977 0.78367 0.72522 0.0
H592 H 0.81541 0.87807 0.83896 0.0
H593 H 0.83617 0.90007 0.86991 0.0
H594 H 0.77442 0.89802 0.89933 0.0
H595 H 0.75414 0.87614 0.86872 0.0
H596 H 0.12768 0.15173 0.29099 0.0
H597 H 0.15503 0.18278 0.29664 0.0
H598 H 0.11591 0.21298 0.24053 0.0
H599 H 0.08927 0.18157 0.2345 0.0
H600 H 0.15846 0.21818 0.24003 0.0
H601 H 0.11378 0.2343 0.29485 0.0
H602 H 0.09637 0.22685 0.32561 0.0
H603 H 0.16678 0.21406 0.36186 0.0
H604 H 0.1846 0.22117 0.33122 0.0
H605 H 0.21465 0.32836 0.30131 0.0
H606 H 0.18544 0.29886 0.29748 0.0
H607 H 0.23105 0.25367 0.26526 0.0
H608 H 0.25962 0.28303 0.26839 0.0
H609 H 0.18285 0.25842 0.30964 0.0
H610 H 0.20092 0.2184 0.22907 0.0
H611 H 0.2127 0.2306 0.19696 0.0
H612 H 0.18606 0.29893 0.20989 0.0
H613 H 0.17385 0.28712 0.24189 0.0
C614 C 0.1248 0.16507 0.27994 0.0
C615 C 0.10615 0.16397 0.26226 0.0
C616 C 0.14048 0.18301 0.28322 0.0
C617 C 0.13767 0.20078 0.26922 0.0
C618 C 0.11888 0.19968 0.25163 0.0
C619 C 0.1035 0.18159 0.24817 0.0
C620 C 0.15439 0.22019 0.27249 0.0
C621 C 0.16373 0.22685 0.25532 0.0
C622 C 0.16113 0.23232 0.29222 0.0
C623 C 0.15051 0.22805 0.31068 0.0
C624 C 0.12554 0.22975 0.30934 0.0
C625 C 0.1156 0.22561 0.32676 0.0
C626 C 0.13046 0.21993 0.34566 0.0
C627 C 0.1553 0.21843 0.3472 0.0
C628 C 0.16533 0.22253 0.32982 0.0
C629 C 0.21849 0.31212 0.29346 0.0
C630 C 0.23958 0.30837 0.28503 0.0
C631 C 0.20172 0.29515 0.29128 0.0
C632 C 0.20554 0.27391 0.28065 0.0
C633 C 0.22704 0.26994 0.27298 0.0
C634 C 0.24359 0.28687 0.27494 0.0
C635 C 0.18719 0.25598 0.27729 0.0
C636 C 0.17758 0.24964 0.29439 0.0
C637 C 0.17949 0.24469 0.25732 0.0
C638 C 0.18666 0.25188 0.23799 0.0
C639 C 0.1975 0.236 0.22502 0.0
C640 C 0.20426 0.24286 0.20684 0.0
C641 C 0.20014 0.26552 0.20142 0.0
C642 C 0.18928 0.28139 0.21415 0.0
C643 C 0.18246 0.27463 0.23231 0.0
H644 H 0.20526 0.27078 0.18731 0.0
H645 H 0.12274 0.21673 0.35913 0.0
H646 H 1.01867 0.17749 0.27725 0.0
H647 H 0.98751 0.20685 0.28234 0.0
H648 H 0.9503 0.1579 0.30847 0.0
H649 H 0.98195 0.12835 0.30357 0.0
H650 H 0.92005 0.18251 0.277 0.0
H651 H 0.97685 0.20053 0.33983 0.0
H652 H 1.01652 0.20937 0.3603 0.0
H653 H 1.01602 0.2688 0.32533 0.0
H654 H 0.97647 0.26014 0.30445 0.0
H655 H 0.83387 0.26028 0.31351 0.0
H656 H 0.86738 0.23249 0.3117 0.0
H657 H 0.90249 0.28119 0.28326 0.0
H658 H 0.8684 0.30914 0.2846 0.0
H659 H 0.934 0.25721 0.3158 0.0
H660 H 0.8789 0.24099 0.25331 0.0
H661 H 0.83984 0.23351 0.23118 0.0
H662 H 0.83789 0.17184 0.26232 0.0
H663 H 0.87672 0.17931 0.28515 0.0
C664 C 1.00426 0.17312 0.28475 0.0
C665 C 1.0032 0.15066 0.29051 0.0
C666 C 0.98629 0.18996 0.28753 0.0
C667 C 0.96635 0.18484 0.29585 0.0
C668 C 0.96544 0.16246 0.30206 0.0
C669 C 0.98374 0.1456 0.29957 0.0
C670 C 0.94621 0.20264 0.29709 0.0
C671 C 0.92306 0.19864 0.28584 0.0
C672 C 0.95008 0.22424 0.30782 0.0
C673 C 0.97379 0.22957 0.32045 0.0
C674 C 0.98528 0.21539 0.33639 0.0
C675 C 1.00773 0.22039 0.34809 0.0
C676 C 1.01881 0.2396 0.34408 0.0
C677 C 1.00742 0.2539 0.32841 0.0
C678 C 0.98498 0.24897 0.31665 0.0
C679 C 0.84871 0.2652 0.30689 0.0
C680 C 0.84837 0.28705 0.29924 0.0
C681 C 0.86791 0.24918 0.30582 0.0
C682 C 0.88761 0.25454 0.2973 0.0
C683 C 0.8876 0.27654 0.28996 0.0
C684 C 0.86807 0.29253 0.29069 0.0
C685 C 0.90784 0.23694 0.29595 0.0
C686 C 0.93097 0.24101 0.30708 0.0
C687 C 0.90403 0.21553 0.28484 0.0
C688 C 0.88065 0.21087 0.27116 0.0
C689 C 0.87004 0.22596 0.25564 0.0
C690 C 0.84794 0.22169 0.24292 0.0
C691 C 0.83636 0.2022 0.24532 0.0
C692 C 0.84687 0.18695 0.26049 0.0
C693 C 0.86893 0.19121 0.27336 0.0
H694 H 0.81927 0.19891 0.23541 0.0
H695 H 1.03619 0.24343 0.35315 0.0
H696 H 0.97995 1.02005 0.22463 0.0
H697 H 0.95464 0.98964 0.22877 0.0
H698 H 0.96734 1.00448 0.29581 0.0
H699 H 0.99293 0.03499 0.29178 0.0
H700 H 0.96817 0.96002 0.28875 0.0
H701 H 0.91281 1.02056 0.2616 0.0
H702 H 0.89518 0.04996 0.23697 0.0
H703 H 0.8821 0.99873 0.18657 0.0
H704 H 0.89993 0.96905 0.21083 0.0
H705 H 0.87392 0.89156 0.30507 0.0
H706 H 0.90028 0.92238 0.30377 0.0
H707 H 0.88932 0.91255 0.2362 0.0
H708 H 0.86265 0.88226 0.23738 0.0
H709 H 0.88703 0.95563 0.24512 0.0
H710 H 0.94362 0.89531 0.2717 0.0
H711 H 0.96128 0.86572 0.29613 0.0
H712 H 0.97177 0.91626 0.34735 0.0
H713 H 0.9539 0.94611 0.32326 0.0
C714 C 0.9773 1.0171 0.2403 0.0
C715 C 0.98855 0.03042 0.25782 0.0
C716 C 0.96266 0.99955 0.24266 0.0
C717 C 0.95844 0.99476 0.2626 0.0
C718 C 0.97006 1.00767 0.2802 0.0
C719 C 0.98483 1.02522 0.27786 0.0
C720 C 0.94208 0.9763 0.265 0.0
C721 C 0.9503 0.95932 0.27939 0.0
C722 C 0.91877 0.97478 0.25261 0.0
C723 C 0.90797 0.99261 0.238 0.0
C724 C 0.90635 1.01558 0.24523 0.0
C725 C 0.8963 0.0323 0.23133 0.0
C726 C 0.88765 1.02623 0.21019 0.0
C727 C 0.88889 1.00342 0.20293 0.0
C728 C 0.89895 0.98664 0.21675 0.0
C729 C 0.87726 0.8958 0.28993 0.0
C730 C 0.86606 0.88415 0.27136 0.0
C731 C 0.8925 0.9135 0.28919 0.0
C732 C 0.89726 0.91995 0.26986 0.0
C733 C 0.88614 0.90819 0.25136 0.0
C734 C 0.87085 0.89065 0.25209 0.0
C735 C 0.91322 0.93914 0.26866 0.0
C736 C 0.90489 0.95632 0.25451 0.0
C737 C 0.93641 0.9408 0.28123 0.0
C738 C 0.94719 0.9229 0.29572 0.0
C739 C 0.94953 0.90008 0.2882 0.0
C740 C 0.95961 0.88327 0.30199 0.0
C741 C 0.96758 0.8891 0.32329 0.0
C742 C 0.96556 0.91176 0.33085 0.0
C743 C 0.95547 0.92864 0.31714 0.0
H744 H 0.97537 0.87606 0.33394 0.0
H745 H 0.87989 0.03919 0.19946 0.0
H746 H 0.12671 0.05458 0.25677 0.0
H747 H 0.15706 1.02333 0.26078 0.0
H748 H 0.13122 1.00256 0.31451 0.0
H749 H 0.10058 0.03459 0.31072 0.0
H750 H 0.18004 0.99558 0.3204 0.0
H751 H 0.11511 0.97572 0.26546 0.0
H752 H 0.0854 0.9805 0.23282 0.0
H753 H 0.14193 0.98255 0.19776 0.0
H754 H 0.17199 0.97814 0.23026 0.0
H755 H 0.21737 0.87445 0.27377 0.0
H756 H 0.18936 0.90751 0.27486 0.0
H757 H 0.24804 0.94954 0.30046 0.0
H758 H 0.27629 0.91606 0.29979 0.0
H759 H 0.1814 0.94484 0.2564 0.0
H760 H 0.2282 0.99501 0.3307 0.0
H761 H 0.25554 0.98768 0.36424 0.0
H762 H 0.23098 0.92023 0.36225 0.0
H763 H 0.20329 0.92727 0.32885 0.0
C764 C 0.12751 0.04359 0.26966 0.0
C765 C 0.11089 0.04717 0.28332 0.0
C766 C 0.14496 1.02552 0.27187 0.0
C767 C 0.14632 1.00998 0.28763 0.0
C768 C 0.1306 1.01411 0.30209 0.0
C769 C 0.11307 0.03251 0.29997 0.0
C770 C 0.16342 0.98911 0.28805 0.0
C771 C 0.18029 0.98453 0.30639 0.0
C772 C 0.16384 0.9742 0.26994 0.0
C773 C 0.1458 0.97683 0.25035 0.0
C774 C 0.12121 0.97737 0.25082 0.0
C775 C 0.1043 0.97999 0.23234 0.0
C776 C 0.11177 0.98189 0.21324 0.0
C777 C 0.13617 0.98112 0.21258 0.0
C778 C 0.15315 0.97855 0.23102 0.0
C779 C 0.22443 0.8907 0.27969 0.0
C780 C 0.2492 0.89242 0.28684 0.0
C781 C 0.20828 0.90974 0.28026 0.0
C782 C 0.21624 0.93127 0.28801 0.0
C783 C 0.24112 0.93319 0.29477 0.0
C784 C 0.25737 0.91401 0.29425 0.0
C785 C 0.19837 0.95145 0.28864 0.0
C786 C 0.18128 0.95591 0.27044 0.0
C787 C 0.19753 0.96592 0.30697 0.0
C788 C 0.21388 0.96161 0.32717 0.0
C789 C 0.22859 0.97865 0.33746 0.0
C790 C 0.24415 0.97454 0.35644 0.0
C791 C 0.24506 0.95348 0.36533 0.0
C792 C 0.23033 0.93651 0.35531 0.0
C793 C 0.21472 0.94054 0.33634 0.0
H794 H 0.25714 0.95032 0.38001 0.0
H795 H 0.09866 0.98391 0.19894 0.0
H796 H 0.08073 1.01111 0.74075 0.0
H797 H 0.11139 0.98043 0.74557 0.0
H798 H 0.13189 1.00231 0.81087 0.0
H799 H 0.10071 0.0339 0.80603 0.0
H800 H 0.1717 0.991 0.79287 0.0
H801 H 0.10139 0.9536 0.79632 0.0
H802 H 0.05963 0.94294 0.78529 0.0
H803 H 0.07569 0.91303 0.72699 0.0
H804 H 0.11748 0.9238 0.73753 0.0
H805 H 0.24922 0.89212 0.81266 0.0
H806 H 0.21657 0.92106 0.81305 0.0
H807 H 0.18772 0.90219 0.74829 0.0
H808 H 0.22049 0.8726 0.74803 0.0
H809 H 0.15184 0.91183 0.76873 0.0
H810 H 0.22158 0.95142 0.7646 0.0
H811 H 0.26349 0.96158 0.77594 0.0
H812 H 0.24846 0.98711 0.83595 0.0
H813 H 0.20651 0.97683 0.82506 0.0
C814 C 0.09156 1.0096 0.75629 0.0
C815 C 0.08792 1.02529 0.77301 0.0
C816 C 0.1092 0.99173 0.75903 0.0
C817 C 0.12405 0.98853 0.77864 0.0
C818 C 0.1207 1.00416 0.79553 0.0
C819 C 0.10273 1.02222 0.7928 0.0
C820 C 0.14304 0.96907 0.7809 0.0
C821 C 0.16723 0.97364 0.78797 0.0
C822 C 0.13765 0.94627 0.77405 0.0
C823 C 0.11254 0.93967 0.76766 0.0
C824 C 0.09598 0.94489 0.78108 0.0
C825 C 0.07231 0.93881 0.77492 0.0
C826 C 0.065 0.92736 0.75543 0.0
C827 C 0.08137 0.92192 0.74208 0.0
C828 C 0.10507 0.92798 0.74815 0.0
C829 C 0.23595 0.89405 0.79844 0.0
C830 C 0.2378 0.8801 0.78022 0.0
C831 C 0.2172 0.91081 0.79866 0.0
C832 C 0.19972 0.91457 0.78054 0.0
C833 C 0.20094 0.89999 0.7625 0.0
C834 C 0.21971 0.88297 0.76234 0.0
C835 C 0.18054 0.93377 0.78048 0.0
C836 C 0.15631 0.92916 0.77376 0.0
C837 C 0.18591 0.95651 0.78767 0.0
C838 C 0.21096 0.96317 0.79408 0.0
C839 C 0.22724 0.95911 0.78025 0.0
C840 C 0.251 0.96489 0.7866 0.0
C841 C 0.25865 0.97492 0.80667 0.0
C842 C 0.24252 0.9793 0.82041 0.0
C843 C 0.21874 0.97353 0.81415 0.0
H844 H 0.27706 0.97934 0.81157 0.0
H845 H 0.04666 0.92267 0.7507 0.0
H846 H 0.07959 0.15839 0.72271 0.0
H847 H 0.11201 0.1841 0.72724 0.0
H848 H 0.14882 0.14875 0.78121 0.0
H849 H 0.11634 0.12273 0.77674 0.0
H850 H 0.15231 0.19388 0.78894 0.0
H851 H 0.16706 0.14098 0.73321 0.0
H852 H 0.15752 0.11866 0.69947 0.0
H853 H 0.14186 0.18036 0.66658 0.0
H854 H 0.15099 0.20307 0.70018 0.0
H855 H 0.26058 0.25012 0.79258 0.0
H856 H 0.23114 0.22136 0.79032 0.0
H857 H 0.19106 0.24945 0.73354 0.0
H858 H 0.22082 0.27773 0.73535 0.0
H859 H 0.19118 0.20578 0.72858 0.0
H860 H 0.17462 0.25862 0.78497 0.0
H861 H 0.18502 0.28065 0.81873 0.0
H862 H 0.20522 0.21873 0.85064 0.0
H863 H 0.19512 0.19631 0.81694 0.0
C864 C 0.0946 0.15578 0.73545 0.0
C865 C 0.09516 0.13809 0.7492 0.0
C866 C 0.11325 0.17066 0.73807 0.0
C867 C 0.13325 0.16833 0.75441 0.0
C868 C 0.13371 0.15102 0.76844 0.0
C869 C 0.115 0.13608 0.76585 0.0
C870 C 0.15359 0.18385 0.7566 0.0
C871 C 0.16101 0.19621 0.77581 0.0
C872 C 0.16497 0.18731 0.73949 0.0
C873 C 0.1595 0.17372 0.71924 0.0
C874 C 0.16141 0.14979 0.7188 0.0
C875 C 0.1561 0.13707 0.6997 0.0
C876 C 0.14903 0.14808 0.6809 0.0
C877 C 0.14731 0.17185 0.68116 0.0
C878 C 0.15257 0.18466 0.70023 0.0
C879 C 0.24559 0.25012 0.77951 0.0
C880 C 0.24322 0.26636 0.76413 0.0
C881 C 0.22855 0.2337 0.77834 0.0
C882 C 0.2084 0.23327 0.76195 0.0
C883 C 0.20629 0.24926 0.7464 0.0
C884 C 0.22341 0.26552 0.74746 0.0
C885 C 0.18959 0.21624 0.76077 0.0
C886 C 0.18251 0.20348 0.74174 0.0
C887 C 0.17861 0.21241 0.77807 0.0
C888 C 0.18429 0.22581 0.79841 0.0
C889 C 0.18136 0.24971 0.79918 0.0
C890 C 0.18718 0.26226 0.81832 0.0
C891 C 0.19579 0.25111 0.83686 0.0
C892 C 0.19853 0.22735 0.83628 0.0
C893 C 0.19273 0.21471 0.81716 0.0
H894 H 0.20031 0.26085 0.85167 0.0
H895 H 0.14493 0.1382 0.66612 0.0
H896 H 1.00935 0.15421 0.79487 0.0
H897 H 0.98179 0.1879 0.7976 0.0
H898 H 0.92242 0.14869 0.76747 0.0
H899 H 0.9499 0.11564 0.76414 0.0
H900 H 0.91718 0.18528 0.74937 0.0
H901 H 0.93422 0.17023 0.82239 0.0
H902 H 0.95831 0.16412 0.8576 0.0
H903 H 0.98498 0.23073 0.85989 0.0
H904 H 0.96139 0.23711 0.82453 0.0
H905 H 0.8242 0.27164 0.76319 0.0
H906 H 0.85036 0.23642 0.76584 0.0
H907 H 0.91172 0.27604 0.78817 0.0
H908 H 0.88585 0.31089 0.78593 0.0
H909 H 0.91518 0.23934 0.81091 0.0
H910 H 0.89904 0.25299 0.73708 0.0
H911 H 0.87346 0.25933 0.70251 0.0
H912 H 0.84333 0.19469 0.70307 0.0
H913 H 0.86853 0.1881 0.73779 0.0
C914 C 0.99033 0.15262 0.78949 0.0
C915 C 0.98188 0.132 0.77959 0.0
C916 C 0.97445 0.17202 0.79093 0.0
C917 C 0.94964 0.17123 0.78274 0.0
C918 C 0.94128 0.15021 0.77379 0.0
C919 C 0.95708 0.13109 0.77212 0.0
C920 C 0.9325 0.19225 0.78206 0.0
C921 C 0.91661 0.19677 0.76306 0.0
C922 C 0.93168 0.20798 0.79956 0.0
C923 C 0.94631 0.204 0.82064 0.0
C924 C 0.94546 0.18347 0.83027 0.0
C925 C 0.95898 0.17998 0.85029 0.0
C926 C 0.97325 0.19698 0.86094 0.0
C927 C 0.97399 0.21754 0.8516 0.0
C928 C 0.96056 0.22109 0.83156 0.0
C929 C 0.84325 0.27281 0.76871 0.0
C930 C 0.85281 0.29425 0.7742 0.0
C931 C 0.8583 0.25262 0.77017 0.0
C932 C 0.8833 0.25332 0.77717 0.0
C933 C 0.89265 0.27475 0.78288 0.0
C934 C 0.87772 0.2948 0.78143 0.0
C935 C 0.89991 0.23204 0.77841 0.0
C936 C 0.91573 0.22761 0.79739 0.0
C937 C 0.90058 0.21627 0.761 0.0
C938 C 0.88548 0.22017 0.74013 0.0
C939 C 0.88683 0.24021 0.7299 0.0
C940 C 0.87242 0.24383 0.71027 0.0
C941 C 0.85673 0.22745 0.70063 0.0
C942 C 0.85546 0.20738 0.71058 0.0
C943 C 0.86981 0.20369 0.73022 0.0
H944 H 0.84559 0.23028 0.68543 0.0
H945 H 0.98367 0.19427 0.87645 0.0
H946 H 0.96059 1.0018 0.7226 0.0
H947 H 0.93096 0.97659 0.7288 0.0
H948 H 0.93465 1.00672 0.79162 0.0
H949 H 0.96426 0.03243 0.7855 0.0
H950 H 0.93257 0.96003 0.79114 0.0
H951 H 0.88772 1.0208 0.75348 0.0
H952 H 0.87701 0.04738 0.72492 0.0
H953 H 0.86306 0.99114 0.67963 0.0
H954 H 0.87402 0.9642 0.7079 0.0
H955 H 0.82819 0.90491 0.80436 0.0
H956 H 0.85696 0.93351 0.80278 0.0
H957 H 0.85384 0.91535 0.73679 0.0
H958 H 0.82454 0.88759 0.7381 0.0
H959 H 0.85485 0.95856 0.7415 0.0
H960 H 0.90184 0.89755 0.77902 0.0
H961 H 0.91115 0.87101 0.8077 0.0
H962 H 0.9205 0.9274 0.85335 0.0
H963 H 0.91089 0.9543 0.82493 0.0
C964 C 0.95512 1.0034 0.73773 0.0
C965 C 0.96496 1.01962 0.75341 0.0
C966 C 0.93808 0.98876 0.74128 0.0
C967 C 0.93018 0.98978 0.76062 0.0
C968 C 0.94034 1.00549 0.77654 0.0
C969 C 0.95739 1.02026 0.77298 0.0
C970 C 0.91096 0.97481 0.76383 0.0
C971 C 0.91546 0.95994 0.78044 0.0
C972 C 0.88861 0.97432 0.74983 0.0
C973 C 0.88189 0.99048 0.7328 0.0
C974 C 0.88253 1.0141 0.73741 0.0
C975 C 0.87639 0.02923 0.72128 0.0
C976 C 0.86941 1.02095 0.70047 0.0
C977 C 0.86849 0.99752 0.69576 0.0
C978 C 0.87465 0.98232 0.71183 0.0
C979 C 0.83351 0.90712 0.78948 0.0
C980 C 0.82388 0.89386 0.77136 0.0
C981 C 0.85019 0.92341 0.78861 0.0
C982 C 0.85811 0.92655 0.76971 0.0
C983 C 0.84821 0.91347 0.75161 0.0
C984 C 0.83137 0.89747 0.7524 0.0
C985 C 0.87658 0.94328 0.76849 0.0
C986 C 0.87193 0.9586 0.75226 0.0
C987 C 0.89877 0.94409 0.78282 0.0
C988 C 0.90544 0.92794 0.79986 0.0
C989 C 0.90583 0.90429 0.79518 0.0
C990 C 0.91113 0.88918 0.81139 0.0
C991 C 0.91635 0.89751 0.83234 0.0
C992 C 0.91642 0.92097 0.83711 0.0
C993 C 0.91107 0.93616 0.82096 0.0
H994 H 0.92038 0.88579 0.84486 0.0
H995 H 0.86466 0.03269 0.688 0.0
H996 H 0.28702 0.0981 0.08701 0.0
H997 H 0.28171 0.13242 0.10909 0.0
H998 H 0.20908 0.14287 0.07573 0.0
H999 H 0.21444 0.10844 0.05335 0.0
H1000 H 0.23091 0.18166 0.08101 0.0
H1001 H 0.21971 0.1253 0.12611 0.0
H1002 H 0.22747 0.0897 0.14485 0.0
H1003 H 0.29488 0.11271 0.17794 0.0
H1004 H 0.28778 0.14825 0.15918 0.0
H1005 H 0.23579 0.27278 0.16597 0.0
H1006 H 0.22095 0.23926 0.14389 0.0
H1007 H 0.29337 0.21109 0.14791 0.0
H1008 H 0.30816 0.24357 0.17054 0.0
H1009 H 0.25776 0.18186 0.15842 0.0
H1010 H 0.27012 0.23527 0.10702 0.0
H1011 H 0.26105 0.27059 0.08803 0.0
H1012 H 0.1884 0.2526 0.06684 0.0
H1013 H 0.19687 0.21742 0.0862 0.0
C1014 C 0.26984 0.10755 0.08452 0.0
C1015 C 0.25114 0.10055 0.06853 0.0
C1016 C 0.26678 0.12713 0.09718 0.0
C1017 C 0.24482 0.13994 0.09434 0.0
C1018 C 0.22611 0.13314 0.07826 0.0
C1019 C 0.22924 0.11356 0.06544 0.0
C1020 C 0.24216 0.16093 0.10771 0.0
C1021 C 0.23617 0.18168 0.098 0.0
C1022 C 0.24877 0.16093 0.12988 0.0
C1023 C 0.2532 0.13948 0.14118 0.0
C1024 C 0.23627 0.12272 0.13727 0.0
C1025 C 0.24054 0.10255 0.14792 0.0
C1026 C 0.26164 0.09899 0.16257 0.0
C1027 C 0.27853 0.11553 0.1666 0.0
C1028 C 0.27437 0.13571 0.15599 0.0
C1029 C 0.24847 0.2594 0.16209 0.0
C1030 C 0.27313 0.26083 0.16992 0.0
C1031 C 0.24 0.24048 0.14937 0.0
C1032 C 0.25614 0.22299 0.1442 0.0
C1033 C 0.2807 0.22456 0.15171 0.0
C1034 C 0.28913 0.24327 0.16442 0.0
C1035 C 0.24797 0.20238 0.13157 0.0
C1036 C 0.25176 0.18172 0.1415 0.0
C1037 C 0.23909 0.20252 0.10969 0.0
C1038 C 0.23402 0.22391 0.09841 0.0
C1039 C 0.2521 0.23901 0.09863 0.0
C1040 C 0.2471 0.25898 0.08772 0.0
C1041 C 0.22415 0.26388 0.07628 0.0
C1042 C 0.20617 0.24879 0.0757 0.0
C1043 C 0.21105 0.22888 0.08671 0.0
H1044 H 0.22031 0.27934 0.06785 0.0
H1045 H 0.26491 0.08345 0.17086 0.0
H1046 H 1.01087 0.33888 0.0455 0.0
H1047 H 0.98411 0.34371 0.07101 0.0
H1048 H 1.02214 0.28738 0.10449 0.0
H1049 H 0.04838 0.28205 0.07849 0.0
H1050 H 0.97789 0.28432 0.10479 0.0
H1051 H 1.02876 0.34647 0.12169 0.0
H1052 H 0.04897 0.38021 0.11518 0.0
H1053 H 0.98086 0.41606 0.09634 0.0
H1054 H 0.96023 0.3824 0.10247 0.0
H1055 H 0.93032 0.31257 0.19928 0.0
H1056 H 0.95645 0.3052 0.17336 0.0
H1057 H 0.91378 0.35429 0.13361 0.0
H1058 H 0.88732 0.36142 0.15912 0.0
H1059 H 0.9611 0.36069 0.13747 0.0
H1060 H 0.91099 0.29664 0.12187 0.0
H1061 H 0.89275 0.26256 0.13042 0.0
H1062 H 0.96253 0.23006 0.14973 0.0
H1063 H 0.9812 0.26407 0.14157 0.0
C1064 C 1.01359 0.32758 0.05834 0.0
C1065 C 1.0319 0.31015 0.05995 0.0
C1066 C 0.99829 0.3304 0.07304 0.0
C1067 C 1.00123 0.31625 0.09014 0.0
C1068 C 1.01934 0.29862 0.09158 0.0
C1069 C 1.0344 0.29555 0.07666 0.0
C1070 C 0.98544 0.31977 0.1064 0.0
C1071 C 0.97455 0.30102 0.11211 0.0
C1072 C 0.98061 0.34153 0.11597 0.0
C1073 C 0.99295 0.36183 0.11234 0.0
C1074 C 1.01809 0.36149 0.11602 0.0
C1075 C 1.02962 0.38061 0.11241 0.0
C1076 C 1.0162 0.40024 0.1053 0.0
C1077 C 0.99123 0.40082 0.10182 0.0
C1078 C 0.9796 0.38174 0.10538 0.0
C1079 C 0.92619 0.32157 0.18489 0.0
C1080 C 0.90659 0.33772 0.18151 0.0
C1081 C 0.94128 0.31737 0.17005 0.0
C1082 C 0.93717 0.32913 0.15138 0.0
C1083 C 0.91753 0.34507 0.14789 0.0
C1084 C 0.90241 0.3492 0.16263 0.0
C1085 C 0.95352 0.32531 0.13569 0.0
C1086 C 0.96451 0.34403 0.13013 0.0
C1087 C 0.95874 0.30348 0.12654 0.0
C1088 C 0.94749 0.28299 0.1313 0.0
C1089 C 0.92244 0.28229 0.12809 0.0
C1090 C 0.91203 0.26298 0.13284 0.0
C1091 C 0.92648 0.24419 0.14066 0.0
C1092 C 0.95137 0.24464 0.14369 0.0
C1093 C 0.96187 0.26392 0.139 0.0
H1094 H 0.91843 0.22925 0.14434 0.0
H1095 H 1.02516 0.41502 0.10252 0.0
H1096 H 0.73903 0.04154 0.15032 0.0
H1097 H 0.74292 1.01029 0.174 0.0
H1098 H 0.77174 0.96536 0.12856 0.0
H1099 H 0.76813 0.99677 0.10483 0.0
H1100 H 0.73435 0.9473 0.14907 0.0
H1101 H 0.80997 0.98284 0.16476 0.0
H1102 H 0.83562 1.01541 0.17344 0.0
H1103 H 0.80796 0.03102 0.23022 0.0
H1104 H 0.7818 0.99878 0.22168 0.0
H1105 H 0.77788 0.86011 0.22135 0.0
H1106 H 0.77126 0.8872 0.19346 0.0
H1107 H 0.76438 0.94245 0.23952 0.0
H1108 H 0.77246 0.9156 0.2674 0.0
H1109 H 0.79225 0.95387 0.21645 0.0
H1110 H 0.71554 0.92104 0.20145 0.0
H1111 H 0.6878 0.89003 0.19342 0.0
H1112 H 0.71466 0.87081 0.1368 0.0
H1113 H 0.74278 0.90155 0.14464 0.0
C1114 C 0.74587 1.02493 0.14525 0.0
C1115 C 0.75328 1.02153 0.12575 0.0
C1116 C 0.74819 1.00715 0.15882 0.0
C1117 C 0.75767 0.9856 0.153 0.0
C1118 C 0.76437 0.98191 0.13327 0.0
C1119 C 0.76243 0.99982 0.11982 0.0
C1120 C 0.76145 0.9673 0.16802 0.0
C1121 C 0.74721 0.94848 0.1637 0.0
C1122 C 0.77787 0.96923 0.18724 0.0
C1123 C 0.79372 0.98855 0.19245 0.0
C1124 C 0.80918 0.99335 0.17899 0.0
C1125 C 0.82384 1.01173 0.1839 0.0
C1126 C 0.82335 1.02532 0.20233 0.0
C1127 C 0.80828 1.0205 0.21593 0.0
C1128 C 0.79353 1.00218 0.21106 0.0
C1129 C 0.77477 0.87802 0.22541 0.0
C1130 C 0.77589 0.88583 0.2465 0.0
C1131 C 0.77082 0.8935 0.20947 0.0
C1132 C 0.76722 0.91695 0.21432 0.0
C1133 C 0.7673 0.92452 0.23534 0.0
C1134 C 0.77177 0.90915 0.25127 0.0
C1135 C 0.7647 0.93388 0.19789 0.0
C1136 C 0.77933 0.95249 0.20186 0.0
C1137 C 0.74836 0.93188 0.17852 0.0
C1138 C 0.73143 0.91344 0.17375 0.0
C1139 C 0.71565 0.9101 0.18737 0.0
C1140 C 0.69984 0.89259 0.18284 0.0
C1141 C 0.69952 0.87842 0.16464 0.0
C1142 C 0.71496 0.88178 0.15091 0.0
C1143 C 0.73082 0.89925 0.15538 0.0
H1144 H 0.68726 0.86487 0.16116 0.0
H1145 H 0.83466 0.03958 0.20609 0.0
H1146 H 0.12341 0.8249 0.0745 0.0
H1147 H 0.15709 0.81959 0.10368 0.0
H1148 H 0.11821 0.86065 0.14507 0.0
H1149 H 0.08465 0.86623 0.11587 0.0
H1150 H 0.16186 0.87255 0.15155 0.0
H1151 H 0.12529 0.80158 0.14656 0.0
H1152 H 0.10865 0.76623 0.1291 0.0
H1153 H 0.17705 0.74428 0.11393 0.0
H1154 H 0.19403 0.77966 0.13106 0.0
H1155 H 0.2405 0.80567 0.24144 0.0
H1156 H 0.20716 0.80603 0.21137 0.0
H1157 H 0.24299 0.85308 0.18151 0.0
H1158 H 0.27581 0.8534 0.21176 0.0
H1159 H 0.19921 0.79647 0.17072 0.0
H1160 H 0.20247 0.89239 0.15657 0.0
H1161 H 0.21477 0.92816 0.17606 0.0
H1162 H 0.20769 0.9004 0.23396 0.0
H1163 H 0.19463 0.86459 0.21474 0.0
C1164 C 0.12198 0.83264 0.08986 0.0
C1165 C 0.10134 0.84595 0.09288 0.0
C1166 C 0.14123 0.82956 0.10655 0.0
C1167 C 0.1401 0.83946 0.12668 0.0
C1168 C 0.11954 0.85285 0.12969 0.0
C1169 C 0.10038 0.8561 0.11297 0.0
C1170 C 0.16058 0.83643 0.14447 0.0
C1171 C 0.17003 0.85591 0.15572 0.0
C1172 C 0.171 0.81469 0.1502 0.0
C1173 C 0.16087 0.79337 0.13992 0.0
C1174 C 0.13674 0.78929 0.13936 0.0
C1175 C 0.12725 0.76924 0.12955 0.0
C1176 C 0.14177 0.75305 0.12037 0.0
C1177 C 0.16582 0.75686 0.12103 0.0
C1178 C 0.17539 0.7769 0.1308 0.0
C1179 C 0.24146 0.81571 0.22826 0.0
C1180 C 0.26062 0.82966 0.22901 0.0
C1181 C 0.22237 0.81596 0.2111 0.0
C1182 C 0.22227 0.83003 0.1944 0.0
C1183 C 0.24233 0.84257 0.19445 0.0
C1184 C 0.26117 0.8426 0.21169 0.0
C1185 C 0.20073 0.83264 0.17756 0.0
C1186 C 0.19108 0.81311 0.16651 0.0
C1187 C 0.18972 0.85434 0.17233 0.0
C1188 C 0.19782 0.87569 0.1842 0.0
C1189 C 0.2035 0.89391 0.17347 0.0
C1190 C 0.21062 0.9142 0.18448 0.0
C1191 C 0.2122 0.91652 0.20628 0.0
C1192 C 0.20658 0.89853 0.2171 0.0
C1193 C 0.19928 0.87823 0.20614 0.0
H1194 H 0.21766 0.93229 0.21477 0.0
H1195 H 0.13439 0.73753 0.11278 0.0
H1196 H 0.25342 0.95629 0.97219 0.0
H1197 H 0.25997 0.92218 0.95054 0.0
H1198 H 0.33201 0.94019 0.9506 0.0
H1199 H 0.32523 0.97514 0.97115 0.0
H1200 H 0.31024 0.93182 0.91256 0.0
H1201 H 0.3182 0.89315 0.97639 0.0
H1202 H 0.30656 0.88231 0.00896 0.0
H1203 H 0.24299 0.85425 0.9729 0.0
H1204 H 0.25412 0.86517 0.94014 0.0
H1205 H 0.33634 0.83956 0.84872 0.0
H1206 H 0.33852 0.85912 0.88332 0.0
H1207 H 0.26277 0.8533 0.87919 0.0
H1208 H 0.26043 0.83339 0.8446 0.0
H1209 H 0.2897 0.85305 0.92133 0.0
H1210 H 0.27783 0.89754 0.85942 0.0
H1211 H 0.2878 0.90894 0.82629 0.0
H1212 H 0.35743 0.92643 0.85905 0.0
H1213 H 0.34798 0.91495 0.89236 0.0
C1214 C 0.2707 0.95319 0.96767 0.0
C1215 C 0.28859 0.96898 0.9732 0.0
C1216 C 0.27455 0.93332 0.95553 0.0
C1217 C 0.29655 0.9285 0.94904 0.0
C1218 C 0.31487 0.94356 0.95544 0.0
C1219 C 0.31094 0.96359 0.96732 0.0
C1220 C 0.29946 0.90936 0.93355 0.0
C1221 C 0.30631 0.9145 0.9148 0.0
C1222 C 0.29352 0.88689 0.93609 0.0
C1223 C 0.28689 0.88019 0.9558 0.0
C1224 C 0.30165 0.88483 0.97541 0.0
C1225 C 0.29516 0.87863 -0.00608 0.0
C1226 C 0.27402 0.86765 0.99301 0.0
C1227 C 0.25935 0.86278 0.97359 0.0
C1228 C 0.26576 0.86895 0.95505 0.0
C1229 C 0.32027 0.84178 0.85544 0.0
C1230 C 0.29809 0.83551 0.84375 0.0
C1231 C 0.32158 0.85289 0.87524 0.0
C1232 C 0.30071 0.85807 0.88349 0.0
C1233 C 0.27904 0.84952 0.87297 0.0
C1234 C 0.27773 0.83823 0.85318 0.0
C1235 C 0.30069 0.87568 0.90076 0.0
C1236 C 0.29412 0.87032 0.91954 0.0
C1237 C 0.3067 0.89808 0.89831 0.0
C1238 C 0.31231 0.90515 0.87832 0.0
C1239 C 0.29533 0.90366 0.85952 0.0
C1240 C 0.30086 0.91016 0.84073 0.0
C1241 C 0.32325 0.9183 0.84056 0.0
C1242 C 0.34012 0.92007 0.8592 0.0
C1243 C 0.33468 0.9136 0.87804 0.0
H1244 H 0.32749 0.9233 0.82599 0.0
H1245 H 0.26903 0.86287 0.00736 0.0
H1246 H 0.11674 0.33332 0.93038 0.0
H1247 H 0.13888 0.33702 0.9017 0.0
H1248 H 0.20325 0.30959 0.94026 0.0
H1249 H 0.18106 0.30525 0.96859 0.0
H1250 H 0.20858 0.35085 0.91785 0.0
H1251 H 0.17974 0.27561 0.9058 0.0
H1252 H 0.14994 0.24638 0.89991 0.0
H1253 H 0.11256 0.27876 0.84472 0.0
H1254 H 0.14195 0.3084 0.85047 0.0
H1255 H 0.279 0.33415 0.83595 0.0
H1256 H 0.26006 0.33097 0.8666 0.0
H1257 H 0.19059 0.33363 0.82612 0.0
H1258 H 0.20947 0.33542 0.79568 0.0
H1259 H 0.18914 0.30418 0.85112 0.0
H1260 H 0.21664 0.38009 0.86306 0.0
H1261 H 0.24632 0.40942 0.86824 0.0
H1262 H 0.28563 0.37682 0.92259 0.0
H1263 H 0.25632 0.34713 0.91759 0.0
C1264 C 0.13564 0.32824 0.93276 0.0
C1265 C 0.14709 0.31894 0.95178 0.0
C1266 C 0.14828 0.33026 0.91633 0.0
C1267 C 0.17281 0.32356 0.91872 0.0
C1268 C 0.1844 0.3149 0.93794 0.0
C1269 C 0.17166 0.31235 0.95412 0.0
C1270 C 0.18627 0.32512 0.9011 0.0
C1271 C 0.20451 0.34047 0.90331 0.0
C1272 C 0.18086 0.31189 0.88194 0.0
C1273 C 0.16281 0.29445 0.87878 0.0
C1274 C 0.16496 0.2767 0.89259 0.0
C1275 C 0.1482 0.26 0.88923 0.0
C1276 C 0.1293 0.26077 0.87201 0.0
C1277 C 0.12715 0.27823 0.85809 0.0
C1278 C 0.14385 0.29498 0.8614 0.0
C1279 C 0.2597 0.33415 0.83366 0.0
C1280 C 0.24583 0.33506 0.81328 0.0
C1281 C 0.24877 0.33248 0.85127 0.0
C1282 C 0.22363 0.33234 0.84901 0.0
C1283 C 0.20992 0.33359 0.8286 0.0
C1284 C 0.22081 0.33478 0.81108 0.0
C1285 C 0.21134 0.33026 0.86748 0.0
C1286 C 0.19331 0.31468 0.86553 0.0
C1287 C 0.21684 0.34344 0.88676 0.0
C1288 C 0.23443 0.36127 0.88982 0.0
C1289 C 0.23171 0.3791 0.87603 0.0
C1290 C 0.24844 0.3958 0.87895 0.0
C1291 C 0.26788 0.39495 0.8957 0.0
C1292 C 0.27058 0.37743 0.90961 0.0
C1293 C 0.25391 0.36068 0.90675 0.0
H1294 H 0.28082 0.40789 0.89793 0.0
H1295 H 0.11637 0.24781 0.86941 0.0
H1296 H 0.72233 0.13794 0.00224 0.0
H1297 H 0.72697 0.16275 0.97469 0.0
H1298 H 0.80365 0.1564 -0.00565 0.0
H1299 H 0.79919 0.13151 0.02178 0.0
H1300 H 0.78812 0.20002 0.9856 0.0
H1301 H 0.77706 0.12534 0.95207 0.0
H1302 H 0.75655 0.08964 0.94242 0.0
H1303 H 0.69386 0.1272 0.91166 0.0
H1304 H 0.7139 0.16317 0.92137 0.0
H1305 H 0.81678 0.24018 0.89192 0.0
H1306 H 0.81398 0.21792 0.92194 0.0
H1307 H 0.73725 0.21892 0.90225 0.0
H1308 H 0.74001 0.24077 0.87224 0.0
H1309 H 0.75409 0.17762 0.9114 0.0
H1310 H 0.76489 0.25243 0.94495 0.0
H1311 H 0.78521 0.28821 0.95475 0.0
H1312 H 0.84804 0.25081 0.98548 0.0
H1313 H 0.8282 0.21476 0.97561 0.0
C1314 C 0.74017 0.14179 0.00068 0.0
C1315 C 0.76037 0.13263 0.01418 0.0
C1316 C 0.7428 0.15601 0.98497 0.0
C1317 C 0.76568 0.1612 0.98233 0.0
C1318 C 0.78584 0.15265 -0.00386 0.0
C1319 C 0.78323 0.13846 0.01188 0.0
C1320 C 0.76864 0.17495 0.96476 0.0
C1321 C 0.78093 0.19502 0.96934 0.0
C1322 C 0.75894 0.16858 0.9436 0.0
C1323 C 0.74691 0.14696 0.93762 0.0
C1324 C 0.75884 0.12599 0.94338 0.0
C1325 C 0.74731 0.10571 0.93788 0.0
C1326 C 0.72389 0.10616 0.92648 0.0
C1327 C 0.71199 0.12689 0.92051 0.0
C1328 C 0.72343 0.14722 0.92599 0.0
C1329 C 0.79935 0.23574 0.89413 0.0
C1330 C 0.77864 0.24202 0.87966 0.0
C1331 C 0.79774 0.22309 0.91129 0.0
C1332 C 0.77537 0.21685 0.91442 0.0
C1333 C 0.75471 0.22339 0.9001 0.0
C1334 C 0.75632 0.23583 0.88292 0.0
C1335 C 0.77332 0.20293 0.93219 0.0
C1336 C 0.76127 0.18271 0.92764 0.0
C1337 C 0.78321 0.20922 0.95336 0.0
C1338 C 0.79514 0.23088 0.95935 0.0
C1339 C 0.78311 0.25182 0.95365 0.0
C1340 C 0.79452 0.27215 0.95925 0.0
C1341 C 0.81792 0.27178 0.97068 0.0
C1342 C 0.82993 0.25107 0.97659 0.0
C1343 C 0.8186 0.23069 0.97102 0.0
H1344 H 0.82673 0.28754 0.975 0.0
H1345 H 0.71499 0.09044 0.92224 0.0
H1346 H 0.97796 0.87835 0.94482 0.0
H1347 H 0.94537 0.87381 0.91482 0.0
H1348 H 0.91496 0.82538 0.94772 0.0
H1349 H 0.94778 0.82977 0.97783 0.0
H1350 H 0.91673 0.80871 0.91017 0.0
H1351 H 0.88682 0.87913 0.93706 0.0
H1352 H 0.8869 0.91896 0.95125 0.0
H1353 H 0.90311 0.94048 0.8938 0.0
H1354 H 0.90343 0.90074 0.87935 0.0
H1355 H 0.81287 0.80484 0.82722 0.0
H1356 H 0.83801 0.81252 0.86186 0.0
H1357 H 0.88544 0.84842 0.83282 0.0
H1358 H 0.86061 0.84051 0.79819 0.0
H1359 H 0.87091 0.87145 0.87014 0.0
H1360 H 0.90335 0.79838 0.84572 0.0
H1361 H 0.90047 0.75831 0.83244 0.0
H1362 H 0.87485 0.7421 0.88754 0.0
H1363 H 0.87726 0.78218 0.90101 0.0
C1364 C 0.9641 0.86709 0.94589 0.0
C1365 C 0.96556 0.85437 0.96374 0.0
C1366 C 0.94539 0.86453 0.92868 0.0
C1367 C 0.9275 0.8494 0.929 0.0
C1368 C 0.92854 0.83713 0.94704 0.0
C1369 C 0.94736 0.83959 0.96423 0.0
C1370 C 0.90899 0.84504 0.90984 0.0
C1371 C 0.90636 0.82247 0.90173 0.0
C1372 C 0.89552 0.86292 0.89857 0.0
C1373 C 0.8955 0.88687 0.90723 0.0
C1374 C 0.89068 0.89231 0.92754 0.0
C1375 C 0.89064 0.91488 0.93563 0.0
C1376 C 0.89525 0.93221 0.92352 0.0
C1377 C 0.8997 0.92702 0.90322 0.0
C1378 C 0.89979 0.90448 0.89506 0.0
C1379 C 0.82875 0.81424 0.82828 0.0
C1380 C 0.83497 0.82188 0.81008 0.0
C1381 C 0.84303 0.81865 0.84801 0.0
C1382 C 0.86357 0.83099 0.84984 0.0
C1383 C 0.86965 0.83886 0.8317 0.0
C1384 C 0.8556 0.83414 0.81194 0.0
C1385 C 0.87905 0.83533 0.87063 0.0
C1386 C 0.88108 0.85783 0.87892 0.0
C1387 C 0.89156 0.8174 0.8823 0.0
C1388 C 0.89022 0.79331 0.87425 0.0
C1389 C 0.89689 0.78631 0.85491 0.0
C1390 C 0.89539 0.76359 0.84737 0.0
C1391 C 0.88741 0.74768 0.85911 0.0
C1392 C 0.88098 0.75445 0.87845 0.0
C1393 C 0.88243 0.77716 0.88605 0.0
H1394 H 0.88626 0.7301 0.85325 0.0
H1395 H 0.89516 0.94967 0.92981 0.0
H1396 H 0.16887 0.32904 0.05938 0.0
H1397 H 0.19163 0.33747 0.09451 0.0
H1398 H 0.13278 0.38155 0.10922 0.0
H1399 H 0.11001 0.37358 0.07342 0.0
H1400 H 0.17511 0.39868 0.12762 0.0
H1401 H 0.14235 0.3248 0.12531 0.0
H1402 H 0.13495 0.28573 0.11054 0.0
H1403 H 0.21062 0.26937 0.11953 0.0
H1404 H 0.21847 0.30815 0.13447 0.0
H1405 H 0.2117 0.39811 0.23845 0.0
H1406 H 0.1905 0.39408 0.20212 0.0
H1407 H 0.24618 0.34579 0.18744 0.0
H1408 H 0.26705 0.34934 0.22424 0.0
H1409 H 0.20538 0.33126 0.16883 0.0
H1410 H 0.23906 0.40354 0.17179 0.0
H1411 H 0.24805 0.44259 0.18556 0.0
H1412 H 0.17305 0.46259 0.17412 0.0
H1413 H 0.16358 0.42356 0.16054 0.0
C1414 C 0.16087 0.3409 0.06992 0.0
C1415 C 0.13756 0.35062 0.06354 0.0
C1416 C 0.17388 0.34554 0.09017 0.0
C1417 C 0.16379 0.35961 0.10494 0.0
C1418 C 0.14099 0.37045 0.09826 0.0
C1419 C 0.12799 0.36602 0.07773 0.0
C1420 C 0.17678 0.36212 0.12739 0.0
C1421 C 0.18139 0.38394 0.13673 0.0
C1422 C 0.18573 0.34296 0.13928 0.0
C1423 C 0.18099 0.3194 0.13088 0.0
C1424 C 0.1574 0.31282 0.12414 0.0
C1425 C 0.15313 0.2907 0.11579 0.0
C1426 C 0.17231 0.27501 0.11417 0.0
C1427 C 0.19578 0.28141 0.12096 0.0
C1428 C 0.20015 0.30344 0.12941 0.0
C1429 C 0.21954 0.38669 0.22749 0.0
C1430 C 0.24129 0.37422 0.23425 0.0
C1431 C 0.20742 0.38451 0.20657 0.0
C1432 C 0.21685 0.37004 0.19163 0.0
C1433 C 0.23848 0.35727 0.19845 0.0
C1434 C 0.25054 0.35936 0.21951 0.0
C1435 C 0.20379 0.36786 0.16916 0.0
C1436 C 0.19911 0.34606 0.15981 0.0
C1437 C 0.19498 0.38706 0.15723 0.0
C1438 C 0.20061 0.41057 0.16533 0.0
C1439 C 0.22447 0.41622 0.17235 0.0
C1440 C 0.22966 0.43836 0.1801 0.0
C1441 C 0.21113 0.45504 0.18076 0.0
C1442 C 0.18738 0.44964 0.17362 0.0
C1443 C 0.1821 0.42752 0.16588 0.0
H1444 H 0.21519 0.47217 0.18677 0.0
H1445 H 0.169 0.25791 0.10762 0.0
H1446 H 0.06959 0.78965 0.97185 0.0
H1447 H 0.09567 0.77695 0.94694 0.0
H1448 H 0.15274 0.8145 0.98427 0.0
H1449 H 0.12634 0.82806 0.00862 0.0
H1450 H 0.14805 0.82481 0.94641 0.0
H1451 H 0.15416 0.75392 0.97871 0.0
H1452 H 0.14003 0.72035 0.99236 0.0
H1453 H 0.10268 0.70104 0.93043 0.0
H1454 H 0.11631 0.73467 0.91644 0.0
H1455 H 0.22628 0.79223 0.87696 0.0
H1456 H 0.21017 0.79292 0.90924 0.0
H1457 H 0.14626 0.76316 0.87489 0.0
H1458 H 0.16285 0.76112 0.84269 0.0
H1459 H 0.15865 0.74715 0.91387 0.0
H1460 H 0.15006 0.82113 0.88334 0.0
H1461 H 0.16531 0.85457 0.87039 0.0
H1462 H 0.20896 0.86773 0.93112 0.0
H1463 H 0.19437 0.83407 0.94429 0.0
C1464 C 0.08783 0.79487 0.97489 0.0
C1465 C 0.09591 0.81 0.99201 0.0
C1466 C 0.1028 0.78748 0.96072 0.0
C1467 C 0.12628 0.79463 0.96377 0.0
C1468 C 0.13468 0.80883 0.98151 0.0
C1469 C 0.11959 0.81657 -0.00459 0.0
C1470 C 0.14116 0.78942 0.94737 0.0
C1471 C 0.1508 0.8077 0.93968 0.0
C1472 C 0.14437 0.76721 0.93821 0.0
C1473 C 0.13612 0.74694 0.94656 0.0
C1474 C 0.14278 0.74262 0.96802 0.0
C1475 C 0.13489 0.72356 0.97582 0.0
C1476 C 0.12042 0.7086 0.96228 0.0
C1477 C 0.11387 0.71265 0.9409 0.0
C1478 C 0.1217 0.73169 0.93303 0.0
C1479 C 0.20909 0.78523 0.87631 0.0
C1480 C 0.19574 0.77685 0.85712 0.0
C1481 C 0.19981 0.78584 0.89478 0.0
C1482 C 0.17682 0.77853 0.89437 0.0
C1483 C 0.16399 0.76903 0.87553 0.0
C1484 C 0.17337 0.76816 0.85708 0.0
C1485 C 0.16527 0.78254 0.91302 0.0
C1486 C 0.15618 0.76412 0.92098 0.0
C1487 C 0.1627 0.8046 0.92263 0.0
C1488 C 0.17132 0.82495 0.91472 0.0
C1489 C 0.16305 0.83105 0.89387 0.0
C1490 C 0.1716 0.85003 0.88649 0.0
C1491 C 0.1882 0.86319 0.89989 0.0
C1492 C 0.19622 0.85745 0.92072 0.0
C1493 C 0.18783 0.83842 0.92815 0.0
H1494 H 0.19478 0.87789 0.89416 0.0
H1495 H 0.11433 0.69385 0.96835 0.0
H1496 H 0.21645 0.10301 0.96963 0.0
H1497 H 0.22185 0.13422 0.94814 0.0
H1498 H 0.2441 0.08569 0.90189 0.0
H1499 H 0.23851 0.05444 0.92304 0.0
H1500 H 0.27738 0.11883 0.9183 0.0
H1501 H 0.19353 0.11451 0.88896 0.0
H1502 H 0.15056 0.11463 0.89011 0.0
H1503 H 0.15266 0.18211 0.91944 0.0
H1504 H 0.19576 0.18226 0.91878 0.0
H1505 H 0.29849 0.19276 0.845 0.0
H1506 H 0.28195 0.16253 0.86083 0.0
H1507 H 0.24736 0.21285 0.89828 0.0
H1508 H 0.26326 0.24323 0.88182 0.0
H1509 H 0.21927 0.17922 0.88665 0.0
H1510 H 0.30151 0.18422 0.91852 0.0
H1511 H 0.34488 0.18555 0.9197 0.0
H1512 H 0.34662 0.11863 0.88937 0.0
H1513 H 0.30317 0.11703 0.88774 0.0
C1514 C 0.22198 0.09896 0.95466 0.0
C1515 C 0.22722 0.07623 0.94813 0.0
C1516 C 0.22501 0.11681 0.94239 0.0
C1517 C 0.23344 0.11223 0.92347 0.0
C1518 C 0.23759 0.08955 0.91646 0.0
C1519 C 0.23432 0.07171 0.92856 0.0
C1520 C 0.24037 0.13096 0.91213 0.0
C1521 C 0.26462 0.13184 0.91108 0.0
C1522 C 0.22384 0.14842 0.90352 0.0
C1523 C 0.19796 0.14828 0.90405 0.0
C1524 C 0.18491 0.12928 0.89588 0.0
C1525 C 0.1605 0.12932 0.89639 0.0
C1526 C 0.1489 0.14833 0.90491 0.0
C1527 C 0.16168 0.16737 0.91289 0.0
C1528 C 0.18609 0.16741 0.91244 0.0
C1529 C 0.2873 0.19734 0.85657 0.0
C1530 C 0.28248 0.22028 0.86248 0.0
C1531 C 0.27787 0.18008 0.86563 0.0
C1532 C 0.26393 0.18537 0.88119 0.0
C1533 C 0.2582 0.20833 0.88643 0.0
C1534 C 0.26733 0.22566 0.87708 0.0
C1535 C 0.25629 0.16691 0.89255 0.0
C1536 C 0.23202 0.16616 0.89379 0.0
C1537 C 0.27288 0.14975 0.90177 0.0
C1538 C 0.29904 0.1506 0.90283 0.0
C1539 C 0.31111 0.16985 0.91197 0.0
C1540 C 0.33571 0.17065 0.91274 0.0
C1541 C 0.34849 0.15221 0.90457 0.0
C1542 C 0.33669 0.13291 0.89567 0.0
C1543 C 0.31209 0.13204 0.89483 0.0
H1544 H 0.36753 0.15286 0.90518 0.0
H1545 H 0.13 0.14834 0.90527 0.0
H1546 H 0.042 0.3248 0.93166 0.0
H1547 H 1.00506 0.33116 0.90637 0.0
H1548 H 0.97519 0.37317 0.95319 0.0
H1549 H 1.01291 0.36739 0.97852 0.0
H1550 H 0.96417 0.31769 0.90601 0.0
H1551 H 0.92797 0.408 0.92878 0.0
H1552 H 0.94314 0.44498 0.94355 0.0
H1553 H 1.00827 0.42888 0.9202 0.0
H1554 H 0.99338 0.39195 0.90508 0.0
H1555 H 0.84467 0.32906 0.85109 0.0
H1556 H 0.8799 0.32997 0.87925 0.0
H1557 H 0.90799 0.38178 0.84843 0.0
H1558 H 0.87241 0.38147 0.82061 0.0
H1559 H 0.91913 0.39095 0.8884 0.0
H1560 H 0.92696 0.32273 0.84483 0.0
H1561 H 0.91585 0.28586 0.82672 0.0
H1562 H 0.91324 0.25838 0.88586 0.0
H1563 H 0.92418 0.29517 0.90435 0.0
C1564 C 1.02775 0.33579 0.93651 0.0
C1565 C 1.03049 0.34563 0.95713 0.0
C1566 C 1.00646 0.33929 0.92201 0.0
C1567 C 0.98698 0.35255 0.92768 0.0
C1568 C 0.9899 0.36308 0.94815 0.0
C1569 C 1.01152 0.35982 0.96267 0.0
C1570 C 0.96355 0.35404 0.91236 0.0
C1571 C 0.95436 0.33378 0.90229 0.0
C1572 C 0.95057 0.37492 0.9071 0.0
C1573 C 0.95966 0.39711 0.91603 0.0
C1574 C 0.9455 0.41238 0.92677 0.0
C1575 C 0.95406 0.43333 0.9352 0.0
C1576 C 0.97669 0.43923 0.93288 0.0
C1577 C 0.99079 0.42424 0.92206 0.0
C1578 C 0.98231 0.40329 0.91359 0.0
C1579 C 0.85819 0.34086 0.85039 0.0
C1580 C 0.85561 0.35513 0.83343 0.0
C1581 C 0.87852 0.34125 0.8665 0.0
C1582 C 0.89709 0.35561 0.86593 0.0
C1583 C 0.8941 0.37047 0.84939 0.0
C1584 C 0.87366 0.37027 0.83339 0.0
C1585 C 0.91991 0.35461 0.88203 0.0
C1586 C 0.9289 0.37489 0.89227 0.0
C1587 C 0.93314 0.33378 0.88706 0.0
C1588 C 0.92611 0.31178 0.87594 0.0
C1589 C 0.9238 0.30889 0.85395 0.0
C1590 C 0.91758 0.28799 0.84362 0.0
C1591 C 0.91374 0.26981 0.85511 0.0
C1592 C 0.91617 0.27249 0.87697 0.0
C1593 C 0.92239 0.29335 0.88739 0.0
H1594 H 0.90896 0.25363 0.84709 0.0
H1595 H 0.98328 0.45545 0.93943 0.0
H1596 H 0.81486 1.01702 0.0554 0.0
H1597 H 0.82308 0.98868 0.02809 0.0
H1598 H 0.85413 0.03944 -0.0016 0.0
H1599 H 0.84569 0.068 0.02552 0.0
H1600 H 0.82078 1.01878 0.971 0.0
H1601 H 0.88852 0.99379 0.02114 0.0
H1602 H 0.91042 0.98144 0.05548 0.0
H1603 H 0.86761 0.92349 0.04985 0.0
H1604 H 0.84519 0.93565 0.01561 0.0
H1605 H 0.83299 0.9383 0.88766 0.0
H1606 H 0.84601 0.96484 0.91765 0.0
H1607 H 0.81943 0.92202 0.95846 0.0
H1608 H 0.80735 0.89505 0.92881 0.0
H1609 H 0.85748 0.94041 0.97956 0.0
H1610 H 0.78534 0.96891 0.93392 0.0
H1611 H 0.76146 0.98119 0.90025 0.0
H1612 H 0.81079 0.03251 0.89845 0.0
H1613 H 0.83512 1.02032 0.932 0.0
C1614 C 0.82393 1.02208 0.04334 0.0
C1615 C 0.82945 0.04487 0.04261 0.0
C1616 C 0.82872 1.00578 0.02775 0.0
C1617 C 0.8393 1.01186 0.01116 0.0
C1618 C 0.84594 0.03433 0.01101 0.0
C1619 C 0.84115 0.05064 0.02659 0.0
C1620 C 0.84094 0.99549 0.99289 0.0
C1621 C 0.82932 1.00182 0.97284 0.0
C1622 C 0.85157 0.97315 -0.00472 0.0
C1623 C 0.86506 0.96573 0.01585 0.0
C1624 C 0.88365 0.9785 0.02729 0.0
C1625 C 0.89618 0.97152 0.04673 0.0
C1626 C 0.89038 0.95172 0.05486 0.0
C1627 C 0.87207 0.93883 0.04354 0.0
C1628 C 0.85947 0.94574 0.0241 0.0
C1629 C 0.83045 0.93426 0.90311 0.0
C1630 C 0.81863 0.91479 0.90574 0.0
C1631 C 0.83767 0.94959 0.92023 0.0
C1632 C 0.83311 0.9458 0.94027 0.0
C1633 C 0.82299 0.9255 0.94318 0.0
C1634 C 0.81586 0.91017 0.92613 0.0
C1635 C 0.83688 0.96361 0.95783 0.0
C1636 C 0.8494 0.95754 0.97772 0.0
C1637 C 0.82684 0.98616 0.95541 0.0
C1638 C 0.81218 0.99354 0.93531 0.0
C1639 C 0.79116 0.98272 0.92626 0.0
C1640 C 0.77755 0.98967 0.90722 0.0
C1641 C 0.78465 1.00757 0.89718 0.0
C1642 C 0.80534 1.01861 0.90621 0.0
C1643 C 0.81905 1.01169 0.92524 0.0
H1644 H 0.77408 1.01293 0.88244 0.0
H1645 H 0.90011 0.94635 0.06992 0.0
H1646 H 0.97136 0.76238 0.0088 0.0
H1647 H 0.94285 0.74908 0.0287 0.0
H1648 H 0.98839 0.77027 0.08684 0.0
H1649 H 1.01682 0.78325 0.06723 0.0
H1650 H 0.96515 0.73243 0.09143 0.0
H1651 H 0.94636 0.80738 0.06134 0.0
H1652 H 0.93748 0.83196 0.03113 0.0
H1653 H 0.87704 0.79328 0.00393 0.0
H1654 H 0.88582 0.76827 0.03387 0.0
H1655 H 0.90565 0.7862 0.16735 0.0
H1656 H 0.92887 0.77307 0.1405 0.0
H1657 H 0.86382 0.75895 0.09675 0.0
H1658 H 0.84034 0.77309 0.12331 0.0
H1659 H 0.89089 0.78265 0.07912 0.0
H1660 H 0.90427 0.71509 0.11634 0.0
H1661 H 0.91411 0.69158 0.14722 0.0
H1662 H 0.98478 0.71622 0.16175 0.0
H1663 H 0.97529 0.74014 0.13115 0.0
C1664 C 0.97559 0.76351 0.02583 0.0
C1665 C 0.99604 0.77423 0.03649 0.0
C1666 C 0.95929 0.75596 0.03716 0.0
C1667 C 0.96335 0.75904 0.05922 0.0
C1668 C 0.98487 0.76776 0.06984 0.0
C1669 C 1.00102 0.77536 0.05859 0.0
C1670 C 0.9441 0.7568 0.07127 0.0
C1671 C 0.94878 0.74321 0.08871 0.0
C1672 C 0.9225 0.77048 0.06736 0.0
C1673 C 0.91689 0.78583 0.04967 0.0
C1674 C 0.93124 0.80409 0.04886 0.0
C1675 C 0.92624 0.81808 0.0318 0.0
C1676 C 0.90675 0.81414 0.01559 0.0
C1677 C 0.89216 0.79627 0.01647 0.0
C1678 C 0.89714 0.78218 0.03347 0.0
C1679 C 0.89625 0.78026 0.15204 0.0
C1680 C 0.87112 0.78085 0.14745 0.0
C1681 C 0.90958 0.77241 0.13678 0.0
C1682 C 0.89811 0.76468 0.11667 0.0
C1683 C 0.87305 0.76467 0.1122 0.0
C1684 C 0.85967 0.77263 0.12745 0.0
C1685 C 0.91231 0.7589 0.09988 0.0
C1686 C 0.90672 0.7711 0.08155 0.0
C1687 C 0.9331 0.74399 0.10307 0.0
C1688 C 0.93902 0.72948 0.12144 0.0
C1689 C 0.92187 0.7156 0.12618 0.0
C1690 C 0.9274 0.70218 0.14363 0.0
C1691 C 0.95005 0.70242 0.15644 0.0
C1692 C 0.96725 0.71604 0.1518 0.0
C1693 C 0.96182 0.7295 0.13437 0.0
H1694 H 0.95428 0.69203 0.16996 0.0
H1695 H 0.90293 0.82497 0.00237 0.0
H1696 H 0.21791 0.98362 0.02622 0.0
H1697 H 0.22345 0.96417 0.05879 0.0
H1698 H 0.18171 1.0183 0.08551 0.0
H1699 H 0.17678 0.03837 0.05306 0.0
H1700 H 0.22307 1.0135 0.10928 0.0
H1701 H 0.16502 0.96113 0.079 0.0
H1702 H 0.14406 0.93392 0.05249 0.0
H1703 H 0.20757 0.88941 0.05826 0.0
H1704 H 0.22904 0.91649 0.08459 0.0
H1705 H 0.25653 0.96136 0.20742 0.0
H1706 H 0.23154 0.97565 0.17538 0.0
H1707 H 0.27179 0.93103 0.13762 0.0
H1708 H 0.29649 0.91637 0.16956 0.0
H1709 H 0.22405 0.93135 0.12173 0.0
H1710 H 0.28308 0.98753 0.14655 0.0
H1711 H 0.30409 1.01429 0.17355 0.0
H1712 H 0.23741 0.05126 0.17779 0.0
H1713 H 0.21601 1.02461 0.15091 0.0
C1714 C 0.20919 0.9911 0.03873 0.0
C1715 C 0.19729 1.01282 0.03715 0.0
C1716 C 0.21229 0.97983 0.05741 0.0
C1717 C 0.20313 0.98978 0.07475 0.0
C1718 C 0.18913 1.01035 0.07242 0.0
C1719 C 0.18621 1.02177 0.05379 0.0
C1720 C 0.21147 0.98072 0.09594 0.0
C1721 C 0.22265 0.99562 0.11209 0.0
C1722 C 0.21151 0.9573 0.09961 0.0
C1723 C 0.19869 0.94094 0.08372 0.0
C1724 C 0.17458 0.94563 0.07451 0.0
C1725 C 0.1626 0.9302 0.05953 0.0
C1726 C 0.17448 0.90996 0.05368 0.0
C1727 C 0.19838 0.90509 0.06282 0.0
C1728 C 0.21046 0.92046 0.0778 0.0
C1729 C 0.25998 0.95455 0.19228 0.0
C1730 C 0.27863 0.93792 0.19099 0.0
C1731 C 0.24576 0.96279 0.174 0.0
C1732 C 0.2499 0.95451 0.15411 0.0
C1733 C 0.26824 0.93762 0.1528 0.0
C1734 C 0.28253 0.92947 0.17106 0.0
C1735 C 0.23592 0.96407 0.1346 0.0
C1736 C 0.22387 0.94928 0.11888 0.0
C1737 C 0.235 0.98758 0.13124 0.0
C1738 C 0.24794 1.00396 0.14692 0.0
C1739 C 0.27291 1.00133 0.15331 0.0
C1740 C 0.28488 1.01647 0.16857 0.0
C1741 C 0.27208 0.03439 0.17745 0.0
C1742 C 0.2473 0.03733 0.17095 0.0
C1743 C 0.23524 1.02225 0.15567 0.0
H1744 H 0.28137 0.04605 0.18933 0.0
H1745 H 0.16517 0.89805 0.04208 0.0
H1746 H 0.80846 0.14628 0.10938 0.0
H1747 H 0.80655 0.18121 0.13178 0.0
H1748 H 0.79982 0.14164 0.18371 0.0
H1749 H 0.8018 0.10667 0.16152 0.0
H1750 H 0.76477 0.17643 0.17661 0.0
H1751 H 0.85071 0.16766 0.18531 0.0
H1752 H 0.88928 0.16235 0.17314 0.0
H1753 H 0.87345 0.22395 0.14009 0.0
H1754 H 0.83475 0.22952 0.15195 0.0
H1755 H 0.77356 0.26589 0.25644 0.0
H1756 H 0.77643 0.2311 0.23417 0.0
H1757 H 0.79668 0.26988 0.1868 0.0
H1758 H 0.79522 0.30445 0.20967 0.0
H1759 H 0.82484 0.23507 0.19126 0.0
H1760 H 0.73951 0.24463 0.18173 0.0
H1761 H 0.70017 0.25046 0.19243 0.0
H1762 H 0.71307 0.18833 0.22482 0.0
H1763 H 0.75263 0.18227 0.21453 0.0
C1764 C 0.80702 0.14496 0.12567 0.0
C1765 C 0.80522 0.12363 0.13361 0.0
C1766 C 0.80593 0.16496 0.13846 0.0
C1767 C 0.80299 0.16404 0.15942 0.0
C1768 C 0.80201 0.14275 0.16757 0.0
C1769 C 0.80327 0.12276 0.15486 0.0
C1770 C 0.7995 0.1853 0.17245 0.0
C1771 C 0.77804 0.18914 0.18011 0.0
C1772 C 0.81645 0.20218 0.17642 0.0
C1773 C 0.83975 0.19888 0.16934 0.0
C1774 C 0.8554 0.17998 0.17532 0.0
C1775 C 0.87732 0.17695 0.16853 0.0
C1776 C 0.88381 0.19278 0.15582 0.0
C1777 C 0.86844 0.2117 0.14995 0.0
C1778 C 0.84652 0.21482 0.15673 0.0
C1779 C 0.77798 0.26706 0.24103 0.0
C1780 C 0.78385 0.28792 0.23466 0.0
C1781 C 0.77965 0.24713 0.22827 0.0
C1782 C 0.7865 0.24776 0.20858 0.0
C1783 C 0.79142 0.26883 0.20189 0.0
C1784 C 0.79034 0.28864 0.21487 0.0
C1785 C 0.78999 0.22638 0.19553 0.0
C1786 C 0.81147 0.22246 0.18784 0.0
C1787 C 0.77291 0.20953 0.19132 0.0
C1788 C 0.74912 0.21311 0.19751 0.0
C1789 C 0.73402 0.2323 0.19126 0.0
C1790 C 0.71168 0.23563 0.19723 0.0
C1791 C 0.70415 0.2198 0.20934 0.0
C1792 C 0.71894 0.20058 0.21546 0.0
C1793 C 0.74131 0.19718 0.20954 0.0
H1794 H 0.68684 0.22241 0.21395 0.0
H1795 H 0.90077 0.19038 0.15055 0.0
H1796 H 0.57427 0.66266 0.73202 0.0
H1797 H 0.60359 0.69175 0.73671 0.0
H1798 H 0.6508 0.65162 0.78233 0.0
H1799 H 0.62085 0.62294 0.77828 0.0
H1800 H 0.65542 0.69213 0.79569 0.0
H1801 H 0.65835 0.65697 0.72793 0.0
H1802 H 0.64287 0.64273 0.69159 0.0
H1803 H 0.61709 0.71047 0.67493 0.0
H1804 H 0.63216 0.72508 0.71125 0.0
H1805 H 0.74697 0.7602 0.74844 0.0
H1806 H 0.7195 0.72966 0.74585 0.0
H1807 H 0.68538 0.76543 0.79349 0.0
H1808 H 0.7137 0.79535 0.79689 0.0
H1809 H 0.67626 0.72515 0.73363 0.0
H1810 H 0.65692 0.73126 0.81871 0.0
H1811 H 0.67768 0.74077 0.85492 0.0
H1812 H 0.74555 0.72295 0.83685 0.0
H1813 H 0.72518 0.71307 0.80061 0.0
C1814 C 0.59095 0.65994 0.74298 0.0
C1815 C 0.59519 0.64026 0.75463 0.0
C1816 C 0.60788 0.67664 0.74562 0.0
C1817 C 0.62998 0.67395 0.75956 0.0
C1818 C 0.63408 0.65438 0.77142 0.0
C1819 C 0.61691 0.63786 0.76908 0.0
C1820 C 0.64862 0.69151 0.76182 0.0
C1821 C 0.6599 0.69929 0.78205 0.0
C1822 C 0.65527 0.70076 0.74422 0.0
C1823 C 0.64618 0.69207 0.72236 0.0
C1824 C 0.64924 0.6688 0.71655 0.0
C1825 C 0.64056 0.66067 0.69595 0.0
C1826 C 0.62895 0.67568 0.68098 0.0
C1827 C 0.62605 0.69886 0.68656 0.0
C1828 C 0.63468 0.70708 0.70714 0.0
C1829 C 0.73379 0.76147 0.75856 0.0
C1830 C 0.73284 0.78026 0.77305 0.0
C1831 C 0.71789 0.74395 0.75698 0.0
C1832 C 0.70025 0.74472 0.76964 0.0
C1833 C 0.69908 0.76373 0.7839 0.0
C1834 C 0.71531 0.78104 0.78578 0.0
C1835 C 0.6829 0.726 0.76751 0.0
C1836 C 0.6718 0.71802 0.74729 0.0
C1837 C 0.67712 0.71595 0.78511 0.0
C1838 C 0.68951 0.72166 0.8069 0.0
C1839 C 0.67626 0.7293 0.82249 0.0
C1840 C 0.68796 0.73477 0.84301 0.0
C1841 C 0.71292 0.73254 0.84816 0.0
C1842 C 0.72622 0.72475 0.83282 0.0
C1843 C 0.71461 0.71924 0.81228 0.0
H1844 H 0.72194 0.7368 0.86405 0.0
H1845 H 0.62224 0.66935 0.66504 0.0
H1846 H 0.47485 0.63989 0.74588 0.0
H1847 H 0.44632 0.67122 0.75092 0.0
H1848 H 0.46076 0.66247 0.81769 0.0
H1849 H 0.4899 0.63041 0.81269 0.0
H1850 H 0.41165 0.66864 0.80152 0.0
H1851 H 0.48156 0.70787 0.79867 0.0
H1852 H 0.51665 0.71666 0.78416 0.0
H1853 H 0.47079 0.73522 0.72653 0.0
H1854 H 0.43543 0.72626 0.74055 0.0
H1855 H 0.3567 0.7948 0.79782 0.0
H1856 H 0.39172 0.76732 0.8027 0.0
H1857 H 0.35033 0.71743 0.76277 0.0
H1858 H 0.31575 0.7447 0.75753 0.0
H1859 H 0.41656 0.74356 0.77242 0.0
H1860 H 0.36619 0.66516 0.78437 0.0
H1861 H 0.33098 0.65648 0.79878 0.0
H1862 H 0.33853 0.71704 0.8395 0.0
H1863 H 0.37399 0.7259 0.82557 0.0
C1864 C 0.47221 0.64448 0.76176 0.0
C1865 C 0.48489 0.63238 0.77889 0.0
C1866 C 0.45581 0.66267 0.7646 0.0
C1867 C 0.45137 0.6696 0.78469 0.0
C1868 C 0.46387 0.6576 0.80198 0.0
C1869 C 0.48063 0.63931 0.79915 0.0
C1870 C 0.43325 0.68899 0.78706 0.0
C1871 C 0.4129 0.68506 0.79533 0.0
C1872 C 0.43465 0.71064 0.77909 0.0
C1873 C 0.45585 0.71629 0.77066 0.0
C1874 C 0.47896 0.71371 0.78286 0.0
C1875 C 0.4989 0.71874 0.77472 0.0
C1876 C 0.49595 0.72647 0.75443 0.0
C1877 C 0.47304 0.72924 0.74224 0.0
C1878 C 0.45304 0.72423 0.75029 0.0
C1879 C 0.35512 0.77799 0.79006 0.0
C1880 C 0.33331 0.77201 0.77734 0.0
C1881 C 0.37517 0.76227 0.79284 0.0
C1882 C 0.37372 0.74009 0.7833 0.0
C1883 C 0.35197 0.73424 0.77053 0.0
C1884 C 0.33215 0.74997 0.7675 0.0
C1885 C 0.39475 0.72296 0.78635 0.0
C1886 C 0.41552 0.72726 0.77892 0.0
C1887 C 0.39371 0.70166 0.79504 0.0
C1888 C 0.37265 0.69627 0.80379 0.0
C1889 C 0.36042 0.67656 0.79648 0.0
C1890 C 0.3404 0.67162 0.80455 0.0
C1891 C 0.33248 0.68623 0.82 0.0
C1892 C 0.34462 0.70578 0.82748 0.0
C1893 C 0.36467 0.71078 0.81948 0.0
H1894 H 0.31697 0.68239 0.82621 0.0
H1895 H 0.51141 0.73034 0.74815 0.0
H1896 H 0.45414 0.53663 0.7785 0.0
H1897 H 0.42555 0.50917 0.78337 0.0
H1898 H 0.46447 0.45646 0.75193 0.0
H1899 H 0.49144 0.48443 0.74546 0.0
H1900 H 0.42448 0.44685 0.74041 0.0
H1901 H 0.4631 0.46498 0.81094 0.0
H1902 H 0.47752 0.48935 0.84261 0.0
H1903 H 0.40528 0.51343 0.84534 0.0
H1904 H 0.39046 0.48938 0.81354 0.0
H1905 H 0.3647 0.37094 0.81002 0.0
H1906 H 0.39359 0.39938 0.80768 0.0
H1907 H 0.35145 0.41911 0.74844 0.0
H1908 H 0.3227 0.39122 0.7508 0.0
H1909 H 0.39382 0.44392 0.80674 0.0
H1910 H 0.384 0.43141 0.71513 0.0
H1911 H 0.38272 0.39984 0.68783 0.0
H1912 H 0.41604 0.35383 0.73475 0.0
H1913 H 0.41684 0.38473 0.7622 0.0
C1914 C 0.45658 0.51913 0.77274 0.0
C1915 C 0.4751 0.51281 0.76155 0.0
C1916 C 0.44027 0.50323 0.77568 0.0
C1917 C 0.44266 0.48018 0.76843 0.0
C1918 C 0.46161 0.47393 0.75761 0.0
C1919 C 0.47729 0.48998 0.75398 0.0
C1920 C 0.42543 0.46266 0.77154 0.0
C1921 C 0.41789 0.44649 0.755 0.0
C1922 C 0.4169 0.46111 0.79066 0.0
C1923 C 0.42571 0.47557 0.80975 0.0
C1924 C 0.45031 0.47559 0.81823 0.0
C1925 C 0.45855 0.48932 0.83621 0.0
C1926 C 0.44233 0.50298 0.84594 0.0
C1927 C 0.41783 0.50287 0.83776 0.0
C1928 C 0.40949 0.48918 0.81977 0.0
C1929 C 0.36148 0.38145 0.79658 0.0
C1930 C 0.34123 0.37849 0.78058 0.0
C1931 C 0.37809 0.39778 0.79522 0.0
C1932 C 0.37512 0.41142 0.77771 0.0
C1933 C 0.35467 0.40871 0.76197 0.0
C1934 C 0.33805 0.39264 0.7634 0.0
C1935 C 0.39313 0.42846 0.77564 0.0
C1936 C 0.40052 0.44455 0.79222 0.0
C1937 C 0.40277 0.42913 0.75709 0.0
C1938 C 0.40002 0.41026 0.74074 0.0
C1939 C 0.39056 0.41443 0.7196 0.0
C1940 C 0.38981 0.39663 0.70412 0.0
C1941 C 0.39873 0.37474 0.70958 0.0
C1942 C 0.40847 0.37059 0.73053 0.0
C1943 C 0.40892 0.38818 0.74608 0.0
H1944 H 0.39837 0.36105 0.69754 0.0
H1945 H 0.44874 0.5136 0.85986 0.0
H1946 H 0.62255 0.55694 0.79954 0.0
H1947 H 0.65767 0.52965 0.80437 0.0
H1948 H 0.61136 0.47435 0.78488 0.0
H1949 H 0.57657 0.50152 0.78005 0.0
H1950 H 0.6467 0.46145 0.816 0.0
H1951 H 0.64118 0.49795 0.75073 0.0
H1952 H 0.63976 0.53064 0.7286 0.0
H1953 H 0.70892 0.54863 0.76222 0.0
H1954 H 0.7106 0.5162 0.78476 0.0
H1955 H 0.71406 0.37261 0.77479 0.0
H1956 H 0.68669 0.40509 0.77959 0.0
H1957 H 0.74623 0.44749 0.7999 0.0
H1958 H 0.77427 0.41438 0.79527 0.0
H1959 H 0.70873 0.46999 0.7732 0.0
H1960 H 0.71577 0.43015 0.83596 0.0
H1961 H 0.71673 0.39664 0.85698 0.0
H1962 H 0.64434 0.38448 0.8275 0.0
H1963 H 0.64305 0.41774 0.80609 0.0
C1964 C 0.61986 0.53889 0.79709 0.0
C1965 C 0.59667 0.53136 0.78998 0.0
C1966 C 0.64 0.52327 0.7995 0.0
C1967 C 0.63741 0.49975 0.79478 0.0
C1968 C 0.61408 0.49225 0.78872 0.0
C1969 C 0.59409 0.50782 0.78612 0.0
C1970 C 0.65868 0.48293 0.795 0.0
C1971 C 0.66019 0.46338 0.80658 0.0
C1972 C 0.67683 0.4854 0.78314 0.0
C1973 C 0.67588 0.50484 0.7696 0.0
C1974 C 0.656 0.509 0.75352 0.0
C1975 C 0.65516 0.52745 0.74088 0.0
C1976 C 0.6742 0.54175 0.74405 0.0
C1977 C 0.69416 0.53757 0.75982 0.0
C1978 C 0.69506 0.51916 0.77253 0.0
C1979 C 0.72158 0.38877 0.78032 0.0
C1980 C 0.74657 0.39066 0.78484 0.0
C1981 C 0.70573 0.40746 0.7831 0.0
C1982 C 0.71415 0.42888 0.79042 0.0
C1983 C 0.73913 0.43118 0.79434 0.0
C1984 C 0.7552 0.41222 0.79172 0.0
C1985 C 0.69649 0.44838 0.79395 0.0
C1986 C 0.69555 0.46832 0.78298 0.0
C1987 C 0.67878 0.44628 0.80634 0.0
C1988 C 0.67936 0.42639 0.81935 0.0
C1989 C 0.7001 0.42026 0.83388 0.0
C1990 C 0.70069 0.40132 0.84587 0.0
C1991 C 0.68062 0.38843 0.84356 0.0
C1992 C 0.65988 0.39448 0.82928 0.0
C1993 C 0.65919 0.41341 0.81724 0.0
H1994 H 0.68112 0.37376 0.85286 0.0
H1995 H 0.67353 0.55603 0.73425 0.0
H1996 H 0.58333 0.50893 0.26372 0.0
H1997 H 0.61552 0.47912 0.26761 0.0
H1998 H 0.66318 0.52617 0.30476 0.0
H1999 H 0.63052 0.55631 0.30098 0.0
H2000 H 0.68394 0.50319 0.27368 0.0
H2001 H 0.64399 0.48088 0.32695 0.0
H2002 H 0.60982 0.47065 0.34201 0.0
H2003 H 0.5982 0.41408 0.29678 0.0
H2004 H 0.63211 0.42416 0.28123 0.0
H2005 H 0.78103 0.42191 0.29512 0.0
H2006 H 0.74841 0.45007 0.29834 0.0
H2007 H 0.69729 0.40176 0.26886 0.0
H2008 H 0.73032 0.37293 0.26642 0.0
H2009 H 0.67831 0.42576 0.29721 0.0
H2010 H 0.71553 0.44847 0.2424 0.0
H2011 H 0.74864 0.4584 0.22577 0.0
H2012 H 0.76392 0.51392 0.27164 0.0
H2013 H 0.73107 0.50414 0.28871 0.0
C2014 C 0.60048 0.51289 0.27321 0.0
C2015 C 0.60405 0.5351 0.28228 0.0
C2016 C 0.61902 0.49569 0.27541 0.0
C2017 C 0.64207 0.50003 0.28658 0.0
C2018 C 0.64566 0.52213 0.29609 0.0
C2019 C 0.62685 0.53937 0.29416 0.0
C2020 C 0.6624 0.48186 0.28711 0.0
C2021 C 0.68284 0.48643 0.27924 0.0
C2022 C 0.66092 0.45948 0.29354 0.0
C2023 C 0.64047 0.45341 0.3028 0.0
C2024 C 0.63402 0.46638 0.32009 0.0
C2025 C 0.61473 0.46058 0.32874 0.0
C2026 C 0.60181 0.44176 0.32033 0.0
C2027 C 0.60821 0.42867 0.30326 0.0
C2028 C 0.62748 0.43441 0.29454 0.0
C2029 C 0.76285 0.41712 0.28936 0.0
C2030 C 0.7585 0.39505 0.28029 0.0
C2031 C 0.74404 0.43346 0.29106 0.0
C2032 C 0.72001 0.42868 0.28327 0.0
C2033 C 0.7155 0.40629 0.27486 0.0
C2034 C 0.73446 0.38969 0.27343 0.0
C2035 C 0.69997 0.44709 0.28381 0.0
C2036 C 0.67952 0.44256 0.29176 0.0
C2037 C 0.70127 0.46947 0.2772 0.0
C2038 C 0.72099 0.47543 0.26695 0.0
C2039 C 0.72605 0.4627 0.24902 0.0
C2040 C 0.74476 0.46832 0.23951 0.0
C2041 C 0.75842 0.48674 0.24768 0.0
C2042 C 0.75335 0.49963 0.26535 0.0
C2043 C 0.73468 0.49408 0.27494 0.0
H2044 H 0.77289 0.49106 0.24029 0.0
H2045 H 0.58689 0.43729 0.32706 0.0
H2046 H 0.60168 0.66485 0.2218 0.0
H2047 H 0.63073 0.69407 0.22549 0.0
H2048 H 0.66007 0.67448 0.28854 0.0
H2049 H 0.63036 0.64563 0.28507 0.0
H2050 H 0.66075 0.718 0.28893 0.0
H2051 H 0.68785 0.65891 0.24369 0.0
H2052 H 0.68519 0.63119 0.21325 0.0
H2053 H 0.66897 0.68565 0.17107 0.0
H2054 H 0.67123 0.7137 0.20128 0.0
H2055 H 0.76858 0.77576 0.29592 0.0
H2056 H 0.73923 0.74699 0.2941 0.0
H2057 H 0.70464 0.76823 0.23277 0.0
H2058 H 0.73434 0.79679 0.23452 0.0
H2059 H 0.70756 0.72341 0.23247 0.0
H2060 H 0.68105 0.78248 0.27994 0.0
H2061 H 0.688 0.80879 0.31142 0.0
H2062 H 0.70727 0.75213 0.35076 0.0
H2063 H 0.70066 0.72548 0.31948 0.0
C2064 C 0.61435 0.66667 0.23644 0.0
C2065 C 0.6137 0.65263 0.25305 0.0
C2066 C 0.63112 0.68343 0.23854 0.0
C2067 C 0.64824 0.68638 0.25715 0.0
C2068 C 0.64727 0.6727 0.27395 0.0
C2069 C 0.63021 0.65613 0.27196 0.0
C2070 C 0.66712 0.70353 0.25892 0.0
C2071 C 0.67112 0.71892 0.27664 0.0
C2072 C 0.68081 0.70518 0.24295 0.0
C2073 C 0.67948 0.68838 0.22475 0.0
C2074 C 0.68355 0.66497 0.22792 0.0
C2075 C 0.68214 0.6492 0.21071 0.0
C2076 C 0.67685 0.65665 0.19024 0.0
C2077 C 0.67303 0.6799 0.18694 0.0
C2078 C 0.6744 0.69574 0.2041 0.0
C2079 C 0.75447 0.77456 0.28223 0.0
C2080 C 0.7536 0.78895 0.26561 0.0
C2081 C 0.73765 0.75801 0.28114 0.0
C2082 C 0.71919 0.75553 0.26345 0.0
C2083 C 0.7185 0.76973 0.24667 0.0
C2084 C 0.73549 0.78617 0.24771 0.0
C2085 C 0.70088 0.73801 0.26225 0.0
C2086 C 0.69707 0.72251 0.24468 0.0
C2087 C 0.68767 0.73606 0.27849 0.0
C2088 C 0.69047 0.752 0.29737 0.0
C2089 C 0.68675 0.77564 0.29531 0.0
C2090 C 0.69066 0.79061 0.31311 0.0
C2091 C 0.6981 0.78214 0.33308 0.0
C2092 C 0.70149 0.75867 0.33529 0.0
C2093 C 0.69761 0.74362 0.31754 0.0
H2094 H 0.70125 0.79377 0.34683 0.0
H2095 H 0.67576 0.64441 0.17694 0.0
H2096 H 0.50429 0.64227 0.31184 0.0
H2097 H 0.47423 0.67335 0.31724 0.0
H2098 H 0.47298 0.69449 0.25463 0.0
H2099 H 0.50277 0.66452 0.24948 0.0
H2100 H 0.47175 0.73058 0.27814 0.0
H2101 H 0.42794 0.66201 0.27004 0.0
H2102 H 0.41904 0.62421 0.27973 0.0
H2103 H 0.40919 0.65235 0.34052 0.0
H2104 H 0.41833 0.69027 0.33127 0.0
H2105 H 0.36318 0.79523 0.24898 0.0
H2106 H 0.39441 0.76441 0.25258 0.0
H2107 H 0.38803 0.75898 0.31722 0.0
H2108 H 0.35644 0.78995 0.3136 0.0
H2109 H 0.39477 0.71641 0.29852 0.0
H2110 H 0.43475 0.78575 0.30492 0.0
H2111 H 0.44308 0.82351 0.29475 0.0
H2112 H 0.46023 0.79367 0.23681 0.0
H2113 H 0.45166 0.75576 0.24649 0.0
C2114 C 0.4978 0.65374 0.29938 0.0
C2115 C 0.50615 0.65059 0.28019 0.0
C2116 C 0.48034 0.67146 0.30237 0.0
C2117 C 0.4708 0.68646 0.28625 0.0
C2118 C 0.47973 0.68349 0.26744 0.0
C2119 C 0.49692 0.66603 0.26449 0.0
C2120 C 0.4516 0.70526 0.28829 0.0
C2121 C 0.45489 0.72727 0.28247 0.0
C2122 C 0.4296 0.70164 0.29451 0.0
C2123 C 0.4241 0.67889 0.30006 0.0
C2124 C 0.42405 0.66009 0.28553 0.0
C2125 C 0.41893 0.63866 0.29093 0.0
C2126 C 0.41363 0.63587 0.31075 0.0
C2127 C 0.41336 0.65452 0.32519 0.0
C2128 C 0.4185 0.67599 0.31988 0.0
C2129 C 0.36827 0.78746 0.26397 0.0
C2130 C 0.35724 0.79534 0.28102 0.0
C2131 C 0.38633 0.76978 0.26607 0.0
C2132 C 0.39416 0.75933 0.2853 0.0
C2133 C 0.38259 0.76663 0.3022 0.0
C2134 C 0.36448 0.78444 0.30012 0.0
C2135 C 0.41474 0.74138 0.28768 0.0
C2136 C 0.41172 0.71968 0.29437 0.0
C2137 C 0.43704 0.7452 0.28218 0.0
C2138 C 0.44239 0.76794 0.27637 0.0
C2139 C 0.44015 0.78726 0.28995 0.0
C2140 C 0.44493 0.80869 0.28428 0.0
C2141 C 0.45214 0.811 0.26513 0.0
C2142 C 0.45463 0.79186 0.25163 0.0
C2143 C 0.44984 0.7704 0.25721 0.0
H2144 H 0.45582 0.8276 0.26076 0.0
H2145 H 0.40967 0.61926 0.31491 0.0
H2146 H 0.50223 0.52442 0.28576 0.0
H2147 H 0.4724 0.49883 0.29174 0.0
H2148 H 0.4241 0.52227 0.23681 0.0
H2149 H 0.45373 0.5477 0.23072 0.0
H2150 H 0.42836 0.50295 0.29983 0.0
H2151 H 0.39121 0.47989 0.21187 0.0
H2152 H 0.40513 0.47621 0.17794 0.0
H2153 H 0.47741 0.46338 0.21023 0.0
H2154 H 0.46388 0.46668 0.2443 0.0
H2155 H 0.32239 0.44145 0.29351 0.0
H2156 H 0.35147 0.46903 0.2899 0.0
H2157 H 0.3934 0.41575 0.26232 0.0
H2158 H 0.36408 0.38859 0.26503 0.0
H2159 H 0.39332 0.44979 0.2414 0.0
H2160 H 0.40844 0.44047 0.31584 0.0
H2161 H 0.39766 0.44038 0.35093 0.0
H2162 H 0.37586 0.51147 0.34828 0.0
H2163 H 0.38621 0.51191 0.31304 0.0
C2164 C 0.48522 0.52428 0.27501 0.0
C2165 C 0.48069 0.5381 0.25758 0.0
C2166 C 0.46809 0.50957 0.27847 0.0
C2167 C 0.44594 0.50821 0.2646 0.0
C2168 C 0.44115 0.52248 0.24755 0.0
C2169 C 0.45825 0.53707 0.24403 0.0
C2170 C 0.42813 0.49156 0.26754 0.0
C2171 C 0.42069 0.49136 0.28703 0.0
C2172 C 0.41826 0.47599 0.25107 0.0
C2173 C 0.42654 0.47379 0.23064 0.0
C2174 C 0.41006 0.47622 0.21171 0.0
C2175 C 0.41789 0.4742 0.19246 0.0
C2176 C 0.44215 0.46964 0.19194 0.0
C2177 C 0.45864 0.467 0.21066 0.0
C2178 C 0.4509 0.46897 0.22994 0.0
C2179 C 0.33782 0.43562 0.28669 0.0
C2180 C 0.3407 0.41271 0.27949 0.0
C2181 C 0.35461 0.45143 0.28473 0.0
C2182 C 0.37503 0.44465 0.27599 0.0
C2183 C 0.3779 0.42171 0.26899 0.0
C2184 C 0.36101 0.40606 0.27061 0.0
C2185 C 0.39328 0.46119 0.27368 0.0
C2186 C 0.40085 0.46141 0.25424 0.0
C2187 C 0.4037 0.47628 0.29038 0.0
C2188 C 0.39789 0.47617 0.31172 0.0
C2189 C 0.40124 0.45606 0.3227 0.0
C2190 C 0.39521 0.45594 0.34262 0.0
C2191 C 0.38602 0.47589 0.35181 0.0
C2192 C 0.38295 0.49602 0.34113 0.0
C2193 C 0.38891 0.49622 0.3212 0.0
H2194 H 0.38132 0.47576 0.36721 0.0
H2195 H 0.44818 0.46811 0.17702 0.0
H2196 H 0.85887 0.65146 0.5122 0.0
H2197 H 0.8611 0.67788 0.543 0.0
H2198 H 0.88499 0.62245 0.58355 0.0
H2199 H 0.88241 0.59583 0.55283 0.0
H2200 H 0.84598 0.64384 0.59303 0.0
H2201 H 0.92082 0.66689 0.58205 0.0
H2202 H 0.94969 0.67972 0.56205 0.0
H2203 H 0.90575 0.74098 0.54837 0.0
H2204 H 0.87643 0.72839 0.56803 0.0
H2205 H 0.83971 0.71829 0.68269 0.0
H2206 H 0.85666 0.69194 0.65785 0.0
H2207 H 0.8347 0.73953 0.60911 0.0
H2208 H 0.81862 0.76627 0.634 0.0
H2209 H 0.87842 0.72035 0.60725 0.0
H2210 H 0.80132 0.69466 0.61291 0.0
H2211 H 0.77118 0.68187 0.63159 0.0
H2212 H 0.81875 0.6254 0.65396 0.0
H2213 H 0.84931 0.63805 0.63562 0.0
C2214 C 0.86532 0.64497 0.52763 0.0
C2215 C 0.8701 0.62149 0.53009 0.0
C2216 C 0.86666 0.66014 0.54526 0.0
C2217 C 0.8731 0.65213 0.56561 0.0
C2218 C 0.87985 0.62898 0.568 0.0
C2219 C 0.8784 0.61379 0.5504 0.0
C2220 C 0.86934 0.66715 0.58413 0.0
C2221 C 0.8536 0.66033 0.59647 0.0
C2222 C 0.87871 0.68892 0.58824 0.0
C2223 C 0.89633 0.69661 0.57642 0.0
C2224 C 0.91721 0.68302 0.57464 0.0
C2225 C 0.93368 0.69027 0.56339 0.0
C2226 C 0.92954 0.71113 0.55392 0.0
C2227 C 0.90894 0.72482 0.55571 0.0
C2228 C 0.8924 0.71765 0.56694 0.0
C2229 C 0.83876 0.72326 0.66676 0.0
C2230 C 0.82755 0.74427 0.66026 0.0
C2231 C 0.84833 0.70813 0.65255 0.0
C2232 C 0.84671 0.71368 0.63157 0.0
C2233 C 0.83613 0.73488 0.62521 0.0
C2234 C 0.82664 0.75002 0.6394 0.0
C2235 C 0.85491 0.69706 0.61587 0.0
C2236 C 0.8713 0.70363 0.60405 0.0
C2237 C 0.84604 0.67506 0.61208 0.0
C2238 C 0.8277 0.66746 0.62312 0.0
C2239 C 0.80542 0.67963 0.62196 0.0
C2240 C 0.78825 0.67239 0.63246 0.0
C2241 C 0.79308 0.65288 0.64402 0.0
C2242 C 0.81506 0.64054 0.64505 0.0
C2243 C 0.83231 0.64773 0.6346 0.0
H2244 H 0.77976 0.64729 0.65212 0.0
H2245 H 0.94231 0.71671 0.54521 0.0
H2246 H 0.50547 0.96279 0.61749 0.0
H2247 H 0.47611 0.95479 0.63842 0.0
H2248 H 0.42549 0.93898 0.58167 0.0
H2249 H 0.45517 0.94665 0.56056 0.0
H2250 H 0.43264 0.96841 0.64374 0.0
H2251 H 0.39667 0.89244 0.5895 0.0
H2252 H 0.40883 0.86653 0.56138 0.0
H2253 H 0.48281 0.87448 0.5884 0.0
H2254 H 0.47108 0.90009 0.61685 0.0
H2255 H 0.34784 0.92315 0.69357 0.0
H2256 H 0.3653 0.9369 0.66536 0.0
H2257 H 0.4195 0.88169 0.6733 0.0
H2258 H 0.4017 0.86757 0.70109 0.0
H2259 H 0.40677 0.88916 0.6332 0.0
H2260 H 0.42945 0.9355 0.6971 0.0
H2261 H 0.42211 0.96053 0.72752 0.0
H2262 H 0.38309 1.00946 0.68583 0.0
H2263 H 0.38994 0.98455 0.65514 0.0
C2264 C 0.48789 0.95826 0.60942 0.0
C2265 C 0.48268 0.95512 0.58738 0.0
C2266 C 0.4711 0.95363 0.62142 0.0
C2267 C 0.44878 0.94587 0.61162 0.0
C2268 C 0.4428 0.94451 0.58956 0.0
C2269 C 0.45971 0.94891 0.57753 0.0
C2270 C 0.43299 0.93714 0.62462 0.0
C2271 C 0.42673 0.95118 0.64129 0.0
C2272 C 0.4257 0.91449 0.62167 0.0
C2273 C 0.43297 0.89838 0.60513 0.0
C2274 C 0.41552 0.88853 0.5895 0.0
C2275 C 0.42234 0.87392 0.5735 0.0
C2276 C 0.44658 0.86894 0.57306 0.0
C2277 C 0.46405 0.8784 0.58872 0.0
C2278 C 0.45732 0.89295 0.60479 0.0
C2279 C 0.36337 0.91388 0.68914 0.0
C2280 C 0.3736 0.89445 0.69961 0.0
C2281 C 0.37331 0.92173 0.67304 0.0
C2282 C 0.39396 0.91055 0.66747 0.0
C2283 C 0.40357 0.89058 0.67732 0.0
C2284 C 0.39343 0.88255 0.69321 0.0
C2285 C 0.40654 0.9204 0.65244 0.0
C2286 C 0.41223 0.90655 0.6354 0.0
C2287 C 0.41397 0.94301 0.65544 0.0
C2288 C 0.40998 0.95806 0.67385 0.0
C2289 C 0.41917 0.95153 0.69443 0.0
C2290 C 0.41511 0.9657 0.71171 0.0
C2291 C 0.40208 0.98654 0.70861 0.0
C2292 C 0.39314 0.99329 0.68821 0.0
C2293 C 0.39711 0.97916 0.67087 0.0
H2294 H 0.39896 0.99749 0.72201 0.0
H2295 H 0.45182 0.85771 0.56061 0.0
H2296 H 0.35635 0.58992 0.67305 0.0
H2297 H 0.36019 0.55169 0.68579 0.0
H2298 H 0.3823 0.52491 0.62845 0.0
H2299 H 0.37737 0.56289 0.61517 0.0
H2300 H 0.34558 0.50447 0.6345 0.0
H2301 H 0.42068 0.5194 0.67708 0.0
H2302 H 0.44981 0.54196 0.70161 0.0
H2303 H 0.40704 0.54104 0.74933 0.0
H2304 H 0.37765 0.51846 0.72513 0.0
H2305 H 0.3293 0.3979 0.67177 0.0
H2306 H 0.3527 0.42734 0.66174 0.0
H2307 H 0.33114 0.47374 0.70998 0.0
H2308 H 0.30784 0.44438 0.72002 0.0
H2309 H 0.37785 0.47867 0.70622 0.0
H2310 H 0.29939 0.47317 0.66074 0.0
H2311 H 0.2685 0.45277 0.63602 0.0
H2312 H 0.31747 0.43783 0.59346 0.0
H2313 H 0.34876 0.45791 0.61811 0.0
C2314 C 0.36224 0.57596 0.66321 0.0
C2315 C 0.36607 0.57951 0.64291 0.0
C2316 C 0.36487 0.55412 0.67068 0.0
C2317 C 0.37169 0.53542 0.65812 0.0
C2318 C 0.37711 0.53911 0.63844 0.0
C2319 C 0.37433 0.56093 0.63089 0.0
C2320 C 0.36912 0.51202 0.66401 0.0
C2321 C 0.35331 0.49853 0.64995 0.0
C2322 C 0.37884 0.50442 0.68428 0.0
C2323 C 0.39686 0.51735 0.6992 0.0
C2324 C 0.41745 0.52405 0.69279 0.0
C2325 C 0.43403 0.53682 0.70664 0.0
C2326 C 0.4302 0.54305 0.72695 0.0
C2327 C 0.40995 0.53625 0.73356 0.0
C2328 C 0.39339 0.52335 0.71982 0.0
C2329 C 0.32987 0.41431 0.68035 0.0
C2330 C 0.31649 0.41917 0.69634 0.0
C2331 C 0.34321 0.43105 0.67466 0.0
C2332 C 0.34345 0.45273 0.68502 0.0
C2333 C 0.33122 0.45709 0.70183 0.0
C2334 C 0.31771 0.44047 0.70737 0.0
C2335 C 0.35385 0.47176 0.67688 0.0
C2336 C 0.37096 0.48435 0.69052 0.0
C2337 C 0.3453 0.47869 0.65621 0.0
C2338 C 0.32648 0.46675 0.64136 0.0
C2339 C 0.30361 0.46538 0.64618 0.0
C2340 C 0.28603 0.4539 0.63218 0.0
C2341 C 0.29105 0.44393 0.61321 0.0
C2342 C 0.31363 0.4455 0.60818 0.0
C2343 C 0.33129 0.45692 0.62216 0.0
H2344 H 0.27741 0.43506 0.60239 0.0
H2345 H 0.44295 0.5531 0.73759 0.0
H2346 H 0.57722 0.35425 0.58512 0.0
H2347 H 0.61537 0.35982 0.60965 0.0
H2348 H 0.59628 0.31272 0.65096 0.0
H2349 H 0.55857 0.30724 0.62681 0.0
H2350 H 0.61725 0.34796 0.67357 0.0
H2351 H 0.63361 0.29652 0.61576 0.0
H2352 H 0.63411 0.28588 0.57838 0.0
H2353 H 0.67817 0.3413 0.57545 0.0
H2354 H 0.67766 0.35245 0.61275 0.0
H2355 H 0.7257 0.30802 0.73519 0.0
H2356 H 0.68912 0.30966 0.70847 0.0
H2357 H 0.71832 0.3599 0.67678 0.0
H2358 H 0.75501 0.35852 0.70362 0.0
H2359 H 0.69331 0.32766 0.64833 0.0
H2360 H 0.67881 0.37876 0.70493 0.0
H2361 H 0.6785 0.39138 0.74182 0.0
H2362 H 0.6315 0.33897 0.74671 0.0
H2363 H 0.63156 0.32599 0.7097 0.0
C2364 C 0.58099 0.3455 0.59966 0.0
C2365 C 0.5648 0.33029 0.60396 0.0
C2366 C 0.60292 0.34849 0.61359 0.0
C2367 C 0.609 0.33644 0.63214 0.0
C2368 C 0.59223 0.32219 0.63684 0.0
C2369 C 0.57058 0.31906 0.62293 0.0
C2370 C 0.63296 0.3377 0.64645 0.0
C2371 C 0.63381 0.34336 0.66799 0.0
C2372 C 0.65484 0.33233 0.6393 0.0
C2373 C 0.65536 0.32548 0.61696 0.0
C2374 C 0.64327 0.30653 0.6071 0.0
C2375 C 0.64357 0.30039 0.58593 0.0
C2376 C 0.65609 0.31295 0.57453 0.0
C2377 C 0.66843 0.33162 0.58429 0.0
C2378 C 0.66815 0.33785 0.60544 0.0
C2379 C 0.72458 0.31919 0.7224 0.0
C2380 C 0.74344 0.33314 0.72167 0.0
C2381 C 0.70351 0.32022 0.70714 0.0
C2382 C 0.70074 0.33508 0.69063 0.0
C2383 C 0.71993 0.34831 0.68932 0.0
C2384 C 0.74093 0.34749 0.70473 0.0
C2385 C 0.67742 0.33742 0.67543 0.0
C2386 C 0.67673 0.33243 0.65381 0.0
C2387 C 0.65566 0.34359 0.68243 0.0
C2388 C 0.65538 0.35128 0.70463 0.0
C2389 C 0.66854 0.36982 0.71392 0.0
C2390 C 0.66838 0.37706 0.73485 0.0
C2391 C 0.65511 0.36591 0.74669 0.0
C2392 C 0.64182 0.34756 0.73754 0.0
C2393 C 0.64185 0.3403 0.71655 0.0
H2394 H 0.65506 0.37153 0.76293 0.0
H2395 H 0.65628 0.3082 0.55814 0.0
H2396 H 0.84695 0.54745 0.42336 0.0
H2397 H 0.84746 0.5121 0.40167 0.0
H2398 H 0.8855 0.47676 0.45525 0.0
H2399 H 0.88519 0.51222 0.47723 0.0
H2400 H 0.90033 0.46171 0.41681 0.0
H2401 H 0.82867 0.47372 0.44537 0.0
H2402 H 0.79304 0.49585 0.45374 0.0
H2403 H 0.76536 0.50218 0.38786 0.0
H2404 H 0.80106 0.48042 0.37911 0.0
H2405 H 0.81502 0.36671 0.35974 0.0
H2406 H 0.82774 0.39482 0.38833 0.0
H2407 H 0.87375 0.42214 0.3516 0.0
H2408 H 0.86162 0.39371 0.32319 0.0
H2409 H 0.81854 0.43807 0.38639 0.0
H2410 H 0.91805 0.45053 0.3829 0.0
H2411 H 0.95391 0.4273 0.37653 0.0
H2412 H 0.92605 0.36818 0.39617 0.0
H2413 H 0.89018 0.3911 0.40295 0.0
C2414 C 0.85582 0.53229 0.43052 0.0
C2415 C 0.86572 0.53259 0.45212 0.0
C2416 C 0.85609 0.5121 0.41807 0.0
C2417 C 0.86617 0.49179 0.42696 0.0
C2418 C 0.87758 0.49228 0.44814 0.0
C2419 C 0.87732 0.51254 0.46067 0.0
C2420 C 0.86259 0.46987 0.41456 0.0
C2421 C 0.88251 0.45643 0.41015 0.0
C2422 C 0.83931 0.46276 0.40642 0.0
C2423 C 0.81764 0.47559 0.41159 0.0
C2424 C 0.81507 0.47997 0.43267 0.0
C2425 C 0.79485 0.49243 0.43748 0.0
C2426 C 0.77697 0.50046 0.42134 0.0
C2427 C 0.77924 0.49598 0.40035 0.0
C2428 C 0.79946 0.48356 0.39545 0.0
C2429 C 0.82824 0.37838 0.35791 0.0
C2430 C 0.83718 0.37804 0.33911 0.0
C2431 C 0.83547 0.39447 0.37427 0.0
C2432 C 0.85171 0.41063 0.37216 0.0
C2433 C 0.86151 0.40965 0.35379 0.0
C2434 C 0.85446 0.3934 0.33748 0.0
C2435 C 0.8563 0.42993 0.38805 0.0
C2436 C 0.83647 0.44305 0.39313 0.0
C2437 C 0.87967 0.43642 0.39706 0.0
C2438 C 0.90132 0.42253 0.39327 0.0
C2439 C 0.91962 0.4326 0.38596 0.0
C2440 C 0.93994 0.41948 0.38226 0.0
C2441 C 0.94222 0.39627 0.38589 0.0
C2442 C 0.92422 0.38614 0.39329 0.0
C2443 C 0.90387 0.39919 0.39704 0.0
H2444 H 0.95796 0.38614 0.383 0.0
H2445 H 0.76133 0.51011 0.42509 0.0
H2446 H 0.5811 0.90279 0.47172 0.0
H2447 H 0.60861 0.89183 0.44764 0.0
H2448 H 0.65197 0.94769 0.47368 0.0
H2449 H 0.62419 0.95893 0.49758 0.0
H2450 H 0.64818 0.94374 0.43216 0.0
H2451 H 0.66752 0.89278 0.48851 0.0
H2452 H 0.65919 0.86487 0.5125 0.0
H2453 H 0.63577 0.81857 0.45982 0.0
H2454 H 0.64366 0.84634 0.43548 0.0
H2455 H 0.75629 0.90278 0.39933 0.0
H2456 H 0.72578 0.91529 0.42024 0.0
H2457 H 0.68082 0.86275 0.38877 0.0
H2458 H 0.71143 0.84998 0.36795 0.0
H2459 H 0.6847 0.86484 0.43206 0.0
H2460 H 0.66718 0.91593 0.37587 0.0
H2461 H 0.67639 0.944 0.35245 0.0
H2462 H 0.69769 0.99024 0.40569 0.0
H2463 H 0.68894 0.9623 0.42947 0.0
C2464 C 0.59652 0.9127 0.47232 0.0
C2465 C 0.60067 0.93156 0.48666 0.0
C2466 C 0.61221 0.90644 0.45856 0.0
C2467 C 0.63259 0.91869 0.45914 0.0
C2468 C 0.63638 0.93797 0.473 0.0
C2469 C 0.62052 0.94439 0.48662 0.0
C2470 C 0.65022 0.91107 0.44564 0.0
C2471 C 0.65638 0.92657 0.43232 0.0
C2472 C 0.66056 0.88852 0.44555 0.0
C2473 C 0.65596 0.87173 0.46017 0.0
C2474 C 0.66044 0.87671 0.48203 0.0
C2475 C 0.65582 0.86091 0.49569 0.0
C2476 C 0.6469 0.83999 0.48768 0.0
C2477 C 0.64265 0.8348 0.466 0.0
C2478 C 0.64721 0.85055 0.45226 0.0
C2479 C 0.73993 0.89386 0.39694 0.0
C2480 C 0.73617 0.87545 0.38202 0.0
C2481 C 0.72247 0.90112 0.40875 0.0
C2482 C 0.70099 0.89006 0.40588 0.0
C2483 C 0.69726 0.87155 0.39112 0.0
C2484 C 0.71465 0.86438 0.37919 0.0
C2485 C 0.68267 0.89752 0.41866 0.0
C2486 C 0.67642 0.88198 0.43186 0.0
C2487 C 0.6724 0.92006 0.41874 0.0
C2488 C 0.67762 0.93693 0.40447 0.0
C2489 C 0.67402 0.93201 0.3826 0.0
C2490 C 0.67912 0.94791 0.36926 0.0
C2491 C 0.68768 0.96887 0.37758 0.0
C2492 C 0.69109 0.97399 0.39926 0.0
C2493 C 0.68604 0.95813 0.41268 0.0
H2494 H 0.69161 0.98116 0.36722 0.0
H2495 H 0.64334 0.82778 0.49829 0.0
H2496 H 0.28921 0.71833 0.54366 0.0
H2497 H 0.29189 0.74562 0.51758 0.0
H2498 H 0.36074 0.76394 0.55271 0.0
H2499 H 0.35845 0.7358 0.57822 0.0
H2500 H 0.29872 0.78841 0.51139 0.0
H2501 H 0.39858 0.76441 0.51881 0.0
H2502 H 0.42865 0.73533 0.53475 0.0
H2503 H 0.37464 0.68659 0.52678 0.0
H2504 H 0.3444 0.71527 0.51048 0.0
H2505 H 0.32028 0.82737 0.41715 0.0
H2506 H 0.33098 0.82254 0.45516 0.0
H2507 H 0.33717 0.74965 0.44325 0.0
H2508 H 0.32737 0.75453 0.40544 0.0
H2509 H 0.36739 0.76121 0.47749 0.0
H2510 H 0.2831 0.77853 0.44869 0.0
H2511 H 0.24951 0.80272 0.43042 0.0
H2512 H 0.26672 0.857 0.47727 0.0
H2513 H 0.30065 0.83319 0.49564 0.0
C2514 C 0.30447 0.72879 0.54618 0.0
C2515 C 0.32382 0.7248 0.56267 0.0
C2516 C 0.30601 0.74441 0.53131 0.0
C2517 C 0.32681 0.75637 0.53294 0.0
C2518 C 0.34476 0.75453 0.55094 0.0
C2519 C 0.34344 0.73853 0.56552 0.0
C2520 C 0.33132 0.76715 0.5142 0.0
C2521 C 0.31399 0.78287 0.50419 0.0
C2522 C 0.35108 0.75964 0.50463 0.0
C2523 C 0.36925 0.74204 0.51368 0.0
C2524 C 0.3932 0.74744 0.52036 0.0
C2525 C 0.41025 0.73104 0.52946 0.0
C2526 C 0.40354 0.70915 0.53185 0.0
C2527 C 0.37981 0.70355 0.52497 0.0
C2528 C 0.36272 0.71986 0.51577 0.0
C2529 C 0.32457 0.8104 0.42276 0.0
C2530 C 0.32267 0.79126 0.40857 0.0
C2531 C 0.33065 0.80766 0.44439 0.0
C2532 C 0.33427 0.78572 0.45202 0.0
C2533 C 0.3344 0.76675 0.43772 0.0
C2534 C 0.32873 0.76951 0.41613 0.0
C2535 C 0.33445 0.78199 0.4744 0.0
C2536 C 0.35264 0.76754 0.48508 0.0
C2537 C 0.31505 0.79004 0.48423 0.0
C2538 C 0.29453 0.80422 0.47337 0.0
C2539 C 0.27977 0.79567 0.45502 0.0
C2540 C 0.26069 0.80931 0.44465 0.0
C2541 C 0.25603 0.83141 0.45265 0.0
C2542 C 0.2704 0.8399 0.47107 0.0
C2543 C 0.28956 0.82636 0.48145 0.0
H2544 H 0.24124 0.84194 0.4446 0.0
H2545 H 0.41674 0.69651 0.53899 0.0
H2546 H 0.44841 0.29807 0.48597 0.0
H2547 H 0.42355 0.30878 0.45309 0.0
H2548 H 0.43895 0.37906 0.46825 0.0
H2549 H 0.4646 0.36833 0.50185 0.0
H2550 H 0.38717 0.36923 0.44887 0.0
H2551 H 0.46654 0.35643 0.43511 0.0
H2552 H 0.50607 0.33598 0.43719 0.0
H2553 H 0.47284 0.27706 0.40517 0.0
H2554 H 0.43307 0.29703 0.40321 0.0
H2555 H 0.33122 0.38316 0.33919 0.0
H2556 H 0.35619 0.38659 0.37454 0.0
H2557 H 0.37546 0.31451 0.37045 0.0
H2558 H 0.35178 0.31162 0.33497 0.0
H2559 H 0.41316 0.33373 0.38477 0.0
H2560 H 0.33332 0.3453 0.40218 0.0
H2561 H 0.29376 0.36563 0.40072 0.0
H2562 H 0.3276 0.42682 0.42619 0.0
H2563 H 0.36728 0.40704 0.4273 0.0
C2564 C 0.44662 0.31592 0.48261 0.0
C2565 C 0.45884 0.3323 0.49672 0.0
C2566 C 0.43223 0.32199 0.46364 0.0
C2567 C 0.42939 0.34468 0.45802 0.0
C2568 C 0.44083 0.36141 0.47225 0.0
C2569 C 0.45555 0.35525 0.49142 0.0
C2570 C 0.41547 0.34997 0.4367 0.0
C2571 C 0.393 0.36189 0.43477 0.0
C2572 C 0.42286 0.3402 0.41826 0.0
C2573 C 0.44679 0.3282 0.41912 0.0
C2574 C 0.46764 0.33906 0.42864 0.0
C2575 C 0.4901 0.32756 0.42978 0.0
C2576 C 0.49196 0.30523 0.42134 0.0
C2577 C 0.47137 0.29437 0.4117 0.0
C2578 C 0.44886 0.30578 0.41054 0.0
C2579 C 0.34046 0.36808 0.34613 0.0
C2580 C 0.33933 0.34711 0.33444 0.0
C2581 C 0.35481 0.36998 0.36636 0.0
C2582 C 0.3678 0.35076 0.37556 0.0
C2583 C 0.36594 0.32972 0.36392 0.0
C2584 C 0.35219 0.328 0.34362 0.0
C2585 C 0.38412 0.35214 0.39678 0.0
C2586 C 0.40723 0.34141 0.39872 0.0
C2587 C 0.3772 0.36301 0.41513 0.0
C2588 C 0.35327 0.37476 0.41461 0.0
C2589 C 0.3323 0.36314 0.40731 0.0
C2590 C 0.30985 0.37459 0.40652 0.0
C2591 C 0.30814 0.39754 0.41327 0.0
C2592 C 0.32889 0.40909 0.42085 0.0
C2593 C 0.35137 0.39778 0.42155 0.0
H2594 H 0.29075 0.40635 0.4127 0.0
H2595 H 0.50937 0.29635 0.42225 0.0
H2596 H 0.607 0.88778 0.5758 0.0
H2597 H 0.63869 0.87856 0.60562 0.0
H2598 H 0.58561 0.87026 0.64347 0.0
H2599 H 0.55385 0.8798 0.61387 0.0
H2600 H 0.61835 0.89806 0.66322 0.0
H2601 H 0.6198 0.82459 0.62642 0.0
H2602 H 0.62268 0.79765 0.59612 0.0
H2603 H 0.69277 0.81904 0.59467 0.0
H2604 H 0.69019 0.84634 0.6248 0.0
H2605 H 0.69101 0.85361 0.75306 0.0
H2606 H 0.66178 0.8578 0.72054 0.0
H2607 H 0.71857 0.86774 0.68714 0.0
H2608 H 0.74808 0.86326 0.71978 0.0
H2609 H 0.68554 0.8397 0.6644 0.0
H2610 H 0.68443 0.91283 0.70086 0.0
H2611 H 0.68195 0.94008 0.73101 0.0
H2612 H 0.61143 0.91989 0.7326 0.0
H2613 H 0.61362 0.89227 0.70262 0.0
C2614 C 0.60203 0.8836 0.59035 0.0
C2615 C 0.57786 0.88467 0.59247 0.0
C2616 C 0.62021 0.87827 0.60739 0.0
C2617 C 0.61456 0.87369 0.62681 0.0
C2618 C 0.59041 0.87382 0.62867 0.0
C2619 C 0.57225 0.87921 0.61169 0.0
C2620 C 0.6337 0.87049 0.64564 0.0
C2621 C 0.63282 0.88505 0.66355 0.0
C2622 C 0.65311 0.85409 0.64585 0.0
C2623 C 0.65469 0.83769 0.62773 0.0
C2624 C 0.63574 0.8237 0.61953 0.0
C2625 C 0.63734 0.80833 0.60241 0.0
C2626 C 0.65787 0.80668 0.59344 0.0
C2627 C 0.67687 0.82036 0.60161 0.0
C2628 C 0.67536 0.83577 0.61872 0.0
C2629 C 0.69729 0.85673 0.7388 0.0
C2630 C 0.72177 0.85837 0.73897 0.0
C2631 C 0.68056 0.85914 0.72023 0.0
C2632 C 0.68794 0.8634 0.70145 0.0
C2633 C 0.71247 0.86455 0.70146 0.0
C2634 C 0.72928 0.86212 0.72011 0.0
C2635 C 0.66986 0.86701 0.68201 0.0
C2636 C 0.67102 0.85267 0.66401 0.0
C2637 C 0.6507 0.88368 0.68162 0.0
C2638 C 0.64928 0.90033 0.69961 0.0
C2639 C 0.66846 0.91407 0.70774 0.0
C2640 C 0.6671 0.92961 0.72478 0.0
C2641 C 0.64657 0.93168 0.73375 0.0
C2642 C 0.62733 0.91825 0.72565 0.0
C2643 C 0.62862 0.90267 0.70862 0.0
H2644 H 0.64554 0.94372 0.74694 0.0
H2645 H 0.65907 0.79477 0.58018 0.0
H2646 H 0.57417 0.25939 0.49121 0.0
H2647 H 0.60101 0.26362 0.46665 0.0
H2648 H 0.59814 0.33623 0.4801 0.0
H2649 H 0.57136 0.33216 0.50468 0.0
H2650 H 0.59492 0.32768 0.43923 0.0
H2651 H 0.64752 0.30119 0.50048 0.0
H2652 H 0.66224 0.27564 0.52935 0.0
H2653 H 0.67048 0.22012 0.4845 0.0
H2654 H 0.65548 0.24526 0.45532 0.0
H2655 H 0.69384 0.35176 0.39357 0.0
H2656 H 0.66804 0.34695 0.41885 0.0
H2657 H 0.66766 0.27502 0.40205 0.0
H2658 H 0.69314 0.2797 0.3764 0.0
H2659 H 0.67271 0.28313 0.44459 0.0
H2660 H 0.61993 0.31071 0.38331 0.0
H2661 H 0.60586 0.33712 0.35502 0.0
H2662 H 0.59881 0.39182 0.40098 0.0
H2663 H 0.61317 0.36578 0.42957 0.0
C2664 C 0.57935 0.27627 0.48912 0.0
C2665 C 0.57048 0.29539 0.50012 0.0
C2666 C 0.59477 0.27867 0.475 0.0
C2667 C 0.60197 0.30025 0.47159 0.0
C2668 C 0.59292 0.31939 0.48234 0.0
C2669 C 0.57745 0.31701 0.49642 0.0
C2670 C 0.61877 0.3029 0.45679 0.0
C2671 C 0.61206 0.31814 0.44063 0.0
C2672 C 0.64104 0.29021 0.45821 0.0
C2673 C 0.65014 0.27506 0.47571 0.0
C2674 C 0.65229 0.28349 0.49677 0.0
C2675 C 0.66072 0.26909 0.51319 0.0
C2676 C 0.66723 0.24626 0.50876 0.0
C2677 C 0.66539 0.2378 0.4879 0.0
C2678 C 0.65695 0.25212 0.47141 0.0
C2679 C 0.68819 0.3349 0.39507 0.0
C2680 C 0.69558 0.31617 0.38266 0.0
C2681 C 0.67342 0.33217 0.40965 0.0
C2682 C 0.66555 0.31065 0.41225 0.0
C2683 C 0.67343 0.29181 0.40039 0.0
C2684 C 0.68816 0.29453 0.38574 0.0
C2685 C 0.64883 0.3079 0.42708 0.0
C2686 C 0.65556 0.29265 0.44323 0.0
C2687 C 0.62665 0.3207 0.42575 0.0
C2688 C 0.61785 0.33634 0.40858 0.0
C2689 C 0.61555 0.32841 0.38739 0.0
C2690 C 0.6075 0.3433 0.3713 0.0
C2691 C 0.60151 0.36615 0.3762 0.0
C2692 C 0.60349 0.37412 0.39721 0.0
C2693 C 0.61157 0.3593 0.41336 0.0
H2694 H 0.59528 0.37766 0.36372 0.0
H2695 H 0.67375 0.23514 0.5215 0.0
H2696 H 0.79946 0.64016 0.38581 0.0
H2697 H 0.80776 0.66909 0.3632 0.0
H2698 H 0.84364 0.70731 0.41768 0.0
H2699 H 0.83566 0.67805 0.44046 0.0
H2700 H 0.80713 0.73294 0.38611 0.0
H2701 H 0.87823 0.68296 0.39148 0.0
H2702 H 0.90033 0.64559 0.3902 0.0
H2703 H 0.86767 0.63428 0.3253 0.0
H2704 H 0.84509 0.67146 0.32628 0.0
H2705 H 0.84943 0.80865 0.31955 0.0
H2706 H 0.8471 0.78394 0.34818 0.0
H2707 H 0.82594 0.72913 0.30243 0.0
H2708 H 0.82796 0.75361 0.27408 0.0
H2709 H 0.85913 0.71386 0.3334 0.0
H2710 H 0.78284 0.75577 0.32851 0.0
H2711 H 0.75309 0.78831 0.32883 0.0
H2712 H 0.78989 0.81172 0.3897 0.0
H2713 H 0.81979 0.77931 0.38974 0.0
C2714 C 0.80901 0.65477 0.393 0.0
C2715 C 0.81687 0.65688 0.41492 0.0
C2716 C 0.81385 0.67122 0.38006 0.0
C2717 C 0.82635 0.69031 0.38876 0.0
C2718 C 0.83398 0.69269 0.41067 0.0
C2719 C 0.82953 0.67595 0.42362 0.0
C2720 C 0.83133 0.70764 0.37476 0.0
C2721 C 0.81898 0.72904 0.37492 0.0
C2722 C 0.84611 0.7022 0.3597 0.0
C2723 C 0.85983 0.67992 0.35901 0.0
C2724 C 0.87561 0.67243 0.37698 0.0
C2725 C 0.88826 0.65129 0.3763 0.0
C2726 C 0.88537 0.63755 0.35769 0.0
C2727 C 0.86988 0.64494 0.33971 0.0
C2728 C 0.85718 0.66606 0.34031 0.0
C2729 C 0.84433 0.79131 0.31569 0.0
C2730 C 0.83875 0.78315 0.29456 0.0
C2731 C 0.84287 0.77724 0.33202 0.0
C2732 C 0.8361 0.75468 0.32749 0.0
C2733 C 0.83117 0.74643 0.3064 0.0
C2734 C 0.83244 0.76046 0.29016 0.0
C2735 C 0.83471 0.73926 0.3445 0.0
C2736 C 0.84771 0.71809 0.34488 0.0
C2737 C 0.82011 0.74474 0.35975 0.0
C2738 C 0.80373 0.7654 0.35894 0.0
C2739 C 0.78484 0.76815 0.34174 0.0
C2740 C 0.76787 0.78644 0.34192 0.0
C2741 C 0.76965 0.80205 0.35924 0.0
C2742 C 0.78856 0.7996 0.37629 0.0
C2743 C 0.8055 0.78128 0.37623 0.0
H2744 H 0.75626 0.81592 0.35952 0.0
H2745 H 0.89517 0.62119 0.3572 0.0
H2746 H 0.4577 0.87685 0.52142 0.0
H2747 H 0.42656 0.86983 0.49029 0.0
H2748 H 0.47719 0.87869 0.45015 0.0
H2749 H 0.50798 0.88624 0.48097 0.0
H2750 H 0.43797 0.90483 0.43925 0.0
H2751 H 0.45491 0.82553 0.45751 0.0
H2752 H 0.45739 0.7934 0.48049 0.0
H2753 H 0.383 0.80562 0.48364 0.0
H2754 H 0.38008 0.83783 0.46075 0.0
H2755 H 0.38145 0.87058 0.33767 0.0
H2756 H 0.40746 0.87477 0.37201 0.0
H2757 H 0.3497 0.8591 0.40219 0.0
H2758 H 0.32386 0.85392 0.36775 0.0
H2759 H 0.38808 0.83828 0.42063 0.0
H2760 H 0.36884 0.91488 0.40258 0.0
H2761 H 0.36363 0.94801 0.38051 0.0
H2762 H 0.43881 0.94341 0.37915 0.0
H2763 H 0.44443 0.91005 0.40097 0.0
C2764 C 0.46225 0.87688 0.50594 0.0
C2765 C 0.48524 0.88228 0.50363 0.0
C2766 C 0.44445 0.87283 0.48816 0.0
C2767 C 0.4495 0.87376 0.46784 0.0
C2768 C 0.47279 0.87804 0.46563 0.0
C2769 C 0.49041 0.88232 0.48329 0.0
C2770 C 0.43042 0.87219 0.44873 0.0
C2771 C 0.42727 0.89012 0.43507 0.0
C2772 C 0.4155 0.85361 0.4438 0.0
C2773 C 0.41737 0.83428 0.45764 0.0
C2774 C 0.43913 0.82147 0.46324 0.0
C2775 C 0.44059 0.80319 0.47619 0.0
C2776 C 0.42037 0.79747 0.48353 0.0
C2777 C 0.39863 0.81 0.47791 0.0
C2778 C 0.39707 0.82827 0.46494 0.0
C2779 C 0.3742 0.86824 0.3516 0.0
C2780 C 0.35051 0.86216 0.34996 0.0
C2781 C 0.38908 0.87071 0.37129 0.0
C2782 C 0.38046 0.86771 0.38981 0.0
C2783 C 0.35678 0.86162 0.38819 0.0
C2784 C 0.34198 0.8588 0.36847 0.0
C2785 C 0.39639 0.8705 0.41074 0.0
C2786 C 0.39874 0.853 0.42483 0.0
C2787 C 0.41028 0.88971 0.41635 0.0
C2788 C 0.40702 0.90985 0.40329 0.0
C2789 C 0.38424 0.92084 0.39746 0.0
C2790 C 0.38122 0.93968 0.38501 0.0
C2791 C 0.40087 0.94778 0.3784 0.0
C2792 C 0.4236 0.9371 0.38427 0.0
C2793 C 0.42672 0.91825 0.3967 0.0
H2794 H 0.39849 0.96236 0.36876 0.0
H2795 H 0.42153 0.78331 0.49354 0.0
H2796 H 0.33024 0.58819 0.54612 0.0
H2797 H 0.32045 0.55845 0.51836 0.0
H2798 H 0.36503 0.58764 0.48149 0.0
H2799 H 0.3746 0.61776 0.50908 0.0
H2800 H 0.32381 0.57584 0.45727 0.0
H2801 H 0.38386 0.53925 0.50859 0.0
H2802 H 0.4022 0.52714 0.54402 0.0
H2803 H 0.34123 0.48891 0.54556 0.0
H2804 H 0.32237 0.50104 0.51024 0.0
H2805 H 0.32271 0.4823 0.38267 0.0
H2806 H 0.33628 0.511 0.41043 0.0
H2807 H 0.29477 0.48299 0.45067 0.0
H2808 H 0.28216 0.45345 0.42346 0.0
H2809 H 0.3361 0.49421 0.47297 0.0
H2810 H 0.27521 0.5318 0.42284 0.0
H2811 H 0.25599 0.54415 0.38769 0.0
H2812 H 0.3176 0.58064 0.38422 0.0
H2813 H 0.33731 0.56825 0.41925 0.0
C2814 C 0.33798 0.58834 0.53211 0.0
C2815 C 0.35331 0.60536 0.5299 0.0
C2816 C 0.33245 0.57122 0.51627 0.0
C2817 C 0.34229 0.57055 0.49793 0.0
C2818 C 0.35728 0.58773 0.49551 0.0
C2819 C 0.36278 0.60492 0.51134 0.0
C2820 C 0.33676 0.55205 0.48123 0.0
C2821 C 0.32686 0.55799 0.46064 0.0
C2822 C 0.34019 0.52872 0.48568 0.0
C2823 C 0.35161 0.52122 0.50684 0.0
C2824 C 0.37429 0.52838 0.51654 0.0
C2825 C 0.38479 0.5215 0.5366 0.0
C2826 C 0.37287 0.50731 0.54706 0.0
C2827 C 0.35044 0.49992 0.53745 0.0
C2828 C 0.33985 0.50677 0.5174 0.0
C2829 C 0.31674 0.48193 0.39752 0.0
C2830 C 0.30111 0.46554 0.40065 0.0
C2831 C 0.32431 0.4986 0.41333 0.0
C2832 C 0.31619 0.49951 0.43255 0.0
C2833 C 0.30115 0.48281 0.43595 0.0
C2834 C 0.29371 0.46605 0.42022 0.0
C2835 C 0.32302 0.51799 0.44901 0.0
C2836 C 0.33316 0.51205 0.46956 0.0
C2837 C 0.3197 0.54133 0.44456 0.0
C2838 C 0.30782 0.54891 0.42357 0.0
C2839 C 0.28472 0.54233 0.41451 0.0
C2840 C 0.27373 0.54935 0.39463 0.0
C2841 C 0.28559 0.56312 0.38371 0.0
C2842 C 0.30844 0.56995 0.39269 0.0
C2843 C 0.31953 0.56295 0.41256 0.0
H2844 H 0.27706 0.56853 0.36831 0.0
H2845 H 0.38102 0.50202 0.56259 0.0
H2846 H 0.46774 0.32678 0.62206 0.0
H2847 H 0.44227 0.33026 0.64881 0.0
H2848 H 0.39806 0.27889 0.61426 0.0
H2849 H 0.42322 0.27552 0.58743 0.0
H2850 H 0.37062 0.31415 0.62973 0.0
H2851 H 0.43977 0.26543 0.65695 0.0
H2852 H 0.48297 0.25569 0.66755 0.0
H2853 H 0.48927 0.31305 0.71226 0.0
H2854 H 0.44614 0.32331 0.70171 0.0
H2855 H 0.30996 0.29198 0.71431 0.0
H2856 H 0.3306 0.29074 0.68412 0.0
H2857 H 0.38696 0.32856 0.72178 0.0
H2858 H 0.36704 0.32922 0.75174 0.0
H2859 H 0.4077 0.29914 0.70344 0.0
H2860 H 0.34122 0.35113 0.67509 0.0
H2861 H 0.29878 0.36395 0.66351 0.0
H2862 H 0.28788 0.30429 0.62205 0.0
H2863 H 0.33024 0.29128 0.63311 0.0
C2864 C 0.45248 0.31638 0.62002 0.0
C2865 C 0.44778 0.30072 0.60257 0.0
C2866 C 0.43795 0.31828 0.63544 0.0
C2867 C 0.41825 0.30467 0.63378 0.0
C2868 C 0.41311 0.28956 0.61604 0.0
C2869 C 0.42771 0.28751 0.60075 0.0
C2870 C 0.40353 0.30554 0.65081 0.0
C2871 C 0.3787 0.31071 0.64584 0.0
C2872 C 0.41391 0.3015 0.67197 0.0
C2873 C 0.43979 0.29525 0.6784 0.0
C2874 C 0.4504 0.27606 0.66893 0.0
C2875 C 0.47487 0.27043 0.67494 0.0
C2876 C 0.48887 0.28378 0.69053 0.0
C2877 C 0.47841 0.30275 0.70017 0.0
C2878 C 0.45396 0.30847 0.69419 0.0
C2879 C 0.32666 0.30021 0.71599 0.0
C2880 C 0.33695 0.31048 0.73553 0.0
C2881 C 0.33844 0.2997 0.69862 0.0
C2882 C 0.36052 0.30986 0.70032 0.0
C2883 C 0.37014 0.32063 0.71977 0.0
C2884 C 0.35867 0.32091 0.73703 0.0
C2885 C 0.37461 0.3084 0.68267 0.0
C2886 C 0.39944 0.30287 0.68744 0.0
C2887 C 0.36426 0.31256 0.66145 0.0
C2888 C 0.33875 0.32011 0.65512 0.0
C2889 C 0.32968 0.34068 0.66365 0.0
C2890 C 0.3057 0.348 0.65715 0.0
C2891 C 0.29063 0.33484 0.64225 0.0
C2892 C 0.29955 0.31442 0.63366 0.0
C2893 C 0.32355 0.30712 0.63995 0.0
H2894 H 0.27207 0.34054 0.63728 0.0
H2895 H 0.50781 0.27939 0.69516 0.0
H2896 H 0.81433 0.52026 0.51248 0.0
H2897 H 0.81476 0.49487 0.54094 0.0
H2898 H 0.77467 0.54649 0.57233 0.0
H2899 H 0.77415 0.57183 0.54403 0.0
H2900 H 0.83398 0.4985 0.58104 0.0
H2901 H 0.73963 0.52251 0.60044 0.0
H2902 H 0.69918 0.53442 0.58195 0.0
H2903 H 0.71464 0.50231 0.52424 0.0
H2904 H 0.75504 0.48993 0.54243 0.0
H2905 H 0.83074 0.46545 0.68277 0.0
H2906 H 0.82661 0.48685 0.65126 0.0
H2907 H 0.77558 0.4404 0.61781 0.0
H2908 H 0.77869 0.41951 0.64965 0.0
H2909 H 0.76121 0.48197 0.60755 0.0
H2910 H 0.83469 0.43716 0.61092 0.0
H2911 H 0.87479 0.42179 0.62714 0.0
H2912 H 0.90041 0.48917 0.63498 0.0
H2913 H 0.86036 0.50498 0.61905 0.0
C2914 C 0.80556 0.52619 0.52541 0.0
C2915 C 0.79414 0.54811 0.52585 0.0
C2916 C 0.8058 0.51163 0.54168 0.0
C2917 C 0.79456 0.51863 0.55875 0.0
C2918 C 0.78305 0.54046 0.55917 0.0
C2919 C 0.78273 0.55497 0.54289 0.0
C2920 C 0.7956 0.50349 0.57648 0.0
C2921 C 0.81804 0.49487 0.58678 0.0
C2922 C 0.77481 0.49831 0.58382 0.0
C2923 C 0.75045 0.50549 0.57278 0.0
C2924 C 0.73436 0.51791 0.58382 0.0
C2925 C 0.71145 0.52476 0.57339 0.0
C2926 C 0.70437 0.51919 0.55192 0.0
C2927 C 0.72017 0.50669 0.54085 0.0
C2928 C 0.74309 0.49978 0.55121 0.0
C2929 C 0.81831 0.45994 0.66886 0.0
C2930 C 0.80508 0.44065 0.66886 0.0
C2931 C 0.81622 0.47207 0.65071 0.0
C2932 C 0.8011 0.46505 0.63197 0.0
C2933 C 0.78748 0.44611 0.632 0.0
C2934 C 0.78945 0.43403 0.65021 0.0
C2935 C 0.79964 0.47744 0.61239 0.0
C2936 C 0.77713 0.48557 0.60177 0.0
C2937 C 0.82032 0.48172 0.60445 0.0
C2938 C 0.84447 0.47227 0.61395 0.0
C2939 C 0.84883 0.44872 0.61623 0.0
C2940 C 0.87156 0.43992 0.62536 0.0
C2941 C 0.89012 0.4545 0.63213 0.0
C2942 C 0.88601 0.4779 0.62974 0.0
C2943 C 0.8633 0.48678 0.62065 0.0
H2944 H 0.90771 0.44766 0.63919 0.0
H2945 H 0.68663 0.52451 0.54387 0.0
H2946 H 0.40087 0.71527 0.59982 0.0
H2947 H 0.37736 0.74338 0.6185 0.0
H2948 H 0.35233 0.68929 0.64872 0.0
H2949 H 0.37778 0.66162 0.63162 0.0
H2950 H 0.31497 0.72458 0.62615 0.0
H2951 H 0.38757 0.71515 0.679 0.0
H2952 H 0.43121 0.71463 0.69176 0.0
H2953 H 0.43185 0.78366 0.67463 0.0
H2954 H 0.38821 0.7845 0.66165 0.0
H2955 H 0.26527 0.77763 0.71134 0.0
H2956 H 0.28234 0.75536 0.68413 0.0
H2957 H 0.3237 0.81185 0.67667 0.0
H2958 H 0.30735 0.83381 0.70451 0.0
H2959 H 0.35214 0.77707 0.68426 0.0
H2960 H 0.2789 0.78901 0.63611 0.0
H2961 H 0.23537 0.79027 0.62289 0.0
H2962 H 0.23508 0.71826 0.6291 0.0
H2963 H 0.27856 0.7166 0.64267 0.0
C2964 C 0.39043 0.70946 0.61055 0.0
C2965 C 0.38975 0.68611 0.61334 0.0
C2966 C 0.37694 0.72546 0.62107 0.0
C2967 C 0.36257 0.71829 0.63444 0.0
C2968 C 0.36267 0.69506 0.63788 0.0
C2969 C 0.37666 0.6792 0.62779 0.0
C2970 C 0.3479 0.73507 0.64529 0.0
C2971 C 0.32294 0.736 0.63899 0.0
C2972 C 0.35849 0.75035 0.66149 0.0
C2973 C 0.38472 0.74978 0.66909 0.0
C2974 C 0.39707 0.73012 0.67775 0.0
C2975 C 0.42178 0.7298 0.68509 0.0
C2976 C 0.43431 0.74906 0.6839 0.0
C2977 C 0.42213 0.76873 0.67548 0.0
C2978 C 0.39741 0.76915 0.66816 0.0
C2979 C 0.27723 0.78565 0.70329 0.0
C2980 C 0.28503 0.80744 0.7101 0.0
C2981 C 0.28706 0.77285 0.6877 0.0
C2982 C 0.30447 0.78182 0.67833 0.0
C2983 C 0.31049 0.80443 0.68375 0.0
C2984 C 0.30097 0.81707 0.69956 0.0
C2985 C 0.31878 0.76676 0.66534 0.0
C2986 C 0.34387 0.76601 0.67125 0.0
C2987 C 0.3082 0.7518 0.64866 0.0
C2988 C 0.282 0.75273 0.64061 0.0
C2989 C 0.26954 0.77347 0.63485 0.0
C2990 C 0.24487 0.77425 0.62725 0.0
C2991 C 0.23246 0.75437 0.6252 0.0
C2992 C 0.24471 0.73366 0.63071 0.0
C2993 C 0.26938 0.73278 0.63834 0.0
H2994 H 0.21336 0.75501 0.61931 0.0
H2995 H 0.45344 0.74877 0.68953 0.0
loop_
_geom_bond_atom_site_label_1
_geom_bond_atom_site_label_2
_geom_bond_distance
_geom_bond_site_symmetry_2
_ccdc_geom_bond_type
Cu0 N1 1.999 . S
Cu0 O6 1.974 . S
Cu0 N11 1.985 . S
Cu0 O20 1.955 . S
N1 Cu0 1.999 . S
N1 C3 1.263 . S
N1 C5 1.389 . S
N2 C3 1.358 . S
N2 C4 1.400 . S
C3 N1 1.263 . S
C3 N2 1.358 . S
C3 H9 0.930 . S
C4 N2 1.400 . S
C4 C5 1.351 . S
C4 H21 0.930 . S
C5 N1 1.389 . S
C5 C4 1.351 . S
C5 H10 0.930 . S
O6 Cu0 1.974 . S
O6 C16 1.282 . S
C7 O8 1.261 . S
C7 O20 1.253 1_655 S
O8 C7 1.261 . S
H9 C3 0.930 . S
H10 C5 0.930 . S
N11 Cu0 1.985 . S
N11 C13 1.335 1_455 S
N11 C14 1.390 . S
N12 C13 1.345 . S
N12 C15 1.339 . S
C13 N11 1.335 1_655 S
C13 N12 1.345 . S
C13 H18 0.930 . S
C14 N11 1.390 . S
C14 C15 1.350 1_455 S
C14 H19 0.930 . S
C15 N12 1.339 . S
C15 C14 1.350 1_655 S
C15 H22 0.924 1_545 S
C16 O6 1.282 . S
C16 O17 1.216 . S
O17 C16 1.216 . S
H18 C13 0.930 . S
H19 C14 0.930 . S
O20 Cu0 1.955 . S
O20 C7 1.253 1_455 S
H21 C4 0.930 . S
H22 C15 0.924 1_565 S
Cu23 N24 1.999 1_455 S
Cu23 O29 1.974 1_455 S
Cu23 N34 1.985 . S
Cu23 O43 1.959 . S
N24 Cu23 1.999 1_655 S
N24 C26 1.263 . S
N24 C28 1.389 . S
N25 C26 1.358 . S
N25 C27 1.400 . S
C26 N24 1.263 . S
C26 N25 1.358 . S
C26 H32 0.930 . S
C27 N25 1.400 . S
C27 C28 1.351 . S
C27 H44 0.930 1_545 S
C28 N24 1.389 . S
C28 C27 1.351 . S
C28 H33 0.906 1_655 S
O29 Cu23 1.974 1_655 S
O29 C39 1.282 . S
C30 O31 1.261 . S
C30 O43 1.251 . S
O31 C30 1.261 . S
H32 C26 0.930 . S
H33 C28 0.906 1_455 S
N34 Cu23 1.985 . S
N34 C36 1.335 . S
N34 C37 1.390 . S
N35 C36 1.345 . S
N35 C38 1.336 . S
C36 N34 1.335 . S
C36 N35 1.345 . S
C36 H41 0.930 . S
C37 N34 1.390 . S
C37 C38 1.346 . S
C37 H42 0.930 . S
C38 N35 1.336 . S
C38 C37 1.346 . S
C38 H45 0.929 . S
C39 O29 1.282 . S
C39 O40 1.216 . S
O40 C39 1.216 . S
H41 C36 0.930 . S
H42 C37 0.930 . S
O43 Cu23 1.959 . S
O43 C30 1.251 . S
H44 C27 0.930 1_565 S
H45 C38 0.929 . S
Cu46 N47 1.999 1_544 S
Cu46 O52 1.974 1_545 S
Cu46 N57 1.985 . S
Cu46 O66 1.959 1_554 S
N47 Cu46 1.999 1_566 S
N47 C49 1.263 . S
N47 C51 1.389 . S
N48 C49 1.358 . S
N48 C50 1.400 . S
C49 N47 1.263 . S
C49 N48 1.358 . S
C49 H55 0.930 . S
C50 N48 1.400 . S
C50 C51 1.351 . S
C50 H67 0.930 . S
C51 N47 1.389 . S
C51 C50 1.351 . S
C51 H56 0.930 . S
O52 Cu46 1.974 1_565 S
O52 C62 1.282 . S
C53 O54 1.261 . S
C53 O66 1.251 . S
O54 C53 1.261 . S
H55 C49 0.930 . S
H56 C51 0.930 . S
N57 Cu46 1.985 . S
N57 C59 1.335 . S
N57 C60 1.390 . S
N58 C59 1.345 . S
N58 C61 1.336 . S
C59 N57 1.335 . S
C59 N58 1.345 . S
C59 H64 0.930 . S
C60 N57 1.390 . S
C60 C61 1.346 . S
C60 H65 0.930 . S
C61 N58 1.336 . S
C61 C60 1.346 . S
C61 H68 0.929 . S
C62 O52 1.282 . S
C62 O63 1.216 . S
O63 C62 1.216 . S
H64 C59 0.930 . S
H65 C60 0.930 . S
O66 Cu46 1.959 1_556 S
O66 C53 1.251 . S
H67 C50 0.930 . S
H68 C61 0.929 . S
Cu69 N70 1.999 . S
Cu69 O75 1.974 . S
Cu69 N80 1.985 . S
Cu69 O89 1.959 . S
N70 Cu69 1.999 . S
N70 C72 1.263 . S
N70 C74 1.389 1_554 S
N71 C72 1.358 1_556 S
N71 C73 1.400 . S
C72 N70 1.263 . S
C72 N71 1.358 1_554 S
C72 H78 0.930 . S
C73 N71 1.400 . S
C73 C74 1.351 . S
C73 H90 0.930 . S
C74 N70 1.389 1_556 S
C74 C73 1.351 . S
C74 H79 0.930 . S
O75 Cu69 1.974 . S
O75 C85 1.282 . S
C76 O77 1.254 1_656 S
C76 O89 1.237 1_656 S
O77 C76 1.254 1_454 S
H78 C72 0.930 . S
H79 C74 0.930 . S
N80 Cu69 1.985 . S
N80 C82 1.335 1_455 S
N80 C83 1.390 . S
N81 C82 1.345 . S
N81 C84 1.336 1_655 S
C82 N80 1.335 1_655 S
C82 N81 1.345 . S
C82 H87 0.930 . S
C83 N80 1.390 . S
C83 C84 1.346 . S
C83 H88 0.930 . S
C84 N81 1.336 1_455 S
C84 C83 1.346 . S
C84 H91 0.929 . S
C85 O75 1.282 . S
C85 O86 1.216 . S
O86 C85 1.216 . S
H87 C82 0.930 . S
H88 C83 0.930 . S
O89 Cu69 1.959 . S
O89 C76 1.237 1_454 S
H90 C73 0.930 . S
H91 C84 0.929 . S
Cu92 N93 1.999 . S
Cu92 O98 1.974 . S
Cu92 N103 1.985 . S
Cu92 O112 1.959 . S
N93 Cu92 1.999 . S
N93 C95 1.263 . S
N93 C97 1.389 . S
N94 C95 1.358 . S
N94 C96 1.400 . S
C95 N93 1.263 . S
C95 N94 1.358 . S
C95 H101 0.930 . S
C96 N94 1.400 . S
C96 C97 1.351 . S
C96 H113 0.930 . S
C97 N93 1.389 . S
C97 C96 1.351 . S
C97 H102 0.930 . S
O98 Cu92 1.974 . S
O98 C108 1.282 . S
C99 O100 1.261 . S
C99 O112 1.251 . S
O100 C99 1.261 . S
H101 C95 0.930 . S
H102 C97 0.930 . S
N103 Cu92 1.985 . S
N103 C105 1.335 . S
N103 C106 1.390 . S
N104 C105 1.345 . S
N104 C107 1.336 . S
C105 N103 1.335 . S
C105 N104 1.345 . S
C105 H110 0.930 . S
C106 N103 1.390 . S
C106 C107 1.346 . S
C106 H111 0.930 . S
C107 N104 1.336 . S
C107 C106 1.346 . S
C107 H114 0.929 . S
C108 O98 1.282 . S
C108 O109 1.216 . S
O109 C108 1.216 . S
H110 C105 0.930 . S
H111 C106 0.930 . S
O112 Cu92 1.959 . S
O112 C99 1.251 . S
H113 C96 0.930 . S
H114 C107 0.929 . S
Cu115 N116 2.001 1_455 S
Cu115 O121 1.974 1_455 S
Cu115 N126 1.985 . S
Cu115 O135 1.959 . S
N116 Cu115 2.001 1_655 S
N116 C118 1.263 1_554 S
N116 C120 1.388 1_554 S
N117 C118 1.358 . S
N117 C119 1.400 . S
C118 N116 1.263 1_556 S
C118 N117 1.358 . S
C118 H124 0.930 1_556 S
C119 N117 1.400 . S
C119 C120 1.351 . S
C119 H136 0.930 . S
C120 N116 1.388 1_556 S
C120 C119 1.351 . S
C120 H125 0.930 1_655 S
O121 Cu115 1.974 1_655 S
O121 C131 1.282 . S
C122 O123 1.261 . S
C122 O135 1.251 . S
O123 C122 1.261 . S
H124 C118 0.930 1_554 S
H125 C120 0.930 1_455 S
N126 Cu115 1.985 . S
N126 C128 1.335 . S
N126 C129 1.390 . S
N127 C128 1.345 . S
N127 C130 1.336 . S
C128 N126 1.335 . S
C128 N127 1.345 . S
C128 H133 0.930 . S
C129 N126 1.390 . S
C129 C130 1.346 . S
C129 H134 0.930 . S
C130 N127 1.336 . S
C130 C129 1.346 . S
C130 H137 0.929 . S
C131 O121 1.282 . S
C131 O132 1.216 . S
O132 C131 1.216 . S
H133 C128 0.930 . S
H134 C129 0.930 . S
O135 Cu115 1.959 . S
O135 C122 1.251 . S
H136 C119 0.930 . S
H137 C130 0.929 . S
Cu138 N139 1.999 . S
Cu138 O144 1.974 . S
Cu138 N149 1.985 . S
Cu138 O158 1.959 . S
N139 Cu138 1.999 . S
N139 C141 1.263 . S
N139 C143 1.389 . S
N140 C141 1.358 . S
N140 C142 1.400 . S
C141 N139 1.263 . S
C141 N140 1.358 . S
C141 H147 0.930 . S
C142 N140 1.400 . S
C142 C143 1.351 . S
C142 H159 0.930 . S
C143 N139 1.389 . S
C143 C142 1.351 . S
C143 H148 0.930 . S
O144 Cu138 1.974 . S
O144 C154 1.282 . S
C145 O146 1.261 . S
C145 O158 1.251 . S
O146 C145 1.261 . S
H147 C141 0.930 . S
H148 C143 0.930 . S
N149 Cu138 1.985 . S
N149 C151 1.335 . S
N149 C152 1.390 . S
N150 C151 1.345 . S
N150 C153 1.336 . S
C151 N149 1.335 . S
C151 N150 1.345 . S
C151 H156 0.930 . S
C152 N149 1.390 . S
C152 C153 1.346 . S
C152 H157 0.930 . S
C153 N150 1.336 . S
C153 C152 1.346 . S
C153 H160 0.929 . S
C154 O144 1.282 . S
C154 O155 1.216 . S
O155 C154 1.216 . S
H156 C151 0.930 . S
H157 C152 0.930 . S
O158 Cu138 1.959 . S
O158 C145 1.251 . S
H159 C142 0.930 . S
H160 C153 0.929 . S
Cu161 N162 1.999 . S
Cu161 O167 1.974 . S
Cu161 N172 1.985 . S
Cu161 O181 1.959 . S
N162 Cu161 1.999 . S
N162 C164 1.263 . S
N162 C166 1.389 . S
N163 C164 1.358 . S
N163 C165 1.400 . S
C164 N162 1.263 . S
C164 N163 1.358 . S
C164 H170 0.930 . S
C165 N163 1.400 . S
C165 C166 1.351 . S
C165 H182 0.930 . S
C166 N162 1.389 . S
C166 C165 1.351 . S
C166 H171 0.930 . S
O167 Cu161 1.974 . S
O167 C177 1.282 . S
C168 O169 1.261 . S
C168 O181 1.251 . S
O169 C168 1.261 . S
H170 C164 0.930 . S
H171 C166 0.930 . S
N172 Cu161 1.985 . S
N172 C174 1.335 . S
N172 C175 1.390 . S
N173 C174 1.345 . S
N173 C176 1.336 . S
C174 N172 1.335 . S
C174 N173 1.345 . S
C174 H179 0.930 . S
C175 N172 1.390 . S
C175 C176 1.346 . S
C175 H180 0.930 . S
C176 N173 1.336 . S
C176 C175 1.346 . S
C176 H183 0.929 . S
C177 O167 1.282 . S
C177 O178 1.216 . S
O178 C177 1.216 . S
H179 C174 0.930 . S
H180 C175 0.930 . S
O181 Cu161 1.959 . S
O181 C168 1.251 . S
H182 C165 0.930 . S
H183 C176 0.929 . S
Cu184 N185 1.999 . S
Cu184 O190 1.974 . S
Cu184 N195 1.985 . S
Cu184 O204 1.959 . S
N185 Cu184 1.999 . S
N185 C187 1.263 . S
N185 C189 1.389 . S
N186 C187 1.358 . S
N186 C188 1.400 . S
C187 N185 1.263 . S
C187 N186 1.358 . S
C187 H193 0.930 . S
C188 N186 1.400 . S
C188 C189 1.351 . S
C188 H205 0.930 . S
C189 N185 1.389 . S
C189 C188 1.351 . S
C189 H194 0.930 . S
O190 Cu184 1.974 . S
O190 C200 1.282 . S
C191 O192 1.261 . S
C191 O204 1.251 . S
O192 C191 1.261 . S
H193 C187 0.930 . S
H194 C189 0.930 . S
N195 Cu184 1.985 . S
N195 C197 1.335 . S
N195 C198 1.390 . S
N196 C197 1.345 . S
N196 C199 1.336 . S
C197 N195 1.335 . S
C197 N196 1.345 . S
C197 H202 0.930 . S
C198 N195 1.390 . S
C198 C199 1.346 . S
C198 H203 0.930 . S
C199 N196 1.336 . S
C199 C198 1.346 . S
C199 H206 0.929 . S
C200 O190 1.282 . S
C200 O201 1.216 . S
O201 C200 1.216 . S
H202 C197 0.930 . S
H203 C198 0.930 . S
O204 Cu184 1.959 . S
O204 C191 1.251 . S
H205 C188 0.930 . S
H206 C199 0.929 . S
Cu207 N208 1.999 . S
Cu207 O213 1.974 . S
Cu207 N218 1.985 . S
Cu207 O227 1.959 . S
N208 Cu207 1.999 . S
N208 C210 1.263 . S
N208 C212 1.389 . S
N209 C210 1.358 . S
N209 C211 1.400 . S
C210 N208 1.263 . S
C210 N209 1.358 . S
C210 H216 0.930 . S
C211 N209 1.400 . S
C211 C212 1.351 . S
C211 H228 0.930 . S
C212 N208 1.389 . S
C212 C211 1.351 . S
C212 H217 0.930 . S
O213 Cu207 1.974 . S
O213 C223 1.282 . S
C214 O215 1.261 . S
C214 O227 1.251 . S
O215 C214 1.261 . S
H216 C210 0.930 . S
H217 C212 0.930 . S
N218 Cu207 1.985 . S
N218 C220 1.335 . S
N218 C221 1.390 . S
N219 C220 1.345 . S
N219 C222 1.336 . S
C220 N218 1.335 . S
C220 N219 1.345 . S
C220 H225 0.930 . S
C221 N218 1.390 . S
C221 C222 1.346 . S
C221 H226 0.930 . S
C222 N219 1.336 . S
C222 C221 1.346 . S
C222 H229 0.929 . S
C223 O213 1.282 . S
C223 O224 1.216 . S
O224 C223 1.216 . S
H225 C220 0.930 . S
H226 C221 0.930 . S
O227 Cu207 1.959 . S
O227 C214 1.251 . S
H228 C211 0.930 . S
H229 C222 0.929 . S
Cu230 N231 1.999 . S
Cu230 O236 1.974 . S
Cu230 N241 1.985 . S
Cu230 O250 1.959 . S
N231 Cu230 1.999 . S
N231 C233 1.263 . S
N231 C235 1.389 . S
N232 C233 1.358 . S
N232 C234 1.400 . S
C233 N231 1.263 . S
C233 N232 1.358 . S
C233 H239 0.930 . S
C234 N232 1.400 . S
C234 C235 1.351 . S
C234 H251 0.930 . S
C235 N231 1.389 . S
C235 C234 1.351 . S
C235 H240 0.930 . S
O236 Cu230 1.974 . S
O236 C246 1.282 . S
C237 O238 1.261 . S
C237 O250 1.251 . S
O238 C237 1.261 . S
H239 C233 0.930 . S
H240 C235 0.930 . S
N241 Cu230 1.985 . S
N241 C243 1.335 . S
N241 C244 1.390 . S
N242 C243 1.345 . S
N242 C245 1.336 . S
C243 N241 1.335 . S
C243 N242 1.345 . S
C243 H248 0.930 . S
C244 N241 1.390 . S
C244 C245 1.346 . S
C244 H249 0.930 . S
C245 N242 1.336 . S
C245 C244 1.346 . S
C245 H252 0.929 . S
C246 O236 1.282 . S
C246 O247 1.216 . S
O247 C246 1.216 . S
H248 C243 0.930 . S
H249 C244 0.930 . S
O250 Cu230 1.959 . S
O250 C237 1.251 . S
H251 C234 0.930 . S
H252 C245 0.929 . S
Cu253 N254 1.999 . S
Cu253 O259 1.974 . S
Cu253 N264 1.985 . S
Cu253 O273 1.959 . S
N254 Cu253 1.999 . S
N254 C256 1.263 . S
N254 C258 1.389 . S
N255 C256 1.358 . S
N255 C257 1.400 . S
C256 N254 1.263 . S
C256 N255 1.358 . S
C256 H262 0.930 . S
C257 N255 1.400 . S
C257 C258 1.351 . S
C257 H274 0.930 . S
C258 N254 1.389 . S
C258 C257 1.351 . S
C258 H263 0.930 . S
O259 Cu253 1.974 . S
O259 C269 1.282 . S
C260 O261 1.261 . S
C260 O273 1.251 . S
O261 C260 1.261 . S
H262 C256 0.930 . S
H263 C258 0.930 . S
N264 Cu253 1.985 . S
N264 C266 1.335 . S
N264 C267 1.390 . S
N265 C266 1.345 . S
N265 C268 1.336 . S
C266 N264 1.335 . S
C266 N265 1.345 . S
C266 H271 0.930 . S
C267 N264 1.390 . S
C267 C268 1.346 . S
C267 H272 0.930 . S
C268 N265 1.336 . S
C268 C267 1.346 . S
C268 H275 0.929 . S
C269 O259 1.282 . S
C269 O270 1.216 . S
O270 C269 1.216 . S
H271 C266 0.930 . S
H272 C267 0.930 . S
O273 Cu253 1.959 . S
O273 C260 1.251 . S
H274 C257 0.930 . S
H275 C268 0.929 . S
Nd276 C278 2.836 . S
Nd276 O296 2.500 . S
Nd276 O297 2.492 . S
Nd276 O298 2.487 . S
Nd276 O299 2.682 . S
Nd276 O300 2.410 . S
Nd276 O305 2.414 . S
Nd276 O307 2.424 . S
Nd277 C287 2.836 . S
Nd277 O299 2.414 . S
Nd277 O301 2.424 . S
Nd277 O302 2.500 . S
Nd277 O303 2.492 . S
Nd277 O304 2.487 . S
Nd277 O305 2.682 . S
Nd277 O306 2.410 . S
C278 Nd276 2.836 . S
C278 C279 1.498 . S
C278 O296 1.258 . S
C278 O297 1.239 . S
C279 C278 1.498 . S
C279 C280 1.366 . S
C279 C284 1.407 . S
C280 C279 1.366 . S
C280 C281 1.392 . S
C280 H308 0.930 . S
C281 C280 1.392 . S
C281 C282 1.398 . S
C281 H309 0.929 . S
C282 C281 1.398 . S
C282 C283 1.352 . S
C283 C282 1.352 . S
C283 C284 1.384 . S
C283 H310 0.930 . S
C284 C279 1.407 . S
C284 C283 1.384 . S
C284 H311 0.929 . S
C285 O298 1.241 . S
C285 O299 1.273 . S
C286 O300 1.251 . S
C286 O301 1.268 . S
C287 Nd277 2.836 . S
C287 C288 1.498 . S
C287 O302 1.258 . S
C287 O303 1.239 . S
C288 C287 1.498 . S
C288 C289 1.366 . S
C288 C293 1.407 . S
C289 C288 1.366 . S
C289 C290 1.392 . S
C289 H312 0.930 . S
C290 C289 1.392 . S
C290 C291 1.398 . S
C290 H313 0.929 . S
C291 C290 1.398 . S
C291 C292 1.352 . S
C292 C291 1.352 . S
C292 C293 1.384 . S
C292 H314 0.930 . S
C293 C288 1.407 . S
C293 C292 1.384 . S
C293 H315 0.929 . S
C294 O304 1.241 . S
C294 O305 1.273 . S
C295 O306 1.251 . S
C295 O307 1.268 . S
O296 Nd276 2.500 . S
O296 C278 1.258 . S
O297 Nd276 2.492 . S
O297 C278 1.239 . S
O298 Nd276 2.487 . S
O298 C285 1.241 . S
O299 Nd276 2.682 . S
O299 Nd277 2.414 . S
O299 C285 1.273 . S
O300 Nd276 2.410 . S
O300 C286 1.251 . S
O301 Nd277 2.424 . S
O301 C286 1.268 . S
O302 Nd277 2.500 . S
O302 C287 1.258 . S
O303 Nd277 2.492 . S
O303 C287 1.239 . S
O304 Nd277 2.487 . S
O304 C294 1.241 . S
O305 Nd276 2.414 . S
O305 Nd277 2.682 . S
O305 C294 1.273 . S
O306 Nd277 2.410 . S
O306 C295 1.251 . S
O307 Nd276 2.424 . S
O307 C295 1.268 . S
H308 C280 0.930 . S
H309 C281 0.929 . S
H310 C283 0.930 . S
H311 C284 0.929 . S
H312 C289 0.930 . S
H313 C290 0.929 . S
H314 C292 0.930 . S
H315 C293 0.929 . S
Nd316 C318 2.836 . S
Nd316 O336 2.500 . S
Nd316 O337 2.492 . S
Nd316 O338 2.487 . S
Nd316 O339 2.682 . S
Nd316 O340 2.410 . S
Nd316 O345 2.414 . S
Nd316 O347 2.424 . S
Nd317 C327 2.836 . S
Nd317 O339 2.414 . S
Nd317 O341 2.424 . S
Nd317 O342 2.500 . S
Nd317 O343 2.492 . S
Nd317 O344 2.487 . S
Nd317 O345 2.682 . S
Nd317 O346 2.410 . S
C318 Nd316 2.836 . S
C318 C319 1.498 . S
C318 O336 1.258 . S
C318 O337 1.239 . S
C319 C318 1.498 . S
C319 C320 1.366 . S
C319 C324 1.407 . S
C320 C319 1.366 . S
C320 C321 1.392 . S
C320 H348 0.930 . S
C321 C320 1.392 . S
C321 C322 1.398 . S
C321 H349 0.929 . S
C322 C321 1.398 . S
C322 C323 1.352 . S
C323 C322 1.352 . S
C323 C324 1.384 . S
C323 H350 0.930 . S
C324 C319 1.407 . S
C324 C323 1.384 . S
C324 H351 0.929 . S
C325 O338 1.241 . S
C325 O339 1.273 . S
C326 O340 1.251 . S
C326 O341 1.268 . S
C327 Nd317 2.836 . S
C327 C328 1.498 . S
C327 O342 1.258 . S
C327 O343 1.239 . S
C328 C327 1.498 . S
C328 C329 1.366 . S
C328 C333 1.407 . S
C329 C328 1.366 . S
C329 C330 1.392 . S
C329 H352 0.930 . S
C330 C329 1.392 . S
C330 C331 1.398 . S
C330 H353 0.929 . S
C331 C330 1.398 . S
C331 C332 1.352 . S
C332 C331 1.352 . S
C332 C333 1.384 . S
C332 H354 0.930 . S
C333 C328 1.407 . S
C333 C332 1.384 . S
C333 H355 0.929 . S
C334 O344 1.241 . S
C334 O345 1.273 . S
C335 O346 1.251 . S
C335 O347 1.268 . S
O336 Nd316 2.500 . S
O336 C318 1.258 . S
O337 Nd316 2.492 . S
O337 C318 1.239 . S
O338 Nd316 2.487 . S
O338 C325 1.241 . S
O339 Nd316 2.682 . S
O339 Nd317 2.414 . S
O339 C325 1.273 . S
O340 Nd316 2.410 . S
O340 C326 1.251 . S
O341 Nd317 2.424 . S
O341 C326 1.268 . S
O342 Nd317 2.500 . S
O342 C327 1.258 . S
O343 Nd317 2.492 . S
O343 C327 1.239 . S
O344 Nd317 2.487 . S
O344 C334 1.241 . S
O345 Nd316 2.414 . S
O345 Nd317 2.682 . S
O345 C334 1.273 . S
O346 Nd317 2.410 . S
O346 C335 1.251 . S
O347 Nd316 2.424 . S
O347 C335 1.268 . S
H348 C320 0.930 . S
H349 C321 0.929 . S
H350 C323 0.930 . S
H351 C324 0.929 . S
H352 C329 0.930 . S
H353 C330 0.929 . S
H354 C332 0.930 . S
H355 C333 0.929 . S
Nd356 C358 2.836 . S
Nd356 O376 2.500 . S
Nd356 O377 2.492 . S
Nd356 O378 2.487 . S
Nd356 O379 2.682 . S
Nd356 O380 2.410 . S
Nd356 O385 2.414 . S
Nd356 O387 2.424 . S
Nd357 C367 2.836 . S
Nd357 O379 2.414 . S
Nd357 O381 2.424 . S
Nd357 O382 2.500 . S
Nd357 O383 2.492 . S
Nd357 O384 2.487 . S
Nd357 O385 2.682 . S
Nd357 O386 2.410 . S
C358 Nd356 2.836 . S
C358 C359 1.498 . S
C358 O376 1.258 . S
C358 O377 1.239 . S
C359 C358 1.498 . S
C359 C360 1.366 . S
C359 C364 1.407 . S
C360 C359 1.366 . S
C360 C361 1.392 . S
C360 H388 0.930 . S
C361 C360 1.392 . S
C361 C362 1.398 . S
C361 H389 0.929 . S
C362 C361 1.398 . S
C362 C363 1.352 . S
C363 C362 1.352 . S
C363 C364 1.384 . S
C363 H390 0.930 . S
C364 C359 1.407 . S
C364 C363 1.384 . S
C364 H391 0.929 . S
C365 O378 1.241 . S
C365 O379 1.273 . S
C366 O380 1.251 . S
C366 O381 1.268 . S
C367 Nd357 2.836 . S
C367 C368 1.498 . S
C367 O382 1.258 . S
C367 O383 1.239 . S
C368 C367 1.498 . S
C368 C369 1.366 . S
C368 C373 1.407 . S
C369 C368 1.366 . S
C369 C370 1.392 . S
C369 H392 0.930 . S
C370 C369 1.392 . S
C370 C371 1.398 . S
C370 H393 0.929 . S
C371 C370 1.398 . S
C371 C372 1.352 . S
C372 C371 1.352 . S
C372 C373 1.384 . S
C372 H394 0.930 . S
C373 C368 1.407 . S
C373 C372 1.384 . S
C373 H395 0.929 . S
C374 O384 1.241 . S
C374 O385 1.273 . S
C375 O386 1.251 . S
C375 O387 1.268 . S
O376 Nd356 2.500 . S
O376 C358 1.258 . S
O377 Nd356 2.492 . S
O377 C358 1.239 . S
O378 Nd356 2.487 . S
O378 C365 1.241 . S
O379 Nd356 2.682 . S
O379 Nd357 2.414 . S
O379 C365 1.273 . S
O380 Nd356 2.410 . S
O380 C366 1.251 . S
O381 Nd357 2.424 . S
O381 C366 1.268 . S
O382 Nd357 2.500 . S
O382 C367 1.258 . S
O383 Nd357 2.492 . S
O383 C367 1.239 . S
O384 Nd357 2.487 . S
O384 C374 1.241 . S
O385 Nd356 2.414 . S
O385 Nd357 2.682 . S
O385 C374 1.273 . S
O386 Nd357 2.410 . S
O386 C375 1.251 . S
O387 Nd356 2.424 . S
O387 C375 1.268 . S
H388 C360 0.930 . S
H389 C361 0.929 . S
H390 C363 0.930 . S
H391 C364 0.929 . S
H392 C369 0.930 . S
H393 C370 0.929 . S
H394 C372 0.930 . S
H395 C373 0.929 . S
Nd396 C398 2.836 . S
Nd396 O416 2.500 . S
Nd396 O417 2.492 . S
Nd396 O418 2.487 . S
Nd396 O419 2.682 . S
Nd396 O420 2.410 . S
Nd396 O425 2.414 . S
Nd396 O427 2.424 . S
Nd397 C407 2.836 . S
Nd397 O419 2.414 . S
Nd397 O421 2.424 . S
Nd397 O422 2.500 . S
Nd397 O423 2.492 . S
Nd397 O424 2.487 . S
Nd397 O425 2.682 . S
Nd397 O426 2.410 . S
C398 Nd396 2.836 . S
C398 C399 1.498 . S
C398 O416 1.258 . S
C398 O417 1.239 . S
C399 C398 1.498 . S
C399 C400 1.366 . S
C399 C404 1.407 . S
C400 C399 1.366 . S
C400 C401 1.392 . S
C400 H428 0.930 . S
C401 C400 1.392 . S
C401 C402 1.398 . S
C401 H429 0.929 . S
C402 C401 1.398 . S
C402 C403 1.352 . S
C403 C402 1.352 . S
C403 C404 1.384 . S
C403 H430 0.930 . S
C404 C399 1.407 . S
C404 C403 1.384 . S
C404 H431 0.929 . S
C405 O418 1.241 . S
C405 O419 1.273 . S
C406 O420 1.251 . S
C406 O421 1.268 . S
C407 Nd397 2.836 . S
C407 C408 1.498 . S
C407 O422 1.258 . S
C407 O423 1.239 . S
C408 C407 1.498 . S
C408 C409 1.366 . S
C408 C413 1.407 . S
C409 C408 1.366 . S
C409 C410 1.392 . S
C409 H432 0.930 . S
C410 C409 1.392 . S
C410 C411 1.398 . S
C410 H433 0.929 . S
C411 C410 1.398 . S
C411 C412 1.352 . S
C412 C411 1.352 . S
C412 C413 1.384 . S
C412 H434 0.930 . S
C413 C408 1.407 . S
C413 C412 1.384 . S
C413 H435 0.929 . S
C414 O424 1.241 . S
C414 O425 1.273 . S
C415 O426 1.251 . S
C415 O427 1.268 . S
O416 Nd396 2.500 . S
O416 C398 1.258 . S
O417 Nd396 2.492 . S
O417 C398 1.239 . S
O418 Nd396 2.487 . S
O418 C405 1.241 . S
O419 Nd396 2.682 . S
O419 Nd397 2.414 . S
O419 C405 1.273 . S
O420 Nd396 2.410 . S
O420 C406 1.251 . S
O421 Nd397 2.424 . S
O421 C406 1.268 . S
O422 Nd397 2.500 . S
O422 C407 1.258 . S
O423 Nd397 2.492 . S
O423 C407 1.239 . S
O424 Nd397 2.487 . S
O424 C414 1.241 . S
O425 Nd396 2.414 . S
O425 Nd397 2.682 . S
O425 C414 1.273 . S
O426 Nd397 2.410 . S
O426 C415 1.251 . S
O427 Nd396 2.424 . S
O427 C415 1.268 . S
H428 C400 0.930 . S
H429 C401 0.929 . S
H430 C403 0.930 . S
H431 C404 0.929 . S
H432 C409 0.930 . S
H433 C410 0.929 . S
H434 C412 0.930 . S
H435 C413 0.929 . S
Nd436 C438 2.836 . S
Nd436 O456 2.500 . S
Nd436 O457 2.492 . S
Nd436 O458 2.487 . S
Nd436 O459 2.682 . S
Nd436 O460 2.410 . S
Nd436 O465 2.414 . S
Nd436 O467 2.424 . S
Nd437 C447 2.836 . S
Nd437 O459 2.414 . S
Nd437 O461 2.424 . S
Nd437 O462 2.500 . S
Nd437 O463 2.492 . S
Nd437 O464 2.487 . S
Nd437 O465 2.682 . S
Nd437 O466 2.410 . S
C438 Nd436 2.836 . S
C438 C439 1.498 . S
C438 O456 1.258 . S
C438 O457 1.239 . S
C439 C438 1.498 . S
C439 C440 1.366 . S
C439 C444 1.407 . S
C440 C439 1.366 . S
C440 C441 1.392 . S
C440 H468 0.930 . S
C441 C440 1.392 . S
C441 C442 1.398 . S
C441 H469 0.929 . S
C442 C441 1.398 . S
C442 C443 1.352 . S
C443 C442 1.352 . S
C443 C444 1.384 . S
C443 H470 0.930 . S
C444 C439 1.407 . S
C444 C443 1.384 . S
C444 H471 0.929 . S
C445 O458 1.241 . S
C445 O459 1.273 . S
C446 O460 1.251 . S
C446 O461 1.268 . S
C447 Nd437 2.836 . S
C447 C448 1.498 . S
C447 O462 1.258 . S
C447 O463 1.239 . S
C448 C447 1.498 . S
C448 C449 1.366 . S
C448 C453 1.407 . S
C449 C448 1.366 . S
C449 C450 1.392 . S
C449 H472 0.930 . S
C450 C449 1.392 . S
C450 C451 1.398 . S
C450 H473 0.929 . S
C451 C450 1.398 . S
C451 C452 1.352 . S
C452 C451 1.352 . S
C452 C453 1.384 . S
C452 H474 0.930 . S
C453 C448 1.407 . S
C453 C452 1.384 . S
C453 H475 0.929 . S
C454 O464 1.241 . S
C454 O465 1.273 . S
C455 O466 1.251 . S
C455 O467 1.268 . S
O456 Nd436 2.500 . S
O456 C438 1.258 . S
O457 Nd436 2.492 . S
O457 C438 1.239 . S
O458 Nd436 2.487 . S
O458 C445 1.241 . S
O459 Nd436 2.682 . S
O459 Nd437 2.414 . S
O459 C445 1.273 . S
O460 Nd436 2.410 . S
O460 C446 1.251 . S
O461 Nd437 2.424 . S
O461 C446 1.268 . S
O462 Nd437 2.500 . S
O462 C447 1.258 . S
O463 Nd437 2.492 . S
O463 C447 1.239 . S
O464 Nd437 2.487 . S
O464 C454 1.241 . S
O465 Nd436 2.414 . S
O465 Nd437 2.682 . S
O465 C454 1.273 . S
O466 Nd437 2.410 . S
O466 C455 1.251 . S
O467 Nd436 2.424 . S
O467 C455 1.268 . S
H468 C440 0.930 . S
H469 C441 0.929 . S
H470 C443 0.930 . S
H471 C444 0.929 . S
H472 C449 0.930 . S
H473 C450 0.929 . S
H474 C452 0.930 . S
H475 C453 0.929 . S
Nd476 C478 2.836 . S
Nd476 O496 2.500 . S
Nd476 O497 2.492 . S
Nd476 O498 2.487 . S
Nd476 O499 2.682 . S
Nd476 O500 2.410 . S
Nd476 O505 2.414 . S
Nd476 O507 2.424 . S
Nd477 C487 2.836 . S
Nd477 O499 2.414 . S
Nd477 O501 2.424 . S
Nd477 O502 2.500 . S
Nd477 O503 2.492 . S
Nd477 O504 2.487 . S
Nd477 O505 2.682 . S
Nd477 O506 2.410 . S
C478 Nd476 2.836 . S
C478 C479 1.498 . S
C478 O496 1.258 . S
C478 O497 1.239 . S
C479 C478 1.498 . S
C479 C480 1.366 . S
C479 C484 1.407 . S
C480 C479 1.366 . S
C480 C481 1.392 . S
C480 H508 0.930 . S
C481 C480 1.392 . S
C481 C482 1.398 . S
C481 H509 0.929 . S
C482 C481 1.398 . S
C482 C483 1.352 . S
C483 C482 1.352 . S
C483 C484 1.384 . S
C483 H510 0.930 . S
C484 C479 1.407 . S
C484 C483 1.384 . S
C484 H511 0.929 . S
C485 O498 1.241 . S
C485 O499 1.273 . S
C486 O500 1.251 . S
C486 O501 1.268 . S
C487 Nd477 2.836 . S
C487 C488 1.498 . S
C487 O502 1.258 . S
C487 O503 1.239 . S
C488 C487 1.498 . S
C488 C489 1.366 . S
C488 C493 1.407 . S
C489 C488 1.366 . S
C489 C490 1.392 . S
C489 H512 0.930 . S
C490 C489 1.392 . S
C490 C491 1.398 . S
C490 H513 0.929 . S
C491 C490 1.398 . S
C491 C492 1.352 . S
C492 C491 1.352 . S
C492 C493 1.384 . S
C492 H514 0.930 . S
C493 C488 1.407 . S
C493 C492 1.384 . S
C493 H515 0.929 . S
C494 O504 1.241 . S
C494 O505 1.273 . S
C495 O506 1.251 . S
C495 O507 1.268 . S
O496 Nd476 2.500 . S
O496 C478 1.258 . S
O497 Nd476 2.492 . S
O497 C478 1.239 . S
O498 Nd476 2.487 . S
O498 C485 1.241 . S
O499 Nd476 2.682 . S
O499 Nd477 2.414 . S
O499 C485 1.273 . S
O500 Nd476 2.410 . S
O500 C486 1.251 . S
O501 Nd477 2.424 . S
O501 C486 1.268 . S
O502 Nd477 2.500 . S
O502 C487 1.258 . S
O503 Nd477 2.492 . S
O503 C487 1.239 . S
O504 Nd477 2.487 . S
O504 C494 1.241 . S
O505 Nd476 2.414 . S
O505 Nd477 2.682 . S
O505 C494 1.273 . S
O506 Nd477 2.410 . S
O506 C495 1.251 . S
O507 Nd476 2.424 . S
O507 C495 1.268 . S
H508 C480 0.930 . S
H509 C481 0.929 . S
H510 C483 0.930 . S
H511 C484 0.929 . S
H512 C489 0.930 . S
H513 C490 0.929 . S
H514 C492 0.930 . S
H515 C493 0.929 . S
Nd516 C518 2.836 . S
Nd516 O536 2.500 . S
Nd516 O537 2.492 . S
Nd516 O538 2.487 . S
Nd516 O539 2.682 . S
Nd516 O540 2.410 . S
Nd516 O545 2.414 . S
Nd516 O547 2.424 . S
Nd517 C527 2.836 . S
Nd517 O539 2.414 . S
Nd517 O541 2.424 . S
Nd517 O542 2.500 . S
Nd517 O543 2.492 . S
Nd517 O544 2.487 . S
Nd517 O545 2.682 . S
Nd517 O546 2.410 . S
C518 Nd516 2.836 . S
C518 C519 1.498 . S
C518 O536 1.258 . S
C518 O537 1.239 . S
C519 C518 1.498 . S
C519 C520 1.366 . S
C519 C524 1.407 . S
C520 C519 1.366 . S
C520 C521 1.392 . S
C520 H548 0.930 . S
C521 C520 1.392 . S
C521 C522 1.398 . S
C521 H549 0.929 . S
C522 C521 1.398 . S
C522 C523 1.352 . S
C523 C522 1.352 . S
C523 C524 1.384 . S
C523 H550 0.930 . S
C524 C519 1.407 . S
C524 C523 1.384 . S
C524 H551 0.929 . S
C525 O538 1.241 . S
C525 O539 1.273 . S
C526 O540 1.251 . S
C526 O541 1.268 . S
C527 Nd517 2.836 . S
C527 C528 1.498 . S
C527 O542 1.258 . S
C527 O543 1.239 . S
C528 C527 1.498 . S
C528 C529 1.366 . S
C528 C533 1.407 . S
C529 C528 1.366 . S
C529 C530 1.392 . S
C529 H552 0.930 . S
C530 C529 1.392 . S
C530 C531 1.398 . S
C530 H553 0.929 . S
C531 C530 1.398 . S
C531 C532 1.352 . S
C532 C531 1.352 . S
C532 C533 1.384 . S
C532 H554 0.930 . S
C533 C528 1.407 . S
C533 C532 1.384 . S
C533 H555 0.929 . S
C534 O544 1.241 . S
C534 O545 1.273 . S
C535 O546 1.251 . S
C535 O547 1.268 . S
O536 Nd516 2.500 . S
O536 C518 1.258 . S
O537 Nd516 2.492 . S
O537 C518 1.239 . S
O538 Nd516 2.487 . S
O538 C525 1.241 . S
O539 Nd516 2.682 . S
O539 Nd517 2.414 . S
O539 C525 1.273 . S
O540 Nd516 2.410 . S
O540 C526 1.251 . S
O541 Nd517 2.424 . S
O541 C526 1.268 . S
O542 Nd517 2.500 . S
O542 C527 1.258 . S
O543 Nd517 2.492 . S
O543 C527 1.239 . S
O544 Nd517 2.487 . S
O544 C534 1.241 . S
O545 Nd516 2.414 . S
O545 Nd517 2.682 . S
O545 C534 1.273 . S
O546 Nd517 2.410 . S
O546 C535 1.251 . S
O547 Nd516 2.424 . S
O547 C535 1.268 . S
H548 C520 0.930 . S
H549 C521 0.929 . S
H550 C523 0.930 . S
H551 C524 0.929 . S
H552 C529 0.930 . S
H553 C530 0.929 . S
H554 C532 0.930 . S
H555 C533 0.929 . S
Nd556 C558 2.836 . S
Nd556 O576 2.500 . S
Nd556 O577 2.492 . S
Nd556 O578 2.487 . S
Nd556 O579 2.682 . S
Nd556 O580 2.410 . S
Nd556 O585 2.414 . S
Nd556 O587 2.424 . S
Nd557 C567 2.836 . S
Nd557 O579 2.414 . S
Nd557 O581 2.424 . S
Nd557 O582 2.500 . S
Nd557 O583 2.492 . S
Nd557 O584 2.487 . S
Nd557 O585 2.682 . S
Nd557 O586 2.410 . S
C558 Nd556 2.836 . S
C558 C559 1.498 . S
C558 O576 1.258 . S
C558 O577 1.239 . S
C559 C558 1.498 . S
C559 C560 1.366 . S
C559 C564 1.407 . S
C560 C559 1.366 . S
C560 C561 1.392 . S
C560 H588 0.930 . S
C561 C560 1.392 . S
C561 C562 1.398 . S
C561 H589 0.929 . S
C562 C561 1.398 . S
C562 C563 1.352 . S
C563 C562 1.352 . S
C563 C564 1.384 . S
C563 H590 0.930 . S
C564 C559 1.407 . S
C564 C563 1.384 . S
C564 H591 0.929 . S
C565 O578 1.241 . S
C565 O579 1.273 . S
C566 O580 1.251 . S
C566 O581 1.268 . S
C567 Nd557 2.836 . S
C567 C568 1.498 . S
C567 O582 1.258 . S
C567 O583 1.239 . S
C568 C567 1.498 . S
C568 C569 1.366 . S
C568 C573 1.407 . S
C569 C568 1.366 . S
C569 C570 1.392 . S
C569 H592 0.930 . S
C570 C569 1.392 . S
C570 C571 1.398 . S
C570 H593 0.929 . S
C571 C570 1.398 . S
C571 C572 1.352 . S
C572 C571 1.352 . S
C572 C573 1.384 . S
C572 H594 0.930 . S
C573 C568 1.407 . S
C573 C572 1.384 . S
C573 H595 0.929 . S
C574 O584 1.241 . S
C574 O585 1.273 . S
C575 O586 1.251 . S
C575 O587 1.268 . S
O576 Nd556 2.500 . S
O576 C558 1.258 . S
O577 Nd556 2.492 . S
O577 C558 1.239 . S
O578 Nd556 2.487 . S
O578 C565 1.241 . S
O579 Nd556 2.682 . S
O579 Nd557 2.414 . S
O579 C565 1.273 . S
O580 Nd556 2.410 . S
O580 C566 1.251 . S
O581 Nd557 2.424 . S
O581 C566 1.268 . S
O582 Nd557 2.500 . S
O582 C567 1.258 . S
O583 Nd557 2.492 . S
O583 C567 1.239 . S
O584 Nd557 2.487 . S
O584 C574 1.241 . S
O585 Nd556 2.414 . S
O585 Nd557 2.682 . S
O585 C574 1.273 . S
O586 Nd557 2.410 . S
O586 C575 1.251 . S
O587 Nd556 2.424 . S
O587 C575 1.268 . S
H588 C560 0.930 . S
H589 C561 0.929 . S
H590 C563 0.930 . S
H591 C564 0.929 . S
H592 C569 0.930 . S
H593 C570 0.929 . S
H594 C572 0.930 . S
H595 C573 0.929 . S
H596 C614 0.951 . S
H597 C616 0.951 . S
H598 C618 0.950 . S
H599 C619 0.950 . S
H600 C621 0.950 . S
H601 C624 0.950 . S
H602 C625 0.950 . S
H603 C627 0.950 . S
H604 C628 0.950 . S
H605 C629 0.951 . S
H606 C631 0.951 . S
H607 C633 0.950 . S
H608 C634 0.950 . S
H609 C636 0.950 . S
H610 C639 0.950 . S
H611 C640 0.950 . S
H612 C642 0.950 . S
H613 C643 0.950 . S
C614 H596 0.951 . S
C614 C615 1.366 . S
C614 C616 1.388 . S
C615 C614 1.366 . S
C615 C619 1.385 . S
C616 H597 0.951 . S
C616 C614 1.388 . S
C616 C617 1.366 . S
C617 C616 1.366 . S
C617 C618 1.414 . S
C617 C620 1.499 . S
C618 H598 0.950 . S
C618 C617 1.414 . S
C618 C619 1.374 . S
C619 H599 0.950 . S
C619 C615 1.385 . S
C619 C618 1.374 . S
C620 C617 1.499 . S
C620 C621 1.373 . S
C620 C622 1.389 . S
C621 H600 0.950 . S
C621 C620 1.373 . S
C621 C637 1.377 . S
C622 C620 1.389 . S
C622 C623 1.524 . S
C622 C636 1.377 . S
C623 C622 1.524 . S
C623 C624 1.397 . S
C623 C628 1.363 . S
C624 H601 0.950 . S
C624 C623 1.397 . S
C624 C625 1.334 . S
C625 H602 0.950 . S
C625 C624 1.334 . S
C625 C626 1.287 . S
C626 C625 1.287 . S
C626 C627 1.524 . S
C626 H645 0.913 . S
C627 H603 0.950 . S
C627 C626 1.524 . S
C627 C628 1.415 . S
C628 H604 0.950 . S
C628 C623 1.363 . S
C628 C627 1.415 . S
C629 H605 0.951 . S
C629 C630 1.366 . S
C629 C631 1.388 . S
C630 C629 1.366 . S
C630 C634 1.385 . S
C631 H606 0.951 . S
C631 C629 1.388 . S
C631 C632 1.366 . S
C632 C631 1.366 . S
C632 C633 1.414 . S
C632 C635 1.499 . S
C633 H607 0.950 . S
C633 C632 1.414 . S
C633 C634 1.374 . S
C634 H608 0.950 . S
C634 C630 1.385 . S
C634 C633 1.374 . S
C635 C632 1.499 . S
C635 C636 1.373 . S
C635 C637 1.389 . S
C636 H609 0.950 . S
C636 C622 1.377 . S
C636 C635 1.373 . S
C637 C621 1.377 . S
C637 C635 1.389 . S
C637 C638 1.524 . S
C638 C637 1.524 . S
C638 C639 1.397 . S
C638 C643 1.363 . S
C639 H610 0.950 . S
C639 C638 1.397 . S
C639 C640 1.334 . S
C640 H611 0.950 . S
C640 C639 1.334 . S
C640 C641 1.287 . S
C641 C640 1.287 . S
C641 C642 1.524 . S
C641 H644 0.999 . S
C642 H612 0.950 . S
C642 C641 1.524 . S
C642 C643 1.415 . S
C643 H613 0.950 . S
C643 C638 1.363 . S
C643 C642 1.415 . S
H644 C641 0.999 . S
H645 C626 0.913 . S
H646 C664 0.951 . S
H647 C666 0.951 . S
H648 C668 0.950 . S
H649 C669 0.950 . S
H650 C671 0.950 . S
H651 C674 0.950 . S
H652 C675 0.950 . S
H653 C677 0.950 . S
H654 C678 0.950 . S
H655 C679 0.951 . S
H656 C681 0.951 . S
H657 C683 0.950 . S
H658 C684 0.950 . S
H659 C686 0.950 . S
H660 C689 0.950 . S
H661 C690 0.950 . S
H662 C692 0.950 . S
H663 C693 0.950 . S
C664 H646 0.951 . S
C664 C665 1.366 . S
C664 C666 1.388 . S
C665 C664 1.366 . S
C665 C669 1.385 . S
C666 H647 0.951 . S
C666 C664 1.388 . S
C666 C667 1.366 . S
C667 C666 1.366 . S
C667 C668 1.414 . S
C667 C670 1.499 . S
C668 H648 0.950 . S
C668 C667 1.414 . S
C668 C669 1.374 . S
C669 H649 0.950 . S
C669 C665 1.385 . S
C669 C668 1.374 . S
C670 C667 1.499 . S
C670 C671 1.373 . S
C670 C672 1.389 . S
C671 H650 0.950 . S
C671 C670 1.373 . S
C671 C687 1.377 . S
C672 C670 1.389 . S
C672 C673 1.524 . S
C672 C686 1.377 . S
C673 C672 1.524 . S
C673 C674 1.397 . S
C673 C678 1.363 . S
C674 H651 0.950 . S
C674 C673 1.397 . S
C674 C675 1.334 . S
C675 H652 0.950 . S
C675 C674 1.334 . S
C675 C676 1.287 . S
C676 C675 1.287 . S
C676 C677 1.524 . S
C676 H695 0.913 . S
C677 H653 0.950 . S
C677 C676 1.524 . S
C677 C678 1.415 . S
C678 H654 0.950 . S
C678 C673 1.363 . S
C678 C677 1.415 . S
C679 H655 0.951 . S
C679 C680 1.366 . S
C679 C681 1.388 . S
C680 C679 1.366 . S
C680 C684 1.385 . S
C681 H656 0.951 . S
C681 C679 1.388 . S
C681 C682 1.366 . S
C682 C681 1.366 . S
C682 C683 1.414 . S
C682 C685 1.499 . S
C683 H657 0.950 . S
C683 C682 1.414 . S
C683 C684 1.374 . S
C684 H658 0.950 . S
C684 C680 1.385 . S
C684 C683 1.374 . S
C685 C682 1.499 . S
C685 C686 1.373 . S
C685 C687 1.389 . S
C686 H659 0.950 . S
C686 C672 1.377 . S
C686 C685 1.373 . S
C687 C671 1.377 . S
C687 C685 1.389 . S
C687 C688 1.524 . S
C688 C687 1.524 . S
C688 C689 1.397 . S
C688 C693 1.363 . S
C689 H660 0.950 . S
C689 C688 1.397 . S
C689 C690 1.334 . S
C690 H661 0.950 . S
C690 C689 1.334 . S
C690 C691 1.287 . S
C691 C690 1.287 . S
C691 C692 1.524 . S
C691 H694 0.999 . S
C692 H662 0.950 . S
C692 C691 1.524 . S
C692 C693 1.415 . S
C693 H663 0.950 . S
C693 C688 1.363 . S
C693 C692 1.415 . S
H694 C691 0.999 . S
H695 C676 0.913 . S
H696 C714 0.951 . S
H697 C716 0.951 . S
H698 C718 0.950 . S
H699 C719 0.950 1_545 S
H700 C721 0.950 . S
H701 C724 0.950 . S
H702 C725 0.950 . S
H703 C727 0.950 . S
H704 C728 0.950 . S
H705 C729 0.951 . S
H706 C731 0.951 . S
H707 C733 0.950 . S
H708 C734 0.950 . S
H709 C736 0.950 . S
H710 C739 0.950 . S
H711 C740 0.950 . S
H712 C742 0.950 . S
H713 C743 0.950 . S
C714 H696 0.951 . S
C714 C715 1.366 . S
C714 C716 1.388 . S
C715 C714 1.366 . S
C715 C719 1.385 . S
C716 H697 0.951 . S
C716 C714 1.388 . S
C716 C717 1.366 . S
C717 C716 1.366 . S
C717 C718 1.414 . S
C717 C720 1.499 . S
C718 H698 0.950 . S
C718 C717 1.414 . S
C718 C719 1.374 . S
C719 H699 0.950 1_565 S
C719 C715 1.385 . S
C719 C718 1.374 . S
C720 C717 1.499 . S
C720 C721 1.373 . S
C720 C722 1.389 . S
C721 H700 0.950 . S
C721 C720 1.373 . S
C721 C737 1.377 . S
C722 C720 1.389 . S
C722 C723 1.524 . S
C722 C736 1.377 . S
C723 C722 1.524 . S
C723 C724 1.397 . S
C723 C728 1.363 . S
C724 H701 0.950 . S
C724 C723 1.397 . S
C724 C725 1.334 . S
C725 H702 0.950 . S
C725 C724 1.334 . S
C725 C726 1.287 . S
C726 C725 1.287 . S
C726 C727 1.524 . S
C726 H745 0.913 . S
C727 H703 0.950 . S
C727 C726 1.524 . S
C727 C728 1.415 . S
C728 H704 0.950 . S
C728 C723 1.363 . S
C728 C727 1.415 . S
C729 H705 0.951 . S
C729 C730 1.366 . S
C729 C731 1.388 . S
C730 C729 1.366 . S
C730 C734 1.385 . S
C731 H706 0.951 . S
C731 C729 1.388 . S
C731 C732 1.366 . S
C732 C731 1.366 . S
C732 C733 1.414 . S
C732 C735 1.499 . S
C733 H707 0.950 . S
C733 C732 1.414 . S
C733 C734 1.374 . S
C734 H708 0.950 . S
C734 C730 1.385 . S
C734 C733 1.374 . S
C735 C732 1.499 . S
C735 C736 1.373 . S
C735 C737 1.389 . S
C736 H709 0.950 . S
C736 C722 1.377 . S
C736 C735 1.373 . S
C737 C721 1.377 . S
C737 C735 1.389 . S
C737 C738 1.524 . S
C738 C737 1.524 . S
C738 C739 1.397 . S
C738 C743 1.363 . S
C739 H710 0.950 . S
C739 C738 1.397 . S
C739 C740 1.334 . S
C740 H711 0.950 . S
C740 C739 1.334 . S
C740 C741 1.287 . S
C741 C740 1.287 . S
C741 C742 1.524 . S
C741 H744 0.999 . S
C742 H712 0.950 . S
C742 C741 1.524 . S
C742 C743 1.415 . S
C743 H713 0.950 . S
C743 C738 1.363 . S
C743 C742 1.415 . S
H744 C741 0.999 . S
H745 C726 0.913 . S
H746 C764 0.951 . S
H747 C766 0.951 . S
H748 C768 0.950 . S
H749 C769 0.950 . S
H750 C771 0.950 . S
H751 C774 0.950 . S
H752 C775 0.950 . S
H753 C777 0.950 . S
H754 C778 0.950 . S
H755 C779 0.951 . S
H756 C781 0.951 . S
H757 C783 0.950 . S
H758 C784 0.950 . S
H759 C786 0.950 . S
H760 C789 0.950 . S
H761 C790 0.950 . S
H762 C792 0.950 . S
H763 C793 0.950 . S
C764 H746 0.951 . S
C764 C765 1.366 . S
C764 C766 1.388 1_545 S
C765 C764 1.366 . S
C765 C769 1.385 1_545 S
C766 H747 0.951 . S
C766 C764 1.388 1_565 S
C766 C767 1.366 . S
C767 C766 1.366 . S
C767 C768 1.414 . S
C767 C770 1.499 . S
C768 H748 0.950 . S
C768 C767 1.414 . S
C768 C769 1.374 . S
C769 H749 0.950 . S
C769 C765 1.385 1_565 S
C769 C768 1.374 . S
C770 C767 1.499 . S
C770 C771 1.373 . S
C770 C772 1.389 . S
C771 H750 0.950 . S
C771 C770 1.373 . S
C771 C787 1.377 . S
C772 C770 1.389 . S
C772 C773 1.524 . S
C772 C786 1.377 . S
C773 C772 1.524 . S
C773 C774 1.397 . S
C773 C778 1.363 . S
C774 H751 0.950 . S
C774 C773 1.397 . S
C774 C775 1.334 . S
C775 H752 0.950 . S
C775 C774 1.334 . S
C775 C776 1.287 . S
C776 C775 1.287 . S
C776 C777 1.524 . S
C776 H795 0.913 . S
C777 H753 0.950 . S
C777 C776 1.524 . S
C777 C778 1.415 . S
C778 H754 0.950 . S
C778 C773 1.363 . S
C778 C777 1.415 . S
C779 H755 0.951 . S
C779 C780 1.366 . S
C779 C781 1.388 . S
C780 C779 1.366 . S
C780 C784 1.385 . S
C781 H756 0.951 . S
C781 C779 1.388 . S
C781 C782 1.366 . S
C782 C781 1.366 . S
C782 C783 1.414 . S
C782 C785 1.499 . S
C783 H757 0.950 . S
C783 C782 1.414 . S
C783 C784 1.374 . S
C784 H758 0.950 . S
C784 C780 1.385 . S
C784 C783 1.374 . S
C785 C782 1.499 . S
C785 C786 1.373 . S
C785 C787 1.389 . S
C786 H759 0.950 . S
C786 C772 1.377 . S
C786 C785 1.373 . S
C787 C771 1.377 . S
C787 C785 1.389 . S
C787 C788 1.524 . S
C788 C787 1.524 . S
C788 C789 1.397 . S
C788 C793 1.363 . S
C789 H760 0.950 . S
C789 C788 1.397 . S
C789 C790 1.334 . S
C790 H761 0.950 . S
C790 C789 1.334 . S
C790 C791 1.287 . S
C791 C790 1.287 . S
C791 C792 1.524 . S
C791 H794 0.999 . S
C792 H762 0.950 . S
C792 C791 1.524 . S
C792 C793 1.415 . S
C793 H763 0.950 . S
C793 C788 1.363 . S
C793 C792 1.415 . S
H794 C791 0.999 . S
H795 C776 0.913 . S
H796 C814 0.951 . S
H797 C816 0.951 . S
H798 C818 0.950 . S
H799 C819 0.950 . S
H800 C821 0.950 . S
H801 C824 0.950 . S
H802 C825 0.950 . S
H803 C827 0.950 . S
H804 C828 0.950 . S
H805 C829 0.951 . S
H806 C831 0.951 . S
H807 C833 0.950 . S
H808 C834 0.950 . S
H809 C836 0.950 . S
H810 C839 0.950 . S
H811 C840 0.950 . S
H812 C842 0.950 . S
H813 C843 0.950 . S
C814 H796 0.951 . S
C814 C815 1.366 1_565 S
C814 C816 1.388 . S
C815 C814 1.366 1_545 S
C815 C819 1.385 . S
C816 H797 0.951 . S
C816 C814 1.388 . S
C816 C817 1.366 . S
C817 C816 1.366 . S
C817 C818 1.414 . S
C817 C820 1.499 . S
C818 H798 0.950 . S
C818 C817 1.414 . S
C818 C819 1.374 1_565 S
C819 H799 0.950 . S
C819 C815 1.385 . S
C819 C818 1.374 1_545 S
C820 C817 1.499 . S
C820 C821 1.373 . S
C820 C822 1.389 . S
C821 H800 0.950 . S
C821 C820 1.373 . S
C821 C837 1.377 . S
C822 C820 1.389 . S
C822 C823 1.524 . S
C822 C836 1.377 . S
C823 C822 1.524 . S
C823 C824 1.397 . S
C823 C828 1.363 . S
C824 H801 0.950 . S
C824 C823 1.397 . S
C824 C825 1.334 . S
C825 H802 0.950 . S
C825 C824 1.334 . S
C825 C826 1.287 . S
C826 C825 1.287 . S
C826 C827 1.524 . S
C826 H845 0.913 . S
C827 H803 0.950 . S
C827 C826 1.524 . S
C827 C828 1.415 . S
C828 H804 0.950 . S
C828 C823 1.363 . S
C828 C827 1.415 . S
C829 H805 0.951 . S
C829 C830 1.366 . S
C829 C831 1.388 . S
C830 C829 1.366 . S
C830 C834 1.385 . S
C831 H806 0.951 . S
C831 C829 1.388 . S
C831 C832 1.366 . S
C832 C831 1.366 . S
C832 C833 1.414 . S
C832 C835 1.499 . S
C833 H807 0.950 . S
C833 C832 1.414 . S
C833 C834 1.374 . S
C834 H808 0.950 . S
C834 C830 1.385 . S
C834 C833 1.374 . S
C835 C832 1.499 . S
C835 C836 1.373 . S
C835 C837 1.389 . S
C836 H809 0.950 . S
C836 C822 1.377 . S
C836 C835 1.373 . S
C837 C821 1.377 . S
C837 C835 1.389 . S
C837 C838 1.524 . S
C838 C837 1.524 . S
C838 C839 1.397 . S
C838 C843 1.363 . S
C839 H810 0.950 . S
C839 C838 1.397 . S
C839 C840 1.334 . S
C840 H811 0.950 . S
C840 C839 1.334 . S
C840 C841 1.287 . S
C841 C840 1.287 . S
C841 C842 1.524 . S
C841 H844 0.999 . S
C842 H812 0.950 . S
C842 C841 1.524 . S
C842 C843 1.415 . S
C843 H813 0.950 . S
C843 C838 1.363 . S
C843 C842 1.415 . S
H844 C841 0.999 . S
H845 C826 0.913 . S
H846 C864 0.951 . S
H847 C866 0.951 . S
H848 C868 0.950 . S
H849 C869 0.950 . S
H850 C871 0.950 . S
H851 C874 0.950 . S
H852 C875 0.950 . S
H853 C877 0.950 . S
H854 C878 0.950 . S
H855 C879 0.951 . S
H856 C881 0.951 . S
H857 C883 0.950 . S
H858 C884 0.950 . S
H859 C886 0.950 . S
H860 C889 0.950 . S
H861 C890 0.950 . S
H862 C892 0.950 . S
H863 C893 0.950 . S
C864 H846 0.951 . S
C864 C865 1.366 . S
C864 C866 1.388 . S
C865 C864 1.366 . S
C865 C869 1.385 . S
C866 H847 0.951 . S
C866 C864 1.388 . S
C866 C867 1.366 . S
C867 C866 1.366 . S
C867 C868 1.414 . S
C867 C870 1.499 . S
C868 H848 0.950 . S
C868 C867 1.414 . S
C868 C869 1.374 . S
C869 H849 0.950 . S
C869 C865 1.385 . S
C869 C868 1.374 . S
C870 C867 1.499 . S
C870 C871 1.373 . S
C870 C872 1.389 . S
C871 H850 0.950 . S
C871 C870 1.373 . S
C871 C887 1.377 . S
C872 C870 1.389 . S
C872 C873 1.524 . S
C872 C886 1.377 . S
C873 C872 1.524 . S
C873 C874 1.397 . S
C873 C878 1.363 . S
C874 H851 0.950 . S
C874 C873 1.397 . S
C874 C875 1.334 . S
C875 H852 0.950 . S
C875 C874 1.334 . S
C875 C876 1.287 . S
C876 C875 1.287 . S
C876 C877 1.524 . S
C876 H895 0.913 . S
C877 H853 0.950 . S
C877 C876 1.524 . S
C877 C878 1.415 . S
C878 H854 0.950 . S
C878 C873 1.363 . S
C878 C877 1.415 . S
C879 H855 0.951 . S
C879 C880 1.366 . S
C879 C881 1.388 . S
C880 C879 1.366 . S
C880 C884 1.385 . S
C881 H856 0.951 . S
C881 C879 1.388 . S
C881 C882 1.366 . S
C882 C881 1.366 . S
C882 C883 1.414 . S
C882 C885 1.499 . S
C883 H857 0.950 . S
C883 C882 1.414 . S
C883 C884 1.374 . S
C884 H858 0.950 . S
C884 C880 1.385 . S
C884 C883 1.374 . S
C885 C882 1.499 . S
C885 C886 1.373 . S
C885 C887 1.389 . S
C886 H859 0.950 . S
C886 C872 1.377 . S
C886 C885 1.373 . S
C887 C871 1.377 . S
C887 C885 1.389 . S
C887 C888 1.524 . S
C888 C887 1.524 . S
C888 C889 1.397 . S
C888 C893 1.363 . S
C889 H860 0.950 . S
C889 C888 1.397 . S
C889 C890 1.334 . S
C890 H861 0.950 . S
C890 C889 1.334 . S
C890 C891 1.287 . S
C891 C890 1.287 . S
C891 C892 1.524 . S
C891 H894 0.999 . S
C892 H862 0.950 . S
C892 C891 1.524 . S
C892 C893 1.415 . S
C893 H863 0.950 . S
C893 C888 1.363 . S
C893 C892 1.415 . S
H894 C891 0.999 . S
H895 C876 0.913 . S
H896 C914 0.951 . S
H897 C916 0.951 . S
H898 C918 0.950 . S
H899 C919 0.950 . S
H900 C921 0.950 . S
H901 C924 0.950 . S
H902 C925 0.950 . S
H903 C927 0.950 . S
H904 C928 0.950 . S
H905 C929 0.951 . S
H906 C931 0.951 . S
H907 C933 0.950 . S
H908 C934 0.950 . S
H909 C936 0.950 . S
H910 C939 0.950 . S
H911 C940 0.950 . S
H912 C942 0.950 . S
H913 C943 0.950 . S
C914 H896 0.951 . S
C914 C915 1.366 . S
C914 C916 1.388 . S
C915 C914 1.366 . S
C915 C919 1.385 . S
C916 H897 0.951 . S
C916 C914 1.388 . S
C916 C917 1.366 . S
C917 C916 1.366 . S
C917 C918 1.414 . S
C917 C920 1.499 . S
C918 H898 0.950 . S
C918 C917 1.414 . S
C918 C919 1.374 . S
C919 H899 0.950 . S
C919 C915 1.385 . S
C919 C918 1.374 . S
C920 C917 1.499 . S
C920 C921 1.373 . S
C920 C922 1.389 . S
C921 H900 0.950 . S
C921 C920 1.373 . S
C921 C937 1.377 . S
C922 C920 1.389 . S
C922 C923 1.524 . S
C922 C936 1.377 . S
C923 C922 1.524 . S
C923 C924 1.397 . S
C923 C928 1.363 . S
C924 H901 0.950 . S
C924 C923 1.397 . S
C924 C925 1.334 . S
C925 H902 0.950 . S
C925 C924 1.334 . S
C925 C926 1.287 . S
C926 C925 1.287 . S
C926 C927 1.524 . S
C926 H945 0.913 . S
C927 H903 0.950 . S
C927 C926 1.524 . S
C927 C928 1.415 . S
C928 H904 0.950 . S
C928 C923 1.363 . S
C928 C927 1.415 . S
C929 H905 0.951 . S
C929 C930 1.366 . S
C929 C931 1.388 . S
C930 C929 1.366 . S
C930 C934 1.385 . S
C931 H906 0.951 . S
C931 C929 1.388 . S
C931 C932 1.366 . S
C932 C931 1.366 . S
C932 C933 1.414 . S
C932 C935 1.499 . S
C933 H907 0.950 . S
C933 C932 1.414 . S
C933 C934 1.374 . S
C934 H908 0.950 . S
C934 C930 1.385 . S
C934 C933 1.374 . S
C935 C932 1.499 . S
C935 C936 1.373 . S
C935 C937 1.389 . S
C936 H909 0.950 . S
C936 C922 1.377 . S
C936 C935 1.373 . S
C937 C921 1.377 . S
C937 C935 1.389 . S
C937 C938 1.524 . S
C938 C937 1.524 . S
C938 C939 1.397 . S
C938 C943 1.363 . S
C939 H910 0.950 . S
C939 C938 1.397 . S
C939 C940 1.334 . S
C940 H911 0.950 . S
C940 C939 1.334 . S
C940 C941 1.287 . S
C941 C940 1.287 . S
C941 C942 1.524 . S
C941 H944 0.999 . S
C942 H912 0.950 . S
C942 C941 1.524 . S
C942 C943 1.415 . S
C943 H913 0.950 . S
C943 C938 1.363 . S
C943 C942 1.415 . S
H944 C941 0.999 . S
H945 C926 0.913 . S
H946 C964 0.951 1_545 S
H947 C966 0.951 . S
H948 C968 0.950 . S
H949 C969 0.950 . S
H950 C971 0.950 . S
H951 C974 0.950 . S
H952 C975 0.950 . S
H953 C977 0.950 . S
H954 C978 0.950 . S
H955 C979 0.951 . S
H956 C981 0.951 . S
H957 C983 0.950 . S
H958 C984 0.950 . S
H959 C986 0.950 . S
H960 C989 0.950 . S
H961 C990 0.950 . S
H962 C992 0.950 . S
H963 C993 0.950 . S
C964 H946 0.951 1_565 S
C964 C965 1.367 . S
C964 C966 1.388 . S
C965 C964 1.367 . S
C965 C969 1.404 . S
C966 H947 0.951 . S
C966 C964 1.388 . S
C966 C967 1.366 . S
C967 C966 1.366 . S
C967 C968 1.414 . S
C967 C970 1.499 . S
C968 H948 0.950 . S
C968 C967 1.414 . S
C968 C969 1.374 . S
C969 H949 0.950 . S
C969 C965 1.404 . S
C969 C968 1.374 . S
C970 C967 1.499 . S
C970 C971 1.373 . S
C970 C972 1.389 . S
C971 H950 0.950 . S
C971 C970 1.373 . S
C971 C987 1.377 . S
C972 C970 1.389 . S
C972 C973 1.524 . S
C972 C986 1.377 . S
C973 C972 1.524 . S
C973 C974 1.397 . S
C973 C978 1.363 . S
C974 H951 0.950 . S
C974 C973 1.397 . S
C974 C975 1.334 1_565 S
C975 H952 0.950 . S
C975 C974 1.334 1_545 S
C975 C976 1.287 . S
C976 C975 1.287 . S
C976 C977 1.524 . S
C976 H995 0.913 . S
C977 H953 0.950 . S
C977 C976 1.524 . S
C977 C978 1.415 1_545 S
C978 H954 0.950 . S
C978 C973 1.363 . S
C978 C977 1.415 1_565 S
C979 H955 0.951 . S
C979 C980 1.366 . S
C979 C981 1.388 . S
C980 C979 1.366 . S
C980 C984 1.385 . S
C981 H956 0.951 . S
C981 C979 1.388 . S
C981 C982 1.366 . S
C982 C981 1.366 . S
C982 C983 1.414 . S
C982 C985 1.499 . S
C983 H957 0.950 . S
C983 C982 1.414 . S
C983 C984 1.374 . S
C984 H958 0.950 . S
C984 C980 1.385 . S
C984 C983 1.374 . S
C985 C982 1.499 . S
C985 C986 1.373 . S
C985 C987 1.389 . S
C986 H959 0.950 . S
C986 C972 1.377 . S
C986 C985 1.373 . S
C987 C971 1.377 . S
C987 C985 1.389 . S
C987 C988 1.524 . S
C988 C987 1.524 . S
C988 C989 1.397 . S
C988 C993 1.363 . S
C989 H960 0.950 . S
C989 C988 1.397 . S
C989 C990 1.334 . S
C990 H961 0.950 . S
C990 C989 1.334 . S
C990 C991 1.287 . S
C991 C990 1.287 . S
C991 C992 1.524 . S
C991 H994 0.999 . S
C992 H962 0.950 . S
C992 C991 1.524 . S
C992 C993 1.415 . S
C993 H963 0.950 . S
C993 C988 1.363 . S
C993 C992 1.415 . S
H994 C991 0.999 . S
H995 C976 0.913 . S
H996 C1014 0.951 . S
H997 C1016 0.951 . S
H998 C1018 0.950 . S
H999 C1019 0.950 . S
H1000 C1021 0.950 . S
H1001 C1024 0.950 . S
H1002 C1025 0.950 . S
H1003 C1027 0.950 . S
H1004 C1028 0.950 . S
H1005 C1029 0.951 . S
H1006 C1031 0.951 . S
H1007 C1033 0.950 . S
H1008 C1034 0.950 . S
H1009 C1036 0.950 . S
H1010 C1039 0.950 . S
H1011 C1040 0.950 . S
H1012 C1042 0.950 . S
H1013 C1043 0.950 . S
C1014 H996 0.951 . S
C1014 C1015 1.366 . S
C1014 C1016 1.388 . S
C1015 C1014 1.366 . S
C1015 C1019 1.385 . S
C1016 H997 0.951 . S
C1016 C1014 1.388 . S
C1016 C1017 1.366 . S
C1017 C1016 1.366 . S
C1017 C1018 1.414 . S
C1017 C1020 1.499 . S
C1018 H998 0.950 . S
C1018 C1017 1.414 . S
C1018 C1019 1.374 . S
C1019 H999 0.950 . S
C1019 C1015 1.385 . S
C1019 C1018 1.374 . S
C1020 C1017 1.499 . S
C1020 C1021 1.373 . S
C1020 C1022 1.389 . S
C1021 H1000 0.950 . S
C1021 C1020 1.373 . S
C1021 C1037 1.377 . S
C1022 C1020 1.389 . S
C1022 C1023 1.524 . S
C1022 C1036 1.377 . S
C1023 C1022 1.524 . S
C1023 C1024 1.397 . S
C1023 C1028 1.363 . S
C1024 H1001 0.950 . S
C1024 C1023 1.397 . S
C1024 C1025 1.334 . S
C1025 H1002 0.950 . S
C1025 C1024 1.334 . S
C1025 C1026 1.287 . S
C1026 C1025 1.287 . S
C1026 C1027 1.524 . S
C1026 H1045 0.913 . S
C1027 H1003 0.950 . S
C1027 C1026 1.524 . S
C1027 C1028 1.415 . S
C1028 H1004 0.950 . S
C1028 C1023 1.363 . S
C1028 C1027 1.415 . S
C1029 H1005 0.951 . S
C1029 C1030 1.366 . S
C1029 C1031 1.388 . S
C1030 C1029 1.366 . S
C1030 C1034 1.385 . S
C1031 H1006 0.951 . S
C1031 C1029 1.388 . S
C1031 C1032 1.366 . S
C1032 C1031 1.366 . S
C1032 C1033 1.414 . S
C1032 C1035 1.499 . S
C1033 H1007 0.950 . S
C1033 C1032 1.414 . S
C1033 C1034 1.374 . S
C1034 H1008 0.950 . S
C1034 C1030 1.385 . S
C1034 C1033 1.374 . S
C1035 C1032 1.499 . S
C1035 C1036 1.373 . S
C1035 C1037 1.389 . S
C1036 H1009 0.950 . S
C1036 C1022 1.377 . S
C1036 C1035 1.373 . S
C1037 C1021 1.377 . S
C1037 C1035 1.389 . S
C1037 C1038 1.524 . S
C1038 C1037 1.524 . S
C1038 C1039 1.397 . S
C1038 C1043 1.363 . S
C1039 H1010 0.950 . S
C1039 C1038 1.397 . S
C1039 C1040 1.334 . S
C1040 H1011 0.950 . S
C1040 C1039 1.334 . S
C1040 C1041 1.287 . S
C1041 C1040 1.287 . S
C1041 C1042 1.524 . S
C1041 H1044 0.999 . S
C1042 H1012 0.950 . S
C1042 C1041 1.524 . S
C1042 C1043 1.415 . S
C1043 H1013 0.950 . S
C1043 C1038 1.363 . S
C1043 C1042 1.415 . S
H1044 C1041 0.999 . S
H1045 C1026 0.913 . S
H1046 C1064 0.951 . S
H1047 C1066 0.951 . S
H1048 C1068 0.950 . S
H1049 C1069 0.950 . S
H1050 C1071 0.950 . S
H1051 C1074 0.950 . S
H1052 C1075 0.950 . S
H1053 C1077 0.950 . S
H1054 C1078 0.950 . S
H1055 C1079 0.951 . S
H1056 C1081 0.951 . S
H1057 C1083 0.950 . S
H1058 C1084 0.950 . S
H1059 C1086 0.950 . S
H1060 C1089 0.950 . S
H1061 C1090 0.950 . S
H1062 C1092 0.950 . S
H1063 C1093 0.950 . S
C1064 H1046 0.951 . S
C1064 C1065 1.366 . S
C1064 C1066 1.388 . S
C1065 C1064 1.366 . S
C1065 C1069 1.385 . S
C1066 H1047 0.951 . S
C1066 C1064 1.388 . S
C1066 C1067 1.366 . S
C1067 C1066 1.366 . S
C1067 C1068 1.414 . S
C1067 C1070 1.499 . S
C1068 H1048 0.950 . S
C1068 C1067 1.414 . S
C1068 C1069 1.374 . S
C1069 H1049 0.950 . S
C1069 C1065 1.385 . S
C1069 C1068 1.374 . S
C1070 C1067 1.499 . S
C1070 C1071 1.373 . S
C1070 C1072 1.389 . S
C1071 H1050 0.950 . S
C1071 C1070 1.373 . S
C1071 C1087 1.377 . S
C1072 C1070 1.389 . S
C1072 C1073 1.524 . S
C1072 C1086 1.377 . S
C1073 C1072 1.524 . S
C1073 C1074 1.397 . S
C1073 C1078 1.363 . S
C1074 H1051 0.950 . S
C1074 C1073 1.397 . S
C1074 C1075 1.334 . S
C1075 H1052 0.950 . S
C1075 C1074 1.334 . S
C1075 C1076 1.287 . S
C1076 C1075 1.287 . S
C1076 C1077 1.524 . S
C1076 H1095 0.913 . S
C1077 H1053 0.950 . S
C1077 C1076 1.524 . S
C1077 C1078 1.415 . S
C1078 H1054 0.950 . S
C1078 C1073 1.363 . S
C1078 C1077 1.415 . S
C1079 H1055 0.951 . S
C1079 C1080 1.366 . S
C1079 C1081 1.388 . S
C1080 C1079 1.366 . S
C1080 C1084 1.385 . S
C1081 H1056 0.951 . S
C1081 C1079 1.388 . S
C1081 C1082 1.366 . S
C1082 C1081 1.366 . S
C1082 C1083 1.414 . S
C1082 C1085 1.499 . S
C1083 H1057 0.950 . S
C1083 C1082 1.414 . S
C1083 C1084 1.374 . S
C1084 H1058 0.950 . S
C1084 C1080 1.385 . S
C1084 C1083 1.374 . S
C1085 C1082 1.499 . S
C1085 C1086 1.373 . S
C1085 C1087 1.389 . S
C1086 H1059 0.950 . S
C1086 C1072 1.377 . S
C1086 C1085 1.373 . S
C1087 C1071 1.377 . S
C1087 C1085 1.389 . S
C1087 C1088 1.524 . S
C1088 C1087 1.524 . S
C1088 C1089 1.397 . S
C1088 C1093 1.363 . S
C1089 H1060 0.950 . S
C1089 C1088 1.397 . S
C1089 C1090 1.334 . S
C1090 H1061 0.950 . S
C1090 C1089 1.334 . S
C1090 C1091 1.287 . S
C1091 C1090 1.287 . S
C1091 C1092 1.524 . S
C1091 H1094 0.999 . S
C1092 H1062 0.950 . S
C1092 C1091 1.524 . S
C1092 C1093 1.415 . S
C1093 H1063 0.950 . S
C1093 C1088 1.363 . S
C1093 C1092 1.415 . S
H1094 C1091 0.999 . S
H1095 C1076 0.913 . S
H1096 C1114 0.951 . S
H1097 C1116 0.951 . S
H1098 C1118 0.950 . S
H1099 C1119 0.950 . S
H1100 C1121 0.950 . S
H1101 C1124 0.950 . S
H1102 C1125 0.950 . S
H1103 C1127 0.950 . S
H1104 C1128 0.950 . S
H1105 C1129 0.951 . S
H1106 C1131 0.951 . S
H1107 C1133 0.950 . S
H1108 C1134 0.950 . S
H1109 C1136 0.950 . S
H1110 C1139 0.950 . S
H1111 C1140 0.950 . S
H1112 C1142 0.950 . S
H1113 C1143 0.950 . S
C1114 H1096 0.951 . S
C1114 C1115 1.366 . S
C1114 C1116 1.388 1_545 S
C1115 C1114 1.366 . S
C1115 C1119 1.385 1_545 S
C1116 H1097 0.951 . S
C1116 C1114 1.388 1_565 S
C1116 C1117 1.366 . S
C1117 C1116 1.366 . S
C1117 C1118 1.414 . S
C1117 C1120 1.499 . S
C1118 H1098 0.950 . S
C1118 C1117 1.414 . S
C1118 C1119 1.374 . S
C1119 H1099 0.950 . S
C1119 C1115 1.385 1_565 S
C1119 C1118 1.374 . S
C1120 C1117 1.499 . S
C1120 C1121 1.373 . S
C1120 C1122 1.389 . S
C1121 H1100 0.950 . S
C1121 C1120 1.373 . S
C1121 C1137 1.377 . S
C1122 C1120 1.389 . S
C1122 C1123 1.524 . S
C1122 C1136 1.377 . S
C1123 C1122 1.524 . S
C1123 C1124 1.397 . S
C1123 C1128 1.363 . S
C1124 H1101 0.950 . S
C1124 C1123 1.397 . S
C1124 C1125 1.334 1_565 S
C1125 H1102 0.950 . S
C1125 C1124 1.334 1_545 S
C1125 C1126 1.287 . S
C1126 C1125 1.287 . S
C1126 C1127 1.524 . S
C1126 H1145 0.913 . S
C1127 H1103 0.950 . S
C1127 C1126 1.524 . S
C1127 C1128 1.415 1_545 S
C1128 H1104 0.950 . S
C1128 C1123 1.363 . S
C1128 C1127 1.415 1_565 S
C1129 H1105 0.951 . S
C1129 C1130 1.366 . S
C1129 C1131 1.388 . S
C1130 C1129 1.366 . S
C1130 C1134 1.385 . S
C1131 H1106 0.951 . S
C1131 C1129 1.388 . S
C1131 C1132 1.366 . S
C1132 C1131 1.366 . S
C1132 C1133 1.414 . S
C1132 C1135 1.499 . S
C1133 H1107 0.950 . S
C1133 C1132 1.414 . S
C1133 C1134 1.374 . S
C1134 H1108 0.950 . S
C1134 C1130 1.385 . S
C1134 C1133 1.374 . S
C1135 C1132 1.499 . S
C1135 C1136 1.373 . S
C1135 C1137 1.389 . S
C1136 H1109 0.950 . S
C1136 C1122 1.377 . S
C1136 C1135 1.373 . S
C1137 C1121 1.377 . S
C1137 C1135 1.389 . S
C1137 C1138 1.524 . S
C1138 C1137 1.524 . S
C1138 C1139 1.397 . S
C1138 C1143 1.363 . S
C1139 H1110 0.950 . S
C1139 C1138 1.397 . S
C1139 C1140 1.334 . S
C1140 H1111 0.950 . S
C1140 C1139 1.334 . S
C1140 C1141 1.287 . S
C1141 C1140 1.287 . S
C1141 C1142 1.524 . S
C1141 H1144 0.999 . S
C1142 H1112 0.950 . S
C1142 C1141 1.524 . S
C1142 C1143 1.415 . S
C1143 H1113 0.950 . S
C1143 C1138 1.363 . S
C1143 C1142 1.415 . S
H1144 C1141 0.999 . S
H1145 C1126 0.913 . S
H1146 C1164 0.951 . S
H1147 C1166 0.951 . S
H1148 C1168 0.950 . S
H1149 C1169 0.950 . S
H1150 C1171 0.950 . S
H1151 C1174 0.950 . S
H1152 C1175 0.950 . S
H1153 C1177 0.950 . S
H1154 C1178 0.950 . S
H1155 C1179 0.951 . S
H1156 C1181 0.951 . S
H1157 C1183 0.950 . S
H1158 C1184 0.950 . S
H1159 C1186 0.950 . S
H1160 C1189 0.950 . S
H1161 C1190 0.950 . S
H1162 C1192 0.950 . S
H1163 C1193 0.950 . S
C1164 H1146 0.951 . S
C1164 C1165 1.366 . S
C1164 C1166 1.388 . S
C1165 C1164 1.366 . S
C1165 C1169 1.385 . S
C1166 H1147 0.951 . S
C1166 C1164 1.388 . S
C1166 C1167 1.366 . S
C1167 C1166 1.366 . S
C1167 C1168 1.414 . S
C1167 C1170 1.499 . S
C1168 H1148 0.950 . S
C1168 C1167 1.414 . S
C1168 C1169 1.374 . S
C1169 H1149 0.950 . S
C1169 C1165 1.385 . S
C1169 C1168 1.374 . S
C1170 C1167 1.499 . S
C1170 C1171 1.373 . S
C1170 C1172 1.389 . S
C1171 H1150 0.950 . S
C1171 C1170 1.373 . S
C1171 C1187 1.377 . S
C1172 C1170 1.389 . S
C1172 C1173 1.524 . S
C1172 C1186 1.377 . S
C1173 C1172 1.524 . S
C1173 C1174 1.397 . S
C1173 C1178 1.363 . S
C1174 H1151 0.950 . S
C1174 C1173 1.397 . S
C1174 C1175 1.334 . S
C1175 H1152 0.950 . S
C1175 C1174 1.334 . S
C1175 C1176 1.287 . S
C1176 C1175 1.287 . S
C1176 C1177 1.524 . S
C1176 H1195 0.913 . S
C1177 H1153 0.950 . S
C1177 C1176 1.524 . S
C1177 C1178 1.415 . S
C1178 H1154 0.950 . S
C1178 C1173 1.363 . S
C1178 C1177 1.415 . S
C1179 H1155 0.951 . S
C1179 C1180 1.366 . S
C1179 C1181 1.388 . S
C1180 C1179 1.366 . S
C1180 C1184 1.385 . S
C1181 H1156 0.951 . S
C1181 C1179 1.388 . S
C1181 C1182 1.366 . S
C1182 C1181 1.366 . S
C1182 C1183 1.414 . S
C1182 C1185 1.499 . S
C1183 H1157 0.950 . S
C1183 C1182 1.414 . S
C1183 C1184 1.374 . S
C1184 H1158 0.950 . S
C1184 C1180 1.385 . S
C1184 C1183 1.374 . S
C1185 C1182 1.499 . S
C1185 C1186 1.373 . S
C1185 C1187 1.389 . S
C1186 H1159 0.950 . S
C1186 C1172 1.377 . S
C1186 C1185 1.373 . S
C1187 C1171 1.377 . S
C1187 C1185 1.389 . S
C1187 C1188 1.524 . S
C1188 C1187 1.524 . S
C1188 C1189 1.397 . S
C1188 C1193 1.363 . S
C1189 H1160 0.950 . S
C1189 C1188 1.397 . S
C1189 C1190 1.334 . S
C1190 H1161 0.950 . S
C1190 C1189 1.334 . S
C1190 C1191 1.287 . S
C1191 C1190 1.287 . S
C1191 C1192 1.524 . S
C1191 H1194 0.999 . S
C1192 H1162 0.950 . S
C1192 C1191 1.524 . S
C1192 C1193 1.415 . S
C1193 H1163 0.950 . S
C1193 C1188 1.363 . S
C1193 C1192 1.415 . S
H1194 C1191 0.999 . S
H1195 C1176 0.913 . S
H1196 C1214 0.951 . S
H1197 C1216 0.951 . S
H1198 C1218 0.950 . S
H1199 C1219 0.950 . S
H1200 C1221 0.950 . S
H1201 C1224 0.950 . S
H1202 C1225 0.950 . S
H1203 C1227 0.950 . S
H1204 C1228 0.950 . S
H1205 C1229 0.951 . S
H1206 C1231 0.951 . S
H1207 C1233 0.950 . S
H1208 C1234 0.950 . S
H1209 C1236 0.950 . S
H1210 C1239 0.950 . S
H1211 C1240 0.950 . S
H1212 C1242 0.950 . S
H1213 C1243 0.950 . S
C1214 H1196 0.951 . S
C1214 C1215 1.366 . S
C1214 C1216 1.388 . S
C1215 C1214 1.366 . S
C1215 C1219 1.385 . S
C1216 H1197 0.951 . S
C1216 C1214 1.388 . S
C1216 C1217 1.366 . S
C1217 C1216 1.366 . S
C1217 C1218 1.414 . S
C1217 C1220 1.499 . S
C1218 H1198 0.950 . S
C1218 C1217 1.414 . S
C1218 C1219 1.374 . S
C1219 H1199 0.950 . S
C1219 C1215 1.385 . S
C1219 C1218 1.374 . S
C1220 C1217 1.499 . S
C1220 C1221 1.373 . S
C1220 C1222 1.389 . S
C1221 H1200 0.950 . S
C1221 C1220 1.373 . S
C1221 C1237 1.377 . S
C1222 C1220 1.389 . S
C1222 C1223 1.524 . S
C1222 C1236 1.377 . S
C1223 C1222 1.524 . S
C1223 C1224 1.397 . S
C1223 C1228 1.363 . S
C1224 H1201 0.950 . S
C1224 C1223 1.397 . S
C1224 C1225 1.334 . S
C1225 H1202 0.950 . S
C1225 C1224 1.334 . S
C1225 C1226 1.287 . S
C1226 C1225 1.287 . S
C1226 C1227 1.524 . S
C1226 H1245 0.913 . S
C1227 H1203 0.950 . S
C1227 C1226 1.524 . S
C1227 C1228 1.415 . S
C1228 H1204 0.950 . S
C1228 C1223 1.363 . S
C1228 C1227 1.415 . S
C1229 H1205 0.951 . S
C1229 C1230 1.366 . S
C1229 C1231 1.388 . S
C1230 C1229 1.366 . S
C1230 C1234 1.385 . S
C1231 H1206 0.951 . S
C1231 C1229 1.388 . S
C1231 C1232 1.366 . S
C1232 C1231 1.366 . S
C1232 C1233 1.414 . S
C1232 C1235 1.499 . S
C1233 H1207 0.950 . S
C1233 C1232 1.414 . S
C1233 C1234 1.374 . S
C1234 H1208 0.950 . S
C1234 C1230 1.385 . S
C1234 C1233 1.374 . S
C1235 C1232 1.499 . S
C1235 C1236 1.373 . S
C1235 C1237 1.389 . S
C1236 H1209 0.950 . S
C1236 C1222 1.377 . S
C1236 C1235 1.373 . S
C1237 C1221 1.377 . S
C1237 C1235 1.389 . S
C1237 C1238 1.524 . S
C1238 C1237 1.524 . S
C1238 C1239 1.397 . S
C1238 C1243 1.363 . S
C1239 H1210 0.950 . S
C1239 C1238 1.397 . S
C1239 C1240 1.334 . S
C1240 H1211 0.950 . S
C1240 C1239 1.334 . S
C1240 C1241 1.287 . S
C1241 C1240 1.287 . S
C1241 C1242 1.524 . S
C1241 H1244 0.999 . S
C1242 H1212 0.950 . S
C1242 C1241 1.524 . S
C1242 C1243 1.415 . S
C1243 H1213 0.950 . S
C1243 C1238 1.363 . S
C1243 C1242 1.415 . S
H1244 C1241 0.999 . S
H1245 C1226 0.913 . S
H1246 C1264 0.951 . S
H1247 C1266 0.951 . S
H1248 C1268 0.950 . S
H1249 C1269 0.950 . S
H1250 C1271 0.950 . S
H1251 C1274 0.950 . S
H1252 C1275 0.950 . S
H1253 C1277 0.950 . S
H1254 C1278 0.950 . S
H1255 C1279 0.951 . S
H1256 C1281 0.951 . S
H1257 C1283 0.950 . S
H1258 C1284 0.950 . S
H1259 C1286 0.950 . S
H1260 C1289 0.950 . S
H1261 C1290 0.950 . S
H1262 C1292 0.950 . S
H1263 C1293 0.950 . S
C1264 H1246 0.951 . S
C1264 C1265 1.366 . S
C1264 C1266 1.388 . S
C1265 C1264 1.366 . S
C1265 C1269 1.385 . S
C1266 H1247 0.951 . S
C1266 C1264 1.388 . S
C1266 C1267 1.366 . S
C1267 C1266 1.366 . S
C1267 C1268 1.414 . S
C1267 C1270 1.499 . S
C1268 H1248 0.950 . S
C1268 C1267 1.414 . S
C1268 C1269 1.374 . S
C1269 H1249 0.950 . S
C1269 C1265 1.385 . S
C1269 C1268 1.374 . S
C1270 C1267 1.499 . S
C1270 C1271 1.373 . S
C1270 C1272 1.389 . S
C1271 H1250 0.950 . S
C1271 C1270 1.373 . S
C1271 C1287 1.377 . S
C1272 C1270 1.389 . S
C1272 C1273 1.524 . S
C1272 C1286 1.377 . S
C1273 C1272 1.524 . S
C1273 C1274 1.397 . S
C1273 C1278 1.363 . S
C1274 H1251 0.950 . S
C1274 C1273 1.397 . S
C1274 C1275 1.334 . S
C1275 H1252 0.950 . S
C1275 C1274 1.334 . S
C1275 C1276 1.287 . S
C1276 C1275 1.287 . S
C1276 C1277 1.524 . S
C1276 H1295 0.913 . S
C1277 H1253 0.950 . S
C1277 C1276 1.524 . S
C1277 C1278 1.415 . S
C1278 H1254 0.950 . S
C1278 C1273 1.363 . S
C1278 C1277 1.415 . S
C1279 H1255 0.951 . S
C1279 C1280 1.366 . S
C1279 C1281 1.388 . S
C1280 C1279 1.366 . S
C1280 C1284 1.385 . S
C1281 H1256 0.951 . S
C1281 C1279 1.388 . S
C1281 C1282 1.366 . S
C1282 C1281 1.366 . S
C1282 C1283 1.414 . S
C1282 C1285 1.499 . S
C1283 H1257 0.950 . S
C1283 C1282 1.414 . S
C1283 C1284 1.374 . S
C1284 H1258 0.950 . S
C1284 C1280 1.385 . S
C1284 C1283 1.374 . S
C1285 C1282 1.499 . S
C1285 C1286 1.373 . S
C1285 C1287 1.389 . S
C1286 H1259 0.950 . S
C1286 C1272 1.377 . S
C1286 C1285 1.373 . S
C1287 C1271 1.377 . S
C1287 C1285 1.389 . S
C1287 C1288 1.524 . S
C1288 C1287 1.524 . S
C1288 C1289 1.397 . S
C1288 C1293 1.363 . S
C1289 H1260 0.950 . S
C1289 C1288 1.397 . S
C1289 C1290 1.334 . S
C1290 H1261 0.950 . S
C1290 C1289 1.334 . S
C1290 C1291 1.287 . S
C1291 C1290 1.287 . S
C1291 C1292 1.524 . S
C1291 H1294 0.999 . S
C1292 H1262 0.950 . S
C1292 C1291 1.524 . S
C1292 C1293 1.415 . S
C1293 H1263 0.950 . S
C1293 C1288 1.363 . S
C1293 C1292 1.415 . S
H1294 C1291 0.999 . S
H1295 C1276 0.913 . S
H1296 C1314 0.951 . S
H1297 C1316 0.951 . S
H1298 C1318 0.950 . S
H1299 C1319 0.950 . S
H1300 C1321 0.950 1_554 S
H1301 C1324 0.950 . S
H1302 C1325 0.950 . S
H1303 C1327 0.950 . S
H1304 C1328 0.950 . S
H1305 C1329 0.951 . S
H1306 C1331 0.951 . S
H1307 C1333 0.950 . S
H1308 C1334 0.950 . S
H1309 C1336 0.950 . S
H1310 C1339 0.950 . S
H1311 C1340 0.950 . S
H1312 C1342 0.948 1_554 S
H1313 C1343 0.950 . S
C1314 H1296 0.951 . S
C1314 C1315 1.366 . S
C1314 C1316 1.388 . S
C1315 C1314 1.366 . S
C1315 C1319 1.385 . S
C1316 H1297 0.951 . S
C1316 C1314 1.388 . S
C1316 C1317 1.366 . S
C1317 C1316 1.366 . S
C1317 C1318 1.414 . S
C1317 C1320 1.499 1_554 S
C1318 H1298 0.950 . S
C1318 C1317 1.414 . S
C1318 C1319 1.374 . S
C1319 H1299 0.950 . S
C1319 C1315 1.385 . S
C1319 C1318 1.374 . S
C1320 C1317 1.499 1_556 S
C1320 C1321 1.373 . S
C1320 C1322 1.389 . S
C1321 H1300 0.950 1_556 S
C1321 C1320 1.373 . S
C1321 C1337 1.377 . S
C1322 C1320 1.389 . S
C1322 C1323 1.524 . S
C1322 C1336 1.377 . S
C1323 C1322 1.524 . S
C1323 C1324 1.397 . S
C1323 C1328 1.363 . S
C1324 H1301 0.950 . S
C1324 C1323 1.397 . S
C1324 C1325 1.334 . S
C1325 H1302 0.950 . S
C1325 C1324 1.334 . S
C1325 C1326 1.287 . S
C1326 C1325 1.287 . S
C1326 C1327 1.524 . S
C1326 H1345 0.913 . S
C1327 H1303 0.950 . S
C1327 C1326 1.524 . S
C1327 C1328 1.415 . S
C1328 H1304 0.950 . S
C1328 C1323 1.363 . S
C1328 C1327 1.415 . S
C1329 H1305 0.951 . S
C1329 C1330 1.366 . S
C1329 C1331 1.388 . S
C1330 C1329 1.366 . S
C1330 C1334 1.385 . S
C1331 H1306 0.951 . S
C1331 C1329 1.388 . S
C1331 C1332 1.366 . S
C1332 C1331 1.366 . S
C1332 C1333 1.414 . S
C1332 C1335 1.499 . S
C1333 H1307 0.950 . S
C1333 C1332 1.414 . S
C1333 C1334 1.374 . S
C1334 H1308 0.950 . S
C1334 C1330 1.385 . S
C1334 C1333 1.374 . S
C1335 C1332 1.499 . S
C1335 C1336 1.373 . S
C1335 C1337 1.389 . S
C1336 H1309 0.950 . S
C1336 C1322 1.377 . S
C1336 C1335 1.373 . S
C1337 C1321 1.377 . S
C1337 C1335 1.389 . S
C1337 C1338 1.524 . S
C1338 C1337 1.524 . S
C1338 C1339 1.397 . S
C1338 C1343 1.363 . S
C1339 H1310 0.950 . S
C1339 C1338 1.397 . S
C1339 C1340 1.334 . S
C1340 H1311 0.950 . S
C1340 C1339 1.334 . S
C1340 C1341 1.283 1_556 S
C1341 C1340 1.283 1_554 S
C1341 C1342 1.525 1_554 S
C1341 H1344 1.001 . S
C1342 H1312 0.948 1_556 S
C1342 C1341 1.525 1_556 S
C1342 C1343 1.416 . S
C1343 H1313 0.950 . S
C1343 C1338 1.363 . S
C1343 C1342 1.416 . S
H1344 C1341 1.001 . S
H1345 C1326 0.913 . S
H1346 C1364 0.951 . S
H1347 C1366 0.951 . S
H1348 C1368 0.950 . S
H1349 C1369 0.950 . S
H1350 C1371 0.950 . S
H1351 C1374 0.950 . S
H1352 C1375 0.950 . S
H1353 C1377 0.950 . S
H1354 C1378 0.950 . S
H1355 C1379 0.951 . S
H1356 C1381 0.951 . S
H1357 C1383 0.950 . S
H1358 C1384 0.950 . S
H1359 C1386 0.950 . S
H1360 C1389 0.950 . S
H1361 C1390 0.950 . S
H1362 C1392 0.950 . S
H1363 C1393 0.950 . S
C1364 H1346 0.951 . S
C1364 C1365 1.366 . S
C1364 C1366 1.388 . S
C1365 C1364 1.366 . S
C1365 C1369 1.385 . S
C1366 H1347 0.951 . S
C1366 C1364 1.388 . S
C1366 C1367 1.366 . S
C1367 C1366 1.366 . S
C1367 C1368 1.414 . S
C1367 C1370 1.499 . S
C1368 H1348 0.950 . S
C1368 C1367 1.414 . S
C1368 C1369 1.374 . S
C1369 H1349 0.950 . S
C1369 C1365 1.385 . S
C1369 C1368 1.374 . S
C1370 C1367 1.499 . S
C1370 C1371 1.373 . S
C1370 C1372 1.389 . S
C1371 H1350 0.950 . S
C1371 C1370 1.373 . S
C1371 C1387 1.377 . S
C1372 C1370 1.389 . S
C1372 C1373 1.524 . S
C1372 C1386 1.377 . S
C1373 C1372 1.524 . S
C1373 C1374 1.397 . S
C1373 C1378 1.363 . S
C1374 H1351 0.950 . S
C1374 C1373 1.397 . S
C1374 C1375 1.334 . S
C1375 H1352 0.950 . S
C1375 C1374 1.334 . S
C1375 C1376 1.287 . S
C1376 C1375 1.287 . S
C1376 C1377 1.524 . S
C1376 H1395 0.913 . S
C1377 H1353 0.950 . S
C1377 C1376 1.524 . S
C1377 C1378 1.415 . S
C1378 H1354 0.950 . S
C1378 C1373 1.363 . S
C1378 C1377 1.415 . S
C1379 H1355 0.951 . S
C1379 C1380 1.366 . S
C1379 C1381 1.388 . S
C1380 C1379 1.366 . S
C1380 C1384 1.385 . S
C1381 H1356 0.951 . S
C1381 C1379 1.388 . S
C1381 C1382 1.366 . S
C1382 C1381 1.366 . S
C1382 C1383 1.414 . S
C1382 C1385 1.499 . S
C1383 H1357 0.950 . S
C1383 C1382 1.414 . S
C1383 C1384 1.374 . S
C1384 H1358 0.950 . S
C1384 C1380 1.385 . S
C1384 C1383 1.374 . S
C1385 C1382 1.499 . S
C1385 C1386 1.373 . S
C1385 C1387 1.389 . S
C1386 H1359 0.950 . S
C1386 C1372 1.377 . S
C1386 C1385 1.373 . S
C1387 C1371 1.377 . S
C1387 C1385 1.389 . S
C1387 C1388 1.524 . S
C1388 C1387 1.524 . S
C1388 C1389 1.397 . S
C1388 C1393 1.363 . S
C1389 H1360 0.950 . S
C1389 C1388 1.397 . S
C1389 C1390 1.334 . S
C1390 H1361 0.950 . S
C1390 C1389 1.334 . S
C1390 C1391 1.287 . S
C1391 C1390 1.287 . S
C1391 C1392 1.524 . S
C1391 H1394 0.999 . S
C1392 H1362 0.950 . S
C1392 C1391 1.524 . S
C1392 C1393 1.415 . S
C1393 H1363 0.950 . S
C1393 C1388 1.363 . S
C1393 C1392 1.415 . S
H1394 C1391 0.999 . S
H1395 C1376 0.913 . S
H1396 C1414 0.951 . S
H1397 C1416 0.951 . S
H1398 C1418 0.950 . S
H1399 C1419 0.950 . S
H1400 C1421 0.950 . S
H1401 C1424 0.950 . S
H1402 C1425 0.950 . S
H1403 C1427 0.950 . S
H1404 C1428 0.950 . S
H1405 C1429 0.951 . S
H1406 C1431 0.951 . S
H1407 C1433 0.950 . S
H1408 C1434 0.950 . S
H1409 C1436 0.950 . S
H1410 C1439 0.950 . S
H1411 C1440 0.950 . S
H1412 C1442 0.950 . S
H1413 C1443 0.950 . S
C1414 H1396 0.951 . S
C1414 C1415 1.366 . S
C1414 C1416 1.388 . S
C1415 C1414 1.366 . S
C1415 C1419 1.385 . S
C1416 H1397 0.951 . S
C1416 C1414 1.388 . S
C1416 C1417 1.366 . S
C1417 C1416 1.366 . S
C1417 C1418 1.414 . S
C1417 C1420 1.499 . S
C1418 H1398 0.950 . S
C1418 C1417 1.414 . S
C1418 C1419 1.374 . S
C1419 H1399 0.950 . S
C1419 C1415 1.385 . S
C1419 C1418 1.374 . S
C1420 C1417 1.499 . S
C1420 C1421 1.373 . S
C1420 C1422 1.389 . S
C1421 H1400 0.950 . S
C1421 C1420 1.373 . S
C1421 C1437 1.377 . S
C1422 C1420 1.389 . S
C1422 C1423 1.524 . S
C1422 C1436 1.377 . S
C1423 C1422 1.524 . S
C1423 C1424 1.397 . S
C1423 C1428 1.363 . S
C1424 H1401 0.950 . S
C1424 C1423 1.397 . S
C1424 C1425 1.334 . S
C1425 H1402 0.950 . S
C1425 C1424 1.334 . S
C1425 C1426 1.287 . S
C1426 C1425 1.287 . S
C1426 C1427 1.524 . S
C1426 H1445 0.913 . S
C1427 H1403 0.950 . S
C1427 C1426 1.524 . S
C1427 C1428 1.415 . S
C1428 H1404 0.950 . S
C1428 C1423 1.363 . S
C1428 C1427 1.415 . S
C1429 H1405 0.951 . S
C1429 C1430 1.366 . S
C1429 C1431 1.388 . S
C1430 C1429 1.366 . S
C1430 C1434 1.385 . S
C1431 H1406 0.951 . S
C1431 C1429 1.388 . S
C1431 C1432 1.366 . S
C1432 C1431 1.366 . S
C1432 C1433 1.414 . S
C1432 C1435 1.499 . S
C1433 H1407 0.950 . S
C1433 C1432 1.414 . S
C1433 C1434 1.374 . S
C1434 H1408 0.950 . S
C1434 C1430 1.385 . S
C1434 C1433 1.374 . S
C1435 C1432 1.499 . S
C1435 C1436 1.373 . S
C1435 C1437 1.389 . S
C1436 H1409 0.950 . S
C1436 C1422 1.377 . S
C1436 C1435 1.373 . S
C1437 C1421 1.377 . S
C1437 C1435 1.389 . S
C1437 C1438 1.524 . S
C1438 C1437 1.524 . S
C1438 C1439 1.397 . S
C1438 C1443 1.363 . S
C1439 H1410 0.950 . S
C1439 C1438 1.397 . S
C1439 C1440 1.334 . S
C1440 H1411 0.950 . S
C1440 C1439 1.334 . S
C1440 C1441 1.287 . S
C1441 C1440 1.287 . S
C1441 C1442 1.524 . S
C1441 H1444 0.999 . S
C1442 H1412 0.950 . S
C1442 C1441 1.524 . S
C1442 C1443 1.415 . S
C1443 H1413 0.950 . S
C1443 C1438 1.363 . S
C1443 C1442 1.415 . S
H1444 C1441 0.999 . S
H1445 C1426 0.913 . S
H1446 C1464 0.951 . S
H1447 C1466 0.951 . S
H1448 C1468 0.950 . S
H1449 C1469 0.950 . S
H1450 C1471 0.950 . S
H1451 C1474 0.950 . S
H1452 C1475 0.950 . S
H1453 C1477 0.950 . S
H1454 C1478 0.950 . S
H1455 C1479 0.951 . S
H1456 C1481 0.951 . S
H1457 C1483 0.950 . S
H1458 C1484 0.950 . S
H1459 C1486 0.950 . S
H1460 C1489 0.950 . S
H1461 C1490 0.950 . S
H1462 C1492 0.950 . S
H1463 C1493 0.950 . S
C1464 H1446 0.951 . S
C1464 C1465 1.366 . S
C1464 C1466 1.388 . S
C1465 C1464 1.366 . S
C1465 C1469 1.385 1_556 S
C1466 H1447 0.951 . S
C1466 C1464 1.388 . S
C1466 C1467 1.366 . S
C1467 C1466 1.366 . S
C1467 C1468 1.414 . S
C1467 C1470 1.499 . S
C1468 H1448 0.950 . S
C1468 C1467 1.414 . S
C1468 C1469 1.374 1_556 S
C1469 H1449 0.950 . S
C1469 C1465 1.385 1_554 S
C1469 C1468 1.374 1_554 S
C1470 C1467 1.499 . S
C1470 C1471 1.373 . S
C1470 C1472 1.389 . S
C1471 H1450 0.950 . S
C1471 C1470 1.373 . S
C1471 C1487 1.377 . S
C1472 C1470 1.389 . S
C1472 C1473 1.524 . S
C1472 C1486 1.377 . S
C1473 C1472 1.524 . S
C1473 C1474 1.397 . S
C1473 C1478 1.363 . S
C1474 H1451 0.950 . S
C1474 C1473 1.397 . S
C1474 C1475 1.334 . S
C1475 H1452 0.950 . S
C1475 C1474 1.334 . S
C1475 C1476 1.287 . S
C1476 C1475 1.287 . S
C1476 C1477 1.524 . S
C1476 H1495 0.913 . S
C1477 H1453 0.950 . S
C1477 C1476 1.524 . S
C1477 C1478 1.415 . S
C1478 H1454 0.950 . S
C1478 C1473 1.363 . S
C1478 C1477 1.415 . S
C1479 H1455 0.951 . S
C1479 C1480 1.366 . S
C1479 C1481 1.388 . S
C1480 C1479 1.366 . S
C1480 C1484 1.385 . S
C1481 H1456 0.951 . S
C1481 C1479 1.388 . S
C1481 C1482 1.366 . S
C1482 C1481 1.366 . S
C1482 C1483 1.414 . S
C1482 C1485 1.499 . S
C1483 H1457 0.950 . S
C1483 C1482 1.414 . S
C1483 C1484 1.374 . S
C1484 H1458 0.950 . S
C1484 C1480 1.385 . S
C1484 C1483 1.374 . S
C1485 C1482 1.499 . S
C1485 C1486 1.373 . S
C1485 C1487 1.389 . S
C1486 H1459 0.950 . S
C1486 C1472 1.377 . S
C1486 C1485 1.373 . S
C1487 C1471 1.377 . S
C1487 C1485 1.389 . S
C1487 C1488 1.524 . S
C1488 C1487 1.524 . S
C1488 C1489 1.397 . S
C1488 C1493 1.363 . S
C1489 H1460 0.950 . S
C1489 C1488 1.397 . S
C1489 C1490 1.334 . S
C1490 H1461 0.950 . S
C1490 C1489 1.334 . S
C1490 C1491 1.287 . S
C1491 C1490 1.287 . S
C1491 C1492 1.524 . S
C1491 H1494 0.999 . S
C1492 H1462 0.950 . S
C1492 C1491 1.524 . S
C1492 C1493 1.415 . S
C1493 H1463 0.950 . S
C1493 C1488 1.363 . S
C1493 C1492 1.415 . S
H1494 C1491 0.999 . S
H1495 C1476 0.913 . S
H1496 C1514 0.951 . S
H1497 C1516 0.951 . S
H1498 C1518 0.950 . S
H1499 C1519 0.950 . S
H1500 C1521 0.950 . S
H1501 C1524 0.950 . S
H1502 C1525 0.950 . S
H1503 C1527 0.950 . S
H1504 C1528 0.950 . S
H1505 C1529 0.951 . S
H1506 C1531 0.951 . S
H1507 C1533 0.950 . S
H1508 C1534 0.950 . S
H1509 C1536 0.950 . S
H1510 C1539 0.950 . S
H1511 C1540 0.950 . S
H1512 C1542 0.950 . S
H1513 C1543 0.950 . S
C1514 H1496 0.951 . S
C1514 C1515 1.366 . S
C1514 C1516 1.388 . S
C1515 C1514 1.366 . S
C1515 C1519 1.385 . S
C1516 H1497 0.951 . S
C1516 C1514 1.388 . S
C1516 C1517 1.366 . S
C1517 C1516 1.366 . S
C1517 C1518 1.414 . S
C1517 C1520 1.499 . S
C1518 H1498 0.950 . S
C1518 C1517 1.414 . S
C1518 C1519 1.374 . S
C1519 H1499 0.950 . S
C1519 C1515 1.385 . S
C1519 C1518 1.374 . S
C1520 C1517 1.499 . S
C1520 C1521 1.373 . S
C1520 C1522 1.389 . S
C1521 H1500 0.950 . S
C1521 C1520 1.373 . S
C1521 C1537 1.377 . S
C1522 C1520 1.389 . S
C1522 C1523 1.524 . S
C1522 C1536 1.377 . S
C1523 C1522 1.524 . S
C1523 C1524 1.397 . S
C1523 C1528 1.363 . S
C1524 H1501 0.950 . S
C1524 C1523 1.397 . S
C1524 C1525 1.334 . S
C1525 H1502 0.950 . S
C1525 C1524 1.334 . S
C1525 C1526 1.287 . S
C1526 C1525 1.287 . S
C1526 C1527 1.524 . S
C1526 H1545 0.913 . S
C1527 H1503 0.950 . S
C1527 C1526 1.524 . S
C1527 C1528 1.415 . S
C1528 H1504 0.950 . S
C1528 C1523 1.363 . S
C1528 C1527 1.415 . S
C1529 H1505 0.951 . S
C1529 C1530 1.366 . S
C1529 C1531 1.388 . S
C1530 C1529 1.366 . S
C1530 C1534 1.385 . S
C1531 H1506 0.951 . S
C1531 C1529 1.388 . S
C1531 C1532 1.366 . S
C1532 C1531 1.366 . S
C1532 C1533 1.414 . S
C1532 C1535 1.499 . S
C1533 H1507 0.950 . S
C1533 C1532 1.414 . S
C1533 C1534 1.374 . S
C1534 H1508 0.950 . S
C1534 C1530 1.385 . S
C1534 C1533 1.374 . S
C1535 C1532 1.499 . S
C1535 C1536 1.373 . S
C1535 C1537 1.389 . S
C1536 H1509 0.950 . S
C1536 C1522 1.377 . S
C1536 C1535 1.373 . S
C1537 C1521 1.377 . S
C1537 C1535 1.389 . S
C1537 C1538 1.524 . S
C1538 C1537 1.524 . S
C1538 C1539 1.397 . S
C1538 C1543 1.363 . S
C1539 H1510 0.950 . S
C1539 C1538 1.397 . S
C1539 C1540 1.334 . S
C1540 H1511 0.950 . S
C1540 C1539 1.334 . S
C1540 C1541 1.287 . S
C1541 C1540 1.287 . S
C1541 C1542 1.524 . S
C1541 H1544 0.999 . S
C1542 H1512 0.950 . S
C1542 C1541 1.524 . S
C1542 C1543 1.415 . S
C1543 H1513 0.950 . S
C1543 C1538 1.363 . S
C1543 C1542 1.415 . S
H1544 C1541 0.999 . S
H1545 C1526 0.913 . S
H1546 C1564 0.951 . S
H1547 C1566 0.951 . S
H1548 C1568 0.950 . S
H1549 C1569 0.950 . S
H1550 C1571 0.950 . S
H1551 C1574 0.950 . S
H1552 C1575 0.950 . S
H1553 C1577 0.950 . S
H1554 C1578 0.950 . S
H1555 C1579 0.951 . S
H1556 C1581 0.951 . S
H1557 C1583 0.950 . S
H1558 C1584 0.950 . S
H1559 C1586 0.950 . S
H1560 C1589 0.950 . S
H1561 C1590 0.950 . S
H1562 C1592 0.950 . S
H1563 C1593 0.950 . S
C1564 H1546 0.951 . S
C1564 C1565 1.366 . S
C1564 C1566 1.388 . S
C1565 C1564 1.366 . S
C1565 C1569 1.385 . S
C1566 H1547 0.951 . S
C1566 C1564 1.388 . S
C1566 C1567 1.366 . S
C1567 C1566 1.366 . S
C1567 C1568 1.414 . S
C1567 C1570 1.499 . S
C1568 H1548 0.950 . S
C1568 C1567 1.414 . S
C1568 C1569 1.374 . S
C1569 H1549 0.950 . S
C1569 C1565 1.385 . S
C1569 C1568 1.374 . S
C1570 C1567 1.499 . S
C1570 C1571 1.373 . S
C1570 C1572 1.389 . S
C1571 H1550 0.950 . S
C1571 C1570 1.373 . S
C1571 C1587 1.377 . S
C1572 C1570 1.389 . S
C1572 C1573 1.524 . S
C1572 C1586 1.377 . S
C1573 C1572 1.524 . S
C1573 C1574 1.397 . S
C1573 C1578 1.363 . S
C1574 H1551 0.950 . S
C1574 C1573 1.397 . S
C1574 C1575 1.334 . S
C1575 H1552 0.950 . S
C1575 C1574 1.334 . S
C1575 C1576 1.287 . S
C1576 C1575 1.287 . S
C1576 C1577 1.524 . S
C1576 H1595 0.913 . S
C1577 H1553 0.950 . S
C1577 C1576 1.524 . S
C1577 C1578 1.415 . S
C1578 H1554 0.950 . S
C1578 C1573 1.363 . S
C1578 C1577 1.415 . S
C1579 H1555 0.951 . S
C1579 C1580 1.366 . S
C1579 C1581 1.388 . S
C1580 C1579 1.366 . S
C1580 C1584 1.385 . S
C1581 H1556 0.951 . S
C1581 C1579 1.388 . S
C1581 C1582 1.366 . S
C1582 C1581 1.366 . S
C1582 C1583 1.414 . S
C1582 C1585 1.499 . S
C1583 H1557 0.950 . S
C1583 C1582 1.414 . S
C1583 C1584 1.374 . S
C1584 H1558 0.950 . S
C1584 C1580 1.385 . S
C1584 C1583 1.374 . S
C1585 C1582 1.499 . S
C1585 C1586 1.373 . S
C1585 C1587 1.389 . S
C1586 H1559 0.950 . S
C1586 C1572 1.377 . S
C1586 C1585 1.373 . S
C1587 C1571 1.377 . S
C1587 C1585 1.389 . S
C1587 C1588 1.524 . S
C1588 C1587 1.524 . S
C1588 C1589 1.397 . S
C1588 C1593 1.363 . S
C1589 H1560 0.950 . S
C1589 C1588 1.397 . S
C1589 C1590 1.334 . S
C1590 H1561 0.950 . S
C1590 C1589 1.334 . S
C1590 C1591 1.287 . S
C1591 C1590 1.287 . S
C1591 C1592 1.524 . S
C1591 H1594 0.999 . S
C1592 H1562 0.950 . S
C1592 C1591 1.524 . S
C1592 C1593 1.415 . S
C1593 H1563 0.950 . S
C1593 C1588 1.363 . S
C1593 C1592 1.415 . S
H1594 C1591 0.999 . S
H1595 C1576 0.913 . S
H1596 C1614 0.951 . S
H1597 C1616 0.951 . S
H1598 C1618 0.950 . S
H1599 C1619 0.950 . S
H1600 C1621 0.950 . S
H1601 C1624 0.950 . S
H1602 C1625 0.950 . S
H1603 C1627 0.950 . S
H1604 C1628 0.950 . S
H1605 C1629 0.951 . S
H1606 C1631 0.951 . S
H1607 C1633 0.950 . S
H1608 C1634 0.950 . S
H1609 C1636 0.950 . S
H1610 C1639 0.950 . S
H1611 C1640 0.950 . S
H1612 C1642 0.950 . S
H1613 C1643 0.950 . S
C1614 H1596 0.951 . S
C1614 C1615 1.366 . S
C1614 C1616 1.388 . S
C1615 C1614 1.366 . S
C1615 C1619 1.385 . S
C1616 H1597 0.951 . S
C1616 C1614 1.388 . S
C1616 C1617 1.366 . S
C1617 C1616 1.366 . S
C1617 C1618 1.414 . S
C1617 C1620 1.499 1_544 S
C1618 H1598 0.950 . S
C1618 C1617 1.414 . S
C1618 C1619 1.374 . S
C1619 H1599 0.950 . S
C1619 C1615 1.385 . S
C1619 C1618 1.374 . S
C1620 C1617 1.499 1_566 S
C1620 C1621 1.374 1_565 S
C1620 C1622 1.388 . S
C1621 H1600 0.950 . S
C1621 C1620 1.374 1_545 S
C1621 C1637 1.393 . S
C1622 C1620 1.388 . S
C1622 C1623 1.524 . S
C1622 C1636 1.377 . S
C1623 C1622 1.524 . S
C1623 C1624 1.397 1_556 S
C1623 C1628 1.363 . S
C1624 H1601 0.950 . S
C1624 C1623 1.397 1_554 S
C1624 C1625 1.334 . S
C1625 H1602 0.950 . S
C1625 C1624 1.334 . S
C1625 C1626 1.287 . S
C1626 C1625 1.287 . S
C1626 C1627 1.524 . S
C1626 H1645 0.913 . S
C1627 H1603 0.950 . S
C1627 C1626 1.524 . S
C1627 C1628 1.415 1_554 S
C1628 H1604 0.950 . S
C1628 C1623 1.363 . S
C1628 C1627 1.415 1_556 S
C1629 H1605 0.951 . S
C1629 C1630 1.366 . S
C1629 C1631 1.388 . S
C1630 C1629 1.366 . S
C1630 C1634 1.385 . S
C1631 H1606 0.951 . S
C1631 C1629 1.388 . S
C1631 C1632 1.366 . S
C1632 C1631 1.366 . S
C1632 C1633 1.414 . S
C1632 C1635 1.499 . S
C1633 H1607 0.950 . S
C1633 C1632 1.414 . S
C1633 C1634 1.374 . S
C1634 H1608 0.950 . S
C1634 C1630 1.385 . S
C1634 C1633 1.374 . S
C1635 C1632 1.499 . S
C1635 C1636 1.373 . S
C1635 C1637 1.350 1_565 S
C1636 H1609 0.950 . S
C1636 C1622 1.377 . S
C1636 C1635 1.373 . S
C1637 C1621 1.393 . S
C1637 C1635 1.350 1_545 S
C1637 C1638 1.552 . S
C1638 C1637 1.552 . S
C1638 C1639 1.397 . S
C1638 C1643 1.363 . S
C1639 H1610 0.950 . S
C1639 C1638 1.397 . S
C1639 C1640 1.334 . S
C1640 H1611 0.950 . S
C1640 C1639 1.334 . S
C1640 C1641 1.287 . S
C1641 C1640 1.287 . S
C1641 C1642 1.524 . S
C1641 H1644 0.999 . S
C1642 H1612 0.950 . S
C1642 C1641 1.524 . S
C1642 C1643 1.415 . S
C1643 H1613 0.950 . S
C1643 C1638 1.363 . S
C1643 C1642 1.415 . S
H1644 C1641 0.999 . S
H1645 C1626 0.913 . S
H1646 C1664 0.951 . S
H1647 C1666 0.951 . S
H1648 C1668 0.950 . S
H1649 C1669 0.950 . S
H1650 C1671 0.950 . S
H1651 C1674 0.950 . S
H1652 C1675 0.950 . S
H1653 C1677 0.950 . S
H1654 C1678 0.950 . S
H1655 C1679 0.951 . S
H1656 C1681 0.951 . S
H1657 C1683 0.950 . S
H1658 C1684 0.950 . S
H1659 C1686 0.950 . S
H1660 C1689 0.950 . S
H1661 C1690 0.950 . S
H1662 C1692 0.950 . S
H1663 C1693 0.950 . S
C1664 H1646 0.951 . S
C1664 C1665 1.366 . S
C1664 C1666 1.388 . S
C1665 C1664 1.366 . S
C1665 C1669 1.385 . S
C1666 H1647 0.951 . S
C1666 C1664 1.388 . S
C1666 C1667 1.366 . S
C1667 C1666 1.366 . S
C1667 C1668 1.414 . S
C1667 C1670 1.499 . S
C1668 H1648 0.950 . S
C1668 C1667 1.414 . S
C1668 C1669 1.374 . S
C1669 H1649 0.950 . S
C1669 C1665 1.385 . S
C1669 C1668 1.374 . S
C1670 C1667 1.499 . S
C1670 C1671 1.373 . S
C1670 C1672 1.389 . S
C1671 H1650 0.950 . S
C1671 C1670 1.373 . S
C1671 C1687 1.377 . S
C1672 C1670 1.389 . S
C1672 C1673 1.524 . S
C1672 C1686 1.377 . S
C1673 C1672 1.524 . S
C1673 C1674 1.397 . S
C1673 C1678 1.363 . S
C1674 H1651 0.950 . S
C1674 C1673 1.397 . S
C1674 C1675 1.334 . S
C1675 H1652 0.950 . S
C1675 C1674 1.334 . S
C1675 C1676 1.287 . S
C1676 C1675 1.287 . S
C1676 C1677 1.524 . S
C1676 H1695 0.913 . S
C1677 H1653 0.950 . S
C1677 C1676 1.524 . S
C1677 C1678 1.415 . S
C1678 H1654 0.950 . S
C1678 C1673 1.363 . S
C1678 C1677 1.415 . S
C1679 H1655 0.951 . S
C1679 C1680 1.366 . S
C1679 C1681 1.388 . S
C1680 C1679 1.366 . S
C1680 C1684 1.385 . S
C1681 H1656 0.951 . S
C1681 C1679 1.388 . S
C1681 C1682 1.366 . S
C1682 C1681 1.366 . S
C1682 C1683 1.414 . S
C1682 C1685 1.499 . S
C1683 H1657 0.950 . S
C1683 C1682 1.414 . S
C1683 C1684 1.374 . S
C1684 H1658 0.950 . S
C1684 C1680 1.385 . S
C1684 C1683 1.374 . S
C1685 C1682 1.499 . S
C1685 C1686 1.373 . S
C1685 C1687 1.389 . S
C1686 H1659 0.950 . S
C1686 C1672 1.377 . S
C1686 C1685 1.373 . S
C1687 C1671 1.377 . S
C1687 C1685 1.389 . S
C1687 C1688 1.524 . S
C1688 C1687 1.524 . S
C1688 C1689 1.397 . S
C1688 C1693 1.363 . S
C1689 H1660 0.950 . S
C1689 C1688 1.397 . S
C1689 C1690 1.334 . S
C1690 H1661 0.950 . S
C1690 C1689 1.334 . S
C1690 C1691 1.287 . S
C1691 C1690 1.287 . S
C1691 C1692 1.524 . S
C1691 H1694 0.999 . S
C1692 H1662 0.950 . S
C1692 C1691 1.524 . S
C1692 C1693 1.415 . S
C1693 H1663 0.950 . S
C1693 C1688 1.363 . S
C1693 C1692 1.415 . S
H1694 C1691 0.999 . S
H1695 C1676 0.913 . S
H1696 C1714 0.951 . S
H1697 C1716 0.951 . S
H1698 C1718 0.950 . S
H1699 C1719 0.950 . S
H1700 C1721 0.950 . S
H1701 C1724 0.950 . S
H1702 C1725 0.950 . S
H1703 C1727 0.950 . S
H1704 C1728 0.950 . S
H1705 C1729 0.951 . S
H1706 C1731 0.951 . S
H1707 C1733 0.950 . S
H1708 C1734 0.950 . S
H1709 C1736 0.950 . S
H1710 C1739 0.950 . S
H1711 C1740 0.950 . S
H1712 C1742 0.950 . S
H1713 C1743 0.950 . S
C1714 H1696 0.951 . S
C1714 C1715 1.366 . S
C1714 C1716 1.388 . S
C1715 C1714 1.366 . S
C1715 C1719 1.385 . S
C1716 H1697 0.951 . S
C1716 C1714 1.388 . S
C1716 C1717 1.366 . S
C1717 C1716 1.366 . S
C1717 C1718 1.414 . S
C1717 C1720 1.499 . S
C1718 H1698 0.950 . S
C1718 C1717 1.414 . S
C1718 C1719 1.374 . S
C1719 H1699 0.950 . S
C1719 C1715 1.385 . S
C1719 C1718 1.374 . S
C1720 C1717 1.499 . S
C1720 C1721 1.373 . S
C1720 C1722 1.389 . S
C1721 H1700 0.950 . S
C1721 C1720 1.373 . S
C1721 C1737 1.377 . S
C1722 C1720 1.389 . S
C1722 C1723 1.524 . S
C1722 C1736 1.377 . S
C1723 C1722 1.524 . S
C1723 C1724 1.397 . S
C1723 C1728 1.363 . S
C1724 H1701 0.950 . S
C1724 C1723 1.397 . S
C1724 C1725 1.334 . S
C1725 H1702 0.950 . S
C1725 C1724 1.334 . S
C1725 C1726 1.287 . S
C1726 C1725 1.287 . S
C1726 C1727 1.524 . S
C1726 H1745 0.913 . S
C1727 H1703 0.950 . S
C1727 C1726 1.524 . S
C1727 C1728 1.415 . S
C1728 H1704 0.950 . S
C1728 C1723 1.363 . S
C1728 C1727 1.415 . S
C1729 H1705 0.951 . S
C1729 C1730 1.366 . S
C1729 C1731 1.388 . S
C1730 C1729 1.366 . S
C1730 C1734 1.385 . S
C1731 H1706 0.951 . S
C1731 C1729 1.388 . S
C1731 C1732 1.366 . S
C1732 C1731 1.366 . S
C1732 C1733 1.414 . S
C1732 C1735 1.499 . S
C1733 H1707 0.950 . S
C1733 C1732 1.414 . S
C1733 C1734 1.374 . S
C1734 H1708 0.950 . S
C1734 C1730 1.385 . S
C1734 C1733 1.374 . S
C1735 C1732 1.499 . S
C1735 C1736 1.373 . S
C1735 C1737 1.389 . S
C1736 H1709 0.950 . S
C1736 C1722 1.377 . S
C1736 C1735 1.373 . S
C1737 C1721 1.377 . S
C1737 C1735 1.389 . S
C1737 C1738 1.524 . S
C1738 C1737 1.524 . S
C1738 C1739 1.397 . S
C1738 C1743 1.363 . S
C1739 H1710 0.950 . S
C1739 C1738 1.397 . S
C1739 C1740 1.334 . S
C1740 H1711 0.950 . S
C1740 C1739 1.334 . S
C1740 C1741 1.287 . S
C1741 C1740 1.287 . S
C1741 C1742 1.524 . S
C1741 H1744 0.999 . S
C1742 H1712 0.950 . S
C1742 C1741 1.524 . S
C1742 C1743 1.415 . S
C1743 H1713 0.950 . S
C1743 C1738 1.363 . S
C1743 C1742 1.415 . S
H1744 C1741 0.999 . S
H1745 C1726 0.913 . S
H1746 C1764 0.951 . S
H1747 C1766 0.951 . S
H1748 C1768 0.950 . S
H1749 C1769 0.950 . S
H1750 C1771 0.950 . S
H1751 C1774 0.950 . S
H1752 C1775 0.950 . S
H1753 C1777 0.950 . S
H1754 C1778 0.950 . S
H1755 C1779 0.951 . S
H1756 C1781 0.951 . S
H1757 C1783 0.950 . S
H1758 C1784 0.950 . S
H1759 C1786 0.950 . S
H1760 C1789 0.950 . S
H1761 C1790 0.950 . S
H1762 C1792 0.950 . S
H1763 C1793 0.950 . S
C1764 H1746 0.951 . S
C1764 C1765 1.366 . S
C1764 C1766 1.388 . S
C1765 C1764 1.366 . S
C1765 C1769 1.385 . S
C1766 H1747 0.951 . S
C1766 C1764 1.388 . S
C1766 C1767 1.366 . S
C1767 C1766 1.366 . S
C1767 C1768 1.414 . S
C1767 C1770 1.499 . S
C1768 H1748 0.950 . S
C1768 C1767 1.414 . S
C1768 C1769 1.374 . S
C1769 H1749 0.950 . S
C1769 C1765 1.385 . S
C1769 C1768 1.374 . S
C1770 C1767 1.499 . S
C1770 C1771 1.373 . S
C1770 C1772 1.389 . S
C1771 H1750 0.950 . S
C1771 C1770 1.373 . S
C1771 C1787 1.377 . S
C1772 C1770 1.389 . S
C1772 C1773 1.524 . S
C1772 C1786 1.377 . S
C1773 C1772 1.524 . S
C1773 C1774 1.397 . S
C1773 C1778 1.363 . S
C1774 H1751 0.950 . S
C1774 C1773 1.397 . S
C1774 C1775 1.334 . S
C1775 H1752 0.950 . S
C1775 C1774 1.334 . S
C1775 C1776 1.287 . S
C1776 C1775 1.287 . S
C1776 C1777 1.524 . S
C1776 H1795 0.913 . S
C1777 H1753 0.950 . S
C1777 C1776 1.524 . S
C1777 C1778 1.415 . S
C1778 H1754 0.950 . S
C1778 C1773 1.363 . S
C1778 C1777 1.415 . S
C1779 H1755 0.951 . S
C1779 C1780 1.366 . S
C1779 C1781 1.388 . S
C1780 C1779 1.366 . S
C1780 C1784 1.385 . S
C1781 H1756 0.951 . S
C1781 C1779 1.388 . S
C1781 C1782 1.366 . S
C1782 C1781 1.366 . S
C1782 C1783 1.414 . S
C1782 C1785 1.499 . S
C1783 H1757 0.950 . S
C1783 C1782 1.414 . S
C1783 C1784 1.374 . S
C1784 H1758 0.950 . S
C1784 C1780 1.385 . S
C1784 C1783 1.374 . S
C1785 C1782 1.499 . S
C1785 C1786 1.373 . S
C1785 C1787 1.389 . S
C1786 H1759 0.950 . S
C1786 C1772 1.377 . S
C1786 C1785 1.373 . S
C1787 C1771 1.377 . S
C1787 C1785 1.389 . S
C1787 C1788 1.524 . S
C1788 C1787 1.524 . S
C1788 C1789 1.397 . S
C1788 C1793 1.363 . S
C1789 H1760 0.950 . S
C1789 C1788 1.397 . S
C1789 C1790 1.334 . S
C1790 H1761 0.950 . S
C1790 C1789 1.334 . S
C1790 C1791 1.287 . S
C1791 C1790 1.287 . S
C1791 C1792 1.524 . S
C1791 H1794 0.999 . S
C1792 H1762 0.950 . S
C1792 C1791 1.524 . S
C1792 C1793 1.415 . S
C1793 H1763 0.950 . S
C1793 C1788 1.363 . S
C1793 C1792 1.415 . S
H1794 C1791 0.999 . S
H1795 C1776 0.913 . S
H1796 C1814 0.951 . S
H1797 C1816 0.951 . S
H1798 C1818 0.950 . S
H1799 C1819 0.950 . S
H1800 C1821 0.950 . S
H1801 C1824 0.950 . S
H1802 C1825 0.950 . S
H1803 C1827 0.950 . S
H1804 C1828 0.950 . S
H1805 C1829 0.951 . S
H1806 C1831 0.951 . S
H1807 C1833 0.950 . S
H1808 C1834 0.950 . S
H1809 C1836 0.950 . S
H1810 C1839 0.950 . S
H1811 C1840 0.950 . S
H1812 C1842 0.950 . S
H1813 C1843 0.950 . S
C1814 H1796 0.951 . S
C1814 C1815 1.366 . S
C1814 C1816 1.388 . S
C1815 C1814 1.366 . S
C1815 C1819 1.385 . S
C1816 H1797 0.951 . S
C1816 C1814 1.388 . S
C1816 C1817 1.366 . S
C1817 C1816 1.366 . S
C1817 C1818 1.414 . S
C1817 C1820 1.499 . S
C1818 H1798 0.950 . S
C1818 C1817 1.414 . S
C1818 C1819 1.374 . S
C1819 H1799 0.950 . S
C1819 C1815 1.385 . S
C1819 C1818 1.374 . S
C1820 C1817 1.499 . S
C1820 C1821 1.373 . S
C1820 C1822 1.389 . S
C1821 H1800 0.950 . S
C1821 C1820 1.373 . S
C1821 C1837 1.377 . S
C1822 C1820 1.389 . S
C1822 C1823 1.524 . S
C1822 C1836 1.377 . S
C1823 C1822 1.524 . S
C1823 C1824 1.397 . S
C1823 C1828 1.363 . S
C1824 H1801 0.950 . S
C1824 C1823 1.397 . S
C1824 C1825 1.334 . S
C1825 H1802 0.950 . S
C1825 C1824 1.334 . S
C1825 C1826 1.287 . S
C1826 C1825 1.287 . S
C1826 C1827 1.524 . S
C1826 H1845 0.913 . S
C1827 H1803 0.950 . S
C1827 C1826 1.524 . S
C1827 C1828 1.415 . S
C1828 H1804 0.950 . S
C1828 C1823 1.363 . S
C1828 C1827 1.415 . S
C1829 H1805 0.951 . S
C1829 C1830 1.366 . S
C1829 C1831 1.388 . S
C1830 C1829 1.366 . S
C1830 C1834 1.385 . S
C1831 H1806 0.951 . S
C1831 C1829 1.388 . S
C1831 C1832 1.366 . S
C1832 C1831 1.366 . S
C1832 C1833 1.414 . S
C1832 C1835 1.499 . S
C1833 H1807 0.950 . S
C1833 C1832 1.414 . S
C1833 C1834 1.374 . S
C1834 H1808 0.950 . S
C1834 C1830 1.385 . S
C1834 C1833 1.374 . S
C1835 C1832 1.499 . S
C1835 C1836 1.373 . S
C1835 C1837 1.389 . S
C1836 H1809 0.950 . S
C1836 C1822 1.377 . S
C1836 C1835 1.373 . S
C1837 C1821 1.377 . S
C1837 C1835 1.389 . S
C1837 C1838 1.524 . S
C1838 C1837 1.524 . S
C1838 C1839 1.397 . S
C1838 C1843 1.363 . S
C1839 H1810 0.950 . S
C1839 C1838 1.397 . S
C1839 C1840 1.334 . S
C1840 H1811 0.950 . S
C1840 C1839 1.334 . S
C1840 C1841 1.287 . S
C1841 C1840 1.287 . S
C1841 C1842 1.524 . S
C1841 H1844 0.999 . S
C1842 H1812 0.950 . S
C1842 C1841 1.524 . S
C1842 C1843 1.415 . S
C1843 H1813 0.950 . S
C1843 C1838 1.363 . S
C1843 C1842 1.415 . S
H1844 C1841 0.999 . S
H1845 C1826 0.913 . S
H1846 C1864 0.951 . S
H1847 C1866 0.951 . S
H1848 C1868 0.950 . S
H1849 C1869 0.950 . S
H1850 C1871 0.950 . S
H1851 C1874 0.950 . S
H1852 C1875 0.950 . S
H1853 C1877 0.950 . S
H1854 C1878 0.950 . S
H1855 C1879 0.951 . S
H1856 C1881 0.951 . S
H1857 C1883 0.950 . S
H1858 C1884 0.950 . S
H1859 C1886 0.950 . S
H1860 C1889 0.950 . S
H1861 C1890 0.950 . S
H1862 C1892 0.950 . S
H1863 C1893 0.950 . S
C1864 H1846 0.951 . S
C1864 C1865 1.366 . S
C1864 C1866 1.388 . S
C1865 C1864 1.366 . S
C1865 C1869 1.385 . S
C1866 H1847 0.951 . S
C1866 C1864 1.388 . S
C1866 C1867 1.366 . S
C1867 C1866 1.366 . S
C1867 C1868 1.414 . S
C1867 C1870 1.499 . S
C1868 H1848 0.950 . S
C1868 C1867 1.414 . S
C1868 C1869 1.374 . S
C1869 H1849 0.950 . S
C1869 C1865 1.385 . S
C1869 C1868 1.374 . S
C1870 C1867 1.499 . S
C1870 C1871 1.373 . S
C1870 C1872 1.389 . S
C1871 H1850 0.950 . S
C1871 C1870 1.373 . S
C1871 C1887 1.377 . S
C1872 C1870 1.389 . S
C1872 C1873 1.524 . S
C1872 C1886 1.377 . S
C1873 C1872 1.524 . S
C1873 C1874 1.397 . S
C1873 C1878 1.363 . S
C1874 H1851 0.950 . S
C1874 C1873 1.397 . S
C1874 C1875 1.334 . S
C1875 H1852 0.950 . S
C1875 C1874 1.334 . S
C1875 C1876 1.287 . S
C1876 C1875 1.287 . S
C1876 C1877 1.524 . S
C1876 H1895 0.913 . S
C1877 H1853 0.950 . S
C1877 C1876 1.524 . S
C1877 C1878 1.415 . S
C1878 H1854 0.950 . S
C1878 C1873 1.363 . S
C1878 C1877 1.415 . S
C1879 H1855 0.951 . S
C1879 C1880 1.366 . S
C1879 C1881 1.388 . S
C1880 C1879 1.366 . S
C1880 C1884 1.385 . S
C1881 H1856 0.951 . S
C1881 C1879 1.388 . S
C1881 C1882 1.366 . S
C1882 C1881 1.366 . S
C1882 C1883 1.414 . S
C1882 C1885 1.499 . S
C1883 H1857 0.950 . S
C1883 C1882 1.414 . S
C1883 C1884 1.374 . S
C1884 H1858 0.950 . S
C1884 C1880 1.385 . S
C1884 C1883 1.374 . S
C1885 C1882 1.499 . S
C1885 C1886 1.373 . S
C1885 C1887 1.389 . S
C1886 H1859 0.950 . S
C1886 C1872 1.377 . S
C1886 C1885 1.373 . S
C1887 C1871 1.377 . S
C1887 C1885 1.389 . S
C1887 C1888 1.524 . S
C1888 C1887 1.524 . S
C1888 C1889 1.397 . S
C1888 C1893 1.363 . S
C1889 H1860 0.950 . S
C1889 C1888 1.397 . S
C1889 C1890 1.334 . S
C1890 H1861 0.950 . S
C1890 C1889 1.334 . S
C1890 C1891 1.287 . S
C1891 C1890 1.287 . S
C1891 C1892 1.524 . S
C1891 H1894 0.999 . S
C1892 H1862 0.950 . S
C1892 C1891 1.524 . S
C1892 C1893 1.415 . S
C1893 H1863 0.950 . S
C1893 C1888 1.363 . S
C1893 C1892 1.415 . S
H1894 C1891 0.999 . S
H1895 C1876 0.913 . S
H1896 C1914 0.951 . S
H1897 C1916 0.951 . S
H1898 C1918 0.950 . S
H1899 C1919 0.950 . S
H1900 C1921 0.950 . S
H1901 C1924 0.950 . S
H1902 C1925 0.950 . S
H1903 C1927 0.950 . S
H1904 C1928 0.950 . S
H1905 C1929 0.951 . S
H1906 C1931 0.951 . S
H1907 C1933 0.950 . S
H1908 C1934 0.950 . S
H1909 C1936 0.950 . S
H1910 C1939 0.950 . S
H1911 C1940 0.950 . S
H1912 C1942 0.950 . S
H1913 C1943 0.950 . S
C1914 H1896 0.951 . S
C1914 C1915 1.366 . S
C1914 C1916 1.388 . S
C1915 C1914 1.366 . S
C1915 C1919 1.385 . S
C1916 H1897 0.951 . S
C1916 C1914 1.388 . S
C1916 C1917 1.366 . S
C1917 C1916 1.366 . S
C1917 C1918 1.414 . S
C1917 C1920 1.499 . S
C1918 H1898 0.950 . S
C1918 C1917 1.414 . S
C1918 C1919 1.374 . S
C1919 H1899 0.950 . S
C1919 C1915 1.385 . S
C1919 C1918 1.374 . S
C1920 C1917 1.499 . S
C1920 C1921 1.373 . S
C1920 C1922 1.389 . S
C1921 H1900 0.950 . S
C1921 C1920 1.373 . S
C1921 C1937 1.377 . S
C1922 C1920 1.389 . S
C1922 C1923 1.524 . S
C1922 C1936 1.377 . S
C1923 C1922 1.524 . S
C1923 C1924 1.397 . S
C1923 C1928 1.363 . S
C1924 H1901 0.950 . S
C1924 C1923 1.397 . S
C1924 C1925 1.334 . S
C1925 H1902 0.950 . S
C1925 C1924 1.334 . S
C1925 C1926 1.287 . S
C1926 C1925 1.287 . S
C1926 C1927 1.524 . S
C1926 H1945 0.913 . S
C1927 H1903 0.950 . S
C1927 C1926 1.524 . S
C1927 C1928 1.415 . S
C1928 H1904 0.950 . S
C1928 C1923 1.363 . S
C1928 C1927 1.415 . S
C1929 H1905 0.951 . S
C1929 C1930 1.366 . S
C1929 C1931 1.388 . S
C1930 C1929 1.366 . S
C1930 C1934 1.385 . S
C1931 H1906 0.951 . S
C1931 C1929 1.388 . S
C1931 C1932 1.366 . S
C1932 C1931 1.366 . S
C1932 C1933 1.414 . S
C1932 C1935 1.499 . S
C1933 H1907 0.950 . S
C1933 C1932 1.414 . S
C1933 C1934 1.374 . S
C1934 H1908 0.950 . S
C1934 C1930 1.385 . S
C1934 C1933 1.374 . S
C1935 C1932 1.499 . S
C1935 C1936 1.373 . S
C1935 C1937 1.389 . S
C1936 H1909 0.950 . S
C1936 C1922 1.377 . S
C1936 C1935 1.373 . S
C1937 C1921 1.377 . S
C1937 C1935 1.389 . S
C1937 C1938 1.524 . S
C1938 C1937 1.524 . S
C1938 C1939 1.397 . S
C1938 C1943 1.363 . S
C1939 H1910 0.950 . S
C1939 C1938 1.397 . S
C1939 C1940 1.334 . S
C1940 H1911 0.950 . S
C1940 C1939 1.334 . S
C1940 C1941 1.287 . S
C1941 C1940 1.287 . S
C1941 C1942 1.524 . S
C1941 H1944 0.999 . S
C1942 H1912 0.950 . S
C1942 C1941 1.524 . S
C1942 C1943 1.415 . S
C1943 H1913 0.950 . S
C1943 C1938 1.363 . S
C1943 C1942 1.415 . S
H1944 C1941 0.999 . S
H1945 C1926 0.913 . S
H1946 C1964 0.951 . S
H1947 C1966 0.951 . S
H1948 C1968 0.950 . S
H1949 C1969 0.950 . S
H1950 C1971 0.950 . S
H1951 C1974 0.950 . S
H1952 C1975 0.950 . S
H1953 C1977 0.950 . S
H1954 C1978 0.950 . S
H1955 C1979 0.951 . S
H1956 C1981 0.951 . S
H1957 C1983 0.950 . S
H1958 C1984 0.950 . S
H1959 C1986 0.950 . S
H1960 C1989 0.950 . S
H1961 C1990 0.950 . S
H1962 C1992 0.950 . S
H1963 C1993 0.950 . S
C1964 H1946 0.951 . S
C1964 C1965 1.366 . S
C1964 C1966 1.388 . S
C1965 C1964 1.366 . S
C1965 C1969 1.385 . S
C1966 H1947 0.951 . S
C1966 C1964 1.388 . S
C1966 C1967 1.366 . S
C1967 C1966 1.366 . S
C1967 C1968 1.414 . S
C1967 C1970 1.499 . S
C1968 H1948 0.950 . S
C1968 C1967 1.414 . S
C1968 C1969 1.374 . S
C1969 H1949 0.950 . S
C1969 C1965 1.385 . S
C1969 C1968 1.374 . S
C1970 C1967 1.499 . S
C1970 C1971 1.373 . S
C1970 C1972 1.389 . S
C1971 H1950 0.950 . S
C1971 C1970 1.373 . S
C1971 C1987 1.377 . S
C1972 C1970 1.389 . S
C1972 C1973 1.524 . S
C1972 C1986 1.377 . S
C1973 C1972 1.524 . S
C1973 C1974 1.397 . S
C1973 C1978 1.363 . S
C1974 H1951 0.950 . S
C1974 C1973 1.397 . S
C1974 C1975 1.334 . S
C1975 H1952 0.950 . S
C1975 C1974 1.334 . S
C1975 C1976 1.287 . S
C1976 C1975 1.287 . S
C1976 C1977 1.524 . S
C1976 H1995 0.913 . S
C1977 H1953 0.950 . S
C1977 C1976 1.524 . S
C1977 C1978 1.415 . S
C1978 H1954 0.950 . S
C1978 C1973 1.363 . S
C1978 C1977 1.415 . S
C1979 H1955 0.951 . S
C1979 C1980 1.366 . S
C1979 C1981 1.388 . S
C1980 C1979 1.366 . S
C1980 C1984 1.385 . S
C1981 H1956 0.951 . S
C1981 C1979 1.388 . S
C1981 C1982 1.366 . S
C1982 C1981 1.366 . S
C1982 C1983 1.414 . S
C1982 C1985 1.499 . S
C1983 H1957 0.950 . S
C1983 C1982 1.414 . S
C1983 C1984 1.374 . S
C1984 H1958 0.950 . S
C1984 C1980 1.385 . S
C1984 C1983 1.374 . S
C1985 C1982 1.499 . S
C1985 C1986 1.373 . S
C1985 C1987 1.389 . S
C1986 H1959 0.950 . S
C1986 C1972 1.377 . S
C1986 C1985 1.373 . S
C1987 C1971 1.377 . S
C1987 C1985 1.389 . S
C1987 C1988 1.524 . S
C1988 C1987 1.524 . S
C1988 C1989 1.397 . S
C1988 C1993 1.363 . S
C1989 H1960 0.950 . S
C1989 C1988 1.397 . S
C1989 C1990 1.334 . S
C1990 H1961 0.950 . S
C1990 C1989 1.334 . S
C1990 C1991 1.287 . S
C1991 C1990 1.287 . S
C1991 C1992 1.524 . S
C1991 H1994 0.999 . S
C1992 H1962 0.950 . S
C1992 C1991 1.524 . S
C1992 C1993 1.415 . S
C1993 H1963 0.950 . S
C1993 C1988 1.363 . S
C1993 C1992 1.415 . S
H1994 C1991 0.999 . S
H1995 C1976 0.913 . S
H1996 C2014 0.951 . S
H1997 C2016 0.951 . S
H1998 C2018 0.950 . S
H1999 C2019 0.950 . S
H2000 C2021 0.950 . S
H2001 C2024 0.950 . S
H2002 C2025 0.950 . S
H2003 C2027 0.950 . S
H2004 C2028 0.950 . S
H2005 C2029 0.951 . S
H2006 C2031 0.951 . S
H2007 C2033 0.950 . S
H2008 C2034 0.950 . S
H2009 C2036 0.950 . S
H2010 C2039 0.950 . S
H2011 C2040 0.950 . S
H2012 C2042 0.950 . S
H2013 C2043 0.950 . S
C2014 H1996 0.951 . S
C2014 C2015 1.366 . S
C2014 C2016 1.388 . S
C2015 C2014 1.366 . S
C2015 C2019 1.385 . S
C2016 H1997 0.951 . S
C2016 C2014 1.388 . S
C2016 C2017 1.366 . S
C2017 C2016 1.366 . S
C2017 C2018 1.414 . S
C2017 C2020 1.499 . S
C2018 H1998 0.950 . S
C2018 C2017 1.414 . S
C2018 C2019 1.374 . S
C2019 H1999 0.950 . S
C2019 C2015 1.385 . S
C2019 C2018 1.374 . S
C2020 C2017 1.499 . S
C2020 C2021 1.373 . S
C2020 C2022 1.389 . S
C2021 H2000 0.950 . S
C2021 C2020 1.373 . S
C2021 C2037 1.377 . S
C2022 C2020 1.389 . S
C2022 C2023 1.524 . S
C2022 C2036 1.377 . S
C2023 C2022 1.524 . S
C2023 C2024 1.397 . S
C2023 C2028 1.363 . S
C2024 H2001 0.950 . S
C2024 C2023 1.397 . S
C2024 C2025 1.334 . S
C2025 H2002 0.950 . S
C2025 C2024 1.334 . S
C2025 C2026 1.287 . S
C2026 C2025 1.287 . S
C2026 C2027 1.524 . S
C2026 H2045 0.913 . S
C2027 H2003 0.950 . S
C2027 C2026 1.524 . S
C2027 C2028 1.415 . S
C2028 H2004 0.950 . S
C2028 C2023 1.363 . S
C2028 C2027 1.415 . S
C2029 H2005 0.951 . S
C2029 C2030 1.366 . S
C2029 C2031 1.388 . S
C2030 C2029 1.366 . S
C2030 C2034 1.385 . S
C2031 H2006 0.951 . S
C2031 C2029 1.388 . S
C2031 C2032 1.366 . S
C2032 C2031 1.366 . S
C2032 C2033 1.414 . S
C2032 C2035 1.499 . S
C2033 H2007 0.950 . S
C2033 C2032 1.414 . S
C2033 C2034 1.374 . S
C2034 H2008 0.950 . S
C2034 C2030 1.385 . S
C2034 C2033 1.374 . S
C2035 C2032 1.499 . S
C2035 C2036 1.373 . S
C2035 C2037 1.389 . S
C2036 H2009 0.950 . S
C2036 C2022 1.377 . S
C2036 C2035 1.373 . S
C2037 C2021 1.377 . S
C2037 C2035 1.389 . S
C2037 C2038 1.524 . S
C2038 C2037 1.524 . S
C2038 C2039 1.397 . S
C2038 C2043 1.363 . S
C2039 H2010 0.950 . S
C2039 C2038 1.397 . S
C2039 C2040 1.334 . S
C2040 H2011 0.950 . S
C2040 C2039 1.334 . S
C2040 C2041 1.287 . S
C2041 C2040 1.287 . S
C2041 C2042 1.524 . S
C2041 H2044 0.999 . S
C2042 H2012 0.950 . S
C2042 C2041 1.524 . S
C2042 C2043 1.415 . S
C2043 H2013 0.950 . S
C2043 C2038 1.363 . S
C2043 C2042 1.415 . S
H2044 C2041 0.999 . S
H2045 C2026 0.913 . S
H2046 C2064 0.951 . S
H2047 C2066 0.951 . S
H2048 C2068 0.950 . S
H2049 C2069 0.950 . S
H2050 C2071 0.950 . S
H2051 C2074 0.950 . S
H2052 C2075 0.950 . S
H2053 C2077 0.950 . S
H2054 C2078 0.950 . S
H2055 C2079 0.951 . S
H2056 C2081 0.951 . S
H2057 C2083 0.950 . S
H2058 C2084 0.950 . S
H2059 C2086 0.950 . S
H2060 C2089 0.950 . S
H2061 C2090 0.950 . S
H2062 C2092 0.950 . S
H2063 C2093 0.950 . S
C2064 H2046 0.951 . S
C2064 C2065 1.366 . S
C2064 C2066 1.388 . S
C2065 C2064 1.366 . S
C2065 C2069 1.385 . S
C2066 H2047 0.951 . S
C2066 C2064 1.388 . S
C2066 C2067 1.366 . S
C2067 C2066 1.366 . S
C2067 C2068 1.414 . S
C2067 C2070 1.499 . S
C2068 H2048 0.950 . S
C2068 C2067 1.414 . S
C2068 C2069 1.374 . S
C2069 H2049 0.950 . S
C2069 C2065 1.385 . S
C2069 C2068 1.374 . S
C2070 C2067 1.499 . S
C2070 C2071 1.373 . S
C2070 C2072 1.389 . S
C2071 H2050 0.950 . S
C2071 C2070 1.373 . S
C2071 C2087 1.377 . S
C2072 C2070 1.389 . S
C2072 C2073 1.524 . S
C2072 C2086 1.377 . S
C2073 C2072 1.524 . S
C2073 C2074 1.397 . S
C2073 C2078 1.363 . S
C2074 H2051 0.950 . S
C2074 C2073 1.397 . S
C2074 C2075 1.334 . S
C2075 H2052 0.950 . S
C2075 C2074 1.334 . S
C2075 C2076 1.287 . S
C2076 C2075 1.287 . S
C2076 C2077 1.524 . S
C2076 H2095 0.913 . S
C2077 H2053 0.950 . S
C2077 C2076 1.524 . S
C2077 C2078 1.415 . S
C2078 H2054 0.950 . S
C2078 C2073 1.363 . S
C2078 C2077 1.415 . S
C2079 H2055 0.951 . S
C2079 C2080 1.366 . S
C2079 C2081 1.388 . S
C2080 C2079 1.366 . S
C2080 C2084 1.385 . S
C2081 H2056 0.951 . S
C2081 C2079 1.388 . S
C2081 C2082 1.366 . S
C2082 C2081 1.366 . S
C2082 C2083 1.414 . S
C2082 C2085 1.499 . S
C2083 H2057 0.950 . S
C2083 C2082 1.414 . S
C2083 C2084 1.374 . S
C2084 H2058 0.950 . S
C2084 C2080 1.385 . S
C2084 C2083 1.374 . S
C2085 C2082 1.499 . S
C2085 C2086 1.373 . S
C2085 C2087 1.389 . S
C2086 H2059 0.950 . S
C2086 C2072 1.377 . S
C2086 C2085 1.373 . S
C2087 C2071 1.377 . S
C2087 C2085 1.389 . S
C2087 C2088 1.524 . S
C2088 C2087 1.524 . S
C2088 C2089 1.397 . S
C2088 C2093 1.363 . S
C2089 H2060 0.950 . S
C2089 C2088 1.397 . S
C2089 C2090 1.334 . S
C2090 H2061 0.950 . S
C2090 C2089 1.334 . S
C2090 C2091 1.287 . S
C2091 C2090 1.287 . S
C2091 C2092 1.524 . S
C2091 H2094 0.999 . S
C2092 H2062 0.950 . S
C2092 C2091 1.524 . S
C2092 C2093 1.415 . S
C2093 H2063 0.950 . S
C2093 C2088 1.363 . S
C2093 C2092 1.415 . S
H2094 C2091 0.999 . S
H2095 C2076 0.913 . S
H2096 C2114 0.951 . S
H2097 C2116 0.951 . S
H2098 C2118 0.950 . S
H2099 C2119 0.950 . S
H2100 C2121 0.950 . S
H2101 C2124 0.950 . S
H2102 C2125 0.950 . S
H2103 C2127 0.950 . S
H2104 C2128 0.950 . S
H2105 C2129 0.951 . S
H2106 C2131 0.951 . S
H2107 C2133 0.950 . S
H2108 C2134 0.950 . S
H2109 C2136 0.950 . S
H2110 C2139 0.950 . S
H2111 C2140 0.950 . S
H2112 C2142 0.950 . S
H2113 C2143 0.950 . S
C2114 H2096 0.951 . S
C2114 C2115 1.366 . S
C2114 C2116 1.388 . S
C2115 C2114 1.366 . S
C2115 C2119 1.385 . S
C2116 H2097 0.951 . S
C2116 C2114 1.388 . S
C2116 C2117 1.366 . S
C2117 C2116 1.366 . S
C2117 C2118 1.414 . S
C2117 C2120 1.499 . S
C2118 H2098 0.950 . S
C2118 C2117 1.414 . S
C2118 C2119 1.374 . S
C2119 H2099 0.950 . S
C2119 C2115 1.385 . S
C2119 C2118 1.374 . S
C2120 C2117 1.499 . S
C2120 C2121 1.373 . S
C2120 C2122 1.389 . S
C2121 H2100 0.950 . S
C2121 C2120 1.373 . S
C2121 C2137 1.377 . S
C2122 C2120 1.389 . S
C2122 C2123 1.524 . S
C2122 C2136 1.377 . S
C2123 C2122 1.524 . S
C2123 C2124 1.397 . S
C2123 C2128 1.363 . S
C2124 H2101 0.950 . S
C2124 C2123 1.397 . S
C2124 C2125 1.334 . S
C2125 H2102 0.950 . S
C2125 C2124 1.334 . S
C2125 C2126 1.287 . S
C2126 C2125 1.287 . S
C2126 C2127 1.524 . S
C2126 H2145 0.913 . S
C2127 H2103 0.950 . S
C2127 C2126 1.524 . S
C2127 C2128 1.415 . S
C2128 H2104 0.950 . S
C2128 C2123 1.363 . S
C2128 C2127 1.415 . S
C2129 H2105 0.951 . S
C2129 C2130 1.366 . S
C2129 C2131 1.388 . S
C2130 C2129 1.366 . S
C2130 C2134 1.385 . S
C2131 H2106 0.951 . S
C2131 C2129 1.388 . S
C2131 C2132 1.366 . S
C2132 C2131 1.366 . S
C2132 C2133 1.414 . S
C2132 C2135 1.499 . S
C2133 H2107 0.950 . S
C2133 C2132 1.414 . S
C2133 C2134 1.374 . S
C2134 H2108 0.950 . S
C2134 C2130 1.385 . S
C2134 C2133 1.374 . S
C2135 C2132 1.499 . S
C2135 C2136 1.373 . S
C2135 C2137 1.389 . S
C2136 H2109 0.950 . S
C2136 C2122 1.377 . S
C2136 C2135 1.373 . S
C2137 C2121 1.377 . S
C2137 C2135 1.389 . S
C2137 C2138 1.524 . S
C2138 C2137 1.524 . S
C2138 C2139 1.397 . S
C2138 C2143 1.363 . S
C2139 H2110 0.950 . S
C2139 C2138 1.397 . S
C2139 C2140 1.334 . S
C2140 H2111 0.950 . S
C2140 C2139 1.334 . S
C2140 C2141 1.287 . S
C2141 C2140 1.287 . S
C2141 C2142 1.524 . S
C2141 H2144 0.999 . S
C2142 H2112 0.950 . S
C2142 C2141 1.524 . S
C2142 C2143 1.415 . S
C2143 H2113 0.950 . S
C2143 C2138 1.363 . S
C2143 C2142 1.415 . S
H2144 C2141 0.999 . S
H2145 C2126 0.913 . S
H2146 C2164 0.951 . S
H2147 C2166 0.951 . S
H2148 C2168 0.950 . S
H2149 C2169 0.950 . S
H2150 C2171 0.950 . S
H2151 C2174 0.950 . S
H2152 C2175 0.950 . S
H2153 C2177 0.950 . S
H2154 C2178 0.950 . S
H2155 C2179 0.951 . S
H2156 C2181 0.951 . S
H2157 C2183 0.950 . S
H2158 C2184 0.950 . S
H2159 C2186 0.950 . S
H2160 C2189 0.950 . S
H2161 C2190 0.950 . S
H2162 C2192 0.950 . S
H2163 C2193 0.950 . S
C2164 H2146 0.951 . S
C2164 C2165 1.366 . S
C2164 C2166 1.388 . S
C2165 C2164 1.366 . S
C2165 C2169 1.385 . S
C2166 H2147 0.951 . S
C2166 C2164 1.388 . S
C2166 C2167 1.366 . S
C2167 C2166 1.366 . S
C2167 C2168 1.414 . S
C2167 C2170 1.499 . S
C2168 H2148 0.950 . S
C2168 C2167 1.414 . S
C2168 C2169 1.374 . S
C2169 H2149 0.950 . S
C2169 C2165 1.385 . S
C2169 C2168 1.374 . S
C2170 C2167 1.499 . S
C2170 C2171 1.373 . S
C2170 C2172 1.389 . S
C2171 H2150 0.950 . S
C2171 C2170 1.373 . S
C2171 C2187 1.377 . S
C2172 C2170 1.389 . S
C2172 C2173 1.524 . S
C2172 C2186 1.377 . S
C2173 C2172 1.524 . S
C2173 C2174 1.397 . S
C2173 C2178 1.363 . S
C2174 H2151 0.950 . S
C2174 C2173 1.397 . S
C2174 C2175 1.334 . S
C2175 H2152 0.950 . S
C2175 C2174 1.334 . S
C2175 C2176 1.287 . S
C2176 C2175 1.287 . S
C2176 C2177 1.524 . S
C2176 H2195 0.913 . S
C2177 H2153 0.950 . S
C2177 C2176 1.524 . S
C2177 C2178 1.415 . S
C2178 H2154 0.950 . S
C2178 C2173 1.363 . S
C2178 C2177 1.415 . S
C2179 H2155 0.951 . S
C2179 C2180 1.366 . S
C2179 C2181 1.388 . S
C2180 C2179 1.366 . S
C2180 C2184 1.385 . S
C2181 H2156 0.951 . S
C2181 C2179 1.388 . S
C2181 C2182 1.366 . S
C2182 C2181 1.366 . S
C2182 C2183 1.414 . S
C2182 C2185 1.499 . S
C2183 H2157 0.950 . S
C2183 C2182 1.414 . S
C2183 C2184 1.374 . S
C2184 H2158 0.950 . S
C2184 C2180 1.385 . S
C2184 C2183 1.374 . S
C2185 C2182 1.499 . S
C2185 C2186 1.373 . S
C2185 C2187 1.389 . S
C2186 H2159 0.950 . S
C2186 C2172 1.377 . S
C2186 C2185 1.373 . S
C2187 C2171 1.377 . S
C2187 C2185 1.389 . S
C2187 C2188 1.524 . S
C2188 C2187 1.524 . S
C2188 C2189 1.397 . S
C2188 C2193 1.363 . S
C2189 H2160 0.950 . S
C2189 C2188 1.397 . S
C2189 C2190 1.334 . S
C2190 H2161 0.950 . S
C2190 C2189 1.334 . S
C2190 C2191 1.287 . S
C2191 C2190 1.287 . S
C2191 C2192 1.524 . S
C2191 H2194 0.999 . S
C2192 H2162 0.950 . S
C2192 C2191 1.524 . S
C2192 C2193 1.415 . S
C2193 H2163 0.950 . S
C2193 C2188 1.363 . S
C2193 C2192 1.415 . S
H2194 C2191 0.999 . S
H2195 C2176 0.913 . S
H2196 C2214 0.951 . S
H2197 C2216 0.951 . S
H2198 C2218 0.950 . S
H2199 C2219 0.950 . S
H2200 C2221 0.950 . S
H2201 C2224 0.950 . S
H2202 C2225 0.950 . S
H2203 C2227 0.950 . S
H2204 C2228 0.950 . S
H2205 C2229 0.951 . S
H2206 C2231 0.951 . S
H2207 C2233 0.950 . S
H2208 C2234 0.950 . S
H2209 C2236 0.950 . S
H2210 C2239 0.950 . S
H2211 C2240 0.950 . S
H2212 C2242 0.950 . S
H2213 C2243 0.950 . S
C2214 H2196 0.951 . S
C2214 C2215 1.366 . S
C2214 C2216 1.388 . S
C2215 C2214 1.366 . S
C2215 C2219 1.385 . S
C2216 H2197 0.951 . S
C2216 C2214 1.388 . S
C2216 C2217 1.366 . S
C2217 C2216 1.366 . S
C2217 C2218 1.414 . S
C2217 C2220 1.499 . S
C2218 H2198 0.950 . S
C2218 C2217 1.414 . S
C2218 C2219 1.374 . S
C2219 H2199 0.950 . S
C2219 C2215 1.385 . S
C2219 C2218 1.374 . S
C2220 C2217 1.499 . S
C2220 C2221 1.373 . S
C2220 C2222 1.389 . S
C2221 H2200 0.950 . S
C2221 C2220 1.373 . S
C2221 C2237 1.377 . S
C2222 C2220 1.389 . S
C2222 C2223 1.524 . S
C2222 C2236 1.377 . S
C2223 C2222 1.524 . S
C2223 C2224 1.397 . S
C2223 C2228 1.363 . S
C2224 H2201 0.950 . S
C2224 C2223 1.397 . S
C2224 C2225 1.334 . S
C2225 H2202 0.950 . S
C2225 C2224 1.334 . S
C2225 C2226 1.287 . S
C2226 C2225 1.287 . S
C2226 C2227 1.524 . S
C2226 H2245 0.913 . S
C2227 H2203 0.950 . S
C2227 C2226 1.524 . S
C2227 C2228 1.415 . S
C2228 H2204 0.950 . S
C2228 C2223 1.363 . S
C2228 C2227 1.415 . S
C2229 H2205 0.951 . S
C2229 C2230 1.366 . S
C2229 C2231 1.388 . S
C2230 C2229 1.366 . S
C2230 C2234 1.385 . S
C2231 H2206 0.951 . S
C2231 C2229 1.388 . S
C2231 C2232 1.366 . S
C2232 C2231 1.366 . S
C2232 C2233 1.414 . S
C2232 C2235 1.499 . S
C2233 H2207 0.950 . S
C2233 C2232 1.414 . S
C2233 C2234 1.374 . S
C2234 H2208 0.950 . S
C2234 C2230 1.385 . S
C2234 C2233 1.374 . S
C2235 C2232 1.499 . S
C2235 C2236 1.373 . S
C2235 C2237 1.389 . S
C2236 H2209 0.950 . S
C2236 C2222 1.377 . S
C2236 C2235 1.373 . S
C2237 C2221 1.377 . S
C2237 C2235 1.389 . S
C2237 C2238 1.524 . S
C2238 C2237 1.524 . S
C2238 C2239 1.397 . S
C2238 C2243 1.363 . S
C2239 H2210 0.950 . S
C2239 C2238 1.397 . S
C2239 C2240 1.334 . S
C2240 H2211 0.950 . S
C2240 C2239 1.334 . S
C2240 C2241 1.287 . S
C2241 C2240 1.287 . S
C2241 C2242 1.524 . S
C2241 H2244 0.999 . S
C2242 H2212 0.950 . S
C2242 C2241 1.524 . S
C2242 C2243 1.415 . S
C2243 H2213 0.950 . S
C2243 C2238 1.363 . S
C2243 C2242 1.415 . S
H2244 C2241 0.999 . S
H2245 C2226 0.913 . S
H2246 C2264 0.951 . S
H2247 C2266 0.951 . S
H2248 C2268 0.950 . S
H2249 C2269 0.950 . S
H2250 C2271 0.950 . S
H2251 C2274 0.950 . S
H2252 C2275 0.950 . S
H2253 C2277 0.950 . S
H2254 C2278 0.950 . S
H2255 C2279 0.951 . S
H2256 C2281 0.951 . S
H2257 C2283 0.950 . S
H2258 C2284 0.950 . S
H2259 C2286 0.950 . S
H2260 C2289 0.950 . S
H2261 C2290 0.950 . S
H2262 C2292 0.950 . S
H2263 C2293 0.950 . S
C2264 H2246 0.951 . S
C2264 C2265 1.366 . S
C2264 C2266 1.388 . S
C2265 C2264 1.366 . S
C2265 C2269 1.385 . S
C2266 H2247 0.951 . S
C2266 C2264 1.388 . S
C2266 C2267 1.366 . S
C2267 C2266 1.366 . S
C2267 C2268 1.414 . S
C2267 C2270 1.499 . S
C2268 H2248 0.950 . S
C2268 C2267 1.414 . S
C2268 C2269 1.374 . S
C2269 H2249 0.950 . S
C2269 C2265 1.385 . S
C2269 C2268 1.374 . S
C2270 C2267 1.499 . S
C2270 C2271 1.373 . S
C2270 C2272 1.389 . S
C2271 H2250 0.950 . S
C2271 C2270 1.373 . S
C2271 C2287 1.377 . S
C2272 C2270 1.389 . S
C2272 C2273 1.524 . S
C2272 C2286 1.377 . S
C2273 C2272 1.524 . S
C2273 C2274 1.397 . S
C2273 C2278 1.363 . S
C2274 H2251 0.950 . S
C2274 C2273 1.397 . S
C2274 C2275 1.334 . S
C2275 H2252 0.950 . S
C2275 C2274 1.334 . S
C2275 C2276 1.287 . S
C2276 C2275 1.287 . S
C2276 C2277 1.524 . S
C2276 H2295 0.913 . S
C2277 H2253 0.950 . S
C2277 C2276 1.524 . S
C2277 C2278 1.415 . S
C2278 H2254 0.950 . S
C2278 C2273 1.363 . S
C2278 C2277 1.415 . S
C2279 H2255 0.951 . S
C2279 C2280 1.366 . S
C2279 C2281 1.388 . S
C2280 C2279 1.366 . S
C2280 C2284 1.385 . S
C2281 H2256 0.951 . S
C2281 C2279 1.388 . S
C2281 C2282 1.366 . S
C2282 C2281 1.366 . S
C2282 C2283 1.414 . S
C2282 C2285 1.499 . S
C2283 H2257 0.950 . S
C2283 C2282 1.414 . S
C2283 C2284 1.374 . S
C2284 H2258 0.950 . S
C2284 C2280 1.385 . S
C2284 C2283 1.374 . S
C2285 C2282 1.499 . S
C2285 C2286 1.373 . S
C2285 C2287 1.389 . S
C2286 H2259 0.950 . S
C2286 C2272 1.377 . S
C2286 C2285 1.373 . S
C2287 C2271 1.377 . S
C2287 C2285 1.389 . S
C2287 C2288 1.524 . S
C2288 C2287 1.524 . S
C2288 C2289 1.397 . S
C2288 C2293 1.363 . S
C2289 H2260 0.950 . S
C2289 C2288 1.397 . S
C2289 C2290 1.334 . S
C2290 H2261 0.950 . S
C2290 C2289 1.334 . S
C2290 C2291 1.287 . S
C2291 C2290 1.287 . S
C2291 C2292 1.524 . S
C2291 H2294 0.999 . S
C2292 H2262 0.950 . S
C2292 C2291 1.524 . S
C2292 C2293 1.415 . S
C2293 H2263 0.950 . S
C2293 C2288 1.363 . S
C2293 C2292 1.415 . S
H2294 C2291 0.999 . S
H2295 C2276 0.913 . S
H2296 C2314 0.951 . S
H2297 C2316 0.951 . S
H2298 C2318 0.950 . S
H2299 C2319 0.950 . S
H2300 C2321 0.950 . S
H2301 C2324 0.950 . S
H2302 C2325 0.950 . S
H2303 C2327 0.950 . S
H2304 C2328 0.950 . S
H2305 C2329 0.951 . S
H2306 C2331 0.951 . S
H2307 C2333 0.950 . S
H2308 C2334 0.950 . S
H2309 C2336 0.950 . S
H2310 C2339 0.950 . S
H2311 C2340 0.950 . S
H2312 C2342 0.950 . S
H2313 C2343 0.950 . S
C2314 H2296 0.951 . S
C2314 C2315 1.366 . S
C2314 C2316 1.388 . S
C2315 C2314 1.366 . S
C2315 C2319 1.385 . S
C2316 H2297 0.951 . S
C2316 C2314 1.388 . S
C2316 C2317 1.366 . S
C2317 C2316 1.366 . S
C2317 C2318 1.414 . S
C2317 C2320 1.499 . S
C2318 H2298 0.950 . S
C2318 C2317 1.414 . S
C2318 C2319 1.374 . S
C2319 H2299 0.950 . S
C2319 C2315 1.385 . S
C2319 C2318 1.374 . S
C2320 C2317 1.499 . S
C2320 C2321 1.373 . S
C2320 C2322 1.389 . S
C2321 H2300 0.950 . S
C2321 C2320 1.373 . S
C2321 C2337 1.377 . S
C2322 C2320 1.389 . S
C2322 C2323 1.524 . S
C2322 C2336 1.377 . S
C2323 C2322 1.524 . S
C2323 C2324 1.397 . S
C2323 C2328 1.363 . S
C2324 H2301 0.950 . S
C2324 C2323 1.397 . S
C2324 C2325 1.334 . S
C2325 H2302 0.950 . S
C2325 C2324 1.334 . S
C2325 C2326 1.287 . S
C2326 C2325 1.287 . S
C2326 C2327 1.524 . S
C2326 H2345 0.913 . S
C2327 H2303 0.950 . S
C2327 C2326 1.524 . S
C2327 C2328 1.415 . S
C2328 H2304 0.950 . S
C2328 C2323 1.363 . S
C2328 C2327 1.415 . S
C2329 H2305 0.951 . S
C2329 C2330 1.366 . S
C2329 C2331 1.388 . S
C2330 C2329 1.366 . S
C2330 C2334 1.385 . S
C2331 H2306 0.951 . S
C2331 C2329 1.388 . S
C2331 C2332 1.366 . S
C2332 C2331 1.366 . S
C2332 C2333 1.414 . S
C2332 C2335 1.499 . S
C2333 H2307 0.950 . S
C2333 C2332 1.414 . S
C2333 C2334 1.374 . S
C2334 H2308 0.950 . S
C2334 C2330 1.385 . S
C2334 C2333 1.374 . S
C2335 C2332 1.499 . S
C2335 C2336 1.373 . S
C2335 C2337 1.389 . S
C2336 H2309 0.950 . S
C2336 C2322 1.377 . S
C2336 C2335 1.373 . S
C2337 C2321 1.377 . S
C2337 C2335 1.389 . S
C2337 C2338 1.524 . S
C2338 C2337 1.524 . S
C2338 C2339 1.397 . S
C2338 C2343 1.363 . S
C2339 H2310 0.950 . S
C2339 C2338 1.397 . S
C2339 C2340 1.334 . S
C2340 H2311 0.950 . S
C2340 C2339 1.334 . S
C2340 C2341 1.287 . S
C2341 C2340 1.287 . S
C2341 C2342 1.524 . S
C2341 H2344 0.999 . S
C2342 H2312 0.950 . S
C2342 C2341 1.524 . S
C2342 C2343 1.415 . S
C2343 H2313 0.950 . S
C2343 C2338 1.363 . S
C2343 C2342 1.415 . S
H2344 C2341 0.999 . S
H2345 C2326 0.913 . S
H2346 C2364 0.951 . S
H2347 C2366 0.951 . S
H2348 C2368 0.950 . S
H2349 C2369 0.950 . S
H2350 C2371 0.950 . S
H2351 C2374 0.950 . S
H2352 C2375 0.950 . S
H2353 C2377 0.950 . S
H2354 C2378 0.950 . S
H2355 C2379 0.951 . S
H2356 C2381 0.951 . S
H2357 C2383 0.950 . S
H2358 C2384 0.950 . S
H2359 C2386 0.950 . S
H2360 C2389 0.950 . S
H2361 C2390 0.950 . S
H2362 C2392 0.950 . S
H2363 C2393 0.950 . S
C2364 H2346 0.951 . S
C2364 C2365 1.366 . S
C2364 C2366 1.388 . S
C2365 C2364 1.366 . S
C2365 C2369 1.385 . S
C2366 H2347 0.951 . S
C2366 C2364 1.388 . S
C2366 C2367 1.366 . S
C2367 C2366 1.366 . S
C2367 C2368 1.414 . S
C2367 C2370 1.499 . S
C2368 H2348 0.950 . S
C2368 C2367 1.414 . S
C2368 C2369 1.374 . S
C2369 H2349 0.950 . S
C2369 C2365 1.385 . S
C2369 C2368 1.374 . S
C2370 C2367 1.499 . S
C2370 C2371 1.373 . S
C2370 C2372 1.389 . S
C2371 H2350 0.950 . S
C2371 C2370 1.373 . S
C2371 C2387 1.377 . S
C2372 C2370 1.389 . S
C2372 C2373 1.524 . S
C2372 C2386 1.377 . S
C2373 C2372 1.524 . S
C2373 C2374 1.397 . S
C2373 C2378 1.363 . S
C2374 H2351 0.950 . S
C2374 C2373 1.397 . S
C2374 C2375 1.334 . S
C2375 H2352 0.950 . S
C2375 C2374 1.334 . S
C2375 C2376 1.287 . S
C2376 C2375 1.287 . S
C2376 C2377 1.524 . S
C2376 H2395 0.913 . S
C2377 H2353 0.950 . S
C2377 C2376 1.524 . S
C2377 C2378 1.415 . S
C2378 H2354 0.950 . S
C2378 C2373 1.363 . S
C2378 C2377 1.415 . S
C2379 H2355 0.951 . S
C2379 C2380 1.366 . S
C2379 C2381 1.388 . S
C2380 C2379 1.366 . S
C2380 C2384 1.385 . S
C2381 H2356 0.951 . S
C2381 C2379 1.388 . S
C2381 C2382 1.366 . S
C2382 C2381 1.366 . S
C2382 C2383 1.414 . S
C2382 C2385 1.499 . S
C2383 H2357 0.950 . S
C2383 C2382 1.414 . S
C2383 C2384 1.374 . S
C2384 H2358 0.950 . S
C2384 C2380 1.385 . S
C2384 C2383 1.374 . S
C2385 C2382 1.499 . S
C2385 C2386 1.373 . S
C2385 C2387 1.389 . S
C2386 H2359 0.950 . S
C2386 C2372 1.377 . S
C2386 C2385 1.373 . S
C2387 C2371 1.377 . S
C2387 C2385 1.389 . S
C2387 C2388 1.524 . S
C2388 C2387 1.524 . S
C2388 C2389 1.397 . S
C2388 C2393 1.363 . S
C2389 H2360 0.950 . S
C2389 C2388 1.397 . S
C2389 C2390 1.334 . S
C2390 H2361 0.950 . S
C2390 C2389 1.334 . S
C2390 C2391 1.287 . S
C2391 C2390 1.287 . S
C2391 C2392 1.524 . S
C2391 H2394 0.999 . S
C2392 H2362 0.950 . S
C2392 C2391 1.524 . S
C2392 C2393 1.415 . S
C2393 H2363 0.950 . S
C2393 C2388 1.363 . S
C2393 C2392 1.415 . S
H2394 C2391 0.999 . S
H2395 C2376 0.913 . S
H2396 C2414 0.951 . S
H2397 C2416 0.951 . S
H2398 C2418 0.950 . S
H2399 C2419 0.950 . S
H2400 C2421 0.950 . S
H2401 C2424 0.950 . S
H2402 C2425 0.950 . S
H2403 C2427 0.950 . S
H2404 C2428 0.950 . S
H2405 C2429 0.951 . S
H2406 C2431 0.951 . S
H2407 C2433 0.950 . S
H2408 C2434 0.950 . S
H2409 C2436 0.950 . S
H2410 C2439 0.950 . S
H2411 C2440 0.950 . S
H2412 C2442 0.950 . S
H2413 C2443 0.950 . S
C2414 H2396 0.951 . S
C2414 C2415 1.366 . S
C2414 C2416 1.388 . S
C2415 C2414 1.366 . S
C2415 C2419 1.385 . S
C2416 H2397 0.951 . S
C2416 C2414 1.388 . S
C2416 C2417 1.366 . S
C2417 C2416 1.366 . S
C2417 C2418 1.414 . S
C2417 C2420 1.499 . S
C2418 H2398 0.950 . S
C2418 C2417 1.414 . S
C2418 C2419 1.374 . S
C2419 H2399 0.950 . S
C2419 C2415 1.385 . S
C2419 C2418 1.374 . S
C2420 C2417 1.499 . S
C2420 C2421 1.373 . S
C2420 C2422 1.389 . S
C2421 H2400 0.950 . S
C2421 C2420 1.373 . S
C2421 C2437 1.377 . S
C2422 C2420 1.389 . S
C2422 C2423 1.524 . S
C2422 C2436 1.377 . S
C2423 C2422 1.524 . S
C2423 C2424 1.397 . S
C2423 C2428 1.363 . S
C2424 H2401 0.950 . S
C2424 C2423 1.397 . S
C2424 C2425 1.334 . S
C2425 H2402 0.950 . S
C2425 C2424 1.334 . S
C2425 C2426 1.287 . S
C2426 C2425 1.287 . S
C2426 C2427 1.524 . S
C2426 H2445 0.913 . S
C2427 H2403 0.950 . S
C2427 C2426 1.524 . S
C2427 C2428 1.415 . S
C2428 H2404 0.950 . S
C2428 C2423 1.363 . S
C2428 C2427 1.415 . S
C2429 H2405 0.951 . S
C2429 C2430 1.366 . S
C2429 C2431 1.388 . S
C2430 C2429 1.366 . S
C2430 C2434 1.385 . S
C2431 H2406 0.951 . S
C2431 C2429 1.388 . S
C2431 C2432 1.366 . S
C2432 C2431 1.366 . S
C2432 C2433 1.414 . S
C2432 C2435 1.499 . S
C2433 H2407 0.950 . S
C2433 C2432 1.414 . S
C2433 C2434 1.374 . S
C2434 H2408 0.950 . S
C2434 C2430 1.385 . S
C2434 C2433 1.374 . S
C2435 C2432 1.499 . S
C2435 C2436 1.373 . S
C2435 C2437 1.389 . S
C2436 H2409 0.950 . S
C2436 C2422 1.377 . S
C2436 C2435 1.373 . S
C2437 C2421 1.377 . S
C2437 C2435 1.389 . S
C2437 C2438 1.524 . S
C2438 C2437 1.524 . S
C2438 C2439 1.397 . S
C2438 C2443 1.363 . S
C2439 H2410 0.950 . S
C2439 C2438 1.397 . S
C2439 C2440 1.334 . S
C2440 H2411 0.950 . S
C2440 C2439 1.334 . S
C2440 C2441 1.287 . S
C2441 C2440 1.287 . S
C2441 C2442 1.524 . S
C2441 H2444 0.999 . S
C2442 H2412 0.950 . S
C2442 C2441 1.524 . S
C2442 C2443 1.415 . S
C2443 H2413 0.950 . S
C2443 C2438 1.363 . S
C2443 C2442 1.415 . S
H2444 C2441 0.999 . S
H2445 C2426 0.913 . S
H2446 C2464 0.951 . S
H2447 C2466 0.951 . S
H2448 C2468 0.950 . S
H2449 C2469 0.950 . S
H2450 C2471 0.950 . S
H2451 C2474 0.950 . S
H2452 C2475 0.950 . S
H2453 C2477 0.950 . S
H2454 C2478 0.950 . S
H2455 C2479 0.951 . S
H2456 C2481 0.951 . S
H2457 C2483 0.950 . S
H2458 C2484 0.950 . S
H2459 C2486 0.950 . S
H2460 C2489 0.950 . S
H2461 C2490 0.950 . S
H2462 C2492 0.950 . S
H2463 C2493 0.950 . S
C2464 H2446 0.951 . S
C2464 C2465 1.366 . S
C2464 C2466 1.388 . S
C2465 C2464 1.366 . S
C2465 C2469 1.385 . S
C2466 H2447 0.951 . S
C2466 C2464 1.388 . S
C2466 C2467 1.366 . S
C2467 C2466 1.366 . S
C2467 C2468 1.414 . S
C2467 C2470 1.499 . S
C2468 H2448 0.950 . S
C2468 C2467 1.414 . S
C2468 C2469 1.374 . S
C2469 H2449 0.950 . S
C2469 C2465 1.385 . S
C2469 C2468 1.374 . S
C2470 C2467 1.499 . S
C2470 C2471 1.373 . S
C2470 C2472 1.389 . S
C2471 H2450 0.950 . S
C2471 C2470 1.373 . S
C2471 C2487 1.377 . S
C2472 C2470 1.389 . S
C2472 C2473 1.524 . S
C2472 C2486 1.377 . S
C2473 C2472 1.524 . S
C2473 C2474 1.397 . S
C2473 C2478 1.363 . S
C2474 H2451 0.950 . S
C2474 C2473 1.397 . S
C2474 C2475 1.334 . S
C2475 H2452 0.950 . S
C2475 C2474 1.334 . S
C2475 C2476 1.287 . S
C2476 C2475 1.287 . S
C2476 C2477 1.524 . S
C2476 H2495 0.913 . S
C2477 H2453 0.950 . S
C2477 C2476 1.524 . S
C2477 C2478 1.415 . S
C2478 H2454 0.950 . S
C2478 C2473 1.363 . S
C2478 C2477 1.415 . S
C2479 H2455 0.951 . S
C2479 C2480 1.366 . S
C2479 C2481 1.388 . S
C2480 C2479 1.366 . S
C2480 C2484 1.385 . S
C2481 H2456 0.951 . S
C2481 C2479 1.388 . S
C2481 C2482 1.366 . S
C2482 C2481 1.366 . S
C2482 C2483 1.414 . S
C2482 C2485 1.499 . S
C2483 H2457 0.950 . S
C2483 C2482 1.414 . S
C2483 C2484 1.374 . S
C2484 H2458 0.950 . S
C2484 C2480 1.385 . S
C2484 C2483 1.374 . S
C2485 C2482 1.499 . S
C2485 C2486 1.373 . S
C2485 C2487 1.389 . S
C2486 H2459 0.950 . S
C2486 C2472 1.377 . S
C2486 C2485 1.373 . S
C2487 C2471 1.377 . S
C2487 C2485 1.389 . S
C2487 C2488 1.524 . S
C2488 C2487 1.524 . S
C2488 C2489 1.397 . S
C2488 C2493 1.363 . S
C2489 H2460 0.950 . S
C2489 C2488 1.397 . S
C2489 C2490 1.334 . S
C2490 H2461 0.950 . S
C2490 C2489 1.334 . S
C2490 C2491 1.287 . S
C2491 C2490 1.287 . S
C2491 C2492 1.524 . S
C2491 H2494 0.999 . S
C2492 H2462 0.950 . S
C2492 C2491 1.524 . S
C2492 C2493 1.415 . S
C2493 H2463 0.950 . S
C2493 C2488 1.363 . S
C2493 C2492 1.415 . S
H2494 C2491 0.999 . S
H2495 C2476 0.913 . S
H2496 C2514 0.951 . S
H2497 C2516 0.951 . S
H2498 C2518 0.950 . S
H2499 C2519 0.950 . S
H2500 C2521 0.950 . S
H2501 C2524 0.950 . S
H2502 C2525 0.950 . S
H2503 C2527 0.950 . S
H2504 C2528 0.950 . S
H2505 C2529 0.951 . S
H2506 C2531 0.951 . S
H2507 C2533 0.950 . S
H2508 C2534 0.950 . S
H2509 C2536 0.950 . S
H2510 C2539 0.950 . S
H2511 C2540 0.950 . S
H2512 C2542 0.950 . S
H2513 C2543 0.950 . S
C2514 H2496 0.951 . S
C2514 C2515 1.366 . S
C2514 C2516 1.388 . S
C2515 C2514 1.366 . S
C2515 C2519 1.385 . S
C2516 H2497 0.951 . S
C2516 C2514 1.388 . S
C2516 C2517 1.366 . S
C2517 C2516 1.366 . S
C2517 C2518 1.414 . S
C2517 C2520 1.499 . S
C2518 H2498 0.950 . S
C2518 C2517 1.414 . S
C2518 C2519 1.374 . S
C2519 H2499 0.950 . S
C2519 C2515 1.385 . S
C2519 C2518 1.374 . S
C2520 C2517 1.499 . S
C2520 C2521 1.373 . S
C2520 C2522 1.389 . S
C2521 H2500 0.950 . S
C2521 C2520 1.373 . S
C2521 C2537 1.377 . S
C2522 C2520 1.389 . S
C2522 C2523 1.524 . S
C2522 C2536 1.377 . S
C2523 C2522 1.524 . S
C2523 C2524 1.397 . S
C2523 C2528 1.363 . S
C2524 H2501 0.950 . S
C2524 C2523 1.397 . S
C2524 C2525 1.334 . S
C2525 H2502 0.950 . S
C2525 C2524 1.334 . S
C2525 C2526 1.287 . S
C2526 C2525 1.287 . S
C2526 C2527 1.524 . S
C2526 H2545 0.913 . S
C2527 H2503 0.950 . S
C2527 C2526 1.524 . S
C2527 C2528 1.415 . S
C2528 H2504 0.950 . S
C2528 C2523 1.363 . S
C2528 C2527 1.415 . S
C2529 H2505 0.951 . S
C2529 C2530 1.366 . S
C2529 C2531 1.388 . S
C2530 C2529 1.366 . S
C2530 C2534 1.385 . S
C2531 H2506 0.951 . S
C2531 C2529 1.388 . S
C2531 C2532 1.366 . S
C2532 C2531 1.366 . S
C2532 C2533 1.414 . S
C2532 C2535 1.499 . S
C2533 H2507 0.950 . S
C2533 C2532 1.414 . S
C2533 C2534 1.374 . S
C2534 H2508 0.950 . S
C2534 C2530 1.385 . S
C2534 C2533 1.374 . S
C2535 C2532 1.499 . S
C2535 C2536 1.373 . S
C2535 C2537 1.389 . S
C2536 H2509 0.950 . S
C2536 C2522 1.377 . S
C2536 C2535 1.373 . S
C2537 C2521 1.377 . S
C2537 C2535 1.389 . S
C2537 C2538 1.524 . S
C2538 C2537 1.524 . S
C2538 C2539 1.397 . S
C2538 C2543 1.363 . S
C2539 H2510 0.950 . S
C2539 C2538 1.397 . S
C2539 C2540 1.334 . S
C2540 H2511 0.950 . S
C2540 C2539 1.334 . S
C2540 C2541 1.287 . S
C2541 C2540 1.287 . S
C2541 C2542 1.524 . S
C2541 H2544 0.999 . S
C2542 H2512 0.950 . S
C2542 C2541 1.524 . S
C2542 C2543 1.415 . S
C2543 H2513 0.950 . S
C2543 C2538 1.363 . S
C2543 C2542 1.415 . S
H2544 C2541 0.999 . S
H2545 C2526 0.913 . S
H2546 C2564 0.951 . S
H2547 C2566 0.951 . S
H2548 C2568 0.950 . S
H2549 C2569 0.950 . S
H2550 C2571 0.950 . S
H2551 C2574 0.950 . S
H2552 C2575 0.950 . S
H2553 C2577 0.950 . S
H2554 C2578 0.950 . S
H2555 C2579 0.951 . S
H2556 C2581 0.951 . S
H2557 C2583 0.950 . S
H2558 C2584 0.950 . S
H2559 C2586 0.950 . S
H2560 C2589 0.950 . S
H2561 C2590 0.950 . S
H2562 C2592 0.950 . S
H2563 C2593 0.950 . S
C2564 H2546 0.951 . S
C2564 C2565 1.366 . S
C2564 C2566 1.388 . S
C2565 C2564 1.366 . S
C2565 C2569 1.385 . S
C2566 H2547 0.951 . S
C2566 C2564 1.388 . S
C2566 C2567 1.366 . S
C2567 C2566 1.366 . S
C2567 C2568 1.414 . S
C2567 C2570 1.499 . S
C2568 H2548 0.950 . S
C2568 C2567 1.414 . S
C2568 C2569 1.374 . S
C2569 H2549 0.950 . S
C2569 C2565 1.385 . S
C2569 C2568 1.374 . S
C2570 C2567 1.499 . S
C2570 C2571 1.373 . S
C2570 C2572 1.389 . S
C2571 H2550 0.950 . S
C2571 C2570 1.373 . S
C2571 C2587 1.377 . S
C2572 C2570 1.389 . S
C2572 C2573 1.524 . S
C2572 C2586 1.377 . S
C2573 C2572 1.524 . S
C2573 C2574 1.397 . S
C2573 C2578 1.363 . S
C2574 H2551 0.950 . S
C2574 C2573 1.397 . S
C2574 C2575 1.334 . S
C2575 H2552 0.950 . S
C2575 C2574 1.334 . S
C2575 C2576 1.287 . S
C2576 C2575 1.287 . S
C2576 C2577 1.524 . S
C2576 H2595 0.913 . S
C2577 H2553 0.950 . S
C2577 C2576 1.524 . S
C2577 C2578 1.415 . S
C2578 H2554 0.950 . S
C2578 C2573 1.363 . S
C2578 C2577 1.415 . S
C2579 H2555 0.951 . S
C2579 C2580 1.366 . S
C2579 C2581 1.388 . S
C2580 C2579 1.366 . S
C2580 C2584 1.385 . S
C2581 H2556 0.951 . S
C2581 C2579 1.388 . S
C2581 C2582 1.366 . S
C2582 C2581 1.366 . S
C2582 C2583 1.414 . S
C2582 C2585 1.499 . S
C2583 H2557 0.950 . S
C2583 C2582 1.414 . S
C2583 C2584 1.374 . S
C2584 H2558 0.950 . S
C2584 C2580 1.385 . S
C2584 C2583 1.374 . S
C2585 C2582 1.499 . S
C2585 C2586 1.373 . S
C2585 C2587 1.389 . S
C2586 H2559 0.950 . S
C2586 C2572 1.377 . S
C2586 C2585 1.373 . S
C2587 C2571 1.377 . S
C2587 C2585 1.389 . S
C2587 C2588 1.524 . S
C2588 C2587 1.524 . S
C2588 C2589 1.397 . S
C2588 C2593 1.363 . S
C2589 H2560 0.950 . S
C2589 C2588 1.397 . S
C2589 C2590 1.334 . S
C2590 H2561 0.950 . S
C2590 C2589 1.334 . S
C2590 C2591 1.287 . S
C2591 C2590 1.287 . S
C2591 C2592 1.524 . S
C2591 H2594 0.999 . S
C2592 H2562 0.950 . S
C2592 C2591 1.524 . S
C2592 C2593 1.415 . S
C2593 H2563 0.950 . S
C2593 C2588 1.363 . S
C2593 C2592 1.415 . S
H2594 C2591 0.999 . S
H2595 C2576 0.913 . S
H2596 C2614 0.951 . S
H2597 C2616 0.951 . S
H2598 C2618 0.950 . S
H2599 C2619 0.950 . S
H2600 C2621 0.950 . S
H2601 C2624 0.950 . S
H2602 C2625 0.950 . S
H2603 C2627 0.950 . S
H2604 C2628 0.950 . S
H2605 C2629 0.951 . S
H2606 C2631 0.951 . S
H2607 C2633 0.950 . S
H2608 C2634 0.950 . S
H2609 C2636 0.950 . S
H2610 C2639 0.950 . S
H2611 C2640 0.950 . S
H2612 C2642 0.950 . S
H2613 C2643 0.950 . S
C2614 H2596 0.951 . S
C2614 C2615 1.366 . S
C2614 C2616 1.388 . S
C2615 C2614 1.366 . S
C2615 C2619 1.385 . S
C2616 H2597 0.951 . S
C2616 C2614 1.388 . S
C2616 C2617 1.366 . S
C2617 C2616 1.366 . S
C2617 C2618 1.414 . S
C2617 C2620 1.499 . S
C2618 H2598 0.950 . S
C2618 C2617 1.414 . S
C2618 C2619 1.374 . S
C2619 H2599 0.950 . S
C2619 C2615 1.385 . S
C2619 C2618 1.374 . S
C2620 C2617 1.499 . S
C2620 C2621 1.373 . S
C2620 C2622 1.389 . S
C2621 H2600 0.950 . S
C2621 C2620 1.373 . S
C2621 C2637 1.377 . S
C2622 C2620 1.389 . S
C2622 C2623 1.524 . S
C2622 C2636 1.377 . S
C2623 C2622 1.524 . S
C2623 C2624 1.397 . S
C2623 C2628 1.363 . S
C2624 H2601 0.950 . S
C2624 C2623 1.397 . S
C2624 C2625 1.334 . S
C2625 H2602 0.950 . S
C2625 C2624 1.334 . S
C2625 C2626 1.287 . S
C2626 C2625 1.287 . S
C2626 C2627 1.524 . S
C2626 H2645 0.913 . S
C2627 H2603 0.950 . S
C2627 C2626 1.524 . S
C2627 C2628 1.415 . S
C2628 H2604 0.950 . S
C2628 C2623 1.363 . S
C2628 C2627 1.415 . S
C2629 H2605 0.951 . S
C2629 C2630 1.366 . S
C2629 C2631 1.388 . S
C2630 C2629 1.366 . S
C2630 C2634 1.385 . S
C2631 H2606 0.951 . S
C2631 C2629 1.388 . S
C2631 C2632 1.366 . S
C2632 C2631 1.366 . S
C2632 C2633 1.414 . S
C2632 C2635 1.499 . S
C2633 H2607 0.950 . S
C2633 C2632 1.414 . S
C2633 C2634 1.374 . S
C2634 H2608 0.950 . S
C2634 C2630 1.385 . S
C2634 C2633 1.374 . S
C2635 C2632 1.499 . S
C2635 C2636 1.373 . S
C2635 C2637 1.389 . S
C2636 H2609 0.950 . S
C2636 C2622 1.377 . S
C2636 C2635 1.373 . S
C2637 C2621 1.377 . S
C2637 C2635 1.389 . S
C2637 C2638 1.524 . S
C2638 C2637 1.524 . S
C2638 C2639 1.397 . S
C2638 C2643 1.363 . S
C2639 H2610 0.950 . S
C2639 C2638 1.397 . S
C2639 C2640 1.334 . S
C2640 H2611 0.950 . S
C2640 C2639 1.334 . S
C2640 C2641 1.287 . S
C2641 C2640 1.287 . S
C2641 C2642 1.524 . S
C2641 H2644 0.999 . S
C2642 H2612 0.950 . S
C2642 C2641 1.524 . S
C2642 C2643 1.415 . S
C2643 H2613 0.950 . S
C2643 C2638 1.363 . S
C2643 C2642 1.415 . S
H2644 C2641 0.999 . S
H2645 C2626 0.913 . S
H2646 C2664 0.951 . S
H2647 C2666 0.951 . S
H2648 C2668 0.950 . S
H2649 C2669 0.950 . S
H2650 C2671 0.950 . S
H2651 C2674 0.950 . S
H2652 C2675 0.950 . S
H2653 C2677 0.950 . S
H2654 C2678 0.950 . S
H2655 C2679 0.951 . S
H2656 C2681 0.951 . S
H2657 C2683 0.950 . S
H2658 C2684 0.950 . S
H2659 C2686 0.950 . S
H2660 C2689 0.950 . S
H2661 C2690 0.950 . S
H2662 C2692 0.950 . S
H2663 C2693 0.950 . S
C2664 H2646 0.951 . S
C2664 C2665 1.366 . S
C2664 C2666 1.388 . S
C2665 C2664 1.366 . S
C2665 C2669 1.385 . S
C2666 H2647 0.951 . S
C2666 C2664 1.388 . S
C2666 C2667 1.366 . S
C2667 C2666 1.366 . S
C2667 C2668 1.414 . S
C2667 C2670 1.499 . S
C2668 H2648 0.950 . S
C2668 C2667 1.414 . S
C2668 C2669 1.374 . S
C2669 H2649 0.950 . S
C2669 C2665 1.385 . S
C2669 C2668 1.374 . S
C2670 C2667 1.499 . S
C2670 C2671 1.373 . S
C2670 C2672 1.389 . S
C2671 H2650 0.950 . S
C2671 C2670 1.373 . S
C2671 C2687 1.377 . S
C2672 C2670 1.389 . S
C2672 C2673 1.524 . S
C2672 C2686 1.377 . S
C2673 C2672 1.524 . S
C2673 C2674 1.397 . S
C2673 C2678 1.363 . S
C2674 H2651 0.950 . S
C2674 C2673 1.397 . S
C2674 C2675 1.334 . S
C2675 H2652 0.950 . S
C2675 C2674 1.334 . S
C2675 C2676 1.287 . S
C2676 C2675 1.287 . S
C2676 C2677 1.524 . S
C2676 H2695 0.913 . S
C2677 H2653 0.950 . S
C2677 C2676 1.524 . S
C2677 C2678 1.415 . S
C2678 H2654 0.950 . S
C2678 C2673 1.363 . S
C2678 C2677 1.415 . S
C2679 H2655 0.951 . S
C2679 C2680 1.366 . S
C2679 C2681 1.388 . S
C2680 C2679 1.366 . S
C2680 C2684 1.385 . S
C2681 H2656 0.951 . S
C2681 C2679 1.388 . S
C2681 C2682 1.366 . S
C2682 C2681 1.366 . S
C2682 C2683 1.414 . S
C2682 C2685 1.499 . S
C2683 H2657 0.950 . S
C2683 C2682 1.414 . S
C2683 C2684 1.374 . S
C2684 H2658 0.950 . S
C2684 C2680 1.385 . S
C2684 C2683 1.374 . S
C2685 C2682 1.499 . S
C2685 C2686 1.373 . S
C2685 C2687 1.389 . S
C2686 H2659 0.950 . S
C2686 C2672 1.377 . S
C2686 C2685 1.373 . S
C2687 C2671 1.377 . S
C2687 C2685 1.389 . S
C2687 C2688 1.524 . S
C2688 C2687 1.524 . S
C2688 C2689 1.397 . S
C2688 C2693 1.363 . S
C2689 H2660 0.950 . S
C2689 C2688 1.397 . S
C2689 C2690 1.334 . S
C2690 H2661 0.950 . S
C2690 C2689 1.334 . S
C2690 C2691 1.287 . S
C2691 C2690 1.287 . S
C2691 C2692 1.524 . S
C2691 H2694 0.999 . S
C2692 H2662 0.950 . S
C2692 C2691 1.524 . S
C2692 C2693 1.415 . S
C2693 H2663 0.950 . S
C2693 C2688 1.363 . S
C2693 C2692 1.415 . S
H2694 C2691 0.999 . S
H2695 C2676 0.913 . S
H2696 C2714 0.951 . S
H2697 C2716 0.951 . S
H2698 C2718 0.950 . S
H2699 C2719 0.950 . S
H2700 C2721 0.950 . S
H2701 C2724 0.950 . S
H2702 C2725 0.950 . S
H2703 C2727 0.950 . S
H2704 C2728 0.950 . S
H2705 C2729 0.951 . S
H2706 C2731 0.951 . S
H2707 C2733 0.950 . S
H2708 C2734 0.950 . S
H2709 C2736 0.950 . S
H2710 C2739 0.950 . S
H2711 C2740 0.950 . S
H2712 C2742 0.950 . S
H2713 C2743 0.950 . S
C2714 H2696 0.951 . S
C2714 C2715 1.366 . S
C2714 C2716 1.388 . S
C2715 C2714 1.366 . S
C2715 C2719 1.385 . S
C2716 H2697 0.951 . S
C2716 C2714 1.388 . S
C2716 C2717 1.366 . S
C2717 C2716 1.366 . S
C2717 C2718 1.414 . S
C2717 C2720 1.499 . S
C2718 H2698 0.950 . S
C2718 C2717 1.414 . S
C2718 C2719 1.374 . S
C2719 H2699 0.950 . S
C2719 C2715 1.385 . S
C2719 C2718 1.374 . S
C2720 C2717 1.499 . S
C2720 C2721 1.373 . S
C2720 C2722 1.389 . S
C2721 H2700 0.950 . S
C2721 C2720 1.373 . S
C2721 C2737 1.377 . S
C2722 C2720 1.389 . S
C2722 C2723 1.524 . S
C2722 C2736 1.377 . S
C2723 C2722 1.524 . S
C2723 C2724 1.397 . S
C2723 C2728 1.363 . S
C2724 H2701 0.950 . S
C2724 C2723 1.397 . S
C2724 C2725 1.334 . S
C2725 H2702 0.950 . S
C2725 C2724 1.334 . S
C2725 C2726 1.287 . S
C2726 C2725 1.287 . S
C2726 C2727 1.524 . S
C2726 H2745 0.913 . S
C2727 H2703 0.950 . S
C2727 C2726 1.524 . S
C2727 C2728 1.415 . S
C2728 H2704 0.950 . S
C2728 C2723 1.363 . S
C2728 C2727 1.415 . S
C2729 H2705 0.951 . S
C2729 C2730 1.366 . S
C2729 C2731 1.388 . S
C2730 C2729 1.366 . S
C2730 C2734 1.385 . S
C2731 H2706 0.951 . S
C2731 C2729 1.388 . S
C2731 C2732 1.366 . S
C2732 C2731 1.366 . S
C2732 C2733 1.414 . S
C2732 C2735 1.499 . S
C2733 H2707 0.950 . S
C2733 C2732 1.414 . S
C2733 C2734 1.374 . S
C2734 H2708 0.950 . S
C2734 C2730 1.385 . S
C2734 C2733 1.374 . S
C2735 C2732 1.499 . S
C2735 C2736 1.373 . S
C2735 C2737 1.389 . S
C2736 H2709 0.950 . S
C2736 C2722 1.377 . S
C2736 C2735 1.373 . S
C2737 C2721 1.377 . S
C2737 C2735 1.389 . S
C2737 C2738 1.524 . S
C2738 C2737 1.524 . S
C2738 C2739 1.397 . S
C2738 C2743 1.363 . S
C2739 H2710 0.950 . S
C2739 C2738 1.397 . S
C2739 C2740 1.334 . S
C2740 H2711 0.950 . S
C2740 C2739 1.334 . S
C2740 C2741 1.287 . S
C2741 C2740 1.287 . S
C2741 C2742 1.524 . S
C2741 H2744 0.999 . S
C2742 H2712 0.950 . S
C2742 C2741 1.524 . S
C2742 C2743 1.415 . S
C2743 H2713 0.950 . S
C2743 C2738 1.363 . S
C2743 C2742 1.415 . S
H2744 C2741 0.999 . S
H2745 C2726 0.913 . S
H2746 C2764 0.951 . S
H2747 C2766 0.951 . S
H2748 C2768 0.950 . S
H2749 C2769 0.950 . S
H2750 C2771 0.950 . S
H2751 C2774 0.950 . S
H2752 C2775 0.950 . S
H2753 C2777 0.950 . S
H2754 C2778 0.950 . S
H2755 C2779 0.951 . S
H2756 C2781 0.951 . S
H2757 C2783 0.950 . S
H2758 C2784 0.950 . S
H2759 C2786 0.950 . S
H2760 C2789 0.950 . S
H2761 C2790 0.950 . S
H2762 C2792 0.950 . S
H2763 C2793 0.950 . S
C2764 H2746 0.951 . S
C2764 C2765 1.366 . S
C2764 C2766 1.388 . S
C2765 C2764 1.366 . S
C2765 C2769 1.385 . S
C2766 H2747 0.951 . S
C2766 C2764 1.388 . S
C2766 C2767 1.366 . S
C2767 C2766 1.366 . S
C2767 C2768 1.414 . S
C2767 C2770 1.499 . S
C2768 H2748 0.950 . S
C2768 C2767 1.414 . S
C2768 C2769 1.374 . S
C2769 H2749 0.950 . S
C2769 C2765 1.385 . S
C2769 C2768 1.374 . S
C2770 C2767 1.499 . S
C2770 C2771 1.373 . S
C2770 C2772 1.389 . S
C2771 H2750 0.950 . S
C2771 C2770 1.373 . S
C2771 C2787 1.377 . S
C2772 C2770 1.389 . S
C2772 C2773 1.524 . S
C2772 C2786 1.377 . S
C2773 C2772 1.524 . S
C2773 C2774 1.397 . S
C2773 C2778 1.363 . S
C2774 H2751 0.950 . S
C2774 C2773 1.397 . S
C2774 C2775 1.334 . S
C2775 H2752 0.950 . S
C2775 C2774 1.334 . S
C2775 C2776 1.287 . S
C2776 C2775 1.287 . S
C2776 C2777 1.524 . S
C2776 H2795 0.913 . S
C2777 H2753 0.950 . S
C2777 C2776 1.524 . S
C2777 C2778 1.415 . S
C2778 H2754 0.950 . S
C2778 C2773 1.363 . S
C2778 C2777 1.415 . S
C2779 H2755 0.951 . S
C2779 C2780 1.366 . S
C2779 C2781 1.388 . S
C2780 C2779 1.366 . S
C2780 C2784 1.385 . S
C2781 H2756 0.951 . S
C2781 C2779 1.388 . S
C2781 C2782 1.366 . S
C2782 C2781 1.366 . S
C2782 C2783 1.414 . S
C2782 C2785 1.499 . S
C2783 H2757 0.950 . S
C2783 C2782 1.414 . S
C2783 C2784 1.374 . S
C2784 H2758 0.950 . S
C2784 C2780 1.385 . S
C2784 C2783 1.374 . S
C2785 C2782 1.499 . S
C2785 C2786 1.373 . S
C2785 C2787 1.389 . S
C2786 H2759 0.950 . S
C2786 C2772 1.377 . S
C2786 C2785 1.373 . S
C2787 C2771 1.377 . S
C2787 C2785 1.389 . S
C2787 C2788 1.524 . S
C2788 C2787 1.524 . S
C2788 C2789 1.397 . S
C2788 C2793 1.363 . S
C2789 H2760 0.950 . S
C2789 C2788 1.397 . S
C2789 C2790 1.334 . S
C2790 H2761 0.950 . S
C2790 C2789 1.334 . S
C2790 C2791 1.287 . S
C2791 C2790 1.287 . S
C2791 C2792 1.524 . S
C2791 H2794 0.999 . S
C2792 H2762 0.950 . S
C2792 C2791 1.524 . S
C2792 C2793 1.415 . S
C2793 H2763 0.950 . S
C2793 C2788 1.363 . S
C2793 C2792 1.415 . S
H2794 C2791 0.999 . S
H2795 C2776 0.913 . S
H2796 C2814 0.951 . S
H2797 C2816 0.951 . S
H2798 C2818 0.950 . S
H2799 C2819 0.950 . S
H2800 C2821 0.950 . S
H2801 C2824 0.950 . S
H2802 C2825 0.950 . S
H2803 C2827 0.950 . S
H2804 C2828 0.950 . S
H2805 C2829 0.951 . S
H2806 C2831 0.951 . S
H2807 C2833 0.950 . S
H2808 C2834 0.950 . S
H2809 C2836 0.950 . S
H2810 C2839 0.950 . S
H2811 C2840 0.950 . S
H2812 C2842 0.950 . S
H2813 C2843 0.950 . S
C2814 H2796 0.951 . S
C2814 C2815 1.366 . S
C2814 C2816 1.388 . S
C2815 C2814 1.366 . S
C2815 C2819 1.385 . S
C2816 H2797 0.951 . S
C2816 C2814 1.388 . S
C2816 C2817 1.366 . S
C2817 C2816 1.366 . S
C2817 C2818 1.414 . S
C2817 C2820 1.499 . S
C2818 H2798 0.950 . S
C2818 C2817 1.414 . S
C2818 C2819 1.374 . S
C2819 H2799 0.950 . S
C2819 C2815 1.385 . S
C2819 C2818 1.374 . S
C2820 C2817 1.499 . S
C2820 C2821 1.373 . S
C2820 C2822 1.389 . S
C2821 H2800 0.950 . S
C2821 C2820 1.373 . S
C2821 C2837 1.377 . S
C2822 C2820 1.389 . S
C2822 C2823 1.524 . S
C2822 C2836 1.377 . S
C2823 C2822 1.524 . S
C2823 C2824 1.397 . S
C2823 C2828 1.363 . S
C2824 H2801 0.950 . S
C2824 C2823 1.397 . S
C2824 C2825 1.334 . S
C2825 H2802 0.950 . S
C2825 C2824 1.334 . S
C2825 C2826 1.287 . S
C2826 C2825 1.287 . S
C2826 C2827 1.524 . S
C2826 H2845 0.913 . S
C2827 H2803 0.950 . S
C2827 C2826 1.524 . S
C2827 C2828 1.415 . S
C2828 H2804 0.950 . S
C2828 C2823 1.363 . S
C2828 C2827 1.415 . S
C2829 H2805 0.951 . S
C2829 C2830 1.366 . S
C2829 C2831 1.388 . S
C2830 C2829 1.366 . S
C2830 C2834 1.385 . S
C2831 H2806 0.951 . S
C2831 C2829 1.388 . S
C2831 C2832 1.366 . S
C2832 C2831 1.366 . S
C2832 C2833 1.414 . S
C2832 C2835 1.499 . S
C2833 H2807 0.950 . S
C2833 C2832 1.414 . S
C2833 C2834 1.374 . S
C2834 H2808 0.950 . S
C2834 C2830 1.385 . S
C2834 C2833 1.374 . S
C2835 C2832 1.499 . S
C2835 C2836 1.373 . S
C2835 C2837 1.389 . S
C2836 H2809 0.950 . S
C2836 C2822 1.377 . S
C2836 C2835 1.373 . S
C2837 C2821 1.377 . S
C2837 C2835 1.389 . S
C2837 C2838 1.524 . S
C2838 C2837 1.524 . S
C2838 C2839 1.397 . S
C2838 C2843 1.363 . S
C2839 H2810 0.950 . S
C2839 C2838 1.397 . S
C2839 C2840 1.334 . S
C2840 H2811 0.950 . S
C2840 C2839 1.334 . S
C2840 C2841 1.287 . S
C2841 C2840 1.287 . S
C2841 C2842 1.524 . S
C2841 H2844 0.999 . S
C2842 H2812 0.950 . S
C2842 C2841 1.524 . S
C2842 C2843 1.415 . S
C2843 H2813 0.950 . S
C2843 C2838 1.363 . S
C2843 C2842 1.415 . S
H2844 C2841 0.999 . S
H2845 C2826 0.913 . S
H2846 C2864 0.951 . S
H2847 C2866 0.951 . S
H2848 C2868 0.950 . S
H2849 C2869 0.950 . S
H2850 C2871 0.950 . S
H2851 C2874 0.950 . S
H2852 C2875 0.950 . S
H2853 C2877 0.950 . S
H2854 C2878 0.950 . S
H2855 C2879 0.951 . S
H2856 C2881 0.951 . S
H2857 C2883 0.950 . S
H2858 C2884 0.950 . S
H2859 C2886 0.950 . S
H2860 C2889 0.950 . S
H2861 C2890 0.950 . S
H2862 C2892 0.950 . S
H2863 C2893 0.950 . S
C2864 H2846 0.951 . S
C2864 C2865 1.366 . S
C2864 C2866 1.388 . S
C2865 C2864 1.366 . S
C2865 C2869 1.385 . S
C2866 H2847 0.951 . S
C2866 C2864 1.388 . S
C2866 C2867 1.366 . S
C2867 C2866 1.366 . S
C2867 C2868 1.414 . S
C2867 C2870 1.499 . S
C2868 H2848 0.950 . S
C2868 C2867 1.414 . S
C2868 C2869 1.374 . S
C2869 H2849 0.950 . S
C2869 C2865 1.385 . S
C2869 C2868 1.374 . S
C2870 C2867 1.499 . S
C2870 C2871 1.373 . S
C2870 C2872 1.389 . S
C2871 H2850 0.950 . S
C2871 C2870 1.373 . S
C2871 C2887 1.377 . S
C2872 C2870 1.389 . S
C2872 C2873 1.524 . S
C2872 C2886 1.377 . S
C2873 C2872 1.524 . S
C2873 C2874 1.397 . S
C2873 C2878 1.363 . S
C2874 H2851 0.950 . S
C2874 C2873 1.397 . S
C2874 C2875 1.334 . S
C2875 H2852 0.950 . S
C2875 C2874 1.334 . S
C2875 C2876 1.287 . S
C2876 C2875 1.287 . S
C2876 C2877 1.524 . S
C2876 H2895 0.913 . S
C2877 H2853 0.950 . S
C2877 C2876 1.524 . S
C2877 C2878 1.415 . S
C2878 H2854 0.950 . S
C2878 C2873 1.363 . S
C2878 C2877 1.415 . S
C2879 H2855 0.951 . S
C2879 C2880 1.366 . S
C2879 C2881 1.388 . S
C2880 C2879 1.366 . S
C2880 C2884 1.385 . S
C2881 H2856 0.951 . S
C2881 C2879 1.388 . S
C2881 C2882 1.366 . S
C2882 C2881 1.366 . S
C2882 C2883 1.414 . S
C2882 C2885 1.499 . S
C2883 H2857 0.950 . S
C2883 C2882 1.414 . S
C2883 C2884 1.374 . S
C2884 H2858 0.950 . S
C2884 C2880 1.385 . S
C2884 C2883 1.374 . S
C2885 C2882 1.499 . S
C2885 C2886 1.373 . S
C2885 C2887 1.389 . S
C2886 H2859 0.950 . S
C2886 C2872 1.377 . S
C2886 C2885 1.373 . S
C2887 C2871 1.377 . S
C2887 C2885 1.389 . S
C2887 C2888 1.524 . S
C2888 C2887 1.524 . S
C2888 C2889 1.397 . S
C2888 C2893 1.363 . S
C2889 H2860 0.950 . S
C2889 C2888 1.397 . S
C2889 C2890 1.334 . S
C2890 H2861 0.950 . S
C2890 C2889 1.334 . S
C2890 C2891 1.287 . S
C2891 C2890 1.287 . S
C2891 C2892 1.524 . S
C2891 H2894 0.999 . S
C2892 H2862 0.950 . S
C2892 C2891 1.524 . S
C2892 C2893 1.415 . S
C2893 H2863 0.950 . S
C2893 C2888 1.363 . S
C2893 C2892 1.415 . S
H2894 C2891 0.999 . S
H2895 C2876 0.913 . S
H2896 C2914 0.951 . S
H2897 C2916 0.951 . S
H2898 C2918 0.950 . S
H2899 C2919 0.950 . S
H2900 C2921 0.950 . S
H2901 C2924 0.950 . S
H2902 C2925 0.950 . S
H2903 C2927 0.950 . S
H2904 C2928 0.950 . S
H2905 C2929 0.951 . S
H2906 C2931 0.951 . S
H2907 C2933 0.950 . S
H2908 C2934 0.950 . S
H2909 C2936 0.950 . S
H2910 C2939 0.950 . S
H2911 C2940 0.950 . S
H2912 C2942 0.950 . S
H2913 C2943 0.950 . S
C2914 H2896 0.951 . S
C2914 C2915 1.366 . S
C2914 C2916 1.388 . S
C2915 C2914 1.366 . S
C2915 C2919 1.385 . S
C2916 H2897 0.951 . S
C2916 C2914 1.388 . S
C2916 C2917 1.366 . S
C2917 C2916 1.366 . S
C2917 C2918 1.414 . S
C2917 C2920 1.499 . S
C2918 H2898 0.950 . S
C2918 C2917 1.414 . S
C2918 C2919 1.374 . S
C2919 H2899 0.950 . S
C2919 C2915 1.385 . S
C2919 C2918 1.374 . S
C2920 C2917 1.499 . S
C2920 C2921 1.373 . S
C2920 C2922 1.389 . S
C2921 H2900 0.950 . S
C2921 C2920 1.373 . S
C2921 C2937 1.377 . S
C2922 C2920 1.389 . S
C2922 C2923 1.524 . S
C2922 C2936 1.377 . S
C2923 C2922 1.524 . S
C2923 C2924 1.397 . S
C2923 C2928 1.363 . S
C2924 H2901 0.950 . S
C2924 C2923 1.397 . S
C2924 C2925 1.334 . S
C2925 H2902 0.950 . S
C2925 C2924 1.334 . S
C2925 C2926 1.287 . S
C2926 C2925 1.287 . S
C2926 C2927 1.524 . S
C2926 H2945 0.913 . S
C2927 H2903 0.950 . S
C2927 C2926 1.524 . S
C2927 C2928 1.415 . S
C2928 H2904 0.950 . S
C2928 C2923 1.363 . S
C2928 C2927 1.415 . S
C2929 H2905 0.951 . S
C2929 C2930 1.366 . S
C2929 C2931 1.388 . S
C2930 C2929 1.366 . S
C2930 C2934 1.385 . S
C2931 H2906 0.951 . S
C2931 C2929 1.388 . S
C2931 C2932 1.366 . S
C2932 C2931 1.366 . S
C2932 C2933 1.414 . S
C2932 C2935 1.499 . S
C2933 H2907 0.950 . S
C2933 C2932 1.414 . S
C2933 C2934 1.374 . S
C2934 H2908 0.950 . S
C2934 C2930 1.385 . S
C2934 C2933 1.374 . S
C2935 C2932 1.499 . S
C2935 C2936 1.373 . S
C2935 C2937 1.389 . S
C2936 H2909 0.950 . S
C2936 C2922 1.377 . S
C2936 C2935 1.373 . S
C2937 C2921 1.377 . S
C2937 C2935 1.389 . S
C2937 C2938 1.524 . S
C2938 C2937 1.524 . S
C2938 C2939 1.397 . S
C2938 C2943 1.363 . S
C2939 H2910 0.950 . S
C2939 C2938 1.397 . S
C2939 C2940 1.334 . S
C2940 H2911 0.950 . S
C2940 C2939 1.334 . S
C2940 C2941 1.287 . S
C2941 C2940 1.287 . S
C2941 C2942 1.524 . S
C2941 H2944 0.999 . S
C2942 H2912 0.950 . S
C2942 C2941 1.524 . S
C2942 C2943 1.415 . S
C2943 H2913 0.950 . S
C2943 C2938 1.363 . S
C2943 C2942 1.415 . S
H2944 C2941 0.999 . S
H2945 C2926 0.913 . S
H2946 C2964 0.951 . S
H2947 C2966 0.951 . S
H2948 C2968 0.950 . S
H2949 C2969 0.950 . S
H2950 C2971 0.950 . S
H2951 C2974 0.950 . S
H2952 C2975 0.950 . S
H2953 C2977 0.950 . S
H2954 C2978 0.950 . S
H2955 C2979 0.951 . S
H2956 C2981 0.951 . S
H2957 C2983 0.950 . S
H2958 C2984 0.950 . S
H2959 C2986 0.950 . S
H2960 C2989 0.950 . S
H2961 C2990 0.950 . S
H2962 C2992 0.950 . S
H2963 C2993 0.950 . S
C2964 H2946 0.951 . S
C2964 C2965 1.366 . S
C2964 C2966 1.388 . S
C2965 C2964 1.366 . S
C2965 C2969 1.385 . S
C2966 H2947 0.951 . S
C2966 C2964 1.388 . S
C2966 C2967 1.366 . S
C2967 C2966 1.366 . S
C2967 C2968 1.414 . S
C2967 C2970 1.499 . S
C2968 H2948 0.950 . S
C2968 C2967 1.414 . S
C2968 C2969 1.374 . S
C2969 H2949 0.950 . S
C2969 C2965 1.385 . S
C2969 C2968 1.374 . S
C2970 C2967 1.499 . S
C2970 C2971 1.373 . S
C2970 C2972 1.389 . S
C2971 H2950 0.950 . S
C2971 C2970 1.373 . S
C2971 C2987 1.377 . S
C2972 C2970 1.389 . S
C2972 C2973 1.524 . S
C2972 C2986 1.377 . S
C2973 C2972 1.524 . S
C2973 C2974 1.397 . S
C2973 C2978 1.363 . S
C2974 H2951 0.950 . S
C2974 C2973 1.397 . S
C2974 C2975 1.334 . S
C2975 H2952 0.950 . S
C2975 C2974 1.334 . S
C2975 C2976 1.287 . S
C2976 C2975 1.287 . S
C2976 C2977 1.524 . S
C2976 H2995 0.913 . S
C2977 H2953 0.950 . S
C2977 C2976 1.524 . S
C2977 C2978 1.415 . S
C2978 H2954 0.950 . S
C2978 C2973 1.363 . S
C2978 C2977 1.415 . S
C2979 H2955 0.951 . S
C2979 C2980 1.366 . S
C2979 C2981 1.388 . S
C2980 C2979 1.366 . S
C2980 C2984 1.385 . S
C2981 H2956 0.951 . S
C2981 C2979 1.388 . S
C2981 C2982 1.366 . S
C2982 C2981 1.366 . S
C2982 C2983 1.414 . S
C2982 C2985 1.499 . S
C2983 H2957 0.950 . S
C2983 C2982 1.414 . S
C2983 C2984 1.374 . S
C2984 H2958 0.950 . S
C2984 C2980 1.385 . S
C2984 C2983 1.374 . S
C2985 C2982 1.499 . S
C2985 C2986 1.373 . S
C2985 C2987 1.389 . S
C2986 H2959 0.950 . S
C2986 C2972 1.377 . S
C2986 C2985 1.373 . S
C2987 C2971 1.377 . S
C2987 C2985 1.389 . S
C2987 C2988 1.524 . S
C2988 C2987 1.524 . S
C2988 C2989 1.397 . S
C2988 C2993 1.363 . S
C2989 H2960 0.950 . S
C2989 C2988 1.397 . S
C2989 C2990 1.334 . S
C2990 H2961 0.950 . S
C2990 C2989 1.334 . S
C2990 C2991 1.287 . S
C2991 C2990 1.287 . S
C2991 C2992 1.524 . S
C2991 H2994 0.999 . S
C2992 H2962 0.950 . S
C2992 C2991 1.524 . S
C2992 C2993 1.415 . S
C2993 H2963 0.950 . S
C2993 C2988 1.363 . S
C2993 C2992 1.415 . S
H2994 C2991 0.999 . S
H2995 C2976 0.913 . S
C630 C286 2.552 . S
C615 N2 2.531 . S
C680 C325 2.897 . S
C665 C7 2.943 . S
C730 C375 2.152 . S
C715 N12 2.069 1_565 S
C765 C16 2.217 . S
C780 C414 2.208 . S
C830 C454 2.629 . S
C815 C30 2.689 . S
C880 C495 2.036 . S
C865 N35 1.970 . S
C915 C39 2.518 . S
C930 C525 2.480 . S
C980 C575 2.390 . S
C965 N25 2.295 1_565 S
C1030 C282 1.074 . S
C1015 N58 1.038 . S
C1065 N81 1.519 . S
C1080 C331 1.572 . S
C1130 C365 1.885 . S
C1115 N104 1.896 . S
C1165 N127 1.549 . S
C1180 C406 1.648 . S
C1230 C446 0.162 . S
C1215 N48 0.471 . S
C1280 C485 2.506 . S
C1265 N71 2.494 . S
C1315 N94 0.754 . S
C1330 C531 0.752 . S
C1380 C565 1.976 . S
C1365 N117 1.970 . S
C1415 C85 2.112 . S
C1430 C294 2.178 . S
C1465 C122 0.600 1_556 S
C1480 C442 0.592 . S
C1515 C53 0.894 . S
C1530 C491 0.895 . S
C1580 C535 2.267 . S
C1565 C76 2.308 . S
C1630 C571 1.302 . S
C1615 C99 1.304 . S
C1680 C371 1.072 . S
C1665 C131 1.051 . S
C1730 C402 0.348 . S
C1715 C62 0.525 . S
C1765 C108 0.869 . S
C1780 C335 0.868 . S
C1830 C566 2.613 . S
C1815 N140 2.623 . S
C1865 C145 2.697 . S
C1880 C445 2.648 . S
C1930 C486 2.083 . S
C1915 N150 1.986 . S
C1965 C154 2.490 . S
C1980 C534 2.476 . S
C2030 C334 2.903 . S
C2015 C168 2.956 . S
C2065 N173 1.914 . S
C2080 C366 1.978 . S
C2130 C405 2.219 . S
C2115 C177 2.249 . S
C2180 C295 2.515 . S
C2165 N163 2.428 . S
C2230 C562 1.289 . S
C2215 C200 1.296 . S
C2280 C451 0.702 . S
C2265 N219 0.715 . S
C2315 N242 0.608 . S
C2330 C482 0.590 . S
C2380 C526 2.241 . S
C2365 C269 2.277 . S
C2430 C326 0.852 . S
C2415 C191 0.857 . S
C2465 N209 1.038 . S
C2480 C362 1.053 . S
C2515 N232 0.697 . S
C2530 C411 0.342 . S
C2565 C260 2.251 . S
C2580 C285 2.272 . S
C2615 C223 2.036 . S
C2630 C574 2.063 . S
C2665 N255 1.459 . S
C2680 C322 1.532 . S
C2715 N186 1.997 . S
C2730 C374 1.986 . S
C2780 C415 1.619 . S
C2765 C214 1.605 . S
C2830 C291 1.382 . S
C2815 C237 1.387 . S
C2880 C494 2.422 . S
C2865 N265 2.355 . S
C2930 C522 0.747 . S
C2915 N196 0.748 . S
C2980 C455 0.125 . S
C2965 C246 0.254 . S
