# Generated by pormake.
# Topology tsx, (6,3)-cn, num edge types: 1
# Building blocks:
#     Node 0, Type 0, BuildingBlock: JUFBIX_clean_sbu_0, # of connection points: 6
#     Node 1, Type 0, BuildingBlock: JUFBIX_clean_sbu_0, # of connection points: 6
#     Node 2, Type 1, BuildingBlock: OLANEW_clean_sbu_2, # of connection points: 3
#     Node 3, Type 1, BuildingBlock: OLANEW_clean_sbu_2, # of connection points: 3
#     Node 4, Type 1, BuildingBlock: OLANEW_clean_sbu_2, # of connection points: 3
#     Node 5, Type 1, BuildingBlock: OLANEW_clean_sbu_2, # of connection points: 3
#     Edge 6, Type (0, 1), BuildingBlock: ZUJKAS_clean_linker_0, # of connection points: 2
#     Edge 7, Type (0, 1), BuildingBlock: ZUJKAS_clean_linker_0, # of connection points: 2
#     Edge 8, Type (0, 1), BuildingBlock: ZUJKAS_clean_linker_0, # of connection points: 2
#     Edge 9, Type (0, 1), BuildingBlock: ZUJKAS_clean_linker_0, # of connection points: 2
#     Edge 10, Type (0, 1), BuildingBlock: ZUJKAS_clean_linker_0, # of connection points: 2
#     Edge 11, Type (0, 1), BuildingBlock: ZUJKAS_clean_linker_0, # of connection points: 2
#     Edge 12, Type (0, 1), BuildingBlock: ZUJKAS_clean_linker_0, # of connection points: 2
#     Edge 13, Type (0, 1), BuildingBlock: ZUJKAS_clean_linker_0, # of connection points: 2
#     Edge 14, Type (0, 1), BuildingBlock: ZUJKAS_clean_linker_0, # of connection points: 2
#     Edge 15, Type (0, 1), BuildingBlock: ZUJKAS_clean_linker_0, # of connection points: 2
#     Edge 16, Type (0, 1), BuildingBlock: ZUJKAS_clean_linker_0, # of connection points: 2
#     Edge 17, Type (0, 1), BuildingBlock: ZUJKAS_clean_linker_0, # of connection points: 2
# Relax obj value: 0.062
# Max RMSD: 0.102
# Mean RMSD: 0.073
data_MOF--net-tsx--node1-JUFBIX_clean_sbu_0--node2-OLANEW_clean_sbu_2--edge1-ZUJKAS_clean_linker_0
_symmetry_space_group_name_H-M    P1
_symmetry_Int_Tables_number       1
_symmetry_cell_setting            triclinic
loop_
_symmetry_equiv_pos_as_xyz
'x, y, z'
_cell_length_a     27.904338
_cell_length_b     32.703958
_cell_length_c     43.392463
_cell_angle_alpha  97.771659
_cell_angle_beta   89.32524
_cell_angle_gamma 97.795721
loop_
_atom_site_label
_atom_site_type_symbol
_atom_site_fract_x
_atom_site_fract_y
_atom_site_fract_z
_atom_type_partial_charge
Co0 Co 0.03691 0.97839 0.00283 0.0
C1 C 0.99158 0.00238 0.95207 0.0
Co2 Co 0.98241 0.02105 0.01501 0.0
C3 C 0.09913 0.91355 0.00291 0.0
C4 C 0.11514 0.95126 0.96646 0.0
N5 N 0.08468 0.94552 0.99031 0.0
N6 N 0.1377 0.89943 0.98794 0.0
C7 C 0.14754 0.92305 0.9649 0.0
H8 H 0.08253 0.90172 0.02318 0.0
H9 H 0.11434 0.97497 0.95141 0.0
C10 C 0.02829 0.99715 0.06575 0.0
N11 N 0.93476 0.0541 0.02777 0.0
C12 C 0.92026 0.0862 0.01534 0.0
C13 C 0.90614 0.04979 0.05273 0.0
N14 N 0.88412 0.1022 0.03186 0.0
C15 C 0.87527 0.07934 0.05538 0.0
C16 C 0.94628 0.93582 0.00845 0.0
O17 O 0.05133 0.9765 0.04512 0.0
O18 O 0.9971 0.0184 0.05735 0.0
O19 O 0.93581 0.97274 0.01429 0.0
O20 O 0.98996 0.93038 0.00268 0.0
O21 O 0.96864 0.02345 0.97255 0.0
H22 H 0.90725 0.02629 0.06792 0.0
H23 H 0.93604 0.09773 0.99474 0.0
O24 O 0.02202 0.98056 0.96064 0.0
O25 O 0.08336 0.02682 0.00302 0.0
O26 O 0.02934 0.069 0.01552 0.0
C27 C 0.07282 0.06368 0.00903 0.0
H28 H 0.17608 0.92016 0.94796 0.0
H29 H 0.84757 0.08305 0.07282 0.0
Co30 Co 0.5116 0.47324 0.49573 0.0
C31 C 0.47322 0.50344 0.4452 0.0
Co32 Co 0.4592 0.51757 0.50829 0.0
C33 C 0.5962 0.43045 0.49699 0.0
C34 C 0.54941 0.40687 0.45802 0.0
N35 N 0.55475 0.43602 0.4833 0.0
N36 N 0.61695 0.39901 0.48109 0.0
C37 C 0.5875 0.3842 0.45656 0.0
H38 H 0.61076 0.44905 0.51818 0.0
H39 H 0.51921 0.4019 0.44193 0.0
C40 C 0.49826 0.48786 0.55886 0.0
N41 N 0.41478 0.55376 0.52072 0.0
C42 C 0.40814 0.58994 0.51064 0.0
C43 C 0.38004 0.54766 0.54211 0.0
N44 N 0.37032 0.6064 0.52479 0.0
C45 C 0.35272 0.57983 0.54465 0.0
C46 C 0.41727 0.43467 0.49824 0.0
O47 O 0.52118 0.46727 0.53808 0.0
O48 O 0.46964 0.5116 0.55068 0.0
O49 O 0.40831 0.47185 0.50527 0.0
O50 O 0.46061 0.42829 0.49279 0.0
O51 O 0.44941 0.52344 0.46582 0.0
H52 H 0.37467 0.52123 0.55491 0.0
H53 H 0.42994 0.60339 0.49279 0.0
O54 O 0.50178 0.47978 0.45353 0.0
O55 O 0.56237 0.51836 0.4988 0.0
O56 O 0.51052 0.56273 0.51119 0.0
C57 C 0.55384 0.55571 0.50585 0.0
H58 H 0.59228 0.35799 0.43925 0.0
H59 H 0.32243 0.58348 0.56011 0.0
O60 O 0.10265 0.02413 0.41204 0.0
Cd61 Cd 0.10952 0.03447 0.46867 0.0
O62 O 0.05987 0.07511 0.408 0.0
Cd63 Cd 0.05184 0.09899 0.45685 0.0
O64 O 0.01034 0.14338 0.48355 0.0
C65 C 0.96468 0.13401 0.48392 0.0
O66 O 0.94534 0.09737 0.47003 0.0
C67 C 0.08107 0.04515 0.39537 0.0
C68 C 0.15611 0.97061 0.48596 0.0
O69 O 0.10984 0.96705 0.48457 0.0
O70 O 0.18026 0.00484 0.48004 0.0
O71 O 0.97435 0.03345 0.60949 0.0
Cd72 Cd 0.97674 0.0327 0.55324 0.0
O73 O 0.02414 0.98671 0.60869 0.0
Cd74 Cd 0.01018 0.96548 0.5594 0.0
O75 O 0.95934 0.91539 0.53487 0.0
C76 C 0.95623 0.88147 0.54648 0.0
O77 O 0.98547 0.87917 0.56953 0.0
C78 C 1.00032 0.01311 0.62395 0.0
C79 C 0.04913 0.09503 0.5395 0.0
O80 O 0.00616 0.10283 0.54622 0.0
O81 O 0.0578 0.0574 0.53869 0.0
O82 O 0.50403 0.4423 0.89958 0.0
Cd83 Cd 0.49555 0.43896 0.95536 0.0
O84 O 0.52304 0.51041 0.90458 0.0
Cd85 Cd 0.50169 0.5221 0.9533 0.0
O86 O 0.45339 0.56247 0.97824 0.0
C87 C 0.43587 0.58399 0.95997 0.0
O88 O 0.44875 0.57934 0.9306 0.0
C89 C 0.51742 0.47528 0.8875 0.0
C90 C 0.55901 0.38695 0.97279 0.0
O91 O 0.51614 0.37222 0.96304 0.0
O92 O 0.57154 0.42642 0.97493 0.0
O93 O 0.46606 0.55997 0.1054 0.0
Cd94 Cd 0.46799 0.56077 0.04901 0.0
O95 O 0.50984 0.50854 0.10246 0.0
Cd96 Cd 0.49698 0.4905 0.05264 0.0
O97 O 0.4505 0.43993 0.02505 0.0
C98 C 0.45753 0.40335 0.02891 0.0
O99 O 0.49453 0.39893 0.04604 0.0
C100 C 0.48915 0.53629 0.11879 0.0
C101 C 0.54729 0.61588 0.03356 0.0
O102 O 0.50609 0.62816 0.03971 0.0
O103 O 0.55081 0.57733 0.03422 0.0
H104 H 0.1664 0.06224 0.99037 0.0
H105 H 0.23003 0.12132 0.98963 0.0
H106 H 0.12984 0.20567 0.02454 0.0
H107 H 0.06566 0.14665 0.0254 0.0
H108 H 0.23025 0.19559 0.95802 0.0
H109 H 0.24742 0.22991 0.08694 0.0
H110 H 0.21836 0.18058 0.06756 0.0
H111 H 0.18749 0.22566 0.07092 0.0
C112 C 0.15777 0.09333 0.99791 0.0
C113 C 0.11099 0.09971 0.00817 0.0
C114 C 0.19417 0.12704 0.99732 0.0
C115 C 0.18467 0.16773 0.00722 0.0
C116 C 0.13793 0.17439 0.01707 0.0
H117 H 0.37206 0.4021 0.99787 0.0
H118 H 0.30587 0.34423 0.98934 0.0
C119 C 0.10133 0.14066 0.01751 0.0
C120 C 0.22421 0.20296 0.00792 0.0
H121 H 0.29674 0.27438 0.05755 0.0
C122 C 0.2447 0.21302 0.97973 0.0
C123 C 0.24317 0.22523 0.03632 0.0
C124 C 0.22337 0.2148 0.06724 0.0
C125 C 0.28373 0.24499 0.97925 0.0
C126 C 0.30255 0.26728 0.00766 0.0
C127 C 0.28203 0.25721 0.03581 0.0
C128 C 0.34433 0.30061 0.00897 0.0
C129 C 0.30535 0.25423 0.94852 0.0
C130 C 0.38807 0.29491 0.02227 0.0
C131 C 0.42594 0.32775 0.02707 0.0
C132 C 0.42052 0.36712 0.01902 0.0
C133 C 0.37738 0.3722 0.00437 0.0
C134 C 0.33955 0.33918 0.99944 0.0
H135 H 0.29157 0.23004 0.92901 0.0
H136 H 0.29619 0.28469 0.94358 0.0
H137 H 0.34539 0.25653 0.94951 0.0
H138 H 0.3924 0.26532 0.02976 0.0
H139 H 0.45871 0.32267 0.03826 0.0
H140 H 0.23185 0.89277 0.97588 0.0
H141 H 0.27477 0.83472 0.98301 0.0
H142 H 0.14794 0.7743 0.02457 0.0
H143 H 0.10383 0.83204 0.01639 0.0
H144 H 0.29637 0.79928 0.03494 0.0
H145 H 0.17588 0.68751 0.95185 0.0
H146 H 0.17501 0.74299 0.95541 0.0
H147 H 0.14744 0.71381 0.98471 0.0
C148 C 0.21281 0.8671 0.98636 0.0
C149 C 0.16402 0.86672 0.99497 0.0
C150 C 0.23765 0.8341 0.99076 0.0
C151 C 0.2144 0.79989 0.00391 0.0
C152 C 0.16635 0.80011 0.01391 0.0
H153 H 0.40045 0.60277 0.01909 0.0
H154 H 0.34267 0.65185 0.03561 0.0
C155 C 0.14131 0.83326 0.00944 0.0
C156 C 0.24035 0.76341 0.00513 0.0
H157 H 0.24483 0.66426 0.96964 0.0
C158 C 0.28473 0.76942 0.02118 0.0
C159 C 0.22511 0.72459 0.987 0.0
C160 C 0.17846 0.71664 0.96855 0.0
C161 C 0.31551 0.73848 0.01821 0.0
C162 C 0.30115 0.7004 0.999 0.0
C163 C 0.25557 0.6935 0.98443 0.0
C164 C 0.33539 0.67001 0.98992 0.0
C165 C 0.36445 0.74776 0.03394 0.0
C166 C 0.3499 0.66365 0.95881 0.0
C167 C 0.38251 0.63581 0.94936 0.0
C168 C 0.40137 0.61347 0.9708 0.0
C169 C 0.38668 0.61963 0.00204 0.0
C170 C 0.35383 0.64771 0.01153 0.0
H171 H 0.37245 0.78074 0.04478 0.0
H172 H 0.36568 0.72751 0.0524 0.0
H173 H 0.39332 0.74092 0.01694 0.0
H174 H 0.33623 0.68061 0.94177 0.0
H175 H 0.39291 0.63189 0.92512 0.0
H176 H 0.95519 0.85239 2e-05 0.0
H177 H 0.89023 0.79368 -7e-05 0.0
H178 H 0.78543 0.87952 0.01679 0.0
H179 H 0.84961 0.9381 0.01678 0.0
H180 H 0.82355 0.77756 0.0486 0.0
H181 H 0.72926 0.79802 0.9411 0.0
H182 H 0.79053 0.82181 0.95045 0.0
H183 H 0.74033 0.84468 0.96847 0.0
C184 C 0.91827 0.85873 0.00355 0.0
C185 C 0.90758 0.89994 0.00827 0.0
C186 C 0.88125 0.82518 0.0035 0.0
C187 C 0.83297 0.83227 0.00783 0.0
C188 C 0.82232 0.87333 0.01275 0.0
H189 H 0.55161 0.69967 0.03243 0.0
H190 H 0.62292 0.74944 0.02465 0.0
C191 C 0.85917 0.9068 0.01293 0.0
C192 C 0.79359 0.79705 0.00839 0.0
H193 H 0.68572 0.7535 0.97418 0.0
C194 C 0.79369 0.77186 0.03211 0.0
C195 C 0.75471 0.78981 0.98685 0.0
C196 C 0.75375 0.81473 0.96009 0.0
C197 C 0.75486 0.74073 0.03569 0.0
C198 C 0.71537 0.73416 0.01459 0.0
C199 C 0.71594 0.75866 0.99038 0.0
C200 C 0.67215 0.70331 0.01807 0.0
C201 C 0.7555 0.71634 0.0628 0.0
C202 C 0.67596 0.6607 0.01631 0.0
C203 C 0.63525 0.63213 0.02084 0.0
C204 C 0.58991 0.64566 0.027 0.0
C205 C 0.586 0.68821 0.02785 0.0
C206 C 0.62671 0.71672 0.02337 0.0
H207 H 0.78272 0.73156 0.0807 0.0
H208 H 0.71942 0.71259 0.07393 0.0
H209 H 0.7648 0.68485 0.05432 0.0
H210 H 0.71048 0.64956 0.01159 0.0
H211 H 0.63945 0.59954 0.01982 0.0
H212 H 0.86058 0.12072 0.9754 0.0
H213 H 0.80873 0.17235 0.96522 0.0
H214 H 0.79757 0.21034 0.06393 0.0
H215 H 0.8483 0.15826 0.07407 0.0
H216 H 0.71096 0.19593 0.0373 0.0
H217 H 0.83323 0.29709 0.96907 0.0
H218 H 0.82644 0.24322 0.95269 0.0
H219 H 0.85468 0.25924 0.99025 0.0
C220 C 0.84774 0.14067 0.99482 0.0
C221 C 0.85826 0.13541 0.02552 0.0
C222 C 0.81823 0.17024 0.98902 0.0
C223 C 0.79956 0.19557 0.01381 0.0
C224 C 0.81141 0.19114 0.04442 0.0
H225 H 0.64972 0.40894 0.99812 0.0
H226 H 0.70753 0.36264 0.009 0.0
C227 C 0.84032 0.16135 0.05021 0.0
C228 C 0.76502 0.22466 0.00821 0.0
H229 H 0.74998 0.3067 0.96989 0.0
C230 C 0.71964 0.22029 0.02268 0.0
C231 C 0.77648 0.25677 0.98944 0.0
C232 C 0.82553 0.26472 0.97472 0.0
C233 C 0.68529 0.24678 0.01869 0.0
C234 C 0.696 0.27783 0.99894 0.0
C235 C 0.7416 0.28261 0.98478 0.0
C236 C 0.66047 0.30577 0.99279 0.0
C237 C 0.63827 0.24171 0.03621 0.0
C238 C 0.61485 0.28922 0.97996 0.0
C239 C 0.58155 0.31557 0.97404 0.0
C240 C 0.59351 0.35906 0.98038 0.0
C241 C 0.63934 0.37558 0.99304 0.0
C242 C 0.67249 0.34917 0.99918 0.0
H243 H 0.64165 0.22572 0.05695 0.0
H244 H 0.62591 0.27231 0.04394 0.0
H245 H 0.61005 0.22242 0.02076 0.0
H246 H 0.60516 0.25588 0.97415 0.0
H247 H 0.54674 0.30183 0.96403 0.0
H248 H 0.64987 0.55077 0.49612 0.0
H249 H 0.71658 0.60793 0.49985 0.0
H250 H 0.61606 0.69644 0.52275 0.0
H251 H 0.5489 0.63937 0.51937 0.0
H252 H 0.73191 0.67797 0.46694 0.0
H253 H 0.71593 0.72325 0.59451 0.0
H254 H 0.68679 0.67429 0.57464 0.0
H255 H 0.66154 0.72147 0.5723 0.0
C256 C 0.64184 0.58237 0.50197 0.0
C257 C 0.59407 0.59049 0.50768 0.0
C258 C 0.68003 0.61499 0.50399 0.0
C259 C 0.67128 0.65632 0.51187 0.0
C260 C 0.62361 0.66468 0.51708 0.0
H261 H 0.88261 0.87878 0.50448 0.0
H262 H 0.81326 0.82416 0.49374 0.0
C263 C 0.5853 0.63204 0.51507 0.0
C264 C 0.71234 0.69044 0.51511 0.0
H265 H 0.7744 0.76464 0.56825 0.0
C266 C 0.74117 0.69709 0.48903 0.0
C267 C 0.72449 0.71496 0.54406 0.0
C268 C 0.6959 0.70807 0.57309 0.0
C269 C 0.782 0.72764 0.49117 0.0
C270 C 0.79392 0.7523 0.52008 0.0
C271 C 0.76495 0.74576 0.54609 0.0
C272 C 0.83742 0.78396 0.52436 0.0
C273 C 0.81283 0.73257 0.46278 0.0
C274 C 0.87396 0.77935 0.54501 0.0
C275 C 0.91343 0.8104 0.55123 0.0
C276 C 0.91702 0.8469 0.53705 0.0
C277 C 0.881 0.85098 0.51568 0.0
C278 C 0.84143 0.81978 0.50945 0.0
H279 H 0.80443 0.70576 0.44415 0.0
H280 H 0.80616 0.76123 0.45339 0.0
H281 H 0.85184 0.73585 0.46886 0.0
H282 H 0.8715 0.75192 0.55675 0.0
H283 H 0.94051 0.80618 0.56777 0.0
H284 H 0.65437 0.40002 0.53884 0.0
H285 H 0.72379 0.36676 0.55195 0.0
H286 H 0.74459 0.32619 0.45452 0.0
H287 H 0.67688 0.36034 0.44131 0.0
H288 H 0.73207 0.28457 0.54101 0.0
H289 H 0.8811 0.37102 0.48203 0.0
H290 H 0.82368 0.39005 0.48943 0.0
H291 H 0.83153 0.3531 0.45557 0.0
C292 C 0.67451 0.38486 0.52022 0.0
C293 C 0.66 0.3827 0.48902 0.0
C294 C 0.71397 0.36569 0.52775 0.0
C295 C 0.73987 0.34453 0.5042 0.0
C296 C 0.72596 0.34314 0.47307 0.0
H297 H 0.86625 0.12637 0.4818 0.0
H298 H 0.81538 0.18091 0.49499 0.0
C299 C 0.68672 0.3622 0.46556 0.0
C300 C 0.7787 0.32061 0.51173 0.0
H301 H 0.8908 0.29961 0.48814 0.0
C302 C 0.76725 0.28844 0.53006 0.0
C303 C 0.82506 0.32621 0.49816 0.0
C304 C 0.84121 0.36232 0.48051 0.0
C305 C 0.79938 0.25962 0.53296 0.0
C306 C 0.84352 0.26252 0.51646 0.0
C307 C 0.85662 0.2968 0.50036 0.0
C308 C 0.87405 0.22836 0.51264 0.0
C309 C 0.7851 0.22583 0.55307 0.0
C310 C 0.92423 0.23675 0.51784 0.0
C311 C 0.95369 0.20562 0.50975 0.0
C312 C 0.93345 0.16554 0.49625 0.0
C313 C 0.88303 0.15681 0.49226 0.0
C314 C 0.85373 0.18796 0.50011 0.0
H315 H 0.76221 0.2369 0.57275 0.0
H316 H 0.76341 0.19894 0.53899 0.0
H317 H 0.81724 0.21503 0.56257 0.0
H318 H 0.94078 0.26775 0.52728 0.0
H319 H 0.99242 0.21339 0.51309 0.0
H320 H 0.42473 0.35188 0.48344 0.0
H321 H 0.36172 0.29285 0.48638 0.0
H322 H 0.25923 0.37744 0.51616 0.0
H323 H 0.32185 0.43675 0.51294 0.0
H324 H 0.31165 0.27446 0.53939 0.0
H325 H 0.18497 0.29664 0.44738 0.0
H326 H 0.24654 0.32242 0.4504 0.0
H327 H 0.20063 0.34208 0.47539 0.0
C328 C 0.38864 0.35799 0.49026 0.0
C329 C 0.37829 0.39906 0.49792 0.0
C330 C 0.35271 0.32419 0.49194 0.0
C331 C 0.30568 0.33075 0.50113 0.0
C332 C 0.29502 0.37168 0.5084 0.0
H333 H 0.04528 0.17871 0.54816 0.0
H334 H 0.10853 0.23447 0.53778 0.0
C335 C 0.33094 0.40554 0.5067 0.0
C336 C 0.26866 0.29479 0.50499 0.0
H337 H 0.15586 0.24763 0.48148 0.0
C338 C 0.27775 0.26834 0.52654 0.0
C339 C 0.22447 0.28698 0.48823 0.0
C340 C 0.21362 0.31327 0.46383 0.0
C341 C 0.24328 0.23491 0.53241 0.0
C342 C 0.19886 0.22737 0.5159 0.0
C343 C 0.18995 0.25355 0.49411 0.0
C344 C 0.1606 0.19318 0.52157 0.0
C345 C 0.25408 0.20875 0.55692 0.0
C346 C 0.16877 0.15143 0.51561 0.0
C347 C 0.13267 0.11944 0.52155 0.0
C348 C 0.08759 0.12868 0.53323 0.0
C349 C 0.0795 0.17054 0.53899 0.0
C350 C 0.11557 0.20245 0.53305 0.0
H351 H 0.28443 0.22443 0.57241 0.0
H352 H 0.22173 0.20163 0.57141 0.0
H353 H 0.2644 0.17882 0.54541 0.0
H354 H 0.20303 0.14358 0.50629 0.0
H355 H 0.14004 0.08753 0.51691 0.0
H356 H 0.27756 0.6215 0.53099 0.0
H357 H 0.24591 0.68585 0.52464 0.0
H358 H 0.38845 0.74124 0.50103 0.0
H359 H 0.42041 0.67653 0.50721 0.0
H360 H 0.27131 0.76356 0.55698 0.0
H361 H 0.30596 0.76581 0.43082 0.0
H362 H 0.30906 0.72017 0.44951 0.0
H363 H 0.35826 0.76216 0.45349 0.0
C364 C 0.30225 0.64735 0.52449 0.0
C365 C 0.35157 0.64393 0.51969 0.0
C366 C 0.28405 0.68408 0.52076 0.0
C367 C 0.31467 0.71824 0.51209 0.0
C368 C 0.36394 0.71498 0.50711 0.0
H369 H 0.25326 0.96581 0.48472 0.0
H370 H 0.29365 0.90612 0.49281 0.0
C371 C 0.38218 0.67803 0.51068 0.0
C372 C 0.29487 0.75749 0.50932 0.0
H373 H 0.2759 0.82454 0.45818 0.0
C374 C 0.27234 0.7769 0.53538 0.0
C375 C 0.29634 0.77491 0.48114 0.0
C376 C 0.3183 0.75458 0.45204 0.0
C377 C 0.25115 0.81317 0.534 0.0
C378 C 0.25207 0.83023 0.50574 0.0
C379 C 0.27534 0.81134 0.47983 0.0
C380 C 0.22776 0.86694 0.50227 0.0
C381 C 0.22821 0.8331 0.56286 0.0
C382 C 0.17731 0.86463 0.50491 0.0
C383 C 0.15409 0.89861 0.50026 0.0
C384 C 0.18092 0.93554 0.49282 0.0
C385 C 0.23154 0.9379 0.49055 0.0
C386 C 0.2547 0.90381 0.49507 0.0
H387 H 0.24112 0.82266 0.58425 0.0
H388 H 0.23597 0.86759 0.56508 0.0
H389 H 0.1884 0.82426 0.5613 0.0
H390 H 0.15578 0.83621 0.50997 0.0
H391 H 0.11506 0.8957 0.50206 0.0
H392 H 0.09092 0.95406 0.09238 0.0
H393 H 0.10346 0.95246 0.14806 0.0
H394 H 0.99836 0.03712 0.17004 0.0
H395 H 0.98519 0.03859 0.11482 0.0
H396 H 0.13373 0.0191 0.1948 0.0
H397 H 0.95112 0.94156 0.21946 0.0
H398 H 0.97438 0.94173 0.18045 0.0
H399 H 0.94918 0.98615 0.19975 0.0
C400 C 0.07039 0.97222 0.1091 0.0
C401 C 0.03687 0.99629 0.09919 0.0
C402 C 0.07759 0.97124 0.14085 0.0
C403 C 0.05115 0.99404 0.16308 0.0
C404 C 0.01828 0.01852 0.15322 0.0
H405 H 0.03233 0.08002 0.35384 0.0
H406 H 0.02875 0.06248 0.29742 0.0
C407 C 0.01105 0.01952 0.12162 0.0
C408 C 0.05861 0.99363 0.19672 0.0
H409 H 0.99719 0.97838 0.26357 0.0
C410 C 0.10421 0.00947 0.20984 0.0
C411 C 0.02003 0.98077 0.21618 0.0
C412 C 0.97106 0.96119 0.20321 0.0
C413 C 0.11142 0.01519 0.2422 0.0
C414 C 0.07209 0.00446 0.26168 0.0
C415 C 0.02716 0.9868 0.24848 0.0
C416 C 0.07553 0.01468 0.29586 0.0
C417 C 0.16022 0.03463 0.25549 0.0
C418 C 0.10297 0.9934 0.3136 0.0
C419 C 0.10506 0.00327 0.34602 0.0
C420 C 0.07974 0.03462 0.36109 0.0
C421 C 0.05239 0.0558 0.34306 0.0
C422 C 0.05019 0.0458 0.3108 0.0
H423 H 0.1854 0.04547 0.23735 0.0
H424 H 0.15617 0.06147 0.2735 0.0
H425 H 0.17666 0.01141 0.26687 0.0
H426 H 0.12238 0.96898 0.3024 0.0
H427 H 0.12637 0.98631 0.35922 0.0
H428 H 0.93834 0.05262 0.92471 0.0
H429 H 0.93236 0.05769 0.86896 0.0
H430 H 0.02512 0.96236 0.84843 0.0
H431 H 0.03103 0.95682 0.9036 0.0
H432 H 0.01098 0.07752 0.82847 0.0
H433 H 0.90934 0.92184 0.7894 0.0
H434 H 0.91186 0.94522 0.82962 0.0
H435 H 0.96126 0.91986 0.81292 0.0
C436 C 0.95695 0.03241 0.90825 0.0
C437 C 0.985 0.0042 0.91856 0.0
C438 C 0.9536 0.03543 0.87649 0.0
C439 C 0.97777 0.00999 0.85464 0.0
C440 C 0.00543 0.98169 0.86489 0.0
H441 H 0.04726 0.97114 0.66197 0.0
H442 H 0.04058 0.97432 0.7184 0.0
C443 C 0.00893 0.97873 0.89648 0.0
C444 C 0.97636 0.01398 0.82113 0.0
H445 H 0.95075 0.95724 0.74996 0.0
C446 C 0.99715 0.05151 0.81125 0.0
C447 C 0.9583 0.97993 0.79884 0.0
C448 C 0.9335 0.93956 0.8082 0.0
C449 C 0.00244 0.05521 0.77948 0.0
C450 C 0.98598 0.0206 0.75722 0.0
C451 C 0.96374 0.98358 0.76715 0.0
C452 C 0.99265 0.0215 0.72346 0.0
C453 C 0.02732 0.09542 0.76993 0.0
C454 C 0.96823 0.04731 0.70774 0.0
C455 C 0.97197 0.04562 0.67545 0.0
C456 C 1.00005 0.01791 0.65836 0.0
C457 C 0.02538 0.99285 0.67438 0.0
C458 C 0.02154 0.99454 0.70662 0.0
H459 H 0.04613 0.11612 0.78981 0.0
H460 H 0.05406 0.08912 0.75132 0.0
H461 H 1.00001 0.11225 0.76055 0.0
H462 H 0.94522 0.06791 0.72031 0.0
H463 H 0.95188 0.06526 0.66383 0.0
H464 H 0.45295 0.52658 0.60834 0.0
H465 H 0.46243 0.52068 0.66335 0.0
H466 H 0.56588 0.43482 0.64016 0.0
H467 H 0.5571 0.44089 0.58489 0.0
H468 H 0.44475 0.4489 0.6923 0.0
H469 H 0.63614 0.52241 0.70765 0.0
H470 H 0.59999 0.5272 0.67441 0.0
H471 H 0.62507 0.47991 0.67658 0.0
C472 C 0.47793 0.50656 0.61487 0.0
C473 C 0.5044 0.48429 0.5922 0.0
C474 C 0.48324 0.50319 0.64634 0.0
C475 C 0.51524 0.47769 0.65586 0.0
C476 C 0.54161 0.45524 0.63335 0.0
H477 H 0.5059 0.40603 0.84351 0.0
H478 H 0.50878 0.40382 0.78691 0.0
C479 C 0.53634 0.45857 0.60177 0.0
C480 C 0.51978 0.47405 0.68935 0.0
H481 H 0.59837 0.49527 0.75101 0.0
C482 C 0.47838 0.45882 0.70513 0.0
C483 C 0.56362 0.4874 0.70603 0.0
C484 C 0.60873 0.50549 0.69046 0.0
C485 C 0.47946 0.45688 0.73722 0.0
C486 C 0.52338 0.46992 0.75388 0.0
C487 C 0.5649 0.48492 0.73808 0.0
C488 C 0.52602 0.47054 0.78805 0.0
C489 C 0.43319 0.44222 0.75319 0.0
C490 C 0.5366 0.50861 0.80741 0.0
C491 C 0.53527 0.51 0.83974 0.0
C492 C 0.52344 0.47326 0.85334 0.0
C493 C 0.51479 0.43494 0.83383 0.0
C494 C 0.5162 0.43361 0.80147 0.0
H495 H 0.40083 0.44207 0.73848 0.0
H496 H 0.43411 0.40998 0.75827 0.0
H497 H 0.42918 0.46233 0.77558 0.0
H498 H 0.54446 0.53745 0.7975 0.0
H499 H 0.54232 0.54003 0.85402 0.0
H500 H 0.51638 0.46206 0.39608 0.0
H501 H 0.51448 0.47254 0.34155 0.0
H502 H 0.42043 0.56648 0.364 0.0
H503 H 0.42248 0.55653 0.419 0.0
H504 H 0.43381 0.46407 0.30152 0.0
H505 H 0.53256 0.62526 0.31616 0.0
H506 H 0.53228 0.59151 0.34585 0.0
H507 H 0.48018 0.61642 0.34014 0.0
C508 C 0.49519 0.48496 0.38952 0.0
C509 C 0.46971 0.50859 0.41195 0.0
C510 C 0.49416 0.49088 0.35831 0.0
C511 C 0.46789 0.52067 0.34882 0.0
C512 C 0.44163 0.54384 0.37096 0.0
H513 H 0.44235 0.58704 0.1611 0.0
H514 H 0.43543 0.58513 0.21727 0.0
C515 C 0.44256 0.5379 0.40231 0.0
C516 C 0.46798 0.52678 0.31559 0.0
H517 H 0.50726 0.59593 0.26532 0.0
C518 C 0.44965 0.49296 0.2936 0.0
C519 C 0.48852 0.56458 0.30538 0.0
C520 C 0.50988 0.60152 0.328 0.0
C521 C 0.45178 0.4957 0.26163 0.0
C522 C 0.47365 0.53304 0.25135 0.0
C523 C 0.49074 0.56731 0.27332 0.0
C524 C 0.48048 0.53637 0.21781 0.0
C525 C 0.43052 0.45858 0.23911 0.0
C526 C 0.50935 0.51055 0.19976 0.0
C527 C 0.51343 0.51154 0.16776 0.0
C528 C 0.48887 0.53858 0.15316 0.0
C529 C 0.46161 0.56574 0.17157 0.0
C530 C 0.45756 0.56469 0.20365 0.0
H531 H 0.40392 0.43716 0.2506 0.0
H532 H 0.41241 0.46853 0.21927 0.0
H533 H 0.45997 0.44091 0.22974 0.0
H534 H 0.52818 0.48909 0.21038 0.0
H535 H 0.53502 0.49042 0.15439 0.0
loop_
_geom_bond_atom_site_label_1
_geom_bond_atom_site_label_2
_geom_bond_distance
_geom_bond_site_symmetry_2
_ccdc_geom_bond_type
Co0 N5 2.057 1_554 S
Co0 O17 2.021 . S
Co0 O20 2.062 1_455 S
Co0 O24 2.117 1_554 S
Co0 O25 2.020 1_565 S
C1 O21 1.273 . S
C1 O24 1.247 1_645 S
Co2 N11 2.057 . S
Co2 O18 2.117 . S
Co2 O19 2.020 1_545 S
Co2 O21 2.021 1_554 S
Co2 O26 2.062 1_655 S
C3 N5 1.316 1_554 S
C3 N6 1.335 1_554 S
C3 H8 0.931 . S
C4 N5 1.375 . S
C4 C7 1.350 . S
C4 H9 0.930 . S
N5 Co0 2.057 1_556 S
N5 C3 1.316 1_556 S
N5 C4 1.375 . S
N6 C3 1.335 1_556 S
N6 C7 1.402 . S
C7 C4 1.350 . S
C7 N6 1.402 . S
C7 H28 0.931 . S
H8 C3 0.931 . S
H9 C4 0.930 . S
C10 O17 1.259 1_545 S
C10 O18 1.258 1_455 S
N11 Co2 2.057 . S
N11 C12 1.316 . S
N11 C13 1.375 . S
C12 N11 1.316 . S
C12 N14 1.347 . S
C12 H23 0.931 1_554 S
C13 N11 1.375 . S
C13 C15 1.350 . S
C13 H22 0.930 . S
N14 C12 1.347 . S
N14 C15 1.373 . S
C15 C13 1.350 . S
C15 N14 1.373 . S
C15 H29 0.931 . S
C16 O19 1.256 . S
C16 O20 1.255 . S
O17 Co0 2.021 . S
O17 C10 1.259 1_565 S
O18 Co2 2.117 . S
O18 C10 1.258 1_655 S
O19 Co2 2.020 1_565 S
O19 C16 1.256 . S
O20 Co0 2.062 1_655 S
O20 C16 1.255 . S
O21 C1 1.273 . S
O21 Co2 2.021 1_556 S
H22 C13 0.930 . S
H23 C12 0.931 1_556 S
O24 Co0 2.117 1_556 S
O24 C1 1.247 1_465 S
O25 Co0 2.020 1_545 S
O25 C27 1.256 . S
O26 Co2 2.062 1_455 S
O26 C27 1.255 . S
C27 O25 1.256 . S
C27 O26 1.255 . S
H28 C7 0.931 . S
H29 C15 0.931 . S
Co30 N35 2.057 . S
Co30 O47 2.021 . S
Co30 O50 2.062 . S
Co30 O54 2.117 . S
Co30 O55 2.020 . S
C31 O51 1.259 . S
C31 O54 1.258 . S
Co32 N41 2.057 . S
Co32 O48 2.117 . S
Co32 O49 2.020 . S
Co32 O51 2.021 . S
Co32 O56 2.062 . S
C33 N35 1.316 . S
C33 N36 1.347 . S
C33 H38 0.931 . S
C34 N35 1.375 . S
C34 C37 1.350 . S
C34 H39 0.930 . S
N35 Co30 2.057 . S
N35 C33 1.316 . S
N35 C34 1.375 . S
N36 C33 1.347 . S
N36 C37 1.373 . S
C37 C34 1.350 . S
C37 N36 1.373 . S
C37 H58 0.931 . S
H38 C33 0.931 . S
H39 C34 0.930 . S
C40 O47 1.259 . S
C40 O48 1.258 . S
N41 Co32 2.057 . S
N41 C42 1.316 . S
N41 C43 1.375 . S
C42 N41 1.316 . S
C42 N44 1.347 . S
C42 H53 0.931 . S
C43 N41 1.375 . S
C43 C45 1.350 . S
C43 H52 0.930 . S
N44 C42 1.347 . S
N44 C45 1.373 . S
C45 C43 1.350 . S
C45 N44 1.373 . S
C45 H59 0.931 . S
C46 O49 1.256 . S
C46 O50 1.255 . S
O47 Co30 2.021 . S
O47 C40 1.259 . S
O48 Co32 2.117 . S
O48 C40 1.258 . S
O49 Co32 2.020 . S
O49 C46 1.256 . S
O50 Co30 2.062 . S
O50 C46 1.255 . S
O51 C31 1.259 . S
O51 Co32 2.021 . S
H52 C43 0.930 . S
H53 C42 0.931 . S
O54 Co30 2.117 . S
O54 C31 1.258 . S
O55 Co30 2.020 . S
O55 C57 1.256 . S
O56 Co32 2.062 . S
O56 C57 1.255 . S
C57 O55 1.256 . S
C57 O56 1.255 . S
H58 C37 0.931 . S
H59 C45 0.931 . S
O60 Cd61 2.300 . S
O60 C67 1.275 1_565 S
Cd61 O60 2.300 . S
Cd61 O69 2.381 . S
Cd61 O70 2.378 . S
O62 Cd63 2.385 . S
O62 C67 1.255 . S
Cd63 O62 2.385 . S
Cd63 O64 2.317 1_455 S
O64 Cd63 2.317 1_655 S
O64 C65 1.232 . S
C65 O64 1.232 . S
C65 O66 1.218 . S
O66 C65 1.218 . S
C67 O60 1.275 1_545 S
C67 O62 1.255 . S
C68 O69 1.258 . S
C68 O70 1.256 . S
O69 Cd61 2.381 . S
O69 C68 1.258 . S
O70 Cd61 2.378 . S
O70 C68 1.256 . S
O71 Cd72 2.300 . S
O71 C78 1.277 . S
Cd72 O71 2.300 . S
Cd72 O80 2.381 . S
Cd72 O81 2.378 . S
O73 Cd74 2.385 . S
O73 C78 1.254 1_565 S
Cd74 O73 2.385 . S
Cd74 O75 2.317 1_455 S
O75 Cd74 2.317 1_655 S
O75 C76 1.232 . S
C76 O75 1.232 . S
C76 O77 1.218 . S
O77 C76 1.218 . S
C78 O71 1.277 . S
C78 O73 1.254 1_545 S
C79 O80 1.258 . S
C79 O81 1.256 . S
O80 Cd72 2.381 . S
O80 C79 1.258 . S
O81 Cd72 2.378 . S
O81 C79 1.256 . S
O82 Cd83 2.300 . S
O82 C89 1.275 . S
Cd83 O82 2.300 . S
Cd83 O91 2.381 . S
Cd83 O92 2.378 . S
O84 Cd85 2.385 . S
O84 C89 1.255 . S
Cd85 O84 2.385 . S
Cd85 O86 2.317 . S
O86 Cd85 2.317 . S
O86 C87 1.232 . S
C87 O86 1.232 . S
C87 O88 1.218 . S
O88 C87 1.218 . S
C89 O82 1.275 . S
C89 O84 1.255 . S
C90 O91 1.258 . S
C90 O92 1.256 . S
O91 Cd83 2.381 . S
O91 C90 1.258 . S
O92 Cd83 2.378 . S
O92 C90 1.256 . S
O93 Cd94 2.300 . S
O93 C100 1.275 . S
Cd94 O93 2.300 . S
Cd94 O102 2.381 . S
Cd94 O103 2.378 . S
O95 Cd96 2.385 . S
O95 C100 1.255 . S
Cd96 O95 2.385 . S
Cd96 O97 2.317 . S
O97 Cd96 2.317 . S
O97 C98 1.232 . S
C98 O97 1.232 . S
C98 O99 1.218 . S
O99 C98 1.218 . S
C100 O93 1.275 . S
C100 O95 1.255 . S
C101 O102 1.258 . S
C101 O103 1.256 . S
O102 Cd94 2.381 . S
O102 C101 1.258 . S
O103 Cd94 2.378 . S
O103 C101 1.256 . S
H104 C112 0.929 . S
H105 C114 0.930 . S
H106 C116 0.930 . S
H107 C119 0.929 . S
H108 C122 0.930 . S
H109 C124 0.960 . S
H110 C124 0.960 . S
H111 C124 0.960 1_556 S
C112 H104 0.929 . S
C112 C113 1.377 . S
C112 C114 1.384 . S
C113 C112 1.377 . S
C113 C119 1.390 1_554 S
C114 H105 0.930 . S
C114 C112 1.384 . S
C114 C115 1.372 . S
C115 C114 1.372 . S
C115 C116 1.400 1_554 S
C115 C120 1.490 . S
C116 H106 0.930 . S
C116 C115 1.400 1_556 S
C116 C119 1.386 . S
H117 C133 0.930 1_556 S
H118 C134 0.931 1_556 S
C119 H107 0.929 . S
C119 C113 1.390 1_556 S
C119 C116 1.386 . S
C120 C115 1.490 . S
C120 C122 1.395 . S
C120 C123 1.403 . S
H121 C127 0.930 . S
C122 H108 0.930 . S
C122 C120 1.395 . S
C122 C125 1.403 . S
C123 C120 1.403 . S
C123 C124 1.524 . S
C123 C127 1.400 . S
C124 H109 0.960 . S
C124 H110 0.960 . S
C124 H111 0.960 1_554 S
C124 C123 1.524 . S
C125 C122 1.403 . S
C125 C126 1.392 . S
C125 C129 1.495 . S
C126 C125 1.392 . S
C126 C127 1.385 . S
C126 C128 1.478 . S
C127 H121 0.930 . S
C127 C123 1.400 . S
C127 C126 1.385 . S
C128 C126 1.478 . S
C128 C130 1.381 . S
C128 C134 1.383 . S
C129 C125 1.495 . S
C129 H135 0.959 . S
C129 H136 0.961 . S
C129 H137 0.960 . S
C130 C128 1.381 . S
C130 C131 1.394 . S
C130 H138 0.930 . S
C131 C130 1.394 . S
C131 C132 1.383 . S
C131 H139 0.929 . S
C132 C131 1.383 . S
C132 C133 1.377 . S
C133 H117 0.930 1_554 S
C133 C132 1.377 . S
C133 C134 1.379 . S
C134 H118 0.931 1_554 S
C134 C128 1.383 . S
C134 C133 1.379 . S
H135 C129 0.959 . S
H136 C129 0.961 . S
H137 C129 0.960 . S
H138 C130 0.930 . S
H139 C131 0.929 . S
H140 C148 0.929 . S
H141 C150 0.930 . S
H142 C152 0.930 . S
H143 C155 0.929 . S
H144 C158 0.930 . S
H145 C160 0.960 . S
H146 C160 0.960 . S
H147 C160 0.960 1_554 S
C148 H140 0.929 . S
C148 C149 1.377 1_556 S
C148 C150 1.384 . S
C149 C148 1.377 1_554 S
C149 C155 1.390 . S
C150 H141 0.930 . S
C150 C148 1.384 . S
C150 C151 1.372 . S
C151 C150 1.372 . S
C151 C152 1.400 1_556 S
C151 C156 1.490 . S
C152 H142 0.930 . S
C152 C151 1.400 1_554 S
C152 C155 1.386 . S
H153 C169 0.930 . S
H154 C170 0.931 . S
C155 H143 0.929 . S
C155 C149 1.390 . S
C155 C152 1.386 . S
C156 C151 1.490 . S
C156 C158 1.395 . S
C156 C159 1.403 . S
H157 C163 0.930 . S
C158 H144 0.930 . S
C158 C156 1.395 . S
C158 C161 1.403 . S
C159 C156 1.403 . S
C159 C160 1.524 . S
C159 C163 1.400 . S
C160 H145 0.960 . S
C160 H146 0.960 . S
C160 H147 0.960 1_556 S
C160 C159 1.524 . S
C161 C158 1.403 . S
C161 C162 1.392 . S
C161 C165 1.495 . S
C162 C161 1.392 . S
C162 C163 1.385 . S
C162 C164 1.478 . S
C163 H157 0.930 . S
C163 C159 1.400 . S
C163 C162 1.385 . S
C164 C162 1.478 . S
C164 C166 1.381 . S
C164 C170 1.383 1_556 S
C165 C161 1.495 . S
C165 H171 0.959 . S
C165 H172 0.961 1_556 S
C165 H173 0.960 . S
C166 C164 1.381 . S
C166 C167 1.394 . S
C166 H174 0.930 . S
C167 C166 1.394 . S
C167 C168 1.383 . S
C167 H175 0.929 . S
C168 C167 1.383 . S
C168 C169 1.377 1_556 S
C169 H153 0.930 . S
C169 C168 1.377 1_554 S
C169 C170 1.379 . S
C170 H154 0.931 . S
C170 C164 1.383 1_554 S
C170 C169 1.379 . S
H171 C165 0.959 . S
H172 C165 0.961 1_554 S
H173 C165 0.960 . S
H174 C166 0.930 . S
H175 C167 0.929 . S
H176 C184 0.929 . S
H177 C186 0.930 . S
H178 C188 0.930 . S
H179 C191 0.929 . S
H180 C194 0.930 . S
H181 C196 0.960 . S
H182 C196 0.960 . S
H183 C196 0.960 . S
C184 H176 0.929 . S
C184 C185 1.377 1_556 S
C184 C186 1.384 . S
C185 C184 1.377 1_554 S
C185 C191 1.390 . S
C186 H177 0.930 . S
C186 C184 1.384 . S
C186 C187 1.372 1_556 S
C187 C186 1.372 1_554 S
C187 C188 1.400 . S
C187 C192 1.490 . S
C188 H178 0.930 . S
C188 C187 1.400 . S
C188 C191 1.386 . S
H189 C205 0.930 . S
H190 C206 0.931 . S
C191 H179 0.929 . S
C191 C185 1.390 . S
C191 C188 1.386 . S
C192 C187 1.490 . S
C192 C194 1.395 . S
C192 C195 1.403 . S
H193 C199 0.930 . S
C194 H180 0.930 . S
C194 C192 1.395 . S
C194 C197 1.403 . S
C195 C192 1.403 . S
C195 C196 1.524 . S
C195 C199 1.400 . S
C196 H181 0.960 . S
C196 H182 0.960 . S
C196 H183 0.960 . S
C196 C195 1.524 . S
C197 C194 1.403 . S
C197 C198 1.392 . S
C197 C201 1.495 . S
C198 C197 1.392 . S
C198 C199 1.385 . S
C198 C200 1.478 . S
C199 H193 0.930 . S
C199 C195 1.400 . S
C199 C198 1.385 . S
C200 C198 1.478 . S
C200 C202 1.381 1_554 S
C200 C206 1.383 . S
C201 C197 1.495 . S
C201 H207 0.959 . S
C201 H208 0.961 . S
C201 H209 0.960 1_554 S
C202 C200 1.381 1_556 S
C202 C203 1.399 . S
C202 H210 0.930 . S
C203 C202 1.399 . S
C203 C204 1.362 1_556 S
C203 H211 0.946 . S
C204 C203 1.362 1_554 S
C204 C205 1.377 . S
C205 H189 0.930 . S
C205 C204 1.377 . S
C205 C206 1.379 . S
C206 H190 0.931 . S
C206 C200 1.383 . S
C206 C205 1.379 . S
H207 C201 0.959 . S
H208 C201 0.961 . S
H209 C201 0.960 1_556 S
H210 C202 0.930 . S
H211 C203 0.946 . S
H212 C220 0.929 . S
H213 C222 0.930 . S
H214 C224 0.930 . S
H215 C227 0.929 . S
H216 C230 0.930 . S
H217 C232 0.960 . S
H218 C232 0.960 1_556 S
H219 C232 0.960 . S
C220 H212 0.929 . S
C220 C221 1.377 1_556 S
C220 C222 1.384 . S
C221 C220 1.377 1_554 S
C221 C227 1.390 . S
C222 H213 0.930 . S
C222 C220 1.384 . S
C222 C223 1.372 1_556 S
C223 C222 1.372 1_554 S
C223 C224 1.400 . S
C223 C228 1.487 1_554 S
C224 H214 0.930 . S
C224 C223 1.400 . S
C224 C227 1.386 . S
H225 C241 0.930 . S
H226 C242 0.931 . S
C227 H215 0.929 . S
C227 C221 1.390 . S
C227 C224 1.386 . S
C228 C223 1.487 1_556 S
C228 C230 1.396 . S
C228 C231 1.404 1_556 S
H229 C235 0.930 1_554 S
C230 H216 0.930 . S
C230 C228 1.396 . S
C230 C233 1.403 . S
C231 C228 1.404 1_554 S
C231 C232 1.524 . S
C231 C235 1.400 1_554 S
C232 H217 0.960 . S
C232 H218 0.960 1_554 S
C232 H219 0.960 . S
C232 C231 1.524 . S
C233 C230 1.403 . S
C233 C234 1.392 . S
C233 C237 1.495 . S
C234 C233 1.392 . S
C234 C235 1.385 . S
C234 C236 1.478 . S
C235 H229 0.930 1_556 S
C235 C231 1.400 1_556 S
C235 C234 1.385 . S
C236 C234 1.478 . S
C236 C238 1.381 . S
C236 C242 1.383 1_556 S
C237 C233 1.495 . S
C237 H243 0.959 . S
C237 H244 0.961 1_556 S
C237 H245 0.960 . S
C238 C236 1.381 . S
C238 C239 1.394 . S
C238 H246 0.930 . S
C239 C238 1.394 . S
C239 C240 1.383 . S
C239 H247 0.929 . S
C240 C239 1.383 . S
C240 C241 1.377 1_556 S
C241 H225 0.930 . S
C241 C240 1.377 1_554 S
C241 C242 1.379 . S
C242 H226 0.931 . S
C242 C236 1.383 1_554 S
C242 C241 1.379 . S
H243 C237 0.959 . S
H244 C237 0.961 1_554 S
H245 C237 0.960 . S
H246 C238 0.930 . S
H247 C239 0.929 . S
H248 C256 0.929 . S
H249 C258 0.930 . S
H250 C260 0.930 . S
H251 C263 0.929 . S
H252 C266 0.930 . S
H253 C268 0.960 . S
H254 C268 0.960 . S
H255 C268 0.960 . S
C256 H248 0.929 . S
C256 C257 1.377 . S
C256 C258 1.384 . S
C257 C256 1.377 . S
C257 C263 1.390 . S
C258 H249 0.930 . S
C258 C256 1.384 . S
C258 C259 1.372 . S
C259 C258 1.372 . S
C259 C260 1.400 . S
C259 C264 1.490 . S
C260 H250 0.930 . S
C260 C259 1.400 . S
C260 C263 1.386 . S
H261 C277 0.930 . S
H262 C278 0.931 . S
C263 H251 0.929 . S
C263 C257 1.390 . S
C263 C260 1.386 . S
C264 C259 1.490 . S
C264 C266 1.395 . S
C264 C267 1.403 . S
H265 C271 0.930 . S
C266 H252 0.930 . S
C266 C264 1.395 . S
C266 C269 1.403 . S
C267 C264 1.403 . S
C267 C268 1.524 . S
C267 C271 1.400 . S
C268 H253 0.960 . S
C268 H254 0.960 . S
C268 H255 0.960 . S
C268 C267 1.524 . S
C269 C266 1.403 . S
C269 C270 1.392 . S
C269 C273 1.495 . S
C270 C269 1.392 . S
C270 C271 1.385 . S
C270 C272 1.478 . S
C271 H265 0.930 . S
C271 C267 1.400 . S
C271 C270 1.385 . S
C272 C270 1.478 . S
C272 C274 1.381 . S
C272 C278 1.383 . S
C273 C269 1.495 . S
C273 H279 0.959 . S
C273 H280 0.961 . S
C273 H281 0.960 . S
C274 C272 1.381 . S
C274 C275 1.394 . S
C274 H282 0.930 . S
C275 C274 1.394 . S
C275 C276 1.383 . S
C275 H283 0.929 . S
C276 C275 1.383 . S
C276 C277 1.377 . S
C277 H261 0.930 . S
C277 C276 1.377 . S
C277 C278 1.379 . S
C278 H262 0.931 . S
C278 C272 1.383 . S
C278 C277 1.379 . S
H279 C273 0.959 . S
H280 C273 0.961 . S
H281 C273 0.960 . S
H282 C274 0.930 . S
H283 C275 0.929 . S
H284 C292 0.929 . S
H285 C294 0.930 . S
H286 C296 0.930 . S
H287 C299 0.929 . S
H288 C302 0.930 . S
H289 C304 0.960 . S
H290 C304 0.960 . S
H291 C304 0.960 . S
C292 H284 0.929 . S
C292 C293 1.377 . S
C292 C294 1.384 . S
C293 C292 1.377 . S
C293 C299 1.390 . S
C294 H285 0.930 . S
C294 C292 1.384 . S
C294 C295 1.372 . S
C295 C294 1.372 . S
C295 C296 1.400 . S
C295 C300 1.490 . S
C296 H286 0.930 . S
C296 C295 1.400 . S
C296 C299 1.386 . S
H297 C313 0.930 . S
H298 C314 0.931 . S
C299 H287 0.929 . S
C299 C293 1.390 . S
C299 C296 1.386 . S
C300 C295 1.490 . S
C300 C302 1.395 . S
C300 C303 1.403 . S
H301 C307 0.930 . S
C302 H288 0.930 . S
C302 C300 1.395 . S
C302 C305 1.403 . S
C303 C300 1.403 . S
C303 C304 1.524 . S
C303 C307 1.400 . S
C304 H289 0.960 . S
C304 H290 0.960 . S
C304 H291 0.960 . S
C304 C303 1.524 . S
C305 C302 1.403 . S
C305 C306 1.392 . S
C305 C309 1.495 . S
C306 C305 1.392 . S
C306 C307 1.385 . S
C306 C308 1.478 . S
C307 H301 0.930 . S
C307 C303 1.400 . S
C307 C306 1.385 . S
C308 C306 1.478 . S
C308 C310 1.381 . S
C308 C314 1.383 . S
C309 C305 1.495 . S
C309 H315 0.959 . S
C309 H316 0.961 . S
C309 H317 0.960 . S
C310 C308 1.381 . S
C310 C311 1.394 . S
C310 H318 0.930 . S
C311 C310 1.394 . S
C311 C312 1.383 . S
C311 H319 0.929 . S
C312 C311 1.383 . S
C312 C313 1.377 . S
C313 H297 0.930 . S
C313 C312 1.377 . S
C313 C314 1.379 . S
C314 H298 0.931 . S
C314 C308 1.383 . S
C314 C313 1.379 . S
H315 C309 0.959 . S
H316 C309 0.961 . S
H317 C309 0.960 . S
H318 C310 0.930 . S
H319 C311 0.929 . S
H320 C328 0.929 . S
H321 C330 0.930 . S
H322 C332 0.930 . S
H323 C335 0.929 . S
H324 C338 0.930 . S
H325 C340 0.960 . S
H326 C340 0.960 . S
H327 C340 0.960 . S
C328 H320 0.929 . S
C328 C329 1.377 . S
C328 C330 1.384 . S
C329 C328 1.377 . S
C329 C335 1.390 . S
C330 H321 0.930 . S
C330 C328 1.384 . S
C330 C331 1.372 . S
C331 C330 1.372 . S
C331 C332 1.400 . S
C331 C336 1.490 . S
C332 H322 0.930 . S
C332 C331 1.400 . S
C332 C335 1.386 . S
H333 C349 0.930 . S
H334 C350 0.931 . S
C335 H323 0.929 . S
C335 C329 1.390 . S
C335 C332 1.386 . S
C336 C331 1.490 . S
C336 C338 1.395 . S
C336 C339 1.403 . S
H337 C343 0.930 . S
C338 H324 0.930 . S
C338 C336 1.395 . S
C338 C341 1.403 . S
C339 C336 1.403 . S
C339 C340 1.524 . S
C339 C343 1.400 . S
C340 H325 0.960 . S
C340 H326 0.960 . S
C340 H327 0.960 . S
C340 C339 1.524 . S
C341 C338 1.403 . S
C341 C342 1.392 . S
C341 C345 1.495 . S
C342 C341 1.392 . S
C342 C343 1.385 . S
C342 C344 1.478 . S
C343 H337 0.930 . S
C343 C339 1.400 . S
C343 C342 1.385 . S
C344 C342 1.478 . S
C344 C346 1.381 . S
C344 C350 1.383 . S
C345 C341 1.495 . S
C345 H351 0.959 . S
C345 H352 0.961 . S
C345 H353 0.960 . S
C346 C344 1.381 . S
C346 C347 1.394 . S
C346 H354 0.930 . S
C347 C346 1.394 . S
C347 C348 1.383 . S
C347 H355 0.929 . S
C348 C347 1.383 . S
C348 C349 1.377 . S
C349 H333 0.930 . S
C349 C348 1.377 . S
C349 C350 1.379 . S
C350 H334 0.931 . S
C350 C344 1.383 . S
C350 C349 1.379 . S
H351 C345 0.959 . S
H352 C345 0.961 . S
H353 C345 0.960 . S
H354 C346 0.930 . S
H355 C347 0.929 . S
H356 C364 0.929 . S
H357 C366 0.930 . S
H358 C368 0.930 . S
H359 C371 0.929 . S
H360 C374 0.930 . S
H361 C376 0.960 . S
H362 C376 0.960 . S
H363 C376 0.960 . S
C364 H356 0.929 . S
C364 C365 1.377 . S
C364 C366 1.384 . S
C365 C364 1.377 . S
C365 C371 1.390 . S
C366 H357 0.930 . S
C366 C364 1.384 . S
C366 C367 1.372 . S
C367 C366 1.372 . S
C367 C368 1.400 . S
C367 C372 1.490 . S
C368 H358 0.930 . S
C368 C367 1.400 . S
C368 C371 1.386 . S
H369 C385 0.930 . S
H370 C386 0.931 . S
C371 H359 0.929 . S
C371 C365 1.390 . S
C371 C368 1.386 . S
C372 C367 1.490 . S
C372 C374 1.395 . S
C372 C375 1.403 . S
H373 C379 0.930 . S
C374 H360 0.930 . S
C374 C372 1.395 . S
C374 C377 1.403 . S
C375 C372 1.403 . S
C375 C376 1.524 . S
C375 C379 1.400 . S
C376 H361 0.960 . S
C376 H362 0.960 . S
C376 H363 0.960 . S
C376 C375 1.524 . S
C377 C374 1.403 . S
C377 C378 1.392 . S
C377 C381 1.495 . S
C378 C377 1.392 . S
C378 C379 1.385 . S
C378 C380 1.478 . S
C379 H373 0.930 . S
C379 C375 1.400 . S
C379 C378 1.385 . S
C380 C378 1.478 . S
C380 C382 1.381 . S
C380 C386 1.383 . S
C381 C377 1.495 . S
C381 H387 0.959 . S
C381 H388 0.961 . S
C381 H389 0.960 . S
C382 C380 1.381 . S
C382 C383 1.394 . S
C382 H390 0.930 . S
C383 C382 1.394 . S
C383 C384 1.383 . S
C383 H391 0.929 . S
C384 C383 1.383 . S
C384 C385 1.377 . S
C385 H369 0.930 . S
C385 C384 1.377 . S
C385 C386 1.379 . S
C386 H370 0.931 . S
C386 C380 1.383 . S
C386 C385 1.379 . S
H387 C381 0.959 . S
H388 C381 0.961 . S
H389 C381 0.960 . S
H390 C382 0.930 . S
H391 C383 0.929 . S
H392 C400 0.929 . S
H393 C402 0.930 . S
H394 C404 0.930 . S
H395 C407 0.929 . S
H396 C410 0.930 . S
H397 C412 0.960 . S
H398 C412 0.960 . S
H399 C412 0.960 . S
C400 H392 0.929 . S
C400 C401 1.377 1_665 S
C400 C402 1.384 . S
C401 C400 1.377 1_445 S
C401 C407 1.390 . S
C402 H393 0.930 . S
C402 C400 1.384 . S
C402 C403 1.372 1_665 S
C403 C402 1.372 1_445 S
C403 C404 1.400 . S
C403 C408 1.490 . S
C404 H394 0.930 . S
C404 C403 1.400 . S
C404 C407 1.386 . S
H405 C421 0.930 . S
H406 C422 0.931 . S
C407 H395 0.929 . S
C407 C401 1.390 . S
C407 C404 1.386 . S
C408 C403 1.490 . S
C408 C410 1.395 1_545 S
C408 C411 1.403 1_455 S
H409 C415 0.930 . S
C410 H396 0.930 . S
C410 C408 1.395 1_565 S
C410 C413 1.403 . S
C411 C408 1.403 1_655 S
C411 C412 1.524 . S
C411 C415 1.400 . S
C412 H397 0.960 . S
C412 H398 0.960 . S
C412 H399 0.960 . S
C412 C411 1.524 . S
C413 C410 1.403 . S
C413 C414 1.392 1_565 S
C413 C417 1.495 . S
C414 C413 1.392 1_545 S
C414 C415 1.385 1_455 S
C414 C416 1.478 . S
C415 H409 0.930 . S
C415 C411 1.400 . S
C415 C414 1.385 1_655 S
C416 C414 1.478 . S
C416 C418 1.381 1_445 S
C416 C422 1.383 . S
C417 C413 1.495 . S
C417 H423 0.959 . S
C417 H424 0.961 . S
C417 H425 0.960 . S
C418 C416 1.381 1_665 S
C418 C419 1.394 . S
C418 H426 0.930 . S
C419 C418 1.394 . S
C419 C420 1.383 1_665 S
C419 H427 0.929 . S
C420 C419 1.383 1_445 S
C420 C421 1.377 . S
C421 H405 0.930 . S
C421 C420 1.377 . S
C421 C422 1.379 . S
C422 H406 0.931 . S
C422 C416 1.383 . S
C422 C421 1.379 . S
H423 C417 0.959 . S
H424 C417 0.961 . S
H425 C417 0.960 . S
H426 C418 0.930 . S
H427 C419 0.929 . S
H428 C436 0.929 . S
H429 C438 0.930 . S
H430 C440 0.930 . S
H431 C443 0.929 . S
H432 C446 0.930 . S
H433 C448 0.960 . S
H434 C448 0.960 . S
H435 C448 0.960 . S
C436 H428 0.929 . S
C436 C437 1.377 . S
C436 C438 1.384 . S
C437 C436 1.377 . S
C437 C443 1.390 1_445 S
C438 H429 0.930 . S
C438 C436 1.384 . S
C438 C439 1.372 . S
C439 C438 1.372 . S
C439 C440 1.400 1_445 S
C439 C444 1.490 . S
C440 H430 0.930 . S
C440 C439 1.400 1_665 S
C440 C443 1.386 . S
H441 C457 0.930 . S
H442 C458 0.931 . S
C443 H431 0.929 . S
C443 C437 1.390 1_665 S
C443 C440 1.386 . S
C444 C439 1.490 . S
C444 C446 1.395 . S
C444 C447 1.403 1_445 S
H445 C451 0.930 . S
C446 H432 0.930 . S
C446 C444 1.395 . S
C446 C449 1.403 . S
C447 C444 1.403 1_665 S
C447 C448 1.524 . S
C447 C451 1.400 . S
C448 H433 0.960 . S
C448 H434 0.960 . S
C448 H435 0.960 . S
C448 C447 1.524 . S
C449 C446 1.403 . S
C449 C450 1.392 . S
C449 C453 1.495 . S
C450 C449 1.392 . S
C450 C451 1.385 1_445 S
C450 C452 1.478 . S
C451 H445 0.930 . S
C451 C447 1.400 . S
C451 C450 1.385 1_665 S
C452 C450 1.478 . S
C452 C454 1.381 . S
C452 C458 1.383 1_545 S
C453 C449 1.495 . S
C453 H459 0.959 . S
C453 H460 0.961 . S
C453 H461 0.960 . S
C454 C452 1.381 . S
C454 C455 1.394 . S
C454 H462 0.930 . S
C455 C454 1.394 . S
C455 C456 1.383 1_545 S
C455 H463 0.929 . S
C456 C455 1.383 1_565 S
C456 C457 1.377 . S
C457 H441 0.930 . S
C457 C456 1.377 . S
C457 C458 1.379 . S
C458 H442 0.931 . S
C458 C452 1.383 1_565 S
C458 C457 1.379 . S
H459 C453 0.959 . S
H460 C453 0.961 . S
H461 C453 0.960 . S
H462 C454 0.930 . S
H463 C455 0.929 . S
H464 C472 0.929 . S
H465 C474 0.930 . S
H466 C476 0.930 . S
H467 C479 0.929 . S
H468 C482 0.930 . S
H469 C484 0.960 . S
H470 C484 0.960 . S
H471 C484 0.960 . S
C472 H464 0.929 . S
C472 C473 1.377 . S
C472 C474 1.384 . S
C473 C472 1.377 . S
C473 C479 1.390 . S
C474 H465 0.930 . S
C474 C472 1.384 . S
C474 C475 1.372 . S
C475 C474 1.372 . S
C475 C476 1.400 . S
C475 C480 1.490 . S
C476 H466 0.930 . S
C476 C475 1.400 . S
C476 C479 1.386 . S
H477 C493 0.930 . S
H478 C494 0.931 . S
C479 H467 0.929 . S
C479 C473 1.390 . S
C479 C476 1.386 . S
C480 C475 1.490 . S
C480 C482 1.395 . S
C480 C483 1.403 . S
H481 C487 0.930 . S
C482 H468 0.930 . S
C482 C480 1.395 . S
C482 C485 1.403 . S
C483 C480 1.403 . S
C483 C484 1.524 . S
C483 C487 1.400 . S
C484 H469 0.960 . S
C484 H470 0.960 . S
C484 H471 0.960 . S
C484 C483 1.524 . S
C485 C482 1.403 . S
C485 C486 1.392 . S
C485 C489 1.495 . S
C486 C485 1.392 . S
C486 C487 1.385 . S
C486 C488 1.478 . S
C487 H481 0.930 . S
C487 C483 1.400 . S
C487 C486 1.385 . S
C488 C486 1.478 . S
C488 C490 1.381 . S
C488 C494 1.383 . S
C489 C485 1.495 . S
C489 H495 0.959 . S
C489 H496 0.961 . S
C489 H497 0.960 . S
C490 C488 1.381 . S
C490 C491 1.394 . S
C490 H498 0.930 . S
C491 C490 1.394 . S
C491 C492 1.383 . S
C491 H499 0.929 . S
C492 C491 1.383 . S
C492 C493 1.377 . S
C493 H477 0.930 . S
C493 C492 1.377 . S
C493 C494 1.379 . S
C494 H478 0.931 . S
C494 C488 1.383 . S
C494 C493 1.379 . S
H495 C489 0.959 . S
H496 C489 0.961 . S
H497 C489 0.960 . S
H498 C490 0.930 . S
H499 C491 0.929 . S
H500 C508 0.929 . S
H501 C510 0.930 . S
H502 C512 0.930 . S
H503 C515 0.929 . S
H504 C518 0.930 . S
H505 C520 0.960 . S
H506 C520 0.960 . S
H507 C520 0.960 . S
C508 H500 0.929 . S
C508 C509 1.377 . S
C508 C510 1.384 . S
C509 C508 1.377 . S
C509 C515 1.390 . S
C510 H501 0.930 . S
C510 C508 1.384 . S
C510 C511 1.372 . S
C511 C510 1.372 . S
C511 C512 1.400 . S
C511 C516 1.490 . S
C512 H502 0.930 . S
C512 C511 1.400 . S
C512 C515 1.386 . S
H513 C529 0.930 . S
H514 C530 0.931 . S
C515 H503 0.929 . S
C515 C509 1.390 . S
C515 C512 1.386 . S
C516 C511 1.490 . S
C516 C518 1.395 . S
C516 C519 1.403 . S
H517 C523 0.930 . S
C518 H504 0.930 . S
C518 C516 1.395 . S
C518 C521 1.403 . S
C519 C516 1.403 . S
C519 C520 1.524 . S
C519 C523 1.400 . S
C520 H505 0.960 . S
C520 H506 0.960 . S
C520 H507 0.960 . S
C520 C519 1.524 . S
C521 C518 1.403 . S
C521 C522 1.392 . S
C521 C525 1.495 . S
C522 C521 1.392 . S
C522 C523 1.385 . S
C522 C524 1.478 . S
C523 H517 0.930 . S
C523 C519 1.400 . S
C523 C522 1.385 . S
C524 C522 1.478 . S
C524 C526 1.381 . S
C524 C530 1.383 . S
C525 C521 1.495 . S
C525 H531 0.959 . S
C525 H532 0.961 . S
C525 H533 0.960 . S
C526 C524 1.381 . S
C526 C527 1.394 . S
C526 H534 0.930 . S
C527 C526 1.394 . S
C527 C528 1.383 . S
C527 H535 0.929 . S
C528 C527 1.383 . S
C528 C529 1.377 . S
C529 H513 0.930 . S
C529 C528 1.377 . S
C529 C530 1.379 . S
C530 H514 0.931 . S
C530 C524 1.383 . S
C530 C529 1.379 . S
H531 C525 0.959 . S
H532 C525 0.961 . S
H533 C525 0.960 . S
H534 C526 0.930 . S
H535 C527 0.929 . S
C132 C98 1.179 . S
C113 C27 1.456 . S
C149 N6 1.379 1_554 S
C168 C87 1.167 . S
C185 C16 1.409 . S
C204 C101 1.365 . S
C221 N14 1.380 . S
C240 C90 1.375 . S
C257 C57 1.456 . S
C276 C76 1.182 . S
C293 N36 1.391 . S
C312 C65 1.267 . S
C348 C79 1.361 . S
C329 C46 1.409 . S
C384 C68 1.385 . S
C365 N44 1.378 . S
C401 C10 1.454 . S
C420 C67 1.385 . S
C437 C1 1.527 1_455 S
C456 C78 1.453 1_565 S
C492 C89 1.429 . S
C473 C40 1.452 . S
C509 C31 1.530 . S
C528 C100 1.477 . S
