# Generated by pormake.
# Topology alb, (6,12)-cn, num edge types: 1
# Building blocks:
#     Node 0, Type 0, BuildingBlock: OJICUG_clean_sbu_0, # of connection points: 6
#     Node 1, Type 0, BuildingBlock: OJICUG_clean_sbu_0, # of connection points: 6
#     Node 2, Type 1, BuildingBlock: QEWDON_clean_sbu_0, # of connection points: 12
#     Edge 3, Type (0, 1), BuildingBlock: UVAHIK_clean_linker_0, # of connection points: 2
#     Edge 4, Type (0, 1), BuildingBlock: UVAHIK_clean_linker_0, # of connection points: 2
#     Edge 5, Type (0, 1), BuildingBlock: UVAHIK_clean_linker_0, # of connection points: 2
#     Edge 6, Type (0, 1), BuildingBlock: UVAHIK_clean_linker_0, # of connection points: 2
#     Edge 7, Type (0, 1), BuildingBlock: UVAHIK_clean_linker_0, # of connection points: 2
#     Edge 8, Type (0, 1), BuildingBlock: UVAHIK_clean_linker_0, # of connection points: 2
#     Edge 9, Type (0, 1), BuildingBlock: UVAHIK_clean_linker_0, # of connection points: 2
#     Edge 10, Type (0, 1), BuildingBlock: UVAHIK_clean_linker_0, # of connection points: 2
#     Edge 11, Type (0, 1), BuildingBlock: UVAHIK_clean_linker_0, # of connection points: 2
#     Edge 12, Type (0, 1), BuildingBlock: UVAHIK_clean_linker_0, # of connection points: 2
#     Edge 13, Type (0, 1), BuildingBlock: UVAHIK_clean_linker_0, # of connection points: 2
#     Edge 14, Type (0, 1), BuildingBlock: UVAHIK_clean_linker_0, # of connection points: 2
# Relax obj value: 0.122
# Max RMSD: 0.220
# Mean RMSD: 0.143
data_MOF--net-alb--node1-OJICUG_clean_sbu_0--node2-QEWDON_clean_sbu_0--edge1-UVAHIK_clean_linker_0
_symmetry_space_group_name_H-M    P1
_symmetry_Int_Tables_number       1
_symmetry_cell_setting            triclinic
loop_
_symmetry_equiv_pos_as_xyz
'x, y, z'
_cell_length_a     30.212068
_cell_length_b     31.889695
_cell_length_c     25.457956
_cell_angle_alpha  89.966444
_cell_angle_beta   91.990812
_cell_angle_gamma 121.92274
loop_
_atom_site_label
_atom_site_type_symbol
_atom_site_fract_x
_atom_site_fract_y
_atom_site_fract_z
_atom_type_partial_charge
Sc0 Sc 0.29294 0.69467 0.12338 0.0
Sc1 Sc 0.1701 0.58591 0.14038 0.0
Sc2 Sc 0.28266 0.57966 0.1282 0.0
O3 O 0.24852 0.62008 0.13063 0.0
C4 C 0.3452 0.66 0.04074 0.0
C5 C 0.18959 0.66861 0.0566 0.0
C6 C 0.17627 0.51192 0.06109 0.0
C7 C 0.2145 0.68333 0.21142 0.0
C8 C 0.36746 0.67407 0.1964 0.0
C9 C 0.19996 0.5248 0.21812 0.0
O10 O 0.33386 0.69071 0.05736 0.0
O11 O 0.15998 0.62733 0.07825 0.0
O12 O 0.22381 0.52696 0.07255 0.0
O13 O 0.25748 0.70766 0.18837 0.0
O14 O 0.34524 0.62859 0.18331 0.0
O15 O 0.17052 0.54058 0.20404 0.0
O16 O 0.35296 0.70205 0.17755 0.0
O17 O 0.17954 0.6391 0.19852 0.0
O18 O 0.24069 0.53566 0.1939 0.0
O19 O 0.23798 0.69603 0.06881 0.0
O20 O 0.32961 0.61885 0.06256 0.0
O21 O 0.15186 0.52911 0.08308 0.0
Sc22 Sc 0.73331 0.30891 0.05667 0.0
Sc23 Sc 0.84831 0.42663 0.04777 0.0
Sc24 Sc 0.72752 0.41559 0.0692 0.0
O25 O 0.76977 0.38375 0.05796 0.0
C26 C 0.64935 0.32398 0.99396 0.0
C27 C 0.81414 0.33754 0.96566 0.0
C28 C 0.8059 0.48323 0.98075 0.0
C29 C 0.84029 0.3428 0.12159 0.0
C30 C 0.67471 0.32563 0.14887 0.0
C31 C 0.83226 0.48905 0.13579 0.0
O32 O 0.6695 0.29877 0.00611 0.0
O33 O 0.84689 0.38069 0.98396 0.0
O34 O 0.76473 0.46694 0.00655 0.0
O35 O 0.79324 0.31093 0.10736 0.0
O36 O 0.68534 0.36773 0.13301 0.0
O37 O 0.86081 0.47875 0.11 0.0
O38 O 0.69017 0.30051 0.12584 0.0
O39 O 0.86512 0.38647 0.10425 0.0
O40 O 0.78337 0.46792 0.12657 0.0
O41 O 0.7711 0.30836 0.98675 0.0
O42 O 0.6664 0.36692 0.01313 0.0
O43 O 0.83908 0.47092 0.9902 0.0
Zn44 Zn 0.15286 0.12536 0.49701 0.0
Zn45 Zn 0.13734 0.01861 0.50934 0.0
O46 O 0.09867 0.05291 0.50364 0.0
H47 H 0.06384 0.0397 0.51564 0.0
C48 C 0.11467 0.16489 0.59876 0.0
O49 O 0.06759 0.12695 0.60661 0.0
Zn50 Zn 0.88662 0.89368 0.68533 0.0
Zn51 Zn 0.87098 0.98426 0.69308 0.0
O52 O 0.92585 0.96656 0.69507 0.0
H53 H 0.9626 0.98896 0.68984 0.0
Zn54 Zn 0.15095 0.09367 0.61848 0.0
O55 O 0.07924 0.02778 0.64131 0.0
Zn56 Zn 0.0694 0.96771 0.68336 0.0
H57 H 0.04736 0.02514 0.6283 0.0
Zn58 Zn 0.86969 0.95099 0.57611 0.0
O59 O 0.94212 0.96278 0.54786 0.0
H60 H 0.97331 0.99426 0.55701 0.0
Zn61 Zn 0.95175 0.91248 0.5062 0.0
C62 C 0.89023 0.05549 0.58454 0.0
O63 O 0.93618 0.0711 0.56547 0.0
O64 O 0.22569 0.13878 0.48263 0.0
O65 O 0.21459 0.06436 0.49149 0.0
O66 O 0.7978 0.92552 0.70775 0.0
O67 O 0.80922 0.86222 0.70259 0.0
O68 O 0.13249 0.05028 0.68354 0.0
O69 O 0.1172 0.0 0.74703 0.0
C70 C 0.05346 0.93139 0.45821 0.0
O71 O 0.88375 0.92587 0.50839 0.0
O72 O 0.90184 0.89464 0.44357 0.0
O73 O 0.89343 0.0508 0.7288 0.0
C74 C 0.24344 0.11037 0.4815 0.0
O75 O 0.12809 0.16516 0.45522 0.0
C76 C 0.96919 0.88801 0.73233 0.0
O77 O 0.15361 0.15985 0.60488 0.0
C78 C 0.78016 0.87944 0.71076 0.0
O79 O 0.85804 0.00928 0.58879 0.0
C80 C 0.11613 0.95008 0.59642 0.0
O81 O 0.10269 0.96072 0.45855 0.0
O82 O 0.02745 0.94246 0.48745 0.0
C83 C 0.14644 0.04274 0.72858 0.0
O84 O 0.92028 0.86859 0.73514 0.0
O85 O 0.99356 0.9231 0.70044 0.0
C86 C 0.90714 0.84874 0.59531 0.0
O87 O 0.09433 0.93193 0.63945 0.0
O88 O 0.12476 0.9921 0.58312 0.0
C89 C 0.87044 0.90474 0.46324 0.0
O90 O 0.92782 0.85247 0.55151 0.0
O91 O 0.89997 0.88263 0.61042 0.0
C92 C 0.93894 0.0876 0.72172 0.0
O93 O 0.96992 0.0823 0.69118 0.0
C94 C 0.08004 0.15054 0.45611 0.0
O95 O 0.04908 0.11214 0.48435 0.0
C96 C 0.15543 0.68351 0.27821 0.0
C97 C 0.20354 0.7083 0.25346 0.0
C98 C 0.14392 0.70796 0.31571 0.0
C99 C 0.18035 0.83252 0.35875 0.0
H100 H 0.11853 0.76983 0.48948 0.0
C101 C 0.17103 0.94283 0.53109 0.0
C102 C 0.12562 0.92037 0.55987 0.0
C103 C 0.1788 0.91544 0.49397 0.0
C104 C 0.13515 0.78762 0.45288 0.0
H105 H 0.27761 0.77808 0.24966 0.0
H106 H 0.25762 0.82039 0.31542 0.0
H107 H 0.13474 0.72446 0.42362 0.0
H108 H 0.05321 0.85187 0.57387 0.0
H109 H 0.06605 0.80387 0.50806 0.0
H110 H 0.18082 0.89559 0.38768 0.0
C111 C 0.22857 0.78225 0.30515 0.0
C112 C 0.14447 0.76164 0.41523 0.0
C113 C 0.24014 0.75785 0.26774 0.0
C114 C 0.08865 0.8698 0.55216 0.0
C115 C 0.09612 0.84241 0.51462 0.0
C116 C 0.17094 0.85842 0.39628 0.0
C117 C 0.18022 0.75768 0.32921 0.0
C118 C 0.16784 0.78412 0.36811 0.0
C119 C 0.14114 0.86505 0.48482 0.0
C120 C 0.14887 0.83652 0.44407 0.0
H121 H 0.12622 0.64539 0.26811 0.0
H122 H 0.10618 0.68824 0.33332 0.0
H123 H 0.19737 0.85039 0.32229 0.0
H124 H 0.20041 0.98164 0.5372 0.0
H125 H 0.21443 0.93377 0.47256 0.0
C126 C 0.62141 0.25443 0.20831 0.0
C127 C 0.64016 0.30358 0.19408 0.0
C128 C 0.5851 0.23218 0.24759 0.0
C129 C 0.52657 0.25873 0.35878 0.0
H130 H 0.40591 0.12866 0.32484 0.0
C131 C 0.32973 0.18197 0.45561 0.0
C132 C 0.29707 0.13082 0.46296 0.0
C133 C 0.37706 0.20121 0.43096 0.0
C134 C 0.43975 0.16452 0.33561 0.0
H135 H 0.6366 0.36829 0.21181 0.0
H136 H 0.57335 0.32945 0.28005 0.0
H137 H 0.4787 0.16604 0.26632 0.0
H138 H 0.29022 0.06008 0.45261 0.0
H139 H 0.37342 0.09386 0.40994 0.0
H140 H 0.48717 0.25762 0.42755 0.0
C141 C 0.58694 0.30819 0.26098 0.0
C142 C 0.48152 0.18604 0.30192 0.0
C143 C 0.62305 0.33039 0.22154 0.0
C144 C 0.31431 0.09963 0.44748 0.0
C145 C 0.36181 0.11896 0.42261 0.0
C146 C 0.48489 0.23713 0.39259 0.0
C147 C 0.56685 0.25856 0.27389 0.0
C148 C 0.52497 0.23383 0.31252 0.0
C149 C 0.3932 0.16989 0.41296 0.0
C150 C 0.44041 0.19018 0.38086 0.0
H151 H 0.63375 0.2326 0.18823 0.0
H152 H 0.57091 0.19409 0.25703 0.0
H153 H 0.55985 0.29523 0.36858 0.0
H154 H 0.31791 0.2072 0.46717 0.0
H155 H 0.39976 0.24049 0.42379 0.0
C156 C 0.22244 0.47953 0.28374 0.0
C157 C 0.18713 0.49263 0.2648 0.0
C158 C 0.21139 0.44948 0.32734 0.0
C159 C 0.10408 0.3566 0.40635 0.0
H160 H 0.21916 0.38355 0.50209 0.0
C161 C 0.0797 0.21733 0.5673 0.0
C162 C 0.12175 0.21034 0.57436 0.0
C163 C 0.08514 0.2571 0.5382 0.0
C164 C 0.18653 0.37501 0.47558 0.0
H165 H 0.1119 0.48362 0.2773 0.0
H166 H 0.09258 0.43085 0.35388 0.0
H167 H 0.23257 0.44183 0.43384 0.0
H168 H 0.20287 0.24053 0.5572 0.0
H169 H 0.21192 0.30808 0.50566 0.0
H170 H 0.05807 0.28971 0.44816 0.0
C171 C 0.12892 0.44402 0.33458 0.0
C172 C 0.19426 0.40864 0.43635 0.0
C173 C 0.14012 0.47447 0.29081 0.0
C174 C 0.16974 0.24493 0.55315 0.0
C175 C 0.17499 0.28414 0.52364 0.0
C176 C 0.09625 0.32296 0.44596 0.0
C177 C 0.16467 0.43145 0.3536 0.0
C178 C 0.15375 0.399 0.39989 0.0
C179 C 0.13271 0.2907 0.51512 0.0
C180 C 0.13804 0.33049 0.47954 0.0
H181 H 0.25896 0.49249 0.26488 0.0
H182 H 0.23938 0.43976 0.34001 0.0
H183 H 0.07185 0.34805 0.37921 0.0
H184 H 0.04222 0.19139 0.5832 0.0
H185 H 0.05177 0.26101 0.53328 0.0
C186 C 0.92259 0.35559 0.1642 0.0
C187 C 0.86774 0.32823 0.15942 0.0
C188 C 0.94863 0.34093 0.19869 0.0
C189 C 0.93266 0.26976 0.31668 0.0
H190 H 0.03963 0.25189 0.26105 0.0
C191 C 0.00594 0.15972 0.42704 0.0
C192 C 0.05885 0.17539 0.42478 0.0
C193 C 0.98523 0.18184 0.39606 0.0
C194 C 0.01053 0.25747 0.27755 0.0
H195 H 0.79721 0.26478 0.188 0.0
H196 H 0.84285 0.23959 0.24871 0.0
H197 H -0.00066 0.28602 0.20551 0.0
H198 H 0.13193 0.22727 0.38917 0.0
H199 H 0.09592 0.26632 0.33547 0.0
H200 H 0.94409 0.24195 0.38889 0.0
C201 C 0.86553 0.27226 0.22559 0.0
C202 C 0.98741 0.27689 0.24566 0.0
C203 C 0.83948 0.28649 0.1906 0.0
C204 C 0.09086 0.2141 0.39143 0.0
C205 C 0.07009 0.23615 0.36026 0.0
C206 C 0.95622 0.25094 0.3488 0.0
C207 C 0.9203 0.2991 0.22957 0.0
C208 C 0.94764 0.28235 0.26468 0.0
C209 C 0.01701 0.2203 0.36226 0.0
C210 C 0.99467 0.24361 0.32928 0.0
H211 H 0.94551 0.38787 0.14063 0.0
H212 H 0.99091 0.36233 0.20132 0.0
H213 H 0.9026 0.27437 0.33243 0.0
H214 H 0.98027 0.13 0.45241 0.0
H215 H 0.94402 0.16812 0.39799 0.0
C216 C 0.44433 0.74796 0.24126 0.0
C217 C 0.41401 0.69642 0.23295 0.0
C218 C 0.49065 0.76978 0.27196 0.0
C219 C 0.59201 0.74571 0.31796 0.0
H220 H 0.642 0.86556 0.40103 0.0
C221 C 0.80675 0.86581 0.38712 0.0
C222 C 0.81826 0.88611 0.43832 0.0
C223 C 0.7562 0.84348 0.36506 0.0
C224 C 0.62845 0.83185 0.37845 0.0
H225 H 0.40757 0.62726 0.25276 0.0
H226 H 0.48793 0.66531 0.30727 0.0
H227 H 0.55386 0.82254 0.36131 0.0
H228 H 0.7862 0.90028 0.50612 0.0
H229 H 0.69745 0.86048 0.46787 0.0
H230 H 0.666 0.75431 0.33586 0.0
C231 C 0.47643 0.68894 0.28891 0.0
C232 C 0.57809 0.80744 0.3552 0.0
C233 C 0.43018 0.66708 0.25786 0.0
C234 C 0.7785 0.88506 0.46647 0.0
C235 C 0.72768 0.86233 0.4445 0.0
C236 C 0.64215 0.76991 0.3414 0.0
C237 C 0.50775 0.74065 0.29551 0.0
C238 C 0.55951 0.76443 0.32404 0.0
C239 C 0.71576 0.8405 0.39384 0.0
C240 C 0.66135 0.81372 0.37122 0.0
H241 H 0.43322 0.77182 0.22271 0.0
H242 H 0.51401 0.8097 0.27553 0.0
H243 H 0.57936 0.71304 0.29382 0.0
H244 H 0.83667 0.86642 0.36427 0.0
H245 H 0.74876 0.82821 0.32546 0.0
C246 C 0.91096 0.56455 0.17739 0.0
C247 C 0.85697 0.52953 0.17613 0.0
C248 C 0.93291 0.60578 0.21156 0.0
C249 C 0.89455 0.68127 0.28492 0.0
H250 H 0.03293 0.74096 0.35102 0.0
C251 C 0.97725 0.84648 0.43181 0.0
C252 C 0.02932 0.8848 0.42637 0.0
C253 C 0.95645 0.80187 0.40357 0.0
C254 C 0.99433 0.72487 0.33252 0.0
H255 H 0.78431 0.50898 0.21222 0.0
H256 H 0.82259 0.57983 0.27236 0.0
H257 H 0.99682 0.66451 0.29912 0.0
H258 H 0.10042 0.90598 0.38645 0.0
H259 H 0.06421 0.82855 0.33733 0.0
H260 H 0.89206 0.74157 0.3181 0.0
C261 C 0.84786 0.57641 0.24589 0.0
C262 C 0.97365 0.68106 0.30272 0.0
C263 C 0.82592 0.53552 0.21156 0.0
C264 C 0.06006 0.87736 0.39178 0.0
C265 C 0.03946 0.83276 0.36383 0.0
C266 C 0.91509 0.72483 0.31482 0.0
C267 C 0.9014 0.61275 0.24549 0.0
C268 C 0.92346 0.65872 0.27845 0.0
C269 C 0.9874 0.79443 0.36938 0.0
C270 C 0.96526 0.74728 0.33883 0.0
H271 H 0.93603 0.56118 0.15056 0.0
H272 H 0.97422 0.63312 0.20987 0.0
H273 H 0.85629 0.66586 0.2659 0.0
H274 H 0.95267 0.85034 0.45839 0.0
H275 H 0.9163 0.77286 0.4092 0.0
C276 C 0.11544 0.65788 0.99695 0.0
C277 C 0.16679 0.68783 0.01805 0.0
C278 C 0.09368 0.67785 0.96341 0.0
C279 C 0.10276 0.79439 0.93728 0.0
H280 H 0.03548 0.73777 0.80112 0.0
C281 C 0.98184 0.85651 0.81739 0.0
C282 C 0.99548 0.86869 0.76497 0.0
C283 C 0.00283 0.83401 0.84752 0.0
C284 C 0.05427 0.75393 0.83905 0.0
H285 H 0.23562 0.76217 0.01934 0.0
H286 H 0.19737 0.79662 0.96198 0.0
H287 H 0.07077 0.69723 0.85497 0.0
H288 H 0.03912 0.86435 0.70199 0.0
H289 H 0.07613 0.82484 0.75469 0.0
H290 H 0.08577 0.85063 0.92193 0.0
C291 C 0.17406 0.75779 0.97128 0.0
C292 C 0.07403 0.73059 0.86993 0.0
C293 C 0.196 0.73783 0.00399 0.0
C294 C 0.02986 0.85727 0.74288 0.0
C295 C 0.05015 0.83385 0.77273 0.0
C296 C 0.0822 0.81713 0.90695 0.0
C297 C 0.12256 0.72825 0.95113 0.0
C298 C 0.09899 0.75097 0.91909 0.0
C299 C 0.03686 0.82211 0.82538 0.0
C300 C 0.05818 0.79741 0.85737 0.0
H301 H 0.09189 0.61924 0.00683 0.0
H302 H 0.05379 0.65432 0.9484 0.0
H303 H 0.12148 0.81068 0.97521 0.0
H304 H 0.95463 0.86417 0.83499 0.0
H305 H 0.99154 0.82488 0.88784 0.0
C306 C 0.57075 0.32145 0.95409 0.0
C307 C 0.60222 0.30114 0.95824 0.0
C308 C 0.52359 0.29717 0.92452 0.0
C309 C 0.4239 0.17205 0.87552 0.0
H310 H 0.36786 0.24002 0.79867 0.0
C311 C 0.20921 0.06943 0.80571 0.0
C312 C 0.19744 0.07833 0.75465 0.0
C313 C 0.25896 0.0998 0.82887 0.0
C314 C 0.38314 0.22048 0.81962 0.0
H315 H 0.6102 0.24084 0.93187 0.0
H316 H 0.5287 0.19917 0.8795 0.0
H317 H 0.45625 0.28729 0.83819 0.0
H318 H 0.22803 0.12717 0.68846 0.0
H319 H 0.31552 0.17995 0.7287 0.0
H320 H 0.35158 0.10526 0.85628 0.0
C321 C 0.53969 0.23315 0.90031 0.0
C322 C 0.4336 0.2476 0.8427 0.0
C323 C 0.5866 0.2572 0.93016 0.0
C324 C 0.23596 0.11942 0.72792 0.0
C325 C 0.28602 0.14973 0.75104 0.0
C326 C 0.37372 0.14503 0.85241 0.0
C327 C 0.50699 0.25219 0.89813 0.0
C328 C 0.45445 0.22369 0.8712 0.0
C329 C 0.29837 0.1396 0.80139 0.0
C330 C 0.35245 0.16889 0.82464 0.0
H331 H 0.58154 0.35523 0.97522 0.0
H332 H 0.49922 0.3127 0.92412 0.0
H333 H 0.43828 0.15239 0.89776 0.0
H334 H 0.18019 0.03837 0.82755 0.0
H335 H 0.26672 0.09166 0.86822 0.0
C336 C 0.09275 0.44563 0.01693 0.0
C337 C 0.14765 0.47235 0.02065 0.0
C338 C 0.06551 0.40734 0.97977 0.0
C339 C 0.07737 0.3572 0.85538 0.0
H340 H 0.97318 0.23 0.90919 0.0
C341 C 0.00833 0.17537 0.74302 0.0
C342 C 0.95733 0.13515 0.74904 0.0
C343 C 0.0269 0.2192 0.77176 0.0
C344 C 0.00123 0.26535 0.89302 0.0
H345 H 0.21697 0.48075 0.98728 0.0
H346 H 0.16916 0.41394 0.92206 0.0
H347 H 0.01398 0.30259 0.96704 0.0
H348 H 0.88479 0.11009 0.78776 0.0
H349 H 0.91676 0.18676 0.83705 0.0
H350 H 0.06452 0.32024 0.78125 0.0
C351 C 0.14742 0.42278 0.94801 0.0
C352 C 0.02476 0.3069 0.92635 0.0
C353 C 0.17471 0.46068 0.98562 0.0
C354 C 0.9246 0.14021 0.78286 0.0
C355 C 0.94308 0.18407 0.81145 0.0
C356 C 0.05325 0.31576 0.82175 0.0
C357 C 0.0926 0.39547 0.94517 0.0
C358 C 0.0639 0.35291 0.90816 0.0
C359 C 0.99471 0.22389 0.80686 0.0
C360 C 0.01589 0.26905 0.84055 0.0
H361 H 0.0707 0.45367 0.04334 0.0
H362 H 0.02322 0.38688 0.97817 0.0
H363 H 0.10695 0.39253 0.84031 0.0
H364 H 0.03443 0.17268 0.71706 0.0
H365 H 0.06711 0.24872 0.76772 0.0
C366 C 0.87369 0.3232 0.91268 0.0
C367 C 0.82583 0.31995 0.91749 0.0
C368 C 0.88178 0.30113 0.86939 0.0
C369 C 0.80473 0.20556 0.76345 0.0
H370 H 0.94207 0.24682 0.71598 0.0
C371 C 0.83596 0.07315 0.64157 0.0
C372 C 0.87915 0.09086 0.60972 0.0
C373 C 0.82944 0.10556 0.67231 0.0
C374 C 0.90317 0.23507 0.72776 0.0
H375 H 0.75035 0.29435 0.87965 0.0
H376 H 0.76542 0.25933 0.80263 0.0
H377 H 0.93273 0.29686 0.78112 0.0
H378 H 0.94735 0.15716 0.58234 0.0
H379 H 0.93446 0.21419 0.63365 0.0
H380 H 0.77472 0.14524 0.70885 0.0
C381 C 0.79595 0.27614 0.83318 0.0
C382 C 0.89791 0.26354 0.76616 0.0
C383 C 0.78735 0.29674 0.87711 0.0
C384 C 0.91394 0.14223 0.60689 0.0
C385 C 0.90674 0.17494 0.63688 0.0
C386 C 0.80989 0.17775 0.72458 0.0
C387 C 0.84258 0.27646 0.8293 0.0
C388 C 0.84862 0.24868 0.78542 0.0
C389 C 0.86493 0.15705 0.67104 0.0
C390 C 0.85931 0.19096 0.70727 0.0
H391 H 0.90388 0.34072 0.94357 0.0
H392 H 0.91799 0.3019 0.86859 0.0
H393 H 0.76603 0.19199 0.77721 0.0
H394 H 0.80853 0.03383 0.6452 0.0
H395 H 0.79753 0.08956 0.69882 0.0
C396 C 0.39864 0.71877 0.97018 0.0
C397 C 0.38072 0.67395 0.99619 0.0
C398 C 0.43552 0.73375 0.93136 0.0
C399 C 0.54115 0.71762 0.89024 0.0
H400 H 0.53711 0.78543 0.76546 0.0
C401 C 0.70881 0.79815 0.74527 0.0
C402 C 0.72651 0.84666 0.72951 0.0
C403 C 0.6613 0.77033 0.77022 0.0
C404 C 0.53899 0.76676 0.80022 0.0
H405 H 0.38664 0.60902 0.00013 0.0
H406 H 0.45078 0.63522 0.93251 0.0
H407 H 0.46409 0.75013 0.82401 0.0
H408 H 0.70647 0.90272 0.72506 0.0
H409 H 0.62468 0.85481 0.7687 0.0
H410 H 0.61667 0.73555 0.86759 0.0
C411 C 0.43662 0.65898 0.94258 0.0
C412 C 0.49709 0.74653 0.83378 0.0
C413 C 0.39956 0.64386 0.98119 0.0
C414 C 0.6943 0.86559 0.73678 0.0
C415 C 0.64699 0.83787 0.7616 0.0
C416 C 0.58315 0.73805 0.85684 0.0
C417 C 0.45559 0.70442 0.9177 0.0
C418 C 0.49803 0.72239 0.87964 0.0
C419 C 0.63037 0.79032 0.77979 0.0
C420 C 0.58306 0.76366 0.81185 0.0
H421 H 0.38508 0.74293 0.98058 0.0
H422 H 0.44965 0.7692 0.91333 0.0
H423 H 0.54346 0.6998 0.92555 0.0
H424 H 0.73252 0.78233 0.74018 0.0
H425 H 0.64931 0.73352 0.78297 0.0
C426 C 0.7809 0.53381 0.9266 0.0
C427 C 0.81622 0.5188 0.93842 0.0
C428 C 0.79116 0.56804 0.88737 0.0
C429 C 0.89816 0.66634 0.81287 0.0
H430 H 0.78513 0.64697 0.71823 0.0
C431 C 0.93087 0.7917 0.63577 0.0
C432 C 0.89589 0.80785 0.63011 0.0
C433 C 0.92158 0.75493 0.67154 0.0
C434 C 0.81699 0.65303 0.74461 0.0
H435 H 0.89007 0.52804 0.91789 0.0
H436 H 0.90754 0.58738 0.84916 0.0
H437 H 0.76835 0.58578 0.7847 0.0
H438 H 0.82267 0.79689 0.65443 0.0
H439 H 0.80632 0.73279 0.71724 0.0
H440 H 0.94669 0.73365 0.77256 0.0
C441 C 0.87222 0.57303 0.87071 0.0
C442 C 0.80738 0.61806 0.78271 0.0
C443 C 0.86197 0.53876 0.90992 0.0
C444 C 0.85056 0.78552 0.65903 0.0
C445 C 0.84105 0.74859 0.69448 0.0
C446 C 0.90779 0.70127 0.7746 0.0
C447 C 0.83692 0.58804 0.85903 0.0
C448 C 0.84773 0.62453 0.81754 0.0
C449 C 0.8767 0.73324 0.70147 0.0
C450 C 0.86718 0.69515 0.74042 0.0
H451 H 0.74538 0.51939 0.94783 0.0
H452 H 0.76354 0.57941 0.87978 0.0
H453 H 0.92994 0.67267 0.83954 0.0
H454 H 0.96603 0.80845 0.61366 0.0
H455 H 0.94945 0.74348 0.67577 0.0
loop_
_geom_bond_atom_site_label_1
_geom_bond_atom_site_label_2
_geom_bond_distance
_geom_bond_site_symmetry_2
_ccdc_geom_bond_type
Sc0 O3 2.025 . S
Sc0 O10 2.105 . S
Sc0 O13 2.105 . S
Sc0 O16 2.105 . S
Sc0 O19 2.105 . S
Sc1 O3 2.025 . S
Sc1 O11 2.105 . S
Sc1 O15 2.105 . S
Sc1 O17 2.105 . S
Sc1 O21 2.105 . S
Sc2 O3 2.025 . S
Sc2 O12 2.105 . S
Sc2 O14 2.105 . S
Sc2 O18 2.105 . S
Sc2 O20 2.105 . S
O3 Sc0 2.025 . S
O3 Sc1 2.025 . S
O3 Sc2 2.025 . S
C4 O10 1.268 . S
C4 O20 1.268 . S
C5 O11 1.268 . S
C5 O19 1.268 . S
C6 O12 1.268 . S
C6 O21 1.268 . S
C7 O13 1.268 . S
C7 O17 1.268 . S
C8 O14 1.268 . S
C8 O16 1.268 . S
C9 O15 1.268 . S
C9 O18 1.268 . S
O10 Sc0 2.105 . S
O10 C4 1.268 . S
O11 Sc1 2.105 . S
O11 C5 1.268 . S
O12 Sc2 2.105 . S
O12 C6 1.268 . S
O13 Sc0 2.105 . S
O13 C7 1.268 . S
O14 Sc2 2.105 . S
O14 C8 1.268 . S
O15 Sc1 2.105 . S
O15 C9 1.268 . S
O16 Sc0 2.105 . S
O16 C8 1.268 . S
O17 Sc1 2.105 . S
O17 C7 1.268 . S
O18 Sc2 2.105 . S
O18 C9 1.268 . S
O19 Sc0 2.105 . S
O19 C5 1.268 . S
O20 Sc2 2.105 . S
O20 C4 1.268 . S
O21 Sc1 2.105 . S
O21 C6 1.268 . S
Sc22 O25 2.025 . S
Sc22 O32 2.105 1_554 S
Sc22 O35 2.105 . S
Sc22 O38 2.105 . S
Sc22 O41 2.105 1_554 S
Sc23 O25 2.025 . S
Sc23 O33 2.105 1_554 S
Sc23 O37 2.105 . S
Sc23 O39 2.105 . S
Sc23 O43 2.105 1_554 S
Sc24 O25 2.025 . S
Sc24 O34 2.105 1_554 S
Sc24 O36 2.105 . S
Sc24 O40 2.105 . S
Sc24 O42 2.105 1_554 S
O25 Sc22 2.025 . S
O25 Sc23 2.025 . S
O25 Sc24 2.025 . S
C26 O32 1.268 . S
C26 O42 1.268 . S
C27 O33 1.268 . S
C27 O41 1.268 . S
C28 O34 1.268 . S
C28 O43 1.268 . S
C29 O35 1.268 . S
C29 O39 1.268 . S
C30 O36 1.268 . S
C30 O38 1.268 . S
C31 O37 1.268 . S
C31 O40 1.268 . S
O32 Sc22 2.105 1_556 S
O32 C26 1.268 . S
O33 Sc23 2.105 1_556 S
O33 C27 1.268 . S
O34 Sc24 2.105 1_556 S
O34 C28 1.268 . S
O35 Sc22 2.105 . S
O35 C29 1.268 . S
O36 Sc24 2.105 . S
O36 C30 1.268 . S
O37 Sc23 2.105 . S
O37 C31 1.268 . S
O38 Sc22 2.105 . S
O38 C30 1.268 . S
O39 Sc23 2.105 . S
O39 C29 1.268 . S
O40 Sc24 2.105 . S
O40 C31 1.268 . S
O41 Sc22 2.105 1_556 S
O41 C27 1.268 . S
O42 Sc24 2.105 1_556 S
O42 C26 1.268 . S
O43 Sc23 2.105 1_556 S
O43 C28 1.268 . S
Zn44 O46 1.933 . S
Zn44 O64 1.985 . S
Zn44 O75 1.955 . S
Zn45 O46 1.911 1_565 S
Zn45 O65 1.970 1_565 S
Zn45 O81 1.945 . S
Zn45 O88 1.981 . S
O46 Zn44 1.933 . S
O46 Zn45 1.911 1_545 S
O46 H47 0.841 1_445 S
H47 O46 0.841 1_665 S
C48 O49 1.246 . S
C48 O77 1.276 . S
O49 C48 1.246 . S
Zn50 O52 1.911 . S
Zn50 O67 1.970 . S
Zn50 O84 1.945 1_655 S
Zn50 O91 1.981 . S
Zn51 O52 1.933 1_545 S
Zn51 O66 1.985 1_545 S
Zn51 O73 1.955 1_655 S
O52 Zn50 1.911 . S
O52 Zn51 1.933 1_565 S
O52 H53 0.841 1_665 S
H53 O52 0.841 1_445 S
Zn54 O55 1.933 . S
Zn54 O68 1.985 . S
Zn54 O77 1.955 . S
O55 Zn54 1.933 . S
O55 Zn56 1.911 . S
O55 H57 0.841 . S
Zn56 O55 1.911 . S
Zn56 O69 1.970 . S
Zn56 O85 1.981 1_545 S
Zn56 O87 1.945 1_545 S
H57 O55 0.841 . S
Zn58 O59 1.933 . S
Zn58 O71 1.985 . S
Zn58 O79 1.955 1_565 S
O59 Zn58 1.933 . S
O59 H60 0.841 . S
O59 Zn61 1.911 . S
H60 O59 0.841 . S
Zn61 O59 1.911 . S
Zn61 O72 1.970 . S
Zn61 O82 1.981 . S
Zn61 O90 1.945 . S
C62 O63 1.246 . S
C62 O79 1.276 . S
O63 C62 1.246 . S
O64 Zn44 1.985 . S
O64 C74 1.245 . S
O65 Zn45 1.970 1_545 S
O65 C74 1.263 . S
O66 Zn51 1.985 1_565 S
O66 C78 1.245 . S
O67 Zn50 1.970 . S
O67 C78 1.263 . S
O68 Zn54 1.985 . S
O68 C83 1.245 . S
O69 Zn56 1.970 . S
O69 C83 1.263 . S
C70 O81 1.262 1_655 S
C70 O82 1.245 . S
O71 Zn58 1.985 . S
O71 C89 1.245 . S
O72 Zn61 1.970 . S
O72 C89 1.263 . S
O73 Zn51 1.955 1_455 S
O73 C92 1.276 . S
C74 O64 1.245 . S
C74 O65 1.263 . S
O75 Zn44 1.955 . S
O75 C94 1.276 1_455 S
C76 O84 1.262 . S
C76 O85 1.245 . S
O77 C48 1.276 . S
O77 Zn54 1.955 . S
C78 O66 1.245 . S
C78 O67 1.263 . S
O79 Zn58 1.955 1_545 S
O79 C62 1.276 . S
C80 O87 1.262 . S
C80 O88 1.245 . S
O81 Zn45 1.945 . S
O81 C70 1.262 1_455 S
O82 Zn61 1.981 . S
O82 C70 1.245 . S
C83 O68 1.245 . S
C83 O69 1.263 . S
O84 Zn50 1.945 1_455 S
O84 C76 1.262 . S
O85 Zn56 1.981 1_565 S
O85 C76 1.245 . S
C86 O90 1.262 . S
C86 O91 1.245 . S
O87 Zn56 1.945 1_565 S
O87 C80 1.262 . S
O88 Zn45 1.981 . S
O88 C80 1.245 . S
C89 O71 1.245 . S
C89 O72 1.263 . S
O90 Zn61 1.945 . S
O90 C86 1.262 . S
O91 Zn50 1.981 . S
O91 C86 1.245 . S
C92 O73 1.276 . S
C92 O93 1.246 . S
O93 C92 1.246 . S
C94 O75 1.276 1_655 S
C94 O95 1.246 . S
O95 C94 1.246 . S
C96 C97 1.349 . S
C96 C98 1.327 . S
C96 H121 0.950 . S
C97 C96 1.349 . S
C97 C113 1.349 . S
C98 C96 1.327 . S
C98 C117 1.429 . S
C98 H122 0.950 . S
C99 C116 1.574 . S
C99 C118 1.368 . S
C99 H123 0.949 . S
H100 C104 0.949 . S
C101 C102 1.349 . S
C101 C103 1.327 . S
C101 H124 0.950 . S
C102 C101 1.349 . S
C102 C114 1.349 . S
C103 C101 1.327 . S
C103 C119 1.429 . S
C103 H125 0.950 . S
C104 H100 0.949 . S
C104 C112 1.574 . S
C104 C120 1.368 . S
H105 C113 0.950 . S
H106 C111 0.950 . S
H107 C112 0.949 . S
H108 C114 0.950 . S
H109 C115 0.950 . S
H110 C116 0.949 . S
C111 H106 0.950 . S
C111 C113 1.327 . S
C111 C117 1.429 . S
C112 C104 1.574 . S
C112 H107 0.949 . S
C112 C118 1.368 . S
C113 C97 1.349 . S
C113 H105 0.950 . S
C113 C111 1.327 . S
C114 C102 1.349 . S
C114 H108 0.950 . S
C114 C115 1.327 . S
C115 H109 0.950 . S
C115 C114 1.327 . S
C115 C119 1.429 . S
C116 C99 1.574 . S
C116 H110 0.949 . S
C116 C120 1.368 . S
C117 C98 1.429 . S
C117 C111 1.429 . S
C117 C118 1.523 . S
C118 C99 1.368 . S
C118 C112 1.368 . S
C118 C117 1.523 . S
C119 C103 1.429 . S
C119 C115 1.429 . S
C119 C120 1.523 . S
C120 C104 1.368 . S
C120 C116 1.368 . S
C120 C119 1.523 . S
H121 C96 0.950 . S
H122 C98 0.950 . S
H123 C99 0.949 . S
H124 C101 0.950 . S
H125 C103 0.950 . S
C126 C127 1.349 . S
C126 C128 1.327 . S
C126 H151 0.950 . S
C127 C126 1.349 . S
C127 C143 1.349 . S
C128 C126 1.327 . S
C128 C147 1.429 . S
C128 H152 0.950 . S
C129 C146 1.574 . S
C129 C148 1.368 . S
C129 H153 0.949 . S
H130 C134 0.949 . S
C131 C132 1.349 . S
C131 C133 1.327 . S
C131 H154 0.950 . S
C132 C131 1.349 . S
C132 C144 1.349 . S
C133 C131 1.327 . S
C133 C149 1.429 . S
C133 H155 0.950 . S
C134 H130 0.949 . S
C134 C142 1.574 . S
C134 C150 1.368 . S
H135 C143 0.950 . S
H136 C141 0.950 . S
H137 C142 0.949 . S
H138 C144 0.950 . S
H139 C145 0.950 . S
H140 C146 0.949 . S
C141 H136 0.950 . S
C141 C143 1.327 . S
C141 C147 1.429 . S
C142 C134 1.574 . S
C142 H137 0.949 . S
C142 C148 1.368 . S
C143 C127 1.349 . S
C143 H135 0.950 . S
C143 C141 1.327 . S
C144 C132 1.349 . S
C144 H138 0.950 . S
C144 C145 1.327 . S
C145 H139 0.950 . S
C145 C144 1.327 . S
C145 C149 1.429 . S
C146 C129 1.574 . S
C146 H140 0.949 . S
C146 C150 1.368 . S
C147 C128 1.429 . S
C147 C141 1.429 . S
C147 C148 1.523 . S
C148 C129 1.368 . S
C148 C142 1.368 . S
C148 C147 1.523 . S
C149 C133 1.429 . S
C149 C145 1.429 . S
C149 C150 1.523 . S
C150 C134 1.368 . S
C150 C146 1.368 . S
C150 C149 1.523 . S
H151 C126 0.950 . S
H152 C128 0.950 . S
H153 C129 0.949 . S
H154 C131 0.950 . S
H155 C133 0.950 . S
C156 C157 1.349 . S
C156 C158 1.327 . S
C156 H181 0.950 . S
C157 C156 1.349 . S
C157 C173 1.349 . S
C158 C156 1.327 . S
C158 C177 1.429 . S
C158 H182 0.950 . S
C159 C176 1.574 . S
C159 C178 1.368 . S
C159 H183 0.949 . S
H160 C164 0.949 . S
C161 C162 1.349 . S
C161 C163 1.327 . S
C161 H184 0.950 . S
C162 C161 1.349 . S
C162 C174 1.349 . S
C163 C161 1.327 . S
C163 C179 1.429 . S
C163 H185 0.950 . S
C164 H160 0.949 . S
C164 C172 1.574 . S
C164 C180 1.368 . S
H165 C173 0.950 . S
H166 C171 0.950 . S
H167 C172 0.949 . S
H168 C174 0.950 . S
H169 C175 0.950 . S
H170 C176 0.949 . S
C171 H166 0.950 . S
C171 C173 1.327 . S
C171 C177 1.429 . S
C172 C164 1.574 . S
C172 H167 0.949 . S
C172 C178 1.368 . S
C173 C157 1.349 . S
C173 H165 0.950 . S
C173 C171 1.327 . S
C174 C162 1.349 . S
C174 H168 0.950 . S
C174 C175 1.327 . S
C175 H169 0.950 . S
C175 C174 1.327 . S
C175 C179 1.429 . S
C176 C159 1.574 . S
C176 H170 0.949 . S
C176 C180 1.368 . S
C177 C158 1.429 . S
C177 C171 1.429 . S
C177 C178 1.523 . S
C178 C159 1.368 . S
C178 C172 1.368 . S
C178 C177 1.523 . S
C179 C163 1.429 . S
C179 C175 1.429 . S
C179 C180 1.523 . S
C180 C164 1.368 . S
C180 C176 1.368 . S
C180 C179 1.523 . S
H181 C156 0.950 . S
H182 C158 0.950 . S
H183 C159 0.949 . S
H184 C161 0.950 . S
H185 C163 0.950 . S
C186 C187 1.349 . S
C186 C188 1.327 . S
C186 H211 0.950 . S
C187 C186 1.349 . S
C187 C203 1.349 . S
C188 C186 1.327 . S
C188 C207 1.429 . S
C188 H212 0.950 . S
C189 C206 1.574 . S
C189 C208 1.368 . S
C189 H213 0.949 . S
H190 C194 0.949 . S
C191 C192 1.349 . S
C191 C193 1.327 . S
C191 H214 0.950 . S
C192 C191 1.349 . S
C192 C204 1.349 . S
C193 C191 1.327 . S
C193 C209 1.429 . S
C193 H215 0.950 . S
C194 H190 0.949 . S
C194 C202 1.574 . S
C194 C210 1.368 . S
H195 C203 0.950 . S
H196 C201 0.950 . S
H197 C202 0.949 . S
H198 C204 0.950 . S
H199 C205 0.950 . S
H200 C206 0.949 . S
C201 H196 0.950 . S
C201 C203 1.327 . S
C201 C207 1.429 . S
C202 C194 1.574 . S
C202 H197 0.949 . S
C202 C208 1.368 . S
C203 C187 1.349 . S
C203 H195 0.950 . S
C203 C201 1.327 . S
C204 C192 1.349 . S
C204 H198 0.950 . S
C204 C205 1.327 . S
C205 H199 0.950 . S
C205 C204 1.327 . S
C205 C209 1.429 . S
C206 C189 1.574 . S
C206 H200 0.949 . S
C206 C210 1.368 . S
C207 C188 1.429 . S
C207 C201 1.429 . S
C207 C208 1.523 . S
C208 C189 1.368 . S
C208 C202 1.368 . S
C208 C207 1.523 . S
C209 C193 1.429 . S
C209 C205 1.429 . S
C209 C210 1.523 . S
C210 C194 1.368 . S
C210 C206 1.368 . S
C210 C209 1.523 . S
H211 C186 0.950 . S
H212 C188 0.950 . S
H213 C189 0.949 . S
H214 C191 0.950 . S
H215 C193 0.950 . S
C216 C217 1.349 . S
C216 C218 1.327 . S
C216 H241 0.950 . S
C217 C216 1.349 . S
C217 C233 1.349 . S
C218 C216 1.327 . S
C218 C237 1.429 . S
C218 H242 0.950 . S
C219 C236 1.574 . S
C219 C238 1.368 . S
C219 H243 0.949 . S
H220 C224 0.949 . S
C221 C222 1.349 . S
C221 C223 1.327 . S
C221 H244 0.950 . S
C222 C221 1.349 . S
C222 C234 1.349 . S
C223 C221 1.327 . S
C223 C239 1.429 . S
C223 H245 0.950 . S
C224 H220 0.949 . S
C224 C232 1.574 . S
C224 C240 1.368 . S
H225 C233 0.950 . S
H226 C231 0.950 . S
H227 C232 0.949 . S
H228 C234 0.950 . S
H229 C235 0.950 . S
H230 C236 0.949 . S
C231 H226 0.950 . S
C231 C233 1.327 . S
C231 C237 1.429 . S
C232 C224 1.574 . S
C232 H227 0.949 . S
C232 C238 1.368 . S
C233 C217 1.349 . S
C233 H225 0.950 . S
C233 C231 1.327 . S
C234 C222 1.349 . S
C234 H228 0.950 . S
C234 C235 1.327 . S
C235 H229 0.950 . S
C235 C234 1.327 . S
C235 C239 1.429 . S
C236 C219 1.574 . S
C236 H230 0.949 . S
C236 C240 1.368 . S
C237 C218 1.429 . S
C237 C231 1.429 . S
C237 C238 1.523 . S
C238 C219 1.368 . S
C238 C232 1.368 . S
C238 C237 1.523 . S
C239 C223 1.429 . S
C239 C235 1.429 . S
C239 C240 1.523 . S
C240 C224 1.368 . S
C240 C236 1.368 . S
C240 C239 1.523 . S
H241 C216 0.950 . S
H242 C218 0.950 . S
H243 C219 0.949 . S
H244 C221 0.950 . S
H245 C223 0.950 . S
C246 C247 1.349 . S
C246 C248 1.327 . S
C246 H271 0.950 . S
C247 C246 1.349 . S
C247 C263 1.349 . S
C248 C246 1.327 . S
C248 C267 1.429 . S
C248 H272 0.950 . S
C249 C266 1.574 . S
C249 C268 1.368 . S
C249 H273 0.949 . S
H250 C254 0.949 . S
C251 C252 1.349 . S
C251 C253 1.327 . S
C251 H274 0.950 . S
C252 C251 1.349 . S
C252 C264 1.349 . S
C253 C251 1.327 . S
C253 C269 1.429 . S
C253 H275 0.950 . S
C254 H250 0.949 . S
C254 C262 1.574 . S
C254 C270 1.368 . S
H255 C263 0.950 . S
H256 C261 0.950 . S
H257 C262 0.949 . S
H258 C264 0.950 . S
H259 C265 0.950 . S
H260 C266 0.949 . S
C261 H256 0.950 . S
C261 C263 1.327 . S
C261 C267 1.429 . S
C262 C254 1.574 . S
C262 H257 0.949 . S
C262 C268 1.368 . S
C263 C247 1.349 . S
C263 H255 0.950 . S
C263 C261 1.327 . S
C264 C252 1.349 . S
C264 H258 0.950 . S
C264 C265 1.327 . S
C265 H259 0.950 . S
C265 C264 1.327 . S
C265 C269 1.429 . S
C266 C249 1.574 . S
C266 H260 0.949 . S
C266 C270 1.368 . S
C267 C248 1.429 . S
C267 C261 1.429 . S
C267 C268 1.523 . S
C268 C249 1.368 . S
C268 C262 1.368 . S
C268 C267 1.523 . S
C269 C253 1.429 . S
C269 C265 1.429 . S
C269 C270 1.523 . S
C270 C254 1.368 . S
C270 C266 1.368 . S
C270 C269 1.523 . S
H271 C246 0.950 . S
H272 C248 0.950 . S
H273 C249 0.949 . S
H274 C251 0.950 . S
H275 C253 0.950 . S
C276 C277 1.349 1_556 S
C276 C278 1.327 . S
C276 H301 0.950 . S
C277 C276 1.349 1_554 S
C277 C293 1.349 . S
C278 C276 1.327 . S
C278 C297 1.429 . S
C278 H302 0.950 . S
C279 C296 1.574 . S
C279 C298 1.368 . S
C279 H303 0.949 . S
H280 C284 0.949 . S
C281 C282 1.349 . S
C281 C283 1.327 . S
C281 H304 0.950 . S
C282 C281 1.349 . S
C282 C294 1.349 . S
C283 C281 1.327 . S
C283 C299 1.429 . S
C283 H305 0.950 . S
C284 H280 0.949 . S
C284 C292 1.574 . S
C284 C300 1.368 . S
H285 C293 0.950 . S
H286 C291 0.950 . S
H287 C292 0.949 . S
H288 C294 0.950 . S
H289 C295 0.950 . S
H290 C296 0.949 . S
C291 H286 0.950 . S
C291 C293 1.327 1_556 S
C291 C297 1.429 . S
C292 C284 1.574 . S
C292 H287 0.949 . S
C292 C298 1.368 . S
C293 C277 1.349 . S
C293 H285 0.950 . S
C293 C291 1.327 1_554 S
C294 C282 1.349 . S
C294 H288 0.950 . S
C294 C295 1.327 . S
C295 H289 0.950 . S
C295 C294 1.327 . S
C295 C299 1.429 . S
C296 C279 1.574 . S
C296 H290 0.949 . S
C296 C300 1.368 . S
C297 C278 1.429 . S
C297 C291 1.429 . S
C297 C298 1.523 . S
C298 C279 1.368 . S
C298 C292 1.368 . S
C298 C297 1.523 . S
C299 C283 1.429 . S
C299 C295 1.429 . S
C299 C300 1.523 . S
C300 C284 1.368 . S
C300 C296 1.368 . S
C300 C299 1.523 . S
H301 C276 0.950 . S
H302 C278 0.950 . S
H303 C279 0.949 . S
H304 C281 0.950 . S
H305 C283 0.950 . S
C306 C307 1.349 . S
C306 C308 1.327 . S
C306 H331 0.950 . S
C307 C306 1.349 . S
C307 C323 1.349 . S
C308 C306 1.327 . S
C308 C327 1.429 . S
C308 H332 0.950 . S
C309 C326 1.574 . S
C309 C328 1.368 . S
C309 H333 0.949 . S
H310 C314 0.949 . S
C311 C312 1.349 . S
C311 C313 1.327 . S
C311 H334 0.950 . S
C312 C311 1.349 . S
C312 C324 1.349 . S
C313 C311 1.327 . S
C313 C329 1.429 . S
C313 H335 0.950 . S
C314 H310 0.949 . S
C314 C322 1.574 . S
C314 C330 1.368 . S
H315 C323 0.950 . S
H316 C321 0.950 . S
H317 C322 0.949 . S
H318 C324 0.950 . S
H319 C325 0.950 . S
H320 C326 0.949 . S
C321 H316 0.950 . S
C321 C323 1.327 . S
C321 C327 1.429 . S
C322 C314 1.574 . S
C322 H317 0.949 . S
C322 C328 1.368 . S
C323 C307 1.349 . S
C323 H315 0.950 . S
C323 C321 1.327 . S
C324 C312 1.349 . S
C324 H318 0.950 . S
C324 C325 1.327 . S
C325 H319 0.950 . S
C325 C324 1.327 . S
C325 C329 1.429 . S
C326 C309 1.574 . S
C326 H320 0.949 . S
C326 C330 1.368 . S
C327 C308 1.429 . S
C327 C321 1.429 . S
C327 C328 1.523 . S
C328 C309 1.368 . S
C328 C322 1.368 . S
C328 C327 1.523 . S
C329 C313 1.429 . S
C329 C325 1.429 . S
C329 C330 1.523 . S
C330 C314 1.368 . S
C330 C326 1.368 . S
C330 C329 1.523 . S
H331 C306 0.950 . S
H332 C308 0.950 . S
H333 C309 0.949 . S
H334 C311 0.950 . S
H335 C313 0.950 . S
C336 C337 1.349 . S
C336 C338 1.327 . S
C336 H361 0.950 . S
C337 C336 1.349 . S
C337 C353 1.349 1_554 S
C338 C336 1.327 . S
C338 C357 1.429 1_554 S
C338 H362 0.950 . S
C339 C356 1.574 . S
C339 C358 1.368 . S
C339 H363 0.949 . S
H340 C344 0.949 . S
C341 C342 1.349 . S
C341 C343 1.327 . S
C341 H364 0.950 . S
C342 C341 1.349 . S
C342 C354 1.349 . S
C343 C341 1.327 . S
C343 C359 1.429 . S
C343 H365 0.950 . S
C344 H340 0.949 . S
C344 C352 1.574 . S
C344 C360 1.368 . S
H345 C353 0.950 . S
H346 C351 0.950 . S
H347 C352 0.949 . S
H348 C354 0.950 . S
H349 C355 0.950 . S
H350 C356 0.949 . S
C351 H346 0.950 . S
C351 C353 1.327 . S
C351 C357 1.429 . S
C352 C344 1.574 . S
C352 H347 0.949 . S
C352 C358 1.368 . S
C353 C337 1.349 1_556 S
C353 H345 0.950 . S
C353 C351 1.327 . S
C354 C342 1.349 . S
C354 H348 0.950 . S
C354 C355 1.327 . S
C355 H349 0.950 . S
C355 C354 1.327 . S
C355 C359 1.429 . S
C356 C339 1.574 . S
C356 H350 0.949 . S
C356 C360 1.368 . S
C357 C338 1.429 1_556 S
C357 C351 1.429 . S
C357 C358 1.523 . S
C358 C339 1.368 . S
C358 C352 1.368 . S
C358 C357 1.523 . S
C359 C343 1.429 . S
C359 C355 1.429 . S
C359 C360 1.523 . S
C360 C344 1.368 . S
C360 C356 1.368 . S
C360 C359 1.523 . S
H361 C336 0.950 . S
H362 C338 0.950 . S
H363 C339 0.949 . S
H364 C341 0.950 . S
H365 C343 0.950 . S
C366 C367 1.349 . S
C366 C368 1.327 . S
C366 H391 0.950 . S
C367 C366 1.349 . S
C367 C383 1.349 . S
C368 C366 1.327 . S
C368 C387 1.429 . S
C368 H392 0.950 . S
C369 C386 1.574 . S
C369 C388 1.368 . S
C369 H393 0.949 . S
H370 C374 0.949 . S
C371 C372 1.349 . S
C371 C373 1.327 . S
C371 H394 0.950 . S
C372 C371 1.349 . S
C372 C384 1.349 . S
C373 C371 1.327 . S
C373 C389 1.429 . S
C373 H395 0.950 . S
C374 H370 0.949 . S
C374 C382 1.574 . S
C374 C390 1.368 . S
H375 C383 0.950 . S
H376 C381 0.950 . S
H377 C382 0.949 . S
H378 C384 0.950 . S
H379 C385 0.950 . S
H380 C386 0.949 . S
C381 H376 0.950 . S
C381 C383 1.327 . S
C381 C387 1.429 . S
C382 C374 1.574 . S
C382 H377 0.949 . S
C382 C388 1.368 . S
C383 C367 1.349 . S
C383 H375 0.950 . S
C383 C381 1.327 . S
C384 C372 1.349 . S
C384 H378 0.950 . S
C384 C385 1.327 . S
C385 H379 0.950 . S
C385 C384 1.327 . S
C385 C389 1.429 . S
C386 C369 1.574 . S
C386 H380 0.949 . S
C386 C390 1.368 . S
C387 C368 1.429 . S
C387 C381 1.429 . S
C387 C388 1.523 . S
C388 C369 1.368 . S
C388 C382 1.368 . S
C388 C387 1.523 . S
C389 C373 1.429 . S
C389 C385 1.429 . S
C389 C390 1.523 . S
C390 C374 1.368 . S
C390 C386 1.368 . S
C390 C389 1.523 . S
H391 C366 0.950 . S
H392 C368 0.950 . S
H393 C369 0.949 . S
H394 C371 0.950 . S
H395 C373 0.950 . S
C396 C397 1.349 . S
C396 C398 1.327 1_554 S
C396 H421 0.950 . S
C397 C396 1.349 . S
C397 C413 1.349 . S
C398 C396 1.327 1_556 S
C398 C417 1.429 . S
C398 H422 0.950 . S
C399 C416 1.574 . S
C399 C418 1.368 . S
C399 H423 0.949 . S
H400 C404 0.949 . S
C401 C402 1.349 . S
C401 C403 1.327 . S
C401 H424 0.950 . S
C402 C401 1.349 . S
C402 C414 1.349 . S
C403 C401 1.327 . S
C403 C419 1.429 . S
C403 H425 0.950 . S
C404 H400 0.949 . S
C404 C412 1.574 . S
C404 C420 1.368 . S
H405 C413 0.950 . S
H406 C411 0.950 . S
H407 C412 0.949 . S
H408 C414 0.950 . S
H409 C415 0.950 . S
H410 C416 0.949 . S
C411 H406 0.950 . S
C411 C413 1.327 . S
C411 C417 1.429 1_554 S
C412 C404 1.574 . S
C412 H407 0.949 . S
C412 C418 1.368 . S
C413 C397 1.349 . S
C413 H405 0.950 . S
C413 C411 1.327 . S
C414 C402 1.349 . S
C414 H408 0.950 . S
C414 C415 1.327 . S
C415 H409 0.950 . S
C415 C414 1.327 . S
C415 C419 1.429 . S
C416 C399 1.574 . S
C416 H410 0.949 . S
C416 C420 1.368 . S
C417 C398 1.429 . S
C417 C411 1.429 1_556 S
C417 C418 1.523 . S
C418 C399 1.368 . S
C418 C412 1.368 . S
C418 C417 1.523 . S
C419 C403 1.429 . S
C419 C415 1.429 . S
C419 C420 1.523 . S
C420 C404 1.368 . S
C420 C416 1.368 . S
C420 C419 1.523 . S
H421 C396 0.950 . S
H422 C398 0.950 . S
H423 C399 0.949 . S
H424 C401 0.950 . S
H425 C403 0.950 . S
C426 C427 1.349 . S
C426 C428 1.327 . S
C426 H451 0.950 . S
C427 C426 1.349 . S
C427 C443 1.349 . S
C428 C426 1.327 . S
C428 C447 1.429 . S
C428 H452 0.950 . S
C429 C446 1.574 . S
C429 C448 1.368 . S
C429 H453 0.949 . S
H430 C434 0.949 . S
C431 C432 1.349 . S
C431 C433 1.327 . S
C431 H454 0.950 . S
C432 C431 1.349 . S
C432 C444 1.349 . S
C433 C431 1.327 . S
C433 C449 1.429 . S
C433 H455 0.950 . S
C434 H430 0.949 . S
C434 C442 1.574 . S
C434 C450 1.368 . S
H435 C443 0.950 . S
H436 C441 0.950 . S
H437 C442 0.949 . S
H438 C444 0.950 . S
H439 C445 0.950 . S
H440 C446 0.949 . S
C441 H436 0.950 . S
C441 C443 1.327 . S
C441 C447 1.429 . S
C442 C434 1.574 . S
C442 H437 0.949 . S
C442 C448 1.368 . S
C443 C427 1.349 . S
C443 H435 0.950 . S
C443 C441 1.327 . S
C444 C432 1.349 . S
C444 H438 0.950 . S
C444 C445 1.327 . S
C445 H439 0.950 . S
C445 C444 1.327 . S
C445 C449 1.429 . S
C446 C429 1.574 . S
C446 H440 0.949 . S
C446 C450 1.368 . S
C447 C428 1.429 . S
C447 C441 1.429 . S
C447 C448 1.523 . S
C448 C429 1.368 . S
C448 C442 1.368 . S
C448 C447 1.523 . S
C449 C433 1.429 . S
C449 C445 1.429 . S
C449 C450 1.523 . S
C450 C434 1.368 . S
C450 C446 1.368 . S
C450 C449 1.523 . S
H451 C426 0.950 . S
H452 C428 0.950 . S
H453 C429 0.949 . S
H454 C431 0.950 . S
H455 C433 0.950 . S
C97 C7 1.365 . S
C102 C80 1.386 . S
C132 C74 1.660 . S
C127 C30 1.620 . S
C162 C48 1.435 . S
C157 C9 1.417 . S
C192 C94 2.007 . S
C187 C29 2.066 . S
C222 C89 0.215 . S
C217 C8 0.405 . S
C247 C31 1.972 . S
C252 C70 1.932 . S
C277 C5 1.972 . S
C282 C76 1.932 . S
C307 C26 0.405 . S
C312 C83 0.215 . S
C337 C6 2.066 . S
C342 C92 2.007 . S
C367 C27 1.417 . S
C372 C62 1.435 . S
C402 C78 1.660 . S
C397 C4 1.620 . S
C427 C28 1.365 . S
C432 C86 1.386 . S
