# Generated by pormake.
# Topology apo, (3,6)-cn, num edge types: 1
# Building blocks:
#     Node 0, Type 0, BuildingBlock: WUSLED_clean_sbu_0, # of connection points: 3
#     Node 1, Type 0, BuildingBlock: WUSLED_clean_sbu_0, # of connection points: 3
#     Node 2, Type 0, BuildingBlock: WUSLED_clean_sbu_0, # of connection points: 3
#     Node 3, Type 0, BuildingBlock: WUSLED_clean_sbu_0, # of connection points: 3
#     Node 4, Type 0, BuildingBlock: WUSLED_clean_sbu_0, # of connection points: 3
#     Node 5, Type 0, BuildingBlock: WUSLED_clean_sbu_0, # of connection points: 3
#     Node 6, Type 0, BuildingBlock: WUSLED_clean_sbu_0, # of connection points: 3
#     Node 7, Type 0, BuildingBlock: WUSLED_clean_sbu_0, # of connection points: 3
#     Node 8, Type 1, BuildingBlock: KUMJIN_clean_sbu_1, # of connection points: 6
#     Node 9, Type 1, BuildingBlock: KUMJIN_clean_sbu_1, # of connection points: 6
#     Node 10, Type 1, BuildingBlock: KUMJIN_clean_sbu_1, # of connection points: 6
#     Node 11, Type 1, BuildingBlock: KUMJIN_clean_sbu_1, # of connection points: 6
#     Edge 12, Type (0, 1), BuildingBlock: MIFKUJ_clean_linker_0, # of connection points: 2
#     Edge 13, Type (0, 1), BuildingBlock: MIFKUJ_clean_linker_0, # of connection points: 2
#     Edge 14, Type (0, 1), BuildingBlock: MIFKUJ_clean_linker_0, # of connection points: 2
#     Edge 15, Type (0, 1), BuildingBlock: MIFKUJ_clean_linker_0, # of connection points: 2
#     Edge 16, Type (0, 1), BuildingBlock: MIFKUJ_clean_linker_0, # of connection points: 2
#     Edge 17, Type (0, 1), BuildingBlock: MIFKUJ_clean_linker_0, # of connection points: 2
#     Edge 18, Type (0, 1), BuildingBlock: MIFKUJ_clean_linker_0, # of connection points: 2
#     Edge 19, Type (0, 1), BuildingBlock: MIFKUJ_clean_linker_0, # of connection points: 2
#     Edge 20, Type (0, 1), BuildingBlock: MIFKUJ_clean_linker_0, # of connection points: 2
#     Edge 21, Type (0, 1), BuildingBlock: MIFKUJ_clean_linker_0, # of connection points: 2
#     Edge 22, Type (0, 1), BuildingBlock: MIFKUJ_clean_linker_0, # of connection points: 2
#     Edge 23, Type (0, 1), BuildingBlock: MIFKUJ_clean_linker_0, # of connection points: 2
#     Edge 24, Type (0, 1), BuildingBlock: MIFKUJ_clean_linker_0, # of connection points: 2
#     Edge 25, Type (0, 1), BuildingBlock: MIFKUJ_clean_linker_0, # of connection points: 2
#     Edge 26, Type (0, 1), BuildingBlock: MIFKUJ_clean_linker_0, # of connection points: 2
#     Edge 27, Type (0, 1), BuildingBlock: MIFKUJ_clean_linker_0, # of connection points: 2
#     Edge 28, Type (0, 1), BuildingBlock: MIFKUJ_clean_linker_0, # of connection points: 2
#     Edge 29, Type (0, 1), BuildingBlock: MIFKUJ_clean_linker_0, # of connection points: 2
#     Edge 30, Type (0, 1), BuildingBlock: MIFKUJ_clean_linker_0, # of connection points: 2
#     Edge 31, Type (0, 1), BuildingBlock: MIFKUJ_clean_linker_0, # of connection points: 2
#     Edge 32, Type (0, 1), BuildingBlock: MIFKUJ_clean_linker_0, # of connection points: 2
#     Edge 33, Type (0, 1), BuildingBlock: MIFKUJ_clean_linker_0, # of connection points: 2
#     Edge 34, Type (0, 1), BuildingBlock: MIFKUJ_clean_linker_0, # of connection points: 2
#     Edge 35, Type (0, 1), BuildingBlock: MIFKUJ_clean_linker_0, # of connection points: 2
# Relax obj value: 0.010
# Max RMSD: 0.089
# Mean RMSD: 0.069
data_MOF--net-apo--node1-WUSLED_clean_sbu_0--node2-KUMJIN_clean_sbu_1--edge1-MIFKUJ_clean_linker_0
_symmetry_space_group_name_H-M    P1
_symmetry_Int_Tables_number       1
_symmetry_cell_setting            triclinic
loop_
_symmetry_equiv_pos_as_xyz
'x, y, z'
_cell_length_a     38.495143
_cell_length_b     68.413844
_cell_length_c     79.778617
_cell_angle_alpha  90.305214
_cell_angle_beta   90.129726
_cell_angle_gamma 90.196683
loop_
_atom_site_label
_atom_site_type_symbol
_atom_site_fract_x
_atom_site_fract_y
_atom_site_fract_z
_atom_type_partial_charge
C0 C 0.31144 0.41854 0.38832 0.0
C1 C 0.33647 0.42993 0.39672 0.0
C2 C 0.33862 0.45259 0.37314 0.0
C3 C 0.35001 0.4468 0.38917 0.0
C4 C 0.31341 0.44108 0.36489 0.0
C5 C 0.30001 0.42427 0.37242 0.0
U6 U 0.29378 0.38204 0.42443 0.0
O7 O 0.24568 0.36534 0.42917 0.0
O8 O 0.2941 0.34991 0.42343 0.0
C9 C 0.26034 0.3485 0.42565 0.0
C10 C 0.29707 0.40048 0.39561 0.0
C11 C 0.24137 0.33581 0.41365 0.0
C12 C 0.23359 0.32189 0.38572 0.0
C13 C 0.25122 0.33453 0.39673 0.0
C14 C 0.19544 0.31202 0.40826 0.0
C15 C 0.20556 0.31041 0.39136 0.0
C16 C 0.21324 0.32455 0.41928 0.0
C17 C 0.32882 0.39208 0.46949 0.0
C18 C 0.30816 0.39068 0.49837 0.0
C19 C 0.36906 0.38562 0.49244 0.0
C20 C 0.36252 0.38813 0.47532 0.0
C21 C 0.34208 0.38716 0.50426 0.0
C22 C 0.30161 0.39315 0.48121 0.0
C23 C 0.3234 0.39675 0.45148 0.0
O24 O 0.31967 0.38721 0.40028 0.0
O25 O 0.27146 0.40271 0.4063 0.0
O26 O 0.29171 0.40121 0.44666 0.0
O27 O 0.33996 0.38578 0.44054 0.0
H28 H 0.34557 0.42575 0.40905 0.0
H29 H 0.36914 0.45541 0.39594 0.0
H30 H 0.30443 0.44485 0.35246 0.0
H31 H 0.28081 0.41562 0.36571 0.0
H32 H 0.24175 0.32121 0.37275 0.0
H33 H 0.27265 0.3432 0.39204 0.0
H34 H 0.1742 0.30328 0.41305 0.0
H35 H 0.20522 0.32531 0.43227 0.0
H36 H 0.28678 0.39219 0.50708 0.0
H37 H 0.3954 0.38261 0.49643 0.0
H38 H 0.38409 0.38737 0.46664 0.0
H39 H 0.27535 0.39637 0.47722 0.0
C40 C 0.19022 0.15788 0.96693 0.0
C41 C 0.1693 0.14193 0.97145 0.0
C42 C 0.16895 0.15306 1.00058 0.0
C43 C 0.15873 0.13954 0.98811 0.0
C44 C 0.18995 0.16902 0.99592 0.0
C45 C 0.20045 0.17139 0.97926 0.0
U46 U 0.19395 0.14068 0.92141 0.0
O47 O 0.18862 0.15714 0.8979 0.0
O48 O 0.23687 0.14133 0.90323 0.0
C49 C 0.22042 0.15317 0.89303 0.0
C50 C 0.20152 0.16059 0.94946 0.0
C51 C 0.24066 0.16972 0.88639 0.0
C52 C 0.27569 0.19913 0.89008 0.0
C53 C 0.25647 0.18364 0.89694 0.0
C54 C 0.26331 0.1869 0.86215 0.0
C55 C 0.27926 0.20098 0.87257 0.0
C56 C 0.24424 0.17148 0.86899 0.0
C57 C 0.14829 0.09252 0.90949 0.0
C58 C 0.15586 0.07534 0.88299 0.0
C59 C 0.11013 0.06546 0.90198 0.0
C60 C 0.1203 0.08016 0.91324 0.0
C61 C 0.12786 0.0628 0.88674 0.0
C62 C 0.16592 0.09011 0.89424 0.0
C63 C 0.15872 0.1077 0.92169 0.0
O64 O 0.22453 0.14795 0.94397 0.0
O65 O 0.17656 0.16393 0.93859 0.0
O66 O 0.14409 0.12486 0.91976 0.0
O67 O 0.19211 0.10885 0.92506 0.0
H68 H 0.16124 0.1313 0.96209 0.0
H69 H 0.14297 0.12695 0.99126 0.0
H70 H 0.19794 0.17984 1.00512 0.0
H71 H 0.21652 0.18383 0.976 0.0
H72 H 0.28739 0.20978 0.89847 0.0
H73 H 0.25391 0.18254 0.91042 0.0
H74 H 0.26598 0.18761 0.84865 0.0
H75 H 0.23236 0.16082 0.86065 0.0
H76 H 0.16981 0.07384 0.87128 0.0
H77 H 0.08876 0.05594 0.90537 0.0
H78 H 0.10641 0.0818 0.92496 0.0
H79 H 0.18748 0.0996 0.89106 0.0
C80 C 0.8327 0.10977 0.64668 0.0
C81 C 0.8325 0.09181 0.63805 0.0
C82 C 0.85525 0.07527 0.66282 0.0
C83 C 0.84362 0.07473 0.64605 0.0
C84 C 0.85607 0.09341 0.67123 0.0
C85 C 0.84485 0.11042 0.66325 0.0
U86 U 0.81824 0.14534 0.60976 0.0
O87 O 0.77164 0.16262 0.60372 0.0
O88 O 0.82068 0.17746 0.60986 0.0
C89 C 0.7872 0.17934 0.60699 0.0
C90 C 0.81925 0.12787 0.63904 0.0
C91 C 0.76834 0.19275 0.6183 0.0
C92 C 0.75776 0.20662 0.64598 0.0
C93 C 0.77562 0.19355 0.63555 0.0
C94 C 0.72472 0.21801 0.62212 0.0
C95 C 0.73209 0.21908 0.63941 0.0
C96 C 0.7427 0.20502 0.61171 0.0
C97 C 0.85517 0.13294 0.56593 0.0
C98 C 0.84232 0.14987 0.53986 0.0
C99 C 0.88906 0.1263 0.54087 0.0
C100 C 0.88199 0.1229 0.55779 0.0
C101 C 0.8694 0.13985 0.53167 0.0
C102 C 0.83534 0.14649 0.55687 0.0
C103 C 0.8486 0.12889 0.58379 0.0
O104 O 0.84262 0.14083 0.63448 0.0
O105 O 0.79377 0.12585 0.62815 0.0
O106 O 0.81616 0.12543 0.58802 0.0
O107 O 0.86508 0.14017 0.59458 0.0
H108 H 0.82329 0.09092 0.62523 0.0
H109 H 0.8423 0.06103 0.63922 0.0
H110 H 0.86545 0.09451 0.684 0.0
H111 H 0.84534 0.12413 0.67012 0.0
H112 H 0.76447 0.20714 0.65917 0.0
H113 H 0.79525 0.18415 0.64094 0.0
H114 H 0.70472 0.22706 0.61663 0.0
H115 H 0.73654 0.20454 0.59845 0.0
H116 H 0.82689 0.16053 0.53321 0.0
H117 H 0.90972 0.1181 0.53494 0.0
H118 H 0.89751 0.11234 0.56454 0.0
H119 H 0.81457 0.15446 0.56296 0.0
C120 C 0.68337 0.35516 0.06321 0.0
C121 C 0.68359 0.37279 0.05422 0.0
C122 C 0.65852 0.35632 0.02976 0.0
C123 C 0.67142 0.37334 0.03764 0.0
C124 C 0.65797 0.33879 0.03892 0.0
C125 C 0.67032 0.33823 0.05542 0.0
U126 U 0.69653 0.3745 0.10832 0.0
O127 O 0.69565 0.35859 0.1322 0.0
O128 O 0.74317 0.37384 0.1244 0.0
C129 C 0.7285 0.36233 0.13548 0.0
C130 C 0.6974 0.35381 0.08046 0.0
C131 C 0.74967 0.34587 0.14156 0.0
C132 C 0.76455 0.31132 0.14229 0.0
C133 C 0.74538 0.32674 0.13539 0.0
C134 C 0.79291 0.33406 0.16128 0.0
C135 C 0.78841 0.31478 0.15541 0.0
C136 C 0.77375 0.34939 0.15443 0.0
C137 C 0.65675 0.42323 0.12216 0.0
C138 C 0.65233 0.43394 0.15122 0.0
C139 C 0.63985 0.45656 0.12877 0.0
C140 C 0.64705 0.44195 0.11697 0.0
C141 C 0.64205 0.45273 0.14607 0.0
C142 C 0.65966 0.41933 0.13937 0.0
C143 C 0.66332 0.40797 0.10944 0.0
O144 O 0.72191 0.36638 0.08462 0.0
O145 O 0.67445 0.35108 0.0924 0.0
O146 O 0.64822 0.391 0.11205 0.0
O147 O 0.69567 0.40636 0.1044 0.0
H148 H 0.69334 0.38611 0.05996 0.0
H149 H 0.67188 0.38712 0.03103 0.0
H150 H 0.64866 0.32536 0.0332 0.0
H151 H 0.67001 0.32446 0.06206 0.0
H152 H 0.7607 0.2967 0.13735 0.0
H153 H 0.72699 0.3237 0.12541 0.0
H154 H 0.81059 0.33726 0.17152 0.0
H155 H 0.7773 0.36403 0.15943 0.0
H156 H 0.65406 0.4304 0.16441 0.0
H157 H 0.63274 0.47093 0.12431 0.0
H158 H 0.64492 0.44528 0.10374 0.0
H159 H 0.66725 0.40495 0.14363 0.0
C160 C 0.69108 0.5992 0.6427 0.0
C161 C 0.66296 0.58913 0.63541 0.0
C162 C 0.66717 0.56374 0.65672 0.0
C163 C 0.65104 0.57158 0.64239 0.0
C164 C 0.69574 0.57375 0.66374 0.0
C165 C 0.7075 0.59129 0.65681 0.0
U166 U 0.70402 0.63759 0.60788 0.0
O167 O 0.69915 0.66957 0.60955 0.0
O168 O 0.74956 0.6565 0.60345 0.0
C169 C 0.73262 0.67252 0.60739 0.0
C170 C 0.7032 0.61819 0.63625 0.0
C171 C 0.74989 0.68553 0.61973 0.0
C172 C 0.75768 0.69786 0.64822 0.0
C173 C 0.74132 0.68509 0.63684 0.0
C174 C 0.79185 0.71134 0.62559 0.0
C175 C 0.78306 0.71126 0.64273 0.0
C176 C 0.77539 0.69867 0.61425 0.0
C177 C 0.6709 0.62549 0.56283 0.0
C178 C 0.67221 0.64678 0.53846 0.0
C179 C 0.65073 0.61361 0.53572 0.0
C180 C 0.65706 0.61054 0.55276 0.0
C181 C 0.65804 0.63178 0.5283 0.0
C182 C 0.67854 0.64366 0.5556 0.0
C183 C 0.67683 0.62154 0.58078 0.0
O184 O 0.7293 0.61758 0.62568 0.0
O185 O 0.67898 0.63069 0.63189 0.0
O186 O 0.65887 0.63207 0.5915 0.0
O187 O 0.70926 0.61896 0.58543 0.0
H188 H 0.65002 0.59494 0.62445 0.0
H189 H 0.62923 0.56415 0.63657 0.0
H190 H 0.70848 0.56832 0.67489 0.0
H191 H 0.72918 0.59886 0.66264 0.0
H192 H 0.75 0.69744 0.66126 0.0
H193 H 0.72182 0.67499 0.64138 0.0
H194 H 0.81174 0.72111 0.62091 0.0
H195 H 0.7826 0.69914 0.60113 0.0
H196 H 0.67796 0.66099 0.53322 0.0
H197 H 0.64049 0.6016 0.52829 0.0
H198 H 0.65116 0.59637 0.55809 0.0
H199 H 0.68924 0.65541 0.56319 0.0
C200 C 0.80577 0.86526 0.05638 0.0
C201 C 0.83515 0.87673 0.05286 0.0
C202 C 0.82831 0.87019 0.02286 0.0
C203 C 0.84635 0.87915 0.03628 0.0
C204 C 0.79876 0.85882 0.02654 0.0
C205 C 0.78769 0.85637 0.0431 0.0
U206 U 0.79816 0.88049 0.10278 0.0
O207 O 0.75287 0.87899 0.11964 0.0
O208 O 0.80016 0.86252 0.12554 0.0
C209 C 0.76774 0.86624 0.1296 0.0
C210 C 0.79348 0.86229 0.07372 0.0
C211 C 0.74605 0.84952 0.13503 0.0
C212 C 0.73469 0.81457 0.13743 0.0
C213 C 0.75405 0.83009 0.13075 0.0
C214 C 0.69855 0.83766 0.15237 0.0
C215 C 0.70688 0.81815 0.14847 0.0
C216 C 0.71793 0.85312 0.14575 0.0
C217 C 0.84217 0.92799 0.11828 0.0
C218 C 0.82777 0.94715 0.14313 0.0
C219 C 0.88312 0.95196 0.12938 0.0
C220 C 0.87428 0.93766 0.1175 0.0
C221 C 0.85992 0.95698 0.1423 0.0
C222 C 0.81902 0.93273 0.13127 0.0
C223 C 0.83325 0.91344 0.10519 0.0
O224 O 0.81744 0.85838 0.08498 0.0
O225 O 0.77013 0.87478 0.07912 0.0
O226 O 0.80043 0.9125 0.10065 0.0
O227 O 0.84771 0.89616 0.10673 0.0
H228 H 0.84948 0.88377 0.06294 0.0
H229 H 0.86939 0.88785 0.034 0.0
H230 H 0.78377 0.852 0.01659 0.0
H231 H 0.76485 0.84754 0.04553 0.0
H232 H 0.74158 0.79975 0.13399 0.0
H233 H 0.77557 0.82687 0.12247 0.0
H234 H 0.67769 0.84102 0.161 0.0
H235 H 0.71143 0.86796 0.14935 0.0
H236 H 0.80948 0.95049 0.15302 0.0
H237 H 0.9079 0.95938 0.12823 0.0
H238 H 0.89248 0.93427 0.10756 0.0
H239 H 0.79414 0.92538 0.13221 0.0
C240 C 0.19951 0.91465 0.38476 0.0
C241 C 0.18075 0.91314 0.36971 0.0
C242 C 0.17433 0.94857 0.3686 0.0
C243 C 0.1682 0.92986 0.36175 0.0
C244 C 0.19266 0.95002 0.38386 0.0
C245 C 0.20508 0.93325 0.39187 0.0
U246 U 0.217 0.8793 0.42147 0.0
O247 O 0.21578 0.84718 0.42157 0.0
O248 O 0.26449 0.86264 0.42719 0.0
C249 C 0.2494 0.84571 0.4242 0.0
C250 C 0.21421 0.89673 0.39223 0.0
C251 C 0.26823 0.83237 0.41286 0.0
C252 C 0.27806 0.81829 0.38522 0.0
C253 C 0.26069 0.83155 0.39565 0.0
C254 C 0.31128 0.80682 0.409 0.0
C255 C 0.30348 0.80565 0.39177 0.0
C256 C 0.29378 0.82001 0.41942 0.0
C257 C 0.18108 0.89055 0.46562 0.0
C258 C 0.20215 0.8813 0.49329 0.0
C259 C 0.14133 0.88889 0.48925 0.0
C260 C 0.14758 0.89252 0.47229 0.0
C261 C 0.16854 0.88332 0.49999 0.0
C262 C 0.20835 0.88481 0.47625 0.0
C263 C 0.18676 0.89511 0.44772 0.0
O264 O 0.24008 0.89902 0.40286 0.0
O265 O 0.19169 0.88336 0.39692 0.0
O266 O 0.1703 0.88383 0.43691 0.0
O267 O 0.21871 0.89934 0.44313 0.0
H268 H 0.17609 0.89897 0.36399 0.0
H269 H 0.15363 0.9281 0.35022 0.0
H270 H 0.19817 0.96416 0.38944 0.0
H271 H 0.21947 0.93488 0.40348 0.0
H272 H 0.27102 0.81768 0.37207 0.0
H273 H 0.24111 0.84101 0.3903 0.0
H274 H 0.33109 0.79761 0.41446 0.0
H275 H 0.30011 0.82051 0.43266 0.0
H276 H 0.22359 0.87685 0.50119 0.0
H277 H 0.11525 0.89082 0.49403 0.0
H278 H 0.12619 0.89703 0.46437 0.0
H279 H 0.23446 0.88309 0.47145 0.0
C280 C 0.32488 0.6618 0.96527 0.0
C281 C 0.3273 0.64347 0.97302 0.0
C282 C 0.34691 0.65894 0.99909 0.0
C283 C 0.33809 0.64206 0.98977 0.0
C284 C 0.34474 0.67723 0.99114 0.0
C285 C 0.3338 0.67862 0.97444 0.0
U286 U 0.31508 0.64215 0.92034 0.0
O287 O 0.27128 0.64396 0.9027 0.0
O288 O 0.32146 0.6572 0.89616 0.0
C289 C 0.28889 0.65436 0.89179 0.0
C290 C 0.31307 0.66371 0.94771 0.0
C291 C 0.2707 0.67106 0.88419 0.0
C292 C 0.23068 0.69851 0.88555 0.0
C293 C 0.24951 0.68369 0.89357 0.0
C294 C 0.25463 0.68843 0.85884 0.0
C295 C 0.23265 0.70086 0.86803 0.0
C296 C 0.27338 0.67371 0.86684 0.0
C297 C 0.35105 0.59179 0.90882 0.0
C298 C 0.35587 0.58014 0.88005 0.0
C299 C 0.36892 0.5584 0.90306 0.0
C300 C 0.36121 0.57333 0.9145 0.0
C301 C 0.3667 0.56164 0.88568 0.0
C302 C 0.34809 0.59507 0.89152 0.0
C303 C 0.34437 0.60751 0.92108 0.0
O304 O 0.33777 0.6652 0.93644 0.0
O305 O 0.28758 0.65205 0.94298 0.0
O306 O 0.31161 0.61045 0.9249 0.0
O307 O 0.36177 0.62382 0.9187 0.0
H308 H 0.32066 0.63026 0.96618 0.0
H309 H 0.33897 0.62775 0.99547 0.0
H310 H 0.35186 0.69051 0.99776 0.0
H311 H 0.33233 0.69289 0.96866 0.0
H312 H 0.21388 0.70777 0.893 0.0
H313 H 0.24706 0.68188 0.907 0.0
H314 H 0.25733 0.69003 0.84541 0.0
H315 H 0.28965 0.66414 0.85938 0.0
H316 H 0.3542 0.58324 0.86678 0.0
H317 H 0.37656 0.54427 0.90787 0.0
H318 H 0.36344 0.5705 0.92781 0.0
H319 H 0.34022 0.60925 0.8869 0.0
Eu320 Eu 0.0468 0.14428 0.24689 0.0
C321 C 0.89351 0.12938 0.27503 0.0
N322 N 0.9128 0.14598 0.27664 0.0
C323 C 0.8624 0.16555 0.27158 0.0
C324 C 0.85772 0.13029 0.27133 0.0
C325 C 0.89778 0.16393 0.27529 0.0
C326 C 0.8423 0.14867 0.2695 0.0
C327 C 0.89033 0.0939 0.27553 0.0
C328 C 0.90959 0.11138 0.27712 0.0
C329 C 0.85474 0.09476 0.2717 0.0
C330 C 0.83849 0.11289 0.26961 0.0
Eu331 Eu 0.97239 0.14163 0.28231 0.0
N332 N 0.94435 0.11096 0.28027 0.0
C333 C 0.90747 0.07609 0.2778 0.0
C334 C 0.96085 0.09372 0.28325 0.0
C335 C 0.94281 0.07601 0.28183 0.0
H336 H 0.913 0.17703 0.27729 0.0
H337 H 0.95615 0.06233 0.28388 0.0
H338 H 0.11173 0.1151 0.25991 0.0
H339 H 0.04565 0.22289 0.23512 0.0
H340 H 0.98793 0.09361 0.28659 0.0
H341 H 0.8936 0.06234 0.27665 0.0
H342 H 0.02095 0.18976 0.23639 0.0
H343 H 0.85061 0.17982 0.27041 0.0
H344 H 0.83953 0.08149 0.27036 0.0
H345 H 0.81099 0.11331 0.26671 0.0
H346 H 0.17322 0.11828 0.26823 0.0
H347 H 0.81488 0.14998 0.26665 0.0
H348 H 0.10711 0.22846 0.24277 0.0
N349 N 0.10535 0.1455 0.25541 0.0
C350 C 0.12075 0.16341 0.25475 0.0
C351 C 0.1587 0.13109 0.26458 0.0
C352 C 0.156 0.16581 0.25918 0.0
C353 C 0.12373 0.12938 0.26003 0.0
C354 C 0.1749 0.14938 0.26419 0.0
N355 N 0.06668 0.17693 0.24629 0.0
C356 C 0.04712 0.1921 0.24063 0.0
C357 C 0.11641 0.19821 0.24915 0.0
C358 C 0.10099 0.17951 0.24996 0.0
C359 C 0.09607 0.21396 0.24389 0.0
C360 C 0.06133 0.21087 0.23957 0.0
H361 H 0.20203 0.15065 0.26769 0.0
H362 H 0.19832 0.18658 0.26183 0.0
H363 H 0.16391 0.21479 0.25278 0.0
O364 O 0.0413 0.15051 0.22016 0.0
O365 O 0.05652 0.15978 0.27199 0.0
O366 O 0.00285 0.17001 0.28104 0.0
O367 O 0.08229 0.13148 0.22856 0.0
O368 O 0.9926 0.15588 0.241 0.0
O369 O 0.97149 0.16844 0.26584 0.0
O370 O 0.98154 0.13151 0.30782 0.0
O371 O 0.96251 0.12497 0.25767 0.0
O372 O 0.01616 0.11607 0.24731 0.0
O373 O 0.9441 0.15431 0.30356 0.0
O374 O 0.02639 0.12931 0.2872 0.0
O375 O 0.04801 0.11677 0.26257 0.0
C376 C 0.03684 0.17185 0.28064 0.0
C377 C 0.05948 0.12585 0.20144 0.0
C378 C 0.06211 0.11892 0.17136 0.0
C379 C 0.04526 0.10096 0.17422 0.0
C380 C 0.0429 0.10785 0.20399 0.0
C381 C 0.03594 0.09546 0.19044 0.0
C382 C 0.06915 0.13133 0.18514 0.0
C383 C 0.97216 0.16786 0.24936 0.0
C384 C 0.06662 0.13905 0.21567 0.0
C385 C 0.17125 0.18447 0.25851 0.0
C386 C 0.15159 0.20057 0.25342 0.0
C387 C 0.98234 0.1138 0.24822 0.0
C388 C 0.97485 0.15491 0.32926 0.0
C389 C 0.97482 0.16274 0.35927 0.0
C390 C 0.00394 0.17489 0.35672 0.0
C391 C 0.00441 0.16663 0.32724 0.0
C392 C 0.96005 0.15295 0.34531 0.0
C393 C 0.01861 0.17675 0.34084 0.0
C394 C 0.04343 0.11577 0.2789 0.0
C395 C 0.96058 0.14408 0.31476 0.0
H396 H 0.0399 0.09097 0.16395 0.0
H397 H 0.0356 0.10338 0.21645 0.0
H398 H 0.02354 0.08148 0.19254 0.0
H399 H 0.08182 0.14531 0.18318 0.0
H400 H 0.0155 0.18297 0.36705 0.0
H401 H 0.01668 0.1677 0.31515 0.0
H402 H 0.93779 0.14342 0.34697 0.0
H403 H 0.04129 0.1859 0.33909 0.0
Eu404 Eu 0.46053 0.36956 0.74998 0.0
C405 C 0.62565 0.36598 0.77118 0.0
N406 N 0.59833 0.35425 0.77496 0.0
C407 C 0.6333 0.32581 0.77054 0.0
C408 C 0.65789 0.358 0.76643 0.0
C409 C 0.60204 0.33446 0.77549 0.0
C410 C 0.6612 0.33763 0.76573 0.0
C411 C 0.65062 0.39856 0.77081 0.0
C412 C 0.62207 0.38597 0.77332 0.0
C413 C 0.68237 0.3908 0.76531 0.0
C414 C 0.68602 0.37055 0.76316 0.0
Eu415 Eu 0.54574 0.36993 0.78165 0.0
N416 N 0.59123 0.39296 0.77888 0.0
C417 C 0.6467 0.41848 0.77448 0.0
C418 C 0.58793 0.41209 0.78362 0.0
C419 C 0.61537 0.42522 0.78116 0.0
H420 H 0.58062 0.32537 0.77952 0.0
H421 H 0.61237 0.44049 0.78442 0.0
H422 H 0.39328 0.38625 0.77193 0.0
H423 H 0.4846 0.29532 0.7261 0.0
H424 H 0.56366 0.41727 0.78875 0.0
H425 H 0.66799 0.42865 0.77269 0.0
H426 H 0.49044 0.33108 0.72663 0.0
H427 H 0.63589 0.31006 0.77052 0.0
H428 H 0.70454 0.40025 0.76316 0.0
H429 H 0.71098 0.36471 0.75943 0.0
H430 H 0.34218 0.37314 0.78706 0.0
H431 H 0.68547 0.33091 0.76204 0.0
H432 H 0.44081 0.27915 0.74399 0.0
N433 N 0.4109 0.35824 0.7642 0.0
C434 C 0.40507 0.33866 0.76395 0.0
C435 C 0.35967 0.36329 0.78063 0.0
C436 C 0.37658 0.33052 0.77258 0.0
C437 C 0.38849 0.37067 0.77207 0.0
C438 C 0.35382 0.34312 0.781 0.0
N439 N 0.45475 0.3351 0.7467 0.0
C440 C 0.47321 0.32421 0.73545 0.0
C441 C 0.42248 0.30633 0.75476 0.0
C442 C 0.42801 0.32673 0.75525 0.0
C443 C 0.44418 0.29486 0.74471 0.0
C444 C 0.46909 0.30391 0.73469 0.0
H445 H 0.33169 0.33743 0.7878 0.0
H446 H 0.3506 0.3036 0.77951 0.0
H447 H 0.39062 0.28242 0.76381 0.0
O448 O 0.44205 0.36513 0.72415 0.0
O449 O 0.45966 0.36177 0.77781 0.0
O450 O 0.50922 0.34428 0.77985 0.0
O451 O 0.41892 0.3874 0.7395 0.0
O452 O 0.51341 0.36065 0.73969 0.0
O453 O 0.53554 0.34577 0.76285 0.0
O454 O 0.52342 0.37194 0.80686 0.0
O455 O 0.54857 0.39271 0.76108 0.0
O456 O 0.49958 0.39313 0.74352 0.0
O457 O 0.57724 0.36403 0.80383 0.0
O458 O 0.50714 0.39465 0.78517 0.0
O459 O 0.45985 0.39653 0.76654 0.0
C460 C 0.47674 0.34687 0.78397 0.0
C461 C 0.42428 0.39406 0.71045 0.0
C462 C 0.42131 0.4013 0.68038 0.0
C463 C 0.43185 0.4206 0.68394 0.0
C464 C 0.43447 0.41348 0.71356 0.0
C465 C 0.43833 0.42659 0.70039 0.0
C466 C 0.41746 0.38806 0.69379 0.0
C467 C 0.53652 0.34915 0.7467 0.0
C468 C 0.42125 0.38004 0.72448 0.0
C469 C 0.37198 0.31016 0.77271 0.0
C470 C 0.3949 0.29809 0.76385 0.0
C471 C 0.53028 0.39967 0.74846 0.0
C472 C 0.5481 0.35085 0.82704 0.0
C473 C 0.55365 0.34002 0.85614 0.0
C474 C 0.54338 0.32113 0.851 0.0
C475 C 0.53825 0.33189 0.82225 0.0
C476 C 0.55583 0.35488 0.84396 0.0
C477 C 0.53563 0.31717 0.83421 0.0
C478 C 0.47853 0.40296 0.7794 0.0
C479 C 0.55177 0.36625 0.81434 0.0
H480 H 0.43455 0.43123 0.67401 0.0
H481 H 0.43939 0.41858 0.72621 0.0
H482 H 0.44626 0.44151 0.70295 0.0
H483 H 0.40966 0.37308 0.69129 0.0
H484 H 0.54183 0.30929 0.85993 0.0
H485 H 0.53309 0.32846 0.80923 0.0
H486 H 0.56347 0.36956 0.84761 0.0
H487 H 0.52796 0.30256 0.83042 0.0
Eu488 Eu 0.04147 0.87574 0.74546 0.0
C489 C 0.90767 0.84123 0.77626 0.0
N490 N 0.91415 0.86032 0.77297 0.0
C491 C 0.85808 0.86361 0.76024 0.0
C492 C 0.87656 0.83225 0.77088 0.0
C493 C 0.88953 0.87181 0.76568 0.0
C494 C 0.85181 0.84366 0.76259 0.0
C495 C 0.925 0.81137 0.79007 0.0
C496 C 0.93159 0.83099 0.78572 0.0
C497 C 0.89503 0.80196 0.78391 0.0
C498 C 0.87082 0.81239 0.77436 0.0
Eu499 Eu 0.96812 0.873 0.78189 0.0
N500 N 0.9599 0.84065 0.79174 0.0
C501 C 0.94799 0.80207 0.80104 0.0
C502 C 0.98043 0.83224 0.80365 0.0
C503 C 0.97542 0.81269 0.80813 0.0
H504 H 0.89463 0.88718 0.76375 0.0
H505 H 0.99243 0.80593 0.81721 0.0
H506 H 0.10188 0.84368 0.7603 0.0
H507 H 0.06056 0.95233 0.72968 0.0
H508 H 1.00061 0.8406 0.80981 0.0
H509 H 0.94389 0.78701 0.80469 0.0
H510 H 0.03108 0.92007 0.72925 0.0
H511 H 0.83883 0.87263 0.75413 0.0
H512 H 0.88976 0.78682 0.78695 0.0
H513 H 0.84731 0.80513 0.77011 0.0
H514 H 0.1562 0.84496 0.7765 0.0
H515 H 0.82753 0.83732 0.75829 0.0
H516 H 0.11511 0.95667 0.74575 0.0
N517 N 0.09619 0.87463 0.75926 0.0
C518 C 0.11285 0.89211 0.76107 0.0
C519 C 0.14409 0.85835 0.77242 0.0
C520 C 0.1453 0.89339 0.76928 0.0
C521 C 0.11259 0.85774 0.76368 0.0
C522 C 0.16026 0.87629 0.77548 0.0
N523 N 0.06782 0.90687 0.74547 0.0
C524 C 0.05469 0.92203 0.7364 0.0
C525 C 0.11645 0.92662 0.75417 0.0
C526 C 0.09865 0.9086 0.75366 0.0
C527 C 0.10215 0.9426 0.7457 0.0
C528 C 0.07135 0.94022 0.73661 0.0
H529 H 0.18503 0.87667 0.78196 0.0
H530 H 0.18749 0.91271 0.77659 0.0
H531 H 0.16272 0.94155 0.7629 0.0
O532 O 0.03253 0.87662 0.71832 0.0
O533 O 0.03112 0.90125 0.76331 0.0
O534 O 0.02176 0.88484 0.78743 0.0
O535 O 0.08246 0.86798 0.72783 0.0
O536 O 0.98972 0.88942 0.73857 0.0
O537 O 0.96228 0.89833 0.76352 0.0
O538 O 0.9461 0.87372 0.80751 0.0
O539 O 0.95619 0.86139 0.75555 0.0
O540 O 0.00778 0.84842 0.74648 0.0
O541 O 0.94732 0.90006 0.79217 0.0
O542 O 0.02218 0.86078 0.78689 0.0
O543 O 0.04028 0.84821 0.76157 0.0
C544 C 0.03294 0.9004 0.77968 0.0
C545 C 0.06621 0.85542 0.70145 0.0
C546 C 0.08088 0.84636 0.67266 0.0
C547 C 0.07462 0.82668 0.67667 0.0
C548 C 0.05931 0.83576 0.7051 0.0
C549 C 0.06366 0.82146 0.69274 0.0
C550 C 0.07695 0.86068 0.68525 0.0
C551 C 0.96823 0.90053 0.74728 0.0
C552 C 0.0635 0.87051 0.71454 0.0
C553 C 0.16253 0.91148 0.77036 0.0
C554 C 0.14831 0.92798 0.76267 0.0
C555 C 0.97363 0.84824 0.74693 0.0
C556 C 0.92195 0.90378 0.81987 0.0
C557 C 0.90529 0.90887 0.84924 0.0
C558 C 0.89117 0.92708 0.84479 0.0
C559 C 0.9078 0.92209 0.81592 0.0
C560 C 0.92036 0.8971 0.83659 0.0
C561 C 0.89242 0.93357 0.82828 0.0
C562 C 0.03845 0.84735 0.77805 0.0
C563 C 0.93888 0.89224 0.80643 0.0
H564 H 0.07828 0.8153 0.66736 0.0
H565 H 0.051 0.83149 0.71752 0.0
H566 H 0.05861 0.80627 0.69562 0.0
H567 H 0.08192 0.87592 0.68241 0.0
H568 H 0.87877 0.93629 0.85408 0.0
H569 H 0.90854 0.92758 0.80321 0.0
H570 H 0.93154 0.8831 0.83981 0.0
H571 H 0.88144 0.94761 0.82506 0.0
Eu572 Eu 0.46859 0.64515 0.24815 0.0
C573 C 0.60794 0.67824 0.26987 0.0
N574 N 0.60176 0.65876 0.26839 0.0
C575 C 0.65546 0.65435 0.25377 0.0
C576 C 0.63803 0.68666 0.26285 0.0
C577 C 0.62521 0.64667 0.26087 0.0
C578 C 0.66177 0.67446 0.25463 0.0
C579 C 0.59092 0.70988 0.28089 0.0
C580 C 0.58437 0.6897 0.27868 0.0
C581 C 0.62032 0.71841 0.27347 0.0
C582 C 0.64372 0.70686 0.26442 0.0
Eu583 Eu 0.55126 0.64674 0.28132 0.0
N584 N 0.5565 0.68095 0.28606 0.0
C585 C 0.56863 0.72071 0.29115 0.0
C586 C 0.53712 0.69111 0.29745 0.0
C587 C 0.54201 0.7112 0.29971 0.0
H588 H 0.62035 0.63111 0.26025 0.0
H589 H 0.52594 0.71921 0.30848 0.0
H590 H 0.43015 0.68859 0.24935 0.0
H591 H 0.40992 0.57221 0.24507 0.0
H592 H 0.51883 0.68372 0.30541 0.0
H593 H 0.57284 0.7362 0.29323 0.0
H594 H 0.45741 0.5964 0.24364 0.0
H595 H 0.67385 0.64479 0.24762 0.0
H596 H 0.62576 0.73385 0.27506 0.0
H597 H 0.66654 0.71362 0.259 0.0
H598 H 0.37142 0.70233 0.25395 0.0
H599 H 0.68518 0.68039 0.24909 0.0
H600 H 0.35027 0.58284 0.25207 0.0
N601 N 0.41355 0.65921 0.25227 0.0
C602 C 0.3864 0.64674 0.25422 0.0
C603 C 0.37534 0.68668 0.25421 0.0
C604 C 0.35243 0.65385 0.25659 0.0
C605 C 0.40852 0.67891 0.25179 0.0
C606 C 0.34718 0.67408 0.25665 0.0
N607 N 0.42503 0.62059 0.24962 0.0
C608 C 0.43136 0.60126 0.24642 0.0
C609 C 0.36436 0.61348 0.25387 0.0
C610 C 0.39227 0.62684 0.25281 0.0
C611 C 0.37099 0.59357 0.25135 0.0
C612 C 0.40458 0.58748 0.2474 0.0
H613 H 0.32136 0.68004 0.25809 0.0
H614 H 0.29848 0.64579 0.26025 0.0
H615 H 0.30896 0.61041 0.25793 0.0
O616 O 0.4947 0.64318 0.22386 0.0
O617 O 0.46416 0.62305 0.26928 0.0
O618 O 0.51208 0.62318 0.28746 0.0
O619 O 0.44147 0.6527 0.22489 0.0
O620 O 0.50873 0.62129 0.24524 0.0
O621 O 0.55503 0.6202 0.26438 0.0
O622 O 0.57005 0.65124 0.30738 0.0
O623 O 0.55474 0.65626 0.2539 0.0
O624 O 0.503 0.67153 0.25149 0.0
O625 O 0.59053 0.62756 0.29195 0.0
O626 O 0.4972 0.65524 0.29061 0.0
O627 O 0.47499 0.66962 0.26711 0.0
C628 C 0.48186 0.61633 0.28221 0.0
C629 C 0.45824 0.63445 0.20111 0.0
C630 C 0.4447 0.62863 0.17145 0.0
C631 C 0.44126 0.60855 0.17493 0.0
C632 C 0.45481 0.61438 0.20407 0.0
C633 C 0.44635 0.60154 0.1911 0.0
C634 C 0.45294 0.64162 0.18474 0.0
C635 C 0.53752 0.61355 0.25127 0.0
C636 C 0.46711 0.6477 0.21518 0.0
C637 C 0.32472 0.6406 0.25828 0.0
C638 C 0.33069 0.62045 0.25695 0.0
C639 C 0.53573 0.6702 0.24737 0.0
C640 C 0.61554 0.63058 0.31978 0.0
C641 C 0.63434 0.63051 0.34916 0.0
C642 C 0.6642 0.62011 0.34442 0.0
C643 C 0.64548 0.62 0.3155 0.0
C644 C 0.60985 0.6357 0.33675 0.0
C645 C 0.66958 0.61483 0.32774 0.0
C646 C 0.47415 0.66662 0.28334 0.0
C647 C 0.59156 0.63669 0.30626 0.0
H648 H 0.43421 0.59822 0.16515 0.0
H649 H 0.45883 0.60862 0.21644 0.0
H650 H 0.44367 0.58607 0.1936 0.0
H651 H 0.4557 0.65713 0.18235 0.0
H652 H 0.68324 0.61583 0.35372 0.0
H653 H 0.6506 0.61595 0.30259 0.0
H654 H 0.58686 0.64384 0.34025 0.0
H655 H 0.69263 0.60675 0.32427 0.0
H656 H 0.14716 0.98225 0.38219 0.0
H657 H 0.12719 0.01135 0.36743 0.0
H658 H 0.15257 0.98428 0.32009 0.0
H659 H 0.17409 0.95553 0.33476 0.0
H660 H 0.17215 0.02138 0.31997 0.0
H661 H 0.06776 0.98669 0.33492 0.0
H662 H 0.02676 0.97053 0.35414 0.0
H663 H 0.01516 0.02408 0.38185 0.0
H664 H 0.05646 0.0405 0.36291 0.0
H665 H 0.07349 0.08259 0.26625 0.0
H666 H 0.09704 0.055 0.28188 0.0
H667 H 0.07227 0.08403 0.32845 0.0
H668 H 0.04829 0.11157 0.31293 0.0
H669 H 0.05308 0.04659 0.32944 0.0
H670 H 0.15617 0.08158 0.31415 0.0
H671 H 0.19612 0.09802 0.29461 0.0
H672 H 0.20971 0.04425 0.26744 0.0
H673 H 0.16946 0.02753 0.28672 0.0
C674 C 0.14888 0.98254 0.36865 0.0
C675 C 0.16207 0.96641 0.35969 0.0
C676 C 0.13709 0.99914 0.3602 0.0
C677 C 0.13786 0.99993 0.3426 0.0
C678 C 0.15153 0.98401 0.33365 0.0
C679 C 0.16348 0.96746 0.34208 0.0
C680 C 0.12428 0.01726 0.33347 0.0
C681 C 0.14597 0.02675 0.32191 0.0
C682 C 0.09039 0.0246 0.33624 0.0
C683 C 0.06547 0.01476 0.3476 0.0
C684 C 0.05666 0.99498 0.34519 0.0
C685 C 0.03334 0.98578 0.35602 0.0
C686 C 0.01844 0.99626 0.36924 0.0
C687 C 0.02676 0.01598 0.37162 0.0
C688 C 0.0501 0.02524 0.36084 0.0
C689 C 0.07334 0.08321 0.27982 0.0
C690 C 0.0592 0.09938 0.28832 0.0
C691 C 0.08686 0.06741 0.28875 0.0
C692 C 0.08679 0.0675 0.30636 0.0
C693 C 0.07264 0.08361 0.31487 0.0
C694 C 0.05903 0.09939 0.30596 0.0
C695 C 0.10089 0.05066 0.31592 0.0
C696 C 0.0793 0.04127 0.32755 0.0
C697 C 0.13485 0.04343 0.31322 0.0
C698 C 0.15957 0.05334 0.3018 0.0
C699 C 0.16752 0.07329 0.30395 0.0
C700 C 0.19023 0.08265 0.29293 0.0
C701 C 0.20536 0.0722 0.27976 0.0
C702 C 0.19794 0.05233 0.27764 0.0
C703 C 0.17522 0.04289 0.28862 0.0
H704 H 0.22289 0.07949 0.27122 0.0
H705 H 1.00038 0.98911 0.37761 0.0
H706 H 0.42067 0.53579 0.88801 0.0
H707 H 0.43714 0.51022 0.8682 0.0
H708 H 0.35265 0.52659 0.83564 0.0
H709 H 0.33514 0.55186 0.85577 0.0
H710 H 0.35772 0.48718 0.83797 0.0
H711 H 0.43567 0.5401 0.82651 0.0
H712 H 0.4783 0.56591 0.83343 0.0
H713 H 0.54894 0.52273 0.85216 0.0
H714 H 0.50653 0.49668 0.84557 0.0
H715 H 0.42367 0.4271 0.77155 0.0
H716 H 0.40314 0.45556 0.78738 0.0
H717 H 0.48485 0.44725 0.8237 0.0
H718 H 0.50591 0.41923 0.80794 0.0
H719 H 0.47878 0.48466 0.81688 0.0
H720 H 0.3997 0.43217 0.83051 0.0
H721 H 0.35764 0.40601 0.82372 0.0
H722 H 0.28957 0.44802 0.8012 0.0
H723 H 0.33151 0.4744 0.80762 0.0
C724 C 0.40526 0.53385 0.87675 0.0
C725 C 0.37655 0.54595 0.87352 0.0
C726 C 0.41497 0.51932 0.86532 0.0
C727 C 0.39646 0.51664 0.85029 0.0
C728 C 0.36745 0.52845 0.84711 0.0
C729 C 0.35766 0.54301 0.85857 0.0
C730 C 0.40764 0.50151 0.83795 0.0
C731 C 0.38402 0.48681 0.83313 0.0
C732 C 0.4421 0.50083 0.8318 0.0
C733 C 0.4678 0.51645 0.83565 0.0
C734 C 0.4602 0.53612 0.83221 0.0
C735 C 0.48434 0.55079 0.83606 0.0
C736 C 0.51628 0.54597 0.84326 0.0
C737 C 0.52418 0.52645 0.84659 0.0
C738 C 0.50012 0.51172 0.84278 0.0
C739 C 0.43739 0.43137 0.78287 0.0
C740 C 0.46644 0.42075 0.78844 0.0
C741 C 0.42551 0.44762 0.79195 0.0
C742 C 0.44219 0.45345 0.80687 0.0
C743 C 0.47154 0.4431 0.81224 0.0
C744 C 0.48351 0.42698 0.80317 0.0
C745 C 0.42911 0.47009 0.81716 0.0
C746 C 0.45237 0.48511 0.82158 0.0
C747 C 0.39439 0.47101 0.82297 0.0
C748 C 0.3689 0.45522 0.81938 0.0
C749 C 0.37585 0.43581 0.82401 0.0
C750 C 0.35204 0.42094 0.82024 0.0
C751 C 0.321 0.42534 0.81199 0.0
C752 C 0.31365 0.44463 0.80756 0.0
C753 C 0.33743 0.45954 0.81127 0.0
H754 H 0.3026 0.41381 0.80907 0.0
H755 H 0.53493 0.55735 0.84624 0.0
H756 H 0.5993 0.55321 0.66194 0.0
H757 H 0.57729 0.52456 0.67677 0.0
H758 H 0.6822 0.50484 0.68501 0.0
H759 H 0.70442 0.53323 0.6698 0.0
H760 H 0.63913 0.47438 0.67688 0.0
H761 H 0.63941 0.52797 0.71586 0.0
H762 H 0.62594 0.5612 0.72598 0.0
H763 H 0.51677 0.54881 0.72219 0.0
H764 H 0.5296 0.51558 0.71181 0.0
H765 H 0.59891 0.40788 0.74284 0.0
H766 H 0.62322 0.43533 0.72706 0.0
H767 H 0.5197 0.4562 0.71688 0.0
H768 H 0.49549 0.42914 0.73304 0.0
H769 H 0.56361 0.48583 0.72629 0.0
H770 H 0.56306 0.43266 0.68677 0.0
H771 H 0.57606 0.39905 0.67746 0.0
H772 H 0.68531 0.41032 0.68293 0.0
H773 H 0.67292 0.44399 0.69246 0.0
C774 C 0.61771 0.54263 0.66666 0.0
C775 C 0.65366 0.54561 0.66475 0.0
C776 C 0.60509 0.52633 0.67527 0.0
C777 C 0.62811 0.51267 0.68223 0.0
C778 C 0.66394 0.51522 0.67983 0.0
C779 C 0.67661 0.53155 0.67125 0.0
C780 C 0.6148 0.49617 0.6925 0.0
C781 C 0.62298 0.4769 0.6878 0.0
C782 C 0.59329 0.49939 0.70662 0.0
C783 C 0.58548 0.51935 0.7129 0.0
C784 C 0.61253 0.53238 0.71705 0.0
C785 C 0.60501 0.55121 0.72286 0.0
C786 C 0.57052 0.55713 0.72468 0.0
C787 C 0.54347 0.54422 0.72074 0.0
C788 C 0.55085 0.52538 0.71491 0.0
C789 C 0.58139 0.41843 0.73737 0.0
C790 C 0.54524 0.41628 0.73906 0.0
C791 C 0.59528 0.43401 0.72823 0.0
C792 C 0.57326 0.44772 0.72063 0.0
C793 C 0.53719 0.44577 0.72257 0.0
C794 C 0.52334 0.43017 0.73164 0.0
C795 C 0.58768 0.46409 0.7106 0.0
C796 C 0.57977 0.48333 0.71537 0.0
C797 C 0.6094 0.46082 0.69658 0.0
C798 C 0.61705 0.44079 0.69045 0.0
C799 C 0.58985 0.42795 0.68606 0.0
C800 C 0.59711 0.4089 0.68074 0.0
C801 C 0.63148 0.40255 0.67963 0.0
C802 C 0.65869 0.41527 0.68379 0.0
C803 C 0.65157 0.43435 0.68913 0.0
H804 H 0.637 0.3878 0.67551 0.0
H805 H 0.56475 0.57171 0.72918 0.0
H806 H 0.92249 0.96299 0.15796 0.0
H807 H 0.93854 0.98923 0.17742 0.0
H808 H 0.83471 0.01242 0.17438 0.0
H809 H 0.81862 0.98636 0.1546 0.0
H810 H 0.88377 0.04118 0.17163 0.0
H811 H 0.86036 0.98833 0.20902 0.0
H812 H 0.86504 0.95481 0.21996 0.0
H813 H 0.97452 0.96297 0.22784 0.0
H814 H 0.97059 0.99647 0.21672 0.0
H815 H 0.91458 0.10951 0.23811 0.0
H816 H 0.88924 0.0824 0.22191 0.0
H817 H 0.98855 0.05338 0.22153 0.0
H818 H 0.01371 0.0801 0.23801 0.0
H819 H 0.93644 0.02771 0.22719 0.0
H820 H 0.96181 0.07825 0.18743 0.0
H821 H 0.95957 0.11175 0.17619 0.0
H822 H 0.84845 0.10769 0.17241 0.0
H823 H 0.85015 0.07424 0.18386 0.0
C824 C 0.90306 0.97369 0.16138 0.0
C825 C 0.86925 0.97254 0.1547 0.0
C826 C 0.9122 0.98861 0.17263 0.0
C827 C 0.88776 1.00273 0.17751 0.0
C828 C 0.85398 1.00167 0.17086 0.0
C829 C 0.84475 0.98667 0.15965 0.0
C830 C 0.89783 0.01879 0.18925 0.0
C831 C 0.89465 0.03824 0.18391 0.0
C832 C 0.91277 0.01499 0.20515 0.0
C833 C 0.91521 0.99486 0.2119 0.0
C834 C 0.88548 0.98293 0.21296 0.0
C835 C 0.88799 0.96394 0.21922 0.0
C836 C 0.92007 0.95675 0.22456 0.0
C837 C 0.94969 0.96855 0.22369 0.0
C838 C 0.94733 0.98755 0.21742 0.0
C839 C 0.93092 0.09727 0.23467 0.0
C840 C 0.9663 0.09711 0.23909 0.0
C841 C 0.91646 0.08184 0.22535 0.0
C842 C 0.93711 0.06596 0.22029 0.0
C843 C 0.97212 0.06549 0.22521 0.0
C844 C 0.98655 0.08088 0.2345 0.0
C845 C 0.92272 0.05004 0.20949 0.0
C846 C 0.92514 0.03064 0.215 0.0
C847 C 0.9073 0.05387 0.19371 0.0
C848 C 0.90611 0.07387 0.18668 0.0
C849 C 0.93693 0.08459 0.18433 0.0
C850 C 0.93575 0.10354 0.1779 0.0
C851 C 0.90386 0.11187 0.17364 0.0
C852 C 0.87312 0.10123 0.17575 0.0
C853 C 0.87419 0.08227 0.18219 0.0
H854 H 0.90296 0.12655 0.16867 0.0
H855 H 0.92196 0.94204 0.2294 0.0
H856 H 0.89199 0.04409 0.6502 0.0
H857 H 0.90877 0.01415 0.66469 0.0
H858 H 0.86013 0.03518 0.70992 0.0
H859 H 0.84275 0.065 0.69549 0.0
H860 H 0.9236 0.01935 0.71641 0.0
H861 H 0.8205 1.00083 0.68609 0.0
H862 H 0.78311 0.99723 0.66112 0.0
H863 H 0.85986 0.96087 0.63768 0.0
H864 H 0.89793 0.96448 0.66244 0.0
H865 H 0.92817 0.92982 0.76072 0.0
H866 H 0.90633 0.95892 0.74655 0.0
H867 H 0.95021 0.93858 0.69995 0.0
H868 H 0.97134 0.90928 0.71385 0.0
H869 H 0.88813 0.95421 0.6946 0.0
H870 H 0.99163 0.97269 0.72474 0.0
H871 H 0.02891 0.97588 0.74983 0.0
H872 H 0.95234 0.01212 0.77348 0.0
H873 H 0.91431 0.0089 0.74867 0.0
C874 C 0.88454 0.0423 0.66318 0.0
C875 C 0.86593 0.05703 0.67163 0.0
C876 C 0.89427 0.02517 0.67148 0.0
C877 C 0.88551 0.02233 0.68838 0.0
C878 C 0.86731 0.03706 0.6969 0.0
C879 C 0.8575 0.05416 0.68862 0.0
C880 C 0.8951 1.00395 0.69715 0.0
C881 C 0.91548 1.00512 0.71176 0.0
C882 C 0.88511 0.98534 0.69093 0.0
C883 C 0.86221 0.98309 0.67605 0.0
C884 C 0.82952 0.9922 0.67556 0.0
C885 C 0.80819 0.99013 0.66145 0.0
C886 C 0.81914 0.97887 0.64781 0.0
C887 C 0.85142 0.96961 0.64825 0.0
C888 C 0.87288 0.97165 0.66232 0.0
C889 C 0.93284 0.93139 0.74742 0.0
C890 C 0.95185 0.91724 0.73849 0.0
C891 C 0.92051 0.94813 0.73935 0.0
C892 C 0.9272 0.95114 0.72224 0.0
C893 C 0.94487 0.93665 0.71317 0.0
C894 C 0.95703 0.91989 0.72118 0.0
C895 C 0.91672 0.96958 0.71383 0.0
C896 C 0.89623 0.96844 0.69928 0.0
C897 C 0.92677 0.9882 0.72007 0.0
C898 C 0.94995 0.99041 0.73489 0.0
C899 C 0.98263 0.98124 0.73533 0.0
C900 C 0.0039 0.98305 0.74949 0.0
C901 C 0.99296 0.99416 0.76323 0.0
C902 C 0.96076 1.00351 0.76283 0.0
C903 C 0.93934 1.00171 0.74872 0.0
H904 H 0.00945 0.99555 0.77418 0.0
H905 H 0.80258 0.97729 0.6369 0.0
H906 H 0.58959 0.4796 0.14444 0.0
H907 H 0.57671 0.506 0.16409 0.0
H908 H 0.66069 0.48739 0.19601 0.0
H909 H 0.67429 0.46101 0.17618 0.0
H910 H 0.60044 0.49727 0.214 0.0
H911 H 0.6735 0.52575 0.1721 0.0
H912 H 0.69231 0.53335 0.14333 0.0
H913 H 0.59612 0.5631 0.13421 0.0
H914 H 0.57651 0.55543 0.16285 0.0
H915 H 0.58944 0.58805 0.26083 0.0
H916 H 0.61172 0.55996 0.24489 0.0
H917 H 0.53872 0.57189 0.20518 0.0
H918 H 0.51723 0.59992 0.22062 0.0
H919 H 0.60132 0.56527 0.1927 0.0
H920 H 0.52593 0.53482 0.23322 0.0
H921 H 0.50562 0.52725 0.26176 0.0
H922 H 0.60415 0.50132 0.2733 0.0
H923 H 0.6253 0.50904 0.2449 0.0
C924 C 0.6056 0.48116 0.15554 0.0
C925 C 0.6333 0.46827 0.15857 0.0
C926 C 0.59805 0.49623 0.16683 0.0
C927 C 0.618 0.49883 0.18143 0.0
C928 C 0.64497 0.48566 0.18482 0.0
C929 C 0.65264 0.47056 0.17347 0.0
C930 C 0.61105 0.51568 0.19278 0.0
C931 C 0.60121 0.51218 0.20945 0.0
C932 C 0.61161 0.53511 0.1868 0.0
C933 C 0.62344 0.53988 0.16959 0.0
C934 C 0.65625 0.53379 0.16392 0.0
C935 C 0.66708 0.53813 0.14764 0.0
C936 C 0.6454 0.54867 0.13694 0.0
C937 C 0.61288 0.55493 0.14251 0.0
C938 C 0.60191 0.55061 0.15877 0.0
C939 C 0.57812 0.58465 0.24871 0.0
C940 C 0.55117 0.5962 0.24213 0.0
C941 C 0.59079 0.56854 0.23965 0.0
C942 C 0.57673 0.56371 0.22386 0.0
C943 C 0.55001 0.57527 0.21731 0.0
C944 C 0.53745 0.59126 0.22629 0.0
C945 C 0.58979 0.54689 0.21382 0.0
C946 C 0.60091 0.5504 0.19735 0.0
C947 C 0.59015 0.52751 0.21999 0.0
C948 C 0.57735 0.52271 0.237 0.0
C949 C 0.54337 0.52764 0.24189 0.0
C950 C 0.53168 0.52331 0.25803 0.0
C951 C 0.5536 0.51386 0.26935 0.0
C952 C 0.58723 0.50867 0.26453 0.0
C953 C 0.59908 0.51302 0.24841 0.0
H954 H 0.5445 0.51051 0.28184 0.0
H955 H 0.65382 0.55201 0.12434 0.0
H956 H 0.40635 0.46545 0.37264 0.0
H957 H 0.43016 0.49371 0.35786 0.0
H958 H 0.32773 0.50808 0.33984 0.0
H959 H 0.30373 0.47995 0.35464 0.0
H960 H 0.3738 0.5099 0.31493 0.0
H961 H 0.36724 0.5347 0.37122 0.0
H962 H 0.37793 0.5348 0.40171 0.0
H963 H 0.48799 0.53609 0.39314 0.0
H964 H 0.47796 0.53572 0.36258 0.0
H965 H 0.4136 0.60465 0.28373 0.0
H966 H 0.38921 0.57717 0.29927 0.0
H967 H 0.49121 0.5632 0.31814 0.0
H968 H 0.51574 0.59065 0.30264 0.0
H969 H 0.44516 0.56125 0.34266 0.0
H970 H 0.45206 0.53568 0.2865 0.0
H971 H 0.44165 0.53517 0.25598 0.0
H972 H 0.33152 0.53533 0.2643 0.0
H973 H 0.34124 0.53603 0.29488 0.0
C974 C 0.38879 0.47477 0.36574 0.0
C975 C 0.35309 0.47036 0.36484 0.0
C976 C 0.40247 0.49093 0.35725 0.0
C977 C 0.38074 0.50314 0.34778 0.0
C978 C 0.34508 0.49886 0.34697 0.0
C979 C 0.3314 0.48271 0.35543 0.0
C980 C 0.39518 0.52011 0.33839 0.0
C981 C 0.389 0.52127 0.32106 0.0
C982 C 0.41575 0.53473 0.34624 0.0
C983 C 0.42185 0.53498 0.36461 0.0
C984 C 0.39373 0.53484 0.37584 0.0
C985 C 0.39966 0.53498 0.39313 0.0
C986 C 0.43362 0.5354 0.39936 0.0
C987 C 0.4617 0.53574 0.3883 0.0
C988 C 0.45591 0.53558 0.37099 0.0
C989 C 0.43092 0.5956 0.291 0.0
C990 C 0.4667 0.59976 0.29175 0.0
C991 C 0.41692 0.57988 0.29994 0.0
C992 C 0.43841 0.5679 0.30975 0.0
C993 C 0.47406 0.57219 0.31068 0.0
C994 C 0.48805 0.58792 0.30179 0.0
C995 C 0.42378 0.55104 0.31921 0.0
C996 C 0.42994 0.54989 0.33654 0.0
C997 C 0.40325 0.5364 0.31136 0.0
C998 C 0.39738 0.53604 0.29298 0.0
C999 C 0.42562 0.53572 0.28182 0.0
C1000 C 0.41985 0.53533 0.26452 0.0
C1001 C 0.38596 0.53516 0.25822 0.0
C1002 C 0.35775 0.53541 0.2692 0.0
C1003 C 0.36337 0.53577 0.28652 0.0
H1004 H 0.38155 0.5349 0.24481 0.0
H1005 H 0.43816 0.53551 0.41275 0.0
H1006 H 0.06198 0.0514 0.87773 0.0
H1007 H 0.045 0.02472 0.85884 0.0
H1008 H 0.15297 0.01137 0.85026 0.0
H1009 H 0.17009 0.03804 0.86908 0.0
H1010 H 0.11857 0.0104 0.82163 0.0
H1011 H 0.10099 0.98393 0.87681 0.0
H1012 H 0.07658 0.98256 0.90534 0.0
H1013 H 0.97334 0.98022 0.88492 0.0
H1014 H 0.99712 0.98188 0.85626 0.0
H1015 H 0.06086 0.90105 0.81103 0.0
H1016 H 0.07775 0.92963 0.82773 0.0
H1017 H 0.04477 0.96742 0.78762 0.0
H1018 H 0.02961 0.93884 0.77059 0.0
H1019 H 0.03996 0.95716 0.84005 0.0
H1020 H 0.07326 1.00203 0.78621 0.0
H1021 H 0.10514 1.00368 0.75939 0.0
H1022 H 0.18653 0.96839 0.78012 0.0
H1023 H 0.15412 0.96569 0.80668 0.0
C1024 C 0.08211 0.04271 0.8719 0.0
C1025 C 0.11742 0.04684 0.87496 0.0
C1026 C 0.07235 0.02745 0.86109 0.0
C1027 C 0.09768 0.01587 0.85324 0.0
C1028 C 0.13293 0.02012 0.85612 0.0
C1029 C 0.1427 0.03542 0.86686 0.0
C1030 C 0.08764 0.99935 0.84198 0.0
C1031 C 0.10129 0.9988 0.82569 0.0
C1032 C 0.06514 0.98412 0.84718 0.0
C1033 C 0.05082 0.98327 0.8644 0.0
C1034 C 0.07307 0.98332 0.87841 0.0
C1035 C 0.05935 0.98245 0.8946 0.0
C1036 C 0.02343 0.98137 0.89694 0.0
C1037 C 0.00115 0.98111 0.88309 0.0
C1038 C 0.01474 0.98201 0.86687 0.0
C1039 C 0.05764 0.91547 0.80572 0.0
C1040 C 0.04407 0.91772 0.78951 0.0
C1041 C 0.0673 0.93182 0.81526 0.0
C1042 C 0.06319 0.95081 0.8089 0.0
C1043 C 0.04953 0.95304 0.79266 0.0
C1044 C 0.04049 0.93665 0.78298 0.0
C1045 C 0.07124 0.96808 0.81975 0.0
C1046 C 0.05703 0.96884 0.83596 0.0
C1047 C 0.09347 0.98341 0.81459 0.0
C1048 C 0.11104 0.98333 0.7982 0.0
C1049 C 0.09762 0.99431 0.78486 0.0
C1050 C 0.11572 0.99539 0.76972 0.0
C1051 C 0.14775 0.98603 0.76801 0.0
C1052 C 0.16153 0.97542 0.78138 0.0
C1053 C 0.14308 0.97387 0.79638 0.0
H1054 H 0.16193 0.98705 0.75635 0.0
H1055 H 0.01287 0.98068 0.90949 0.0
H1056 H 0.20752 0.15904 0.02914 0.0
H1057 H 0.18934 0.1549 0.05824 0.0
H1058 H 0.08759 0.13668 0.04153 0.0
H1059 H 0.10525 0.14137 1.01237 0.0
H1060 H 0.08298 0.16156 0.06784 0.0
H1061 H 0.14717 0.10337 0.05475 0.0
H1062 H 0.19757 0.08443 0.04485 0.0
H1063 H 0.26118 0.1102 0.0834 0.0
H1064 H 0.21124 0.12951 0.09339 0.0
H1065 H 0.02439 0.11535 0.14237 0.0
H1066 H 0.04298 0.12277 0.11379 0.0
H1067 H 0.14236 0.14237 0.13258 0.0
H1068 H 0.12408 0.1347 0.16122 0.0
H1069 H 0.1491 0.11782 0.1056 0.0
H1070 H 0.08432 0.17506 0.11944 0.0
H1071 H 0.03367 0.19355 0.12966 0.0
H1072 H 0.97106 0.1695 0.08995 0.0
H1073 H 0.02122 0.1506 0.07964 0.0
C1074 C 0.18115 0.15434 0.03163 0.0
C1075 C 0.15789 0.1505 0.01836 0.0
C1076 C 0.17088 0.15181 0.0483 0.0
C1077 C 0.13719 0.14527 0.0521 0.0
C1078 C 0.11375 0.14169 0.03892 0.0
C1079 C 0.124 0.1442 0.02224 0.0
C1080 C 0.12651 0.142 0.06981 0.0
C1081 C 0.0972 0.15182 0.07603 0.0
C1082 C 0.14551 0.12966 0.08067 0.0
C1083 C 0.17556 0.11804 0.07471 0.0
C1084 C 0.17198 0.10512 0.06103 0.0
C1085 C 0.20045 0.09429 0.05542 0.0
C1086 C 0.23258 0.09615 0.06346 0.0
C1087 C 0.23629 0.1088 0.07716 0.0
C1088 C 0.2079 0.11968 0.08281 0.0
C1089 C 0.05021 0.12123 0.14042 0.0
C1090 C 0.07277 0.12443 0.15407 0.0
C1091 C 0.06072 0.1256 0.12409 0.0
C1092 C 0.094 0.13325 0.12103 0.0
C1093 C 0.11655 0.13652 0.13463 0.0
C1094 C 0.10596 0.13227 0.151 0.0
C1095 C 0.10552 0.13732 0.10359 0.0
C1096 C 0.13497 0.12764 0.09743 0.0
C1097 C 0.08663 0.14978 0.0928 0.0
C1098 C 0.05647 0.16127 0.09886 0.0
C1099 C 0.05969 0.17359 0.11296 0.0
C1100 C 0.03107 0.18416 0.11876 0.0
C1101 C 0.99915 0.18267 0.11048 0.0
C1102 C 0.9958 0.17063 0.09636 0.0
C1103 C 0.02432 0.15999 0.09052 0.0
H1104 H 0.97703 0.19086 0.115 0.0
H1105 H 0.25459 0.08775 0.0591 0.0
H1106 H 0.39814 0.40204 0.52141 0.0
H1107 H 0.41042 0.40032 0.55136 0.0
H1108 H 0.31529 0.36817 0.55901 0.0
H1109 H 0.30291 0.36964 0.5289 0.0
H1110 H 0.32288 0.3965 0.58232 0.0
H1111 H 0.39379 0.3451 0.56083 0.0
H1112 H 0.43711 0.32982 0.54225 0.0
H1113 H 0.5151 0.36986 0.56013 0.0
H1114 H 0.47212 0.38558 0.57866 0.0
H1115 H 0.36679 0.37941 0.66801 0.0
H1116 H 0.35239 0.37286 0.63852 0.0
H1117 H 0.44455 0.40398 0.62322 0.0
H1118 H 0.4595 0.41006 0.65254 0.0
H1119 H 0.43556 0.37237 0.60412 0.0
H1120 H 0.36363 0.42568 0.62327 0.0
H1121 H 0.32049 0.44155 0.6416 0.0
H1122 H 0.24464 0.39811 0.6279 0.0
H1123 H 0.28752 0.38184 0.60964 0.0
C1124 C 0.38002 0.39431 0.52937 0.0
C1125 C 0.34962 0.38584 0.52262 0.0
C1126 C 0.38707 0.39339 0.54656 0.0
C1127 C 0.36404 0.38388 0.55748 0.0
C1128 C 0.3335 0.37556 0.55086 0.0
C1129 C 0.32641 0.37647 0.53362 0.0
C1130 C 0.37161 0.38311 0.57582 0.0
C1131 C 0.34725 0.39087 0.5871 0.0
C1132 C 0.40365 0.37609 0.58212 0.0
C1133 C 0.42964 0.36662 0.57105 0.0
C1134 C 0.42011 0.35075 0.56072 0.0
C1135 C 0.44462 0.34199 0.5502 0.0
C1136 C 0.47882 0.34889 0.54998 0.0
C1137 C 0.4886 0.36454 0.56031 0.0
C1138 C 0.46418 0.37336 0.57083 0.0
C1139 C 0.38428 0.38455 0.65836 0.0
C1140 C 0.4141 0.39545 0.66265 0.0
C1141 C 0.37586 0.38096 0.6415 0.0
C1142 C 0.39706 0.38822 0.62858 0.0
C1143 C 0.42764 0.39831 0.6329 0.0
C1144 C 0.43602 0.40191 0.64969 0.0
C1145 C 0.38707 0.38605 0.61057 0.0
C1146 C 0.411 0.37776 0.59935 0.0
C1147 C 0.35468 0.39262 0.60432 0.0
C1148 C 0.32888 0.40242 0.61525 0.0
C1149 C 0.33783 0.41943 0.62427 0.0
C1150 C 0.31342 0.42851 0.63463 0.0
C1151 C 0.27988 0.42081 0.63596 0.0
C1152 C 0.27065 0.40404 0.62689 0.0
C1153 C 0.29499 0.39488 0.61653 0.0
H1154 H 0.26101 0.42786 0.64398 0.0
H1155 H 0.49775 0.3421 0.54183 0.0
H1156 H 0.60085 0.33851 0.01639 0.0
H1157 H 0.58238 0.33751 0.98707 0.0
H1158 H 0.66974 0.37371 0.97351 0.0
H1159 H 0.68824 0.37488 1.0029 0.0
H1160 H 0.61316 0.38476 0.95664 0.0
H1161 H 0.67044 0.3239 0.96686 0.0
H1162 H 0.68198 0.29302 0.98164 0.0
H1163 H 0.57798 0.27347 0.97128 0.0
H1164 H 0.56565 0.30436 0.95663 0.0
H1165 H 0.60744 0.36217 0.86879 0.0
H1166 H 0.62401 0.36681 0.89818 0.0
H1167 H 0.53719 0.33119 0.9135 0.0
H1168 H 0.52046 0.32651 0.88421 0.0
H1169 H 0.59469 0.32024 0.92932 0.0
H1170 H 0.53785 0.38142 0.91878 0.0
H1171 H 0.5272 0.41227 0.90381 0.0
H1172 H 0.63151 0.43115 0.91435 0.0
H1173 H 0.64295 0.40028 0.9292 0.0
C1174 C 0.61621 0.34622 1.00717 0.0
C1175 C 0.64622 0.35663 1.01201 0.0
C1176 C 0.6056 0.34565 0.99039 0.0
C1177 C 0.62497 0.35525 0.97797 0.0
C1178 C 0.65436 0.36615 0.98282 0.0
C1179 C 0.66489 0.36683 0.99965 0.0
C1180 C 0.61493 0.35356 0.95994 0.0
C1181 C 0.60956 0.37065 0.95061 0.0
C1182 C 0.60964 0.33516 0.95207 0.0
C1183 C 0.61703 0.31652 0.96078 0.0
C1184 C 0.64995 0.31307 0.96784 0.0
C1185 C 0.65665 0.29556 0.97618 0.0
C1186 C 0.6307 0.28131 0.97743 0.0
C1187 C 0.59803 0.28453 0.97031 0.0
C1188 C 0.59119 0.30203 0.96198 0.0
C1189 C 0.59153 0.35558 0.87842 0.0
C1190 C 0.56262 0.34394 0.87407 0.0
C1191 C 0.60108 0.35822 0.89525 0.0
C1192 C 0.58176 0.34944 0.90813 0.0
C1193 C 0.55262 0.33805 0.90383 0.0
C1194 C 0.54312 0.33536 0.88703 0.0
C1195 C 0.59255 0.35144 0.92603 0.0
C1196 C 0.59822 0.33437 0.93534 0.0
C1197 C 0.59823 0.36985 0.93382 0.0
C1198 C 0.59136 0.38845 0.92496 0.0
C1199 C 0.5586 0.39208 0.9178 0.0
C1200 C 0.55241 0.40959 0.90935 0.0
C1201 C 0.57869 0.42364 0.90809 0.0
C1202 C 0.61119 0.42024 0.91532 0.0
C1203 C 0.61754 0.40275 0.92377 0.0
H1204 H 0.57384 0.43718 0.90155 0.0
H1205 H 0.63594 0.26777 0.9839 0.0
H1206 H 0.82375 0.14451 0.50541 0.0
H1207 H 0.83757 0.14945 0.47574 0.0
H1208 H 0.94695 0.14784 0.48745 0.0
H1209 H 0.93338 0.14343 0.51707 0.0
H1210 H 0.93306 0.17683 0.46613 0.0
H1211 H 0.9046 0.1083 0.47007 0.0
H1212 H 0.86741 0.08003 0.47688 0.0
H1213 H 0.78914 0.10072 0.44296 0.0
H1214 H 0.8257 0.12928 0.43612 0.0
H1215 H 0.01161 0.15826 0.38834 0.0
H1216 H 0.98953 0.15566 0.41685 0.0
H1217 H 0.88443 0.15821 0.3982 0.0
H1218 H 0.90647 0.16097 0.36944 0.0
H1219 H 0.89084 0.13072 0.42235 0.0
H1220 H 0.92134 0.19803 0.41679 0.0
H1221 H 0.95813 0.22658 0.41036 0.0
H1222 H 0.03226 0.20854 0.44741 0.0
H1223 H 0.9962 0.1797 0.4539 0.0
C1224 C 0.85074 0.14541 0.50168 0.0
C1225 C 0.87745 0.14345 0.51364 0.0
C1226 C 0.85861 0.14805 0.48469 0.0
C1227 C 0.89334 0.14878 0.47929 0.0
C1228 C 0.91997 0.14724 0.49126 0.0
C1229 C 0.91215 0.14456 0.5082 0.0
C1230 C 0.90222 0.15113 0.46123 0.0
C1231 C 0.92409 0.16663 0.45659 0.0
C1232 C 0.88968 0.13819 0.44865 0.0
C1233 C 0.86771 0.12104 0.45274 0.0
C1234 C 0.87933 0.10691 0.46418 0.0
C1235 C 0.8584 0.09082 0.46802 0.0
C1236 C 0.82589 0.08861 0.4604 0.0
C1237 C 0.8143 0.10247 0.44888 0.0
C1238 C 0.83512 0.11861 0.44501 0.0
C1239 C 0.98377 0.15845 0.39026 0.0
C1240 C 0.96084 0.1601 0.37657 0.0
C1241 C 0.97117 0.15693 0.40661 0.0
C1242 C 0.9353 0.15712 0.40975 0.0
C1243 C 0.91222 0.15814 0.3961 0.0
C1244 C 0.92485 0.15965 0.37967 0.0
C1245 C 0.92226 0.15622 0.42731 0.0
C1246 C 0.89959 0.14102 0.43186 0.0
C1247 C 0.93406 0.16945 0.43983 0.0
C1248 C 0.95613 0.18661 0.43576 0.0
C1249 C 0.94564 0.20004 0.42346 0.0
C1250 C 0.96634 0.2163 0.41982 0.0
C1251 C 0.99748 0.21937 0.42849 0.0
C1252 C 0.00811 0.20614 0.44073 0.0
C1253 C 0.98753 0.18984 0.4444 0.0
H1254 H 0.01329 0.23206 0.42578 0.0
H1255 H 0.80972 0.07614 0.46339 0.0
H1256 H 0.85481 0.90331 1.00817 0.0
H1257 H 0.87174 0.90794 0.97899 0.0
H1258 H 0.84362 0.84821 0.96781 0.0
H1259 H 0.82811 0.84317 0.99717 0.0
H1260 H 0.90157 0.85754 0.95156 0.0
H1261 H 0.78934 0.88641 0.95787 0.0
H1262 H 0.745 0.90777 0.97054 0.0
H1263 H 0.80687 0.9583 0.95914 0.0
H1264 H 0.85183 0.93721 0.9466 0.0
H1265 H 0.88767 0.87283 0.86198 0.0
H1266 H 0.87851 0.86433 0.89153 0.0
H1267 H 0.91007 0.92245 0.90636 0.0
H1268 H 0.91948 0.93093 0.87705 0.0
H1269 H 0.84909 0.91263 0.92039 0.0
H1270 H 0.96148 0.88294 0.91379 0.0
H1271 H 0.00449 0.86104 0.90073 0.0
H1272 H 0.94037 0.81136 0.91199 0.0
H1273 H 0.89672 0.833 0.92492 0.0
C1274 C 0.8527 0.89104 0.99961 0.0
C1275 C 0.8398 0.87289 1.00511 0.0
C1276 C 0.86206 0.89377 0.98283 0.0
C1277 C 0.85842 0.87853 0.97106 0.0
C1278 C 0.8465 0.86025 0.97658 0.0
C1279 C 0.83727 0.85746 0.99338 0.0
C1280 C 0.86619 0.88183 0.95296 0.0
C1281 C 0.88975 0.86944 0.94469 0.0
C1282 C 0.85113 0.89747 0.94396 0.0
C1283 C 0.8241 0.91021 0.95144 0.0
C1284 C 0.79361 0.90207 0.95817 0.0
C1285 C 0.76834 0.91413 0.96532 0.0
C1286 C 0.77316 0.93438 0.96568 0.0
C1287 C 0.80321 0.94261 0.95887 0.0
C1288 C 0.82857 0.93061 0.95173 0.0
C1289 C 0.89331 0.88365 0.87158 0.0
C1290 C 0.90391 0.90263 0.86713 0.0
C1291 C 0.88799 0.87879 0.88847 0.0
C1292 C 0.89343 0.89279 0.90121 0.0
C1293 C 0.90535 0.91146 0.89678 0.0
C1294 C 0.91066 0.91629 0.87999 0.0
C1295 C 0.88487 0.88855 0.91905 0.0
C1296 C 0.86096 0.90073 0.92726 0.0
C1297 C 0.89941 0.87265 0.9279 0.0
C1298 C 0.92566 0.85962 0.92017 0.0
C1299 C 0.9564 0.86736 0.91336 0.0
C1300 C 0.98093 0.85499 0.906 0.0
C1301 C 0.97512 0.83483 0.90548 0.0
C1302 C 0.94481 0.82698 0.91237 0.0
C1303 C 0.92019 0.83929 0.91973 0.0
H1304 H 0.99414 0.82528 0.89979 0.0
H1305 H 0.75357 0.94369 0.97121 0.0
H1306 H 0.60213 0.61897 0.50986 0.0
H1307 H 0.5928 0.62163 0.47967 0.0
H1308 H 0.68834 0.6542 0.47503 0.0
H1309 H 0.69806 0.65147 0.50529 0.0
H1310 H 0.6376 0.66954 0.45525 0.0
H1311 H 0.68556 0.60602 0.46528 0.0
H1312 H 0.68924 0.57356 0.47844 0.0
H1313 H 0.58844 0.55864 0.45897 0.0
H1314 H 0.58395 0.59115 0.44589 0.0
H1315 H 0.67892 0.65041 0.36956 0.0
H1316 H 0.67591 0.65399 0.40007 0.0
H1317 H 0.57677 0.62444 0.40013 0.0
H1318 H 0.57961 0.62102 0.36943 0.0
H1319 H 0.62459 0.60825 0.42227 0.0
H1320 H 0.57919 0.67131 0.4102 0.0
H1321 H 0.5769 0.70365 0.39678 0.0
H1322 H 0.67427 0.71932 0.4196 0.0
H1323 H 0.67742 0.68695 0.43298 0.0
C1324 C 0.62129 0.62665 0.50244 0.0
C1325 C 0.65111 0.63479 0.51004 0.0
C1326 C 0.61583 0.62821 0.48516 0.0
C1327 C 0.64011 0.63786 0.47499 0.0
C1328 C 0.66923 0.64666 0.48259 0.0
C1329 C 0.67472 0.64512 0.49992 0.0
C1330 C 0.63572 0.63812 0.45639 0.0
C1331 C 0.63509 0.65613 0.44803 0.0
C1332 C 0.63161 0.62066 0.44694 0.0
C1333 C 0.63425 0.6011 0.45477 0.0
C1334 C 0.66405 0.59588 0.46393 0.0
C1335 C 0.66631 0.57746 0.47135 0.0
C1336 C 0.63904 0.56407 0.46958 0.0
C1337 C 0.60951 0.56905 0.46035 0.0
C1338 C 0.6071 0.58746 0.45292 0.0
C1339 C 0.65614 0.64506 0.37606 0.0
C1340 C 0.62944 0.63549 0.36715 0.0
C1341 C 0.65441 0.64714 0.39349 0.0
C1342 C 0.62609 0.63952 0.40242 0.0
C1343 C 0.59883 0.63047 0.3935 0.0
C1344 C 0.60032 0.62865 0.37598 0.0
C1345 C 0.62658 0.63966 0.42111 0.0
C1346 C 0.62668 0.62168 0.4295 0.0
C1347 C 0.63039 0.65714 0.43053 0.0
C1348 C 0.62869 0.67662 0.42248 0.0
C1349 C 0.60029 0.68158 0.41224 0.0
C1350 C 0.59879 0.69994 0.40466 0.0
C1351 C 0.62546 0.71352 0.4073 0.0
C1352 C 0.65365 0.70878 0.41755 0.0
C1353 C 0.65528 0.69043 0.42515 0.0
H1354 H 0.62425 0.72773 0.40143 0.0
H1355 H 0.64085 0.54981 0.47533 0.0
H1356 H 0.33157 0.68372 0.02533 0.0
H1357 H 0.34987 0.68117 0.05459 0.0
H1358 H 0.40538 0.62819 0.04298 0.0
H1359 H 0.38782 0.63081 1.01363 0.0
H1360 H 0.36663 0.62407 0.07088 0.0
H1361 H 0.44846 0.67093 0.04982 0.0
H1362 H 0.4671 0.70124 0.03583 0.0
H1363 H 0.41304 0.73543 0.07269 0.0
H1364 H 0.39366 0.70529 0.08678 0.0
H1365 H 0.46859 0.61189 0.14258 0.0
H1366 H 0.45259 0.61977 0.11381 0.0
H1367 H 0.39263 0.66881 0.13146 0.0
H1368 H 0.40817 0.66076 0.16054 0.0
H1369 H 0.43084 0.6764 0.10131 0.0
H1370 H 0.35027 0.62938 0.12271 0.0
H1371 H 0.33269 0.59898 0.13686 0.0
H1372 H 0.38476 0.56506 0.09916 0.0
H1373 H 0.40317 0.59529 0.08492 0.0
C1374 C 0.34809 0.67166 0.0289 0.0
C1375 C 0.3582 0.65748 0.01701 0.0
C1376 C 0.35846 0.6702 0.0457 0.0
C1377 C 0.37923 0.65456 0.05101 0.0
C1378 C 0.38928 0.64037 0.03921 0.0
C1379 C 0.37904 0.64185 0.02241 0.0
C1380 C 0.3898 0.65266 0.06892 0.0
C1381 C 0.38101 0.63545 0.07744 0.0
C1382 C 0.40771 0.66771 0.0777 0.0
C1383 C 0.41927 0.68585 0.06924 0.0
C1384 C 0.44028 0.68491 0.05486 0.0
C1385 C 0.45103 0.70206 0.04693 0.0
C1386 C 0.44117 0.72025 0.05334 0.0
C1387 C 0.4206 0.72133 0.06772 0.0
C1388 C 0.40974 0.70422 0.07569 0.0
C1389 C 0.4521 0.62442 0.14039 0.0
C1390 C 0.43915 0.63549 0.15392 0.0
C1391 C 0.44307 0.62894 0.12391 0.0
C1392 C 0.42092 0.64467 0.12049 0.0
C1393 C 0.40965 0.65655 0.13383 0.0
C1394 C 0.41863 0.65197 0.15043 0.0
C1395 C 0.40805 0.64773 0.10309 0.0
C1396 C 0.4163 0.66512 0.09472 0.0
C1397 C 0.38961 0.63285 0.09439 0.0
C1398 C 0.37837 0.61462 0.10284 0.0
C1399 C 0.35822 0.61545 0.11751 0.0
C1400 C 0.34807 0.59824 0.12553 0.0
C1401 C 0.35767 0.5801 0.11893 0.0
C1402 C 0.37738 0.57913 0.10426 0.0
C1403 C 0.38766 0.59629 0.09621 0.0
H1404 H 0.34978 0.5668 0.12516 0.0
H1405 H 0.44954 0.73351 0.04718 0.0
H1406 H 0.11418 0.86341 0.51396 0.0
H1407 H 0.10153 0.85885 0.54367 0.0
H1408 H 0.19451 0.89085 0.55683 0.0
H1409 H 0.20752 0.89528 0.52703 0.0
H1410 H 0.18773 0.86011 0.5766 0.0
H1411 H 0.1133 0.91203 0.55961 0.0
H1412 H 0.06969 0.92865 0.54211 0.0
H1413 H 0.99444 0.8844 0.554 0.0
H1414 H 0.03776 0.86735 0.57138 0.0
H1415 H 0.13441 0.87021 0.66268 0.0
H1416 H 0.15153 0.87823 0.63384 0.0
H1417 H 0.06714 0.84287 0.6148 0.0
H1418 H 0.04989 0.83505 0.64341 0.0
H1419 H 0.0718 0.87812 0.59878 0.0
H1420 H 0.14834 0.82549 0.61457 0.0
H1421 H 0.19233 0.8094 0.63222 0.0
H1422 H 0.26405 0.85629 0.62292 0.0
H1423 H 0.22027 0.87281 0.60539 0.0
C1424 C 0.13188 0.86956 0.52317 0.0
C1425 C 0.16172 0.87985 0.51811 0.0
C1426 C 0.1246 0.86695 0.54018 0.0
C1427 C 0.1467 0.87482 0.55255 0.0
C1428 C 0.17699 0.88469 0.54754 0.0
C1429 C 0.18444 0.88718 0.5305 0.0
C1430 C 0.13803 0.87274 0.57066 0.0
C1431 C 0.16258 0.86436 0.58149 0.0
C1432 C 0.10508 0.87807 0.57708 0.0
C1433 C 0.07888 0.88832 0.56669 0.0
C1434 C 0.08753 0.90576 0.5584 0.0
C1435 C 0.06285 0.91527 0.54851 0.0
C1436 C 0.02934 0.90756 0.54691 0.0
C1437 C 0.02042 0.89034 0.55523 0.0
C1438 C 0.04502 0.88076 0.56512 0.0
C1439 C 0.11945 0.86426 0.65231 0.0
C1440 C 0.09099 0.85182 0.65531 0.0
C1441 C 0.12936 0.86875 0.63587 0.0
C1442 C 0.11079 0.861 0.62215 0.0
C1443 C 0.08193 0.84896 0.62516 0.0
C1444 C 0.07226 0.84435 0.64154 0.0
C1445 C 0.12127 0.86523 0.6046 0.0
C1446 C 0.09705 0.87404 0.59389 0.0
C1447 C 0.15456 0.86043 0.59834 0.0
C1448 C 0.1809 0.8505 0.60884 0.0
C1449 C 0.17338 0.83246 0.61641 0.0
C1450 C 0.1983 0.82324 0.62636 0.0
C1451 C 0.23093 0.83185 0.62873 0.0
C1452 C 0.23874 0.84966 0.6211 0.0
C1453 C 0.21389 0.85896 0.61115 0.0
H1454 H 0.25019 0.82468 0.63644 0.0
H1455 H 0.01027 0.91495 0.53926 0.0
H1456 H 0.13542 0.30393 0.38824 0.0
H1457 H 0.10565 0.28125 0.36919 0.0
H1458 H 0.20449 0.26282 0.34933 0.0
H1459 H 0.2343 0.28567 0.36818 0.0
H1460 H 0.16132 0.26787 0.32469 0.0
H1461 H 0.15451 0.23477 0.37753 0.0
H1462 H 0.13982 0.23017 0.40732 0.0
H1463 H 0.03175 0.23859 0.39609 0.0
H1464 H 0.04585 0.24356 0.36631 0.0
H1465 H 0.10621 0.17719 0.28742 0.0
H1466 H 0.1332 0.20251 0.3048 0.0
H1467 H 0.0325 0.22713 0.31502 0.0
H1468 H 0.00532 0.2024 0.29694 0.0
H1469 H 0.07437 0.21945 0.34417 0.0
H1470 H 0.08087 0.25327 0.29198 0.0
H1471 H 0.09484 0.25875 0.26224 0.0
H1472 H 0.20276 0.24825 0.27235 0.0
H1473 H 0.1894 0.24269 0.30219 0.0
C1474 C 0.15082 0.29494 0.3799 0.0
C1475 C 0.18728 0.29662 0.37976 0.0
C1476 C 0.13376 0.28192 0.36902 0.0
C1477 C 0.15277 0.27006 0.35792 0.0
C1478 C 0.18916 0.27179 0.35773 0.0
C1479 C 0.2062 0.28491 0.36849 0.0
C1480 C 0.13486 0.25618 0.34622 0.0
C1481 C 0.14271 0.25711 0.32904 0.0
C1482 C 0.10971 0.24244 0.35172 0.0
C1483 C 0.1013 0.23978 0.36971 0.0
C1484 C 0.12766 0.23586 0.38145 0.0
C1485 C 0.11942 0.23314 0.39834 0.0
C1486 C 0.08489 0.23414 0.40363 0.0
C1487 C 0.05851 0.23785 0.39202 0.0
C1488 C 0.06661 0.24063 0.37513 0.0
C1489 C 0.08979 0.18825 0.29296 0.0
C1490 C 0.05355 0.18778 0.2906 0.0
C1491 C 0.1053 0.20266 0.30301 0.0
C1492 C 0.08487 0.21672 0.31119 0.0
C1493 C 0.04875 0.21642 0.30881 0.0
C1494 C 0.03328 0.20226 0.29845 0.0
C1495 C 0.10117 0.23113 0.32281 0.0
C1496 C 0.09302 0.23025 0.33992 0.0
C1497 C 0.12609 0.24486 0.31729 0.0
C1498 C 0.13409 0.2474 0.29928 0.0
C1499 C 0.10753 0.25193 0.28783 0.0
C1500 C 0.11537 0.25518 0.27098 0.0
C1501 C 0.14968 0.2539 0.26542 0.0
C1502 C 0.17622 0.2493 0.27669 0.0
C1503 C 0.16854 0.24614 0.29358 0.0
H1504 H 0.15568 0.25639 0.25235 0.0
H1505 H 0.07859 0.23198 0.4167 0.0
H1506 H 0.26326 0.22256 0.84478 0.0
H1507 H 0.29843 0.24771 0.83129 0.0
H1508 H 0.37656 0.24181 0.86973 0.0
H1509 H 0.34153 0.21648 0.8833 0.0
H1510 H 0.36655 0.27985 0.86198 0.0
H1511 H 0.38727 0.22035 0.83178 0.0
H1512 H 0.37146 0.19054 0.81598 0.0
H1513 H 0.32315 0.22541 0.77795 0.0
H1514 H 0.33821 0.25544 0.79365 0.0
H1515 H 0.49238 0.30839 0.78822 0.0
H1516 H 0.46127 0.28437 0.80518 0.0
H1517 H 0.38845 0.32885 0.82043 0.0
H1518 H 0.4207 0.3531 0.80419 0.0
H1519 H 0.39912 0.27064 0.80233 0.0
H1520 H 0.35269 0.31734 0.85854 0.0
H1521 H 0.37094 0.34662 0.87447 0.0
H1522 H 0.47714 0.33611 0.86116 0.0
H1523 H 0.45979 0.30641 0.84552 0.0
C1524 C 0.28799 0.22653 0.85036 0.0
C1525 C 0.2997 0.2173 0.86505 0.0
C1526 C 0.30805 0.24097 0.84264 0.0
C1527 C 0.34042 0.24647 0.84933 0.0
C1528 C 0.35169 0.2378 0.86431 0.0
C1529 C 0.33158 0.22334 0.87208 0.0
C1530 C 0.36279 0.26088 0.84044 0.0
C1531 C 0.37375 0.27784 0.84895 0.0
C1532 C 0.3726 0.25817 0.82348 0.0
C1533 C 0.36355 0.24013 0.81399 0.0
C1534 C 0.37301 0.22166 0.82012 0.0
C1535 C 0.36423 0.20472 0.81117 0.0
C1536 C 0.34622 0.20608 0.796 0.0
C1537 C 0.33704 0.22438 0.78972 0.0
C1538 C 0.34571 0.24136 0.79864 0.0
C1539 C 0.47011 0.3131 0.79545 0.0
C1540 C 0.45893 0.3326 0.79489 0.0
C1541 C 0.45215 0.29933 0.80503 0.0
C1542 C 0.42258 0.30476 0.81423 0.0
C1543 C 0.41153 0.32431 0.81375 0.0
C1544 C 0.42979 0.33814 0.80433 0.0
C1545 C 0.40274 0.28977 0.8238 0.0
C1546 C 0.39211 0.27268 0.81539 0.0
C1547 C 0.39371 0.29229 0.84091 0.0
C1548 C 0.40483 0.30973 0.85072 0.0
C1549 C 0.38 0.32116 0.85913 0.0
C1550 C 0.39021 0.33782 0.86811 0.0
C1551 C 0.42522 0.3432 0.86881 0.0
C1552 C 0.45011 0.33186 0.86061 0.0
C1553 C 0.44009 0.31511 0.85169 0.0
H1554 H 0.43308 0.35614 0.87572 0.0
H1555 H 0.33946 0.19295 0.78908 0.0
H1556 H 0.70962 0.21347 0.67174 0.0
H1557 H 0.67807 0.23629 0.68968 0.0
H1558 H 0.67822 0.27892 0.65005 0.0
H1559 H 0.71131 0.25655 0.6323 0.0
H1560 H 0.69097 0.29645 0.67893 0.0
H1561 H 0.60529 0.25086 0.65916 0.0
H1562 H 0.57957 0.21834 0.65387 0.0
H1563 H 0.57818 0.20698 0.70675 0.0
H1564 H 0.60433 0.23935 0.71235 0.0
H1565 H 0.5603 0.35731 0.71526 0.0
H1566 H 0.59374 0.33595 0.69661 0.0
H1567 H 0.5947 0.29134 0.73466 0.0
H1568 H 0.55957 0.31215 0.75282 0.0
H1569 H 0.58109 0.27539 0.70581 0.0
H1570 H 0.6669 0.32194 0.72528 0.0
H1571 H 0.69104 0.35496 0.72983 0.0
H1572 H 0.69094 0.36507 0.6768 0.0
H1573 H 0.66622 0.33221 0.67189 0.0
C1574 C 0.70339 0.22778 0.66687 0.0
C1575 C 0.71296 0.23306 0.65048 0.0
C1576 C 0.68494 0.24076 0.67711 0.0
C1577 C 0.67518 0.25926 0.67116 0.0
C1578 C 0.68523 0.26472 0.65493 0.0
C1579 C 0.70386 0.25179 0.64471 0.0
C1580 C 0.65436 0.27283 0.6818 0.0
C1581 C 0.66673 0.29191 0.68465 0.0
C1582 C 0.62293 0.2669 0.68948 0.0
C1583 C 0.60708 0.24746 0.68616 0.0
C1584 C 0.59973 0.24137 0.66966 0.0
C1585 C 0.58504 0.22298 0.6666 0.0
C1586 C 0.57733 0.21058 0.67997 0.0
C1587 C 0.58421 0.21659 0.69641 0.0
C1588 C 0.59894 0.23496 0.69953 0.0
C1589 C 0.5678 0.34297 0.71964 0.0
C1590 C 0.55815 0.33662 0.7357 0.0
C1591 C 0.58712 0.3308 0.70902 0.0
C1592 C 0.59745 0.31212 0.71432 0.0
C1593 C 0.58741 0.30573 0.7303 0.0
C1594 C 0.56779 0.31778 0.74081 0.0
C1595 C 0.6179 0.29895 0.70315 0.0
C1596 C 0.60538 0.27994 0.70014 0.0
C1597 C 0.64907 0.30501 0.69527 0.0
C1598 C 0.66438 0.32467 0.69822 0.0
C1599 C 0.67178 0.33125 0.71459 0.0
C1600 C 0.68553 0.34995 0.71724 0.0
C1601 C 0.6923 0.36216 0.70364 0.0
C1602 C 0.68553 0.35563 0.68734 0.0
C1603 C 0.67166 0.33697 0.6846 0.0
H1604 H 0.7029 0.37664 0.70574 0.0
H1605 H 0.56596 0.19635 0.67758 0.0
H1606 H 0.76429 0.2782 0.16344 0.0
H1607 H 0.79511 0.25231 0.17835 0.0
H1608 H 0.88676 0.28864 0.18095 0.0
H1609 H 0.85653 0.31431 0.16557 0.0
H1610 H 0.90448 0.25179 0.17443 0.0
H1611 H 0.83204 0.28471 0.2144 0.0
H1612 H 0.77713 0.29772 0.22567 0.0
H1613 H 0.73363 0.23984 0.22621 0.0
H1614 H 0.78816 0.22652 0.21471 0.0
H1615 H 0.94458 0.20254 0.26019 0.0
H1616 H 0.91281 0.22661 0.24361 0.0
H1617 H 0.91966 0.18898 0.20018 0.0
H1618 H 0.95201 0.16507 0.21659 0.0
H1619 H 0.85344 0.22702 0.22732 0.0
H1620 H 0.92749 0.21636 0.16493 0.0
H1621 H 0.98491 0.20514 0.1552 0.0
H1622 H 0.03039 0.2224 0.20222 0.0
H1623 H 0.97339 0.23401 0.21212 0.0
C1624 C 0.79119 0.28056 0.16692 0.0
C1625 C 0.80782 0.29843 0.1634 0.0
C1626 C 0.80869 0.26581 0.17559 0.0
C1627 C 0.84313 0.26862 0.18101 0.0
C1628 C 0.86018 0.28614 0.17698 0.0
C1629 C 0.84272 0.30089 0.16831 0.0
C1630 C 0.86107 0.25362 0.19135 0.0
C1631 C 0.89325 0.24632 0.18596 0.0
C1632 C 0.84681 0.2467 0.20657 0.0
C1633 C 0.81405 0.25466 0.21354 0.0
C1634 C 0.81067 0.27478 0.2168 0.0
C1635 C 0.77963 0.2822 0.22325 0.0
C1636 C 0.75187 0.26962 0.22661 0.0
C1637 C 0.75513 0.24958 0.22357 0.0
C1638 C 0.7861 0.24208 0.2171 0.0
C1639 C 0.939 0.19931 0.24716 0.0
C1640 C 0.95088 0.18191 0.2397 0.0
C1641 C 0.92086 0.2131 0.23768 0.0
C1642 C 0.91422 0.20978 0.22056 0.0
C1643 C 0.92505 0.1921 0.21326 0.0
C1644 C 0.94347 0.1784 0.22268 0.0
C1645 C 0.89667 0.225 0.21031 0.0
C1646 C 0.86458 0.23237 0.21573 0.0
C1647 C 0.9114 0.23227 0.1953 0.0
C1648 C 0.94606 0.22588 0.18931 0.0
C1649 C 0.94978 0.21787 0.17315 0.0
C1650 C 0.98225 0.21142 0.16761 0.0
C1651 C 0.01125 0.213 0.17811 0.0
C1652 C 0.00788 0.22113 0.19413 0.0
C1653 C 0.9755 0.22764 0.1997 0.0
H1654 H 0.03633 0.20795 0.17382 0.0
H1655 H 0.72787 0.27539 0.23161 0.0
H1656 H 0.80366 0.70478 0.67539 0.0
H1657 H 0.83392 0.72744 0.69436 0.0
H1658 H 0.83233 0.77173 0.65614 0.0
H1659 H 0.80149 0.74947 0.6373 0.0
H1660 H 0.89634 0.76742 0.66928 0.0
H1661 H 0.77988 0.77498 0.68976 0.0
H1662 H 0.724 0.76384 0.70143 0.0
H1663 H 0.77651 0.74188 0.74494 0.0
H1664 H 0.83281 0.75264 0.73341 0.0
H1665 H 0.90663 0.8503 0.73578 0.0
H1666 H 0.87396 0.82605 0.71962 0.0
H1667 H 0.96454 0.78919 0.71762 0.0
H1668 H 0.99713 0.8133 0.73428 0.0
H1669 H 0.85597 0.78876 0.72542 0.0
H1670 H 0.9626 0.76416 0.67922 0.0
H1671 H 0.01295 0.77651 0.66337 0.0
H1672 H 0.97558 0.83525 0.66879 0.0
H1673 H 0.92464 0.82323 0.68445 0.0
C1674 C 0.80924 0.71944 0.67109 0.0
C1675 C 0.80029 0.72518 0.6547 0.0
C1676 C 0.82663 0.73238 0.68197 0.0
C1677 C 0.83543 0.75131 0.6767 0.0
C1678 C 0.82605 0.75716 0.66047 0.0
C1679 C 0.80857 0.74432 0.64965 0.0
C1680 C 0.85586 0.76484 0.68766 0.0
C1681 C 0.88761 0.77197 0.68163 0.0
C1682 C 0.84439 0.77091 0.7037 0.0
C1683 C 0.81059 0.76441 0.71063 0.0
C1684 C 0.77955 0.7676 0.70174 0.0
C1685 C 0.74779 0.7614 0.70835 0.0
C1686 C 0.74672 0.7521 0.72389 0.0
C1687 C 0.7774 0.74905 0.73289 0.0
C1688 C 0.80923 0.75521 0.72633 0.0
C1689 C 0.91942 0.83687 0.73223 0.0
C1690 C 0.95428 0.83361 0.73665 0.0
C1691 C 0.90075 0.82304 0.72286 0.0
C1692 C 0.91667 0.80573 0.71736 0.0
C1693 C 0.95167 0.80247 0.7216 0.0
C1694 C 0.9703 0.81629 0.73112 0.0
C1695 C 0.89661 0.79135 0.70702 0.0
C1696 C 0.86496 0.784 0.71319 0.0
C1697 C 0.90801 0.78514 0.691 0.0
C1698 C 0.94001 0.7928 0.68312 0.0
C1699 C 0.96528 0.77973 0.67715 0.0
C1700 C 0.99379 0.78665 0.66814 0.0
C1701 C 0.99719 0.8066 0.66498 0.0
C1702 C 0.97271 0.81978 0.67121 0.0
C1703 C 0.94407 0.81293 0.6802 0.0
H1704 H 0.01867 0.81178 0.65758 0.0
H1705 H 0.7221 0.74732 0.72899 0.0
H1706 H 0.73285 0.78391 0.16109 0.0
H1707 H 0.70141 0.75812 0.17583 0.0
H1708 H 0.60545 0.78947 0.16898 0.0
H1709 H 0.63673 0.8153 0.15419 0.0
H1710 H 0.61103 0.77778 0.20034 0.0
H1711 H 0.62359 0.7472 0.14673 0.0
H1712 H 0.65477 0.73537 0.12172 0.0
H1713 H 0.71605 0.69729 0.15243 0.0
H1714 H 0.68555 0.7091 0.17767 0.0
H1715 H 0.50521 0.7028 0.23413 0.0
H1716 H 0.53093 0.72682 0.21534 0.0
H1717 H 0.62708 0.69453 0.21546 0.0
H1718 H 0.60006 0.66944 0.23272 0.0
H1719 H 0.61899 0.70722 0.18645 0.0
H1720 H 0.6078 0.74013 0.24056 0.0
H1721 H 0.57577 0.75286 0.26511 0.0
H1722 H 0.51073 0.78683 0.23281 0.0
H1723 H 0.54218 0.77435 0.20809 0.0
C1724 C 0.70497 0.78517 0.16245 0.0
C1725 C 0.68738 0.80174 0.15644 0.0
C1726 C 0.68698 0.77039 0.17092 0.0
C1727 C 0.65094 0.77172 0.17345 0.0
C1728 C 0.63325 0.7881 0.16725 0.0
C1729 C 0.65121 0.8029 0.15882 0.0
C1730 C 0.63194 0.7565 0.18319 0.0
C1731 C 0.61242 0.76236 0.19717 0.0
C1732 C 0.63412 0.73633 0.17927 0.0
C1733 C 0.65249 0.72918 0.16411 0.0
C1734 C 0.6439 0.73642 0.14817 0.0
C1735 C 0.66142 0.72969 0.13395 0.0
C1736 C 0.68744 0.71562 0.13549 0.0
C1737 C 0.69592 0.70821 0.15126 0.0
C1738 C 0.6785 0.7149 0.16552 0.0
C1739 C 0.53178 0.70073 0.23007 0.0
C1740 C 0.55101 0.68447 0.23544 0.0
C1741 C 0.54668 0.71467 0.21946 0.0
C1742 C 0.58155 0.71305 0.21439 0.0
C1743 C 0.60033 0.69642 0.21931 0.0
C1744 C 0.58503 0.68217 0.22945 0.0
C1745 C 0.59849 0.72843 0.20387 0.0
C1746 C 0.61761 0.72262 0.18968 0.0
C1747 C 0.5959 0.74868 0.20758 0.0
C1748 C 0.57713 0.75617 0.22249 0.0
C1749 C 0.58654 0.75023 0.23871 0.0
C1750 C 0.56852 0.75739 0.25264 0.0
C1751 C 0.54118 0.77052 0.25052 0.0
C1752 C 0.53187 0.77663 0.23445 0.0
C1753 C 0.54981 0.76955 0.22048 0.0
H1754 H 0.52728 0.77602 0.26133 0.0
H1755 H 0.70096 0.71043 0.12446 0.0
H1756 H 0.32212 0.76794 0.39921 0.0
H1757 H 0.35092 0.74415 0.38108 0.0
H1758 H 0.35354 0.78628 0.3411 0.0
H1759 H 0.32539 0.81035 0.35925 0.0
H1760 H 0.33031 0.75074 0.33032 0.0
H1761 H 0.42653 0.77538 0.36249 0.0
H1762 H 0.45893 0.78382 0.38824 0.0
H1763 H 0.45684 0.72368 0.40335 0.0
H1764 H 0.42395 0.71492 0.3778 0.0
H1765 H 0.44874 0.70283 0.27581 0.0
H1766 H 0.41746 0.72523 0.2942 0.0
H1767 H 0.42181 0.68294 0.33405 0.0
H1768 H 0.45298 0.6603 0.31555 0.0
H1769 H 0.4408 0.71801 0.3453 0.0
H1770 H 0.34339 0.69324 0.31432 0.0
H1771 H 0.30728 0.6845 0.28983 0.0
H1772 H 0.31051 0.74403 0.27308 0.0
H1773 H 0.34656 0.75313 0.29753 0.0
C1774 C 0.32927 0.7723 0.38665 0.0
C1775 C 0.32143 0.79116 0.38075 0.0
C1776 C 0.34567 0.75862 0.37628 0.0
C1777 C 0.35465 0.76346 0.35976 0.0
C1778 C 0.34679 0.7822 0.35379 0.0
C1779 C 0.33052 0.79593 0.36418 0.0
C1780 C 0.3714 0.74882 0.34856 0.0
C1781 C 0.35475 0.74379 0.33348 0.0
C1782 C 0.40272 0.73929 0.35293 0.0
C1783 C 0.42244 0.74453 0.36832 0.0
C1784 C 0.43269 0.76398 0.37138 0.0
C1785 C 0.4512 0.76882 0.38592 0.0
C1786 C 0.45985 0.75431 0.39745 0.0
C1787 C 0.45007 0.73492 0.39443 0.0
C1788 C 0.43151 0.73 0.37991 0.0
C1789 C 0.44218 0.69803 0.28831 0.0
C1790 C 0.4528 0.67962 0.29411 0.0
C1791 C 0.42443 0.71094 0.29888 0.0
C1792 C 0.41686 0.70573 0.31549 0.0
C1793 C 0.42725 0.68729 0.32128 0.0
C1794 C 0.44498 0.67434 0.31069 0.0
C1795 C 0.39973 0.71994 0.327 0.0
C1796 C 0.41634 0.72492 0.34214 0.0
C1797 C 0.36827 0.72938 0.32274 0.0
C1798 C 0.34789 0.72382 0.30767 0.0
C1799 C 0.33669 0.70442 0.30532 0.0
C1800 C 0.31607 0.69943 0.2915 0.0
C1801 C 0.30662 0.71371 0.2799 0.0
C1802 C 0.31783 0.73299 0.28208 0.0
C1803 C 0.33825 0.73809 0.29595 0.0
H1804 H 0.29056 0.70984 0.26923 0.0
H1805 H 0.47421 0.75808 0.4087 0.0
H1806 H 0.21982 0.73884 0.87763 0.0
H1807 H 0.1863 0.76352 0.86251 0.0
H1808 H 0.16406 0.72154 0.82337 0.0
H1809 H 0.19741 0.69688 0.83837 0.0
H1810 H 0.18291 0.75526 0.81006 0.0
H1811 H 0.10239 0.7352 0.85247 0.0
H1812 H 0.08227 0.72869 0.88123 0.0
H1813 H 0.09797 0.78904 0.89434 0.0
H1814 H 0.11868 0.79586 0.8657 0.0
H1815 H 0.05264 0.81009 0.76772 0.0
H1816 H 0.08512 0.785 0.78291 0.0
H1817 H 0.10327 0.82582 0.82347 0.0
H1818 H 0.06987 0.85061 0.80856 0.0
H1819 H 0.08637 0.7924 0.83599 0.0
H1820 H 0.16904 0.81205 0.79356 0.0
H1821 H 0.18982 0.81803 0.76475 0.0
H1822 H 0.16912 0.7582 0.75162 0.0
H1823 H 0.14835 0.75183 0.78032 0.0
C1824 C 0.20749 0.73481 0.86589 0.0
C1825 C 0.21146 0.71587 0.8592 0.0
C1826 C 0.18833 0.74894 0.85724 0.0
C1827 C 0.17241 0.74439 0.84181 0.0
C1828 C 0.1762 0.72547 0.83518 0.0
C1829 C 0.1954 0.71138 0.84378 0.0
C1830 C 0.15234 0.75936 0.83238 0.0
C1831 C 0.16153 0.76322 0.81569 0.0
C1832 C 0.12485 0.77006 0.83976 0.0
C1833 C 0.11243 0.76599 0.85699 0.0
C1834 C 0.10184 0.74705 0.86152 0.0
C1835 C 0.09028 0.74331 0.8778 0.0
C1836 C 0.08894 0.75843 0.88962 0.0
C1837 C 0.09908 0.77734 0.88518 0.0
C1838 C 0.11071 0.78115 0.86892 0.0
C1839 C 0.06371 0.81366 0.77985 0.0
C1840 C 0.05868 0.83225 0.78698 0.0
C1841 C 0.08243 0.79937 0.78851 0.0
C1842 C 0.09717 0.80353 0.80429 0.0
C1843 C 0.09219 0.82217 0.81135 0.0
C1844 C 0.0731 0.83635 0.80282 0.0
C1845 C 0.11709 0.78843 0.81369 0.0
C1846 C 0.10783 0.7845 0.83037 0.0
C1847 C 0.1445 0.77766 0.8063 0.0
C1848 C 0.15684 0.78152 0.78903 0.0
C1849 C 0.16871 0.80021 0.78449 0.0
C1850 C 0.18052 0.80366 0.7682 0.0
C1851 C 0.18056 0.78855 0.75636 0.0
C1852 C 0.169 0.76991 0.7608 0.0
C1853 C 0.15732 0.76635 0.77708 0.0
H1854 H 0.18967 0.79126 0.74376 0.0
H1855 H 0.07997 0.75551 0.90221 0.0
loop_
_geom_bond_atom_site_label_1
_geom_bond_atom_site_label_2
_geom_bond_distance
_geom_bond_site_symmetry_2
_ccdc_geom_bond_type
C0 C1 1.264 . S
C0 C5 1.479 . S
C0 C10 1.465 . S
C1 C0 1.264 . S
C1 C3 1.339 . S
C1 H28 0.931 . S
C2 C3 1.395 . S
C2 C4 1.320 . S
C3 C1 1.339 . S
C3 C2 1.395 . S
C3 H29 0.929 . S
C4 C2 1.320 . S
C4 C5 1.405 . S
C4 H30 0.930 . S
C5 C0 1.479 . S
C5 C4 1.405 . S
C5 H31 0.931 . S
U6 O7 2.454 . S
U6 O8 2.458 . S
U6 C9 2.984 . S
U6 C10 2.847 . S
U6 C23 2.882 . S
U6 O24 2.441 . S
U6 O25 2.420 . S
U6 O26 2.455 . S
U6 O27 2.449 . S
O7 U6 2.454 . S
O7 C9 1.353 . S
O8 U6 2.458 . S
O8 C9 1.286 . S
C9 U6 2.984 . S
C9 O7 1.353 . S
C9 O8 1.286 . S
C9 C11 1.363 . S
C10 C0 1.465 . S
C10 U6 2.847 . S
C10 O24 1.249 . S
C10 O25 1.202 . S
C11 C9 1.363 . S
C11 C13 1.408 . S
C11 C16 1.342 . S
C12 C13 1.310 . S
C12 C15 1.461 . S
C12 H32 0.932 . S
C13 C11 1.408 . S
C13 C12 1.310 . S
C13 H33 0.930 . S
C14 C15 1.474 . S
C14 C16 1.285 . S
C14 H34 0.929 . S
C15 C12 1.461 . S
C15 C14 1.474 . S
C16 C11 1.342 . S
C16 C14 1.285 . S
C16 H35 0.930 . S
C17 C20 1.424 . S
C17 C22 1.245 . S
C17 C23 1.428 . S
C18 C21 1.260 . S
C18 C22 1.477 . S
C18 H36 0.932 . S
C19 C20 1.384 . S
C19 C21 1.479 . S
C19 H37 0.929 . S
C20 C17 1.424 . S
C20 C19 1.384 . S
C20 H38 0.928 . S
C21 C18 1.260 . S
C21 C19 1.479 . S
C22 C17 1.245 . S
C22 C18 1.477 . S
C22 H39 0.932 . S
C23 U6 2.882 . S
C23 C17 1.428 . S
C23 O26 1.301 . S
C23 O27 1.282 . S
O24 U6 2.441 . S
O24 C10 1.249 . S
O25 U6 2.420 . S
O25 C10 1.202 . S
O26 U6 2.455 . S
O26 C23 1.301 . S
O27 U6 2.449 . S
O27 C23 1.282 . S
H28 C1 0.931 . S
H29 C3 0.929 . S
H30 C4 0.930 . S
H31 C5 0.931 . S
H32 C12 0.932 . S
H33 C13 0.930 . S
H34 C14 0.929 . S
H35 C16 0.930 . S
H36 C18 0.932 . S
H37 C19 0.929 . S
H38 C20 0.928 . S
H39 C22 0.932 . S
C40 C41 1.264 . S
C40 C45 1.479 . S
C40 C50 1.465 . S
C41 C40 1.264 . S
C41 C43 1.339 . S
C41 H68 0.931 . S
C42 C43 1.395 . S
C42 C44 1.320 . S
C43 C41 1.339 . S
C43 C42 1.395 . S
C43 H69 0.929 . S
C44 C42 1.320 . S
C44 C45 1.405 . S
C44 H70 0.930 . S
C45 C40 1.479 . S
C45 C44 1.405 . S
C45 H71 0.931 . S
U46 O47 2.454 . S
U46 O48 2.458 . S
U46 C49 2.984 . S
U46 C50 2.847 . S
U46 C63 2.882 . S
U46 O64 2.441 . S
U46 O65 2.420 . S
U46 O66 2.455 . S
U46 O67 2.449 . S
O47 U46 2.454 . S
O47 C49 1.353 . S
O48 U46 2.458 . S
O48 C49 1.286 . S
C49 U46 2.984 . S
C49 O47 1.353 . S
C49 O48 1.286 . S
C49 C51 1.363 . S
C50 C40 1.465 . S
C50 U46 2.847 . S
C50 O64 1.249 . S
C50 O65 1.202 . S
C51 C49 1.363 . S
C51 C53 1.408 . S
C51 C56 1.342 . S
C52 C53 1.310 . S
C52 C55 1.461 . S
C52 H72 0.932 . S
C53 C51 1.408 . S
C53 C52 1.310 . S
C53 H73 0.930 . S
C54 C55 1.474 . S
C54 C56 1.285 . S
C54 H74 0.929 . S
C55 C52 1.461 . S
C55 C54 1.474 . S
C56 C51 1.342 . S
C56 C54 1.285 . S
C56 H75 0.930 . S
C57 C60 1.424 . S
C57 C62 1.245 . S
C57 C63 1.428 . S
C58 C61 1.260 . S
C58 C62 1.477 . S
C58 H76 0.932 . S
C59 C60 1.384 . S
C59 C61 1.479 . S
C59 H77 0.929 . S
C60 C57 1.424 . S
C60 C59 1.384 . S
C60 H78 0.928 . S
C61 C58 1.260 . S
C61 C59 1.479 . S
C62 C57 1.245 . S
C62 C58 1.477 . S
C62 H79 0.932 . S
C63 U46 2.882 . S
C63 C57 1.428 . S
C63 O66 1.301 . S
C63 O67 1.282 . S
O64 U46 2.441 . S
O64 C50 1.249 . S
O65 U46 2.420 . S
O65 C50 1.202 . S
O66 U46 2.455 . S
O66 C63 1.301 . S
O67 U46 2.449 . S
O67 C63 1.282 . S
H68 C41 0.931 . S
H69 C43 0.929 . S
H70 C44 0.930 . S
H71 C45 0.931 . S
H72 C52 0.932 . S
H73 C53 0.930 . S
H74 C54 0.929 . S
H75 C56 0.930 . S
H76 C58 0.932 . S
H77 C59 0.929 . S
H78 C60 0.928 . S
H79 C62 0.932 . S
C80 C81 1.264 . S
C80 C85 1.479 . S
C80 C90 1.465 . S
C81 C80 1.264 . S
C81 C83 1.339 . S
C81 H108 0.931 . S
C82 C83 1.395 . S
C82 C84 1.320 . S
C83 C81 1.339 . S
C83 C82 1.395 . S
C83 H109 0.929 . S
C84 C82 1.320 . S
C84 C85 1.405 . S
C84 H110 0.930 . S
C85 C80 1.479 . S
C85 C84 1.405 . S
C85 H111 0.931 . S
U86 O87 2.454 . S
U86 O88 2.458 . S
U86 C89 2.984 . S
U86 C90 2.847 . S
U86 C103 2.882 . S
U86 O104 2.441 . S
U86 O105 2.420 . S
U86 O106 2.455 . S
U86 O107 2.449 . S
O87 U86 2.454 . S
O87 C89 1.353 . S
O88 U86 2.458 . S
O88 C89 1.286 . S
C89 U86 2.984 . S
C89 O87 1.353 . S
C89 O88 1.286 . S
C89 C91 1.363 . S
C90 C80 1.465 . S
C90 U86 2.847 . S
C90 O104 1.249 . S
C90 O105 1.202 . S
C91 C89 1.363 . S
C91 C93 1.408 . S
C91 C96 1.342 . S
C92 C93 1.310 . S
C92 C95 1.461 . S
C92 H112 0.932 . S
C93 C91 1.408 . S
C93 C92 1.310 . S
C93 H113 0.930 . S
C94 C95 1.474 . S
C94 C96 1.285 . S
C94 H114 0.929 . S
C95 C92 1.461 . S
C95 C94 1.474 . S
C96 C91 1.342 . S
C96 C94 1.285 . S
C96 H115 0.930 . S
C97 C100 1.424 . S
C97 C102 1.245 . S
C97 C103 1.428 . S
C98 C101 1.260 . S
C98 C102 1.477 . S
C98 H116 0.932 . S
C99 C100 1.384 . S
C99 C101 1.479 . S
C99 H117 0.929 . S
C100 C97 1.424 . S
C100 C99 1.384 . S
C100 H118 0.928 . S
C101 C98 1.260 . S
C101 C99 1.479 . S
C102 C97 1.245 . S
C102 C98 1.477 . S
C102 H119 0.932 . S
C103 U86 2.882 . S
C103 C97 1.428 . S
C103 O106 1.301 . S
C103 O107 1.282 . S
O104 U86 2.441 . S
O104 C90 1.249 . S
O105 U86 2.420 . S
O105 C90 1.202 . S
O106 U86 2.455 . S
O106 C103 1.301 . S
O107 U86 2.449 . S
O107 C103 1.282 . S
H108 C81 0.931 . S
H109 C83 0.929 . S
H110 C84 0.930 . S
H111 C85 0.931 . S
H112 C92 0.932 . S
H113 C93 0.930 . S
H114 C94 0.929 . S
H115 C96 0.930 . S
H116 C98 0.932 . S
H117 C99 0.929 . S
H118 C100 0.928 . S
H119 C102 0.932 . S
C120 C121 1.264 . S
C120 C125 1.479 . S
C120 C130 1.465 . S
C121 C120 1.264 . S
C121 C123 1.339 . S
C121 H148 0.931 . S
C122 C123 1.395 . S
C122 C124 1.320 . S
C123 C121 1.339 . S
C123 C122 1.395 . S
C123 H149 0.929 . S
C124 C122 1.320 . S
C124 C125 1.405 . S
C124 H150 0.930 . S
C125 C120 1.479 . S
C125 C124 1.405 . S
C125 H151 0.931 . S
U126 O127 2.454 . S
U126 O128 2.458 . S
U126 C129 2.984 . S
U126 C130 2.847 . S
U126 C143 2.882 . S
U126 O144 2.441 . S
U126 O145 2.420 . S
U126 O146 2.455 . S
U126 O147 2.449 . S
O127 U126 2.454 . S
O127 C129 1.353 . S
O128 U126 2.458 . S
O128 C129 1.286 . S
C129 U126 2.984 . S
C129 O127 1.353 . S
C129 O128 1.286 . S
C129 C131 1.363 . S
C130 C120 1.465 . S
C130 U126 2.847 . S
C130 O144 1.249 . S
C130 O145 1.202 . S
C131 C129 1.363 . S
C131 C133 1.408 . S
C131 C136 1.342 . S
C132 C133 1.310 . S
C132 C135 1.461 . S
C132 H152 0.932 . S
C133 C131 1.408 . S
C133 C132 1.310 . S
C133 H153 0.930 . S
C134 C135 1.474 . S
C134 C136 1.285 . S
C134 H154 0.929 . S
C135 C132 1.461 . S
C135 C134 1.474 . S
C136 C131 1.342 . S
C136 C134 1.285 . S
C136 H155 0.930 . S
C137 C140 1.424 . S
C137 C142 1.245 . S
C137 C143 1.428 . S
C138 C141 1.260 . S
C138 C142 1.477 . S
C138 H156 0.932 . S
C139 C140 1.384 . S
C139 C141 1.479 . S
C139 H157 0.929 . S
C140 C137 1.424 . S
C140 C139 1.384 . S
C140 H158 0.928 . S
C141 C138 1.260 . S
C141 C139 1.479 . S
C142 C137 1.245 . S
C142 C138 1.477 . S
C142 H159 0.932 . S
C143 U126 2.882 . S
C143 C137 1.428 . S
C143 O146 1.301 . S
C143 O147 1.282 . S
O144 U126 2.441 . S
O144 C130 1.249 . S
O145 U126 2.420 . S
O145 C130 1.202 . S
O146 U126 2.455 . S
O146 C143 1.301 . S
O147 U126 2.449 . S
O147 C143 1.282 . S
H148 C121 0.931 . S
H149 C123 0.929 . S
H150 C124 0.930 . S
H151 C125 0.931 . S
H152 C132 0.932 . S
H153 C133 0.930 . S
H154 C134 0.929 . S
H155 C136 0.930 . S
H156 C138 0.932 . S
H157 C139 0.929 . S
H158 C140 0.928 . S
H159 C142 0.932 . S
C160 C161 1.264 . S
C160 C165 1.479 . S
C160 C170 1.465 . S
C161 C160 1.264 . S
C161 C163 1.339 . S
C161 H188 0.931 . S
C162 C163 1.395 . S
C162 C164 1.320 . S
C163 C161 1.339 . S
C163 C162 1.395 . S
C163 H189 0.929 . S
C164 C162 1.320 . S
C164 C165 1.405 . S
C164 H190 0.930 . S
C165 C160 1.479 . S
C165 C164 1.405 . S
C165 H191 0.931 . S
U166 O167 2.454 . S
U166 O168 2.458 . S
U166 C169 2.984 . S
U166 C170 2.847 . S
U166 C183 2.882 . S
U166 O184 2.441 . S
U166 O185 2.420 . S
U166 O186 2.455 . S
U166 O187 2.449 . S
O167 U166 2.454 . S
O167 C169 1.353 . S
O168 U166 2.458 . S
O168 C169 1.286 . S
C169 U166 2.984 . S
C169 O167 1.353 . S
C169 O168 1.286 . S
C169 C171 1.363 . S
C170 C160 1.465 . S
C170 U166 2.847 . S
C170 O184 1.249 . S
C170 O185 1.202 . S
C171 C169 1.363 . S
C171 C173 1.408 . S
C171 C176 1.342 . S
C172 C173 1.310 . S
C172 C175 1.461 . S
C172 H192 0.932 . S
C173 C171 1.408 . S
C173 C172 1.310 . S
C173 H193 0.930 . S
C174 C175 1.474 . S
C174 C176 1.285 . S
C174 H194 0.929 . S
C175 C172 1.461 . S
C175 C174 1.474 . S
C176 C171 1.342 . S
C176 C174 1.285 . S
C176 H195 0.930 . S
C177 C180 1.424 . S
C177 C182 1.245 . S
C177 C183 1.428 . S
C178 C181 1.260 . S
C178 C182 1.477 . S
C178 H196 0.932 . S
C179 C180 1.384 . S
C179 C181 1.479 . S
C179 H197 0.929 . S
C180 C177 1.424 . S
C180 C179 1.384 . S
C180 H198 0.928 . S
C181 C178 1.260 . S
C181 C179 1.479 . S
C182 C177 1.245 . S
C182 C178 1.477 . S
C182 H199 0.932 . S
C183 U166 2.882 . S
C183 C177 1.428 . S
C183 O186 1.301 . S
C183 O187 1.282 . S
O184 U166 2.441 . S
O184 C170 1.249 . S
O185 U166 2.420 . S
O185 C170 1.202 . S
O186 U166 2.455 . S
O186 C183 1.301 . S
O187 U166 2.449 . S
O187 C183 1.282 . S
H188 C161 0.931 . S
H189 C163 0.929 . S
H190 C164 0.930 . S
H191 C165 0.931 . S
H192 C172 0.932 . S
H193 C173 0.930 . S
H194 C174 0.929 . S
H195 C176 0.930 . S
H196 C178 0.932 . S
H197 C179 0.929 . S
H198 C180 0.928 . S
H199 C182 0.932 . S
C200 C201 1.264 . S
C200 C205 1.479 . S
C200 C210 1.465 . S
C201 C200 1.264 . S
C201 C203 1.339 . S
C201 H228 0.931 . S
C202 C203 1.405 . S
C202 C204 1.328 . S
C203 C201 1.339 . S
C203 C202 1.405 . S
C203 H229 0.929 . S
C204 C202 1.328 . S
C204 C205 1.405 . S
C204 H230 0.948 . S
C205 C200 1.479 . S
C205 C204 1.405 . S
C205 H231 0.931 . S
U206 O207 2.454 . S
U206 O208 2.458 . S
U206 C209 2.984 . S
U206 C210 2.847 . S
U206 C223 2.882 . S
U206 O224 2.441 . S
U206 O225 2.420 . S
U206 O226 2.455 . S
U206 O227 2.449 . S
O207 U206 2.454 . S
O207 C209 1.353 . S
O208 U206 2.458 . S
O208 C209 1.286 . S
C209 U206 2.984 . S
C209 O207 1.353 . S
C209 O208 1.286 . S
C209 C211 1.363 . S
C210 C200 1.465 . S
C210 U206 2.847 . S
C210 O224 1.249 . S
C210 O225 1.202 . S
C211 C209 1.363 . S
C211 C213 1.408 . S
C211 C216 1.342 . S
C212 C213 1.310 . S
C212 C215 1.461 . S
C212 H232 0.932 . S
C213 C211 1.408 . S
C213 C212 1.310 . S
C213 H233 0.930 . S
C214 C215 1.474 . S
C214 C216 1.285 . S
C214 H234 0.929 . S
C215 C212 1.461 . S
C215 C214 1.474 . S
C216 C211 1.342 . S
C216 C214 1.285 . S
C216 H235 0.930 . S
C217 C220 1.424 . S
C217 C222 1.245 . S
C217 C223 1.428 . S
C218 C221 1.260 . S
C218 C222 1.477 . S
C218 H236 0.932 . S
C219 C220 1.384 . S
C219 C221 1.479 . S
C219 H237 0.929 . S
C220 C217 1.424 . S
C220 C219 1.384 . S
C220 H238 0.928 . S
C221 C218 1.260 . S
C221 C219 1.479 . S
C222 C217 1.245 . S
C222 C218 1.477 . S
C222 H239 0.932 . S
C223 U206 2.882 . S
C223 C217 1.428 . S
C223 O226 1.301 . S
C223 O227 1.282 . S
O224 U206 2.441 . S
O224 C210 1.249 . S
O225 U206 2.420 . S
O225 C210 1.202 . S
O226 U206 2.455 . S
O226 C223 1.301 . S
O227 U206 2.449 . S
O227 C223 1.282 . S
H228 C201 0.931 . S
H229 C203 0.929 . S
H230 C204 0.948 . S
H231 C205 0.931 . S
H232 C212 0.932 . S
H233 C213 0.930 . S
H234 C214 0.929 . S
H235 C216 0.930 . S
H236 C218 0.932 . S
H237 C219 0.929 . S
H238 C220 0.928 . S
H239 C222 0.932 . S
C240 C241 1.264 . S
C240 C245 1.479 . S
C240 C250 1.465 . S
C241 C240 1.264 . S
C241 C243 1.339 . S
C241 H268 0.931 . S
C242 C243 1.395 . S
C242 C244 1.320 . S
C243 C241 1.339 . S
C243 C242 1.395 . S
C243 H269 0.929 . S
C244 C242 1.320 . S
C244 C245 1.405 . S
C244 H270 0.930 . S
C245 C240 1.479 . S
C245 C244 1.405 . S
C245 H271 0.931 . S
U246 O247 2.454 . S
U246 O248 2.458 . S
U246 C249 2.984 . S
U246 C250 2.847 . S
U246 C263 2.882 . S
U246 O264 2.441 . S
U246 O265 2.420 . S
U246 O266 2.455 . S
U246 O267 2.449 . S
O247 U246 2.454 . S
O247 C249 1.353 . S
O248 U246 2.458 . S
O248 C249 1.286 . S
C249 U246 2.984 . S
C249 O247 1.353 . S
C249 O248 1.286 . S
C249 C251 1.363 . S
C250 C240 1.465 . S
C250 U246 2.847 . S
C250 O264 1.249 . S
C250 O265 1.202 . S
C251 C249 1.363 . S
C251 C253 1.408 . S
C251 C256 1.342 . S
C252 C253 1.310 . S
C252 C255 1.461 . S
C252 H272 0.932 . S
C253 C251 1.408 . S
C253 C252 1.310 . S
C253 H273 0.930 . S
C254 C255 1.474 . S
C254 C256 1.285 . S
C254 H274 0.929 . S
C255 C252 1.461 . S
C255 C254 1.474 . S
C256 C251 1.342 . S
C256 C254 1.285 . S
C256 H275 0.930 . S
C257 C260 1.424 . S
C257 C262 1.245 . S
C257 C263 1.428 . S
C258 C261 1.260 . S
C258 C262 1.477 . S
C258 H276 0.932 . S
C259 C260 1.384 . S
C259 C261 1.479 . S
C259 H277 0.929 . S
C260 C257 1.424 . S
C260 C259 1.384 . S
C260 H278 0.928 . S
C261 C258 1.260 . S
C261 C259 1.479 . S
C262 C257 1.245 . S
C262 C258 1.477 . S
C262 H279 0.932 . S
C263 U246 2.882 . S
C263 C257 1.428 . S
C263 O266 1.301 . S
C263 O267 1.282 . S
O264 U246 2.441 . S
O264 C250 1.249 . S
O265 U246 2.420 . S
O265 C250 1.202 . S
O266 U246 2.455 . S
O266 C263 1.301 . S
O267 U246 2.449 . S
O267 C263 1.282 . S
H268 C241 0.931 . S
H269 C243 0.929 . S
H270 C244 0.930 . S
H271 C245 0.931 . S
H272 C252 0.932 . S
H273 C253 0.930 . S
H274 C254 0.929 . S
H275 C256 0.930 . S
H276 C258 0.932 . S
H277 C259 0.929 . S
H278 C260 0.928 . S
H279 C262 0.932 . S
C280 C281 1.264 . S
C280 C285 1.479 . S
C280 C290 1.465 . S
C281 C280 1.264 . S
C281 C283 1.339 . S
C281 H308 0.931 . S
C282 C283 1.395 . S
C282 C284 1.320 . S
C283 C281 1.339 . S
C283 C282 1.395 . S
C283 H309 0.929 . S
C284 C282 1.320 . S
C284 C285 1.405 . S
C284 H310 0.930 . S
C285 C280 1.479 . S
C285 C284 1.405 . S
C285 H311 0.931 . S
U286 O287 2.454 . S
U286 O288 2.458 . S
U286 C289 2.984 . S
U286 C290 2.847 . S
U286 C303 2.882 . S
U286 O304 2.441 . S
U286 O305 2.420 . S
U286 O306 2.455 . S
U286 O307 2.449 . S
O287 U286 2.454 . S
O287 C289 1.353 . S
O288 U286 2.458 . S
O288 C289 1.286 . S
C289 U286 2.984 . S
C289 O287 1.353 . S
C289 O288 1.286 . S
C289 C291 1.363 . S
C290 C280 1.465 . S
C290 U286 2.847 . S
C290 O304 1.249 . S
C290 O305 1.202 . S
C291 C289 1.363 . S
C291 C293 1.408 . S
C291 C296 1.342 . S
C292 C293 1.310 . S
C292 C295 1.461 . S
C292 H312 0.932 . S
C293 C291 1.408 . S
C293 C292 1.310 . S
C293 H313 0.930 . S
C294 C295 1.474 . S
C294 C296 1.285 . S
C294 H314 0.929 . S
C295 C292 1.461 . S
C295 C294 1.474 . S
C296 C291 1.342 . S
C296 C294 1.285 . S
C296 H315 0.930 . S
C297 C300 1.424 . S
C297 C302 1.245 . S
C297 C303 1.428 . S
C298 C301 1.260 . S
C298 C302 1.477 . S
C298 H316 0.932 . S
C299 C300 1.384 . S
C299 C301 1.479 . S
C299 H317 0.929 . S
C300 C297 1.424 . S
C300 C299 1.384 . S
C300 H318 0.928 . S
C301 C298 1.260 . S
C301 C299 1.479 . S
C302 C297 1.245 . S
C302 C298 1.477 . S
C302 H319 0.932 . S
C303 U286 2.882 . S
C303 C297 1.428 . S
C303 O306 1.301 . S
C303 O307 1.282 . S
O304 U286 2.441 . S
O304 C290 1.249 . S
O305 U286 2.420 . S
O305 C290 1.202 . S
O306 U286 2.455 . S
O306 C303 1.301 . S
O307 U286 2.449 . S
O307 C303 1.282 . S
H308 C281 0.931 . S
H309 C283 0.929 . S
H310 C284 0.930 . S
H311 C285 0.931 . S
H312 C292 0.932 . S
H313 C293 0.930 . S
H314 C294 0.929 . S
H315 C296 0.930 . S
H316 C298 0.932 . S
H317 C299 0.929 . S
H318 C300 0.928 . S
H319 C302 0.932 . S
Eu320 N349 2.600 . S
Eu320 N355 2.562 . S
Eu320 O364 2.462 . S
Eu320 O365 2.373 . S
Eu320 O367 2.432 . S
Eu320 O368 2.291 . S
Eu320 O372 2.335 . S
Eu320 O375 2.372 . S
Eu320 C384 2.787 . S
C321 N322 1.365 . S
C321 C324 1.405 . S
C321 C328 1.448 . S
N322 C321 1.365 . S
N322 C325 1.319 . S
N322 Eu331 2.600 . S
C323 C325 1.397 . S
C323 C326 1.367 . S
C323 H343 0.931 . S
C324 C321 1.405 . S
C324 C326 1.403 . S
C324 C330 1.439 . S
C325 N322 1.319 . S
C325 C323 1.397 . S
C325 H336 0.930 . S
C326 C323 1.367 . S
C326 C324 1.403 . S
C326 H347 0.929 . S
C327 C328 1.430 . S
C327 C329 1.387 . S
C327 C333 1.404 . S
C328 C321 1.448 . S
C328 C327 1.430 . S
C328 N332 1.351 . S
C329 C327 1.387 . S
C329 C330 1.374 . S
C329 H344 0.931 . S
C330 C324 1.439 . S
C330 C329 1.374 . S
C330 H345 0.931 . S
Eu331 N322 2.600 . S
Eu331 N332 2.562 . S
Eu331 O366 2.347 . S
Eu331 O369 2.372 . S
Eu331 O370 2.462 . S
Eu331 O371 2.373 . S
Eu331 O373 2.432 . S
Eu331 O374 2.267 1_655 S
Eu331 C395 2.787 . S
N332 C328 1.351 . S
N332 Eu331 2.562 . S
N332 C334 1.325 . S
C333 C327 1.404 . S
C333 C335 1.366 . S
C333 H341 0.930 . S
C334 N332 1.325 . S
C334 C335 1.416 . S
C334 H340 0.929 . S
C335 C333 1.366 . S
C335 C334 1.416 . S
C335 H337 0.930 . S
H336 C325 0.930 . S
H337 C335 0.930 . S
H338 C353 0.930 . S
H339 C360 0.930 . S
H340 C334 0.929 . S
H341 C333 0.930 . S
H342 C356 0.929 . S
H343 C323 0.931 . S
H344 C329 0.931 . S
H345 C330 0.931 . S
H346 C351 0.931 . S
H347 C326 0.929 . S
H348 C359 0.930 . S
N349 Eu320 2.600 . S
N349 C350 1.365 . S
N349 C353 1.319 . S
C350 N349 1.365 . S
C350 C352 1.405 . S
C350 C358 1.448 . S
C351 H346 0.931 . S
C351 C353 1.397 . S
C351 C354 1.367 . S
C352 C350 1.405 . S
C352 C354 1.403 . S
C352 C385 1.439 . S
C353 H338 0.930 . S
C353 N349 1.319 . S
C353 C351 1.397 . S
C354 C351 1.367 . S
C354 C352 1.403 . S
C354 H361 0.929 . S
N355 Eu320 2.562 . S
N355 C356 1.325 . S
N355 C358 1.351 . S
C356 H342 0.929 . S
C356 N355 1.325 . S
C356 C360 1.416 . S
C357 C358 1.430 . S
C357 C359 1.404 . S
C357 C386 1.387 . S
C358 C350 1.448 . S
C358 N355 1.351 . S
C358 C357 1.430 . S
C359 H348 0.930 . S
C359 C357 1.404 . S
C359 C360 1.366 . S
C360 H339 0.930 . S
C360 C356 1.416 . S
C360 C359 1.366 . S
H361 C354 0.929 . S
H362 C385 0.931 . S
H363 C386 0.931 . S
O364 Eu320 2.462 . S
O364 C384 1.252 . S
O365 Eu320 2.373 . S
O365 C376 1.249 . S
O366 Eu331 2.347 . S
O366 C376 1.248 1_655 S
O367 Eu320 2.432 . S
O367 C384 1.268 . S
O368 Eu320 2.291 . S
O368 C383 1.255 1_455 S
O369 Eu331 2.372 . S
O369 C383 1.257 . S
O370 Eu331 2.462 . S
O370 C395 1.252 . S
O371 Eu331 2.373 . S
O371 C387 1.249 . S
O372 Eu320 2.335 . S
O372 C387 1.264 1_455 S
O373 Eu331 2.432 . S
O373 C395 1.268 . S
O374 Eu331 2.267 1_455 S
O374 C394 1.284 . S
O375 Eu320 2.372 . S
O375 C394 1.257 . S
C376 O365 1.249 . S
C376 O366 1.248 1_455 S
C377 C380 1.382 . S
C377 C382 1.390 . S
C377 C384 1.506 . S
C378 C379 1.398 . S
C378 C382 1.392 . S
C379 C378 1.398 . S
C379 C381 1.372 . S
C379 H396 0.931 . S
C380 C377 1.382 . S
C380 C381 1.390 . S
C380 H397 0.931 . S
C381 C379 1.372 . S
C381 C380 1.390 . S
C381 H398 0.929 . S
C382 C377 1.390 . S
C382 C378 1.392 . S
C382 H399 0.930 . S
C383 O368 1.255 1_655 S
C383 O369 1.257 . S
C384 Eu320 2.787 . S
C384 O364 1.252 . S
C384 O367 1.268 . S
C384 C377 1.506 . S
C385 C352 1.439 . S
C385 H362 0.931 . S
C385 C386 1.374 . S
C386 C357 1.387 . S
C386 H363 0.931 . S
C386 C385 1.374 . S
C387 O371 1.249 . S
C387 O372 1.264 1_655 S
C388 C391 1.382 . S
C388 C392 1.390 . S
C388 C395 1.506 . S
C389 C390 1.398 . S
C389 C392 1.392 . S
C390 C389 1.398 . S
C390 C393 1.372 . S
C390 H400 0.931 . S
C391 C388 1.382 . S
C391 C393 1.390 . S
C391 H401 0.931 . S
C392 C388 1.390 . S
C392 C389 1.392 . S
C392 H402 0.930 . S
C393 C390 1.372 . S
C393 C391 1.390 . S
C393 H403 0.929 . S
C394 O374 1.284 . S
C394 O375 1.257 . S
C395 Eu331 2.787 . S
C395 O370 1.252 . S
C395 O373 1.268 . S
C395 C388 1.506 . S
H396 C379 0.931 . S
H397 C380 0.931 . S
H398 C381 0.929 . S
H399 C382 0.930 . S
H400 C390 0.931 . S
H401 C391 0.931 . S
H402 C392 0.930 . S
H403 C393 0.929 . S
Eu404 N433 2.600 . S
Eu404 N439 2.562 . S
Eu404 O448 2.462 . S
Eu404 O449 2.373 . S
Eu404 O451 2.432 . S
Eu404 O452 2.291 . S
Eu404 O456 2.335 . S
Eu404 O459 2.372 . S
Eu404 C468 2.787 . S
C405 N406 1.365 . S
C405 C408 1.405 . S
C405 C412 1.448 . S
N406 C405 1.365 . S
N406 C409 1.319 . S
N406 Eu415 2.600 . S
C407 C409 1.397 . S
C407 C410 1.367 . S
C407 H427 0.931 . S
C408 C405 1.405 . S
C408 C410 1.403 . S
C408 C414 1.439 . S
C409 N406 1.319 . S
C409 C407 1.397 . S
C409 H420 0.930 . S
C410 C407 1.367 . S
C410 C408 1.403 . S
C410 H431 0.929 . S
C411 C412 1.430 . S
C411 C413 1.387 . S
C411 C417 1.404 . S
C412 C405 1.448 . S
C412 C411 1.430 . S
C412 N416 1.351 . S
C413 C411 1.387 . S
C413 C414 1.374 . S
C413 H428 0.931 . S
C414 C408 1.439 . S
C414 C413 1.374 . S
C414 H429 0.931 . S
Eu415 N406 2.600 . S
Eu415 N416 2.562 . S
Eu415 O450 2.335 . S
Eu415 O453 2.372 . S
Eu415 O454 2.462 . S
Eu415 O455 2.373 . S
Eu415 O457 2.432 . S
Eu415 O458 2.291 . S
Eu415 C479 2.787 . S
N416 C412 1.351 . S
N416 Eu415 2.562 . S
N416 C418 1.325 . S
C417 C411 1.404 . S
C417 C419 1.366 . S
C417 H425 0.930 . S
C418 N416 1.325 . S
C418 C419 1.416 . S
C418 H424 0.929 . S
C419 C417 1.366 . S
C419 C418 1.416 . S
C419 H421 0.930 . S
H420 C409 0.930 . S
H421 C419 0.930 . S
H422 C437 0.930 . S
H423 C444 0.930 . S
H424 C418 0.929 . S
H425 C417 0.930 . S
H426 C440 0.929 . S
H427 C407 0.931 . S
H428 C413 0.931 . S
H429 C414 0.931 . S
H430 C435 0.931 . S
H431 C410 0.929 . S
H432 C443 0.930 . S
N433 Eu404 2.600 . S
N433 C434 1.365 . S
N433 C437 1.319 . S
C434 N433 1.365 . S
C434 C436 1.405 . S
C434 C442 1.448 . S
C435 H430 0.931 . S
C435 C437 1.397 . S
C435 C438 1.367 . S
C436 C434 1.405 . S
C436 C438 1.403 . S
C436 C469 1.439 . S
C437 H422 0.930 . S
C437 N433 1.319 . S
C437 C435 1.397 . S
C438 C435 1.367 . S
C438 C436 1.403 . S
C438 H445 0.929 . S
N439 Eu404 2.562 . S
N439 C440 1.325 . S
N439 C442 1.351 . S
C440 H426 0.929 . S
C440 N439 1.325 . S
C440 C444 1.416 . S
C441 C442 1.430 . S
C441 C443 1.404 . S
C441 C470 1.387 . S
C442 C434 1.448 . S
C442 N439 1.351 . S
C442 C441 1.430 . S
C443 H432 0.930 . S
C443 C441 1.404 . S
C443 C444 1.366 . S
C444 H423 0.930 . S
C444 C440 1.416 . S
C444 C443 1.366 . S
H445 C438 0.929 . S
H446 C469 0.931 . S
H447 C470 0.931 . S
O448 Eu404 2.462 . S
O448 C468 1.252 . S
O449 Eu404 2.373 . S
O449 C460 1.249 . S
O450 Eu415 2.335 . S
O450 C460 1.264 . S
O451 Eu404 2.432 . S
O451 C468 1.268 . S
O452 Eu404 2.291 . S
O452 C467 1.255 . S
O453 Eu415 2.372 . S
O453 C467 1.257 . S
O454 Eu415 2.462 . S
O454 C479 1.252 . S
O455 Eu415 2.373 . S
O455 C471 1.249 . S
O456 Eu404 2.335 . S
O456 C471 1.264 . S
O457 Eu415 2.432 . S
O457 C479 1.268 . S
O458 Eu415 2.291 . S
O458 C478 1.255 . S
O459 Eu404 2.372 . S
O459 C478 1.257 . S
C460 O449 1.249 . S
C460 O450 1.264 . S
C461 C464 1.382 . S
C461 C466 1.390 . S
C461 C468 1.506 . S
C462 C463 1.398 . S
C462 C466 1.392 . S
C463 C462 1.398 . S
C463 C465 1.372 . S
C463 H480 0.931 . S
C464 C461 1.382 . S
C464 C465 1.390 . S
C464 H481 0.931 . S
C465 C463 1.372 . S
C465 C464 1.390 . S
C465 H482 0.929 . S
C466 C461 1.390 . S
C466 C462 1.392 . S
C466 H483 0.930 . S
C467 O452 1.255 . S
C467 O453 1.257 . S
C468 Eu404 2.787 . S
C468 O448 1.252 . S
C468 O451 1.268 . S
C468 C461 1.506 . S
C469 C436 1.439 . S
C469 H446 0.931 . S
C469 C470 1.374 . S
C470 C441 1.387 . S
C470 H447 0.931 . S
C470 C469 1.374 . S
C471 O455 1.249 . S
C471 O456 1.264 . S
C472 C475 1.382 . S
C472 C476 1.390 . S
C472 C479 1.506 . S
C473 C474 1.398 . S
C473 C476 1.392 . S
C474 C473 1.398 . S
C474 C477 1.372 . S
C474 H484 0.931 . S
C475 C472 1.382 . S
C475 C477 1.390 . S
C475 H485 0.931 . S
C476 C472 1.390 . S
C476 C473 1.392 . S
C476 H486 0.930 . S
C477 C474 1.372 . S
C477 C475 1.390 . S
C477 H487 0.929 . S
C478 O458 1.255 . S
C478 O459 1.257 . S
C479 Eu415 2.787 . S
C479 O454 1.252 . S
C479 O457 1.268 . S
C479 C472 1.506 . S
H480 C463 0.931 . S
H481 C464 0.931 . S
H482 C465 0.929 . S
H483 C466 0.930 . S
H484 C474 0.931 . S
H485 C475 0.931 . S
H486 C476 0.930 . S
H487 C477 0.929 . S
Eu488 N517 2.600 . S
Eu488 N523 2.562 . S
Eu488 O532 2.462 . S
Eu488 O533 2.373 . S
Eu488 O535 2.432 . S
Eu488 O536 2.291 . S
Eu488 O540 2.335 . S
Eu488 O543 2.372 . S
Eu488 C552 2.787 . S
C489 N490 1.365 . S
C489 C492 1.405 . S
C489 C496 1.448 . S
N490 C489 1.365 . S
N490 C493 1.319 . S
N490 Eu499 2.600 . S
C491 C493 1.397 . S
C491 C494 1.367 . S
C491 H511 0.931 . S
C492 C489 1.405 . S
C492 C494 1.403 . S
C492 C498 1.439 . S
C493 N490 1.319 . S
C493 C491 1.397 . S
C493 H504 0.930 . S
C494 C491 1.367 . S
C494 C492 1.403 . S
C494 H515 0.929 . S
C495 C496 1.430 . S
C495 C497 1.387 . S
C495 C501 1.404 . S
C496 C489 1.448 . S
C496 C495 1.430 . S
C496 N500 1.351 . S
C497 C495 1.387 . S
C497 C498 1.374 . S
C497 H512 0.931 . S
C498 C492 1.439 . S
C498 C497 1.374 . S
C498 H513 0.931 . S
Eu499 N490 2.600 . S
Eu499 N500 2.562 . S
Eu499 O534 2.335 1_655 S
Eu499 O537 2.372 . S
Eu499 O538 2.462 . S
Eu499 O539 2.373 . S
Eu499 O541 2.432 . S
Eu499 O542 2.291 1_655 S
Eu499 C563 2.787 . S
N500 C496 1.351 . S
N500 Eu499 2.562 . S
N500 C502 1.325 . S
C501 C495 1.404 . S
C501 C503 1.366 . S
C501 H509 0.930 . S
C502 N500 1.325 . S
C502 C503 1.416 . S
C502 H508 0.929 . S
C503 C501 1.366 . S
C503 C502 1.416 . S
C503 H505 0.930 . S
H504 C493 0.930 . S
H505 C503 0.930 . S
H506 C521 0.930 . S
H507 C528 0.930 . S
H508 C502 0.929 . S
H509 C501 0.930 . S
H510 C524 0.929 . S
H511 C491 0.931 . S
H512 C497 0.931 . S
H513 C498 0.931 . S
H514 C519 0.931 . S
H515 C494 0.929 . S
H516 C527 0.930 . S
N517 Eu488 2.600 . S
N517 C518 1.365 . S
N517 C521 1.319 . S
C518 N517 1.365 . S
C518 C520 1.405 . S
C518 C526 1.448 . S
C519 H514 0.931 . S
C519 C521 1.397 . S
C519 C522 1.367 . S
C520 C518 1.405 . S
C520 C522 1.403 . S
C520 C553 1.439 . S
C521 H506 0.930 . S
C521 N517 1.319 . S
C521 C519 1.397 . S
C522 C519 1.367 . S
C522 C520 1.403 . S
C522 H529 0.929 . S
N523 Eu488 2.562 . S
N523 C524 1.325 . S
N523 C526 1.351 . S
C524 H510 0.929 . S
C524 N523 1.325 . S
C524 C528 1.416 . S
C525 C526 1.430 . S
C525 C527 1.404 . S
C525 C554 1.387 . S
C526 C518 1.448 . S
C526 N523 1.351 . S
C526 C525 1.430 . S
C527 H516 0.930 . S
C527 C525 1.404 . S
C527 C528 1.366 . S
C528 H507 0.930 . S
C528 C524 1.416 . S
C528 C527 1.366 . S
H529 C522 0.929 . S
H530 C553 0.931 . S
H531 C554 0.931 . S
O532 Eu488 2.462 . S
O532 C552 1.252 . S
O533 Eu488 2.373 . S
O533 C544 1.249 . S
O534 Eu499 2.335 1_455 S
O534 C544 1.264 . S
O535 Eu488 2.432 . S
O535 C552 1.268 . S
O536 Eu488 2.291 . S
O536 C551 1.255 1_455 S
O537 Eu499 2.372 . S
O537 C551 1.257 . S
O538 Eu499 2.462 . S
O538 C563 1.252 . S
O539 Eu499 2.373 . S
O539 C555 1.249 . S
O540 Eu488 2.335 . S
O540 C555 1.264 1_455 S
O541 Eu499 2.432 . S
O541 C563 1.268 . S
O542 Eu499 2.291 1_455 S
O542 C562 1.255 . S
O543 Eu488 2.372 . S
O543 C562 1.257 . S
C544 O533 1.249 . S
C544 O534 1.264 . S
C545 C548 1.382 . S
C545 C550 1.390 . S
C545 C552 1.506 . S
C546 C547 1.398 . S
C546 C550 1.392 . S
C547 C546 1.398 . S
C547 C549 1.372 . S
C547 H564 0.931 . S
C548 C545 1.382 . S
C548 C549 1.390 . S
C548 H565 0.931 . S
C549 C547 1.372 . S
C549 C548 1.390 . S
C549 H566 0.929 . S
C550 C545 1.390 . S
C550 C546 1.392 . S
C550 H567 0.930 . S
C551 O536 1.255 1_655 S
C551 O537 1.257 . S
C552 Eu488 2.787 . S
C552 O532 1.252 . S
C552 O535 1.268 . S
C552 C545 1.506 . S
C553 C520 1.439 . S
C553 H530 0.931 . S
C553 C554 1.374 . S
C554 C525 1.387 . S
C554 H531 0.931 . S
C554 C553 1.374 . S
C555 O539 1.249 . S
C555 O540 1.264 1_655 S
C556 C559 1.382 . S
C556 C560 1.390 . S
C556 C563 1.506 . S
C557 C558 1.398 . S
C557 C560 1.392 . S
C558 C557 1.398 . S
C558 C561 1.372 . S
C558 H568 0.931 . S
C559 C556 1.382 . S
C559 C561 1.390 . S
C559 H569 0.931 . S
C560 C556 1.390 . S
C560 C557 1.392 . S
C560 H570 0.930 . S
C561 C558 1.372 . S
C561 C559 1.390 . S
C561 H571 0.929 . S
C562 O542 1.255 . S
C562 O543 1.257 . S
C563 Eu499 2.787 . S
C563 O538 1.252 . S
C563 O541 1.268 . S
C563 C556 1.506 . S
H564 C547 0.931 . S
H565 C548 0.931 . S
H566 C549 0.929 . S
H567 C550 0.930 . S
H568 C558 0.931 . S
H569 C559 0.931 . S
H570 C560 0.930 . S
H571 C561 0.929 . S
Eu572 N601 2.600 . S
Eu572 N607 2.562 . S
Eu572 O616 2.462 . S
Eu572 O617 2.373 . S
Eu572 O619 2.432 . S
Eu572 O620 2.291 . S
Eu572 O624 2.335 . S
Eu572 O627 2.372 . S
Eu572 C636 2.787 . S
C573 N574 1.365 . S
C573 C576 1.405 . S
C573 C580 1.448 . S
N574 C573 1.365 . S
N574 C577 1.319 . S
N574 Eu583 2.600 . S
C575 C577 1.397 . S
C575 C578 1.367 . S
C575 H595 0.931 . S
C576 C573 1.405 . S
C576 C578 1.403 . S
C576 C582 1.439 . S
C577 N574 1.319 . S
C577 C575 1.397 . S
C577 H588 0.930 . S
C578 C575 1.367 . S
C578 C576 1.403 . S
C578 H599 0.929 . S
C579 C580 1.430 . S
C579 C581 1.387 . S
C579 C585 1.404 . S
C580 C573 1.448 . S
C580 C579 1.430 . S
C580 N584 1.351 . S
C581 C579 1.387 . S
C581 C582 1.374 . S
C581 H596 0.931 . S
C582 C576 1.439 . S
C582 C581 1.374 . S
C582 H597 0.931 . S
Eu583 N574 2.600 . S
Eu583 N584 2.562 . S
Eu583 O618 2.335 . S
Eu583 O621 2.372 . S
Eu583 O622 2.462 . S
Eu583 O623 2.373 . S
Eu583 O625 2.432 . S
Eu583 O626 2.291 . S
Eu583 C647 2.787 . S
N584 C580 1.351 . S
N584 Eu583 2.562 . S
N584 C586 1.325 . S
C585 C579 1.404 . S
C585 C587 1.366 . S
C585 H593 0.930 . S
C586 N584 1.325 . S
C586 C587 1.416 . S
C586 H592 0.929 . S
C587 C585 1.366 . S
C587 C586 1.416 . S
C587 H589 0.930 . S
H588 C577 0.930 . S
H589 C587 0.930 . S
H590 C605 0.930 . S
H591 C612 0.930 . S
H592 C586 0.929 . S
H593 C585 0.930 . S
H594 C608 0.929 . S
H595 C575 0.931 . S
H596 C581 0.931 . S
H597 C582 0.931 . S
H598 C603 0.931 . S
H599 C578 0.929 . S
H600 C611 0.930 . S
N601 Eu572 2.600 . S
N601 C602 1.365 . S
N601 C605 1.319 . S
C602 N601 1.365 . S
C602 C604 1.405 . S
C602 C610 1.448 . S
C603 H598 0.931 . S
C603 C605 1.397 . S
C603 C606 1.367 . S
C604 C602 1.405 . S
C604 C606 1.403 . S
C604 C637 1.439 . S
C605 H590 0.930 . S
C605 N601 1.319 . S
C605 C603 1.397 . S
C606 C603 1.367 . S
C606 C604 1.403 . S
C606 H613 0.929 . S
N607 Eu572 2.562 . S
N607 C608 1.325 . S
N607 C610 1.351 . S
C608 H594 0.929 . S
C608 N607 1.325 . S
C608 C612 1.416 . S
C609 C610 1.430 . S
C609 C611 1.404 . S
C609 C638 1.387 . S
C610 C602 1.448 . S
C610 N607 1.351 . S
C610 C609 1.430 . S
C611 H600 0.930 . S
C611 C609 1.404 . S
C611 C612 1.366 . S
C612 H591 0.930 . S
C612 C608 1.416 . S
C612 C611 1.366 . S
H613 C606 0.929 . S
H614 C637 0.931 . S
H615 C638 0.931 . S
O616 Eu572 2.462 . S
O616 C636 1.252 . S
O617 Eu572 2.373 . S
O617 C628 1.249 . S
O618 Eu583 2.335 . S
O618 C628 1.264 . S
O619 Eu572 2.432 . S
O619 C636 1.268 . S
O620 Eu572 2.291 . S
O620 C635 1.255 . S
O621 Eu583 2.372 . S
O621 C635 1.257 . S
O622 Eu583 2.462 . S
O622 C647 1.252 . S
O623 Eu583 2.373 . S
O623 C639 1.249 . S
O624 Eu572 2.335 . S
O624 C639 1.264 . S
O625 Eu583 2.432 . S
O625 C647 1.268 . S
O626 Eu583 2.291 . S
O626 C646 1.255 . S
O627 Eu572 2.372 . S
O627 C646 1.257 . S
C628 O617 1.249 . S
C628 O618 1.264 . S
C629 C632 1.382 . S
C629 C634 1.390 . S
C629 C636 1.506 . S
C630 C631 1.398 . S
C630 C634 1.392 . S
C631 C630 1.398 . S
C631 C633 1.372 . S
C631 H648 0.931 . S
C632 C629 1.382 . S
C632 C633 1.390 . S
C632 H649 0.931 . S
C633 C631 1.372 . S
C633 C632 1.390 . S
C633 H650 0.929 . S
C634 C629 1.390 . S
C634 C630 1.392 . S
C634 H651 0.930 . S
C635 O620 1.255 . S
C635 O621 1.257 . S
C636 Eu572 2.787 . S
C636 O616 1.252 . S
C636 O619 1.268 . S
C636 C629 1.506 . S
C637 C604 1.439 . S
C637 H614 0.931 . S
C637 C638 1.374 . S
C638 C609 1.387 . S
C638 H615 0.931 . S
C638 C637 1.374 . S
C639 O623 1.249 . S
C639 O624 1.264 . S
C640 C643 1.382 . S
C640 C644 1.390 . S
C640 C647 1.506 . S
C641 C642 1.398 . S
C641 C644 1.392 . S
C642 C641 1.398 . S
C642 C645 1.372 . S
C642 H652 0.931 . S
C643 C640 1.382 . S
C643 C645 1.390 . S
C643 H653 0.931 . S
C644 C640 1.390 . S
C644 C641 1.392 . S
C644 H654 0.930 . S
C645 C642 1.372 . S
C645 C643 1.390 . S
C645 H655 0.929 . S
C646 O626 1.255 . S
C646 O627 1.257 . S
C647 Eu583 2.787 . S
C647 O622 1.252 . S
C647 O625 1.268 . S
C647 C640 1.506 . S
H648 C631 0.931 . S
H649 C632 0.931 . S
H650 C633 0.929 . S
H651 C634 0.930 . S
H652 C642 0.931 . S
H653 C643 0.931 . S
H654 C644 0.930 . S
H655 C645 0.929 . S
H656 C674 0.951 . S
H657 C676 0.951 . S
H658 C678 0.950 . S
H659 C679 0.950 . S
H660 C681 0.950 . S
H661 C684 0.950 . S
H662 C685 0.950 . S
H663 C687 0.950 . S
H664 C688 0.950 . S
H665 C689 0.951 . S
H666 C691 0.951 . S
H667 C693 0.950 . S
H668 C694 0.950 . S
H669 C696 0.950 . S
H670 C699 0.950 . S
H671 C700 0.950 . S
H672 C702 0.950 1_565 S
H673 C703 0.950 . S
C674 H656 0.951 . S
C674 C675 1.366 . S
C674 C676 1.388 1_565 S
C675 C674 1.366 . S
C675 C679 1.385 . S
C676 H657 0.951 . S
C676 C674 1.388 1_545 S
C676 C677 1.366 . S
C677 C676 1.366 . S
C677 C678 1.414 1_545 S
C677 C680 1.499 . S
C678 H658 0.950 . S
C678 C677 1.414 1_565 S
C678 C679 1.374 . S
C679 H659 0.950 . S
C679 C675 1.385 . S
C679 C678 1.374 . S
C680 C677 1.499 . S
C680 C681 1.373 . S
C680 C682 1.389 . S
C681 H660 0.950 . S
C681 C680 1.373 . S
C681 C697 1.377 . S
C682 C680 1.389 . S
C682 C683 1.524 . S
C682 C696 1.377 . S
C683 C682 1.524 . S
C683 C684 1.397 . S
C683 C688 1.363 . S
C684 H661 0.950 . S
C684 C683 1.397 . S
C684 C685 1.334 . S
C685 H662 0.950 . S
C685 C684 1.334 . S
C685 C686 1.287 . S
C686 C685 1.287 . S
C686 C687 1.524 . S
C686 H705 0.913 . S
C687 H663 0.950 . S
C687 C686 1.524 . S
C687 C688 1.415 . S
C688 H664 0.950 . S
C688 C683 1.363 . S
C688 C687 1.415 . S
C689 H665 0.951 . S
C689 C690 1.366 . S
C689 C691 1.388 . S
C690 C689 1.366 . S
C690 C694 1.385 . S
C691 H666 0.951 . S
C691 C689 1.388 . S
C691 C692 1.366 . S
C692 C691 1.366 . S
C692 C693 1.414 . S
C692 C695 1.499 . S
C693 H667 0.950 . S
C693 C692 1.414 . S
C693 C694 1.374 . S
C694 H668 0.950 . S
C694 C690 1.385 . S
C694 C693 1.374 . S
C695 C692 1.499 . S
C695 C696 1.373 . S
C695 C697 1.389 . S
C696 H669 0.950 . S
C696 C682 1.377 . S
C696 C695 1.373 . S
C697 C681 1.377 . S
C697 C695 1.389 . S
C697 C698 1.524 . S
C698 C697 1.524 . S
C698 C699 1.397 . S
C698 C703 1.363 . S
C699 H670 0.950 . S
C699 C698 1.397 . S
C699 C700 1.334 . S
C700 H671 0.950 . S
C700 C699 1.334 . S
C700 C701 1.287 . S
C701 C700 1.287 . S
C701 C702 1.524 . S
C701 H704 0.999 . S
C702 H672 0.950 1_545 S
C702 C701 1.524 . S
C702 C703 1.415 . S
C703 H673 0.950 . S
C703 C698 1.363 . S
C703 C702 1.415 . S
H704 C701 0.999 . S
H705 C686 0.913 . S
H706 C724 0.951 . S
H707 C726 0.951 . S
H708 C728 0.950 . S
H709 C729 0.950 . S
H710 C731 0.950 . S
H711 C734 0.950 . S
H712 C735 0.950 . S
H713 C737 0.950 . S
H714 C738 0.950 . S
H715 C739 0.951 . S
H716 C741 0.951 . S
H717 C743 0.950 . S
H718 C744 0.950 . S
H719 C746 0.950 . S
H720 C749 0.950 . S
H721 C750 0.950 . S
H722 C752 0.950 . S
H723 C753 0.950 . S
C724 H706 0.951 . S
C724 C725 1.366 . S
C724 C726 1.388 . S
C725 C724 1.366 . S
C725 C729 1.385 . S
C726 H707 0.951 . S
C726 C724 1.388 . S
C726 C727 1.366 . S
C727 C726 1.366 . S
C727 C728 1.414 . S
C727 C730 1.499 . S
C728 H708 0.950 . S
C728 C727 1.414 . S
C728 C729 1.374 . S
C729 H709 0.950 . S
C729 C725 1.385 . S
C729 C728 1.374 . S
C730 C727 1.499 . S
C730 C731 1.373 . S
C730 C732 1.389 . S
C731 H710 0.950 . S
C731 C730 1.373 . S
C731 C747 1.377 . S
C732 C730 1.389 . S
C732 C733 1.524 . S
C732 C746 1.377 . S
C733 C732 1.524 . S
C733 C734 1.397 . S
C733 C738 1.363 . S
C734 H711 0.950 . S
C734 C733 1.397 . S
C734 C735 1.334 . S
C735 H712 0.950 . S
C735 C734 1.334 . S
C735 C736 1.287 . S
C736 C735 1.287 . S
C736 C737 1.524 . S
C736 H755 0.913 . S
C737 H713 0.950 . S
C737 C736 1.524 . S
C737 C738 1.415 . S
C738 H714 0.950 . S
C738 C733 1.363 . S
C738 C737 1.415 . S
C739 H715 0.951 . S
C739 C740 1.366 . S
C739 C741 1.388 . S
C740 C739 1.366 . S
C740 C744 1.385 . S
C741 H716 0.951 . S
C741 C739 1.388 . S
C741 C742 1.366 . S
C742 C741 1.366 . S
C742 C743 1.414 . S
C742 C745 1.499 . S
C743 H717 0.950 . S
C743 C742 1.414 . S
C743 C744 1.374 . S
C744 H718 0.950 . S
C744 C740 1.385 . S
C744 C743 1.374 . S
C745 C742 1.499 . S
C745 C746 1.373 . S
C745 C747 1.389 . S
C746 H719 0.950 . S
C746 C732 1.377 . S
C746 C745 1.373 . S
C747 C731 1.377 . S
C747 C745 1.389 . S
C747 C748 1.524 . S
C748 C747 1.524 . S
C748 C749 1.397 . S
C748 C753 1.363 . S
C749 H720 0.950 . S
C749 C748 1.397 . S
C749 C750 1.334 . S
C750 H721 0.950 . S
C750 C749 1.334 . S
C750 C751 1.287 . S
C751 C750 1.287 . S
C751 C752 1.524 . S
C751 H754 0.999 . S
C752 H722 0.950 . S
C752 C751 1.524 . S
C752 C753 1.415 . S
C753 H723 0.950 . S
C753 C748 1.363 . S
C753 C752 1.415 . S
H754 C751 0.999 . S
H755 C736 0.913 . S
H756 C774 0.951 . S
H757 C776 0.951 . S
H758 C778 0.950 . S
H759 C779 0.950 . S
H760 C781 0.950 . S
H761 C784 0.950 . S
H762 C785 0.950 . S
H763 C787 0.950 . S
H764 C788 0.950 . S
H765 C789 0.951 . S
H766 C791 0.951 . S
H767 C793 0.950 . S
H768 C794 0.950 . S
H769 C796 0.950 . S
H770 C799 0.950 . S
H771 C800 0.950 . S
H772 C802 0.950 . S
H773 C803 0.950 . S
C774 H756 0.951 . S
C774 C775 1.366 . S
C774 C776 1.388 . S
C775 C774 1.366 . S
C775 C779 1.385 . S
C776 H757 0.951 . S
C776 C774 1.388 . S
C776 C777 1.366 . S
C777 C776 1.366 . S
C777 C778 1.414 . S
C777 C780 1.499 . S
C778 H758 0.950 . S
C778 C777 1.414 . S
C778 C779 1.374 . S
C779 H759 0.950 . S
C779 C775 1.385 . S
C779 C778 1.374 . S
C780 C777 1.499 . S
C780 C781 1.373 . S
C780 C782 1.389 . S
C781 H760 0.950 . S
C781 C780 1.373 . S
C781 C797 1.377 . S
C782 C780 1.389 . S
C782 C783 1.524 . S
C782 C796 1.377 . S
C783 C782 1.524 . S
C783 C784 1.397 . S
C783 C788 1.363 . S
C784 H761 0.950 . S
C784 C783 1.397 . S
C784 C785 1.334 . S
C785 H762 0.950 . S
C785 C784 1.334 . S
C785 C786 1.287 . S
C786 C785 1.287 . S
C786 C787 1.524 . S
C786 H805 0.913 . S
C787 H763 0.950 . S
C787 C786 1.524 . S
C787 C788 1.415 . S
C788 H764 0.950 . S
C788 C783 1.363 . S
C788 C787 1.415 . S
C789 H765 0.951 . S
C789 C790 1.366 . S
C789 C791 1.388 . S
C790 C789 1.366 . S
C790 C794 1.385 . S
C791 H766 0.951 . S
C791 C789 1.388 . S
C791 C792 1.366 . S
C792 C791 1.366 . S
C792 C793 1.414 . S
C792 C795 1.499 . S
C793 H767 0.950 . S
C793 C792 1.414 . S
C793 C794 1.374 . S
C794 H768 0.950 . S
C794 C790 1.385 . S
C794 C793 1.374 . S
C795 C792 1.499 . S
C795 C796 1.373 . S
C795 C797 1.389 . S
C796 H769 0.950 . S
C796 C782 1.377 . S
C796 C795 1.373 . S
C797 C781 1.377 . S
C797 C795 1.389 . S
C797 C798 1.524 . S
C798 C797 1.524 . S
C798 C799 1.397 . S
C798 C803 1.363 . S
C799 H770 0.950 . S
C799 C798 1.397 . S
C799 C800 1.334 . S
C800 H771 0.950 . S
C800 C799 1.334 . S
C800 C801 1.287 . S
C801 C800 1.287 . S
C801 C802 1.524 . S
C801 H804 0.999 . S
C802 H772 0.950 . S
C802 C801 1.524 . S
C802 C803 1.415 . S
C803 H773 0.950 . S
C803 C798 1.363 . S
C803 C802 1.415 . S
H804 C801 0.999 . S
H805 C786 0.913 . S
H806 C824 0.951 . S
H807 C826 0.951 . S
H808 C828 0.950 . S
H809 C829 0.950 . S
H810 C831 0.950 . S
H811 C834 0.950 . S
H812 C835 0.950 . S
H813 C837 0.950 . S
H814 C838 0.950 1_545 S
H815 C839 0.951 . S
H816 C841 0.951 . S
H817 C843 0.950 . S
H818 C844 0.950 1_455 S
H819 C846 0.950 . S
H820 C849 0.950 . S
H821 C850 0.950 . S
H822 C852 0.950 . S
H823 C853 0.950 . S
C824 H806 0.951 . S
C824 C825 1.366 . S
C824 C826 1.388 . S
C825 C824 1.366 . S
C825 C829 1.385 . S
C826 H807 0.951 . S
C826 C824 1.388 . S
C826 C827 1.366 1_565 S
C827 C826 1.366 1_545 S
C827 C828 1.414 . S
C827 C830 1.499 . S
C828 H808 0.950 . S
C828 C827 1.414 . S
C828 C829 1.374 1_545 S
C829 H809 0.950 . S
C829 C825 1.385 . S
C829 C828 1.374 1_565 S
C830 C827 1.499 . S
C830 C831 1.373 . S
C830 C832 1.389 . S
C831 H810 0.950 . S
C831 C830 1.373 . S
C831 C847 1.377 . S
C832 C830 1.389 . S
C832 C833 1.524 1_545 S
C832 C846 1.377 . S
C833 C832 1.524 1_565 S
C833 C834 1.397 . S
C833 C838 1.363 . S
C834 H811 0.950 . S
C834 C833 1.397 . S
C834 C835 1.334 . S
C835 H812 0.950 . S
C835 C834 1.334 . S
C835 C836 1.287 . S
C836 C835 1.287 . S
C836 C837 1.524 . S
C836 H855 0.913 . S
C837 H813 0.950 . S
C837 C836 1.524 . S
C837 C838 1.415 . S
C838 H814 0.950 1_565 S
C838 C833 1.363 . S
C838 C837 1.415 . S
C839 H815 0.951 . S
C839 C840 1.366 . S
C839 C841 1.388 . S
C840 C839 1.366 . S
C840 C844 1.385 . S
C841 H816 0.951 . S
C841 C839 1.388 . S
C841 C842 1.366 . S
C842 C841 1.366 . S
C842 C843 1.414 . S
C842 C845 1.499 . S
C843 H817 0.950 . S
C843 C842 1.414 . S
C843 C844 1.374 . S
C844 H818 0.950 1_655 S
C844 C840 1.385 . S
C844 C843 1.374 . S
C845 C842 1.499 . S
C845 C846 1.373 . S
C845 C847 1.389 . S
C846 H819 0.950 . S
C846 C832 1.377 . S
C846 C845 1.373 . S
C847 C831 1.377 . S
C847 C845 1.389 . S
C847 C848 1.524 . S
C848 C847 1.524 . S
C848 C849 1.397 . S
C848 C853 1.363 . S
C849 H820 0.950 . S
C849 C848 1.397 . S
C849 C850 1.334 . S
C850 H821 0.950 . S
C850 C849 1.334 . S
C850 C851 1.287 . S
C851 C850 1.287 . S
C851 C852 1.524 . S
C851 H854 0.999 . S
C852 H822 0.950 . S
C852 C851 1.524 . S
C852 C853 1.415 . S
C853 H823 0.950 . S
C853 C848 1.363 . S
C853 C852 1.415 . S
H854 C851 0.999 . S
H855 C836 0.913 . S
H856 C874 0.951 . S
H857 C876 0.951 . S
H858 C878 0.950 . S
H859 C879 0.950 . S
H860 C881 0.950 . S
H861 C884 0.950 . S
H862 C885 0.950 . S
H863 C887 0.950 . S
H864 C888 0.950 . S
H865 C889 0.951 . S
H866 C891 0.951 . S
H867 C893 0.950 . S
H868 C894 0.950 . S
H869 C896 0.950 . S
H870 C899 0.950 . S
H871 C900 0.950 1_455 S
H872 C902 0.950 1_545 S
H873 C903 0.950 . S
C874 H856 0.951 . S
C874 C875 1.366 . S
C874 C876 1.388 1_545 S
C875 C874 1.366 . S
C875 C879 1.385 . S
C876 H857 0.951 . S
C876 C874 1.388 1_565 S
C876 C877 1.366 . S
C877 C876 1.366 . S
C877 C878 1.414 1_565 S
C877 C880 1.499 . S
C878 H858 0.950 . S
C878 C877 1.414 1_545 S
C878 C879 1.374 . S
C879 H859 0.950 . S
C879 C875 1.385 . S
C879 C878 1.374 . S
C880 C877 1.499 . S
C880 C881 1.373 . S
C880 C882 1.389 . S
C881 H860 0.950 . S
C881 C880 1.373 . S
C881 C897 1.377 . S
C882 C880 1.389 . S
C882 C883 1.524 . S
C882 C896 1.377 . S
C883 C882 1.524 . S
C883 C884 1.397 . S
C883 C888 1.363 . S
C884 H861 0.950 . S
C884 C883 1.397 . S
C884 C885 1.334 . S
C885 H862 0.950 . S
C885 C884 1.334 . S
C885 C886 1.287 . S
C886 C885 1.287 . S
C886 C887 1.524 . S
C886 H905 0.913 . S
C887 H863 0.950 . S
C887 C886 1.524 . S
C887 C888 1.415 . S
C888 H864 0.950 . S
C888 C883 1.363 . S
C888 C887 1.415 . S
C889 H865 0.951 . S
C889 C890 1.366 . S
C889 C891 1.388 . S
C890 C889 1.366 . S
C890 C894 1.385 . S
C891 H866 0.951 . S
C891 C889 1.388 . S
C891 C892 1.366 . S
C892 C891 1.366 . S
C892 C893 1.414 . S
C892 C895 1.499 . S
C893 H867 0.950 . S
C893 C892 1.414 . S
C893 C894 1.374 . S
C894 H868 0.950 . S
C894 C890 1.385 . S
C894 C893 1.374 . S
C895 C892 1.499 . S
C895 C896 1.373 . S
C895 C897 1.389 . S
C896 H869 0.950 . S
C896 C882 1.377 . S
C896 C895 1.373 . S
C897 C881 1.377 . S
C897 C895 1.389 . S
C897 C898 1.524 . S
C898 C897 1.524 . S
C898 C899 1.397 . S
C898 C903 1.363 . S
C899 H870 0.950 . S
C899 C898 1.397 . S
C899 C900 1.334 . S
C900 H871 0.950 1_655 S
C900 C899 1.334 . S
C900 C901 1.287 . S
C901 C900 1.287 . S
C901 C902 1.524 . S
C901 H904 0.999 . S
C902 H872 0.950 1_565 S
C902 C901 1.524 . S
C902 C903 1.415 . S
C903 H873 0.950 . S
C903 C898 1.363 . S
C903 C902 1.415 . S
H904 C901 0.999 . S
H905 C886 0.913 . S
H906 C924 0.951 . S
H907 C926 0.951 . S
H908 C928 0.950 . S
H909 C929 0.950 . S
H910 C931 0.950 . S
H911 C934 0.950 . S
H912 C935 0.950 . S
H913 C937 0.950 . S
H914 C938 0.950 . S
H915 C939 0.951 . S
H916 C941 0.951 . S
H917 C943 0.950 . S
H918 C944 0.950 . S
H919 C946 0.950 . S
H920 C949 0.950 . S
H921 C950 0.950 . S
H922 C952 0.950 . S
H923 C953 0.950 . S
C924 H906 0.951 . S
C924 C925 1.366 . S
C924 C926 1.388 . S
C925 C924 1.366 . S
C925 C929 1.385 . S
C926 H907 0.951 . S
C926 C924 1.388 . S
C926 C927 1.366 . S
C927 C926 1.366 . S
C927 C928 1.414 . S
C927 C930 1.499 . S
C928 H908 0.950 . S
C928 C927 1.414 . S
C928 C929 1.374 . S
C929 H909 0.950 . S
C929 C925 1.385 . S
C929 C928 1.374 . S
C930 C927 1.499 . S
C930 C931 1.373 . S
C930 C932 1.389 . S
C931 H910 0.950 . S
C931 C930 1.373 . S
C931 C947 1.377 . S
C932 C930 1.389 . S
C932 C933 1.524 . S
C932 C946 1.377 . S
C933 C932 1.524 . S
C933 C934 1.397 . S
C933 C938 1.363 . S
C934 H911 0.950 . S
C934 C933 1.397 . S
C934 C935 1.334 . S
C935 H912 0.950 . S
C935 C934 1.334 . S
C935 C936 1.287 . S
C936 C935 1.287 . S
C936 C937 1.524 . S
C936 H955 0.913 . S
C937 H913 0.950 . S
C937 C936 1.524 . S
C937 C938 1.415 . S
C938 H914 0.950 . S
C938 C933 1.363 . S
C938 C937 1.415 . S
C939 H915 0.951 . S
C939 C940 1.366 . S
C939 C941 1.388 . S
C940 C939 1.366 . S
C940 C944 1.385 . S
C941 H916 0.951 . S
C941 C939 1.388 . S
C941 C942 1.366 . S
C942 C941 1.366 . S
C942 C943 1.414 . S
C942 C945 1.499 . S
C943 H917 0.950 . S
C943 C942 1.414 . S
C943 C944 1.374 . S
C944 H918 0.950 . S
C944 C940 1.385 . S
C944 C943 1.374 . S
C945 C942 1.499 . S
C945 C946 1.373 . S
C945 C947 1.389 . S
C946 H919 0.950 . S
C946 C932 1.377 . S
C946 C945 1.373 . S
C947 C931 1.377 . S
C947 C945 1.389 . S
C947 C948 1.524 . S
C948 C947 1.524 . S
C948 C949 1.397 . S
C948 C953 1.363 . S
C949 H920 0.950 . S
C949 C948 1.397 . S
C949 C950 1.334 . S
C950 H921 0.950 . S
C950 C949 1.334 . S
C950 C951 1.287 . S
C951 C950 1.287 . S
C951 C952 1.524 . S
C951 H954 0.999 . S
C952 H922 0.950 . S
C952 C951 1.524 . S
C952 C953 1.415 . S
C953 H923 0.950 . S
C953 C948 1.363 . S
C953 C952 1.415 . S
H954 C951 0.999 . S
H955 C936 0.913 . S
H956 C974 0.951 . S
H957 C976 0.951 . S
H958 C978 0.950 . S
H959 C979 0.950 . S
H960 C981 0.950 . S
H961 C984 0.950 . S
H962 C985 0.950 . S
H963 C987 0.950 . S
H964 C988 0.950 . S
H965 C989 0.951 . S
H966 C991 0.951 . S
H967 C993 0.950 . S
H968 C994 0.950 . S
H969 C996 0.950 . S
H970 C999 0.950 . S
H971 C1000 0.950 . S
H972 C1002 0.950 . S
H973 C1003 0.950 . S
C974 H956 0.951 . S
C974 C975 1.366 . S
C974 C976 1.388 . S
C975 C974 1.366 . S
C975 C979 1.385 . S
C976 H957 0.951 . S
C976 C974 1.388 . S
C976 C977 1.366 . S
C977 C976 1.366 . S
C977 C978 1.414 . S
C977 C980 1.499 . S
C978 H958 0.950 . S
C978 C977 1.414 . S
C978 C979 1.374 . S
C979 H959 0.950 . S
C979 C975 1.385 . S
C979 C978 1.374 . S
C980 C977 1.499 . S
C980 C981 1.373 . S
C980 C982 1.389 . S
C981 H960 0.950 . S
C981 C980 1.373 . S
C981 C997 1.377 . S
C982 C980 1.389 . S
C982 C983 1.524 . S
C982 C996 1.377 . S
C983 C982 1.524 . S
C983 C984 1.397 . S
C983 C988 1.363 . S
C984 H961 0.950 . S
C984 C983 1.397 . S
C984 C985 1.334 . S
C985 H962 0.950 . S
C985 C984 1.334 . S
C985 C986 1.287 . S
C986 C985 1.287 . S
C986 C987 1.524 . S
C986 H1005 0.913 . S
C987 H963 0.950 . S
C987 C986 1.524 . S
C987 C988 1.415 . S
C988 H964 0.950 . S
C988 C983 1.363 . S
C988 C987 1.415 . S
C989 H965 0.951 . S
C989 C990 1.366 . S
C989 C991 1.388 . S
C990 C989 1.366 . S
C990 C994 1.385 . S
C991 H966 0.951 . S
C991 C989 1.388 . S
C991 C992 1.366 . S
C992 C991 1.366 . S
C992 C993 1.414 . S
C992 C995 1.499 . S
C993 H967 0.950 . S
C993 C992 1.414 . S
C993 C994 1.374 . S
C994 H968 0.950 . S
C994 C990 1.385 . S
C994 C993 1.374 . S
C995 C992 1.499 . S
C995 C996 1.373 . S
C995 C997 1.389 . S
C996 H969 0.950 . S
C996 C982 1.377 . S
C996 C995 1.373 . S
C997 C981 1.377 . S
C997 C995 1.389 . S
C997 C998 1.524 . S
C998 C997 1.524 . S
C998 C999 1.397 . S
C998 C1003 1.363 . S
C999 H970 0.950 . S
C999 C998 1.397 . S
C999 C1000 1.334 . S
C1000 H971 0.950 . S
C1000 C999 1.334 . S
C1000 C1001 1.287 . S
C1001 C1000 1.287 . S
C1001 C1002 1.524 . S
C1001 H1004 0.999 . S
C1002 H972 0.950 . S
C1002 C1001 1.524 . S
C1002 C1003 1.415 . S
C1003 H973 0.950 . S
C1003 C998 1.363 . S
C1003 C1002 1.415 . S
H1004 C1001 0.999 . S
H1005 C986 0.913 . S
H1006 C1024 0.951 . S
H1007 C1026 0.951 . S
H1008 C1028 0.950 . S
H1009 C1029 0.950 . S
H1010 C1031 0.950 . S
H1011 C1034 0.950 . S
H1012 C1035 0.950 . S
H1013 C1037 0.950 . S
H1014 C1038 0.950 . S
H1015 C1039 0.951 . S
H1016 C1041 0.951 . S
H1017 C1043 0.950 . S
H1018 C1044 0.950 . S
H1019 C1046 0.950 . S
H1020 C1049 0.950 . S
H1021 C1050 0.950 . S
H1022 C1052 0.950 . S
H1023 C1053 0.950 . S
C1024 H1006 0.951 . S
C1024 C1025 1.366 . S
C1024 C1026 1.388 . S
C1025 C1024 1.366 . S
C1025 C1029 1.385 . S
C1026 H1007 0.951 . S
C1026 C1024 1.388 . S
C1026 C1027 1.366 1_545 S
C1027 C1026 1.366 1_565 S
C1027 C1028 1.414 . S
C1027 C1030 1.499 . S
C1028 H1008 0.950 . S
C1028 C1027 1.414 . S
C1028 C1029 1.374 1_565 S
C1029 H1009 0.950 . S
C1029 C1025 1.385 . S
C1029 C1028 1.374 1_545 S
C1030 C1027 1.499 . S
C1030 C1031 1.373 . S
C1030 C1032 1.389 . S
C1031 H1010 0.950 . S
C1031 C1030 1.373 . S
C1031 C1047 1.377 . S
C1032 C1030 1.389 . S
C1032 C1033 1.524 . S
C1032 C1046 1.377 . S
C1033 C1032 1.524 . S
C1033 C1034 1.397 . S
C1033 C1038 1.363 . S
C1034 H1011 0.950 . S
C1034 C1033 1.397 . S
C1034 C1035 1.334 . S
C1035 H1012 0.950 . S
C1035 C1034 1.334 . S
C1035 C1036 1.287 . S
C1036 C1035 1.287 . S
C1036 C1037 1.524 . S
C1036 H1055 0.913 . S
C1037 H1013 0.950 . S
C1037 C1036 1.524 . S
C1037 C1038 1.415 . S
C1038 H1014 0.950 . S
C1038 C1033 1.363 . S
C1038 C1037 1.415 . S
C1039 H1015 0.951 . S
C1039 C1040 1.366 . S
C1039 C1041 1.388 . S
C1040 C1039 1.366 . S
C1040 C1044 1.385 . S
C1041 H1016 0.951 . S
C1041 C1039 1.388 . S
C1041 C1042 1.366 . S
C1042 C1041 1.366 . S
C1042 C1043 1.414 . S
C1042 C1045 1.499 . S
C1043 H1017 0.950 . S
C1043 C1042 1.414 . S
C1043 C1044 1.374 . S
C1044 H1018 0.950 . S
C1044 C1040 1.385 . S
C1044 C1043 1.374 . S
C1045 C1042 1.499 . S
C1045 C1046 1.373 . S
C1045 C1047 1.389 . S
C1046 H1019 0.950 . S
C1046 C1032 1.377 . S
C1046 C1045 1.373 . S
C1047 C1031 1.377 . S
C1047 C1045 1.389 . S
C1047 C1048 1.524 . S
C1048 C1047 1.524 . S
C1048 C1049 1.397 . S
C1048 C1053 1.363 . S
C1049 H1020 0.950 . S
C1049 C1048 1.397 . S
C1049 C1050 1.334 . S
C1050 H1021 0.950 . S
C1050 C1049 1.334 . S
C1050 C1051 1.287 . S
C1051 C1050 1.287 . S
C1051 C1052 1.524 . S
C1051 H1054 0.999 . S
C1052 H1022 0.950 . S
C1052 C1051 1.524 . S
C1052 C1053 1.415 . S
C1053 H1023 0.950 . S
C1053 C1048 1.363 . S
C1053 C1052 1.415 . S
H1054 C1051 0.999 . S
H1055 C1036 0.913 . S
H1056 C1074 0.951 . S
H1057 C1076 0.951 . S
H1058 C1078 0.950 . S
H1059 C1079 0.950 . S
H1060 C1081 0.950 . S
H1061 C1084 0.950 . S
H1062 C1085 0.950 . S
H1063 C1087 0.950 . S
H1064 C1088 0.950 . S
H1065 C1089 0.951 . S
H1066 C1091 0.951 . S
H1067 C1093 0.950 . S
H1068 C1094 0.950 . S
H1069 C1096 0.950 . S
H1070 C1099 0.950 . S
H1071 C1100 0.950 . S
H1072 C1102 0.950 . S
H1073 C1103 0.950 . S
C1074 H1056 0.951 . S
C1074 C1075 1.366 . S
C1074 C1076 1.388 . S
C1075 C1074 1.366 . S
C1075 C1079 1.385 . S
C1076 H1057 0.951 . S
C1076 C1074 1.388 . S
C1076 C1077 1.366 . S
C1077 C1076 1.366 . S
C1077 C1078 1.414 . S
C1077 C1080 1.499 . S
C1078 H1058 0.950 . S
C1078 C1077 1.414 . S
C1078 C1079 1.374 . S
C1079 H1059 0.950 . S
C1079 C1075 1.385 . S
C1079 C1078 1.374 . S
C1080 C1077 1.499 . S
C1080 C1081 1.373 . S
C1080 C1082 1.389 . S
C1081 H1060 0.950 . S
C1081 C1080 1.373 . S
C1081 C1097 1.377 . S
C1082 C1080 1.389 . S
C1082 C1083 1.524 . S
C1082 C1096 1.377 . S
C1083 C1082 1.524 . S
C1083 C1084 1.397 . S
C1083 C1088 1.363 . S
C1084 H1061 0.950 . S
C1084 C1083 1.397 . S
C1084 C1085 1.334 . S
C1085 H1062 0.950 . S
C1085 C1084 1.334 . S
C1085 C1086 1.287 . S
C1086 C1085 1.287 . S
C1086 C1087 1.524 . S
C1086 H1105 0.913 . S
C1087 H1063 0.950 . S
C1087 C1086 1.524 . S
C1087 C1088 1.415 . S
C1088 H1064 0.950 . S
C1088 C1083 1.363 . S
C1088 C1087 1.415 . S
C1089 H1065 0.951 . S
C1089 C1090 1.366 . S
C1089 C1091 1.388 . S
C1090 C1089 1.366 . S
C1090 C1094 1.385 . S
C1091 H1066 0.951 . S
C1091 C1089 1.388 . S
C1091 C1092 1.366 . S
C1092 C1091 1.366 . S
C1092 C1093 1.414 . S
C1092 C1095 1.499 . S
C1093 H1067 0.950 . S
C1093 C1092 1.414 . S
C1093 C1094 1.374 . S
C1094 H1068 0.950 . S
C1094 C1090 1.385 . S
C1094 C1093 1.374 . S
C1095 C1092 1.499 . S
C1095 C1096 1.373 . S
C1095 C1097 1.389 . S
C1096 H1069 0.950 . S
C1096 C1082 1.377 . S
C1096 C1095 1.373 . S
C1097 C1081 1.377 . S
C1097 C1095 1.389 . S
C1097 C1098 1.524 . S
C1098 C1097 1.524 . S
C1098 C1099 1.397 . S
C1098 C1103 1.363 . S
C1099 H1070 0.950 . S
C1099 C1098 1.397 . S
C1099 C1100 1.334 . S
C1100 H1071 0.950 . S
C1100 C1099 1.334 . S
C1100 C1101 1.287 . S
C1101 C1100 1.287 . S
C1101 C1102 1.524 . S
C1101 H1104 0.999 . S
C1102 H1072 0.950 . S
C1102 C1101 1.524 . S
C1102 C1103 1.415 . S
C1103 H1073 0.950 . S
C1103 C1098 1.363 . S
C1103 C1102 1.415 . S
H1104 C1101 0.999 . S
H1105 C1086 0.913 . S
H1106 C1124 0.951 . S
H1107 C1126 0.951 . S
H1108 C1128 0.950 . S
H1109 C1129 0.950 . S
H1110 C1131 0.950 . S
H1111 C1134 0.950 . S
H1112 C1135 0.950 . S
H1113 C1137 0.950 . S
H1114 C1138 0.950 . S
H1115 C1139 0.951 . S
H1116 C1141 0.951 . S
H1117 C1143 0.950 . S
H1118 C1144 0.950 . S
H1119 C1146 0.950 . S
H1120 C1149 0.950 . S
H1121 C1150 0.950 . S
H1122 C1152 0.950 . S
H1123 C1153 0.950 . S
C1124 H1106 0.951 . S
C1124 C1125 1.366 . S
C1124 C1126 1.388 . S
C1125 C1124 1.366 . S
C1125 C1129 1.385 . S
C1126 H1107 0.951 . S
C1126 C1124 1.388 . S
C1126 C1127 1.366 . S
C1127 C1126 1.366 . S
C1127 C1128 1.414 . S
C1127 C1130 1.499 . S
C1128 H1108 0.950 . S
C1128 C1127 1.414 . S
C1128 C1129 1.374 . S
C1129 H1109 0.950 . S
C1129 C1125 1.385 . S
C1129 C1128 1.374 . S
C1130 C1127 1.499 . S
C1130 C1131 1.373 . S
C1130 C1132 1.389 . S
C1131 H1110 0.950 . S
C1131 C1130 1.373 . S
C1131 C1147 1.377 . S
C1132 C1130 1.389 . S
C1132 C1133 1.524 . S
C1132 C1146 1.377 . S
C1133 C1132 1.524 . S
C1133 C1134 1.397 . S
C1133 C1138 1.363 . S
C1134 H1111 0.950 . S
C1134 C1133 1.397 . S
C1134 C1135 1.334 . S
C1135 H1112 0.950 . S
C1135 C1134 1.334 . S
C1135 C1136 1.287 . S
C1136 C1135 1.287 . S
C1136 C1137 1.524 . S
C1136 H1155 0.913 . S
C1137 H1113 0.950 . S
C1137 C1136 1.524 . S
C1137 C1138 1.415 . S
C1138 H1114 0.950 . S
C1138 C1133 1.363 . S
C1138 C1137 1.415 . S
C1139 H1115 0.951 . S
C1139 C1140 1.366 . S
C1139 C1141 1.388 . S
C1140 C1139 1.366 . S
C1140 C1144 1.385 . S
C1141 H1116 0.951 . S
C1141 C1139 1.388 . S
C1141 C1142 1.366 . S
C1142 C1141 1.366 . S
C1142 C1143 1.414 . S
C1142 C1145 1.499 . S
C1143 H1117 0.950 . S
C1143 C1142 1.414 . S
C1143 C1144 1.374 . S
C1144 H1118 0.950 . S
C1144 C1140 1.385 . S
C1144 C1143 1.374 . S
C1145 C1142 1.499 . S
C1145 C1146 1.373 . S
C1145 C1147 1.389 . S
C1146 H1119 0.950 . S
C1146 C1132 1.377 . S
C1146 C1145 1.373 . S
C1147 C1131 1.377 . S
C1147 C1145 1.389 . S
C1147 C1148 1.524 . S
C1148 C1147 1.524 . S
C1148 C1149 1.397 . S
C1148 C1153 1.363 . S
C1149 H1120 0.950 . S
C1149 C1148 1.397 . S
C1149 C1150 1.334 . S
C1150 H1121 0.950 . S
C1150 C1149 1.334 . S
C1150 C1151 1.287 . S
C1151 C1150 1.287 . S
C1151 C1152 1.524 . S
C1151 H1154 0.999 . S
C1152 H1122 0.950 . S
C1152 C1151 1.524 . S
C1152 C1153 1.415 . S
C1153 H1123 0.950 . S
C1153 C1148 1.363 . S
C1153 C1152 1.415 . S
H1154 C1151 0.999 . S
H1155 C1136 0.913 . S
H1156 C1174 0.951 . S
H1157 C1176 0.951 . S
H1158 C1178 0.950 . S
H1159 C1179 0.950 . S
H1160 C1181 0.950 . S
H1161 C1184 0.950 . S
H1162 C1185 0.950 . S
H1163 C1187 0.950 . S
H1164 C1188 0.950 . S
H1165 C1189 0.951 . S
H1166 C1191 0.951 . S
H1167 C1193 0.950 . S
H1168 C1194 0.950 . S
H1169 C1196 0.950 . S
H1170 C1199 0.950 . S
H1171 C1200 0.950 . S
H1172 C1202 0.950 . S
H1173 C1203 0.950 . S
C1174 H1156 0.951 . S
C1174 C1175 1.366 . S
C1174 C1176 1.388 . S
C1175 C1174 1.366 . S
C1175 C1179 1.385 . S
C1176 H1157 0.951 . S
C1176 C1174 1.388 . S
C1176 C1177 1.366 . S
C1177 C1176 1.366 . S
C1177 C1178 1.414 . S
C1177 C1180 1.499 . S
C1178 H1158 0.950 . S
C1178 C1177 1.414 . S
C1178 C1179 1.374 . S
C1179 H1159 0.950 . S
C1179 C1175 1.385 . S
C1179 C1178 1.374 . S
C1180 C1177 1.499 . S
C1180 C1181 1.373 . S
C1180 C1182 1.389 . S
C1181 H1160 0.950 . S
C1181 C1180 1.373 . S
C1181 C1197 1.377 . S
C1182 C1180 1.389 . S
C1182 C1183 1.524 . S
C1182 C1196 1.377 . S
C1183 C1182 1.524 . S
C1183 C1184 1.397 . S
C1183 C1188 1.363 . S
C1184 H1161 0.950 . S
C1184 C1183 1.397 . S
C1184 C1185 1.334 . S
C1185 H1162 0.950 . S
C1185 C1184 1.334 . S
C1185 C1186 1.287 . S
C1186 C1185 1.287 . S
C1186 C1187 1.524 . S
C1186 H1205 0.913 . S
C1187 H1163 0.950 . S
C1187 C1186 1.524 . S
C1187 C1188 1.415 . S
C1188 H1164 0.950 . S
C1188 C1183 1.363 . S
C1188 C1187 1.415 . S
C1189 H1165 0.951 . S
C1189 C1190 1.366 . S
C1189 C1191 1.388 . S
C1190 C1189 1.366 . S
C1190 C1194 1.385 . S
C1191 H1166 0.951 . S
C1191 C1189 1.388 . S
C1191 C1192 1.366 . S
C1192 C1191 1.366 . S
C1192 C1193 1.414 . S
C1192 C1195 1.499 . S
C1193 H1167 0.950 . S
C1193 C1192 1.414 . S
C1193 C1194 1.374 . S
C1194 H1168 0.950 . S
C1194 C1190 1.385 . S
C1194 C1193 1.374 . S
C1195 C1192 1.499 . S
C1195 C1196 1.373 . S
C1195 C1197 1.389 . S
C1196 H1169 0.950 . S
C1196 C1182 1.377 . S
C1196 C1195 1.373 . S
C1197 C1181 1.377 . S
C1197 C1195 1.389 . S
C1197 C1198 1.524 . S
C1198 C1197 1.524 . S
C1198 C1199 1.397 . S
C1198 C1203 1.363 . S
C1199 H1170 0.950 . S
C1199 C1198 1.397 . S
C1199 C1200 1.334 . S
C1200 H1171 0.950 . S
C1200 C1199 1.334 . S
C1200 C1201 1.287 . S
C1201 C1200 1.287 . S
C1201 C1202 1.524 . S
C1201 H1204 0.999 . S
C1202 H1172 0.950 . S
C1202 C1201 1.524 . S
C1202 C1203 1.415 . S
C1203 H1173 0.950 . S
C1203 C1198 1.363 . S
C1203 C1202 1.415 . S
H1204 C1201 0.999 . S
H1205 C1186 0.913 . S
H1206 C1224 0.951 . S
H1207 C1226 0.951 . S
H1208 C1228 0.950 . S
H1209 C1229 0.950 . S
H1210 C1231 0.950 . S
H1211 C1234 0.950 . S
H1212 C1235 0.950 . S
H1213 C1237 0.950 . S
H1214 C1238 0.950 . S
H1215 C1239 0.951 . S
H1216 C1241 0.951 . S
H1217 C1243 0.950 . S
H1218 C1244 0.950 . S
H1219 C1246 0.950 . S
H1220 C1249 0.950 . S
H1221 C1250 0.950 . S
H1222 C1252 0.950 . S
H1223 C1253 0.950 . S
C1224 H1206 0.951 . S
C1224 C1225 1.366 . S
C1224 C1226 1.388 . S
C1225 C1224 1.366 . S
C1225 C1229 1.385 . S
C1226 H1207 0.951 . S
C1226 C1224 1.388 . S
C1226 C1227 1.366 . S
C1227 C1226 1.366 . S
C1227 C1228 1.414 . S
C1227 C1230 1.499 . S
C1228 H1208 0.950 . S
C1228 C1227 1.414 . S
C1228 C1229 1.374 . S
C1229 H1209 0.950 . S
C1229 C1225 1.385 . S
C1229 C1228 1.374 . S
C1230 C1227 1.499 . S
C1230 C1231 1.373 . S
C1230 C1232 1.389 . S
C1231 H1210 0.950 . S
C1231 C1230 1.373 . S
C1231 C1247 1.377 . S
C1232 C1230 1.389 . S
C1232 C1233 1.524 . S
C1232 C1246 1.377 . S
C1233 C1232 1.524 . S
C1233 C1234 1.397 . S
C1233 C1238 1.363 . S
C1234 H1211 0.950 . S
C1234 C1233 1.397 . S
C1234 C1235 1.334 . S
C1235 H1212 0.950 . S
C1235 C1234 1.334 . S
C1235 C1236 1.287 . S
C1236 C1235 1.287 . S
C1236 C1237 1.524 . S
C1236 H1255 0.913 . S
C1237 H1213 0.950 . S
C1237 C1236 1.524 . S
C1237 C1238 1.415 . S
C1238 H1214 0.950 . S
C1238 C1233 1.363 . S
C1238 C1237 1.415 . S
C1239 H1215 0.951 . S
C1239 C1240 1.366 . S
C1239 C1241 1.388 . S
C1240 C1239 1.366 . S
C1240 C1244 1.385 . S
C1241 H1216 0.951 . S
C1241 C1239 1.388 . S
C1241 C1242 1.366 . S
C1242 C1241 1.366 . S
C1242 C1243 1.414 . S
C1242 C1245 1.499 . S
C1243 H1217 0.950 . S
C1243 C1242 1.414 . S
C1243 C1244 1.374 . S
C1244 H1218 0.950 . S
C1244 C1240 1.385 . S
C1244 C1243 1.374 . S
C1245 C1242 1.499 . S
C1245 C1246 1.373 . S
C1245 C1247 1.389 . S
C1246 H1219 0.950 . S
C1246 C1232 1.377 . S
C1246 C1245 1.373 . S
C1247 C1231 1.377 . S
C1247 C1245 1.389 . S
C1247 C1248 1.524 . S
C1248 C1247 1.524 . S
C1248 C1249 1.397 . S
C1248 C1253 1.363 . S
C1249 H1220 0.950 . S
C1249 C1248 1.397 . S
C1249 C1250 1.334 . S
C1250 H1221 0.950 . S
C1250 C1249 1.334 . S
C1250 C1251 1.287 . S
C1251 C1250 1.287 . S
C1251 C1252 1.524 . S
C1251 H1254 0.999 . S
C1252 H1222 0.950 . S
C1252 C1251 1.524 . S
C1252 C1253 1.415 . S
C1253 H1223 0.950 . S
C1253 C1248 1.363 . S
C1253 C1252 1.415 . S
H1254 C1251 0.999 . S
H1255 C1236 0.913 . S
H1256 C1274 0.951 . S
H1257 C1276 0.951 . S
H1258 C1278 0.950 . S
H1259 C1279 0.950 . S
H1260 C1281 0.950 . S
H1261 C1284 0.950 . S
H1262 C1285 0.950 . S
H1263 C1287 0.950 . S
H1264 C1288 0.950 . S
H1265 C1289 0.951 . S
H1266 C1291 0.951 . S
H1267 C1293 0.950 . S
H1268 C1294 0.950 . S
H1269 C1296 0.950 . S
H1270 C1299 0.950 . S
H1271 C1300 0.950 1_455 S
H1272 C1302 0.950 . S
H1273 C1303 0.950 . S
C1274 H1256 0.951 . S
C1274 C1275 1.366 . S
C1274 C1276 1.388 . S
C1275 C1274 1.366 . S
C1275 C1279 1.385 . S
C1276 H1257 0.951 . S
C1276 C1274 1.388 . S
C1276 C1277 1.366 . S
C1277 C1276 1.366 . S
C1277 C1278 1.414 . S
C1277 C1280 1.499 . S
C1278 H1258 0.950 . S
C1278 C1277 1.414 . S
C1278 C1279 1.374 . S
C1279 H1259 0.950 . S
C1279 C1275 1.385 . S
C1279 C1278 1.374 . S
C1280 C1277 1.499 . S
C1280 C1281 1.373 . S
C1280 C1282 1.389 . S
C1281 H1260 0.950 . S
C1281 C1280 1.373 . S
C1281 C1297 1.377 . S
C1282 C1280 1.389 . S
C1282 C1283 1.524 . S
C1282 C1296 1.377 . S
C1283 C1282 1.524 . S
C1283 C1284 1.397 . S
C1283 C1288 1.363 . S
C1284 H1261 0.950 . S
C1284 C1283 1.397 . S
C1284 C1285 1.334 . S
C1285 H1262 0.950 . S
C1285 C1284 1.334 . S
C1285 C1286 1.287 . S
C1286 C1285 1.287 . S
C1286 C1287 1.524 . S
C1286 H1305 0.913 . S
C1287 H1263 0.950 . S
C1287 C1286 1.524 . S
C1287 C1288 1.415 . S
C1288 H1264 0.950 . S
C1288 C1283 1.363 . S
C1288 C1287 1.415 . S
C1289 H1265 0.951 . S
C1289 C1290 1.366 . S
C1289 C1291 1.388 . S
C1290 C1289 1.366 . S
C1290 C1294 1.385 . S
C1291 H1266 0.951 . S
C1291 C1289 1.388 . S
C1291 C1292 1.366 . S
C1292 C1291 1.366 . S
C1292 C1293 1.414 . S
C1292 C1295 1.499 . S
C1293 H1267 0.950 . S
C1293 C1292 1.414 . S
C1293 C1294 1.374 . S
C1294 H1268 0.950 . S
C1294 C1290 1.385 . S
C1294 C1293 1.374 . S
C1295 C1292 1.499 . S
C1295 C1296 1.373 . S
C1295 C1297 1.389 . S
C1296 H1269 0.950 . S
C1296 C1282 1.377 . S
C1296 C1295 1.373 . S
C1297 C1281 1.377 . S
C1297 C1295 1.389 . S
C1297 C1298 1.524 . S
C1298 C1297 1.524 . S
C1298 C1299 1.397 . S
C1298 C1303 1.363 . S
C1299 H1270 0.950 . S
C1299 C1298 1.397 . S
C1299 C1300 1.334 . S
C1300 H1271 0.950 1_655 S
C1300 C1299 1.334 . S
C1300 C1301 1.287 . S
C1301 C1300 1.287 . S
C1301 C1302 1.524 . S
C1301 H1304 0.999 1_655 S
C1302 H1272 0.950 . S
C1302 C1301 1.524 . S
C1302 C1303 1.415 . S
C1303 H1273 0.950 . S
C1303 C1298 1.363 . S
C1303 C1302 1.415 . S
H1304 C1301 0.999 1_455 S
H1305 C1286 0.913 . S
H1306 C1324 0.951 . S
H1307 C1326 0.951 . S
H1308 C1328 0.950 . S
H1309 C1329 0.950 . S
H1310 C1331 0.950 . S
H1311 C1334 0.950 . S
H1312 C1335 0.950 . S
H1313 C1337 0.950 . S
H1314 C1338 0.950 . S
H1315 C1339 0.951 . S
H1316 C1341 0.951 . S
H1317 C1343 0.950 . S
H1318 C1344 0.950 . S
H1319 C1346 0.950 . S
H1320 C1349 0.950 . S
H1321 C1350 0.950 . S
H1322 C1352 0.950 . S
H1323 C1353 0.950 . S
C1324 H1306 0.951 . S
C1324 C1325 1.366 . S
C1324 C1326 1.388 . S
C1325 C1324 1.366 . S
C1325 C1329 1.385 . S
C1326 H1307 0.951 . S
C1326 C1324 1.388 . S
C1326 C1327 1.366 . S
C1327 C1326 1.366 . S
C1327 C1328 1.414 . S
C1327 C1330 1.499 . S
C1328 H1308 0.950 . S
C1328 C1327 1.414 . S
C1328 C1329 1.374 . S
C1329 H1309 0.950 . S
C1329 C1325 1.385 . S
C1329 C1328 1.374 . S
C1330 C1327 1.499 . S
C1330 C1331 1.373 . S
C1330 C1332 1.389 . S
C1331 H1310 0.950 . S
C1331 C1330 1.373 . S
C1331 C1347 1.377 . S
C1332 C1330 1.389 . S
C1332 C1333 1.524 . S
C1332 C1346 1.377 . S
C1333 C1332 1.524 . S
C1333 C1334 1.397 . S
C1333 C1338 1.363 . S
C1334 H1311 0.950 . S
C1334 C1333 1.397 . S
C1334 C1335 1.334 . S
C1335 H1312 0.950 . S
C1335 C1334 1.334 . S
C1335 C1336 1.287 . S
C1336 C1335 1.287 . S
C1336 C1337 1.524 . S
C1336 H1355 0.913 . S
C1337 H1313 0.950 . S
C1337 C1336 1.524 . S
C1337 C1338 1.415 . S
C1338 H1314 0.950 . S
C1338 C1333 1.363 . S
C1338 C1337 1.415 . S
C1339 H1315 0.951 . S
C1339 C1340 1.366 . S
C1339 C1341 1.388 . S
C1340 C1339 1.366 . S
C1340 C1344 1.385 . S
C1341 H1316 0.951 . S
C1341 C1339 1.388 . S
C1341 C1342 1.366 . S
C1342 C1341 1.366 . S
C1342 C1343 1.414 . S
C1342 C1345 1.499 . S
C1343 H1317 0.950 . S
C1343 C1342 1.414 . S
C1343 C1344 1.374 . S
C1344 H1318 0.950 . S
C1344 C1340 1.385 . S
C1344 C1343 1.374 . S
C1345 C1342 1.499 . S
C1345 C1346 1.373 . S
C1345 C1347 1.389 . S
C1346 H1319 0.950 . S
C1346 C1332 1.377 . S
C1346 C1345 1.373 . S
C1347 C1331 1.377 . S
C1347 C1345 1.389 . S
C1347 C1348 1.524 . S
C1348 C1347 1.524 . S
C1348 C1349 1.397 . S
C1348 C1353 1.363 . S
C1349 H1320 0.950 . S
C1349 C1348 1.397 . S
C1349 C1350 1.334 . S
C1350 H1321 0.950 . S
C1350 C1349 1.334 . S
C1350 C1351 1.287 . S
C1351 C1350 1.287 . S
C1351 C1352 1.524 . S
C1351 H1354 0.999 . S
C1352 H1322 0.950 . S
C1352 C1351 1.524 . S
C1352 C1353 1.415 . S
C1353 H1323 0.950 . S
C1353 C1348 1.363 . S
C1353 C1352 1.415 . S
H1354 C1351 0.999 . S
H1355 C1336 0.913 . S
H1356 C1374 0.951 . S
H1357 C1376 0.951 . S
H1358 C1378 0.950 . S
H1359 C1379 0.950 . S
H1360 C1381 0.950 . S
H1361 C1384 0.950 . S
H1362 C1385 0.950 . S
H1363 C1387 0.950 . S
H1364 C1388 0.950 . S
H1365 C1389 0.951 . S
H1366 C1391 0.951 . S
H1367 C1393 0.950 . S
H1368 C1394 0.950 . S
H1369 C1396 0.950 . S
H1370 C1399 0.950 . S
H1371 C1400 0.950 . S
H1372 C1402 0.950 . S
H1373 C1403 0.950 . S
C1374 H1356 0.951 . S
C1374 C1375 1.366 . S
C1374 C1376 1.388 . S
C1375 C1374 1.366 . S
C1375 C1379 1.385 . S
C1376 H1357 0.951 . S
C1376 C1374 1.388 . S
C1376 C1377 1.366 . S
C1377 C1376 1.366 . S
C1377 C1378 1.414 . S
C1377 C1380 1.499 . S
C1378 H1358 0.950 . S
C1378 C1377 1.414 . S
C1378 C1379 1.374 . S
C1379 H1359 0.950 . S
C1379 C1375 1.385 . S
C1379 C1378 1.374 . S
C1380 C1377 1.499 . S
C1380 C1381 1.373 . S
C1380 C1382 1.389 . S
C1381 H1360 0.950 . S
C1381 C1380 1.373 . S
C1381 C1397 1.377 . S
C1382 C1380 1.389 . S
C1382 C1383 1.524 . S
C1382 C1396 1.377 . S
C1383 C1382 1.524 . S
C1383 C1384 1.397 . S
C1383 C1388 1.363 . S
C1384 H1361 0.950 . S
C1384 C1383 1.397 . S
C1384 C1385 1.334 . S
C1385 H1362 0.950 . S
C1385 C1384 1.334 . S
C1385 C1386 1.287 . S
C1386 C1385 1.287 . S
C1386 C1387 1.524 . S
C1386 H1405 0.913 . S
C1387 H1363 0.950 . S
C1387 C1386 1.524 . S
C1387 C1388 1.415 . S
C1388 H1364 0.950 . S
C1388 C1383 1.363 . S
C1388 C1387 1.415 . S
C1389 H1365 0.951 . S
C1389 C1390 1.366 . S
C1389 C1391 1.388 . S
C1390 C1389 1.366 . S
C1390 C1394 1.385 . S
C1391 H1366 0.951 . S
C1391 C1389 1.388 . S
C1391 C1392 1.366 . S
C1392 C1391 1.366 . S
C1392 C1393 1.414 . S
C1392 C1395 1.499 . S
C1393 H1367 0.950 . S
C1393 C1392 1.414 . S
C1393 C1394 1.374 . S
C1394 H1368 0.950 . S
C1394 C1390 1.385 . S
C1394 C1393 1.374 . S
C1395 C1392 1.499 . S
C1395 C1396 1.373 . S
C1395 C1397 1.389 . S
C1396 H1369 0.950 . S
C1396 C1382 1.377 . S
C1396 C1395 1.373 . S
C1397 C1381 1.377 . S
C1397 C1395 1.389 . S
C1397 C1398 1.524 . S
C1398 C1397 1.524 . S
C1398 C1399 1.397 . S
C1398 C1403 1.363 . S
C1399 H1370 0.950 . S
C1399 C1398 1.397 . S
C1399 C1400 1.334 . S
C1400 H1371 0.950 . S
C1400 C1399 1.334 . S
C1400 C1401 1.287 . S
C1401 C1400 1.287 . S
C1401 C1402 1.524 . S
C1401 H1404 0.999 . S
C1402 H1372 0.950 . S
C1402 C1401 1.524 . S
C1402 C1403 1.415 . S
C1403 H1373 0.950 . S
C1403 C1398 1.363 . S
C1403 C1402 1.415 . S
H1404 C1401 0.999 . S
H1405 C1386 0.913 . S
H1406 C1424 0.951 . S
H1407 C1426 0.951 . S
H1408 C1428 0.950 . S
H1409 C1429 0.950 . S
H1410 C1431 0.950 . S
H1411 C1434 0.950 . S
H1412 C1435 0.950 . S
H1413 C1437 0.950 . S
H1414 C1438 0.950 . S
H1415 C1439 0.951 . S
H1416 C1441 0.951 . S
H1417 C1443 0.950 . S
H1418 C1444 0.950 . S
H1419 C1446 0.950 . S
H1420 C1449 0.950 . S
H1421 C1450 0.950 . S
H1422 C1452 0.950 . S
H1423 C1453 0.950 . S
C1424 H1406 0.951 . S
C1424 C1425 1.366 . S
C1424 C1426 1.388 . S
C1425 C1424 1.366 . S
C1425 C1429 1.385 . S
C1426 H1407 0.951 . S
C1426 C1424 1.388 . S
C1426 C1427 1.366 . S
C1427 C1426 1.366 . S
C1427 C1428 1.414 . S
C1427 C1430 1.499 . S
C1428 H1408 0.950 . S
C1428 C1427 1.414 . S
C1428 C1429 1.374 . S
C1429 H1409 0.950 . S
C1429 C1425 1.385 . S
C1429 C1428 1.374 . S
C1430 C1427 1.499 . S
C1430 C1431 1.373 . S
C1430 C1432 1.389 . S
C1431 H1410 0.950 . S
C1431 C1430 1.373 . S
C1431 C1447 1.377 . S
C1432 C1430 1.389 . S
C1432 C1433 1.524 . S
C1432 C1446 1.377 . S
C1433 C1432 1.524 . S
C1433 C1434 1.397 . S
C1433 C1438 1.363 . S
C1434 H1411 0.950 . S
C1434 C1433 1.397 . S
C1434 C1435 1.334 . S
C1435 H1412 0.950 . S
C1435 C1434 1.334 . S
C1435 C1436 1.287 . S
C1436 C1435 1.287 . S
C1436 C1437 1.524 . S
C1436 H1455 0.913 . S
C1437 H1413 0.950 . S
C1437 C1436 1.524 . S
C1437 C1438 1.415 . S
C1438 H1414 0.950 . S
C1438 C1433 1.363 . S
C1438 C1437 1.415 . S
C1439 H1415 0.951 . S
C1439 C1440 1.366 . S
C1439 C1441 1.388 . S
C1440 C1439 1.366 . S
C1440 C1444 1.385 . S
C1441 H1416 0.951 . S
C1441 C1439 1.388 . S
C1441 C1442 1.366 . S
C1442 C1441 1.366 . S
C1442 C1443 1.414 . S
C1442 C1445 1.499 . S
C1443 H1417 0.950 . S
C1443 C1442 1.414 . S
C1443 C1444 1.374 . S
C1444 H1418 0.950 . S
C1444 C1440 1.385 . S
C1444 C1443 1.374 . S
C1445 C1442 1.499 . S
C1445 C1446 1.373 . S
C1445 C1447 1.389 . S
C1446 H1419 0.950 . S
C1446 C1432 1.377 . S
C1446 C1445 1.373 . S
C1447 C1431 1.377 . S
C1447 C1445 1.389 . S
C1447 C1448 1.524 . S
C1448 C1447 1.524 . S
C1448 C1449 1.397 . S
C1448 C1453 1.363 . S
C1449 H1420 0.950 . S
C1449 C1448 1.397 . S
C1449 C1450 1.334 . S
C1450 H1421 0.950 . S
C1450 C1449 1.334 . S
C1450 C1451 1.287 . S
C1451 C1450 1.287 . S
C1451 C1452 1.524 . S
C1451 H1454 0.999 . S
C1452 H1422 0.950 . S
C1452 C1451 1.524 . S
C1452 C1453 1.415 . S
C1453 H1423 0.950 . S
C1453 C1448 1.363 . S
C1453 C1452 1.415 . S
H1454 C1451 0.999 . S
H1455 C1436 0.913 . S
H1456 C1474 0.951 . S
H1457 C1476 0.951 . S
H1458 C1478 0.950 . S
H1459 C1479 0.950 . S
H1460 C1481 0.950 . S
H1461 C1484 0.950 . S
H1462 C1485 0.950 . S
H1463 C1487 0.950 . S
H1464 C1488 0.950 . S
H1465 C1489 0.951 . S
H1466 C1491 0.951 . S
H1467 C1493 0.950 . S
H1468 C1494 0.950 1_655 S
H1469 C1496 0.950 . S
H1470 C1499 0.950 . S
H1471 C1500 0.950 . S
H1472 C1502 0.950 . S
H1473 C1503 0.950 . S
C1474 H1456 0.951 . S
C1474 C1475 1.366 . S
C1474 C1476 1.388 . S
C1475 C1474 1.366 . S
C1475 C1479 1.385 . S
C1476 H1457 0.951 . S
C1476 C1474 1.388 . S
C1476 C1477 1.366 . S
C1477 C1476 1.366 . S
C1477 C1478 1.414 . S
C1477 C1480 1.499 . S
C1478 H1458 0.950 . S
C1478 C1477 1.414 . S
C1478 C1479 1.374 . S
C1479 H1459 0.950 . S
C1479 C1475 1.385 . S
C1479 C1478 1.374 . S
C1480 C1477 1.499 . S
C1480 C1481 1.373 . S
C1480 C1482 1.389 . S
C1481 H1460 0.950 . S
C1481 C1480 1.373 . S
C1481 C1497 1.377 . S
C1482 C1480 1.389 . S
C1482 C1483 1.524 . S
C1482 C1496 1.377 . S
C1483 C1482 1.524 . S
C1483 C1484 1.397 . S
C1483 C1488 1.363 . S
C1484 H1461 0.950 . S
C1484 C1483 1.397 . S
C1484 C1485 1.334 . S
C1485 H1462 0.950 . S
C1485 C1484 1.334 . S
C1485 C1486 1.287 . S
C1486 C1485 1.287 . S
C1486 C1487 1.524 . S
C1486 H1505 0.913 . S
C1487 H1463 0.950 . S
C1487 C1486 1.524 . S
C1487 C1488 1.415 . S
C1488 H1464 0.950 . S
C1488 C1483 1.363 . S
C1488 C1487 1.415 . S
C1489 H1465 0.951 . S
C1489 C1490 1.366 . S
C1489 C1491 1.388 . S
C1490 C1489 1.366 . S
C1490 C1494 1.385 . S
C1491 H1466 0.951 . S
C1491 C1489 1.388 . S
C1491 C1492 1.366 . S
C1492 C1491 1.366 . S
C1492 C1493 1.414 . S
C1492 C1495 1.499 . S
C1493 H1467 0.950 . S
C1493 C1492 1.414 . S
C1493 C1494 1.374 . S
C1494 H1468 0.950 1_455 S
C1494 C1490 1.385 . S
C1494 C1493 1.374 . S
C1495 C1492 1.499 . S
C1495 C1496 1.373 . S
C1495 C1497 1.389 . S
C1496 H1469 0.950 . S
C1496 C1482 1.377 . S
C1496 C1495 1.373 . S
C1497 C1481 1.377 . S
C1497 C1495 1.389 . S
C1497 C1498 1.524 . S
C1498 C1497 1.524 . S
C1498 C1499 1.397 . S
C1498 C1503 1.363 . S
C1499 H1470 0.950 . S
C1499 C1498 1.397 . S
C1499 C1500 1.334 . S
C1500 H1471 0.950 . S
C1500 C1499 1.334 . S
C1500 C1501 1.287 . S
C1501 C1500 1.287 . S
C1501 C1502 1.524 . S
C1501 H1504 0.999 . S
C1502 H1472 0.950 . S
C1502 C1501 1.524 . S
C1502 C1503 1.415 . S
C1503 H1473 0.950 . S
C1503 C1498 1.363 . S
C1503 C1502 1.415 . S
H1504 C1501 0.999 . S
H1505 C1486 0.913 . S
H1506 C1524 0.951 . S
H1507 C1526 0.951 . S
H1508 C1528 0.950 . S
H1509 C1529 0.950 . S
H1510 C1531 0.950 . S
H1511 C1534 0.950 . S
H1512 C1535 0.950 . S
H1513 C1537 0.950 . S
H1514 C1538 0.950 . S
H1515 C1539 0.951 . S
H1516 C1541 0.951 . S
H1517 C1543 0.950 . S
H1518 C1544 0.950 . S
H1519 C1546 0.950 . S
H1520 C1549 0.950 . S
H1521 C1550 0.950 . S
H1522 C1552 0.950 . S
H1523 C1553 0.950 . S
C1524 H1506 0.951 . S
C1524 C1525 1.366 . S
C1524 C1526 1.388 . S
C1525 C1524 1.366 . S
C1525 C1529 1.385 . S
C1526 H1507 0.951 . S
C1526 C1524 1.388 . S
C1526 C1527 1.366 . S
C1527 C1526 1.366 . S
C1527 C1528 1.414 . S
C1527 C1530 1.499 . S
C1528 H1508 0.950 . S
C1528 C1527 1.414 . S
C1528 C1529 1.374 . S
C1529 H1509 0.950 . S
C1529 C1525 1.385 . S
C1529 C1528 1.374 . S
C1530 C1527 1.499 . S
C1530 C1531 1.373 . S
C1530 C1532 1.389 . S
C1531 H1510 0.950 . S
C1531 C1530 1.373 . S
C1531 C1547 1.377 . S
C1532 C1530 1.389 . S
C1532 C1533 1.524 . S
C1532 C1546 1.377 . S
C1533 C1532 1.524 . S
C1533 C1534 1.397 . S
C1533 C1538 1.363 . S
C1534 H1511 0.950 . S
C1534 C1533 1.397 . S
C1534 C1535 1.334 . S
C1535 H1512 0.950 . S
C1535 C1534 1.334 . S
C1535 C1536 1.287 . S
C1536 C1535 1.287 . S
C1536 C1537 1.524 . S
C1536 H1555 0.913 . S
C1537 H1513 0.950 . S
C1537 C1536 1.524 . S
C1537 C1538 1.415 . S
C1538 H1514 0.950 . S
C1538 C1533 1.363 . S
C1538 C1537 1.415 . S
C1539 H1515 0.951 . S
C1539 C1540 1.366 . S
C1539 C1541 1.388 . S
C1540 C1539 1.366 . S
C1540 C1544 1.385 . S
C1541 H1516 0.951 . S
C1541 C1539 1.388 . S
C1541 C1542 1.366 . S
C1542 C1541 1.366 . S
C1542 C1543 1.414 . S
C1542 C1545 1.499 . S
C1543 H1517 0.950 . S
C1543 C1542 1.414 . S
C1543 C1544 1.374 . S
C1544 H1518 0.950 . S
C1544 C1540 1.385 . S
C1544 C1543 1.374 . S
C1545 C1542 1.499 . S
C1545 C1546 1.373 . S
C1545 C1547 1.389 . S
C1546 H1519 0.950 . S
C1546 C1532 1.377 . S
C1546 C1545 1.373 . S
C1547 C1531 1.377 . S
C1547 C1545 1.389 . S
C1547 C1548 1.524 . S
C1548 C1547 1.524 . S
C1548 C1549 1.397 . S
C1548 C1553 1.363 . S
C1549 H1520 0.950 . S
C1549 C1548 1.397 . S
C1549 C1550 1.334 . S
C1550 H1521 0.950 . S
C1550 C1549 1.334 . S
C1550 C1551 1.287 . S
C1551 C1550 1.287 . S
C1551 C1552 1.524 . S
C1551 H1554 0.999 . S
C1552 H1522 0.950 . S
C1552 C1551 1.524 . S
C1552 C1553 1.415 . S
C1553 H1523 0.950 . S
C1553 C1548 1.363 . S
C1553 C1552 1.415 . S
H1554 C1551 0.999 . S
H1555 C1536 0.913 . S
H1556 C1574 0.951 . S
H1557 C1576 0.951 . S
H1558 C1578 0.950 . S
H1559 C1579 0.950 . S
H1560 C1581 0.950 . S
H1561 C1584 0.950 . S
H1562 C1585 0.950 . S
H1563 C1587 0.950 . S
H1564 C1588 0.950 . S
H1565 C1589 0.951 . S
H1566 C1591 0.951 . S
H1567 C1593 0.950 . S
H1568 C1594 0.950 . S
H1569 C1596 0.950 . S
H1570 C1599 0.950 . S
H1571 C1600 0.950 . S
H1572 C1602 0.950 . S
H1573 C1603 0.950 . S
C1574 H1556 0.951 . S
C1574 C1575 1.366 . S
C1574 C1576 1.388 . S
C1575 C1574 1.366 . S
C1575 C1579 1.385 . S
C1576 H1557 0.951 . S
C1576 C1574 1.388 . S
C1576 C1577 1.366 . S
C1577 C1576 1.366 . S
C1577 C1578 1.414 . S
C1577 C1580 1.499 . S
C1578 H1558 0.950 . S
C1578 C1577 1.414 . S
C1578 C1579 1.374 . S
C1579 H1559 0.950 . S
C1579 C1575 1.385 . S
C1579 C1578 1.374 . S
C1580 C1577 1.499 . S
C1580 C1581 1.373 . S
C1580 C1582 1.389 . S
C1581 H1560 0.950 . S
C1581 C1580 1.373 . S
C1581 C1597 1.377 . S
C1582 C1580 1.389 . S
C1582 C1583 1.524 . S
C1582 C1596 1.377 . S
C1583 C1582 1.524 . S
C1583 C1584 1.397 . S
C1583 C1588 1.363 . S
C1584 H1561 0.950 . S
C1584 C1583 1.397 . S
C1584 C1585 1.334 . S
C1585 H1562 0.950 . S
C1585 C1584 1.334 . S
C1585 C1586 1.287 . S
C1586 C1585 1.287 . S
C1586 C1587 1.524 . S
C1586 H1605 0.913 . S
C1587 H1563 0.950 . S
C1587 C1586 1.524 . S
C1587 C1588 1.415 . S
C1588 H1564 0.950 . S
C1588 C1583 1.363 . S
C1588 C1587 1.415 . S
C1589 H1565 0.951 . S
C1589 C1590 1.366 . S
C1589 C1591 1.388 . S
C1590 C1589 1.366 . S
C1590 C1594 1.385 . S
C1591 H1566 0.951 . S
C1591 C1589 1.388 . S
C1591 C1592 1.366 . S
C1592 C1591 1.366 . S
C1592 C1593 1.414 . S
C1592 C1595 1.499 . S
C1593 H1567 0.950 . S
C1593 C1592 1.414 . S
C1593 C1594 1.374 . S
C1594 H1568 0.950 . S
C1594 C1590 1.385 . S
C1594 C1593 1.374 . S
C1595 C1592 1.499 . S
C1595 C1596 1.373 . S
C1595 C1597 1.389 . S
C1596 H1569 0.950 . S
C1596 C1582 1.377 . S
C1596 C1595 1.373 . S
C1597 C1581 1.377 . S
C1597 C1595 1.389 . S
C1597 C1598 1.524 . S
C1598 C1597 1.524 . S
C1598 C1599 1.397 . S
C1598 C1603 1.363 . S
C1599 H1570 0.950 . S
C1599 C1598 1.397 . S
C1599 C1600 1.334 . S
C1600 H1571 0.950 . S
C1600 C1599 1.334 . S
C1600 C1601 1.287 . S
C1601 C1600 1.287 . S
C1601 C1602 1.524 . S
C1601 H1604 0.999 . S
C1602 H1572 0.950 . S
C1602 C1601 1.524 . S
C1602 C1603 1.415 . S
C1603 H1573 0.950 . S
C1603 C1598 1.363 . S
C1603 C1602 1.415 . S
H1604 C1601 0.999 . S
H1605 C1586 0.913 . S
H1606 C1624 0.951 . S
H1607 C1626 0.951 . S
H1608 C1628 0.950 . S
H1609 C1629 0.950 . S
H1610 C1631 0.950 . S
H1611 C1634 0.950 . S
H1612 C1635 0.950 . S
H1613 C1637 0.950 . S
H1614 C1638 0.950 . S
H1615 C1639 0.951 . S
H1616 C1641 0.951 . S
H1617 C1643 0.950 . S
H1618 C1644 0.950 . S
H1619 C1646 0.950 . S
H1620 C1649 0.950 . S
H1621 C1650 0.950 . S
H1622 C1652 0.950 . S
H1623 C1653 0.950 . S
C1624 H1606 0.951 . S
C1624 C1625 1.366 . S
C1624 C1626 1.388 . S
C1625 C1624 1.366 . S
C1625 C1629 1.385 . S
C1626 H1607 0.951 . S
C1626 C1624 1.388 . S
C1626 C1627 1.366 . S
C1627 C1626 1.366 . S
C1627 C1628 1.414 . S
C1627 C1630 1.499 . S
C1628 H1608 0.950 . S
C1628 C1627 1.414 . S
C1628 C1629 1.374 . S
C1629 H1609 0.950 . S
C1629 C1625 1.385 . S
C1629 C1628 1.374 . S
C1630 C1627 1.499 . S
C1630 C1631 1.373 . S
C1630 C1632 1.389 . S
C1631 H1610 0.950 . S
C1631 C1630 1.373 . S
C1631 C1647 1.377 . S
C1632 C1630 1.389 . S
C1632 C1633 1.524 . S
C1632 C1646 1.377 . S
C1633 C1632 1.524 . S
C1633 C1634 1.397 . S
C1633 C1638 1.363 . S
C1634 H1611 0.950 . S
C1634 C1633 1.397 . S
C1634 C1635 1.334 . S
C1635 H1612 0.950 . S
C1635 C1634 1.334 . S
C1635 C1636 1.287 . S
C1636 C1635 1.287 . S
C1636 C1637 1.524 . S
C1636 H1655 0.913 . S
C1637 H1613 0.950 . S
C1637 C1636 1.524 . S
C1637 C1638 1.415 . S
C1638 H1614 0.950 . S
C1638 C1633 1.363 . S
C1638 C1637 1.415 . S
C1639 H1615 0.951 . S
C1639 C1640 1.366 . S
C1639 C1641 1.388 . S
C1640 C1639 1.366 . S
C1640 C1644 1.385 . S
C1641 H1616 0.951 . S
C1641 C1639 1.388 . S
C1641 C1642 1.366 . S
C1642 C1641 1.366 . S
C1642 C1643 1.414 . S
C1642 C1645 1.499 . S
C1643 H1617 0.950 . S
C1643 C1642 1.414 . S
C1643 C1644 1.374 . S
C1644 H1618 0.950 . S
C1644 C1640 1.385 . S
C1644 C1643 1.374 . S
C1645 C1642 1.499 . S
C1645 C1646 1.373 . S
C1645 C1647 1.389 . S
C1646 H1619 0.950 . S
C1646 C1632 1.377 . S
C1646 C1645 1.373 . S
C1647 C1631 1.377 . S
C1647 C1645 1.389 . S
C1647 C1648 1.524 . S
C1648 C1647 1.524 . S
C1648 C1649 1.397 . S
C1648 C1653 1.363 . S
C1649 H1620 0.950 . S
C1649 C1648 1.397 . S
C1649 C1650 1.334 1_655 S
C1650 H1621 0.950 . S
C1650 C1649 1.334 1_455 S
C1650 C1651 1.287 . S
C1651 C1650 1.287 . S
C1651 C1652 1.524 . S
C1651 H1654 0.999 . S
C1652 H1622 0.950 . S
C1652 C1651 1.524 . S
C1652 C1653 1.415 1_455 S
C1653 H1623 0.950 . S
C1653 C1648 1.363 . S
C1653 C1652 1.415 1_655 S
H1654 C1651 0.999 . S
H1655 C1636 0.913 . S
H1656 C1674 0.951 . S
H1657 C1676 0.951 . S
H1658 C1678 0.950 . S
H1659 C1679 0.950 . S
H1660 C1681 0.950 . S
H1661 C1684 0.950 . S
H1662 C1685 0.950 . S
H1663 C1687 0.950 . S
H1664 C1688 0.950 . S
H1665 C1689 0.951 . S
H1666 C1691 0.951 . S
H1667 C1693 0.950 . S
H1668 C1694 0.950 . S
H1669 C1696 0.950 . S
H1670 C1699 0.950 . S
H1671 C1700 0.950 . S
H1672 C1702 0.950 . S
H1673 C1703 0.950 . S
C1674 H1656 0.951 . S
C1674 C1675 1.366 . S
C1674 C1676 1.388 . S
C1675 C1674 1.366 . S
C1675 C1679 1.385 . S
C1676 H1657 0.951 . S
C1676 C1674 1.388 . S
C1676 C1677 1.366 . S
C1677 C1676 1.366 . S
C1677 C1678 1.414 . S
C1677 C1680 1.499 . S
C1678 H1658 0.950 . S
C1678 C1677 1.414 . S
C1678 C1679 1.374 . S
C1679 H1659 0.950 . S
C1679 C1675 1.385 . S
C1679 C1678 1.374 . S
C1680 C1677 1.499 . S
C1680 C1681 1.373 . S
C1680 C1682 1.389 . S
C1681 H1660 0.950 . S
C1681 C1680 1.373 . S
C1681 C1697 1.377 . S
C1682 C1680 1.389 . S
C1682 C1683 1.524 . S
C1682 C1696 1.377 . S
C1683 C1682 1.524 . S
C1683 C1684 1.397 . S
C1683 C1688 1.363 . S
C1684 H1661 0.950 . S
C1684 C1683 1.397 . S
C1684 C1685 1.334 . S
C1685 H1662 0.950 . S
C1685 C1684 1.334 . S
C1685 C1686 1.287 . S
C1686 C1685 1.287 . S
C1686 C1687 1.524 . S
C1686 H1705 0.913 . S
C1687 H1663 0.950 . S
C1687 C1686 1.524 . S
C1687 C1688 1.415 . S
C1688 H1664 0.950 . S
C1688 C1683 1.363 . S
C1688 C1687 1.415 . S
C1689 H1665 0.951 . S
C1689 C1690 1.366 . S
C1689 C1691 1.388 . S
C1690 C1689 1.366 . S
C1690 C1694 1.385 . S
C1691 H1666 0.951 . S
C1691 C1689 1.388 . S
C1691 C1692 1.366 . S
C1692 C1691 1.366 . S
C1692 C1693 1.414 . S
C1692 C1695 1.499 . S
C1693 H1667 0.950 . S
C1693 C1692 1.414 . S
C1693 C1694 1.374 . S
C1694 H1668 0.950 . S
C1694 C1690 1.385 . S
C1694 C1693 1.374 . S
C1695 C1692 1.499 . S
C1695 C1696 1.373 . S
C1695 C1697 1.389 . S
C1696 H1669 0.950 . S
C1696 C1682 1.377 . S
C1696 C1695 1.373 . S
C1697 C1681 1.377 . S
C1697 C1695 1.389 . S
C1697 C1698 1.524 . S
C1698 C1697 1.524 . S
C1698 C1699 1.397 1_655 S
C1698 C1703 1.363 . S
C1699 H1670 0.950 . S
C1699 C1698 1.397 1_455 S
C1699 C1700 1.334 . S
C1700 H1671 0.950 . S
C1700 C1699 1.334 . S
C1700 C1701 1.287 . S
C1701 C1700 1.287 . S
C1701 C1702 1.524 . S
C1701 H1704 0.999 . S
C1702 H1672 0.950 . S
C1702 C1701 1.524 . S
C1702 C1703 1.415 1_455 S
C1703 H1673 0.950 . S
C1703 C1698 1.363 . S
C1703 C1702 1.415 1_655 S
H1704 C1701 0.999 . S
H1705 C1686 0.913 . S
H1706 C1724 0.951 . S
H1707 C1726 0.951 . S
H1708 C1728 0.950 . S
H1709 C1729 0.950 . S
H1710 C1731 0.950 . S
H1711 C1734 0.950 . S
H1712 C1735 0.950 . S
H1713 C1737 0.950 . S
H1714 C1738 0.950 . S
H1715 C1739 0.951 . S
H1716 C1741 0.951 . S
H1717 C1743 0.950 . S
H1718 C1744 0.950 . S
H1719 C1746 0.950 . S
H1720 C1749 0.950 . S
H1721 C1750 0.950 . S
H1722 C1752 0.950 . S
H1723 C1753 0.950 . S
C1724 H1706 0.951 . S
C1724 C1725 1.366 . S
C1724 C1726 1.388 . S
C1725 C1724 1.366 . S
C1725 C1729 1.385 . S
C1726 H1707 0.951 . S
C1726 C1724 1.388 . S
C1726 C1727 1.366 . S
C1727 C1726 1.366 . S
C1727 C1728 1.414 . S
C1727 C1730 1.499 . S
C1728 H1708 0.950 . S
C1728 C1727 1.414 . S
C1728 C1729 1.374 . S
C1729 H1709 0.950 . S
C1729 C1725 1.385 . S
C1729 C1728 1.374 . S
C1730 C1727 1.499 . S
C1730 C1731 1.373 . S
C1730 C1732 1.389 . S
C1731 H1710 0.950 . S
C1731 C1730 1.373 . S
C1731 C1747 1.377 . S
C1732 C1730 1.389 . S
C1732 C1733 1.524 . S
C1732 C1746 1.377 . S
C1733 C1732 1.524 . S
C1733 C1734 1.397 . S
C1733 C1738 1.363 . S
C1734 H1711 0.950 . S
C1734 C1733 1.397 . S
C1734 C1735 1.334 . S
C1735 H1712 0.950 . S
C1735 C1734 1.334 . S
C1735 C1736 1.287 . S
C1736 C1735 1.287 . S
C1736 C1737 1.524 . S
C1736 H1755 0.913 . S
C1737 H1713 0.950 . S
C1737 C1736 1.524 . S
C1737 C1738 1.415 . S
C1738 H1714 0.950 . S
C1738 C1733 1.363 . S
C1738 C1737 1.415 . S
C1739 H1715 0.951 . S
C1739 C1740 1.366 . S
C1739 C1741 1.388 . S
C1740 C1739 1.366 . S
C1740 C1744 1.385 . S
C1741 H1716 0.951 . S
C1741 C1739 1.388 . S
C1741 C1742 1.366 . S
C1742 C1741 1.366 . S
C1742 C1743 1.414 . S
C1742 C1745 1.499 . S
C1743 H1717 0.950 . S
C1743 C1742 1.414 . S
C1743 C1744 1.374 . S
C1744 H1718 0.950 . S
C1744 C1740 1.385 . S
C1744 C1743 1.374 . S
C1745 C1742 1.499 . S
C1745 C1746 1.373 . S
C1745 C1747 1.389 . S
C1746 H1719 0.950 . S
C1746 C1732 1.377 . S
C1746 C1745 1.373 . S
C1747 C1731 1.377 . S
C1747 C1745 1.389 . S
C1747 C1748 1.524 . S
C1748 C1747 1.524 . S
C1748 C1749 1.397 . S
C1748 C1753 1.363 . S
C1749 H1720 0.950 . S
C1749 C1748 1.397 . S
C1749 C1750 1.334 . S
C1750 H1721 0.950 . S
C1750 C1749 1.334 . S
C1750 C1751 1.287 . S
C1751 C1750 1.287 . S
C1751 C1752 1.524 . S
C1751 H1754 0.999 . S
C1752 H1722 0.950 . S
C1752 C1751 1.524 . S
C1752 C1753 1.415 . S
C1753 H1723 0.950 . S
C1753 C1748 1.363 . S
C1753 C1752 1.415 . S
H1754 C1751 0.999 . S
H1755 C1736 0.913 . S
H1756 C1774 0.951 . S
H1757 C1776 0.951 . S
H1758 C1778 0.950 . S
H1759 C1779 0.950 . S
H1760 C1781 0.950 . S
H1761 C1784 0.950 . S
H1762 C1785 0.950 . S
H1763 C1787 0.950 . S
H1764 C1788 0.950 . S
H1765 C1789 0.951 . S
H1766 C1791 0.951 . S
H1767 C1793 0.950 . S
H1768 C1794 0.950 . S
H1769 C1796 0.950 . S
H1770 C1799 0.950 . S
H1771 C1800 0.950 . S
H1772 C1802 0.950 . S
H1773 C1803 0.950 . S
C1774 H1756 0.951 . S
C1774 C1775 1.366 . S
C1774 C1776 1.388 . S
C1775 C1774 1.366 . S
C1775 C1779 1.385 . S
C1776 H1757 0.951 . S
C1776 C1774 1.388 . S
C1776 C1777 1.366 . S
C1777 C1776 1.366 . S
C1777 C1778 1.414 . S
C1777 C1780 1.499 . S
C1778 H1758 0.950 . S
C1778 C1777 1.414 . S
C1778 C1779 1.374 . S
C1779 H1759 0.950 . S
C1779 C1775 1.385 . S
C1779 C1778 1.374 . S
C1780 C1777 1.499 . S
C1780 C1781 1.373 . S
C1780 C1782 1.389 . S
C1781 H1760 0.950 . S
C1781 C1780 1.373 . S
C1781 C1797 1.377 . S
C1782 C1780 1.389 . S
C1782 C1783 1.524 . S
C1782 C1796 1.377 . S
C1783 C1782 1.524 . S
C1783 C1784 1.397 . S
C1783 C1788 1.363 . S
C1784 H1761 0.950 . S
C1784 C1783 1.397 . S
C1784 C1785 1.334 . S
C1785 H1762 0.950 . S
C1785 C1784 1.334 . S
C1785 C1786 1.287 . S
C1786 C1785 1.287 . S
C1786 C1787 1.524 . S
C1786 H1805 0.913 . S
C1787 H1763 0.950 . S
C1787 C1786 1.524 . S
C1787 C1788 1.415 . S
C1788 H1764 0.950 . S
C1788 C1783 1.363 . S
C1788 C1787 1.415 . S
C1789 H1765 0.951 . S
C1789 C1790 1.366 . S
C1789 C1791 1.388 . S
C1790 C1789 1.366 . S
C1790 C1794 1.385 . S
C1791 H1766 0.951 . S
C1791 C1789 1.388 . S
C1791 C1792 1.366 . S
C1792 C1791 1.366 . S
C1792 C1793 1.414 . S
C1792 C1795 1.499 . S
C1793 H1767 0.950 . S
C1793 C1792 1.414 . S
C1793 C1794 1.374 . S
C1794 H1768 0.950 . S
C1794 C1790 1.385 . S
C1794 C1793 1.374 . S
C1795 C1792 1.499 . S
C1795 C1796 1.373 . S
C1795 C1797 1.389 . S
C1796 H1769 0.950 . S
C1796 C1782 1.377 . S
C1796 C1795 1.373 . S
C1797 C1781 1.377 . S
C1797 C1795 1.389 . S
C1797 C1798 1.524 . S
C1798 C1797 1.524 . S
C1798 C1799 1.397 . S
C1798 C1803 1.363 . S
C1799 H1770 0.950 . S
C1799 C1798 1.397 . S
C1799 C1800 1.334 . S
C1800 H1771 0.950 . S
C1800 C1799 1.334 . S
C1800 C1801 1.287 . S
C1801 C1800 1.287 . S
C1801 C1802 1.524 . S
C1801 H1804 0.999 . S
C1802 H1772 0.950 . S
C1802 C1801 1.524 . S
C1802 C1803 1.415 . S
C1803 H1773 0.950 . S
C1803 C1798 1.363 . S
C1803 C1802 1.415 . S
H1804 C1801 0.999 . S
H1805 C1786 0.913 . S
H1806 C1824 0.951 . S
H1807 C1826 0.951 . S
H1808 C1828 0.950 . S
H1809 C1829 0.950 . S
H1810 C1831 0.950 . S
H1811 C1834 0.950 . S
H1812 C1835 0.950 . S
H1813 C1837 0.950 . S
H1814 C1838 0.950 . S
H1815 C1839 0.951 . S
H1816 C1841 0.951 . S
H1817 C1843 0.950 . S
H1818 C1844 0.950 . S
H1819 C1846 0.950 . S
H1820 C1849 0.950 . S
H1821 C1850 0.950 . S
H1822 C1852 0.950 . S
H1823 C1853 0.950 . S
C1824 H1806 0.951 . S
C1824 C1825 1.366 . S
C1824 C1826 1.388 . S
C1825 C1824 1.366 . S
C1825 C1829 1.385 . S
C1826 H1807 0.951 . S
C1826 C1824 1.388 . S
C1826 C1827 1.366 . S
C1827 C1826 1.366 . S
C1827 C1828 1.414 . S
C1827 C1830 1.499 . S
C1828 H1808 0.950 . S
C1828 C1827 1.414 . S
C1828 C1829 1.374 . S
C1829 H1809 0.950 . S
C1829 C1825 1.385 . S
C1829 C1828 1.374 . S
C1830 C1827 1.499 . S
C1830 C1831 1.373 . S
C1830 C1832 1.389 . S
C1831 H1810 0.950 . S
C1831 C1830 1.373 . S
C1831 C1847 1.377 . S
C1832 C1830 1.389 . S
C1832 C1833 1.524 . S
C1832 C1846 1.377 . S
C1833 C1832 1.524 . S
C1833 C1834 1.397 . S
C1833 C1838 1.363 . S
C1834 H1811 0.950 . S
C1834 C1833 1.397 . S
C1834 C1835 1.334 . S
C1835 H1812 0.950 . S
C1835 C1834 1.334 . S
C1835 C1836 1.287 . S
C1836 C1835 1.287 . S
C1836 C1837 1.524 . S
C1836 H1855 0.913 . S
C1837 H1813 0.950 . S
C1837 C1836 1.524 . S
C1837 C1838 1.415 . S
C1838 H1814 0.950 . S
C1838 C1833 1.363 . S
C1838 C1837 1.415 . S
C1839 H1815 0.951 . S
C1839 C1840 1.366 . S
C1839 C1841 1.388 . S
C1840 C1839 1.366 . S
C1840 C1844 1.385 . S
C1841 H1816 0.951 . S
C1841 C1839 1.388 . S
C1841 C1842 1.366 . S
C1842 C1841 1.366 . S
C1842 C1843 1.414 . S
C1842 C1845 1.499 . S
C1843 H1817 0.950 . S
C1843 C1842 1.414 . S
C1843 C1844 1.374 . S
C1844 H1818 0.950 . S
C1844 C1840 1.385 . S
C1844 C1843 1.374 . S
C1845 C1842 1.499 . S
C1845 C1846 1.373 . S
C1845 C1847 1.389 . S
C1846 H1819 0.950 . S
C1846 C1832 1.377 . S
C1846 C1845 1.373 . S
C1847 C1831 1.377 . S
C1847 C1845 1.389 . S
C1847 C1848 1.524 . S
C1848 C1847 1.524 . S
C1848 C1849 1.397 . S
C1848 C1853 1.363 . S
C1849 H1820 0.950 . S
C1849 C1848 1.397 . S
C1849 C1850 1.334 . S
C1850 H1821 0.950 . S
C1850 C1849 1.334 . S
C1850 C1851 1.287 . S
C1851 C1850 1.287 . S
C1851 C1852 1.524 . S
C1851 H1854 0.999 . S
C1852 H1822 0.950 . S
C1852 C1851 1.524 . S
C1852 C1853 1.415 . S
C1853 H1823 0.950 . S
C1853 C1848 1.363 . S
C1853 C1852 1.415 . S
H1854 C1851 0.999 . S
H1855 C1836 0.913 . S
C675 C242 1.458 . S
C690 C394 1.473 . S
C740 C478 1.470 . S
C725 C301 1.486 . S
C790 C471 1.479 . S
C775 C162 1.450 . S
C825 C221 1.479 . S
C840 C387 1.476 . S
C890 C551 1.472 . S
C875 C82 1.483 . S
C940 C635 1.471 . S
C925 C141 1.464 . S
C975 C2 1.476 . S
C990 C628 1.478 . S
C1025 C61 1.453 . S
C1040 C544 1.476 . S
C1090 C378 1.353 . S
C1075 C42 1.503 1_554 S
C1140 C462 1.353 . S
C1125 C21 1.530 . S
C1190 C473 1.408 . S
C1175 C122 1.526 1_556 S
C1240 C389 1.409 . S
C1225 C101 1.551 . S
C1290 C557 1.354 . S
C1275 C202 1.513 1_556 S
C1325 C181 1.500 . S
C1340 C641 1.351 . S
C1390 C630 1.409 . S
C1375 C282 1.549 1_554 S
C1425 C261 1.522 . S
C1440 C546 1.409 . S
C1490 C376 1.619 . S
C1475 C15 1.614 . S
C1540 C460 1.606 . S
C1525 C55 1.600 . S
C1575 C95 1.603 . S
C1590 C467 1.595 . S
C1640 C383 1.583 . S
C1625 C135 1.591 . S
C1690 C555 1.619 . S
C1675 C175 1.612 . S
C1725 C215 1.603 . S
C1740 C639 1.605 . S
C1775 C255 1.600 . S
C1790 C646 1.595 . S
C1825 C295 1.593 . S
C1840 C562 1.583 . S
