# Generated by pormake.
# Topology ocu, (6,8)-cn, num edge types: 1
# Building blocks:
#     Node 0, Type 0, BuildingBlock: NUHQIS_clean_sbu_0, # of connection points: 6
#     Node 1, Type 0, BuildingBlock: NUHQIS_clean_sbu_0, # of connection points: 6
#     Node 2, Type 0, BuildingBlock: NUHQIS_clean_sbu_0, # of connection points: 6
#     Node 3, Type 0, BuildingBlock: NUHQIS_clean_sbu_0, # of connection points: 6
#     Node 4, Type 0, BuildingBlock: NUHQIS_clean_sbu_0, # of connection points: 6
#     Node 5, Type 0, BuildingBlock: NUHQIS_clean_sbu_0, # of connection points: 6
#     Node 6, Type 0, BuildingBlock: NUHQIS_clean_sbu_0, # of connection points: 6
#     Node 7, Type 0, BuildingBlock: NUHQIS_clean_sbu_0, # of connection points: 6
#     Node 8, Type 1, BuildingBlock: VETTIZ_charged_sbu_0, # of connection points: 8
#     Node 9, Type 1, BuildingBlock: VETTIZ_charged_sbu_0, # of connection points: 8
#     Node 10, Type 1, BuildingBlock: VETTIZ_charged_sbu_0, # of connection points: 8
#     Node 11, Type 1, BuildingBlock: VETTIZ_charged_sbu_0, # of connection points: 8
#     Node 12, Type 1, BuildingBlock: VETTIZ_charged_sbu_0, # of connection points: 8
#     Node 13, Type 1, BuildingBlock: VETTIZ_charged_sbu_0, # of connection points: 8
#     Edge 14, Type (0, 1), BuildingBlock: KIFKEQ_clean_linker_1, # of connection points: 2
#     Edge 15, Type (0, 1), BuildingBlock: KIFKEQ_clean_linker_1, # of connection points: 2
#     Edge 16, Type (0, 1), BuildingBlock: KIFKEQ_clean_linker_1, # of connection points: 2
#     Edge 17, Type (0, 1), BuildingBlock: KIFKEQ_clean_linker_1, # of connection points: 2
#     Edge 18, Type (0, 1), BuildingBlock: KIFKEQ_clean_linker_1, # of connection points: 2
#     Edge 19, Type (0, 1), BuildingBlock: KIFKEQ_clean_linker_1, # of connection points: 2
#     Edge 20, Type (0, 1), BuildingBlock: KIFKEQ_clean_linker_1, # of connection points: 2
#     Edge 21, Type (0, 1), BuildingBlock: KIFKEQ_clean_linker_1, # of connection points: 2
#     Edge 22, Type (0, 1), BuildingBlock: KIFKEQ_clean_linker_1, # of connection points: 2
#     Edge 23, Type (0, 1), BuildingBlock: KIFKEQ_clean_linker_1, # of connection points: 2
#     Edge 24, Type (0, 1), BuildingBlock: KIFKEQ_clean_linker_1, # of connection points: 2
#     Edge 25, Type (0, 1), BuildingBlock: KIFKEQ_clean_linker_1, # of connection points: 2
#     Edge 26, Type (0, 1), BuildingBlock: KIFKEQ_clean_linker_1, # of connection points: 2
#     Edge 27, Type (0, 1), BuildingBlock: KIFKEQ_clean_linker_1, # of connection points: 2
#     Edge 28, Type (0, 1), BuildingBlock: KIFKEQ_clean_linker_1, # of connection points: 2
#     Edge 29, Type (0, 1), BuildingBlock: KIFKEQ_clean_linker_1, # of connection points: 2
#     Edge 30, Type (0, 1), BuildingBlock: KIFKEQ_clean_linker_1, # of connection points: 2
#     Edge 31, Type (0, 1), BuildingBlock: KIFKEQ_clean_linker_1, # of connection points: 2
#     Edge 32, Type (0, 1), BuildingBlock: KIFKEQ_clean_linker_1, # of connection points: 2
#     Edge 33, Type (0, 1), BuildingBlock: KIFKEQ_clean_linker_1, # of connection points: 2
#     Edge 34, Type (0, 1), BuildingBlock: KIFKEQ_clean_linker_1, # of connection points: 2
#     Edge 35, Type (0, 1), BuildingBlock: KIFKEQ_clean_linker_1, # of connection points: 2
#     Edge 36, Type (0, 1), BuildingBlock: KIFKEQ_clean_linker_1, # of connection points: 2
#     Edge 37, Type (0, 1), BuildingBlock: KIFKEQ_clean_linker_1, # of connection points: 2
#     Edge 38, Type (0, 1), BuildingBlock: KIFKEQ_clean_linker_1, # of connection points: 2
#     Edge 39, Type (0, 1), BuildingBlock: KIFKEQ_clean_linker_1, # of connection points: 2
#     Edge 40, Type (0, 1), BuildingBlock: KIFKEQ_clean_linker_1, # of connection points: 2
#     Edge 41, Type (0, 1), BuildingBlock: KIFKEQ_clean_linker_1, # of connection points: 2
#     Edge 42, Type (0, 1), BuildingBlock: KIFKEQ_clean_linker_1, # of connection points: 2
#     Edge 43, Type (0, 1), BuildingBlock: KIFKEQ_clean_linker_1, # of connection points: 2
#     Edge 44, Type (0, 1), BuildingBlock: KIFKEQ_clean_linker_1, # of connection points: 2
#     Edge 45, Type (0, 1), BuildingBlock: KIFKEQ_clean_linker_1, # of connection points: 2
#     Edge 46, Type (0, 1), BuildingBlock: KIFKEQ_clean_linker_1, # of connection points: 2
#     Edge 47, Type (0, 1), BuildingBlock: KIFKEQ_clean_linker_1, # of connection points: 2
#     Edge 48, Type (0, 1), BuildingBlock: KIFKEQ_clean_linker_1, # of connection points: 2
#     Edge 49, Type (0, 1), BuildingBlock: KIFKEQ_clean_linker_1, # of connection points: 2
#     Edge 50, Type (0, 1), BuildingBlock: KIFKEQ_clean_linker_1, # of connection points: 2
#     Edge 51, Type (0, 1), BuildingBlock: KIFKEQ_clean_linker_1, # of connection points: 2
#     Edge 52, Type (0, 1), BuildingBlock: KIFKEQ_clean_linker_1, # of connection points: 2
#     Edge 53, Type (0, 1), BuildingBlock: KIFKEQ_clean_linker_1, # of connection points: 2
#     Edge 54, Type (0, 1), BuildingBlock: KIFKEQ_clean_linker_1, # of connection points: 2
#     Edge 55, Type (0, 1), BuildingBlock: KIFKEQ_clean_linker_1, # of connection points: 2
#     Edge 56, Type (0, 1), BuildingBlock: KIFKEQ_clean_linker_1, # of connection points: 2
#     Edge 57, Type (0, 1), BuildingBlock: KIFKEQ_clean_linker_1, # of connection points: 2
#     Edge 58, Type (0, 1), BuildingBlock: KIFKEQ_clean_linker_1, # of connection points: 2
#     Edge 59, Type (0, 1), BuildingBlock: KIFKEQ_clean_linker_1, # of connection points: 2
#     Edge 60, Type (0, 1), BuildingBlock: KIFKEQ_clean_linker_1, # of connection points: 2
#     Edge 61, Type (0, 1), BuildingBlock: KIFKEQ_clean_linker_1, # of connection points: 2
# Relax obj value: 0.131
# Max RMSD: 0.210
# Mean RMSD: 0.130
data_MOF--net-ocu--node1-NUHQIS_clean_sbu_0--node2-VETTIZ_charged_sbu_0--edge1-KIFKEQ_clean_linker_1
_symmetry_space_group_name_H-M    P1
_symmetry_Int_Tables_number       1
_symmetry_cell_setting            triclinic
loop_
_symmetry_equiv_pos_as_xyz
'x, y, z'
_cell_length_a     40.00515
_cell_length_b     41.659855
_cell_length_c     41.675768
_cell_angle_alpha  96.292766
_cell_angle_beta   86.207516
_cell_angle_gamma 103.67381
loop_
_atom_site_label
_atom_site_type_symbol
_atom_site_fract_x
_atom_site_fract_y
_atom_site_fract_z
_atom_type_partial_charge
Tb0 Tb 0.26236 0.27034 0.26298 0.0
Eu1 Eu 0.31718 0.30234 0.31257 0.0
C2 C 0.33496 0.24184 0.25217 0.0
C3 C 0.26165 0.23574 0.32686 0.0
C4 C 0.18387 0.25462 0.21604 0.0
C5 C 0.14169 0.25083 0.17596 0.0
C6 C 0.16584 0.23744 0.18934 0.0
C7 C 0.1758 0.28378 0.23082 0.0
C8 C 0.1519 0.2972 0.21752 0.0
C9 C 0.13574 0.28167 0.18906 0.0
C10 C 0.21294 0.24377 0.22683 0.0
O11 O 0.23518 0.30919 0.29341 0.0
O12 O 0.27542 0.3343 0.32965 0.0
O13 O 0.32803 0.33993 0.27687 0.0
O14 O 0.2955 0.30963 0.23617 0.0
C15 C 0.24399 0.33223 0.31901 0.0
O16 O 0.33293 0.32879 0.35915 0.0
O17 O 0.37104 0.31416 0.32549 0.0
O18 O 0.34487 0.26359 0.27832 0.0
O19 O 0.3029 0.24049 0.24303 0.0
O20 O 0.25727 0.23173 0.29572 0.0
O21 O 0.28176 0.26282 0.3397 0.0
C22 C 0.31919 0.33563 0.24686 0.0
O23 O 0.24311 0.25945 0.21636 0.0
O24 O 0.21242 0.24086 0.25759 0.0
C25 C 0.37614 0.30961 0.38001 0.0
C26 C 0.40051 0.27556 0.42428 0.0
C27 C 0.41783 0.30823 0.41901 0.0
C28 C 0.40562 0.32522 0.39692 0.0
C29 C 0.35826 0.27751 0.38601 0.0
C30 C 0.37026 0.26065 0.408 0.0
C31 C 0.36448 0.32563 0.35494 0.0
H32 H 0.12931 0.23813 0.15426 0.0
H33 H 0.17167 0.21464 0.17792 0.0
H34 H 0.18939 0.29726 0.25154 0.0
H35 H 0.14848 0.3212 0.22808 0.0
H36 H 0.44119 0.32023 0.43133 0.0
H37 H 0.4196 0.35007 0.39244 0.0
H38 H 0.33561 0.26505 0.37289 0.0
H39 H 0.35679 0.23527 0.41095 0.0
Tb40 Tb 0.81606 0.26496 0.30348 0.0
Eu41 Eu 0.76815 0.31813 0.30222 0.0
C42 C 0.75665 0.25118 0.25781 0.0
C43 C 0.83783 0.32149 0.25657 0.0
C44 C 0.84644 0.19763 0.33059 0.0
C45 C 0.85835 0.14806 0.34794 0.0
C46 C 0.86107 0.17013 0.32447 0.0
C47 C 0.82843 0.20259 0.36009 0.0
C48 C 0.82568 0.18057 0.38356 0.0
C49 C 0.84085 0.15322 0.37782 0.0
C50 C 0.84808 0.22017 0.30571 0.0
O51 O 0.82238 0.29401 0.34998 0.0
O52 O 0.80831 0.34139 0.3373 0.0
O53 O 0.74993 0.29261 0.34758 0.0
O54 O 0.76865 0.24509 0.33198 0.0
C55 C 0.82103 0.32516 0.35676 0.0
O56 O 0.76116 0.36616 0.29139 0.0
O57 O 0.71819 0.33038 0.31071 0.0
O58 O 0.74101 0.2701 0.27723 0.0
O59 O 0.78991 0.25473 0.25841 0.0
O60 O 0.84868 0.30464 0.27713 0.0
O61 O 0.80542 0.32393 0.25812 0.0
C62 C 0.74944 0.26152 0.35117 0.0
O63 O 0.81959 0.2158 0.29069 0.0
O64 O 0.86115 0.2515 0.31428 0.0
C65 C 0.70578 0.36134 0.27153 0.0
C66 C 0.66153 0.36252 0.22214 0.0
C67 C 0.69703 0.36585 0.21533 0.0
C68 C 0.71892 0.36507 0.23974 0.0
C69 C 0.67042 0.35808 0.27844 0.0
C70 C 0.64844 0.35852 0.25396 0.0
C71 C 0.72788 0.35795 0.29712 0.0
H72 H 0.87084 0.12753 0.34306 0.0
H73 H 0.87472 0.16583 0.30166 0.0
H74 H 0.81655 0.22354 0.36498 0.0
H75 H 0.81192 0.18506 0.40626 0.0
H76 H 0.70808 0.3697 0.19123 0.0
H77 H 0.74606 0.36722 0.23363 0.0
H78 H 0.65973 0.35471 0.30275 0.0
H79 H 0.6212 0.35564 0.25993 0.0
Tb80 Tb 0.77423 0.77489 0.30125 0.0
Eu81 Eu 0.83405 0.7886 0.25006 0.0
C82 C 0.76965 0.7288 0.23795 0.0
C83 C 0.84104 0.73935 0.30902 0.0
C84 C 0.70632 0.78139 0.36491 0.0
C85 C 0.66263 0.78383 0.40758 0.0
C86 C 0.67884 0.76532 0.38427 0.0
C87 C 0.71733 0.81602 0.36862 0.0
C88 C 0.70137 0.83447 0.39199 0.0
C89 C 0.67412 0.81852 0.41187 0.0
C90 C 0.72524 0.76191 0.34276 0.0
O91 O 0.80364 0.82367 0.31972 0.0
O92 O 0.85418 0.81583 0.2968 0.0
O93 O 0.7986 0.82265 0.23404 0.0
O94 O 0.7517 0.80523 0.26711 0.0
C95 C 0.83731 0.831 0.31895 0.0
O96 O 0.87709 0.82491 0.2304 0.0
O97 O 0.86504 0.7737 0.20898 0.0
O98 O 0.79086 0.75274 0.22425 0.0
O99 O 0.76769 0.7294 0.26933 0.0
O100 O 0.8126 0.74888 0.32175 0.0
O101 O 0.85169 0.74915 0.27957 0.0
C102 C 0.76571 0.82326 0.2423 0.0
O103 O 0.72087 0.76196 0.31208 0.0
O104 O 0.75758 0.7666 0.34882 0.0
C105 C 0.92328 0.80038 0.213 0.0
C106 C 0.98895 0.78623 0.20785 0.0
C107 C 0.98262 0.81278 0.19265 0.0
C108 C 0.94977 0.81937 0.19474 0.0
C109 C 0.93078 0.77742 0.2319 0.0
C110 C 0.96308 0.77022 0.22924 0.0
C111 C 0.88742 0.80231 0.21063 0.0
H112 H 0.64161 0.77108 0.4226 0.0
H113 H 0.67034 0.7385 0.3817 0.0
H114 H 0.73863 0.82868 0.35381 0.0
H115 H 0.71019 0.86126 0.39438 0.0
H116 H 1.00216 0.827 0.17729 0.0
H117 H 0.94464 0.83802 0.1808 0.0
H118 H 0.91088 0.76311 0.2469 0.0
H119 H 0.96612 0.74978 0.24177 0.0
Tb120 Tb 0.31997 0.76709 0.31117 0.0
Eu121 Eu 0.26929 0.8138 0.2953 0.0
C122 C 0.32639 0.83858 0.34813 0.0
C123 C 0.24862 0.76147 0.34689 0.0
C124 C 0.38312 0.71913 0.2965 0.0
C125 C 0.43916 0.72328 0.26904 0.0
C126 C 0.41918 0.72827 0.29708 0.0
C127 C 0.36737 0.70282 0.26819 0.0
C128 C 0.38725 0.69782 0.24032 0.0
C129 C 0.4232 0.70917 0.24016 0.0
C130 C 0.36275 0.73452 0.32142 0.0
O131 O 0.28586 0.7335 0.27633 0.0
O132 O 0.25439 0.76817 0.25993 0.0
O133 O 0.32129 0.83158 0.27131 0.0
O134 O 0.33611 0.78168 0.26343 0.0
C135 C 0.26295 0.73934 0.25766 0.0
O136 O 0.24552 0.83462 0.25908 0.0
O137 O 0.23987 0.85086 0.31003 0.0
O138 O 0.29449 0.83779 0.34186 0.0
O139 O 0.34258 0.81731 0.33236 0.0
O140 O 0.28165 0.76508 0.35034 0.0
O141 O 0.23703 0.77395 0.3235 0.0
C142 C 0.33928 0.81184 0.25573 0.0
O143 O 0.37008 0.76674 0.3223 0.0
O144 O 0.32952 0.72215 0.32255 0.0
C145 C 0.19462 0.85206 0.27718 0.0
C146 C 0.12907 0.86605 0.28368 0.0
C147 C 0.15356 0.88086 0.26065 0.0
C148 C 0.18629 0.87414 0.25771 0.0
C149 C 0.16879 0.83368 0.29665 0.0
C150 C 0.13623 0.84063 0.29991 0.0
C151 C 0.23094 0.85246 0.28079 0.0
H152 H 0.46689 0.73193 0.26954 0.0
H153 H 0.43176 0.74145 0.31852 0.0
H154 H 0.33961 0.69585 0.26687 0.0
H155 H 0.37437 0.68587 0.2186 0.0
H156 H 0.14858 0.89993 0.24719 0.0
H157 H 0.20585 0.88815 0.24212 0.0
H158 H 0.17463 0.81608 0.3115 0.0
H159 H 0.11816 0.82859 0.31785 0.0
Tb160 Tb 0.31229 0.76474 0.78308 0.0
Eu161 Eu 0.26127 0.8142 0.80257 0.0
C162 C 0.23974 0.75253 0.74574 0.0
C163 C 0.31524 0.82443 0.74321 0.0
C164 C 0.37365 0.71392 0.78958 0.0
C165 C 0.38288 0.69938 0.8425 0.0
C166 C 0.36211 0.70887 0.82154 0.0
C167 C 0.40631 0.70941 0.77883 0.0
C168 C 0.4273 0.70006 0.79992 0.0
C169 C 0.41587 0.69522 0.83207 0.0
C170 C 0.35306 0.72706 0.7687 0.0
O171 O 0.33742 0.79415 0.82675 0.0
O172 O 0.30923 0.83651 0.83262 0.0
O173 O 0.24654 0.77884 0.84082 0.0
O174 O 0.28115 0.74269 0.82337 0.0
C175 C 0.33442 0.82362 0.84062 0.0
O176 O 0.25908 0.86621 0.81074 0.0
O177 O 0.21204 0.82795 0.8138 0.0
O178 O 0.22933 0.7739 0.76766 0.0
O179 O 0.27175 0.7484 0.74587 0.0
O180 O 0.33315 0.80827 0.75767 0.0
O181 O 0.28342 0.82394 0.75266 0.0
C182 C 0.25745 0.75189 0.84324 0.0
O183 O 0.31976 0.71645 0.77197 0.0
O184 O 0.36187 0.75908 0.76798 0.0
C185 C 0.21257 0.87309 0.78415 0.0
C186 C 0.20182 0.90228 0.72907 0.0
C187 C 0.20652 0.9213 0.7592 0.0
C188 C 0.21198 0.90678 0.78657 0.0
C189 C 0.20701 0.85398 0.75428 0.0
C190 C 0.20172 0.86839 0.72707 0.0
C191 C 0.22558 0.85923 0.81034 0.0
H192 H 0.37296 0.69518 0.86688 0.0
H193 H 0.33719 0.71272 0.83049 0.0
H194 H 0.41581 0.71377 0.75436 0.0
H195 H 0.45267 0.69724 0.79126 0.0
H196 H 0.20641 0.94742 0.76151 0.0
H197 H 0.21702 0.92207 0.80927 0.0
H198 H 0.20838 0.82816 0.75156 0.0
H199 H 0.19883 0.85316 0.70417 0.0
Tb200 Tb 0.2701 0.29213 0.76996 0.0
Eu201 Eu 0.27447 0.23667 0.82193 0.0
C202 C 0.33232 0.30546 0.81657 0.0
C203 C 0.32032 0.24202 0.75484 0.0
C204 C 0.23799 0.35016 0.72157 0.0
C205 C 0.2062 0.39369 0.73347 0.0
C206 C 0.2266 0.37383 0.74361 0.0
C207 C 0.22754 0.34597 0.68961 0.0
C208 C 0.20713 0.36569 0.67951 0.0
C209 C 0.19682 0.39037 0.70108 0.0
C210 C 0.2631 0.33176 0.73029 0.0
O211 O 0.22143 0.25597 0.7713 0.0
O212 O 0.23993 0.21064 0.78136 0.0
O213 O 0.23318 0.26354 0.84394 0.0
O214 O 0.24538 0.30948 0.81489 0.0
C215 C 0.21921 0.22398 0.76678 0.0
O216 O 0.27382 0.18549 0.83062 0.0
O217 O 0.28071 0.22392 0.87043 0.0
O218 O 0.31649 0.28165 0.8342 0.0
O219 O 0.32075 0.3108 0.78936 0.0
O220 O 0.29921 0.25785 0.74359 0.0
O221 O 0.31893 0.23653 0.78549 0.0
C222 C 0.22953 0.29348 0.83931 0.0
O223 O 0.27775 0.341 0.75789 0.0
O224 O 0.25532 0.29953 0.72418 0.0
C225 C 0.30723 0.17871 0.8737 0.0
C226 C 0.35664 0.1503 0.89957 0.0
C227 C 0.32152 0.13385 0.89908 0.0
C228 C 0.29727 0.14784 0.88633 0.0
C229 C 0.3422 0.19536 0.87395 0.0
C230 C 0.3666 0.18136 0.8868 0.0
C231 C 0.28052 0.19297 0.86108 0.0
H232 H 0.19891 0.41248 0.75073 0.0
H233 H 0.23421 0.3777 0.76846 0.0
H234 H 0.23592 0.32794 0.67213 0.0
H235 H 0.19981 0.36186 0.65458 0.0
H236 H 0.31251 0.11029 0.90914 0.0
H237 H 0.27048 0.13457 0.8866 0.0
H238 H 0.35062 0.2192 0.86428 0.0
H239 H 0.39333 0.19473 0.8864 0.0
Tb240 Tb 0.8247 0.27359 0.80008 0.0
Eu241 Eu 0.76749 0.31461 0.80274 0.0
C242 C 0.82942 0.33696 0.84597 0.0
C243 C 0.75818 0.25331 0.84988 0.0
C244 C 0.90394 0.2355 0.79762 0.0
C245 C 0.94528 0.20368 0.8068 0.0
C246 C 0.91631 0.21575 0.81696 0.0
C247 C 0.92155 0.24447 0.76866 0.0
C248 C 0.95065 0.23243 0.75846 0.0
C249 C 0.96229 0.2113 0.77713 0.0
C250 C 0.87275 0.24632 0.80888 0.0
O251 O 0.79493 0.25003 0.75817 0.0
O252 O 0.74597 0.26313 0.78061 0.0
O253 O 0.8021 0.33474 0.7594 0.0
O254 O 0.84791 0.31168 0.7648 0.0
C255 C 0.76127 0.24518 0.75957 0.0
O256 O 0.7261 0.32559 0.77757 0.0
O257 O 0.73722 0.34806 0.82648 0.0
O258 O 0.81346 0.34922 0.82582 0.0
O259 O 0.82394 0.30481 0.84522 0.0
O260 O 0.78289 0.24383 0.8309 0.0
O261 O 0.75131 0.28244 0.84634 0.0
C262 C 0.83397 0.33246 0.75061 0.0
O263 O 0.87505 0.27817 0.81402 0.0
O264 O 0.84369 0.23029 0.79645 0.0
C265 C 0.67982 0.32672 0.81465 0.0
C266 C 0.62075 0.30582 0.85371 0.0
C267 C 0.64261 0.2843 0.84457 0.0
C268 C 0.67195 0.29467 0.82495 0.0
C269 C 0.65604 0.34658 0.82043 0.0
C270 C 0.62639 0.33601 0.83959 0.0
C271 C 0.71504 0.34108 0.80357 0.0
H272 H 0.9537 0.1875 0.82159 0.0
H273 H 0.90307 0.20903 0.83965 0.0
H274 H 0.91233 0.25996 0.75367 0.0
H275 H 0.96291 0.23819 0.73516 0.0
H276 H 0.63889 0.26102 0.85516 0.0
H277 H 0.69005 0.27888 0.82033 0.0
H278 H 0.66178 0.37132 0.81257 0.0
H279 H 0.6102 0.35334 0.84645 0.0
Tb280 Tb 0.76409 0.77965 0.76899 0.0
Eu281 Eu 0.82306 0.78461 0.822 0.0
C282 C 0.8254 0.73775 0.75353 0.0
C283 C 0.75504 0.72258 0.81613 0.0
C284 C 0.70606 0.80857 0.71736 0.0
C285 C 0.6907 0.83777 0.67498 0.0
C286 C 0.7059 0.81349 0.68459 0.0
C287 C 0.69083 0.8286 0.74044 0.0
C288 C 0.67539 0.85274 0.73081 0.0
C289 C 0.67508 0.85764 0.69793 0.0
C290 C 0.7223 0.78262 0.7268 0.0
O291 O 0.74232 0.80377 0.81356 0.0
O292 O 0.78949 0.82008 0.84516 0.0
O293 O 0.84726 0.81963 0.78476 0.0
O294 O 0.79781 0.82914 0.76801 0.0
C295 C 0.75707 0.82012 0.84007 0.0
O296 O 0.83714 0.78355 0.87154 0.0
O297 O 0.87715 0.79316 0.83412 0.0
O298 O 0.83485 0.74474 0.78374 0.0
O299 O 0.80044 0.75011 0.7434 0.0
O300 O 0.74448 0.73314 0.79082 0.0
O301 O 0.78299 0.73835 0.83109 0.0
C302 C 0.83152 0.83603 0.768 0.0
O303 O 0.75544 0.78737 0.72136 0.0
O304 O 0.713 0.77156 0.75485 0.0
C305 C 0.88598 0.76112 0.87493 0.0
C306 C 0.91764 0.71375 0.89646 0.0
C307 C 0.93702 0.74578 0.89127 0.0
C308 C 0.9213 0.76924 0.88072 0.0
C309 C 0.86669 0.72893 0.87944 0.0
C310 C 0.88231 0.70558 0.89024 0.0
C311 C 0.86973 0.78617 0.86382 0.0
H312 H 0.69065 0.84056 0.64945 0.0
H313 H 0.71747 0.79842 0.66633 0.0
H314 H 0.69084 0.82566 0.76595 0.0
H315 H 0.66401 0.86784 0.74918 0.0
H316 H 0.9642 0.75294 0.89605 0.0
H317 H 0.93671 0.79385 0.87723 0.0
H318 H 0.8395 0.7218 0.87469 0.0
H319 H 0.86674 0.68101 0.89356 0.0
Fe320 Fe 0.03949 0.09918 0.526 0.0
O321 O 0.03453 0.05083 0.52063 0.0
Fe322 Fe 0.07826 0.03271 0.52527 0.0
Fe323 Fe 1.00124 0.02057 0.54851 0.0
O324 O 0.03808 0.05173 0.5198 0.0
O325 O 0.04434 1.00108 0.55148 0.0
O326 O 0.04098 1.00028 0.55236 0.0
Fe327 Fe 0.03761 0.95235 0.54485 0.0
C328 C 1.01572 0.08274 0.59274 0.0
O329 O 0.99236 0.08457 0.50516 0.0
O330 O 0.96355 0.04556 0.53915 0.0
O331 O 0.06265 0.95274 0.50014 0.0
O332 O 0.06515 1.00229 0.48364 0.0
O333 O 0.10882 0.06867 0.49629 0.0
O334 O 0.07164 0.10012 0.48461 0.0
O335 O 0.98501 0.98964 0.50799 0.0
O336 O 0.99139 0.94143 0.52173 0.0
C337 C 0.10042 0.09052 0.47998 0.0
O338 O 0.08582 0.96415 0.5634 0.0
O339 O 0.11597 1.00793 0.53535 0.0
O340 O 1.01143 0.09791 0.56906 0.0
O341 O 1.01644 0.05222 0.58903 0.0
C342 C 0.96467 0.0652 0.51659 0.0
C343 C 0.97863 0.95819 0.50404 0.0
C344 C 0.98079 0.96356 0.59501 0.0
O345 O 0.97179 0.98579 0.57958 0.0
O346 O 1.00836 0.95236 0.58772 0.0
C347 C 0.06217 0.97119 0.47786 0.0
O348 O 0.09179 0.06391 0.56669 0.0
O349 O 0.08394 0.1115 0.552 0.0
C350 C 0.11394 0.9842 0.55389 0.0
C351 C 0.09585 0.09536 0.57105 0.0
Fe352 Fe 0.56297 0.97212 0.06224 0.0
O353 O 0.59337 1.01447 0.04904 0.0
Fe354 Fe 0.48538 1.00293 0.08556 0.0
Fe355 Fe 0.64346 0.02432 0.0505 0.0
O356 O 0.53755 1.00698 0.08716 0.0
O357 O 0.53588 1.01417 0.08668 0.0
O358 O 0.59175 0.02028 0.04874 0.0
Fe359 Fe 0.56402 0.05531 0.06822 0.0
C360 C 0.62853 0.96703 0.10178 0.0
O361 O 0.59515 0.94448 0.02984 0.0
O362 O 0.63937 0.98634 1.01276 0.0
O363 O 0.53435 0.04793 0.02775 0.0
O364 O 0.48328 0.03649 0.05341 0.0
O365 O 0.47972 0.96586 0.04696 0.0
O366 O 0.5308 0.96746 1.02156 0.0
O367 O 0.64364 0.06417 1.02197 0.0
O368 O 0.60157 0.09219 0.04146 0.0
C369 C 0.49748 0.95903 1.02165 0.0
O370 O 0.52666 0.08564 0.09651 0.0
O371 O 0.4867 0.04574 0.12099 0.0
O372 O 0.59538 0.96584 0.10227 0.0
O373 O 0.64739 0.98626 0.08186 0.0
C374 C 0.6229 0.95528 1.01112 0.0
C375 C 0.62896 0.08926 1.02234 0.0
C376 C 0.62565 0.06876 0.1113 0.0
O377 O 0.64623 0.05824 0.09028 0.0
O378 O 0.59358 0.06536 0.10772 0.0
C379 C 0.50214 0.04665 0.02918 0.0
O380 O 0.48794 0.96465 0.11274 0.0
O381 O 0.52453 0.93534 0.08222 0.0
C382 C 0.49878 0.07744 0.11698 0.0
C383 C 0.50012 0.93826 0.10415 0.0
Fe384 Fe 0.08234 0.556 0.04304 0.0
O385 O 0.04679 0.52131 0.06353 0.0
Fe386 Fe 0.14836 0.51592 1.02195 0.0
Fe387 Fe 0.99804 0.52157 0.06791 0.0
O388 O 0.09946 0.51733 1.02138 0.0
O389 O 0.09788 0.51349 1.02052 0.0
O390 O 0.04592 0.51812 0.06348 0.0
Fe391 Fe 0.06235 0.47889 0.04233 0.0
C392 C 0.03859 0.59031 0.09264 0.0
O393 O 0.05153 0.5552 1.00489 0.0
O394 O 1.00122 0.55321 0.0325 0.0
O395 O 0.08724 0.44256 1.01462 0.0
O396 O 0.13433 0.4752 0.9888 0.0
O397 O 0.15411 0.55316 0.99142 0.0
O398 O 0.12206 0.58767 1.01842 0.0
O399 O 0.98217 0.48217 0.03378 0.0
O400 O 0.02892 0.47284 1.00507 0.0
C401 C 0.14472 0.58119 0.99629 0.0
O402 O 0.09367 0.48505 0.07993 0.0
O403 O 0.14257 0.48067 0.05462 0.0
O404 O 0.06089 0.59224 0.06854 0.0
O405 O 1.01574 0.56379 0.09925 0.0
C406 C 1.02099 0.55986 1.00762 0.0
C407 C 0.99642 0.47019 1.00846 0.0
C408 C 1.00077 0.45679 0.09411 0.0
O409 O 0.99509 0.4864 0.09961 0.0
O410 O 1.02243 0.44823 0.07125 0.0
C411 C 0.11273 0.44693 0.99237 0.0
O412 O 0.16176 0.55452 0.0589 0.0
O413 O 0.11201 0.56013 0.08239 0.0
C414 C 0.12047 0.47397 0.07772 0.0
C415 C 0.14458 0.56598 0.08243 0.0
Fe416 Fe 0.54303 0.52078 0.98824 0.0
O417 O 0.57333 0.54086 0.02487 0.0
Fe418 Fe 0.46055 0.51271 0.02347 0.0
Fe419 Fe 0.61964 0.53256 0.02745 0.0
O420 O 0.50752 0.50708 0.02311 0.0
O421 O 0.50729 0.5063 0.02613 0.0
O422 O 0.57304 0.54026 0.02816 0.0
Fe423 Fe 0.53746 0.52565 0.0629 0.0
C424 C 0.58449 0.46947 0.98934 0.0
O425 O 0.58504 0.53858 0.95599 0.0
O426 O 0.62971 0.56187 0.98959 0.0
O427 O 0.52352 0.56969 0.06348 0.0
O428 O 0.4668 0.55221 0.05868 0.0
O429 O 0.47185 0.54635 0.98934 0.0
O430 O 0.52905 0.56459 0.98612 0.0
O431 O 0.62373 0.56941 0.06496 0.0
O432 O 0.57492 0.54972 0.09681 0.0
C433 C 0.49889 0.56779 0.98186 0.0
O434 O 0.49527 0.50626 0.09476 0.0
O435 O 0.45126 0.48216 0.06042 0.0
O436 O 0.55552 0.47666 0.98971 0.0
O437 O 0.6122 0.49173 0.9933 0.0
C438 C 0.61515 0.55816 0.96205 0.0
C439 C 0.60521 0.56931 0.09181 0.0
C440 C 0.58095 0.4777 0.06757 0.0
O441 O 0.60799 0.50003 0.06249 0.0
O442 O 0.55114 0.48143 0.06307 0.0
C443 C 0.49347 0.57497 0.0657 0.0
O444 O 0.45773 0.47638 0.98549 0.0
O445 O 0.50676 0.4962 0.95435 0.0
C446 C 0.46573 0.48578 0.088 0.0
C447 C 0.47705 0.47592 0.95918 0.0
Fe448 Fe 0.03885 0.48246 0.52257 0.0
O449 O 0.03858 0.52985 0.52402 0.0
Fe450 Fe 0.02446 0.54805 0.47881 0.0
Fe451 Fe 1.01646 0.55448 0.56191 0.0
O452 O 0.04089 0.53039 0.51775 0.0
O453 O 1.00195 0.57281 0.51719 0.0
O454 O 0.99935 0.57263 0.524 0.0
Fe455 Fe 1.00541 0.62195 0.52394 0.0
C456 C 0.97511 0.48467 0.57368 0.0
O457 O 0.07124 0.49988 0.56043 0.0
O458 O 0.04123 0.53249 0.59428 0.0
O459 O 0.04651 0.63061 0.49165 0.0
O460 O 0.06804 0.58564 0.47843 0.0
O461 O 0.05605 0.5129 0.4465 0.0
O462 O 0.07683 0.48649 0.48382 0.0
O463 O 0.06176 0.59197 0.56391 0.0
O464 O 0.04018 0.63557 0.56282 0.0
C465 C 0.07621 0.49242 0.45381 0.0
O466 O 0.97407 0.61296 0.48292 0.0
O467 O 0.99754 0.57745 0.44628 0.0
O468 O 0.99972 0.47308 0.55937 0.0
O469 O 0.97245 0.51405 0.56831 0.0
C470 C 0.06474 0.51516 0.58826 0.0
C471 C 0.06291 0.62239 0.57289 0.0
C472 C 0.96817 0.60521 0.58889 0.0
O473 O 0.98855 0.58581 0.59514 0.0
O474 O 0.96675 0.61413 0.56014 0.0
C475 C 0.07037 0.61679 0.47987 0.0
O476 O 0.98119 0.51051 0.47931 0.0
O477 O 1.0025 0.46718 0.4884 0.0
C478 C 0.97792 0.60044 0.45309 0.0
C479 C 0.97764 0.47986 0.48288 0.0
Fe480 Fe 0.51444 0.02314 0.56036 0.0
O481 O 0.50035 0.06069 0.58759 0.0
Fe482 Fe 0.55079 0.05872 0.49094 0.0
Fe483 Fe 0.49867 0.06339 0.63532 0.0
O484 O 0.54591 0.05933 0.53785 0.0
O485 O 0.54778 0.06291 0.53857 0.0
O486 O 0.50222 0.06417 0.58823 0.0
Fe487 Fe 0.53262 0.10053 0.56478 0.0
C488 C 0.4562 0.99584 0.61067 0.0
O489 O 0.55352 0.02425 0.59045 0.0
O490 O 0.52573 0.02692 0.63808 0.0
O491 O 0.56776 0.13373 0.53497 0.0
O492 O 0.59214 0.09827 0.49936 0.0
O493 O 0.57426 0.02056 0.49618 0.0
O494 O 0.53484 0.98885 0.52991 0.0
O495 O 0.544 0.0988 0.64289 0.0
O496 O 0.57229 0.10555 0.59514 0.0
C497 C 0.56162 0.99348 0.51002 0.0
O498 O 0.49382 0.09646 0.53434 0.0
O499 O 0.52296 0.09407 0.48717 0.0
O500 O 0.47921 0.99026 0.58837 0.0
O501 O 0.45656 0.0245 0.62672 0.0
C502 C 0.54948 1.01817 0.61981 0.0
C503 C 0.57165 0.10775 0.62583 0.0
C504 C 0.48536 0.1294 0.61868 0.0
O505 O 0.47518 0.10214 0.6326 0.0
O506 O 0.5101 0.13482 0.59618 0.0
C507 C 0.59121 0.1276 0.51301 0.0
O508 O 0.50698 0.02199 0.48284 0.0
O509 O 0.4749 1.01822 0.52861 0.0
C510 C 0.49874 0.10253 0.50505 0.0
C511 C 0.47829 1.01223 0.49795 0.0
H512 H 0.20768 0.18331 0.31062 0.0
H513 H 0.26942 0.23065 0.3913 0.0
H514 H 0.17077 0.14555 0.34604 0.0
H515 H 0.23242 0.1926 0.42677 0.0
H516 H 0.17134 0.1001 0.4763 0.0
H517 H 0.2124 0.13243 0.43877 0.0
H518 H 0.12788 0.15176 0.3908 0.0
H519 H 0.08714 0.11992 0.42815 0.0
C520 C 0.21376 0.18543 0.33582 0.0
C521 C 0.24165 0.21025 0.34796 0.0
C522 C 0.19235 0.16384 0.35624 0.0
C523 C 0.19834 0.16604 0.38943 0.0
C524 C 0.22706 0.18996 0.40136 0.0
C525 C 0.24826 0.21191 0.38098 0.0
C526 C 0.16151 0.1109 0.45749 0.0
C527 C 0.12578 0.10728 0.45538 0.0
C528 C 0.1851 0.1297 0.43611 0.0
C529 C 0.17358 0.14482 0.41165 0.0
C530 C 0.13783 0.14031 0.40904 0.0
C531 C 0.11438 0.12209 0.43066 0.0
H532 H 0.83007 0.08551 0.3732 0.0
H533 H 0.85365 0.173 0.44115 0.0
H534 H 0.84551 0.05275 0.41262 0.0
H535 H 0.8692 0.14056 0.48022 0.0
H536 H 0.9073 0.08311 0.54452 0.0
H537 H 0.86086 0.09509 0.51537 0.0
H538 H 0.90554 0.05883 0.42531 0.0
H539 H 0.95126 0.04719 0.45437 0.0
C540 C 0.83773 0.09753 0.39682 0.0
C541 C 0.84153 0.13192 0.40384 0.0
C542 C 0.84635 0.07877 0.41942 0.0
C543 C 0.85917 0.0942 0.44927 0.0
C544 C 0.8592 0.12783 0.45756 0.0
C545 C 0.85046 0.14653 0.43503 0.0
C546 C 0.9062 0.07673 0.51864 0.0
C547 C 0.9327 0.06474 0.50137 0.0
C548 C 0.87982 0.08359 0.50199 0.0
C549 C 0.8797 0.07816 0.46804 0.0
C550 C 0.90455 0.063 0.45143 0.0
C551 C 0.93097 0.05662 0.46796 0.0
H552 H 0.81279 0.86636 0.37166 0.0
H553 H 0.90665 0.84603 0.32562 0.0
H554 H 0.84599 0.89856 0.41682 0.0
H555 H 0.93921 0.8776 0.37045 0.0
H556 H 0.97606 0.89607 0.47411 0.0
H557 H 0.94088 0.86759 0.42927 0.0
H558 H 0.89524 0.95164 0.42892 0.0
H559 H 0.93076 0.98045 0.4738 0.0
C560 C 0.84041 0.86901 0.37095 0.0
C561 C 0.85694 0.85343 0.34502 0.0
C562 C 0.8594 0.88744 0.39678 0.0
C563 C 0.89513 0.89022 0.39733 0.0
C564 C 0.91165 0.87546 0.37098 0.0
C565 C 0.89289 0.85749 0.34515 0.0
C566 C 0.95835 0.90843 0.46469 0.0
C567 C 0.95617 0.9405 0.4776 0.0
C568 C 0.93836 0.89218 0.43885 0.0
C569 C 0.91533 0.9074 0.42555 0.0
C570 C 0.9126 0.93922 0.43881 0.0
C571 C 0.93306 0.95575 0.46437 0.0
H572 H 0.06339 0.83764 0.30622 0.0
H573 H 0.13265 0.93252 0.29321 0.0
H574 H 0.03159 0.86452 0.34879 0.0
H575 H 0.10145 0.95888 0.33514 0.0
H576 H 0.05652 0.90599 0.45624 0.0
H577 H 0.05586 0.88148 0.40088 0.0
H578 H 0.0566 0.97635 0.36753 0.0
H579 H 0.05831 1.00129 0.42332 0.0
C580 C 0.07105 0.86433 0.31151 0.0
C581 C 0.10145 0.88263 0.29725 0.0
C582 C 0.05289 0.87973 0.33594 0.0
C583 C 0.06493 0.91357 0.34635 0.0
C584 C 0.09155 0.93271 0.3281 0.0
C585 C 0.10961 0.91739 0.30374 0.0
C586 C 0.05632 0.9217 0.43715 0.0
C587 C 0.05877 0.95589 0.44415 0.0
C588 C 0.05522 0.90741 0.40531 0.0
C589 C 0.05641 0.92696 0.3796 0.0
C590 C 0.05617 0.96069 0.38674 0.0
C591 C 0.05742 0.97507 0.4187 0.0
H592 H 0.23654 0.96272 0.70978 0.0
H593 H 0.15722 0.87591 0.68145 0.0
H594 H 0.22901 0.98675 0.66036 0.0
H595 H 0.15012 0.89944 0.63246 0.0
H596 H 0.14983 0.02548 0.6003 0.0
H597 H 0.18203 1.0079 0.64001 0.0
H598 H 0.17812 0.91536 0.58072 0.0
H599 H 0.14493 0.93295 0.54162 0.0
C600 C 0.21755 0.94881 0.69305 0.0
C601 C 0.19746 0.91741 0.69949 0.0
C602 C 0.21352 0.9624 0.66467 0.0
C603 C 0.1895 0.94471 0.64221 0.0
C604 C 0.16967 0.91328 0.6487 0.0
C605 C 0.17354 0.89986 0.67696 0.0
C606 C 0.15771 1.00234 0.59493 0.0
C607 C 0.14515 0.98061 0.56808 0.0
C608 C 0.17596 0.99207 0.61777 0.0
C609 C 0.18176 0.95987 0.61385 0.0
C610 C 0.17331 0.94004 0.58466 0.0
C611 C 0.15474 0.95021 0.56208 0.0
H612 H 0.18977 0.247 0.71972 0.0
H613 H 0.19853 0.15597 0.75532 0.0
H614 H 0.15999 0.21587 0.6736 0.0
H615 H 0.1663 0.12416 0.70993 0.0
H616 H 0.14286 0.07821 0.60681 0.0
H617 H 0.16991 0.10799 0.65548 0.0
H618 H 0.11202 0.183 0.6516 0.0
H619 H 0.08773 0.15452 0.60162 0.0
C620 C 0.18451 0.22016 0.71816 0.0
C621 C 0.19663 0.20403 0.74133 0.0
C622 C 0.16709 0.2021 0.69157 0.0
C623 C 0.16048 0.16719 0.68755 0.0
C624 C 0.17145 0.15097 0.71153 0.0
C625 C 0.18961 0.16918 0.73788 0.0
C626 C 0.13611 0.10109 0.61641 0.0
C627 C 0.11309 0.11383 0.60033 0.0
C628 C 0.15136 0.11816 0.64461 0.0
C629 C 0.14337 0.14819 0.65797 0.0
C630 C 0.11979 0.16055 0.64197 0.0
C631 C 0.10547 0.14399 0.61328 0.0
H632 H 0.95806 0.14519 0.77557 0.0
H633 H 0.02405 0.236 0.74613 0.0
H634 H 0.98738 0.11315 0.73623 0.0
H635 H 0.0542 0.20363 0.70692 0.0
H636 H 0.02856 0.06122 0.64986 0.0
H637 H 0.03378 0.09323 0.70305 0.0
H638 H 1.01964 0.17868 0.66005 0.0
H639 H 1.01433 0.14731 0.60792 0.0
C640 C 0.98008 0.15828 0.76188 0.0
C641 C 0.98805 0.19307 0.76297 0.0
C642 C 0.9971 0.13982 0.73938 0.0
C643 C 1.02222 0.15599 0.71775 0.0
C644 C 0.0342 0.19065 0.72279 0.0
C645 C 1.0169 0.20916 0.74506 0.0
C646 C 0.0268 0.08693 0.65191 0.0
C647 C 1.02021 0.10152 0.62485 0.0
C648 C 0.03024 0.10529 0.6822 0.0
C649 C 0.02747 0.13852 0.68568 0.0
C650 C 1.02269 0.15337 0.65821 0.0
C651 C 1.01889 0.13509 0.62828 0.0
H652 H 0.80934 0.86474 0.71936 0.0
H653 H 0.90109 0.86291 0.76743 0.0
H654 H 0.84451 0.89839 0.67949 0.0
H655 H 0.93605 0.89733 0.72842 0.0
H656 H 0.99134 0.9165 0.63165 0.0
H657 H 0.95515 0.89006 0.67434 0.0
H658 H 0.88215 0.94968 0.66492 0.0
H659 H 0.91851 0.976 0.62083 0.0
C660 C 0.83695 0.87209 0.7219 0.0
C661 C 0.85229 0.86077 0.74663 0.0
C662 C 0.8572 0.89154 0.69896 0.0
C663 C 0.89339 0.90035 0.70015 0.0
C664 C 0.90843 0.89044 0.72597 0.0
C665 C 0.88827 0.87084 0.74867 0.0
C666 C 0.96769 0.92435 0.63851 0.0
C667 C 0.95813 0.94867 0.6224 0.0
C668 C 0.94688 0.90918 0.66348 0.0
C669 C 0.91563 0.91775 0.67367 0.0
C670 C 0.90589 0.94217 0.65775 0.0
C671 C 0.92687 0.95746 0.6325 0.0
H672 H 0.32038 0.18028 0.2086 0.0
H673 H 0.41007 0.24677 0.24791 0.0
H674 H 0.35674 0.14535 0.17961 0.0
H675 H 0.4467 0.21252 0.21778 0.0
H676 H 0.51502 0.15055 0.13924 0.0
H677 H 0.47988 0.18651 0.16942 0.0
H678 H 0.39334 0.10339 0.17081 0.0
H679 H 0.42852 0.06754 0.1421 0.0
C680 C 0.34787 0.18832 0.21156 0.0
C681 C 0.36002 0.21837 0.23252 0.0
C682 C 0.36975 0.16731 0.19415 0.0
C683 C 0.40696 0.17395 0.19443 0.0
C684 C 0.4192 0.20432 0.21504 0.0
C685 C 0.3972 0.22485 0.23321 0.0
C686 C 0.48857 0.13909 0.14566 0.0
C687 C 0.47673 0.10385 0.1364 0.0
C688 C 0.46745 0.16063 0.16386 0.0
C689 C 0.43148 0.15006 0.17435 0.0
C690 C 0.41978 0.11503 0.16457 0.0
C691 C 0.44102 0.09346 0.14731 0.0
H692 H 0.82275 0.34898 0.20391 0.0
H693 H 0.90884 0.33013 0.24973 0.0
H694 H 0.86166 0.37589 0.16251 0.0
H695 H 0.94835 0.35843 0.20866 0.0
H696 H 1.01044 0.39742 0.11522 0.0
H697 H 0.972 0.3618 0.15273 0.0
H698 H 0.90085 0.42574 0.15712 0.0
H699 H 0.93764 0.45967 0.12002 0.0
C700 C 0.85006 0.35072 0.20536 0.0
C701 C 0.86236 0.33754 0.23068 0.0
C702 C 0.87266 0.36643 0.1815 0.0
C703 C 0.90868 0.37013 0.1821 0.0
C704 C 0.92098 0.35611 0.20696 0.0
C705 C 0.8982 0.34003 0.23079 0.0
C706 C 0.98638 0.40348 0.12396 0.0
C707 C 0.97767 0.43186 0.1145 0.0
C708 C 0.96434 0.38321 0.14575 0.0
C709 C 0.93279 0.39049 0.15822 0.0
C710 C 0.92421 0.41846 0.14799 0.0
C711 C 0.94591 0.43843 0.12668 0.0
H712 H 0.69404 0.831 0.24653 0.0
H713 H 0.78647 0.86636 0.19053 0.0
H714 H 0.66329 0.86217 0.21641 0.0
H715 H 0.75609 0.89755 0.1606 0.0
H716 H 0.6992 0.96237 0.10448 0.0
H717 H 0.7286 0.93117 0.13521 0.0
H718 H 0.63262 0.88902 0.18315 0.0
H719 H 0.60306 0.92043 0.15195 0.0
C720 C 0.70865 0.84528 0.22796 0.0
C721 C 0.74453 0.84448 0.22272 0.0
C722 C 0.69023 0.86395 0.20983 0.0
C723 C 0.70532 0.88436 0.1842 0.0
C724 C 0.74124 0.88349 0.17916 0.0
C725 C 0.75955 0.86475 0.19713 0.0
C726 C 0.6835 0.94671 0.12149 0.0
C727 C 0.64713 0.94591 0.12404 0.0
C728 C 0.70116 0.92786 0.13992 0.0
C729 C 0.68488 0.9056 0.16358 0.0
C730 C 0.64835 0.9048 0.16628 0.0
C731 C 0.63058 0.92364 0.14763 0.0
H732 H 0.20853 0.73894 0.22069 0.0
H733 H 0.27898 0.67898 0.23745 0.0
H734 H 0.18128 0.69649 0.17961 0.0
H735 H 0.25135 0.63615 0.19619 0.0
H736 H 0.21425 0.58382 0.09461 0.0
H737 H 0.24309 0.62434 0.13715 0.0
H738 H 0.14465 0.64101 0.17418 0.0
H739 H 0.11615 0.60088 0.13195 0.0
C740 C 0.21825 0.71666 0.21575 0.0
C741 C 0.24607 0.7126 0.23272 0.0
C742 C 0.20238 0.69208 0.19216 0.0
C743 C 0.21385 0.66258 0.18444 0.0
C744 C 0.24186 0.65854 0.2012 0.0
C745 C 0.2576 0.68309 0.2251 0.0
C746 C 0.19873 0.59593 0.11197 0.0
C747 C 0.16269 0.5889 0.1096 0.0
C748 C 0.2153 0.61916 0.13651 0.0
C749 C 0.19637 0.63635 0.15918 0.0
C750 C 0.16032 0.62883 0.15703 0.0
C751 C 0.14384 0.60549 0.1328 0.0
H752 H 0.39353 0.8091 0.86341 0.0
H753 H 0.33471 0.8841 0.87644 0.0
H754 H 0.43356 0.84114 0.90395 0.0
H755 H 0.37449 0.91609 0.91629 0.0
H756 H 0.42943 0.95426 1.01048 0.0
H757 H 0.393 0.92258 0.96845 0.0
H758 H 0.47941 0.88786 0.92266 0.0
H759 H 0.51644 0.9199 0.96585 0.0
C760 C 0.38889 0.83239 0.87476 0.0
C761 C 0.36001 0.84333 0.86606 0.0
C762 C 0.41232 0.85116 0.8982 0.0
C763 C 0.40804 0.88182 0.9145 0.0
C764 C 0.37921 0.89267 0.90547 0.0
C765 C 0.35604 0.87409 0.88203 0.0
C766 C 0.44122 0.94015 0.99152 0.0
C767 C 0.47668 0.94038 0.9924 0.0
C768 C 0.41989 0.92176 0.96677 0.0
C769 C 0.43235 0.90202 0.94106 0.0
C770 C 0.46798 0.90219 0.94166 0.0
C771 C 0.48965 0.92106 0.96656 0.0
H772 H 0.19217 0.33638 0.82449 0.0
H773 H 0.21438 0.28971 0.90528 0.0
H774 H 0.15782 0.36731 0.85971 0.0
H775 H 0.18161 0.3227 0.94165 0.0
H776 H 0.10859 0.38014 1.00161 0.0
H777 H 0.13241 0.33962 0.96504 0.0
H778 H 0.16172 0.41195 0.89538 0.0
H779 H 0.13665 0.45048 0.9304 0.0
C780 C 0.18995 0.33287 0.84999 0.0
C781 C 0.20652 0.31057 0.86182 0.0
C782 C 0.17033 0.35109 0.87058 0.0
C783 C 0.16717 0.34874 0.9043 0.0
C784 C 0.18293 0.32553 0.91607 0.0
C785 C 0.20202 0.30656 0.89513 0.0
C786 C 0.11907 0.38678 0.97798 0.0
C787 C 0.12021 0.41875 0.96909 0.0
C788 C 0.13344 0.3637 0.95706 0.0
C789 C 0.14939 0.37187 0.92662 0.0
C790 C 0.14929 0.40358 0.91779 0.0
C791 C 0.1349 0.42619 0.93831 0.0
H792 H 0.70461 0.26219 0.89587 0.0
H793 H 0.76425 0.19062 0.86327 0.0
H794 H 0.67396 0.22581 0.93626 0.0
H795 H 0.73343 0.15402 0.90243 0.0
H796 H 0.69187 0.0958 0.98833 0.0
H797 H 0.72053 0.13372 0.95003 0.0
H798 H 0.63611 0.18248 0.96049 0.0
H799 H 0.60738 0.14416 1.00031 0.0
C800 C 0.71145 0.23871 0.89704 0.0
C801 C 0.73789 0.23034 0.87553 0.0
C802 C 0.69337 0.21726 0.92058 0.0
C803 C 0.70045 0.18589 0.92426 0.0
C804 C 0.72667 0.17761 0.90225 0.0
C805 C 0.74469 0.199 0.87894 0.0
C806 C 0.67885 0.11444 0.98286 0.0
C807 C 0.64643 0.11575 0.99853 0.0
C808 C 0.69567 0.13669 0.95994 0.0
C809 C 0.68146 0.16217 0.95035 0.0
C810 C 0.64905 0.16395 0.96631 0.0
C811 C 0.63211 0.14152 0.98963 0.0
H812 H 0.9799 0.69864 0.87799 0.0
H813 H 0.8922 0.67362 0.94416 0.0
H814 H 1.00607 0.6584 0.89942 0.0
H815 H 0.91843 0.63429 0.96613 0.0
H816 H 0.95619 0.54777 0.98653 0.0
H817 H 0.93213 0.58252 0.95558 0.0
H818 H 0.03298 0.64779 0.94522 0.0
H819 H 0.05721 0.61179 0.97507 0.0
C820 C 0.96629 0.68466 0.89722 0.0
C821 C 0.93384 0.6892 0.90922 0.0
C822 C 0.98132 0.6616 0.90957 0.0
C823 C 0.96435 0.64268 0.93438 0.0
C824 C 0.93199 0.64756 0.94644 0.0
C825 C 0.91691 0.67031 0.93393 0.0
C826 C 0.97333 0.56915 0.97697 0.0
C827 C 1.00852 0.57716 0.9833 0.0
C828 C 0.95949 0.58936 0.95954 0.0
C829 C 0.98033 0.61861 0.94852 0.0
C830 C 1.01604 0.6255 0.95317 0.0
C831 C 0.03003 0.60484 0.97024 0.0
H832 H 0.14188 0.28521 0.12396 0.0
H833 H 0.0937 0.32336 0.21117 0.0
H834 H 0.13306 0.33049 0.09628 0.0
H835 H 0.08745 0.37024 0.18416 0.0
H836 H 0.07099 0.44662 0.12129 0.0
H837 H 0.06548 0.39482 0.14465 0.0
H838 H 0.16482 0.38682 0.10133 0.0
H839 H 0.16953 0.43789 0.07636 0.0
C840 C 0.12839 0.30262 0.13702 0.0
C841 C 0.11936 0.30125 0.17008 0.0
C842 C 0.12407 0.32905 0.1213 0.0
C843 C 0.11108 0.35471 0.13846 0.0
C844 C 0.09803 0.35112 0.17033 0.0
C845 C 0.10176 0.32433 0.18589 0.0
C846 C 0.09183 0.43396 0.11685 0.0
C847 C 0.12062 0.4462 0.09665 0.0
C848 C 0.08857 0.4042 0.13027 0.0
C849 C 0.11429 0.38632 0.12425 0.0
C850 C 0.14394 0.39945 0.10549 0.0
C851 C 0.147 0.42903 0.09166 0.0
H852 H 0.28423 0.70535 0.86695 0.0
H853 H 0.19551 0.74845 0.87703 0.0
H854 H 0.25758 0.66619 0.90537 0.0
H855 H 0.16807 0.70827 0.91488 0.0
H856 H 0.14042 0.64662 1.00207 0.0
H857 H 0.16826 0.68965 0.96735 0.0
H858 H 0.21272 0.61805 0.90691 0.0
H859 H 0.18601 0.57557 0.94194 0.0
C860 C 0.25894 0.70644 0.87732 0.0
C861 C 0.24191 0.7299 0.86866 0.0
C862 C 0.2435 0.68376 0.89927 0.0
C863 C 0.21035 0.68358 0.91294 0.0
C864 C 0.1937 0.70775 0.90505 0.0
C865 C 0.20938 0.73076 0.88326 0.0
C866 C 0.15622 0.64008 0.98141 0.0
C867 C 0.16112 0.60757 0.97506 0.0
C868 C 0.17206 0.66476 0.96137 0.0
C869 C 0.19305 0.65752 0.93439 0.0
C870 C 0.19747 0.62488 0.92786 0.0
C871 C 0.18189 0.60034 0.94794 0.0
H872 H 0.35911 0.08449 0.89516 0.0
H873 H 0.41276 0.18122 0.93608 0.0
H874 H 0.39721 0.05893 0.92161 0.0
H875 H 0.45121 0.15547 0.96247 0.0
H876 H 0.52904 0.09839 0.99149 0.0
H877 H 0.49706 0.12358 0.95661 0.0
H878 H 0.40472 0.04934 0.97638 0.0
H879 H 0.43639 0.02448 1.01061 0.0
C880 C 0.37896 0.10042 0.90985 0.0
C881 C 0.38226 0.13504 0.91372 0.0
C882 C 0.401 0.08567 0.92502 0.0
C883 C 0.42724 0.10498 0.94457 0.0
C884 C 0.43156 0.13973 0.94742 0.0
C885 C 0.40939 0.15454 0.93225 0.0
C886 C 0.5021 0.08713 0.98775 0.0
C887 C 0.48532 0.05937 1.00386 0.0
C888 C 0.48363 0.10177 0.96807 0.0
C889 C 0.44812 0.08864 0.96363 0.0
C890 C 0.43197 0.06007 0.97877 0.0
C891 C 0.45019 0.04582 0.9986 0.0
H892 H 0.86441 0.40193 0.84343 0.0
H893 H 0.84882 0.31929 0.9013 0.0
H894 H 0.90703 0.43488 0.88131 0.0
H895 H 0.89066 0.35214 0.93895 0.0
H896 H 0.93029 0.43686 1.01759 0.0
H897 H 0.89041 0.40629 0.97734 0.0
H898 H 0.96915 0.42949 0.90205 0.0
H899 H 1.00984 0.46019 0.94281 0.0
C900 C 0.86981 0.39098 0.86434 0.0
C901 C 0.85314 0.35815 0.86956 0.0
C902 C 0.8944 0.40965 0.88573 0.0
C903 C 0.90211 0.39593 0.9129 0.0
C904 C 0.88511 0.3633 0.91821 0.0
C905 C 0.86112 0.34455 0.89668 0.0
C906 C 0.93926 0.43554 0.99248 0.0
C907 C 0.97327 0.4509 0.98336 0.0
C908 C 0.91639 0.41796 0.96948 0.0
C909 C 0.92671 0.41564 0.93667 0.0
C910 C 0.96058 0.43117 0.92726 0.0
C911 C 0.98386 0.44841 0.95051 0.0
H912 H 0.68688 0.82125 0.84306 0.0
H913 H 0.77875 0.86167 0.89588 0.0
H914 H 0.65395 0.85022 0.88351 0.0
H915 H 0.74611 0.89045 0.93614 0.0
H916 H 0.69009 0.96672 0.98779 0.0
H917 H 0.71965 0.93493 0.94857 0.0
H918 H 0.62671 0.85809 0.93791 0.0
H919 H 0.59635 0.89074 0.97802 0.0
C920 C 0.70036 0.83631 0.86319 0.0
C921 C 0.7362 0.83875 0.8653 0.0
C922 C 0.68111 0.85299 0.88688 0.0
C923 C 0.69661 0.87348 0.91393 0.0
C924 C 0.73246 0.87575 0.91596 0.0
C925 C 0.75156 0.85884 0.89253 0.0
C926 C 0.67537 0.94302 0.97745 0.0
C927 C 0.64006 0.93208 0.98699 0.0
C928 C 0.69289 0.92427 0.95461 0.0
C929 C 0.67645 0.89313 0.93921 0.0
C930 C 0.64097 0.88183 0.94855 0.0
C931 C 0.62331 0.90064 0.97205 0.0
H932 H 0.02494 0.78887 0.14863 0.0
H933 H 1.02051 0.7466 0.23962 0.0
H934 H 0.04993 0.74541 0.1224 0.0
H935 H 0.04019 0.70005 0.21204 0.0
H936 H 0.06222 0.60992 0.15304 0.0
H937 H 0.06858 0.66521 0.18199 0.0
H938 H 1.01826 0.69459 0.10472 0.0
H939 H 1.01541 0.64072 0.07513 0.0
C940 C 0.02959 0.77081 0.16348 0.0
C941 C 1.01765 0.76998 0.19601 0.0
C942 C 0.04333 0.74514 0.14801 0.0
C943 C 0.0441 0.71754 0.16432 0.0
C944 C 0.0386 0.72002 0.19809 0.0
C945 C 0.02653 0.74664 0.21393 0.0
C946 C 0.05287 0.62857 0.14248 0.0
C947 C 0.03816 0.62146 0.1122 0.0
C948 C 0.05641 0.66023 0.15898 0.0
C949 C 0.04441 0.68493 0.14572 0.0
C950 C 0.0291 0.67703 0.11544 0.0
C951 C 0.02657 0.64585 0.09869 0.0
H952 H 0.33982 0.86414 0.22226 0.0
H953 H 0.39366 0.78682 0.22985 0.0
H954 H 0.38085 0.88569 0.17975 0.0
H955 H 0.43528 0.80896 0.18716 0.0
H956 H 0.51966 0.90812 0.15213 0.0
H957 H 0.48045 0.86883 0.1853 0.0
H958 H 0.39843 0.86393 0.12127 0.0
H959 H 0.43743 0.90314 0.08853 0.0
C960 C 0.36036 0.8517 0.21476 0.0
C961 C 0.36365 0.82394 0.22938 0.0
C962 C 0.38364 0.86384 0.19025 0.0
C963 C 0.41089 0.84869 0.18012 0.0
C964 C 0.41431 0.82086 0.19459 0.0
C965 C 0.39055 0.80829 0.21888 0.0
C966 C 0.49363 0.89744 0.14461 0.0
C967 C 0.48117 0.90836 0.11814 0.0
C968 C 0.4713 0.87506 0.16343 0.0
C969 C 0.43648 0.86384 0.15587 0.0
C970 C 0.42514 0.87249 0.12758 0.0
C971 C 0.44735 0.89474 0.10889 0.0
H972 H 0.77848 0.21472 0.20597 0.0
H973 H 0.68886 0.22328 0.26725 0.0
H974 H 0.74438 0.16605 0.17562 0.0
H975 H 0.6552 0.17386 0.23798 0.0
H976 H 0.60065 0.11699 0.14715 0.0
H977 H 0.63164 0.15911 0.18617 0.0
H978 H 0.71545 0.10905 0.17931 0.0
H979 H 0.68489 0.06749 0.13908 0.0
C980 C 0.75155 0.20606 0.21297 0.0
C981 C 0.73612 0.22286 0.23854 0.0
C982 C 0.73215 0.17798 0.19596 0.0
C983 C 0.69719 0.16605 0.20464 0.0
C984 C 0.68196 0.18273 0.23052 0.0
C985 C 0.7012 0.21107 0.24717 0.0
C986 C 0.62533 0.11456 0.15452 0.0
C987 C 0.64076 0.08946 0.13974 0.0
C988 C 0.64307 0.13864 0.17696 0.0
C989 C 0.67624 0.13766 0.18528 0.0
C990 C 0.69031 0.11086 0.17259 0.0
C991 C 0.67278 0.08703 0.14979 0.0
H992 H 0.7774 0.67909 0.8487 0.0
H993 H 0.68478 0.69874 0.8159 0.0
H994 H 0.74306 0.63532 0.87904 0.0
H995 H 0.64997 0.65569 0.8477 0.0
H996 H 0.59657 0.563 0.89988 0.0
H997 H 0.62967 0.59829 0.85976 0.0
H998 H 0.71024 0.63575 0.92752 0.0
H999 H 0.67847 0.60042 0.96642 0.0
C1000 C 0.7496 0.67387 0.84781 0.0
C1001 C 0.73384 0.69263 0.83013 0.0
C1002 C 0.7298 0.64889 0.86546 0.0
C1003 C 0.69356 0.64238 0.86665 0.0
C1004 C 0.67774 0.65986 0.8474 0.0
C1005 C 0.6977 0.6846 0.82918 0.0
C1006 C 0.62154 0.57851 0.90597 0.0
C1007 C 0.63475 0.57846 0.93648 0.0
C1008 C 0.64045 0.59894 0.88303 0.0
C1009 C 0.673 0.6197 0.89007 0.0
C1010 C 0.68587 0.61956 0.92062 0.0
C1011 C 0.66725 0.59928 0.94326 0.0
H1012 H 0.45606 0.65012 0.81959 0.0
H1013 H 0.42467 0.71726 0.89586 0.0
H1014 H 0.48437 0.62733 0.85879 0.0
H1015 H 0.45236 0.69385 0.9351 0.0
H1016 H 0.44493 0.59716 0.98759 0.0
H1017 H 0.43278 0.63579 0.95267 0.0
H1018 H 0.53063 0.63866 0.90119 0.0
H1019 H 0.54297 0.59987 0.93646 0.0
C1020 C 0.45593 0.66059 0.84454 0.0
C1021 C 0.43756 0.68502 0.85474 0.0
C1022 C 0.4722 0.64758 0.86698 0.0
C1023 C 0.47022 0.65867 0.89996 0.0
C1024 C 0.45386 0.68463 0.90983 0.0
C1025 C 0.43784 0.6978 0.88741 0.0
C1026 C 0.46414 0.60655 0.96924 0.0
C1027 C 0.49468 0.59533 0.96445 0.0
C1028 C 0.45733 0.62885 0.94942 0.0
C1029 C 0.48075 0.64006 0.92419 0.0
C1030 C 0.51214 0.63022 0.92043 0.0
C1031 C 0.51923 0.60822 0.94066 0.0
H1032 H 0.35839 0.37 0.805 0.0
H1033 H 0.37762 0.2915 0.85567 0.0
H1034 H 0.40337 0.40996 0.83457 0.0
H1035 H 0.42333 0.33117 0.88439 0.0
H1036 H 0.43668 0.41556 0.96776 0.0
H1037 H 0.41149 0.3724 0.92702 0.0
H1038 H 0.46411 0.43171 0.85194 0.0
H1039 H 0.48952 0.47575 0.89344 0.0
C1040 C 0.373 0.36115 0.82169 0.0
C1041 C 0.36395 0.32795 0.82884 0.0
C1042 C 0.39893 0.38397 0.83843 0.0
C1043 C 0.41632 0.37373 0.86223 0.0
C1044 C 0.40975 0.33982 0.86668 0.0
C1045 C 0.38356 0.31717 0.85034 0.0
C1046 C 0.44311 0.41944 0.94259 0.0
C1047 C 0.46449 0.44925 0.9337 0.0
C1048 C 0.42909 0.39443 0.91919 0.0
C1049 C 0.43597 0.3986 0.88625 0.0
C1050 C 0.45838 0.42794 0.8772 0.0
C1051 C 0.47286 0.45303 0.90085 0.0
H1052 H 0.64092 0.29408 0.91129 0.0
H1053 H 0.5546 0.3128 0.8656 0.0
H1054 H 0.62464 0.3229 0.96152 0.0
H1055 H 0.53829 0.34162 0.91574 0.0
H1056 H 0.52985 0.41654 0.99218 0.0
H1057 H 0.52847 0.3588 0.97396 0.0
H1058 H 0.63873 0.38433 0.95589 0.0
H1059 H 0.64022 0.44211 0.97434 0.0
C1060 C 0.61708 0.30231 0.9125 0.0
C1061 C 0.59987 0.30277 0.88424 0.0
C1062 C 0.60795 0.31909 0.94133 0.0
C1063 C 0.58137 0.33592 0.94196 0.0
C1064 C 0.55942 0.32947 0.91582 0.0
C1065 C 0.56869 0.31289 0.88695 0.0
C1066 C 0.55395 0.40976 0.98481 0.0
C1067 C 0.58507 0.43406 0.98335 0.0
C1068 C 0.55309 0.37658 0.97483 0.0
C1069 C 0.58331 0.36707 0.96321 0.0
C1070 C 0.61495 0.3908 0.965 0.0
C1071 C 0.61582 0.42406 0.97505 0.0
H1072 H 0.66241 0.33739 0.15853 0.0
H1073 H 0.60972 0.39542 0.22779 0.0
H1074 H 0.63388 0.35326 0.11474 0.0
H1075 H 0.58092 0.41053 0.18436 0.0
H1076 H 0.53256 0.43751 0.10392 0.0
H1077 H 0.54279 0.39616 0.13713 0.0
H1078 H 0.64735 0.41066 0.09769 0.0
H1079 H 0.63714 0.45155 0.06456 0.0
C1080 C 0.64424 0.35294 0.16447 0.0
C1081 C 0.63893 0.3658 0.19654 0.0
C1082 C 0.62773 0.36175 0.13946 0.0
C1083 C 0.60547 0.38334 0.14617 0.0
C1084 C 0.59764 0.39353 0.17846 0.0
C1085 C 0.61429 0.38494 0.20341 0.0
C1086 C 0.55741 0.43114 0.10175 0.0
C1087 C 0.58442 0.44832 0.08244 0.0
C1088 C 0.56321 0.4075 0.1207 0.0
C1089 C 0.59594 0.40052 0.12023 0.0
C1090 C 0.6218 0.41536 0.09845 0.0
C1091 C 0.61611 0.43913 0.0798 0.0
H1092 H 0.71469 0.68227 0.25943 0.0
H1093 H 0.76899 0.7172 0.1722 0.0
H1094 H 0.67065 0.64422 0.22716 0.0
H1095 H 0.72565 0.67855 0.14 0.0
H1096 H 0.62896 0.63503 0.08983 0.0
H1097 H 0.66718 0.6731 0.12737 0.0
H1098 H 0.65852 0.59467 0.18947 0.0
H1099 H 0.61895 0.55688 0.15206 0.0
C1100 C 0.71754 0.68146 0.23335 0.0
C1101 C 0.7453 0.70291 0.21837 0.0
C1102 C 0.69226 0.65961 0.21486 0.0
C1103 C 0.69423 0.65868 0.18099 0.0
C1104 C 0.72275 0.67925 0.16607 0.0
C1105 C 0.74787 0.70119 0.18452 0.0
C1106 C 0.63455 0.62627 0.11198 0.0
C1107 C 0.62111 0.5932 0.11822 0.0
C1108 C 0.65682 0.64788 0.13326 0.0
C1109 C 0.66673 0.63672 0.16101 0.0
C1110 C 0.65145 0.60409 0.16832 0.0
C1111 C 0.62868 0.58248 0.14707 0.0
H1112 H 0.48203 0.68674 0.23123 0.0
H1113 H 0.41016 0.72359 0.18066 0.0
H1114 H 0.50695 0.66802 0.17994 0.0
H1115 H 0.43498 0.7045 0.12902 0.0
H1116 H 0.43398 0.59655 0.0756 0.0
H1117 H 0.42528 0.64416 0.11127 0.0
H1118 H 0.53472 0.6752 0.12524 0.0
H1119 H 0.54357 0.62722 0.08976 0.0
C1120 C 0.47242 0.6919 0.20911 0.0
C1121 C 0.44354 0.70555 0.20977 0.0
C1122 C 0.48682 0.6814 0.17966 0.0
C1123 C 0.47244 0.68433 0.15053 0.0
C1124 C 0.44614 0.70151 0.15118 0.0
C1125 C 0.43181 0.71212 0.18065 0.0
C1126 C 0.4563 0.61391 0.08562 0.0
C1127 C 0.48922 0.60743 0.08093 0.0
C1128 C 0.4514 0.64152 0.10572 0.0
C1129 C 0.47934 0.66302 0.12142 0.0
C1130 C 0.51275 0.65867 0.11374 0.0
C1131 C 0.51768 0.63108 0.09358 0.0
H1132 H 0.30598 0.34218 0.18391 0.0
H1133 H 0.37802 0.38345 0.25866 0.0
H1134 H 0.34097 0.37956 0.147 0.0
H1135 H 0.41377 0.41932 0.22164 0.0
H1136 H 0.46076 0.49957 0.15439 0.0
H1137 H 0.42377 0.46539 0.19301 0.0
H1138 H 0.39122 0.38851 0.11551 0.0
H1139 H 0.42654 0.42326 0.07727 0.0
C1140 C 0.32925 0.35918 0.1925 0.0
C1141 C 0.33894 0.35967 0.22438 0.0
C1142 C 0.34967 0.38051 0.1712 0.0
C1143 C 0.38075 0.4026 0.18095 0.0
C1144 C 0.38999 0.4033 0.21305 0.0
C1145 C 0.36938 0.38239 0.2344 0.0
C1146 C 0.44581 0.47528 0.14579 0.0
C1147 C 0.44646 0.46432 0.11271 0.0
C1148 C 0.42452 0.45551 0.16793 0.0
C1149 C 0.4038 0.42401 0.15762 0.0
C1150 C 0.40565 0.41284 0.12458 0.0
C1151 C 0.42633 0.43274 0.10254 0.0
H1152 H 0.81318 0.7118 0.68911 0.0
H1153 H 0.88264 0.71336 0.76409 0.0
H1154 H 0.84457 0.67835 0.65258 0.0
H1155 H 0.91506 0.68098 0.72736 0.0
H1156 H 0.96398 0.60679 0.65804 0.0
H1157 H 0.9296 0.63592 0.6971 0.0
H1158 H 0.88785 0.67072 0.61825 0.0
H1159 H 0.92033 0.64119 0.58027 0.0
C1160 C 0.83527 0.70525 0.698 0.0
C1161 C 0.8447 0.71594 0.73022 0.0
C1162 C 0.85395 0.68592 0.6766 0.0
C1163 C 0.88358 0.67631 0.68589 0.0
C1164 C 0.8927 0.68685 0.71834 0.0
C1165 C 0.87384 0.70596 0.73978 0.0
C1166 C 0.9471 0.62023 0.64896 0.0
C1167 C 0.94561 0.62078 0.61514 0.0
C1168 C 0.92726 0.63757 0.67167 0.0
C1169 C 0.90486 0.65647 0.66185 0.0
C1170 C 0.90348 0.65653 0.62803 0.0
C1171 C 0.92294 0.63931 0.60564 0.0
H1172 H 0.28726 0.86384 0.70938 0.0
H1173 H 0.38108 0.83161 0.71815 0.0
H1174 H 0.31662 0.90121 0.66986 0.0
H1175 H 0.41047 0.86938 0.6794 0.0
H1176 H 0.45475 0.92935 0.59842 0.0
H1177 H 0.41631 0.88377 0.62414 0.0
H1178 H 0.36002 0.9525 0.67367 0.0
H1179 H 0.39757 0.99762 0.64754 0.0
C1180 C 0.31404 0.86451 0.70271 0.0
C1181 C 0.33194 0.84501 0.71721 0.0
C1182 C 0.33089 0.88599 0.68011 0.0
C1183 C 0.36596 0.88842 0.67154 0.0
C1184 C 0.38336 0.86785 0.68506 0.0
C1185 C 0.36655 0.84639 0.70759 0.0
C1186 C 0.43366 0.93458 0.61419 0.0
C1187 C 0.42962 0.96726 0.6213 0.0
C1188 C 0.4118 0.90849 0.62913 0.0
C1189 C 0.38538 0.91455 0.65133 0.0
C1190 C 0.37992 0.94683 0.6566 0.0
C1191 C 0.40174 0.97283 0.64177 0.0
H1192 H 0.20759 0.41834 0.64387 0.0
H1193 H 0.14338 0.41511 0.73149 0.0
H1194 H 0.17616 0.45413 0.62311 0.0
H1195 H 0.11262 0.45252 0.71115 0.0
H1196 H 0.03907 0.47927 0.63865 0.0
H1197 H 0.072 0.45261 0.67062 0.0
H1198 H 0.16664 0.50842 0.62843 0.0
H1199 H 0.13344 0.53374 0.59569 0.0
C1200 C 0.18674 0.42529 0.6588 0.0
C1201 C 0.17786 0.41341 0.68925 0.0
C1202 C 0.16902 0.44643 0.64709 0.0
C1203 C 0.14193 0.45665 0.66552 0.0
C1204 C 0.13321 0.44512 0.69621 0.0
C1205 C 0.15104 0.42385 0.70797 0.0
C1206 C 0.06694 0.48675 0.63732 0.0
C1207 C 0.08381 0.50873 0.61501 0.0
C1208 C 0.08589 0.47133 0.65547 0.0
C1209 C 0.12206 0.47773 0.65162 0.0
C1210 C 0.13883 0.50215 0.6314 0.0
C1211 C 0.11991 0.51714 0.61303 0.0
H1212 H 0.69672 0.21313 0.77541 0.0
H1213 H 0.77432 0.21731 0.69788 0.0
H1214 H 0.65514 0.17588 0.74131 0.0
H1215 H 0.73209 0.17855 0.66316 0.0
H1216 H 0.62917 0.15208 0.60486 0.0
H1217 H 0.6796 0.17987 0.63589 0.0
H1218 H 0.6383 0.12165 0.71519 0.0
H1219 H 0.58756 0.09512 0.68484 0.0
C1220 C 0.7051 0.20557 0.75108 0.0
C1221 C 0.73879 0.21839 0.73926 0.0
C1222 C 0.6812 0.18382 0.73151 0.0
C1223 C 0.69015 0.17401 0.69941 0.0
C1224 C 0.7243 0.1858 0.68774 0.0
C1225 C 0.74856 0.2077 0.70763 0.0
C1226 C 0.63111 0.14508 0.62883 0.0
C1227 C 0.60402 0.12206 0.64276 0.0
C1228 C 0.66015 0.16079 0.64651 0.0
C1229 C 0.6628 0.15343 0.67828 0.0
C1230 C 0.63672 0.12862 0.69115 0.0
C1231 C 0.60759 0.1134 0.67376 0.0
H1232 H 0.87032 0.31379 0.39274 0.0
H1233 H 0.7958 0.37361 0.39153 0.0
H1234 H 0.8967 0.3495 0.43862 0.0
H1235 H 0.82117 0.40868 0.43852 0.0
H1236 H 0.95315 0.42056 0.50708 0.0
H1237 H 0.90131 0.37911 0.49153 0.0
H1238 H 0.87497 0.44783 0.43223 0.0
H1239 H 0.92587 0.48923 0.44852 0.0
C1240 C 0.85899 0.33401 0.40303 0.0
C1241 C 0.83229 0.34213 0.38798 0.0
C1242 C 0.87368 0.35419 0.42966 0.0
C1243 C 0.86144 0.38242 0.44162 0.0
C1244 C 0.83162 0.38761 0.42918 0.0
C1245 C 0.81739 0.36782 0.40219 0.0
C1246 C 0.93583 0.42683 0.49113 0.0
C1247 C 0.94402 0.45736 0.47773 0.0
C1248 C 0.90607 0.40331 0.48259 0.0
C1249 C 0.88457 0.40993 0.46014 0.0
C1250 C 0.8909 0.44191 0.4497 0.0
C1251 C 0.9204 0.46554 0.45858 0.0
H1252 H 0.60533 0.81369 0.42263 0.0
H1253 H 0.70486 0.86861 0.45522 0.0
H1254 H 0.57818 0.854 0.45459 0.0
H1255 H 0.67772 0.90889 0.48728 0.0
H1256 H 0.6242 0.99544 0.47923 0.0
H1257 H 0.65146 0.94951 0.46419 0.0
H1258 H 0.56608 0.88298 0.50906 0.0
H1259 H 0.5383 0.92904 0.52407 0.0
C1260 C 0.62121 0.83382 0.43744 0.0
C1261 C 0.65717 0.83857 0.43605 0.0
C1262 C 0.6057 0.85681 0.45577 0.0
C1263 C 0.62601 0.88474 0.47292 0.0
C1264 C 0.66164 0.88782 0.47376 0.0
C1265 C 0.67712 0.8649 0.45543 0.0
C1266 C 0.61122 0.97111 0.48609 0.0
C1267 C 0.57885 0.96582 0.50243 0.0
C1268 C 0.62708 0.94488 0.47783 0.0
C1269 C 0.61089 0.9128 0.48564 0.0
C1270 C 0.57898 0.90753 0.50274 0.0
C1271 C 0.56316 0.93389 0.51126 0.0
H1272 H 0.26252 0.71945 0.38705 0.0
H1273 H 0.17989 0.75851 0.35671 0.0
H1274 H 0.22183 0.68438 0.42213 0.0
H1275 H 0.13935 0.72342 0.39199 0.0
H1276 H 0.08624 0.68421 0.48366 0.0
H1277 H 0.13128 0.71985 0.45348 0.0
H1278 H 0.16875 0.63466 0.41225 0.0
H1279 H 0.12319 0.59836 0.44238 0.0
C1280 C 0.23574 0.72078 0.3881 0.0
C1281 C 0.22431 0.74178 0.36925 0.0
C1282 C 0.21254 0.70054 0.40797 0.0
C1283 C 0.17768 0.70134 0.40964 0.0
C1284 C 0.16628 0.72266 0.39121 0.0
C1285 C 0.18939 0.7426 0.37101 0.0
C1286 C 0.10413 0.6729 0.46838 0.0
C1287 C 0.10076 0.6383 0.46498 0.0
C1288 C 0.12984 0.6934 0.45109 0.0
C1289 C 0.15294 0.67983 0.4303 0.0
C1290 C 0.15105 0.64557 0.42821 0.0
C1291 C 0.12504 0.62487 0.4454 0.0
H1292 H 0.36752 0.23253 0.46733 0.0
H1293 H 0.46754 0.27191 0.4231 0.0
H1294 H 0.3898 0.18948 0.48787 0.0
H1295 H 0.49023 0.22993 0.44496 0.0
H1296 H 0.50462 0.12568 0.44564 0.0
H1297 H 0.48103 0.17019 0.43014 0.0
H1298 H 0.42931 0.17744 0.52415 0.0
H1299 H 0.45198 0.13238 0.53943 0.0
C1300 C 0.39446 0.23242 0.46269 0.0
C1301 C 0.4157 0.2552 0.44328 0.0
C1302 C 0.40724 0.20791 0.47455 0.0
C1303 C 0.44152 0.20599 0.46735 0.0
C1304 C 0.46344 0.23039 0.45014 0.0
C1305 C 0.45062 0.25478 0.43813 0.0
C1306 C 0.4878 0.1364 0.46283 0.0
C1307 C 0.48037 0.12563 0.4938 0.0
C1308 C 0.47467 0.16217 0.45411 0.0
C1309 C 0.45397 0.17769 0.47623 0.0
C1310 C 0.44524 0.16594 0.50665 0.0
C1311 C 0.45822 0.14007 0.51533 0.0
H1312 H 0.61357 0.87179 0.72025 0.0
H1313 H 0.69834 0.90107 0.65192 0.0
H1314 H 0.58517 0.91189 0.70216 0.0
H1315 H 0.67032 0.94166 0.63413 0.0
H1316 H 0.59254 0.98356 0.58508 0.0
H1317 H 0.62344 0.9462 0.60443 0.0
H1318 H 0.58626 0.96901 0.70202 0.0
H1319 H 0.55444 1.00564 0.68244 0.0
C1320 C 0.6264 0.88711 0.70165 0.0
C1321 C 0.65825 0.88306 0.68752 0.0
C1322 C 0.61012 0.91025 0.69127 0.0
C1323 C 0.62531 0.93021 0.66658 0.0
C1324 C 0.65742 0.92642 0.65276 0.0
C1325 C 0.67359 0.90312 0.66301 0.0
C1326 C 0.59117 0.9809 0.61073 0.0
C1327 C 0.57085 0.99767 0.63216 0.0
C1328 C 0.60907 0.95946 0.6219 0.0
C1329 C 0.60739 0.95429 0.65488 0.0
C1330 C 0.58774 0.97176 0.6764 0.0
C1331 C 0.56965 0.99304 0.66519 0.0
H1332 H 0.74222 0.19782 0.36709 0.0
H1333 H 0.70552 0.28662 0.39562 0.0
H1334 H 0.70577 0.17009 0.40963 0.0
H1335 H 0.66949 0.25907 0.4389 0.0
H1336 H 0.58021 0.18302 0.48885 0.0
H1337 H 0.61899 0.2174 0.45133 0.0
H1338 H 0.69872 0.16689 0.46569 0.0
H1339 H 0.65966 0.13222 0.50208 0.0
C1340 C 0.7265 0.21158 0.38251 0.0
C1341 C 0.72697 0.24458 0.37761 0.0
C1342 C 0.70567 0.19569 0.40731 0.0
C1343 C 0.68456 0.21221 0.42827 0.0
C1344 C 0.68499 0.24525 0.4233 0.0
C1345 C 0.70589 0.26118 0.39844 0.0
C1346 C 0.60644 0.18017 0.48484 0.0
C1347 C 0.61691 0.15508 0.4988 0.0
C1348 C 0.62871 0.1997 0.46302 0.0
C1349 C 0.66205 0.19465 0.45463 0.0
C1350 C 0.67308 0.17108 0.47055 0.0
C1351 C 0.65084 0.1515 0.492 0.0
H1352 H 0.83013 0.71608 0.37303 0.0
H1353 H 0.90092 0.7106 0.29204 0.0
H1354 H 0.86004 0.68432 0.40268 0.0
H1355 H 0.93105 0.67845 0.32169 0.0
H1356 H 0.98519 0.61016 0.38192 0.0
H1357 H 0.95537 0.64063 0.34956 0.0
H1358 H 0.89307 0.6619 0.43328 0.0
H1359 H 0.9223 0.6321 0.46489 0.0
C1360 C 0.85207 0.70836 0.36081 0.0
C1361 C 0.86138 0.71758 0.32854 0.0
C1362 C 0.87014 0.68935 0.37859 0.0
C1363 C 0.89982 0.67689 0.36638 0.0
C1364 C 0.90909 0.68605 0.33394 0.0
C1365 C 0.89108 0.7053 0.31619 0.0
C1366 C 0.96482 0.62062 0.39393 0.0
C1367 C 0.95743 0.61645 0.42781 0.0
C1368 C 0.94715 0.63916 0.37471 0.0
C1369 C 0.91998 0.65559 0.38698 0.0
C1370 C 0.91271 0.65091 0.42061 0.0
C1371 C 0.93034 0.63285 0.43962 0.0
H1372 H 0.30052 0.87949 0.39528 0.0
H1373 H 0.39576 0.85683 0.35575 0.0
H1374 H 0.33311 0.92258 0.43404 0.0
H1375 H 0.42786 0.89981 0.39378 0.0
H1376 H 0.47457 1.00562 0.43263 0.0
H1377 H 0.43546 0.96436 0.39889 0.0
H1378 H 0.37781 0.92748 0.48361 0.0
H1379 H 0.41796 0.96897 0.51822 0.0
C1380 C 0.3283 0.88365 0.3948 0.0
C1381 C 0.34545 0.86471 0.37216 0.0
C1382 C 0.34691 0.90816 0.41716 0.0
C1383 C 0.38308 0.9147 0.41692 0.0
C1384 C 0.40004 0.89556 0.39449 0.0
C1385 C 0.38155 0.87083 0.37266 0.0
C1386 C 0.45347 0.98905 0.4444 0.0
C1387 C 0.4499 0.99054 0.47839 0.0
C1388 C 0.43102 0.96528 0.42487 0.0
C1389 C 0.40384 0.9423 0.43849 0.0
C1390 C 0.3986 0.94487 0.4724 0.0
C1391 C 0.42154 0.96869 0.49221 0.0
H1392 H 0.17737 0.34541 0.30307 0.0
H1393 H 0.24939 0.37742 0.37809 0.0
H1394 H 0.14092 0.38154 0.33026 0.0
H1395 H 0.21302 0.41289 0.40541 0.0
H1396 H 0.13635 0.47107 0.46655 0.0
H1397 H 0.17197 0.43675 0.43694 0.0
H1398 H 0.1115 0.42699 0.35385 0.0
H1399 H 0.07551 0.46229 0.38394 0.0
C1400 C 0.18627 0.35978 0.3254 0.0
C1401 C 0.2186 0.35634 0.33675 0.0
C1402 C 0.16439 0.38154 0.34173 0.0
C1403 C 0.17163 0.40242 0.37186 0.0
C1404 C 0.20389 0.3987 0.38312 0.0
C1405 C 0.22588 0.37738 0.36664 0.0
C1406 C 0.13005 0.46257 0.44173 0.0
C1407 C 0.10131 0.47244 0.42942 0.0
C1408 C 0.15153 0.4417 0.42391 0.0
C1409 C 0.14706 0.42678 0.39111 0.0
C1410 C 0.11814 0.43638 0.37841 0.0
C1411 C 0.09671 0.45791 0.39631 0.0
H1412 H 0.37274 0.21499 0.77035 0.0
H1413 H 0.3279 0.24094 0.68825 0.0
H1414 H 0.41471 0.19372 0.73451 0.0
H1415 H 0.37039 0.2198 0.65218 0.0
H1416 H 0.42405 0.1372 0.60001 0.0
H1417 H 0.38549 0.16779 0.63122 0.0
H1418 H 0.46497 0.20864 0.69935 0.0
H1419 H 0.50314 0.17762 0.66812 0.0
C1420 C 0.37185 0.21637 0.74463 0.0
C1421 C 0.3466 0.22974 0.7324 0.0
C1422 C 0.3963 0.20436 0.72396 0.0
C1423 C 0.39637 0.20508 0.69021 0.0
C1424 C 0.37119 0.21856 0.67793 0.0
C1425 C 0.34681 0.23085 0.6987 0.0
C1426 C 0.43371 0.15384 0.62091 0.0
C1427 C 0.46701 0.1557 0.63107 0.0
C1428 C 0.41148 0.17124 0.63905 0.0
C1429 C 0.42173 0.19055 0.66823 0.0
C1430 C 0.4558 0.1937 0.67738 0.0
C1431 C 0.47802 0.17642 0.65913 0.0
H1432 H 0.90053 0.33577 0.72112 0.0
H1433 H 0.815 0.38147 0.71929 0.0
H1434 H 0.932 0.37137 0.68068 0.0
H1435 H 0.84613 0.41687 0.6787 0.0
H1436 H 0.91955 0.49636 0.61738 0.0
H1437 H 0.88698 0.46152 0.65839 0.0
H1438 H 0.94496 0.3875 0.6293 0.0
H1439 H 0.97708 0.42196 0.58913 0.0
C1440 C 0.88804 0.35322 0.71219 0.0
C1441 C 0.85441 0.35474 0.72441 0.0
C1442 C 0.90636 0.37403 0.68833 0.0
C1443 C 0.8925 0.39807 0.67505 0.0
C1444 C 0.85889 0.39962 0.68755 0.0
C1445 C 0.84053 0.37868 0.71122 0.0
C1446 C 0.92532 0.47257 0.61938 0.0
C1447 C 0.95165 0.46284 0.59872 0.0
C1448 C 0.90631 0.45209 0.64337 0.0
C1449 C 0.91256 0.42066 0.64858 0.0
C1450 C 0.93874 0.41114 0.62764 0.0
C1451 C 0.95742 0.43134 0.60374 0.0
H1452 H 0.17371 0.75868 0.73442 0.0
H1453 H 0.24731 0.70214 0.69691 0.0
H1454 H 0.13326 0.72876 0.69401 0.0
H1455 H 0.20695 0.67228 0.65597 0.0
H1456 H 0.11601 0.60247 0.59994 0.0
H1457 H 0.15736 0.6325 0.63974 0.0
H1458 H 0.11378 0.71799 0.64155 0.0
H1459 H 0.07219 0.68765 0.60203 0.0
C1460 C 0.18158 0.73988 0.71756 0.0
C1461 C 0.21453 0.73334 0.71975 0.0
C1462 C 0.15805 0.72256 0.69378 0.0
C1463 C 0.16585 0.69741 0.67069 0.0
C1464 C 0.19888 0.69083 0.67296 0.0
C1465 C 0.22254 0.70835 0.69669 0.0
C1466 C 0.11518 0.62777 0.60854 0.0
C1467 C 0.09008 0.64214 0.59691 0.0
C1468 C 0.13938 0.64537 0.63169 0.0
C1469 C 0.13989 0.67839 0.64488 0.0
C1470 C 0.11479 0.69274 0.63307 0.0
C1471 C 0.09069 0.67518 0.60979 0.0
loop_
_geom_bond_atom_site_label_1
_geom_bond_atom_site_label_2
_geom_bond_distance
_geom_bond_site_symmetry_2
_ccdc_geom_bond_type
Tb0 C10 2.825 . S
Tb0 O11 2.347 . S
Tb0 O14 2.366 . S
Tb0 O19 2.418 . S
Tb0 O20 2.384 . S
Tb0 O23 2.479 . S
Tb0 O24 2.471 . S
Eu1 O12 2.418 . S
Eu1 O13 2.384 . S
Eu1 O16 2.479 . S
Eu1 O17 2.471 . S
Eu1 O18 2.347 . S
Eu1 O21 2.366 . S
Eu1 C31 2.825 . S
C2 O18 1.259 . S
C2 O19 1.265 . S
C3 O20 1.255 . S
C3 O21 1.265 . S
C4 C6 1.380 . S
C4 C7 1.374 . S
C4 C10 1.507 . S
C5 C6 1.384 . S
C5 C9 1.387 . S
C5 H32 0.930 . S
C6 C4 1.380 . S
C6 C5 1.384 . S
C6 H33 0.931 . S
C7 C4 1.374 . S
C7 C8 1.390 . S
C7 H34 0.930 . S
C8 C7 1.390 . S
C8 C9 1.391 . S
C8 H35 0.930 . S
C9 C5 1.387 . S
C9 C8 1.391 . S
C10 Tb0 2.825 . S
C10 C4 1.507 . S
C10 O23 1.238 . S
C10 O24 1.247 . S
O11 Tb0 2.347 . S
O11 C15 1.259 . S
O12 Eu1 2.418 . S
O12 C15 1.265 . S
O13 Eu1 2.384 . S
O13 C22 1.255 . S
O14 Tb0 2.366 . S
O14 C22 1.265 . S
C15 O11 1.259 . S
C15 O12 1.265 . S
O16 Eu1 2.479 . S
O16 C31 1.238 . S
O17 Eu1 2.471 . S
O17 C31 1.247 . S
O18 Eu1 2.347 . S
O18 C2 1.259 . S
O19 Tb0 2.418 . S
O19 C2 1.265 . S
O20 Tb0 2.384 . S
O20 C3 1.255 . S
O21 Eu1 2.366 . S
O21 C3 1.265 . S
C22 O13 1.255 . S
C22 O14 1.265 . S
O23 Tb0 2.479 . S
O23 C10 1.238 . S
O24 Tb0 2.471 . S
O24 C10 1.247 . S
C25 C28 1.380 . S
C25 C29 1.374 . S
C25 C31 1.507 . S
C26 C27 1.387 . S
C26 C30 1.391 . S
C27 C26 1.387 . S
C27 C28 1.384 . S
C27 H36 0.930 . S
C28 C25 1.380 . S
C28 C27 1.384 . S
C28 H37 0.931 . S
C29 C25 1.374 . S
C29 C30 1.390 . S
C29 H38 0.930 . S
C30 C26 1.391 . S
C30 C29 1.390 . S
C30 H39 0.930 . S
C31 Eu1 2.825 . S
C31 O16 1.238 . S
C31 O17 1.247 . S
C31 C25 1.507 . S
H32 C5 0.930 . S
H33 C6 0.931 . S
H34 C7 0.930 . S
H35 C8 0.930 . S
H36 C27 0.930 . S
H37 C28 0.931 . S
H38 C29 0.930 . S
H39 C30 0.930 . S
Tb40 C50 2.825 . S
Tb40 O51 2.347 . S
Tb40 O54 2.366 . S
Tb40 O59 2.418 . S
Tb40 O60 2.384 . S
Tb40 O63 2.479 . S
Tb40 O64 2.471 . S
Eu41 O52 2.418 . S
Eu41 O53 2.384 . S
Eu41 O56 2.479 . S
Eu41 O57 2.471 . S
Eu41 O58 2.347 . S
Eu41 O61 2.366 . S
Eu41 C71 2.825 . S
C42 O58 1.259 . S
C42 O59 1.265 . S
C43 O60 1.255 . S
C43 O61 1.265 . S
C44 C46 1.380 . S
C44 C47 1.374 . S
C44 C50 1.507 . S
C45 C46 1.384 . S
C45 C49 1.387 . S
C45 H72 0.930 . S
C46 C44 1.380 . S
C46 C45 1.384 . S
C46 H73 0.931 . S
C47 C44 1.374 . S
C47 C48 1.390 . S
C47 H74 0.930 . S
C48 C47 1.390 . S
C48 C49 1.391 . S
C48 H75 0.930 . S
C49 C45 1.387 . S
C49 C48 1.391 . S
C50 Tb40 2.825 . S
C50 C44 1.507 . S
C50 O63 1.238 . S
C50 O64 1.247 . S
O51 Tb40 2.347 . S
O51 C55 1.259 . S
O52 Eu41 2.418 . S
O52 C55 1.265 . S
O53 Eu41 2.384 . S
O53 C62 1.255 . S
O54 Tb40 2.366 . S
O54 C62 1.265 . S
C55 O51 1.259 . S
C55 O52 1.265 . S
O56 Eu41 2.479 . S
O56 C71 1.238 . S
O57 Eu41 2.471 . S
O57 C71 1.247 . S
O58 Eu41 2.347 . S
O58 C42 1.259 . S
O59 Tb40 2.418 . S
O59 C42 1.265 . S
O60 Tb40 2.384 . S
O60 C43 1.255 . S
O61 Eu41 2.366 . S
O61 C43 1.265 . S
C62 O53 1.255 . S
C62 O54 1.265 . S
O63 Tb40 2.479 . S
O63 C50 1.238 . S
O64 Tb40 2.471 . S
O64 C50 1.247 . S
C65 C68 1.380 . S
C65 C69 1.374 . S
C65 C71 1.507 . S
C66 C67 1.387 . S
C66 C70 1.391 . S
C67 C66 1.387 . S
C67 C68 1.384 . S
C67 H76 0.930 . S
C68 C65 1.380 . S
C68 C67 1.384 . S
C68 H77 0.931 . S
C69 C65 1.374 . S
C69 C70 1.390 . S
C69 H78 0.930 . S
C70 C66 1.391 . S
C70 C69 1.390 . S
C70 H79 0.930 . S
C71 Eu41 2.825 . S
C71 O56 1.238 . S
C71 O57 1.247 . S
C71 C65 1.507 . S
H72 C45 0.930 . S
H73 C46 0.931 . S
H74 C47 0.930 . S
H75 C48 0.930 . S
H76 C67 0.930 . S
H77 C68 0.931 . S
H78 C69 0.930 . S
H79 C70 0.930 . S
Tb80 C90 2.825 . S
Tb80 O91 2.347 . S
Tb80 O94 2.366 . S
Tb80 O99 2.418 . S
Tb80 O100 2.384 . S
Tb80 O103 2.479 . S
Tb80 O104 2.471 . S
Eu81 O92 2.418 . S
Eu81 O93 2.384 . S
Eu81 O96 2.479 . S
Eu81 O97 2.471 . S
Eu81 O98 2.347 . S
Eu81 O101 2.366 . S
Eu81 C111 2.825 . S
C82 O98 1.259 . S
C82 O99 1.265 . S
C83 O100 1.255 . S
C83 O101 1.265 . S
C84 C86 1.380 . S
C84 C87 1.374 . S
C84 C90 1.507 . S
C85 C86 1.384 . S
C85 C89 1.387 . S
C85 H112 0.930 . S
C86 C84 1.380 . S
C86 C85 1.384 . S
C86 H113 0.931 . S
C87 C84 1.374 . S
C87 C88 1.390 . S
C87 H114 0.930 . S
C88 C87 1.390 . S
C88 C89 1.391 . S
C88 H115 0.930 . S
C89 C85 1.387 . S
C89 C88 1.391 . S
C90 Tb80 2.825 . S
C90 C84 1.507 . S
C90 O103 1.238 . S
C90 O104 1.247 . S
O91 Tb80 2.347 . S
O91 C95 1.259 . S
O92 Eu81 2.418 . S
O92 C95 1.265 . S
O93 Eu81 2.384 . S
O93 C102 1.255 . S
O94 Tb80 2.366 . S
O94 C102 1.265 . S
C95 O91 1.259 . S
C95 O92 1.265 . S
O96 Eu81 2.479 . S
O96 C111 1.238 . S
O97 Eu81 2.471 . S
O97 C111 1.247 . S
O98 Eu81 2.347 . S
O98 C82 1.259 . S
O99 Tb80 2.418 . S
O99 C82 1.265 . S
O100 Tb80 2.384 . S
O100 C83 1.255 . S
O101 Eu81 2.366 . S
O101 C83 1.265 . S
C102 O93 1.255 . S
C102 O94 1.265 . S
O103 Tb80 2.479 . S
O103 C90 1.238 . S
O104 Tb80 2.471 . S
O104 C90 1.247 . S
C105 C108 1.380 . S
C105 C109 1.374 . S
C105 C111 1.507 . S
C106 C107 1.387 . S
C106 C110 1.391 . S
C107 C106 1.387 . S
C107 C108 1.384 . S
C107 H116 0.930 . S
C108 C105 1.380 . S
C108 C107 1.384 . S
C108 H117 0.931 . S
C109 C105 1.374 . S
C109 C110 1.390 . S
C109 H118 0.930 . S
C110 C106 1.391 . S
C110 C109 1.390 . S
C110 H119 0.930 . S
C111 Eu81 2.825 . S
C111 O96 1.238 . S
C111 O97 1.247 . S
C111 C105 1.507 . S
H112 C85 0.930 . S
H113 C86 0.931 . S
H114 C87 0.930 . S
H115 C88 0.930 . S
H116 C107 0.930 . S
H117 C108 0.931 . S
H118 C109 0.930 . S
H119 C110 0.930 . S
Tb120 C130 2.825 . S
Tb120 O131 2.347 . S
Tb120 O134 2.366 . S
Tb120 O139 2.418 . S
Tb120 O140 2.384 . S
Tb120 O143 2.479 . S
Tb120 O144 2.471 . S
Eu121 O132 2.418 . S
Eu121 O133 2.384 . S
Eu121 O136 2.479 . S
Eu121 O137 2.471 . S
Eu121 O138 2.347 . S
Eu121 O141 2.366 . S
Eu121 C151 2.825 . S
C122 O138 1.259 . S
C122 O139 1.265 . S
C123 O140 1.255 . S
C123 O141 1.265 . S
C124 C126 1.380 . S
C124 C127 1.374 . S
C124 C130 1.507 . S
C125 C126 1.384 . S
C125 C129 1.387 . S
C125 H152 0.930 . S
C126 C124 1.380 . S
C126 C125 1.384 . S
C126 H153 0.931 . S
C127 C124 1.374 . S
C127 C128 1.390 . S
C127 H154 0.930 . S
C128 C127 1.390 . S
C128 C129 1.391 . S
C128 H155 0.930 . S
C129 C125 1.387 . S
C129 C128 1.391 . S
C130 Tb120 2.825 . S
C130 C124 1.507 . S
C130 O143 1.238 . S
C130 O144 1.247 . S
O131 Tb120 2.347 . S
O131 C135 1.259 . S
O132 Eu121 2.418 . S
O132 C135 1.265 . S
O133 Eu121 2.384 . S
O133 C142 1.255 . S
O134 Tb120 2.366 . S
O134 C142 1.265 . S
C135 O131 1.259 . S
C135 O132 1.265 . S
O136 Eu121 2.479 . S
O136 C151 1.238 . S
O137 Eu121 2.471 . S
O137 C151 1.247 . S
O138 Eu121 2.347 . S
O138 C122 1.259 . S
O139 Tb120 2.418 . S
O139 C122 1.265 . S
O140 Tb120 2.384 . S
O140 C123 1.255 . S
O141 Eu121 2.366 . S
O141 C123 1.265 . S
C142 O133 1.255 . S
C142 O134 1.265 . S
O143 Tb120 2.479 . S
O143 C130 1.238 . S
O144 Tb120 2.471 . S
O144 C130 1.247 . S
C145 C148 1.380 . S
C145 C149 1.374 . S
C145 C151 1.507 . S
C146 C147 1.387 . S
C146 C150 1.391 . S
C147 C146 1.387 . S
C147 C148 1.384 . S
C147 H156 0.930 . S
C148 C145 1.380 . S
C148 C147 1.384 . S
C148 H157 0.931 . S
C149 C145 1.374 . S
C149 C150 1.390 . S
C149 H158 0.930 . S
C150 C146 1.391 . S
C150 C149 1.390 . S
C150 H159 0.930 . S
C151 Eu121 2.825 . S
C151 O136 1.238 . S
C151 O137 1.247 . S
C151 C145 1.507 . S
H152 C125 0.930 . S
H153 C126 0.931 . S
H154 C127 0.930 . S
H155 C128 0.930 . S
H156 C147 0.930 . S
H157 C148 0.931 . S
H158 C149 0.930 . S
H159 C150 0.930 . S
Tb160 C170 2.825 . S
Tb160 O171 2.347 . S
Tb160 O174 2.366 . S
Tb160 O179 2.418 . S
Tb160 O180 2.384 . S
Tb160 O183 2.479 . S
Tb160 O184 2.471 . S
Eu161 O172 2.418 . S
Eu161 O173 2.384 . S
Eu161 O176 2.479 . S
Eu161 O177 2.471 . S
Eu161 O178 2.347 . S
Eu161 O181 2.366 . S
Eu161 C191 2.825 . S
C162 O178 1.259 . S
C162 O179 1.265 . S
C163 O180 1.255 . S
C163 O181 1.265 . S
C164 C166 1.380 . S
C164 C167 1.374 . S
C164 C170 1.507 . S
C165 C166 1.384 . S
C165 C169 1.387 . S
C165 H192 0.930 . S
C166 C164 1.380 . S
C166 C165 1.384 . S
C166 H193 0.931 . S
C167 C164 1.374 . S
C167 C168 1.390 . S
C167 H194 0.930 . S
C168 C167 1.390 . S
C168 C169 1.391 . S
C168 H195 0.930 . S
C169 C165 1.387 . S
C169 C168 1.391 . S
C170 Tb160 2.825 . S
C170 C164 1.507 . S
C170 O183 1.238 . S
C170 O184 1.247 . S
O171 Tb160 2.347 . S
O171 C175 1.259 . S
O172 Eu161 2.418 . S
O172 C175 1.265 . S
O173 Eu161 2.384 . S
O173 C182 1.255 . S
O174 Tb160 2.366 . S
O174 C182 1.265 . S
C175 O171 1.259 . S
C175 O172 1.265 . S
O176 Eu161 2.479 . S
O176 C191 1.238 . S
O177 Eu161 2.471 . S
O177 C191 1.247 . S
O178 Eu161 2.347 . S
O178 C162 1.259 . S
O179 Tb160 2.418 . S
O179 C162 1.265 . S
O180 Tb160 2.384 . S
O180 C163 1.255 . S
O181 Eu161 2.366 . S
O181 C163 1.265 . S
C182 O173 1.255 . S
C182 O174 1.265 . S
O183 Tb160 2.479 . S
O183 C170 1.238 . S
O184 Tb160 2.471 . S
O184 C170 1.247 . S
C185 C188 1.380 . S
C185 C189 1.374 . S
C185 C191 1.507 . S
C186 C187 1.387 . S
C186 C190 1.391 . S
C187 C186 1.387 . S
C187 C188 1.384 . S
C187 H196 0.930 . S
C188 C185 1.380 . S
C188 C187 1.384 . S
C188 H197 0.931 . S
C189 C185 1.374 . S
C189 C190 1.390 . S
C189 H198 0.930 . S
C190 C186 1.391 . S
C190 C189 1.390 . S
C190 H199 0.930 . S
C191 Eu161 2.825 . S
C191 O176 1.238 . S
C191 O177 1.247 . S
C191 C185 1.507 . S
H192 C165 0.930 . S
H193 C166 0.931 . S
H194 C167 0.930 . S
H195 C168 0.930 . S
H196 C187 0.930 . S
H197 C188 0.931 . S
H198 C189 0.930 . S
H199 C190 0.930 . S
Tb200 C210 2.825 . S
Tb200 O211 2.347 . S
Tb200 O214 2.366 . S
Tb200 O219 2.418 . S
Tb200 O220 2.384 . S
Tb200 O223 2.479 . S
Tb200 O224 2.471 . S
Eu201 O212 2.418 . S
Eu201 O213 2.384 . S
Eu201 O216 2.479 . S
Eu201 O217 2.471 . S
Eu201 O218 2.347 . S
Eu201 O221 2.366 . S
Eu201 C231 2.825 . S
C202 O218 1.259 . S
C202 O219 1.265 . S
C203 O220 1.255 . S
C203 O221 1.265 . S
C204 C206 1.380 . S
C204 C207 1.374 . S
C204 C210 1.507 . S
C205 C206 1.384 . S
C205 C209 1.387 . S
C205 H232 0.930 . S
C206 C204 1.380 . S
C206 C205 1.384 . S
C206 H233 0.931 . S
C207 C204 1.374 . S
C207 C208 1.390 . S
C207 H234 0.930 . S
C208 C207 1.390 . S
C208 C209 1.391 . S
C208 H235 0.930 . S
C209 C205 1.387 . S
C209 C208 1.391 . S
C210 Tb200 2.825 . S
C210 C204 1.507 . S
C210 O223 1.238 . S
C210 O224 1.247 . S
O211 Tb200 2.347 . S
O211 C215 1.259 . S
O212 Eu201 2.418 . S
O212 C215 1.265 . S
O213 Eu201 2.384 . S
O213 C222 1.255 . S
O214 Tb200 2.366 . S
O214 C222 1.265 . S
C215 O211 1.259 . S
C215 O212 1.265 . S
O216 Eu201 2.479 . S
O216 C231 1.238 . S
O217 Eu201 2.471 . S
O217 C231 1.247 . S
O218 Eu201 2.347 . S
O218 C202 1.259 . S
O219 Tb200 2.418 . S
O219 C202 1.265 . S
O220 Tb200 2.384 . S
O220 C203 1.255 . S
O221 Eu201 2.366 . S
O221 C203 1.265 . S
C222 O213 1.255 . S
C222 O214 1.265 . S
O223 Tb200 2.479 . S
O223 C210 1.238 . S
O224 Tb200 2.471 . S
O224 C210 1.247 . S
C225 C228 1.380 . S
C225 C229 1.374 . S
C225 C231 1.507 . S
C226 C227 1.387 . S
C226 C230 1.391 . S
C227 C226 1.387 . S
C227 C228 1.384 . S
C227 H236 0.930 . S
C228 C225 1.380 . S
C228 C227 1.384 . S
C228 H237 0.931 . S
C229 C225 1.374 . S
C229 C230 1.390 . S
C229 H238 0.930 . S
C230 C226 1.391 . S
C230 C229 1.390 . S
C230 H239 0.930 . S
C231 Eu201 2.825 . S
C231 O216 1.238 . S
C231 O217 1.247 . S
C231 C225 1.507 . S
H232 C205 0.930 . S
H233 C206 0.931 . S
H234 C207 0.930 . S
H235 C208 0.930 . S
H236 C227 0.930 . S
H237 C228 0.931 . S
H238 C229 0.930 . S
H239 C230 0.930 . S
Tb240 C250 2.825 . S
Tb240 O251 2.347 . S
Tb240 O254 2.366 . S
Tb240 O259 2.418 . S
Tb240 O260 2.384 . S
Tb240 O263 2.479 . S
Tb240 O264 2.471 . S
Eu241 O252 2.418 . S
Eu241 O253 2.384 . S
Eu241 O256 2.479 . S
Eu241 O257 2.471 . S
Eu241 O258 2.347 . S
Eu241 O261 2.366 . S
Eu241 C271 2.825 . S
C242 O258 1.259 . S
C242 O259 1.265 . S
C243 O260 1.255 . S
C243 O261 1.265 . S
C244 C246 1.380 . S
C244 C247 1.374 . S
C244 C250 1.507 . S
C245 C246 1.384 . S
C245 C249 1.387 . S
C245 H272 0.930 . S
C246 C244 1.380 . S
C246 C245 1.384 . S
C246 H273 0.931 . S
C247 C244 1.374 . S
C247 C248 1.390 . S
C247 H274 0.930 . S
C248 C247 1.390 . S
C248 C249 1.391 . S
C248 H275 0.930 . S
C249 C245 1.387 . S
C249 C248 1.391 . S
C250 Tb240 2.825 . S
C250 C244 1.507 . S
C250 O263 1.238 . S
C250 O264 1.247 . S
O251 Tb240 2.347 . S
O251 C255 1.259 . S
O252 Eu241 2.418 . S
O252 C255 1.265 . S
O253 Eu241 2.384 . S
O253 C262 1.255 . S
O254 Tb240 2.366 . S
O254 C262 1.265 . S
C255 O251 1.259 . S
C255 O252 1.265 . S
O256 Eu241 2.479 . S
O256 C271 1.238 . S
O257 Eu241 2.471 . S
O257 C271 1.247 . S
O258 Eu241 2.347 . S
O258 C242 1.259 . S
O259 Tb240 2.418 . S
O259 C242 1.265 . S
O260 Tb240 2.384 . S
O260 C243 1.255 . S
O261 Eu241 2.366 . S
O261 C243 1.265 . S
C262 O253 1.255 . S
C262 O254 1.265 . S
O263 Tb240 2.479 . S
O263 C250 1.238 . S
O264 Tb240 2.471 . S
O264 C250 1.247 . S
C265 C268 1.380 . S
C265 C269 1.374 . S
C265 C271 1.507 . S
C266 C267 1.387 . S
C266 C270 1.391 . S
C267 C266 1.387 . S
C267 C268 1.384 . S
C267 H276 0.930 . S
C268 C265 1.380 . S
C268 C267 1.384 . S
C268 H277 0.931 . S
C269 C265 1.374 . S
C269 C270 1.390 . S
C269 H278 0.930 . S
C270 C266 1.391 . S
C270 C269 1.390 . S
C270 H279 0.930 . S
C271 Eu241 2.825 . S
C271 O256 1.238 . S
C271 O257 1.247 . S
C271 C265 1.507 . S
H272 C245 0.930 . S
H273 C246 0.931 . S
H274 C247 0.930 . S
H275 C248 0.930 . S
H276 C267 0.930 . S
H277 C268 0.931 . S
H278 C269 0.930 . S
H279 C270 0.930 . S
Tb280 C290 2.825 . S
Tb280 O291 2.347 . S
Tb280 O294 2.366 . S
Tb280 O299 2.418 . S
Tb280 O300 2.384 . S
Tb280 O303 2.479 . S
Tb280 O304 2.471 . S
Eu281 O292 2.418 . S
Eu281 O293 2.384 . S
Eu281 O296 2.479 . S
Eu281 O297 2.471 . S
Eu281 O298 2.347 . S
Eu281 O301 2.366 . S
Eu281 C311 2.825 . S
C282 O298 1.259 . S
C282 O299 1.265 . S
C283 O300 1.255 . S
C283 O301 1.265 . S
C284 C286 1.380 . S
C284 C287 1.374 . S
C284 C290 1.507 . S
C285 C286 1.384 . S
C285 C289 1.387 . S
C285 H312 0.930 . S
C286 C284 1.380 . S
C286 C285 1.384 . S
C286 H313 0.931 . S
C287 C284 1.374 . S
C287 C288 1.390 . S
C287 H314 0.930 . S
C288 C287 1.390 . S
C288 C289 1.391 . S
C288 H315 0.930 . S
C289 C285 1.387 . S
C289 C288 1.391 . S
C290 Tb280 2.825 . S
C290 C284 1.507 . S
C290 O303 1.238 . S
C290 O304 1.247 . S
O291 Tb280 2.347 . S
O291 C295 1.259 . S
O292 Eu281 2.418 . S
O292 C295 1.265 . S
O293 Eu281 2.384 . S
O293 C302 1.255 . S
O294 Tb280 2.366 . S
O294 C302 1.265 . S
C295 O291 1.259 . S
C295 O292 1.265 . S
O296 Eu281 2.479 . S
O296 C311 1.238 . S
O297 Eu281 2.471 . S
O297 C311 1.247 . S
O298 Eu281 2.347 . S
O298 C282 1.259 . S
O299 Tb280 2.418 . S
O299 C282 1.265 . S
O300 Tb280 2.384 . S
O300 C283 1.255 . S
O301 Eu281 2.366 . S
O301 C283 1.265 . S
C302 O293 1.255 . S
C302 O294 1.265 . S
O303 Tb280 2.479 . S
O303 C290 1.238 . S
O304 Tb280 2.471 . S
O304 C290 1.247 . S
C305 C308 1.380 . S
C305 C309 1.374 . S
C305 C311 1.507 . S
C306 C307 1.387 . S
C306 C310 1.391 . S
C307 C306 1.387 . S
C307 C308 1.384 . S
C307 H316 0.930 . S
C308 C305 1.380 . S
C308 C307 1.384 . S
C308 H317 0.931 . S
C309 C305 1.374 . S
C309 C310 1.390 . S
C309 H318 0.930 . S
C310 C306 1.391 . S
C310 C309 1.390 . S
C310 H319 0.930 . S
C311 Eu281 2.825 . S
C311 O296 1.238 . S
C311 O297 1.247 . S
C311 C305 1.507 . S
H312 C285 0.930 . S
H313 C286 0.931 . S
H314 C287 0.930 . S
H315 C288 0.930 . S
H316 C307 0.930 . S
H317 C308 0.931 . S
H318 C309 0.930 . S
H319 C310 0.930 . S
Fe320 O321 1.886 1_455 S
Fe320 O324 1.715 . S
Fe320 O329 2.077 1_455 S
Fe320 O334 1.935 . S
Fe320 O340 2.077 1_455 S
Fe320 O349 1.935 . S
O321 Fe320 1.886 1_655 S
O321 Fe323 1.715 . S
Fe322 O324 1.886 . S
Fe322 O325 1.715 1_545 S
Fe322 O332 1.935 1_545 S
Fe322 O333 2.077 . S
Fe322 O339 1.935 . S
Fe322 O348 2.077 . S
Fe323 O321 1.715 . S
Fe323 O326 1.886 1_545 S
Fe323 O330 1.935 . S
Fe323 O335 2.077 1_545 S
Fe323 O341 1.935 . S
Fe323 O345 2.077 1_545 S
O324 Fe320 1.715 . S
O324 Fe322 1.886 . S
O325 Fe322 1.715 1_565 S
O325 Fe327 1.886 . S
O326 Fe323 1.886 1_565 S
O326 Fe327 1.715 1_655 S
Fe327 O325 1.886 . S
Fe327 O326 1.715 1_455 S
Fe327 O331 2.077 . S
Fe327 O336 1.935 1_455 S
Fe327 O338 2.077 . S
Fe327 O346 1.935 1_455 S
C328 O340 1.381 . S
C328 O341 1.421 . S
O329 Fe320 2.077 1_655 S
O329 C342 1.381 . S
O330 Fe323 1.935 . S
O330 C342 1.421 . S
O331 Fe327 2.077 . S
O331 C347 1.381 . S
O332 Fe322 1.935 1_565 S
O332 C347 1.421 . S
O333 Fe322 2.077 . S
O333 C337 1.381 . S
O334 Fe320 1.935 . S
O334 C337 1.421 . S
O335 Fe323 2.077 1_565 S
O335 C343 1.381 . S
O336 Fe327 1.935 1_655 S
O336 C343 1.421 . S
C337 O333 1.381 . S
C337 O334 1.421 . S
O338 Fe327 2.077 . S
O338 C350 1.381 . S
O339 Fe322 1.935 . S
O339 C350 1.421 1_545 S
O340 Fe320 2.077 1_655 S
O340 C328 1.381 . S
O341 Fe323 1.935 . S
O341 C328 1.421 . S
C342 O329 1.381 . S
C342 O330 1.421 . S
C343 O335 1.381 . S
C343 O336 1.421 . S
C344 O345 1.381 . S
C344 O346 1.421 . S
O345 Fe323 2.077 1_565 S
O345 C344 1.381 . S
O346 Fe327 1.935 1_655 S
O346 C344 1.421 . S
C347 O331 1.381 . S
C347 O332 1.421 . S
O348 Fe322 2.077 . S
O348 C351 1.381 . S
O349 Fe320 1.935 . S
O349 C351 1.421 . S
C350 O338 1.381 . S
C350 O339 1.421 1_565 S
C351 O348 1.381 . S
C351 O349 1.421 . S
Fe352 O353 1.886 . S
Fe352 O356 1.715 . S
Fe352 O361 2.062 1_554 S
Fe352 O366 1.935 1_554 S
Fe352 O372 2.077 . S
Fe352 O381 1.935 . S
O353 Fe352 1.886 . S
O353 Fe355 1.715 1_565 S
Fe354 O356 1.886 . S
Fe354 O357 1.715 1_565 S
Fe354 O364 1.935 1_565 S
Fe354 O365 2.077 . S
Fe354 O371 1.935 1_565 S
Fe354 O380 2.077 . S
Fe355 O353 1.715 1_545 S
Fe355 O358 1.886 . S
Fe355 O362 1.914 1_544 S
Fe355 O367 2.077 . S
Fe355 O373 1.935 1_545 S
Fe355 O377 2.077 . S
O356 Fe352 1.715 . S
O356 Fe354 1.886 . S
O357 Fe354 1.715 1_545 S
O357 Fe359 1.886 . S
O358 Fe355 1.886 . S
O358 Fe359 1.715 . S
Fe359 O357 1.886 . S
Fe359 O358 1.715 . S
Fe359 O363 2.077 . S
Fe359 O368 1.935 . S
Fe359 O370 2.077 . S
Fe359 O378 1.935 . S
C360 O372 1.381 . S
C360 O373 1.421 . S
O361 Fe352 2.062 1_556 S
O361 C374 1.389 . S
O362 Fe355 1.914 1_566 S
O362 C374 1.426 . S
O363 Fe359 2.077 . S
O363 C379 1.381 1_554 S
O364 Fe354 1.935 1_545 S
O364 C379 1.421 1_554 S
O365 Fe354 2.077 . S
O365 C369 1.381 1_554 S
O366 Fe352 1.935 1_556 S
O366 C369 1.421 . S
O367 Fe355 2.077 . S
O367 C375 1.381 1_554 S
O368 Fe359 1.935 . S
O368 C375 1.421 1_554 S
C369 O365 1.381 1_556 S
C369 O366 1.421 . S
O370 Fe359 2.077 . S
O370 C382 1.381 . S
O371 Fe354 1.935 1_545 S
O371 C382 1.421 . S
O372 Fe352 2.077 . S
O372 C360 1.381 . S
O373 Fe355 1.935 1_565 S
O373 C360 1.421 . S
C374 O361 1.389 . S
C374 O362 1.426 . S
C375 O367 1.381 1_556 S
C375 O368 1.421 1_556 S
C376 O377 1.381 . S
C376 O378 1.421 . S
O377 Fe355 2.077 . S
O377 C376 1.381 . S
O378 Fe359 1.935 . S
O378 C376 1.421 . S
C379 O363 1.381 1_556 S
C379 O364 1.421 1_556 S
O380 Fe354 2.077 . S
O380 C383 1.381 . S
O381 Fe352 1.935 . S
O381 C383 1.421 . S
C382 O370 1.381 . S
C382 O371 1.421 . S
C383 O380 1.381 . S
C383 O381 1.421 . S
Fe384 O385 1.886 . S
Fe384 O388 1.715 . S
Fe384 O393 2.077 1_554 S
Fe384 O398 1.935 1_554 S
Fe384 O404 2.077 . S
Fe384 O413 1.935 . S
O385 Fe384 1.886 . S
O385 Fe387 1.714 1_455 S
Fe386 O388 1.885 . S
Fe386 O389 1.716 1_554 S
Fe386 O396 1.924 1_554 S
Fe386 O397 2.067 1_554 S
Fe386 O403 1.947 . S
Fe386 O412 2.086 . S
Fe387 O385 1.714 1_655 S
Fe387 O390 1.887 1_554 S
Fe387 O394 1.908 1_554 S
Fe387 O399 2.056 1_554 S
Fe387 O405 1.961 . S
Fe387 O409 2.101 . S
O388 Fe384 1.715 . S
O388 Fe386 1.885 . S
O389 Fe386 1.716 1_556 S
O389 Fe391 1.886 . S
O390 Fe387 1.887 1_556 S
O390 Fe391 1.715 1_655 S
Fe391 O389 1.886 . S
Fe391 O390 1.715 1_455 S
Fe391 O395 2.077 . S
Fe391 O400 1.935 1_455 S
Fe391 O402 2.077 1_556 S
Fe391 O410 1.935 1_456 S
C392 O404 1.381 1_655 S
C392 O405 1.421 . S
O393 Fe384 2.077 1_556 S
O393 C406 1.381 1_455 S
O394 Fe387 1.908 1_556 S
O394 C406 1.421 . S
O395 Fe391 2.077 . S
O395 C411 1.381 . S
O396 Fe386 1.924 1_556 S
O396 C411 1.421 . S
O397 Fe386 2.067 1_556 S
O397 C401 1.381 . S
O398 Fe384 1.935 1_556 S
O398 C401 1.421 . S
O399 Fe387 2.056 1_556 S
O399 C407 1.381 . S
O400 Fe391 1.935 1_655 S
O400 C407 1.421 . S
C401 O397 1.381 . S
C401 O398 1.421 . S
O402 Fe391 2.077 1_554 S
O402 C414 1.381 . S
O403 Fe386 1.947 . S
O403 C414 1.421 . S
O404 Fe384 2.077 . S
O404 C392 1.381 1_455 S
O405 Fe387 1.961 . S
O405 C392 1.421 . S
C406 O393 1.381 1_655 S
C406 O394 1.421 . S
C407 O399 1.381 . S
C407 O400 1.421 . S
C408 O409 1.381 . S
C408 O410 1.421 . S
O409 Fe387 2.101 . S
O409 C408 1.381 . S
O410 Fe391 1.935 1_654 S
O410 C408 1.421 . S
C411 O395 1.381 . S
C411 O396 1.421 . S
O412 Fe386 2.086 . S
O412 C415 1.381 . S
O413 Fe384 1.935 . S
O413 C415 1.421 . S
C414 O402 1.381 . S
C414 O403 1.421 . S
C415 O412 1.381 . S
C415 O413 1.421 . S
Fe416 O417 1.886 . S
Fe416 O420 1.715 . S
Fe416 O425 2.077 . S
Fe416 O430 1.935 . S
Fe416 O436 2.077 . S
Fe416 O445 1.935 . S
O417 Fe416 1.886 . S
O417 Fe419 1.715 1_556 S
Fe418 O420 1.886 1_554 S
Fe418 O421 1.715 . S
Fe418 O428 1.935 . S
Fe418 O429 2.077 1_554 S
Fe418 O435 1.935 . S
Fe418 O444 2.077 1_554 S
Fe419 O417 1.715 1_554 S
Fe419 O422 1.886 . S
Fe419 O426 1.935 1_554 S
Fe419 O431 2.077 . S
Fe419 O437 1.935 1_554 S
Fe419 O441 2.077 . S
O420 Fe416 1.715 . S
O420 Fe418 1.886 1_556 S
O421 Fe418 1.715 . S
O421 Fe423 1.886 . S
O422 Fe419 1.886 . S
O422 Fe423 1.715 . S
Fe423 O421 1.886 . S
Fe423 O422 1.715 . S
Fe423 O427 2.077 . S
Fe423 O432 1.935 . S
Fe423 O434 2.077 . S
Fe423 O442 1.935 . S
C424 O436 1.381 . S
C424 O437 1.421 . S
O425 Fe416 2.077 . S
O425 C438 1.381 . S
O426 Fe419 1.935 1_556 S
O426 C438 1.421 . S
O427 Fe423 2.077 . S
O427 C443 1.381 . S
O428 Fe418 1.935 . S
O428 C443 1.421 . S
O429 Fe418 2.077 1_556 S
O429 C433 1.381 . S
O430 Fe416 1.935 . S
O430 C433 1.421 . S
O431 Fe419 2.077 . S
O431 C439 1.381 . S
O432 Fe423 1.935 . S
O432 C439 1.421 . S
C433 O429 1.381 . S
C433 O430 1.421 . S
O434 Fe423 2.077 . S
O434 C446 1.381 . S
O435 Fe418 1.935 . S
O435 C446 1.421 . S
O436 Fe416 2.077 . S
O436 C424 1.381 . S
O437 Fe419 1.935 1_556 S
O437 C424 1.421 . S
C438 O425 1.381 . S
C438 O426 1.421 . S
C439 O431 1.381 . S
C439 O432 1.421 . S
C440 O441 1.381 . S
C440 O442 1.421 . S
O441 Fe419 2.077 . S
O441 C440 1.381 . S
O442 Fe423 1.935 . S
O442 C440 1.421 . S
C443 O427 1.381 . S
C443 O428 1.421 . S
O444 Fe418 2.077 1_556 S
O444 C447 1.381 . S
O445 Fe416 1.935 . S
O445 C447 1.421 . S
C446 O434 1.381 . S
C446 O435 1.421 . S
C447 O444 1.381 . S
C447 O445 1.421 . S
Fe448 O449 1.886 . S
Fe448 O452 1.715 . S
Fe448 O457 2.077 1_655 S
Fe448 O462 1.935 1_655 S
Fe448 O468 2.077 . S
Fe448 O477 1.935 . S
O449 Fe448 1.886 . S
O449 Fe451 1.715 1_655 S
Fe450 O452 1.886 1_455 S
Fe450 O453 1.715 . S
Fe450 O460 1.935 . S
Fe450 O461 2.077 . S
Fe450 O467 1.935 1_455 S
Fe450 O476 2.077 1_455 S
Fe451 O449 1.715 1_455 S
Fe451 O454 1.886 . S
Fe451 O458 1.935 . S
Fe451 O463 2.077 . S
Fe451 O469 1.935 1_455 S
Fe451 O473 2.077 1_455 S
O452 Fe448 1.715 . S
O452 Fe450 1.886 1_655 S
O453 Fe450 1.715 . S
O453 Fe455 1.886 . S
O454 Fe451 1.886 . S
O454 Fe455 1.715 . S
Fe455 O453 1.886 . S
Fe455 O454 1.715 . S
Fe455 O459 2.077 . S
Fe455 O464 1.935 . S
Fe455 O466 2.077 1_455 S
Fe455 O474 1.935 1_455 S
C456 O468 1.381 . S
C456 O469 1.421 . S
O457 Fe448 2.077 1_455 S
O457 C470 1.381 . S
O458 Fe451 1.935 . S
O458 C470 1.421 . S
O459 Fe455 2.077 . S
O459 C475 1.381 . S
O460 Fe450 1.935 . S
O460 C475 1.421 . S
O461 Fe450 2.077 . S
O461 C465 1.381 . S
O462 Fe448 1.935 1_455 S
O462 C465 1.421 . S
O463 Fe451 2.077 . S
O463 C471 1.381 . S
O464 Fe455 1.935 . S
O464 C471 1.421 . S
C465 O461 1.381 . S
C465 O462 1.421 . S
O466 Fe455 2.077 1_655 S
O466 C478 1.381 . S
O467 Fe450 1.935 1_655 S
O467 C478 1.421 . S
O468 Fe448 2.077 . S
O468 C456 1.381 . S
O469 Fe451 1.935 1_655 S
O469 C456 1.421 . S
C470 O457 1.381 . S
C470 O458 1.421 . S
C471 O463 1.381 . S
C471 O464 1.421 . S
C472 O473 1.381 . S
C472 O474 1.421 . S
O473 Fe451 2.077 1_655 S
O473 C472 1.381 . S
O474 Fe455 1.935 1_655 S
O474 C472 1.421 . S
C475 O459 1.381 . S
C475 O460 1.421 . S
O476 Fe450 2.077 1_655 S
O476 C479 1.381 . S
O477 Fe448 1.935 . S
O477 C479 1.421 . S
C478 O466 1.381 . S
C478 O467 1.421 . S
C479 O476 1.381 . S
C479 O477 1.421 . S
Fe480 O481 1.886 1_565 S
Fe480 O484 1.715 . S
Fe480 O489 2.077 . S
Fe480 O494 1.935 . S
Fe480 O500 2.077 . S
Fe480 O509 1.935 . S
O481 Fe480 1.886 1_545 S
O481 Fe483 1.715 . S
Fe482 O484 1.886 1_545 S
Fe482 O485 1.715 . S
Fe482 O492 1.935 . S
Fe482 O493 2.077 1_545 S
Fe482 O499 1.935 . S
Fe482 O508 2.077 1_545 S
Fe483 O481 1.715 . S
Fe483 O486 1.886 . S
Fe483 O490 1.935 . S
Fe483 O495 2.077 . S
Fe483 O501 1.935 . S
Fe483 O505 2.077 . S
O484 Fe480 1.715 . S
O484 Fe482 1.886 1_565 S
O485 Fe482 1.715 . S
O485 Fe487 1.886 . S
O486 Fe483 1.886 . S
O486 Fe487 1.715 . S
Fe487 O485 1.886 . S
Fe487 O486 1.715 . S
Fe487 O491 2.077 . S
Fe487 O496 1.935 . S
Fe487 O498 2.077 . S
Fe487 O506 1.935 . S
C488 O500 1.381 . S
C488 O501 1.421 1_565 S
O489 Fe480 2.077 . S
O489 C502 1.381 . S
O490 Fe483 1.935 . S
O490 C502 1.421 1_545 S
O491 Fe487 2.077 . S
O491 C507 1.381 . S
O492 Fe482 1.935 . S
O492 C507 1.421 . S
O493 Fe482 2.077 1_565 S
O493 C497 1.381 . S
O494 Fe480 1.935 . S
O494 C497 1.421 . S
O495 Fe483 2.077 . S
O495 C503 1.381 . S
O496 Fe487 1.935 . S
O496 C503 1.421 . S
C497 O493 1.381 . S
C497 O494 1.421 . S
O498 Fe487 2.077 . S
O498 C510 1.381 . S
O499 Fe482 1.935 . S
O499 C510 1.421 . S
O500 Fe480 2.077 . S
O500 C488 1.381 . S
O501 Fe483 1.935 . S
O501 C488 1.421 1_545 S
C502 O489 1.381 . S
C502 O490 1.421 1_565 S
C503 O495 1.381 . S
C503 O496 1.421 . S
C504 O505 1.381 . S
C504 O506 1.421 . S
O505 Fe483 2.077 . S
O505 C504 1.381 . S
O506 Fe487 1.935 . S
O506 C504 1.421 . S
C507 O491 1.381 . S
C507 O492 1.421 . S
O508 Fe482 2.077 1_565 S
O508 C511 1.381 . S
O509 Fe480 1.935 . S
O509 C511 1.421 . S
C510 O498 1.381 . S
C510 O499 1.421 . S
C511 O508 1.381 . S
C511 O509 1.421 . S
H512 C520 0.950 . S
H513 C525 0.950 . S
H514 C522 0.950 . S
H515 C524 0.950 . S
H516 C526 0.950 . S
H517 C528 0.950 . S
H518 C530 0.950 . S
H519 C531 0.950 . S
C520 H512 0.950 . S
C520 C521 1.386 . S
C520 C522 1.391 . S
C521 C520 1.386 . S
C521 C525 1.393 . S
C522 H514 0.950 . S
C522 C520 1.391 . S
C522 C523 1.400 . S
C523 C522 1.400 . S
C523 C524 1.398 . S
C523 C529 1.491 . S
C524 H515 0.950 . S
C524 C523 1.398 . S
C524 C525 1.391 . S
C525 H513 0.950 . S
C525 C521 1.393 . S
C525 C524 1.391 . S
C526 H516 0.950 . S
C526 C527 1.386 . S
C526 C528 1.391 . S
C527 C526 1.386 . S
C527 C531 1.393 . S
C528 H517 0.950 . S
C528 C526 1.391 . S
C528 C529 1.400 . S
C529 C523 1.491 . S
C529 C528 1.400 . S
C529 C530 1.398 . S
C530 H518 0.950 . S
C530 C529 1.398 . S
C530 C531 1.391 . S
C531 H519 0.950 . S
C531 C527 1.393 . S
C531 C530 1.391 . S
H532 C540 0.950 . S
H533 C545 0.950 . S
H534 C542 0.950 . S
H535 C544 0.950 . S
H536 C546 0.950 . S
H537 C548 0.950 . S
H538 C550 0.950 . S
H539 C551 0.950 . S
C540 H532 0.950 . S
C540 C541 1.386 . S
C540 C542 1.391 . S
C541 C540 1.386 . S
C541 C545 1.393 . S
C542 H534 0.950 . S
C542 C540 1.391 . S
C542 C543 1.400 . S
C543 C542 1.400 . S
C543 C544 1.398 . S
C543 C549 1.491 . S
C544 H535 0.950 . S
C544 C543 1.398 . S
C544 C545 1.391 . S
C545 H533 0.950 . S
C545 C541 1.393 . S
C545 C544 1.391 . S
C546 H536 0.950 . S
C546 C547 1.386 . S
C546 C548 1.391 . S
C547 C546 1.386 . S
C547 C551 1.393 . S
C548 H537 0.950 . S
C548 C546 1.391 . S
C548 C549 1.400 . S
C549 C543 1.491 . S
C549 C548 1.400 . S
C549 C550 1.398 . S
C550 H538 0.950 . S
C550 C549 1.398 . S
C550 C551 1.391 . S
C551 H539 0.950 . S
C551 C547 1.393 . S
C551 C550 1.391 . S
H552 C560 0.950 . S
H553 C565 0.950 . S
H554 C562 0.950 . S
H555 C564 0.950 . S
H556 C566 0.950 . S
H557 C568 0.950 . S
H558 C570 0.950 . S
H559 C571 0.950 . S
C560 H552 0.950 . S
C560 C561 1.386 . S
C560 C562 1.391 . S
C561 C560 1.386 . S
C561 C565 1.393 . S
C562 H554 0.950 . S
C562 C560 1.391 . S
C562 C563 1.400 . S
C563 C562 1.400 . S
C563 C564 1.398 . S
C563 C569 1.491 . S
C564 H555 0.950 . S
C564 C563 1.398 . S
C564 C565 1.391 . S
C565 H553 0.950 . S
C565 C561 1.393 . S
C565 C564 1.391 . S
C566 H556 0.950 . S
C566 C567 1.386 . S
C566 C568 1.391 . S
C567 C566 1.386 . S
C567 C571 1.393 . S
C568 H557 0.950 . S
C568 C566 1.391 . S
C568 C569 1.400 . S
C569 C563 1.491 . S
C569 C568 1.400 . S
C569 C570 1.398 . S
C570 H558 0.950 . S
C570 C569 1.398 . S
C570 C571 1.391 . S
C571 H559 0.950 . S
C571 C567 1.393 . S
C571 C570 1.391 . S
H572 C580 0.950 . S
H573 C585 0.950 . S
H574 C582 0.950 . S
H575 C584 0.950 . S
H576 C586 0.950 . S
H577 C588 0.950 . S
H578 C590 0.950 . S
H579 C591 0.950 . S
C580 H572 0.950 . S
C580 C581 1.386 . S
C580 C582 1.391 . S
C581 C580 1.386 . S
C581 C585 1.393 . S
C582 H574 0.950 . S
C582 C580 1.391 . S
C582 C583 1.400 . S
C583 C582 1.400 . S
C583 C584 1.398 . S
C583 C589 1.491 . S
C584 H575 0.950 . S
C584 C583 1.398 . S
C584 C585 1.391 . S
C585 H573 0.950 . S
C585 C581 1.393 . S
C585 C584 1.391 . S
C586 H576 0.950 . S
C586 C587 1.386 . S
C586 C588 1.391 . S
C587 C586 1.386 . S
C587 C591 1.393 . S
C588 H577 0.950 . S
C588 C586 1.391 . S
C588 C589 1.400 . S
C589 C583 1.491 . S
C589 C588 1.400 . S
C589 C590 1.398 . S
C590 H578 0.950 . S
C590 C589 1.398 . S
C590 C591 1.391 . S
C591 H579 0.950 . S
C591 C587 1.393 . S
C591 C590 1.391 . S
H592 C600 0.950 . S
H593 C605 0.950 . S
H594 C602 0.950 . S
H595 C604 0.950 . S
H596 C606 0.950 . S
H597 C608 0.950 . S
H598 C610 0.950 . S
H599 C611 0.950 . S
C600 H592 0.950 . S
C600 C601 1.386 . S
C600 C602 1.391 . S
C601 C600 1.386 . S
C601 C605 1.393 . S
C602 H594 0.950 . S
C602 C600 1.391 . S
C602 C603 1.400 . S
C603 C602 1.400 . S
C603 C604 1.398 . S
C603 C609 1.491 . S
C604 H595 0.950 . S
C604 C603 1.398 . S
C604 C605 1.391 . S
C605 H593 0.950 . S
C605 C601 1.393 . S
C605 C604 1.391 . S
C606 H596 0.950 . S
C606 C607 1.386 . S
C606 C608 1.391 . S
C607 C606 1.386 . S
C607 C611 1.393 . S
C608 H597 0.950 . S
C608 C606 1.391 . S
C608 C609 1.400 . S
C609 C603 1.491 . S
C609 C608 1.400 . S
C609 C610 1.398 . S
C610 H598 0.950 . S
C610 C609 1.398 . S
C610 C611 1.391 . S
C611 H599 0.950 . S
C611 C607 1.393 . S
C611 C610 1.391 . S
H612 C620 0.950 . S
H613 C625 0.950 . S
H614 C622 0.950 . S
H615 C624 0.950 . S
H616 C626 0.950 . S
H617 C628 0.950 . S
H618 C630 0.950 . S
H619 C631 0.950 . S
C620 H612 0.950 . S
C620 C621 1.386 . S
C620 C622 1.391 . S
C621 C620 1.386 . S
C621 C625 1.393 . S
C622 H614 0.950 . S
C622 C620 1.391 . S
C622 C623 1.400 . S
C623 C622 1.400 . S
C623 C624 1.398 . S
C623 C629 1.491 . S
C624 H615 0.950 . S
C624 C623 1.398 . S
C624 C625 1.391 . S
C625 H613 0.950 . S
C625 C621 1.393 . S
C625 C624 1.391 . S
C626 H616 0.950 . S
C626 C627 1.386 . S
C626 C628 1.391 . S
C627 C626 1.386 . S
C627 C631 1.393 . S
C628 H617 0.950 . S
C628 C626 1.391 . S
C628 C629 1.400 . S
C629 C623 1.491 . S
C629 C628 1.400 . S
C629 C630 1.398 . S
C630 H618 0.950 . S
C630 C629 1.398 . S
C630 C631 1.391 . S
C631 H619 0.950 . S
C631 C627 1.393 . S
C631 C630 1.391 . S
H632 C640 0.950 . S
H633 C645 0.950 . S
H634 C642 0.950 . S
H635 C644 0.950 . S
H636 C646 0.950 1_455 S
H637 C648 0.950 . S
H638 C650 0.950 . S
H639 C651 0.950 . S
C640 H632 0.950 . S
C640 C641 1.386 . S
C640 C642 1.391 . S
C641 C640 1.386 . S
C641 C645 1.393 . S
C642 H634 0.950 . S
C642 C640 1.391 . S
C642 C643 1.400 . S
C643 C642 1.400 . S
C643 C644 1.398 . S
C643 C649 1.491 . S
C644 H635 0.950 . S
C644 C643 1.398 . S
C644 C645 1.391 . S
C645 H633 0.950 . S
C645 C641 1.393 . S
C645 C644 1.391 . S
C646 H636 0.950 1_655 S
C646 C647 1.386 . S
C646 C648 1.391 . S
C647 C646 1.386 . S
C647 C651 1.393 . S
C648 H637 0.950 . S
C648 C646 1.391 . S
C648 C649 1.400 . S
C649 C643 1.491 . S
C649 C648 1.400 . S
C649 C650 1.398 . S
C650 H638 0.950 . S
C650 C649 1.398 . S
C650 C651 1.391 . S
C651 H639 0.950 . S
C651 C647 1.393 . S
C651 C650 1.391 . S
H652 C660 0.950 . S
H653 C665 0.950 . S
H654 C662 0.950 . S
H655 C664 0.950 . S
H656 C666 0.950 . S
H657 C668 0.950 . S
H658 C670 0.950 . S
H659 C671 0.950 . S
C660 H652 0.950 . S
C660 C661 1.386 . S
C660 C662 1.391 . S
C661 C660 1.386 . S
C661 C665 1.393 . S
C662 H654 0.950 . S
C662 C660 1.391 . S
C662 C663 1.400 . S
C663 C662 1.400 . S
C663 C664 1.398 . S
C663 C669 1.491 . S
C664 H655 0.950 . S
C664 C663 1.398 . S
C664 C665 1.391 . S
C665 H653 0.950 . S
C665 C661 1.393 . S
C665 C664 1.391 . S
C666 H656 0.950 . S
C666 C667 1.386 . S
C666 C668 1.391 . S
C667 C666 1.386 . S
C667 C671 1.393 . S
C668 H657 0.950 . S
C668 C666 1.391 . S
C668 C669 1.400 . S
C669 C663 1.491 . S
C669 C668 1.400 . S
C669 C670 1.398 . S
C670 H658 0.950 . S
C670 C669 1.398 . S
C670 C671 1.391 . S
C671 H659 0.950 . S
C671 C667 1.393 . S
C671 C670 1.391 . S
H672 C680 0.950 . S
H673 C685 0.950 . S
H674 C682 0.950 . S
H675 C684 0.950 . S
H676 C686 0.950 . S
H677 C688 0.950 . S
H678 C690 0.950 . S
H679 C691 0.950 . S
C680 H672 0.950 . S
C680 C681 1.386 . S
C680 C682 1.391 . S
C681 C680 1.386 . S
C681 C685 1.393 . S
C682 H674 0.950 . S
C682 C680 1.391 . S
C682 C683 1.400 . S
C683 C682 1.400 . S
C683 C684 1.398 . S
C683 C689 1.491 . S
C684 H675 0.950 . S
C684 C683 1.398 . S
C684 C685 1.391 . S
C685 H673 0.950 . S
C685 C681 1.393 . S
C685 C684 1.391 . S
C686 H676 0.950 . S
C686 C687 1.386 . S
C686 C688 1.391 . S
C687 C686 1.386 . S
C687 C691 1.393 . S
C688 H677 0.950 . S
C688 C686 1.391 . S
C688 C689 1.400 . S
C689 C683 1.491 . S
C689 C688 1.400 . S
C689 C690 1.398 . S
C690 H678 0.950 . S
C690 C689 1.398 . S
C690 C691 1.391 . S
C691 H679 0.950 . S
C691 C687 1.393 . S
C691 C690 1.391 . S
H692 C700 0.950 . S
H693 C705 0.950 . S
H694 C702 0.950 . S
H695 C704 0.950 . S
H696 C706 0.950 . S
H697 C708 0.950 . S
H698 C710 0.950 . S
H699 C711 0.950 . S
C700 H692 0.950 . S
C700 C701 1.386 . S
C700 C702 1.391 . S
C701 C700 1.386 . S
C701 C705 1.393 . S
C702 H694 0.950 . S
C702 C700 1.391 . S
C702 C703 1.400 . S
C703 C702 1.400 . S
C703 C704 1.398 . S
C703 C709 1.491 . S
C704 H695 0.950 . S
C704 C703 1.398 . S
C704 C705 1.391 . S
C705 H693 0.950 . S
C705 C701 1.393 . S
C705 C704 1.391 . S
C706 H696 0.950 . S
C706 C707 1.386 . S
C706 C708 1.391 . S
C707 C706 1.386 . S
C707 C711 1.393 . S
C708 H697 0.950 . S
C708 C706 1.391 . S
C708 C709 1.400 . S
C709 C703 1.491 . S
C709 C708 1.400 . S
C709 C710 1.398 . S
C710 H698 0.950 . S
C710 C709 1.398 . S
C710 C711 1.391 . S
C711 H699 0.950 . S
C711 C707 1.393 . S
C711 C710 1.391 . S
H712 C720 0.950 . S
H713 C725 0.950 . S
H714 C722 0.950 . S
H715 C724 0.950 . S
H716 C726 0.950 . S
H717 C728 0.950 . S
H718 C730 0.950 . S
H719 C731 0.950 . S
C720 H712 0.950 . S
C720 C721 1.386 . S
C720 C722 1.391 . S
C721 C720 1.386 . S
C721 C725 1.393 . S
C722 H714 0.950 . S
C722 C720 1.391 . S
C722 C723 1.400 . S
C723 C722 1.400 . S
C723 C724 1.398 . S
C723 C729 1.491 . S
C724 H715 0.950 . S
C724 C723 1.398 . S
C724 C725 1.391 . S
C725 H713 0.950 . S
C725 C721 1.393 . S
C725 C724 1.391 . S
C726 H716 0.950 . S
C726 C727 1.386 . S
C726 C728 1.391 . S
C727 C726 1.386 . S
C727 C731 1.393 . S
C728 H717 0.950 . S
C728 C726 1.391 . S
C728 C729 1.400 . S
C729 C723 1.491 . S
C729 C728 1.400 . S
C729 C730 1.398 . S
C730 H718 0.950 . S
C730 C729 1.398 . S
C730 C731 1.391 . S
C731 H719 0.950 . S
C731 C727 1.393 . S
C731 C730 1.391 . S
H732 C740 0.950 . S
H733 C745 0.950 . S
H734 C742 0.950 . S
H735 C744 0.950 . S
H736 C746 0.950 . S
H737 C748 0.950 . S
H738 C750 0.950 . S
H739 C751 0.950 . S
C740 H732 0.950 . S
C740 C741 1.386 . S
C740 C742 1.391 . S
C741 C740 1.386 . S
C741 C745 1.393 . S
C742 H734 0.950 . S
C742 C740 1.391 . S
C742 C743 1.400 . S
C743 C742 1.400 . S
C743 C744 1.398 . S
C743 C749 1.491 . S
C744 H735 0.950 . S
C744 C743 1.398 . S
C744 C745 1.391 . S
C745 H733 0.950 . S
C745 C741 1.393 . S
C745 C744 1.391 . S
C746 H736 0.950 . S
C746 C747 1.386 . S
C746 C748 1.391 . S
C747 C746 1.386 . S
C747 C751 1.393 . S
C748 H737 0.950 . S
C748 C746 1.391 . S
C748 C749 1.400 . S
C749 C743 1.491 . S
C749 C748 1.400 . S
C749 C750 1.398 . S
C750 H738 0.950 . S
C750 C749 1.398 . S
C750 C751 1.391 . S
C751 H739 0.950 . S
C751 C747 1.393 . S
C751 C750 1.391 . S
H752 C760 0.950 . S
H753 C765 0.950 . S
H754 C762 0.950 . S
H755 C764 0.950 . S
H756 C766 0.950 . S
H757 C768 0.950 . S
H758 C770 0.950 . S
H759 C771 0.950 . S
C760 H752 0.950 . S
C760 C761 1.386 . S
C760 C762 1.391 . S
C761 C760 1.386 . S
C761 C765 1.393 . S
C762 H754 0.950 . S
C762 C760 1.391 . S
C762 C763 1.400 . S
C763 C762 1.400 . S
C763 C764 1.398 . S
C763 C769 1.491 . S
C764 H755 0.950 . S
C764 C763 1.398 . S
C764 C765 1.391 . S
C765 H753 0.950 . S
C765 C761 1.393 . S
C765 C764 1.391 . S
C766 H756 0.950 . S
C766 C767 1.386 . S
C766 C768 1.391 . S
C767 C766 1.386 . S
C767 C771 1.393 . S
C768 H757 0.950 . S
C768 C766 1.391 . S
C768 C769 1.400 . S
C769 C763 1.491 . S
C769 C768 1.400 . S
C769 C770 1.398 . S
C770 H758 0.950 . S
C770 C769 1.398 . S
C770 C771 1.391 . S
C771 H759 0.950 . S
C771 C767 1.393 . S
C771 C770 1.391 . S
H772 C780 0.950 . S
H773 C785 0.950 . S
H774 C782 0.950 . S
H775 C784 0.950 . S
H776 C786 0.950 . S
H777 C788 0.950 . S
H778 C790 0.950 . S
H779 C791 0.950 . S
C780 H772 0.950 . S
C780 C781 1.386 . S
C780 C782 1.391 . S
C781 C780 1.386 . S
C781 C785 1.393 . S
C782 H774 0.950 . S
C782 C780 1.391 . S
C782 C783 1.400 . S
C783 C782 1.400 . S
C783 C784 1.398 . S
C783 C789 1.491 . S
C784 H775 0.950 . S
C784 C783 1.398 . S
C784 C785 1.391 . S
C785 H773 0.950 . S
C785 C781 1.393 . S
C785 C784 1.391 . S
C786 H776 0.950 . S
C786 C787 1.386 . S
C786 C788 1.391 . S
C787 C786 1.386 . S
C787 C791 1.393 . S
C788 H777 0.950 . S
C788 C786 1.391 . S
C788 C789 1.400 . S
C789 C783 1.491 . S
C789 C788 1.400 . S
C789 C790 1.398 . S
C790 H778 0.950 . S
C790 C789 1.398 . S
C790 C791 1.391 . S
C791 H779 0.950 . S
C791 C787 1.393 . S
C791 C790 1.391 . S
H792 C800 0.950 . S
H793 C805 0.950 . S
H794 C802 0.950 . S
H795 C804 0.950 . S
H796 C806 0.950 . S
H797 C808 0.950 . S
H798 C810 0.950 . S
H799 C811 0.950 . S
C800 H792 0.950 . S
C800 C801 1.386 . S
C800 C802 1.391 . S
C801 C800 1.386 . S
C801 C805 1.393 . S
C802 H794 0.950 . S
C802 C800 1.391 . S
C802 C803 1.400 . S
C803 C802 1.400 . S
C803 C804 1.398 . S
C803 C809 1.491 . S
C804 H795 0.950 . S
C804 C803 1.398 . S
C804 C805 1.391 . S
C805 H793 0.950 . S
C805 C801 1.393 . S
C805 C804 1.391 . S
C806 H796 0.950 . S
C806 C807 1.386 . S
C806 C808 1.391 . S
C807 C806 1.386 . S
C807 C811 1.393 . S
C808 H797 0.950 . S
C808 C806 1.391 . S
C808 C809 1.400 . S
C809 C803 1.491 . S
C809 C808 1.400 . S
C809 C810 1.398 . S
C810 H798 0.950 . S
C810 C809 1.398 . S
C810 C811 1.391 . S
C811 H799 0.950 . S
C811 C807 1.393 . S
C811 C810 1.391 . S
H812 C820 0.950 . S
H813 C825 0.950 . S
H814 C822 0.950 . S
H815 C824 0.950 . S
H816 C826 0.950 . S
H817 C828 0.950 . S
H818 C830 0.950 . S
H819 C831 0.950 . S
C820 H812 0.950 . S
C820 C821 1.386 . S
C820 C822 1.391 . S
C821 C820 1.386 . S
C821 C825 1.393 . S
C822 H814 0.950 . S
C822 C820 1.391 . S
C822 C823 1.400 . S
C823 C822 1.400 . S
C823 C824 1.398 . S
C823 C829 1.491 . S
C824 H815 0.950 . S
C824 C823 1.398 . S
C824 C825 1.391 . S
C825 H813 0.950 . S
C825 C821 1.393 . S
C825 C824 1.391 . S
C826 H816 0.950 . S
C826 C827 1.386 . S
C826 C828 1.391 . S
C827 C826 1.386 . S
C827 C831 1.393 . S
C828 H817 0.950 . S
C828 C826 1.391 . S
C828 C829 1.400 . S
C829 C823 1.491 . S
C829 C828 1.400 . S
C829 C830 1.398 . S
C830 H818 0.950 . S
C830 C829 1.398 . S
C830 C831 1.391 . S
C831 H819 0.950 . S
C831 C827 1.393 . S
C831 C830 1.391 . S
H832 C840 0.950 . S
H833 C845 0.950 . S
H834 C842 0.950 . S
H835 C844 0.950 . S
H836 C846 0.950 . S
H837 C848 0.950 . S
H838 C850 0.950 . S
H839 C851 0.950 . S
C840 H832 0.950 . S
C840 C841 1.386 . S
C840 C842 1.391 . S
C841 C840 1.386 . S
C841 C845 1.393 . S
C842 H834 0.950 . S
C842 C840 1.391 . S
C842 C843 1.400 . S
C843 C842 1.400 . S
C843 C844 1.398 . S
C843 C849 1.491 . S
C844 H835 0.950 . S
C844 C843 1.398 . S
C844 C845 1.391 . S
C845 H833 0.950 . S
C845 C841 1.393 . S
C845 C844 1.391 . S
C846 H836 0.950 . S
C846 C847 1.386 . S
C846 C848 1.391 . S
C847 C846 1.386 . S
C847 C851 1.393 . S
C848 H837 0.950 . S
C848 C846 1.391 . S
C848 C849 1.400 . S
C849 C843 1.491 . S
C849 C848 1.400 . S
C849 C850 1.398 . S
C850 H838 0.950 . S
C850 C849 1.398 . S
C850 C851 1.391 . S
C851 H839 0.950 . S
C851 C847 1.393 . S
C851 C850 1.391 . S
H852 C860 0.950 . S
H853 C865 0.950 . S
H854 C862 0.950 . S
H855 C864 0.950 . S
H856 C866 0.950 . S
H857 C868 0.950 . S
H858 C870 0.950 . S
H859 C871 0.950 . S
C860 H852 0.950 . S
C860 C861 1.386 . S
C860 C862 1.391 . S
C861 C860 1.386 . S
C861 C865 1.393 . S
C862 H854 0.950 . S
C862 C860 1.391 . S
C862 C863 1.400 . S
C863 C862 1.400 . S
C863 C864 1.398 . S
C863 C869 1.491 . S
C864 H855 0.950 . S
C864 C863 1.398 . S
C864 C865 1.391 . S
C865 H853 0.950 . S
C865 C861 1.393 . S
C865 C864 1.391 . S
C866 H856 0.950 . S
C866 C867 1.386 . S
C866 C868 1.391 . S
C867 C866 1.386 . S
C867 C871 1.393 . S
C868 H857 0.950 . S
C868 C866 1.391 . S
C868 C869 1.400 . S
C869 C863 1.491 . S
C869 C868 1.400 . S
C869 C870 1.398 . S
C870 H858 0.950 . S
C870 C869 1.398 . S
C870 C871 1.391 . S
C871 H859 0.950 . S
C871 C867 1.393 . S
C871 C870 1.391 . S
H872 C880 0.950 . S
H873 C885 0.950 . S
H874 C882 0.950 . S
H875 C884 0.950 . S
H876 C886 0.950 . S
H877 C888 0.950 . S
H878 C890 0.950 . S
H879 C891 0.950 . S
C880 H872 0.950 . S
C880 C881 1.386 . S
C880 C882 1.391 . S
C881 C880 1.386 . S
C881 C885 1.393 . S
C882 H874 0.950 . S
C882 C880 1.391 . S
C882 C883 1.400 . S
C883 C882 1.400 . S
C883 C884 1.398 . S
C883 C889 1.491 . S
C884 H875 0.950 . S
C884 C883 1.398 . S
C884 C885 1.391 . S
C885 H873 0.950 . S
C885 C881 1.393 . S
C885 C884 1.391 . S
C886 H876 0.950 . S
C886 C887 1.386 . S
C886 C888 1.391 . S
C887 C886 1.386 . S
C887 C891 1.393 . S
C888 H877 0.950 . S
C888 C886 1.391 . S
C888 C889 1.400 . S
C889 C883 1.491 . S
C889 C888 1.400 . S
C889 C890 1.398 . S
C890 H878 0.950 . S
C890 C889 1.398 . S
C890 C891 1.391 . S
C891 H879 0.950 . S
C891 C887 1.393 . S
C891 C890 1.391 . S
H892 C900 0.950 . S
H893 C905 0.950 . S
H894 C902 0.950 . S
H895 C904 0.950 . S
H896 C906 0.950 . S
H897 C908 0.950 . S
H898 C910 0.950 . S
H899 C911 0.950 . S
C900 H892 0.950 . S
C900 C901 1.386 . S
C900 C902 1.391 . S
C901 C900 1.386 . S
C901 C905 1.393 . S
C902 H894 0.950 . S
C902 C900 1.391 . S
C902 C903 1.400 . S
C903 C902 1.400 . S
C903 C904 1.398 . S
C903 C909 1.491 . S
C904 H895 0.950 . S
C904 C903 1.398 . S
C904 C905 1.391 . S
C905 H893 0.950 . S
C905 C901 1.393 . S
C905 C904 1.391 . S
C906 H896 0.950 . S
C906 C907 1.386 . S
C906 C908 1.391 . S
C907 C906 1.386 . S
C907 C911 1.393 . S
C908 H897 0.950 . S
C908 C906 1.391 . S
C908 C909 1.400 . S
C909 C903 1.491 . S
C909 C908 1.400 . S
C909 C910 1.398 . S
C910 H898 0.950 . S
C910 C909 1.398 . S
C910 C911 1.391 . S
C911 H899 0.950 . S
C911 C907 1.393 . S
C911 C910 1.391 . S
H912 C920 0.950 . S
H913 C925 0.950 . S
H914 C922 0.950 . S
H915 C924 0.950 . S
H916 C926 0.950 . S
H917 C928 0.950 . S
H918 C930 0.950 . S
H919 C931 0.950 . S
C920 H912 0.950 . S
C920 C921 1.386 . S
C920 C922 1.391 . S
C921 C920 1.386 . S
C921 C925 1.393 . S
C922 H914 0.950 . S
C922 C920 1.391 . S
C922 C923 1.400 . S
C923 C922 1.400 . S
C923 C924 1.398 . S
C923 C929 1.491 . S
C924 H915 0.950 . S
C924 C923 1.398 . S
C924 C925 1.391 . S
C925 H913 0.950 . S
C925 C921 1.393 . S
C925 C924 1.391 . S
C926 H916 0.950 . S
C926 C927 1.386 . S
C926 C928 1.391 . S
C927 C926 1.386 . S
C927 C931 1.393 . S
C928 H917 0.950 . S
C928 C926 1.391 . S
C928 C929 1.400 . S
C929 C923 1.491 . S
C929 C928 1.400 . S
C929 C930 1.398 . S
C930 H918 0.950 . S
C930 C929 1.398 . S
C930 C931 1.391 . S
C931 H919 0.950 . S
C931 C927 1.393 . S
C931 C930 1.391 . S
H932 C940 0.950 . S
H933 C945 0.950 . S
H934 C942 0.950 . S
H935 C944 0.950 . S
H936 C946 0.950 . S
H937 C948 0.950 . S
H938 C950 0.950 . S
H939 C951 0.950 . S
C940 H932 0.950 . S
C940 C941 1.386 . S
C940 C942 1.391 . S
C941 C940 1.386 . S
C941 C945 1.393 . S
C942 H934 0.950 . S
C942 C940 1.391 . S
C942 C943 1.400 . S
C943 C942 1.400 . S
C943 C944 1.398 . S
C943 C949 1.491 . S
C944 H935 0.950 . S
C944 C943 1.398 . S
C944 C945 1.391 . S
C945 H933 0.950 . S
C945 C941 1.393 . S
C945 C944 1.391 . S
C946 H936 0.950 . S
C946 C947 1.386 . S
C946 C948 1.391 . S
C947 C946 1.386 . S
C947 C951 1.393 . S
C948 H937 0.950 . S
C948 C946 1.391 . S
C948 C949 1.400 . S
C949 C943 1.491 . S
C949 C948 1.400 . S
C949 C950 1.398 . S
C950 H938 0.950 . S
C950 C949 1.398 . S
C950 C951 1.391 . S
C951 H939 0.950 . S
C951 C947 1.393 . S
C951 C950 1.391 . S
H952 C960 0.950 . S
H953 C965 0.950 . S
H954 C962 0.950 . S
H955 C964 0.950 . S
H956 C966 0.950 . S
H957 C968 0.950 . S
H958 C970 0.950 . S
H959 C971 0.950 . S
C960 H952 0.950 . S
C960 C961 1.386 . S
C960 C962 1.391 . S
C961 C960 1.386 . S
C961 C965 1.393 . S
C962 H954 0.950 . S
C962 C960 1.391 . S
C962 C963 1.400 . S
C963 C962 1.400 . S
C963 C964 1.398 . S
C963 C969 1.491 . S
C964 H955 0.950 . S
C964 C963 1.398 . S
C964 C965 1.391 . S
C965 H953 0.950 . S
C965 C961 1.393 . S
C965 C964 1.391 . S
C966 H956 0.950 . S
C966 C967 1.386 . S
C966 C968 1.391 . S
C967 C966 1.386 . S
C967 C971 1.393 . S
C968 H957 0.950 . S
C968 C966 1.391 . S
C968 C969 1.400 . S
C969 C963 1.491 . S
C969 C968 1.400 . S
C969 C970 1.398 . S
C970 H958 0.950 . S
C970 C969 1.398 . S
C970 C971 1.391 . S
C971 H959 0.950 . S
C971 C967 1.393 . S
C971 C970 1.391 . S
H972 C980 0.950 . S
H973 C985 0.950 . S
H974 C982 0.950 . S
H975 C984 0.950 . S
H976 C986 0.950 . S
H977 C988 0.950 . S
H978 C990 0.950 . S
H979 C991 0.950 . S
C980 H972 0.950 . S
C980 C981 1.386 . S
C980 C982 1.391 . S
C981 C980 1.386 . S
C981 C985 1.393 . S
C982 H974 0.950 . S
C982 C980 1.391 . S
C982 C983 1.400 . S
C983 C982 1.400 . S
C983 C984 1.398 . S
C983 C989 1.491 . S
C984 H975 0.950 . S
C984 C983 1.398 . S
C984 C985 1.391 . S
C985 H973 0.950 . S
C985 C981 1.393 . S
C985 C984 1.391 . S
C986 H976 0.950 . S
C986 C987 1.386 . S
C986 C988 1.391 . S
C987 C986 1.386 . S
C987 C991 1.393 . S
C988 H977 0.950 . S
C988 C986 1.391 . S
C988 C989 1.400 . S
C989 C983 1.491 . S
C989 C988 1.400 . S
C989 C990 1.398 . S
C990 H978 0.950 . S
C990 C989 1.398 . S
C990 C991 1.391 . S
C991 H979 0.950 . S
C991 C987 1.393 . S
C991 C990 1.391 . S
H992 C1000 0.950 . S
H993 C1005 0.950 . S
H994 C1002 0.950 . S
H995 C1004 0.950 . S
H996 C1006 0.950 . S
H997 C1008 0.950 . S
H998 C1010 0.950 . S
H999 C1011 0.950 . S
C1000 H992 0.950 . S
C1000 C1001 1.386 . S
C1000 C1002 1.391 . S
C1001 C1000 1.386 . S
C1001 C1005 1.393 . S
C1002 H994 0.950 . S
C1002 C1000 1.391 . S
C1002 C1003 1.400 . S
C1003 C1002 1.400 . S
C1003 C1004 1.398 . S
C1003 C1009 1.491 . S
C1004 H995 0.950 . S
C1004 C1003 1.398 . S
C1004 C1005 1.391 . S
C1005 H993 0.950 . S
C1005 C1001 1.393 . S
C1005 C1004 1.391 . S
C1006 H996 0.950 . S
C1006 C1007 1.386 . S
C1006 C1008 1.391 . S
C1007 C1006 1.386 . S
C1007 C1011 1.393 . S
C1008 H997 0.950 . S
C1008 C1006 1.391 . S
C1008 C1009 1.400 . S
C1009 C1003 1.491 . S
C1009 C1008 1.400 . S
C1009 C1010 1.398 . S
C1010 H998 0.950 . S
C1010 C1009 1.398 . S
C1010 C1011 1.391 . S
C1011 H999 0.950 . S
C1011 C1007 1.393 . S
C1011 C1010 1.391 . S
H1012 C1020 0.950 . S
H1013 C1025 0.950 . S
H1014 C1022 0.950 . S
H1015 C1024 0.950 . S
H1016 C1026 0.950 . S
H1017 C1028 0.950 . S
H1018 C1030 0.950 . S
H1019 C1031 0.950 . S
C1020 H1012 0.950 . S
C1020 C1021 1.386 . S
C1020 C1022 1.391 . S
C1021 C1020 1.386 . S
C1021 C1025 1.393 . S
C1022 H1014 0.950 . S
C1022 C1020 1.391 . S
C1022 C1023 1.400 . S
C1023 C1022 1.400 . S
C1023 C1024 1.398 . S
C1023 C1029 1.491 . S
C1024 H1015 0.950 . S
C1024 C1023 1.398 . S
C1024 C1025 1.391 . S
C1025 H1013 0.950 . S
C1025 C1021 1.393 . S
C1025 C1024 1.391 . S
C1026 H1016 0.950 . S
C1026 C1027 1.386 . S
C1026 C1028 1.391 . S
C1027 C1026 1.386 . S
C1027 C1031 1.393 . S
C1028 H1017 0.950 . S
C1028 C1026 1.391 . S
C1028 C1029 1.400 . S
C1029 C1023 1.491 . S
C1029 C1028 1.400 . S
C1029 C1030 1.398 . S
C1030 H1018 0.950 . S
C1030 C1029 1.398 . S
C1030 C1031 1.391 . S
C1031 H1019 0.950 . S
C1031 C1027 1.393 . S
C1031 C1030 1.391 . S
H1032 C1040 0.950 . S
H1033 C1045 0.950 . S
H1034 C1042 0.950 . S
H1035 C1044 0.950 . S
H1036 C1046 0.950 . S
H1037 C1048 0.950 . S
H1038 C1050 0.950 . S
H1039 C1051 0.950 . S
C1040 H1032 0.950 . S
C1040 C1041 1.386 . S
C1040 C1042 1.391 . S
C1041 C1040 1.386 . S
C1041 C1045 1.393 . S
C1042 H1034 0.950 . S
C1042 C1040 1.391 . S
C1042 C1043 1.400 . S
C1043 C1042 1.400 . S
C1043 C1044 1.398 . S
C1043 C1049 1.491 . S
C1044 H1035 0.950 . S
C1044 C1043 1.398 . S
C1044 C1045 1.391 . S
C1045 H1033 0.950 . S
C1045 C1041 1.393 . S
C1045 C1044 1.391 . S
C1046 H1036 0.950 . S
C1046 C1047 1.386 . S
C1046 C1048 1.391 . S
C1047 C1046 1.386 . S
C1047 C1051 1.393 . S
C1048 H1037 0.950 . S
C1048 C1046 1.391 . S
C1048 C1049 1.400 . S
C1049 C1043 1.491 . S
C1049 C1048 1.400 . S
C1049 C1050 1.398 . S
C1050 H1038 0.950 . S
C1050 C1049 1.398 . S
C1050 C1051 1.391 . S
C1051 H1039 0.950 . S
C1051 C1047 1.393 . S
C1051 C1050 1.391 . S
H1052 C1060 0.950 . S
H1053 C1065 0.950 . S
H1054 C1062 0.950 . S
H1055 C1064 0.950 . S
H1056 C1066 0.950 . S
H1057 C1068 0.950 . S
H1058 C1070 0.950 . S
H1059 C1071 0.950 1_554 S
C1060 H1052 0.950 . S
C1060 C1061 1.386 . S
C1060 C1062 1.391 . S
C1061 C1060 1.386 . S
C1061 C1065 1.393 . S
C1062 H1054 0.950 . S
C1062 C1060 1.391 . S
C1062 C1063 1.400 . S
C1063 C1062 1.400 . S
C1063 C1064 1.398 . S
C1063 C1069 1.491 . S
C1064 H1055 0.950 . S
C1064 C1063 1.398 . S
C1064 C1065 1.391 . S
C1065 H1053 0.950 . S
C1065 C1061 1.393 . S
C1065 C1064 1.391 . S
C1066 H1056 0.950 . S
C1066 C1067 1.386 . S
C1066 C1068 1.391 . S
C1067 C1066 1.386 . S
C1067 C1071 1.393 . S
C1068 H1057 0.950 . S
C1068 C1066 1.391 . S
C1068 C1069 1.400 . S
C1069 C1063 1.491 . S
C1069 C1068 1.400 . S
C1069 C1070 1.398 . S
C1070 H1058 0.950 . S
C1070 C1069 1.398 . S
C1070 C1071 1.391 . S
C1071 H1059 0.950 1_556 S
C1071 C1067 1.393 . S
C1071 C1070 1.391 . S
H1072 C1080 0.950 . S
H1073 C1085 0.950 . S
H1074 C1082 0.950 . S
H1075 C1084 0.950 . S
H1076 C1086 0.950 . S
H1077 C1088 0.950 . S
H1078 C1090 0.950 . S
H1079 C1091 0.950 . S
C1080 H1072 0.950 . S
C1080 C1081 1.386 . S
C1080 C1082 1.391 . S
C1081 C1080 1.386 . S
C1081 C1085 1.393 . S
C1082 H1074 0.950 . S
C1082 C1080 1.391 . S
C1082 C1083 1.400 . S
C1083 C1082 1.400 . S
C1083 C1084 1.398 . S
C1083 C1089 1.491 . S
C1084 H1075 0.950 . S
C1084 C1083 1.398 . S
C1084 C1085 1.391 . S
C1085 H1073 0.950 . S
C1085 C1081 1.393 . S
C1085 C1084 1.391 . S
C1086 H1076 0.950 . S
C1086 C1087 1.386 . S
C1086 C1088 1.391 . S
C1087 C1086 1.386 . S
C1087 C1091 1.393 . S
C1088 H1077 0.950 . S
C1088 C1086 1.391 . S
C1088 C1089 1.400 . S
C1089 C1083 1.491 . S
C1089 C1088 1.400 . S
C1089 C1090 1.398 . S
C1090 H1078 0.950 . S
C1090 C1089 1.398 . S
C1090 C1091 1.391 . S
C1091 H1079 0.950 . S
C1091 C1087 1.393 . S
C1091 C1090 1.391 . S
H1092 C1100 0.950 . S
H1093 C1105 0.950 . S
H1094 C1102 0.950 . S
H1095 C1104 0.950 . S
H1096 C1106 0.950 . S
H1097 C1108 0.950 . S
H1098 C1110 0.950 . S
H1099 C1111 0.950 . S
C1100 H1092 0.950 . S
C1100 C1101 1.386 . S
C1100 C1102 1.391 . S
C1101 C1100 1.386 . S
C1101 C1105 1.393 . S
C1102 H1094 0.950 . S
C1102 C1100 1.391 . S
C1102 C1103 1.400 . S
C1103 C1102 1.400 . S
C1103 C1104 1.398 . S
C1103 C1109 1.491 . S
C1104 H1095 0.950 . S
C1104 C1103 1.398 . S
C1104 C1105 1.391 . S
C1105 H1093 0.950 . S
C1105 C1101 1.393 . S
C1105 C1104 1.391 . S
C1106 H1096 0.950 . S
C1106 C1107 1.386 . S
C1106 C1108 1.391 . S
C1107 C1106 1.386 . S
C1107 C1111 1.393 . S
C1108 H1097 0.950 . S
C1108 C1106 1.391 . S
C1108 C1109 1.400 . S
C1109 C1103 1.491 . S
C1109 C1108 1.400 . S
C1109 C1110 1.398 . S
C1110 H1098 0.950 . S
C1110 C1109 1.398 . S
C1110 C1111 1.391 . S
C1111 H1099 0.950 . S
C1111 C1107 1.393 . S
C1111 C1110 1.391 . S
H1112 C1120 0.950 . S
H1113 C1125 0.950 . S
H1114 C1122 0.950 . S
H1115 C1124 0.950 . S
H1116 C1126 0.950 . S
H1117 C1128 0.950 . S
H1118 C1130 0.950 . S
H1119 C1131 0.950 . S
C1120 H1112 0.950 . S
C1120 C1121 1.386 . S
C1120 C1122 1.391 . S
C1121 C1120 1.386 . S
C1121 C1125 1.393 . S
C1122 H1114 0.950 . S
C1122 C1120 1.391 . S
C1122 C1123 1.400 . S
C1123 C1122 1.400 . S
C1123 C1124 1.398 . S
C1123 C1129 1.491 . S
C1124 H1115 0.950 . S
C1124 C1123 1.398 . S
C1124 C1125 1.391 . S
C1125 H1113 0.950 . S
C1125 C1121 1.393 . S
C1125 C1124 1.391 . S
C1126 H1116 0.950 . S
C1126 C1127 1.386 . S
C1126 C1128 1.391 . S
C1127 C1126 1.386 . S
C1127 C1131 1.393 . S
C1128 H1117 0.950 . S
C1128 C1126 1.391 . S
C1128 C1129 1.400 . S
C1129 C1123 1.491 . S
C1129 C1128 1.400 . S
C1129 C1130 1.398 . S
C1130 H1118 0.950 . S
C1130 C1129 1.398 . S
C1130 C1131 1.391 . S
C1131 H1119 0.950 . S
C1131 C1127 1.393 . S
C1131 C1130 1.391 . S
H1132 C1140 0.950 . S
H1133 C1145 0.950 . S
H1134 C1142 0.950 . S
H1135 C1144 0.950 . S
H1136 C1146 0.950 . S
H1137 C1148 0.950 . S
H1138 C1150 0.950 . S
H1139 C1151 0.950 . S
C1140 H1132 0.950 . S
C1140 C1141 1.386 . S
C1140 C1142 1.391 . S
C1141 C1140 1.386 . S
C1141 C1145 1.393 . S
C1142 H1134 0.950 . S
C1142 C1140 1.391 . S
C1142 C1143 1.400 . S
C1143 C1142 1.400 . S
C1143 C1144 1.398 . S
C1143 C1149 1.491 . S
C1144 H1135 0.950 . S
C1144 C1143 1.398 . S
C1144 C1145 1.391 . S
C1145 H1133 0.950 . S
C1145 C1141 1.393 . S
C1145 C1144 1.391 . S
C1146 H1136 0.950 . S
C1146 C1147 1.386 . S
C1146 C1148 1.391 . S
C1147 C1146 1.386 . S
C1147 C1151 1.393 . S
C1148 H1137 0.950 . S
C1148 C1146 1.391 . S
C1148 C1149 1.400 . S
C1149 C1143 1.491 . S
C1149 C1148 1.400 . S
C1149 C1150 1.398 . S
C1150 H1138 0.950 . S
C1150 C1149 1.398 . S
C1150 C1151 1.391 . S
C1151 H1139 0.950 . S
C1151 C1147 1.393 . S
C1151 C1150 1.391 . S
H1152 C1160 0.950 . S
H1153 C1165 0.950 . S
H1154 C1162 0.950 . S
H1155 C1164 0.950 . S
H1156 C1166 0.950 . S
H1157 C1168 0.950 . S
H1158 C1170 0.950 . S
H1159 C1171 0.950 . S
C1160 H1152 0.950 . S
C1160 C1161 1.386 . S
C1160 C1162 1.391 . S
C1161 C1160 1.386 . S
C1161 C1165 1.393 . S
C1162 H1154 0.950 . S
C1162 C1160 1.391 . S
C1162 C1163 1.400 . S
C1163 C1162 1.400 . S
C1163 C1164 1.398 . S
C1163 C1169 1.491 . S
C1164 H1155 0.950 . S
C1164 C1163 1.398 . S
C1164 C1165 1.391 . S
C1165 H1153 0.950 . S
C1165 C1161 1.393 . S
C1165 C1164 1.391 . S
C1166 H1156 0.950 . S
C1166 C1167 1.386 . S
C1166 C1168 1.391 . S
C1167 C1166 1.386 . S
C1167 C1171 1.393 . S
C1168 H1157 0.950 . S
C1168 C1166 1.391 . S
C1168 C1169 1.400 . S
C1169 C1163 1.491 . S
C1169 C1168 1.400 . S
C1169 C1170 1.398 . S
C1170 H1158 0.950 . S
C1170 C1169 1.398 . S
C1170 C1171 1.391 . S
C1171 H1159 0.950 . S
C1171 C1167 1.393 . S
C1171 C1170 1.391 . S
H1172 C1180 0.950 . S
H1173 C1185 0.950 . S
H1174 C1182 0.950 . S
H1175 C1184 0.950 . S
H1176 C1186 0.950 . S
H1177 C1188 0.950 . S
H1178 C1190 0.950 . S
H1179 C1191 0.950 . S
C1180 H1172 0.950 . S
C1180 C1181 1.386 . S
C1180 C1182 1.391 . S
C1181 C1180 1.386 . S
C1181 C1185 1.393 . S
C1182 H1174 0.950 . S
C1182 C1180 1.391 . S
C1182 C1183 1.400 . S
C1183 C1182 1.400 . S
C1183 C1184 1.398 . S
C1183 C1189 1.491 . S
C1184 H1175 0.950 . S
C1184 C1183 1.398 . S
C1184 C1185 1.391 . S
C1185 H1173 0.950 . S
C1185 C1181 1.393 . S
C1185 C1184 1.391 . S
C1186 H1176 0.950 . S
C1186 C1187 1.386 . S
C1186 C1188 1.391 . S
C1187 C1186 1.386 . S
C1187 C1191 1.393 . S
C1188 H1177 0.950 . S
C1188 C1186 1.391 . S
C1188 C1189 1.400 . S
C1189 C1183 1.491 . S
C1189 C1188 1.400 . S
C1189 C1190 1.398 . S
C1190 H1178 0.950 . S
C1190 C1189 1.398 . S
C1190 C1191 1.391 . S
C1191 H1179 0.950 . S
C1191 C1187 1.393 . S
C1191 C1190 1.391 . S
H1192 C1200 0.950 . S
H1193 C1205 0.950 . S
H1194 C1202 0.950 . S
H1195 C1204 0.950 . S
H1196 C1206 0.950 . S
H1197 C1208 0.950 . S
H1198 C1210 0.950 . S
H1199 C1211 0.950 . S
C1200 H1192 0.950 . S
C1200 C1201 1.386 . S
C1200 C1202 1.391 . S
C1201 C1200 1.386 . S
C1201 C1205 1.393 . S
C1202 H1194 0.950 . S
C1202 C1200 1.391 . S
C1202 C1203 1.400 . S
C1203 C1202 1.400 . S
C1203 C1204 1.398 . S
C1203 C1209 1.491 . S
C1204 H1195 0.950 . S
C1204 C1203 1.398 . S
C1204 C1205 1.391 . S
C1205 H1193 0.950 . S
C1205 C1201 1.393 . S
C1205 C1204 1.391 . S
C1206 H1196 0.950 . S
C1206 C1207 1.386 . S
C1206 C1208 1.391 . S
C1207 C1206 1.386 . S
C1207 C1211 1.393 . S
C1208 H1197 0.950 . S
C1208 C1206 1.391 . S
C1208 C1209 1.400 . S
C1209 C1203 1.491 . S
C1209 C1208 1.400 . S
C1209 C1210 1.398 . S
C1210 H1198 0.950 . S
C1210 C1209 1.398 . S
C1210 C1211 1.391 . S
C1211 H1199 0.950 . S
C1211 C1207 1.393 . S
C1211 C1210 1.391 . S
H1212 C1220 0.950 . S
H1213 C1225 0.950 . S
H1214 C1222 0.950 . S
H1215 C1224 0.950 . S
H1216 C1226 0.950 . S
H1217 C1228 0.950 . S
H1218 C1230 0.950 . S
H1219 C1231 0.950 . S
C1220 H1212 0.950 . S
C1220 C1221 1.386 . S
C1220 C1222 1.391 . S
C1221 C1220 1.386 . S
C1221 C1225 1.393 . S
C1222 H1214 0.950 . S
C1222 C1220 1.391 . S
C1222 C1223 1.400 . S
C1223 C1222 1.400 . S
C1223 C1224 1.398 . S
C1223 C1229 1.491 . S
C1224 H1215 0.950 . S
C1224 C1223 1.398 . S
C1224 C1225 1.391 . S
C1225 H1213 0.950 . S
C1225 C1221 1.393 . S
C1225 C1224 1.391 . S
C1226 H1216 0.950 . S
C1226 C1227 1.386 . S
C1226 C1228 1.391 . S
C1227 C1226 1.386 . S
C1227 C1231 1.393 . S
C1228 H1217 0.950 . S
C1228 C1226 1.391 . S
C1228 C1229 1.400 . S
C1229 C1223 1.491 . S
C1229 C1228 1.400 . S
C1229 C1230 1.398 . S
C1230 H1218 0.950 . S
C1230 C1229 1.398 . S
C1230 C1231 1.391 . S
C1231 H1219 0.950 . S
C1231 C1227 1.393 . S
C1231 C1230 1.391 . S
H1232 C1240 0.950 . S
H1233 C1245 0.950 . S
H1234 C1242 0.950 . S
H1235 C1244 0.950 . S
H1236 C1246 0.950 . S
H1237 C1248 0.950 . S
H1238 C1250 0.950 . S
H1239 C1251 0.950 . S
C1240 H1232 0.950 . S
C1240 C1241 1.386 . S
C1240 C1242 1.391 . S
C1241 C1240 1.386 . S
C1241 C1245 1.393 . S
C1242 H1234 0.950 . S
C1242 C1240 1.391 . S
C1242 C1243 1.400 . S
C1243 C1242 1.400 . S
C1243 C1244 1.398 . S
C1243 C1249 1.491 . S
C1244 H1235 0.950 . S
C1244 C1243 1.398 . S
C1244 C1245 1.391 . S
C1245 H1233 0.950 . S
C1245 C1241 1.393 . S
C1245 C1244 1.391 . S
C1246 H1236 0.950 . S
C1246 C1247 1.386 . S
C1246 C1248 1.391 . S
C1247 C1246 1.386 . S
C1247 C1251 1.393 . S
C1248 H1237 0.950 . S
C1248 C1246 1.391 . S
C1248 C1249 1.400 . S
C1249 C1243 1.491 . S
C1249 C1248 1.400 . S
C1249 C1250 1.398 . S
C1250 H1238 0.950 . S
C1250 C1249 1.398 . S
C1250 C1251 1.391 . S
C1251 H1239 0.950 . S
C1251 C1247 1.393 . S
C1251 C1250 1.391 . S
H1252 C1260 0.950 . S
H1253 C1265 0.950 . S
H1254 C1262 0.950 . S
H1255 C1264 0.950 . S
H1256 C1266 0.950 1_545 S
H1257 C1268 0.950 . S
H1258 C1270 0.950 . S
H1259 C1271 0.950 . S
C1260 H1252 0.950 . S
C1260 C1261 1.386 . S
C1260 C1262 1.391 . S
C1261 C1260 1.386 . S
C1261 C1265 1.393 . S
C1262 H1254 0.950 . S
C1262 C1260 1.391 . S
C1262 C1263 1.400 . S
C1263 C1262 1.400 . S
C1263 C1264 1.398 . S
C1263 C1269 1.491 . S
C1264 H1255 0.950 . S
C1264 C1263 1.398 . S
C1264 C1265 1.391 . S
C1265 H1253 0.950 . S
C1265 C1261 1.393 . S
C1265 C1264 1.391 . S
C1266 H1256 0.950 1_565 S
C1266 C1267 1.386 . S
C1266 C1268 1.391 . S
C1267 C1266 1.386 . S
C1267 C1271 1.393 . S
C1268 H1257 0.950 . S
C1268 C1266 1.391 . S
C1268 C1269 1.400 . S
C1269 C1263 1.491 . S
C1269 C1268 1.400 . S
C1269 C1270 1.398 . S
C1270 H1258 0.950 . S
C1270 C1269 1.398 . S
C1270 C1271 1.391 . S
C1271 H1259 0.950 . S
C1271 C1267 1.393 . S
C1271 C1270 1.391 . S
H1272 C1280 0.950 . S
H1273 C1285 0.950 . S
H1274 C1282 0.950 . S
H1275 C1284 0.950 . S
H1276 C1286 0.950 . S
H1277 C1288 0.950 . S
H1278 C1290 0.950 . S
H1279 C1291 0.950 . S
C1280 H1272 0.950 . S
C1280 C1281 1.386 . S
C1280 C1282 1.391 . S
C1281 C1280 1.386 . S
C1281 C1285 1.393 . S
C1282 H1274 0.950 . S
C1282 C1280 1.391 . S
C1282 C1283 1.400 . S
C1283 C1282 1.400 . S
C1283 C1284 1.398 . S
C1283 C1289 1.491 . S
C1284 H1275 0.950 . S
C1284 C1283 1.398 . S
C1284 C1285 1.391 . S
C1285 H1273 0.950 . S
C1285 C1281 1.393 . S
C1285 C1284 1.391 . S
C1286 H1276 0.950 . S
C1286 C1287 1.386 . S
C1286 C1288 1.391 . S
C1287 C1286 1.386 . S
C1287 C1291 1.393 . S
C1288 H1277 0.950 . S
C1288 C1286 1.391 . S
C1288 C1289 1.400 . S
C1289 C1283 1.491 . S
C1289 C1288 1.400 . S
C1289 C1290 1.398 . S
C1290 H1278 0.950 . S
C1290 C1289 1.398 . S
C1290 C1291 1.391 . S
C1291 H1279 0.950 . S
C1291 C1287 1.393 . S
C1291 C1290 1.391 . S
H1292 C1300 0.950 . S
H1293 C1305 0.950 . S
H1294 C1302 0.950 . S
H1295 C1304 0.950 . S
H1296 C1306 0.950 . S
H1297 C1308 0.950 . S
H1298 C1310 0.950 . S
H1299 C1311 0.950 . S
C1300 H1292 0.950 . S
C1300 C1301 1.386 . S
C1300 C1302 1.391 . S
C1301 C1300 1.386 . S
C1301 C1305 1.393 . S
C1302 H1294 0.950 . S
C1302 C1300 1.391 . S
C1302 C1303 1.400 . S
C1303 C1302 1.400 . S
C1303 C1304 1.398 . S
C1303 C1309 1.491 . S
C1304 H1295 0.950 . S
C1304 C1303 1.398 . S
C1304 C1305 1.391 . S
C1305 H1293 0.950 . S
C1305 C1301 1.393 . S
C1305 C1304 1.391 . S
C1306 H1296 0.950 . S
C1306 C1307 1.386 . S
C1306 C1308 1.391 . S
C1307 C1306 1.386 . S
C1307 C1311 1.393 . S
C1308 H1297 0.950 . S
C1308 C1306 1.391 . S
C1308 C1309 1.400 . S
C1309 C1303 1.491 . S
C1309 C1308 1.400 . S
C1309 C1310 1.398 . S
C1310 H1298 0.950 . S
C1310 C1309 1.398 . S
C1310 C1311 1.391 . S
C1311 H1299 0.950 . S
C1311 C1307 1.393 . S
C1311 C1310 1.391 . S
H1312 C1320 0.950 . S
H1313 C1325 0.950 . S
H1314 C1322 0.950 . S
H1315 C1324 0.950 . S
H1316 C1326 0.950 . S
H1317 C1328 0.950 . S
H1318 C1330 0.950 . S
H1319 C1331 0.950 . S
C1320 H1312 0.950 . S
C1320 C1321 1.386 . S
C1320 C1322 1.391 . S
C1321 C1320 1.386 . S
C1321 C1325 1.393 . S
C1322 H1314 0.950 . S
C1322 C1320 1.391 . S
C1322 C1323 1.400 . S
C1323 C1322 1.400 . S
C1323 C1324 1.398 . S
C1323 C1329 1.491 . S
C1324 H1315 0.950 . S
C1324 C1323 1.398 . S
C1324 C1325 1.391 . S
C1325 H1313 0.950 . S
C1325 C1321 1.393 . S
C1325 C1324 1.391 . S
C1326 H1316 0.950 . S
C1326 C1327 1.386 . S
C1326 C1328 1.391 . S
C1327 C1326 1.386 . S
C1327 C1331 1.393 . S
C1328 H1317 0.950 . S
C1328 C1326 1.391 . S
C1328 C1329 1.400 . S
C1329 C1323 1.491 . S
C1329 C1328 1.400 . S
C1329 C1330 1.398 . S
C1330 H1318 0.950 . S
C1330 C1329 1.398 . S
C1330 C1331 1.391 . S
C1331 H1319 0.950 . S
C1331 C1327 1.393 . S
C1331 C1330 1.391 . S
H1332 C1340 0.950 . S
H1333 C1345 0.950 . S
H1334 C1342 0.950 . S
H1335 C1344 0.950 . S
H1336 C1346 0.950 . S
H1337 C1348 0.950 . S
H1338 C1350 0.950 . S
H1339 C1351 0.950 . S
C1340 H1332 0.950 . S
C1340 C1341 1.386 . S
C1340 C1342 1.391 . S
C1341 C1340 1.386 . S
C1341 C1345 1.393 . S
C1342 H1334 0.950 . S
C1342 C1340 1.391 . S
C1342 C1343 1.400 . S
C1343 C1342 1.400 . S
C1343 C1344 1.398 . S
C1343 C1349 1.491 . S
C1344 H1335 0.950 . S
C1344 C1343 1.398 . S
C1344 C1345 1.391 . S
C1345 H1333 0.950 . S
C1345 C1341 1.393 . S
C1345 C1344 1.391 . S
C1346 H1336 0.950 . S
C1346 C1347 1.386 . S
C1346 C1348 1.391 . S
C1347 C1346 1.386 . S
C1347 C1351 1.393 . S
C1348 H1337 0.950 . S
C1348 C1346 1.391 . S
C1348 C1349 1.400 . S
C1349 C1343 1.491 . S
C1349 C1348 1.400 . S
C1349 C1350 1.398 . S
C1350 H1338 0.950 . S
C1350 C1349 1.398 . S
C1350 C1351 1.391 . S
C1351 H1339 0.950 . S
C1351 C1347 1.393 . S
C1351 C1350 1.391 . S
H1352 C1360 0.950 . S
H1353 C1365 0.950 . S
H1354 C1362 0.950 . S
H1355 C1364 0.950 . S
H1356 C1366 0.950 . S
H1357 C1368 0.950 . S
H1358 C1370 0.950 . S
H1359 C1371 0.950 . S
C1360 H1352 0.950 . S
C1360 C1361 1.386 . S
C1360 C1362 1.391 . S
C1361 C1360 1.386 . S
C1361 C1365 1.393 . S
C1362 H1354 0.950 . S
C1362 C1360 1.391 . S
C1362 C1363 1.400 . S
C1363 C1362 1.400 . S
C1363 C1364 1.398 . S
C1363 C1369 1.491 . S
C1364 H1355 0.950 . S
C1364 C1363 1.398 . S
C1364 C1365 1.391 . S
C1365 H1353 0.950 . S
C1365 C1361 1.393 . S
C1365 C1364 1.391 . S
C1366 H1356 0.950 . S
C1366 C1367 1.386 . S
C1366 C1368 1.391 . S
C1367 C1366 1.386 . S
C1367 C1371 1.393 . S
C1368 H1357 0.950 . S
C1368 C1366 1.391 . S
C1368 C1369 1.400 . S
C1369 C1363 1.491 . S
C1369 C1368 1.400 . S
C1369 C1370 1.398 . S
C1370 H1358 0.950 . S
C1370 C1369 1.398 . S
C1370 C1371 1.391 . S
C1371 H1359 0.950 . S
C1371 C1367 1.393 . S
C1371 C1370 1.391 . S
H1372 C1380 0.950 . S
H1373 C1385 0.950 . S
H1374 C1382 0.950 . S
H1375 C1384 0.950 . S
H1376 C1386 0.950 . S
H1377 C1388 0.950 . S
H1378 C1390 0.950 . S
H1379 C1391 0.950 . S
C1380 H1372 0.950 . S
C1380 C1381 1.386 . S
C1380 C1382 1.391 . S
C1381 C1380 1.386 . S
C1381 C1385 1.393 . S
C1382 H1374 0.950 . S
C1382 C1380 1.391 . S
C1382 C1383 1.400 . S
C1383 C1382 1.400 . S
C1383 C1384 1.398 . S
C1383 C1389 1.491 . S
C1384 H1375 0.950 . S
C1384 C1383 1.398 . S
C1384 C1385 1.391 . S
C1385 H1373 0.950 . S
C1385 C1381 1.393 . S
C1385 C1384 1.391 . S
C1386 H1376 0.950 . S
C1386 C1387 1.386 . S
C1386 C1388 1.391 . S
C1387 C1386 1.386 . S
C1387 C1391 1.393 . S
C1388 H1377 0.950 . S
C1388 C1386 1.391 . S
C1388 C1389 1.400 . S
C1389 C1383 1.491 . S
C1389 C1388 1.400 . S
C1389 C1390 1.398 . S
C1390 H1378 0.950 . S
C1390 C1389 1.398 . S
C1390 C1391 1.391 . S
C1391 H1379 0.950 . S
C1391 C1387 1.393 . S
C1391 C1390 1.391 . S
H1392 C1400 0.950 . S
H1393 C1405 0.950 . S
H1394 C1402 0.950 . S
H1395 C1404 0.950 . S
H1396 C1406 0.950 . S
H1397 C1408 0.950 . S
H1398 C1410 0.950 . S
H1399 C1411 0.950 . S
C1400 H1392 0.950 . S
C1400 C1401 1.386 . S
C1400 C1402 1.391 . S
C1401 C1400 1.386 . S
C1401 C1405 1.393 . S
C1402 H1394 0.950 . S
C1402 C1400 1.391 . S
C1402 C1403 1.400 . S
C1403 C1402 1.400 . S
C1403 C1404 1.398 . S
C1403 C1409 1.491 . S
C1404 H1395 0.950 . S
C1404 C1403 1.398 . S
C1404 C1405 1.391 . S
C1405 H1393 0.950 . S
C1405 C1401 1.393 . S
C1405 C1404 1.391 . S
C1406 H1396 0.950 . S
C1406 C1407 1.386 . S
C1406 C1408 1.391 . S
C1407 C1406 1.386 . S
C1407 C1411 1.393 . S
C1408 H1397 0.950 . S
C1408 C1406 1.391 . S
C1408 C1409 1.400 . S
C1409 C1403 1.491 . S
C1409 C1408 1.400 . S
C1409 C1410 1.398 . S
C1410 H1398 0.950 . S
C1410 C1409 1.398 . S
C1410 C1411 1.391 . S
C1411 H1399 0.950 . S
C1411 C1407 1.393 . S
C1411 C1410 1.391 . S
H1412 C1420 0.950 . S
H1413 C1425 0.950 . S
H1414 C1422 0.950 . S
H1415 C1424 0.950 . S
H1416 C1426 0.950 . S
H1417 C1428 0.950 . S
H1418 C1430 0.950 . S
H1419 C1431 0.950 . S
C1420 H1412 0.950 . S
C1420 C1421 1.386 . S
C1420 C1422 1.391 . S
C1421 C1420 1.386 . S
C1421 C1425 1.393 . S
C1422 H1414 0.950 . S
C1422 C1420 1.391 . S
C1422 C1423 1.400 . S
C1423 C1422 1.400 . S
C1423 C1424 1.398 . S
C1423 C1429 1.491 . S
C1424 H1415 0.950 . S
C1424 C1423 1.398 . S
C1424 C1425 1.391 . S
C1425 H1413 0.950 . S
C1425 C1421 1.393 . S
C1425 C1424 1.391 . S
C1426 H1416 0.950 . S
C1426 C1427 1.386 . S
C1426 C1428 1.391 . S
C1427 C1426 1.386 . S
C1427 C1431 1.393 . S
C1428 H1417 0.950 . S
C1428 C1426 1.391 . S
C1428 C1429 1.400 . S
C1429 C1423 1.491 . S
C1429 C1428 1.400 . S
C1429 C1430 1.398 . S
C1430 H1418 0.950 . S
C1430 C1429 1.398 . S
C1430 C1431 1.391 . S
C1431 H1419 0.950 . S
C1431 C1427 1.393 . S
C1431 C1430 1.391 . S
H1432 C1440 0.950 . S
H1433 C1445 0.950 . S
H1434 C1442 0.950 . S
H1435 C1444 0.950 . S
H1436 C1446 0.950 . S
H1437 C1448 0.950 . S
H1438 C1450 0.950 . S
H1439 C1451 0.950 . S
C1440 H1432 0.950 . S
C1440 C1441 1.386 . S
C1440 C1442 1.391 . S
C1441 C1440 1.386 . S
C1441 C1445 1.393 . S
C1442 H1434 0.950 . S
C1442 C1440 1.391 . S
C1442 C1443 1.400 . S
C1443 C1442 1.400 . S
C1443 C1444 1.398 . S
C1443 C1449 1.491 . S
C1444 H1435 0.950 . S
C1444 C1443 1.398 . S
C1444 C1445 1.391 . S
C1445 H1433 0.950 . S
C1445 C1441 1.393 . S
C1445 C1444 1.391 . S
C1446 H1436 0.950 . S
C1446 C1447 1.386 . S
C1446 C1448 1.391 . S
C1447 C1446 1.386 . S
C1447 C1451 1.393 . S
C1448 H1437 0.950 . S
C1448 C1446 1.391 . S
C1448 C1449 1.400 . S
C1449 C1443 1.491 . S
C1449 C1448 1.400 . S
C1449 C1450 1.398 . S
C1450 H1438 0.950 . S
C1450 C1449 1.398 . S
C1450 C1451 1.391 . S
C1451 H1439 0.950 . S
C1451 C1447 1.393 . S
C1451 C1450 1.391 . S
H1452 C1460 0.950 . S
H1453 C1465 0.950 . S
H1454 C1462 0.950 . S
H1455 C1464 0.950 . S
H1456 C1466 0.950 . S
H1457 C1468 0.950 . S
H1458 C1470 0.950 . S
H1459 C1471 0.950 . S
C1460 H1452 0.950 . S
C1460 C1461 1.386 . S
C1460 C1462 1.391 . S
C1461 C1460 1.386 . S
C1461 C1465 1.393 . S
C1462 H1454 0.950 . S
C1462 C1460 1.391 . S
C1462 C1463 1.400 . S
C1463 C1462 1.400 . S
C1463 C1464 1.398 . S
C1463 C1469 1.491 . S
C1464 H1455 0.950 . S
C1464 C1463 1.398 . S
C1464 C1465 1.391 . S
C1465 H1453 0.950 . S
C1465 C1461 1.393 . S
C1465 C1464 1.391 . S
C1466 H1456 0.950 . S
C1466 C1467 1.386 . S
C1466 C1468 1.391 . S
C1467 C1466 1.386 . S
C1467 C1471 1.393 . S
C1468 H1457 0.950 . S
C1468 C1466 1.391 . S
C1468 C1469 1.400 . S
C1469 C1463 1.491 . S
C1469 C1468 1.400 . S
C1469 C1470 1.398 . S
C1470 H1458 0.950 . S
C1470 C1469 1.398 . S
C1470 C1471 1.391 . S
C1471 H1459 0.950 . S
C1471 C1467 1.393 . S
C1471 C1470 1.391 . S
C527 C337 1.906 . S
C521 C3 1.923 . S
C547 C342 0.793 . S
C541 C49 0.810 . S
C567 C343 1.410 . S
C561 C95 1.405 . S
C581 C146 0.473 . S
C587 C347 0.486 . S
C601 C186 0.954 . S
C607 C350 0.962 . S
C627 C351 1.398 . S
C621 C215 1.398 . S
C641 C249 0.506 . S
C647 C328 0.565 . S
C661 C302 1.916 . S
C667 C344 1.905 . S
C687 C382 3.106 . S
C681 C2 3.225 . S
C701 C43 2.132 . S
C707 C408 2.107 . S
C727 C360 3.104 . S
C721 C102 3.159 . S
C747 C415 1.687 . S
C741 C135 1.702 . S
C761 C175 1.692 . S
C767 C369 1.666 . S
C787 C411 2.104 . S
C781 C222 2.174 . S
C801 C243 2.153 . S
C807 C375 2.122 . S
C821 C306 1.280 . S
C827 C406 1.201 . S
C841 C9 0.787 . S
C847 C414 0.796 . S
C861 C182 1.674 . S
C867 C401 1.622 . S
C887 C379 1.435 . S
C881 C226 1.470 . S
C907 C407 1.048 . S
C901 C242 1.071 . S
C921 C295 2.766 . S
C927 C374 2.708 . S
C941 C106 0.734 . S
C947 C392 0.729 . S
C967 C383 1.632 . S
C961 C142 1.671 . S
C981 C42 1.091 . S
C987 C376 1.076 . S
C1001 C283 1.878 . S
C1007 C438 1.821 . S
C1021 C169 0.933 . S
C1027 C433 0.900 . S
C1047 C447 1.326 . S
C1041 C202 1.368 . S
C1067 C424 0.209 . S
C1061 C266 0.424 . S
C1081 C66 0.809 . S
C1087 C440 0.784 . S
C1107 C439 1.304 . S
C1101 C82 1.368 . S
C1121 C129 0.383 . S
C1127 C443 0.252 . S
C1141 C22 1.891 . S
C1147 C446 1.835 . S
C1161 C282 2.786 . S
C1167 C472 2.744 . S
C1187 C488 1.603 . S
C1181 C163 1.677 . S
C1201 C209 1.472 . S
C1207 C470 1.463 . S
C1221 C255 1.064 . S
C1227 C503 1.084 . S
C1247 C479 1.037 . S
C1241 C55 1.065 . S
C1261 C89 0.726 . S
C1267 C497 0.735 . S
C1287 C475 1.592 . S
C1281 C123 1.657 . S
C1307 C510 0.803 . S
C1301 C26 0.780 . S
C1327 C502 1.291 . S
C1321 C289 1.290 . S
C1341 C62 2.140 . S
C1347 C507 2.051 . S
C1361 C83 3.173 . S
C1367 C478 3.123 . S
C1387 C511 1.629 . S
C1381 C122 1.709 . S
C1401 C15 3.237 . S
C1407 C465 3.198 . S
C1421 C203 2.205 . S
C1427 C504 2.147 . S
C1447 C456 2.010 . S
C1441 C262 2.136 . S
C1467 C471 1.633 . S
C1461 C162 1.670 . S
