# Generated by pormake.
# Topology eea, (3,6)-cn, num edge types: 1
# Building blocks:
#     Node 0, Type 0, BuildingBlock: OLANEW_clean_sbu_2, # of connection points: 3
#     Node 1, Type 0, BuildingBlock: OLANEW_clean_sbu_2, # of connection points: 3
#     Node 2, Type 0, BuildingBlock: OLANEW_clean_sbu_2, # of connection points: 3
#     Node 3, Type 0, BuildingBlock: OLANEW_clean_sbu_2, # of connection points: 3
#     Node 4, Type 0, BuildingBlock: OLANEW_clean_sbu_2, # of connection points: 3
#     Node 5, Type 0, BuildingBlock: OLANEW_clean_sbu_2, # of connection points: 3
#     Node 6, Type 0, BuildingBlock: OLANEW_clean_sbu_2, # of connection points: 3
#     Node 7, Type 0, BuildingBlock: OLANEW_clean_sbu_2, # of connection points: 3
#     Node 8, Type 0, BuildingBlock: OLANEW_clean_sbu_2, # of connection points: 3
#     Node 9, Type 0, BuildingBlock: OLANEW_clean_sbu_2, # of connection points: 3
#     Node 10, Type 0, BuildingBlock: OLANEW_clean_sbu_2, # of connection points: 3
#     Node 11, Type 0, BuildingBlock: OLANEW_clean_sbu_2, # of connection points: 3
#     Node 12, Type 0, BuildingBlock: OLANEW_clean_sbu_2, # of connection points: 3
#     Node 13, Type 0, BuildingBlock: OLANEW_clean_sbu_2, # of connection points: 3
#     Node 14, Type 0, BuildingBlock: OLANEW_clean_sbu_2, # of connection points: 3
#     Node 15, Type 0, BuildingBlock: OLANEW_clean_sbu_2, # of connection points: 3
#     Node 16, Type 0, BuildingBlock: OLANEW_clean_sbu_2, # of connection points: 3
#     Node 17, Type 0, BuildingBlock: OLANEW_clean_sbu_2, # of connection points: 3
#     Node 18, Type 1, BuildingBlock: CIFDUS_clean_sbu_1, # of connection points: 6
#     Node 19, Type 1, BuildingBlock: CIFDUS_clean_sbu_1, # of connection points: 6
#     Node 20, Type 1, BuildingBlock: CIFDUS_clean_sbu_1, # of connection points: 6
#     Node 21, Type 1, BuildingBlock: CIFDUS_clean_sbu_1, # of connection points: 6
#     Node 22, Type 1, BuildingBlock: CIFDUS_clean_sbu_1, # of connection points: 6
#     Node 23, Type 1, BuildingBlock: CIFDUS_clean_sbu_1, # of connection points: 6
#     Node 24, Type 1, BuildingBlock: CIFDUS_clean_sbu_1, # of connection points: 6
#     Node 25, Type 1, BuildingBlock: CIFDUS_clean_sbu_1, # of connection points: 6
#     Node 26, Type 1, BuildingBlock: CIFDUS_clean_sbu_1, # of connection points: 6
#     Edge 27, Type (0, 1), BuildingBlock: TEMPAE_clean_linker_10, # of connection points: 2
#     Edge 28, Type (0, 1), BuildingBlock: TEMPAE_clean_linker_10, # of connection points: 2
#     Edge 29, Type (0, 1), BuildingBlock: TEMPAE_clean_linker_10, # of connection points: 2
#     Edge 30, Type (0, 1), BuildingBlock: TEMPAE_clean_linker_10, # of connection points: 2
#     Edge 31, Type (0, 1), BuildingBlock: TEMPAE_clean_linker_10, # of connection points: 2
#     Edge 32, Type (0, 1), BuildingBlock: TEMPAE_clean_linker_10, # of connection points: 2
#     Edge 33, Type (0, 1), BuildingBlock: TEMPAE_clean_linker_10, # of connection points: 2
#     Edge 34, Type (0, 1), BuildingBlock: TEMPAE_clean_linker_10, # of connection points: 2
#     Edge 35, Type (0, 1), BuildingBlock: TEMPAE_clean_linker_10, # of connection points: 2
#     Edge 36, Type (0, 1), BuildingBlock: TEMPAE_clean_linker_10, # of connection points: 2
#     Edge 37, Type (0, 1), BuildingBlock: TEMPAE_clean_linker_10, # of connection points: 2
#     Edge 38, Type (0, 1), BuildingBlock: TEMPAE_clean_linker_10, # of connection points: 2
#     Edge 39, Type (0, 1), BuildingBlock: TEMPAE_clean_linker_10, # of connection points: 2
#     Edge 40, Type (0, 1), BuildingBlock: TEMPAE_clean_linker_10, # of connection points: 2
#     Edge 41, Type (0, 1), BuildingBlock: TEMPAE_clean_linker_10, # of connection points: 2
#     Edge 42, Type (0, 1), BuildingBlock: TEMPAE_clean_linker_10, # of connection points: 2
#     Edge 43, Type (0, 1), BuildingBlock: TEMPAE_clean_linker_10, # of connection points: 2
#     Edge 44, Type (0, 1), BuildingBlock: TEMPAE_clean_linker_10, # of connection points: 2
#     Edge 45, Type (0, 1), BuildingBlock: TEMPAE_clean_linker_10, # of connection points: 2
#     Edge 46, Type (0, 1), BuildingBlock: TEMPAE_clean_linker_10, # of connection points: 2
#     Edge 47, Type (0, 1), BuildingBlock: TEMPAE_clean_linker_10, # of connection points: 2
#     Edge 48, Type (0, 1), BuildingBlock: TEMPAE_clean_linker_10, # of connection points: 2
#     Edge 49, Type (0, 1), BuildingBlock: TEMPAE_clean_linker_10, # of connection points: 2
#     Edge 50, Type (0, 1), BuildingBlock: TEMPAE_clean_linker_10, # of connection points: 2
#     Edge 51, Type (0, 1), BuildingBlock: TEMPAE_clean_linker_10, # of connection points: 2
#     Edge 52, Type (0, 1), BuildingBlock: TEMPAE_clean_linker_10, # of connection points: 2
#     Edge 53, Type (0, 1), BuildingBlock: TEMPAE_clean_linker_10, # of connection points: 2
#     Edge 54, Type (0, 1), BuildingBlock: TEMPAE_clean_linker_10, # of connection points: 2
#     Edge 55, Type (0, 1), BuildingBlock: TEMPAE_clean_linker_10, # of connection points: 2
#     Edge 56, Type (0, 1), BuildingBlock: TEMPAE_clean_linker_10, # of connection points: 2
#     Edge 57, Type (0, 1), BuildingBlock: TEMPAE_clean_linker_10, # of connection points: 2
#     Edge 58, Type (0, 1), BuildingBlock: TEMPAE_clean_linker_10, # of connection points: 2
#     Edge 59, Type (0, 1), BuildingBlock: TEMPAE_clean_linker_10, # of connection points: 2
#     Edge 60, Type (0, 1), BuildingBlock: TEMPAE_clean_linker_10, # of connection points: 2
#     Edge 61, Type (0, 1), BuildingBlock: TEMPAE_clean_linker_10, # of connection points: 2
#     Edge 62, Type (0, 1), BuildingBlock: TEMPAE_clean_linker_10, # of connection points: 2
#     Edge 63, Type (0, 1), BuildingBlock: TEMPAE_clean_linker_10, # of connection points: 2
#     Edge 64, Type (0, 1), BuildingBlock: TEMPAE_clean_linker_10, # of connection points: 2
#     Edge 65, Type (0, 1), BuildingBlock: TEMPAE_clean_linker_10, # of connection points: 2
#     Edge 66, Type (0, 1), BuildingBlock: TEMPAE_clean_linker_10, # of connection points: 2
#     Edge 67, Type (0, 1), BuildingBlock: TEMPAE_clean_linker_10, # of connection points: 2
#     Edge 68, Type (0, 1), BuildingBlock: TEMPAE_clean_linker_10, # of connection points: 2
#     Edge 69, Type (0, 1), BuildingBlock: TEMPAE_clean_linker_10, # of connection points: 2
#     Edge 70, Type (0, 1), BuildingBlock: TEMPAE_clean_linker_10, # of connection points: 2
#     Edge 71, Type (0, 1), BuildingBlock: TEMPAE_clean_linker_10, # of connection points: 2
#     Edge 72, Type (0, 1), BuildingBlock: TEMPAE_clean_linker_10, # of connection points: 2
#     Edge 73, Type (0, 1), BuildingBlock: TEMPAE_clean_linker_10, # of connection points: 2
#     Edge 74, Type (0, 1), BuildingBlock: TEMPAE_clean_linker_10, # of connection points: 2
#     Edge 75, Type (0, 1), BuildingBlock: TEMPAE_clean_linker_10, # of connection points: 2
#     Edge 76, Type (0, 1), BuildingBlock: TEMPAE_clean_linker_10, # of connection points: 2
#     Edge 77, Type (0, 1), BuildingBlock: TEMPAE_clean_linker_10, # of connection points: 2
#     Edge 78, Type (0, 1), BuildingBlock: TEMPAE_clean_linker_10, # of connection points: 2
#     Edge 79, Type (0, 1), BuildingBlock: TEMPAE_clean_linker_10, # of connection points: 2
#     Edge 80, Type (0, 1), BuildingBlock: TEMPAE_clean_linker_10, # of connection points: 2
# Relax obj value: 0.065
# Max RMSD: 0.119
# Mean RMSD: 0.081
data_MOF--net-eea--node1-OLANEW_clean_sbu_2--node2-CIFDUS_clean_sbu_1--edge1-TEMPAE_clean_linker_10
_symmetry_space_group_name_H-M    P1
_symmetry_Int_Tables_number       1
_symmetry_cell_setting            triclinic
loop_
_symmetry_equiv_pos_as_xyz
'x, y, z'
_cell_length_a     63.970054
_cell_length_b     62.600896
_cell_length_c     45.333459
_cell_angle_alpha  94.817083
_cell_angle_beta   90.129518
_cell_angle_gamma 120.39149
loop_
_atom_site_label
_atom_site_type_symbol
_atom_site_fract_x
_atom_site_fract_y
_atom_site_fract_z
_atom_type_partial_charge
O0 O 0.23906 0.12372 0.41012 0.0
Cd1 Cd 0.21764 0.11853 0.363 0.0
O2 O 0.27073 0.12407 0.39067 0.0
Cd3 Cd 0.25064 0.10985 0.34796 0.0
O4 O 0.22588 0.06968 0.3417 0.0
C5 C 0.22997 0.05915 0.36192 0.0
O6 O 0.24788 0.07299 0.3816 0.0
C7 C 0.25984 0.12597 0.41324 0.0
C8 C 0.20642 0.15593 0.36141 0.0
O9 O 0.19297 0.13636 0.37434 0.0
O10 O 0.22507 0.15772 0.34877 0.0
O11 O 0.89077 0.15294 0.38473 0.0
Cd12 Cd 0.8988 0.14291 0.33406 0.0
O13 O 0.89335 0.12003 0.38968 0.0
Cd14 Cd 0.88958 0.08882 0.41154 0.0
O15 O 0.86866 0.04857 0.40548 0.0
C16 C 0.85108 0.0407 0.38649 0.0
O17 O 0.84783 0.05703 0.37387 0.0
C18 C 0.88885 0.13647 0.40084 0.0
C19 C 0.94801 0.16337 0.32514 0.0
O20 O 0.93615 0.17305 0.3155 0.0
O21 O 0.93665 0.14394 0.33903 0.0
O22 O 0.88831 0.74363 0.40245 0.0
Cd23 Cd 0.89832 0.75537 0.35155 0.0
O24 O 0.84921 0.72298 0.39021 0.0
Cd25 Cd 0.85285 0.73717 0.34717 0.0
O26 O 0.8374 0.75742 0.32862 0.0
C27 C 0.81488 0.74781 0.33264 0.0
O28 O 0.80366 0.7266 0.34457 0.0
C29 C 0.86647 0.72982 0.4094 0.0
C30 C 0.94621 0.77094 0.33711 0.0
O31 O 0.94014 0.78659 0.3476 0.0
O32 O 0.9297 0.74786 0.33384 0.0
O33 O 0.15668 0.26747 0.62956 0.0
Cd34 Cd 0.14281 0.24759 0.67552 0.0
O35 O 0.13882 0.28971 0.63315 0.0
Cd36 Cd 0.11993 0.27474 0.67309 0.0
O37 O 0.08429 0.25767 0.69198 0.0
C38 C 0.06834 0.2367 0.6792 0.0
O39 O 0.07494 0.22617 0.65782 0.0
C40 C 0.15212 0.28303 0.61922 0.0
C41 C 0.17083 0.2269 0.68997 0.0
O42 O 0.15303 0.21562 0.67065 0.0
O43 O 0.17519 0.24781 0.70307 0.0
O44 O 0.73431 0.85496 0.64534 0.0
Cd45 Cd 0.75496 0.85853 0.69253 0.0
O46 O 0.77174 0.87675 0.63248 0.0
Cd47 Cd 0.79909 0.90271 0.60509 0.0
O48 O 0.81601 0.94304 0.61049 0.0
C49 C 0.8035 0.95008 0.62568 0.0
O50 O 0.78274 0.93304 0.63509 0.0
C51 C 0.74917 0.86623 0.62587 0.0
C52 C 0.77916 0.83187 0.68827 0.0
O53 O 0.7581 0.82275 0.69889 0.0
O54 O 0.78895 0.85375 0.67969 0.0
O55 O 0.12365 0.88524 0.62024 0.0
Cd56 Cd 0.10893 0.88375 0.6707 0.0
O57 O 0.14504 0.8684 0.63239 0.0
Cd58 Cd 0.14575 0.88303 0.67763 0.0
O59 O 0.1631 0.92352 0.6806 0.0
C60 C 0.18116 0.93371 0.66439 0.0
O61 O 0.1882 0.91968 0.64958 0.0
C62 C 0.13671 0.87585 0.61271 0.0
C63 C 0.06005 0.84873 0.6769 0.0
O64 O 0.06718 0.87191 0.67719 0.0
O65 O 0.07581 0.842 0.67315 0.0
O66 O 0.90446 0.4542 0.74097 0.0
Cd67 Cd 0.89102 0.45345 0.68994 0.0
O68 O 0.94192 0.46566 0.72984 0.0
Cd69 Cd 0.92822 0.44782 0.68523 0.0
O70 O 0.91121 0.40755 0.67486 0.0
C71 C 0.89278 0.39394 0.68923 0.0
O72 O 0.88385 0.40464 0.70703 0.0
C73 C 0.92634 0.46175 0.74916 0.0
C74 C 0.87541 0.48768 0.68575 0.0
O75 O 0.86061 0.46529 0.6913 0.0
O76 O 0.89756 0.49386 0.68202 0.0
O77 O 0.55136 0.48062 0.7201 0.0
Cd78 Cd 0.56044 0.47841 0.66779 0.0
O79 O 0.55907 0.45071 0.72437 0.0
Cd80 Cd 0.55842 0.42081 0.74616 0.0
O81 O 0.53783 0.38057 0.73774 0.0
C82 C 0.52211 0.37362 0.71646 0.0
O83 O 0.52078 0.39071 0.70296 0.0
C84 C 0.55223 0.46521 0.73581 0.0
C85 C 0.61002 0.50492 0.65903 0.0
O86 O 0.59717 0.51534 0.65933 0.0
O87 O 0.59938 0.48173 0.66285 0.0
O88 O 0.55522 0.07472 0.73544 0.0
Cd89 Cd 0.56632 0.08909 0.68595 0.0
O90 O 0.51619 0.05495 0.72302 0.0
Cd91 Cd 0.52033 0.07152 0.68157 0.0
O92 O 0.50349 0.09177 0.66685 0.0
C93 C 0.48095 0.08101 0.67125 0.0
O94 O 0.47057 0.05901 0.68134 0.0
C95 C 0.53333 0.06072 0.74197 0.0
C96 C 0.61447 0.10388 0.67412 0.0
O97 O 0.60875 0.11946 0.68586 0.0
O98 O 0.59741 0.08123 0.66804 0.0
O99 O 0.82641 0.60029 0.96286 0.0
Cd100 Cd 0.818 0.58742 0.01316 0.0
O101 O 0.80028 0.61327 0.96416 0.0
Cd102 Cd 0.78504 0.5985 0.00567 0.0
O103 O 0.74869 0.579 0.022 0.0
C104 C 0.73449 0.58404 0.0086 0.0
O105 O 0.74342 0.60025 0.98883 0.0
C106 C 0.81626 0.61052 0.95065 0.0
C107 C 0.84663 0.56809 0.02974 0.0
O108 O 0.8253 0.55387 0.01758 0.0
O109 O 0.85424 0.59142 0.03447 0.0
O110 O 0.39374 0.17742 0.97047 0.0
Cd111 Cd 0.40954 0.17774 0.01969 0.0
O112 O 0.43104 0.20684 0.96565 0.0
Cd113 Cd 0.46114 0.23655 0.94487 0.0
O114 O 0.48083 0.2769 0.94869 0.0
C115 C 0.47355 0.28574 0.9698 0.0
O116 O 0.45646 0.27019 0.98599 0.0
C117 C 0.40935 0.19349 0.95494 0.0
C118 C 0.43607 0.15357 0.01653 0.0
O119 O 0.4133 0.14194 0.02091 0.0
O120 O 0.44653 0.17695 0.01389 0.0
O121 O 0.78592 0.20968 0.95266 0.0
Cd122 Cd 0.77648 0.2165 0.00395 0.0
O123 O 0.81453 0.20179 0.96455 0.0
Cd124 Cd 0.81708 0.2195 0.00885 0.0
O125 O 0.8357 0.25995 0.01819 0.0
C126 C 0.83692 0.27126 0.99562 0.0
O127 O 0.82615 0.25802 0.97047 0.0
C128 C 0.80124 0.20326 0.94489 0.0
C129 C 0.72876 0.1826 0.01691 0.0
O130 O 0.73396 0.20249 0.00508 0.0
O131 O 0.74612 0.17867 0.02254 0.0
O132 O 0.57666 0.78761 0.07039 0.0
Cd133 Cd 0.55982 0.78648 0.02118 0.0
O134 O 0.6123 0.79477 0.05601 0.0
Cd135 Cd 0.59636 0.77993 0.01135 0.0
O136 O 0.57698 0.7396 0.00115 0.0
C137 C 0.56017 0.72708 0.01818 0.0
O138 O 0.55406 0.73901 0.03829 0.0
C139 C 0.59813 0.79248 0.07666 0.0
C140 C 0.54219 0.81936 0.02059 0.0
O141 O 0.52882 0.79723 0.02796 0.0
O142 O 0.56388 0.82596 0.01348 0.0
O143 O 0.2195 0.81985 0.05887 0.0
Cd144 Cd 0.22866 0.81918 0.00654 0.0
O145 O 0.22668 0.78932 0.06015 0.0
Cd146 Cd 0.22618 0.75878 0.08024 0.0
O147 O 0.20341 0.71867 0.07737 0.0
C148 C 0.18705 0.7106 0.05666 0.0
O149 O 0.18648 0.72665 0.04022 0.0
C150 C 0.21991 0.80343 0.07307 0.0
C151 C 0.27836 0.84285 0.99933 0.0
O152 O 0.26697 0.85484 1.00059 0.0
O153 O 0.26613 0.81934 0.00127 0.0
O154 O 0.21944 0.40673 0.07094 0.0
Cd155 Cd 0.23003 0.41216 0.01904 0.0
O156 O 0.18042 0.3863 0.05811 0.0
Cd157 Cd 0.18424 0.39652 0.01282 0.0
O158 O 0.16654 0.41561 0.99694 0.0
C159 C 0.16262 0.42716 0.0186 0.0
O160 O 0.17072 0.42713 0.04527 0.0
C161 C 0.19746 0.39431 0.07794 0.0
C162 C 0.27976 0.43444 0.01099 0.0
O163 O 0.26907 0.44702 0.00989 0.0
O164 O 0.26708 0.41157 0.01605 0.0
O165 O 0.48936 0.93398 0.29573 0.0
Cd166 Cd 0.47959 0.91751 0.34404 0.0
O167 O 0.47231 0.9568 0.30278 0.0
Cd168 Cd 0.45443 0.94016 0.34256 0.0
O169 O 0.41746 0.92081 0.35756 0.0
C170 C 0.40329 0.92436 0.34171 0.0
O171 O 0.41248 0.93897 0.32034 0.0
C172 C 0.4845 0.94981 0.28687 0.0
C173 C 0.50884 0.8981 0.35798 0.0
O174 O 0.48791 0.88423 0.34467 0.0
O175 O 0.51577 0.92107 0.36503 0.0
O176 O 0.06736 0.52849 0.30629 0.0
Cd177 Cd 0.07684 0.51991 0.35437 0.0
O178 O 0.10626 0.54598 0.29914 0.0
Cd179 Cd 0.13698 0.57104 0.27485 0.0
O180 O 0.15238 0.61113 0.27785 0.0
C181 C 0.14351 0.61861 0.29852 0.0
O182 O 0.12752 0.60216 0.31496 0.0
C183 C 0.08502 0.53989 0.28998 0.0
C184 C 0.10133 0.49363 0.34746 0.0
O185 O 0.0781 0.48239 0.34695 0.0
O186 O 0.11311 0.51747 0.35145 0.0
O187 O 0.45771 0.55207 0.2883 0.0
Cd188 Cd 0.44328 0.55418 0.33853 0.0
O189 O 0.48368 0.54139 0.3028 0.0
Cd190 Cd 0.48019 0.55323 0.34795 0.0
O191 O 0.49632 0.59353 0.35225 0.0
C192 C 0.51551 0.60414 0.33801 0.0
O193 O 0.5237 0.59049 0.32491 0.0
C194 C 0.47348 0.54589 0.28206 0.0
C195 C 0.39571 0.5175 0.34903 0.0
O196 O 0.40031 0.53797 0.33919 0.0
O197 O 0.41356 0.51404 0.35334 0.0
O198 O 0.47147 0.96836 0.0042 0.0
Mn199 Mn 0.50662 0.99879 0.01155 0.0
O200 O 0.45155 0.97354 0.04159 0.0
Mn201 Mn 0.47341 0.00693 0.05185 0.0
O202 O 0.54273 0.02912 0.01743 0.0
O203 O 0.51767 0.9744 0.99935 0.0
Mn204 Mn 0.54024 0.98744 0.97386 0.0
O205 O 0.50502 0.00631 0.96718 0.0
O206 O 0.56543 0.01615 0.99281 0.0
O207 O 0.50828 0.99149 0.05621 0.0
O208 O 0.4935 0.01197 0.08371 0.0
O209 O 0.5369 0.95714 0.97791 0.0
O210 O 0.52577 0.99138 0.94155 0.0
C211 C 0.48238 0.03254 0.0187 0.0
C212 C 0.45284 0.96037 0.01975 0.0
C213 C 0.56336 0.03263 0.0088 0.0
C214 C 0.5205 0.95526 0.99593 0.0
C215 C 0.5123 0.00091 0.94265 0.0
C216 C 0.5051 0.00039 0.0815 0.0
O217 O 0.4955 0.02308 0.02557 0.0
O218 O 0.46439 0.02683 0.0356 0.0
O219 O 0.02924 0.48517 0.01684 0.0
Mn220 Mn 0.00286 0.49525 0.02225 0.0
O221 O 0.02076 0.45644 0.04886 0.0
Mn222 Mn 0.99423 0.45639 0.06525 0.0
O223 O 0.97647 0.50547 0.02697 0.0
O224 O 0.02612 0.52853 0.00794 0.0
Mn225 Mn 0.01193 0.5326 0.97751 0.0
O226 O 0.9876 0.47865 0.9792 0.0
O227 O 0.98422 0.53148 0.99155 0.0
O228 O 0.01714 0.51181 0.06601 0.0
O229 O 0.00044 0.48061 0.09515 0.0
O230 O 0.04163 0.56104 0.98267 0.0
O231 O 0.0069 0.50797 0.94855 0.0
C232 C 0.96214 0.43926 0.03741 0.0
C233 C 0.03331 0.46952 0.02852 0.0
C234 C 0.97148 0.51927 0.01238 0.0
C235 C 0.0444 0.55025 0.00424 0.0
C236 C 0.99237 0.48553 0.95294 0.0
C237 C 0.01255 0.50367 0.09184 0.0
O238 O 0.9799 0.46177 0.03618 0.0
O239 O 0.96439 0.42814 0.05897 0.0
O240 O 0.53954 0.50568 0.01558 0.0
Mn241 Mn 0.50528 0.50099 0.00586 0.0
O242 O 0.56591 0.53744 0.99059 0.0
Mn243 Mn 0.54318 0.54243 0.97223 0.0
O244 O 0.47092 0.49649 0.9962 0.0
O245 O 0.49068 0.46528 0.01388 0.0
Mn246 Mn 0.46456 0.45592 0.03374 0.0
O247 O 0.50331 0.51174 0.05089 0.0
O248 O 0.44322 0.45894 0.00962 0.0
O249 O 0.50616 0.48882 0.96121 0.0
O250 O 0.52833 0.52271 0.9376 0.0
O251 O 0.46782 0.42838 0.02832 0.0
O252 O 0.47488 0.47639 0.06861 0.0
C253 C 0.52739 0.5605 0.99584 0.0
C254 C 0.5611 0.52078 0.00797 0.0
C255 C 0.44889 0.47851 0.9972 0.0
C256 C 0.48662 0.44291 0.01426 0.0
C257 C 0.4905 0.4996 0.07212 0.0
C258 C 0.51424 0.49941 0.93736 0.0
O259 O 0.5205 0.53723 0.99763 0.0
O260 O 0.54491 0.57229 0.97857 0.0
O261 O 0.13661 0.30518 0.34104 0.0
Mn262 Mn 0.17206 0.33641 0.34707 0.0
O263 O 0.11441 0.31279 0.37309 0.0
Mn264 Mn 0.14095 0.34098 0.39032 0.0
O265 O 0.20801 0.36658 0.35075 0.0
O266 O 0.18368 0.31355 0.33076 0.0
Mn267 Mn 0.20135 0.32557 0.30045 0.0
O268 O 0.16747 0.34538 0.30428 0.0
O269 O 0.22697 0.35632 0.31518 0.0
O270 O 0.17759 0.32695 0.38897 0.0
O271 O 0.15695 0.33713 0.42075 0.0
O272 O 0.20159 0.29688 0.30528 0.0
O273 O 0.18078 0.32587 0.27262 0.0
C274 C 0.15229 0.37496 0.37616 0.0
C275 C 0.11617 0.29923 0.35216 0.0
C276 C 0.22695 0.3713 0.33613 0.0
C277 C 0.18832 0.29568 0.32728 0.0
C278 C 0.1698 0.33782 0.27778 0.0
C279 C 0.17154 0.32958 0.41538 0.0
O280 O 0.16054 0.36082 0.36406 0.0
O281 O 0.13698 0.36671 0.39691 0.0
O282 O 0.70002 0.82727 0.34149 0.0
Mn283 Mn 0.67057 0.83154 0.35284 0.0
O284 O 0.70066 0.80305 0.37401 0.0
Mn285 Mn 0.66895 0.79016 0.38408 0.0
O286 O 0.64124 0.83729 0.36221 0.0
O287 O 0.69152 0.86643 0.34319 0.0
Mn288 Mn 0.67527 0.87805 0.32662 0.0
O289 O 0.65746 0.82135 0.30845 0.0
O290 O 0.65519 0.87742 0.35584 0.0
O291 O 0.68282 0.84189 0.39868 0.0
O292 O 0.66703 0.80554 0.41906 0.0
O293 O 0.70762 0.90242 0.32639 0.0
O294 O 0.65966 0.85598 0.2935 0.0
C295 C 0.63939 0.77316 0.35034 0.0
C296 C 0.71049 0.81749 0.35415 0.0
C297 C 0.639 0.85672 0.36408 0.0
C298 C 0.71112 0.88658 0.33885 0.0
C299 C 0.65358 0.83309 0.28908 0.0
C300 C 0.67709 0.8292 0.42162 0.0
O301 O 0.64931 0.79589 0.36221 0.0
O302 O 0.64841 0.76111 0.36162 0.0
O303 O 0.20778 0.84087 0.34809 0.0
Mn304 Mn 0.17247 0.8326 0.33952 0.0
O305 O 0.22421 0.85563 0.30586 0.0
Mn306 Mn 0.19919 0.86075 0.29456 0.0
O307 O 0.13637 0.82395 0.33284 0.0
O308 O 0.16085 0.79956 0.35494 0.0
Mn309 Mn 0.14187 0.79542 0.38414 0.0
O310 O 0.17344 0.85009 0.38189 0.0
O311 O 0.11664 0.79786 0.36781 0.0
O312 O 0.17013 0.81265 0.29791 0.0
O313 O 0.17667 0.83919 0.266 0.0
O314 O 0.14312 0.76657 0.37857 0.0
O315 O 0.16109 0.8204 0.41297 0.0
C316 C 0.19559 0.88928 0.31294 0.0
C317 C 0.22545 0.84862 0.33096 0.0
C318 C 0.11714 0.81058 0.34686 0.0
C319 C 0.15714 0.7776 0.35761 0.0
C320 C 0.17029 0.84306 0.40821 0.0
C321 C 0.16835 0.81712 0.27127 0.0
O322 O 0.18553 0.86807 0.32525 0.0
O323 O 0.20819 0.89168 0.28978 0.0
O324 O 0.8038 0.63557 0.67168 0.0
Mn325 Mn 0.83829 0.66763 0.67917 0.0
O326 O 0.78042 0.64206 0.70418 0.0
Mn327 Mn 0.80348 0.67367 0.7203 0.0
O328 O 0.8724 0.70041 0.6875 0.0
O329 O 0.85311 0.64655 0.6662 0.0
Mn330 Mn 0.87825 0.66476 0.64547 0.0
O331 O 0.83678 0.6757 0.63533 0.0
O332 O 0.90043 0.6919 0.67015 0.0
O333 O 0.84045 0.65904 0.72263 0.0
O334 O 0.82238 0.67489 0.75168 0.0
O335 O 0.87728 0.63517 0.64518 0.0
O336 O 0.86587 0.67112 0.61277 0.0
C337 C 0.81612 0.70453 0.69532 0.0
C338 C 0.78349 0.62856 0.684 0.0
C339 C 0.89459 0.70611 0.68478 0.0
C340 C 0.85849 0.62924 0.66073 0.0
C341 C 0.84848 0.67551 0.61229 0.0
C342 C 0.83549 0.66511 0.74831 0.0
O343 O 0.82306 0.6883 0.69188 0.0
O344 O 0.8004 0.70057 0.71522 0.0
O345 O 0.36286 0.15718 0.6789 0.0
Mn346 Mn 0.33578 0.16573 0.68562 0.0
O347 O 0.36309 0.14277 0.72198 0.0
Mn348 Mn 0.33252 0.13727 0.73114 0.0
O349 O 0.30855 0.17503 0.69232 0.0
O350 O 0.35776 0.19837 0.66946 0.0
Mn351 Mn 0.3417 0.20505 0.64407 0.0
O352 O 0.32081 0.14854 0.64285 0.0
O353 O 0.31856 0.20744 0.66571 0.0
O354 O 0.35258 0.1853 0.72765 0.0
O355 O 0.33084 0.15905 0.75889 0.0
O356 O 0.37314 0.23112 0.64512 0.0
O357 O 0.33058 0.17966 0.61404 0.0
C358 C 0.30075 0.10919 0.71179 0.0
C359 C 0.37246 0.14994 0.69742 0.0
C360 C 0.30545 0.19259 0.68431 0.0
C361 C 0.37681 0.21889 0.66411 0.0
C362 C 0.32161 0.15674 0.61753 0.0
C363 C 0.34551 0.18098 0.75402 0.0
O364 O 0.31247 0.13041 0.69958 0.0
O365 O 0.31053 0.10622 0.73505 0.0
O366 O 0.8786 0.18313 0.67678 0.0
Mn367 Mn 0.84164 0.17003 0.67037 0.0
O368 O 0.89435 0.20358 0.63723 0.0
Mn369 Mn 0.86816 0.20644 0.62565 0.0
O370 O 0.80442 0.15647 0.66543 0.0
O371 O 0.8354 0.13682 0.68487 0.0
Mn372 Mn 0.81977 0.13715 0.71686 0.0
O373 O 0.8418 0.18752 0.71268 0.0
O374 O 0.79128 0.13634 0.70613 0.0
O375 O 0.84088 0.1537 0.62682 0.0
O376 O 0.8481 0.18289 0.59637 0.0
O377 O 0.81925 0.10849 0.71767 0.0
O378 O 0.84112 0.1623 0.74383 0.0
C379 C 0.85852 0.22599 0.65788 0.0
C380 C 0.89652 0.19489 0.66059 0.0
C381 C 0.78755 0.14463 0.68313 0.0
C382 C 0.83143 0.11578 0.69409 0.0
C383 C 0.84437 0.18323 0.73919 0.0
C384 C 0.84074 0.1604 0.6006 0.0
O385 O 0.84746 0.20183 0.65388 0.0
O386 O 0.87311 0.23713 0.63736 0.0
C387 C 0.31817 0.88217 0.99996 0.0
C388 C 0.30499 0.85611 0.99689 0.0
C389 C 0.34353 0.89533 1.00011 0.0
C390 C 0.35614 0.88215 0.99669 0.0
C391 C 0.34293 0.85583 0.99223 0.0
C392 C 0.31745 0.84307 0.99263 0.0
C393 C 0.35686 0.92342 0.00525 0.0
C394 C 0.35568 0.84113 0.98808 0.0
C395 C 0.42157 0.9276 0.98279 0.0
C396 C 0.43116 0.93567 0.01205 0.0
C397 C 0.39751 0.90793 0.97683 0.0
C398 C 0.38307 0.89631 1.00071 0.0
C399 C 0.3938 0.9025 0.0298 0.0
C400 C 0.4177 0.92218 0.0351 0.0
C401 C 0.38683 0.90137 0.94544 0.0
C402 C 0.37929 0.89042 0.05592 0.0
H403 H 0.3087 0.89239 0.0032 0.0
H404 H 0.30734 0.8229 0.99001 0.0
H405 H 0.36795 0.92968 0.02644 0.0
H406 H 0.36942 0.9317 0.98728 0.0
H407 H 0.34432 0.93083 0.00624 0.0
H408 H 0.3429 0.82132 0.98011 0.0
H409 H 0.37014 0.84934 0.97208 0.0
H410 H 0.3645 0.84179 0.0095 0.0
H411 H 0.43203 0.93795 0.96492 0.0
H412 H 0.42534 0.9282 0.05771 0.0
H413 H 0.37573 0.91016 0.94246 0.0
H414 H 0.37471 0.88096 0.94068 0.0
H415 H 0.40116 0.90806 0.92906 0.0
H416 H 0.36711 0.89785 0.0613 0.0
H417 H 0.39117 0.89417 0.07592 0.0
H418 H 0.36776 0.87001 0.05064 0.0
C419 C 0.13762 0.4379 0.98688 0.0
C420 C 0.147 0.43799 0.01493 0.0
C421 C 0.12074 0.4458 0.98397 0.0
C422 C 0.11295 0.45364 0.00971 0.0
C423 C 0.12319 0.45476 0.03792 0.0
C424 C 0.14017 0.44708 0.04014 0.0
C425 C 0.11042 0.4447 0.95354 0.0
C426 C 0.11511 0.46261 0.06601 0.0
C427 C 0.07579 0.48552 0.01259 0.0
C428 C 0.05297 0.46556 0.01804 0.0
C429 C 0.09547 0.48176 0.00772 0.0
C430 C 0.09194 0.45752 0.00804 0.0
C431 C 0.06841 0.43713 0.01114 0.0
C432 C 0.04927 0.44145 0.01626 0.0
C433 C 0.12029 0.5039 0.0043 0.0
C434 C 0.06371 0.41093 0.0114 0.0
H435 H 0.14294 0.43105 0.96728 0.0
H436 H 0.14735 0.44729 0.0619 0.0
H437 H 0.09097 0.43 0.95128 0.0
H438 H 0.11147 0.4626 0.95042 0.0
H439 H 0.12009 0.44061 0.93563 0.0
H440 H 0.1261 0.46416 0.08596 0.0
H441 H 0.11639 0.48081 0.06442 0.0
H442 H 0.09583 0.44878 0.06912 0.0
H443 H 0.07859 0.50418 0.01391 0.0
H444 H 0.03147 0.42597 0.01999 0.0
H445 H 0.12948 0.4996 0.98601 0.0
H446 H 0.13167 0.50841 0.02495 0.0
H447 H 0.11937 0.52061 0.99989 0.0
H448 H 0.07196 0.40618 0.99237 0.0
H449 H 0.04401 0.39691 0.01052 0.0
H450 H 0.0722 0.40953 0.03197 0.0
C451 C 0.56014 0.68789 0.00196 0.0
C452 C 0.54957 0.69985 0.01788 0.0
C453 C 0.55144 0.66246 0.00338 0.0
C454 C 0.53148 0.64856 0.02088 0.0
C455 C 0.52052 0.66045 0.03666 0.0
C456 C 0.52976 0.68599 0.03507 0.0
C457 C 0.56386 0.65056 0.9864 0.0
C458 C 0.49924 0.64627 0.05545 0.0
C459 C 0.5034 0.58058 0.99456 0.0
C460 C 0.51736 0.57431 0.0117 0.0
C461 C 0.50574 0.60415 0.99938 0.0
C462 C 0.52225 0.62154 0.0221 0.0
C463 C 0.5334 0.61377 0.0423 0.0
C464 C 0.53075 0.59008 0.03684 0.0
C465 C 0.49327 0.61151 0.9775 0.0
C466 C 0.55086 0.63152 0.06713 0.0
H467 H 0.57559 0.6985 0.98887 0.0
H468 H 0.52153 0.69513 0.04751 0.0
H469 H 0.57089 0.64256 0.0019 0.0
H470 H 0.55064 0.63506 0.97041 0.0
H471 H 0.57922 0.664 0.97401 0.0
H472 H 0.4924 0.65813 0.06581 0.0
H473 H 0.48421 0.63029 0.04175 0.0
H474 H 0.50458 0.63857 0.07324 0.0
H475 H 0.49331 0.5685 0.97485 0.0
H476 H 0.54182 0.58535 0.04986 0.0
H477 H 0.50644 0.62263 0.96125 0.0
H478 H 0.48667 0.62322 0.98883 0.0
H479 H 0.47772 0.59497 0.96513 0.0
H480 H 0.56877 0.64359 0.05803 0.0
H481 H 0.55341 0.62141 0.08449 0.0
H482 H 0.5445 0.64376 0.07752 0.0
C483 C 0.85465 0.31038 0.97049 0.0
C484 C 0.85222 0.29865 0.99641 0.0
C485 C 0.8709 0.33596 0.96987 0.0
C486 C 0.88512 0.35013 0.99576 0.0
C487 C 0.88203 0.33859 0.02234 0.0
C488 C 0.86558 0.31299 0.02234 0.0
C489 C 0.87354 0.3475 0.94118 0.0
C490 C 0.8969 0.35304 0.0505 0.0
C491 C 0.94814 0.40575 0.99797 0.0
C492 C 0.94437 0.42385 0.01317 0.0
C493 C 0.92857 0.38183 0.98941 0.0
C494 C 0.90472 0.3765 0.99498 0.0
C495 C 0.90075 0.39607 0.00542 0.0
C496 C 0.92077 0.41958 0.01493 0.0
C497 C 0.93378 0.36155 0.97872 0.0
C498 C 0.87554 0.39142 0.01025 0.0
H499 H 0.84433 0.29945 0.95032 0.0
H500 H 0.86374 0.3041 0.04246 0.0
H501 H 0.87454 0.36573 0.94515 0.0
H502 H 0.89067 0.35087 0.93128 0.0
H503 H 0.85828 0.33525 0.92483 0.0
H504 H 0.89143 0.34161 0.06958 0.0
H505 H 0.91639 0.3599 0.04713 0.0
H506 H 0.89501 0.36954 0.05626 0.0
H507 H 0.96649 0.40905 0.99694 0.0
H508 H 0.91787 0.43353 0.02689 0.0
H509 H 0.92087 0.3491 0.96022 0.0
H510 H 0.93151 0.35002 0.99711 0.0
H511 H 0.95257 0.36926 0.97128 0.0
H512 H 0.86246 0.37799 0.99241 0.0
H513 H 0.87508 0.40897 0.01112 0.0
H514 H 0.86948 0.38334 0.03163 0.0
C515 C 0.69352 0.5784 0.99968 0.0
C516 C 0.70821 0.5712 0.01368 0.0
C517 C 0.66844 0.56603 0.00296 0.0
C518 C 0.65768 0.54588 0.02071 0.0
C519 C 0.67238 0.53857 0.0351 0.0
C520 C 0.69755 0.55137 0.03147 0.0
C521 C 0.65346 0.57452 0.9872 0.0
C522 C 0.66149 0.51711 0.05403 0.0
C523 C 0.5968 0.53603 0.04219 0.0
C524 C 0.58189 0.51923 0.01856 0.0
C525 C 0.62132 0.5429 0.04527 0.0
C526 C 0.63099 0.53288 0.0239 0.0
C527 C 0.61526 0.51387 0.00191 0.0
C528 C 0.59081 0.50731 0.99946 0.0
C529 C 0.63742 0.5631 0.06913 0.0
C530 C 0.62475 0.50267 0.97868 0.0
H531 H 0.70159 0.59372 0.98594 0.0
H532 H 0.70881 0.54565 0.04225 0.0
H533 H 0.6396 0.55901 0.97175 0.0
H534 H 0.6437 0.58 0.00351 0.0
H535 H 0.66469 0.59056 0.97435 0.0
H536 H 0.67547 0.5141 0.06428 0.0
H537 H 0.65138 0.5205 0.07188 0.0
H538 H 0.64829 0.49979 0.04037 0.0
H539 H 0.58993 0.54559 0.05655 0.0
H540 H 0.5793 0.49468 0.98082 0.0
H541 H 0.64788 0.58099 0.0592 0.0
H542 H 0.65065 0.55894 0.07909 0.0
H543 H 0.62671 0.56554 0.08697 0.0
H544 H 0.63373 0.51595 0.9618 0.0
H545 H 0.60991 0.48497 0.96726 0.0
H546 H 0.63845 0.49913 0.98859 0.0
C547 C 0.43778 0.11484 0.01856 0.0
C548 C 0.44964 0.14014 0.01422 0.0
C549 C 0.44994 0.10148 0.01608 0.0
C550 C 0.47461 0.1136 0.00868 0.0
C551 C 0.48679 0.13921 0.00437 0.0
C552 C 0.47415 0.15222 0.00727 0.0
C553 C 0.43625 0.07429 0.0215 0.0
C554 C 0.5129 0.15272 0.99601 0.0
C555 C 0.50232 0.07704 0.03292 0.0
C556 C 0.49327 0.05785 0.00968 0.0
C557 C 0.49852 0.09717 0.03207 0.0
C558 C 0.48724 0.09906 0.00631 0.0
C559 C 0.48276 0.08242 0.98069 0.0
C560 C 0.48505 0.06141 0.98295 0.0
C561 C 0.50273 0.11369 0.06038 0.0
C562 C 0.47245 0.08497 0.95215 0.0
H563 H 0.41888 0.10536 0.02398 0.0
H564 H 0.48342 0.17178 0.00378 0.0
H565 H 0.43454 0.06263 1.00079 0.0
H566 H 0.4463 0.07067 0.03847 0.0
H567 H 0.41771 0.06819 0.02906 0.0
H568 H 0.52065 0.17318 0.99735 0.0
H569 H 0.5243 0.1488 0.0105 0.0
H570 H 0.51402 0.146 0.97296 0.0
H571 H 0.50844 0.07411 0.05375 0.0
H572 H 0.47792 0.04658 0.965 0.0
H573 H 0.48513 0.1074 0.07086 0.0
H574 H 0.51005 0.13331 0.05599 0.0
H575 H 0.51536 0.11285 0.07647 0.0
H576 H 0.45292 0.07862 0.95418 0.0
H577 H 0.47417 0.07366 0.93314 0.0
H578 H 0.4818 0.10475 0.94744 0.0
C579 C 0.68403 0.16557 0.01019 0.0
C580 C 0.70334 0.1642 0.02274 0.0
C581 C 0.65986 0.1466 0.01244 0.0
C582 C 0.65488 0.1259 0.02788 0.0
C583 C 0.6742 0.12542 0.04253 0.0
C584 C 0.69821 0.14447 0.03959 0.0
C585 C 0.63988 0.14774 0.99618 0.0
C586 C 0.66969 0.10381 0.05942 0.0
C587 C 0.58938 0.07486 0.03809 0.0
C588 C 0.58598 0.05723 0.01448 0.0
C589 C 0.61169 0.0976 0.04285 0.0
C590 C 0.63067 0.10271 0.02336 0.0
C591 C 0.62692 0.08522 0.99912 0.0
C592 C 0.60481 0.0629 0.99507 0.0
C593 C 0.61516 0.11592 0.06892 0.0
C594 C 0.64639 0.08987 0.97743 0.0
H595 H 0.68782 0.18084 0.99729 0.0
H596 H 0.713 0.14346 0.04974 0.0
H597 H 0.63332 0.13409 0.9762 0.0
H598 H 0.62423 0.14265 0.01033 0.0
H599 H 0.64616 0.1665 0.98902 0.0
H600 H 0.68591 0.10799 0.07327 0.0
H601 H 0.65422 0.09878 0.07389 0.0
H602 H 0.66485 0.08731 0.04353 0.0
H603 H 0.5749 0.07072 0.05306 0.0
H604 H 0.6023 0.04976 0.97629 0.0
H605 H 0.6213 0.13452 0.06142 0.0
H606 H 0.62957 0.118 0.08459 0.0
H607 H 0.59826 0.10996 0.08094 0.0
H608 H 0.6522 0.10753 0.96752 0.0
H609 H 0.64019 0.07464 0.95918 0.0
H610 H 0.66256 0.09174 0.98916 0.0
C611 C 0.88715 0.57441 0.04484 0.0
C612 C 0.86264 0.55814 0.03605 0.0
C613 C 0.90345 0.56571 0.04621 0.0
C614 C 0.895 0.54011 0.03876 0.0
C615 C 0.86992 0.52331 0.03241 0.0
C616 C 0.85403 0.53254 0.03098 0.0
C617 C 0.93005 0.58427 0.05314 0.0
C618 C 0.86014 0.49584 0.02482 0.0
C619 C 0.93962 0.52811 0.99702 0.0
C620 C 0.95006 0.52158 0.0192 0.0
C621 C 0.92119 0.53336 0.00304 0.0
C622 C 0.91278 0.53195 0.03205 0.0
C623 C 0.92231 0.52414 0.0543 0.0
C624 C 0.94091 0.51897 0.04758 0.0
C625 C 0.91142 0.54138 0.97852 0.0
C626 C 0.91362 0.52223 0.08539 0.0
H627 H 0.89392 0.59419 0.04911 0.0
H628 H 0.83505 0.51978 0.02461 0.0
H629 H 0.93787 0.57733 0.06905 0.0
H630 H 0.94002 0.58683 0.0325 0.0
H631 H 0.93319 0.60269 0.06253 0.0
H632 H 0.84005 0.48483 0.02552 0.0
H633 H 0.86515 0.49266 0.00214 0.0
H634 H 0.86819 0.48881 0.04028 0.0
H635 H 0.94624 0.52965 0.97484 0.0
H636 H 0.94888 0.51386 0.06477 0.0
H637 H 0.91559 0.56076 0.98437 0.0
H638 H 0.8914 0.52937 0.97577 0.0
H639 H 0.91926 0.54054 0.95691 0.0
H640 H 0.92061 0.54119 0.09667 0.0
H641 H 0.91995 0.51225 0.09867 0.0
H642 H 0.89352 0.51249 0.08502 0.0
C643 C 0.50245 0.32989 0.95995 0.0
C644 C 0.48266 0.31273 0.97495 0.0
C645 C 0.51008 0.35536 0.96351 0.0
C646 C 0.49735 0.36368 0.98207 0.0
C647 C 0.47781 0.34649 0.99792 0.0
C648 C 0.47085 0.32129 0.99431 0.0
C649 C 0.53134 0.37327 0.94693 0.0
C650 C 0.4636 0.35451 0.01788 0.0
C651 C 0.51544 0.42819 0.01519 0.0
C652 C 0.49985 0.43257 0.99842 0.0
C653 C 0.51736 0.40702 0.00791 0.0
C654 C 0.50298 0.3899 0.98364 0.0
C655 C 0.48987 0.39618 0.96439 0.0
C656 C 0.48875 0.41774 0.97189 0.0
C657 C 0.53209 0.40141 0.02857 0.0
C658 C 0.47403 0.37839 0.93848 0.0
H659 H 0.51181 0.32339 0.94519 0.0
H660 H 0.4556 0.30817 0.00607 0.0
H661 H 0.52502 0.38086 0.93004 0.0
H662 H 0.54461 0.38925 0.96237 0.0
H663 H 0.54071 0.36427 0.93563 0.0
H664 H 0.44932 0.33889 0.02917 0.0
H665 H 0.47595 0.36941 0.03505 0.0
H666 H 0.4548 0.36224 0.00469 0.0
H667 H 0.52375 0.43953 0.03596 0.0
H668 H 0.47639 0.42101 0.95923 0.0
H669 H 0.54046 0.39181 0.01623 0.0
H670 H 0.52003 0.38892 0.04473 0.0
H671 H 0.5466 0.41866 0.04119 0.0
H672 H 0.48345 0.36999 0.92606 0.0
H673 H 0.46853 0.38771 0.92297 0.0
H674 H 0.45736 0.36303 0.94689 0.0
C675 C 0.16907 0.66644 0.06842 0.0
C676 C 0.16821 0.68397 0.05188 0.0
C677 C 0.1506 0.64131 0.06477 0.0
C678 C 0.13081 0.63367 0.0443 0.0
C679 C 0.13011 0.65123 0.02716 0.0
C680 C 0.14884 0.67613 0.03111 0.0
C681 C 0.15207 0.62299 0.08301 0.0
C682 C 0.10933 0.64385 0.00498 0.0
C683 C 0.08828 0.56873 0.0091 0.0
C684 C 0.06684 0.56348 0.02279 0.0
C685 C 0.11018 0.59062 0.01789 0.0
C686 C 0.11041 0.60749 0.04091 0.0
C687 C 0.08939 0.60068 0.05715 0.0
C688 C 0.06772 0.57861 0.04782 0.0
C689 C 0.1321 0.59706 0.99997 0.0
C690 C 0.08889 0.61815 0.08183 0.0
H691 H 0.18408 0.67238 0.08438 0.0
H692 H 0.14807 0.68954 0.01818 0.0
H693 H 0.13649 0.61505 0.09754 0.0
H694 H 0.15086 0.60729 0.06826 0.0
H695 H 0.16917 0.63169 0.09706 0.0
H696 H 0.11181 0.65971 0.99303 0.0
H697 H 0.10746 0.62883 0.98842 0.0
H698 H 0.09207 0.63648 0.01648 0.0
H699 H 0.08737 0.55718 0.98933 0.0
H700 H 0.05095 0.57477 0.05791 0.0
H701 H 0.149 0.60644 0.01438 0.0
H702 H 0.13369 0.61008 0.98376 0.0
H703 H 0.13062 0.58026 0.98748 0.0
H704 H 0.10561 0.62668 0.09649 0.0
H705 H 0.07288 0.60849 0.09544 0.0
H706 H 0.08808 0.63344 0.07215 0.0
C707 C 0.31698 0.46304 0.98549 0.0
C708 C 0.30595 0.44579 0.00639 0.0
C709 C 0.34157 0.47256 0.97959 0.0
C710 C 0.3555 0.46525 0.99572 0.0
C711 C 0.34456 0.44857 0.01769 0.0
C712 C 0.31982 0.43871 0.02236 0.0
C713 C 0.35238 0.48969 0.95545 0.0
C714 C 0.35888 0.44073 0.03594 0.0
C715 C 0.40955 0.46145 0.96972 0.0
C716 C 0.42834 0.48108 0.9878 0.0
C717 C 0.38598 0.45761 0.96967 0.0
C718 C 0.38108 0.47351 0.9887 0.0
C719 C 0.40054 0.49484 0.00472 0.0
C720 C 0.4241 0.49848 0.0039 0.0
C721 C 0.36591 0.43491 0.95181 0.0
C722 C 0.39614 0.51217 0.02542 0.0
H723 H 0.30615 0.46835 0.97297 0.0
H724 H 0.31131 0.42552 0.0387 0.0
H725 H 0.36891 0.50719 0.96425 0.0
H726 H 0.35798 0.48073 0.93752 0.0
H727 H 0.3394 0.49436 0.94572 0.0
H728 H 0.34814 0.42912 0.05357 0.0
H729 H 0.36489 0.42992 0.02139 0.0
H730 H 0.37541 0.45737 0.0465 0.0
H731 H 0.41285 0.44786 0.95755 0.0
H732 H 0.43858 0.51338 0.01834 0.0
H733 H 0.3531 0.43936 0.94122 0.0
H734 H 0.35549 0.42025 0.96674 0.0
H735 H 0.37312 0.42723 0.93433 0.0
H736 H 0.38294 0.51623 0.01514 0.0
H737 H 0.41321 0.53 0.03189 0.0
H738 H 0.3883 0.5031 0.04583 0.0
C739 C 0.54597 0.85911 0.00723 0.0
C740 C 0.53292 0.83682 0.02041 0.0
C741 C 0.53762 0.87596 0.00708 0.0
C742 C 0.51581 0.8706 0.02083 0.0
C743 C 0.50246 0.84808 0.03402 0.0
C744 C 0.5111 0.83137 0.0335 0.0
C745 C 0.55219 0.89953 0.99212 0.0
C746 C 0.47919 0.84174 0.04882 0.0
C747 C 0.51721 0.93128 0.03723 0.0
C748 C 0.50713 0.93231 0.01037 0.0
C749 C 0.51753 0.90972 0.04292 0.0
C750 C 0.50744 0.88895 0.02119 0.0
C751 C 0.4937 0.88865 0.99646 0.0
C752 C 0.49354 0.9104 0.99152 0.0
C753 C 0.53177 0.91064 0.07003 0.0
C754 C 0.48239 0.86696 0.97278 0.0
H755 H 0.56272 0.86337 0.99684 0.0
H756 H 0.50089 0.81417 0.04372 0.0
H757 H 0.54076 0.90052 0.97445 0.0
H758 H 0.55812 0.91603 0.00844 0.0
H759 H 0.56852 0.90072 0.98206 0.0
H760 H 0.47104 0.82357 0.05832 0.0
H761 H 0.48264 0.85646 0.06682 0.0
H762 H 0.46579 0.84106 0.03262 0.0
H763 H 0.52786 0.9483 0.05173 0.0
H764 H 0.48584 0.91128 0.97062 0.0
H765 H 0.55029 0.91532 0.06382 0.0
H766 H 0.52314 0.89234 0.07919 0.0
H767 H 0.5335 0.92503 0.08758 0.0
H768 H 0.49652 0.86845 0.95752 0.0
H769 H 0.46772 0.86689 0.95952 0.0
H770 H 0.47487 0.84896 0.98244 0.0
C771 C 0.98937 0.17761 0.34638 0.0
C772 C 0.97445 0.17566 0.32244 0.0
C773 C 0.01454 0.19401 0.347 0.0
C774 C 0.02493 0.20817 0.32271 0.0
C775 C 0.01018 0.20368 0.29694 0.0
C776 C 0.98497 0.18789 0.29737 0.0
C777 C 0.02944 0.19837 0.37509 0.0
C778 C 0.02065 0.21747 0.27006 0.0
C779 C 0.07144 0.2755 0.34514 0.0
C780 C 0.0935 0.27623 0.34103 0.0
C781 C 0.04923 0.25358 0.33864 0.0
C782 C 0.04885 0.23162 0.32733 0.0
C783 C 0.071 0.23232 0.32178 0.0
C784 C 0.09321 0.25474 0.32875 0.0
C785 C 0.02614 0.25388 0.3449 0.0
C786 C 0.07128 0.20932 0.30947 0.0
H787 H 0.98118 0.16802 0.36572 0.0
H788 H 0.97341 0.18594 0.27858 0.0
H789 H 0.04717 0.20018 0.37 0.0
H790 H 0.03313 0.21605 0.3876 0.0
H791 H 0.01987 0.18311 0.38958 0.0
H792 H 0.00832 0.20796 0.25 0.0
H793 H 0.02346 0.2365 0.27407 0.0
H794 H 0.03852 0.2193 0.26573 0.0
H795 H 0.07151 0.29214 0.35416 0.0
H796 H 0.11022 0.2552 0.3256 0.0
H797 H 0.0157 0.24036 0.36103 0.0
H798 H 0.01451 0.24823 0.32425 0.0
H799 H 0.02972 0.27252 0.35403 0.0
H800 H 0.06654 0.19644 0.32694 0.0
H801 H 0.08939 0.21382 0.30172 0.0
H802 H 0.05754 0.19931 0.2908 0.0
C803 C 0.81484 0.78618 0.32036 0.0
C804 C 0.80218 0.76163 0.32808 0.0
C805 C 0.80343 0.80034 0.31978 0.0
C806 C 0.7789 0.78971 0.32722 0.0
C807 C 0.76578 0.76457 0.33369 0.0
C808 C 0.77755 0.75086 0.33392 0.0
C809 C 0.81793 0.82699 0.3126 0.0
C810 C 0.7396 0.75248 0.34194 0.0
C811 C 0.75084 0.82373 0.36599 0.0
C812 C 0.73349 0.82019 0.34425 0.0
C813 C 0.76777 0.81628 0.35983 0.0
C814 C 0.76725 0.80508 0.33117 0.0
C815 C 0.75184 0.80451 0.3082 0.0
C816 C 0.73502 0.81214 0.31504 0.0
C817 C 0.78389 0.8174 0.38502 0.0
C818 C 0.75108 0.79313 0.27726 0.0
H819 H 0.83388 0.79463 0.31577 0.0
H820 H 0.76759 0.73187 0.33973 0.0
H821 H 0.80742 0.831 0.29674 0.0
H822 H 0.82179 0.83965 0.33311 0.0
H823 H 0.83547 0.8313 0.30307 0.0
H824 H 0.73164 0.7324 0.34473 0.0
H825 H 0.7383 0.76199 0.36304 0.0
H826 H 0.72847 0.75434 0.32467 0.0
H827 H 0.74959 0.83003 0.38861 0.0
H828 H 0.72147 0.80926 0.2983 0.0
H829 H 0.80246 0.82345 0.37779 0.0
H830 H 0.77638 0.79854 0.39249 0.0
H831 H 0.78511 0.83026 0.40427 0.0
H832 H 0.76964 0.7986 0.27039 0.0
H833 H 0.74223 0.79872 0.26091 0.0
H834 H 0.74061 0.77255 0.27678 0.0
C835 C 0.2241 0.0211 0.38281 0.0
C836 C 0.21679 0.03182 0.36212 0.0
C837 C 0.21512 0.99544 0.38034 0.0
C838 C 0.19831 0.98014 0.35674 0.0
C839 C 0.18864 0.99046 0.33808 0.0
C840 C 0.19821 0.01631 0.34077 0.0
C841 C 0.22593 0.98529 0.40077 0.0
C842 C 0.17014 0.97462 0.31321 0.0
C843 C 0.21304 0.93474 0.31655 0.0
C844 C 0.19556 0.91178 0.32585 0.0
C845 C 0.21386 0.95679 0.32649 0.0
C846 C 0.19665 0.95616 0.34642 0.0
C847 C 0.17894 0.93317 0.3563 0.0
C848 C 0.17874 0.9111 0.34607 0.0
C849 C 0.23331 0.98083 0.31549 0.0
C850 C 0.16041 0.93186 0.37769 0.0
H851 H 0.23807 0.03289 0.39987 0.0
H852 H 0.19204 0.02442 0.32517 0.0
H853 H 0.21176 0.96709 0.40753 0.0
H854 H 0.23955 0.98233 0.3889 0.0
H855 H 0.2351 0.99828 0.42098 0.0
H856 H 0.16054 0.98388 0.30531 0.0
H857 H 0.17942 0.97123 0.29431 0.0
H858 H 0.15658 0.95628 0.32037 0.0
H859 H 0.22645 0.93567 0.30132 0.0
H860 H 0.16528 0.89345 0.35343 0.0
H861 H 0.24457 0.99426 0.33449 0.0
H862 H 0.22482 0.98946 0.30343 0.0
H863 H 0.24551 0.978 0.30034 0.0
H864 H 0.16902 0.93825 0.40042 0.0
H865 H 0.14482 0.91258 0.37777 0.0
H866 H 0.15351 0.94422 0.37223 0.0
C867 C 0.5532 0.64327 0.32928 0.0
C868 C 0.52875 0.63129 0.3361 0.0
C869 C 0.56668 0.66909 0.32846 0.0
C870 C 0.55522 0.68332 0.33363 0.0
C871 C 0.53012 0.67113 0.33881 0.0
C872 C 0.51723 0.64523 0.34046 0.0
C873 C 0.59349 0.68114 0.32328 0.0
C874 C 0.51688 0.68537 0.34225 0.0
C875 C 0.60015 0.74673 0.36986 0.0
C876 C 0.61291 0.75799 0.34521 0.0
C877 C 0.57989 0.72271 0.36651 0.0
C878 C 0.57054 0.71095 0.33761 0.0
C879 C 0.5804 0.72462 0.31279 0.0
C880 C 0.60233 0.74765 0.31673 0.0
C881 C 0.57132 0.70864 0.39367 0.0
C882 C 0.56939 0.7139 0.28187 0.0
H883 H 0.56211 0.63252 0.32557 0.0
H884 H 0.49811 0.63588 0.34491 0.0
H885 H 0.59738 0.68995 0.30223 0.0
H886 H 0.60424 0.69596 0.34141 0.0
H887 H 0.59986 0.66756 0.32196 0.0
H888 H 0.49772 0.67341 0.34794 0.0
H889 H 0.52609 0.70126 0.3596 0.0
H890 H 0.51711 0.69327 0.32115 0.0
H891 H 0.6085 0.75487 0.39189 0.0
H892 H 0.61201 0.75642 0.29759 0.0
H893 H 0.57634 0.69402 0.39269 0.0
H894 H 0.55133 0.69922 0.39452 0.0
H895 H 0.57956 0.72096 0.41458 0.0
H896 H 0.57851 0.70447 0.27109 0.0
H897 H 0.57204 0.72892 0.2682 0.0
H898 H 0.54968 0.70016 0.28206 0.0
C899 C 0.36616 0.89464 0.36721 0.0
C900 C 0.37683 0.91153 0.3458 0.0
C901 C 0.34085 0.88168 0.36988 0.0
C902 C 0.32599 0.88577 0.35069 0.0
C903 C 0.33677 0.90316 0.32948 0.0
C904 C 0.36197 0.91577 0.32731 0.0
C905 C 0.32999 0.86332 0.39277 0.0
C906 C 0.32163 0.90826 0.30868 0.0
C907 C 0.26028 0.84173 0.32643 0.0
C908 C 0.24916 0.85328 0.3418 0.0
C909 C 0.28506 0.85043 0.3317 0.0
C910 C 0.29909 0.87181 0.35189 0.0
C911 C 0.28746 0.88238 0.369 0.0
C912 C 0.26247 0.87275 0.36394 0.0
C913 C 0.29659 0.83814 0.31365 0.0
C914 C 0.30175 0.90544 0.39031 0.0
H915 H 0.37754 0.89129 0.38161 0.0
H916 H 0.37 0.92883 0.31076 0.0
H917 H 0.31836 0.86771 0.40708 0.0
H918 H 0.31823 0.84432 0.38154 0.0
H919 H 0.3441 0.86324 0.40703 0.0
H920 H 0.33292 0.923 0.2942 0.0
H921 H 0.30916 0.89102 0.29437 0.0
H922 H 0.3103 0.91407 0.32154 0.0
H923 H 0.24985 0.82669 0.30925 0.0
H924 H 0.25379 0.88183 0.37551 0.0
H925 H 0.30991 0.83653 0.32758 0.0
H926 H 0.30649 0.84971 0.29562 0.0
H927 H 0.28283 0.81931 0.30346 0.0
H928 H 0.31531 0.904 0.40395 0.0
H929 H 0.2898 0.90888 0.40526 0.0
H930 H 0.31181 0.92181 0.37755 0.0
C931 C 0.13951 0.49153 0.34722 0.0
C932 C 0.11408 0.47938 0.34453 0.0
C933 C 0.15154 0.47795 0.3471 0.0
C934 C 0.1378 0.45161 0.34473 0.0
C935 C 0.11219 0.4393 0.34045 0.0
C936 C 0.1007 0.45333 0.34021 0.0
C937 C 0.17886 0.49193 0.35108 0.0
C938 C 0.09664 0.41126 0.3385 0.0
C939 C 0.15833 0.40409 0.33766 0.0
C940 C 0.15835 0.39957 0.36739 0.0
C941 C 0.15439 0.42323 0.32991 0.0
C942 C 0.14923 0.43697 0.35227 0.0
C943 C 0.15154 0.43385 0.38238 0.0
C944 C 0.15709 0.41594 0.38948 0.0
C945 C 0.15401 0.42756 0.29777 0.0
C946 C 0.14553 0.44735 0.40712 0.0
H947 H 0.15004 0.51169 0.3503 0.0
H948 H 0.08107 0.44378 0.3378 0.0
H949 H 0.18426 0.49434 0.37493 0.0
H950 H 0.18665 0.48164 0.33895 0.0
H951 H 0.18693 0.51076 0.34333 0.0
H952 H 0.07716 0.40459 0.33354 0.0
H953 H 0.10283 0.40256 0.32103 0.0
H954 H 0.09837 0.40468 0.35985 0.0
H955 H 0.15944 0.39161 0.3205 0.0
H956 H 0.15762 0.41279 0.41258 0.0
H957 H 0.16404 0.44781 0.29531 0.0
H958 H 0.13505 0.41994 0.28927 0.0
H959 H 0.16216 0.41846 0.28394 0.0
H960 H 0.15825 0.46766 0.40789 0.0
H961 H 0.14655 0.44135 0.42919 0.0
H962 H 0.12692 0.44398 0.40312 0.0
C963 C 0.3654 0.47561 0.36472 0.0
C964 C 0.37045 0.49823 0.35455 0.0
C965 C 0.34136 0.4564 0.36729 0.0
C966 C 0.3219 0.45983 0.35936 0.0
C967 C 0.32694 0.48324 0.35112 0.0
C968 C 0.35112 0.50213 0.34879 0.0
C969 C 0.33679 0.43185 0.37657 0.0
C970 C 0.30677 0.48777 0.3427 0.0
C971 C 0.26716 0.40321 0.32048 0.0
C972 C 0.25024 0.39513 0.34263 0.0
C973 C 0.29026 0.42421 0.32579 0.0
C974 C 0.29688 0.43788 0.35404 0.0
C975 C 0.27975 0.4304 0.37643 0.0
C976 C 0.25651 0.40904 0.37045 0.0
C977 C 0.30776 0.43149 0.30111 0.0
C978 C 0.28618 0.44447 0.40686 0.0
H979 H 0.3802 0.47254 0.36971 0.0
H980 H 0.35481 0.51967 0.34138 0.0
H981 H 0.32259 0.42494 0.39306 0.0
H982 H 0.3301 0.4178 0.35699 0.0
H983 H 0.35349 0.4333 0.38623 0.0
H984 H 0.31348 0.50782 0.34109 0.0
H985 H 0.29817 0.47737 0.32089 0.0
H986 H 0.29251 0.48087 0.35911 0.0
H987 H 0.26243 0.39288 0.29873 0.0
H988 H 0.24359 0.40287 0.38771 0.0
H989 H 0.32406 0.43081 0.30795 0.0
H990 H 0.31391 0.45086 0.29644 0.0
H991 H 0.29958 0.41908 0.28026 0.0
H992 H 0.29935 0.4412 0.41869 0.0
H993 H 0.27 0.43854 0.42033 0.0
H994 H 0.29503 0.46479 0.40523 0.0
C995 C 0.51682 0.86276 0.35731 0.0
C996 C 0.52497 0.88817 0.36385 0.0
C997 C 0.53258 0.85352 0.36037 0.0
C998 C 0.55713 0.87012 0.3699 0.0
C999 C 0.56522 0.89562 0.37762 0.0
C1000 C 0.54901 0.9043 0.37466 0.0
C1001 C 0.52326 0.82622 0.35206 0.0
C1002 C 0.59138 0.91407 0.38729 0.0
C1003 C 0.60266 0.85111 0.39147 0.0
C1004 C 0.61481 0.85397 0.3652 0.0
C1005 C 0.58257 0.85466 0.39293 0.0
C1006 C 0.57517 0.86178 0.36779 0.0
C1007 C 0.5867 0.86324 0.34084 0.0
C1008 C 0.60613 0.85901 0.33985 0.0
C1009 C 0.5702 0.85223 0.42175 0.0
C1010 C 0.57986 0.87122 0.31361 0.0
H1011 H 0.49823 0.85014 0.3491 0.0
H1012 H 0.55547 0.92394 0.37981 0.0
H1013 H 0.53125 0.82382 0.33124 0.0
H1014 H 0.52886 0.81845 0.36952 0.0
H1015 H 0.50318 0.81529 0.34867 0.0
H1016 H 0.59432 0.93282 0.39467 0.0
H1017 H 0.59733 0.90745 0.40569 0.0
H1018 H 0.60312 0.91581 0.36858 0.0
H1019 H 0.60955 0.84742 0.4111 0.0
H1020 H 0.61569 0.86126 0.31954 0.0
H1021 H 0.55019 0.84152 0.41772 0.0
H1022 H 0.57521 0.87099 0.43219 0.0
H1023 H 0.57547 0.84293 0.43756 0.0
H1024 H 0.56007 0.85974 0.3082 0.0
H1025 H 0.58954 0.86977 0.29391 0.0
H1026 H 0.58439 0.89085 0.318 0.0
C1027 C 0.16693 0.66287 0.28612 0.0
C1028 C 0.1501 0.645 0.30355 0.0
C1029 C 0.17256 0.68777 0.29035 0.0
C1030 C 0.16103 0.69485 0.31242 0.0
C1031 C 0.14423 0.67691 0.33029 0.0
C1032 C 0.13903 0.65226 0.32566 0.0
C1033 C 0.19068 0.70646 0.27112 0.0
C1034 C 0.13149 0.68365 0.35413 0.0
C1035 C 0.18277 0.75918 0.34985 0.0
C1036 C 0.16569 0.76419 0.338 0.0
C1037 C 0.18329 0.73772 0.33945 0.0
C1038 C 0.16603 0.72086 0.31699 0.0
C1039 C 0.15059 0.72738 0.30274 0.0
C1040 C 0.15068 0.74914 0.31342 0.0
C1041 C 0.20023 0.73167 0.35509 0.0
C1042 C 0.13181 0.70989 0.27885 0.0
H1043 H 0.17559 0.6574 0.26903 0.0
H1044 H 0.12603 0.63861 0.33928 0.0
H1045 H 0.18181 0.71426 0.2582 0.0
H1046 H 0.20563 0.72221 0.2852 0.0
H1047 H 0.19856 0.69814 0.25547 0.0
H1048 H 0.11906 0.66751 0.36619 0.0
H1049 H 0.14503 0.69857 0.37042 0.0
H1050 H 0.1208 0.69095 0.34413 0.0
H1051 H 0.19403 0.77064 0.36928 0.0
H1052 H 0.13711 0.75281 0.30475 0.0
H1053 H 0.20758 0.723 0.33918 0.0
H1054 H 0.19009 0.71816 0.37135 0.0
H1055 H 0.21561 0.74854 0.36725 0.0
H1056 H 0.13951 0.7016 0.26295 0.0
H1057 H 0.12445 0.71945 0.26647 0.0
H1058 H 0.11654 0.69442 0.28918 0.0
C1059 C 0.83941 0.99613 0.38824 0.0
C1060 C 0.83401 0.0138 0.3793 0.0
C1061 C 0.82279 0.97054 0.38225 0.0
C1062 C 0.80015 0.96259 0.36758 0.0
C1063 C 0.79487 0.98039 0.35791 0.0
C1064 C 0.81196 0.00576 0.36369 0.0
C1065 C 0.82924 0.95203 0.39197 0.0
C1066 C 0.77082 0.97273 0.34232 0.0
C1067 C 0.75351 0.9008 0.32951 0.0
C1068 C 0.73538 0.89378 0.35002 0.0
C1069 C 0.7766 0.9217 0.33646 0.0
C1070 C 0.78099 0.9359 0.36415 0.0
C1071 C 0.76385 0.92646 0.38628 0.0
C1072 C 0.74141 0.90481 0.37913 0.0
C1073 C 0.79477 0.93055 0.31266 0.0
C1074 C 0.76734 0.94136 0.41569 0.0
H1075 H 0.8566 0.00229 0.39998 0.0
H1076 H 0.80771 0.01932 0.35663 0.0
H1077 H 0.81707 0.94155 0.40935 0.0
H1078 H 0.8265 0.93828 0.37304 0.0
H1079 H 0.84832 0.96116 0.40091 0.0
H1080 H 0.76965 0.98896 0.33631 0.0
H1081 H 0.76798 0.96046 0.32177 0.0
H1082 H 0.75575 0.96201 0.35679 0.0
H1083 H 0.74872 0.8921 0.3069 0.0
H1084 H 0.72717 0.89933 0.39476 0.0
H1085 H 0.81364 0.9399 0.32234 0.0
H1086 H 0.79282 0.94419 0.30058 0.0
H1087 H 0.79174 0.91485 0.29634 0.0
H1088 H 0.7858 0.94866 0.42574 0.0
H1089 H 0.7538 0.93015 0.43153 0.0
H1090 H 0.76526 0.95754 0.41218 0.0
C1091 C 0.97871 0.76167 0.32212 0.0
C1092 C 0.97169 0.7792 0.33006 0.0
C1093 C 0.00324 0.76908 0.31895 0.0
C1094 C 0.02119 0.79464 0.32375 0.0
C1095 C 0.014 0.81254 0.32925 0.0
C1096 C 0.98936 0.80461 0.33253 0.0
C1097 C 0.01007 0.74937 0.3128 0.0
C1098 C 0.03248 0.83999 0.3338 0.0
C1099 C 0.07847 0.80619 0.36343 0.0
C1100 C 0.09415 0.81002 0.34028 0.0
C1101 C 0.05512 0.80205 0.3583 0.0
C1102 C 0.04707 0.80194 0.32918 0.0
C1103 C 0.06325 0.80732 0.30585 0.0
C1104 C 0.08674 0.81131 0.31167 0.0
C1105 C 0.03871 0.79667 0.38401 0.0
C1106 C 0.05548 0.80778 0.27459 0.0
H1107 H 0.96517 0.74201 0.3197 0.0
H1108 H 0.98407 0.81834 0.33808 0.0
H1109 H 0.02346 0.75452 0.29536 0.0
H1110 H 0.01869 0.74789 0.3332 0.0
H1111 H 0.99405 0.73082 0.30568 0.0
H1112 H 0.02395 0.85157 0.33249 0.0
H1113 H 0.0419 0.84446 0.35598 0.0
H1114 H 0.04644 0.84516 0.31704 0.0
H1115 H 0.08428 0.80578 0.38577 0.0
H1116 H 0.09882 0.81437 0.29372 0.0
H1117 H 0.02285 0.77751 0.38008 0.0
H1118 H 0.03169 0.80967 0.38598 0.0
H1119 H 0.04811 0.79834 0.40545 0.0
H1120 H 0.0439 0.78841 0.26434 0.0
H1121 H 0.0713 0.81748 0.26072 0.0
H1122 H 0.04458 0.81703 0.27437 0.0
C1123 C 0.1874 0.17928 0.38416 0.0
C1124 C 0.20071 0.17602 0.3615 0.0
C1125 C 0.18228 0.19864 0.38494 0.0
C1126 C 0.19015 0.21468 0.3621 0.0
C1127 C 0.20336 0.21125 0.33893 0.0
C1128 C 0.20873 0.19213 0.33912 0.0
C1129 C 0.16866 0.20208 0.41026 0.0
C1130 C 0.21181 0.22776 0.31389 0.0
C1131 C 0.16327 0.2525 0.33858 0.0
C1132 C 0.18227 0.27659 0.34747 0.0
C1133 C 0.16427 0.23169 0.34594 0.0
C1134 C 0.18494 0.23531 0.3622 0.0
C1135 C 0.20265 0.25957 0.37426 0.0
C1136 C 0.20099 0.27998 0.36684 0.0
C1137 C 0.14477 0.20614 0.33305 0.0
C1138 C 0.22496 0.26434 0.39175 0.0
H1139 H 0.18138 0.16696 0.40165 0.0
H1140 H 0.21893 0.18957 0.3215 0.0
H1141 H 0.17966 0.22104 0.42191 0.0
H1142 H 0.15159 0.20037 0.40161 0.0
H1143 H 0.16414 0.18826 0.42656 0.0
H1144 H 0.22145 0.22229 0.29731 0.0
H1145 H 0.19605 0.22695 0.30242 0.0
H1146 H 0.2242 0.24738 0.32282 0.0
H1147 H 0.14906 0.24996 0.32308 0.0
H1148 H 0.21594 0.29869 0.37315 0.0
H1149 H 0.14033 0.19219 0.3491 0.0
H1150 H 0.15142 0.20037 0.31309 0.0
H1151 H 0.12792 0.20592 0.32641 0.0
H1152 H 0.22028 0.25018 0.4076 0.0
H1153 H 0.23436 0.28313 0.40419 0.0
H1154 H 0.23783 0.26309 0.3763 0.0
C1155 C 0.65048 0.50805 0.6529 0.0
C1156 C 0.63655 0.51962 0.65573 0.0
C1157 C 0.67592 0.52222 0.65245 0.0
C1158 C 0.68765 0.54853 0.65545 0.0
C1159 C 0.67355 0.56018 0.65684 0.0
C1160 C 0.64822 0.54559 0.65676 0.0
C1161 C 0.69022 0.50905 0.65025 0.0
C1162 C 0.68525 0.58819 0.66027 0.0
C1163 C 0.74741 0.59054 0.69769 0.0
C1164 C 0.76206 0.60388 0.67529 0.0
C1165 C 0.72372 0.57077 0.69115 0.0
C1166 C 0.7144 0.56417 0.66138 0.0
C1167 C 0.72995 0.57586 0.63834 0.0
C1168 C 0.75377 0.59574 0.64558 0.0
C1169 C 0.70795 0.55875 0.71647 0.0
C1170 C 0.7208 0.56883 0.60629 0.0
H1171 H 0.64156 0.48794 0.65172 0.0
H1172 H 0.6376 0.55468 0.65874 0.0
H1173 H 0.70546 0.5181 0.63541 0.0
H1174 H 0.69813 0.51012 0.6725 0.0
H1175 H 0.67864 0.48911 0.6419 0.0
H1176 H 0.67173 0.59427 0.65891 0.0
H1177 H 0.69542 0.59575 0.68208 0.0
H1178 H 0.69842 0.59647 0.64289 0.0
H1179 H 0.75399 0.59669 0.72067 0.0
H1180 H 0.76511 0.60607 0.62824 0.0
H1181 H 0.69789 0.5382 0.71193 0.0
H1182 H 0.69436 0.56474 0.71892 0.0
H1183 H 0.71869 0.56391 0.73784 0.0
H1184 H 0.70963 0.54831 0.60152 0.0
H1185 H 0.73593 0.57613 0.59102 0.0
H1186 H 0.70906 0.57661 0.60167 0.0
C1187 C 0.44221 0.08132 0.67311 0.0
C1188 C 0.46718 0.09401 0.66884 0.0
C1189 C 0.42918 0.0938 0.67455 0.0
C1190 C 0.4414 0.11965 0.6716 0.0
C1191 C 0.46639 0.13241 0.66597 0.0
C1192 C 0.47903 0.11941 0.66465 0.0
C1193 C 0.40251 0.07947 0.68056 0.0
C1194 C 0.48001 0.15996 0.66272 0.0
C1195 C 0.39712 0.14189 0.66023 0.0
C1196 C 0.39371 0.1477 0.6897 0.0
C1197 C 0.41414 0.13452 0.65356 0.0
C1198 C 0.42812 0.13328 0.67692 0.0
C1199 C 0.42638 0.14155 0.70635 0.0
C1200 C 0.40908 0.14851 0.7124 0.0
C1201 C 0.41567 0.12609 0.62188 0.0
C1202 C 0.44128 0.14102 0.73187 0.0
H1203 H 0.43288 0.06167 0.6762 0.0
H1204 H 0.49835 0.12936 0.66137 0.0
H1205 H 0.39951 0.08654 0.70246 0.0
H1206 H 0.39178 0.08221 0.66361 0.0
H1207 H 0.39544 0.0592 0.68058 0.0
H1208 H 0.49838 0.16636 0.6544 0.0
H1209 H 0.46976 0.1647 0.64739 0.0
H1210 H 0.48205 0.17042 0.68457 0.0
H1211 H 0.38535 0.14139 0.6426 0.0
H1212 H 0.40681 0.15352 0.73516 0.0
H1213 H 0.40644 0.10547 0.61901 0.0
H1214 H 0.43485 0.13345 0.61631 0.0
H1215 H 0.40687 0.13208 0.60598 0.0
H1216 H 0.43425 0.12145 0.73643 0.0
H1217 H 0.44054 0.15156 0.75243 0.0
H1218 H 0.46051 0.14891 0.72628 0.0
C1219 C 0.89591 0.35605 0.67596 0.0
C1220 C 0.88279 0.36672 0.68816 0.0
C1221 C 0.88718 0.33048 0.67611 0.0
C1222 C 0.86465 0.31511 0.68857 0.0
C1223 C 0.85136 0.32579 0.70099 0.0
C1224 C 0.86062 0.35147 0.70069 0.0
C1225 C 0.90204 0.31991 0.66272 0.0
C1226 C 0.82742 0.31011 0.71463 0.0
C1227 C 0.83695 0.24847 0.65567 0.0
C1228 C 0.8486 0.24007 0.67368 0.0
C1229 C 0.84052 0.27248 0.66137 0.0
C1230 C 0.85468 0.2877 0.68688 0.0
C1231 C 0.86272 0.27748 0.70786 0.0
C1232 C 0.86006 0.25387 0.70068 0.0
C1233 C 0.83223 0.28267 0.63781 0.0
C1234 C 0.87666 0.29254 0.73619 0.0
H1235 H 0.91321 0.36775 0.66659 0.0
H1236 H 0.85041 0.35961 0.71028 0.0
H1237 H 0.90695 0.31123 0.67973 0.0
H1238 H 0.89121 0.30514 0.6446 0.0
H1239 H 0.91903 0.33432 0.65368 0.0
H1240 H 0.81946 0.32131 0.7237 0.0
H1241 H 0.81426 0.2954 0.69785 0.0
H1242 H 0.82992 0.30062 0.73274 0.0
H1243 H 0.82837 0.2379 0.63457 0.0
H1244 H 0.86926 0.24754 0.71458 0.0
H1245 H 0.84811 0.29527 0.62548 0.0
H1246 H 0.82444 0.2937 0.6478 0.0
H1247 H 0.81853 0.26764 0.62169 0.0
H1248 H 0.89592 0.30514 0.7315 0.0
H1249 H 0.8761 0.28036 0.75301 0.0
H1250 H 0.86933 0.30421 0.74562 0.0
C1251 C 0.21953 0.97271 0.65685 0.0
C1252 C 0.19497 0.96094 0.66319 0.0
C1253 C 0.2338 0.99872 0.65872 0.0
C1254 C 0.22306 0.01333 0.66629 0.0
C1255 C 0.1977 0.00141 0.66967 0.0
C1256 C 0.184 0.9753 0.66872 0.0
C1257 C 0.26077 0.01052 0.65517 0.0
C1258 C 0.18535 0.01632 0.67568 0.0
C1259 C 0.26408 0.06932 0.71896 0.0
C1260 C 0.27734 0.08752 0.69975 0.0
C1261 C 0.24558 0.04554 0.70836 0.0
C1262 C 0.23906 0.03996 0.67768 0.0
C1263 C 0.25034 0.05911 0.65844 0.0
C1264 C 0.26979 0.08272 0.66964 0.0
C1265 C 0.23462 0.02584 0.72987 0.0
C1266 C 0.24294 0.05441 0.62588 0.0
H1267 H 0.22799 0.96163 0.65213 0.0
H1268 H 0.1648 0.96617 0.6727 0.0
H1269 H 0.2667 0.02433 0.63869 0.0
H1270 H 0.27071 0.02055 0.67659 0.0
H1271 H 0.26606 0.99658 0.64791 0.0
H1272 H 0.16525 0.00435 0.67423 0.0
H1273 H 0.19105 0.02649 0.69814 0.0
H1274 H 0.19085 0.03043 0.65958 0.0
H1275 H 0.2693 0.0731 0.74243 0.0
H1276 H 0.27973 0.09678 0.65467 0.0
H1277 H 0.23829 0.01062 0.72322 0.0
H1278 H 0.21467 0.01757 0.7296 0.0
H1279 H 0.24201 0.03334 0.75301 0.0
H1280 H 0.25395 0.0479 0.61355 0.0
H1281 H 0.24624 0.07177 0.6169 0.0
H1282 H 0.2235 0.03997 0.62165 0.0
C1283 C 0.03471 0.23899 0.70487 0.0
C1284 C 0.04225 0.22638 0.68456 0.0
C1285 C 0.01007 0.23176 0.70622 0.0
C1286 C 0.99267 0.21157 0.68666 0.0
C1287 C -1e-05 0.19762 0.6678 0.0
C1288 C 0.02467 0.20514 0.66706 0.0
C1289 C 0.00297 0.24695 0.72689 0.0
C1290 C 0.98208 0.17607 0.64645 0.0
C1291 C 0.92467 0.18675 0.69064 0.0
C1292 C 0.92099 0.19941 0.66892 0.0
C1293 C 0.94802 0.19078 0.69725 0.0
C1294 C 0.96799 0.20791 0.6819 0.0
C1295 C 0.96437 0.22107 0.6605 0.0
C1296 C 0.94104 0.21667 0.65433 0.0
C1297 C 0.9513 0.1765 0.72024 0.0
C1298 C 0.98511 0.23953 0.64357 0.0
H1299 H 0.04813 0.25527 0.71872 0.0
H1300 H 0.03027 0.19511 0.65149 0.0
H1301 H 0.99885 0.25876 0.71391 0.0
H1302 H 0.98636 0.23465 0.73828 0.0
H1303 H 0.01769 0.25926 0.74385 0.0
H1304 H 0.98992 0.16501 0.63649 0.0
H1305 H 0.96548 0.16356 0.65772 0.0
H1306 H 0.97652 0.18327 0.62829 0.0
H1307 H 0.90931 0.17343 0.70206 0.0
H1308 H 0.93855 0.22682 0.63776 0.0
H1309 H 0.96498 0.18961 0.73776 0.0
H1310 H 0.95829 0.16479 0.70991 0.0
H1311 H 0.93409 0.16432 0.73075 0.0
H1312 H 0.99957 0.25421 0.6592 0.0
H1313 H 0.97927 0.24863 0.62813 0.0
H1314 H 0.99321 0.22997 0.63052 0.0
C1315 C 0.80871 0.82167 0.6642 0.0
C1316 C 0.79148 0.81726 0.68555 0.0
C1317 C 0.81895 0.80641 0.65995 0.0
C1318 C 0.81199 0.78656 0.67776 0.0
C1319 C 0.79554 0.78294 0.70038 0.0
C1320 C 0.78531 0.79815 0.70376 0.0
C1321 C 0.83635 0.81089 0.63563 0.0
C1322 C 0.7881 0.76247 0.72053 0.0
C1323 C 0.80688 0.72464 0.65783 0.0
C1324 C 0.82396 0.72603 0.67841 0.0
C1325 C 0.80469 0.7455 0.65439 0.0
C1326 C 0.82012 0.76818 0.67186 0.0
C1327 C 0.83992 0.77057 0.6889 0.0
C1328 C 0.84156 0.74931 0.69204 0.0
C1329 C 0.78356 0.74215 0.63555 0.0
C1330 C 0.85725 0.79455 0.70722 0.0
H1331 H 0.81353 0.83647 0.65007 0.0
H1332 H 0.7723 0.79495 0.72059 0.0
H1333 H 0.85191 0.80923 0.64326 0.0
H1334 H 0.82687 0.79658 0.61663 0.0
H1335 H 0.84338 0.82952 0.62766 0.0
H1336 H 0.77629 0.76312 0.73809 0.0
H1337 H 0.77814 0.74407 0.70732 0.0
H1338 H 0.8044 0.7639 0.73134 0.0
H1339 H 0.79309 0.70654 0.64755 0.0
H1340 H 0.85463 0.75033 0.70823 0.0
H1341 H 0.78895 0.75865 0.62333 0.0
H1342 H 0.76883 0.74007 0.65009 0.0
H1343 H 0.77622 0.72534 0.61938 0.0
H1344 H 0.86117 0.81094 0.69549 0.0
H1345 H 0.87461 0.79541 0.71276 0.0
H1346 H 0.84892 0.79575 0.72828 0.0
C1347 C 0.02121 0.8359 0.70186 0.0
C1348 C 0.03446 0.83026 0.68127 0.0
C1349 C 0.9972 0.81803 0.70724 0.0
C1350 C 0.98595 0.79435 0.69077 0.0
C1351 C 0.99916 0.78886 0.66939 0.0
C1352 C 0.02341 0.80672 0.66535 0.0
C1353 C 0.98412 0.82424 0.73102 0.0
C1354 C 0.98769 0.76408 0.65076 0.0
C1355 C 0.93365 0.7342 0.71288 0.0
C1356 C 0.91463 0.73131 0.69445 0.0
C1357 C 0.95651 0.756 0.71434 0.0
C1358 C 0.96059 0.77486 0.696 0.0
C1359 C 0.94083 0.77283 0.67921 0.0
C1360 C 0.91793 0.75111 0.67894 0.0
C1361 C 0.97682 0.75774 0.73335 0.0
C1362 C 0.94438 0.79221 0.65895 0.0
H1363 H 0.02991 0.85405 0.71445 0.0
H1364 H 0.03365 0.80241 0.64935 0.0
H1365 H 0.96702 0.82194 0.72154 0.0
H1366 H 0.9791 0.81117 0.74832 0.0
H1367 H 0.99535 0.84357 0.7417 0.0
H1368 H 0.99988 0.76339 0.63378 0.0
H1369 H 0.98298 0.74895 0.66516 0.0
H1370 H 0.97059 0.76026 0.63938 0.0
H1371 H 0.9311 0.71871 0.72463 0.0
H1372 H 0.90329 0.74861 0.66424 0.0
H1373 H 0.98823 0.77682 0.74451 0.0
H1374 H 0.98863 0.7535 0.71917 0.0
H1375 H 0.9698 0.74435 0.75044 0.0
H1376 H 0.95593 0.81125 0.6701 0.0
H1377 H 0.92682 0.79002 0.6513 0.0
H1378 H 0.95379 0.79038 0.6392 0.0
C1379 C 0.19948 0.22211 0.72276 0.0
C1380 C 0.18701 0.21703 0.69525 0.0
C1381 C 0.21672 0.21486 0.72683 0.0
C1382 C 0.22233 0.20328 0.70244 0.0
C1383 C 0.20909 0.19731 0.67493 0.0
C1384 C 0.19128 0.20386 0.67186 0.0
C1385 C 0.2298 0.22073 0.75678 0.0
C1386 C 0.21503 0.18581 0.64802 0.0
C1387 C 0.287 0.21893 0.69337 0.0
C1388 C 0.28535 0.19585 0.69529 0.0
C1389 C 0.26689 0.22183 0.69715 0.0
C1390 C 0.24453 0.20129 0.70389 0.0
C1391 C 0.24322 0.17853 0.70861 0.0
C1392 C 0.26369 0.17598 0.70405 0.0
C1393 C 0.26921 0.24642 0.69161 0.0
C1394 C 0.21991 0.15656 0.71696 0.0
H1395 H 0.19599 0.23207 0.74098 0.0
H1396 H 0.18175 0.20003 0.65052 0.0
H1397 H 0.23188 0.20497 0.76241 0.0
H1398 H 0.24825 0.23721 0.75633 0.0
H1399 H 0.22008 0.22488 0.77456 0.0
H1400 H 0.20193 0.18072 0.62891 0.0
H1401 H 0.23347 0.1992 0.64125 0.0
H1402 H 0.21515 0.16889 0.65325 0.0
H1403 H 0.30385 0.23458 0.68731 0.0
H1404 H 0.26234 0.15817 0.7058 0.0
H1405 H 0.26305 0.25362 0.71076 0.0
H1406 H 0.25746 0.24374 0.67195 0.0
H1407 H 0.28815 0.26078 0.68762 0.0
H1408 H 0.21183 0.16247 0.7352 0.0
H1409 H 0.22273 0.14158 0.72398 0.0
H1410 H 0.20659 0.14878 0.69772 0.0
C1411 C 0.83575 0.99523 0.62819 0.0
C1412 C 0.81192 0.97678 0.63304 0.0
C1413 C 0.8438 0.02056 0.6357 0.0
C1414 C 0.82755 0.02754 0.64801 0.0
C1415 C 0.8035 0.00894 0.65302 0.0
C1416 C 0.79603 0.98383 0.64554 0.0
C1417 C 0.86972 0.03984 0.63082 0.0
C1418 C 0.78568 0.0155 0.66664 0.0
C1419 C 0.84606 0.08658 0.69709 0.0
C1420 C 0.83895 0.09918 0.67905 0.0
C1421 C 0.84434 0.06408 0.68655 0.0
C1422 C 0.83564 0.05412 0.657 0.0
C1423 C 0.83119 0.06827 0.63767 0.0
C1424 C 0.8328 0.09074 0.649 0.0
C1425 C 0.84909 0.04972 0.70817 0.0
C1426 C 0.8224 0.05846 0.60584 0.0
H1427 H 0.8482 0.98987 0.61885 0.0
H1428 H 0.77761 0.9697 0.64947 0.0
H1429 H 0.87007 0.05308 0.61576 0.0
H1430 H 0.87901 0.05077 0.65214 0.0
H1431 H 0.88012 0.03137 0.62119 0.0
H1432 H 0.76759 0.99881 0.66879 0.0
H1433 H 0.79277 0.02558 0.68898 0.0
H1434 H 0.78335 0.02807 0.65289 0.0
H1435 H 0.85084 0.09319 0.72039 0.0
H1436 H 0.82708 0.10034 0.63512 0.0
H1437 H 0.85859 0.04059 0.6977 0.0
H1438 H 0.83151 0.03489 0.71545 0.0
H1439 H 0.86007 0.06187 0.72817 0.0
H1440 H 0.83297 0.05049 0.59546 0.0
H1441 H 0.82375 0.07321 0.59257 0.0
H1442 H 0.80312 0.04331 0.60507 0.0
C1443 C 0.48317 0.34028 0.6914 0.0
C1444 C 0.50425 0.34701 0.7085 0.0
C1445 C 0.46487 0.31533 0.68566 0.0
C1446 C 0.46789 0.29655 0.69692 0.0
C1447 C 0.48973 0.3031 0.71273 0.0
C1448 C 0.5076 0.32834 0.71866 0.0
C1449 C 0.44192 0.3092 0.66845 0.0
C1450 C 0.49396 0.28349 0.72391 0.0
C1451 C 0.40595 0.24183 0.70633 0.0
C1452 C 0.40108 0.22923 0.67797 0.0
C1453 C 0.42897 0.26257 0.71434 0.0
C1454 C 0.44732 0.27043 0.69348 0.0
C1455 C 0.44335 0.25539 0.66658 0.0
C1456 C 0.42012 0.23494 0.65909 0.0
C1457 C 0.43246 0.27806 0.74328 0.0
C1458 C 0.4624 0.2627 0.64385 0.0
H1459 H 0.48052 0.3546 0.68331 0.0
H1460 H 0.52407 0.33347 0.73147 0.0
H1461 H 0.43857 0.29582 0.64885 0.0
H1462 H 0.42616 0.30023 0.68258 0.0
H1463 H 0.44273 0.32596 0.6607 0.0
H1464 H 0.51281 0.29142 0.73315 0.0
H1465 H 0.48123 0.27438 0.74146 0.0
H1466 H 0.49026 0.26883 0.70571 0.0
H1467 H 0.39106 0.23757 0.7207 0.0
H1468 H 0.41617 0.22524 0.63699 0.0
H1469 H 0.43123 0.29459 0.7389 0.0
H1470 H 0.45065 0.28487 0.75393 0.0
H1471 H 0.41842 0.26744 0.75899 0.0
H1472 H 0.46142 0.27599 0.62999 0.0
H1473 H 0.45937 0.24625 0.62895 0.0
H1474 H 0.48093 0.27193 0.65451 0.0
C1475 C 0.65861 0.13642 0.67592 0.0
C1476 C 0.64013 0.11162 0.66884 0.0
C1477 C 0.68316 0.14352 0.67392 0.0
C1478 C 0.6894 0.12536 0.66473 0.0
C1479 C 0.67079 0.10062 0.6558 0.0
C1480 C 0.64639 0.09404 0.65796 0.0
C1481 C 0.70241 0.17013 0.68343 0.0
C1482 C 0.67664 0.0807 0.64575 0.0
C1483 C 0.75522 0.14443 0.65064 0.0
C1484 C 0.76279 0.14055 0.67777 0.0
C1485 C 0.7314 0.1398 0.64595 0.0
C1486 C 0.71495 0.13122 0.66896 0.0
C1487 C 0.72271 0.12778 0.69647 0.0
C1488 C 0.74639 0.13244 0.70049 0.0
C1489 C 0.72374 0.14374 0.61636 0.0
C1490 C 0.7059 0.11891 0.72175 0.0
H1491 H 0.65396 0.15021 0.684 0.0
H1492 H 0.63224 0.07489 0.65212 0.0
H1493 H 0.71117 0.17105 0.70503 0.0
H1494 H 0.71677 0.17721 0.66716 0.0
H1495 H 0.69477 0.18262 0.68594 0.0
H1496 H 0.66038 0.06329 0.63603 0.0
H1497 H 0.6907 0.08737 0.62908 0.0
H1498 H 0.68409 0.07631 0.66496 0.0
H1499 H 0.76775 0.15076 0.63299 0.0
H1500 H 0.75205 0.12971 0.72172 0.0
H1501 H 0.71612 0.15618 0.61948 0.0
H1502 H 0.7092 0.12569 0.60534 0.0
H1503 H 0.73905 0.15192 0.60141 0.0
H1504 H 0.69907 0.13178 0.72755 0.0
H1505 H 0.71492 0.11762 0.74194 0.0
H1506 H 0.68993 0.10029 0.71492 0.0
C1507 C 0.88348 0.53007 0.67676 0.0
C1508 C 0.86724 0.50595 0.68402 0.0
C1509 C 0.87615 0.54766 0.67529 0.0
C1510 C 0.85199 0.54107 0.68142 0.0
C1511 C 0.83548 0.51674 0.68867 0.0
C1512 C 0.84328 0.49945 0.68983 0.0
C1513 C 0.89429 0.5733 0.66695 0.0
C1514 C 0.8096 0.509 0.69519 0.0
C1515 C 0.84962 0.59994 0.69831 0.0
C1516 C 0.84498 0.60394 0.66974 0.0
C1517 C 0.8492 0.57786 0.7034 0.0
C1518 C 0.84424 0.55973 0.67924 0.0
C1519 C 0.83627 0.56236 0.65134 0.0
C1520 C 0.8366 0.58444 0.64703 0.0
C1521 C 0.85708 0.57549 0.73373 0.0
C1522 C 0.83076 0.54365 0.62488 0.0
H1523 H 0.90198 0.53526 0.67212 0.0
H1524 H 0.83059 0.48083 0.69541 0.0
H1525 H 0.88744 0.57714 0.64673 0.0
H1526 H 0.89669 0.5876 0.68499 0.0
H1527 H 0.91231 0.57541 0.6627 0.0
H1528 H 0.79908 0.48948 0.70086 0.0
H1529 H 0.80933 0.52146 0.71391 0.0
H1530 H 0.80036 0.51089 0.6757 0.0
H1531 H 0.85641 0.61516 0.71579 0.0
H1532 H 0.83329 0.58772 0.62482 0.0
H1533 H 0.8765 0.5809 0.73388 0.0
H1534 H 0.84652 0.55599 0.73937 0.0
H1535 H 0.85498 0.58778 0.75111 0.0
H1536 H 0.84808 0.54684 0.61572 0.0
H1537 H 0.81995 0.54547 0.60709 0.0
H1538 H 0.82077 0.52434 0.63116 0.0
C1539 C 0.48423 0.97447 0.24629 0.0
C1540 C 0.49157 0.95883 0.25723 0.0
C1541 C 0.48887 0.98139 0.21731 0.0
C1542 C 0.5013 0.97259 0.19884 0.0
C1543 C 0.50944 0.95747 0.21001 0.0
C1544 C 0.50444 0.95072 0.23905 0.0
C1545 C 0.47969 0.99739 0.20615 0.0
C1546 C 0.52288 0.94789 0.19101 0.0
C1547 C 0.48868 0.96836 0.11619 0.0
C1548 C 0.50793 0.99106 0.10887 0.0
C1549 C 0.48662 0.9618 0.14529 0.0
C1550 C 0.50462 0.97816 0.16737 0.0
C1551 C 0.52489 0.00048 0.15961 0.0
C1552 C 0.52607 0.00692 0.13044 0.0
C1553 C 0.46431 0.93825 0.15276 0.0
C1554 C 0.5446 0.01818 0.18245 0.0
H1555 H 0.47428 0.98085 0.26013 0.0
H1556 H 0.51023 0.93868 0.24728 0.0
H1557 H 0.49476 0.01409 0.19743 0.0
H1558 H 0.46598 0.9868 0.18759 0.0
H1559 H 0.47128 0.00358 0.22372 0.0
H1560 H 0.52931 0.93762 0.20354 0.0
H1561 H 0.51083 0.93525 0.17196 0.0
H1562 H 0.53873 0.9636 0.1818 0.0
H1563 H 0.47426 0.95657 0.09956 0.0
H1564 H 0.54055 0.02479 0.1248 0.0
H1565 H 0.45336 0.94307 0.16785 0.0
H1566 H 0.46956 0.92671 0.16455 0.0
H1567 H 0.45271 0.92692 0.13272 0.0
H1568 H 0.5373 0.02687 0.19842 0.0
H1569 H 0.5604 0.0332 0.17222 0.0
H1570 H 0.55093 0.00797 0.19523 0.0
C1571 C 0.06966 0.55892 0.25605 0.0
C1572 C 0.08066 0.54486 0.26016 0.0
C1573 C 0.0622 0.56043 0.22748 0.0
C1574 C 0.06455 0.54637 0.2029 0.0
C1575 C 0.077 0.53334 0.20699 0.0
C1576 C 0.08534 0.5332 0.23557 0.0
C1577 C 0.05031 0.57568 0.22395 0.0
C1578 C 0.07922 0.51729 0.18183 0.0
C1579 C 0.01239 0.51131 0.14608 0.0
C1580 C 0.02354 0.52026 0.11965 0.0
C1581 C 0.02525 0.52052 0.17349 0.0
C1582 C 0.04954 0.54048 0.17493 0.0
C1583 C 0.05985 0.552 0.14886 0.0
C1584 C 0.04683 0.54144 0.12124 0.0
C1585 C 0.01354 0.50701 0.20031 0.0
C1586 C 0.08507 0.57446 0.14998 0.0
H1587 H 0.06636 0.56819 0.2752 0.0
H1588 H 0.09386 0.52232 0.23898 0.0
H1589 H 0.05514 0.58458 0.20291 0.0
H1590 H 0.03031 0.56346 0.22331 0.0
H1591 H 0.05569 0.59035 0.24274 0.0
H1592 H 0.0914 0.51038 0.18807 0.0
H1593 H 0.06099 0.50098 0.17527 0.0
H1594 H 0.08622 0.52772 0.16215 0.0
H1595 H 0.99413 0.49534 0.14506 0.0
H1596 H 0.0555 0.54865 0.10097 0.0
H1597 H 0.01358 0.52011 0.21835 0.0
H1598 H 0.02404 0.49891 0.2088 0.0
H1599 H 0.9945 0.49173 0.19525 0.0
H1600 H 0.08689 0.58874 0.16771 0.0
H1601 H 0.08946 0.5828 0.12854 0.0
H1602 H 0.09864 0.56918 0.15552 0.0
C1603 C 0.47206 0.5533 0.22877 0.0
C1604 C 0.48103 0.54545 0.25117 0.0
C1605 C 0.47838 0.55213 0.19927 0.0
C1606 C 0.49379 0.54258 0.19189 0.0
C1607 C 0.50437 0.53645 0.21477 0.0
C1608 C 0.49785 0.53793 0.24411 0.0
C1609 C 0.46694 0.5592 0.1757 0.0
C1610 C 0.52097 0.5263 0.20797 0.0
C1611 C 0.47469 0.49849 0.12224 0.0
C1612 C 0.49228 0.51213 0.10224 0.0
C1613 C 0.47512 0.50842 0.15104 0.0
C1614 C 0.49361 0.53293 0.16066 0.0
C1615 C 0.51135 0.54726 0.14074 0.0
C1616 C 0.51047 0.53668 0.11158 0.0
C1617 C 0.45567 0.49236 0.17126 0.0
C1618 C 0.53117 0.57359 0.15029 0.0
H1619 H 0.45956 0.55978 0.23408 0.0
H1620 H 0.50536 0.53238 0.26134 0.0
H1621 H 0.4802 0.56936 0.15907 0.0
H1622 H 0.45168 0.54206 0.1639 0.0
H1623 H 0.45972 0.57095 0.18532 0.0
H1624 H 0.53097 0.52661 0.22822 0.0
H1625 H 0.51005 0.50675 0.19794 0.0
H1626 H 0.53429 0.5371 0.19171 0.0
H1627 H 0.46022 0.47967 0.11549 0.0
H1628 H 0.52403 0.54747 0.09632 0.0
H1629 H 0.44542 0.50152 0.179 0.0
H1630 H 0.46412 0.4899 0.19111 0.0
H1631 H 0.44255 0.47363 0.16019 0.0
H1632 H 0.52308 0.58509 0.15751 0.0
H1633 H 0.54354 0.58232 0.13225 0.0
H1634 H 0.54199 0.57385 0.16962 0.0
C1635 C 0.95616 0.48003 0.79267 0.0
C1636 C 0.93285 0.46268 0.78063 0.0
C1637 C 0.96281 0.47996 0.82218 0.0
C1638 C 0.94606 0.46143 0.83955 0.0
C1639 C 0.92262 0.44366 0.82726 0.0
C1640 C 0.91615 0.4448 0.7981 0.0
C1641 C 0.98769 0.49985 0.83484 0.0
C1642 C 0.90454 0.42322 0.84473 0.0
C1643 C 0.97844 0.45656 0.90657 0.0
C1644 C 0.97456 0.47124 0.92825 0.0
C1645 C 0.96714 0.45096 0.87804 0.0
C1646 C 0.95289 0.46153 0.87096 0.0
C1647 C 0.9477 0.47493 0.89352 0.0
C1648 C 0.95811 0.47902 0.92209 0.0
C1649 C 0.97203 0.43548 0.8549 0.0
C1650 C 0.93363 0.48756 0.88687 0.0
H1651 H 0.96907 0.49381 0.7791 0.0
H1652 H 0.89824 0.43109 0.78857 0.0
H1653 H 0.98602 0.5098 0.85532 0.0
H1654 H 0.99831 0.49121 0.84102 0.0
H1655 H 0.99802 0.51367 0.81893 0.0
H1656 H 0.88754 0.41007 0.83136 0.0
H1657 H 0.91267 0.41264 0.85281 0.0
H1658 H 0.89985 0.43133 0.8645 0.0
H1659 H 0.99146 0.45088 0.91127 0.0
H1660 H 0.95558 0.49083 0.93887 0.0
H1661 H 0.98592 0.44786 0.84014 0.0
H1662 H 0.95534 0.42258 0.84093 0.0
H1663 H 0.97884 0.42449 0.86511 0.0
H1664 H 0.94487 0.5035 0.87389 0.0
H1665 H 0.92879 0.49473 0.9074 0.0
H1666 H 0.91676 0.4747 0.87327 0.0
C1667 C 0.52054 0.44563 0.77231 0.0
C1668 C 0.54422 0.46354 0.76631 0.0
C1669 C 0.51169 0.44584 0.80065 0.0
C1670 C 0.52704 0.46431 0.82337 0.0
C1671 C 0.55142 0.48159 0.81759 0.0
C1672 C 0.55963 0.48115 0.78899 0.0
C1673 C 0.48559 0.42724 0.80574 0.0
C1674 C 0.56852 0.50139 0.84123 0.0
C1675 C 0.50582 0.49351 0.88316 0.0
C1676 C 0.50992 0.48462 0.90857 0.0
C1677 C 0.50915 0.48521 0.85487 0.0
C1678 C 0.51719 0.46784 0.85198 0.0
C1679 C 0.51915 0.45704 0.87737 0.0
C1680 C 0.51534 0.4655 0.9055 0.0
C1681 C 0.50633 0.49687 0.82844 0.0
C1682 C 0.52748 0.43835 0.87524 0.0
H1683 H 0.50868 0.43209 0.75452 0.0
H1684 H 0.57793 0.49496 0.78413 0.0
H1685 H 0.48415 0.41911 0.82698 0.0
H1686 H 0.47497 0.43682 0.80725 0.0
H1687 H 0.47725 0.41194 0.78749 0.0
H1688 H 0.58744 0.51174 0.83405 0.0
H1689 H 0.56238 0.51489 0.84674 0.0
H1690 H 0.56845 0.49293 0.8618 0.0
H1691 H 0.50157 0.50828 0.88559 0.0
H1692 H 0.51874 0.45878 0.92519 0.0
H1693 H 0.49617 0.48246 0.80975 0.0
H1694 H 0.52453 0.51004 0.82084 0.0
H1695 H 0.49674 0.50725 0.83378 0.0
H1696 H 0.51859 0.42453 0.85567 0.0
H1697 H 0.52366 0.42835 0.89548 0.0
H1698 H 0.54734 0.44816 0.87246 0.0
C1699 C 0.5032 0.03711 0.77906 0.0
C1700 C 0.52749 0.05204 0.77194 0.0
C1701 C 0.49724 0.02911 0.80745 0.0
C1702 C 0.51599 0.03609 0.82925 0.0
C1703 C 0.54052 0.05145 0.82238 0.0
C1704 C 0.54597 0.05926 0.79383 0.0
C1705 C 0.4709 0.01273 0.8139 0.0
C1706 C 0.56109 0.05903 0.84494 0.0
C1707 C 0.50628 0.02902 0.91157 0.0
C1708 C 0.50706 0.00726 0.91393 0.0
C1709 C 0.50776 0.03806 0.88374 0.0
C1710 C 0.51031 0.0251 0.85807 0.0
C1711 C 0.50939 0.00227 0.86025 0.0
C1712 C 0.50741 0.99349 0.88803 0.0
C1713 C 0.50796 0.06211 0.88197 0.0
C1714 C 0.51242 0.98799 0.83364 0.0
H1715 H 0.48874 0.03152 0.76238 0.0
H1716 H 0.56475 0.07091 0.78863 0.0
H1717 H 0.46741 0.99407 0.81837 0.0
H1718 H 0.46655 0.02074 0.83408 0.0
H1719 H 0.45842 0.01036 0.79521 0.0
H1720 H 0.57906 0.07207 0.83662 0.0
H1721 H 0.55845 0.06805 0.86557 0.0
H1722 H 0.56125 0.04226 0.85085 0.0
H1723 H 0.50614 0.03976 0.93151 0.0
H1724 H 0.5077 0.97646 0.8897 0.0
H1725 H 0.49352 0.0592 0.86573 0.0
H1726 H 0.52554 0.0763 0.87397 0.0
H1727 H 0.50515 0.06956 0.90375 0.0
H1728 H 0.49931 0.98458 0.81526 0.0
H1729 H 0.50985 0.96981 0.83885 0.0
H1730 H 0.53092 -0.00083 0.82554 0.0
C1731 C 0.15272 0.30611 0.5764 0.0
C1732 C 0.1605 0.29169 0.58969 0.0
C1733 C 0.15815 0.31208 0.54718 0.0
C1734 C 0.17191 0.30363 0.53088 0.0
C1735 C 0.18065 0.28995 0.54451 0.0
C1736 C 0.17479 0.28407 0.57372 0.0
C1737 C 0.14828 0.32657 0.53339 0.0
C1738 C 0.19555 0.28088 0.52791 0.0
C1739 C 0.15971 0.29652 0.44785 0.0
C1740 C 0.17758 0.31986 0.44025 0.0
C1741 C 0.15839 0.2904 0.47709 0.0
C1742 C 0.17578 0.3079 0.49903 0.0
C1743 C 0.19527 0.33056 0.49077 0.0
C1744 C 0.19573 0.33646 0.46144 0.0
C1745 C 0.13692 0.26635 0.48496 0.0
C1746 C 0.21439 0.3495 0.51341 0.0
H1747 H 0.14168 0.3121 0.58849 0.0
H1748 H 0.18095 0.27299 0.58379 0.0
H1749 H 0.16319 0.34325 0.52445 0.0
H1750 H 0.13532 0.31487 0.51453 0.0
H1751 H 0.13879 0.33266 0.54946 0.0
H1752 H 0.20238 0.27195 0.54226 0.0
H1753 H 0.18441 0.26718 0.50904 0.0
H1754 H 0.21125 0.29663 0.51853 0.0
H1755 H 0.14525 0.28409 0.43157 0.0
H1756 H 0.20911 0.35481 0.45571 0.0
H1757 H 0.1245 0.2705 0.49797 0.0
H1758 H 0.14288 0.25652 0.49897 0.0
H1759 H 0.12657 0.25367 0.46497 0.0
H1760 H 0.2065 0.35864 0.52764 0.0
H1761 H 0.23024 0.3641 0.50279 0.0
H1762 H 0.22075 0.34035 0.52804 0.0
C1763 C 0.74828 0.85936 0.57111 0.0
C1764 C 0.74042 0.86725 0.59625 0.0
C1765 C 0.73813 0.8573 0.5428 0.0
C1766 C 0.72041 0.8643 0.53951 0.0
C1767 C 0.71377 0.87404 0.56474 0.0
C1768 C 0.7234 0.87479 0.59298 0.0
C1769 C 0.74524 0.84613 0.51671 0.0
C1770 C 0.69592 0.88289 0.56201 0.0
C1771 C 0.70533 0.86543 0.45844 0.0
C1772 C 0.6851 0.84145 0.45234 0.0
C1773 C 0.71606 0.87409 0.48744 0.0
C1774 C 0.70667 0.85817 0.51044 0.0
C1775 C 0.6852 0.83476 0.50473 0.0
C1776 C 0.67449 0.82697 0.476 0.0
C1777 C 0.73831 0.89962 0.49298 0.0
C1778 C 0.67463 0.81693 0.52832 0.0
H1779 H 0.76143 0.8535 0.5738 0.0
H1780 H 0.71761 0.88121 0.61252 0.0
H1781 H 0.72921 0.8283 0.50754 0.0
H1782 H 0.75147 0.85874 0.49883 0.0
H1783 H 0.7599 0.84248 0.52284 0.0
H1784 H 0.69606 0.89398 0.58255 0.0
H1785 H 0.70009 0.89438 0.54312 0.0
H1786 H 0.67733 0.86665 0.55759 0.0
H1787 H 0.71362 0.87683 0.44044 0.0
H1788 H 0.65853 0.80861 0.47169 0.0
H1789 H 0.75479 0.89804 0.49139 0.0
H1790 H 0.73878 0.90844 0.51545 0.0
H1791 H 0.73903 0.91198 0.47637 0.0
H1792 H 0.68778 0.81142 0.53513 0.0
H1793 H 0.65731 0.79981 0.52052 0.0
H1794 H 0.67127 0.82602 0.54828 0.0
C1795 C 0.14569 0.89361 0.56393 0.0
C1796 C 0.14406 0.87569 0.58189 0.0
C1797 C 0.15353 0.89431 0.53494 0.0
C1798 C 0.15905 0.87614 0.52336 0.0
C1799 C 0.1579 0.85831 0.54165 0.0
C1800 C 0.15074 0.85854 0.57085 0.0
C1801 C 0.15539 0.91415 0.51654 0.0
C1802 C 0.1632 0.8383 0.53002 0.0
C1803 C 0.14588 0.85197 0.44253 0.0
C1804 C 0.1691 0.85885 0.43314 0.0
C1805 C 0.14244 0.85862 0.47151 0.0
C1806 C 0.16289 0.87353 0.49123 0.0
C1807 C 0.18659 0.883 0.48077 0.0
C1808 C 0.18946 0.87502 0.45184 0.0
C1809 C 0.11685 0.84735 0.4818 0.0
C1810 C 0.20881 0.89996 0.50076 0.0
H1811 H 0.14114 0.90732 0.57269 0.0
H1812 H 0.14975 0.84485 0.58482 0.0
H1813 H 0.17263 0.92245 0.50492 0.0
H1814 H 0.1403 0.90575 0.49936 0.0
H1815 H 0.15449 0.92922 0.53022 0.0
H1816 H 0.1622 0.82633 0.54737 0.0
H1817 H 0.14998 0.82634 0.51149 0.0
H1818 H 0.18155 0.84679 0.52115 0.0
H1819 H 0.13018 0.83916 0.42801 0.0
H1820 H 0.2074 0.88007 0.44463 0.0
H1821 H 0.1139 0.8619 0.49321 0.0
H1822 H 0.11393 0.83385 0.49799 0.0
H1823 H 0.10299 0.83746 0.46319 0.0
H1824 H 0.20623 0.91392 0.51446 0.0
H1825 H 0.22525 0.90983 0.48788 0.0
H1826 H 0.212 0.88886 0.51607 0.0
C1827 C 0.58841 0.77962 0.12764 0.0
C1828 C 0.60579 0.79349 0.10771 0.0
C1829 C 0.59505 0.78057 0.1574 0.0
C1830 C 0.61953 0.79639 0.16765 0.0
C1831 C 0.63735 0.80954 0.14731 0.0
C1832 C 0.63028 0.80768 0.11742 0.0
C1833 C 0.5756 0.76579 0.17818 0.0
C1834 C 0.6636 0.82695 0.1575 0.0
C1835 C 0.63107 0.83095 0.2435 0.0
C1836 C 0.64183 0.82051 0.25966 0.0
C1837 C 0.62328 0.82276 0.21385 0.0
C1838 C 0.62565 0.80308 0.19996 0.0
C1839 C 0.63483 0.79112 0.21662 0.0
C1840 C 0.64294 0.80007 0.24645 0.0
C1841 C 0.61363 0.83613 0.19703 0.0
C1842 C 0.63677 0.7695 0.20266 0.0
H1843 H 0.56951 0.76808 0.11999 0.0
H1844 H 0.64378 0.81818 0.10194 0.0
H1845 H 0.58207 0.75729 0.19366 0.0
H1846 H 0.57105 0.77836 0.19169 0.0
H1847 H 0.55875 0.75083 0.16596 0.0
H1848 H 0.67558 0.8336 0.1386 0.0
H1849 H 0.66528 0.84337 0.17116 0.0
H1850 H 0.67014 0.81767 0.17161 0.0
H1851 H 0.62949 0.84631 0.25379 0.0
H1852 H 0.65099 0.79177 0.25896 0.0
H1853 H 0.59515 0.82276 0.18727 0.0
H1854 H 0.62541 0.84473 0.1785 0.0
H1855 H 0.61282 0.85098 0.21132 0.0
H1856 H 0.61893 0.7548 0.19234 0.0
H1857 H 0.64293 0.76132 0.21902 0.0
H1858 H 0.64977 0.77569 0.18475 0.0
C1859 C 0.19482 0.77617 0.1113 0.0
C1860 C 0.2113 0.79999 0.1034 0.0
C1861 C 0.18498 0.77285 0.13938 0.0
C1862 C 0.19214 0.79385 0.16013 0.0
C1863 C 0.20945 0.8179 0.15248 0.0
C1864 C 0.21851 0.82069 0.12402 0.0
C1865 C 0.16621 0.74705 0.14636 0.0
C1866 C 0.21796 0.8408 0.17408 0.0
C1867 C 0.15381 0.79976 0.21977 0.0
C1868 C 0.16633 0.80021 0.24543 0.0
C1869 C 0.16057 0.7953 0.19155 0.0
C1870 C 0.18041 0.7913 0.18903 0.0
C1871 C 0.19117 0.78877 0.21489 0.0
C1872 C 0.18382 0.79306 0.24291 0.0
C1873 C 0.14836 0.79785 0.16462 0.0
C1874 C 0.21238 0.78455 0.21322 0.0
H1875 H 0.18882 0.76021 0.09506 0.0
H1876 H 0.23126 0.8391 0.11783 0.0
H1877 H 0.17102 0.74306 0.16792 0.0
H1878 H 0.14837 0.74587 0.1484 0.0
H1879 H 0.16423 0.73248 0.12893 0.0
H1880 H 0.23291 0.85776 0.16556 0.0
H1881 H 0.20263 0.84393 0.17861 0.0
H1882 H 0.22436 0.83814 0.19549 0.0
H1883 H 0.1405 0.80561 0.22173 0.0
H1884 H 0.19384 0.79385 0.26271 0.0
H1885 H 0.1448 0.78311 0.14661 0.0
H1886 H 0.16052 0.81608 0.15614 0.0
H1887 H 0.13095 0.79687 0.16983 0.0
H1888 H 0.2093 0.77026 0.19483 0.0
H1889 H 0.21582 0.77866 0.23427 0.0
H1890 H 0.22893 0.80212 0.20874 0.0
C1891 C 0.20833 0.38985 0.12927 0.0
C1892 C 0.19138 0.38915 0.10901 0.0
C1893 C 0.20201 0.38322 0.15815 0.0
C1894 C 0.17833 0.37623 0.16712 0.0
C1895 C 0.16159 0.37675 0.14721 0.0
C1896 C 0.16822 0.38293 0.1183 0.0
C1897 C 0.2203 0.38248 0.17853 0.0
C1898 C 0.13638 0.36992 0.15609 0.0
C1899 C 0.15685 0.33044 0.22489 0.0
C1900 C 0.16385 0.34629 0.2513 0.0
C1901 C 0.16026 0.33983 0.19726 0.0
C1902 C 0.1704 0.36571 0.196 0.0
C1903 C 0.17509 0.38147 0.22255 0.0
C1904 C 0.17178 0.37154 0.25007 0.0
C1905 C 0.15531 0.32237 0.1696 0.0
C1906 C 0.18536 0.40906 0.22188 0.0
H1907 H 0.22626 0.39468 0.12223 0.0
H1908 H 0.15513 0.38272 0.10286 0.0
H1909 H 0.22244 0.39328 0.20013 0.0
H1910 H 0.21371 0.36297 0.18301 0.0
H1911 H 0.23838 0.39003 0.16893 0.0
H1912 H 0.12668 0.37432 0.13947 0.0
H1913 H 0.1256 0.3497 0.15852 0.0
H1914 H 0.13722 0.37991 0.17787 0.0
H1915 H 0.15077 0.3109 0.22585 0.0
H1916 H 0.17749 0.38389 0.27043 0.0
H1917 H 0.17274 0.32685 0.15964 0.0
H1918 H 0.14416 0.3247 0.15285 0.0
H1919 H 0.14579 0.30255 0.17425 0.0
H1920 H 0.20361 0.41761 0.2127 0.0
H1921 H 0.18702 0.41862 0.24424 0.0
H1922 H 0.17367 0.41239 0.20709 0.0
C1923 C 0.84064 0.61692 0.90544 0.0
C1924 C 0.82211 0.61834 0.92033 0.0
C1925 C 0.84578 0.62379 0.87643 0.0
C1926 C 0.83194 0.63207 0.86195 0.0
C1927 C 0.81312 0.6334 0.8768 0.0
C1928 C 0.80854 0.62666 0.90581 0.0
C1929 C 0.8661 0.62237 0.86133 0.0
C1930 C 0.79772 0.64187 0.86203 0.0
C1931 C 0.85352 0.67338 0.79925 0.0
C1932 C 0.84052 0.6563 0.77485 0.0
C1933 C 0.85245 0.66542 0.82751 0.0
C1934 C 0.83727 0.63991 0.83147 0.0
C1935 C 0.82508 0.62243 0.80653 0.0
C1936 C 0.82714 0.63086 0.77835 0.0
C1937 C 0.86608 0.68457 0.85343 0.0
C1938 C 0.80811 0.5952 0.80987 0.0
H1939 H 0.85119 0.61049 0.91646 0.0
H1940 H 0.79408 0.62771 0.91702 0.0
H1941 H 0.85904 0.60997 0.84034 0.0
H1942 H 0.87995 0.64109 0.85548 0.0
H1943 H 0.87503 0.61532 0.87549 0.0
H1944 H 0.78326 0.64102 0.87628 0.0
H1945 H 0.80928 0.6613 0.85652 0.0
H1946 H 0.78908 0.6301 0.84092 0.0
H1947 H 0.86346 0.6931 0.79647 0.0
H1948 H 0.81655 0.6178 0.7595 0.0
H1949 H 0.87549 0.67813 0.86771 0.0
H1950 H 0.8531 0.68721 0.8672 0.0
H1951 H 0.87968 0.70286 0.84613 0.0
H1952 H 0.81683 0.58802 0.82409 0.0
H1953 H 0.8023 0.58371 0.78814 0.0
H1954 H 0.79169 0.59286 0.82087 0.0
C1955 C 0.38489 0.17558 0.90714 0.0
C1956 C 0.40219 0.19648 0.92523 0.0
C1957 C 0.37796 0.17786 0.87872 0.0
C1958 C 0.38823 0.20174 0.86835 0.0
C1959 C 0.40533 0.22298 0.88684 0.0
C1960 C 0.41217 0.22008 0.91506 0.0
C1961 C 0.35978 0.15464 0.8597 0.0
C1962 C 0.4162 0.24875 0.87693 0.0
C1963 C 0.38349 0.19902 0.78454 0.0
C1964 C 0.36078 0.19686 0.78016 0.0
C1965 C 0.39355 0.20224 0.81331 0.0
C1966 C 0.38093 0.20416 0.8381 0.0
C1967 C 0.35944 0.20497 0.83353 0.0
C1968 C 0.34944 0.20096 0.80457 0.0
C1969 C 0.41616 0.20064 0.81714 0.0
C1970 C 0.34563 0.20746 0.85925 0.0
H1971 H 0.37707 0.15733 0.91507 0.0
H1972 H 0.42487 0.23637 0.92944 0.0
H1973 H 0.34346 0.15573 0.85424 0.0
H1974 H 0.36773 0.15307 0.83847 0.0
H1975 H 0.35399 0.13747 0.8708 0.0
H1976 H 0.42922 0.26336 0.89397 0.0
H1977 H 0.42577 0.24992 0.85622 0.0
H1978 H 0.40158 0.25271 0.87192 0.0
H1979 H 0.39192 0.19511 0.76574 0.0
H1980 H 0.33162 0.19873 0.80123 0.0
H1981 H 0.41121 0.18252 0.82532 0.0
H1982 H 0.42915 0.21551 0.83389 0.0
H1983 H 0.42535 0.20211 0.79601 0.0
H1984 H 0.33605 0.18959 0.86938 0.0
H1985 H 0.33193 0.21217 0.85216 0.0
H1986 H 0.35819 0.22198 0.87663 0.0
C1987 C 0.81724 0.18807 0.90288 0.0
C1988 C 0.80643 0.20173 0.91329 0.0
C1989 C 0.82394 0.18824 0.87337 0.0
C1990 C 0.82049 0.2031 0.85418 0.0
C1991 C 0.81 0.21726 0.8648 0.0
C1992 C 0.80273 0.21607 0.89406 0.0
C1993 C 0.83441 0.17227 0.86263 0.0
C1994 C 0.80668 0.23385 0.84532 0.0
C1995 C 0.85628 0.21312 0.78466 0.0
C1996 C 0.8383 0.19514 0.76427 0.0
C1997 C 0.85037 0.21748 0.81361 0.0
C1998 C 0.82633 0.20243 0.82249 0.0
C1999 C 0.80799 0.18519 0.80135 0.0
C2000 C 0.81413 0.18236 0.7723 0.0
C2001 C 0.87013 0.23696 0.83517 0.0
C2002 C 0.78241 0.16788 0.80999 0.0
H2003 H 0.8203 0.17713 0.91777 0.0
H2004 H 0.79488 0.22711 0.90221 0.0
H2005 H 0.82309 0.15911 0.84345 0.0
H2006 H 0.8529 0.18407 0.85492 0.0
H2007 H 0.83545 0.16142 0.88018 0.0
H2008 H 0.80021 0.2453 0.8577 0.0
H2009 H 0.82408 0.24642 0.83549 0.0
H2010 H 0.79333 0.22239 0.82673 0.0
H2011 H 0.87503 0.22266 0.77858 0.0
H2012 H 0.80036 0.16805 0.7566 0.0
H2013 H 0.87576 0.2278 0.85071 0.0
H2014 H 0.86345 0.24775 0.84855 0.0
H2015 H 0.88635 0.25003 0.82364 0.0
H2016 H 0.78262 0.15508 0.82538 0.0
H2017 H 0.77004 0.1565 0.79051 0.0
H2018 H 0.77488 0.17849 0.82185 0.0
C2019 C 0.27261 0.14523 0.46512 0.0
C2020 C 0.26926 0.12668 0.44304 0.0
C2021 C 0.28019 0.14506 0.49412 0.0
C2022 C 0.28334 0.12519 0.50131 0.0
C2023 C 0.2791 0.10593 0.47917 0.0
C2024 C 0.27265 0.10724 0.45008 0.0
C2025 C 0.28516 0.16632 0.51692 0.0
C2026 C 0.28117 0.08391 0.48625 0.0
C2027 C 0.32746 0.14499 0.56681 0.0
C2028 C 0.31195 0.13982 0.59027 0.0
C2029 C 0.31824 0.13831 0.5374 0.0
C2030 C 0.29284 0.12582 0.53149 0.0
C2031 C 0.27704 0.11766 0.55519 0.0
C2032 C 0.28684 0.12498 0.58456 0.0
C2033 C 0.33578 0.14749 0.51291 0.0
C2034 C 0.24984 0.10353 0.54969 0.0
H2035 H 0.26965 0.16005 0.45955 0.0
H2036 H 0.26952 0.0926 0.43304 0.0
H2037 H 0.27315 0.15918 0.53565 0.0
H2038 H 0.30418 0.17552 0.52606 0.0
H2039 H 0.28225 0.18052 0.50755 0.0
H2040 H 0.2752 0.06948 0.46708 0.0
H2041 H 0.30024 0.09011 0.49291 0.0
H2042 H 0.27001 0.07535 0.50524 0.0
H2043 H 0.3469 0.15667 0.57143 0.0
H2044 H 0.27487 0.12123 0.60276 0.0
H2045 H 0.33539 0.16324 0.5039 0.0
H2046 H 0.33051 0.13268 0.49442 0.0
H2047 H 0.35469 0.15401 0.52089 0.0
H2048 H 0.24369 0.11678 0.54567 0.0
H2049 H 0.24047 0.09357 0.56905 0.0
H2050 H 0.24426 0.08989 0.52979 0.0
C2051 C 0.86223 0.11278 0.44035 0.0
C2052 C 0.88012 0.13549 0.43107 0.0
C2053 C 0.85276 0.11163 0.46849 0.0
C2054 C 0.86181 0.13366 0.48798 0.0
C2055 C 0.88036 0.15657 0.47888 0.0
C2056 C 0.88899 0.15727 0.4503 0.0
C2057 C 0.83252 0.08703 0.47692 0.0
C2058 C 0.89087 0.18044 0.49918 0.0
C2059 C 0.82694 0.1452 0.54819 0.0
C2060 C 0.83875 0.14438 0.57377 0.0
C2061 C 0.83277 0.13954 0.51992 0.0
C2062 C 0.85113 0.1333 0.51725 0.0
C2063 C 0.86133 0.13001 0.54307 0.0
C2064 C 0.8548 0.13537 0.57115 0.0
C2065 C 0.82103 0.14275 0.49303 0.0
C2066 C 0.88105 0.12353 0.54123 0.0
H2067 H 0.855 0.09602 0.42517 0.0
H2068 H 0.90283 0.17481 0.44306 0.0
H2069 H 0.8371 0.08304 0.49862 0.0
H2070 H 0.81574 0.08796 0.47936 0.0
H2071 H 0.82868 0.07136 0.46009 0.0
H2072 H 0.90642 0.19625 0.48962 0.0
H2073 H 0.8767 0.18537 0.50357 0.0
H2074 H 0.89709 0.17796 0.52083 0.0
H2075 H 0.81469 0.1524 0.55026 0.0
H2076 H 0.86426 0.13515 0.5909 0.0
H2077 H 0.81598 0.12725 0.47549 0.0
H2078 H 0.83411 0.16029 0.48376 0.0
H2079 H 0.80455 0.14364 0.49852 0.0
H2080 H 0.87637 0.10822 0.52355 0.0
H2081 H 0.88438 0.11794 0.56257 0.0
H2082 H 0.89815 0.13998 0.53549 0.0
C2083 C 0.87928 0.73078 0.46214 0.0
C2084 C 0.86078 0.72235 0.43994 0.0
C2085 C 0.87394 0.72373 0.49103 0.0
C2086 C 0.84951 0.70782 0.49791 0.0
C2087 C 0.83071 0.69984 0.47586 0.0
C2088 C 0.83655 0.70716 0.44717 0.0
C2089 C 0.89453 0.73262 0.51396 0.0
C2090 C 0.80447 0.68292 0.48231 0.0
C2091 C 0.84402 0.66724 0.55787 0.0
C2092 C 0.8425 0.68066 0.58329 0.0
C2093 C 0.84491 0.67517 0.52976 0.0
C2094 C 0.84415 0.69709 0.52692 0.0
C2095 C 0.84054 0.70961 0.55223 0.0
C2096 C 0.83976 0.7012 0.58032 0.0
C2097 C 0.84854 0.66108 0.50346 0.0
C2098 C 0.83923 0.73281 0.54999 0.0
H2099 H 0.898 0.74271 0.4569 0.0
H2100 H 0.82206 0.70069 0.43028 0.0
H2101 H 0.89108 0.74124 0.53433 0.0
H2102 H 0.89577 0.71652 0.52024 0.0
H2103 H 0.91228 0.74637 0.50579 0.0
H2104 H 0.79185 0.68043 0.46371 0.0
H2105 H 0.80147 0.66436 0.4864 0.0
H2106 H 0.79986 0.69047 0.50267 0.0
H2107 H 0.84592 0.65118 0.5602 0.0
H2108 H 0.83871 0.71166 0.60001 0.0
H2109 H 0.86694 0.67271 0.49531 0.0
H2110 H 0.83523 0.65697 0.48501 0.0
H2111 H 0.84668 0.64328 0.50907 0.0
H2112 H 0.8577 0.74866 0.54726 0.0
H2113 H 0.83195 0.73754 0.57015 0.0
H2114 H 0.82769 0.7306 0.53034 0.0
loop_
_geom_bond_atom_site_label_1
_geom_bond_atom_site_label_2
_geom_bond_distance
_geom_bond_site_symmetry_2
_ccdc_geom_bond_type
O0 Cd1 2.300 . S
O0 C7 1.275 . S
Cd1 O0 2.300 . S
Cd1 O9 2.381 . S
Cd1 O10 2.378 . S
O2 Cd3 2.385 . S
O2 C7 1.255 . S
Cd3 O2 2.385 . S
Cd3 O4 2.317 . S
O4 Cd3 2.317 . S
O4 C5 1.232 . S
C5 O4 1.232 . S
C5 O6 1.218 . S
O6 C5 1.218 . S
C7 O0 1.275 . S
C7 O2 1.255 . S
C8 O9 1.258 . S
C8 O10 1.256 . S
O9 Cd1 2.381 . S
O9 C8 1.258 . S
O10 Cd1 2.378 . S
O10 C8 1.256 . S
O11 Cd12 2.300 . S
O11 C18 1.275 . S
Cd12 O11 2.300 . S
Cd12 O20 2.381 . S
Cd12 O21 2.378 . S
O13 Cd14 2.385 . S
O13 C18 1.255 . S
Cd14 O13 2.385 . S
Cd14 O15 2.317 . S
O15 Cd14 2.317 . S
O15 C16 1.232 . S
C16 O15 1.232 . S
C16 O17 1.218 . S
O17 C16 1.218 . S
C18 O11 1.275 . S
C18 O13 1.255 . S
C19 O20 1.258 . S
C19 O21 1.256 . S
O20 Cd12 2.381 . S
O20 C19 1.258 . S
O21 Cd12 2.378 . S
O21 C19 1.256 . S
O22 Cd23 2.300 . S
O22 C29 1.275 . S
Cd23 O22 2.300 . S
Cd23 O31 2.381 . S
Cd23 O32 2.378 . S
O24 Cd25 2.385 . S
O24 C29 1.255 . S
Cd25 O24 2.385 . S
Cd25 O26 2.317 . S
O26 Cd25 2.317 . S
O26 C27 1.232 . S
C27 O26 1.232 . S
C27 O28 1.218 . S
O28 C27 1.218 . S
C29 O22 1.275 . S
C29 O24 1.255 . S
C30 O31 1.258 . S
C30 O32 1.256 . S
O31 Cd23 2.381 . S
O31 C30 1.258 . S
O32 Cd23 2.378 . S
O32 C30 1.256 . S
O33 Cd34 2.300 . S
O33 C40 1.275 . S
Cd34 O33 2.300 . S
Cd34 O42 2.381 . S
Cd34 O43 2.378 . S
O35 Cd36 2.385 . S
O35 C40 1.255 . S
Cd36 O35 2.385 . S
Cd36 O37 2.317 . S
O37 Cd36 2.317 . S
O37 C38 1.232 . S
C38 O37 1.232 . S
C38 O39 1.218 . S
O39 C38 1.218 . S
C40 O33 1.275 . S
C40 O35 1.255 . S
C41 O42 1.258 . S
C41 O43 1.256 . S
O42 Cd34 2.381 . S
O42 C41 1.258 . S
O43 Cd34 2.378 . S
O43 C41 1.256 . S
O44 Cd45 2.300 . S
O44 C51 1.275 . S
Cd45 O44 2.300 . S
Cd45 O53 2.381 . S
Cd45 O54 2.378 . S
O46 Cd47 2.385 . S
O46 C51 1.255 . S
Cd47 O46 2.385 . S
Cd47 O48 2.317 . S
O48 Cd47 2.317 . S
O48 C49 1.232 . S
C49 O48 1.232 . S
C49 O50 1.218 . S
O50 C49 1.218 . S
C51 O44 1.275 . S
C51 O46 1.255 . S
C52 O53 1.258 . S
C52 O54 1.256 . S
O53 Cd45 2.381 . S
O53 C52 1.258 . S
O54 Cd45 2.378 . S
O54 C52 1.256 . S
O55 Cd56 2.300 . S
O55 C62 1.275 . S
Cd56 O55 2.300 . S
Cd56 O64 2.381 . S
Cd56 O65 2.378 . S
O57 Cd58 2.385 . S
O57 C62 1.255 . S
Cd58 O57 2.385 . S
Cd58 O59 2.317 . S
O59 Cd58 2.317 . S
O59 C60 1.232 . S
C60 O59 1.232 . S
C60 O61 1.218 . S
O61 C60 1.218 . S
C62 O55 1.275 . S
C62 O57 1.255 . S
C63 O64 1.258 . S
C63 O65 1.256 . S
O64 Cd56 2.381 . S
O64 C63 1.258 . S
O65 Cd56 2.378 . S
O65 C63 1.256 . S
O66 Cd67 2.300 . S
O66 C73 1.275 . S
Cd67 O66 2.300 . S
Cd67 O75 2.381 . S
Cd67 O76 2.378 . S
O68 Cd69 2.385 . S
O68 C73 1.255 . S
Cd69 O68 2.385 . S
Cd69 O70 2.317 . S
O70 Cd69 2.317 . S
O70 C71 1.232 . S
C71 O70 1.232 . S
C71 O72 1.218 . S
O72 C71 1.218 . S
C73 O66 1.275 . S
C73 O68 1.255 . S
C74 O75 1.258 . S
C74 O76 1.256 . S
O75 Cd67 2.381 . S
O75 C74 1.258 . S
O76 Cd67 2.378 . S
O76 C74 1.256 . S
O77 Cd78 2.300 . S
O77 C84 1.275 . S
Cd78 O77 2.300 . S
Cd78 O86 2.381 . S
Cd78 O87 2.378 . S
O79 Cd80 2.385 . S
O79 C84 1.255 . S
Cd80 O79 2.385 . S
Cd80 O81 2.317 . S
O81 Cd80 2.317 . S
O81 C82 1.232 . S
C82 O81 1.232 . S
C82 O83 1.218 . S
O83 C82 1.218 . S
C84 O77 1.275 . S
C84 O79 1.255 . S
C85 O86 1.258 . S
C85 O87 1.256 . S
O86 Cd78 2.381 . S
O86 C85 1.258 . S
O87 Cd78 2.378 . S
O87 C85 1.256 . S
O88 Cd89 2.300 . S
O88 C95 1.275 . S
Cd89 O88 2.300 . S
Cd89 O97 2.381 . S
Cd89 O98 2.378 . S
O90 Cd91 2.385 . S
O90 C95 1.255 . S
Cd91 O90 2.385 . S
Cd91 O92 2.317 . S
O92 Cd91 2.317 . S
O92 C93 1.232 . S
C93 O92 1.232 . S
C93 O94 1.218 . S
O94 C93 1.218 . S
C95 O88 1.275 . S
C95 O90 1.255 . S
C96 O97 1.258 . S
C96 O98 1.256 . S
O97 Cd89 2.381 . S
O97 C96 1.258 . S
O98 Cd89 2.378 . S
O98 C96 1.256 . S
O99 Cd100 2.300 1_556 S
O99 C106 1.275 . S
Cd100 O99 2.300 1_554 S
Cd100 O108 2.376 1_554 S
Cd100 O109 2.378 . S
O101 Cd102 2.385 1_556 S
O101 C106 1.255 . S
Cd102 O101 2.385 1_554 S
Cd102 O103 2.317 . S
O103 Cd102 2.317 . S
O103 C104 1.232 . S
C104 O103 1.232 . S
C104 O105 1.218 . S
O105 C104 1.218 . S
C106 O99 1.275 . S
C106 O101 1.255 . S
C107 O108 1.224 1_554 S
C107 O109 1.256 . S
O108 Cd100 2.376 1_556 S
O108 C107 1.224 1_556 S
O109 Cd100 2.378 . S
O109 C107 1.256 . S
O110 Cd111 2.300 . S
O110 C117 1.275 . S
Cd111 O110 2.300 . S
Cd111 O119 2.381 1_556 S
Cd111 O120 2.378 1_556 S
O112 Cd113 2.385 . S
O112 C117 1.255 . S
Cd113 O112 2.385 . S
Cd113 O114 2.317 1_556 S
O114 Cd113 2.317 1_554 S
O114 C115 1.232 . S
C115 O114 1.232 . S
C115 O116 1.218 1_554 S
O116 C115 1.218 1_556 S
C117 O110 1.275 . S
C117 O112 1.255 . S
C118 O119 1.258 . S
C118 O120 1.256 . S
O119 Cd111 2.381 1_554 S
O119 C118 1.258 . S
O120 Cd111 2.378 1_554 S
O120 C118 1.256 . S
O121 Cd122 2.300 . S
O121 C128 1.275 . S
Cd122 O121 2.300 . S
Cd122 O130 2.381 . S
Cd122 O131 2.378 1_556 S
O123 Cd124 2.385 1_556 S
O123 C128 1.255 . S
Cd124 O123 2.385 1_554 S
Cd124 O125 2.317 . S
O125 Cd124 2.317 . S
O125 C126 1.232 . S
C126 O125 1.232 . S
C126 O127 1.216 1_554 S
O127 C126 1.216 1_556 S
C128 O121 1.275 . S
C128 O123 1.255 . S
C129 O130 1.258 1_554 S
C129 O131 1.256 . S
O130 Cd122 2.381 . S
O130 C129 1.258 1_556 S
O131 Cd122 2.378 1_554 S
O131 C129 1.256 . S
O132 Cd133 2.300 . S
O132 C139 1.275 . S
Cd133 O132 2.300 . S
Cd133 O141 2.381 . S
Cd133 O142 2.378 1_554 S
O134 Cd135 2.385 . S
O134 C139 1.255 . S
Cd135 O134 2.385 . S
Cd135 O136 2.317 1_554 S
O136 Cd135 2.317 1_556 S
O136 C137 1.231 1_556 S
C137 O136 1.231 1_554 S
C137 O138 1.218 . S
O138 C137 1.218 . S
C139 O132 1.275 . S
C139 O134 1.255 . S
C140 O141 1.258 . S
C140 O142 1.256 1_554 S
O141 Cd133 2.381 . S
O141 C140 1.258 . S
O142 Cd133 2.378 1_556 S
O142 C140 1.256 1_556 S
O143 Cd144 2.300 . S
O143 C150 1.275 . S
Cd144 O143 2.300 . S
Cd144 O152 2.381 . S
Cd144 O153 2.385 . S
O145 Cd146 2.385 . S
O145 C150 1.255 . S
Cd146 O145 2.385 . S
Cd146 O147 2.317 . S
O147 Cd146 2.317 . S
O147 C148 1.232 . S
C148 O147 1.232 . S
C148 O149 1.218 . S
O149 C148 1.218 . S
C150 O143 1.275 . S
C150 O145 1.255 . S
C151 O152 1.255 1_556 S
C151 O153 1.254 1_556 S
O152 Cd144 2.381 . S
O152 C151 1.255 1_554 S
O153 Cd144 2.385 . S
O153 C151 1.254 1_554 S
O154 Cd155 2.300 . S
O154 C161 1.275 . S
Cd155 O154 2.300 . S
Cd155 O163 2.381 . S
Cd155 O164 2.378 1_554 S
O156 Cd157 2.385 . S
O156 C161 1.255 . S
Cd157 O156 2.385 . S
Cd157 O158 2.317 1_554 S
O158 Cd157 2.317 1_556 S
O158 C159 1.232 1_556 S
C159 O158 1.232 1_554 S
C159 O160 1.218 . S
O160 C159 1.218 . S
C161 O154 1.275 . S
C161 O156 1.255 . S
C162 O163 1.258 . S
C162 O164 1.256 1_554 S
O163 Cd155 2.381 . S
O163 C162 1.258 . S
O164 Cd155 2.378 1_556 S
O164 C162 1.256 1_556 S
O165 Cd166 2.300 . S
O165 C172 1.275 . S
Cd166 O165 2.300 . S
Cd166 O174 2.381 . S
Cd166 O175 2.378 . S
O167 Cd168 2.385 . S
O167 C172 1.255 . S
Cd168 O167 2.385 . S
Cd168 O169 2.317 . S
O169 Cd168 2.317 . S
O169 C170 1.232 . S
C170 O169 1.232 . S
C170 O171 1.218 . S
O171 C170 1.218 . S
C172 O165 1.275 . S
C172 O167 1.255 . S
C173 O174 1.258 . S
C173 O175 1.256 . S
O174 Cd166 2.381 . S
O174 C173 1.258 . S
O175 Cd166 2.378 . S
O175 C173 1.256 . S
O176 Cd177 2.300 . S
O176 C183 1.275 . S
Cd177 O176 2.300 . S
Cd177 O185 2.381 . S
Cd177 O186 2.378 . S
O178 Cd179 2.385 . S
O178 C183 1.255 . S
Cd179 O178 2.385 . S
Cd179 O180 2.317 . S
O180 Cd179 2.317 . S
O180 C181 1.232 . S
C181 O180 1.232 . S
C181 O182 1.218 . S
O182 C181 1.218 . S
C183 O176 1.275 . S
C183 O178 1.255 . S
C184 O185 1.258 . S
C184 O186 1.256 . S
O185 Cd177 2.381 . S
O185 C184 1.258 . S
O186 Cd177 2.378 . S
O186 C184 1.256 . S
O187 Cd188 2.300 . S
O187 C194 1.275 . S
Cd188 O187 2.300 . S
Cd188 O196 2.381 . S
Cd188 O197 2.378 . S
O189 Cd190 2.385 . S
O189 C194 1.255 . S
Cd190 O189 2.385 . S
Cd190 O191 2.317 . S
O191 Cd190 2.317 . S
O191 C192 1.232 . S
C192 O191 1.232 . S
C192 O193 1.218 . S
O193 C192 1.218 . S
C194 O187 1.275 . S
C194 O189 1.255 . S
C195 O196 1.258 . S
C195 O197 1.256 . S
O196 Cd188 2.381 . S
O196 C195 1.258 . S
O197 Cd188 2.378 . S
O197 C195 1.256 . S
O198 Mn199 2.163 1_565 S
O198 C212 1.244 . S
Mn199 O198 2.163 1_545 S
Mn199 O202 2.160 . S
Mn199 O203 2.221 1_545 S
Mn199 O205 2.163 1_554 S
Mn199 O207 2.160 1_545 S
Mn199 O217 2.221 . S
O200 Mn201 2.087 1_565 S
O200 C212 1.256 . S
Mn201 O200 2.087 1_545 S
Mn201 O208 2.089 1_545 S
Mn201 O217 2.290 . S
Mn201 O218 2.251 . S
O202 Mn199 2.160 . S
O202 C213 1.239 . S
O203 Mn199 2.221 1_565 S
O203 Mn204 2.290 1_554 S
O203 C214 1.278 1_554 S
Mn204 O203 2.290 1_556 S
Mn204 O206 2.089 1_565 S
Mn204 O209 2.251 . S
Mn204 O210 2.087 . S
O205 Mn199 2.163 1_556 S
O205 C215 1.244 . S
O206 Mn204 2.089 1_545 S
O206 C213 1.256 1_556 S
O207 Mn199 2.160 1_565 S
O207 C216 1.239 . S
O208 Mn201 2.089 1_565 S
O208 C216 1.256 . S
O209 Mn204 2.251 . S
O209 C214 1.241 . S
O210 Mn204 2.087 . S
O210 C215 1.256 1_565 S
C211 O217 1.278 . S
C211 O218 1.241 . S
C212 O198 1.244 . S
C212 O200 1.256 . S
C213 O202 1.239 . S
C213 O206 1.256 1_554 S
C214 O203 1.278 1_556 S
C214 O209 1.241 . S
C215 O205 1.244 . S
C215 O210 1.256 1_545 S
C216 O207 1.239 . S
C216 O208 1.256 . S
O217 Mn199 2.221 . S
O217 Mn201 2.290 . S
O217 C211 1.278 . S
O218 Mn201 2.251 . S
O218 C211 1.241 . S
O219 Mn220 2.163 . S
O219 C233 1.244 . S
Mn220 O219 2.163 . S
Mn220 O223 2.160 1_455 S
Mn220 O224 2.221 . S
Mn220 O226 2.163 1_454 S
Mn220 O228 2.160 . S
Mn220 O238 2.221 1_455 S
O221 Mn222 2.087 . S
O221 C233 1.256 . S
Mn222 O221 2.087 . S
Mn222 O229 2.089 . S
Mn222 O238 2.290 1_455 S
Mn222 O239 2.251 1_455 S
O223 Mn220 2.160 1_655 S
O223 C234 1.239 . S
O224 Mn220 2.221 . S
O224 Mn225 2.290 1_554 S
O224 C235 1.278 . S
Mn225 O224 2.290 1_556 S
Mn225 O227 2.089 1_455 S
Mn225 O230 2.251 . S
Mn225 O231 2.087 . S
O226 Mn220 2.163 1_656 S
O226 C236 1.244 . S
O227 Mn225 2.089 1_655 S
O227 C234 1.256 1_556 S
O228 Mn220 2.160 . S
O228 C237 1.239 . S
O229 Mn222 2.089 . S
O229 C237 1.256 . S
O230 Mn225 2.251 . S
O230 C235 1.241 1_556 S
O231 Mn225 2.087 . S
O231 C236 1.256 1_455 S
C232 O238 1.278 . S
C232 O239 1.241 . S
C233 O219 1.244 . S
C233 O221 1.256 . S
C234 O223 1.239 . S
C234 O227 1.256 1_554 S
C235 O224 1.278 . S
C235 O230 1.241 1_554 S
C236 O226 1.244 . S
C236 O231 1.256 1_655 S
C237 O228 1.239 . S
C237 O229 1.256 . S
O238 Mn220 2.221 1_655 S
O238 Mn222 2.290 1_655 S
O238 C232 1.278 . S
O239 Mn222 2.251 1_655 S
O239 C232 1.241 . S
O240 Mn241 2.159 1_554 S
O240 C254 1.250 . S
Mn241 O240 2.159 1_556 S
Mn241 O244 2.165 . S
Mn241 O245 2.212 1_556 S
Mn241 O247 2.129 1_556 S
Mn241 O249 2.195 . S
Mn241 O259 2.233 . S
O242 Mn243 2.087 . S
O242 C254 1.245 1_556 S
Mn243 O242 2.087 . S
Mn243 O250 2.089 . S
Mn243 O259 2.290 . S
Mn243 O260 2.251 . S
O244 Mn241 2.165 . S
O244 C255 1.239 1_556 S
O245 Mn241 2.212 1_554 S
O245 Mn246 2.290 . S
O245 C256 1.278 . S
Mn246 O245 2.290 . S
Mn246 O248 2.089 . S
Mn246 O251 2.251 . S
Mn246 O252 2.087 . S
O247 Mn241 2.129 1_554 S
O247 C257 1.244 . S
O248 Mn246 2.089 . S
O248 C255 1.256 . S
O249 Mn241 2.195 . S
O249 C258 1.239 . S
O250 Mn243 2.089 . S
O250 C258 1.256 . S
O251 Mn246 2.251 . S
O251 C256 1.241 . S
O252 Mn246 2.087 . S
O252 C257 1.256 . S
C253 O259 1.270 1_554 S
C253 O260 1.235 1_554 S
C254 O240 1.250 . S
C254 O242 1.245 1_554 S
C255 O244 1.239 1_554 S
C255 O248 1.256 . S
C256 O245 1.278 . S
C256 O251 1.241 . S
C257 O247 1.244 . S
C257 O252 1.256 . S
C258 O249 1.239 . S
C258 O250 1.256 . S
O259 Mn241 2.233 . S
O259 Mn243 2.290 . S
O259 C253 1.270 1_556 S
O260 Mn243 2.251 . S
O260 C253 1.235 1_556 S
O261 Mn262 2.163 . S
O261 C275 1.244 . S
Mn262 O261 2.163 . S
Mn262 O265 2.160 . S
Mn262 O266 2.221 . S
Mn262 O268 2.163 . S
Mn262 O270 2.160 . S
Mn262 O280 2.221 . S
O263 Mn264 2.087 . S
O263 C275 1.256 . S
Mn264 O263 2.087 . S
Mn264 O271 2.089 . S
Mn264 O280 2.290 . S
Mn264 O281 2.251 . S
O265 Mn262 2.160 . S
O265 C276 1.239 . S
O266 Mn262 2.221 . S
O266 Mn267 2.290 . S
O266 C277 1.278 . S
Mn267 O266 2.290 . S
Mn267 O269 2.089 . S
Mn267 O272 2.251 . S
Mn267 O273 2.087 . S
O268 Mn262 2.163 . S
O268 C278 1.244 . S
O269 Mn267 2.089 . S
O269 C276 1.256 . S
O270 Mn262 2.160 . S
O270 C279 1.239 . S
O271 Mn264 2.089 . S
O271 C279 1.256 . S
O272 Mn267 2.251 . S
O272 C277 1.241 . S
O273 Mn267 2.087 . S
O273 C278 1.256 . S
C274 O280 1.278 . S
C274 O281 1.241 . S
C275 O261 1.244 . S
C275 O263 1.256 . S
C276 O265 1.239 . S
C276 O269 1.256 . S
C277 O266 1.278 . S
C277 O272 1.241 . S
C278 O268 1.244 . S
C278 O273 1.256 . S
C279 O270 1.239 . S
C279 O271 1.256 . S
O280 Mn262 2.221 . S
O280 Mn264 2.290 . S
O280 C274 1.278 . S
O281 Mn264 2.251 . S
O281 C274 1.241 . S
O282 Mn283 2.163 . S
O282 C296 1.244 . S
Mn283 O282 2.163 . S
Mn283 O286 2.160 . S
Mn283 O287 2.221 . S
Mn283 O289 2.163 . S
Mn283 O291 2.160 . S
Mn283 O301 2.221 . S
O284 Mn285 2.087 . S
O284 C296 1.256 . S
Mn285 O284 2.087 . S
Mn285 O292 2.089 . S
Mn285 O301 2.290 . S
Mn285 O302 2.251 . S
O286 Mn283 2.160 . S
O286 C297 1.239 . S
O287 Mn283 2.221 . S
O287 Mn288 2.290 . S
O287 C298 1.278 . S
Mn288 O287 2.290 . S
Mn288 O290 2.089 . S
Mn288 O293 2.251 . S
Mn288 O294 2.087 . S
O289 Mn283 2.163 . S
O289 C299 1.244 . S
O290 Mn288 2.089 . S
O290 C297 1.256 . S
O291 Mn283 2.160 . S
O291 C300 1.239 . S
O292 Mn285 2.089 . S
O292 C300 1.256 . S
O293 Mn288 2.251 . S
O293 C298 1.241 . S
O294 Mn288 2.087 . S
O294 C299 1.256 . S
C295 O301 1.278 . S
C295 O302 1.241 . S
C296 O282 1.244 . S
C296 O284 1.256 . S
C297 O286 1.239 . S
C297 O290 1.256 . S
C298 O287 1.278 . S
C298 O293 1.241 . S
C299 O289 1.244 . S
C299 O294 1.256 . S
C300 O291 1.239 . S
C300 O292 1.256 . S
O301 Mn283 2.221 . S
O301 Mn285 2.290 . S
O301 C295 1.278 . S
O302 Mn285 2.251 . S
O302 C295 1.241 . S
O303 Mn304 2.163 . S
O303 C317 1.244 . S
Mn304 O303 2.163 . S
Mn304 O307 2.160 . S
Mn304 O308 2.221 . S
Mn304 O310 2.163 . S
Mn304 O312 2.160 . S
Mn304 O322 2.221 . S
O305 Mn306 2.087 . S
O305 C317 1.256 . S
Mn306 O305 2.087 . S
Mn306 O313 2.089 . S
Mn306 O322 2.290 . S
Mn306 O323 2.251 . S
O307 Mn304 2.160 . S
O307 C318 1.239 . S
O308 Mn304 2.221 . S
O308 Mn309 2.290 . S
O308 C319 1.278 . S
Mn309 O308 2.290 . S
Mn309 O311 2.089 . S
Mn309 O314 2.251 . S
Mn309 O315 2.087 . S
O310 Mn304 2.163 . S
O310 C320 1.244 . S
O311 Mn309 2.089 . S
O311 C318 1.256 . S
O312 Mn304 2.160 . S
O312 C321 1.239 . S
O313 Mn306 2.089 . S
O313 C321 1.256 . S
O314 Mn309 2.251 . S
O314 C319 1.241 . S
O315 Mn309 2.087 . S
O315 C320 1.256 . S
C316 O322 1.278 . S
C316 O323 1.241 . S
C317 O303 1.244 . S
C317 O305 1.256 . S
C318 O307 1.239 . S
C318 O311 1.256 . S
C319 O308 1.278 . S
C319 O314 1.241 . S
C320 O310 1.244 . S
C320 O315 1.256 . S
C321 O312 1.239 . S
C321 O313 1.256 . S
O322 Mn304 2.221 . S
O322 Mn306 2.290 . S
O322 C316 1.278 . S
O323 Mn306 2.251 . S
O323 C316 1.241 . S
O324 Mn325 2.163 . S
O324 C338 1.244 . S
Mn325 O324 2.163 . S
Mn325 O328 2.160 . S
Mn325 O329 2.221 . S
Mn325 O331 2.163 . S
Mn325 O333 2.160 . S
Mn325 O343 2.221 . S
O326 Mn327 2.087 . S
O326 C338 1.256 . S
Mn327 O326 2.087 . S
Mn327 O334 2.089 . S
Mn327 O343 2.290 . S
Mn327 O344 2.251 . S
O328 Mn325 2.160 . S
O328 C339 1.239 . S
O329 Mn325 2.221 . S
O329 Mn330 2.290 . S
O329 C340 1.278 . S
Mn330 O329 2.290 . S
Mn330 O332 2.089 . S
Mn330 O335 2.251 . S
Mn330 O336 2.087 . S
O331 Mn325 2.163 . S
O331 C341 1.244 . S
O332 Mn330 2.089 . S
O332 C339 1.256 . S
O333 Mn325 2.160 . S
O333 C342 1.239 . S
O334 Mn327 2.089 . S
O334 C342 1.256 . S
O335 Mn330 2.251 . S
O335 C340 1.241 . S
O336 Mn330 2.087 . S
O336 C341 1.256 . S
C337 O343 1.278 . S
C337 O344 1.241 . S
C338 O324 1.244 . S
C338 O326 1.256 . S
C339 O328 1.239 . S
C339 O332 1.256 . S
C340 O329 1.278 . S
C340 O335 1.241 . S
C341 O331 1.244 . S
C341 O336 1.256 . S
C342 O333 1.239 . S
C342 O334 1.256 . S
O343 Mn325 2.221 . S
O343 Mn327 2.290 . S
O343 C337 1.278 . S
O344 Mn327 2.251 . S
O344 C337 1.241 . S
O345 Mn346 2.163 . S
O345 C359 1.244 . S
Mn346 O345 2.163 . S
Mn346 O349 2.160 . S
Mn346 O350 2.221 . S
Mn346 O352 2.163 . S
Mn346 O354 2.160 . S
Mn346 O364 2.221 . S
O347 Mn348 2.087 . S
O347 C359 1.256 . S
Mn348 O347 2.087 . S
Mn348 O355 2.089 . S
Mn348 O364 2.290 . S
Mn348 O365 2.251 . S
O349 Mn346 2.160 . S
O349 C360 1.239 . S
O350 Mn346 2.221 . S
O350 Mn351 2.290 . S
O350 C361 1.278 . S
Mn351 O350 2.290 . S
Mn351 O353 2.089 . S
Mn351 O356 2.251 . S
Mn351 O357 2.087 . S
O352 Mn346 2.163 . S
O352 C362 1.244 . S
O353 Mn351 2.089 . S
O353 C360 1.256 . S
O354 Mn346 2.160 . S
O354 C363 1.239 . S
O355 Mn348 2.089 . S
O355 C363 1.256 . S
O356 Mn351 2.251 . S
O356 C361 1.241 . S
O357 Mn351 2.087 . S
O357 C362 1.256 . S
C358 O364 1.278 . S
C358 O365 1.241 . S
C359 O345 1.244 . S
C359 O347 1.256 . S
C360 O349 1.239 . S
C360 O353 1.256 . S
C361 O350 1.278 . S
C361 O356 1.241 . S
C362 O352 1.244 . S
C362 O357 1.256 . S
C363 O354 1.239 . S
C363 O355 1.256 . S
O364 Mn346 2.221 . S
O364 Mn348 2.290 . S
O364 C358 1.278 . S
O365 Mn348 2.251 . S
O365 C358 1.241 . S
O366 Mn367 2.163 . S
O366 C380 1.244 . S
Mn367 O366 2.163 . S
Mn367 O370 2.160 . S
Mn367 O371 2.221 . S
Mn367 O373 2.163 . S
Mn367 O375 2.160 . S
Mn367 O385 2.221 . S
O368 Mn369 2.087 . S
O368 C380 1.256 . S
Mn369 O368 2.087 . S
Mn369 O376 2.089 . S
Mn369 O385 2.290 . S
Mn369 O386 2.251 . S
O370 Mn367 2.160 . S
O370 C381 1.239 . S
O371 Mn367 2.221 . S
O371 Mn372 2.290 . S
O371 C382 1.278 . S
Mn372 O371 2.290 . S
Mn372 O374 2.089 . S
Mn372 O377 2.251 . S
Mn372 O378 2.087 . S
O373 Mn367 2.163 . S
O373 C383 1.244 . S
O374 Mn372 2.089 . S
O374 C381 1.256 . S
O375 Mn367 2.160 . S
O375 C384 1.239 . S
O376 Mn369 2.089 . S
O376 C384 1.256 . S
O377 Mn372 2.251 . S
O377 C382 1.241 . S
O378 Mn372 2.087 . S
O378 C383 1.256 . S
C379 O385 1.278 . S
C379 O386 1.241 . S
C380 O366 1.244 . S
C380 O368 1.256 . S
C381 O370 1.239 . S
C381 O374 1.256 . S
C382 O371 1.278 . S
C382 O377 1.241 . S
C383 O373 1.244 . S
C383 O378 1.256 . S
C384 O375 1.239 . S
C384 O376 1.256 . S
O385 Mn367 2.221 . S
O385 Mn369 2.290 . S
O385 C379 1.278 . S
O386 Mn369 2.251 . S
O386 C379 1.241 . S
C387 C388 1.391 1_554 S
C387 C389 1.394 . S
C387 H403 0.931 . S
C388 C387 1.391 1_556 S
C388 C392 1.376 . S
C389 C387 1.394 . S
C389 C390 1.369 . S
C389 C393 1.531 . S
C390 C389 1.369 . S
C390 C391 1.411 . S
C390 C398 1.503 . S
C391 C390 1.411 . S
C391 C392 1.391 1_554 S
C391 C394 1.511 1_554 S
C392 C388 1.376 . S
C392 C391 1.391 1_556 S
C392 H404 0.929 . S
C393 C389 1.531 . S
C393 H405 0.960 . S
C393 H406 0.959 1_554 S
C393 H407 0.960 . S
C394 C391 1.511 1_556 S
C394 H408 0.961 . S
C394 H409 0.961 . S
C394 H410 0.961 1_556 S
C395 C396 1.370 1_556 S
C395 C397 1.363 . S
C395 H411 0.931 . S
C396 C395 1.370 1_554 S
C396 C400 1.408 . S
C397 C395 1.363 . S
C397 C398 1.370 1_556 S
C397 C401 1.524 . S
C398 C390 1.503 . S
C398 C397 1.370 1_554 S
C398 C399 1.403 . S
C399 C398 1.403 . S
C399 C400 1.404 . S
C399 C402 1.539 . S
C400 C396 1.408 . S
C400 C399 1.404 . S
C400 H412 0.930 . S
C401 C397 1.524 . S
C401 H413 0.956 . S
C401 H414 0.961 . S
C401 H415 0.961 . S
C402 C399 1.539 . S
C402 H416 0.958 . S
C402 H417 0.961 . S
C402 H418 0.960 . S
H403 C387 0.931 . S
H404 C392 0.929 . S
H405 C393 0.960 . S
H406 C393 0.959 1_556 S
H407 C393 0.960 . S
H408 C394 0.961 . S
H409 C394 0.961 . S
H410 C394 0.961 1_554 S
H411 C395 0.931 . S
H412 C400 0.930 . S
H413 C401 0.956 . S
H414 C401 0.961 . S
H415 C401 0.961 . S
H416 C402 0.958 . S
H417 C402 0.961 . S
H418 C402 0.960 . S
C419 C420 1.391 1_556 S
C419 C421 1.394 . S
C419 H435 0.931 . S
C420 C419 1.391 1_554 S
C420 C424 1.376 . S
C421 C419 1.394 . S
C421 C422 1.369 1_556 S
C421 C425 1.531 . S
C422 C421 1.369 1_554 S
C422 C423 1.410 . S
C422 C430 1.503 . S
C423 C422 1.410 . S
C423 C424 1.392 . S
C423 C426 1.511 . S
C424 C420 1.376 . S
C424 C423 1.392 . S
C424 H436 0.929 . S
C425 C421 1.531 . S
C425 H437 0.960 . S
C425 H438 0.962 . S
C425 H439 0.960 . S
C426 C423 1.511 . S
C426 H440 0.961 . S
C426 H441 0.961 . S
C426 H442 0.961 . S
C427 C428 1.370 . S
C427 C429 1.363 . S
C427 H443 0.931 . S
C428 C427 1.370 . S
C428 C432 1.408 . S
C429 C427 1.363 . S
C429 C430 1.370 . S
C429 C433 1.524 . S
C430 C422 1.503 . S
C430 C429 1.370 . S
C430 C431 1.403 . S
C431 C430 1.403 . S
C431 C432 1.404 . S
C431 C434 1.539 . S
C432 C428 1.408 . S
C432 C431 1.404 . S
C432 H444 0.930 . S
C433 C429 1.524 . S
C433 H445 0.956 1_554 S
C433 H446 0.961 . S
C433 H447 0.961 . S
C434 C431 1.539 . S
C434 H448 0.971 . S
C434 H449 0.961 . S
C434 H450 0.960 . S
H435 C419 0.931 . S
H436 C424 0.929 . S
H437 C425 0.960 . S
H438 C425 0.962 . S
H439 C425 0.960 . S
H440 C426 0.961 . S
H441 C426 0.961 . S
H442 C426 0.961 . S
H443 C427 0.931 . S
H444 C432 0.930 . S
H445 C433 0.956 1_556 S
H446 C433 0.961 . S
H447 C433 0.961 . S
H448 C434 0.971 . S
H449 C434 0.961 . S
H450 C434 0.960 . S
C451 C452 1.384 1_556 S
C451 C453 1.391 1_556 S
C451 H467 0.941 . S
C452 C451 1.384 1_554 S
C452 C456 1.376 . S
C453 C451 1.391 1_554 S
C453 C454 1.369 . S
C453 C457 1.531 1_554 S
C454 C453 1.369 . S
C454 C455 1.410 . S
C454 C462 1.503 . S
C455 C454 1.410 . S
C455 C456 1.392 . S
C455 C458 1.511 . S
C456 C452 1.376 . S
C456 C455 1.392 . S
C456 H468 0.929 . S
C457 C453 1.531 1_556 S
C457 H469 0.960 . S
C457 H470 0.962 . S
C457 H471 0.960 . S
C458 C455 1.511 . S
C458 H472 0.961 . S
C458 H473 0.961 . S
C458 H474 0.961 . S
C459 C460 1.370 1_556 S
C459 C461 1.363 . S
C459 H475 0.931 . S
C460 C459 1.370 1_554 S
C460 C464 1.408 . S
C461 C459 1.363 . S
C461 C462 1.370 1_556 S
C461 C465 1.524 . S
C462 C454 1.503 . S
C462 C461 1.370 1_554 S
C462 C463 1.403 . S
C463 C462 1.403 . S
C463 C464 1.404 . S
C463 C466 1.539 . S
C464 C460 1.408 . S
C464 C463 1.404 . S
C464 H476 0.930 . S
C465 C461 1.524 . S
C465 H477 0.956 . S
C465 H478 0.961 . S
C465 H479 0.961 . S
C466 C463 1.539 . S
C466 H480 0.958 . S
C466 H481 0.961 . S
C466 H482 0.960 . S
H467 C451 0.941 . S
H468 C456 0.929 . S
H469 C457 0.960 . S
H470 C457 0.962 . S
H471 C457 0.960 . S
H472 C458 0.961 . S
H473 C458 0.961 . S
H474 C458 0.961 . S
H475 C459 0.931 . S
H476 C464 0.930 . S
H477 C465 0.956 . S
H478 C465 0.961 . S
H479 C465 0.961 . S
H480 C466 0.958 . S
H481 C466 0.961 . S
H482 C466 0.960 . S
C483 C484 1.391 1_556 S
C483 C485 1.394 . S
C483 H499 0.931 . S
C484 C483 1.391 1_554 S
C484 C488 1.376 . S
C485 C483 1.394 . S
C485 C486 1.369 1_556 S
C485 C489 1.531 . S
C486 C485 1.369 1_554 S
C486 C487 1.410 . S
C486 C494 1.503 . S
C487 C486 1.410 . S
C487 C488 1.392 . S
C487 C490 1.511 . S
C488 C484 1.376 . S
C488 C487 1.392 . S
C488 H500 0.929 . S
C489 C485 1.531 . S
C489 H501 0.960 . S
C489 H502 0.962 . S
C489 H503 0.960 . S
C490 C487 1.511 . S
C490 H504 0.961 . S
C490 H505 0.961 . S
C490 H506 0.961 . S
C491 C492 1.370 . S
C491 C493 1.363 . S
C491 H507 0.931 . S
C492 C491 1.370 . S
C492 C496 1.408 . S
C493 C491 1.363 . S
C493 C494 1.370 . S
C493 C497 1.524 . S
C494 C486 1.503 . S
C494 C493 1.370 . S
C494 C495 1.403 . S
C495 C494 1.403 . S
C495 C496 1.404 . S
C495 C498 1.539 . S
C496 C492 1.408 . S
C496 C495 1.404 . S
C496 H508 0.930 . S
C497 C493 1.524 . S
C497 H509 0.956 1_554 S
C497 H510 0.961 . S
C497 H511 0.961 . S
C498 C495 1.539 . S
C498 H512 0.958 1_554 S
C498 H513 0.961 . S
C498 H514 0.960 . S
H499 C483 0.931 . S
H500 C488 0.929 . S
H501 C489 0.960 . S
H502 C489 0.962 . S
H503 C489 0.960 . S
H504 C490 0.961 . S
H505 C490 0.961 . S
H506 C490 0.961 . S
H507 C491 0.931 . S
H508 C496 0.930 . S
H509 C497 0.956 1_556 S
H510 C497 0.961 . S
H511 C497 0.961 . S
H512 C498 0.958 1_556 S
H513 C498 0.961 . S
H514 C498 0.960 . S
C515 C516 1.391 1_556 S
C515 C517 1.394 . S
C515 H531 0.931 . S
C516 C515 1.391 1_554 S
C516 C520 1.376 . S
C517 C515 1.394 . S
C517 C518 1.369 1_556 S
C517 C521 1.531 . S
C518 C517 1.369 1_554 S
C518 C519 1.410 . S
C518 C526 1.503 . S
C519 C518 1.410 . S
C519 C520 1.392 . S
C519 C522 1.511 . S
C520 C516 1.376 . S
C520 C519 1.392 . S
C520 H532 0.929 . S
C521 C517 1.531 . S
C521 H533 0.960 . S
C521 H534 0.962 . S
C521 H535 0.960 . S
C522 C519 1.511 . S
C522 H536 0.961 . S
C522 H537 0.961 . S
C522 H538 0.961 . S
C523 C524 1.370 . S
C523 C525 1.363 . S
C523 H539 0.931 . S
C524 C523 1.370 . S
C524 C528 1.408 1_554 S
C525 C523 1.363 . S
C525 C526 1.370 . S
C525 C529 1.524 . S
C526 C518 1.503 . S
C526 C525 1.370 . S
C526 C527 1.403 1_554 S
C527 C526 1.403 1_556 S
C527 C528 1.404 . S
C527 C530 1.539 . S
C528 C524 1.408 1_556 S
C528 C527 1.404 . S
C528 H540 0.930 . S
C529 C525 1.524 . S
C529 H541 0.956 . S
C529 H542 0.961 . S
C529 H543 0.961 . S
C530 C527 1.539 . S
C530 H544 0.958 . S
C530 H545 0.961 . S
C530 H546 0.960 . S
H531 C515 0.931 . S
H532 C520 0.929 . S
H533 C521 0.960 . S
H534 C521 0.962 . S
H535 C521 0.960 . S
H536 C522 0.961 . S
H537 C522 0.961 . S
H538 C522 0.961 . S
H539 C523 0.931 . S
H540 C528 0.930 . S
H541 C529 0.956 . S
H542 C529 0.961 . S
H543 C529 0.961 . S
H544 C530 0.958 . S
H545 C530 0.961 . S
H546 C530 0.960 . S
C547 C548 1.391 . S
C547 C549 1.394 . S
C547 H563 0.931 . S
C548 C547 1.391 . S
C548 C552 1.376 . S
C549 C547 1.394 . S
C549 C550 1.369 . S
C549 C553 1.531 . S
C550 C549 1.369 . S
C550 C551 1.410 . S
C550 C558 1.503 . S
C551 C550 1.410 . S
C551 C552 1.392 . S
C551 C554 1.511 . S
C552 C548 1.376 . S
C552 C551 1.392 . S
C552 H564 0.929 . S
C553 C549 1.531 . S
C553 H565 0.960 1_554 S
C553 H566 0.962 . S
C553 H567 0.960 1_554 S
C554 C551 1.511 . S
C554 H568 0.961 . S
C554 H569 0.961 . S
C554 H570 0.961 . S
C555 C556 1.370 . S
C555 C557 1.363 . S
C555 H571 0.931 . S
C556 C555 1.370 . S
C556 C560 1.408 1_554 S
C557 C555 1.363 . S
C557 C558 1.370 . S
C557 C561 1.524 . S
C558 C550 1.503 . S
C558 C557 1.370 . S
C558 C559 1.403 1_554 S
C559 C558 1.403 1_556 S
C559 C560 1.404 . S
C559 C562 1.539 . S
C560 C556 1.408 1_556 S
C560 C559 1.404 . S
C560 H572 0.930 . S
C561 C557 1.524 . S
C561 H573 0.956 . S
C561 H574 0.961 . S
C561 H575 0.961 . S
C562 C559 1.539 . S
C562 H576 0.958 . S
C562 H577 0.961 . S
C562 H578 0.960 . S
H563 C547 0.931 . S
H564 C552 0.929 . S
H565 C553 0.960 1_556 S
H566 C553 0.962 . S
H567 C553 0.960 1_556 S
H568 C554 0.961 . S
H569 C554 0.961 . S
H570 C554 0.961 . S
H571 C555 0.931 . S
H572 C560 0.930 . S
H573 C561 0.956 . S
H574 C561 0.961 . S
H575 C561 0.961 . S
H576 C562 0.958 . S
H577 C562 0.961 . S
H578 C562 0.960 . S
C579 C580 1.391 1_556 S
C579 C581 1.394 . S
C579 H595 0.931 . S
C580 C579 1.391 1_554 S
C580 C584 1.376 . S
C581 C579 1.394 . S
C581 C582 1.369 1_556 S
C581 C585 1.531 . S
C582 C581 1.369 1_554 S
C582 C583 1.410 . S
C582 C590 1.503 . S
C583 C582 1.410 . S
C583 C584 1.392 . S
C583 C586 1.511 . S
C584 C580 1.376 . S
C584 C583 1.392 . S
C584 H596 0.929 . S
C585 C581 1.531 . S
C585 H597 0.960 . S
C585 H598 0.962 . S
C585 H599 0.960 . S
C586 C583 1.511 . S
C586 H600 0.961 . S
C586 H601 0.961 . S
C586 H602 0.961 . S
C587 C588 1.370 . S
C587 C589 1.363 . S
C587 H603 0.931 . S
C588 C587 1.370 . S
C588 C592 1.408 1_554 S
C589 C587 1.363 . S
C589 C590 1.370 . S
C589 C593 1.524 . S
C590 C582 1.503 . S
C590 C589 1.370 . S
C590 C591 1.403 1_554 S
C591 C590 1.403 1_556 S
C591 C592 1.404 . S
C591 C594 1.539 . S
C592 C588 1.408 1_556 S
C592 C591 1.404 . S
C592 H604 0.930 . S
C593 C589 1.524 . S
C593 H605 0.956 . S
C593 H606 0.961 . S
C593 H607 0.961 . S
C594 C591 1.539 . S
C594 H608 0.958 . S
C594 H609 0.961 . S
C594 H610 0.960 . S
H595 C579 0.931 . S
H596 C584 0.929 . S
H597 C585 0.960 . S
H598 C585 0.962 . S
H599 C585 0.960 . S
H600 C586 0.961 . S
H601 C586 0.961 . S
H602 C586 0.961 . S
H603 C587 0.931 . S
H604 C592 0.930 . S
H605 C593 0.956 . S
H606 C593 0.961 . S
H607 C593 0.961 . S
H608 C594 0.958 . S
H609 C594 0.961 . S
H610 C594 0.960 . S
C611 C612 1.391 . S
C611 C613 1.394 . S
C611 H627 0.931 . S
C612 C611 1.391 . S
C612 C616 1.376 . S
C613 C611 1.394 . S
C613 C614 1.369 . S
C613 C617 1.531 . S
C614 C613 1.369 . S
C614 C615 1.410 . S
C614 C622 1.503 . S
C615 C614 1.410 . S
C615 C616 1.392 . S
C615 C618 1.511 . S
C616 C612 1.376 . S
C616 C615 1.392 . S
C616 H628 0.929 . S
C617 C613 1.531 . S
C617 H629 0.960 . S
C617 H630 0.962 . S
C617 H631 0.960 . S
C618 C615 1.511 . S
C618 H632 0.961 . S
C618 H633 0.961 . S
C618 H634 0.961 . S
C619 C620 1.370 . S
C619 C621 1.363 . S
C619 H635 0.931 1_554 S
C620 C619 1.370 . S
C620 C624 1.408 . S
C621 C619 1.363 . S
C621 C622 1.370 . S
C621 C625 1.524 1_554 S
C622 C614 1.503 . S
C622 C621 1.370 . S
C622 C623 1.403 . S
C623 C622 1.403 . S
C623 C624 1.404 . S
C623 C626 1.539 . S
C624 C620 1.408 . S
C624 C623 1.404 . S
C624 H636 0.930 . S
C625 C621 1.524 1_556 S
C625 H637 0.956 . S
C625 H638 0.961 . S
C625 H639 0.961 . S
C626 C623 1.539 . S
C626 H640 0.958 . S
C626 H641 0.961 . S
C626 H642 0.960 . S
H627 C611 0.931 . S
H628 C616 0.929 . S
H629 C617 0.960 . S
H630 C617 0.962 . S
H631 C617 0.960 . S
H632 C618 0.961 . S
H633 C618 0.961 . S
H634 C618 0.961 . S
H635 C619 0.931 1_556 S
H636 C624 0.930 . S
H637 C625 0.956 . S
H638 C625 0.961 . S
H639 C625 0.961 . S
H640 C626 0.958 . S
H641 C626 0.961 . S
H642 C626 0.960 . S
C643 C644 1.391 1_556 S
C643 C645 1.394 . S
C643 H659 0.931 . S
C644 C643 1.391 1_554 S
C644 C648 1.376 . S
C645 C643 1.394 . S
C645 C646 1.369 1_556 S
C645 C649 1.531 . S
C646 C645 1.369 1_554 S
C646 C647 1.410 . S
C646 C654 1.503 . S
C647 C646 1.410 . S
C647 C648 1.392 . S
C647 C650 1.511 . S
C648 C644 1.376 . S
C648 C647 1.392 . S
C648 H660 0.929 . S
C649 C645 1.531 . S
C649 H661 0.960 . S
C649 H662 0.962 . S
C649 H663 0.960 . S
C650 C647 1.511 . S
C650 H664 0.961 . S
C650 H665 0.961 . S
C650 H666 0.961 . S
C651 C652 1.370 . S
C651 C653 1.363 . S
C651 H667 0.931 . S
C652 C651 1.370 . S
C652 C656 1.408 1_554 S
C653 C651 1.363 . S
C653 C654 1.370 . S
C653 C657 1.524 . S
C654 C646 1.503 . S
C654 C653 1.370 . S
C654 C655 1.403 1_554 S
C655 C654 1.403 1_556 S
C655 C656 1.404 . S
C655 C658 1.539 . S
C656 C652 1.408 1_556 S
C656 C655 1.404 . S
C656 H668 0.930 . S
C657 C653 1.524 . S
C657 H669 0.956 . S
C657 H670 0.961 . S
C657 H671 0.961 . S
C658 C655 1.539 . S
C658 H672 0.958 . S
C658 H673 0.961 . S
C658 H674 0.960 . S
H659 C643 0.931 . S
H660 C648 0.929 . S
H661 C649 0.960 . S
H662 C649 0.962 . S
H663 C649 0.960 . S
H664 C650 0.961 . S
H665 C650 0.961 . S
H666 C650 0.961 . S
H667 C651 0.931 . S
H668 C656 0.930 . S
H669 C657 0.956 . S
H670 C657 0.961 . S
H671 C657 0.961 . S
H672 C658 0.958 . S
H673 C658 0.961 . S
H674 C658 0.960 . S
C675 C676 1.391 . S
C675 C677 1.394 . S
C675 H691 0.931 . S
C676 C675 1.391 . S
C676 C680 1.376 1_554 S
C677 C675 1.394 . S
C677 C678 1.369 . S
C677 C681 1.531 . S
C678 C677 1.369 . S
C678 C679 1.410 1_554 S
C678 C686 1.503 . S
C679 C678 1.410 1_556 S
C679 C680 1.392 . S
C679 C682 1.511 . S
C680 C676 1.376 1_556 S
C680 C679 1.392 . S
C680 H692 0.929 . S
C681 C677 1.531 . S
C681 H693 0.960 . S
C681 H694 0.962 . S
C681 H695 0.960 . S
C682 C679 1.511 . S
C682 H696 0.961 . S
C682 H697 0.961 . S
C682 H698 0.961 . S
C683 C684 1.370 1_556 S
C683 C685 1.363 . S
C683 H699 0.931 . S
C684 C683 1.370 1_554 S
C684 C688 1.408 . S
C685 C683 1.363 . S
C685 C686 1.370 1_556 S
C685 C689 1.524 . S
C686 C678 1.503 . S
C686 C685 1.370 1_554 S
C686 C687 1.403 . S
C687 C686 1.403 . S
C687 C688 1.404 . S
C687 C690 1.539 . S
C688 C684 1.408 . S
C688 C687 1.404 . S
C688 H700 0.930 . S
C689 C685 1.524 . S
C689 H701 0.956 . S
C689 H702 0.961 . S
C689 H703 0.961 . S
C690 C687 1.539 . S
C690 H704 0.958 . S
C690 H705 0.961 . S
C690 H706 0.960 . S
H691 C675 0.931 . S
H692 C680 0.929 . S
H693 C681 0.960 . S
H694 C681 0.962 . S
H695 C681 0.960 . S
H696 C682 0.961 . S
H697 C682 0.961 . S
H698 C682 0.961 . S
H699 C683 0.931 . S
H700 C688 0.930 . S
H701 C689 0.956 . S
H702 C689 0.961 . S
H703 C689 0.961 . S
H704 C690 0.958 . S
H705 C690 0.961 . S
H706 C690 0.960 . S
C707 C708 1.422 . S
C707 C709 1.394 . S
C707 H723 0.931 . S
C708 C707 1.422 . S
C708 C712 1.345 1_556 S
C709 C707 1.394 . S
C709 C710 1.369 1_556 S
C709 C713 1.531 . S
C710 C709 1.369 1_554 S
C710 C711 1.410 . S
C710 C718 1.505 . S
C711 C710 1.410 . S
C711 C712 1.392 . S
C711 C714 1.511 . S
C712 C708 1.345 1_554 S
C712 C711 1.392 . S
C712 H724 0.929 . S
C713 C709 1.531 . S
C713 H725 0.960 . S
C713 H726 0.962 . S
C713 H727 0.960 . S
C714 C711 1.511 . S
C714 H728 0.961 . S
C714 H729 0.961 . S
C714 H730 0.961 . S
C715 C716 1.381 . S
C715 C717 1.363 . S
C715 H731 0.931 . S
C716 C715 1.381 . S
C716 C720 1.396 1_556 S
C717 C715 1.363 . S
C717 C718 1.360 1_556 S
C717 C721 1.524 . S
C718 C710 1.505 . S
C718 C717 1.360 1_554 S
C718 C719 1.412 . S
C719 C718 1.412 . S
C719 C720 1.404 . S
C719 C722 1.539 . S
C720 C716 1.396 1_554 S
C720 C719 1.404 . S
C720 H732 0.930 . S
C721 C717 1.524 . S
C721 H733 0.956 . S
C721 H734 0.961 . S
C721 H735 0.961 . S
C722 C719 1.539 . S
C722 H736 0.958 . S
C722 H737 0.961 . S
C722 H738 0.960 . S
H723 C707 0.931 . S
H724 C712 0.929 . S
H725 C713 0.960 . S
H726 C713 0.962 . S
H727 C713 0.960 . S
H728 C714 0.961 . S
H729 C714 0.961 . S
H730 C714 0.961 . S
H731 C715 0.931 . S
H732 C720 0.930 . S
H733 C721 0.956 . S
H734 C721 0.961 . S
H735 C721 0.961 . S
H736 C722 0.958 . S
H737 C722 0.961 . S
H738 C722 0.960 . S
C739 C740 1.391 1_556 S
C739 C741 1.394 . S
C739 H755 0.931 . S
C740 C739 1.391 1_554 S
C740 C744 1.376 . S
C741 C739 1.394 . S
C741 C742 1.369 . S
C741 C745 1.531 . S
C742 C741 1.369 . S
C742 C743 1.410 1_556 S
C742 C750 1.503 . S
C743 C742 1.410 1_554 S
C743 C744 1.392 . S
C743 C746 1.511 . S
C744 C740 1.376 . S
C744 C743 1.392 . S
C744 H756 0.929 . S
C745 C741 1.531 . S
C745 H757 0.960 . S
C745 H758 0.962 . S
C745 H759 0.960 . S
C746 C743 1.511 . S
C746 H760 0.961 . S
C746 H761 0.961 . S
C746 H762 0.961 . S
C747 C748 1.370 . S
C747 C749 1.363 . S
C747 H763 0.931 . S
C748 C747 1.370 . S
C748 C752 1.408 1_554 S
C749 C747 1.363 . S
C749 C750 1.369 1_554 S
C749 C753 1.524 . S
C750 C742 1.503 . S
C750 C749 1.369 1_556 S
C750 C751 1.404 . S
C751 C750 1.404 . S
C751 C752 1.404 . S
C751 C754 1.539 . S
C752 C748 1.408 1_556 S
C752 C751 1.404 . S
C752 H764 0.930 . S
C753 C749 1.524 . S
C753 H765 0.956 . S
C753 H766 0.961 . S
C753 H767 0.961 . S
C754 C751 1.539 . S
C754 H768 0.958 . S
C754 H769 0.961 . S
C754 H770 0.960 . S
H755 C739 0.931 . S
H756 C744 0.929 . S
H757 C745 0.960 . S
H758 C745 0.962 . S
H759 C745 0.960 . S
H760 C746 0.961 . S
H761 C746 0.961 . S
H762 C746 0.961 . S
H763 C747 0.931 . S
H764 C752 0.930 . S
H765 C753 0.956 . S
H766 C753 0.961 . S
H767 C753 0.961 . S
H768 C754 0.958 . S
H769 C754 0.961 . S
H770 C754 0.960 . S
C771 C772 1.391 . S
C771 C773 1.394 1_655 S
C771 H787 0.931 . S
C772 C771 1.391 . S
C772 C776 1.376 . S
C773 C771 1.394 1_455 S
C773 C774 1.369 . S
C773 C777 1.531 . S
C774 C773 1.369 . S
C774 C775 1.410 . S
C774 C782 1.503 . S
C775 C774 1.410 . S
C775 C776 1.392 1_455 S
C775 C778 1.511 . S
C776 C772 1.376 . S
C776 C775 1.392 1_655 S
C776 H788 0.929 . S
C777 C773 1.531 . S
C777 H789 0.960 . S
C777 H790 0.962 . S
C777 H791 0.960 . S
C778 C775 1.511 . S
C778 H792 0.961 . S
C778 H793 0.961 . S
C778 H794 0.961 . S
C779 C780 1.370 . S
C779 C781 1.363 . S
C779 H795 0.931 . S
C780 C779 1.370 . S
C780 C784 1.408 . S
C781 C779 1.363 . S
C781 C782 1.370 . S
C781 C785 1.524 . S
C782 C774 1.503 . S
C782 C781 1.370 . S
C782 C783 1.403 . S
C783 C782 1.403 . S
C783 C784 1.404 . S
C783 C786 1.539 . S
C784 C780 1.408 . S
C784 C783 1.404 . S
C784 H796 0.930 . S
C785 C781 1.524 . S
C785 H797 0.956 . S
C785 H798 0.961 . S
C785 H799 0.961 . S
C786 C783 1.539 . S
C786 H800 0.958 . S
C786 H801 0.961 . S
C786 H802 0.960 . S
H787 C771 0.931 . S
H788 C776 0.929 . S
H789 C777 0.960 . S
H790 C777 0.962 . S
H791 C777 0.960 . S
H792 C778 0.961 . S
H793 C778 0.961 . S
H794 C778 0.961 . S
H795 C779 0.931 . S
H796 C784 0.930 . S
H797 C785 0.956 . S
H798 C785 0.961 . S
H799 C785 0.961 . S
H800 C786 0.958 . S
H801 C786 0.961 . S
H802 C786 0.960 . S
C803 C804 1.391 . S
C803 C805 1.394 . S
C803 H819 0.931 . S
C804 C803 1.391 . S
C804 C808 1.376 . S
C805 C803 1.394 . S
C805 C806 1.369 . S
C805 C809 1.531 . S
C806 C805 1.369 . S
C806 C807 1.410 . S
C806 C814 1.503 . S
C807 C806 1.410 . S
C807 C808 1.392 . S
C807 C810 1.511 . S
C808 C804 1.376 . S
C808 C807 1.392 . S
C808 H820 0.929 . S
C809 C805 1.531 . S
C809 H821 0.960 . S
C809 H822 0.962 . S
C809 H823 0.960 . S
C810 C807 1.511 . S
C810 H824 0.961 . S
C810 H825 0.961 . S
C810 H826 0.961 . S
C811 C812 1.370 . S
C811 C813 1.363 . S
C811 H827 0.931 . S
C812 C811 1.370 . S
C812 C816 1.408 . S
C813 C811 1.363 . S
C813 C814 1.370 . S
C813 C817 1.524 . S
C814 C806 1.503 . S
C814 C813 1.370 . S
C814 C815 1.403 . S
C815 C814 1.403 . S
C815 C816 1.404 . S
C815 C818 1.539 . S
C816 C812 1.408 . S
C816 C815 1.404 . S
C816 H828 0.930 . S
C817 C813 1.524 . S
C817 H829 0.956 . S
C817 H830 0.961 . S
C817 H831 0.961 . S
C818 C815 1.539 . S
C818 H832 0.958 . S
C818 H833 0.961 . S
C818 H834 0.960 . S
H819 C803 0.931 . S
H820 C808 0.929 . S
H821 C809 0.960 . S
H822 C809 0.962 . S
H823 C809 0.960 . S
H824 C810 0.961 . S
H825 C810 0.961 . S
H826 C810 0.961 . S
H827 C811 0.931 . S
H828 C816 0.930 . S
H829 C817 0.956 . S
H830 C817 0.961 . S
H831 C817 0.961 . S
H832 C818 0.958 . S
H833 C818 0.961 . S
H834 C818 0.960 . S
C835 C836 1.391 . S
C835 C837 1.394 . S
C835 H851 0.931 . S
C836 C835 1.391 . S
C836 C840 1.376 . S
C837 C835 1.394 . S
C837 C838 1.369 1_545 S
C837 C841 1.512 1_545 S
C838 C837 1.369 1_565 S
C838 C839 1.410 . S
C838 C846 1.503 . S
C839 C838 1.410 . S
C839 C840 1.392 1_565 S
C839 C842 1.511 . S
C840 C836 1.376 . S
C840 C839 1.392 1_545 S
C840 H852 0.929 . S
C841 C837 1.512 1_565 S
C841 H853 0.983 . S
C841 H854 0.968 . S
C841 H855 0.943 1_565 S
C842 C839 1.511 . S
C842 H856 0.961 . S
C842 H857 0.961 . S
C842 H858 0.961 . S
C843 C844 1.370 . S
C843 C845 1.363 . S
C843 H859 0.931 . S
C844 C843 1.370 . S
C844 C848 1.408 . S
C845 C843 1.363 . S
C845 C846 1.370 . S
C845 C849 1.524 . S
C846 C838 1.503 . S
C846 C845 1.370 . S
C846 C847 1.403 . S
C847 C846 1.403 . S
C847 C848 1.404 . S
C847 C850 1.539 . S
C848 C844 1.408 . S
C848 C847 1.404 . S
C848 H860 0.930 . S
C849 C845 1.524 . S
C849 H861 0.956 . S
C849 H862 0.961 . S
C849 H863 0.961 . S
C850 C847 1.539 . S
C850 H864 0.958 . S
C850 H865 0.961 . S
C850 H866 0.960 . S
H851 C835 0.931 . S
H852 C840 0.929 . S
H853 C841 0.983 . S
H854 C841 0.968 . S
H855 C841 0.943 1_545 S
H856 C842 0.961 . S
H857 C842 0.961 . S
H858 C842 0.961 . S
H859 C843 0.931 . S
H860 C848 0.930 . S
H861 C849 0.956 . S
H862 C849 0.961 . S
H863 C849 0.961 . S
H864 C850 0.958 . S
H865 C850 0.961 . S
H866 C850 0.960 . S
C867 C868 1.391 . S
C867 C869 1.394 . S
C867 H883 0.931 . S
C868 C867 1.391 . S
C868 C872 1.376 . S
C869 C867 1.394 . S
C869 C870 1.369 . S
C869 C873 1.531 . S
C870 C869 1.369 . S
C870 C871 1.410 . S
C870 C878 1.503 . S
C871 C870 1.410 . S
C871 C872 1.392 . S
C871 C874 1.511 . S
C872 C868 1.376 . S
C872 C871 1.392 . S
C872 H884 0.929 . S
C873 C869 1.531 . S
C873 H885 0.960 . S
C873 H886 0.962 . S
C873 H887 0.960 . S
C874 C871 1.511 . S
C874 H888 0.961 . S
C874 H889 0.961 . S
C874 H890 0.961 . S
C875 C876 1.370 . S
C875 C877 1.363 . S
C875 H891 0.931 . S
C876 C875 1.370 . S
C876 C880 1.408 . S
C877 C875 1.363 . S
C877 C878 1.370 . S
C877 C881 1.524 . S
C878 C870 1.503 . S
C878 C877 1.370 . S
C878 C879 1.403 . S
C879 C878 1.403 . S
C879 C880 1.404 . S
C879 C882 1.539 . S
C880 C876 1.408 . S
C880 C879 1.404 . S
C880 H892 0.930 . S
C881 C877 1.524 . S
C881 H893 0.956 . S
C881 H894 0.961 . S
C881 H895 0.961 . S
C882 C879 1.539 . S
C882 H896 0.958 . S
C882 H897 0.961 . S
C882 H898 0.960 . S
H883 C867 0.931 . S
H884 C872 0.929 . S
H885 C873 0.960 . S
H886 C873 0.962 . S
H887 C873 0.960 . S
H888 C874 0.961 . S
H889 C874 0.961 . S
H890 C874 0.961 . S
H891 C875 0.931 . S
H892 C880 0.930 . S
H893 C881 0.956 . S
H894 C881 0.961 . S
H895 C881 0.961 . S
H896 C882 0.958 . S
H897 C882 0.961 . S
H898 C882 0.960 . S
C899 C900 1.391 . S
C899 C901 1.394 . S
C899 H915 0.931 . S
C900 C899 1.391 . S
C900 C904 1.376 . S
C901 C899 1.394 . S
C901 C902 1.369 . S
C901 C905 1.531 . S
C902 C901 1.369 . S
C902 C903 1.410 . S
C902 C910 1.503 . S
C903 C902 1.410 . S
C903 C904 1.392 . S
C903 C906 1.511 . S
C904 C900 1.376 . S
C904 C903 1.392 . S
C904 H916 0.929 . S
C905 C901 1.531 . S
C905 H917 0.960 . S
C905 H918 0.962 . S
C905 H919 0.960 . S
C906 C903 1.511 . S
C906 H920 0.961 . S
C906 H921 0.961 . S
C906 H922 0.961 . S
C907 C908 1.370 . S
C907 C909 1.363 . S
C907 H923 0.931 . S
C908 C907 1.370 . S
C908 C912 1.408 . S
C909 C907 1.363 . S
C909 C910 1.370 . S
C909 C913 1.524 . S
C910 C902 1.503 . S
C910 C909 1.370 . S
C910 C911 1.403 . S
C911 C910 1.403 . S
C911 C912 1.404 . S
C911 C914 1.539 . S
C912 C908 1.408 . S
C912 C911 1.404 . S
C912 H924 0.930 . S
C913 C909 1.524 . S
C913 H925 0.956 . S
C913 H926 0.961 . S
C913 H927 0.961 . S
C914 C911 1.539 . S
C914 H928 0.958 . S
C914 H929 0.961 . S
C914 H930 0.960 . S
H915 C899 0.931 . S
H916 C904 0.929 . S
H917 C905 0.960 . S
H918 C905 0.962 . S
H919 C905 0.960 . S
H920 C906 0.961 . S
H921 C906 0.961 . S
H922 C906 0.961 . S
H923 C907 0.931 . S
H924 C912 0.930 . S
H925 C913 0.956 . S
H926 C913 0.961 . S
H927 C913 0.961 . S
H928 C914 0.958 . S
H929 C914 0.961 . S
H930 C914 0.960 . S
C931 C932 1.391 . S
C931 C933 1.394 . S
C931 H947 0.931 . S
C932 C931 1.391 . S
C932 C936 1.376 . S
C933 C931 1.394 . S
C933 C934 1.369 . S
C933 C937 1.531 . S
C934 C933 1.369 . S
C934 C935 1.410 . S
C934 C942 1.503 . S
C935 C934 1.410 . S
C935 C936 1.392 . S
C935 C938 1.511 . S
C936 C932 1.376 . S
C936 C935 1.392 . S
C936 H948 0.929 . S
C937 C933 1.531 . S
C937 H949 0.960 . S
C937 H950 0.962 . S
C937 H951 0.960 . S
C938 C935 1.511 . S
C938 H952 0.961 . S
C938 H953 0.961 . S
C938 H954 0.961 . S
C939 C940 1.370 . S
C939 C941 1.363 . S
C939 H955 0.931 . S
C940 C939 1.370 . S
C940 C944 1.408 . S
C941 C939 1.363 . S
C941 C942 1.370 . S
C941 C945 1.524 . S
C942 C934 1.503 . S
C942 C941 1.370 . S
C942 C943 1.403 . S
C943 C942 1.403 . S
C943 C944 1.404 . S
C943 C946 1.539 . S
C944 C940 1.408 . S
C944 C943 1.404 . S
C944 H956 0.930 . S
C945 C941 1.524 . S
C945 H957 0.956 . S
C945 H958 0.961 . S
C945 H959 0.961 . S
C946 C943 1.539 . S
C946 H960 0.958 . S
C946 H961 0.961 . S
C946 H962 0.960 . S
H947 C931 0.931 . S
H948 C936 0.929 . S
H949 C937 0.960 . S
H950 C937 0.962 . S
H951 C937 0.960 . S
H952 C938 0.961 . S
H953 C938 0.961 . S
H954 C938 0.961 . S
H955 C939 0.931 . S
H956 C944 0.930 . S
H957 C945 0.956 . S
H958 C945 0.961 . S
H959 C945 0.961 . S
H960 C946 0.958 . S
H961 C946 0.961 . S
H962 C946 0.960 . S
C963 C964 1.391 . S
C963 C965 1.394 . S
C963 H979 0.931 . S
C964 C963 1.391 . S
C964 C968 1.376 . S
C965 C963 1.394 . S
C965 C966 1.369 . S
C965 C969 1.531 . S
C966 C965 1.369 . S
C966 C967 1.410 . S
C966 C974 1.503 . S
C967 C966 1.410 . S
C967 C968 1.392 . S
C967 C970 1.511 . S
C968 C964 1.376 . S
C968 C967 1.392 . S
C968 H980 0.929 . S
C969 C965 1.531 . S
C969 H981 0.960 . S
C969 H982 0.962 . S
C969 H983 0.960 . S
C970 C967 1.511 . S
C970 H984 0.961 . S
C970 H985 0.961 . S
C970 H986 0.961 . S
C971 C972 1.370 . S
C971 C973 1.363 . S
C971 H987 0.931 . S
C972 C971 1.370 . S
C972 C976 1.408 . S
C973 C971 1.363 . S
C973 C974 1.370 . S
C973 C977 1.524 . S
C974 C966 1.503 . S
C974 C973 1.370 . S
C974 C975 1.403 . S
C975 C974 1.403 . S
C975 C976 1.404 . S
C975 C978 1.539 . S
C976 C972 1.408 . S
C976 C975 1.404 . S
C976 H988 0.930 . S
C977 C973 1.524 . S
C977 H989 0.956 . S
C977 H990 0.961 . S
C977 H991 0.961 . S
C978 C975 1.539 . S
C978 H992 0.958 . S
C978 H993 0.961 . S
C978 H994 0.960 . S
H979 C963 0.931 . S
H980 C968 0.929 . S
H981 C969 0.960 . S
H982 C969 0.962 . S
H983 C969 0.960 . S
H984 C970 0.961 . S
H985 C970 0.961 . S
H986 C970 0.961 . S
H987 C971 0.931 . S
H988 C976 0.930 . S
H989 C977 0.956 . S
H990 C977 0.961 . S
H991 C977 0.961 . S
H992 C978 0.958 . S
H993 C978 0.961 . S
H994 C978 0.960 . S
C995 C996 1.391 . S
C995 C997 1.394 . S
C995 H1011 0.931 . S
C996 C995 1.391 . S
C996 C1000 1.376 . S
C997 C995 1.394 . S
C997 C998 1.369 . S
C997 C1001 1.531 . S
C998 C997 1.369 . S
C998 C999 1.410 . S
C998 C1006 1.503 . S
C999 C998 1.410 . S
C999 C1000 1.392 . S
C999 C1002 1.511 . S
C1000 C996 1.376 . S
C1000 C999 1.392 . S
C1000 H1012 0.929 . S
C1001 C997 1.531 . S
C1001 H1013 0.960 . S
C1001 H1014 0.962 . S
C1001 H1015 0.960 . S
C1002 C999 1.511 . S
C1002 H1016 0.961 . S
C1002 H1017 0.961 . S
C1002 H1018 0.961 . S
C1003 C1004 1.370 . S
C1003 C1005 1.363 . S
C1003 H1019 0.931 . S
C1004 C1003 1.370 . S
C1004 C1008 1.408 . S
C1005 C1003 1.363 . S
C1005 C1006 1.370 . S
C1005 C1009 1.524 . S
C1006 C998 1.503 . S
C1006 C1005 1.370 . S
C1006 C1007 1.403 . S
C1007 C1006 1.403 . S
C1007 C1008 1.404 . S
C1007 C1010 1.539 . S
C1008 C1004 1.408 . S
C1008 C1007 1.404 . S
C1008 H1020 0.930 . S
C1009 C1005 1.524 . S
C1009 H1021 0.956 . S
C1009 H1022 0.961 . S
C1009 H1023 0.961 . S
C1010 C1007 1.539 . S
C1010 H1024 0.958 . S
C1010 H1025 0.961 . S
C1010 H1026 0.960 . S
H1011 C995 0.931 . S
H1012 C1000 0.929 . S
H1013 C1001 0.960 . S
H1014 C1001 0.962 . S
H1015 C1001 0.960 . S
H1016 C1002 0.961 . S
H1017 C1002 0.961 . S
H1018 C1002 0.961 . S
H1019 C1003 0.931 . S
H1020 C1008 0.930 . S
H1021 C1009 0.956 . S
H1022 C1009 0.961 . S
H1023 C1009 0.961 . S
H1024 C1010 0.958 . S
H1025 C1010 0.961 . S
H1026 C1010 0.960 . S
C1027 C1028 1.391 . S
C1027 C1029 1.394 . S
C1027 H1043 0.931 . S
C1028 C1027 1.391 . S
C1028 C1032 1.376 . S
C1029 C1027 1.394 . S
C1029 C1030 1.369 . S
C1029 C1033 1.531 . S
C1030 C1029 1.369 . S
C1030 C1031 1.410 . S
C1030 C1038 1.503 . S
C1031 C1030 1.410 . S
C1031 C1032 1.392 . S
C1031 C1034 1.511 . S
C1032 C1028 1.376 . S
C1032 C1031 1.392 . S
C1032 H1044 0.929 . S
C1033 C1029 1.531 . S
C1033 H1045 0.960 . S
C1033 H1046 0.962 . S
C1033 H1047 0.960 . S
C1034 C1031 1.511 . S
C1034 H1048 0.961 . S
C1034 H1049 0.961 . S
C1034 H1050 0.961 . S
C1035 C1036 1.370 . S
C1035 C1037 1.363 . S
C1035 H1051 0.931 . S
C1036 C1035 1.370 . S
C1036 C1040 1.408 . S
C1037 C1035 1.363 . S
C1037 C1038 1.370 . S
C1037 C1041 1.524 . S
C1038 C1030 1.503 . S
C1038 C1037 1.370 . S
C1038 C1039 1.403 . S
C1039 C1038 1.403 . S
C1039 C1040 1.404 . S
C1039 C1042 1.539 . S
C1040 C1036 1.408 . S
C1040 C1039 1.404 . S
C1040 H1052 0.930 . S
C1041 C1037 1.524 . S
C1041 H1053 0.956 . S
C1041 H1054 0.961 . S
C1041 H1055 0.961 . S
C1042 C1039 1.539 . S
C1042 H1056 0.958 . S
C1042 H1057 0.961 . S
C1042 H1058 0.960 . S
H1043 C1027 0.931 . S
H1044 C1032 0.929 . S
H1045 C1033 0.960 . S
H1046 C1033 0.962 . S
H1047 C1033 0.960 . S
H1048 C1034 0.961 . S
H1049 C1034 0.961 . S
H1050 C1034 0.961 . S
H1051 C1035 0.931 . S
H1052 C1040 0.930 . S
H1053 C1041 0.956 . S
H1054 C1041 0.961 . S
H1055 C1041 0.961 . S
H1056 C1042 0.958 . S
H1057 C1042 0.961 . S
H1058 C1042 0.960 . S
C1059 C1060 1.391 . S
C1059 C1061 1.394 1_545 S
C1059 H1075 0.931 . S
C1060 C1059 1.391 . S
C1060 C1064 1.376 . S
C1061 C1059 1.394 1_565 S
C1061 C1062 1.369 . S
C1061 C1065 1.531 . S
C1062 C1061 1.369 . S
C1062 C1063 1.410 . S
C1062 C1070 1.503 . S
C1063 C1062 1.410 . S
C1063 C1064 1.392 1_565 S
C1063 C1066 1.511 . S
C1064 C1060 1.376 . S
C1064 C1063 1.392 1_545 S
C1064 H1076 0.929 . S
C1065 C1061 1.531 . S
C1065 H1077 0.960 . S
C1065 H1078 0.962 . S
C1065 H1079 0.960 . S
C1066 C1063 1.511 . S
C1066 H1080 0.961 . S
C1066 H1081 0.961 . S
C1066 H1082 0.961 . S
C1067 C1068 1.370 . S
C1067 C1069 1.363 . S
C1067 H1083 0.931 . S
C1068 C1067 1.370 . S
C1068 C1072 1.408 . S
C1069 C1067 1.363 . S
C1069 C1070 1.370 . S
C1069 C1073 1.524 . S
C1070 C1062 1.503 . S
C1070 C1069 1.370 . S
C1070 C1071 1.403 . S
C1071 C1070 1.403 . S
C1071 C1072 1.404 . S
C1071 C1074 1.539 . S
C1072 C1068 1.408 . S
C1072 C1071 1.404 . S
C1072 H1084 0.930 . S
C1073 C1069 1.524 . S
C1073 H1085 0.956 . S
C1073 H1086 0.961 . S
C1073 H1087 0.961 . S
C1074 C1071 1.539 . S
C1074 H1088 0.958 . S
C1074 H1089 0.961 . S
C1074 H1090 0.960 . S
H1075 C1059 0.931 . S
H1076 C1064 0.929 . S
H1077 C1065 0.960 . S
H1078 C1065 0.962 . S
H1079 C1065 0.960 . S
H1080 C1066 0.961 . S
H1081 C1066 0.961 . S
H1082 C1066 0.961 . S
H1083 C1067 0.931 . S
H1084 C1072 0.930 . S
H1085 C1073 0.956 . S
H1086 C1073 0.961 . S
H1087 C1073 0.961 . S
H1088 C1074 0.958 . S
H1089 C1074 0.961 . S
H1090 C1074 0.960 . S
C1091 C1092 1.391 . S
C1091 C1093 1.363 1_655 S
C1091 H1107 0.931 . S
C1092 C1091 1.391 . S
C1092 C1096 1.376 . S
C1093 C1091 1.363 1_455 S
C1093 C1094 1.375 . S
C1093 C1097 1.555 . S
C1094 C1093 1.375 . S
C1094 C1095 1.410 . S
C1094 C1102 1.503 . S
C1095 C1094 1.410 . S
C1095 C1096 1.392 1_455 S
C1095 C1098 1.511 . S
C1096 C1092 1.376 . S
C1096 C1095 1.392 1_655 S
C1096 H1108 0.929 . S
C1097 C1093 1.555 . S
C1097 H1109 0.960 . S
C1097 H1110 0.962 . S
C1097 H1111 0.960 1_455 S
C1098 C1095 1.511 . S
C1098 H1112 0.961 . S
C1098 H1113 0.961 . S
C1098 H1114 0.961 . S
C1099 C1100 1.370 . S
C1099 C1101 1.363 . S
C1099 H1115 0.931 . S
C1100 C1099 1.370 . S
C1100 C1104 1.408 . S
C1101 C1099 1.363 . S
C1101 C1102 1.370 . S
C1101 C1105 1.524 . S
C1102 C1094 1.503 . S
C1102 C1101 1.370 . S
C1102 C1103 1.403 . S
C1103 C1102 1.403 . S
C1103 C1104 1.404 . S
C1103 C1106 1.539 . S
C1104 C1100 1.408 . S
C1104 C1103 1.404 . S
C1104 H1116 0.930 . S
C1105 C1101 1.524 . S
C1105 H1117 0.956 . S
C1105 H1118 0.961 . S
C1105 H1119 0.961 . S
C1106 C1103 1.539 . S
C1106 H1120 0.958 . S
C1106 H1121 0.961 . S
C1106 H1122 0.960 . S
H1107 C1091 0.931 . S
H1108 C1096 0.929 . S
H1109 C1097 0.960 . S
H1110 C1097 0.962 . S
H1111 C1097 0.960 1_655 S
H1112 C1098 0.961 . S
H1113 C1098 0.961 . S
H1114 C1098 0.961 . S
H1115 C1099 0.931 . S
H1116 C1104 0.930 . S
H1117 C1105 0.956 . S
H1118 C1105 0.961 . S
H1119 C1105 0.961 . S
H1120 C1106 0.958 . S
H1121 C1106 0.961 . S
H1122 C1106 0.960 . S
C1123 C1124 1.391 . S
C1123 C1125 1.394 . S
C1123 H1139 0.931 . S
C1124 C1123 1.391 . S
C1124 C1128 1.376 . S
C1125 C1123 1.394 . S
C1125 C1126 1.369 . S
C1125 C1129 1.531 . S
C1126 C1125 1.369 . S
C1126 C1127 1.410 . S
C1126 C1134 1.503 . S
C1127 C1126 1.410 . S
C1127 C1128 1.392 . S
C1127 C1130 1.511 . S
C1128 C1124 1.376 . S
C1128 C1127 1.392 . S
C1128 H1140 0.929 . S
C1129 C1125 1.531 . S
C1129 H1141 0.960 . S
C1129 H1142 0.962 . S
C1129 H1143 0.960 . S
C1130 C1127 1.511 . S
C1130 H1144 0.961 . S
C1130 H1145 0.961 . S
C1130 H1146 0.961 . S
C1131 C1132 1.370 . S
C1131 C1133 1.363 . S
C1131 H1147 0.931 . S
C1132 C1131 1.370 . S
C1132 C1136 1.408 . S
C1133 C1131 1.363 . S
C1133 C1134 1.370 . S
C1133 C1137 1.524 . S
C1134 C1126 1.503 . S
C1134 C1133 1.370 . S
C1134 C1135 1.403 . S
C1135 C1134 1.403 . S
C1135 C1136 1.404 . S
C1135 C1138 1.539 . S
C1136 C1132 1.408 . S
C1136 C1135 1.404 . S
C1136 H1148 0.930 . S
C1137 C1133 1.524 . S
C1137 H1149 0.956 . S
C1137 H1150 0.961 . S
C1137 H1151 0.961 . S
C1138 C1135 1.539 . S
C1138 H1152 0.958 . S
C1138 H1153 0.961 . S
C1138 H1154 0.960 . S
H1139 C1123 0.931 . S
H1140 C1128 0.929 . S
H1141 C1129 0.960 . S
H1142 C1129 0.962 . S
H1143 C1129 0.960 . S
H1144 C1130 0.961 . S
H1145 C1130 0.961 . S
H1146 C1130 0.961 . S
H1147 C1131 0.931 . S
H1148 C1136 0.930 . S
H1149 C1137 0.956 . S
H1150 C1137 0.961 . S
H1151 C1137 0.961 . S
H1152 C1138 0.958 . S
H1153 C1138 0.961 . S
H1154 C1138 0.960 . S
C1155 C1156 1.391 . S
C1155 C1157 1.394 . S
C1155 H1171 0.931 . S
C1156 C1155 1.391 . S
C1156 C1160 1.376 . S
C1157 C1155 1.394 . S
C1157 C1158 1.369 . S
C1157 C1161 1.531 . S
C1158 C1157 1.369 . S
C1158 C1159 1.410 . S
C1158 C1166 1.503 . S
C1159 C1158 1.410 . S
C1159 C1160 1.392 . S
C1159 C1162 1.511 . S
C1160 C1156 1.376 . S
C1160 C1159 1.392 . S
C1160 H1172 0.929 . S
C1161 C1157 1.531 . S
C1161 H1173 0.960 . S
C1161 H1174 0.962 . S
C1161 H1175 0.960 . S
C1162 C1159 1.511 . S
C1162 H1176 0.961 . S
C1162 H1177 0.961 . S
C1162 H1178 0.961 . S
C1163 C1164 1.370 . S
C1163 C1165 1.363 . S
C1163 H1179 0.931 . S
C1164 C1163 1.370 . S
C1164 C1168 1.408 . S
C1165 C1163 1.363 . S
C1165 C1166 1.370 . S
C1165 C1169 1.524 . S
C1166 C1158 1.503 . S
C1166 C1165 1.370 . S
C1166 C1167 1.403 . S
C1167 C1166 1.403 . S
C1167 C1168 1.404 . S
C1167 C1170 1.539 . S
C1168 C1164 1.408 . S
C1168 C1167 1.404 . S
C1168 H1180 0.930 . S
C1169 C1165 1.524 . S
C1169 H1181 0.956 . S
C1169 H1182 0.961 . S
C1169 H1183 0.961 . S
C1170 C1167 1.539 . S
C1170 H1184 0.958 . S
C1170 H1185 0.961 . S
C1170 H1186 0.960 . S
H1171 C1155 0.931 . S
H1172 C1160 0.929 . S
H1173 C1161 0.960 . S
H1174 C1161 0.962 . S
H1175 C1161 0.960 . S
H1176 C1162 0.961 . S
H1177 C1162 0.961 . S
H1178 C1162 0.961 . S
H1179 C1163 0.931 . S
H1180 C1168 0.930 . S
H1181 C1169 0.956 . S
H1182 C1169 0.961 . S
H1183 C1169 0.961 . S
H1184 C1170 0.958 . S
H1185 C1170 0.961 . S
H1186 C1170 0.960 . S
C1187 C1188 1.391 . S
C1187 C1189 1.394 . S
C1187 H1203 0.931 . S
C1188 C1187 1.391 . S
C1188 C1192 1.376 . S
C1189 C1187 1.394 . S
C1189 C1190 1.369 . S
C1189 C1193 1.531 . S
C1190 C1189 1.369 . S
C1190 C1191 1.410 . S
C1190 C1198 1.503 . S
C1191 C1190 1.410 . S
C1191 C1192 1.392 . S
C1191 C1194 1.511 . S
C1192 C1188 1.376 . S
C1192 C1191 1.392 . S
C1192 H1204 0.929 . S
C1193 C1189 1.531 . S
C1193 H1205 0.960 . S
C1193 H1206 0.962 . S
C1193 H1207 0.960 . S
C1194 C1191 1.511 . S
C1194 H1208 0.961 . S
C1194 H1209 0.961 . S
C1194 H1210 0.961 . S
C1195 C1196 1.370 . S
C1195 C1197 1.363 . S
C1195 H1211 0.931 . S
C1196 C1195 1.370 . S
C1196 C1200 1.408 . S
C1197 C1195 1.363 . S
C1197 C1198 1.370 . S
C1197 C1201 1.524 . S
C1198 C1190 1.503 . S
C1198 C1197 1.370 . S
C1198 C1199 1.403 . S
C1199 C1198 1.403 . S
C1199 C1200 1.404 . S
C1199 C1202 1.539 . S
C1200 C1196 1.408 . S
C1200 C1199 1.404 . S
C1200 H1212 0.930 . S
C1201 C1197 1.524 . S
C1201 H1213 0.956 . S
C1201 H1214 0.961 . S
C1201 H1215 0.961 . S
C1202 C1199 1.539 . S
C1202 H1216 0.958 . S
C1202 H1217 0.961 . S
C1202 H1218 0.960 . S
H1203 C1187 0.931 . S
H1204 C1192 0.929 . S
H1205 C1193 0.960 . S
H1206 C1193 0.962 . S
H1207 C1193 0.960 . S
H1208 C1194 0.961 . S
H1209 C1194 0.961 . S
H1210 C1194 0.961 . S
H1211 C1195 0.931 . S
H1212 C1200 0.930 . S
H1213 C1201 0.956 . S
H1214 C1201 0.961 . S
H1215 C1201 0.961 . S
H1216 C1202 0.958 . S
H1217 C1202 0.961 . S
H1218 C1202 0.960 . S
C1219 C1220 1.391 . S
C1219 C1221 1.394 . S
C1219 H1235 0.931 . S
C1220 C1219 1.391 . S
C1220 C1224 1.376 . S
C1221 C1219 1.394 . S
C1221 C1222 1.369 . S
C1221 C1225 1.531 . S
C1222 C1221 1.369 . S
C1222 C1223 1.410 . S
C1222 C1230 1.503 . S
C1223 C1222 1.410 . S
C1223 C1224 1.392 . S
C1223 C1226 1.511 . S
C1224 C1220 1.376 . S
C1224 C1223 1.392 . S
C1224 H1236 0.929 . S
C1225 C1221 1.531 . S
C1225 H1237 0.960 . S
C1225 H1238 0.962 . S
C1225 H1239 0.960 . S
C1226 C1223 1.511 . S
C1226 H1240 0.961 . S
C1226 H1241 0.961 . S
C1226 H1242 0.961 . S
C1227 C1228 1.370 . S
C1227 C1229 1.363 . S
C1227 H1243 0.931 . S
C1228 C1227 1.370 . S
C1228 C1232 1.408 . S
C1229 C1227 1.363 . S
C1229 C1230 1.370 . S
C1229 C1233 1.524 . S
C1230 C1222 1.503 . S
C1230 C1229 1.370 . S
C1230 C1231 1.403 . S
C1231 C1230 1.403 . S
C1231 C1232 1.404 . S
C1231 C1234 1.539 . S
C1232 C1228 1.408 . S
C1232 C1231 1.404 . S
C1232 H1244 0.930 . S
C1233 C1229 1.524 . S
C1233 H1245 0.956 . S
C1233 H1246 0.961 . S
C1233 H1247 0.961 . S
C1234 C1231 1.539 . S
C1234 H1248 0.958 . S
C1234 H1249 0.961 . S
C1234 H1250 0.960 . S
H1235 C1219 0.931 . S
H1236 C1224 0.929 . S
H1237 C1225 0.960 . S
H1238 C1225 0.962 . S
H1239 C1225 0.960 . S
H1240 C1226 0.961 . S
H1241 C1226 0.961 . S
H1242 C1226 0.961 . S
H1243 C1227 0.931 . S
H1244 C1232 0.930 . S
H1245 C1233 0.956 . S
H1246 C1233 0.961 . S
H1247 C1233 0.961 . S
H1248 C1234 0.958 . S
H1249 C1234 0.961 . S
H1250 C1234 0.960 . S
C1251 C1252 1.391 . S
C1251 C1253 1.394 . S
C1251 H1267 0.931 . S
C1252 C1251 1.391 . S
C1252 C1256 1.376 . S
C1253 C1251 1.394 . S
C1253 C1254 1.369 1_565 S
C1253 C1257 1.535 1_565 S
C1254 C1253 1.369 1_545 S
C1254 C1255 1.410 . S
C1254 C1262 1.503 . S
C1255 C1254 1.410 . S
C1255 C1256 1.392 1_545 S
C1255 C1258 1.511 . S
C1256 C1252 1.376 . S
C1256 C1255 1.392 1_565 S
C1256 H1268 0.929 . S
C1257 C1253 1.535 1_545 S
C1257 H1269 0.978 . S
C1257 H1270 0.955 . S
C1257 H1271 0.945 1_545 S
C1258 C1255 1.511 . S
C1258 H1272 0.961 . S
C1258 H1273 0.961 . S
C1258 H1274 0.961 . S
C1259 C1260 1.370 . S
C1259 C1261 1.363 . S
C1259 H1275 0.931 . S
C1260 C1259 1.370 . S
C1260 C1264 1.408 . S
C1261 C1259 1.363 . S
C1261 C1262 1.370 . S
C1261 C1265 1.524 . S
C1262 C1254 1.503 . S
C1262 C1261 1.370 . S
C1262 C1263 1.403 . S
C1263 C1262 1.403 . S
C1263 C1264 1.404 . S
C1263 C1266 1.539 . S
C1264 C1260 1.408 . S
C1264 C1263 1.404 . S
C1264 H1276 0.930 . S
C1265 C1261 1.524 . S
C1265 H1277 0.956 . S
C1265 H1278 0.961 . S
C1265 H1279 0.961 . S
C1266 C1263 1.539 . S
C1266 H1280 0.958 . S
C1266 H1281 0.961 . S
C1266 H1282 0.960 . S
H1267 C1251 0.931 . S
H1268 C1256 0.929 . S
H1269 C1257 0.978 . S
H1270 C1257 0.955 . S
H1271 C1257 0.945 1_565 S
H1272 C1258 0.961 . S
H1273 C1258 0.961 . S
H1274 C1258 0.961 . S
H1275 C1259 0.931 . S
H1276 C1264 0.930 . S
H1277 C1265 0.956 . S
H1278 C1265 0.961 . S
H1279 C1265 0.961 . S
H1280 C1266 0.958 . S
H1281 C1266 0.961 . S
H1282 C1266 0.960 . S
C1283 C1284 1.391 . S
C1283 C1285 1.394 . S
C1283 H1299 0.931 . S
C1284 C1283 1.391 . S
C1284 C1288 1.376 . S
C1285 C1283 1.394 . S
C1285 C1286 1.369 . S
C1285 C1289 1.531 . S
C1286 C1285 1.369 . S
C1286 C1287 1.410 . S
C1286 C1294 1.503 1_455 S
C1287 C1286 1.410 . S
C1287 C1288 1.392 . S
C1287 C1290 1.511 1_455 S
C1288 C1284 1.376 . S
C1288 C1287 1.392 . S
C1288 H1300 0.929 . S
C1289 C1285 1.531 . S
C1289 H1301 0.960 1_455 S
C1289 H1302 0.961 1_455 S
C1289 H1303 0.960 . S
C1290 C1287 1.511 1_655 S
C1290 H1304 0.961 1_655 S
C1290 H1305 0.961 . S
C1290 H1306 0.961 . S
C1291 C1292 1.370 . S
C1291 C1293 1.363 . S
C1291 H1307 0.931 . S
C1292 C1291 1.370 . S
C1292 C1296 1.408 . S
C1293 C1291 1.363 . S
C1293 C1294 1.370 . S
C1293 C1297 1.524 . S
C1294 C1286 1.503 1_655 S
C1294 C1293 1.370 . S
C1294 C1295 1.403 . S
C1295 C1294 1.403 . S
C1295 C1296 1.404 . S
C1295 C1298 1.539 . S
C1296 C1292 1.408 . S
C1296 C1295 1.404 . S
C1296 H1308 0.930 . S
C1297 C1293 1.524 . S
C1297 H1309 0.956 . S
C1297 H1310 0.961 . S
C1297 H1311 0.961 . S
C1298 C1295 1.539 . S
C1298 H1312 0.958 . S
C1298 H1313 0.961 . S
C1298 H1314 0.960 . S
H1299 C1283 0.931 . S
H1300 C1288 0.929 . S
H1301 C1289 0.960 1_655 S
H1302 C1289 0.961 1_655 S
H1303 C1289 0.960 . S
H1304 C1290 0.961 1_455 S
H1305 C1290 0.961 . S
H1306 C1290 0.961 . S
H1307 C1291 0.931 . S
H1308 C1296 0.930 . S
H1309 C1297 0.956 . S
H1310 C1297 0.961 . S
H1311 C1297 0.961 . S
H1312 C1298 0.958 . S
H1313 C1298 0.961 . S
H1314 C1298 0.960 . S
C1315 C1316 1.391 . S
C1315 C1317 1.394 . S
C1315 H1331 0.931 . S
C1316 C1315 1.391 . S
C1316 C1320 1.376 . S
C1317 C1315 1.394 . S
C1317 C1318 1.369 . S
C1317 C1321 1.531 . S
C1318 C1317 1.369 . S
C1318 C1319 1.410 . S
C1318 C1326 1.503 . S
C1319 C1318 1.410 . S
C1319 C1320 1.392 . S
C1319 C1322 1.511 . S
C1320 C1316 1.376 . S
C1320 C1319 1.392 . S
C1320 H1332 0.929 . S
C1321 C1317 1.531 . S
C1321 H1333 0.960 . S
C1321 H1334 0.962 . S
C1321 H1335 0.960 . S
C1322 C1319 1.511 . S
C1322 H1336 0.961 . S
C1322 H1337 0.961 . S
C1322 H1338 0.961 . S
C1323 C1324 1.370 . S
C1323 C1325 1.363 . S
C1323 H1339 0.931 . S
C1324 C1323 1.370 . S
C1324 C1328 1.408 . S
C1325 C1323 1.363 . S
C1325 C1326 1.370 . S
C1325 C1329 1.524 . S
C1326 C1318 1.503 . S
C1326 C1325 1.370 . S
C1326 C1327 1.403 . S
C1327 C1326 1.403 . S
C1327 C1328 1.404 . S
C1327 C1330 1.539 . S
C1328 C1324 1.408 . S
C1328 C1327 1.404 . S
C1328 H1340 0.930 . S
C1329 C1325 1.524 . S
C1329 H1341 0.956 . S
C1329 H1342 0.961 . S
C1329 H1343 0.961 . S
C1330 C1327 1.539 . S
C1330 H1344 0.958 . S
C1330 H1345 0.961 . S
C1330 H1346 0.960 . S
H1331 C1315 0.931 . S
H1332 C1320 0.929 . S
H1333 C1321 0.960 . S
H1334 C1321 0.962 . S
H1335 C1321 0.960 . S
H1336 C1322 0.961 . S
H1337 C1322 0.961 . S
H1338 C1322 0.961 . S
H1339 C1323 0.931 . S
H1340 C1328 0.930 . S
H1341 C1329 0.956 . S
H1342 C1329 0.961 . S
H1343 C1329 0.961 . S
H1344 C1330 0.958 . S
H1345 C1330 0.961 . S
H1346 C1330 0.960 . S
C1347 C1348 1.391 . S
C1347 C1349 1.366 1_455 S
C1347 H1363 0.931 . S
C1348 C1347 1.391 . S
C1348 C1352 1.376 . S
C1349 C1347 1.366 1_655 S
C1349 C1350 1.372 . S
C1349 C1353 1.557 . S
C1350 C1349 1.372 . S
C1350 C1351 1.410 1_655 S
C1350 C1358 1.503 . S
C1351 C1350 1.410 1_455 S
C1351 C1352 1.392 . S
C1351 C1354 1.511 1_455 S
C1352 C1348 1.376 . S
C1352 C1351 1.392 . S
C1352 H1364 0.929 . S
C1353 C1349 1.557 . S
C1353 H1365 0.960 . S
C1353 H1366 0.962 . S
C1353 H1367 0.960 . S
C1354 C1351 1.511 1_655 S
C1354 H1368 0.961 1_655 S
C1354 H1369 0.961 . S
C1354 H1370 0.961 . S
C1355 C1356 1.370 . S
C1355 C1357 1.363 . S
C1355 H1371 0.931 . S
C1356 C1355 1.370 . S
C1356 C1360 1.408 . S
C1357 C1355 1.363 . S
C1357 C1358 1.370 . S
C1357 C1361 1.524 . S
C1358 C1350 1.503 . S
C1358 C1357 1.370 . S
C1358 C1359 1.403 . S
C1359 C1358 1.403 . S
C1359 C1360 1.404 . S
C1359 C1362 1.539 . S
C1360 C1356 1.408 . S
C1360 C1359 1.404 . S
C1360 H1372 0.930 . S
C1361 C1357 1.524 . S
C1361 H1373 0.956 . S
C1361 H1374 0.961 . S
C1361 H1375 0.961 . S
C1362 C1359 1.539 . S
C1362 H1376 0.958 . S
C1362 H1377 0.961 . S
C1362 H1378 0.960 . S
H1363 C1347 0.931 . S
H1364 C1352 0.929 . S
H1365 C1353 0.960 . S
H1366 C1353 0.962 . S
H1367 C1353 0.960 . S
H1368 C1354 0.961 1_455 S
H1369 C1354 0.961 . S
H1370 C1354 0.961 . S
H1371 C1355 0.931 . S
H1372 C1360 0.930 . S
H1373 C1361 0.956 . S
H1374 C1361 0.961 . S
H1375 C1361 0.961 . S
H1376 C1362 0.958 . S
H1377 C1362 0.961 . S
H1378 C1362 0.960 . S
C1379 C1380 1.391 . S
C1379 C1381 1.394 . S
C1379 H1395 0.931 . S
C1380 C1379 1.391 . S
C1380 C1384 1.376 . S
C1381 C1379 1.394 . S
C1381 C1382 1.369 . S
C1381 C1385 1.531 . S
C1382 C1381 1.369 . S
C1382 C1383 1.410 . S
C1382 C1390 1.503 . S
C1383 C1382 1.410 . S
C1383 C1384 1.392 . S
C1383 C1386 1.511 . S
C1384 C1380 1.376 . S
C1384 C1383 1.392 . S
C1384 H1396 0.929 . S
C1385 C1381 1.531 . S
C1385 H1397 0.960 . S
C1385 H1398 0.962 . S
C1385 H1399 0.960 . S
C1386 C1383 1.511 . S
C1386 H1400 0.961 . S
C1386 H1401 0.961 . S
C1386 H1402 0.961 . S
C1387 C1388 1.370 . S
C1387 C1389 1.363 . S
C1387 H1403 0.931 . S
C1388 C1387 1.370 . S
C1388 C1392 1.408 . S
C1389 C1387 1.363 . S
C1389 C1390 1.370 . S
C1389 C1393 1.524 . S
C1390 C1382 1.503 . S
C1390 C1389 1.370 . S
C1390 C1391 1.403 . S
C1391 C1390 1.403 . S
C1391 C1392 1.404 . S
C1391 C1394 1.539 . S
C1392 C1388 1.408 . S
C1392 C1391 1.404 . S
C1392 H1404 0.930 . S
C1393 C1389 1.524 . S
C1393 H1405 0.956 . S
C1393 H1406 0.961 . S
C1393 H1407 0.961 . S
C1394 C1391 1.539 . S
C1394 H1408 0.958 . S
C1394 H1409 0.961 . S
C1394 H1410 0.960 . S
H1395 C1379 0.931 . S
H1396 C1384 0.929 . S
H1397 C1385 0.960 . S
H1398 C1385 0.962 . S
H1399 C1385 0.960 . S
H1400 C1386 0.961 . S
H1401 C1386 0.961 . S
H1402 C1386 0.961 . S
H1403 C1387 0.931 . S
H1404 C1392 0.930 . S
H1405 C1393 0.956 . S
H1406 C1393 0.961 . S
H1407 C1393 0.961 . S
H1408 C1394 0.958 . S
H1409 C1394 0.961 . S
H1410 C1394 0.960 . S
C1411 C1412 1.391 . S
C1411 C1413 1.394 1_565 S
C1411 H1427 0.931 . S
C1412 C1411 1.391 . S
C1412 C1416 1.376 . S
C1413 C1411 1.394 1_545 S
C1413 C1414 1.369 . S
C1413 C1417 1.531 . S
C1414 C1413 1.369 . S
C1414 C1415 1.410 . S
C1414 C1422 1.503 . S
C1415 C1414 1.410 . S
C1415 C1416 1.392 1_545 S
C1415 C1418 1.511 . S
C1416 C1412 1.376 . S
C1416 C1415 1.392 1_565 S
C1416 H1428 0.929 . S
C1417 C1413 1.531 . S
C1417 H1429 0.960 . S
C1417 H1430 0.962 . S
C1417 H1431 0.960 . S
C1418 C1415 1.511 . S
C1418 H1432 0.968 . S
C1418 H1433 0.961 . S
C1418 H1434 0.961 . S
C1419 C1420 1.370 . S
C1419 C1421 1.363 . S
C1419 H1435 0.931 . S
C1420 C1419 1.370 . S
C1420 C1424 1.408 . S
C1421 C1419 1.363 . S
C1421 C1422 1.370 . S
C1421 C1425 1.524 . S
C1422 C1414 1.503 . S
C1422 C1421 1.370 . S
C1422 C1423 1.403 . S
C1423 C1422 1.403 . S
C1423 C1424 1.404 . S
C1423 C1426 1.539 . S
C1424 C1420 1.408 . S
C1424 C1423 1.404 . S
C1424 H1436 0.930 . S
C1425 C1421 1.524 . S
C1425 H1437 0.956 . S
C1425 H1438 0.961 . S
C1425 H1439 0.961 . S
C1426 C1423 1.539 . S
C1426 H1440 0.958 . S
C1426 H1441 0.961 . S
C1426 H1442 0.960 . S
H1427 C1411 0.931 . S
H1428 C1416 0.929 . S
H1429 C1417 0.960 . S
H1430 C1417 0.962 . S
H1431 C1417 0.960 . S
H1432 C1418 0.968 . S
H1433 C1418 0.961 . S
H1434 C1418 0.961 . S
H1435 C1419 0.931 . S
H1436 C1424 0.930 . S
H1437 C1425 0.956 . S
H1438 C1425 0.961 . S
H1439 C1425 0.961 . S
H1440 C1426 0.958 . S
H1441 C1426 0.961 . S
H1442 C1426 0.960 . S
C1443 C1444 1.391 . S
C1443 C1445 1.394 . S
C1443 H1459 0.931 . S
C1444 C1443 1.391 . S
C1444 C1448 1.376 . S
C1445 C1443 1.394 . S
C1445 C1446 1.369 . S
C1445 C1449 1.531 . S
C1446 C1445 1.369 . S
C1446 C1447 1.410 . S
C1446 C1454 1.503 . S
C1447 C1446 1.410 . S
C1447 C1448 1.392 . S
C1447 C1450 1.511 . S
C1448 C1444 1.376 . S
C1448 C1447 1.392 . S
C1448 H1460 0.929 . S
C1449 C1445 1.531 . S
C1449 H1461 0.960 . S
C1449 H1462 0.962 . S
C1449 H1463 0.960 . S
C1450 C1447 1.511 . S
C1450 H1464 0.961 . S
C1450 H1465 0.961 . S
C1450 H1466 0.961 . S
C1451 C1452 1.370 . S
C1451 C1453 1.363 . S
C1451 H1467 0.931 . S
C1452 C1451 1.370 . S
C1452 C1456 1.408 . S
C1453 C1451 1.363 . S
C1453 C1454 1.370 . S
C1453 C1457 1.524 . S
C1454 C1446 1.503 . S
C1454 C1453 1.370 . S
C1454 C1455 1.403 . S
C1455 C1454 1.403 . S
C1455 C1456 1.404 . S
C1455 C1458 1.539 . S
C1456 C1452 1.408 . S
C1456 C1455 1.404 . S
C1456 H1468 0.930 . S
C1457 C1453 1.524 . S
C1457 H1469 0.956 . S
C1457 H1470 0.961 . S
C1457 H1471 0.961 . S
C1458 C1455 1.539 . S
C1458 H1472 0.958 . S
C1458 H1473 0.961 . S
C1458 H1474 0.960 . S
H1459 C1443 0.931 . S
H1460 C1448 0.929 . S
H1461 C1449 0.960 . S
H1462 C1449 0.962 . S
H1463 C1449 0.960 . S
H1464 C1450 0.961 . S
H1465 C1450 0.961 . S
H1466 C1450 0.961 . S
H1467 C1451 0.931 . S
H1468 C1456 0.930 . S
H1469 C1457 0.956 . S
H1470 C1457 0.961 . S
H1471 C1457 0.961 . S
H1472 C1458 0.958 . S
H1473 C1458 0.961 . S
H1474 C1458 0.960 . S
C1475 C1476 1.391 . S
C1475 C1477 1.394 . S
C1475 H1491 0.931 . S
C1476 C1475 1.391 . S
C1476 C1480 1.376 . S
C1477 C1475 1.394 . S
C1477 C1478 1.369 . S
C1477 C1481 1.531 . S
C1478 C1477 1.369 . S
C1478 C1479 1.410 . S
C1478 C1486 1.503 . S
C1479 C1478 1.410 . S
C1479 C1480 1.392 . S
C1479 C1482 1.511 . S
C1480 C1476 1.376 . S
C1480 C1479 1.392 . S
C1480 H1492 0.929 . S
C1481 C1477 1.531 . S
C1481 H1493 0.960 . S
C1481 H1494 0.962 . S
C1481 H1495 0.960 . S
C1482 C1479 1.511 . S
C1482 H1496 0.961 . S
C1482 H1497 0.961 . S
C1482 H1498 0.961 . S
C1483 C1484 1.370 . S
C1483 C1485 1.363 . S
C1483 H1499 0.931 . S
C1484 C1483 1.370 . S
C1484 C1488 1.408 . S
C1485 C1483 1.363 . S
C1485 C1486 1.370 . S
C1485 C1489 1.524 . S
C1486 C1478 1.503 . S
C1486 C1485 1.370 . S
C1486 C1487 1.403 . S
C1487 C1486 1.403 . S
C1487 C1488 1.404 . S
C1487 C1490 1.539 . S
C1488 C1484 1.408 . S
C1488 C1487 1.404 . S
C1488 H1500 0.930 . S
C1489 C1485 1.524 . S
C1489 H1501 0.956 . S
C1489 H1502 0.961 . S
C1489 H1503 0.961 . S
C1490 C1487 1.539 . S
C1490 H1504 0.958 . S
C1490 H1505 0.961 . S
C1490 H1506 0.960 . S
H1491 C1475 0.931 . S
H1492 C1480 0.929 . S
H1493 C1481 0.960 . S
H1494 C1481 0.962 . S
H1495 C1481 0.960 . S
H1496 C1482 0.961 . S
H1497 C1482 0.961 . S
H1498 C1482 0.961 . S
H1499 C1483 0.931 . S
H1500 C1488 0.930 . S
H1501 C1489 0.956 . S
H1502 C1489 0.961 . S
H1503 C1489 0.961 . S
H1504 C1490 0.958 . S
H1505 C1490 0.961 . S
H1506 C1490 0.960 . S
C1507 C1508 1.391 . S
C1507 C1509 1.394 . S
C1507 H1523 0.931 . S
C1508 C1507 1.391 . S
C1508 C1512 1.376 . S
C1509 C1507 1.394 . S
C1509 C1510 1.369 . S
C1509 C1513 1.531 . S
C1510 C1509 1.369 . S
C1510 C1511 1.410 . S
C1510 C1518 1.503 . S
C1511 C1510 1.410 . S
C1511 C1512 1.392 . S
C1511 C1514 1.511 . S
C1512 C1508 1.376 . S
C1512 C1511 1.392 . S
C1512 H1524 0.929 . S
C1513 C1509 1.531 . S
C1513 H1525 0.960 . S
C1513 H1526 0.962 . S
C1513 H1527 0.960 . S
C1514 C1511 1.511 . S
C1514 H1528 0.961 . S
C1514 H1529 0.961 . S
C1514 H1530 0.961 . S
C1515 C1516 1.370 . S
C1515 C1517 1.363 . S
C1515 H1531 0.931 . S
C1516 C1515 1.370 . S
C1516 C1520 1.408 . S
C1517 C1515 1.363 . S
C1517 C1518 1.370 . S
C1517 C1521 1.524 . S
C1518 C1510 1.503 . S
C1518 C1517 1.370 . S
C1518 C1519 1.403 . S
C1519 C1518 1.403 . S
C1519 C1520 1.404 . S
C1519 C1522 1.539 . S
C1520 C1516 1.408 . S
C1520 C1519 1.404 . S
C1520 H1532 0.930 . S
C1521 C1517 1.524 . S
C1521 H1533 0.956 . S
C1521 H1534 0.961 . S
C1521 H1535 0.961 . S
C1522 C1519 1.539 . S
C1522 H1536 0.958 . S
C1522 H1537 0.961 . S
C1522 H1538 0.960 . S
H1523 C1507 0.931 . S
H1524 C1512 0.929 . S
H1525 C1513 0.960 . S
H1526 C1513 0.962 . S
H1527 C1513 0.960 . S
H1528 C1514 0.961 . S
H1529 C1514 0.961 . S
H1530 C1514 0.961 . S
H1531 C1515 0.931 . S
H1532 C1520 0.930 . S
H1533 C1521 0.956 . S
H1534 C1521 0.961 . S
H1535 C1521 0.961 . S
H1536 C1522 0.958 . S
H1537 C1522 0.961 . S
H1538 C1522 0.960 . S
C1539 C1540 1.391 . S
C1539 C1541 1.394 . S
C1539 H1555 0.931 . S
C1540 C1539 1.391 . S
C1540 C1544 1.376 . S
C1541 C1539 1.394 . S
C1541 C1542 1.369 . S
C1541 C1545 1.577 . S
C1542 C1541 1.369 . S
C1542 C1543 1.410 . S
C1542 C1550 1.503 . S
C1543 C1542 1.410 . S
C1543 C1544 1.392 . S
C1543 C1546 1.511 . S
C1544 C1540 1.376 . S
C1544 C1543 1.392 . S
C1544 H1556 0.929 . S
C1545 C1541 1.577 . S
C1545 H1557 0.945 1_565 S
C1545 H1558 0.962 . S
C1545 H1559 0.932 1_565 S
C1546 C1543 1.511 . S
C1546 H1560 0.961 . S
C1546 H1561 0.961 . S
C1546 H1562 0.961 . S
C1547 C1548 1.370 . S
C1547 C1549 1.363 . S
C1547 H1563 0.931 . S
C1548 C1547 1.370 . S
C1548 C1552 1.408 1_565 S
C1549 C1547 1.363 . S
C1549 C1550 1.370 . S
C1549 C1553 1.524 . S
C1550 C1542 1.503 . S
C1550 C1549 1.370 . S
C1550 C1551 1.403 . S
C1551 C1550 1.403 . S
C1551 C1552 1.404 1_565 S
C1551 C1554 1.539 1_565 S
C1552 C1548 1.408 1_545 S
C1552 C1551 1.404 1_545 S
C1552 H1564 0.930 . S
C1553 C1549 1.524 . S
C1553 H1565 0.956 . S
C1553 H1566 0.961 . S
C1553 H1567 0.961 . S
C1554 C1551 1.539 1_545 S
C1554 H1568 0.958 . S
C1554 H1569 0.961 . S
C1554 H1570 0.960 . S
H1555 C1539 0.931 . S
H1556 C1544 0.929 . S
H1557 C1545 0.945 1_545 S
H1558 C1545 0.962 . S
H1559 C1545 0.932 1_545 S
H1560 C1546 0.961 . S
H1561 C1546 0.961 . S
H1562 C1546 0.961 . S
H1563 C1547 0.931 . S
H1564 C1552 0.930 . S
H1565 C1553 0.956 . S
H1566 C1553 0.961 . S
H1567 C1553 0.961 . S
H1568 C1554 0.958 . S
H1569 C1554 0.961 . S
H1570 C1554 0.960 . S
C1571 C1572 1.391 . S
C1571 C1573 1.394 . S
C1571 H1587 0.931 . S
C1572 C1571 1.391 . S
C1572 C1576 1.376 . S
C1573 C1571 1.394 . S
C1573 C1574 1.369 . S
C1573 C1577 1.531 . S
C1574 C1573 1.369 . S
C1574 C1575 1.410 . S
C1574 C1582 1.503 . S
C1575 C1574 1.410 . S
C1575 C1576 1.392 . S
C1575 C1578 1.511 . S
C1576 C1572 1.376 . S
C1576 C1575 1.392 . S
C1576 H1588 0.929 . S
C1577 C1573 1.531 . S
C1577 H1589 0.960 . S
C1577 H1590 0.962 . S
C1577 H1591 0.960 . S
C1578 C1575 1.511 . S
C1578 H1592 0.961 . S
C1578 H1593 0.961 . S
C1578 H1594 0.961 . S
C1579 C1580 1.370 . S
C1579 C1581 1.363 . S
C1579 H1595 0.931 . S
C1580 C1579 1.370 . S
C1580 C1584 1.408 . S
C1581 C1579 1.363 . S
C1581 C1582 1.370 . S
C1581 C1585 1.524 . S
C1582 C1574 1.503 . S
C1582 C1581 1.370 . S
C1582 C1583 1.403 . S
C1583 C1582 1.403 . S
C1583 C1584 1.404 . S
C1583 C1586 1.539 . S
C1584 C1580 1.408 . S
C1584 C1583 1.404 . S
C1584 H1596 0.930 . S
C1585 C1581 1.524 . S
C1585 H1597 0.956 . S
C1585 H1598 0.961 . S
C1585 H1599 0.961 . S
C1586 C1583 1.539 . S
C1586 H1600 0.958 . S
C1586 H1601 0.961 . S
C1586 H1602 0.960 . S
H1587 C1571 0.931 . S
H1588 C1576 0.929 . S
H1589 C1577 0.960 . S
H1590 C1577 0.962 . S
H1591 C1577 0.960 . S
H1592 C1578 0.961 . S
H1593 C1578 0.961 . S
H1594 C1578 0.961 . S
H1595 C1579 0.931 . S
H1596 C1584 0.930 . S
H1597 C1585 0.956 . S
H1598 C1585 0.961 . S
H1599 C1585 0.961 . S
H1600 C1586 0.958 . S
H1601 C1586 0.961 . S
H1602 C1586 0.960 . S
C1603 C1604 1.391 . S
C1603 C1605 1.394 . S
C1603 H1619 0.931 . S
C1604 C1603 1.391 . S
C1604 C1608 1.376 . S
C1605 C1603 1.394 . S
C1605 C1606 1.369 . S
C1605 C1609 1.531 . S
C1606 C1605 1.369 . S
C1606 C1607 1.410 . S
C1606 C1614 1.503 . S
C1607 C1606 1.410 . S
C1607 C1608 1.392 . S
C1607 C1610 1.511 . S
C1608 C1604 1.376 . S
C1608 C1607 1.392 . S
C1608 H1620 0.929 . S
C1609 C1605 1.531 . S
C1609 H1621 0.960 . S
C1609 H1622 0.962 . S
C1609 H1623 0.960 . S
C1610 C1607 1.511 . S
C1610 H1624 0.961 . S
C1610 H1625 0.961 . S
C1610 H1626 0.961 . S
C1611 C1612 1.370 . S
C1611 C1613 1.363 . S
C1611 H1627 0.931 . S
C1612 C1611 1.370 . S
C1612 C1616 1.408 . S
C1613 C1611 1.363 . S
C1613 C1614 1.370 . S
C1613 C1617 1.524 . S
C1614 C1606 1.503 . S
C1614 C1613 1.370 . S
C1614 C1615 1.403 . S
C1615 C1614 1.403 . S
C1615 C1616 1.404 . S
C1615 C1618 1.539 . S
C1616 C1612 1.408 . S
C1616 C1615 1.404 . S
C1616 H1628 0.930 . S
C1617 C1613 1.524 . S
C1617 H1629 0.956 . S
C1617 H1630 0.961 . S
C1617 H1631 0.961 . S
C1618 C1615 1.539 . S
C1618 H1632 0.958 . S
C1618 H1633 0.961 . S
C1618 H1634 0.960 . S
H1619 C1603 0.931 . S
H1620 C1608 0.929 . S
H1621 C1609 0.960 . S
H1622 C1609 0.962 . S
H1623 C1609 0.960 . S
H1624 C1610 0.961 . S
H1625 C1610 0.961 . S
H1626 C1610 0.961 . S
H1627 C1611 0.931 . S
H1628 C1616 0.930 . S
H1629 C1617 0.956 . S
H1630 C1617 0.961 . S
H1631 C1617 0.961 . S
H1632 C1618 0.958 . S
H1633 C1618 0.961 . S
H1634 C1618 0.960 . S
C1635 C1636 1.391 . S
C1635 C1637 1.394 . S
C1635 H1651 0.931 . S
C1636 C1635 1.391 . S
C1636 C1640 1.376 . S
C1637 C1635 1.394 . S
C1637 C1638 1.369 . S
C1637 C1641 1.531 . S
C1638 C1637 1.369 . S
C1638 C1639 1.410 . S
C1638 C1646 1.503 . S
C1639 C1638 1.410 . S
C1639 C1640 1.392 . S
C1639 C1642 1.511 . S
C1640 C1636 1.376 . S
C1640 C1639 1.392 . S
C1640 H1652 0.929 . S
C1641 C1637 1.531 . S
C1641 H1653 0.960 . S
C1641 H1654 0.962 1_655 S
C1641 H1655 0.960 . S
C1642 C1639 1.511 . S
C1642 H1656 0.961 . S
C1642 H1657 0.961 . S
C1642 H1658 0.961 . S
C1643 C1644 1.370 . S
C1643 C1645 1.363 . S
C1643 H1659 0.931 . S
C1644 C1643 1.370 . S
C1644 C1648 1.408 . S
C1645 C1643 1.363 . S
C1645 C1646 1.370 . S
C1645 C1649 1.524 . S
C1646 C1638 1.503 . S
C1646 C1645 1.370 . S
C1646 C1647 1.403 . S
C1647 C1646 1.403 . S
C1647 C1648 1.404 . S
C1647 C1650 1.539 . S
C1648 C1644 1.408 . S
C1648 C1647 1.404 . S
C1648 H1660 0.930 . S
C1649 C1645 1.524 . S
C1649 H1661 0.956 . S
C1649 H1662 0.961 . S
C1649 H1663 0.961 . S
C1650 C1647 1.539 . S
C1650 H1664 0.958 . S
C1650 H1665 0.961 . S
C1650 H1666 0.960 . S
H1651 C1635 0.931 . S
H1652 C1640 0.929 . S
H1653 C1641 0.960 . S
H1654 C1641 0.962 1_455 S
H1655 C1641 0.960 . S
H1656 C1642 0.961 . S
H1657 C1642 0.961 . S
H1658 C1642 0.961 . S
H1659 C1643 0.931 . S
H1660 C1648 0.930 . S
H1661 C1649 0.956 . S
H1662 C1649 0.961 . S
H1663 C1649 0.961 . S
H1664 C1650 0.958 . S
H1665 C1650 0.961 . S
H1666 C1650 0.960 . S
C1667 C1668 1.391 . S
C1667 C1669 1.394 . S
C1667 H1683 0.931 . S
C1668 C1667 1.391 . S
C1668 C1672 1.376 . S
C1669 C1667 1.394 . S
C1669 C1670 1.369 . S
C1669 C1673 1.531 . S
C1670 C1669 1.369 . S
C1670 C1671 1.410 . S
C1670 C1678 1.503 . S
C1671 C1670 1.410 . S
C1671 C1672 1.392 . S
C1671 C1674 1.511 . S
C1672 C1668 1.376 . S
C1672 C1671 1.392 . S
C1672 H1684 0.929 . S
C1673 C1669 1.531 . S
C1673 H1685 0.960 . S
C1673 H1686 0.962 . S
C1673 H1687 0.960 . S
C1674 C1671 1.511 . S
C1674 H1688 0.961 . S
C1674 H1689 0.961 . S
C1674 H1690 0.961 . S
C1675 C1676 1.370 . S
C1675 C1677 1.363 . S
C1675 H1691 0.931 . S
C1676 C1675 1.370 . S
C1676 C1680 1.408 . S
C1677 C1675 1.363 . S
C1677 C1678 1.370 . S
C1677 C1681 1.524 . S
C1678 C1670 1.503 . S
C1678 C1677 1.370 . S
C1678 C1679 1.403 . S
C1679 C1678 1.403 . S
C1679 C1680 1.404 . S
C1679 C1682 1.539 . S
C1680 C1676 1.408 . S
C1680 C1679 1.404 . S
C1680 H1692 0.930 . S
C1681 C1677 1.524 . S
C1681 H1693 0.956 . S
C1681 H1694 0.961 . S
C1681 H1695 0.961 . S
C1682 C1679 1.539 . S
C1682 H1696 0.958 . S
C1682 H1697 0.961 . S
C1682 H1698 0.960 . S
H1683 C1667 0.931 . S
H1684 C1672 0.929 . S
H1685 C1673 0.960 . S
H1686 C1673 0.962 . S
H1687 C1673 0.960 . S
H1688 C1674 0.961 . S
H1689 C1674 0.961 . S
H1690 C1674 0.961 . S
H1691 C1675 0.931 . S
H1692 C1680 0.930 . S
H1693 C1681 0.956 . S
H1694 C1681 0.961 . S
H1695 C1681 0.961 . S
H1696 C1682 0.958 . S
H1697 C1682 0.961 . S
H1698 C1682 0.960 . S
C1699 C1700 1.391 . S
C1699 C1701 1.394 . S
C1699 H1715 0.931 . S
C1700 C1699 1.391 . S
C1700 C1704 1.376 . S
C1701 C1699 1.394 . S
C1701 C1702 1.369 . S
C1701 C1705 1.531 . S
C1702 C1701 1.369 . S
C1702 C1703 1.410 . S
C1702 C1710 1.503 . S
C1703 C1702 1.410 . S
C1703 C1704 1.392 . S
C1703 C1706 1.511 . S
C1704 C1700 1.376 . S
C1704 C1703 1.392 . S
C1704 H1716 0.929 . S
C1705 C1701 1.531 . S
C1705 H1717 0.960 1_545 S
C1705 H1718 0.962 . S
C1705 H1719 0.960 1_545 S
C1706 C1703 1.511 . S
C1706 H1720 0.961 . S
C1706 H1721 0.961 . S
C1706 H1722 0.961 . S
C1707 C1708 1.370 . S
C1707 C1709 1.363 . S
C1707 H1723 0.931 . S
C1708 C1707 1.370 . S
C1708 C1712 1.408 . S
C1709 C1707 1.363 . S
C1709 C1710 1.370 . S
C1709 C1713 1.524 . S
C1710 C1702 1.503 . S
C1710 C1709 1.370 . S
C1710 C1711 1.403 . S
C1711 C1710 1.403 . S
C1711 C1712 1.404 . S
C1711 C1714 1.539 1_545 S
C1712 C1708 1.408 . S
C1712 C1711 1.404 . S
C1712 H1724 0.930 1_545 S
C1713 C1709 1.524 . S
C1713 H1725 0.956 . S
C1713 H1726 0.961 . S
C1713 H1727 0.961 . S
C1714 C1711 1.539 1_565 S
C1714 H1728 0.958 . S
C1714 H1729 0.961 . S
C1714 H1730 0.960 1_565 S
H1715 C1699 0.931 . S
H1716 C1704 0.929 . S
H1717 C1705 0.960 1_565 S
H1718 C1705 0.962 . S
H1719 C1705 0.960 1_565 S
H1720 C1706 0.961 . S
H1721 C1706 0.961 . S
H1722 C1706 0.961 . S
H1723 C1707 0.931 . S
H1724 C1712 0.930 1_565 S
H1725 C1713 0.956 . S
H1726 C1713 0.961 . S
H1727 C1713 0.961 . S
H1728 C1714 0.958 . S
H1729 C1714 0.961 . S
H1730 C1714 0.960 1_545 S
C1731 C1732 1.391 . S
C1731 C1733 1.394 . S
C1731 H1747 0.931 . S
C1732 C1731 1.391 . S
C1732 C1736 1.376 . S
C1733 C1731 1.394 . S
C1733 C1734 1.369 . S
C1733 C1737 1.531 . S
C1734 C1733 1.369 . S
C1734 C1735 1.410 . S
C1734 C1742 1.503 . S
C1735 C1734 1.410 . S
C1735 C1736 1.392 . S
C1735 C1738 1.511 . S
C1736 C1732 1.376 . S
C1736 C1735 1.392 . S
C1736 H1748 0.929 . S
C1737 C1733 1.531 . S
C1737 H1749 0.960 . S
C1737 H1750 0.962 . S
C1737 H1751 0.960 . S
C1738 C1735 1.511 . S
C1738 H1752 0.961 . S
C1738 H1753 0.961 . S
C1738 H1754 0.961 . S
C1739 C1740 1.370 . S
C1739 C1741 1.363 . S
C1739 H1755 0.931 . S
C1740 C1739 1.370 . S
C1740 C1744 1.408 . S
C1741 C1739 1.363 . S
C1741 C1742 1.370 . S
C1741 C1745 1.524 . S
C1742 C1734 1.503 . S
C1742 C1741 1.370 . S
C1742 C1743 1.403 . S
C1743 C1742 1.403 . S
C1743 C1744 1.404 . S
C1743 C1746 1.539 . S
C1744 C1740 1.408 . S
C1744 C1743 1.404 . S
C1744 H1756 0.930 . S
C1745 C1741 1.524 . S
C1745 H1757 0.956 . S
C1745 H1758 0.961 . S
C1745 H1759 0.961 . S
C1746 C1743 1.539 . S
C1746 H1760 0.958 . S
C1746 H1761 0.961 . S
C1746 H1762 0.960 . S
H1747 C1731 0.931 . S
H1748 C1736 0.929 . S
H1749 C1737 0.960 . S
H1750 C1737 0.962 . S
H1751 C1737 0.960 . S
H1752 C1738 0.961 . S
H1753 C1738 0.961 . S
H1754 C1738 0.961 . S
H1755 C1739 0.931 . S
H1756 C1744 0.930 . S
H1757 C1745 0.956 . S
H1758 C1745 0.961 . S
H1759 C1745 0.961 . S
H1760 C1746 0.958 . S
H1761 C1746 0.961 . S
H1762 C1746 0.960 . S
C1763 C1764 1.391 . S
C1763 C1765 1.394 . S
C1763 H1779 0.931 . S
C1764 C1763 1.391 . S
C1764 C1768 1.376 . S
C1765 C1763 1.394 . S
C1765 C1766 1.369 . S
C1765 C1769 1.531 . S
C1766 C1765 1.369 . S
C1766 C1767 1.410 . S
C1766 C1774 1.503 . S
C1767 C1766 1.410 . S
C1767 C1768 1.392 . S
C1767 C1770 1.511 . S
C1768 C1764 1.376 . S
C1768 C1767 1.392 . S
C1768 H1780 0.929 . S
C1769 C1765 1.531 . S
C1769 H1781 0.960 . S
C1769 H1782 0.962 . S
C1769 H1783 0.960 . S
C1770 C1767 1.511 . S
C1770 H1784 0.961 . S
C1770 H1785 0.961 . S
C1770 H1786 0.961 . S
C1771 C1772 1.370 . S
C1771 C1773 1.363 . S
C1771 H1787 0.931 . S
C1772 C1771 1.370 . S
C1772 C1776 1.408 . S
C1773 C1771 1.363 . S
C1773 C1774 1.370 . S
C1773 C1777 1.524 . S
C1774 C1766 1.503 . S
C1774 C1773 1.370 . S
C1774 C1775 1.403 . S
C1775 C1774 1.403 . S
C1775 C1776 1.404 . S
C1775 C1778 1.539 . S
C1776 C1772 1.408 . S
C1776 C1775 1.404 . S
C1776 H1788 0.930 . S
C1777 C1773 1.524 . S
C1777 H1789 0.956 . S
C1777 H1790 0.961 . S
C1777 H1791 0.961 . S
C1778 C1775 1.539 . S
C1778 H1792 0.958 . S
C1778 H1793 0.961 . S
C1778 H1794 0.960 . S
H1779 C1763 0.931 . S
H1780 C1768 0.929 . S
H1781 C1769 0.960 . S
H1782 C1769 0.962 . S
H1783 C1769 0.960 . S
H1784 C1770 0.961 . S
H1785 C1770 0.961 . S
H1786 C1770 0.961 . S
H1787 C1771 0.931 . S
H1788 C1776 0.930 . S
H1789 C1777 0.956 . S
H1790 C1777 0.961 . S
H1791 C1777 0.961 . S
H1792 C1778 0.958 . S
H1793 C1778 0.961 . S
H1794 C1778 0.960 . S
C1795 C1796 1.391 . S
C1795 C1797 1.394 . S
C1795 H1811 0.931 . S
C1796 C1795 1.391 . S
C1796 C1800 1.376 . S
C1797 C1795 1.394 . S
C1797 C1798 1.369 . S
C1797 C1801 1.531 . S
C1798 C1797 1.369 . S
C1798 C1799 1.410 . S
C1798 C1806 1.503 . S
C1799 C1798 1.410 . S
C1799 C1800 1.392 . S
C1799 C1802 1.511 . S
C1800 C1796 1.376 . S
C1800 C1799 1.392 . S
C1800 H1812 0.929 . S
C1801 C1797 1.531 . S
C1801 H1813 0.960 . S
C1801 H1814 0.962 . S
C1801 H1815 0.960 . S
C1802 C1799 1.511 . S
C1802 H1816 0.961 . S
C1802 H1817 0.961 . S
C1802 H1818 0.961 . S
C1803 C1804 1.370 . S
C1803 C1805 1.363 . S
C1803 H1819 0.931 . S
C1804 C1803 1.370 . S
C1804 C1808 1.408 . S
C1805 C1803 1.363 . S
C1805 C1806 1.370 . S
C1805 C1809 1.524 . S
C1806 C1798 1.503 . S
C1806 C1805 1.370 . S
C1806 C1807 1.403 . S
C1807 C1806 1.403 . S
C1807 C1808 1.404 . S
C1807 C1810 1.539 . S
C1808 C1804 1.408 . S
C1808 C1807 1.404 . S
C1808 H1820 0.930 . S
C1809 C1805 1.524 . S
C1809 H1821 0.956 . S
C1809 H1822 0.961 . S
C1809 H1823 0.961 . S
C1810 C1807 1.539 . S
C1810 H1824 0.958 . S
C1810 H1825 0.961 . S
C1810 H1826 0.960 . S
H1811 C1795 0.931 . S
H1812 C1800 0.929 . S
H1813 C1801 0.960 . S
H1814 C1801 0.962 . S
H1815 C1801 0.960 . S
H1816 C1802 0.961 . S
H1817 C1802 0.961 . S
H1818 C1802 0.961 . S
H1819 C1803 0.931 . S
H1820 C1808 0.930 . S
H1821 C1809 0.956 . S
H1822 C1809 0.961 . S
H1823 C1809 0.961 . S
H1824 C1810 0.958 . S
H1825 C1810 0.961 . S
H1826 C1810 0.960 . S
C1827 C1828 1.391 . S
C1827 C1829 1.394 . S
C1827 H1843 0.931 . S
C1828 C1827 1.391 . S
C1828 C1832 1.376 . S
C1829 C1827 1.394 . S
C1829 C1830 1.369 . S
C1829 C1833 1.531 . S
C1830 C1829 1.369 . S
C1830 C1831 1.410 . S
C1830 C1838 1.503 . S
C1831 C1830 1.410 . S
C1831 C1832 1.392 . S
C1831 C1834 1.511 . S
C1832 C1828 1.376 . S
C1832 C1831 1.392 . S
C1832 H1844 0.929 . S
C1833 C1829 1.531 . S
C1833 H1845 0.960 . S
C1833 H1846 0.962 . S
C1833 H1847 0.960 . S
C1834 C1831 1.511 . S
C1834 H1848 0.961 . S
C1834 H1849 0.961 . S
C1834 H1850 0.961 . S
C1835 C1836 1.370 . S
C1835 C1837 1.363 . S
C1835 H1851 0.931 . S
C1836 C1835 1.370 . S
C1836 C1840 1.408 . S
C1837 C1835 1.363 . S
C1837 C1838 1.370 . S
C1837 C1841 1.524 . S
C1838 C1830 1.503 . S
C1838 C1837 1.370 . S
C1838 C1839 1.403 . S
C1839 C1838 1.403 . S
C1839 C1840 1.404 . S
C1839 C1842 1.539 . S
C1840 C1836 1.408 . S
C1840 C1839 1.404 . S
C1840 H1852 0.930 . S
C1841 C1837 1.524 . S
C1841 H1853 0.956 . S
C1841 H1854 0.961 . S
C1841 H1855 0.961 . S
C1842 C1839 1.539 . S
C1842 H1856 0.958 . S
C1842 H1857 0.961 . S
C1842 H1858 0.960 . S
H1843 C1827 0.931 . S
H1844 C1832 0.929 . S
H1845 C1833 0.960 . S
H1846 C1833 0.962 . S
H1847 C1833 0.960 . S
H1848 C1834 0.961 . S
H1849 C1834 0.961 . S
H1850 C1834 0.961 . S
H1851 C1835 0.931 . S
H1852 C1840 0.930 . S
H1853 C1841 0.956 . S
H1854 C1841 0.961 . S
H1855 C1841 0.961 . S
H1856 C1842 0.958 . S
H1857 C1842 0.961 . S
H1858 C1842 0.960 . S
C1859 C1860 1.391 . S
C1859 C1861 1.394 . S
C1859 H1875 0.931 . S
C1860 C1859 1.391 . S
C1860 C1864 1.376 . S
C1861 C1859 1.394 . S
C1861 C1862 1.369 . S
C1861 C1865 1.531 . S
C1862 C1861 1.369 . S
C1862 C1863 1.410 . S
C1862 C1870 1.503 . S
C1863 C1862 1.410 . S
C1863 C1864 1.392 . S
C1863 C1866 1.511 . S
C1864 C1860 1.376 . S
C1864 C1863 1.392 . S
C1864 H1876 0.929 . S
C1865 C1861 1.531 . S
C1865 H1877 0.960 . S
C1865 H1878 0.962 . S
C1865 H1879 0.960 . S
C1866 C1863 1.511 . S
C1866 H1880 0.961 . S
C1866 H1881 0.961 . S
C1866 H1882 0.961 . S
C1867 C1868 1.370 . S
C1867 C1869 1.363 . S
C1867 H1883 0.931 . S
C1868 C1867 1.370 . S
C1868 C1872 1.408 . S
C1869 C1867 1.363 . S
C1869 C1870 1.370 . S
C1869 C1873 1.524 . S
C1870 C1862 1.503 . S
C1870 C1869 1.370 . S
C1870 C1871 1.403 . S
C1871 C1870 1.403 . S
C1871 C1872 1.404 . S
C1871 C1874 1.539 . S
C1872 C1868 1.408 . S
C1872 C1871 1.404 . S
C1872 H1884 0.930 . S
C1873 C1869 1.524 . S
C1873 H1885 0.956 . S
C1873 H1886 0.961 . S
C1873 H1887 0.961 . S
C1874 C1871 1.539 . S
C1874 H1888 0.958 . S
C1874 H1889 0.961 . S
C1874 H1890 0.960 . S
H1875 C1859 0.931 . S
H1876 C1864 0.929 . S
H1877 C1865 0.960 . S
H1878 C1865 0.962 . S
H1879 C1865 0.960 . S
H1880 C1866 0.961 . S
H1881 C1866 0.961 . S
H1882 C1866 0.961 . S
H1883 C1867 0.931 . S
H1884 C1872 0.930 . S
H1885 C1873 0.956 . S
H1886 C1873 0.961 . S
H1887 C1873 0.961 . S
H1888 C1874 0.958 . S
H1889 C1874 0.961 . S
H1890 C1874 0.960 . S
C1891 C1892 1.391 . S
C1891 C1893 1.394 . S
C1891 H1907 0.931 . S
C1892 C1891 1.391 . S
C1892 C1896 1.376 . S
C1893 C1891 1.394 . S
C1893 C1894 1.369 . S
C1893 C1897 1.531 . S
C1894 C1893 1.369 . S
C1894 C1895 1.410 . S
C1894 C1902 1.503 . S
C1895 C1894 1.410 . S
C1895 C1896 1.392 . S
C1895 C1898 1.511 . S
C1896 C1892 1.376 . S
C1896 C1895 1.392 . S
C1896 H1908 0.929 . S
C1897 C1893 1.531 . S
C1897 H1909 0.960 . S
C1897 H1910 0.962 . S
C1897 H1911 0.960 . S
C1898 C1895 1.511 . S
C1898 H1912 0.961 . S
C1898 H1913 0.961 . S
C1898 H1914 0.961 . S
C1899 C1900 1.370 . S
C1899 C1901 1.363 . S
C1899 H1915 0.931 . S
C1900 C1899 1.370 . S
C1900 C1904 1.408 . S
C1901 C1899 1.363 . S
C1901 C1902 1.370 . S
C1901 C1905 1.524 . S
C1902 C1894 1.503 . S
C1902 C1901 1.370 . S
C1902 C1903 1.403 . S
C1903 C1902 1.403 . S
C1903 C1904 1.404 . S
C1903 C1906 1.539 . S
C1904 C1900 1.408 . S
C1904 C1903 1.404 . S
C1904 H1916 0.930 . S
C1905 C1901 1.524 . S
C1905 H1917 0.956 . S
C1905 H1918 0.961 . S
C1905 H1919 0.961 . S
C1906 C1903 1.539 . S
C1906 H1920 0.958 . S
C1906 H1921 0.961 . S
C1906 H1922 0.960 . S
H1907 C1891 0.931 . S
H1908 C1896 0.929 . S
H1909 C1897 0.960 . S
H1910 C1897 0.962 . S
H1911 C1897 0.960 . S
H1912 C1898 0.961 . S
H1913 C1898 0.961 . S
H1914 C1898 0.961 . S
H1915 C1899 0.931 . S
H1916 C1904 0.930 . S
H1917 C1905 0.956 . S
H1918 C1905 0.961 . S
H1919 C1905 0.961 . S
H1920 C1906 0.958 . S
H1921 C1906 0.961 . S
H1922 C1906 0.960 . S
C1923 C1924 1.391 . S
C1923 C1925 1.394 . S
C1923 H1939 0.931 . S
C1924 C1923 1.391 . S
C1924 C1928 1.376 . S
C1925 C1923 1.394 . S
C1925 C1926 1.369 . S
C1925 C1929 1.531 . S
C1926 C1925 1.369 . S
C1926 C1927 1.410 . S
C1926 C1934 1.503 . S
C1927 C1926 1.410 . S
C1927 C1928 1.392 . S
C1927 C1930 1.511 . S
C1928 C1924 1.376 . S
C1928 C1927 1.392 . S
C1928 H1940 0.929 . S
C1929 C1925 1.531 . S
C1929 H1941 0.960 . S
C1929 H1942 0.962 . S
C1929 H1943 0.960 . S
C1930 C1927 1.511 . S
C1930 H1944 0.961 . S
C1930 H1945 0.961 . S
C1930 H1946 0.961 . S
C1931 C1932 1.370 . S
C1931 C1933 1.363 . S
C1931 H1947 0.931 . S
C1932 C1931 1.370 . S
C1932 C1936 1.408 . S
C1933 C1931 1.363 . S
C1933 C1934 1.370 . S
C1933 C1937 1.524 . S
C1934 C1926 1.503 . S
C1934 C1933 1.370 . S
C1934 C1935 1.403 . S
C1935 C1934 1.403 . S
C1935 C1936 1.404 . S
C1935 C1938 1.539 . S
C1936 C1932 1.408 . S
C1936 C1935 1.404 . S
C1936 H1948 0.930 . S
C1937 C1933 1.524 . S
C1937 H1949 0.956 . S
C1937 H1950 0.961 . S
C1937 H1951 0.961 . S
C1938 C1935 1.539 . S
C1938 H1952 0.958 . S
C1938 H1953 0.961 . S
C1938 H1954 0.960 . S
H1939 C1923 0.931 . S
H1940 C1928 0.929 . S
H1941 C1929 0.960 . S
H1942 C1929 0.962 . S
H1943 C1929 0.960 . S
H1944 C1930 0.961 . S
H1945 C1930 0.961 . S
H1946 C1930 0.961 . S
H1947 C1931 0.931 . S
H1948 C1936 0.930 . S
H1949 C1937 0.956 . S
H1950 C1937 0.961 . S
H1951 C1937 0.961 . S
H1952 C1938 0.958 . S
H1953 C1938 0.961 . S
H1954 C1938 0.960 . S
C1955 C1956 1.391 . S
C1955 C1957 1.394 . S
C1955 H1971 0.931 . S
C1956 C1955 1.391 . S
C1956 C1960 1.376 . S
C1957 C1955 1.394 . S
C1957 C1958 1.369 . S
C1957 C1961 1.531 . S
C1958 C1957 1.369 . S
C1958 C1959 1.410 . S
C1958 C1966 1.503 . S
C1959 C1958 1.410 . S
C1959 C1960 1.392 . S
C1959 C1962 1.511 . S
C1960 C1956 1.376 . S
C1960 C1959 1.392 . S
C1960 H1972 0.929 . S
C1961 C1957 1.531 . S
C1961 H1973 0.960 . S
C1961 H1974 0.962 . S
C1961 H1975 0.960 . S
C1962 C1959 1.511 . S
C1962 H1976 0.961 . S
C1962 H1977 0.961 . S
C1962 H1978 0.961 . S
C1963 C1964 1.370 . S
C1963 C1965 1.363 . S
C1963 H1979 0.931 . S
C1964 C1963 1.370 . S
C1964 C1968 1.408 . S
C1965 C1963 1.363 . S
C1965 C1966 1.370 . S
C1965 C1969 1.524 . S
C1966 C1958 1.503 . S
C1966 C1965 1.370 . S
C1966 C1967 1.403 . S
C1967 C1966 1.403 . S
C1967 C1968 1.404 . S
C1967 C1970 1.539 . S
C1968 C1964 1.408 . S
C1968 C1967 1.404 . S
C1968 H1980 0.930 . S
C1969 C1965 1.524 . S
C1969 H1981 0.956 . S
C1969 H1982 0.961 . S
C1969 H1983 0.961 . S
C1970 C1967 1.539 . S
C1970 H1984 0.958 . S
C1970 H1985 0.961 . S
C1970 H1986 0.960 . S
H1971 C1955 0.931 . S
H1972 C1960 0.929 . S
H1973 C1961 0.960 . S
H1974 C1961 0.962 . S
H1975 C1961 0.960 . S
H1976 C1962 0.961 . S
H1977 C1962 0.961 . S
H1978 C1962 0.961 . S
H1979 C1963 0.931 . S
H1980 C1968 0.930 . S
H1981 C1969 0.956 . S
H1982 C1969 0.961 . S
H1983 C1969 0.961 . S
H1984 C1970 0.958 . S
H1985 C1970 0.961 . S
H1986 C1970 0.960 . S
C1987 C1988 1.391 . S
C1987 C1989 1.394 . S
C1987 H2003 0.931 . S
C1988 C1987 1.391 . S
C1988 C1992 1.376 . S
C1989 C1987 1.394 . S
C1989 C1990 1.369 . S
C1989 C1993 1.531 . S
C1990 C1989 1.369 . S
C1990 C1991 1.410 . S
C1990 C1998 1.503 . S
C1991 C1990 1.410 . S
C1991 C1992 1.392 . S
C1991 C1994 1.511 . S
C1992 C1988 1.376 . S
C1992 C1991 1.392 . S
C1992 H2004 0.929 . S
C1993 C1989 1.531 . S
C1993 H2005 0.960 . S
C1993 H2006 0.962 . S
C1993 H2007 0.960 . S
C1994 C1991 1.511 . S
C1994 H2008 0.961 . S
C1994 H2009 0.961 . S
C1994 H2010 0.961 . S
C1995 C1996 1.370 . S
C1995 C1997 1.363 . S
C1995 H2011 0.931 . S
C1996 C1995 1.370 . S
C1996 C2000 1.408 . S
C1997 C1995 1.363 . S
C1997 C1998 1.370 . S
C1997 C2001 1.524 . S
C1998 C1990 1.503 . S
C1998 C1997 1.370 . S
C1998 C1999 1.403 . S
C1999 C1998 1.403 . S
C1999 C2000 1.404 . S
C1999 C2002 1.539 . S
C2000 C1996 1.408 . S
C2000 C1999 1.404 . S
C2000 H2012 0.930 . S
C2001 C1997 1.524 . S
C2001 H2013 0.956 . S
C2001 H2014 0.961 . S
C2001 H2015 0.961 . S
C2002 C1999 1.539 . S
C2002 H2016 0.958 . S
C2002 H2017 0.961 . S
C2002 H2018 0.960 . S
H2003 C1987 0.931 . S
H2004 C1992 0.929 . S
H2005 C1993 0.960 . S
H2006 C1993 0.962 . S
H2007 C1993 0.960 . S
H2008 C1994 0.961 . S
H2009 C1994 0.961 . S
H2010 C1994 0.961 . S
H2011 C1995 0.931 . S
H2012 C2000 0.930 . S
H2013 C2001 0.956 . S
H2014 C2001 0.961 . S
H2015 C2001 0.961 . S
H2016 C2002 0.958 . S
H2017 C2002 0.961 . S
H2018 C2002 0.960 . S
C2019 C2020 1.391 . S
C2019 C2021 1.394 . S
C2019 H2035 0.931 . S
C2020 C2019 1.391 . S
C2020 C2024 1.376 . S
C2021 C2019 1.394 . S
C2021 C2022 1.369 . S
C2021 C2025 1.531 . S
C2022 C2021 1.369 . S
C2022 C2023 1.410 . S
C2022 C2030 1.503 . S
C2023 C2022 1.410 . S
C2023 C2024 1.392 . S
C2023 C2026 1.511 . S
C2024 C2020 1.376 . S
C2024 C2023 1.392 . S
C2024 H2036 0.929 . S
C2025 C2021 1.531 . S
C2025 H2037 0.960 . S
C2025 H2038 0.962 . S
C2025 H2039 0.960 . S
C2026 C2023 1.511 . S
C2026 H2040 0.961 . S
C2026 H2041 0.961 . S
C2026 H2042 0.961 . S
C2027 C2028 1.370 . S
C2027 C2029 1.363 . S
C2027 H2043 0.931 . S
C2028 C2027 1.370 . S
C2028 C2032 1.408 . S
C2029 C2027 1.363 . S
C2029 C2030 1.370 . S
C2029 C2033 1.524 . S
C2030 C2022 1.503 . S
C2030 C2029 1.370 . S
C2030 C2031 1.403 . S
C2031 C2030 1.403 . S
C2031 C2032 1.404 . S
C2031 C2034 1.539 . S
C2032 C2028 1.408 . S
C2032 C2031 1.404 . S
C2032 H2044 0.930 . S
C2033 C2029 1.524 . S
C2033 H2045 0.956 . S
C2033 H2046 0.961 . S
C2033 H2047 0.961 . S
C2034 C2031 1.539 . S
C2034 H2048 0.958 . S
C2034 H2049 0.961 . S
C2034 H2050 0.960 . S
H2035 C2019 0.931 . S
H2036 C2024 0.929 . S
H2037 C2025 0.960 . S
H2038 C2025 0.962 . S
H2039 C2025 0.960 . S
H2040 C2026 0.961 . S
H2041 C2026 0.961 . S
H2042 C2026 0.961 . S
H2043 C2027 0.931 . S
H2044 C2032 0.930 . S
H2045 C2033 0.956 . S
H2046 C2033 0.961 . S
H2047 C2033 0.961 . S
H2048 C2034 0.958 . S
H2049 C2034 0.961 . S
H2050 C2034 0.960 . S
C2051 C2052 1.391 . S
C2051 C2053 1.394 . S
C2051 H2067 0.931 . S
C2052 C2051 1.391 . S
C2052 C2056 1.376 . S
C2053 C2051 1.394 . S
C2053 C2054 1.369 . S
C2053 C2057 1.531 . S
C2054 C2053 1.369 . S
C2054 C2055 1.410 . S
C2054 C2062 1.503 . S
C2055 C2054 1.410 . S
C2055 C2056 1.392 . S
C2055 C2058 1.511 . S
C2056 C2052 1.376 . S
C2056 C2055 1.392 . S
C2056 H2068 0.929 . S
C2057 C2053 1.531 . S
C2057 H2069 0.960 . S
C2057 H2070 0.962 . S
C2057 H2071 0.960 . S
C2058 C2055 1.511 . S
C2058 H2072 0.961 . S
C2058 H2073 0.961 . S
C2058 H2074 0.961 . S
C2059 C2060 1.370 . S
C2059 C2061 1.363 . S
C2059 H2075 0.931 . S
C2060 C2059 1.370 . S
C2060 C2064 1.408 . S
C2061 C2059 1.363 . S
C2061 C2062 1.370 . S
C2061 C2065 1.524 . S
C2062 C2054 1.503 . S
C2062 C2061 1.370 . S
C2062 C2063 1.403 . S
C2063 C2062 1.403 . S
C2063 C2064 1.404 . S
C2063 C2066 1.539 . S
C2064 C2060 1.408 . S
C2064 C2063 1.404 . S
C2064 H2076 0.930 . S
C2065 C2061 1.524 . S
C2065 H2077 0.956 . S
C2065 H2078 0.961 . S
C2065 H2079 0.961 . S
C2066 C2063 1.539 . S
C2066 H2080 0.958 . S
C2066 H2081 0.961 . S
C2066 H2082 0.960 . S
H2067 C2051 0.931 . S
H2068 C2056 0.929 . S
H2069 C2057 0.960 . S
H2070 C2057 0.962 . S
H2071 C2057 0.960 . S
H2072 C2058 0.961 . S
H2073 C2058 0.961 . S
H2074 C2058 0.961 . S
H2075 C2059 0.931 . S
H2076 C2064 0.930 . S
H2077 C2065 0.956 . S
H2078 C2065 0.961 . S
H2079 C2065 0.961 . S
H2080 C2066 0.958 . S
H2081 C2066 0.961 . S
H2082 C2066 0.960 . S
C2083 C2084 1.391 . S
C2083 C2085 1.394 . S
C2083 H2099 0.931 . S
C2084 C2083 1.391 . S
C2084 C2088 1.376 . S
C2085 C2083 1.394 . S
C2085 C2086 1.369 . S
C2085 C2089 1.531 . S
C2086 C2085 1.369 . S
C2086 C2087 1.410 . S
C2086 C2094 1.503 . S
C2087 C2086 1.410 . S
C2087 C2088 1.392 . S
C2087 C2090 1.511 . S
C2088 C2084 1.376 . S
C2088 C2087 1.392 . S
C2088 H2100 0.929 . S
C2089 C2085 1.531 . S
C2089 H2101 0.960 . S
C2089 H2102 0.962 . S
C2089 H2103 0.960 . S
C2090 C2087 1.511 . S
C2090 H2104 0.961 . S
C2090 H2105 0.961 . S
C2090 H2106 0.961 . S
C2091 C2092 1.370 . S
C2091 C2093 1.363 . S
C2091 H2107 0.931 . S
C2092 C2091 1.370 . S
C2092 C2096 1.408 . S
C2093 C2091 1.363 . S
C2093 C2094 1.370 . S
C2093 C2097 1.524 . S
C2094 C2086 1.503 . S
C2094 C2093 1.370 . S
C2094 C2095 1.403 . S
C2095 C2094 1.403 . S
C2095 C2096 1.404 . S
C2095 C2098 1.539 . S
C2096 C2092 1.408 . S
C2096 C2095 1.404 . S
C2096 H2108 0.930 . S
C2097 C2093 1.524 . S
C2097 H2109 0.956 . S
C2097 H2110 0.961 . S
C2097 H2111 0.961 . S
C2098 C2095 1.539 . S
C2098 H2112 0.958 . S
C2098 H2113 0.961 . S
C2098 H2114 0.960 . S
H2099 C2083 0.931 . S
H2100 C2088 0.929 . S
H2101 C2089 0.960 . S
H2102 C2089 0.962 . S
H2103 C2089 0.960 . S
H2104 C2090 0.961 . S
H2105 C2090 0.961 . S
H2106 C2090 0.961 . S
H2107 C2091 0.931 . S
H2108 C2096 0.930 . S
H2109 C2097 0.956 . S
H2110 C2097 0.961 . S
H2111 C2097 0.961 . S
H2112 C2098 0.958 . S
H2113 C2098 0.961 . S
H2114 C2098 0.960 . S
C388 C151 1.237 . S
C396 C212 1.311 . S
C420 C159 1.583 . S
C428 C233 1.668 . S
C452 C137 1.242 . S
C460 C253 1.229 . S
C484 C126 1.334 . S
C492 C232 1.223 . S
C524 C254 1.720 . S
C516 C104 1.688 . S
C548 C118 1.196 . S
C556 C211 1.148 . S
C588 C213 1.345 . S
C580 C129 1.395 . S
C620 C234 1.486 . S
C612 C107 1.540 . S
C644 C115 1.124 . S
C652 C256 1.215 . S
C676 C148 1.110 . S
C684 C235 1.200 . S
C708 C162 1.496 1_556 S
C716 C255 1.451 1_556 S
C748 C214 1.259 1_554 S
C740 C140 1.474 . S
C780 C275 1.322 . S
C772 C19 1.278 . S
C804 C27 1.613 . S
C812 C296 1.680 . S
C836 C5 1.313 . S
C844 C316 1.240 . S
C868 C192 1.311 . S
C876 C295 1.230 . S
C900 C170 1.630 . S
C908 C317 1.701 . S
C932 C184 1.282 . S
C940 C274 1.092 . S
C964 C195 1.430 . S
C972 C276 1.376 . S
C996 C173 1.503 . S
C1004 C297 1.460 . S
C1036 C319 1.209 . S
C1028 C181 1.139 . S
C1060 C16 1.096 . S
C1068 C298 1.206 . S
C1100 C318 1.464 . S
C1092 C30 1.520 . S
C1124 C8 1.447 . S
C1132 C277 1.232 . S
C1164 C338 1.307 . S
C1156 C85 1.320 . S
C1188 C93 1.627 . S
C1196 C359 1.680 . S
C1228 C379 1.233 . S
C1220 C71 1.269 . S
C1260 C358 1.229 . S
C1252 C60 1.304 . S
C1292 C380 1.701 . S
C1284 C38 1.637 . S
C1316 C52 1.251 . S
C1324 C337 1.128 . S
C1348 C63 1.408 . S
C1356 C339 1.364 . S
C1380 C41 1.532 . S
C1388 C360 1.487 . S
C1420 C382 1.233 . S
C1412 C49 1.081 . S
C1444 C82 1.155 . S
C1452 C361 1.210 . S
C1476 C96 1.486 . S
C1484 C381 1.437 . S
C1508 C74 1.474 . S
C1516 C340 1.244 . S
C1540 C172 1.560 . S
C1548 C216 1.588 . S
C1580 C237 1.312 . S
C1572 C183 1.248 . S
C1604 C194 1.545 . S
C1612 C257 1.519 . S
C1636 C73 1.565 . S
C1644 C236 1.566 . S
C1668 C84 1.274 . S
C1676 C258 1.340 . S
C1708 C215 1.671 . S
C1700 C95 1.658 . S
C1732 C40 1.562 . S
C1740 C279 1.588 . S
C1764 C51 1.266 . S
C1772 C300 1.300 . S
C1796 C62 1.541 . S
C1804 C320 1.515 . S
C1828 C139 1.603 . S
C1836 C299 1.581 . S
C1868 C321 1.334 . S
C1860 C150 1.259 . S
C1892 C161 1.689 . S
C1900 C278 1.687 . S
C1924 C106 1.592 . S
C1932 C342 1.575 . S
C1956 C117 1.304 . S
C1964 C363 1.315 . S
C1996 C383 1.499 . S
C1988 C128 1.499 . S
C2020 C7 1.591 . S
C2028 C362 1.579 . S
C2052 C18 1.260 . S
C2060 C384 1.334 . S
C2084 C29 1.697 . S
C2092 C341 1.689 . S
