# Generated by pormake.
# Topology zzz, (3,6)-cn, num edge types: 1
# Building blocks:
#     Node 0, Type 0, BuildingBlock: OLANEW_clean_sbu_2, # of connection points: 3
#     Node 1, Type 0, BuildingBlock: OLANEW_clean_sbu_2, # of connection points: 3
#     Node 2, Type 0, BuildingBlock: OLANEW_clean_sbu_2, # of connection points: 3
#     Node 3, Type 0, BuildingBlock: OLANEW_clean_sbu_2, # of connection points: 3
#     Node 4, Type 0, BuildingBlock: OLANEW_clean_sbu_2, # of connection points: 3
#     Node 5, Type 0, BuildingBlock: OLANEW_clean_sbu_2, # of connection points: 3
#     Node 6, Type 0, BuildingBlock: OLANEW_clean_sbu_2, # of connection points: 3
#     Node 7, Type 0, BuildingBlock: OLANEW_clean_sbu_2, # of connection points: 3
#     Node 8, Type 1, BuildingBlock: INOVEN_clean_sbu_0, # of connection points: 6
#     Node 9, Type 1, BuildingBlock: INOVEN_clean_sbu_0, # of connection points: 6
#     Node 10, Type 1, BuildingBlock: INOVEN_clean_sbu_0, # of connection points: 6
#     Node 11, Type 1, BuildingBlock: INOVEN_clean_sbu_0, # of connection points: 6
#     Edge 12, Type (0, 1), BuildingBlock: CIFDUS_clean_linker_0, # of connection points: 2
#     Edge 13, Type (0, 1), BuildingBlock: CIFDUS_clean_linker_0, # of connection points: 2
#     Edge 14, Type (0, 1), BuildingBlock: CIFDUS_clean_linker_0, # of connection points: 2
#     Edge 15, Type (0, 1), BuildingBlock: CIFDUS_clean_linker_0, # of connection points: 2
#     Edge 16, Type (0, 1), BuildingBlock: CIFDUS_clean_linker_0, # of connection points: 2
#     Edge 17, Type (0, 1), BuildingBlock: CIFDUS_clean_linker_0, # of connection points: 2
#     Edge 18, Type (0, 1), BuildingBlock: CIFDUS_clean_linker_0, # of connection points: 2
#     Edge 19, Type (0, 1), BuildingBlock: CIFDUS_clean_linker_0, # of connection points: 2
#     Edge 20, Type (0, 1), BuildingBlock: CIFDUS_clean_linker_0, # of connection points: 2
#     Edge 21, Type (0, 1), BuildingBlock: CIFDUS_clean_linker_0, # of connection points: 2
#     Edge 22, Type (0, 1), BuildingBlock: CIFDUS_clean_linker_0, # of connection points: 2
#     Edge 23, Type (0, 1), BuildingBlock: CIFDUS_clean_linker_0, # of connection points: 2
#     Edge 24, Type (0, 1), BuildingBlock: CIFDUS_clean_linker_0, # of connection points: 2
#     Edge 25, Type (0, 1), BuildingBlock: CIFDUS_clean_linker_0, # of connection points: 2
#     Edge 26, Type (0, 1), BuildingBlock: CIFDUS_clean_linker_0, # of connection points: 2
#     Edge 27, Type (0, 1), BuildingBlock: CIFDUS_clean_linker_0, # of connection points: 2
#     Edge 28, Type (0, 1), BuildingBlock: CIFDUS_clean_linker_0, # of connection points: 2
#     Edge 29, Type (0, 1), BuildingBlock: CIFDUS_clean_linker_0, # of connection points: 2
#     Edge 30, Type (0, 1), BuildingBlock: CIFDUS_clean_linker_0, # of connection points: 2
#     Edge 31, Type (0, 1), BuildingBlock: CIFDUS_clean_linker_0, # of connection points: 2
#     Edge 32, Type (0, 1), BuildingBlock: CIFDUS_clean_linker_0, # of connection points: 2
#     Edge 33, Type (0, 1), BuildingBlock: CIFDUS_clean_linker_0, # of connection points: 2
#     Edge 34, Type (0, 1), BuildingBlock: CIFDUS_clean_linker_0, # of connection points: 2
#     Edge 35, Type (0, 1), BuildingBlock: CIFDUS_clean_linker_0, # of connection points: 2
# Relax obj value: 0.259
# Max RMSD: 0.194
# Mean RMSD: 0.171
data_MOF--net-zzz--node1-OLANEW_clean_sbu_2--node2-INOVEN_clean_sbu_0--edge1-CIFDUS_clean_linker_0
_symmetry_space_group_name_H-M    P1
_symmetry_Int_Tables_number       1
_symmetry_cell_setting            triclinic
loop_
_symmetry_equiv_pos_as_xyz
'x, y, z'
_cell_length_a     50.072109
_cell_length_b     50.150173
_cell_length_c     13.492014
_cell_angle_alpha  89.911958
_cell_angle_beta   90.029033
_cell_angle_gamma 89.990591
loop_
_atom_site_label
_atom_site_type_symbol
_atom_site_fract_x
_atom_site_fract_y
_atom_site_fract_z
_atom_type_partial_charge
O0 O 0.73567 0.50384 0.22411 0.0
Cd1 Cd 0.69387 0.51528 0.30764 0.0
O2 O 0.74526 0.48403 0.36321 0.0
Cd3 Cd 0.76717 0.46434 0.48188 0.0
O4 O 0.79822 0.46939 0.59201 0.0
C5 C 0.80559 0.49348 0.60163 0.0
O6 O 0.79314 0.51207 0.5507 0.0
C7 C 0.75254 0.49133 0.27686 0.0
C8 C 0.64928 0.50988 0.18698 0.0
O9 O 0.66368 0.53099 0.18427 0.0
O10 O 0.65601 0.49117 0.24684 0.0
O11 O 0.93913 0.72333 0.32211 0.0
Cd12 Cd 0.93257 0.67821 0.3858 0.0
O13 O 0.98021 0.72134 0.37698 0.0
Cd14 Cd 0.01669 0.74033 0.42886 0.0
O15 O 0.02231 0.77498 0.52231 0.0
C16 C 0.0279 0.79665 0.47863 0.0
O17 O 0.03436 0.79606 0.38446 0.0
C18 C 0.96179 0.73428 0.3331 0.0
C19 C 0.94696 0.64242 0.23852 0.0
O20 O 0.92328 0.65203 0.24334 0.0
O21 O 0.9638 0.64916 0.30553 0.0
O22 O 0.76986 0.98699 0.30958 0.0
Cd23 Cd 0.81296 0.97648 0.38479 0.0
O24 O 0.75769 0.99508 0.46102 0.0
Cd25 Cd 0.73537 0.00222 0.59701 0.0
O26 O 0.73075 -0.00015 0.76456 0.0
C27 C 0.70987 0.99 0.80477 0.0
O28 O 0.73165 0.00026 0.76783 0.0
C29 C 0.7515 0.99341 0.36978 0.0
C30 C 0.8541 0.9826 0.24926 0.0
O31 O 0.84019 0.96117 0.25218 0.0
O32 O 0.84874 0.00115 0.31139 0.0
O33 O 0.52612 0.7793 0.28495 0.0
Cd34 Cd 0.53818 0.82235 0.3563 0.0
O35 O 0.49081 0.78017 0.37983 0.0
Cd36 Cd 0.45907 0.76082 0.46292 0.0
O37 O 0.45622 0.72327 0.54142 0.0
C38 C 0.4778 0.71008 0.5349 0.0
O39 O 0.49826 0.7206 0.48832 0.0
C40 C 0.50488 0.76816 0.31522 0.0
C41 C 0.52685 0.86148 0.21754 0.0
O42 O 0.54913 0.8489 0.21683 0.0
O43 O 0.51005 0.85617 0.28645 0.0
O44 O 0.26592 0.5122 0.1221 0.0
Cd45 Cd 0.31002 0.49608 0.07338 0.0
O46 O 0.25187 0.47593 0.05002 0.0
Cd47 Cd 0.22474 0.44601 0.98916 0.0
O48 O 0.21448 0.41044 0.90426 0.0
C49 C 0.19369 0.4074 0.85147 0.0
O50 O 0.19142 0.38581 0.7971 0.0
C51 C 0.24664 0.49706 0.09826 0.0
C52 C 0.3477 0.50199 0.22353 0.0
O53 O 0.34558 0.51933 0.15404 0.0
O54 O 0.33193 0.48187 0.22222 0.0
O55 O 0.96487 0.27997 0.18078 0.0
Cd56 Cd 0.9767 0.32315 0.11001 0.0
O57 O 0.00377 0.26909 0.12022 0.0
Cd58 Cd 0.03344 0.24048 0.07035 0.0
O59 O 0.04025 0.20126 0.009 0.0
C60 C 0.03397 0.19758 0.91888 0.0
O61 O 0.02599 0.21803 0.86558 0.0
C62 C 0.98277 0.26244 0.16732 0.0
C63 C 0.99051 0.35856 0.2593 0.0
O64 O 0.96712 0.35891 0.22065 0.0
O65 O 0.00751 0.34164 0.22653 0.0
O66 O 0.23599 0.98986 0.15935 0.0
Cd67 Cd 0.19197 0.00677 0.11586 0.0
O68 O 0.24598 0.02929 0.10309 0.0
Cd69 Cd 0.27109 0.061 0.04598 0.0
O70 O 0.31015 0.06803 0.9847 0.0
C71 C 0.31545 0.0558 0.90481 0.0
O72 O 0.29636 0.04241 0.86028 0.0
C73 C 0.2537 0.00716 0.13975 0.0
C74 C 0.15784 0.00774 0.27743 0.0
O75 O 0.15725 0.98853 0.21488 0.0
O76 O 0.17473 0.02658 0.26391 0.0
O77 O 0.51609 0.22957 0.14988 0.0
Cd78 Cd 0.51333 0.18553 0.07487 0.0
O79 O 0.47548 0.23266 0.09178 0.0
Cd80 Cd 0.44131 0.2562 0.04504 0.0
O81 O 0.43765 0.29593 0.98424 0.0
C82 C 0.44695 0.29982 0.89788 0.0
O83 O 0.45553 0.27933 0.84634 0.0
C84 C 0.49486 0.24308 0.13898 0.0
C85 C 0.50747 0.14736 0.22208 0.0
O86 O 0.53033 0.15195 0.1829 0.0
O87 O 0.48727 0.16057 0.19058 0.0
Gd88 Gd 0.00771 0.98132 0.8254 0.0
Gd89 Gd 0.98322 0.00538 0.63418 0.0
C90 C 0.98638 0.94229 0.64753 0.0
C91 C 0.01461 0.95477 0.98807 0.0
C92 C 0.01068 0.9273 0.02501 0.0
C93 C 0.03048 0.91548 0.08411 0.0
C94 C 0.98731 0.91285 0.00377 0.0
C95 C 0.00359 0.87524 0.10124 0.0
C96 C 0.98375 0.88713 0.04201 0.0
C97 C 0.02704 0.88967 0.12156 0.0
C98 C 0.0424 0.99261 0.67879 0.0
C99 C 0.00994 0.04383 0.8043 0.0
C100 C 0.97338 0.03186 0.4733 0.0
C101 C 0.97745 0.05923 0.43681 0.0
C102 C 0.96144 0.06913 0.35989 0.0
C103 C 0.99714 0.07567 0.47835 0.0
C104 C 0.98469 0.11183 0.36647 0.0
C105 C 0.00065 0.10174 0.44395 0.0
C106 C 0.96505 0.09516 0.3248 0.0
C107 C 0.94871 0.99219 0.77804 0.0
O108 O 0.99133 0.94528 0.74355 0.0
O109 O 0.98462 0.96288 0.58666 0.0
O110 O 0.03357 0.95829 0.92256 0.0
O111 O 0.99303 0.96861 0.96848 0.0
O112 O 0.04856 0.99495 0.77212 0.0
O113 O 0.0194 0.98309 0.66968 0.0
O114 O 0.00312 0.04048 0.71012 0.0
O115 O 0.01013 0.02397 0.86853 0.0
O116 O 0.95599 0.02902 0.54494 0.0
O117 O 0.99499 0.01757 0.48669 0.0
O118 O 0.94355 0.98893 0.68447 0.0
O119 O 0.97103 0.00322 0.79002 0.0
H120 H 0.04861 0.92628 0.10171 0.0
H121 H 0.97176 0.92144 0.95782 0.0
H122 H 0.96561 0.87638 0.02417 0.0
H123 H 0.04257 0.88112 0.16763 0.0
H124 H 0.94621 0.05666 0.32661 0.0
H125 H 0.00984 0.06831 0.53727 0.0
H126 H 0.01571 0.11406 0.47883 0.0
H127 H 0.95268 0.10209 0.26414 0.0
Gd128 Gd 0.51469 -0.0004 0.78703 0.0
Gd129 Gd 0.50343 0.97914 0.57498 0.0
C130 C 0.56157 0.97079 0.65895 0.0
C131 C 0.5321 0.007 0.96515 0.0
C132 C 0.55796 0.00251 0.01444 0.0
C133 C 0.5683 0.02218 0.07736 0.0
C134 C 0.57344 0.97987 0.99321 0.0
C135 C 0.60985 0.99726 0.0942 0.0
C136 C 0.59906 0.97723 0.03304 0.0
C137 C 0.594 0.01963 0.11677 0.0
C138 C 0.51725 0.03574 0.6396 0.0
C139 C 0.4562 0.00603 0.71333 0.0
C140 C 0.48608 0.97611 0.39498 0.0
C141 C 0.46051 0.98419 0.34929 0.0
C142 C 0.44892 0.96857 0.27458 0.0
C143 C 0.44658 0.00652 0.38481 0.0
C144 C 0.40933 0.99704 0.27391 0.0
C145 C 0.42129 0.01281 0.34787 0.0
C146 C 0.42359 0.97497 0.23698 0.0
C147 C 0.50251 0.94189 0.7175 0.0
O148 O 0.55117 0.97599 0.7467 0.0
O149 O 0.54817 0.9743 0.57522 0.0
O150 O 0.53213 0.02563 0.89732 0.0
O151 O 0.5186 0.9858 0.93865 0.0
O152 O 0.50701 0.04099 0.72569 0.0
O153 O 0.52601 0.01235 0.63706 0.0
O154 O 0.46534 0.00047 0.62342 0.0
O155 O 0.47092 0.00323 0.7935 0.0
O156 O 0.48462 0.95623 0.45776 0.0
O157 O 0.50148 0.99547 0.42645 0.0
O158 O 0.51079 0.93732 0.62772 0.0
O159 O 0.4934 0.96527 0.72475 0.0
H160 H 0.55675 0.0399 0.09385 0.0
H161 H 0.56596 0.96443 0.94446 0.0
H162 H 0.61047 0.95951 0.01533 0.0
H163 H 0.60172 0.03563 0.16235 0.0
H164 H 0.45927 0.95119 0.24647 0.0
H165 H 0.45498 0.01887 0.44273 0.0
H166 H 0.41081 0.02965 0.37958 0.0
H167 H 0.41515 0.96255 0.17933 0.0
Gd168 Gd 0.48084 0.51541 0.83298 0.0
Gd169 Gd 0.5006 0.49487 0.63056 0.0
C170 C 0.4991 0.55719 0.6603 0.0
C171 C 0.47644 0.54003 0.00086 0.0
C172 C 0.48228 0.56699 0.03852 0.0
C173 C 0.46857 0.57673 0.12157 0.0
C174 C 0.50145 0.58318 0.99226 0.0
C175 C 0.49347 0.61846 0.11289 0.0
C176 C 0.50701 0.60863 0.02911 0.0
C177 C 0.47407 0.60225 0.15843 0.0
C178 C 0.44279 0.50549 0.69699 0.0
C179 C 0.47993 0.45314 0.80277 0.0
C180 C 0.50665 0.4717 0.46056 0.0
C181 C 0.50715 0.44456 0.41911 0.0
C182 C 0.52281 0.43937 0.33527 0.0
C183 C 0.49253 0.42374 0.46251 0.0
C184 C 0.50952 0.39263 0.33889 0.0
C185 C 0.49373 0.39799 0.42289 0.0
C186 C 0.52398 0.41368 0.29539 0.0
C187 C 0.5388 0.50619 0.7637 0.0
O188 O 0.49653 0.55231 0.75623 0.0
O189 O 0.49801 0.53811 0.59316 0.0
O190 O 0.45688 0.5382 0.93686 0.0
O191 O 0.49714 0.52544 0.97672 0.0
O192 O 0.43946 0.5009 0.79107 0.0
O193 O 0.4651 0.51611 0.68134 0.0
O194 O 0.48511 0.45766 0.70772 0.0
O195 O 0.48014 0.4723 0.86963 0.0
O196 O 0.52661 0.47805 0.51844 0.0
O197 O 0.48361 0.48042 0.49319 0.0
O198 O 0.54134 0.51065 0.66943 0.0
O199 O 0.51698 0.49473 0.78204 0.0
H200 H 0.4537 0.56452 0.15829 0.0
H201 H 0.51222 0.57613 0.92782 0.0
H202 H 0.52177 0.62073 0.99139 0.0
H203 H 0.46347 0.60912 0.22353 0.0
H204 H 0.53418 0.45522 0.30056 0.0
H205 H 0.48028 0.42738 0.52711 0.0
H206 H 0.4826 0.38222 0.45902 0.0
H207 H 0.53603 0.41036 0.22992 0.0
Gd208 Gd 0.0046 0.49766 0.85089 0.0
Gd209 Gd 0.01478 0.52546 0.6494 0.0
C210 C 0.95499 0.52535 0.72712 0.0
C211 C 0.98795 0.48758 0.02824 0.0
C212 C 0.96114 0.48402 0.07175 0.0
C213 C 0.94066 0.47144 0.01822 0.0
C214 C 0.95544 0.49474 0.16524 0.0
C215 C 0.90882 0.48093 0.15048 0.0
C216 C 0.92956 0.49328 0.20417 0.0
C217 C 0.91485 0.46974 0.0574 0.0
C218 C 0.00201 0.4661 0.6898 0.0
C219 C 0.0623 0.49324 0.76525 0.0
C220 C 0.02966 0.53653 0.47075 0.0
C221 C 0.05158 0.527 0.40779 0.0
C222 C 0.06144 0.54309 0.33122 0.0
C223 C 0.06406 0.50261 0.4286 0.0
C224 C 0.09761 0.51145 0.30227 0.0
C225 C 0.08694 0.49498 0.37697 0.0
C226 C 0.08418 0.53532 0.27837 0.0
C227 C 0.01407 0.5575 0.80856 0.0
O228 O 0.96402 0.51455 0.81039 0.0
O229 O 0.97052 0.52998 0.64983 0.0
O230 O 0.9961 0.46903 0.967 0.0
O231 O 0.99341 0.51171 0.99706 0.0
O232 O 0.01082 0.45777 0.77505 0.0
O233 O 0.99359 0.48956 0.69661 0.0
O234 O 0.05139 0.50022 0.67962 0.0
O235 O 0.04912 0.49527 0.84969 0.0
O236 O 0.03704 0.55051 0.54797 0.0
O237 O 0.01106 0.519 0.49149 0.0
O238 O 0.00545 0.56459 0.72162 0.0
O239 O 0.02439 0.5346 0.80482 0.0
H240 H 0.94448 0.4632 0.94541 0.0
H241 H 0.97089 0.50477 0.20729 0.0
H242 H 0.92573 0.50253 0.27519 0.0
H243 H 0.89964 0.45969 0.01435 0.0
H244 H 0.05193 0.56193 0.31379 0.0
H245 H 0.0565 0.48977 0.48673 0.0
H246 H 0.0968 0.47664 0.39848 0.0
H247 H 0.09147 0.54823 0.21996 0.0
H248 H 0.10991 0.98364 0.28823 0.0
H249 H 0.16391 0.03334 0.45481 0.0
H250 H 0.13301 0.03311 0.59568 0.0
H251 H 0.09058 0.01797 0.67206 0.0
H252 H 0.03607 0.97054 0.49809 0.0
H253 H 0.06711 0.97077 0.35963 0.0
C254 C 0.11494 0.99437 0.35549 0.0
C255 C 0.13918 0.00824 0.36181 0.0
C256 C 0.09694 0.99458 0.43481 0.0
C257 C 0.1453 0.02247 0.44855 0.0
C258 C 0.12768 0.02231 0.52904 0.0
C259 C 0.08562 0.00777 0.60367 0.0
C260 C 0.06125 0.99413 0.59541 0.0
C261 C 0.10345 0.00833 0.52316 0.0
C262 C 0.05475 0.9812 0.50623 0.0
C263 C 0.0725 0.98124 0.42697 0.0
H264 H 0.53892 0.10464 0.25848 0.0
H265 H 0.46964 0.14651 0.36701 0.0
H266 H 0.46667 0.11584 0.5078 0.0
H267 H 0.48469 0.07773 0.60248 0.0
H268 H 0.55203 0.03419 0.48667 0.0
H269 H 0.55489 0.06483 0.34607 0.0
C270 C 0.52317 0.10699 0.31295 0.0
C271 C 0.5047 0.12788 0.30326 0.0
C272 C 0.52133 0.08906 0.39244 0.0
C273 C 0.48409 0.13052 0.37318 0.0
C274 C 0.48244 0.11308 0.45379 0.0
C275 C 0.49999 0.07512 0.54644 0.0
C276 C 0.51836 0.05414 0.55505 0.0
C277 C 0.50111 0.09243 0.46467 0.0
C278 C 0.53779 0.05042 0.48139 0.0
C279 C 0.53945 0.06789 0.40116 0.0
H280 H 0.34817 0.47834 0.40506 0.0
H281 H 0.39247 0.53271 0.21911 0.0
H282 H 0.42613 0.53786 0.34861 0.0
H283 H 0.44274 0.52731 0.51466 0.0
H284 H 0.39768 0.47497 0.7054 0.0
H285 H 0.36441 0.46857 0.57395 0.0
C286 C 0.36523 0.49126 0.39294 0.0
C287 C 0.36787 0.50507 0.30261 0.0
C288 C 0.38427 0.49451 0.46849 0.0
C289 C 0.38993 0.52194 0.28815 0.0
C290 C 0.40921 0.52486 0.36204 0.0
C291 C 0.42565 0.51445 0.52735 0.0
C292 C 0.42259 0.50154 0.61911 0.0
C293 C 0.40653 0.5113 0.45244 0.0
C294 C 0.40032 0.48513 0.63518 0.0
C295 C 0.38138 0.48147 0.56011 0.0
H296 H 0.96817 0.40639 0.30005 0.0
H297 H 0.02838 0.35126 0.40189 0.0
H298 H 0.0376 0.37982 0.54478 0.0
H299 H 0.0271 0.41973 0.64444 0.0
H300 H 0.96863 0.47584 0.53614 0.0
H301 H 0.96025 0.44779 0.39184 0.0
C302 C 0.98335 0.40069 0.35346 0.0
C303 C 0.99737 0.37668 0.34136 0.0
C304 C 0.98879 0.41735 0.43432 0.0
C305 C 0.01731 0.3697 0.40994 0.0
C306 C 0.02252 0.38595 0.49174 0.0
C307 C 0.01258 0.42571 0.58902 0.0
C308 C 0.99824 0.44951 0.60117 0.0
C309 C 0.00815 0.40967 0.50534 0.0
C310 C 0.9798 0.45746 0.52834 0.0
C311 C 0.97496 0.44143 0.44595 0.0
H312 H 0.85786 0.95755 0.07278 0.0
H313 H 0.89718 0.01585 0.2569 0.0
H314 H 0.93115 0.0227 0.12904 0.0
H315 H 0.94858 0.01325 0.96221 0.0
H316 H 0.90706 0.95765 0.77356 0.0
H317 H 0.875 0.94842 0.90611 0.0
C318 C 0.87399 0.9716 0.08514 0.0
C319 C 0.87513 0.98612 0.17398 0.0
C320 C 0.89294 0.97594 0.01043 0.0
C321 C 0.8959 0.00451 0.18878 0.0
C322 C 0.91531 0.00841 0.11584 0.0
C323 C 0.93257 -0.00099 0.95062 0.0
C324 C 0.93005 0.98608 0.85885 0.0
C325 C 0.91386 0.99441 0.02603 0.0
C326 C 0.90921 0.96786 0.84382 0.0
C327 C 0.89094 0.96258 0.91945 0.0
H328 H 0.54875 0.86299 0.03563 0.0
H329 H 0.48933 0.90125 0.21802 0.0
H330 H 0.47661 0.93009 0.0789 0.0
H331 H 0.4817 0.94335 0.90327 0.0
H332 H 0.53954 0.90269 0.721 0.0
H333 H 0.55346 0.87566 0.86214 0.0
C334 C 0.53319 0.87781 0.04532 0.0
C335 C 0.52008 0.88012 0.1368 0.0
C336 C 0.52554 0.89366 0.96477 0.0
C337 C 0.49969 0.89913 0.148 0.0
C338 C 0.49239 0.91556 0.06858 0.0
C339 C 0.49732 0.92852 0.89493 0.0
C340 C 0.50964 0.92496 0.80241 0.0
C341 C 0.50501 0.91279 0.97628 0.0
C342 C 0.52969 0.90563 0.79162 0.0
C343 C 0.53776 0.89028 0.8723 0.0
H344 H 0.63923 0.53718 0.01812 0.0
H345 H 0.6069 0.4761 0.20898 0.0
H346 H 0.56858 0.47089 0.09809 0.0
H347 H 0.54518 0.4826 0.94309 0.0
H348 H 0.57955 0.54128 0.74712 0.0
H349 H 0.61609 0.54874 0.86408 0.0
C350 C 0.62371 0.52284 0.03573 0.0
C351 C 0.62584 0.50707 0.12147 0.0
C352 C 0.60215 0.51953 0.97063 0.0
C353 C 0.60574 0.48838 0.14299 0.0
C354 C 0.58382 0.48543 0.07978 0.0
C355 C 0.56061 0.49713 0.92667 0.0
C356 C 0.55984 0.5114 0.83708 0.0
C357 C 0.58194 0.50073 0.99291 0.0
C358 C 0.57993 0.53002 0.81571 0.0
C359 C 0.60078 0.53428 0.88243 0.0
H360 H 0.99136 0.6111 0.22262 0.0
H361 H 0.9205 0.63591 0.06472 0.0
H362 H 0.93521 0.61165 0.91843 0.0
H363 H 0.96894 0.58535 0.83258 0.0
H364 H 0.03883 0.55804 0.98921 0.0
H365 H 0.02379 0.58131 0.13942 0.0
C366 C 0.9791 0.61103 0.15633 0.0
C367 C 0.955 0.6255 0.1542 0.0
C368 C 0.98759 0.59682 0.07234 0.0
C369 C 0.93913 0.62497 0.06832 0.0
C370 C 0.94757 0.61121 0.98441 0.0
C371 C 0.98092 0.58459 0.8996 0.0
C372 C 0.00514 0.57057 0.90008 0.0
C373 C 0.97191 0.59746 0.98516 0.0
C374 C 0.02021 0.56905 0.98757 0.0
C375 C 0.01161 0.5823 0.07309 0.0
H376 H 0.02049 0.227 0.22911 0.0
H377 H 0.93553 0.2361 0.1898 0.0
H378 H 0.92849 0.19039 0.24792 0.0
H379 H 0.94659 0.14786 0.30975 0.0
H380 H 0.03194 0.13825 0.33875 0.0
H381 H 0.03874 0.18395 0.28239 0.0
C382 C 0.00051 0.21874 0.22993 0.0
C383 C 0.97866 0.2347 0.20214 0.0
C384 C 0.99667 0.19237 0.26203 0.0
C385 C 0.95273 0.22416 0.20996 0.0
C386 C 0.9487 0.198 0.24293 0.0
C387 C 0.96671 0.15561 0.30259 0.0
C388 C 0.98869 0.13956 0.3292 0.0
C389 C 0.97054 0.18189 0.2689 0.0
C390 C 0.01459 0.15021 0.32072 0.0
C391 C 0.01853 0.17633 0.28786 0.0
H392 H 0.29476 0.04208 0.17323 0.0
H393 H 0.27701 0.95817 0.15158 0.0
H394 H 0.32365 0.94747 0.18713 0.0
H395 H 0.36914 0.96201 0.23009 0.0
H396 H 0.38724 0.04615 0.23885 0.0
H397 H 0.34095 0.05668 0.19855 0.0
C398 C 0.30117 0.02151 0.17184 0.0
C399 C 0.28239 0.00105 0.15685 0.0
C400 C 0.32814 0.0155 0.19052 0.0
C401 C 0.291 0.97438 0.16233 0.0
C402 C 0.31771 0.96822 0.1824 0.0
C403 C 0.36314 0.98265 0.22137 0.0
C404 C 0.38172 0.00322 0.23893 0.0
C405 C 0.33645 0.98863 0.19722 0.0
C406 C 0.37333 0.02987 0.22816 0.0
C407 C 0.34684 0.03594 0.20467 0.0
H408 H 0.53516 0.27902 0.15747 0.0
H409 H 0.45096 0.26859 0.21179 0.0
H410 H 0.44779 0.31415 0.27379 0.0
H411 H 0.46903 0.35682 0.3151 0.0
H412 H 0.55375 0.36665 0.269 0.0
H413 H 0.5566 0.32162 0.20134 0.0
C414 C 0.51613 0.28677 0.1828 0.0
C415 C 0.49317 0.2707 0.17723 0.0
C416 C 0.51456 0.31289 0.22021 0.0
C417 C 0.4687 0.2809 0.21128 0.0
C418 C 0.46694 0.30686 0.24808 0.0
C419 C 0.48817 0.34906 0.29105 0.0
C420 C 0.51112 0.36517 0.29726 0.0
C421 C 0.48974 0.32303 0.253 0.0
C422 C 0.53568 0.35487 0.26403 0.0
C423 C 0.53738 0.32903 0.22584 0.0
H424 H 0.20524 0.46331 0.13622 0.0
H425 H 0.2266 0.5466 0.13095 0.0
H426 H 0.182 0.55854 0.18922 0.0
H427 H 0.13783 0.54516 0.24886 0.0
H428 H 0.11594 0.46186 0.24927 0.0
H429 H 0.16002 0.45009 0.18643 0.0
C430 C 0.19992 0.4841 0.14487 0.0
C431 C 0.21906 0.50405 0.12736 0.0
C432 C 0.17428 0.4908 0.1789 0.0
C433 C 0.21217 0.53086 0.14355 0.0
C434 C 0.18668 0.53771 0.1768 0.0
C435 C 0.14236 0.52447 0.23293 0.0
C436 C 0.12348 0.50447 0.2543 0.0
C437 C 0.16764 0.51782 0.19541 0.0
C438 C 0.13015 0.4777 0.23533 0.0
C439 C 0.15535 0.47092 0.19886 0.0
H440 H 0.00619 0.75515 0.24703 0.0
H441 H 0.92623 0.77521 0.33853 0.0
H442 H 0.93202 0.82062 0.27544 0.0
H443 H 0.95976 0.8546 0.19297 0.0
H444 H 0.03944 0.83429 0.09836 0.0
H445 H 0.03377 0.78905 0.1627 0.0
C446 C 0.99017 0.76959 0.25399 0.0
C447 C 0.96598 0.76201 0.29867 0.0
C448 C 0.99348 0.79553 0.21581 0.0
C449 C 0.94512 0.78067 0.30502 0.0
C450 C 0.9484 0.80661 0.26885 0.0
C451 C 0.97582 0.84021 0.18615 0.0
C452 C -1e-05 0.8478 0.14102 0.0
C453 C 0.97246 0.81425 0.22378 0.0
C454 C 0.02073 0.82902 0.13361 0.0
C455 C 0.01745 0.80311 0.16992 0.0
H456 H 0.7321 0.97956 0.18992 0.0
H457 H 0.70856 0.01644 0.4651 0.0
H458 H 0.66283 0.02052 0.40437 0.0
H459 H 0.62915 0.01222 0.27564 0.0
H460 H 0.65365 0.97802 0.99638 0.0
H461 H 0.69924 0.97387 0.05743 0.0
C462 C 0.71701 0.98851 0.23701 0.0
C463 C 0.72377 0.99708 0.3332 0.0
C464 C 0.69079 0.99097 0.20141 0.0
C465 C 0.70391 0.00883 0.39235 0.0
C466 C 0.67772 0.01133 0.3574 0.0
C467 C 0.64448 0.00412 0.22759 0.0
C468 C 0.63776 0.99518 0.13179 0.0
C469 C 0.67087 0.00221 0.26248 0.0
C470 C 0.65797 0.98448 0.07124 0.0
C471 C 0.68416 0.98229 0.10578 0.0
H472 H 0.53917 0.72944 0.25706 0.0
H473 H 0.45523 0.74592 0.29321 0.0
H474 H 0.44432 0.70067 0.23951 0.0
H475 H 0.45865 0.65672 0.17704 0.0
H476 H 0.54268 0.6408 0.1383 0.0
H477 H 0.55348 0.68553 0.19696 0.0
C478 C 0.51848 0.72314 0.25296 0.0
C479 C 0.49808 0.7409 0.28085 0.0
C480 C 0.51235 0.6972 0.22093 0.0
C481 C 0.47136 0.73244 0.27498 0.0
C482 C 0.4651 0.70661 0.2434 0.0
C483 C 0.47933 0.66296 0.18239 0.0
C484 C 0.4998 0.64544 0.15258 0.0
C485 C 0.48543 0.68881 0.21604 0.0
C486 C 0.5265 0.65398 0.15914 0.0
C487 C 0.53271 0.67954 0.19312 0.0
H488 H 0.79893 0.4833 0.38191 0.0
H489 H 0.76853 0.4913 0.08438 0.0
H490 H 0.81384 0.48838 0.01891 0.0
H491 H 0.86211 0.48565 0.04648 0.0
H492 H 0.89239 0.47534 0.34402 0.0
H493 H 0.847 0.47716 0.40916 0.0
C494 C 0.80197 0.48357 0.30289 0.0
C495 C 0.78009 0.48708 0.23859 0.0
C496 C 0.82816 0.48187 0.26561 0.0
C497 C 0.78489 0.48854 0.13594 0.0
C498 C 0.81084 0.4869 0.09829 0.0
C499 C 0.85889 0.48323 0.12544 0.0
C500 C 0.8809 0.48048 0.18991 0.0
C501 C 0.83266 0.48382 0.16251 0.0
C502 C 0.87605 0.478 0.29236 0.0
C503 C 0.85001 0.47881 0.32981 0.0
H504 H 0.0393 0.15116 0.02039 0.0
H505 H 0.02375 0.1827 0.72798 0.0
H506 H 0.01584 0.13767 0.66587 0.0
H507 H 0.01084 0.08984 0.69708 0.0
H508 H 0.02556 0.05851 0.9905 0.0
H509 H 0.03616 0.10314 0.04977 0.0
C510 C 0.03451 0.14819 0.94276 0.0
C511 C 0.03206 0.17025 0.87896 0.0
C512 C 0.02957 0.12235 0.90795 0.0
C513 C 0.0257 0.16605 0.77871 0.0
C514 C 0.0211 0.14032 0.74318 0.0
C515 C 0.01655 0.09266 0.77377 0.0
C516 C 0.01729 0.07079 0.83909 0.0
C517 C 0.02256 0.11839 0.80756 0.0
C518 C 0.02471 0.07495 0.93845 0.0
C519 C 0.03082 0.10048 0.97253 0.0
H520 H 0.33367 0.03348 0.73406 0.0
H521 H 0.36006 0.07057 0.00592 0.0
H522 H 0.40613 0.05938 0.96697 0.0
H523 H 0.43834 0.03621 0.8634 0.0
H524 H 0.41309 -0.00078 0.59046 0.0
H525 H 0.36701 0.01353 0.62163 0.0
C526 C 0.34956 0.03942 0.78403 0.0
C527 C 0.34343 0.05261 0.87313 0.0
C528 C 0.37609 0.03279 0.76145 0.0
C529 C 0.36421 0.06039 0.93686 0.0
C530 C 0.39057 0.05389 0.91497 0.0
C531 C 0.42276 0.03128 0.81054 0.0
C532 C 0.42888 0.01625 0.72587 0.0
C533 C 0.39661 0.03958 0.82878 0.0
C534 C 0.40872 0.01061 0.65666 0.0
C535 C 0.38243 0.01873 0.67457 0.0
H536 H 0.44675 0.34507 0.00679 0.0
H537 H 0.45861 0.31584 0.70928 0.0
H538 H 0.46997 0.36084 0.65326 0.0
H539 H 0.47759 0.40811 0.69026 0.0
H540 H 0.46669 0.43674 0.98939 0.0
H541 H 0.4542 0.39215 0.04342 0.0
C542 C 0.45149 0.34857 0.92939 0.0
C543 C 0.45165 0.32722 0.86209 0.0
C544 C 0.45846 0.37429 0.89824 0.0
C545 C 0.45827 0.332 0.76244 0.0
C546 C 0.46484 0.35768 0.73045 0.0
C547 C 0.47244 0.40466 0.76716 0.0
C548 C 0.47305 0.42583 0.83535 0.0
C549 C 0.46522 0.37892 0.79796 0.0
C550 C 0.46643 0.42088 0.93503 0.0
C551 C 0.45918 0.39537 0.96614 0.0
H552 H 0.16387 0.42194 0.69429 0.0
H553 H 0.17519 0.43747 0.00549 0.0
H554 H 0.13619 0.46711 0.00523 0.0
H555 H 0.09688 0.48557 0.9195 0.0
H556 H 0.0867 0.47036 0.60687 0.0
H557 H 0.12733 0.44388 0.60488 0.0
C558 C 0.15794 0.43205 0.76184 0.0
C559 C 0.17227 0.42759 0.84972 0.0
C560 C 0.13565 0.44899 0.76119 0.0
C561 C 0.16463 0.44093 0.93665 0.0
C562 C 0.14225 0.45764 0.93682 0.0
C563 C 0.10372 0.47666 0.85084 0.0
C564 C 0.08861 0.47983 0.7637 0.0
C565 C 0.1273 0.46141 0.84996 0.0
C566 C 0.09791 0.46839 0.67503 0.0
C567 C 0.12112 0.45306 0.67381 0.0
H568 H 0.01052 0.84136 0.3887 0.0
H569 H 0.0292 0.80834 0.67588 0.0
H570 H 0.01526 0.84996 0.7554 0.0
H571 H 0.99907 0.89598 0.74198 0.0
H572 H 0.97933 0.92826 0.45387 0.0
H573 H 0.99164 0.88621 0.3762 0.0
C574 C 0.01181 0.84339 0.46862 0.0
C575 C 0.02134 0.82213 0.52648 0.0
C576 C 0.00311 0.86698 0.51364 0.0
C577 C 0.02221 0.82467 0.63004 0.0
C578 C 0.0141 0.84834 0.67541 0.0
C579 C 0.99701 0.89373 0.66239 0.0
C580 C 0.98847 0.91536 0.60391 0.0
C581 C 0.00453 0.86962 0.61784 0.0
C582 C 0.98591 0.91199 0.50083 0.0
C583 C 0.99315 0.88802 0.45609 0.0
H584 H 0.67374 0.95181 0.83216 0.0
H585 H 0.69087 0.02028 0.64974 0.0
H586 H 0.64711 0.0165 0.57072 0.0
H587 H 0.60184 0.99726 0.56975 0.0
H588 H 0.58424 0.9306 0.76035 0.0
H589 H 0.63056 0.92918 0.81624 0.0
C590 C 0.66808 0.96542 0.77311 0.0
C591 C 0.68549 0.98598 0.74579 0.0
C592 C 0.64293 0.96314 0.72824 0.0
C593 C 0.67801 0.00382 0.6702 0.0
C594 C 0.65296 0.00173 0.62516 0.0
C595 C 0.60858 0.98167 0.61969 0.0
C596 C 0.58996 0.96378 0.65985 0.0
C597 C 0.63501 0.98182 0.65506 0.0
C598 C 0.5985 0.94419 0.72724 0.0
C599 C 0.62486 0.94366 0.76038 0.0
H600 H 0.50502 0.66949 0.45371 0.0
H601 H 0.45455 0.68994 0.70113 0.0
H602 H 0.45876 0.64451 0.76644 0.0
H603 H 0.47597 0.59902 0.75044 0.0
H604 H 0.52276 0.57735 0.49449 0.0
H605 H 0.521 0.62348 0.43473 0.0
C606 C 0.49509 0.66395 0.52222 0.0
C607 C 0.47972 0.68283 0.57347 0.0
C608 C 0.49701 0.63776 0.55742 0.0
C609 C 0.46645 0.67553 0.66085 0.0
C610 C 0.46894 0.64968 0.69816 0.0
C611 C 0.48607 0.6045 0.68225 0.0
C612 C 0.49977 0.58508 0.62731 0.0
C613 C 0.48412 0.63066 0.64689 0.0
C614 C 0.51224 0.59215 0.53796 0.0
C615 C 0.51119 0.61842 0.50386 0.0
H616 H 0.83878 0.53441 0.56302 0.0
H617 H 0.82857 0.46631 0.75502 0.0
H618 H 0.87315 0.47351 0.82473 0.0
H619 H 0.91681 0.49539 0.81387 0.0
H620 H 0.92848 0.56015 0.60747 0.0
H621 H 0.88129 0.55834 0.56118 0.0
C622 C 0.84611 0.52147 0.62155 0.0
C623 C 0.83058 0.49983 0.65381 0.0
C624 C 0.87205 0.52504 0.65783 0.0
C625 C 0.84036 0.483 0.72877 0.0
C626 C 0.86579 0.48709 0.76841 0.0
C627 C 0.90886 0.50955 0.76062 0.0
C628 C 0.92597 0.52786 0.71381 0.0
C629 C 0.88211 0.50752 0.7311 0.0
C630 C 0.91558 0.54584 0.64397 0.0
C631 C 0.88869 0.54473 0.61731 0.0
loop_
_geom_bond_atom_site_label_1
_geom_bond_atom_site_label_2
_geom_bond_distance
_geom_bond_site_symmetry_2
_ccdc_geom_bond_type
O0 Cd1 2.300 . S
O0 C7 1.275 . S
Cd1 O0 2.300 . S
Cd1 O9 2.381 . S
Cd1 O10 2.378 . S
O2 Cd3 2.385 . S
O2 C7 1.255 . S
Cd3 O2 2.385 . S
Cd3 O4 2.317 . S
O4 Cd3 2.317 . S
O4 C5 1.232 . S
C5 O4 1.232 . S
C5 O6 1.218 . S
O6 C5 1.218 . S
C7 O0 1.275 . S
C7 O2 1.255 . S
C8 O9 1.258 . S
C8 O10 1.256 . S
O9 Cd1 2.381 . S
O9 C8 1.258 . S
O10 Cd1 2.378 . S
O10 C8 1.256 . S
O11 Cd12 2.300 1_655 S
O11 C18 1.275 1_655 S
Cd12 O11 2.300 1_455 S
Cd12 O20 2.381 1_455 S
Cd12 O21 2.378 . S
O13 Cd14 2.385 . S
O13 C18 1.255 . S
Cd14 O13 2.385 . S
Cd14 O15 2.317 . S
O15 Cd14 2.317 . S
O15 C16 1.232 . S
C16 O15 1.232 . S
C16 O17 1.218 . S
O17 C16 1.218 . S
C18 O11 1.275 1_455 S
C18 O13 1.255 . S
C19 O20 1.258 1_455 S
C19 O21 1.256 . S
O20 Cd12 2.381 1_655 S
O20 C19 1.258 1_655 S
O21 Cd12 2.378 . S
O21 C19 1.256 . S
O22 Cd23 2.300 1_565 S
O22 C29 1.275 1_565 S
Cd23 O22 2.300 1_545 S
Cd23 O31 2.381 1_545 S
Cd23 O32 2.378 . S
O24 Cd25 2.385 . S
O24 C29 1.255 . S
Cd25 O24 2.385 . S
Cd25 O26 2.317 . S
O26 Cd25 2.317 . S
O26 C27 1.232 . S
C27 O26 1.232 . S
C27 O28 1.218 . S
O28 C27 1.218 . S
C29 O22 1.275 1_545 S
C29 O24 1.255 . S
C30 O31 1.258 1_545 S
C30 O32 1.256 . S
O31 Cd23 2.381 1_565 S
O31 C30 1.258 1_565 S
O32 Cd23 2.378 . S
O32 C30 1.256 . S
O33 Cd34 2.300 . S
O33 C40 1.275 . S
Cd34 O33 2.300 . S
Cd34 O42 2.381 . S
Cd34 O43 2.378 . S
O35 Cd36 2.385 . S
O35 C40 1.255 . S
Cd36 O35 2.385 . S
Cd36 O37 2.317 . S
O37 Cd36 2.317 . S
O37 C38 1.232 . S
C38 O37 1.232 . S
C38 O39 1.218 . S
O39 C38 1.218 . S
C40 O33 1.275 . S
C40 O35 1.255 . S
C41 O42 1.258 . S
C41 O43 1.256 . S
O42 Cd34 2.381 . S
O42 C41 1.258 . S
O43 Cd34 2.378 . S
O43 C41 1.256 . S
O44 Cd45 2.300 . S
O44 C51 1.275 . S
Cd45 O44 2.300 . S
Cd45 O53 2.381 . S
Cd45 O54 2.378 . S
O46 Cd47 2.385 1_554 S
O46 C51 1.255 . S
Cd47 O46 2.385 1_556 S
Cd47 O48 2.317 . S
O48 Cd47 2.317 . S
O48 C49 1.232 . S
C49 O48 1.232 . S
C49 O50 1.218 . S
O50 C49 1.218 . S
C51 O44 1.275 . S
C51 O46 1.255 . S
C52 O53 1.258 . S
C52 O54 1.256 . S
O53 Cd45 2.381 . S
O53 C52 1.258 . S
O54 Cd45 2.378 . S
O54 C52 1.256 . S
O55 Cd56 2.300 1_655 S
O55 C62 1.275 1_655 S
Cd56 O55 2.300 1_455 S
Cd56 O64 2.381 1_455 S
Cd56 O65 2.378 . S
O57 Cd58 2.385 1_554 S
O57 C62 1.255 . S
Cd58 O57 2.385 1_556 S
Cd58 O59 2.317 . S
O59 Cd58 2.317 . S
O59 C60 1.232 . S
C60 O59 1.232 . S
C60 O61 1.218 . S
O61 C60 1.218 . S
C62 O55 1.275 1_455 S
C62 O57 1.255 . S
C63 O64 1.258 1_455 S
C63 O65 1.256 . S
O64 Cd56 2.381 1_655 S
O64 C63 1.258 1_655 S
O65 Cd56 2.378 . S
O65 C63 1.256 . S
O66 Cd67 2.300 1_565 S
O66 C73 1.275 1_565 S
Cd67 O66 2.300 1_545 S
Cd67 O75 2.381 1_545 S
Cd67 O76 2.378 . S
O68 Cd69 2.385 1_554 S
O68 C73 1.255 . S
Cd69 O68 2.385 1_556 S
Cd69 O70 2.317 . S
O70 Cd69 2.317 . S
O70 C71 1.232 . S
C71 O70 1.232 . S
C71 O72 1.218 . S
O72 C71 1.218 . S
C73 O66 1.275 1_545 S
C73 O68 1.255 . S
C74 O75 1.258 1_545 S
C74 O76 1.256 . S
O75 Cd67 2.381 1_565 S
O75 C74 1.258 1_565 S
O76 Cd67 2.378 . S
O76 C74 1.256 . S
O77 Cd78 2.300 . S
O77 C84 1.275 . S
Cd78 O77 2.300 . S
Cd78 O86 2.381 . S
Cd78 O87 2.378 . S
O79 Cd80 2.385 1_554 S
O79 C84 1.255 . S
Cd80 O79 2.385 1_556 S
Cd80 O81 2.317 . S
O81 Cd80 2.317 . S
O81 C82 1.232 . S
C82 O81 1.232 . S
C82 O83 1.218 . S
O83 C82 1.218 . S
C84 O77 1.275 . S
C84 O79 1.255 . S
C85 O86 1.258 . S
C85 O87 1.256 . S
O86 Cd78 2.381 . S
O86 C85 1.258 . S
O87 Cd78 2.378 . S
O87 C85 1.256 . S
Gd88 C91 2.818 . S
Gd88 O108 2.377 . S
Gd88 O110 2.448 . S
Gd88 O111 2.506 . S
Gd88 O112 2.435 . S
Gd88 O113 2.717 1_565 S
Gd88 O115 2.395 1_565 S
Gd88 O119 2.327 1_455 S
Gd89 C100 2.818 . S
Gd89 O109 2.395 1_545 S
Gd89 O113 2.327 1_655 S
Gd89 O114 2.377 . S
Gd89 O116 2.448 . S
Gd89 O117 2.506 . S
Gd89 O118 2.435 . S
Gd89 O119 2.717 1_545 S
C90 O108 1.240 1_655 S
C90 O109 1.240 . S
C91 Gd88 2.818 . S
C91 C92 1.510 . S
C91 O110 1.249 . S
C91 O111 1.252 . S
C92 C91 1.510 . S
C92 C93 1.404 1_556 S
C92 C94 1.352 1_556 S
C93 C92 1.404 1_554 S
C93 C97 1.389 . S
C93 H120 0.930 1_554 S
C94 C92 1.352 1_554 S
C94 C96 1.374 . S
C94 H121 0.931 1_455 S
C95 C96 1.359 . S
C95 C97 1.364 . S
C96 C94 1.374 . S
C96 C95 1.359 . S
C96 H122 0.931 1_455 S
C97 C93 1.389 . S
C97 C95 1.364 . S
C97 H123 0.931 . S
C98 O112 1.275 . S
C98 O113 1.247 1_565 S
C99 O114 1.240 1_455 S
C99 O115 1.240 . S
C100 Gd89 2.818 . S
C100 C101 1.510 . S
C100 O116 1.249 . S
C100 O117 1.252 . S
C101 C100 1.510 . S
C101 C102 1.404 . S
C101 C103 1.352 . S
C102 C101 1.404 . S
C102 C106 1.389 . S
C102 H124 0.930 . S
C103 C101 1.352 . S
C103 C105 1.374 . S
C103 H125 0.931 1_655 S
C104 C105 1.359 . S
C104 C106 1.364 . S
C105 C103 1.374 . S
C105 C104 1.359 . S
C105 H126 0.931 1_655 S
C106 C102 1.389 . S
C106 C104 1.364 . S
C106 H127 0.931 . S
C107 O118 1.256 . S
C107 O119 1.257 1_545 S
O108 Gd88 2.377 . S
O108 C90 1.240 1_455 S
O109 Gd89 2.395 1_565 S
O109 C90 1.240 . S
O110 Gd88 2.448 . S
O110 C91 1.249 . S
O111 Gd88 2.506 . S
O111 C91 1.252 . S
O112 Gd88 2.435 . S
O112 C98 1.275 . S
O113 Gd88 2.717 1_545 S
O113 Gd89 2.327 1_455 S
O113 C98 1.247 1_545 S
O114 Gd89 2.377 . S
O114 C99 1.240 1_655 S
O115 Gd88 2.395 1_545 S
O115 C99 1.240 . S
O116 Gd89 2.448 . S
O116 C100 1.249 . S
O117 Gd89 2.506 . S
O117 C100 1.252 . S
O118 Gd89 2.435 . S
O118 C107 1.256 . S
O119 Gd88 2.327 1_655 S
O119 Gd89 2.717 1_565 S
O119 C107 1.257 1_565 S
H120 C93 0.930 1_556 S
H121 C94 0.931 1_655 S
H122 C96 0.931 1_655 S
H123 C97 0.931 . S
H124 C102 0.930 . S
H125 C103 0.931 1_455 S
H126 C105 0.931 1_455 S
H127 C106 0.931 . S
Gd128 C131 2.818 . S
Gd128 O148 2.377 . S
Gd128 O150 2.448 . S
Gd128 O151 2.506 . S
Gd128 O152 2.435 . S
Gd128 O153 2.717 . S
Gd128 O155 2.395 . S
Gd128 O159 2.327 1_545 S
Gd129 C140 2.818 . S
Gd129 O149 2.395 . S
Gd129 O153 2.327 1_565 S
Gd129 O154 2.377 . S
Gd129 O156 2.448 . S
Gd129 O157 2.506 . S
Gd129 O158 2.435 . S
Gd129 O159 2.717 . S
C130 O148 1.240 1_565 S
C130 O149 1.240 . S
C131 Gd128 2.818 . S
C131 C132 1.510 . S
C131 O150 1.249 . S
C131 O151 1.252 . S
C132 C131 1.510 . S
C132 C133 1.404 1_556 S
C132 C134 1.352 1_556 S
C133 C132 1.404 1_554 S
C133 C137 1.389 . S
C133 H160 0.930 1_554 S
C134 C132 1.352 1_554 S
C134 C136 1.374 . S
C134 H161 0.931 1_545 S
C135 C136 1.359 . S
C135 C137 1.364 . S
C136 C134 1.374 . S
C136 C135 1.359 . S
C136 H162 0.931 1_545 S
C137 C133 1.389 . S
C137 C135 1.364 . S
C137 H163 0.931 . S
C138 O152 1.256 . S
C138 O153 1.257 . S
C139 O154 1.240 1_545 S
C139 O155 1.240 . S
C140 Gd129 2.818 . S
C140 C141 1.510 . S
C140 O156 1.249 . S
C140 O157 1.252 . S
C141 C140 1.510 . S
C141 C142 1.404 . S
C141 C143 1.352 . S
C142 C141 1.404 . S
C142 C146 1.389 . S
C142 H164 0.930 . S
C143 C141 1.352 . S
C143 C145 1.374 . S
C143 H165 0.931 1_565 S
C144 C145 1.359 . S
C144 C146 1.364 . S
C145 C143 1.374 . S
C145 C144 1.359 . S
C145 H166 0.931 1_565 S
C146 C142 1.389 . S
C146 C144 1.364 . S
C146 H167 0.931 . S
C147 O158 1.256 . S
C147 O159 1.257 . S
O148 Gd128 2.377 . S
O148 C130 1.240 1_545 S
O149 Gd129 2.395 . S
O149 C130 1.240 . S
O150 Gd128 2.448 . S
O150 C131 1.249 . S
O151 Gd128 2.506 . S
O151 C131 1.252 . S
O152 Gd128 2.435 . S
O152 C138 1.256 . S
O153 Gd128 2.717 . S
O153 Gd129 2.327 1_545 S
O153 C138 1.257 . S
O154 Gd129 2.377 . S
O154 C139 1.240 1_565 S
O155 Gd128 2.395 . S
O155 C139 1.240 . S
O156 Gd129 2.448 . S
O156 C140 1.249 . S
O157 Gd129 2.506 . S
O157 C140 1.252 . S
O158 Gd129 2.435 . S
O158 C147 1.256 . S
O159 Gd128 2.327 1_565 S
O159 Gd129 2.717 . S
O159 C147 1.257 . S
H160 C133 0.930 1_556 S
H161 C134 0.931 1_565 S
H162 C136 0.931 1_565 S
H163 C137 0.931 . S
H164 C142 0.930 . S
H165 C143 0.931 1_545 S
H166 C145 0.931 1_545 S
H167 C146 0.931 . S
Gd168 C171 2.818 . S
Gd168 O188 2.377 . S
Gd168 O190 2.448 . S
Gd168 O191 2.506 . S
Gd168 O192 2.435 . S
Gd168 O193 2.717 . S
Gd168 O195 2.395 . S
Gd168 O199 2.327 . S
Gd169 C180 2.818 . S
Gd169 O189 2.395 . S
Gd169 O193 2.327 . S
Gd169 O194 2.377 . S
Gd169 O196 2.448 . S
Gd169 O197 2.506 . S
Gd169 O198 2.435 . S
Gd169 O199 2.717 . S
C170 O188 1.240 . S
C170 O189 1.240 . S
C171 Gd168 2.818 . S
C171 C172 1.510 . S
C171 O190 1.249 . S
C171 O191 1.252 . S
C172 C171 1.510 . S
C172 C173 1.404 1_556 S
C172 C174 1.352 1_556 S
C173 C172 1.404 1_554 S
C173 C177 1.389 . S
C173 H200 0.930 1_554 S
C174 C172 1.352 1_554 S
C174 C176 1.374 . S
C174 H201 0.931 . S
C175 C176 1.359 . S
C175 C177 1.364 . S
C176 C174 1.374 . S
C176 C175 1.359 . S
C176 H202 0.931 . S
C177 C173 1.389 . S
C177 C175 1.364 . S
C177 H203 0.931 . S
C178 O192 1.256 . S
C178 O193 1.257 . S
C179 O194 1.240 . S
C179 O195 1.240 . S
C180 Gd169 2.818 . S
C180 C181 1.510 . S
C180 O196 1.249 . S
C180 O197 1.252 . S
C181 C180 1.510 . S
C181 C182 1.404 . S
C181 C183 1.352 . S
C182 C181 1.404 . S
C182 C186 1.389 . S
C182 H204 0.930 . S
C183 C181 1.352 . S
C183 C185 1.374 . S
C183 H205 0.931 . S
C184 C185 1.359 . S
C184 C186 1.364 . S
C185 C183 1.374 . S
C185 C184 1.359 . S
C185 H206 0.931 . S
C186 C182 1.389 . S
C186 C184 1.364 . S
C186 H207 0.931 . S
C187 O198 1.256 . S
C187 O199 1.257 . S
O188 Gd168 2.377 . S
O188 C170 1.240 . S
O189 Gd169 2.395 . S
O189 C170 1.240 . S
O190 Gd168 2.448 . S
O190 C171 1.249 . S
O191 Gd168 2.506 . S
O191 C171 1.252 . S
O192 Gd168 2.435 . S
O192 C178 1.256 . S
O193 Gd168 2.717 . S
O193 Gd169 2.327 . S
O193 C178 1.257 . S
O194 Gd169 2.377 . S
O194 C179 1.240 . S
O195 Gd168 2.395 . S
O195 C179 1.240 . S
O196 Gd169 2.448 . S
O196 C180 1.249 . S
O197 Gd169 2.506 . S
O197 C180 1.252 . S
O198 Gd169 2.435 . S
O198 C187 1.256 . S
O199 Gd168 2.327 . S
O199 Gd169 2.717 . S
O199 C187 1.257 . S
H200 C173 0.930 1_556 S
H201 C174 0.931 . S
H202 C176 0.931 . S
H203 C177 0.931 . S
H204 C182 0.930 . S
H205 C183 0.931 . S
H206 C185 0.931 . S
H207 C186 0.931 . S
Gd208 C211 2.818 . S
Gd208 O228 2.377 . S
Gd208 O230 2.448 . S
Gd208 O231 2.506 . S
Gd208 O232 2.435 . S
Gd208 O233 2.717 1_655 S
Gd208 O235 2.395 1_655 S
Gd208 O239 2.327 . S
Gd209 C220 2.818 . S
Gd209 O229 2.395 1_455 S
Gd209 O233 2.327 . S
Gd209 O234 2.377 . S
Gd209 O236 2.448 . S
Gd209 O237 2.506 . S
Gd209 O238 2.435 . S
Gd209 O239 2.717 1_455 S
C210 O228 1.240 . S
C210 O229 1.240 . S
C211 Gd208 2.818 . S
C211 C212 1.510 . S
C211 O230 1.249 . S
C211 O231 1.252 . S
C212 C211 1.510 . S
C212 C213 1.404 1_556 S
C212 C214 1.352 1_556 S
C213 C212 1.404 1_554 S
C213 C217 1.389 . S
C213 H240 0.930 1_554 S
C214 C212 1.352 1_554 S
C214 C216 1.374 . S
C214 H241 0.931 . S
C215 C216 1.359 . S
C215 C217 1.364 . S
C216 C214 1.374 . S
C216 C215 1.359 . S
C216 H242 0.931 . S
C217 C213 1.389 . S
C217 C215 1.364 . S
C217 H243 0.931 . S
C218 O232 1.273 . S
C218 O233 1.248 1_655 S
C219 O234 1.240 . S
C219 O235 1.240 . S
C220 Gd209 2.818 . S
C220 C221 1.510 . S
C220 O236 1.249 . S
C220 O237 1.252 . S
C221 C220 1.510 . S
C221 C222 1.404 . S
C221 C223 1.352 . S
C222 C221 1.404 . S
C222 C226 1.389 . S
C222 H244 0.930 . S
C223 C221 1.352 . S
C223 C225 1.374 . S
C223 H245 0.931 . S
C224 C225 1.359 . S
C224 C226 1.364 . S
C225 C223 1.374 . S
C225 C224 1.359 . S
C225 H246 0.931 . S
C226 C222 1.389 . S
C226 C224 1.364 . S
C226 H247 0.931 . S
C227 O238 1.256 . S
C227 O239 1.257 1_455 S
O228 Gd208 2.377 . S
O228 C210 1.240 . S
O229 Gd209 2.395 1_655 S
O229 C210 1.240 . S
O230 Gd208 2.448 . S
O230 C211 1.249 . S
O231 Gd208 2.506 . S
O231 C211 1.252 . S
O232 Gd208 2.435 . S
O232 C218 1.273 . S
O233 Gd208 2.717 1_455 S
O233 Gd209 2.327 . S
O233 C218 1.248 1_455 S
O234 Gd209 2.377 . S
O234 C219 1.240 . S
O235 Gd208 2.395 1_455 S
O235 C219 1.240 . S
O236 Gd209 2.448 . S
O236 C220 1.249 . S
O237 Gd209 2.506 . S
O237 C220 1.252 . S
O238 Gd209 2.435 . S
O238 C227 1.256 . S
O239 Gd208 2.327 . S
O239 Gd209 2.717 1_655 S
O239 C227 1.257 1_655 S
H240 C213 0.930 1_556 S
H241 C214 0.931 . S
H242 C216 0.931 . S
H243 C217 0.931 . S
H244 C222 0.930 . S
H245 C223 0.931 . S
H246 C225 0.931 . S
H247 C226 0.931 . S
H248 C254 0.930 . S
H249 C257 0.930 . S
H250 C258 0.930 . S
H251 C259 0.930 . S
H252 C262 0.930 . S
H253 C263 0.930 . S
C254 H248 0.930 . S
C254 C255 1.355 1_565 S
C254 C256 1.415 . S
C255 C254 1.355 1_545 S
C255 C257 1.419 . S
C256 C254 1.415 . S
C256 C261 1.425 1_565 S
C256 C263 1.409 . S
C257 H249 0.930 . S
C257 C255 1.419 . S
C257 C258 1.362 . S
C258 H250 0.930 . S
C258 C257 1.362 . S
C258 C261 1.409 . S
C259 H251 0.930 . S
C259 C260 1.352 1_545 S
C259 C261 1.415 . S
C260 C259 1.352 1_565 S
C260 C262 1.423 . S
C261 C256 1.425 1_545 S
C261 C258 1.409 . S
C261 C259 1.415 . S
C262 H252 0.930 . S
C262 C260 1.423 . S
C262 C263 1.362 . S
C263 H253 0.930 . S
C263 C256 1.409 . S
C263 C262 1.362 . S
H264 C270 0.930 . S
H265 C273 0.930 . S
H266 C274 0.930 . S
H267 C275 0.930 . S
H268 C278 0.930 . S
H269 C279 0.930 . S
C270 H264 0.930 . S
C270 C271 1.355 . S
C270 C272 1.415 . S
C271 C270 1.355 . S
C271 C273 1.419 . S
C272 C270 1.415 . S
C272 C277 1.425 . S
C272 C279 1.409 . S
C273 H265 0.930 . S
C273 C271 1.419 . S
C273 C274 1.362 . S
C274 H266 0.930 . S
C274 C273 1.362 . S
C274 C277 1.409 . S
C275 H267 0.930 . S
C275 C276 1.355 . S
C275 C277 1.415 . S
C276 C275 1.355 . S
C276 C278 1.419 . S
C277 C272 1.425 . S
C277 C274 1.409 . S
C277 C275 1.415 . S
C278 H268 0.930 . S
C278 C276 1.419 . S
C278 C279 1.362 . S
C279 H269 0.930 . S
C279 C272 1.409 . S
C279 C278 1.362 . S
H280 C286 0.930 . S
H281 C289 0.930 . S
H282 C290 0.930 . S
H283 C291 0.930 . S
H284 C294 0.930 . S
H285 C295 0.930 . S
C286 H280 0.930 . S
C286 C287 1.355 . S
C286 C288 1.415 . S
C287 C286 1.355 . S
C287 C289 1.419 . S
C288 C286 1.415 . S
C288 C293 1.425 . S
C288 C295 1.409 . S
C289 H281 0.930 . S
C289 C287 1.419 . S
C289 C290 1.362 . S
C290 H282 0.930 . S
C290 C289 1.362 . S
C290 C293 1.409 . S
C291 H283 0.930 . S
C291 C292 1.355 . S
C291 C293 1.415 . S
C292 C291 1.355 . S
C292 C294 1.419 . S
C293 C288 1.425 . S
C293 C290 1.409 . S
C293 C291 1.415 . S
C294 H284 0.930 . S
C294 C292 1.419 . S
C294 C295 1.362 . S
C295 H285 0.930 . S
C295 C288 1.409 . S
C295 C294 1.362 . S
H296 C302 0.930 . S
H297 C305 0.930 . S
H298 C306 0.930 . S
H299 C307 0.930 . S
H300 C310 0.930 . S
H301 C311 0.930 . S
C302 H296 0.930 . S
C302 C303 1.355 1_655 S
C302 C304 1.415 . S
C303 C302 1.355 1_455 S
C303 C305 1.419 . S
C304 C302 1.415 . S
C304 C309 1.425 1_655 S
C304 C311 1.409 . S
C305 H297 0.930 . S
C305 C303 1.419 . S
C305 C306 1.362 . S
C306 H298 0.930 . S
C306 C305 1.362 . S
C306 C309 1.409 . S
C307 H299 0.930 . S
C307 C308 1.359 . S
C307 C309 1.415 . S
C308 C307 1.359 . S
C308 C310 1.414 1_455 S
C309 C304 1.425 1_455 S
C309 C306 1.409 . S
C309 C307 1.415 . S
C310 H300 0.930 . S
C310 C308 1.414 1_655 S
C310 C311 1.362 . S
C311 H301 0.930 . S
C311 C304 1.409 . S
C311 C310 1.362 . S
H312 C318 0.930 . S
H313 C321 0.930 . S
H314 C322 0.930 . S
H315 C323 0.930 . S
H316 C326 0.930 . S
H317 C327 0.930 . S
C318 H312 0.930 . S
C318 C319 1.349 1_565 S
C318 C320 1.415 . S
C319 C318 1.349 1_545 S
C319 C321 1.426 . S
C320 C318 1.415 . S
C320 C325 1.425 1_565 S
C320 C327 1.409 . S
C321 H313 0.930 . S
C321 C319 1.426 . S
C321 C322 1.362 . S
C322 H314 0.930 . S
C322 C321 1.362 . S
C322 C325 1.409 . S
C323 H315 0.930 . S
C323 C324 1.355 1_545 S
C323 C325 1.415 1_556 S
C324 C323 1.355 1_565 S
C324 C326 1.419 . S
C325 C320 1.425 1_545 S
C325 C322 1.409 . S
C325 C323 1.415 1_554 S
C326 H316 0.930 . S
C326 C324 1.419 . S
C326 C327 1.362 1_556 S
C327 H317 0.930 . S
C327 C320 1.409 . S
C327 C326 1.362 1_554 S
H328 C334 0.930 . S
H329 C337 0.930 . S
H330 C338 0.930 . S
H331 C339 0.930 . S
H332 C342 0.930 . S
H333 C343 0.930 . S
C334 H328 0.930 . S
C334 C335 1.355 . S
C334 C336 1.415 . S
C335 C334 1.355 . S
C335 C337 1.419 . S
C336 C334 1.415 . S
C336 C341 1.425 . S
C336 C343 1.409 1_554 S
C337 H329 0.930 . S
C337 C335 1.419 . S
C337 C338 1.362 . S
C338 H330 0.930 . S
C338 C337 1.362 . S
C338 C341 1.409 . S
C339 H331 0.930 . S
C339 C340 1.355 1_554 S
C339 C341 1.415 . S
C340 C339 1.355 1_556 S
C340 C342 1.419 . S
C341 C336 1.425 . S
C341 C338 1.409 . S
C341 C339 1.415 . S
C342 H332 0.930 . S
C342 C340 1.419 . S
C342 C343 1.362 . S
C343 H333 0.930 . S
C343 C336 1.409 1_556 S
C343 C342 1.362 . S
H344 C350 0.930 . S
H345 C353 0.930 . S
H346 C354 0.930 . S
H347 C355 0.930 . S
H348 C358 0.930 . S
H349 C359 0.930 . S
C350 H344 0.930 . S
C350 C351 1.355 . S
C350 C352 1.415 . S
C351 C350 1.355 . S
C351 C353 1.419 . S
C352 C350 1.415 . S
C352 C357 1.425 . S
C352 C359 1.409 . S
C353 H345 0.930 . S
C353 C351 1.419 . S
C353 C354 1.362 . S
C354 H346 0.930 . S
C354 C353 1.362 . S
C354 C357 1.409 . S
C355 H347 0.930 . S
C355 C356 1.355 . S
C355 C357 1.415 1_556 S
C356 C355 1.355 . S
C356 C358 1.419 . S
C357 C352 1.425 . S
C357 C354 1.409 . S
C357 C355 1.415 1_554 S
C358 H348 0.930 . S
C358 C356 1.419 . S
C358 C359 1.362 1_556 S
C359 H349 0.930 . S
C359 C352 1.409 . S
C359 C358 1.362 1_554 S
H360 C366 0.930 . S
H361 C369 0.930 . S
H362 C370 0.930 . S
H363 C371 0.930 . S
H364 C374 0.930 . S
H365 C375 0.930 . S
C366 H360 0.930 . S
C366 C367 1.355 1_455 S
C366 C368 1.415 . S
C367 C366 1.355 1_655 S
C367 C369 1.419 . S
C368 C366 1.415 . S
C368 C373 1.425 1_455 S
C368 C375 1.409 . S
C369 H361 0.930 . S
C369 C367 1.419 . S
C369 C370 1.362 . S
C370 H362 0.930 . S
C370 C369 1.362 . S
C370 C373 1.409 . S
C371 H363 0.930 . S
C371 C372 1.369 . S
C371 C373 1.415 1_556 S
C372 C371 1.369 . S
C372 C374 1.402 1_655 S
C373 C368 1.425 1_655 S
C373 C370 1.409 . S
C373 C371 1.415 1_554 S
C374 H364 0.930 . S
C374 C372 1.402 1_455 S
C374 C375 1.362 1_556 S
C375 H365 0.930 . S
C375 C368 1.409 . S
C375 C374 1.362 1_554 S
H376 C382 0.930 . S
H377 C385 0.930 . S
H378 C386 0.930 . S
H379 C387 0.930 . S
H380 C390 0.930 1_455 S
H381 C391 0.930 . S
C382 H376 0.930 . S
C382 C383 1.354 . S
C382 C384 1.415 1_455 S
C383 C382 1.354 . S
C383 C385 1.421 1_455 S
C384 C382 1.415 1_655 S
C384 C389 1.425 . S
C384 C391 1.409 1_655 S
C385 H377 0.930 . S
C385 C383 1.421 1_655 S
C385 C386 1.362 . S
C386 H378 0.930 . S
C386 C385 1.362 . S
C386 C389 1.409 . S
C387 H379 0.930 . S
C387 C388 1.355 . S
C387 C389 1.415 . S
C388 C387 1.355 . S
C388 C390 1.419 . S
C389 C384 1.425 . S
C389 C386 1.409 . S
C389 C387 1.415 . S
C390 H380 0.930 1_655 S
C390 C388 1.419 . S
C390 C391 1.362 1_655 S
C391 H381 0.930 . S
C391 C384 1.409 1_455 S
C391 C390 1.362 1_455 S
H392 C398 0.930 . S
H393 C401 0.930 . S
H394 C402 0.930 . S
H395 C403 0.930 . S
H396 C406 0.930 . S
H397 C407 0.930 . S
C398 H392 0.930 . S
C398 C399 1.356 1_545 S
C398 C400 1.415 1_545 S
C399 C398 1.356 1_565 S
C399 C401 1.415 . S
C400 C398 1.415 1_565 S
C400 C405 1.425 . S
C400 C407 1.409 1_565 S
C401 H393 0.930 . S
C401 C399 1.415 . S
C401 C402 1.362 . S
C402 H394 0.930 . S
C402 C401 1.362 . S
C402 C405 1.409 . S
C403 H395 0.930 . S
C403 C404 1.355 . S
C403 C405 1.415 . S
C404 C403 1.355 . S
C404 C406 1.419 . S
C405 C400 1.425 . S
C405 C402 1.409 . S
C405 C403 1.415 . S
C406 H396 0.930 . S
C406 C404 1.419 . S
C406 C407 1.362 1_565 S
C407 H397 0.930 . S
C407 C400 1.409 1_545 S
C407 C406 1.362 1_545 S
H408 C414 0.930 . S
H409 C417 0.930 . S
H410 C418 0.930 . S
H411 C419 0.930 . S
H412 C422 0.930 . S
H413 C423 0.930 . S
C414 H408 0.930 . S
C414 C415 1.355 . S
C414 C416 1.415 . S
C415 C414 1.355 . S
C415 C417 1.419 . S
C416 C414 1.415 . S
C416 C421 1.425 . S
C416 C423 1.409 . S
C417 H409 0.930 . S
C417 C415 1.419 . S
C417 C418 1.362 . S
C418 H410 0.930 . S
C418 C417 1.362 . S
C418 C421 1.409 . S
C419 H411 0.930 . S
C419 C420 1.355 . S
C419 C421 1.415 . S
C420 C419 1.355 . S
C420 C422 1.419 . S
C421 C416 1.425 . S
C421 C418 1.409 . S
C421 C419 1.415 . S
C422 H412 0.930 . S
C422 C420 1.419 . S
C422 C423 1.362 . S
C423 H413 0.930 . S
C423 C416 1.409 . S
C423 C422 1.362 . S
H424 C430 0.930 . S
H425 C433 0.930 . S
H426 C434 0.930 . S
H427 C435 0.930 . S
H428 C438 0.930 . S
H429 C439 0.930 . S
C430 H424 0.930 . S
C430 C431 1.355 . S
C430 C432 1.415 . S
C431 C430 1.355 . S
C431 C433 1.419 . S
C432 C430 1.415 . S
C432 C437 1.425 . S
C432 C439 1.409 . S
C433 H425 0.930 . S
C433 C431 1.419 . S
C433 C434 1.362 . S
C434 H426 0.930 . S
C434 C433 1.362 . S
C434 C437 1.409 . S
C435 H427 0.930 . S
C435 C436 1.355 . S
C435 C437 1.415 . S
C436 C435 1.355 . S
C436 C438 1.419 . S
C437 C432 1.425 . S
C437 C434 1.409 . S
C437 C435 1.415 . S
C438 H428 0.930 . S
C438 C436 1.419 . S
C438 C439 1.362 . S
C439 H429 0.930 . S
C439 C432 1.409 . S
C439 C438 1.362 . S
H440 C446 0.930 . S
H441 C449 0.930 . S
H442 C450 0.930 . S
H443 C451 0.934 . S
H444 C454 0.930 . S
H445 C455 0.930 . S
C446 H440 0.930 . S
C446 C447 1.355 1_455 S
C446 C448 1.415 . S
C447 C446 1.355 1_655 S
C447 C449 1.419 . S
C448 C446 1.415 . S
C448 C453 1.425 . S
C448 C455 1.409 . S
C449 H441 0.930 . S
C449 C447 1.419 . S
C449 C450 1.362 . S
C450 H442 0.930 . S
C450 C449 1.362 . S
C450 C453 1.409 1_655 S
C451 H443 0.934 . S
C451 C452 1.355 . S
C451 C453 1.415 . S
C452 C451 1.355 . S
C452 C454 1.419 . S
C453 C448 1.425 . S
C453 C450 1.409 1_455 S
C453 C451 1.415 . S
C454 H444 0.930 . S
C454 C452 1.419 . S
C454 C455 1.362 . S
C455 H445 0.930 . S
C455 C448 1.409 . S
C455 C454 1.362 . S
H456 C462 0.930 . S
H457 C465 0.930 . S
H458 C466 0.930 . S
H459 C467 0.930 . S
H460 C470 0.930 1_565 S
H461 C471 0.930 . S
C462 H456 0.930 . S
C462 C463 1.352 1_565 S
C462 C464 1.415 1_565 S
C463 C462 1.352 1_545 S
C463 C465 1.425 . S
C464 C462 1.415 1_545 S
C464 C469 1.425 . S
C464 C471 1.409 1_545 S
C465 H457 0.930 . S
C465 C463 1.425 . S
C465 C466 1.362 . S
C466 H458 0.930 . S
C466 C465 1.362 . S
C466 C469 1.409 . S
C467 H459 0.930 . S
C467 C468 1.355 . S
C467 C469 1.415 . S
C468 C467 1.355 . S
C468 C470 1.419 . S
C469 C464 1.425 . S
C469 C466 1.409 . S
C469 C467 1.415 . S
C470 H460 0.930 1_545 S
C470 C468 1.419 . S
C470 C471 1.362 1_545 S
C471 H461 0.930 . S
C471 C464 1.409 1_565 S
C471 C470 1.362 1_565 S
H472 C478 0.930 . S
H473 C481 0.930 . S
H474 C482 0.930 . S
H475 C483 0.930 . S
H476 C486 0.930 . S
H477 C487 0.930 . S
C478 H472 0.930 . S
C478 C479 1.355 . S
C478 C480 1.415 . S
C479 C478 1.355 . S
C479 C481 1.419 . S
C480 C478 1.415 . S
C480 C485 1.425 . S
C480 C487 1.409 . S
C481 H473 0.930 . S
C481 C479 1.419 . S
C481 C482 1.362 . S
C482 H474 0.930 . S
C482 C481 1.362 . S
C482 C485 1.409 . S
C483 H475 0.930 . S
C483 C484 1.355 . S
C483 C485 1.415 . S
C484 C483 1.355 . S
C484 C486 1.419 . S
C485 C480 1.425 . S
C485 C482 1.409 . S
C485 C483 1.415 . S
C486 H476 0.930 . S
C486 C484 1.419 . S
C486 C487 1.362 . S
C487 H477 0.930 . S
C487 C480 1.409 . S
C487 C486 1.362 . S
H488 C494 0.930 . S
H489 C497 0.930 . S
H490 C498 0.930 . S
H491 C499 0.930 . S
H492 C502 0.930 . S
H493 C503 0.930 . S
C494 H488 0.930 . S
C494 C495 1.355 . S
C494 C496 1.415 . S
C495 C494 1.355 . S
C495 C497 1.419 . S
C496 C494 1.415 . S
C496 C501 1.425 . S
C496 C503 1.409 . S
C497 H489 0.930 . S
C497 C495 1.419 . S
C497 C498 1.362 . S
C498 H490 0.930 . S
C498 C497 1.362 . S
C498 C501 1.409 . S
C499 H491 0.930 . S
C499 C500 1.355 . S
C499 C501 1.415 . S
C500 C499 1.355 . S
C500 C502 1.419 . S
C501 C496 1.425 . S
C501 C498 1.409 . S
C501 C499 1.415 . S
C502 H492 0.930 . S
C502 C500 1.419 . S
C502 C503 1.362 . S
C503 H493 0.930 . S
C503 C496 1.409 . S
C503 C502 1.362 . S
H504 C510 0.930 . S
H505 C513 0.930 . S
H506 C514 0.930 . S
H507 C515 0.930 1_655 S
H508 C518 0.930 . S
H509 C519 0.930 . S
C510 H504 0.930 . S
C510 C511 1.355 . S
C510 C512 1.415 . S
C511 C510 1.355 . S
C511 C513 1.419 1_455 S
C512 C510 1.415 . S
C512 C517 1.425 . S
C512 C519 1.409 . S
C513 H505 0.930 . S
C513 C511 1.419 1_655 S
C513 C514 1.362 . S
C514 H506 0.930 . S
C514 C513 1.362 . S
C514 C517 1.409 1_655 S
C515 H507 0.930 1_455 S
C515 C516 1.355 . S
C515 C517 1.415 . S
C516 C515 1.355 . S
C516 C518 1.419 . S
C517 C512 1.425 . S
C517 C514 1.409 1_455 S
C517 C515 1.415 . S
C518 H508 0.930 . S
C518 C516 1.419 . S
C518 C519 1.362 . S
C519 H509 0.930 . S
C519 C512 1.409 . S
C519 C518 1.362 . S
H520 C526 0.930 . S
H521 C529 0.930 . S
H522 C530 0.930 . S
H523 C531 0.930 . S
H524 C534 0.930 . S
H525 C535 0.930 . S
C526 H520 0.930 . S
C526 C527 1.355 1_565 S
C526 C528 1.415 . S
C527 C526 1.355 1_545 S
C527 C529 1.419 . S
C528 C526 1.415 . S
C528 C533 1.425 1_565 S
C528 C535 1.409 . S
C529 H521 0.930 . S
C529 C527 1.419 . S
C529 C530 1.362 . S
C530 H522 0.930 . S
C530 C529 1.362 . S
C530 C533 1.409 . S
C531 H523 0.930 . S
C531 C532 1.355 . S
C531 C533 1.415 . S
C532 C531 1.355 . S
C532 C534 1.419 1_545 S
C533 C528 1.425 1_545 S
C533 C530 1.409 . S
C533 C531 1.415 . S
C534 H524 0.930 . S
C534 C532 1.419 1_565 S
C534 C535 1.362 . S
C535 H525 0.930 . S
C535 C528 1.409 . S
C535 C534 1.362 . S
H536 C542 0.930 . S
H537 C545 0.930 . S
H538 C546 0.930 . S
H539 C547 0.930 . S
H540 C550 0.930 . S
H541 C551 0.930 . S
C542 H536 0.930 . S
C542 C543 1.355 . S
C542 C544 1.415 . S
C543 C542 1.355 . S
C543 C545 1.419 . S
C544 C542 1.415 . S
C544 C549 1.425 . S
C544 C551 1.409 . S
C545 H537 0.930 . S
C545 C543 1.419 . S
C545 C546 1.362 . S
C546 H538 0.930 . S
C546 C545 1.362 . S
C546 C549 1.409 . S
C547 H539 0.930 . S
C547 C548 1.355 . S
C547 C549 1.415 . S
C548 C547 1.355 . S
C548 C550 1.419 . S
C549 C544 1.425 . S
C549 C546 1.409 . S
C549 C547 1.415 . S
C550 H540 0.930 . S
C550 C548 1.419 . S
C550 C551 1.362 . S
C551 H541 0.930 . S
C551 C544 1.409 . S
C551 C550 1.362 . S
H552 C558 0.930 . S
H553 C561 0.930 . S
H554 C562 0.930 . S
H555 C563 0.930 . S
H556 C566 0.930 . S
H557 C567 0.930 . S
C558 H552 0.930 . S
C558 C559 1.355 . S
C558 C560 1.415 . S
C559 C558 1.355 . S
C559 C561 1.419 . S
C560 C558 1.415 . S
C560 C565 1.425 . S
C560 C567 1.409 . S
C561 H553 0.930 . S
C561 C559 1.419 . S
C561 C562 1.362 . S
C562 H554 0.930 . S
C562 C561 1.362 . S
C562 C565 1.409 . S
C563 H555 0.930 . S
C563 C564 1.355 . S
C563 C565 1.415 . S
C564 C563 1.355 . S
C564 C566 1.419 . S
C565 C560 1.425 . S
C565 C562 1.409 . S
C565 C563 1.415 . S
C566 H556 0.930 . S
C566 C564 1.419 . S
C566 C567 1.362 . S
C567 H557 0.930 . S
C567 C560 1.409 . S
C567 C566 1.362 . S
H568 C574 0.930 . S
H569 C577 0.930 . S
H570 C578 0.930 . S
H571 C579 0.930 . S
H572 C582 0.930 . S
H573 C583 0.930 . S
C574 H568 0.930 . S
C574 C575 1.355 1_455 S
C574 C576 1.415 . S
C575 C574 1.355 1_655 S
C575 C577 1.419 . S
C576 C574 1.415 . S
C576 C581 1.425 1_455 S
C576 C583 1.409 . S
C577 H569 0.930 . S
C577 C575 1.419 . S
C577 C578 1.362 . S
C578 H570 0.930 . S
C578 C577 1.362 . S
C578 C581 1.409 . S
C579 H571 0.930 . S
C579 C580 1.355 . S
C579 C581 1.415 . S
C580 C579 1.355 . S
C580 C582 1.419 1_655 S
C581 C576 1.425 1_655 S
C581 C578 1.409 . S
C581 C579 1.415 . S
C582 H572 0.930 . S
C582 C580 1.419 1_455 S
C582 C583 1.362 . S
C583 H573 0.930 . S
C583 C576 1.409 . S
C583 C582 1.362 . S
H584 C590 0.930 . S
H585 C593 0.930 . S
H586 C594 0.930 . S
H587 C595 0.930 . S
H588 C598 0.930 . S
H589 C599 0.930 . S
C590 H584 0.930 . S
C590 C591 1.355 . S
C590 C592 1.415 . S
C591 C590 1.355 . S
C591 C593 1.419 1_565 S
C592 C590 1.415 . S
C592 C597 1.425 1_565 S
C592 C599 1.409 . S
C593 H585 0.930 . S
C593 C591 1.419 1_545 S
C593 C594 1.362 . S
C594 H586 0.930 . S
C594 C593 1.362 . S
C594 C597 1.409 . S
C595 H587 0.930 . S
C595 C596 1.355 1_545 S
C595 C597 1.415 . S
C596 C595 1.355 1_565 S
C596 C598 1.419 . S
C597 C592 1.425 1_545 S
C597 C594 1.409 . S
C597 C595 1.415 . S
C598 H588 0.930 . S
C598 C596 1.419 . S
C598 C599 1.362 . S
C599 H589 0.930 . S
C599 C592 1.409 . S
C599 C598 1.362 . S
H600 C606 0.930 . S
H601 C609 0.930 . S
H602 C610 0.930 . S
H603 C611 0.930 . S
H604 C614 0.930 . S
H605 C615 0.930 . S
C606 H600 0.930 . S
C606 C607 1.355 . S
C606 C608 1.415 . S
C607 C606 1.355 . S
C607 C609 1.419 . S
C608 C606 1.415 . S
C608 C613 1.425 . S
C608 C615 1.409 . S
C609 H601 0.930 . S
C609 C607 1.419 . S
C609 C610 1.362 . S
C610 H602 0.930 . S
C610 C609 1.362 . S
C610 C613 1.409 . S
C611 H603 0.930 . S
C611 C612 1.355 . S
C611 C613 1.415 . S
C612 C611 1.355 . S
C612 C614 1.419 . S
C613 C608 1.425 . S
C613 C610 1.409 . S
C613 C611 1.415 . S
C614 H604 0.930 . S
C614 C612 1.419 . S
C614 C615 1.362 . S
C615 H605 0.930 . S
C615 C608 1.409 . S
C615 C614 1.362 . S
H616 C622 0.930 . S
H617 C625 0.930 . S
H618 C626 0.930 . S
H619 C627 0.930 . S
H620 C630 0.930 . S
H621 C631 0.930 . S
C622 H616 0.930 . S
C622 C623 1.355 . S
C622 C624 1.415 . S
C623 C622 1.355 . S
C623 C625 1.419 . S
C624 C622 1.415 . S
C624 C629 1.425 . S
C624 C631 1.409 . S
C625 H617 0.930 . S
C625 C623 1.419 . S
C625 C626 1.362 . S
C626 H618 0.930 . S
C626 C625 1.362 . S
C626 C629 1.409 . S
C627 H619 0.930 . S
C627 C628 1.355 . S
C627 C629 1.415 . S
C628 C627 1.355 . S
C628 C630 1.419 . S
C629 C624 1.425 . S
C629 C626 1.409 . S
C629 C627 1.415 . S
C630 H620 0.930 . S
C630 C628 1.419 . S
C630 C631 1.362 . S
C631 H621 0.930 . S
C631 C624 1.409 . S
C631 C630 1.362 . S
C255 C74 1.830 . S
C260 C98 1.957 . S
C276 C138 1.964 . S
C271 C85 1.802 . S
C292 C178 1.975 . S
C287 C52 1.881 . S
C308 C218 1.959 1_455 S
C303 C63 1.814 . S
C324 C107 1.982 1_565 S
C319 C30 1.857 . S
C335 C41 1.882 . S
C340 C147 1.969 . S
C351 C8 1.854 . S
C356 C187 1.981 . S
C367 C19 1.819 1_655 S
C372 C227 1.960 1_655 S
C388 C104 0.640 . S
C383 C62 0.708 . S
C404 C144 0.640 . S
C399 C73 0.707 1_565 S
C420 C184 0.799 . S
C415 C84 0.730 . S
C431 C51 0.700 . S
C436 C224 0.644 . S
C447 C18 0.815 1_655 S
C452 C95 0.793 . S
C468 C135 0.642 . S
C463 C29 0.628 . S
C484 C175 0.666 . S
C479 C40 0.646 . S
C495 C7 0.680 . S
C500 C215 0.698 . S
C511 C60 1.814 . S
C516 C99 2.362 . S
C527 C71 1.725 . S
C532 C139 2.339 . S
C548 C179 2.347 . S
C543 C82 1.763 . S
C564 C219 2.343 . S
C559 C49 1.726 . S
C575 C16 1.904 1_655 S
C580 C90 2.340 . S
C596 C130 2.363 . S
C591 C27 1.808 1_565 S
C612 C170 2.370 . S
C607 C38 1.813 . S
C623 C5 1.822 . S
C628 C210 2.371 . S
