# Generated by pormake.
# Topology gar, (4,6)-cn, num edge types: 1
# Building blocks:
#     Node 0, Type 0, BuildingBlock: KUFVIS_clean_sbu_0, # of connection points: 4
#     Node 1, Type 0, BuildingBlock: KUFVIS_clean_sbu_0, # of connection points: 4
#     Node 2, Type 0, BuildingBlock: KUFVIS_clean_sbu_0, # of connection points: 4
#     Node 3, Type 0, BuildingBlock: KUFVIS_clean_sbu_0, # of connection points: 4
#     Node 4, Type 0, BuildingBlock: KUFVIS_clean_sbu_0, # of connection points: 4
#     Node 5, Type 0, BuildingBlock: KUFVIS_clean_sbu_0, # of connection points: 4
#     Node 6, Type 0, BuildingBlock: KUFVIS_clean_sbu_0, # of connection points: 4
#     Node 7, Type 0, BuildingBlock: KUFVIS_clean_sbu_0, # of connection points: 4
#     Node 8, Type 0, BuildingBlock: KUFVIS_clean_sbu_0, # of connection points: 4
#     Node 9, Type 0, BuildingBlock: KUFVIS_clean_sbu_0, # of connection points: 4
#     Node 10, Type 0, BuildingBlock: KUFVIS_clean_sbu_0, # of connection points: 4
#     Node 11, Type 0, BuildingBlock: KUFVIS_clean_sbu_0, # of connection points: 4
#     Node 12, Type 0, BuildingBlock: KUFVIS_clean_sbu_0, # of connection points: 4
#     Node 13, Type 0, BuildingBlock: KUFVIS_clean_sbu_0, # of connection points: 4
#     Node 14, Type 0, BuildingBlock: KUFVIS_clean_sbu_0, # of connection points: 4
#     Node 15, Type 0, BuildingBlock: KUFVIS_clean_sbu_0, # of connection points: 4
#     Node 16, Type 0, BuildingBlock: KUFVIS_clean_sbu_0, # of connection points: 4
#     Node 17, Type 0, BuildingBlock: KUFVIS_clean_sbu_0, # of connection points: 4
#     Node 18, Type 0, BuildingBlock: KUFVIS_clean_sbu_0, # of connection points: 4
#     Node 19, Type 0, BuildingBlock: KUFVIS_clean_sbu_0, # of connection points: 4
#     Node 20, Type 0, BuildingBlock: KUFVIS_clean_sbu_0, # of connection points: 4
#     Node 21, Type 0, BuildingBlock: KUFVIS_clean_sbu_0, # of connection points: 4
#     Node 22, Type 0, BuildingBlock: KUFVIS_clean_sbu_0, # of connection points: 4
#     Node 23, Type 0, BuildingBlock: KUFVIS_clean_sbu_0, # of connection points: 4
#     Node 24, Type 1, BuildingBlock: MIFKUJ_clean_sbu_0, # of connection points: 6
#     Node 25, Type 1, BuildingBlock: MIFKUJ_clean_sbu_0, # of connection points: 6
#     Node 26, Type 1, BuildingBlock: MIFKUJ_clean_sbu_0, # of connection points: 6
#     Node 27, Type 1, BuildingBlock: MIFKUJ_clean_sbu_0, # of connection points: 6
#     Node 28, Type 1, BuildingBlock: MIFKUJ_clean_sbu_0, # of connection points: 6
#     Node 29, Type 1, BuildingBlock: MIFKUJ_clean_sbu_0, # of connection points: 6
#     Node 30, Type 1, BuildingBlock: MIFKUJ_clean_sbu_0, # of connection points: 6
#     Node 31, Type 1, BuildingBlock: MIFKUJ_clean_sbu_0, # of connection points: 6
#     Node 32, Type 1, BuildingBlock: MIFKUJ_clean_sbu_0, # of connection points: 6
#     Node 33, Type 1, BuildingBlock: MIFKUJ_clean_sbu_0, # of connection points: 6
#     Node 34, Type 1, BuildingBlock: MIFKUJ_clean_sbu_0, # of connection points: 6
#     Node 35, Type 1, BuildingBlock: MIFKUJ_clean_sbu_0, # of connection points: 6
#     Node 36, Type 1, BuildingBlock: MIFKUJ_clean_sbu_0, # of connection points: 6
#     Node 37, Type 1, BuildingBlock: MIFKUJ_clean_sbu_0, # of connection points: 6
#     Node 38, Type 1, BuildingBlock: MIFKUJ_clean_sbu_0, # of connection points: 6
#     Node 39, Type 1, BuildingBlock: MIFKUJ_clean_sbu_0, # of connection points: 6
#     Edge 40, Type (0, 1), BuildingBlock: UVAHIK_clean_linker_0, # of connection points: 2
#     Edge 41, Type (0, 1), BuildingBlock: UVAHIK_clean_linker_0, # of connection points: 2
#     Edge 42, Type (0, 1), BuildingBlock: UVAHIK_clean_linker_0, # of connection points: 2
#     Edge 43, Type (0, 1), BuildingBlock: UVAHIK_clean_linker_0, # of connection points: 2
#     Edge 44, Type (0, 1), BuildingBlock: UVAHIK_clean_linker_0, # of connection points: 2
#     Edge 45, Type (0, 1), BuildingBlock: UVAHIK_clean_linker_0, # of connection points: 2
#     Edge 46, Type (0, 1), BuildingBlock: UVAHIK_clean_linker_0, # of connection points: 2
#     Edge 47, Type (0, 1), BuildingBlock: UVAHIK_clean_linker_0, # of connection points: 2
#     Edge 48, Type (0, 1), BuildingBlock: UVAHIK_clean_linker_0, # of connection points: 2
#     Edge 49, Type (0, 1), BuildingBlock: UVAHIK_clean_linker_0, # of connection points: 2
#     Edge 50, Type (0, 1), BuildingBlock: UVAHIK_clean_linker_0, # of connection points: 2
#     Edge 51, Type (0, 1), BuildingBlock: UVAHIK_clean_linker_0, # of connection points: 2
#     Edge 52, Type (0, 1), BuildingBlock: UVAHIK_clean_linker_0, # of connection points: 2
#     Edge 53, Type (0, 1), BuildingBlock: UVAHIK_clean_linker_0, # of connection points: 2
#     Edge 54, Type (0, 1), BuildingBlock: UVAHIK_clean_linker_0, # of connection points: 2
#     Edge 55, Type (0, 1), BuildingBlock: UVAHIK_clean_linker_0, # of connection points: 2
#     Edge 56, Type (0, 1), BuildingBlock: UVAHIK_clean_linker_0, # of connection points: 2
#     Edge 57, Type (0, 1), BuildingBlock: UVAHIK_clean_linker_0, # of connection points: 2
#     Edge 58, Type (0, 1), BuildingBlock: UVAHIK_clean_linker_0, # of connection points: 2
#     Edge 59, Type (0, 1), BuildingBlock: UVAHIK_clean_linker_0, # of connection points: 2
#     Edge 60, Type (0, 1), BuildingBlock: UVAHIK_clean_linker_0, # of connection points: 2
#     Edge 61, Type (0, 1), BuildingBlock: UVAHIK_clean_linker_0, # of connection points: 2
#     Edge 62, Type (0, 1), BuildingBlock: UVAHIK_clean_linker_0, # of connection points: 2
#     Edge 63, Type (0, 1), BuildingBlock: UVAHIK_clean_linker_0, # of connection points: 2
#     Edge 64, Type (0, 1), BuildingBlock: UVAHIK_clean_linker_0, # of connection points: 2
#     Edge 65, Type (0, 1), BuildingBlock: UVAHIK_clean_linker_0, # of connection points: 2
#     Edge 66, Type (0, 1), BuildingBlock: UVAHIK_clean_linker_0, # of connection points: 2
#     Edge 67, Type (0, 1), BuildingBlock: UVAHIK_clean_linker_0, # of connection points: 2
#     Edge 68, Type (0, 1), BuildingBlock: UVAHIK_clean_linker_0, # of connection points: 2
#     Edge 69, Type (0, 1), BuildingBlock: UVAHIK_clean_linker_0, # of connection points: 2
#     Edge 70, Type (0, 1), BuildingBlock: UVAHIK_clean_linker_0, # of connection points: 2
#     Edge 71, Type (0, 1), BuildingBlock: UVAHIK_clean_linker_0, # of connection points: 2
#     Edge 72, Type (0, 1), BuildingBlock: UVAHIK_clean_linker_0, # of connection points: 2
#     Edge 73, Type (0, 1), BuildingBlock: UVAHIK_clean_linker_0, # of connection points: 2
#     Edge 74, Type (0, 1), BuildingBlock: UVAHIK_clean_linker_0, # of connection points: 2
#     Edge 75, Type (0, 1), BuildingBlock: UVAHIK_clean_linker_0, # of connection points: 2
#     Edge 76, Type (0, 1), BuildingBlock: UVAHIK_clean_linker_0, # of connection points: 2
#     Edge 77, Type (0, 1), BuildingBlock: UVAHIK_clean_linker_0, # of connection points: 2
#     Edge 78, Type (0, 1), BuildingBlock: UVAHIK_clean_linker_0, # of connection points: 2
#     Edge 79, Type (0, 1), BuildingBlock: UVAHIK_clean_linker_0, # of connection points: 2
#     Edge 80, Type (0, 1), BuildingBlock: UVAHIK_clean_linker_0, # of connection points: 2
#     Edge 81, Type (0, 1), BuildingBlock: UVAHIK_clean_linker_0, # of connection points: 2
#     Edge 82, Type (0, 1), BuildingBlock: UVAHIK_clean_linker_0, # of connection points: 2
#     Edge 83, Type (0, 1), BuildingBlock: UVAHIK_clean_linker_0, # of connection points: 2
#     Edge 84, Type (0, 1), BuildingBlock: UVAHIK_clean_linker_0, # of connection points: 2
#     Edge 85, Type (0, 1), BuildingBlock: UVAHIK_clean_linker_0, # of connection points: 2
#     Edge 86, Type (0, 1), BuildingBlock: UVAHIK_clean_linker_0, # of connection points: 2
#     Edge 87, Type (0, 1), BuildingBlock: UVAHIK_clean_linker_0, # of connection points: 2
#     Edge 88, Type (0, 1), BuildingBlock: UVAHIK_clean_linker_0, # of connection points: 2
#     Edge 89, Type (0, 1), BuildingBlock: UVAHIK_clean_linker_0, # of connection points: 2
#     Edge 90, Type (0, 1), BuildingBlock: UVAHIK_clean_linker_0, # of connection points: 2
#     Edge 91, Type (0, 1), BuildingBlock: UVAHIK_clean_linker_0, # of connection points: 2
#     Edge 92, Type (0, 1), BuildingBlock: UVAHIK_clean_linker_0, # of connection points: 2
#     Edge 93, Type (0, 1), BuildingBlock: UVAHIK_clean_linker_0, # of connection points: 2
#     Edge 94, Type (0, 1), BuildingBlock: UVAHIK_clean_linker_0, # of connection points: 2
#     Edge 95, Type (0, 1), BuildingBlock: UVAHIK_clean_linker_0, # of connection points: 2
#     Edge 96, Type (0, 1), BuildingBlock: UVAHIK_clean_linker_0, # of connection points: 2
#     Edge 97, Type (0, 1), BuildingBlock: UVAHIK_clean_linker_0, # of connection points: 2
#     Edge 98, Type (0, 1), BuildingBlock: UVAHIK_clean_linker_0, # of connection points: 2
#     Edge 99, Type (0, 1), BuildingBlock: UVAHIK_clean_linker_0, # of connection points: 2
#     Edge 100, Type (0, 1), BuildingBlock: UVAHIK_clean_linker_0, # of connection points: 2
#     Edge 101, Type (0, 1), BuildingBlock: UVAHIK_clean_linker_0, # of connection points: 2
#     Edge 102, Type (0, 1), BuildingBlock: UVAHIK_clean_linker_0, # of connection points: 2
#     Edge 103, Type (0, 1), BuildingBlock: UVAHIK_clean_linker_0, # of connection points: 2
#     Edge 104, Type (0, 1), BuildingBlock: UVAHIK_clean_linker_0, # of connection points: 2
#     Edge 105, Type (0, 1), BuildingBlock: UVAHIK_clean_linker_0, # of connection points: 2
#     Edge 106, Type (0, 1), BuildingBlock: UVAHIK_clean_linker_0, # of connection points: 2
#     Edge 107, Type (0, 1), BuildingBlock: UVAHIK_clean_linker_0, # of connection points: 2
#     Edge 108, Type (0, 1), BuildingBlock: UVAHIK_clean_linker_0, # of connection points: 2
#     Edge 109, Type (0, 1), BuildingBlock: UVAHIK_clean_linker_0, # of connection points: 2
#     Edge 110, Type (0, 1), BuildingBlock: UVAHIK_clean_linker_0, # of connection points: 2
#     Edge 111, Type (0, 1), BuildingBlock: UVAHIK_clean_linker_0, # of connection points: 2
#     Edge 112, Type (0, 1), BuildingBlock: UVAHIK_clean_linker_0, # of connection points: 2
#     Edge 113, Type (0, 1), BuildingBlock: UVAHIK_clean_linker_0, # of connection points: 2
#     Edge 114, Type (0, 1), BuildingBlock: UVAHIK_clean_linker_0, # of connection points: 2
#     Edge 115, Type (0, 1), BuildingBlock: UVAHIK_clean_linker_0, # of connection points: 2
#     Edge 116, Type (0, 1), BuildingBlock: UVAHIK_clean_linker_0, # of connection points: 2
#     Edge 117, Type (0, 1), BuildingBlock: UVAHIK_clean_linker_0, # of connection points: 2
#     Edge 118, Type (0, 1), BuildingBlock: UVAHIK_clean_linker_0, # of connection points: 2
#     Edge 119, Type (0, 1), BuildingBlock: UVAHIK_clean_linker_0, # of connection points: 2
#     Edge 120, Type (0, 1), BuildingBlock: UVAHIK_clean_linker_0, # of connection points: 2
#     Edge 121, Type (0, 1), BuildingBlock: UVAHIK_clean_linker_0, # of connection points: 2
#     Edge 122, Type (0, 1), BuildingBlock: UVAHIK_clean_linker_0, # of connection points: 2
#     Edge 123, Type (0, 1), BuildingBlock: UVAHIK_clean_linker_0, # of connection points: 2
#     Edge 124, Type (0, 1), BuildingBlock: UVAHIK_clean_linker_0, # of connection points: 2
#     Edge 125, Type (0, 1), BuildingBlock: UVAHIK_clean_linker_0, # of connection points: 2
#     Edge 126, Type (0, 1), BuildingBlock: UVAHIK_clean_linker_0, # of connection points: 2
#     Edge 127, Type (0, 1), BuildingBlock: UVAHIK_clean_linker_0, # of connection points: 2
#     Edge 128, Type (0, 1), BuildingBlock: UVAHIK_clean_linker_0, # of connection points: 2
#     Edge 129, Type (0, 1), BuildingBlock: UVAHIK_clean_linker_0, # of connection points: 2
#     Edge 130, Type (0, 1), BuildingBlock: UVAHIK_clean_linker_0, # of connection points: 2
#     Edge 131, Type (0, 1), BuildingBlock: UVAHIK_clean_linker_0, # of connection points: 2
#     Edge 132, Type (0, 1), BuildingBlock: UVAHIK_clean_linker_0, # of connection points: 2
#     Edge 133, Type (0, 1), BuildingBlock: UVAHIK_clean_linker_0, # of connection points: 2
#     Edge 134, Type (0, 1), BuildingBlock: UVAHIK_clean_linker_0, # of connection points: 2
#     Edge 135, Type (0, 1), BuildingBlock: UVAHIK_clean_linker_0, # of connection points: 2
# Relax obj value: 0.091
# Max RMSD: 0.263
# Mean RMSD: 0.122
data_MOF--net-gar--node1-KUFVIS_clean_sbu_0--node2-MIFKUJ_clean_sbu_0--edge1-UVAHIK_clean_linker_0
_symmetry_space_group_name_H-M    P1
_symmetry_Int_Tables_number       1
_symmetry_cell_setting            triclinic
loop_
_symmetry_equiv_pos_as_xyz
'x, y, z'
_cell_length_a     70.954827
_cell_length_b     71.237924
_cell_length_c     70.519451
_cell_angle_alpha  94.244566
_cell_angle_beta   94.333881
_cell_angle_gamma 98.785409
loop_
_atom_site_label
_atom_site_type_symbol
_atom_site_fract_x
_atom_site_fract_y
_atom_site_fract_z
_atom_type_partial_charge
Mn0 Mn 0.01367 0.26558 0.40404 0.0
Mn1 Mn 0.00748 0.29089 0.36608 0.0
C2 C 0.98348 0.2714 0.39402 0.0
C3 C 0.0157 0.23675 0.41687 0.0
C4 C 0.02419 0.3088 0.40538 0.0
O5 O 0.0384 0.26504 0.39105 0.0
O6 O 0.03128 0.27964 0.36474 0.0
C7 C 0.00104 0.25935 0.33534 0.0
N8 N 0.99501 0.27448 0.34466 0.0
C9 C 0.96665 0.27108 0.32292 0.0
C10 C 0.97263 0.25556 0.31299 0.0
C11 C 0.98985 0.24962 0.31929 0.0
C12 C 0.97835 0.28017 0.33886 0.0
H13 H 0.01426 0.25474 0.34014 0.0
C14 C 0.04213 0.27058 0.37471 0.0
O15 O 0.02342 0.25287 0.42609 0.0
O16 O 0.00726 0.23736 0.39999 0.0
N17 N 0.98475 0.30234 0.36539 0.0
C18 C 0.98057 0.31698 0.37707 0.0
C19 C 0.96352 0.32425 0.37307 0.0
C20 C 0.95108 0.31658 0.35699 0.0
C21 C 0.95581 0.30169 0.34506 0.0
C22 C 0.97297 0.295 0.34977 0.0
H23 H 0.99012 0.32304 0.38937 0.0
O24 O 0.98712 0.26693 0.41127 0.0
O25 O 0.99747 0.27205 0.38314 0.0
O26 O 0.02222 0.29349 0.41379 0.0
O27 O 0.0199 0.30921 0.3875 0.0
C28 C 0.94408 0.29312 0.32875 0.0
C29 C 0.94945 0.27776 0.31774 0.0
H30 H 0.96405 0.24801 0.30059 0.0
H31 H 0.99451 0.23758 0.31177 0.0
H32 H 0.95999 0.33576 0.38234 0.0
H33 H 0.93791 0.32217 0.35399 0.0
H34 H 0.93075 0.29802 0.32472 0.0
H35 H 0.94014 0.27107 0.30542 0.0
Mn36 Mn 0.00378 0.74905 0.63696 0.0
Mn37 Mn 0.02606 0.78131 0.67227 0.0
C38 C 0.0357 0.74969 0.6462 0.0
C39 C 0.98625 0.71948 0.62579 0.0
C40 C 0.01738 0.79118 0.63189 0.0
O41 O 0.98158 0.75765 0.64983 0.0
O42 O 0.99776 0.7786 0.67315 0.0
C43 C 0.01528 0.75959 0.70509 0.0
N44 N 0.02903 0.76893 0.6952 0.0
C45 C 0.05401 0.76344 0.71818 0.0
C46 C 0.0401 0.75387 0.72868 0.0
C47 C 0.02066 0.75189 0.72207 0.0
C48 C 0.04779 0.77084 0.70138 0.0
H49 H 0.00032 0.75803 0.70005 0.0
C50 C 0.98214 0.76961 0.66433 0.0
O51 O 0.9863 0.73419 0.61597 0.0
O52 O 0.99566 0.7222 0.64255 0.0
N53 N 0.05344 0.78544 0.67347 0.0
C54 C 0.06511 0.79429 0.66122 0.0
C55 C 0.08504 0.79711 0.66559 0.0
C56 C 0.09275 0.791 0.68256 0.0
C57 C 0.08045 0.78209 0.69502 0.0
C58 C 0.0607 0.77978 0.68999 0.0
H59 H 0.05928 0.79903 0.64817 0.0
O60 O 0.02849 0.74226 0.62937 0.0
O61 O 0.02403 0.75655 0.65724 0.0
O62 O 0.00921 0.77455 0.62534 0.0
O63 O 0.02417 0.79533 0.64924 0.0
C64 C 0.08702 0.77507 0.71204 0.0
C65 C 0.07382 0.7657 0.72359 0.0
H66 H 0.04419 0.74786 0.74175 0.0
H67 H 0.00984 0.74445 0.73004 0.0
H68 H 0.09444 0.80395 0.65587 0.0
H69 H 0.10813 0.79309 0.68581 0.0
H70 H 0.10222 0.77654 0.71624 0.0
H71 H 0.07906 0.76013 0.73651 0.0
Mn72 Mn 0.51841 0.76451 0.89609 0.0
Mn73 Mn 0.51386 0.79064 0.85841 0.0
C74 C 0.48862 0.77067 0.88522 0.0
C75 C 0.51979 0.73565 0.9091 0.0
C76 C 0.52984 0.80766 0.89817 0.0
O77 O 0.54349 0.7639 0.88378 0.0
O78 O 0.53736 0.77883 0.8574 0.0
C79 C 0.50745 0.75978 0.82699 0.0
N80 N 0.50157 0.77492 0.83645 0.0
C81 C 0.4736 0.7724 0.81429 0.0
C82 C 0.47945 0.75689 0.80421 0.0
C83 C 0.49641 0.75052 0.81063 0.0
C84 C 0.48523 0.78112 0.83044 0.0
H85 H 0.52042 0.75478 0.83193 0.0
C86 C 0.54775 0.76949 0.86759 0.0
O87 O 0.52743 0.75176 0.91834 0.0
O88 O 0.51183 0.73623 0.89199 0.0
N89 N 0.49142 0.80258 0.85753 0.0
C90 C 0.4871 0.81684 0.86962 0.0
C91 C 0.47018 0.82434 0.86565 0.0
C92 C 0.45797 0.81724 0.84925 0.0
C93 C 0.46279 0.80267 0.83695 0.0
C94 C 0.47989 0.79582 0.84157 0.0
H95 H 0.49643 0.82239 0.88223 0.0
O96 O 0.49165 0.76602 0.90251 0.0
O97 O 0.50301 0.77143 0.87482 0.0
O98 O 0.52698 0.79223 0.90626 0.0
O99 O 0.52626 0.80849 0.88025 0.0
C100 C 0.45108 0.7944 0.82051 0.0
C101 C 0.45647 0.77926 0.8092 0.0
H102 H 0.47092 0.74963 0.79165 0.0
H103 H 0.50094 0.73847 0.80301 0.0
H104 H 0.46654 0.83556 0.87523 0.0
H105 H 0.44485 0.82295 0.84633 0.0
H106 H 0.43772 0.79934 0.81663 0.0
H107 H 0.44718 0.77279 0.79679 0.0
Mn108 Mn 0.49702 0.24453 0.13768 0.0
Mn109 Mn 0.46142 0.23704 0.10217 0.0
C110 C 0.48217 0.21393 0.12739 0.0
C111 C 0.5292 0.24795 0.14858 0.0
C112 C 0.45633 0.25207 0.14252 0.0
O113 O 0.50059 0.26954 0.12505 0.0
O114 O 0.47726 0.26232 0.10085 0.0
C115 C 0.48447 0.23484 0.06902 0.0
N116 N 0.47045 0.22673 0.07939 0.0
C117 C 0.46422 0.19839 0.05764 0.0
C118 C 0.47852 0.20648 0.04667 0.0
C119 C 0.4887 0.22477 0.05241 0.0
C120 C 0.46055 0.20915 0.074 0.0
H121 H 0.49239 0.24886 0.07342 0.0
C122 C 0.49142 0.27358 0.10997 0.0
O123 O 0.51689 0.25471 0.15879 0.0
O124 O 0.52293 0.23985 0.13172 0.0
N125 N 0.44537 0.21282 0.10185 0.0
C126 C 0.4329 0.20659 0.11466 0.0
C127 C 0.42204 0.18827 0.11138 0.0
C128 C 0.42405 0.17659 0.09495 0.0
C129 C 0.43689 0.18336 0.08192 0.0
C130 C 0.44724 0.20179 0.08587 0.0
H131 H 0.43135 0.21548 0.12735 0.0
O132 O 0.49091 0.21756 0.1444 0.0
O133 O 0.48221 0.22832 0.11715 0.0
O134 O 0.47328 0.25135 0.14946 0.0
O135 O 0.4505 0.2473 0.12499 0.0
C136 C 0.4401 0.17241 0.06535 0.0
C137 C 0.45375 0.17993 0.05322 0.0
H138 H 0.48192 0.19871 0.03392 0.0
H139 H 0.49983 0.23107 0.04407 0.0
H140 H 0.41219 0.18312 0.12154 0.0
H141 H 0.41577 0.1624 0.09256 0.0
H142 H 0.43236 0.15809 0.06195 0.0
H143 H 0.45629 0.17126 0.04067 0.0
Mn144 Mn 0.02113 0.76599 0.14081 0.0
Mn145 Mn 0.98749 0.74515 0.10596 0.0
C146 C 0.0193 0.73408 0.13112 0.0
C147 C 0.05132 0.78271 0.15135 0.0
C148 C 0.97892 0.75412 0.14683 0.0
O149 O 0.01252 0.78863 0.12864 0.0
O150 O 0.99193 0.77327 0.10454 0.0
C151 C 0.00912 0.75382 0.07254 0.0
N152 N 0.99917 0.74086 0.08282 0.0
C153 C 0.0027 0.71497 0.06012 0.0
C154 C 0.01286 0.72806 0.04921 0.0
C155 C 0.01613 0.74756 0.05548 0.0
C156 C 0.99605 0.72205 0.07699 0.0
H157 H 0.01171 0.76882 0.07733 0.0
C158 C 0.0011 0.78855 0.11373 0.0
O159 O 0.03694 0.78282 0.16165 0.0
O160 O 0.04792 0.77366 0.13446 0.0
N161 N 0.98174 0.71795 0.10533 0.0
C162 C 0.97239 0.7071 0.11791 0.0
C163 C 0.96827 0.68723 0.11391 0.0
C164 C 0.9736 0.67873 0.09695 0.0
C165 C 0.98302 0.69019 0.08412 0.0
C166 C 0.98662 0.70994 0.0888 0.0
H167 H 0.96816 0.71355 0.13094 0.0
O168 O 0.02761 0.74098 0.14772 0.0
O169 O 0.01248 0.74608 0.12048 0.0
O170 O 0.99607 0.76085 0.1532 0.0
O171 O 0.97402 0.74841 0.1293 0.0
C172 C 0.98927 0.68278 0.06704 0.0
C173 C 0.99916 0.69515 0.05508 0.0
H174 H 0.01834 0.72328 0.03607 0.0
H175 H 0.02405 0.75774 0.04718 0.0
H176 H 0.96101 0.67847 0.12389 0.0
H177 H 0.97049 0.66339 0.09396 0.0
H178 H 0.9868 0.66756 0.06311 0.0
H179 H 0.00413 0.68926 0.04212 0.0
Mn180 Mn 0.49831 0.74756 0.38582 0.0
Mn181 Mn 0.48696 0.7731 0.34923 0.0
C182 C 0.46687 0.74465 0.37351 0.0
C183 C 0.50866 0.72076 0.39736 0.0
C184 C 0.49501 0.78991 0.39036 0.0
O185 O 0.52405 0.75623 0.37581 0.0
O186 O 0.5146 0.77097 0.35045 0.0
C187 C 0.49322 0.74598 0.31731 0.0
N188 N 0.48163 0.75682 0.32606 0.0
C189 C 0.45648 0.74766 0.30074 0.0
C190 C 0.46818 0.73647 0.29139 0.0
C191 C 0.4866 0.73557 0.29976 0.0
C192 C 0.46382 0.75764 0.31824 0.0
H193 H 0.5074 0.7453 0.32368 0.0
C194 C 0.5275 0.76491 0.36097 0.0
O195 O 0.51081 0.73685 0.40781 0.0
O196 O 0.50091 0.72037 0.38002 0.0
N197 N 0.46071 0.77649 0.34587 0.0
C198 C 0.45099 0.78743 0.35703 0.0
C199 C 0.43232 0.78981 0.35073 0.0
C200 C 0.42394 0.78114 0.33292 0.0
C201 C 0.43424 0.77005 0.32163 0.0
C202 C 0.45285 0.76832 0.32859 0.0
H203 H 0.45744 0.79434 0.37063 0.0
O204 O 0.47102 0.73972 0.39048 0.0
O205 O 0.48125 0.75077 0.36396 0.0
O206 O 0.49763 0.77453 0.39757 0.0
O207 O 0.49164 0.791 0.37245 0.0
C208 C 0.42668 0.76043 0.30387 0.0
C209 C 0.43775 0.74915 0.29348 0.0
H210 H 0.46314 0.72844 0.27784 0.0
H211 H 0.49569 0.72691 0.29266 0.0
H212 H 0.42444 0.79836 0.35954 0.0
H213 H 0.40955 0.78304 0.32809 0.0
H214 H 0.41227 0.76139 0.2982 0.0
H215 H 0.43169 0.74162 0.27997 0.0
Mn216 Mn 0.52185 0.26704 0.64212 0.0
Mn217 Mn 0.48902 0.24814 0.60582 0.0
C218 C 0.51974 0.23544 0.63095 0.0
C219 C 0.55188 0.28308 0.6542 0.0
C220 C 0.47923 0.25555 0.64652 0.0
O221 O 0.51414 0.29051 0.63071 0.0
O222 O 0.49408 0.27634 0.60567 0.0
C223 C 0.51206 0.25793 0.5736 0.0
N224 N 0.50144 0.24463 0.583 0.0
C225 C 0.50508 0.21953 0.55943 0.0
C226 C 0.51594 0.23297 0.54942 0.0
C227 C 0.51951 0.25224 0.55658 0.0
C228 C 0.49809 0.22603 0.57634 0.0
H229 H 0.51483 0.27274 0.57906 0.0
C230 C 0.50324 0.29118 0.61559 0.0
O231 O 0.53708 0.28286 0.66395 0.0
O232 O 0.54907 0.27466 0.637 0.0
N233 N 0.48272 0.22093 0.60395 0.0
C234 C 0.47247 0.20969 0.61562 0.0
C235 C 0.46762 0.19002 0.61047 0.0
C236 C 0.47319 0.18215 0.59333 0.0
C237 C 0.48373 0.19399 0.58156 0.0
C238 C 0.48796 0.21352 0.58731 0.0
H239 H 0.46794 0.21567 0.6287 0.0
O240 O 0.52757 0.24138 0.64798 0.0
O241 O 0.51351 0.24816 0.62088 0.0
O242 O 0.49629 0.26173 0.6535 0.0
O243 O 0.47477 0.25064 0.62876 0.0
C244 C 0.49032 0.18716 0.56441 0.0
C245 C 0.50108 0.19991 0.55341 0.0
H246 H 0.52172 0.22865 0.5363 0.0
H247 H 0.52795 0.26269 0.54899 0.0
H248 H 0.45951 0.18096 0.61965 0.0
H249 H 0.46929 0.16701 0.58934 0.0
H250 H 0.4874 0.17211 0.55967 0.0
H251 H 0.50629 0.19446 0.54038 0.0
Mn252 Mn 0.99674 0.24456 0.88309 0.0
Mn253 Mn 0.98432 0.26967 0.84657 0.0
C254 C 0.96528 0.24015 0.87046 0.0
C255 C 0.00827 0.21828 0.89453 0.0
C256 C 0.99228 0.28652 0.88774 0.0
O257 O 0.02223 0.25441 0.87313 0.0
O258 O 0.01211 0.26818 0.84731 0.0
C259 C 0.99067 0.24339 0.814 0.0
N260 N 0.97894 0.25372 0.82321 0.0
C261 C 0.95359 0.24469 0.79806 0.0
C262 C 0.96543 0.23403 0.78824 0.0
C263 C 0.98402 0.23332 0.79628 0.0
C264 C 0.96099 0.25441 0.81566 0.0
H265 H 0.00498 0.24288 0.82012 0.0
C266 C 0.02533 0.26279 0.85802 0.0
O267 O 0.00974 0.23426 0.90506 0.0
O268 O 0.00057 0.21774 0.87716 0.0
N269 N 0.95782 0.27229 0.84388 0.0
C270 C 0.9478 0.28214 0.85578 0.0
C271 C 0.92878 0.28382 0.85009 0.0
C272 C 0.92034 0.27558 0.83214 0.0
C273 C 0.93094 0.26557 0.82012 0.0
C274 C 0.94987 0.26443 0.82652 0.0
H275 H 0.95427 0.28868 0.86951 0.0
O276 O 0.96959 0.23546 0.8875 0.0
O277 O 0.97954 0.24711 0.86115 0.0
O278 O 0.99491 0.27119 0.89503 0.0
O279 O 0.98904 0.28752 0.86982 0.0
C280 C 0.92334 0.25629 0.80222 0.0
C281 C 0.93463 0.2458 0.79123 0.0
H282 H 0.96034 0.22621 0.77459 0.0
H283 H 0.99321 0.22506 0.78882 0.0
H284 H 0.92066 0.29151 0.85948 0.0
H285 H 0.90565 0.27687 0.82782 0.0
H286 H 0.9087 0.25681 0.79695 0.0
H287 H 0.92852 0.23844 0.77765 0.0
Mn288 Mn 0.40049 0.02113 0.27431 0.0
Mn289 Mn 0.36088 0.01529 0.29839 0.0
C290 C 0.38738 0.9912 0.28173 0.0
C291 C 0.41614 0.02295 0.24658 0.0
C292 C 0.40041 0.03025 0.3175 0.0
O293 O 0.38983 0.04572 0.27076 0.0
O294 O 0.36381 0.04029 0.28729 0.0
C295 C 0.3321 0.01277 0.26525 0.0
N296 N 0.33932 0.00505 0.28078 0.0
C297 C 0.31484 0.97737 0.2754 0.0
C298 C 0.30707 0.98508 0.25942 0.0
C299 C 0.31578 0.00283 0.25429 0.0
C300 C 0.33113 0.98792 0.28576 0.0
H301 H 0.33876 0.02639 0.26123 0.0
C302 C 0.37479 0.0506 0.27718 0.0
O303 O 0.42431 0.03092 0.26288 0.0
O304 O 0.39852 0.01452 0.24622 0.0
N305 N 0.35609 0.99165 0.30979 0.0
C306 C 0.36567 0.98595 0.32528 0.0
C307 C 0.35896 0.96834 0.33209 0.0
C308 C 0.34238 0.95689 0.32305 0.0
C309 C 0.33259 0.9632 0.30734 0.0
C310 C 0.3399 0.98091 0.30124 0.0
H311 H 0.37839 0.99472 0.33232 0.0
O312 O 0.40525 0.99476 0.2784 0.0
O313 O 0.37768 0.00521 0.28059 0.0
O314 O 0.40899 0.02966 0.3023 0.0
O315 O 0.38237 0.02535 0.31776 0.0
C316 C 0.31599 0.95251 0.29736 0.0
C317 C 0.30718 0.95954 0.28134 0.0
H318 H 0.29451 0.97745 0.25091 0.0
H319 H 0.30992 0.00884 0.24193 0.0
H320 H 0.36658 0.96359 0.34425 0.0
H321 H 0.33733 0.94325 0.32826 0.0
H322 H 0.31001 0.93876 0.30175 0.0
H323 H 0.29457 0.95107 0.27363 0.0
Mn324 Mn 0.26596 0.13759 0.50365 0.0
Mn325 Mn 0.25476 0.10036 0.47014 0.0
C326 C 0.2343 0.12428 0.49517 0.0
C327 C 0.27328 0.1498 0.53543 0.0
C328 C 0.26702 0.14111 0.46071 0.0
O329 O 0.29129 0.12735 0.50241 0.0
O330 O 0.28164 0.10189 0.48102 0.0
C331 C 0.25684 0.06889 0.49503 0.0
N332 N 0.2467 0.07762 0.48212 0.0
C333 C 0.21887 0.05367 0.48243 0.0
C334 C 0.22906 0.04437 0.49564 0.0
C335 C 0.24812 0.05203 0.50198 0.0
C336 C 0.22834 0.07038 0.47594 0.0
H337 H 0.27146 0.07477 0.50002 0.0
C338 C 0.29434 0.11232 0.4928 0.0
O339 O 0.27788 0.16003 0.52149 0.0
O340 O 0.26514 0.13231 0.53089 0.0
N341 N 0.22895 0.09713 0.45881 0.0
C342 C 0.22084 0.10829 0.44671 0.0
C343 C 0.20167 0.10282 0.43934 0.0
C344 C 0.19108 0.0859 0.44441 0.0
C345 C 0.19977 0.07457 0.45676 0.0
C346 C 0.21898 0.08065 0.4635 0.0
H347 H 0.22889 0.12132 0.44277 0.0
O348 O 0.23854 0.14164 0.50295 0.0
O349 O 0.24865 0.11541 0.4925 0.0
O350 O 0.26879 0.14873 0.47783 0.0
O351 O 0.26232 0.12317 0.45641 0.0
C352 C 0.19005 0.05763 0.46287 0.0
C353 C 0.19958 0.04721 0.47573 0.0
H354 H 0.22235 0.03142 0.50112 0.0
H355 H 0.25605 0.04498 0.51225 0.0
H356 H 0.19506 0.11166 0.42984 0.0
H357 H 0.17624 0.08183 0.43885 0.0
H358 H 0.17517 0.05262 0.45796 0.0
H359 H 0.19187 0.03435 0.48052 0.0
Mn360 Mn 0.12997 0.00547 0.78307 0.0
Mn361 Mn 0.16756 0.01172 0.81647 0.0
C362 C 0.1458 0.03579 0.79333 0.0
C363 C 0.11754 0.0009 0.75113 0.0
C364 C 0.12628 0.00213 0.82584 0.0
O365 O 0.13804 0.97915 0.78228 0.0
O366 O 0.1636 0.98516 0.80423 0.0
C367 C 0.19841 0.00804 0.79106 0.0
N368 N 0.1907 0.01845 0.80457 0.0
C369 C 0.21658 0.04464 0.80497 0.0
C370 C 0.22486 0.03414 0.79116 0.0
C371 C 0.21572 0.01577 0.78417 0.0
C372 C 0.19939 0.03613 0.81142 0.0
H373 H 0.19138 0.99397 0.78554 0.0
C374 C 0.15231 0.97411 0.79163 0.0
O375 O 0.10693 0.99624 0.7648 0.0
O376 O 0.13542 0.00761 0.75601 0.0
N377 N 0.17304 0.03696 0.82904 0.0
C378 C 0.16266 0.0456 0.84156 0.0
C379 C 0.16959 0.06427 0.84952 0.0
C380 C 0.1871 0.07383 0.84455 0.0
C381 C 0.19759 0.0646 0.83174 0.0
C382 C 0.19008 0.04591 0.82444 0.0
H383 H 0.14914 0.03837 0.84536 0.0
O384 O 0.12827 0.03336 0.78576 0.0
O385 O 0.15331 0.02042 0.79489 0.0
O386 O 0.11865 0.00175 0.80879 0.0
O387 O 0.14438 0.0054 0.83011 0.0
C388 C 0.21501 0.07334 0.82565 0.0
C389 C 0.2245 0.06337 0.81227 0.0
H390 H 0.23813 0.04012 0.78569 0.0
H391 H 0.22197 0.00763 0.77342 0.0
H392 H 0.16139 0.07131 0.85936 0.0
H393 H 0.19228 0.08831 0.85053 0.0
H394 H 0.2211 0.08782 0.83097 0.0
H395 H 0.23775 0.07034 0.80751 0.0
Mn396 Mn 0.25022 0.86806 0.01025 0.0
Mn397 Mn 0.25812 0.9062 0.98454 0.0
C398 C 0.28077 0.87964 0.00305 0.0
C399 C 0.2474 0.85376 0.03864 0.0
C400 C 0.24168 0.8666 0.96685 0.0
O401 O 0.22613 0.87991 0.01284 0.0
O402 O 0.23281 0.90483 0.99513 0.0
C403 C 0.26111 0.93635 0.01637 0.0
N404 N 0.26887 0.92808 0.00143 0.0
C405 C 0.29745 0.95151 0.0065 0.0
C406 C 0.28971 0.96034 0.02187 0.0
C407 C 0.27149 0.9527 0.02685 0.0
C408 C 0.28644 0.93526 0.99658 0.0
H409 H 0.24713 0.93051 0.02028 0.0
C410 C 0.22194 0.8948 0.00558 0.0
O411 O 0.23933 0.84522 0.02253 0.0
O412 O 0.25652 0.87099 0.0384 0.0
N413 N 0.28218 0.90942 0.97363 0.0
C414 C 0.28787 0.89882 0.95887 0.0
C415 C 0.30594 0.90435 0.95234 0.0
C416 C 0.31788 0.92081 0.96093 0.0
C417 C 0.3116 0.93164 0.97592 0.0
C418 C 0.29342 0.92547 0.98175 0.0
H419 H 0.27875 0.88616 0.95219 0.0
O420 O 0.27643 0.86205 0.00692 0.0
O421 O 0.26711 0.88986 0.00339 0.0
O422 O 0.2416 0.85875 0.98248 0.0
O423 O 0.2476 0.88432 0.96588 0.0
C424 C 0.32277 0.94817 0.98545 0.0
C425 C 0.31574 0.95805 0.00078 0.0
H426 H 0.29768 0.97293 0.03002 0.0
H427 H 0.26546 0.95939 0.03874 0.0
H428 H 0.31068 0.89593 0.94076 0.0
H429 H 0.33187 0.92495 0.95596 0.0
H430 H 0.3369 0.95327 0.98126 0.0
H431 H 0.32457 0.97059 0.00817 0.0
Mn432 Mn 0.26772 0.37914 0.03601 0.0
Mn433 Mn 0.27962 0.41827 0.01227 0.0
C434 C 0.29929 0.39399 0.03761 0.0
C435 C 0.25761 0.36436 0.06283 0.0
C436 C 0.27181 0.37812 0.99291 0.0
O437 O 0.24187 0.38777 0.0302 0.0
O438 O 0.25184 0.41397 0.01541 0.0
C439 C 0.27159 0.4472 0.04164 0.0
N440 N 0.28388 0.44051 0.02987 0.0
C441 C 0.30799 0.46791 0.03908 0.0
C442 C 0.29558 0.47515 0.05126 0.0
C443 C 0.27734 0.46468 0.05262 0.0
C444 C 0.30157 0.45028 0.0287 0.0
H445 H 0.25749 0.43928 0.04257 0.0
C446 C 0.2387 0.40249 0.02192 0.0
O447 O 0.25534 0.35528 0.04597 0.0
O448 O 0.26522 0.38224 0.06403 0.0
N449 N 0.30607 0.42462 0.00806 0.0
C450 C 0.31645 0.41547 0.99595 0.0
C451 C 0.33517 0.42389 0.99321 0.0
C452 C 0.34282 0.44183 0.00256 0.0
C453 C 0.3317 0.45118 0.0146 0.0
C454 C 0.31324 0.44199 0.01696 0.0
H455 H 0.31052 0.40182 0.98846 0.0
O456 O 0.29517 0.37634 0.04131 0.0
O457 O 0.28487 0.40262 0.03331 0.0
O458 O 0.26829 0.36965 0.00787 0.0
O459 O 0.27597 0.3962 0.99302 0.0
C460 C 0.33819 0.46926 0.02436 0.0
C461 C 0.32645 0.47751 0.03678 0.0
H462 H 0.2999 0.4887 0.05964 0.0
H463 H 0.26768 0.47015 0.06201 0.0
H464 H 0.34362 0.41663 0.98381 0.0
H465 H 0.35725 0.4483 0.00039 0.0
H466 H 0.3523 0.47685 0.02259 0.0
H467 H 0.33175 0.49127 0.04446 0.0
Mn468 Mn 0.76743 0.14035 0.02027 0.0
Mn469 Mn 0.74738 0.10335 0.98868 0.0
C470 C 0.73489 0.12986 0.0183 0.0
C471 C 0.78236 0.15404 0.0496 0.0
C472 C 0.75903 0.14324 0.97739 0.0
O473 O 0.79033 0.12783 0.01376 0.0
O474 O 0.77541 0.10346 0.99307 0.0
C475 C 0.75386 0.0722 0.01278 0.0
N476 N 0.74166 0.08119 0.00224 0.0
C477 C 0.71458 0.05832 0.00819 0.0
C478 C 0.72687 0.04876 0.01902 0.0
C479 C 0.74659 0.05577 0.02137 0.0
C480 C 0.72264 0.07468 5e-05 0.0
H481 H 0.76903 0.07753 0.01464 0.0
C482 C 0.79042 0.11291 0.00257 0.0
O483 O 0.78414 0.16263 0.03412 0.0
O484 O 0.77248 0.13696 0.04797 0.0
N485 N 0.72027 0.10117 0.98311 0.0
C486 C 0.71034 0.11211 0.97231 0.0
C487 C 0.69041 0.10703 0.96861 0.0
C488 C 0.68094 0.09064 0.97581 0.0
C489 C 0.69151 0.0794 0.98655 0.0
C490 C 0.71135 0.08512 0.98972 0.0
H491 H 0.71754 0.12465 0.96662 0.0
O492 O 0.74187 0.14711 0.02526 0.0
O493 O 0.74712 0.11919 0.01277 0.0
O494 O 0.76536 0.1504 0.99412 0.0
O495 O 0.75221 0.12562 0.97346 0.0
C496 C 0.68313 0.06278 0.9943 0.0
C497 C 0.69463 0.05232 0.00523 0.0
H498 H 0.72131 0.03606 0.02565 0.0
H499 H 0.75615 0.0485 0.02977 0.0
H500 H 0.68237 0.11574 0.96023 0.0
H501 H 0.66555 0.08684 0.97303 0.0
H502 H 0.66782 0.05801 0.9921 0.0
H503 H 0.68799 0.0397 0.01131 0.0
Mn504 Mn 0.12828 0.50343 0.26103 0.0
Mn505 Mn 0.16707 0.52371 0.29046 0.0
C506 C 0.14209 0.53448 0.25823 0.0
C507 C 0.11327 0.48555 0.23362 0.0
C508 C 0.12674 0.51888 0.30247 0.0
O509 O 0.13787 0.48049 0.27168 0.0
O510 O 0.16382 0.49551 0.29018 0.0
C511 C 0.19678 0.50982 0.26831 0.0
N512 N 0.18943 0.52453 0.27687 0.0
C513 C 0.21595 0.5473 0.26946 0.0
C514 C 0.22385 0.53239 0.26062 0.0
C515 C 0.21415 0.51359 0.25995 0.0
C516 C 0.19845 0.54271 0.27729 0.0
H517 H 0.18946 0.49533 0.26792 0.0
C518 C 0.15271 0.48035 0.28306 0.0
O519 O 0.10458 0.48733 0.24901 0.0
O520 O 0.13107 0.49359 0.23434 0.0
N521 N 0.1724 0.55097 0.29227 0.0
C522 C 0.16276 0.56375 0.30115 0.0
C523 C 0.17044 0.58323 0.30285 0.0
C524 C 0.18815 0.58934 0.29581 0.0
C525 C 0.19801 0.57588 0.28713 0.0
C526 C 0.18956 0.55668 0.28567 0.0
H527 H 0.1493 0.55912 0.30687 0.0
O528 O 0.12441 0.52847 0.2518 0.0
O529 O 0.15133 0.52214 0.26596 0.0
O530 O 0.11876 0.51092 0.28654 0.0
O531 O 0.14481 0.52404 0.30569 0.0
C532 C 0.21593 0.58076 0.27993 0.0
C533 C 0.22478 0.56652 0.27089 0.0
H534 H 0.23732 0.53522 0.25429 0.0
H535 H 0.22014 0.50201 0.25312 0.0
H536 H 0.16279 0.59351 0.30966 0.0
H537 H 0.19404 0.60437 0.29716 0.0
H538 H 0.22293 0.59547 0.28108 0.0
H539 H 0.23841 0.5705 0.26512 0.0
Mn540 Mn 0.76398 0.87988 0.53724 0.0
Mn541 Mn 0.77795 0.91839 0.51326 0.0
C542 C 0.79618 0.89213 0.53776 0.0
C543 C 0.75351 0.86583 0.5643 0.0
C544 C 0.76571 0.87849 0.49398 0.0
O545 O 0.73915 0.89078 0.53213 0.0
O546 O 0.75084 0.91727 0.51856 0.0
C547 C 0.77567 0.94866 0.54372 0.0
N548 N 0.78589 0.94045 0.53076 0.0
C549 C 0.81323 0.96499 0.53873 0.0
C550 C 0.80297 0.97378 0.55211 0.0
C551 C 0.78414 0.96552 0.55467 0.0
C552 C 0.80407 0.94816 0.52831 0.0
H553 H 0.76117 0.94238 0.54565 0.0
C554 C 0.73713 0.90641 0.52498 0.0
O555 O 0.75009 0.85689 0.54739 0.0
O556 O 0.76242 0.88328 0.56543 0.0
N557 N 0.80394 0.9216 0.50698 0.0
C558 C 0.81209 0.91096 0.494 0.0
C559 C 0.83093 0.91722 0.48978 0.0
C560 C 0.8411 0.93445 0.49874 0.0
C561 C 0.83239 0.9452 0.51197 0.0
C562 C 0.81353 0.93833 0.51549 0.0
H563 H 0.80425 0.89784 0.48685 0.0
O564 O 0.79079 0.87473 0.54172 0.0
O565 O 0.78263 0.90204 0.53391 0.0
O566 O 0.76325 0.87007 0.50913 0.0
O567 O 0.77045 0.8965 0.49389 0.0
C568 C 0.84178 0.96233 0.522 0.0
C569 C 0.83223 0.97216 0.53545 0.0
H570 H 0.80944 0.9868 0.56057 0.0
H571 H 0.77616 0.97218 0.56501 0.0
H572 H 0.83757 0.90883 0.47957 0.0
H573 H 0.8556 0.93926 0.49541 0.0
H574 H 0.85642 0.96791 0.51969 0.0
H575 H 0.83969 0.98517 0.54327 0.0
Mn576 Mn 0.88795 0.00477 0.24899 0.0
Mn577 Mn 0.84851 0.99338 0.27263 0.0
C578 C 0.8731 0.97338 0.2479 0.0
C579 C 0.9033 0.01438 0.22229 0.0
C580 C 0.88864 0.0005 0.2922 0.0
O581 O 0.87923 0.03056 0.25396 0.0
O582 O 0.8537 0.02118 0.27006 0.0
C583 C 0.82035 0.0028 0.24309 0.0
N584 N 0.82639 0.99011 0.25477 0.0
C585 C 0.79841 0.96693 0.24472 0.0
C586 C 0.79183 0.97977 0.23265 0.0
C587 C 0.80291 0.99775 0.23175 0.0
C588 C 0.81602 0.97266 0.25548 0.0
H589 H 0.82874 0.01669 0.24247 0.0
C590 C 0.86501 0.034 0.26295 0.0
O591 O 0.91211 0.01687 0.2393 0.0
O592 O 0.88534 0.00681 0.22082 0.0
N593 N 0.8411 0.96705 0.27644 0.0
C594 C 0.84955 0.95626 0.28869 0.0
C595 C 0.84039 0.93778 0.29111 0.0
C596 C 0.82242 0.93079 0.28131 0.0
C597 C 0.81378 0.94234 0.26916 0.0
C598 C 0.82367 0.96056 0.26719 0.0
H599 H 0.86321 0.96168 0.29652 0.0
O600 O 0.89088 0.97746 0.24439 0.0
O601 O 0.86425 0.98776 0.25168 0.0
O602 O 0.89712 0.00463 0.27735 0.0
O603 O 0.8705 0.99601 0.29198 0.0
C604 C 0.79574 0.93649 0.25893 0.0
C605 C 0.78816 0.94868 0.24655 0.0
H606 H 0.77832 0.97598 0.22398 0.0
H607 H 0.79795 0.00773 0.22243 0.0
H608 H 0.8471 0.929 0.3006 0.0
H609 H 0.81539 0.91653 0.28323 0.0
H610 H 0.78762 0.92258 0.26036 0.0
H611 H 0.77441 0.94391 0.23855 0.0
Mn612 Mn 0.27284 0.64752 0.52191 0.0
Mn613 Mn 0.25071 0.61136 0.49033 0.0
C614 C 0.2402 0.63826 0.52099 0.0
C615 C 0.28871 0.65991 0.55128 0.0
C616 C 0.26355 0.65124 0.47936 0.0
O617 O 0.29483 0.63414 0.51426 0.0
O618 O 0.27854 0.61008 0.49403 0.0
C619 C 0.25601 0.57917 0.5134 0.0
N620 N 0.24421 0.589 0.50337 0.0
C621 C 0.21643 0.56687 0.50903 0.0
C622 C 0.2283 0.55644 0.51931 0.0
C623 C 0.24818 0.56266 0.52155 0.0
C624 C 0.22506 0.58319 0.5012 0.0
H625 H 0.27129 0.58391 0.51518 0.0
C626 C 0.29403 0.61904 0.50309 0.0
O627 O 0.29061 0.669 0.5361 0.0
O628 O 0.27828 0.64311 0.54922 0.0
N629 N 0.22368 0.6106 0.48546 0.0
C630 C 0.21414 0.62274 0.4759 0.0
C631 C 0.1941 0.61878 0.47277 0.0
C632 C 0.18408 0.6023 0.47933 0.0
C633 C 0.19422 0.58991 0.48897 0.0
C634 C 0.2142 0.59453 0.49155 0.0
H635 H 0.22175 0.6354 0.47076 0.0
O636 O 0.24802 0.65526 0.52802 0.0
O637 O 0.25169 0.62709 0.5147 0.0
O638 O 0.27037 0.65828 0.49601 0.0
O639 O 0.25627 0.63374 0.47547 0.0
C640 C 0.18525 0.57336 0.49643 0.0
C641 C 0.19634 0.56188 0.50649 0.0
H642 H 0.22231 0.54373 0.52567 0.0
H643 H 0.25742 0.55473 0.52954 0.0
H644 H 0.18637 0.62842 0.46534 0.0
H645 H 0.16862 0.59935 0.47701 0.0
H646 H 0.16981 0.5695 0.49476 0.0
H647 H 0.18926 0.54933 0.51239 0.0
Mn648 Mn 0.38889 0.50366 0.7514 0.0
Mn649 Mn 0.34951 0.49125 0.77482 0.0
C650 C 0.37409 0.47212 0.74934 0.0
C651 C 0.404 0.51423 0.72488 0.0
C652 C 0.38976 0.49866 0.79438 0.0
O653 O 0.38015 0.52933 0.75754 0.0
O654 O 0.35396 0.51904 0.77228 0.0
C655 C 0.32073 0.5 0.74553 0.0
N656 N 0.32728 0.48746 0.75709 0.0
C657 C 0.29969 0.46371 0.7473 0.0
C658 C 0.2926 0.47638 0.73534 0.0
C659 C 0.30323 0.49456 0.73436 0.0
C660 C 0.31734 0.46982 0.75787 0.0
H661 H 0.32878 0.51405 0.74489 0.0
C662 C 0.36541 0.53231 0.76595 0.0
O663 O 0.41294 0.51623 0.74183 0.0
O664 O 0.38605 0.50664 0.72341 0.0
N665 N 0.34292 0.46479 0.77851 0.0
C666 C 0.3519 0.45417 0.79053 0.0
C667 C 0.34327 0.43549 0.79292 0.0
C668 C 0.32528 0.42812 0.78335 0.0
C669 C 0.3161 0.43949 0.77143 0.0
C670 C 0.3255 0.45791 0.76942 0.0
H671 H 0.36557 0.45988 0.79819 0.0
O672 O 0.39182 0.47641 0.74575 0.0
O673 O 0.36531 0.48638 0.75376 0.0
O674 O 0.39826 0.50263 0.77952 0.0
O675 O 0.3716 0.49439 0.79418 0.0
C676 C 0.29799 0.43329 0.76146 0.0
C677 C 0.2899 0.44528 0.74922 0.0
H678 H 0.27903 0.47229 0.72682 0.0
H679 H 0.29788 0.50441 0.72514 0.0
H680 H 0.35041 0.42685 0.80222 0.0
H681 H 0.31866 0.41373 0.78525 0.0
H682 H 0.29024 0.41923 0.76296 0.0
H683 H 0.27611 0.44022 0.74138 0.0
Mn684 Mn 0.62101 0.99897 0.77128 0.0
Mn685 Mn 0.65574 0.0191 0.80535 0.0
C686 C 0.63127 0.03139 0.77355 0.0
C687 C 0.61054 0.98429 0.74101 0.0
C688 C 0.61454 0.00663 0.81327 0.0
O689 O 0.63291 0.97635 0.77955 0.0
O690 O 0.65686 0.99142 0.80066 0.0
C691 C 0.68958 0.01458 0.78432 0.0
N692 N 0.67918 0.02602 0.79403 0.0
C693 C 0.70208 0.05391 0.79057 0.0
C694 C 0.71309 0.04241 0.78063 0.0
C695 C 0.70678 0.02267 0.77746 0.0
C696 C 0.68508 0.04504 0.79711 0.0
H697 H 0.68476 0.99941 0.78181 0.0
C698 C 0.64769 0.97636 0.79107 0.0
O699 O 0.60004 0.98217 0.75522 0.0
O700 O 0.62758 0.99417 0.74463 0.0
N701 N 0.65656 0.04591 0.81116 0.0
C702 C 0.64385 0.05512 0.82024 0.0
C703 C 0.64785 0.07501 0.82418 0.0
C704 C 0.66493 0.0852 0.81891 0.0
C705 C 0.67787 0.07541 0.80975 0.0
C706 C 0.67319 0.05556 0.80634 0.0
H707 H 0.63072 0.04737 0.82437 0.0
O708 O 0.61456 0.02422 0.76512 0.0
O709 O 0.64158 0.01938 0.7803 0.0
O710 O 0.60833 0.00101 0.79608 0.0
O711 O 0.63212 0.01304 0.81846 0.0
C712 C 0.69506 0.0846 0.80358 0.0
C713 C 0.70714 0.07386 0.79396 0.0
H714 H 0.72633 0.0486 0.77525 0.0
H715 H 0.71516 0.01371 0.76972 0.0
H716 H 0.63779 0.08247 0.83123 0.0
H717 H 0.6679 0.10056 0.82186 0.0
H718 H 0.699 0.09995 0.80592 0.0
H719 H 0.72019 0.08112 0.78905 0.0
Mn720 Mn 0.76638 0.63962 0.00385 0.0
Mn721 Mn 0.75828 0.60226 0.97033 0.0
C722 C 0.73549 0.62474 0.9942 0.0
C723 C 0.77196 0.65205 0.03566 0.0
C724 C 0.76891 0.64326 0.96103 0.0
O725 O 0.79241 0.63076 0.00393 0.0
O726 O 0.78509 0.60537 0.982 0.0
C727 C 0.76149 0.57123 0.99553 0.0
N728 N 0.75109 0.5793 0.98225 0.0
C729 C 0.7242 0.55421 0.98222 0.0
C730 C 0.73467 0.54557 0.99579 0.0
C731 C 0.75338 0.55414 0.00248 0.0
C732 C 0.73307 0.57117 0.97571 0.0
H733 H 0.77583 0.57783 0.00081 0.0
C734 C 0.79676 0.61632 0.99435 0.0
O735 O 0.77663 0.66243 0.02185 0.0
O736 O 0.76471 0.63432 0.03099 0.0
N737 N 0.73271 0.59762 0.95826 0.0
C738 C 0.72419 0.60826 0.9459 0.0
C739 C 0.70525 0.6019 0.93822 0.0
C740 C 0.69529 0.58465 0.94327 0.0
C741 C 0.7044 0.57387 0.95589 0.0
C742 C 0.72337 0.58082 0.96293 0.0
H743 H 0.73175 0.62156 0.94203 0.0
O744 O 0.73857 0.64219 0.00184 0.0
O745 O 0.75055 0.61675 0.99225 0.0
O746 O 0.76979 0.65082 0.97812 0.0
O747 O 0.76505 0.62528 0.95667 0.0
C748 C 0.69528 0.55668 0.96204 0.0
C749 C 0.70517 0.54686 0.97521 0.0
H750 H 0.72842 0.53245 0.0013 0.0
H751 H 0.76152 0.54761 0.01303 0.0
H752 H 0.69831 0.61032 0.92851 0.0
H753 H 0.68061 0.5799 0.9375 0.0
H754 H 0.68059 0.55101 0.95693 0.0
H755 H 0.69792 0.5338 0.98002 0.0
Mn756 Mn 0.89344 0.51676 0.78016 0.0
Mn757 Mn 0.85784 0.51344 0.8095 0.0
C758 C 0.8803 0.48744 0.78907 0.0
C759 C 0.90507 0.51728 0.75027 0.0
C760 C 0.89945 0.5274 0.82322 0.0
O761 O 0.88356 0.54192 0.77809 0.0
O762 O 0.85931 0.53777 0.79707 0.0
C763 C 0.8246 0.51052 0.78078 0.0
N764 N 0.83398 0.50317 0.79535 0.0
C765 C 0.80902 0.47601 0.79416 0.0
C766 C 0.79904 0.48337 0.77923 0.0
C767 C 0.80689 0.50068 0.7725 0.0
C768 C 0.82653 0.48655 0.80198 0.0
H769 H 0.83061 0.52377 0.77548 0.0
C770 C 0.86924 0.54739 0.78556 0.0
O771 O 0.91553 0.525 0.76555 0.0
O772 O 0.88749 0.50989 0.75223 0.0
N773 N 0.85471 0.49034 0.822 0.0
C774 C 0.86681 0.48449 0.83547 0.0
C775 C 0.86146 0.46701 0.84313 0.0
C776 C 0.84372 0.45578 0.83692 0.0
C777 C 0.83146 0.46215 0.82314 0.0
C778 C 0.8375 0.47977 0.81613 0.0
H779 H 0.88051 0.493 0.84022 0.0
O780 O 0.89746 0.49004 0.78351 0.0
O781 O 0.8714 0.50211 0.78939 0.0
O782 O 0.9058 0.5254 0.80694 0.0
O783 O 0.88169 0.5237 0.8258 0.0
C784 C 0.81372 0.45149 0.81573 0.0
C785 C 0.8025 0.45842 0.80127 0.0
H786 H 0.78545 0.47574 0.7727 0.0
H787 H 0.79932 0.50639 0.76091 0.0
H788 H 0.87102 0.46216 0.85372 0.0
H789 H 0.83974 0.4422 0.8427 0.0
H790 H 0.80871 0.43779 0.82084 0.0
H791 H 0.78902 0.44995 0.79547 0.0
Mn792 Mn 0.75031 0.37355 0.50325 0.0
Mn793 Mn 0.75578 0.41166 0.47719 0.0
C794 C 0.78035 0.38671 0.49602 0.0
C795 C 0.74827 0.36011 0.53217 0.0
C796 C 0.7411 0.37138 0.45999 0.0
O797 O 0.72526 0.38381 0.50544 0.0
O798 O 0.73084 0.40952 0.48855 0.0
C799 C 0.75849 0.44229 0.50849 0.0
N800 N 0.76613 0.43413 0.49341 0.0
C801 C 0.79377 0.45874 0.49711 0.0
C802 C 0.78614 0.46748 0.5126 0.0
C803 C 0.76844 0.4592 0.51833 0.0
C804 C 0.78315 0.44198 0.48777 0.0
H805 H 0.74493 0.43594 0.513 0.0
C806 C 0.72044 0.39874 0.49878 0.0
O807 O 0.74095 0.35058 0.51624 0.0
O808 O 0.75628 0.37764 0.53136 0.0
N809 N 0.77945 0.41554 0.46559 0.0
C810 C 0.78538 0.40467 0.45117 0.0
C811 C 0.80315 0.41061 0.4442 0.0
C812 C 0.81456 0.4277 0.45201 0.0
C813 C 0.80805 0.43875 0.46668 0.0
C814 C 0.79016 0.43218 0.47296 0.0
H815 H 0.7767 0.3915 0.44515 0.0
O816 O 0.77709 0.36918 0.50031 0.0
O817 O 0.76596 0.39602 0.49608 0.0
O818 O 0.74228 0.3634 0.47551 0.0
O819 O 0.74553 0.38933 0.45909 0.0
C820 C 0.81882 0.45578 0.47562 0.0
C821 C 0.81169 0.46576 0.49083 0.0
H822 H 0.79382 0.48045 0.5203 0.0
H823 H 0.7625 0.46581 0.53034 0.0
H824 H 0.80809 0.40199 0.43289 0.0
H825 H 0.82836 0.43212 0.44674 0.0
H826 H 0.83275 0.46117 0.47113 0.0
H827 H 0.82024 0.47869 0.49779 0.0
Mn828 Mn 0.63127 0.5057 0.28627 0.0
Mn829 Mn 0.66925 0.51404 0.31921 0.0
C830 C 0.64617 0.53663 0.29561 0.0
C831 C 0.61874 0.49987 0.25441 0.0
C832 C 0.62822 0.50275 0.32902 0.0
O833 O 0.64026 0.47977 0.28646 0.0
O834 O 0.66693 0.4877 0.30678 0.0
C835 C 0.7004 0.5126 0.29369 0.0
N836 N 0.69207 0.52226 0.30731 0.0
C837 C 0.7166 0.54973 0.30792 0.0
C838 C 0.72552 0.54 0.29404 0.0
C839 C 0.71736 0.52137 0.28688 0.0
C840 C 0.6998 0.54021 0.31428 0.0
H841 H 0.69409 0.49836 0.288 0.0
C842 C 0.6556 0.47584 0.29491 0.0
O843 O 0.60832 0.4953 0.26825 0.0
O844 O 0.63651 0.50716 0.25909 0.0
N845 N 0.67319 0.53929 0.33178 0.0
C846 C 0.66217 0.54715 0.3442 0.0
C847 C 0.66801 0.56598 0.35221 0.0
C848 C 0.68512 0.57651 0.3474 0.0
C849 C 0.69627 0.56809 0.33466 0.0
C850 C 0.68983 0.5492 0.32728 0.0
H851 H 0.64896 0.53918 0.34789 0.0
O852 O 0.62861 0.53344 0.28803 0.0
O853 O 0.65421 0.52166 0.29762 0.0
O854 O 0.62028 0.50246 0.31212 0.0
O855 O 0.64637 0.50623 0.33299 0.0
C856 C 0.71331 0.57783 0.32869 0.0
C857 C 0.72346 0.56866 0.31532 0.0
H858 H 0.73852 0.54676 0.28863 0.0
H859 H 0.72408 0.51382 0.27606 0.0
H860 H 0.6593 0.57239 0.36199 0.0
H861 H 0.68946 0.5911 0.35343 0.0
H862 H 0.71859 0.59248 0.33408 0.0
H863 H 0.73639 0.5764 0.31062 0.0
Zn864 Zn 0.02815 0.00418 0.03216 0.0
Zn865 Zn 0.99056 0.0182 0.00765 0.0
C866 C 0.01163 0.97418 0.05037 0.0
O867 O 0.02164 0.9862 0.0638 0.0
C868 C 0.00119 0.04384 0.98079 0.0
O869 O 0.9928 0.02859 0.96998 0.0
O870 O 0.05438 0.99751 0.03918 0.0
O871 O 0.03037 0.01279 0.00566 0.0
O872 O 0.00245 0.99814 0.99281 0.0
C873 C 0.05782 0.98502 0.02661 0.0
O874 O 0.04469 0.97867 0.01252 0.0
O875 O 0.01091 0.97891 0.03329 0.0
C876 C 0.9497 0.01152 0.00969 0.0
O877 O 0.95442 0.00414 0.02556 0.0
O878 O 0.96261 0.01663 0.99873 0.0
O879 O 0.99159 0.02097 0.03664 0.0
O880 O 0.02012 0.02227 0.05211 0.0
O881 O 0.00249 0.04324 0.99882 0.0
C882 C 0.02022 0.00333 0.99153 0.0
C883 C 0.00253 0.02395 0.05207 0.0
Zn884 Zn 0.24731 0.76188 0.28299 0.0
Zn885 Zn 0.26679 0.7653 0.24643 0.0
C886 C 0.24209 0.72121 0.27761 0.0
O887 O 0.25292 0.72364 0.29384 0.0
C888 C 0.29585 0.79651 0.25661 0.0
O889 O 0.30541 0.78399 0.24879 0.0
O890 O 0.23914 0.76016 0.30962 0.0
O891 O 0.27604 0.76573 0.28654 0.0
O892 O 0.27948 0.74695 0.26139 0.0
C893 C 0.25038 0.76851 0.32364 0.0
O894 O 0.26518 0.78093 0.32031 0.0
O895 O 0.23798 0.73575 0.26982 0.0
C896 C 0.26411 0.75482 0.20608 0.0
O897 O 0.24944 0.74251 0.20996 0.0
O898 O 0.27465 0.76468 0.21976 0.0
O899 O 0.23817 0.76309 0.24281 0.0
O900 O 0.23403 0.78041 0.26881 0.0
O901 O 0.27798 0.79177 0.25776 0.0
C902 C 0.28497 0.75369 0.27844 0.0
C903 C 0.22918 0.77481 0.25134 0.0
Zn904 Zn 0.49197 0.01136 0.53388 0.0
Zn905 Zn 0.5294 0.00134 0.51927 0.0
C906 C 0.50007 0.05129 0.53263 0.0
O907 O 0.48486 0.04721 0.52033 0.0
C908 C 0.51366 0.96967 0.49481 0.0
O909 O 0.52295 0.9811 0.48364 0.0
O910 O 0.4651 0.0157 0.53883 0.0
O911 O 0.49124 0.00411 0.50568 0.0
O912 O 0.51974 0.01933 0.50122 0.0
C913 C 0.45099 0.0099 0.52651 0.0
O914 O 0.45318 0.99793 0.51206 0.0
O915 O 0.50705 0.03773 0.53979 0.0
C916 C 0.56005 0.98252 0.52481 0.0
O917 O 0.5471 0.97471 0.53544 0.0
O918 O 0.5562 0.99612 0.51517 0.0
O919 O 0.53071 0.00907 0.54726 0.0
O920 O 0.50234 0.99436 0.55253 0.0
O921 O 0.51344 0.97532 0.51232 0.0
C922 C 0.5022 0.01392 0.49538 0.0
C923 C 0.52004 0.99936 0.55784 0.0
Zn924 Zn 0.28143 0.24662 0.76462 0.0
Zn925 Zn 0.24324 0.26033 0.77212 0.0
C926 C 0.27204 0.22242 0.73106 0.0
O927 O 0.27718 0.21085 0.74346 0.0
C928 C 0.25606 0.2847 0.80497 0.0
O929 O 0.24935 0.29607 0.79321 0.0
O930 O 0.30901 0.24278 0.76389 0.0
O931 O 0.28297 0.27485 0.77158 0.0
O932 O 0.25669 0.27833 0.7547 0.0
C933 C 0.31781 0.25454 0.75356 0.0
O934 O 0.30855 0.26708 0.74582 0.0
O935 O 0.27143 0.23963 0.73691 0.0
C936 C 0.20887 0.25604 0.78805 0.0
O937 O 0.21873 0.24442 0.79663 0.0
O938 O 0.21631 0.26532 0.775 0.0
O939 O 0.24038 0.2321 0.76494 0.0
O940 O 0.26705 0.22782 0.78076 0.0
O941 O 0.25589 0.26736 0.79905 0.0
C942 C 0.27394 0.2847 0.76089 0.0
C943 C 0.24978 0.22161 0.77447 0.0
Zn944 Zn 0.02539 0.98685 0.51977 0.0
Zn945 Zn 0.00731 0.02228 0.51131 0.0
C946 C 0.04941 0.99926 0.55366 0.0
O947 O 0.06204 0.99526 0.54192 0.0
C948 C 0.9831 0.00677 0.47902 0.0
O949 O 0.97125 0.01237 0.49089 0.0
O950 O 0.03373 0.96122 0.52081 0.0
O951 O 0.99666 0.98159 0.51466 0.0
O952 O 0.99026 0.00809 0.529 0.0
C953 C 0.02375 0.94561 0.51366 0.0
O954 O 0.0081 0.94601 0.50259 0.0
O955 O 0.03198 0.99789 0.54718 0.0
C956 C 0.00826 0.05484 0.49293 0.0
O957 O 0.01872 0.0444 0.48341 0.0
O958 O 0.00079 0.04852 0.50754 0.0
O959 O 0.0356 0.02779 0.51888 0.0
O960 O 0.04191 0.00249 0.50258 0.0
O961 O 0.00078 0.00844 0.48476 0.0
C962 C 0.98559 0.99033 0.52413 0.0
C963 C 0.04688 0.01977 0.50911 0.0
Zn964 Zn 0.25611 0.7757 0.75283 0.0
Zn965 Zn 0.27015 0.73905 0.76943 0.0
C966 C 0.22716 0.75951 0.72551 0.0
O967 O 0.23961 0.76953 0.71582 0.0
C968 C 0.29979 0.75816 0.79624 0.0
O969 O 0.28751 0.75088 0.8078 0.0
O970 O 0.24977 0.80227 0.74944 0.0
O971 O 0.26163 0.77605 0.7812 0.0
O972 O 0.24992 0.74659 0.78596 0.0
C973 C 0.23607 0.80505 0.75947 0.0
O974 O 0.22836 0.79117 0.76906 0.0
O975 O 0.23128 0.75872 0.74326 0.0
C976 C 0.2907 0.70938 0.76489 0.0
O977 O 0.299 0.72262 0.75489 0.0
O978 O 0.27627 0.71268 0.77358 0.0
O979 O 0.26489 0.73858 0.74098 0.0
O980 O 0.27647 0.76821 0.73648 0.0
O981 O 0.2952 0.75597 0.77834 0.0
C982 C 0.25219 0.76435 0.79105 0.0
C983 C 0.27435 0.75046 0.73129 0.0
Zn984 Zn 0.50646 0.01327 0.0058 0.0
Zn985 Zn 0.50923 0.99678 0.04323 0.0
C986 C 0.53862 0.04292 0.0167 0.0
O987 O 0.5254 0.05386 0.0148 0.0
C988 C 0.47716 0.9676 0.03538 0.0
O989 O 0.48949 0.95807 0.04361 0.0
O990 O 0.50289 0.0203 0.97887 0.0
O991 O 0.50487 0.98483 0.00353 0.0
O992 O 0.52698 0.98432 0.02689 0.0
C993 C 0.49465 0.00808 0.96561 0.0
O994 O 0.48538 0.99184 0.97012 0.0
O995 O 0.53386 0.02492 0.01407 0.0
C996 C 0.52052 0.00093 0.08354 0.0
O997 O 0.53188 0.01606 0.07918 0.0
O998 O 0.5113 0.98948 0.07015 0.0
O999 O 0.51057 0.02527 0.04619 0.0
O1000 O 0.48892 0.0254 0.02234 0.0
O1001 O 0.48229 0.98517 0.03336 0.0
C1002 C 0.5185 0.97729 0.01082 0.0
C1003 C 0.4967 0.03232 0.03869 0.0
Zn1004 Zn 0.26515 0.24318 0.25516 0.0
Zn1005 Zn 0.24828 0.27657 0.27851 0.0
C1006 C 0.29431 0.26266 0.23742 0.0
O1007 O 0.28237 0.25347 0.22344 0.0
C1008 C 0.21953 0.25871 0.29869 0.0
O1009 O 0.23253 0.26705 0.31218 0.0
O1010 O 0.27302 0.2179 0.24666 0.0
O1011 O 0.25768 0.23909 0.28172 0.0
O1012 O 0.26849 0.26752 0.29598 0.0
C1013 C 0.28619 0.21472 0.25873 0.0
O1014 O 0.29223 0.22753 0.27314 0.0
O1015 O 0.2899 0.26148 0.2545 0.0
C1016 C 0.2277 0.30598 0.27929 0.0
O1017 O 0.21917 0.29365 0.26533 0.0
O1018 O 0.24264 0.30228 0.28851 0.0
O1019 O 0.25247 0.2803 0.25084 0.0
O1020 O 0.24576 0.25133 0.23625 0.0
O1021 O 0.22319 0.25958 0.28134 0.0
C1022 C 0.26556 0.24951 0.29644 0.0
C1023 C 0.24697 0.26929 0.23576 0.0
Zn1024 Zn 0.52509 0.48852 0.02328 0.0
Zn1025 Zn 0.50988 0.52596 0.01352 0.0
C1026 C 0.54894 0.49877 0.0574 0.0
O1027 O 0.56121 0.49416 0.04551 0.0
C1028 C 0.48524 0.511 0.98136 0.0
O1029 O 0.47386 0.51799 0.99292 0.0
O1030 O 0.53003 0.46136 0.02363 0.0
O1031 O 0.49665 0.48655 0.01638 0.0
O1032 O 0.49215 0.51331 0.0316 0.0
C1033 C 0.51748 0.45058 0.03146 0.0
O1034 O 0.50283 0.45756 0.0378 0.0
O1035 O 0.53165 0.49858 0.05098 0.0
C1036 C 0.51294 0.55792 0.99408 0.0
O1037 O 0.52326 0.54668 0.9854 0.0
O1038 O 0.50488 0.55253 0.00873 0.0
O1039 O 0.5381 0.52981 0.02134 0.0
O1040 O 0.54366 0.50304 0.00703 0.0
O1041 O 0.50277 0.51164 0.98721 0.0
C1042 C 0.4864 0.49576 0.02642 0.0
C1043 C 0.5492 0.52051 0.01262 0.0
Zn1044 Zn 0.75096 0.27312 0.2481 0.0
Zn1045 Zn 0.7689 0.23594 0.27007 0.0
C1046 C 0.72182 0.24985 0.22325 0.0
O1047 O 0.73365 0.25577 0.2107 0.0
C1048 C 0.7935 0.2472 0.304 0.0
O1049 O 0.77957 0.23642 0.3112 0.0
O1050 O 0.74323 0.29925 0.24512 0.0
O1051 O 0.75929 0.27356 0.27573 0.0
O1052 O 0.74637 0.24496 0.28181 0.0
C1053 C 0.726 0.30084 0.24805 0.0
O1054 O 0.71437 0.28581 0.25213 0.0
O1055 O 0.72696 0.25405 0.24091 0.0
C1056 C 0.76761 0.19595 0.25868 0.0
O1057 O 0.76107 0.20092 0.24218 0.0
O1058 O 0.77004 0.2081 0.27315 0.0
O1059 O 0.77451 0.24019 0.24284 0.0
O1060 O 0.77024 0.267 0.23028 0.0
O1061 O 0.79197 0.24961 0.28632 0.0
C1062 C 0.7482 0.26294 0.28517 0.0
C1063 C 0.77613 0.251 0.22928 0.0
Zn1064 Zn 0.01536 0.52473 0.50426 0.0
Zn1065 Zn 0.00444 0.50448 0.53943 0.0
C1066 C 0.04446 0.55437 0.51835 0.0
O1067 O 0.03166 0.5634 0.51015 0.0
C1068 C 0.97464 0.47749 0.51888 0.0
O1069 O 0.98574 0.46565 0.52505 0.0
O1070 O 0.01878 0.53193 0.47751 0.0
O1071 O 0.01297 0.49623 0.5009 0.0
O1072 O 0.02498 0.49075 0.52921 0.0
C1073 C 0.03308 0.5252 0.47157 0.0
O1074 O 0.04317 0.51624 0.48325 0.0
O1075 O 0.04044 0.53641 0.51887 0.0
C1076 C 0.98194 0.49991 0.56965 0.0
O1077 O 0.97127 0.50749 0.55723 0.0
O1078 O 0.99829 0.49655 0.5654 0.0
O1079 O 0.00851 0.53311 0.54337 0.0
O1080 O 0.99437 0.5368 0.51546 0.0
O1081 O 0.98005 0.49533 0.52248 0.0
C1082 C 0.02232 0.48641 0.5113 0.0
C1083 C 0.99791 0.54199 0.53316 0.0
Zn1084 Zn 0.78223 0.74708 0.26554 0.0
Zn1085 Zn 0.74404 0.76078 0.27283 0.0
C1086 C 0.77237 0.72336 0.23162 0.0
O1087 O 0.77768 0.71145 0.24357 0.0
C1088 C 0.75847 0.78467 0.30612 0.0
O1089 O 0.75422 0.79727 0.29447 0.0
O1090 O 0.80972 0.74291 0.26481 0.0
O1091 O 0.78406 0.77533 0.27247 0.0
O1092 O 0.75773 0.7789 0.25571 0.0
C1093 C 0.81875 0.75466 0.25463 0.0
O1094 O 0.80971 0.76735 0.24689 0.0
O1095 O 0.77202 0.74049 0.23789 0.0
C1096 C 0.70958 0.75604 0.28834 0.0
O1097 O 0.71931 0.74401 0.2964 0.0
O1098 O 0.71715 0.76583 0.27568 0.0
O1099 O 0.74117 0.73265 0.26521 0.0
O1100 O 0.76755 0.72828 0.28149 0.0
O1101 O 0.75617 0.76716 0.29999 0.0
C1102 C 0.77505 0.78516 0.26174 0.0
C1103 C 0.75035 0.72212 0.27492 0.0
Zn1104 Zn 0.74871 0.25699 0.78288 0.0
Zn1105 Zn 0.76345 0.26156 0.74452 0.0
C1106 C 0.71864 0.22635 0.77549 0.0
O1107 O 0.70995 0.23967 0.78317 0.0
C1108 C 0.79126 0.29332 0.75991 0.0
O1109 O 0.80249 0.28289 0.75148 0.0
O1110 O 0.74384 0.2578 0.81065 0.0
O1111 O 0.77732 0.25853 0.78266 0.0
O1112 O 0.77826 0.24204 0.75518 0.0
C1113 C 0.75722 0.26373 0.8237 0.0
O1114 O 0.77362 0.2726 0.81905 0.0
O1115 O 0.7363 0.23045 0.77298 0.0
C1116 C 0.7633 0.28177 0.71297 0.0
O1117 O 0.75571 0.29189 0.7258 0.0
O1118 O 0.76861 0.26623 0.71733 0.0
O1119 O 0.73488 0.25654 0.74337 0.0
O1120 O 0.73446 0.27538 0.76927 0.0
O1121 O 0.77348 0.28699 0.75945 0.0
C1122 C 0.78544 0.24757 0.77208 0.0
C1123 C 0.72725 0.26894 0.75257 0.0
Zn1124 Zn 0.77255 0.74569 0.75496 0.0
Zn1125 Zn 0.75629 0.7785 0.77875 0.0
C1126 C 0.80076 0.76687 0.73605 0.0
O1127 O 0.78834 0.75909 0.72182 0.0
C1128 C 0.72745 0.75899 0.79771 0.0
O1129 O 0.73982 0.76746 0.81169 0.0
O1130 O 0.77952 0.72045 0.74514 0.0
O1131 O 0.76786 0.7412 0.78216 0.0
O1132 O 0.77647 0.76999 0.79662 0.0
C1133 C 0.79501 0.71779 0.75416 0.0
O1134 O 0.80352 0.73097 0.76738 0.0
O1135 O 0.79691 0.76416 0.75306 0.0
C1136 C 0.73444 0.80682 0.77875 0.0
O1137 O 0.72664 0.79409 0.76482 0.0
O1138 O 0.74937 0.80379 0.7885 0.0
O1139 O 0.76123 0.78274 0.75142 0.0
O1140 O 0.75166 0.75381 0.73772 0.0
O1141 O 0.73165 0.76046 0.78059 0.0
C1142 C 0.77467 0.75198 0.79702 0.0
C1143 C 0.75353 0.77177 0.73697 0.0
Zn1144 Zn 0.52864 0.5077 0.5344 0.0
Zn1145 Zn 0.49089 0.51981 0.5099 0.0
C1146 C 0.51303 0.47782 0.55318 0.0
O1147 O 0.52315 0.49012 0.5663 0.0
C1148 C 0.50139 0.54573 0.48339 0.0
O1149 O 0.49315 0.53046 0.47253 0.0
O1150 O 0.55511 0.50146 0.54126 0.0
O1151 O 0.53061 0.51601 0.50777 0.0
O1152 O 0.5032 0.50003 0.49509 0.0
C1153 C 0.55821 0.48865 0.52883 0.0
O1154 O 0.54464 0.48183 0.51529 0.0
O1155 O 0.5118 0.4823 0.53603 0.0
C1156 C 0.44982 0.51321 0.511 0.0
O1157 O 0.45405 0.50588 0.52704 0.0
O1158 O 0.46308 0.51814 0.50037 0.0
O1159 O 0.49127 0.52221 0.53889 0.0
O1160 O 0.52022 0.52583 0.55405 0.0
O1161 O 0.50272 0.54505 0.50141 0.0
C1162 C 0.52086 0.50586 0.4938 0.0
C1163 C 0.50236 0.52622 0.55419 0.0
Zn1164 Zn 0.99333 0.5087 0.03108 0.0
Zn1165 Zn 0.03205 0.49803 0.01979 0.0
C1166 C 0.00566 0.53986 0.05713 0.0
O1167 O 0.99524 0.52776 0.06685 0.0
C1168 C 0.01774 0.46715 0.99332 0.0
O1169 O 0.02834 0.47866 0.98319 0.0
O1170 O 0.96591 0.51348 0.03262 0.0
O1171 O 0.9955 0.50215 0.00303 0.0
O1172 O 0.02479 0.51729 0.00206 0.0
C1173 C 0.96152 0.52463 0.02027 0.0
O1174 O 0.97423 0.53072 0.00861 0.0
O1175 O 0.00827 0.53469 0.04001 0.0
C1176 C 0.06243 0.47875 0.02649 0.0
O1177 O 0.0489 0.47023 0.03605 0.0
O1178 O 0.05906 0.49286 0.0174 0.0
O1179 O 0.03066 0.50415 0.0477 0.0
O1180 O 0.00115 0.49016 0.04964 0.0
O1181 O 0.01617 0.47243 0.01067 0.0
C1182 C 0.00786 0.51217 0.9943 0.0
C1183 C 0.01854 0.49397 0.05653 0.0
C1184 C 0.01845 0.20093 0.92215 0.0
C1185 C 0.01363 0.20102 0.90247 0.0
C1186 C 0.02104 0.18397 0.93003 0.0
C1187 C 0.00569 0.13233 0.9199 0.0
H1188 H 0.04111 0.12893 0.96372 0.0
C1189 C 0.00788 0.06124 0.95202 0.0
C1190 C 0.0076 0.06162 0.97194 0.0
C1191 C 0.0119 0.07812 0.94323 0.0
C1192 C 0.0311 0.1297 0.95153 0.0
H1193 H 0.00899 0.1837 0.87542 0.0
H1194 H 0.01392 0.1542 0.88909 0.0
H1195 H 0.04264 0.15883 0.94849 0.0
H1196 H 0.01229 0.07993 0.99837 0.0
H1197 H 0.01907 0.10957 0.98295 0.0
H1198 H 0.9939 0.10343 0.92305 0.0
C1199 C 0.01521 0.16712 0.89853 0.0
C1200 C 0.03197 0.14681 0.94281 0.0
C1201 C 0.0125 0.18404 0.89067 0.0
C1202 C 0.01235 0.0792 0.98298 0.0
C1203 C 0.01632 0.09615 0.97415 0.0
C1204 C 0.00486 0.11529 0.92856 0.0
C1205 C 0.01897 0.16677 0.91837 0.0
C1206 C 0.01916 0.14835 0.92696 0.0
C1207 C 0.01566 0.09581 0.95414 0.0
C1208 C 0.01745 0.11378 0.94453 0.0
H1209 H 0.01942 0.21379 0.93162 0.0
H1210 H 0.02377 0.1842 0.94538 0.0
H1211 H 0.9953 0.1331 0.90803 0.0
H1212 H 0.00457 0.0479 0.94311 0.0
H1213 H 0.01168 0.07735 0.92781 0.0
C1214 C 0.07462 0.79673 0.17899 0.0
C1215 C 0.07108 0.79008 0.15958 0.0
C1216 C 0.09325 0.79986 0.18786 0.0
C1217 C 0.13776 0.78098 0.18272 0.0
H1218 H 0.15836 0.81839 0.22485 0.0
C1219 C 0.21126 0.77909 0.22068 0.0
C1220 C 0.21288 0.78118 0.24074 0.0
C1221 C 0.19534 0.78361 0.21028 0.0
C1222 C 0.15273 0.8078 0.21317 0.0
H1223 H 0.08443 0.78322 0.13384 0.0
H1224 H 0.11698 0.78899 0.14924 0.0
H1225 H 0.12816 0.82122 0.20685 0.0
H1226 H 0.19947 0.79045 0.26563 0.0
H1227 H 0.17119 0.79791 0.24737 0.0
H1228 H 0.16179 0.76719 0.18924 0.0
C1229 C 0.1053 0.79133 0.15772 0.0
C1230 C 0.13549 0.80945 0.20283 0.0
C1231 C 0.08667 0.78815 0.14886 0.0
C1232 C 0.19856 0.78864 0.25018 0.0
C1233 C 0.18243 0.79301 0.23971 0.0
C1234 C 0.15487 0.77931 0.19303 0.0
C1235 C 0.10871 0.79645 0.17748 0.0
C1236 C 0.12778 0.79598 0.18755 0.0
C1237 C 0.18047 0.79013 0.21964 0.0
C1238 C 0.16256 0.79262 0.20843 0.0
H1239 H 0.06291 0.79843 0.18763 0.0
H1240 H 0.09535 0.80373 0.2031 0.0
H1241 H 0.13201 0.77007 0.17138 0.0
H1242 H 0.22223 0.77372 0.21295 0.0
H1243 H 0.19454 0.78169 0.19484 0.0
C1244 C 0.49724 0.80669 0.42331 0.0
C1245 C 0.4949 0.80722 0.40337 0.0
C1246 C 0.49613 0.82283 0.43549 0.0
C1247 C 0.47806 0.869 0.4362 0.0
H1248 H 0.51622 0.88429 0.47907 0.0
C1249 C 0.50066 0.94614 0.46747 0.0
C1250 C 0.50535 0.95011 0.48719 0.0
C1251 C 0.49549 0.92738 0.45955 0.0
C1252 C 0.5052 0.88001 0.46741 0.0
H1253 H 0.48977 0.82532 0.38066 0.0
H1254 H 0.4882 0.85339 0.40181 0.0
H1255 H 0.51548 0.85381 0.46057 0.0
H1256 H 0.50751 0.93772 0.51428 0.0
H1257 H 0.49865 0.90466 0.50031 0.0
H1258 H 0.46831 0.89556 0.44258 0.0
C1259 C 0.49051 0.8404 0.40807 0.0
C1260 C 0.5048 0.86256 0.45678 0.0
C1261 C 0.49162 0.82432 0.39592 0.0
C1262 C 0.50389 0.93502 0.49902 0.0
C1263 C 0.49896 0.91615 0.49103 0.0
C1264 C 0.47851 0.88644 0.44677 0.0
C1265 C 0.49262 0.83983 0.42799 0.0
C1266 C 0.49158 0.85713 0.44072 0.0
C1267 C 0.49509 0.91216 0.47116 0.0
C1268 C 0.49242 0.89236 0.46215 0.0
H1269 H 0.49971 0.79374 0.42957 0.0
H1270 H 0.49773 0.82191 0.45077 0.0
H1271 H 0.46739 0.86501 0.42419 0.0
H1272 H 0.50158 0.95752 0.45804 0.0
H1273 H 0.49278 0.92477 0.44418 0.0
C1274 C 0.44478 0.24698 0.65319 0.0
C1275 C 0.464 0.25361 0.65987 0.0
C1276 C 0.43056 0.24517 0.66593 0.0
C1277 C 0.42058 0.26374 0.7136 0.0
H1278 H 0.37743 0.22256 0.70638 0.0
C1279 C 0.34475 0.2362 0.74819 0.0
C1280 C 0.33743 0.25344 0.74855 0.0
C1281 C 0.36214 0.23483 0.7404 0.0
C1282 C 0.38955 0.23397 0.7088 0.0
H1283 H 0.48332 0.2631 0.68533 0.0
H1284 H 0.4586 0.2598 0.7074 0.0
H1285 H 0.40387 0.22223 0.68615 0.0
H1286 H 0.34296 0.28301 0.74222 0.0
H1287 H 0.37313 0.28068 0.72886 0.0
H1288 H 0.40619 0.2756 0.73607 0.0
C1289 C 0.45448 0.25627 0.6923 0.0
C1290 C 0.40456 0.23392 0.69704 0.0
C1291 C 0.46866 0.25812 0.6796 0.0
C1292 C 0.34823 0.2695 0.74205 0.0
C1293 C 0.3656 0.2682 0.7345 0.0
C1294 C 0.40559 0.26379 0.72532 0.0
C1295 C 0.43525 0.24991 0.68563 0.0
C1296 C 0.42005 0.24901 0.69906 0.0
C1297 C 0.37254 0.25076 0.73315 0.0
C1298 C 0.38971 0.24914 0.72277 0.0
H1299 H 0.44067 0.24332 0.63811 0.0
H1300 H 0.41583 0.24046 0.6603 0.0
H1301 H 0.43222 0.27565 0.71548 0.0
H1302 H 0.33664 0.22358 0.75304 0.0
H1303 H 0.36723 0.22124 0.73964 0.0
C1304 C 0.03248 0.82331 0.62348 0.0
C1305 C 0.01953 0.80635 0.61856 0.0
C1306 C 0.03483 0.83743 0.61076 0.0
C1307 C 0.02509 0.84606 0.55973 0.0
H1308 H 0.03232 0.89884 0.58051 0.0
C1309 C 0.01452 0.91056 0.51641 0.0
C1310 C 0.02739 0.92759 0.52135 0.0
C1311 C 0.0158 0.89456 0.52652 0.0
C1312 C 0.03058 0.88417 0.5745 0.0
H1313 H 0.99875 0.79103 0.59642 0.0
H1314 H 0.00236 0.81593 0.57452 0.0
H1315 H 0.02943 0.87364 0.602 0.0
H1316 H 0.05266 0.94065 0.53972 0.0
H1317 H 0.0548 0.91278 0.55729 0.0
H1318 H 0.02553 0.85684 0.53211 0.0
C1319 C 0.01111 0.81812 0.588 0.0
C1320 C 0.02895 0.86969 0.58683 0.0
C1321 C 0.00893 0.80388 0.60064 0.0
C1322 C 0.04239 0.92783 0.53565 0.0
C1323 C 0.04358 0.91191 0.5458 0.0
C1324 C 0.0265 0.8606 0.54736 0.0
C1325 C 0.02411 0.83508 0.59289 0.0
C1326 C 0.02617 0.85044 0.57963 0.0
C1327 C 0.02991 0.89536 0.54178 0.0
C1328 C 0.02928 0.87979 0.55465 0.0
H1329 H 0.04101 0.82562 0.63709 0.0
H1330 H 0.04522 0.85013 0.61491 0.0
H1331 H 0.02325 0.83141 0.55368 0.0
H1332 H 0.00285 0.90988 0.50543 0.0
H1333 H 0.00507 0.88197 0.52313 0.0
C1334 C 0.45663 0.78113 0.88564 0.0
C1335 C 0.46901 0.77037 0.87687 0.0
C1336 C 0.43818 0.78109 0.87705 0.0
C1337 C 0.40485 0.7878 0.85028 0.0
H1338 H 0.3768 0.74221 0.82162 0.0
C1339 C 0.32375 0.77237 0.82312 0.0
C1340 C 0.31969 0.7654 0.80385 0.0
C1341 C 0.34261 0.77585 0.83138 0.0
C1342 C 0.3846 0.75508 0.82943 0.0
H1343 H 0.47156 0.74963 0.85361 0.0
H1344 H 0.43987 0.74999 0.83817 0.0
H1345 H 0.40748 0.74089 0.83888 0.0
H1346 H 0.33212 0.75749 0.77784 0.0
H1347 H 0.36509 0.76306 0.79251 0.0
H1348 H 0.38112 0.80155 0.84145 0.0
C1349 C 0.44408 0.75855 0.85157 0.0
C1350 C 0.40222 0.75438 0.83929 0.0
C1351 C 0.46238 0.75855 0.86022 0.0
C1352 C 0.33486 0.76298 0.79269 0.0
C1353 C 0.35368 0.76606 0.80107 0.0
C1354 C 0.38696 0.78835 0.84073 0.0
C1355 C 0.43181 0.77007 0.85967 0.0
C1356 C 0.41268 0.77075 0.84977 0.0
C1357 C 0.3576 0.77204 0.82058 0.0
C1358 C 0.37681 0.77201 0.83013 0.0
H1359 H 0.46138 0.78994 0.89883 0.0
H1360 H 0.42898 0.78972 0.884 0.0
H1361 H 0.41261 0.80078 0.85787 0.0
H1362 H 0.31228 0.77438 0.832 0.0
H1363 H 0.34535 0.78038 0.84648 0.0
C1364 C 0.46805 0.17945 0.12688 0.0
C1365 C 0.47872 0.19431 0.11845 0.0
C1366 C 0.46568 0.16075 0.11834 0.0
C1367 C 0.47495 0.12185 0.10407 0.0
H1368 H 0.47204 0.11309 0.0489 0.0
C1369 C 0.50004 0.0573 0.06607 0.0
C1370 C 0.49057 0.04916 0.04847 0.0
C1371 C 0.49485 0.07359 0.0751 0.0
C1372 C 0.47251 0.11515 0.06431 0.0
H1373 H 0.49645 0.20142 0.09554 0.0
H1374 H 0.49256 0.16899 0.08075 0.0
H1375 H 0.4691 0.14436 0.06351 0.0
H1376 H 0.46777 0.0514 0.02687 0.0
H1377 H 0.45857 0.07982 0.04277 0.0
H1378 H 0.47855 0.09262 0.10484 0.0
C1379 C 0.48529 0.17166 0.09341 0.0
C1380 C 0.47102 0.13316 0.0727 0.0
C1381 C 0.48757 0.19022 0.10188 0.0
C1382 C 0.47545 0.05741 0.04034 0.0
C1383 C 0.47021 0.07372 0.04943 0.0
C1384 C 0.47639 0.10379 0.09567 0.0
C1385 C 0.47427 0.15669 0.10146 0.0
C1386 C 0.47282 0.13688 0.09267 0.0
C1387 C 0.48 0.08211 0.06681 0.0
C1388 C 0.47574 0.10039 0.0757 0.0
H1389 H 0.46142 0.18233 0.1399 0.0
H1390 H 0.45713 0.1495 0.1249 0.0
H1391 H 0.47646 0.12425 0.11949 0.0
H1392 H 0.51174 0.05129 0.07275 0.0
H1393 H 0.50291 0.07984 0.0883 0.0
C1394 C 0.07437 0.25972 0.37718 0.0
C1395 C 0.05944 0.26578 0.36617 0.0
C1396 C 0.0907 0.25555 0.36876 0.0
C1397 C 0.11707 0.26549 0.32624 0.0
H1398 H 0.14444 0.22528 0.34185 0.0
C1399 C 0.18404 0.25152 0.2907 0.0
C1400 C 0.20003 0.25189 0.30382 0.0
C1401 C 0.16561 0.24923 0.29687 0.0
C1402 C 0.13689 0.23652 0.33733 0.0
H1403 H 0.04966 0.2714 0.33749 0.0
H1404 H 0.07763 0.26372 0.32292 0.0
H1405 H 0.1148 0.22972 0.35598 0.0
H1406 H 0.20922 0.24846 0.33322 0.0
H1407 H 0.17713 0.24437 0.34392 0.0
H1408 H 0.13916 0.27243 0.30777 0.0
C1409 C 0.07712 0.26274 0.33813 0.0
C1410 C 0.12 0.23916 0.34551 0.0
C1411 C 0.06099 0.26709 0.34653 0.0
C1412 C 0.19715 0.24836 0.32282 0.0
C1413 C 0.17875 0.24592 0.32893 0.0
C1414 C 0.13381 0.26276 0.318 0.0
C1415 C 0.09232 0.25719 0.34914 0.0
C1416 C 0.10997 0.2538 0.34017 0.0
C1417 C 0.16286 0.24709 0.3162 0.0
C1418 C 0.14401 0.24838 0.32356 0.0
H1419 H 0.07361 0.25852 0.39233 0.0
H1420 H 0.10222 0.25149 0.37771 0.0
H1421 H 0.11 0.27717 0.32205 0.0
H1422 H 0.18582 0.25421 0.27597 0.0
H1423 H 0.15357 0.24994 0.28669 0.0
C1424 C 0.90367 0.01822 0.18721 0.0
C1425 C 0.91365 0.01884 0.20527 0.0
C1426 C 0.91359 0.02112 0.17098 0.0
C1427 C 0.96204 0.0384 0.15517 0.0
H1428 H 0.94118 0.0075 0.1086 0.0
C1429 C 0.00408 0.02727 0.08809 0.0
C1430 C 0.99387 0.0277 0.07026 0.0
C1431 C 0.99484 0.02826 0.10496 0.0
C1432 C 0.94711 0.01636 0.12145 0.0
H1433 H 0.94189 0.02328 0.22051 0.0
H1434 H 0.95919 0.02774 0.19226 0.0
H1435 H 0.92389 0.00517 0.13701 0.0
H1436 H 0.96619 0.03067 0.05642 0.0
H1437 H 0.95024 0.03216 0.08565 0.0
H1438 H 0.98562 0.04906 0.1395 0.0
C1439 C 0.94369 0.02548 0.19056 0.0
C1440 C 0.93714 0.01512 0.13777 0.0
C1441 C 0.93376 0.02281 0.2068 0.0
C1442 C 0.97449 0.03001 0.06981 0.0
C1443 C 0.96528 0.03082 0.08658 0.0
C1444 C 0.97215 0.03946 0.13885 0.0
C1445 C 0.93377 0.02446 0.17237 0.0
C1446 C 0.94439 0.02615 0.15488 0.0
C1447 C 0.9752 0.02954 0.10431 0.0
C1448 C 0.96473 0.02851 0.12179 0.0
H1449 H 0.88817 0.01533 0.18557 0.0
H1450 H 0.90539 0.02065 0.15732 0.0
H1451 H 0.96799 0.04733 0.16796 0.0
H1452 H 0.01899 0.02547 0.08897 0.0
H1453 H 0.00284 0.0272 0.11844 0.0
C1454 C 0.26046 0.65738 0.44476 0.0
C1455 C 0.26287 0.66435 0.46408 0.0
C1456 C 0.25876 0.66978 0.43047 0.0
C1457 C 0.24437 0.69637 0.40335 0.0
H1458 H 0.27152 0.74824 0.41012 0.0
C1459 C 0.23321 0.74877 0.3469 0.0
C1460 C 0.24965 0.76068 0.34245 0.0
C1461 C 0.23369 0.7387 0.36317 0.0
C1462 C 0.26393 0.73377 0.40788 0.0
H1463 H 0.26519 0.6898 0.48357 0.0
H1464 H 0.26152 0.71122 0.45884 0.0
H1465 H 0.27596 0.72674 0.43461 0.0
H1466 H 0.27928 0.77194 0.35195 0.0
H1467 H 0.28035 0.754 0.37979 0.0
H1468 H 0.23327 0.70302 0.37611 0.0
C1469 C 0.26158 0.69631 0.45456 0.0
C1470 C 0.26627 0.72146 0.42211 0.0
C1471 C 0.26361 0.68399 0.4688 0.0
C1472 C 0.26629 0.76302 0.35506 0.0
C1473 C 0.26688 0.75271 0.37112 0.0
C1474 C 0.24228 0.70858 0.38899 0.0
C1475 C 0.25906 0.6894 0.43518 0.0
C1476 C 0.25656 0.70256 0.42002 0.0
C1477 C 0.25073 0.74005 0.37516 0.0
C1478 C 0.25208 0.72744 0.39101 0.0
H1479 H 0.25992 0.64234 0.44066 0.0
H1480 H 0.25727 0.66394 0.41572 0.0
H1481 H 0.23636 0.68206 0.40133 0.0
H1482 H 0.22013 0.74677 0.33749 0.0
H1483 H 0.22081 0.72949 0.36606 0.0
C1484 C 0.58278 0.97107 0.7174 0.0
C1485 C 0.6024 0.97824 0.72122 0.0
C1486 C 0.57412 0.96931 0.69875 0.0
C1487 C 0.58098 0.99286 0.65507 0.0
H1488 H 0.53853 0.95491 0.63261 0.0
C1489 C 0.54881 0.9968 0.57932 0.0
C1490 C 0.52876 0.99388 0.57591 0.0
C1491 C 0.55753 0.99233 0.59636 0.0
C1492 C 0.55027 0.96567 0.6388 0.0
H1493 H 0.62869 0.98741 0.70834 0.0
H1494 H 0.61365 0.98401 0.67577 0.0
H1495 H 0.55509 0.9503 0.66331 0.0
H1496 H 0.50212 0.9834 0.58756 0.0
H1497 H 0.5175 0.97595 0.61784 0.0
H1498 H 0.57606 0.00846 0.631 0.0
C1499 C 0.60486 0.98022 0.68724 0.0
C1500 C 0.55979 0.963 0.65631 0.0
C1501 C 0.6135 0.98205 0.70588 0.0
C1502 C 0.51759 0.98589 0.58983 0.0
C1503 C 0.5264 0.98152 0.60708 0.0
C1504 C 0.57149 0.99553 0.63771 0.0
C1505 C 0.58494 0.97465 0.68359 0.0
C1506 C 0.5753 0.97656 0.66457 0.0
C1507 C 0.54647 0.98501 0.61061 0.0
C1508 C 0.5561 0.98196 0.6293 0.0
H1509 H 0.57385 0.96793 0.72893 0.0
H1510 H 0.55876 0.965 0.69642 0.0
H1511 H 0.59248 0.00387 0.66129 0.0
H1512 H 0.55791 0.00263 0.56882 0.0
H1513 H 0.57303 0.99476 0.59843 0.0
C1514 C 0.27547 0.37551 0.95778 0.0
C1515 C 0.27166 0.36651 0.97448 0.0
C1516 C 0.27592 0.3648 0.94048 0.0
C1517 C 0.25937 0.31736 0.915 0.0
H1518 H 0.29665 0.33573 0.88042 0.0
C1519 C 0.2621 0.27952 0.83963 0.0
C1520 C 0.26215 0.29193 0.82502 0.0
C1521 C 0.26565 0.28684 0.8588 0.0
C1522 C 0.28616 0.33041 0.88993 0.0
H1523 H 0.26528 0.33902 0.98594 0.0
H1524 H 0.2662 0.3203 0.95566 0.0
H1525 H 0.2979 0.35182 0.91232 0.0
H1526 H 0.26681 0.32159 0.81893 0.0
H1527 H 0.2732 0.33426 0.85215 0.0
H1528 H 0.24748 0.29611 0.89238 0.0
C1529 C 0.26867 0.3357 0.956 0.0
C1530 C 0.28682 0.33967 0.90818 0.0
C1531 C 0.2682 0.34645 0.97337 0.0
C1532 C 0.26661 0.31167 0.82987 0.0
C1533 C 0.27039 0.31894 0.84892 0.0
C1534 C 0.25877 0.30803 0.89672 0.0
C1535 C 0.27265 0.34477 0.93937 0.0
C1536 C 0.27313 0.33358 0.92077 0.0
C1537 C 0.26962 0.30665 0.86362 0.0
C1538 C 0.27187 0.31476 0.88384 0.0
H1539 H 0.27814 0.39091 0.95799 0.0
H1540 H 0.27863 0.37228 0.92789 0.0
H1541 H 0.24854 0.31236 0.92428 0.0
H1542 H 0.25861 0.26424 0.83631 0.0
H1543 H 0.26507 0.27703 0.86985 0.0
C1544 C 0.89141 0.99492 0.32693 0.0
C1545 C 0.90034 8e-05 0.31052 0.0
C1546 C 0.90225 0.99365 0.34401 0.0
C1547 C 0.94962 0.00982 0.37017 0.0
H1548 H 0.93263 0.96915 0.40159 0.0
C1549 C 0.98845 0.00323 0.44419 0.0
C1550 C 0.97607 0.00116 0.45881 0.0
C1551 C 0.98106 0.00069 0.425 0.0
C1552 C 0.93756 0.9806 0.39299 0.0
H1553 H 0.92787 0.00814 0.29941 0.0
H1554 H 0.94681 0.00587 0.32932 0.0
H1555 H 0.91618 0.96997 0.37012 0.0
H1556 H 0.94646 0.99384 0.46484 0.0
H1557 H 0.93368 0.98924 0.43157 0.0
H1558 H 0.97078 0.02063 0.39328 0.0
C1559 C 0.93135 0.00291 0.32891 0.0
C1560 C 0.92809 0.98111 0.37497 0.0
C1561 C 0.92047 0.00416 0.31175 0.0
C1562 C 0.95636 0.99557 0.45389 0.0
C1563 C 0.94903 0.99283 0.43479 0.0
C1564 C 0.95913 0.00928 0.38821 0.0
C1565 C 0.92235 0.99748 0.34521 0.0
C1566 C 0.9337 0.99598 0.36353 0.0
C1567 C 0.96122 0.99577 0.42012 0.0
C1568 C 0.95291 0.9949 0.4 0.0
H1569 H 0.87596 0.99171 0.32662 0.0
H1570 H 0.89482 0.98981 0.35637 0.0
H1571 H 0.95424 0.02154 0.36178 0.0
H1572 H 0.0037 0.00765 0.44757 0.0
H1573 H 0.99083 0.0029 0.41399 0.0
C1574 C 0.30475 0.6886 0.57224 0.0
C1575 C 0.29595 0.6694 0.57036 0.0
C1576 C 0.30836 0.69875 0.5902 0.0
C1577 C 0.31016 0.69407 0.6423 0.0
H1578 H 0.28839 0.74085 0.6441 0.0
C1579 C 0.28023 0.72346 0.70917 0.0
C1580 C 0.28179 0.74325 0.71356 0.0
C1581 C 0.28659 0.71618 0.69238 0.0
C1582 C 0.29494 0.72808 0.64387 0.0
H1583 H 0.28533 0.64542 0.58591 0.0
H1584 H 0.29167 0.66311 0.61727 0.0
H1585 H 0.29205 0.7245 0.61336 0.0
H1586 H 0.29171 0.77093 0.70389 0.0
H1587 H 0.3029 0.75811 0.67428 0.0
H1588 H 0.31254 0.69735 0.67283 0.0
C1589 C 0.2958 0.67033 0.60487 0.0
C1590 C 0.29703 0.71868 0.62623 0.0
C1591 C 0.29209 0.6602 0.5869 0.0
C1592 C 0.29024 0.75563 0.70087 0.0
C1593 C 0.2966 0.74828 0.68392 0.0
C1594 C 0.30817 0.70352 0.65994 0.0
C1595 C 0.30337 0.68988 0.60665 0.0
C1596 C 0.30412 0.70127 0.62526 0.0
C1597 C 0.29473 0.72845 0.67946 0.0
C1598 C 0.29994 0.72029 0.66092 0.0
H1599 H 0.308 0.69609 0.55977 0.0
H1600 H 0.31446 0.71372 0.59116 0.0
H1601 H 0.31595 0.68084 0.64199 0.0
H1602 H 0.27385 0.71346 0.71861 0.0
H1603 H 0.28457 0.70085 0.68927 0.0
C1604 C 0.6063 0.00945 0.84725 0.0
C1605 C 0.60039 0.00669 0.82765 0.0
C1606 C 0.59287 0.01035 0.86067 0.0
C1607 C 0.54079 0.99878 0.86635 0.0
H1608 H 0.55474 0.03326 0.91207 0.0
C1609 C 0.50913 0.02753 0.94076 0.0
C1610 C 0.50021 0.00992 0.94599 0.0
C1611 C 0.51847 0.02848 0.92403 0.0
C1612 C 0.5504 0.02381 0.89923 0.0
H1613 H 0.57568 0.00282 0.80678 0.0
H1614 H 0.55243 0.0049 0.83006 0.0
H1615 H 0.57716 0.03222 0.88787 0.0
H1616 H 0.49284 0.9797 0.9371 0.0
H1617 H 0.50951 0.98123 0.90834 0.0
H1618 H 0.51381 0.99074 0.87751 0.0
C1619 C 0.56736 0.00588 0.83516 0.0
C1620 C 0.56347 0.02294 0.88549 0.0
C1621 C 0.58074 0.00476 0.82178 0.0
C1622 C 0.49953 0.99352 0.93345 0.0
C1623 C 0.5091 0.99442 0.91688 0.0
C1624 C 0.52762 -0.0002 0.88 0.0
C1625 C 0.57323 0.00876 0.85478 0.0
C1626 C 0.55897 0.0102 0.86901 0.0
C1627 C 0.51933 0.01179 0.91235 0.0
C1628 C 0.53236 0.01213 0.89677 0.0
H1629 H 0.62131 0.01091 0.85226 0.0
H1630 H 0.59789 0.0122 0.87567 0.0
H1631 H 0.53686 0.98868 0.85391 0.0
H1632 H 0.5097 0.04045 0.95006 0.0
H1633 H 0.52571 0.0422 0.9207 0.0
C1634 C 0.24791 0.33448 0.07878 0.0
C1635 C 0.25305 0.35443 0.08006 0.0
C1636 C 0.24538 0.32489 0.09525 0.0
C1637 C 0.25926 0.3313 0.14734 0.0
H1638 H 0.22139 0.2861 0.14874 0.0
C1639 C 0.24552 0.29782 0.21743 0.0
C1640 C 0.24454 0.27793 0.21737 0.0
C1641 C 0.2451 0.30655 0.20037 0.0
C1642 C 0.23213 0.29861 0.14849 0.0
H1643 H 0.25874 0.38001 0.09957 0.0
H1644 H 0.25387 0.36338 0.12822 0.0
H1645 H 0.22289 0.30285 0.1197 0.0
H1646 H 0.24157 0.25157 0.19915 0.0
H1647 H 0.24077 0.26694 0.16917 0.0
H1648 H 0.26843 0.32717 0.1761 0.0
C1649 C 0.25227 0.35505 0.11455 0.0
C1650 C 0.23302 0.30822 0.13186 0.0
C1651 C 0.25492 0.36462 0.0981 0.0
C1652 C 0.24236 0.26691 0.19972 0.0
C1653 C 0.24187 0.2757 0.18255 0.0
C1654 C 0.2583 0.32179 0.16394 0.0
C1655 C 0.24783 0.33501 0.1134 0.0
C1656 C 0.24657 0.32475 0.13109 0.0
C1657 C 0.24363 0.29567 0.18273 0.0
C1658 C 0.24468 0.30539 0.16477 0.0
H1659 H 0.24641 0.32619 0.06509 0.0
H1660 H 0.24215 0.30947 0.09377 0.0
H1661 H 0.27021 0.34366 0.14718 0.0
H1662 H 0.24698 0.30678 0.23072 0.0
H1663 H 0.2461 0.32191 0.20101 0.0
C1664 C 0.19444 0.91093 0.99602 0.0
C1665 C 0.20385 0.90141 0.00967 0.0
C1666 C 0.17803 0.91842 0.0001 0.0
C1667 C 0.1549 0.93987 0.03722 0.0
H1668 H 0.10908 0.92667 0.00232 0.0
C1669 C 0.08573 0.97431 0.0445 0.0
C1670 C 0.07596 0.97735 0.02721 0.0
C1671 C 0.10138 0.96441 0.04441 0.0
C1672 C 0.12181 0.93069 0.01212 0.0
H1673 H 0.20358 0.89227 0.03832 0.0
H1674 H 0.17489 0.90598 0.04565 0.0
H1675 H 0.136 0.90971 0.99835 0.0
H1676 H 0.07556 0.97383 0.9964 0.0
H1677 H 0.1031 0.95748 0.99618 0.0
H1678 H 0.14109 0.96157 0.0504 0.0
C1679 C 0.18021 0.90733 0.03174 0.0
C1680 C 0.13712 0.92082 0.00992 0.0
C1681 C 0.19646 0.89941 0.02749 0.0
C1682 C 0.08267 0.97138 0.00994 0.0
C1683 C 0.09835 0.96183 0.00983 0.0
C1684 C 0.13962 0.95 0.03928 0.0
C1685 C 0.1709 0.91688 0.01803 0.0
C1686 C 0.15392 0.92558 0.02219 0.0
C1687 C 0.10753 0.95764 0.02701 0.0
C1688 C 0.12309 0.94583 0.0264 0.0
H1689 H 0.19983 0.91267 0.98218 0.0
H1690 H 0.17111 0.92582 0.98935 0.0
H1691 H 0.16782 0.94381 0.04679 0.0
H1692 H 0.08072 0.97875 0.05801 0.0
H1693 H 0.10816 0.96145 0.0579 0.0
C1694 C 0.71446 0.59743 0.00506 0.0
C1695 C 0.71648 0.61325 0.99425 0.0
C1696 C 0.69651 0.58663 0.00603 0.0
C1697 C 0.65554 0.57635 0.01614 0.0
H1698 H 0.62101 0.55796 0.97105 0.0
C1699 C 0.57606 0.54763 0.02007 0.0
C1700 C 0.56865 0.53009 0.00974 0.0
C1701 C 0.59427 0.55702 0.01747 0.0
C1702 C 0.63059 0.56293 0.98372 0.0
H1703 H 0.70151 0.63083 0.97664 0.0
H1704 H 0.6698 0.61156 0.97801 0.0
H1705 H 0.6527 0.57624 0.96764 0.0
H1706 H 0.57446 0.50875 0.98835 0.0
H1707 H 0.60645 0.52545 0.98359 0.0
H1708 H 0.63351 0.56336 0.03227 0.0
C1709 C 0.68221 0.60742 0.98549 0.0
C1710 C 0.64858 0.57349 0.98178 0.0
C1711 C 0.70023 0.61844 0.98476 0.0
C1712 C 0.57984 0.5222 0.99658 0.0
C1713 C 0.59804 0.53178 0.99377 0.0
C1714 C 0.63754 0.56606 0.01808 0.0
C1715 C 0.68022 0.59147 0.99623 0.0
C1716 C 0.66117 0.5803 0.998 0.0
C1717 C 0.60545 0.54922 0.0043 0.0
C1718 C 0.62485 0.55932 0.00192 0.0
H1719 H 0.7268 0.59347 0.01286 0.0
H1720 H 0.69537 0.5744 0.01438 0.0
H1721 H 0.66496 0.58151 0.02887 0.0
H1722 H 0.56783 0.55412 0.03032 0.0
H1723 H 0.59957 0.57052 0.02564 0.0
C1724 C 0.64934 0.44245 0.27859 0.0
C1725 C 0.66168 0.4572 0.28973 0.0
C1726 C 0.65581 0.42548 0.27276 0.0
C1727 C 0.69967 0.40647 0.26308 0.0
H1728 H 0.67091 0.35728 0.27082 0.0
C1729 C 0.73171 0.33648 0.25454 0.0
C1730 C 0.7192 0.31945 0.24874 0.0
C1731 C 0.72452 0.35358 0.25785 0.0
C1732 C 0.679 0.37085 0.26816 0.0
H1733 H 0.69052 0.46545 0.30356 0.0
H1734 H 0.70169 0.4361 0.29319 0.0
H1735 H 0.65818 0.38623 0.27979 0.0
H1736 H 0.68958 0.3071 0.24067 0.0
H1737 H 0.67716 0.3369 0.2455 0.0
H1738 H 0.72036 0.39123 0.25119 0.0
C1739 C 0.68705 0.43768 0.28897 0.0
C1740 C 0.67169 0.38744 0.27341 0.0
C1741 C 0.68054 0.45445 0.29503 0.0
C1742 C 0.69955 0.32 0.24534 0.0
C1743 C 0.69241 0.33708 0.24831 0.0
C1744 C 0.70687 0.38986 0.25757 0.0
C1745 C 0.67483 0.42307 0.27767 0.0
C1746 C 0.68204 0.40542 0.27112 0.0
C1747 C 0.7047 0.35403 0.25513 0.0
C1748 C 0.69672 0.3718 0.26019 0.0
H1749 H 0.63475 0.44407 0.27423 0.0
H1750 H 0.64609 0.41442 0.26403 0.0
H1751 H 0.70785 0.42016 0.26096 0.0
H1752 H 0.74691 0.33641 0.25743 0.0
H1753 H 0.73445 0.36625 0.26327 0.0
C1754 C 0.81338 0.38853 0.48569 0.0
C1755 C 0.80012 0.39644 0.49623 0.0
C1756 C 0.83226 0.39791 0.4863 0.0
C1757 C 0.86718 0.43535 0.51543 0.0
H1758 H 0.89521 0.43422 0.47032 0.0
C1759 C 0.94041 0.48128 0.51274 0.0
C1760 C 0.95491 0.47005 0.51085 0.0
C1761 C 0.92124 0.47321 0.50833 0.0
C1762 C 0.88744 0.43466 0.48295 0.0
H1763 H 0.79625 0.41915 0.51696 0.0
H1764 H 0.82874 0.43605 0.51742 0.0
H1765 H 0.86198 0.41811 0.46854 0.0
H1766 H 0.96095 0.44206 0.5015 0.0
H1767 H 0.92732 0.42809 0.49328 0.0
H1768 H 0.89249 0.45237 0.52961 0.0
C1769 C 0.82487 0.42269 0.50865 0.0
C1770 C 0.86852 0.42531 0.48204 0.0
C1771 C 0.80614 0.41322 0.50816 0.0
C1772 C 0.95002 0.451 0.50317 0.0
C1773 C 0.93085 0.44304 0.4984 0.0
C1774 C 0.88587 0.44502 0.5162 0.0
C1775 C 0.83819 0.41524 0.49766 0.0
C1776 C 0.8582 0.42541 0.49834 0.0
C1777 C 0.91633 0.45392 0.50157 0.0
C1778 C 0.89617 0.44464 0.50002 0.0
H1779 H 0.80908 0.37526 0.47682 0.0
H1780 H 0.84222 0.39146 0.47804 0.0
H1781 H 0.85995 0.43541 0.52841 0.0
H1782 H 0.94376 0.49599 0.51868 0.0
H1783 H 0.9102 0.48183 0.51086 0.0
C1784 C 0.36048 0.07936 0.28617 0.0
C1785 C 0.36919 0.06895 0.27261 0.0
C1786 C 0.35371 0.09598 0.28167 0.0
C1787 C 0.33125 0.11815 0.24516 0.0
H1788 H 0.34903 0.16529 0.27684 0.0
C1789 C 0.29625 0.18712 0.23971 0.0
C1790 C 0.29486 0.19718 0.25732 0.0
C1791 C 0.30653 0.17176 0.23887 0.0
C1792 C 0.34379 0.15222 0.26791 0.0
H1793 H 0.37765 0.06766 0.24371 0.0
H1794 H 0.36511 0.09674 0.2356 0.0
H1795 H 0.3656 0.13805 0.28036 0.0
H1796 H 0.30196 0.1984 0.28788 0.0
H1797 H 0.3191 0.17153 0.28654 0.0
H1798 H 0.30866 0.13192 0.23356 0.0
C1799 C 0.3639 0.09204 0.24978 0.0
C1800 C 0.35343 0.13673 0.26982 0.0
C1801 C 0.37115 0.07557 0.25446 0.0
C1802 C 0.30309 0.19114 0.27405 0.0
C1803 C 0.31309 0.17581 0.27326 0.0
C1804 C 0.32138 0.13363 0.24342 0.0
C1805 C 0.35512 0.10231 0.26339 0.0
C1806 C 0.34696 0.11945 0.25882 0.0
C1807 C 0.31542 0.16623 0.25566 0.0
C1808 C 0.3272 0.15064 0.25525 0.0
H1809 H 0.35879 0.07456 0.30026 0.0
H1810 H 0.34691 0.10368 0.29234 0.0
H1811 H 0.32598 0.10485 0.23662 0.0
H1812 H 0.29004 0.19155 0.22659 0.0
H1813 H 0.30801 0.16463 0.22509 0.0
C1814 C 0.32544 0.11195 0.51259 0.0
C1815 C 0.31293 0.10542 0.49619 0.0
C1816 C 0.34167 0.10343 0.51675 0.0
C1817 C 0.37288 0.07184 0.49487 0.0
H1818 H 0.38283 0.05823 0.54651 0.0
C1819 C 0.41964 0.01516 0.51078 0.0
C1820 C 0.43396 0.0197 0.52602 0.0
C1821 C 0.40525 0.02635 0.50837 0.0
C1822 C 0.38034 0.06209 0.53207 0.0
H1823 H 0.30823 0.08534 0.47093 0.0
H1824 H 0.33615 0.0706 0.47819 0.0
H1825 H 0.35812 0.07784 0.53951 0.0
H1826 H 0.44376 0.03906 0.55127 0.0
H1827 H 0.41843 0.0585 0.54712 0.0
H1828 H 0.39474 0.05579 0.48732 0.0
C1829 C 0.33362 0.08234 0.48782 0.0
C1830 C 0.36625 0.0734 0.52806 0.0
C1831 C 0.31747 0.09076 0.48371 0.0
C1832 C 0.43293 0.03512 0.53939 0.0
C1833 C 0.41843 0.04628 0.53702 0.0
C1834 C 0.38683 0.06048 0.49884 0.0
C1835 C 0.34579 0.08833 0.50452 0.0
C1836 C 0.36212 0.07813 0.50933 0.0
C1837 C 0.40475 0.04232 0.52118 0.0
C1838 C 0.39049 0.05519 0.5174 0.0
H1839 H 0.32235 0.12316 0.52255 0.0
H1840 H 0.35087 0.10852 0.52964 0.0
H1841 H 0.37039 0.07554 0.48037 0.0
H1842 H 0.41992 0.00336 0.50025 0.0
H1843 H 0.39467 0.0227 0.49623 0.0
C1844 C 0.67336 0.55749 0.28426 0.0
C1845 C 0.65769 0.55555 0.29534 0.0
C1846 C 0.6842 0.57533 0.28308 0.0
C1847 C 0.69489 0.6159 0.27268 0.0
H1848 H 0.71279 0.65108 0.3173 0.0
C1849 C 0.72367 0.69483 0.26716 0.0
C1850 C 0.7409 0.7027 0.27798 0.0
C1851 C 0.71434 0.6767 0.26999 0.0
C1852 C 0.70798 0.64132 0.30476 0.0
H1853 H 0.64041 0.57058 0.31323 0.0
H1854 H 0.65971 0.60211 0.31143 0.0
H1855 H 0.69455 0.61958 0.32114 0.0
H1856 H 0.76175 0.69775 0.3004 0.0
H1857 H 0.74517 0.6659 0.30549 0.0
H1858 H 0.70806 0.63752 0.25626 0.0
C1859 C 0.66374 0.58972 0.30392 0.0
C1860 C 0.69741 0.62343 0.30694 0.0
C1861 C 0.65268 0.5718 0.30489 0.0
C1862 C 0.74854 0.69203 0.29179 0.0
C1863 C 0.73902 0.67389 0.29479 0.0
C1864 C 0.70521 0.63379 0.2705 0.0
C1865 C 0.67954 0.59163 0.2929 0.0
C1866 C 0.69075 0.61059 0.29089 0.0
C1867 C 0.72187 0.66604 0.28382 0.0
C1868 C 0.71178 0.64672 0.28648 0.0
H1869 H 0.67718 0.54516 0.27642 0.0
H1870 H 0.69633 0.57637 0.27454 0.0
H1871 H 0.68985 0.60632 0.26006 0.0
H1872 H 0.71736 0.70265 0.25641 0.0
H1873 H 0.70105 0.67109 0.26146 0.0
C1874 C 0.85233 0.46254 0.77883 0.0
C1875 C 0.87008 0.46796 0.78942 0.0
C1876 C 0.84272 0.44391 0.77825 0.0
C1877 C 0.84299 0.3981 0.80097 0.0
H1878 H 0.81282 0.3775 0.75379 0.0
C1879 C 0.81861 0.31801 0.77378 0.0
C1880 C 0.79897 0.31286 0.76808 0.0
C1881 C 0.82632 0.33701 0.77945 0.0
C1882 C 0.82105 0.38316 0.7671 0.0
H1883 H 0.89257 0.45807 0.8065 0.0
H1884 H 0.87624 0.42508 0.80486 0.0
H1885 H 0.82875 0.41038 0.75684 0.0
H1886 H 0.77189 0.3233 0.76445 0.0
H1887 H 0.78558 0.35668 0.77373 0.0
H1888 H 0.83604 0.37012 0.81053 0.0
C1889 C 0.86914 0.43543 0.79786 0.0
C1890 C 0.83011 0.40206 0.76896 0.0
C1891 C 0.8786 0.45424 0.79869 0.0
C1892 C 0.78706 0.32688 0.76883 0.0
C1893 C 0.79485 0.34593 0.77409 0.0
C1894 C 0.83425 0.37899 0.7989 0.0
C1895 C 0.85104 0.43001 0.78761 0.0
C1896 C 0.84119 0.40986 0.78592 0.0
C1897 C 0.81458 0.35115 0.77912 0.0
C1898 C 0.82318 0.37145 0.78196 0.0
H1899 H 0.84586 0.47276 0.77094 0.0
H1900 H 0.82873 0.44049 0.77045 0.0
H1901 H 0.85111 0.40363 0.81435 0.0
H1902 H 0.82807 0.30743 0.77341 0.0
H1903 H 0.8416 0.34079 0.78316 0.0
C1904 C 0.00379 0.82421 0.11789 0.0
C1905 C 0.99848 0.807 0.10631 0.0
C1906 C 0.00143 0.84157 0.11072 0.0
C1907 C -0.00062 0.86479 0.06646 0.0
H1908 H 0.9778 0.90288 0.09623 0.0
C1909 C 0.99769 0.93978 0.04091 0.0
C1910 C 0.00377 0.95481 0.05514 0.0
C1911 C 0.99304 0.92103 0.0459 0.0
C1912 C 0.98396 0.89246 0.08776 0.0
H1913 H 0.98658 0.79458 0.07807 0.0
H1914 H 0.98281 0.82495 0.06554 0.0
H1915 H 0.97836 0.87152 0.10779 0.0
H1916 H 0.00866 0.96215 0.08573 0.0
H1917 H 0.00106 0.92982 0.09431 0.0
H1918 H 0.00586 0.88591 0.04688 0.0
C1919 C 0.98867 0.82494 0.08018 0.0
C1920 C 0.98425 0.87449 0.09439 0.0
C1921 C 0.99077 0.80756 0.08741 0.0
C1922 C 0.00413 0.95089 0.07438 0.0
C1923 C -0.00043 0.93228 0.07934 0.0
C1924 C 0.99933 0.88285 0.05993 0.0
C1925 C 0.99397 0.84211 0.09176 0.0
C1926 C 0.99227 0.86061 0.08398 0.0
C1927 C 0.99439 0.91702 0.06518 0.0
C1928 C 0.99198 0.89706 0.0707 0.0
H1929 H 0.00973 0.82428 0.13251 0.0
H1930 H 0.00582 0.85463 0.1199 0.0
H1931 H 0.00575 0.85437 0.05819 0.0
H1932 H 0.99723 0.94236 0.02596 0.0
H1933 H 0.98882 0.90965 0.03464 0.0
C1934 C 0.94171 0.22549 0.84352 0.0
C1935 C 0.94554 0.23516 0.86174 0.0
C1936 C 0.92311 0.22228 0.83457 0.0
C1937 C 0.88221 0.21612 0.817 0.0
H1938 H 0.854 0.2564 0.83203 0.0
C1939 C 0.80841 0.22503 0.77901 0.0
C1940 C 0.80439 0.2437 0.77899 0.0
C1941 C 0.82529 0.2215 0.78882 0.0
C1942 C 0.86177 0.24519 0.82737 0.0
H1943 H 0.93291 0.24589 0.88644 0.0
H1944 H 0.9003 0.23954 0.8714 0.0
H1945 H 0.88311 0.25357 0.85036 0.0
H1946 H 0.8151 0.27339 0.78788 0.0
H1947 H 0.84498 0.26755 0.80351 0.0
H1948 H 0.8613 0.20888 0.79298 0.0
C1949 C 0.91165 0.23575 0.8632 0.0
C1950 C 0.87837 0.24319 0.83831 0.0
C1951 C 0.9303 0.23927 0.87195 0.0
C1952 C 0.81789 0.25885 0.78777 0.0
C1953 C 0.83489 0.25542 0.79701 0.0
C1954 C 0.86571 0.21842 0.80574 0.0
C1955 C 0.90793 0.22827 0.84396 0.0
C1956 C 0.88904 0.22878 0.83323 0.0
C1957 C 0.83849 0.23667 0.79839 0.0
C1958 C 0.85548 0.23324 0.81062 0.0
H1959 H 0.95323 0.22118 0.83586 0.0
H1960 H 0.92105 0.21626 0.81989 0.0
H1961 H 0.88969 0.20457 0.81274 0.0
H1962 H 0.79804 0.21314 0.77245 0.0
H1963 H 0.82754 0.20688 0.78959 0.0
C1964 C 0.53025 0.21434 0.60559 0.0
C1965 C 0.52152 0.21637 0.62264 0.0
C1966 C 0.53141 0.19623 0.5972 0.0
C1967 C 0.50571 0.14748 0.59506 0.0
H1968 H 0.54712 0.135 0.56602 0.0
C1969 C 0.52325 0.07599 0.5533 0.0
C1970 C 0.50653 0.07116 0.54074 0.0
C1971 C 0.52767 0.0941 0.56316 0.0
C1972 C 0.53551 0.13835 0.57412 0.0
H1973 H 0.50899 0.20156 0.64546 0.0
H1974 H 0.51078 0.16969 0.63073 0.0
H1975 H 0.55093 0.16566 0.58535 0.0
H1976 H 0.4819 0.08185 0.52798 0.0
H1977 H 0.48947 0.11325 0.54548 0.0
H1978 H 0.49011 0.12046 0.58345 0.0
C1979 C 0.51631 0.18203 0.62355 0.0
C1980 C 0.53763 0.15586 0.5851 0.0
C1981 C 0.51529 0.20019 0.632 0.0
C1982 C 0.49486 0.08508 0.53755 0.0
C1983 C 0.49912 0.10302 0.54762 0.0
C1984 C 0.50346 0.13022 0.58382 0.0
C1985 C 0.52395 0.17985 0.60582 0.0
C1986 C 0.52264 0.16069 0.59553 0.0
C1987 C 0.51528 0.10751 0.56083 0.0
C1988 C 0.51824 0.1256 0.57311 0.0
H1989 H 0.53573 0.22677 0.59851 0.0
H1990 H 0.5373 0.19507 0.58351 0.0
H1991 H 0.49392 0.15067 0.60293 0.0
H1992 H 0.53254 0.06557 0.55599 0.0
H1993 H 0.54022 0.09731 0.5733 0.0
C1994 C 0.56122 0.75798 0.36349 0.0
C1995 C 0.54721 0.76735 0.35487 0.0
C1996 C 0.5793 0.75911 0.35664 0.0
C1997 C 0.60377 0.76861 0.31316 0.0
H1998 H 0.64955 0.7699 0.34722 0.0
C1999 C 0.67995 0.77154 0.28701 0.0
C2000 C 0.69089 0.7588 0.2951 0.0
C2001 C 0.66263 0.77439 0.29421 0.0
C2002 C 0.63686 0.76948 0.33753 0.0
H2003 H 0.54154 0.7859 0.33271 0.0
H2004 H 0.57313 0.78811 0.32106 0.0
H2005 H 0.61913 0.77202 0.3605 0.0
H2006 H 0.69212 0.73895 0.31694 0.0
H2007 H 0.66213 0.7439 0.32932 0.0
H2008 H 0.62158 0.76592 0.29019 0.0
C2009 C 0.57001 0.77955 0.33285 0.0
C2010 C 0.61944 0.77064 0.34513 0.0
C2011 C 0.55191 0.77835 0.33962 0.0
C2012 C 0.68411 0.74891 0.31038 0.0
C2013 C 0.66697 0.75184 0.31761 0.0
C2014 C 0.62125 0.76753 0.30555 0.0
C2015 C 0.58383 0.76972 0.34108 0.0
C2016 C 0.60262 0.76991 0.33304 0.0
C2017 C 0.65609 0.76469 0.30971 0.0
C2018 C 0.6379 0.76761 0.31767 0.0
H2019 H 0.55808 0.74931 0.3752 0.0
H2020 H 0.58952 0.75117 0.36318 0.0
H2021 H 0.59106 0.76777 0.30342 0.0
H2022 H 0.68482 0.77939 0.27525 0.0
H2023 H 0.65453 0.78442 0.28788 0.0
C2024 C 0.0195 0.21825 0.44536 0.0
C2025 C 0.01565 0.21851 0.42554 0.0
C2026 C 0.01831 0.20092 0.45366 0.0
C2027 C 0.02189 0.15088 0.44324 0.0
H2028 H 0.99044 0.14116 0.48523 0.0
C2029 C 0.00555 0.07579 0.46675 0.0
C2030 C 0.00568 0.07348 0.48633 0.0
C2031 C 0.00567 0.09373 0.46014 0.0
C2032 C -0.0005 0.14372 0.4737 0.0
H2033 H 0.00787 0.20093 0.39884 0.0
H2034 H 0.00629 0.17068 0.4133 0.0
H2035 H 0.99386 0.17239 0.47239 0.0
H2036 H 0.0053 0.08787 0.51439 0.0
H2037 H 0.00617 0.11964 0.5029 0.0
H2038 H 0.02803 0.12262 0.44466 0.0
C2039 C 0.01007 0.18387 0.4224 0.0
C2040 C 0.0014 0.16158 0.46634 0.0
C2041 C 0.01093 0.20116 0.41414 0.0
C2042 C 0.00512 0.08934 0.4992 0.0
C2043 C 0.0056 0.10748 0.49259 0.0
C2044 C 0.02022 0.13319 0.45073 0.0
C2045 C 0.0136 0.18359 0.44224 0.0
C2046 C 0.01239 0.16518 0.45086 0.0
C2047 C 0.00638 0.10994 0.47299 0.0
C2048 C 0.00872 0.12923 0.46582 0.0
H2049 H 0.02307 0.23142 0.4545 0.0
H2050 H 0.02123 0.20105 0.46898 0.0
H2051 H 0.0307 0.15342 0.43151 0.0
H2052 H 0.00569 0.06371 0.45651 0.0
H2053 H 0.00557 0.09492 0.44491 0.0
C2054 C 0.55441 0.25279 0.17596 0.0
C2055 C 0.54911 0.24804 0.1564 0.0
C2056 C 0.57272 0.25115 0.18375 0.0
C2057 C 0.6146 0.22762 0.17384 0.0
H2058 H 0.64055 0.26458 0.21416 0.0
C2059 C 0.69572 0.23857 0.19731 0.0
C2060 C 0.70146 0.24295 0.21685 0.0
C2061 C 0.67637 0.23613 0.19069 0.0
C2062 C 0.63335 0.25397 0.20311 0.0
H2063 H 0.55897 0.23844 0.12954 0.0
H2064 H 0.59115 0.23623 0.143 0.0
H2065 H 0.60878 0.26789 0.20063 0.0
H2066 H 0.6913 0.24667 0.24496 0.0
H2067 H 0.65753 0.24249 0.23333 0.0
H2068 H 0.63964 0.21415 0.17598 0.0
C2069 C 0.58101 0.24068 0.15245 0.0
C2070 C 0.61514 0.25586 0.19533 0.0
C2071 C 0.56263 0.24213 0.14469 0.0
C2072 C 0.68737 0.24341 0.22979 0.0
C2073 C 0.66804 0.24116 0.22315 0.0
C2074 C 0.63293 0.22584 0.18151 0.0
C2075 C 0.58621 0.24493 0.17213 0.0
C2076 C 0.60555 0.24276 0.18053 0.0
C2077 C 0.66244 0.23815 0.20349 0.0
C2078 C 0.64249 0.23904 0.19619 0.0
H2079 H 0.54425 0.25723 0.18538 0.0
H2080 H 0.5761 0.25431 0.199 0.0
H2081 H 0.60751 0.21705 0.16272 0.0
H2082 H 0.70623 0.23803 0.187 0.0
H2083 H 0.67246 0.23385 0.17545 0.0
C2084 C 0.53408 0.82635 0.93009 0.0
C2085 C 0.53607 0.8257 0.91038 0.0
C2086 C 0.53747 0.84371 0.94129 0.0
C2087 C 0.54948 0.88178 0.96419 0.0
H2088 H 0.52952 0.9225 0.93978 0.0
C2089 C 0.54107 0.95367 0.00546 0.0
C2090 C 0.52394 0.96044 0.00038 0.0
C2091 C 0.54624 0.93824 0.99463 0.0
C2092 C 0.53512 0.91127 0.94685 0.0
H2093 H 0.54459 0.84267 0.88725 0.0
H2094 H 0.55118 0.87291 0.90692 0.0
H2095 H 0.53254 0.89356 0.9208 0.0
H2096 H 0.49853 0.95591 0.98036 0.0
H2097 H 0.50723 0.92904 0.96199 0.0
H2098 H 0.55073 0.89918 0.99053 0.0
C2099 C 0.54635 0.86006 0.91363 0.0
C2100 C 0.53717 0.89473 0.93588 0.0
C2101 C 0.54268 0.8427 0.90235 0.0
C2102 C 0.51196 0.95125 0.98457 0.0
C2103 C 0.51703 0.93589 0.97389 0.0
C2104 C 0.54722 0.89831 0.97524 0.0
C2105 C 0.5432 0.86088 0.93313 0.0
C2106 C 0.54389 0.87952 0.94446 0.0
C2107 C 0.53434 0.92932 0.97858 0.0
C2108 C 0.53944 0.91298 0.96676 0.0
H2109 H 0.52897 0.81354 0.93675 0.0
H2110 H 0.53461 0.84371 0.95615 0.0
H2111 H 0.55509 0.87055 0.97124 0.0
H2112 H 0.55061 0.96049 0.01756 0.0
H2113 H 0.55968 0.93352 0.9986 0.0
C2114 C 0.9467 0.76074 0.6655 0.0
C2115 C 0.96384 0.77303 0.67169 0.0
C2116 C 0.92956 0.76358 0.67293 0.0
C2117 C 0.91045 0.78738 0.71417 0.0
H2118 H 0.863 0.77481 0.68164 0.0
C2119 C 0.83625 0.77235 0.74332 0.0
C2120 C 0.82011 0.77523 0.73181 0.0
C2121 C 0.8545 0.77619 0.73689 0.0
C2122 C 0.87609 0.77878 0.69092 0.0
H2123 H 0.97629 0.79819 0.69035 0.0
H2124 H 0.9463 0.8034 0.70291 0.0
H2125 H 0.89314 0.77355 0.668 0.0
H2126 H 0.81039 0.78606 0.70553 0.0
H2127 H 0.84226 0.79373 0.69472 0.0
H2128 H 0.89333 0.79298 0.73704 0.0
C2129 C 0.94618 0.79131 0.69263 0.0
C2130 C 0.89342 0.7777 0.68312 0.0
C2131 C 0.96337 0.78837 0.68532 0.0
C2132 C 0.82264 0.78354 0.71457 0.0
C2133 C 0.84088 0.78773 0.70831 0.0
C2134 C 0.89308 0.78866 0.72196 0.0
C2135 C 0.92906 0.77889 0.68659 0.0
C2136 C 0.9108 0.78159 0.6947 0.0
C2137 C 0.85694 0.78327 0.71895 0.0
C2138 C 0.87564 0.78405 0.7105 0.0
H2139 H 0.94654 0.74868 0.65515 0.0
H2140 H 0.91675 0.75349 0.66821 0.0
H2141 H 0.92354 0.79037 0.72356 0.0
H2142 H 0.83465 0.76579 0.75661 0.0
H2143 H 0.86646 0.77244 0.74544 0.0
C2144 C 0.12172 0.00081 0.86072 0.0
C2145 C 0.11368 0.99925 0.84169 0.0
C2146 C 0.11008 0.99879 0.87579 0.0
C2147 C 0.06094 0.00163 0.88875 0.0
H2148 H 0.07801 0.97767 0.93316 0.0
C2149 C 0.01803 0.99411 0.95602 0.0
C2150 C 0.02913 -0.00018 0.97346 0.0
C2151 C 0.02687 0.99191 0.93901 0.0
C2152 C 0.07306 0.98444 0.92088 0.0
H2153 H 0.08687 0.99411 0.82374 0.0
H2154 H 0.06653 0.99036 0.85012 0.0
H2155 H 0.09605 0.97761 0.90512 0.0
H2156 H 0.05822 0.00724 0.98669 0.0
H2157 H 0.07346 0.00318 0.95732 0.0
H2158 H 0.03799 0.00858 0.90475 0.0
C2159 C 0.08191 0.99338 0.85333 0.0
C2160 C 0.08343 0.98446 0.90481 0.0
C2161 C 0.0936 0.99543 0.83818 0.0
C2162 C 0.04919 0.00285 0.97355 0.0
C2163 C 0.05797 0.00041 0.95669 0.0
C2164 C 0.05047 0.00152 0.90485 0.0
C2165 C 0.09002 0.99507 0.87235 0.0
C2166 C 0.07779 0.99344 0.88867 0.0
C2167 C 0.04697 0.99504 0.93918 0.0
C2168 C 0.05667 0.9933 0.92126 0.0
H2169 H 0.13708 0.00387 0.86408 0.0
H2170 H 0.11687 0.00056 0.89023 0.0
H2171 H 0.05622 0.0088 0.87667 0.0
H2172 H 0.00255 0.99169 0.95546 0.0
H2173 H 0.01801 0.98767 0.92575 0.0
C2174 C 0.74427 0.33114 0.55037 0.0
C2175 C 0.74847 0.35107 0.55032 0.0
C2176 C 0.74577 0.3225 0.56746 0.0
C2177 C 0.7449 0.33168 0.61899 0.0
H2178 H 0.77476 0.29061 0.62313 0.0
C2179 C 0.76601 0.30806 0.69181 0.0
C2180 C 0.7647 0.28847 0.6938 0.0
C2181 C 0.76477 0.31474 0.67379 0.0
C2182 C 0.76617 0.30188 0.62214 0.0
H2183 H 0.75712 0.37761 0.5681 0.0
H2184 H 0.75938 0.36254 0.59799 0.0
H2185 H 0.76999 0.30392 0.59242 0.0
H2186 H 0.76187 0.26049 0.67862 0.0
H2187 H 0.75918 0.27217 0.64682 0.0
H2188 H 0.74074 0.32962 0.64844 0.0
C2189 C 0.75503 0.35362 0.5848 0.0
C2190 C 0.76347 0.3095 0.60458 0.0
C2191 C 0.75378 0.36223 0.5677 0.0
C2192 C 0.76298 0.27568 0.67741 0.0
C2193 C 0.76145 0.28239 0.65925 0.0
C2194 C 0.74742 0.32397 0.63642 0.0
C2195 C 0.7512 0.33368 0.58482 0.0
C2196 C 0.75306 0.32467 0.60296 0.0
C2197 C 0.76182 0.30198 0.65729 0.0
C2198 C 0.75839 0.30924 0.63832 0.0
H2199 H 0.74022 0.32217 0.53716 0.0
H2200 H 0.74261 0.30711 0.56714 0.0
H2201 H 0.73654 0.34314 0.61803 0.0
H2202 H 0.76764 0.31826 0.70424 0.0
H2203 H 0.76575 0.32996 0.67282 0.0
C2204 C 0.40392 0.04002 0.35267 0.0
C2205 C 0.41223 0.03516 0.33591 0.0
C2206 C 0.41469 0.04231 0.37036 0.0
C2207 C 0.46452 0.0444 0.39359 0.0
H2208 H 0.43698 0.02168 0.43375 0.0
C2209 C 0.47843 0.00581 0.46722 0.0
C2210 C 0.49428 0.01814 0.47653 0.0
C2211 C 0.46938 0.01034 0.45036 0.0
C2212 C 0.44496 0.02794 0.42265 0.0
H2213 H 0.43861 0.02962 0.32452 0.0
H2214 H 0.45707 0.03277 0.35524 0.0
H2215 H 0.41958 0.02597 0.40398 0.0
H2216 H 0.51344 0.04468 0.47532 0.0
H2217 H 0.49726 0.05296 0.44584 0.0
H2218 H 0.4901 0.04513 0.412 0.0
C2219 C 0.44243 0.0354 0.35483 0.0
C2220 C 0.43488 0.03077 0.40563 0.0
C2221 C 0.43176 0.03345 0.33714 0.0
C2222 C 0.5013 0.03489 0.46833 0.0
C2223 C 0.49202 0.03961 0.45148 0.0
C2224 C 0.47466 0.04132 0.41058 0.0
C2225 C 0.43393 0.0394 0.37175 0.0
C2226 C 0.44453 0.03869 0.39069 0.0
C2227 C 0.47571 0.02752 0.4425 0.0
C2228 C 0.46503 0.03261 0.42514 0.0
H2229 H 0.38896 0.04166 0.35218 0.0
H2230 H 0.40776 0.04588 0.383 0.0
H2231 H 0.47242 0.0509 0.38257 0.0
H2232 H 0.47289 0.99264 0.47308 0.0
H2233 H 0.4573 0.00036 0.44354 0.0
C2234 C 0.77729 0.6801 0.06021 0.0
C2235 C 0.77332 0.66027 0.0557 0.0
C2236 C 0.7766 0.68789 0.07892 0.0
C2237 C 0.75586 0.67572 0.12404 0.0
H2238 H 0.79203 0.71948 0.14657 0.0
C2239 C 0.76637 0.69773 0.20479 0.0
C2240 C 0.76909 0.71724 0.21097 0.0
C2241 C 0.76534 0.69175 0.18539 0.0
C2242 C 0.78165 0.70742 0.14037 0.0
H2243 H 0.7663 0.63301 0.06738 0.0
H2244 H 0.7656 0.64649 0.1 0.0
H2245 H 0.79438 0.70699 0.11379 0.0
H2246 H 0.77239 0.74579 0.20163 0.0
H2247 H 0.77068 0.73528 0.16758 0.0
H2248 H 0.74343 0.6759 0.15077 0.0
C2249 C 0.76873 0.65612 0.08906 0.0
C2250 C 0.78301 0.70024 0.12158 0.0
C2251 C 0.7693 0.64836 0.07037 0.0
C2252 C 0.77021 0.73065 0.19729 0.0
C2253 C 0.76939 0.72466 0.17783 0.0
C2254 C 0.75459 0.68282 0.14282 0.0
C2255 C 0.77201 0.67599 0.09352 0.0
C2256 C 0.77026 0.68415 0.11326 0.0
C2257 C 0.76717 0.70514 0.17171 0.0
C2258 C 0.76759 0.69861 0.15127 0.0
H2259 H 0.78035 0.68966 0.04919 0.0
H2260 H 0.77908 0.70325 0.0818 0.0
H2261 H 0.7455 0.66361 0.11796 0.0
H2262 H 0.76543 0.68704 0.21498 0.0
H2263 H 0.76379 0.67663 0.18115 0.0
C2264 C 0.08967 0.99587 0.72612 0.0
C2265 C 0.10953 -0.00012 0.731 0.0
C2266 C 0.08215 0.99656 0.70728 0.0
C2267 C 0.09504 0.01712 0.66222 0.0
H2268 H 0.05197 0.98039 0.63903 0.0
C2269 C 0.07464 0.00625 0.58105 0.0
C2270 C 0.05514 0.00282 0.57441 0.0
C2271 C 0.08028 0.00747 0.60057 0.0
C2272 C 0.06383 0.99092 0.6454 0.0
H2273 H 0.13711 0.00711 0.71982 0.0
H2274 H 0.12411 0.00787 0.68702 0.0
H2275 H 0.06382 0.97849 0.67215 0.0
H2276 H 0.02624 0.99854 0.58313 0.0
H2277 H 0.03614 0.00065 0.61733 0.0
H2278 H 0.09529 0.0293 0.63536 0.0
C2279 C 0.11425 0.00467 0.69776 0.0
C2280 C 0.07064 0.98983 0.66438 0.0
C2281 C 0.12173 0.00406 0.71657 0.0
C2282 C 0.04138 0.00123 0.58779 0.0
C2283 C 0.04704 0.00228 0.60736 0.0
C2284 C 0.08829 0.01815 0.64325 0.0
C2285 C 0.09435 0.00123 0.6929 0.0
C2286 C 0.08649 0.00278 0.67297 0.0
C2287 C 0.06656 0.00516 0.61394 0.0
C2288 C 0.07275 0.00494 0.63454 0.0
H2289 H 0.07988 0.99268 0.73694 0.0
H2290 H 0.06676 0.99396 0.7041 0.0
H2291 H 0.10697 0.02763 0.66848 0.0
H2292 H 0.08561 0.00756 0.57113 0.0
H2293 H 0.09543 0.00954 0.60514 0.0
C2294 C 0.734 0.33921 0.44149 0.0
C2295 C 0.73556 0.35917 0.44188 0.0
C2296 C 0.73106 0.32792 0.42412 0.0
C2297 C 0.74063 0.33199 0.37422 0.0
H2298 H 0.71008 0.28164 0.3651 0.0
C2299 C 0.73732 0.29072 0.30176 0.0
C2300 C 0.7403 0.2717 0.30177 0.0
C2301 C 0.73281 0.30041 0.31825 0.0
C2302 C 0.71872 0.29565 0.36751 0.0
H2303 H 0.73396 0.38276 0.42431 0.0
H2304 H 0.72859 0.36307 0.39415 0.0
H2305 H 0.70923 0.30071 0.39535 0.0
H2306 H 0.7398 0.24747 0.31868 0.0
H2307 H 0.7324 0.26466 0.3479 0.0
H2308 H 0.75055 0.32696 0.34682 0.0
C2309 C 0.73007 0.35619 0.40725 0.0
C2310 C 0.71823 0.30655 0.38478 0.0
C2311 C 0.73307 0.36746 0.42457 0.0
C2312 C 0.73754 0.26214 0.31831 0.0
C2313 C 0.73327 0.27197 0.335 0.0
C2314 C 0.74114 0.32115 0.35708 0.0
C2315 C 0.72958 0.33636 0.40679 0.0
C2316 C 0.72919 0.32486 0.38829 0.0
C2317 C 0.73151 0.29141 0.33528 0.0
C2318 C 0.73019 0.30287 0.35346 0.0
H2319 H 0.7358 0.33232 0.45455 0.0
H2320 H 0.73085 0.31269 0.42424 0.0
H2321 H 0.74964 0.34581 0.37665 0.0
H2322 H 0.73911 0.29836 0.28912 0.0
H2323 H 0.73102 0.31521 0.31784 0.0
C2324 C 0.4203 0.00887 0.2139 0.0
C2325 C 0.42714 0.02199 0.22967 0.0
C2326 C 0.43179 0.00628 0.19898 0.0
C2327 C 0.47286 0.02881 0.17579 0.0
H2328 H 0.47794 0.97691 0.15886 0.0
C2329 C 0.52239 0.01421 0.11764 0.0
C2330 C 0.51445 1e-05 0.10312 0.0
C2331 C 0.51388 0.01581 0.13481 0.0
C2332 C 0.47658 0.99148 0.16331 0.0
H2333 H 0.45102 0.04325 0.24186 0.0
H2334 H 0.47093 0.03896 0.2156 0.0
H2335 H 0.45757 0.98273 0.18433 0.0
H2336 H 0.49223 0.97545 0.09583 0.0
H2337 H 0.47726 0.97844 0.12545 0.0
H2338 H 0.4913 0.03764 0.15444 0.0
C2339 C 0.45676 0.0306 0.21486 0.0
C2340 C 0.4649 0.9948 0.17788 0.0
C2341 C 0.44536 0.03302 0.22988 0.0
C2342 C 0.49871 0.9866 0.10669 0.0
C2343 C 0.49013 0.98828 0.12377 0.0
C2344 C 0.48438 0.02551 0.16108 0.0
C2345 C 0.45023 0.01694 0.19945 0.0
C2346 C 0.46281 0.01348 0.18416 0.0
C2347 C 0.49721 0.0033 0.13778 0.0
C2348 C 0.48628 0.00679 0.15454 0.0
H2349 H 0.40633 0.00013 0.21337 0.0
H2350 H 0.42633 0.99583 0.18713 0.0
H2351 H 0.4714 0.04336 0.18028 0.0
H2352 H 0.53461 0.02468 0.11541 0.0
H2353 H 0.52 0.02725 0.1455 0.0
C2354 C 0.77148 0.64798 0.92635 0.0
C2355 C 0.77178 0.6559 0.94527 0.0
C2356 C 0.77305 0.65964 0.9113 0.0
C2357 C 0.78793 0.70919 0.8992 0.0
H2358 H 0.75487 0.69125 0.85308 0.0
C2359 C 0.77886 0.75345 0.83305 0.0
C2360 C 0.77775 0.74308 0.81513 0.0
C2361 C 0.77933 0.74405 0.84987 0.0
C2362 C 0.76433 0.6964 0.86579 0.0
H2363 H 0.77446 0.68251 0.96311 0.0
H2364 H 0.77702 0.70286 0.93672 0.0
H2365 H 0.75326 0.67257 0.88053 0.0
H2366 H 0.77761 0.71496 0.8009 0.0
H2367 H 0.77858 0.6988 0.82996 0.0
H2368 H 0.7989 0.73316 0.88423 0.0
C2369 C 0.77572 0.68758 0.93362 0.0
C2370 C 0.76343 0.68566 0.88154 0.0
C2371 C 0.77417 0.67588 0.94874 0.0
C2372 C 0.77813 0.72337 0.81443 0.0
C2373 C 0.7786 0.71405 0.83111 0.0
C2374 C 0.7888 0.72003 0.88336 0.0
C2375 C 0.77491 0.67957 0.91468 0.0
C2376 C 0.77542 0.69172 0.89835 0.0
C2377 C 0.77869 0.72415 0.84899 0.0
C2378 C 0.77722 0.71355 0.86637 0.0
H2379 H 0.76981 0.63269 0.92307 0.0
H2380 H 0.77278 0.65299 0.89695 0.0
H2381 H 0.79742 0.71425 0.91191 0.0
H2382 H 0.77861 0.76865 0.83407 0.0
H2383 H 0.77941 0.75221 0.86346 0.0
C2384 C 0.81177 0.09452 0.98479 0.0
C2385 C 0.80833 0.10488 0.00159 0.0
C2386 C 0.8273 0.0846 0.98456 0.0
C2387 C 0.85386 0.05775 0.01395 0.0
H2388 H 0.89482 0.0661 0.98067 0.0
C2389 C 0.92068 0.02135 0.0228 0.0
C2390 C 0.931 0.01814 0.00698 0.0
C2391 C 0.90486 0.0308 0.02115 0.0
C2392 C 0.8833 0.06323 0.98978 0.0
H2393 H 0.81858 0.1133 0.03119 0.0
H2394 H 0.84548 0.0954 0.03089 0.0
H2395 H 0.86967 0.08595 0.97961 0.0
H2396 H 0.93214 0.02116 0.97673 0.0
H2397 H 0.90384 0.03667 0.97353 0.0
H2398 H 0.86672 0.0346 0.02364 0.0
C2399 C 0.83628 0.09528 0.01789 0.0
C2400 C 0.86903 0.07479 0.98928 0.0
C2401 C 0.82102 0.10559 0.018 0.0
C2402 C 0.9245 0.02354 0.9892 0.0
C2403 C 0.90841 0.03266 0.98745 0.0
C2404 C 0.86784 0.04591 0.01416 0.0
C2405 C 0.83935 0.08451 0.00124 0.0
C2406 C 0.85438 0.07229 0.00155 0.0
C2407 C 0.8987 0.03695 0.00353 0.0
C2408 C 0.88294 0.04863 0.00227 0.0
H2409 H 0.80218 0.09372 0.97195 0.0
H2410 H 0.82942 0.07634 0.97158 0.0
H2411 H 0.84246 0.0554 0.02332 0.0
H2412 H 0.92544 0.01757 0.03676 0.0
H2413 H 0.89807 0.03403 0.03397 0.0
C2414 C 0.33385 0.39619 0.03262 0.0
C2415 C 0.31913 0.40394 0.0409 0.0
C2416 C 0.35262 0.40596 0.0352 0.0
C2417 C 0.37956 0.45465 0.04816 0.0
H2418 H 0.42305 0.42806 0.0448 0.0
C2419 C 0.4568 0.49446 0.04422 0.0
C2420 C 0.46756 0.48599 0.03103 0.0
C2421 C 0.43931 0.48461 0.04879 0.0
C2422 C 0.41102 0.43571 0.04558 0.0
H2423 H 0.31244 0.42668 0.06004 0.0
H2424 H 0.34533 0.44361 0.06508 0.0
H2425 H 0.39153 0.41006 0.04757 0.0
H2426 H 0.46817 0.46069 0.01205 0.0
H2427 H 0.43777 0.44387 0.01966 0.0
H2428 H 0.399 0.48025 0.04565 0.0
C2429 C 0.3424 0.43049 0.05584 0.0
C2430 C 0.39291 0.42537 0.04717 0.0
C2431 C 0.32358 0.42084 0.05298 0.0
C2432 C 0.46037 0.46761 0.0224 0.0
C2433 C 0.44296 0.45785 0.0269 0.0
C2434 C 0.39765 0.46498 0.0464 0.0
C2435 C 0.35712 0.42341 0.04662 0.0
C2436 C 0.3768 0.43463 0.0478 0.0
C2437 C 0.43224 0.46613 0.04023 0.0
C2438 C 0.4135 0.45557 0.04453 0.0
H2439 H 0.33071 0.38298 0.0235 0.0
H2440 H 0.36341 0.40013 0.02762 0.0
H2441 H 0.36765 0.46236 0.04898 0.0
H2442 H 0.462 0.50857 0.05116 0.0
H2443 H 0.43145 0.49136 0.05919 0.0
C2444 C 0.34611 0.55557 0.77991 0.0
C2445 C 0.36031 0.55178 0.7679 0.0
C2446 C 0.33956 0.57306 0.78054 0.0
C2447 C 0.35063 0.623 0.76885 0.0
H2448 H 0.2956 0.62084 0.76828 0.0
C2449 C 0.31386 0.68812 0.75528 0.0
C2450 C 0.29849 0.69129 0.76594 0.0
C2451 C 0.3217 0.67137 0.75621 0.0
C2452 C 0.311 0.62174 0.76872 0.0
H2453 H 0.37923 0.56383 0.74764 0.0
H2454 H 0.36766 0.59455 0.74869 0.0
H2455 H 0.30926 0.5915 0.76857 0.0
H2456 H 0.2793 0.67927 0.78597 0.0
H2457 H 0.29312 0.64992 0.78772 0.0
H2458 H 0.35234 0.65327 0.76893 0.0
C2459 C 0.3617 0.58388 0.75769 0.0
C2460 C 0.31886 0.60491 0.76885 0.0
C2461 C 0.36833 0.56628 0.75707 0.0
C2462 C 0.29108 0.67723 0.77754 0.0
C2463 C 0.29897 0.6604 0.77848 0.0
C2464 C 0.34277 0.63986 0.76873 0.0
C2465 C 0.34695 0.5873 0.76916 0.0
C2466 C 0.33876 0.60532 0.76893 0.0
C2467 C 0.31442 0.65731 0.76785 0.0
C2468 C 0.32284 0.63943 0.76861 0.0
H2469 H 0.33975 0.54487 0.78867 0.0
H2470 H 0.32853 0.57537 0.78987 0.0
H2471 H 0.36602 0.62385 0.76915 0.0
H2472 H 0.31988 0.69857 0.74609 0.0
H2473 H 0.33332 0.66934 0.74756 0.0
C2474 C 0.20584 0.64199 0.51879 0.0
C2475 C 0.22016 0.63131 0.52383 0.0
C2476 C 0.18674 0.63514 0.52121 0.0
C2477 C 0.14764 0.61128 0.51467 0.0
H2478 H 0.13174 0.58246 0.55688 0.0
C2479 C 0.07876 0.55469 0.53031 0.0
C2480 C 0.06405 0.56456 0.52408 0.0
C2481 C 0.09774 0.56397 0.53307 0.0
C2482 C 0.13603 0.59044 0.545 0.0
H2483 H 0.2264 0.60643 0.53739 0.0
H2484 H 0.193 0.59401 0.54109 0.0
H2485 H 0.16518 0.59725 0.55681 0.0
H2486 H 0.05757 0.59217 0.51702 0.0
H2487 H 0.0906 0.60824 0.52182 0.0
H2488 H 0.11853 0.6045 0.50288 0.0
C2489 C 0.1963 0.60757 0.53511 0.0
C2490 C 0.15517 0.59886 0.54491 0.0
C2491 C 0.21539 0.61447 0.5327 0.0
C2492 C 0.06857 0.58409 0.52166 0.0
C2493 C 0.0875 0.59331 0.52431 0.0
C2494 C 0.12855 0.60302 0.51485 0.0
C2495 C 0.18167 0.61759 0.52895 0.0
C2496 C 0.16122 0.60932 0.52968 0.0
C2497 C 0.10232 0.58323 0.52956 0.0
C2498 C 0.12254 0.59247 0.52997 0.0
H2499 H 0.20938 0.65536 0.51249 0.0
H2500 H 0.17592 0.64352 0.51682 0.0
H2501 H 0.15182 0.61882 0.50249 0.0
H2502 H 0.07573 0.53964 0.53233 0.0
H2503 H 0.10892 0.55585 0.53707 0.0
C2504 C 0.67219 0.95784 0.80458 0.0
C2505 C 0.6555 0.9583 0.79259 0.0
C2506 C 0.68062 0.94135 0.8047 0.0
C2507 C 0.68386 0.89844 0.7738 0.0
H2508 H 0.70528 0.88004 0.81981 0.0
C2509 C 0.70836 0.82576 0.77223 0.0
C2510 C 0.72577 0.8242 0.78242 0.0
C2511 C 0.70017 0.84222 0.77469 0.0
C2512 C 0.69957 0.88516 0.80684 0.0
H2513 H 0.63419 0.94141 0.77189 0.0
H2514 H 0.64883 0.91266 0.77224 0.0
H2515 H 0.68955 0.90833 0.82213 0.0
H2516 H 0.74804 0.83859 0.8036 0.0
H2517 H 0.73369 0.8677 0.80782 0.0
H2518 H 0.69386 0.87548 0.75846 0.0
C2519 C 0.65554 0.92518 0.78133 0.0
C2520 C 0.69052 0.90131 0.80816 0.0
C2521 C 0.64708 0.94165 0.78123 0.0
C2522 C 0.73463 0.83939 0.79552 0.0
C2523 C 0.72638 0.856 0.79798 0.0
C2524 C 0.69289 0.8824 0.77248 0.0
C2525 C 0.67259 0.92496 0.79281 0.0
C2526 C 0.68239 0.90798 0.79165 0.0
C2527 C 0.70919 0.85765 0.78736 0.0
C2528 C 0.70064 0.87542 0.78898 0.0
H2529 H 0.67909 0.97037 0.81355 0.0
H2530 H 0.6938 0.94167 0.81361 0.0
H2531 H 0.67817 0.9035 0.76077 0.0
H2532 H 0.70099 0.81426 0.76218 0.0
H2533 H 0.6867 0.84284 0.76662 0.0
C2534 C 0.71524 0.92826 0.51331 0.0
C2535 C 0.71818 0.91288 0.52402 0.0
C2536 C 0.69795 0.93528 0.51288 0.0
C2537 C 0.64713 0.92351 0.52208 0.0
H2538 H 0.64937 0.97843 0.52455 0.0
C2539 C 0.58143 0.95964 0.5348 0.0
C2540 C 0.57834 0.97497 0.5241 0.0
C2541 C 0.59834 0.95199 0.53422 0.0
C2542 C 0.64849 0.96307 0.5236 0.0
H2543 H 0.70491 0.89261 0.54243 0.0
H2544 H 0.67459 0.9051 0.54185 0.0
H2545 H 0.67893 0.9649 0.52513 0.0
H2546 H 0.59072 0.99434 0.50443 0.0
H2547 H 0.62048 0.98089 0.50341 0.0
H2548 H 0.61666 0.92174 0.52075 0.0
C2549 C 0.68575 0.91157 0.53363 0.0
C2550 C 0.66542 0.95529 0.52395 0.0
C2551 C 0.70313 0.90444 0.53401 0.0
C2552 C 0.59268 0.98256 0.51286 0.0
C2553 C 0.60972 0.9749 0.51233 0.0
C2554 C 0.63018 0.93131 0.52179 0.0
C2555 C 0.68306 0.92723 0.52321 0.0
C2556 C 0.66496 0.93541 0.52317 0.0
C2557 C 0.61268 0.95946 0.52295 0.0
C2558 C 0.63067 0.95118 0.52258 0.0
H2559 H 0.72637 0.93502 0.50522 0.0
H2560 H 0.69625 0.94705 0.50435 0.0
H2561 H 0.64623 0.90816 0.52117 0.0
H2562 H 0.57075 0.95346 0.54371 0.0
H2563 H 0.60028 0.94034 0.54283 0.0
C2564 C 0.34734 0.44756 0.7341 0.0
C2565 C 0.36434 0.45226 0.74613 0.0
C2566 C 0.3379 0.4287 0.73135 0.0
C2567 C 0.34384 0.37858 0.74019 0.0
H2568 H 0.28874 0.37178 0.7419 0.0
C2569 C 0.30219 0.3107 0.76474 0.0
C2570 C 0.28369 0.30349 0.75621 0.0
C2571 C 0.31186 0.32813 0.76027 0.0
C2572 C 0.30408 0.37333 0.7411 0.0
H2573 H 0.38572 0.44108 0.76348 0.0
H2574 H 0.36897 0.40833 0.75953 0.0
H2575 H 0.30629 0.4032 0.73857 0.0
H2576 H 0.26087 0.30899 0.73619 0.0
H2577 H 0.2779 0.33954 0.72821 0.0
H2578 H 0.34156 0.34857 0.74253 0.0
C2579 C 0.36288 0.41895 0.75194 0.0
C2580 C 0.31421 0.39145 0.73933 0.0
C2581 C 0.37242 0.43775 0.75442 0.0
C2582 C 0.27507 0.31419 0.74308 0.0
C2583 C 0.28481 0.3317 0.73854 0.0
C2584 C 0.3337 0.36042 0.74179 0.0
C2585 C 0.34531 0.41419 0.74061 0.0
C2586 C 0.33431 0.39447 0.73957 0.0
C2587 C 0.30337 0.33885 0.74707 0.0
C2588 C 0.31376 0.35767 0.74288 0.0
H2589 H 0.34125 0.45851 0.72702 0.0
H2590 H 0.32468 0.42557 0.72217 0.0
H2591 H 0.35921 0.38016 0.73973 0.0
H2592 H 0.30927 0.3029 0.77499 0.0
H2593 H 0.32592 0.33334 0.76746 0.0
C2594 C 0.14377 0.56963 0.25912 0.0
C2595 C 0.15155 0.55328 0.25398 0.0
C2596 C 0.15329 0.58759 0.25587 0.0
C2597 C 0.17283 0.625 0.24456 0.0
H2598 H 0.2282 0.63099 0.25166 0.0
C2599 C 0.22 0.69919 0.25339 0.0
C2600 C 0.23358 0.70183 0.26934 0.0
C2601 C 0.21067 0.68091 0.24671 0.0
C2602 C 0.21274 0.62955 0.24963 0.0
H2603 H 0.17382 0.54228 0.23939 0.0
H2604 H 0.19003 0.57351 0.23273 0.0
H2605 H 0.20959 0.59931 0.24767 0.0
H2606 H 0.24865 0.68733 0.29023 0.0
H2607 H 0.23235 0.65554 0.27867 0.0
H2608 H 0.17619 0.65547 0.24712 0.0
C2609 C 0.17728 0.57281 0.24032 0.0
C2610 C 0.20198 0.6113 0.24724 0.0
C2611 C 0.16801 0.55489 0.24406 0.0
C2612 C 0.23822 0.68579 0.27796 0.0
C2613 C 0.22897 0.66754 0.27123 0.0
C2614 C 0.18362 0.64327 0.24689 0.0
C2615 C 0.17041 0.5895 0.24673 0.0
C2616 C 0.18183 0.60874 0.24556 0.0
C2617 C 0.21485 0.66493 0.25576 0.0
C2618 C 0.20366 0.64572 0.25014 0.0
H2619 H 0.13085 0.56856 0.2665 0.0
H2620 H 0.1476 0.59996 0.26136 0.0
H2621 H 0.1574 0.6237 0.24256 0.0
H2622 H 0.21618 0.71127 0.24637 0.0
H2623 H 0.19999 0.67931 0.23464 0.0
C2624 C 0.51175 0.68621 0.39359 0.0
C2625 C 0.51347 0.7033 0.40532 0.0
C2626 C 0.51417 0.66923 0.40148 0.0
C2627 C 0.53139 0.6489 0.44555 0.0
H2628 H 0.49278 0.60576 0.42639 0.0
C2629 C 0.51236 0.58113 0.48572 0.0
C2630 C 0.50755 0.5636 0.4746 0.0
C2631 C 0.51611 0.59816 0.47697 0.0
C2632 C 0.50387 0.61756 0.43173 0.0
H2633 H 0.51992 0.71618 0.43439 0.0
H2634 H 0.52375 0.68649 0.44821 0.0
H2635 H 0.49407 0.63546 0.41142 0.0
H2636 H 0.50415 0.55006 0.44568 0.0
H2637 H 0.51084 0.57963 0.43052 0.0
H2638 H 0.54079 0.63093 0.46624 0.0
C2639 C 0.5208 0.68621 0.43289 0.0
C2640 C 0.50464 0.63461 0.42311 0.0
C2641 C 0.51849 0.70323 0.42498 0.0
C2642 C 0.50753 0.56335 0.45466 0.0
C2643 C 0.5113 0.5803 0.44594 0.0
C2644 C 0.53057 0.63179 0.45425 0.0
C2645 C 0.51822 0.66893 0.42129 0.0
C2646 C 0.51834 0.65053 0.42993 0.0
C2647 C 0.51514 0.59793 0.45695 0.0
C2648 C 0.51675 0.61596 0.44745 0.0
H2649 H 0.50806 0.68585 0.37837 0.0
H2650 H 0.51248 0.65625 0.39208 0.0
H2651 H 0.54224 0.66085 0.45105 0.0
H2652 H 0.51254 0.58177 0.50113 0.0
H2653 H 0.51893 0.61153 0.48583 0.0
C2654 C 0.57382 0.29941 0.6819 0.0
C2655 C 0.57133 0.29037 0.66328 0.0
C2656 C 0.59191 0.30309 0.69195 0.0
C2657 C 0.64391 0.30282 0.68736 0.0
H2658 H 0.64309 0.28527 0.73812 0.0
C2659 C 0.70592 0.27207 0.72362 0.0
C2660 C 0.71067 0.27612 0.74337 0.0
C2661 C 0.69015 0.27839 0.71468 0.0
C2662 C 0.64362 0.2906 0.72415 0.0
H2663 H 0.58604 0.2793 0.64011 0.0
H2664 H 0.61753 0.28542 0.65769 0.0
H2665 H 0.61323 0.28889 0.72051 0.0
H2666 H 0.70281 0.29033 0.76917 0.0
H2667 H 0.67492 0.30123 0.75348 0.0
H2668 H 0.67429 0.30366 0.69077 0.0
C2669 C 0.60558 0.28988 0.66452 0.0
C2670 C 0.62648 0.29271 0.71403 0.0
C2671 C 0.58749 0.28629 0.65444 0.0
C2672 C 0.69946 0.28694 0.75395 0.0
C2673 C 0.6835 0.29314 0.74498 0.0
C2674 C 0.66104 0.30063 0.69747 0.0
C2675 C 0.60789 0.29773 0.68363 0.0
C2676 C 0.62636 0.29836 0.69531 0.0
C2677 C 0.67865 0.28883 0.72526 0.0
C2678 C 0.661 0.294 0.71576 0.0
H2679 H 0.56165 0.3029 0.68905 0.0
H2680 H 0.59326 0.30952 0.7065 0.0
H2681 H 0.64436 0.30752 0.67313 0.0
H2682 H 0.71435 0.26391 0.71501 0.0
H2683 H 0.68665 0.27459 0.69952 0.0
C2684 C 0.99047 0.32134 0.8929 0.0
C2685 C 0.99236 0.30399 0.90059 0.0
C2686 C 0.99006 0.33776 0.90482 0.0
C2687 C 0.00398 0.35951 0.95389 0.0
H2688 H 0.97191 0.39593 0.93778 0.0
C2689 C 0.00574 0.43261 0.99625 0.0
C2690 C 0.00927 0.4479 0.98483 0.0
C2691 C 0.00026 0.41397 0.98778 0.0
C2692 C 0.98087 0.38585 0.9425 0.0
H2693 H 0.9952 0.29039 0.92698 0.0
H2694 H 0.9943 0.31911 0.94781 0.0
H2695 H 0.96916 0.36501 0.9196 0.0
H2696 H 0.00876 0.45593 0.95577 0.0
H2697 H 0.99894 0.42356 0.94104 0.0
H2698 H 0.0159 0.38059 0.97662 0.0
C2699 C 0.99336 0.31999 0.93251 0.0
C2700 C 0.97939 0.36819 0.93204 0.0
C2701 C 0.99384 0.30351 0.92056 0.0
C2702 C 0.00623 0.44439 0.9649 0.0
C2703 C 0.00049 0.42587 0.95648 0.0
C2704 C 0.00537 0.37716 0.96443 0.0
C2705 C 0.99141 0.3373 0.92477 0.0
C2706 C 0.99133 0.35503 0.93728 0.0
C2707 C 0.99788 0.41042 0.96779 0.0
C2708 C 0.9942 0.39069 0.95852 0.0
H2709 H 0.98935 0.32231 0.87761 0.0
H2710 H 0.98896 0.35092 0.89836 0.0
H2711 H 0.01349 0.34978 0.95825 0.0
H2712 H 0.00805 0.43494 0.01166 0.0
H2713 H 0.99824 0.4023 0.99682 0.0
C2714 C 0.94483 0.74538 0.15449 0.0
C2715 C 0.9641 0.75242 0.16062 0.0
C2716 C 0.93097 0.74371 0.1676 0.0
C2717 C 0.92171 0.76318 0.21518 0.0
H2718 H 0.87883 0.7217 0.20905 0.0
C2719 C 0.84577 0.73622 0.24996 0.0
C2720 C 0.83843 0.75345 0.24988 0.0
C2721 C 0.86327 0.73472 0.24246 0.0
C2722 C 0.89088 0.73319 0.21119 0.0
H2723 H 0.9839 0.76284 0.18552 0.0
H2724 H 0.95977 0.75978 0.20828 0.0
H2725 H 0.90512 0.72106 0.18871 0.0
H2726 H 0.84409 0.78287 0.24312 0.0
H2727 H 0.87441 0.78031 0.23022 0.0
H2728 H 0.90739 0.77542 0.23749 0.0
C2729 C 0.95534 0.75581 0.1933 0.0
C2730 C 0.90581 0.73297 0.19936 0.0
C2731 C 0.96919 0.75752 0.18021 0.0
C2732 C 0.84935 0.76938 0.24327 0.0
C2733 C 0.86683 0.76795 0.236 0.0
C2734 C 0.90681 0.7634 0.227 0.0
C2735 C 0.93605 0.74899 0.18715 0.0
C2736 C 0.92116 0.74819 0.20092 0.0
C2737 C 0.87377 0.7505 0.23505 0.0
C2738 C 0.891 0.74866 0.22481 0.0
H2739 H 0.94039 0.74127 0.13953 0.0
H2740 H 0.91619 0.73867 0.16234 0.0
H2741 H 0.93325 0.77518 0.21672 0.0
H2742 H 0.83759 0.72371 0.25493 0.0
H2743 H 0.86837 0.72113 0.24204 0.0
C2744 C 0.51605 0.30237 0.10668 0.0
C2745 C 0.49766 0.29183 0.1018 0.0
C2746 C 0.52219 0.31874 0.09751 0.0
C2747 C 0.51042 0.34219 0.0537 0.0
H2748 H 0.53664 0.38861 0.08227 0.0
C2749 C 0.5031 0.41709 0.03423 0.0
C2750 C 0.51957 0.43085 0.03481 0.0
C2751 C 0.50436 0.39898 0.03992 0.0
C2752 C 0.52969 0.37563 0.07405 0.0
H2753 H 0.47105 0.29071 0.08407 0.0
H2754 H 0.48148 0.31922 0.06863 0.0
H2755 H 0.53111 0.3591 0.09815 0.0
H2756 H 0.55033 0.43658 0.04141 0.0
H2757 H 0.55246 0.40476 0.05208 0.0
H2758 H 0.50791 0.35902 0.02997 0.0
C2759 C 0.49146 0.31461 0.07901 0.0
C2760 C 0.5265 0.35874 0.08312 0.0
C2761 C 0.4854 0.29831 0.08803 0.0
C2762 C 0.53747 0.42607 0.04066 0.0
C2763 C 0.53867 0.408 0.04685 0.0
C2764 C 0.5134 0.35906 0.04473 0.0
C2765 C 0.51002 0.32485 0.08335 0.0
C2766 C 0.51621 0.342 0.0732 0.0
C2767 C 0.52206 0.39442 0.04671 0.0
C2768 C 0.52253 0.37603 0.05499 0.0
H2769 H 0.52587 0.29771 0.11718 0.0
H2770 H 0.53658 0.32634 0.10119 0.0
H2771 H 0.50293 0.32941 0.04549 0.0
H2772 H 0.48914 0.4205 0.02982 0.0
H2773 H 0.49132 0.38882 0.03987 0.0
C2774 C 0.95618 0.25788 0.37065 0.0
C2775 C 0.96362 0.27083 0.38628 0.0
C2776 C 0.93732 0.25698 0.36309 0.0
C2777 C 0.89058 0.27117 0.37338 0.0
H2778 H 0.88073 0.26162 0.31842 0.0
C2779 C 0.81509 0.24832 0.33396 0.0
C2780 C 0.81167 0.25444 0.3157 0.0
C2781 C 0.83318 0.25306 0.34392 0.0
C2782 C 0.88323 0.26462 0.33376 0.0
H2783 H 0.95721 0.29217 0.40719 0.0
H2784 H 0.92427 0.29133 0.39348 0.0
H2785 H 0.91299 0.26379 0.333 0.0
H2786 H 0.82409 0.27153 0.29419 0.0
H2787 H 0.85554 0.28005 0.3117 0.0
H2788 H 0.86051 0.27183 0.37394 0.0
C2789 C 0.93288 0.28169 0.3871 0.0
C2790 C 0.90178 0.26563 0.34219 0.0
C2791 C 0.95173 0.28231 0.39487 0.0
C2792 C 0.82634 0.26637 0.30812 0.0
C2793 C 0.84438 0.27119 0.31811 0.0
C2794 C 0.87192 0.27011 0.3649 0.0
C2795 C 0.92551 0.26914 0.37096 0.0
C2796 C 0.90573 0.26877 0.36212 0.0
C2797 C 0.84818 0.26409 0.33585 0.0
C2798 C 0.86804 0.26669 0.34499 0.0
H2799 H 0.96501 0.24844 0.36424 0.0
H2800 H 0.93204 0.24672 0.35105 0.0
H2801 H 0.893 0.27338 0.38878 0.0
H2802 H 0.80405 0.23916 0.34022 0.0
H2803 H 0.83566 0.24727 0.3575 0.0
C2804 C 0.96952 0.69742 0.59838 0.0
C2805 C 0.97821 0.70011 0.61717 0.0
C2806 C 0.96543 0.67919 0.5888 0.0
C2807 C 0.96369 0.62742 0.59484 0.0
H2808 H 0.98401 0.62655 0.5453 0.0
C2809 C 0.99316 0.56309 0.56171 0.0
C2810 C 0.99058 0.55868 0.54183 0.0
C2811 C 0.98701 0.57921 0.57003 0.0
C2812 C 0.97789 0.62648 0.55892 0.0
H2813 H 0.98803 0.68567 0.64115 0.0
H2814 H 0.98112 0.65395 0.62441 0.0
H2815 H 0.98051 0.65684 0.56177 0.0
H2816 H 0.97898 0.56743 0.51514 0.0
H2817 H 0.96823 0.5957 0.52974 0.0
H2818 H 0.9618 0.59703 0.59223 0.0
C2819 C 0.97732 0.66585 0.61707 0.0
C2820 C 0.97585 0.64388 0.56837 0.0
C2821 C 0.98138 0.68407 0.62666 0.0
C2822 C 0.98127 0.5705 0.53049 0.0
C2823 C 0.97516 0.58671 0.53884 0.0
C2824 C 0.96574 0.61 0.58537 0.0
C2825 C 0.96996 0.66329 0.5978 0.0
C2826 C 0.96919 0.6446 0.58666 0.0
C2827 C 0.97815 0.59134 0.55869 0.0
C2828 C 0.97335 0.6094 0.56753 0.0
H2829 H 0.96674 0.70949 0.59073 0.0
H2830 H 0.95941 0.67764 0.57408 0.0
H2831 H 0.95824 0.62748 0.60878 0.0
H2832 H 0.00018 0.55422 0.57088 0.0
H2833 H 0.9898 0.5825 0.58532 0.0
C2834 C 0.5798 0.75834 0.87092 0.0
C2835 C 0.56517 0.76442 0.8595 0.0
C2836 C 0.59628 0.754 0.86295 0.0
C2837 C 0.62373 0.76367 0.82112 0.0
H2838 H 0.65089 0.72378 0.83799 0.0
C2839 C 0.69226 0.75069 0.78832 0.0
C2840 C 0.70783 0.75148 0.80203 0.0
C2841 C 0.67354 0.74791 0.79373 0.0
C2842 C 0.64339 0.73492 0.83311 0.0
H2843 H 0.55606 0.76986 0.83058 0.0
H2844 H 0.58429 0.76184 0.81676 0.0
H2845 H 0.62071 0.72809 0.8511 0.0
H2846 H 0.71605 0.74814 0.8317 0.0
H2847 H 0.68346 0.74322 0.84109 0.0
H2848 H 0.6464 0.77067 0.80335 0.0
C2849 C 0.58343 0.76099 0.83195 0.0
C2850 C 0.62619 0.73748 0.8407 0.0
C2851 C 0.56715 0.76554 0.83991 0.0
C2852 C 0.7043 0.74776 0.82085 0.0
C2853 C 0.68562 0.74483 0.82621 0.0
C2854 C 0.64076 0.76101 0.81346 0.0
C2855 C 0.59836 0.75546 0.84338 0.0
C2856 C 0.61625 0.75203 0.83492 0.0
C2857 C 0.6701 0.74569 0.81289 0.0
C2858 C 0.6509 0.74676 0.8195 0.0
H2859 H 0.57869 0.7573 0.88605 0.0
H2860 H 0.60759 0.74996 0.87222 0.0
H2861 H 0.61673 0.77528 0.81661 0.0
H2862 H 0.69454 0.7535 0.77371 0.0
H2863 H 0.6618 0.74837 0.78311 0.0
C2864 C 0.40417 0.51843 0.68986 0.0
C2865 C 0.41423 0.5191 0.70789 0.0
C2866 C 0.414 0.52155 0.67361 0.0
C2867 C 0.46212 0.53959 0.65758 0.0
H2868 H 0.44164 0.50815 0.61121 0.0
C2869 C 0.50413 0.52974 0.59022 0.0
C2870 C 0.49368 0.52963 0.57243 0.0
C2871 C 0.49496 0.53045 0.60716 0.0
C2872 C 0.44747 0.51718 0.62399 0.0
H2873 H 0.44253 0.52393 0.72304 0.0
H2874 H 0.45967 0.52882 0.69474 0.0
H2875 H 0.42453 0.50559 0.63972 0.0
H2876 H 0.46561 0.53136 0.55869 0.0
H2877 H 0.4498 0.53244 0.58802 0.0
H2878 H 0.48541 0.55072 0.64173 0.0
C2879 C 0.44417 0.52631 0.6931 0.0
C2880 C 0.43759 0.51579 0.64037 0.0
C2881 C 0.43432 0.5234 0.70937 0.0
C2882 C 0.4741 0.53112 0.57207 0.0
C2883 C 0.46498 0.5317 0.5889 0.0
C2884 C 0.47213 0.54083 0.64119 0.0
C2885 C 0.43417 0.52518 0.67493 0.0
C2886 C 0.4447 0.52702 0.6574 0.0
C2887 C 0.47517 0.53095 0.60661 0.0
C2888 C 0.46484 0.5297 0.62419 0.0
H2889 H 0.38868 0.51528 0.68825 0.0
H2890 H 0.40574 0.52098 0.65997 0.0
H2891 H 0.46796 0.54866 0.67031 0.0
H2892 H 0.5192 0.52856 0.59103 0.0
H2893 H 0.50318 0.52982 0.62061 0.0
C2894 C 0.76102 0.17621 0.96705 0.0
C2895 C 0.75875 0.15644 0.96214 0.0
C2896 C 0.76015 0.18888 0.95299 0.0
C2897 C 0.74368 0.19129 0.90218 0.0
H2898 H 0.77668 0.2404 0.90951 0.0
C2899 C 0.77275 0.25618 0.85457 0.0
C2900 C 0.75598 0.2563 0.84267 0.0
C2901 C 0.77228 0.24565 0.8705 0.0
C2902 C 0.76744 0.22672 0.90715 0.0
H2903 H 0.75391 0.13452 0.93851 0.0
H2904 H 0.75306 0.15674 0.91381 0.0
H2905 H 0.77845 0.21775 0.93341 0.0
H2906 H 0.7253 0.24681 0.83904 0.0
H2907 H 0.72433 0.22906 0.86729 0.0
H2908 H 0.73341 0.19987 0.87543 0.0
C2909 C 0.75506 0.1624 0.92863 0.0
C2910 C 0.76827 0.21378 0.921 0.0
C2911 C 0.75569 0.14965 0.94277 0.0
C2912 C 0.7385 0.24685 0.84784 0.0
C2913 C 0.73799 0.2365 0.86392 0.0
C2914 C 0.74301 0.20415 0.88821 0.0
C2915 C 0.75723 0.18219 0.93359 0.0
C2916 C 0.75641 0.19588 0.9187 0.0
C2917 C 0.75497 0.2352 0.87506 0.0
C2918 C 0.75491 0.22202 0.89049 0.0
H2919 H 0.76313 0.18197 0.98184 0.0
H2920 H 0.76145 0.20393 0.95742 0.0
H2921 H 0.73414 0.17777 0.90002 0.0
H2922 H 0.78648 0.26324 0.85096 0.0
H2923 H 0.78568 0.24489 0.87861 0.0
C2924 C 0.11086 0.47818 0.19819 0.0
C2925 C 0.10252 0.47678 0.21556 0.0
C2926 C 0.09964 0.47312 0.18089 0.0
C2927 C 0.05024 0.47218 0.16164 0.0
H2928 H 0.06933 0.45363 0.11491 0.0
C2929 C 0.01255 0.47771 0.08663 0.0
C2930 C 0.02529 0.48653 0.07443 0.0
C2931 C 0.01958 0.47116 0.10365 0.0
C2932 C 0.06373 0.4587 0.12787 0.0
H2933 H 0.07625 0.46752 0.22849 0.0
H2934 H 0.05675 0.45854 0.19829 0.0
H2935 H 0.08668 0.45097 0.14558 0.0
H2936 H 0.05538 0.495 0.07036 0.0
H2937 H 0.0674 0.48363 0.09962 0.0
H2938 H 0.02779 0.48072 0.14385 0.0
C2939 C 0.07185 0.46388 0.19803 0.0
C2940 C 0.07369 0.45721 0.1454 0.0
C2941 C 0.08307 0.46894 0.21532 0.0
C2942 C 0.0451 0.48831 0.07939 0.0
C2943 C 0.05205 0.48159 0.09611 0.0
C2944 C 0.04027 0.47365 0.14408 0.0
C2945 C 0.07987 0.46653 0.18063 0.0
C2946 C 0.06746 0.4646 0.16244 0.0
C2947 C 0.03943 0.47305 0.1085 0.0
C2948 C 0.04736 0.46762 0.127 0.0
H2949 H 0.12581 0.48416 0.19791 0.0
H2950 H 0.10625 0.4755 0.16774 0.0
H2951 H 0.04512 0.47817 0.17448 0.0
H2952 H 0.99722 0.47613 0.08318 0.0
H2953 H 0.00954 0.46467 0.11301 0.0
C2954 C 0.77008 0.84897 0.47442 0.0
C2955 C 0.764 0.86684 0.47555 0.0
C2956 C 0.77026 0.83881 0.45669 0.0
C2957 C 0.76857 0.84616 0.40468 0.0
H2958 H 0.76205 0.79098 0.399 0.0
C2959 C 0.77564 0.80792 0.33198 0.0
C2960 C 0.76323 0.79082 0.3265 0.0
C2961 C 0.77774 0.81567 0.35094 0.0
C2962 C 0.7637 0.80639 0.40022 0.0
H2963 H 0.75241 0.88769 0.45927 0.0
H2964 H 0.75148 0.86956 0.42853 0.0
H2965 H 0.75966 0.80729 0.42999 0.0
H2966 H 0.74358 0.76805 0.33632 0.0
H2967 H 0.74629 0.782 0.36923 0.0
H2968 H 0.77121 0.84536 0.3748 0.0
C2969 C 0.75705 0.86367 0.4411 0.0
C2970 C 0.76263 0.81581 0.41816 0.0
C2971 C 0.75736 0.87402 0.45875 0.0
C2972 C 0.75345 0.78116 0.34035 0.0
C2973 C 0.75508 0.7892 0.35924 0.0
C2974 C 0.7692 0.83676 0.38673 0.0
C2975 C 0.76393 0.84611 0.43972 0.0
C2976 C 0.76501 0.83586 0.42065 0.0
C2977 C 0.76687 0.80686 0.36471 0.0
C2978 C 0.76684 0.81673 0.38417 0.0
H2979 H 0.77546 0.84321 0.48717 0.0
H2980 H 0.77592 0.82554 0.45632 0.0
H2981 H 0.77096 0.86159 0.40595 0.0
H2982 H 0.78339 0.81554 0.32149 0.0
H2983 H 0.78752 0.82887 0.3546 0.0
C2984 C 0.4216 0.50209 0.81384 0.0
C2985 C 0.40146 0.49838 0.81273 0.0
C2986 C 0.43248 0.50122 0.83109 0.0
C2987 C 0.42902 0.48161 0.87831 0.0
H2988 H 0.47256 0.52083 0.89471 0.0
C2989 C 0.45808 0.49962 0.95673 0.0
C2990 C 0.4779 0.50465 0.96137 0.0
C2991 C 0.45057 0.49609 0.93772 0.0
C2992 C 0.46066 0.50957 0.89019 0.0
H2993 H 0.37706 0.49097 0.82908 0.0
H2994 H 0.39593 0.48978 0.85901 0.0
H2995 H 0.45587 0.5206 0.86309 0.0
H2996 H 0.50549 0.50937 0.94976 0.0
H2997 H 0.49226 0.50329 0.91631 0.0
H2998 H 0.43344 0.47095 0.90563 0.0
C2999 C 0.40337 0.49302 0.8465 0.0
C3000 C 0.45106 0.50944 0.87207 0.0
C3001 C 0.39252 0.49389 0.82932 0.0
C3002 C 0.49015 0.5054 0.94659 0.0
C3003 C 0.48258 0.50209 0.92747 0.0
C3004 C 0.43856 0.48178 0.89641 0.0
C3005 C 0.42348 0.49658 0.84761 0.0
C3006 C 0.43486 0.49571 0.86608 0.0
C3007 C 0.46267 0.49769 0.92285 0.0
C3008 C 0.45422 0.496 0.90272 0.0
H3009 H 0.429 0.50553 0.80137 0.0
H3010 H 0.44794 0.50392 0.83141 0.0
H3011 H 0.41688 0.47055 0.874 0.0
H3012 H 0.44829 0.4989 0.96781 0.0
H3013 H 0.43516 0.49293 0.93467 0.0
C3014 C 0.78718 0.15543 0.08535 0.0
C3015 C 0.7894 0.16435 0.06836 0.0
C3016 C 0.79115 0.16616 0.10305 0.0
C3017 C 0.78757 0.21291 0.12354 0.0
H3018 H 0.81649 0.20047 0.16844 0.0
C3019 C 0.78548 0.25488 0.19589 0.0
C3020 C 0.78401 0.244 0.21169 0.0
C3021 C 0.79068 0.24707 0.17862 0.0
C3022 C 0.80819 0.20407 0.1561 0.0
H3023 H 0.79859 0.19127 0.05663 0.0
H3024 H 0.80507 0.2099 0.08745 0.0
H3025 H 0.81697 0.18208 0.13787 0.0
H3026 H 0.78813 0.2168 0.22201 0.0
H3027 H 0.79599 0.20296 0.19196 0.0
H3028 H 0.77765 0.23394 0.14162 0.0
C3029 C 0.80032 0.19467 0.08706 0.0
C3030 C 0.8086 0.19358 0.1386 0.0
C3031 C 0.79664 0.18395 0.06944 0.0
C3032 C 0.78881 0.22554 0.21009 0.0
C3033 C 0.79362 0.21764 0.1928 0.0
C3034 C 0.78683 0.22313 0.14105 0.0
C3035 C 0.79715 0.18597 0.10397 0.0
C3036 C 0.79812 0.19781 0.12224 0.0
C3037 C 0.79421 0.22811 0.17666 0.0
C3038 C 0.79689 0.21868 0.15767 0.0
H3039 H 0.78166 0.14036 0.08496 0.0
H3040 H 0.78852 0.15916 0.11594 0.0
H3041 H 0.77919 0.2163 0.11113 0.0
H3042 H 0.78212 0.26923 0.19669 0.0
H3043 H 0.79147 0.25579 0.16667 0.0
C3044 C 0.09435 0.51652 0.31475 0.0
C3045 C 0.11427 0.52244 0.31783 0.0
C3046 C 0.08251 0.51938 0.32925 0.0
C3047 C 0.0802 0.5459 0.37591 0.0
H3048 H 0.04529 0.50076 0.38531 0.0
C3049 C 0.04751 0.51207 0.44369 0.0
C3050 C 0.03803 0.52619 0.45175 0.0
C3051 C 0.05332 0.51303 0.42535 0.0
C3052 C 0.05478 0.51355 0.38269 0.0
H3053 H 0.13724 0.53665 0.33843 0.0
H3054 H 0.11652 0.54136 0.36388 0.0
H3055 H 0.06283 0.50052 0.35692 0.0
H3056 H 0.02691 0.5523 0.447 0.0
H3057 H 0.0377 0.5543 0.4147 0.0
H3058 H 0.07267 0.55854 0.40228 0.0
C3059 C 0.1101 0.53467 0.35013 0.0
C3060 C 0.06476 0.51347 0.36642 0.0
C3061 C 0.12199 0.53178 0.33561 0.0
C3062 C 0.03416 0.54122 0.44102 0.0
C3063 C 0.04036 0.5424 0.42267 0.0
C3064 C 0.07007 0.54602 0.39217 0.0
C3065 C 0.09028 0.52825 0.34716 0.0
C3066 C 0.07797 0.52944 0.36313 0.0
C3067 C 0.05002 0.52829 0.41475 0.0
C3068 C 0.05774 0.52963 0.39595 0.0
H3069 H 0.08783 0.50944 0.30119 0.0
H3070 H 0.06726 0.51447 0.32649 0.0
H3071 H 0.09014 0.55848 0.37359 0.0
H3072 H 0.05057 0.50025 0.4516 0.0
H3073 H 0.06093 0.5021 0.41967 0.0
C3074 C 0.75285 0.86567 0.59984 0.0
C3075 C 0.74888 0.85596 0.58155 0.0
C3076 C 0.75019 0.85584 0.61615 0.0
C3077 C 0.74923 0.80792 0.63246 0.0
H3078 H 0.72899 0.82955 0.67717 0.0
C3079 C 0.74373 0.76873 0.70156 0.0
C3080 C 0.74937 0.78018 0.71876 0.0
C3081 C 0.74107 0.77709 0.68436 0.0
C3082 C 0.73482 0.82335 0.66486 0.0
H3083 H 0.73843 0.82843 0.56605 0.0
H3084 H 0.73382 0.81134 0.59449 0.0
H3085 H 0.72919 0.84611 0.64811 0.0
H3086 H 0.75613 0.80943 0.73136 0.0
H3087 H 0.75186 0.82384 0.70161 0.0
H3088 H 0.7554 0.78546 0.64932 0.0
C3089 C 0.73913 0.8265 0.59622 0.0
C3090 C 0.7349 0.83285 0.64819 0.0
C3091 C 0.74167 0.83634 0.57992 0.0
C3092 C 0.75182 0.80012 0.71841 0.0
C3093 C 0.7492 0.80844 0.7013 0.0
C3094 C 0.74927 0.79847 0.64917 0.0
C3095 C 0.74362 0.83607 0.61453 0.0
C3096 C 0.74232 0.82537 0.63187 0.0
C3097 C 0.74395 0.79708 0.684 0.0
C3098 C 0.74232 0.8062 0.66569 0.0
H3099 H 0.75846 0.88077 0.60158 0.0
H3100 H 0.75393 0.86361 0.63005 0.0
H3101 H 0.75526 0.80187 0.62019 0.0
H3102 H 0.74168 0.75334 0.70133 0.0
H3103 H 0.7368 0.76789 0.67134 0.0
C3104 C 0.69215 0.41427 0.49066 0.0
C3105 C 0.70228 0.40469 0.50368 0.0
C3106 C 0.67589 0.42153 0.4957 0.0
C3107 C 0.65477 0.44238 0.53475 0.0
H3108 H 0.60777 0.43074 0.50138 0.0
C3109 C 0.58649 0.47761 0.54567 0.0
C3110 C 0.57647 0.48131 0.52877 0.0
C3111 C 0.60201 0.46757 0.54479 0.0
C3112 C 0.62084 0.4343 0.51077 0.0
H3113 H 0.70345 0.39514 0.53217 0.0
H3114 H 0.67504 0.40842 0.5412 0.0
H3115 H 0.63409 0.41336 0.49572 0.0
H3116 H 0.57552 0.47891 0.4979 0.0
H3117 H 0.60282 0.46233 0.49634 0.0
H3118 H 0.64186 0.46406 0.54923 0.0
C3119 C 0.67965 0.40999 0.52702 0.0
C3120 C 0.6358 0.42421 0.5076 0.0
C3121 C 0.69574 0.4023 0.52181 0.0
C3122 C 0.58285 0.47597 0.51113 0.0
C3123 C 0.59839 0.46628 0.51025 0.0
C3124 C 0.63982 0.45273 0.5378 0.0
C3125 C 0.66967 0.4197 0.51399 0.0
C3126 C 0.65303 0.42845 0.51927 0.0
C3127 C 0.60773 0.46132 0.527 0.0
C3128 C 0.6229 0.44915 0.52547 0.0
H3129 H 0.69691 0.41632 0.47661 0.0
H3130 H 0.66846 0.42907 0.48545 0.0
H3131 H 0.66803 0.44593 0.54386 0.0
H3132 H 0.58172 0.48154 0.55943 0.0
H3133 H 0.60897 0.46402 0.55795 0.0
C3134 C 0.21203 0.09789 0.50605 0.0
C3135 C 0.21484 0.11381 0.49544 0.0
C3136 C 0.19372 0.0878 0.50687 0.0
C3137 C 0.15229 0.07817 0.51596 0.0
H3138 H 0.11894 0.06111 0.46977 0.0
C3139 C 0.07278 0.04769 0.51745 0.0
C3140 C 0.06601 0.03034 0.50649 0.0
C3141 C 0.09085 0.05777 0.5154 0.0
C3142 C 0.12816 0.06574 0.48274 0.0
H3143 H 0.20091 0.13242 0.47816 0.0
H3144 H 0.16855 0.11438 0.47919 0.0
H3145 H 0.15082 0.07954 0.46764 0.0
H3146 H 0.0728 0.01013 0.4845 0.0
H3147 H 0.10451 0.02803 0.48074 0.0
H3148 H 0.12974 0.06458 0.53111 0.0
C3149 C 0.18061 0.10962 0.48667 0.0
C3150 C 0.14627 0.0764 0.48154 0.0
C3151 C 0.199 0.11994 0.48612 0.0
C3152 C 0.07765 0.02342 0.4932 0.0
C3153 C 0.09572 0.03369 0.49096 0.0
C3154 C 0.13416 0.0678 0.51718 0.0
C3155 C 0.17785 0.09347 0.49708 0.0
C3156 C 0.15849 0.08264 0.49816 0.0
C3157 C 0.10253 0.05086 0.50219 0.0
C3158 C 0.12191 0.06148 0.50061 0.0
H3159 H 0.22407 0.09321 0.5137 0.0
H3160 H 0.19199 0.07539 0.51495 0.0
H3161 H 0.16142 0.08287 0.52898 0.0
H3162 H 0.06419 0.05345 0.52781 0.0
H3163 H 0.09568 0.07106 0.5241 0.0
C3164 C 0.15538 0.94705 0.76784 0.0
C3165 C 0.15726 0.955 0.78687 0.0
C3166 C 0.16271 0.93029 0.76307 0.0
C3167 C 0.17504 0.8872 0.78162 0.0
H3168 H 0.21567 0.88974 0.7476 0.0
C3169 C 0.22231 0.82925 0.77866 0.0
C3170 C 0.22888 0.82342 0.76125 0.0
C3171 C 0.21341 0.84535 0.7804 0.0
C3172 C 0.20412 0.88861 0.75685 0.0
H3173 H 0.16755 0.95136 0.81588 0.0
H3174 H 0.17955 0.92167 0.80764 0.0
H3175 H 0.1988 0.91698 0.75262 0.0
H3176 H 0.23173 0.83003 0.73205 0.0
H3177 H 0.21545 0.85801 0.73481 0.0
H3178 H 0.17979 0.85887 0.78567 0.0
C3179 C 0.17272 0.92855 0.79642 0.0
C3180 C 0.19451 0.90424 0.75974 0.0
C3181 C 0.16585 0.9455 0.80111 0.0
C3182 C 0.22689 0.83435 0.74567 0.0
C3183 C 0.21756 0.85036 0.7473 0.0
C3184 C 0.18434 0.87148 0.77848 0.0
C3185 C 0.17155 0.92099 0.77733 0.0
C3186 C 0.18018 0.90379 0.77248 0.0
C3187 C 0.21035 0.85584 0.76463 0.0
C3188 C 0.1994 0.87212 0.76647 0.0
H3189 H 0.14903 0.95422 0.75656 0.0
H3190 H 0.16162 0.92467 0.74826 0.0
H3191 H 0.16389 0.88645 0.79135 0.0
H3192 H 0.22388 0.82122 0.79099 0.0
H3193 H 0.20878 0.84943 0.79418 0.0
C3194 C 0.31367 0.88067 0.99245 0.0
C3195 C 0.30092 0.88842 0.00381 0.0
C3196 C 0.33289 0.88917 0.9936 0.0
C3197 C 0.36526 0.93417 0.01187 0.0
H3198 H 0.40495 0.9026 0.00807 0.0
C3199 C 0.44501 0.96728 0.01792 0.0
C3200 C 0.45749 0.95807 0.02899 0.0
C3201 C 0.42621 0.95845 0.01251 0.0
C3202 C 0.39404 0.91162 0.00923 0.0
H3203 H 0.2982 0.90988 0.02636 0.0
H3204 H 0.33174 0.92439 0.02889 0.0
H3205 H 0.37149 0.8878 0.0038 0.0
H3206 H 0.46017 0.93228 0.04282 0.0
H3207 H 0.42731 0.91713 0.03386 0.0
H3208 H 0.38777 0.95786 0.01827 0.0
C3209 C 0.32693 0.91243 0.01837 0.0
C3210 C 0.37482 0.90315 0.00653 0.0
C3211 C 0.30774 0.9041 0.01701 0.0
C3212 C 0.45092 0.93974 0.03424 0.0
C3213 C 0.43209 0.93098 0.02897 0.0
C3214 C 0.38445 0.94261 0.01469 0.0
C3215 C 0.33974 0.90523 0.00653 0.0
C3216 C 0.36018 0.9143 0.00807 0.0
C3217 C 0.41945 0.94029 0.01817 0.0
C3218 C 0.39909 0.93142 0.01366 0.0
H3219 H 0.30866 0.86834 0.98242 0.0
H3220 H 0.3423 0.88331 0.98418 0.0
H3221 H 0.35442 0.94326 0.01293 0.0
H3222 H 0.44973 0.98135 0.0135 0.0
H3223 H 0.41695 0.9659 0.00393 0.0
C3224 C 0.87011 0.57415 0.76412 0.0
C3225 C 0.86276 0.56509 0.77967 0.0
C3226 C 0.8627 0.58987 0.75762 0.0
C3227 C 0.82009 0.61426 0.75979 0.0
H3228 H 0.85439 0.65792 0.7461 0.0
C3229 C 0.79233 0.68345 0.7413 0.0
C3230 C 0.8031 0.69999 0.75108 0.0
C3231 C 0.79966 0.66623 0.74055 0.0
C3232 C 0.8446 0.64581 0.74982 0.0
H3233 H 0.84216 0.56585 0.80087 0.0
H3234 H 0.82968 0.59341 0.78989 0.0
H3235 H 0.86715 0.62937 0.75414 0.0
H3236 H 0.83035 0.71172 0.7668 0.0
H3237 H 0.8429 0.68198 0.7657 0.0
H3238 H 0.79772 0.63108 0.7565 0.0
C3239 C 0.8408 0.58809 0.78236 0.0
C3240 C 0.8519 0.62937 0.75426 0.0
C3241 C 0.84813 0.57238 0.7888 0.0
C3242 C 0.82161 0.69921 0.75926 0.0
C3243 C 0.82892 0.68214 0.75846 0.0
C3244 C 0.81281 0.63073 0.75542 0.0
C3245 C 0.84782 0.5969 0.76656 0.0
C3246 C 0.83981 0.61359 0.75981 0.0
C3247 C 0.81793 0.66534 0.74944 0.0
C3248 C 0.82507 0.64689 0.7509 0.0
H3249 H 0.88127 0.56884 0.75664 0.0
H3250 H 0.86837 0.59625 0.74535 0.0
H3251 H 0.8103 0.60219 0.76359 0.0
H3252 H 0.77803 0.68364 0.73482 0.0
H3253 H 0.79091 0.65355 0.73334 0.0
C3254 C 0.82428 0.60149 0.98386 0.0
C3255 C 0.81579 0.61078 0.99843 0.0
C3256 C 0.84098 0.5939 0.98795 0.0
C3257 C 0.86592 0.57234 0.0249 0.0
H3258 H 0.90886 0.5809 0.99405 0.0
C3259 C 0.93428 0.53642 0.03582 0.0
C3260 C 0.94315 0.53196 0.0193 0.0
C3261 C 0.91875 0.54649 0.03478 0.0
C3262 C 0.8969 0.5781 0.00265 0.0
H3263 H 0.8182 0.61962 0.02871 0.0
H3264 H 0.84738 0.60588 0.03597 0.0
H3265 H 0.88252 0.59879 0.98954 0.0
H3266 H 0.94204 0.53324 0.98865 0.0
H3267 H 0.91459 0.54978 0.98664 0.0
H3268 H 0.87988 0.55103 0.03746 0.0
C3269 C 0.84113 0.60473 0.02135 0.0
C3270 C 0.8819 0.58852 0.00016 0.0
C3271 C 0.82459 0.61272 0.01717 0.0
C3272 C 0.93558 0.53669 0.00165 0.0
C3273 C 0.91997 0.5464 0.00055 0.0
C3274 C 0.88085 0.56167 0.02723 0.0
C3275 C 0.84935 0.5951 0.00678 0.0
C3276 C 0.86614 0.58555 0.01103 0.0
C3277 C 0.91173 0.55204 0.01715 0.0
C3278 C 0.89636 0.56415 0.01584 0.0
H3279 H 0.81777 0.59975 0.9693 0.0
H3280 H 0.84696 0.58645 0.97648 0.0
H3281 H 0.85383 0.5697 0.03337 0.0
H3282 H 0.93999 0.53307 0.04963 0.0
H3283 H 0.91279 0.5506 0.04786 0.0
C3284 C 0.15294 0.07081 0.80325 0.0
C3285 C 0.15784 0.05454 0.79364 0.0
C3286 C 0.16428 0.08864 0.80261 0.0
C3287 C 0.19809 0.12223 0.80607 0.0
H3288 H 0.20886 0.13658 0.7555 0.0
C3289 C 0.24848 0.19146 0.79119 0.0
C3290 C 0.24059 0.20209 0.77748 0.0
C3291 C 0.23924 0.17319 0.79411 0.0
C3292 C 0.206 0.13276 0.76971 0.0
H3293 H 0.1775 0.04403 0.77499 0.0
H3294 H 0.19717 0.0751 0.7737 0.0
H3295 H 0.1909 0.10521 0.75915 0.0
H3296 H 0.21691 0.20182 0.75601 0.0
H3297 H 0.2011 0.17002 0.76091 0.0
H3298 H 0.21316 0.14997 0.81655 0.0
C3299 C 0.18491 0.07413 0.78205 0.0
C3300 C 0.19582 0.11478 0.77181 0.0
C3301 C 0.17376 0.05637 0.7829 0.0
C3302 C 0.2234 0.19404 0.76669 0.0
C3303 C 0.21436 0.17577 0.76942 0.0
C3304 C 0.20852 0.1402 0.80397 0.0
C3305 C 0.18028 0.09045 0.79186 0.0
C3306 C 0.1916 0.10939 0.78997 0.0
C3307 C 0.22214 0.16515 0.78315 0.0
C3308 C 0.21234 0.14571 0.78573 0.0
H3309 H 0.14048 0.06969 0.81131 0.0
H3310 H 0.16027 0.10106 0.8101 0.0
H3311 H 0.19515 0.11833 0.82023 0.0
H3312 H 0.26166 0.19732 0.79977 0.0
H3313 H 0.24557 0.16524 0.80473 0.0
C3314 C 0.38509 0.95918 0.29427 0.0
C3315 C 0.378 0.97139 0.28182 0.0
C3316 C 0.37612 0.94025 0.29399 0.0
C3317 C 0.33085 0.90804 0.27572 0.0
H3318 H 0.36145 0.86828 0.28403 0.0
C3319 C 0.29608 0.82916 0.27268 0.0
C3320 C 0.30561 0.81605 0.2629 0.0
C3321 C 0.3051 0.84793 0.2776 0.0
C3322 C 0.35269 0.8792 0.28161 0.0
H3323 H 0.35727 0.97335 0.25823 0.0
H3324 H 0.34197 0.94023 0.25716 0.0
H3325 H 0.37688 0.90138 0.28668 0.0
H3326 H 0.33222 0.81222 0.25098 0.0
H3327 H 0.3477 0.84494 0.25905 0.0
H3328 H 0.30684 0.88581 0.26962 0.0
C3329 C 0.35374 0.94531 0.26788 0.0
C3330 C 0.36151 0.89825 0.28338 0.0
C3331 C 0.36252 0.96426 0.2684 0.0
C3332 C 0.32448 0.82196 0.25855 0.0
C3333 C 0.33343 0.84073 0.26332 0.0
C3334 C 0.32206 0.88901 0.2738 0.0
C3335 C 0.36026 0.93309 0.28082 0.0
C3336 C 0.35074 0.91291 0.2802 0.0
C3337 C 0.3238 0.85402 0.27272 0.0
C3338 C 0.33291 0.87432 0.27645 0.0
H3339 H 0.39727 0.96442 0.30451 0.0
H3340 H 0.38146 0.93134 0.30426 0.0
H3341 H 0.32202 0.91891 0.2734 0.0
H3342 H 0.28158 0.82498 0.27637 0.0
H3343 H 0.29738 0.85771 0.28511 0.0
C3344 C 0.49361 0.31115 0.58987 0.0
C3345 C 0.50122 0.31 0.6087 0.0
C3346 C 0.49191 0.32879 0.58309 0.0
C3347 C 0.48842 0.37831 0.59841 0.0
H3348 H 0.50877 0.3898 0.55032 0.0
C3349 C 0.50676 0.45475 0.57763 0.0
C3350 C 0.50568 0.45846 0.55832 0.0
C3351 C 0.50272 0.43617 0.58284 0.0
C3352 C 0.5026 0.38673 0.56355 0.0
H3353 H 0.5128 0.32655 0.63521 0.0
H3354 H 0.50961 0.35742 0.62335 0.0
H3355 H 0.509 0.35825 0.56147 0.0
H3356 H 0.49839 0.44569 0.52933 0.0
H3357 H 0.49086 0.41306 0.53846 0.0
H3358 H 0.48196 0.40669 0.60055 0.0
C3359 C 0.50498 0.34458 0.6139 0.0
C3360 C 0.50286 0.36867 0.56999 0.0
C3361 C 0.50691 0.32693 0.62065 0.0
C3362 C 0.4994 0.44326 0.54433 0.0
C3363 C 0.49527 0.42457 0.54957 0.0
C3364 C 0.48795 0.39629 0.59187 0.0
C3365 C 0.49756 0.34568 0.59502 0.0
C3366 C 0.49612 0.36441 0.58765 0.0
C3367 C 0.49734 0.42077 0.56888 0.0
C3368 C 0.49543 0.40088 0.57456 0.0
H3369 H 0.48914 0.29842 0.58023 0.0
H3370 H 0.48605 0.32921 0.56852 0.0
H3371 H 0.48282 0.37528 0.61192 0.0
H3372 H 0.51146 0.46614 0.58881 0.0
H3373 H 0.50473 0.43387 0.59781 0.0
C3374 C 0.43273 0.74765 0.37574 0.0
C3375 C 0.44691 0.74127 0.36534 0.0
C3376 C 0.41387 0.74533 0.36766 0.0
C3377 C 0.38034 0.72183 0.32625 0.0
H3378 H 0.35733 0.76737 0.33474 0.0
C3379 C 0.31532 0.73948 0.27923 0.0
C3380 C 0.30194 0.74834 0.28883 0.0
C3381 C 0.33205 0.73593 0.28922 0.0
C3382 C 0.36339 0.75441 0.33241 0.0
H3383 H 0.4524 0.7251 0.33973 0.0
H3384 H 0.41957 0.72162 0.32511 0.0
H3385 H 0.38776 0.76535 0.35173 0.0
H3386 H 0.29496 0.75925 0.31656 0.0
H3387 H 0.32386 0.75291 0.33388 0.0
H3388 H 0.35585 0.71119 0.30652 0.0
C3389 C 0.42286 0.7286 0.3394 0.0
C3390 C 0.38087 0.75321 0.34222 0.0
C3391 C 0.44173 0.73088 0.34757 0.0
C3392 C 0.30516 0.75276 0.30867 0.0
C3393 C 0.32175 0.74915 0.31861 0.0
C3394 C 0.36276 0.72306 0.31637 0.0
C3395 C 0.40885 0.73646 0.34907 0.0
C3396 C 0.38964 0.73694 0.33927 0.0
C3397 C 0.3356 0.74112 0.30896 0.0
C3398 C 0.35411 0.73938 0.31939 0.0
H3399 H 0.43638 0.75507 0.38982 0.0
H3400 H 0.40333 0.75093 0.37582 0.0
H3401 H 0.38658 0.70901 0.32376 0.0
H3402 H 0.31317 0.73587 0.26395 0.0
H3403 H 0.34253 0.7298 0.2814 0.0
C3404 C 0.02826 0.71067 0.1068 0.0
C3405 C 0.02057 0.71444 0.12415 0.0
C3406 C 0.02927 0.69192 0.10009 0.0
C3407 C 0.00647 0.64275 0.1059 0.0
H3408 H 0.0471 0.62827 0.07688 0.0
C3409 C 0.00956 0.56452 0.08467 0.0
C3410 C 0.012 0.55969 0.06543 0.0
C3411 C 0.01294 0.5835 0.09216 0.0
C3412 C 0.03561 0.63217 0.08486 0.0
H3413 H 0.00993 0.70222 0.14919 0.0
H3414 H 0.01175 0.66941 0.13765 0.0
H3415 H 0.04892 0.6614 0.08984 0.0
H3416 H 0.02093 0.57092 0.0392 0.0
H3417 H 0.02684 0.6043 0.05237 0.0
H3418 H 0.99317 0.61363 0.10098 0.0
C3419 C 0.01629 0.68074 0.12877 0.0
C3420 C 0.03662 0.65112 0.09226 0.0
C3421 C 0.0153 0.69947 0.13544 0.0
C3422 C 0.01891 0.5742 0.05409 0.0
C3423 C 0.02232 0.59329 0.06162 0.0
C3424 C 0.00552 0.62388 0.09861 0.0
C3425 C 0.02283 0.67668 0.11079 0.0
C3426 C 0.02208 0.6566 0.10295 0.0
C3427 C 0.01885 0.59814 0.08059 0.0
C3428 C 0.02011 0.61834 0.08811 0.0
H3429 H 0.03313 0.72219 0.09826 0.0
H3430 H 0.03441 0.68935 0.0862 0.0
H3431 H 0.99478 0.64651 0.11364 0.0
H3432 H 0.00447 0.55367 0.09388 0.0
H3433 H 0.01053 0.58678 0.10694 0.0
C3434 C 0.05959 0.25755 0.86131 0.0
C3435 C 0.04503 0.26565 0.85189 0.0
C3436 C 0.07775 0.25907 0.85459 0.0
C3437 C 0.10209 0.26688 0.81074 0.0
H3438 H 0.14795 0.27209 0.84551 0.0
C3439 C 0.17871 0.27065 0.78546 0.0
C3440 C 0.19009 0.25888 0.79457 0.0
C3441 C 0.16121 0.27346 0.79227 0.0
C3442 C 0.13525 0.27058 0.83563 0.0
H3443 H 0.03844 0.28229 0.82836 0.0
H3444 H 0.07016 0.28517 0.81691 0.0
H3445 H 0.11718 0.27382 0.85819 0.0
H3446 H 0.19197 0.24076 0.81789 0.0
H3447 H 0.16166 0.24566 0.82962 0.0
H3448 H 0.12025 0.26346 0.78819 0.0
C3449 C 0.06742 0.27732 0.82926 0.0
C3450 C 0.11762 0.27152 0.84289 0.0
C3451 C 0.04925 0.27576 0.83592 0.0
C3452 C 0.1836 0.24996 0.81052 0.0
C3453 C 0.16628 0.25287 0.81737 0.0
C3454 C 0.11977 0.26602 0.80347 0.0
C3455 C 0.08182 0.26878 0.83836 0.0
C3456 C 0.10077 0.26934 0.83056 0.0
C3457 C 0.15492 0.2647 0.8084 0.0
C3458 C 0.13647 0.2675 0.81587 0.0
H3459 H 0.05686 0.2496 0.87359 0.0
H3460 H 0.08842 0.2521 0.86181 0.0
H3461 H 0.08938 0.26492 0.80084 0.0
H3462 H 0.18334 0.27773 0.77315 0.0
H3463 H 0.15274 0.2827 0.78511 0.0
C3464 C 0.52281 0.7177 0.93801 0.0
C3465 C 0.51928 0.71754 0.91811 0.0
C3466 C 0.52136 0.70062 0.94674 0.0
C3467 C 0.52515 0.65054 0.93808 0.0
H3468 H 0.4937 0.64248 0.98033 0.0
C3469 C 0.51098 0.57717 0.9664 0.0
C3470 C 0.51063 0.57607 0.98615 0.0
C3471 C 0.51079 0.59451 0.95854 0.0
C3472 C 0.50276 0.64458 0.96874 0.0
H3473 H 0.51173 0.69944 0.89171 0.0
H3474 H 0.50973 0.66952 0.90697 0.0
H3475 H 0.49654 0.67284 0.96586 0.0
H3476 H 0.50923 0.59201 0.0132 0.0
H3477 H 0.50967 0.62273 0.99957 0.0
H3478 H 0.532 0.62276 0.94116 0.0
C3479 C 0.51344 0.68289 0.91577 0.0
C3480 C 0.50431 0.66193 0.96042 0.0
C3481 C 0.51456 0.69998 0.90707 0.0
C3482 C 0.50944 0.59253 0.9979 0.0
C3483 C 0.50965 0.61008 0.99005 0.0
C3484 C 0.52387 0.63336 0.94655 0.0
C3485 C 0.51668 0.68307 0.9357 0.0
C3486 C 0.51536 0.66496 0.94489 0.0
C3487 C 0.51072 0.61133 0.97028 0.0
C3488 C 0.51245 0.63001 0.96183 0.0
H3489 H 0.52637 0.73103 0.9469 0.0
H3490 H 0.52407 0.70111 0.96211 0.0
H3491 H 0.53401 0.65266 0.92632 0.0
H3492 H 0.51157 0.56459 0.95697 0.0
H3493 H 0.51094 0.59471 0.94321 0.0
C3494 C 0.0582 0.73893 0.67031 0.0
C3495 C 0.05506 0.74701 0.65305 0.0
C3496 C 0.0767 0.73676 0.67706 0.0
C3497 C 0.11682 0.72778 0.6858 0.0
H3498 H 0.15635 0.76934 0.67692 0.0
C3499 C 0.20407 0.75267 0.69656 0.0
C3500 C 0.20781 0.75199 0.71633 0.0
C3501 C 0.18535 0.74879 0.68807 0.0
C3502 C 0.14552 0.75749 0.67932 0.0
H3503 H 0.06798 0.75698 0.6281 0.0
H3504 H 0.10035 0.75303 0.63964 0.0
H3505 H 0.12382 0.76878 0.66333 0.0
H3506 H 0.195 0.74535 0.74249 0.0
H3507 H 0.16212 0.73851 0.72754 0.0
H3508 H 0.13874 0.71695 0.70243 0.0
C3509 C 0.08878 0.74916 0.64847 0.0
C3510 C 0.12685 0.75712 0.67147 0.0
C3511 C 0.07029 0.75136 0.6418 0.0
C3512 C 0.19255 0.74603 0.72723 0.0
C3513 C 0.17375 0.74209 0.71868 0.0
C3514 C 0.13556 0.72825 0.69384 0.0
C3515 C 0.09231 0.74237 0.66646 0.0
C3516 C 0.11225 0.74224 0.67453 0.0
C3517 C 0.16996 0.74409 0.69914 0.0
C3518 C 0.15009 0.74308 0.69057 0.0
H3519 H 0.0464 0.73471 0.67879 0.0
H3520 H 0.07881 0.73148 0.69094 0.0
H3521 H 0.10597 0.71601 0.68832 0.0
H3522 H 0.21552 0.75696 0.68771 0.0
H3523 H 0.18286 0.75008 0.67291 0.0
C3524 C 0.03211 0.32788 0.4372 0.0
C3525 C 0.03003 0.32722 0.41713 0.0
C3526 C 0.03479 0.34535 0.4483 0.0
C3527 C 0.02305 0.39321 0.4449 0.0
H3528 H 0.05588 0.40689 0.49196 0.0
C3529 C 0.02931 0.46739 0.48249 0.0
C3530 C 0.02806 0.46898 0.50231 0.0
C3531 C 0.03236 0.45039 0.4731 0.0
C3532 C 0.04654 0.40317 0.47893 0.0
H3533 H 0.03054 0.34457 0.39306 0.0
H3534 H 0.03539 0.37489 0.41239 0.0
H3535 H 0.05664 0.37653 0.47337 0.0
H3536 H 0.02989 0.45422 0.52801 0.0
H3537 H 0.0348 0.42404 0.51139 0.0
H3538 H 0.01262 0.41942 0.45041 0.0
C3539 C 0.03455 0.36188 0.41953 0.0
C3540 C 0.047 0.38584 0.46828 0.0
C3541 C 0.03187 0.34447 0.40845 0.0
C3542 C 0.03082 0.4534 0.51272 0.0
C3543 C 0.03366 0.43616 0.50321 0.0
C3544 C 0.02254 0.41038 0.45549 0.0
C3545 C 0.03544 0.36249 0.43955 0.0
C3546 C 0.03538 0.3808 0.45104 0.0
C3547 C 0.03391 0.43436 0.48321 0.0
C3548 C 0.03441 0.4157 0.47251 0.0
H3549 H 0.03084 0.31489 0.4444 0.0
H3550 H 0.03538 0.34536 0.46369 0.0
H3551 H 0.01351 0.38952 0.43199 0.0
H3552 H 0.02744 0.47917 0.47404 0.0
H3553 H 0.033 0.44967 0.45777 0.0
C3554 C 0.44699 0.26057 0.17537 0.0
C3555 C 0.44266 0.25864 0.15543 0.0
C3556 C 0.4338 0.26622 0.18752 0.0
C3557 C 0.39072 0.28947 0.18871 0.0
H3558 H 0.37738 0.25675 0.2288 0.0
C3559 C 0.31615 0.27642 0.21441 0.0
C3560 C 0.31353 0.27135 0.233 0.0
C3561 C 0.33449 0.28054 0.20845 0.0
C3562 C 0.38122 0.2664 0.21805 0.0
H3563 H 0.42122 0.26163 0.13269 0.0
H3564 H 0.39832 0.27149 0.15387 0.0
H3565 H 0.40498 0.25266 0.2113 0.0
H3566 H 0.328 0.26807 0.26044 0.0
H3567 H 0.36029 0.27542 0.25002 0.0
H3568 H 0.36661 0.30282 0.19502 0.0
C3569 C 0.41195 0.26873 0.16008 0.0
C3570 C 0.39701 0.26398 0.20795 0.0
C3571 C 0.42502 0.2629 0.14795 0.0
C3572 C 0.32964 0.27196 0.24602 0.0
C3573 C 0.34809 0.27599 0.24 0.0
C3574 C 0.37502 0.29199 0.19889 0.0
C3575 C 0.41612 0.2703 0.17999 0.0
C3576 C 0.40148 0.27502 0.19272 0.0
C3577 C 0.35067 0.27964 0.22093 0.0
C3578 C 0.36963 0.27998 0.21318 0.0
H3579 H 0.46044 0.25742 0.18163 0.0
H3580 H 0.43741 0.26737 0.2028 0.0
H3581 H 0.39408 0.29844 0.17728 0.0
H3582 H 0.30396 0.27617 0.20411 0.0
H3583 H 0.33585 0.28311 0.19363 0.0
C3584 C 0.62398 0.50195 0.36404 0.0
C3585 C 0.61584 0.49971 0.34503 0.0
C3586 C 0.61241 0.50004 0.37921 0.0
C3587 C 0.56288 0.502 0.39171 0.0
H3588 H 0.58065 0.48051 0.43743 0.0
C3589 C 0.51936 0.49547 0.45858 0.0
C3590 C 0.53013 0.50209 0.47601 0.0
C3591 C 0.52853 0.49297 0.44182 0.0
C3592 C 0.5755 0.48659 0.42478 0.0
H3593 H 0.58898 0.49334 0.32718 0.0
H3594 H 0.56883 0.48974 0.35366 0.0
H3595 H 0.59898 0.48004 0.4096 0.0
H3596 H 0.55898 0.51087 0.4895 0.0
H3597 H 0.57479 0.50632 0.46055 0.0
H3598 H 0.53944 0.50866 0.40709 0.0
C3599 C 0.5842 0.49327 0.35682 0.0
C3600 C 0.58605 0.48639 0.40882 0.0
C3601 C 0.59578 0.49522 0.34161 0.0
C3602 C 0.55021 0.50577 0.47635 0.0
C3603 C 0.55932 0.50304 0.45974 0.0
C3604 C 0.55225 0.50211 0.40768 0.0
C3605 C 0.59235 0.49576 0.37584 0.0
C3606 C 0.58012 0.49445 0.39219 0.0
C3607 C 0.54864 0.49674 0.44223 0.0
C3608 C 0.55866 0.49476 0.42454 0.0
H3609 H 0.63933 0.50553 0.36731 0.0
H3610 H 0.61924 0.50241 0.39363 0.0
H3611 H 0.55794 0.5085 0.37926 0.0
H3612 H 0.50388 0.49255 0.45783 0.0
H3613 H 0.51991 0.48802 0.42855 0.0
C3614 C 0.26054 0.85075 0.07198 0.0
C3615 C 0.24771 0.8435 0.05606 0.0
C3616 C 0.26258 0.83987 0.08748 0.0
C3617 C 0.23892 0.79994 0.11143 0.0
H3618 H 0.29059 0.79543 0.1306 0.0
C3619 C 0.25188 0.7522 0.17159 0.0
C3620 C 0.26553 0.76061 0.18647 0.0
C3621 C 0.25081 0.76025 0.15413 0.0
C3622 C 0.27608 0.79663 0.12551 0.0
H3623 H 0.22637 0.81958 0.04418 0.0
H3624 H 0.22974 0.80073 0.0714 0.0
H3625 H 0.2856 0.81485 0.10414 0.0
H3626 H 0.28968 0.78322 0.1942 0.0
H3627 H 0.28762 0.79737 0.16403 0.0
H3628 H 0.22933 0.78222 0.13307 0.0
C3629 C 0.23828 0.81475 0.07184 0.0
C3630 C 0.27323 0.80778 0.11039 0.0
C3631 C 0.23638 0.82554 0.05626 0.0
C3632 C 0.27894 0.7764 0.18306 0.0
C3633 C 0.2778 0.7845 0.16568 0.0
C3634 C 0.24176 0.78892 0.12666 0.0
C3635 C 0.25168 0.82165 0.08742 0.0
C3636 C 0.25463 0.80966 0.10331 0.0
C3637 C 0.26333 0.7769 0.15123 0.0
C3638 C 0.26038 0.78725 0.13399 0.0
H3639 H 0.26949 0.86453 0.07221 0.0
H3640 H 0.27282 0.84563 0.09945 0.0
H3641 H 0.22443 0.80125 0.10633 0.0
H3642 H 0.24143 0.73994 0.1737 0.0
H3643 H 0.23977 0.75378 0.14313 0.0
C3644 C 0.93334 0.53463 0.83781 0.0
C3645 C 0.9136 0.53264 0.84008 0.0
C3646 C 0.94671 0.53677 0.85369 0.0
C3647 C 0.95443 0.54781 0.90584 0.0
H3648 H 0.98711 0.50884 0.90371 0.0
C3649 C 0.00734 0.53515 0.96919 0.0
C3650 C 0.00242 0.51668 0.97485 0.0
C3651 C -0.0004 0.53989 0.95164 0.0
C3652 C 0.97828 0.51997 0.90438 0.0
H3653 H 0.89262 0.53266 0.86094 0.0
H3654 H 0.91607 0.5365 0.88868 0.0
H3655 H 0.96712 0.51345 0.87523 0.0
H3656 H 0.98648 0.48847 0.96653 0.0
H3657 H 0.9736 0.49652 0.93563 0.0
H3658 H 0.96526 0.55384 0.93527 0.0
C3659 C 0.92111 0.53637 0.87455 0.0
C3660 C 0.9669 0.52267 0.88811 0.0
C3661 C 0.90767 0.53407 0.85865 0.0
C3662 C 0.99047 0.5028 0.96242 0.0
C3663 C 0.98316 0.50739 0.94477 0.0
C3664 C 0.96607 0.5453 0.92208 0.0
C3665 C 0.94069 0.53715 0.87219 0.0
C3666 C 0.95451 0.53628 0.8888 0.0
C3667 C 0.98732 0.52605 0.9394 0.0
C3668 C 0.97769 0.53101 0.92158 0.0
H3669 H 0.9385 0.53376 0.82376 0.0
H3670 H 0.96174 0.53754 0.85149 0.0
H3671 H 0.94504 0.55843 0.90671 0.0
H3672 H 0.01638 0.54609 0.9787 0.0
H3673 H 0.00295 0.55437 0.94774 0.0
C3674 C 0.27202 0.14619 0.57033 0.0
C3675 C 0.27565 0.15804 0.55552 0.0
C3676 C 0.27244 0.154 0.58916 0.0
C3677 C 0.26613 0.19768 0.61727 0.0
H3678 H 0.2892 0.17427 0.65917 0.0
C3679 C 0.27153 0.22902 0.69651 0.0
C3680 C 0.26967 0.21592 0.71048 0.0
C3681 C 0.27199 0.22265 0.67729 0.0
C3682 C 0.28244 0.18084 0.64767 0.0
H3683 H 0.28292 0.18737 0.54889 0.0
H3684 H 0.2836 0.20104 0.58186 0.0
H3685 H 0.29163 0.162 0.62645 0.0
H3686 H 0.26567 0.18588 0.71512 0.0
H3687 H 0.26588 0.17478 0.68171 0.0
H3688 H 0.25665 0.21632 0.63853 0.0
C3689 C 0.28036 0.1857 0.57884 0.0
C3690 C 0.28393 0.17385 0.62891 0.0
C3691 C 0.28012 0.17786 0.56 0.0
C3692 C 0.26733 0.19634 0.70473 0.0
C3693 C 0.26763 0.18999 0.68557 0.0
C3694 C 0.26453 0.20462 0.63609 0.0
C3695 C 0.27633 0.17386 0.5936 0.0
C3696 C 0.27566 0.18206 0.61349 0.0
C3697 C 0.27048 0.20305 0.67165 0.0
C3698 C 0.2725 0.19615 0.65154 0.0
H3699 H 0.26849 0.13087 0.56735 0.0
H3700 H 0.26911 0.1445 0.60017 0.0
H3701 H 0.25943 0.20418 0.60569 0.0
H3702 H 0.27348 0.24421 0.70053 0.0
H3703 H 0.27428 0.23312 0.66698 0.0
C3704 C 0.59067 0.49429 0.22959 0.0
C3705 C 0.61056 0.49831 0.23429 0.0
C3706 C 0.583 0.4948 0.21076 0.0
C3707 C 0.59563 0.51514 0.16555 0.0
H3708 H 0.55194 0.47896 0.14275 0.0
C3709 C 0.57439 0.50471 0.08458 0.0
C3710 C 0.55485 0.50185 0.07813 0.0
C3711 C 0.58019 0.50564 0.10404 0.0
C3712 C 0.56399 0.48933 0.14901 0.0
H3713 H 0.63803 0.50523 0.2228 0.0
H3714 H 0.62476 0.50563 0.19004 0.0
H3715 H 0.5641 0.47686 0.17575 0.0
H3716 H 0.52606 0.49819 0.08712 0.0
H3717 H 0.53624 0.49977 0.12125 0.0
H3718 H 0.59576 0.52735 0.13871 0.0
C3719 C 0.61499 0.5026 0.20091 0.0
C3720 C 0.57097 0.48813 0.16793 0.0
C3721 C 0.62263 0.5022 0.21969 0.0
C3722 C 0.54122 0.50047 0.09164 0.0
C3723 C 0.54704 0.50121 0.11116 0.0
C3724 C 0.58872 0.51627 0.14665 0.0
C3725 C 0.59507 0.49927 0.19624 0.0
C3726 C 0.58705 0.50088 0.17636 0.0
C3727 C 0.5666 0.5036 0.11754 0.0
C3728 C 0.57296 0.50326 0.13809 0.0
H3729 H 0.58099 0.49133 0.24054 0.0
H3730 H 0.56759 0.49227 0.20773 0.0
H3731 H 0.60773 0.52551 0.17169 0.0
H3732 H 0.58526 0.50584 0.07454 0.0
H3733 H 0.59535 0.50733 0.10845 0.0
C3734 C 0.2372 0.86177 0.93108 0.0
C3735 C 0.23582 0.85423 0.94888 0.0
C3736 C 0.2336 0.84976 0.9142 0.0
C3737 C 0.23562 0.8006 0.89647 0.0
H3738 H 0.2132 0.81625 0.84951 0.0
C3739 C 0.23807 0.75969 0.82249 0.0
C3740 C 0.24532 0.77179 0.80898 0.0
C3741 C 0.23243 0.76737 0.83967 0.0
C3742 C 0.2194 0.81163 0.86254 0.0
H3743 H 0.22863 0.82815 0.96275 0.0
H3744 H 0.22231 0.8073 0.93327 0.0
H3745 H 0.2112 0.83455 0.87974 0.0
H3746 H 0.252 0.8014 0.80279 0.0
H3747 H 0.2421 0.81455 0.83229 0.0
H3748 H 0.24448 0.77812 0.87913 0.0
C3749 C 0.22642 0.82247 0.93243 0.0
C3750 C 0.21831 0.82214 0.87982 0.0
C3751 C 0.22998 0.83447 0.94932 0.0
C3752 C 0.24642 0.7916 0.8128 0.0
C3753 C 0.24059 0.79919 0.8297 0.0
C3754 C 0.23671 0.79008 0.87916 0.0
C3755 C 0.22854 0.82994 0.9147 0.0
C3756 C 0.22696 0.81711 0.89689 0.0
C3757 C 0.23368 0.78723 0.84341 0.0
C3758 C 0.2292 0.7959 0.86196 0.0
H3759 H 0.24167 0.87688 0.93016 0.0
H3760 H 0.2356 0.85595 0.90078 0.0
H3761 H 0.24256 0.79643 0.90935 0.0
H3762 H 0.23708 0.74437 0.81997 0.0
H3763 H 0.22717 0.75783 0.85004 0.0
C3764 C 0.93332 0.51982 0.73107 0.0
C3765 C 0.91341 0.51556 0.7318 0.0
C3766 C 0.94155 0.5166 0.71401 0.0
C3767 C 0.93122 0.48944 0.66643 0.0
H3768 H 0.97497 0.52443 0.65371 0.0
C3769 C 0.95557 0.49462 0.59081 0.0
C3770 C 0.97527 0.49694 0.58863 0.0
C3771 C 0.94899 0.49429 0.60892 0.0
C3772 C 0.96295 0.51438 0.65724 0.0
H3773 H 0.88642 0.50515 0.71514 0.0
H3774 H 0.90069 0.50018 0.68513 0.0
H3775 H 0.96107 0.53031 0.68371 0.0
H3776 H 0.00357 0.50006 0.60353 0.0
H3777 H 0.99199 0.49986 0.63547 0.0
H3778 H 0.93272 0.474 0.63947 0.0
C3779 C 0.91003 0.50548 0.69787 0.0
C3780 C 0.95495 0.51774 0.67442 0.0
C3781 C 0.90182 0.5085 0.71501 0.0
C3782 C 0.9883 0.49818 0.60485 0.0
C3783 C 0.9817 0.49819 0.62307 0.0
C3784 C 0.93909 0.48622 0.64915 0.0
C3785 C 0.93003 0.50925 0.69722 0.0
C3786 C 0.93886 0.50541 0.67915 0.0
C3787 C 0.962 0.49657 0.62523 0.0
C3788 C 0.95492 0.49876 0.64433 0.0
H3789 H 0.94266 0.52513 0.74382 0.0
H3790 H 0.95699 0.51943 0.71414 0.0
H3791 H 0.91912 0.4794 0.66979 0.0
H3792 H 0.94522 0.49356 0.57851 0.0
H3793 H 0.93374 0.49317 0.61019 0.0
C3794 C 0.27299 0.17366 0.44834 0.0
C3795 C 0.26953 0.15366 0.44483 0.0
C3796 C 0.27388 0.18534 0.43317 0.0
C3797 C 0.25722 0.18391 0.38214 0.0
H3798 H 0.29451 0.22974 0.38177 0.0
C3799 C 0.26755 0.22046 0.31362 0.0
C3800 C 0.26878 0.24039 0.3144 0.0
C3801 C 0.26872 0.21119 0.33028 0.0
C3802 C 0.28388 0.2171 0.38178 0.0
H3803 H 0.26499 0.13036 0.42246 0.0
H3804 H 0.26674 0.15061 0.39624 0.0
H3805 H 0.29468 0.21095 0.40954 0.0
H3806 H 0.27305 0.26631 0.33341 0.0
H3807 H 0.275 0.24995 0.3628 0.0
H3808 H 0.24643 0.18986 0.3545 0.0
C3809 C 0.26842 0.15731 0.4107 0.0
C3810 C 0.28398 0.20633 0.39767 0.0
C3811 C 0.26754 0.14567 0.42579 0.0
C3812 C 0.27202 0.25093 0.33234 0.0
C3813 C 0.27316 0.24158 0.34914 0.0
C3814 C 0.25714 0.1946 0.36635 0.0
C3815 C 0.27127 0.17727 0.41416 0.0
C3816 C 0.27083 0.18943 0.39787 0.0
C3817 C 0.27109 0.22154 0.34826 0.0
C3818 C 0.27065 0.21114 0.36581 0.0
H3819 H 0.2746 0.18034 0.46279 0.0
H3820 H 0.27602 0.20066 0.43633 0.0
H3821 H 0.24655 0.17127 0.38201 0.0
H3822 H 0.26535 0.21187 0.30007 0.0
H3823 H 0.26756 0.1958 0.32906 0.0
C3824 C 0.31375 0.59884 0.48512 0.0
C3825 C 0.31149 0.61026 0.50164 0.0
C3826 C 0.32901 0.58858 0.48455 0.0
C3827 C 0.37514 0.58281 0.51139 0.0
H3828 H 0.3652 0.53277 0.48347 0.0
C3829 C 0.42069 0.5236 0.52337 0.0
C3830 C 0.43135 0.52019 0.50781 0.0
C3831 C 0.40535 0.53368 0.52139 0.0
C3832 C 0.36811 0.54674 0.49124 0.0
H3833 H 0.32354 0.62011 0.53043 0.0
H3834 H 0.34963 0.60165 0.52984 0.0
H3835 H 0.34051 0.55319 0.48252 0.0
H3836 H 0.43353 0.52353 0.47769 0.0
H3837 H 0.40608 0.54058 0.47412 0.0
H3838 H 0.40242 0.57571 0.52083 0.0
C3839 C 0.3401 0.60102 0.51701 0.0
C3840 C 0.35408 0.55857 0.4906 0.0
C3841 C 0.32507 0.61162 0.51741 0.0
C3842 C 0.42556 0.52595 0.48992 0.0
C3843 C 0.40993 0.53569 0.48786 0.0
C3844 C 0.38895 0.5708 0.51235 0.0
C3845 C 0.34213 0.58912 0.50066 0.0
C3846 C 0.35737 0.57678 0.50072 0.0
C3847 C 0.40013 0.54012 0.50373 0.0
C3848 C 0.3855 0.5527 0.50233 0.0
H3849 H 0.30354 0.59764 0.47269 0.0
H3850 H 0.33033 0.58004 0.47151 0.0
H3851 H 0.37847 0.59682 0.51902 0.0
H3852 H 0.42486 0.51949 0.53738 0.0
H3853 H 0.3979 0.53694 0.53377 0.0
C3854 C 0.82292 0.91747 0.55133 0.0
C3855 C 0.81658 0.90037 0.53994 0.0
C3856 C 0.84212 0.92599 0.55235 0.0
C3857 C 0.88367 0.92607 0.52351 0.0
H3858 H 0.91037 0.95975 0.56605 0.0
C3859 C 0.96198 0.96029 0.52225 0.0
C3860 C 0.96683 0.97984 0.52817 0.0
C3861 C 0.9442 0.95023 0.52537 0.0
C3862 C 0.90299 0.95051 0.55401 0.0
H3863 H 0.82538 0.87731 0.52288 0.0
H3864 H 0.85901 0.8919 0.52481 0.0
H3865 H 0.87888 0.94161 0.56954 0.0
H3866 H 0.95689 0.00404 0.54243 0.0
H3867 H 0.9256 0.98635 0.54782 0.0
H3868 H 0.90771 0.93494 0.50799 0.0
C3869 C 0.84914 0.89933 0.53222 0.0
C3870 C 0.88494 0.94009 0.55599 0.0
C3871 C 0.82993 0.89089 0.53117 0.0
C3872 C 0.95358 0.98901 0.53766 0.0
C3873 C 0.93572 0.97887 0.54084 0.0
C3874 C 0.90166 0.93639 0.52157 0.0
C3875 C 0.85534 0.91738 0.54219 0.0
C3876 C 0.87501 0.92776 0.54072 0.0
C3877 C 0.93078 0.95942 0.5345 0.0
C3878 C 0.91154 0.94871 0.53678 0.0
H3879 H 0.8129 0.92458 0.55887 0.0
H3880 H 0.84626 0.93982 0.56023 0.0
H3881 H 0.87639 0.91711 0.51125 0.0
H3882 H 0.97186 0.95268 0.51505 0.0
H3883 H 0.94096 0.93519 0.5206 0.0
C3884 C 0.85243 0.0602 0.28069 0.0
C3885 C 0.8599 0.05333 0.26414 0.0
C3886 C 0.84394 0.07663 0.28086 0.0
C3887 C 0.8357 0.11771 0.25279 0.0
H3888 H 0.79065 0.11563 0.28101 0.0
C3889 C 0.78018 0.16847 0.2427 0.0
C3890 C 0.77582 0.17809 0.25956 0.0
C3891 C 0.79047 0.15326 0.24352 0.0
C3892 C 0.80326 0.11645 0.27316 0.0
H3893 H 0.86497 0.05853 0.23498 0.0
H3894 H 0.84955 0.08693 0.23494 0.0
H3895 H 0.80967 0.08998 0.28208 0.0
H3896 H 0.77813 0.17878 0.29045 0.0
H3897 H 0.79563 0.15178 0.29182 0.0
H3898 H 0.82867 0.14393 0.24336 0.0
C3899 C 0.85066 0.07998 0.24802 0.0
C3900 C 0.81431 0.10182 0.27387 0.0
C3901 C 0.85954 0.0637 0.24801 0.0
C3902 C 0.78123 0.17163 0.27722 0.0
C3903 C 0.79125 0.1562 0.27801 0.0
C3904 C 0.82445 0.13218 0.25185 0.0
C3905 C 0.84224 0.08635 0.2643 0.0
C3906 C 0.83076 0.10226 0.26376 0.0
C3907 C 0.79633 0.14714 0.26118 0.0
C3908 C 0.80815 0.1317 0.26206 0.0
H3909 H 0.85262 0.05247 0.29336 0.0
H3910 H 0.83824 0.08138 0.29387 0.0
H3911 H 0.84837 0.11875 0.24504 0.0
H3912 H 0.77634 0.17315 0.22887 0.0
H3913 H 0.79401 0.14638 0.23033 0.0
C3914 C 0.71107 0.1064 0.03164 0.0
C3915 C 0.71498 0.12198 0.02076 0.0
C3916 C 0.6922 0.09878 0.03416 0.0
C3917 C 0.64139 0.10768 0.02562 0.0
H3918 H 0.6305 0.05323 0.02959 0.0
C3919 C 0.56408 0.06997 0.02967 0.0
C3920 C 0.55894 0.05155 0.02046 0.0
C3921 C 0.58326 0.07862 0.03217 0.0
C3922 C 0.63318 0.06842 0.02823 0.0
H3923 H 0.70271 0.14268 0.00497 0.0
H3924 H 0.66967 0.1286 0.00792 0.0
H3925 H 0.66318 0.0684 0.02881 0.0
H3926 H 0.56971 0.02766 0.00668 0.0
H3927 H 0.60295 0.04299 0.01005 0.0
H3928 H 0.6112 0.10739 0.02368 0.0
C3929 C 0.68095 0.12244 0.01511 0.0
C3930 C 0.65212 0.07729 0.02813 0.0
C3931 C 0.69988 0.13042 0.01314 0.0
C3932 C 0.57331 0.04182 0.014 0.0
C3933 C 0.59243 0.05062 0.01608 0.0
C3934 C 0.62241 0.09873 0.02529 0.0
C3935 C 0.67678 0.10634 0.0255 0.0
C3936 C 0.65656 0.09705 0.02664 0.0
C3937 C 0.59769 0.06921 0.02509 0.0
C3938 C 0.618 0.07893 0.02644 0.0
H3939 H 0.72265 0.1001 0.03817 0.0
H3940 H 0.68981 0.08688 0.04283 0.0
H3941 H 0.64406 0.12298 0.02497 0.0
H3942 H 0.55326 0.0777 0.03496 0.0
H3943 H 0.58669 0.09272 0.03961 0.0
C3944 C 0.17413 0.46131 0.30061 0.0
C3945 C 0.15831 0.46181 0.28745 0.0
C3946 C 0.18081 0.4442 0.30339 0.0
C3947 C 0.16827 0.39169 0.29482 0.0
H3948 H 0.22315 0.39366 0.29395 0.0
C3949 C 0.2021 0.3259 0.2744 0.0
C3950 C 0.21961 0.32355 0.2839 0.0
C3951 C 0.19432 0.34246 0.27804 0.0
C3952 C 0.20785 0.39289 0.29459 0.0
H3953 H 0.13664 0.44444 0.26749 0.0
H3954 H 0.14843 0.41458 0.27225 0.0
H3955 H 0.20963 0.42311 0.29447 0.0
H3956 H 0.24257 0.33666 0.30497 0.0
H3957 H 0.22891 0.36588 0.31136 0.0
H3958 H 0.16648 0.3614 0.29446 0.0
C3959 C 0.15556 0.42746 0.28053 0.0
C3960 C 0.20008 0.40977 0.29487 0.0
C3961 C 0.14884 0.44461 0.27774 0.0
C3962 C 0.22908 0.33809 0.29739 0.0
C3963 C 0.22129 0.35481 0.30099 0.0
C3964 C 0.17605 0.37481 0.29456 0.0
C3965 C 0.17186 0.42714 0.29311 0.0
C3966 C 0.18016 0.40933 0.29461 0.0
C3967 C 0.20385 0.35717 0.29128 0.0
C3968 C 0.19589 0.37519 0.29403 0.0
H3969 H 0.1817 0.47423 0.3085 0.0
H3970 H 0.19319 0.44438 0.31343 0.0
H3971 H 0.15292 0.3909 0.29496 0.0
H3972 H 0.19438 0.31498 0.26393 0.0
H3973 H 0.18105 0.34394 0.27006 0.0
C3974 C 0.20515 0.40007 0.03209 0.0
C3975 C 0.21917 0.40756 0.02043 0.0
C3976 C 0.18762 0.40689 0.03205 0.0
C3977 C 0.16673 0.44964 0.02098 0.0
H3978 H 0.11805 0.41728 0.02366 0.0
C3979 C 0.09451 0.47807 0.01372 0.0
C3980 C 0.08072 0.47123 0.02587 0.0
C3981 C 0.11131 0.47008 0.01274 0.0
C3982 C 0.13157 0.42654 0.0231 0.0
H3983 H 0.22525 0.42724 0.99874 0.0
H3984 H 0.19482 0.43878 0.99852 0.0
H3985 H 0.14716 0.40302 0.02241 0.0
H3986 H 0.07394 0.45095 0.04685 0.0
H3987 H 0.10319 0.43732 0.04531 0.0
H3988 H 0.15122 0.47316 0.02179 0.0
C3989 C 0.19749 0.42805 0.00806 0.0
C3990 C 0.14823 0.41835 0.02238 0.0
C3991 C 0.21492 0.42132 0.00813 0.0
C3992 C 0.0842 0.45648 0.03721 0.0
C3993 C 0.10093 0.44854 0.03625 0.0
C3994 C 0.15009 0.45782 0.02171 0.0
C3995 C 0.1838 0.42128 0.02033 0.0
C3996 C 0.166 0.42981 0.02126 0.0
C3997 C 0.11463 0.45512 0.0239 0.0
C3998 C 0.1323 0.44638 0.02279 0.0
H3999 H 0.20799 0.38951 0.04176 0.0
H4000 H 0.17737 0.40141 0.04171 0.0
H4001 H 0.18024 0.45892 0.02048 0.0
H4002 H 0.09222 0.48936 0.00476 0.0
H4003 H 0.12152 0.47538 0.00297 0.0
C4004 C 0.84638 0.94831 0.23351 0.0
C4005 C 0.86344 0.95347 0.24537 0.0
C4006 C 0.83711 0.92939 0.23135 0.0
C4007 C 0.84379 0.87977 0.24082 0.0
H4008 H 0.78888 0.87247 0.24403 0.0
C4009 C 0.80326 0.81122 0.26545 0.0
C4010 C 0.78469 0.80401 0.25713 0.0
C4011 C 0.81272 0.82879 0.26109 0.0
C4012 C 0.80416 0.87416 0.24281 0.0
H4013 H 0.88513 0.94299 0.26301 0.0
H4014 H 0.8687 0.91009 0.25996 0.0
H4015 H 0.806 0.90405 0.24051 0.0
H4016 H 0.76153 0.80961 0.23757 0.0
H4017 H 0.77819 0.84037 0.22979 0.0
H4018 H 0.84193 0.84977 0.24305 0.0
C4019 C 0.86241 0.92045 0.25214 0.0
C4020 C 0.81403 0.89236 0.24088 0.0
C4021 C 0.87176 0.93931 0.25408 0.0
C4022 C 0.77579 0.81481 0.24429 0.0
C4023 C 0.78532 0.83245 0.23988 0.0
C4024 C 0.83392 0.86154 0.24261 0.0
C4025 C 0.84479 0.91527 0.24099 0.0
C4026 C 0.83405 0.89552 0.24046 0.0
C4027 C 0.80393 0.83963 0.24822 0.0
C4028 C 0.81405 0.85859 0.24414 0.0
H4029 H 0.84012 0.95897 0.22609 0.0
H4030 H 0.8238 0.92589 0.22233 0.0
H4031 H 0.85913 0.88153 0.23997 0.0
H4032 H 0.81054 0.80333 0.27545 0.0
H4033 H 0.82686 0.83402 0.26811 0.0
C4034 C 0.65654 0.05594 0.76378 0.0
C4035 C 0.6391 0.05137 0.77175 0.0
C4036 C 0.66411 0.07494 0.76202 0.0
C4037 C 0.67336 0.11595 0.75234 0.0
H4038 H 0.66861 0.15219 0.79484 0.0
C4039 C 0.68923 0.20216 0.77562 0.0
C4040 C 0.70844 0.20658 0.77164 0.0
C4041 C 0.67999 0.18329 0.7738 0.0
C4042 C 0.66986 0.1423 0.78274 0.0
H4043 H 0.61484 0.06249 0.78236 0.0
H4044 H 0.62798 0.09585 0.77933 0.0
H4045 H 0.65369 0.11911 0.79491 0.0
H4046 H 0.73277 0.19475 0.76185 0.0
H4047 H 0.71656 0.1617 0.75869 0.0
H4048 H 0.68986 0.13923 0.74037 0.0
C4049 C 0.6362 0.08489 0.77504 0.0
C4050 C 0.66128 0.12333 0.78277 0.0
C4051 C 0.62863 0.06586 0.77673 0.0
C4052 C 0.71797 0.19179 0.76506 0.0
C4053 C 0.70868 0.17288 0.76318 0.0
C4054 C 0.68201 0.13495 0.75235 0.0
C4055 C 0.6542 0.08966 0.768 0.0
C4056 C 0.66292 0.10993 0.76758 0.0
C4057 C 0.68971 0.16843 0.76789 0.0
C4058 C 0.68033 0.14831 0.76755 0.0
H4059 H 0.66447 0.04482 0.75919 0.0
H4060 H 0.67802 0.07808 0.7566 0.0
H4061 H 0.67471 0.10603 0.74031 0.0
H4062 H 0.68142 0.21322 0.78059 0.0
H4063 H 0.66526 0.18032 0.77722 0.0
loop_
_geom_bond_atom_site_label_1
_geom_bond_atom_site_label_2
_geom_bond_distance
_geom_bond_site_symmetry_2
_ccdc_geom_bond_type
Mn0 O5 2.095 . S
Mn0 O15 2.162 . S
Mn0 O16 2.297 . S
Mn0 O24 2.385 1_455 S
Mn0 O25 2.209 . S
Mn0 O26 2.094 . S
Mn1 O6 2.121 . S
Mn1 N8 2.257 . S
Mn1 N17 2.282 1_455 S
Mn1 O25 2.215 . S
Mn1 O27 2.117 . S
C2 O24 1.234 . S
C2 O25 1.283 1_655 S
C3 O15 1.281 . S
C3 O16 1.236 . S
C4 O26 1.240 . S
C4 O27 1.264 . S
O5 Mn0 2.095 . S
O5 C14 1.250 . S
O6 Mn1 2.121 . S
O6 C14 1.258 . S
C7 N8 1.326 . S
C7 C11 1.460 . S
C7 H13 0.929 . S
N8 Mn1 2.257 . S
N8 C7 1.326 . S
N8 C12 1.362 1_455 S
C9 C10 1.258 . S
C9 C12 1.431 . S
C9 C29 1.449 . S
C10 C9 1.258 . S
C10 C11 1.477 1_655 S
C10 H30 0.931 . S
C11 C7 1.460 . S
C11 C10 1.477 1_455 S
C11 H31 0.930 . S
C12 N8 1.362 1_655 S
C12 C9 1.431 . S
C12 C22 1.476 . S
H13 C7 0.929 . S
C14 O5 1.250 . S
C14 O6 1.258 . S
O15 Mn0 2.162 . S
O15 C3 1.281 . S
O16 Mn0 2.297 . S
O16 C3 1.236 . S
N17 Mn1 2.282 1_655 S
N17 C18 1.328 . S
N17 C22 1.318 . S
C18 N17 1.328 . S
C18 C19 1.457 . S
C18 H23 0.929 . S
C19 C18 1.457 . S
C19 C20 1.291 . S
C19 H32 0.931 . S
C20 C19 1.291 . S
C20 C21 1.373 . S
C20 H33 0.929 . S
C21 C20 1.373 . S
C21 C22 1.396 . S
C21 C28 1.403 . S
C22 C12 1.476 . S
C22 N17 1.318 . S
C22 C21 1.396 . S
H23 C18 0.929 . S
O24 Mn0 2.385 1_655 S
O24 C2 1.234 . S
O25 Mn0 2.209 . S
O25 Mn1 2.215 . S
O25 C2 1.283 1_455 S
O26 Mn0 2.094 . S
O26 C4 1.240 . S
O27 Mn1 2.117 . S
O27 C4 1.264 . S
C28 C21 1.403 . S
C28 C29 1.399 . S
C28 H34 0.929 . S
C29 C9 1.449 . S
C29 C28 1.399 . S
C29 H35 0.930 . S
H30 C10 0.931 . S
H31 C11 0.930 . S
H32 C19 0.931 . S
H33 C20 0.929 . S
H34 C28 0.929 . S
H35 C29 0.930 . S
Mn36 O41 2.095 1_455 S
Mn36 O51 2.161 . S
Mn36 O52 2.297 . S
Mn36 O60 2.385 . S
Mn36 O61 2.209 . S
Mn36 O62 2.094 . S
Mn37 O42 2.121 1_455 S
Mn37 N44 2.257 . S
Mn37 N53 2.282 . S
Mn37 O61 2.215 . S
Mn37 O63 2.117 . S
C38 O60 1.234 . S
C38 O61 1.283 . S
C39 O51 1.288 . S
C39 O52 1.236 . S
C40 O62 1.240 . S
C40 O63 1.264 . S
O41 Mn36 2.095 1_655 S
O41 C50 1.250 . S
O42 Mn37 2.121 1_655 S
O42 C50 1.258 . S
C43 N44 1.326 . S
C43 C47 1.460 . S
C43 H49 0.929 1_455 S
N44 Mn37 2.257 . S
N44 C43 1.326 . S
N44 C48 1.362 . S
C45 C46 1.258 . S
C45 C48 1.431 . S
C45 C65 1.449 . S
C46 C45 1.258 . S
C46 C47 1.477 . S
C46 H66 0.931 . S
C47 C43 1.460 . S
C47 C46 1.477 . S
C47 H67 0.930 . S
C48 N44 1.362 . S
C48 C45 1.431 . S
C48 C58 1.476 . S
H49 C43 0.929 1_655 S
C50 O41 1.250 . S
C50 O42 1.258 . S
O51 Mn36 2.161 . S
O51 C39 1.288 . S
O52 Mn36 2.297 . S
O52 C39 1.236 . S
N53 Mn37 2.282 . S
N53 C54 1.328 . S
N53 C58 1.318 . S
C54 N53 1.328 . S
C54 C55 1.457 . S
C54 H59 0.929 . S
C55 C54 1.457 . S
C55 C56 1.291 . S
C55 H68 0.931 . S
C56 C55 1.291 . S
C56 C57 1.373 . S
C56 H69 0.929 . S
C57 C56 1.373 . S
C57 C58 1.396 . S
C57 C64 1.403 . S
C58 C48 1.476 . S
C58 N53 1.318 . S
C58 C57 1.396 . S
H59 C54 0.929 . S
O60 Mn36 2.385 . S
O60 C38 1.234 . S
O61 Mn36 2.209 . S
O61 Mn37 2.215 . S
O61 C38 1.283 . S
O62 Mn36 2.094 . S
O62 C40 1.240 . S
O63 Mn37 2.117 . S
O63 C40 1.264 . S
C64 C57 1.403 . S
C64 C65 1.399 . S
C64 H70 0.929 . S
C65 C45 1.449 . S
C65 C64 1.399 . S
C65 H71 0.930 . S
H66 C46 0.931 . S
H67 C47 0.930 . S
H68 C55 0.931 . S
H69 C56 0.929 . S
H70 C64 0.929 . S
H71 C65 0.930 . S
Mn72 O77 2.095 . S
Mn72 O87 2.162 . S
Mn72 O88 2.297 . S
Mn72 O96 2.385 . S
Mn72 O97 2.209 . S
Mn72 O98 2.094 . S
Mn73 O78 2.121 . S
Mn73 N80 2.257 . S
Mn73 N89 2.282 . S
Mn73 O97 2.215 . S
Mn73 O99 2.117 . S
C74 O96 1.234 . S
C74 O97 1.283 . S
C75 O87 1.281 . S
C75 O88 1.236 . S
C76 O98 1.240 . S
C76 O99 1.264 . S
O77 Mn72 2.095 . S
O77 C86 1.250 . S
O78 Mn73 2.121 . S
O78 C86 1.258 . S
C79 N80 1.326 . S
C79 C83 1.460 . S
C79 H85 0.929 . S
N80 Mn73 2.257 . S
N80 C79 1.326 . S
N80 C84 1.362 . S
C81 C82 1.258 . S
C81 C84 1.431 . S
C81 C101 1.449 . S
C82 C81 1.258 . S
C82 C83 1.477 . S
C82 H102 0.931 . S
C83 C79 1.460 . S
C83 C82 1.477 . S
C83 H103 0.930 . S
C84 N80 1.362 . S
C84 C81 1.431 . S
C84 C94 1.476 . S
H85 C79 0.929 . S
C86 O77 1.250 . S
C86 O78 1.258 . S
O87 Mn72 2.162 . S
O87 C75 1.281 . S
O88 Mn72 2.297 . S
O88 C75 1.236 . S
N89 Mn73 2.282 . S
N89 C90 1.328 . S
N89 C94 1.318 . S
C90 N89 1.328 . S
C90 C91 1.457 . S
C90 H95 0.929 . S
C91 C90 1.457 . S
C91 C92 1.291 . S
C91 H104 0.931 . S
C92 C91 1.291 . S
C92 C93 1.373 . S
C92 H105 0.929 . S
C93 C92 1.373 . S
C93 C94 1.396 . S
C93 C100 1.403 . S
C94 C84 1.476 . S
C94 N89 1.318 . S
C94 C93 1.396 . S
H95 C90 0.929 . S
O96 Mn72 2.385 . S
O96 C74 1.234 . S
O97 Mn72 2.209 . S
O97 Mn73 2.215 . S
O97 C74 1.283 . S
O98 Mn72 2.094 . S
O98 C76 1.240 . S
O99 Mn73 2.117 . S
O99 C76 1.264 . S
C100 C93 1.403 . S
C100 C101 1.399 . S
C100 H106 0.929 . S
C101 C81 1.449 . S
C101 C100 1.399 . S
C101 H107 0.930 . S
H102 C82 0.931 . S
H103 C83 0.930 . S
H104 C91 0.931 . S
H105 C92 0.929 . S
H106 C100 0.929 . S
H107 C101 0.930 . S
Mn108 O113 2.095 . S
Mn108 O123 2.162 . S
Mn108 O124 2.297 . S
Mn108 O132 2.385 . S
Mn108 O133 2.209 . S
Mn108 O134 2.094 . S
Mn109 O114 2.121 . S
Mn109 N116 2.257 . S
Mn109 N125 2.282 . S
Mn109 O133 2.215 . S
Mn109 O135 2.117 . S
C110 O132 1.234 . S
C110 O133 1.283 . S
C111 O123 1.281 . S
C111 O124 1.236 . S
C112 O134 1.240 . S
C112 O135 1.264 . S
O113 Mn108 2.095 . S
O113 C122 1.250 . S
O114 Mn109 2.121 . S
O114 C122 1.258 . S
C115 N116 1.326 . S
C115 C119 1.460 . S
C115 H121 0.929 . S
N116 Mn109 2.257 . S
N116 C115 1.326 . S
N116 C120 1.362 . S
C117 C118 1.258 . S
C117 C120 1.431 . S
C117 C137 1.449 . S
C118 C117 1.258 . S
C118 C119 1.477 . S
C118 H138 0.931 . S
C119 C115 1.460 . S
C119 C118 1.477 . S
C119 H139 0.930 . S
C120 N116 1.362 . S
C120 C117 1.431 . S
C120 C130 1.476 . S
H121 C115 0.929 . S
C122 O113 1.250 . S
C122 O114 1.258 . S
O123 Mn108 2.162 . S
O123 C111 1.281 . S
O124 Mn108 2.297 . S
O124 C111 1.236 . S
N125 Mn109 2.282 . S
N125 C126 1.328 . S
N125 C130 1.318 . S
C126 N125 1.328 . S
C126 C127 1.457 . S
C126 H131 0.929 . S
C127 C126 1.457 . S
C127 C128 1.291 . S
C127 H140 0.931 . S
C128 C127 1.291 . S
C128 C129 1.373 . S
C128 H141 0.929 . S
C129 C128 1.373 . S
C129 C130 1.396 . S
C129 C136 1.403 . S
C130 C120 1.476 . S
C130 N125 1.318 . S
C130 C129 1.396 . S
H131 C126 0.929 . S
O132 Mn108 2.385 . S
O132 C110 1.234 . S
O133 Mn108 2.209 . S
O133 Mn109 2.215 . S
O133 C110 1.283 . S
O134 Mn108 2.094 . S
O134 C112 1.240 . S
O135 Mn109 2.117 . S
O135 C112 1.264 . S
C136 C129 1.403 . S
C136 C137 1.399 . S
C136 H142 0.929 . S
C137 C117 1.449 . S
C137 C136 1.399 . S
C137 H143 0.930 . S
H138 C118 0.931 . S
H139 C119 0.930 . S
H140 C127 0.931 . S
H141 C128 0.929 . S
H142 C136 0.929 . S
H143 C137 0.930 . S
Mn144 O149 2.095 . S
Mn144 O159 2.162 . S
Mn144 O160 2.297 . S
Mn144 O168 2.385 . S
Mn144 O169 2.209 . S
Mn144 O170 2.094 . S
Mn145 O150 2.121 1_655 S
Mn145 N152 2.257 . S
Mn145 N161 2.282 . S
Mn145 O169 2.215 1_655 S
Mn145 O171 2.117 . S
C146 O168 1.234 . S
C146 O169 1.283 . S
C147 O159 1.281 . S
C147 O160 1.236 . S
C148 O170 1.240 1_655 S
C148 O171 1.264 . S
O149 Mn144 2.095 . S
O149 C158 1.250 . S
O150 Mn145 2.121 1_455 S
O150 C158 1.258 . S
C151 N152 1.326 1_455 S
C151 C155 1.459 . S
C151 H157 0.929 . S
N152 Mn145 2.257 . S
N152 C151 1.326 1_655 S
N152 C156 1.362 . S
C153 C154 1.258 . S
C153 C156 1.431 . S
C153 C173 1.449 . S
C154 C153 1.258 . S
C154 C155 1.476 1_655 S
C154 H174 0.931 . S
C155 C151 1.459 . S
C155 C154 1.476 1_455 S
C155 H175 0.932 . S
C156 N152 1.362 . S
C156 C153 1.431 . S
C156 C166 1.476 . S
H157 C151 0.929 . S
C158 O149 1.250 . S
C158 O150 1.258 . S
O159 Mn144 2.162 . S
O159 C147 1.281 . S
O160 Mn144 2.297 . S
O160 C147 1.236 . S
N161 Mn145 2.282 . S
N161 C162 1.328 . S
N161 C166 1.318 . S
C162 N161 1.328 . S
C162 C163 1.457 . S
C162 H167 0.929 . S
C163 C162 1.457 . S
C163 C164 1.291 . S
C163 H176 0.931 . S
C164 C163 1.291 . S
C164 C165 1.373 . S
C164 H177 0.929 . S
C165 C164 1.373 . S
C165 C166 1.396 . S
C165 C172 1.403 . S
C166 C156 1.476 . S
C166 N161 1.318 . S
C166 C165 1.396 . S
H167 C162 0.929 . S
O168 Mn144 2.385 . S
O168 C146 1.234 . S
O169 Mn144 2.209 . S
O169 Mn145 2.215 1_455 S
O169 C146 1.283 . S
O170 Mn144 2.094 . S
O170 C148 1.240 1_455 S
O171 Mn145 2.117 . S
O171 C148 1.264 . S
C172 C165 1.403 . S
C172 C173 1.399 . S
C172 H178 0.929 . S
C173 C153 1.449 . S
C173 C172 1.399 . S
C173 H179 0.930 . S
H174 C154 0.931 . S
H175 C155 0.932 . S
H176 C163 0.931 . S
H177 C164 0.929 . S
H178 C172 0.929 . S
H179 C173 0.930 . S
Mn180 O185 2.095 . S
Mn180 O195 2.162 . S
Mn180 O196 2.297 . S
Mn180 O204 2.385 . S
Mn180 O205 2.209 . S
Mn180 O206 2.094 . S
Mn181 O186 2.121 . S
Mn181 N188 2.257 . S
Mn181 N197 2.282 . S
Mn181 O205 2.215 . S
Mn181 O207 2.117 . S
C182 O204 1.234 . S
C182 O205 1.283 . S
C183 O195 1.281 . S
C183 O196 1.236 . S
C184 O206 1.240 . S
C184 O207 1.264 . S
O185 Mn180 2.095 . S
O185 C194 1.250 . S
O186 Mn181 2.121 . S
O186 C194 1.258 . S
C187 N188 1.326 . S
C187 C191 1.460 . S
C187 H193 0.929 . S
N188 Mn181 2.257 . S
N188 C187 1.326 . S
N188 C192 1.362 . S
C189 C190 1.258 . S
C189 C192 1.431 . S
C189 C209 1.449 . S
C190 C189 1.258 . S
C190 C191 1.477 . S
C190 H210 0.931 . S
C191 C187 1.460 . S
C191 C190 1.477 . S
C191 H211 0.930 . S
C192 N188 1.362 . S
C192 C189 1.431 . S
C192 C202 1.476 . S
H193 C187 0.929 . S
C194 O185 1.250 . S
C194 O186 1.258 . S
O195 Mn180 2.162 . S
O195 C183 1.281 . S
O196 Mn180 2.297 . S
O196 C183 1.236 . S
N197 Mn181 2.282 . S
N197 C198 1.328 . S
N197 C202 1.318 . S
C198 N197 1.328 . S
C198 C199 1.457 . S
C198 H203 0.929 . S
C199 C198 1.457 . S
C199 C200 1.291 . S
C199 H212 0.931 . S
C200 C199 1.291 . S
C200 C201 1.373 . S
C200 H213 0.929 . S
C201 C200 1.373 . S
C201 C202 1.396 . S
C201 C208 1.403 . S
C202 C192 1.476 . S
C202 N197 1.318 . S
C202 C201 1.396 . S
H203 C198 0.929 . S
O204 Mn180 2.385 . S
O204 C182 1.234 . S
O205 Mn180 2.209 . S
O205 Mn181 2.215 . S
O205 C182 1.283 . S
O206 Mn180 2.094 . S
O206 C184 1.240 . S
O207 Mn181 2.117 . S
O207 C184 1.264 . S
C208 C201 1.403 . S
C208 C209 1.399 . S
C208 H214 0.929 . S
C209 C189 1.449 . S
C209 C208 1.399 . S
C209 H215 0.930 . S
H210 C190 0.931 . S
H211 C191 0.930 . S
H212 C199 0.931 . S
H213 C200 0.929 . S
H214 C208 0.929 . S
H215 C209 0.930 . S
Mn216 O221 2.095 . S
Mn216 O231 2.162 . S
Mn216 O232 2.297 . S
Mn216 O240 2.385 . S
Mn216 O241 2.209 . S
Mn216 O242 2.094 . S
Mn217 O222 2.121 . S
Mn217 N224 2.257 . S
Mn217 N233 2.282 . S
Mn217 O241 2.215 . S
Mn217 O243 2.117 . S
C218 O240 1.234 . S
C218 O241 1.283 . S
C219 O231 1.281 . S
C219 O232 1.236 . S
C220 O242 1.240 . S
C220 O243 1.264 . S
O221 Mn216 2.095 . S
O221 C230 1.250 . S
O222 Mn217 2.121 . S
O222 C230 1.258 . S
C223 N224 1.326 . S
C223 C227 1.460 . S
C223 H229 0.929 . S
N224 Mn217 2.257 . S
N224 C223 1.326 . S
N224 C228 1.362 . S
C225 C226 1.258 . S
C225 C228 1.431 . S
C225 C245 1.449 . S
C226 C225 1.258 . S
C226 C227 1.477 . S
C226 H246 0.931 . S
C227 C223 1.460 . S
C227 C226 1.477 . S
C227 H247 0.930 . S
C228 N224 1.362 . S
C228 C225 1.431 . S
C228 C238 1.476 . S
H229 C223 0.929 . S
C230 O221 1.250 . S
C230 O222 1.258 . S
O231 Mn216 2.162 . S
O231 C219 1.281 . S
O232 Mn216 2.297 . S
O232 C219 1.236 . S
N233 Mn217 2.282 . S
N233 C234 1.328 . S
N233 C238 1.318 . S
C234 N233 1.328 . S
C234 C235 1.457 . S
C234 H239 0.929 . S
C235 C234 1.457 . S
C235 C236 1.291 . S
C235 H248 0.931 . S
C236 C235 1.291 . S
C236 C237 1.373 . S
C236 H249 0.929 . S
C237 C236 1.373 . S
C237 C238 1.396 . S
C237 C244 1.403 . S
C238 C228 1.476 . S
C238 N233 1.318 . S
C238 C237 1.396 . S
H239 C234 0.929 . S
O240 Mn216 2.385 . S
O240 C218 1.234 . S
O241 Mn216 2.209 . S
O241 Mn217 2.215 . S
O241 C218 1.283 . S
O242 Mn216 2.094 . S
O242 C220 1.240 . S
O243 Mn217 2.117 . S
O243 C220 1.264 . S
C244 C237 1.403 . S
C244 C245 1.399 . S
C244 H250 0.929 . S
C245 C225 1.449 . S
C245 C244 1.399 . S
C245 H251 0.930 . S
H246 C226 0.931 . S
H247 C227 0.930 . S
H248 C235 0.931 . S
H249 C236 0.929 . S
H250 C244 0.929 . S
H251 C245 0.930 . S
Mn252 O257 2.092 . S
Mn252 O267 2.161 . S
Mn252 O268 2.297 1_455 S
Mn252 O276 2.389 1_455 S
Mn252 O277 2.210 1_455 S
Mn252 O278 2.094 . S
Mn253 O258 2.109 1_655 S
Mn253 N260 2.260 . S
Mn253 N269 2.295 . S
Mn253 O277 2.220 . S
Mn253 O279 2.118 1_655 S
C254 O276 1.234 . S
C254 O277 1.283 . S
C255 O267 1.281 1_655 S
C255 O268 1.236 . S
C256 O278 1.240 . S
C256 O279 1.264 . S
O257 Mn252 2.092 . S
O257 C266 1.250 . S
O258 Mn253 2.109 1_455 S
O258 C266 1.258 . S
C259 N260 1.348 . S
C259 C263 1.468 . S
C259 H265 0.901 1_655 S
N260 Mn253 2.260 . S
N260 C259 1.348 . S
N260 C264 1.362 . S
C261 C262 1.258 . S
C261 C264 1.431 . S
C261 C281 1.449 . S
C262 C261 1.258 . S
C262 C263 1.477 . S
C262 H282 0.931 . S
C263 C259 1.468 . S
C263 C262 1.477 . S
C263 H283 0.930 . S
C264 N260 1.362 . S
C264 C261 1.431 . S
C264 C274 1.476 . S
H265 C259 0.901 1_455 S
C266 O257 1.250 . S
C266 O258 1.258 . S
O267 Mn252 2.161 . S
O267 C255 1.281 1_455 S
O268 Mn252 2.297 1_655 S
O268 C255 1.236 . S
N269 Mn253 2.295 . S
N269 C270 1.328 . S
N269 C274 1.318 . S
C270 N269 1.328 . S
C270 C271 1.457 . S
C270 H275 0.929 . S
C271 C270 1.457 . S
C271 C272 1.291 . S
C271 H284 0.931 . S
C272 C271 1.291 . S
C272 C273 1.373 . S
C272 H285 0.929 . S
C273 C272 1.373 . S
C273 C274 1.396 . S
C273 C280 1.403 . S
C274 C264 1.476 . S
C274 N269 1.318 . S
C274 C273 1.396 . S
H275 C270 0.929 . S
O276 Mn252 2.389 1_655 S
O276 C254 1.234 . S
O277 Mn252 2.210 1_655 S
O277 Mn253 2.220 . S
O277 C254 1.283 . S
O278 Mn252 2.094 . S
O278 C256 1.240 . S
O279 Mn253 2.118 1_455 S
O279 C256 1.264 . S
C280 C273 1.403 . S
C280 C281 1.399 . S
C280 H286 0.929 . S
C281 C261 1.449 . S
C281 C280 1.399 . S
C281 H287 0.930 . S
H282 C262 0.931 . S
H283 C263 0.930 . S
H284 C271 0.931 . S
H285 C272 0.929 . S
H286 C280 0.929 . S
H287 C281 0.930 . S
Mn288 O293 2.095 . S
Mn288 O303 2.162 . S
Mn288 O304 2.297 . S
Mn288 O312 2.385 1_545 S
Mn288 O313 2.209 . S
Mn288 O314 2.094 . S
Mn289 O294 2.121 . S
Mn289 N296 2.257 . S
Mn289 N305 2.282 1_545 S
Mn289 O313 2.215 . S
Mn289 O315 2.117 . S
C290 O312 1.234 . S
C290 O313 1.283 1_565 S
C291 O303 1.281 . S
C291 O304 1.236 . S
C292 O314 1.240 . S
C292 O315 1.264 . S
O293 Mn288 2.095 . S
O293 C302 1.250 . S
O294 Mn289 2.121 . S
O294 C302 1.258 . S
C295 N296 1.326 . S
C295 C299 1.460 . S
C295 H301 0.929 . S
N296 Mn289 2.257 . S
N296 C295 1.326 . S
N296 C300 1.362 1_545 S
C297 C298 1.258 . S
C297 C300 1.431 . S
C297 C317 1.449 . S
C298 C297 1.258 . S
C298 C299 1.477 1_565 S
C298 H318 0.931 . S
C299 C295 1.460 . S
C299 C298 1.477 1_545 S
C299 H319 0.930 . S
C300 N296 1.362 1_565 S
C300 C297 1.431 . S
C300 C310 1.476 . S
H301 C295 0.929 . S
C302 O293 1.250 . S
C302 O294 1.258 . S
O303 Mn288 2.162 . S
O303 C291 1.281 . S
O304 Mn288 2.297 . S
O304 C291 1.236 . S
N305 Mn289 2.282 1_565 S
N305 C306 1.328 . S
N305 C310 1.318 . S
C306 N305 1.328 . S
C306 C307 1.457 . S
C306 H311 0.929 . S
C307 C306 1.457 . S
C307 C308 1.291 . S
C307 H320 0.931 . S
C308 C307 1.291 . S
C308 C309 1.373 . S
C308 H321 0.929 . S
C309 C308 1.373 . S
C309 C310 1.396 . S
C309 C316 1.403 . S
C310 C300 1.476 . S
C310 N305 1.318 . S
C310 C309 1.396 . S
H311 C306 0.929 . S
O312 Mn288 2.385 1_565 S
O312 C290 1.234 . S
O313 Mn288 2.209 . S
O313 Mn289 2.215 . S
O313 C290 1.283 1_545 S
O314 Mn288 2.094 . S
O314 C292 1.240 . S
O315 Mn289 2.117 . S
O315 C292 1.264 . S
C316 C309 1.403 . S
C316 C317 1.399 . S
C316 H322 0.929 . S
C317 C297 1.449 . S
C317 C316 1.399 . S
C317 H323 0.930 . S
H318 C298 0.931 . S
H319 C299 0.930 . S
H320 C307 0.931 . S
H321 C308 0.929 . S
H322 C316 0.929 . S
H323 C317 0.930 . S
Mn324 O329 2.095 . S
Mn324 O339 2.162 . S
Mn324 O340 2.297 . S
Mn324 O348 2.385 . S
Mn324 O349 2.209 . S
Mn324 O350 2.094 . S
Mn325 O330 2.121 . S
Mn325 N332 2.257 . S
Mn325 N341 2.282 . S
Mn325 O349 2.215 . S
Mn325 O351 2.117 . S
C326 O348 1.234 . S
C326 O349 1.283 . S
C327 O339 1.281 . S
C327 O340 1.236 . S
C328 O350 1.240 . S
C328 O351 1.264 . S
O329 Mn324 2.095 . S
O329 C338 1.250 . S
O330 Mn325 2.121 . S
O330 C338 1.258 . S
C331 N332 1.326 . S
C331 C335 1.460 . S
C331 H337 0.929 . S
N332 Mn325 2.257 . S
N332 C331 1.326 . S
N332 C336 1.362 . S
C333 C334 1.258 . S
C333 C336 1.431 . S
C333 C353 1.449 . S
C334 C333 1.258 . S
C334 C335 1.477 . S
C334 H354 0.931 . S
C335 C331 1.460 . S
C335 C334 1.477 . S
C335 H355 0.930 . S
C336 N332 1.362 . S
C336 C333 1.431 . S
C336 C346 1.476 . S
H337 C331 0.929 . S
C338 O329 1.250 . S
C338 O330 1.258 . S
O339 Mn324 2.162 . S
O339 C327 1.281 . S
O340 Mn324 2.297 . S
O340 C327 1.236 . S
N341 Mn325 2.282 . S
N341 C342 1.328 . S
N341 C346 1.318 . S
C342 N341 1.328 . S
C342 C343 1.457 . S
C342 H347 0.929 . S
C343 C342 1.457 . S
C343 C344 1.291 . S
C343 H356 0.931 . S
C344 C343 1.291 . S
C344 C345 1.373 . S
C344 H357 0.929 . S
C345 C344 1.373 . S
C345 C346 1.396 . S
C345 C352 1.403 . S
C346 C336 1.476 . S
C346 N341 1.318 . S
C346 C345 1.396 . S
H347 C342 0.929 . S
O348 Mn324 2.385 . S
O348 C326 1.234 . S
O349 Mn324 2.209 . S
O349 Mn325 2.215 . S
O349 C326 1.283 . S
O350 Mn324 2.094 . S
O350 C328 1.240 . S
O351 Mn325 2.117 . S
O351 C328 1.264 . S
C352 C345 1.403 . S
C352 C353 1.399 . S
C352 H358 0.929 . S
C353 C333 1.449 . S
C353 C352 1.399 . S
C353 H359 0.930 . S
H354 C334 0.931 . S
H355 C335 0.930 . S
H356 C343 0.931 . S
H357 C344 0.929 . S
H358 C352 0.929 . S
H359 C353 0.930 . S
Mn360 O365 2.095 1_545 S
Mn360 O375 2.162 1_545 S
Mn360 O376 2.297 . S
Mn360 O384 2.385 . S
Mn360 O385 2.209 . S
Mn360 O386 2.094 . S
Mn361 O366 2.121 1_545 S
Mn361 N368 2.257 . S
Mn361 N377 2.282 . S
Mn361 O385 2.215 . S
Mn361 O387 2.117 . S
C362 O384 1.234 . S
C362 O385 1.283 . S
C363 O375 1.284 . S
C363 O376 1.236 1_565 S
C364 O386 1.240 . S
C364 O387 1.264 . S
O365 Mn360 2.095 1_565 S
O365 C374 1.250 . S
O366 Mn361 2.121 1_565 S
O366 C374 1.258 . S
C367 N368 1.326 . S
C367 C371 1.460 . S
C367 H373 0.929 1_545 S
N368 Mn361 2.257 . S
N368 C367 1.326 . S
N368 C372 1.362 . S
C369 C370 1.258 . S
C369 C372 1.431 . S
C369 C389 1.449 . S
C370 C369 1.258 . S
C370 C371 1.477 . S
C370 H390 0.931 . S
C371 C367 1.460 . S
C371 C370 1.477 . S
C371 H391 0.930 . S
C372 N368 1.362 . S
C372 C369 1.431 . S
C372 C382 1.476 . S
H373 C367 0.929 1_565 S
C374 O365 1.250 . S
C374 O366 1.258 . S
O375 Mn360 2.162 1_565 S
O375 C363 1.284 . S
O376 Mn360 2.297 . S
O376 C363 1.236 1_545 S
N377 Mn361 2.282 . S
N377 C378 1.328 . S
N377 C382 1.318 . S
C378 N377 1.328 . S
C378 C379 1.457 . S
C378 H383 0.929 . S
C379 C378 1.457 . S
C379 C380 1.291 . S
C379 H392 0.931 . S
C380 C379 1.291 . S
C380 C381 1.373 . S
C380 H393 0.929 . S
C381 C380 1.373 . S
C381 C382 1.396 . S
C381 C388 1.403 . S
C382 C372 1.476 . S
C382 N377 1.318 . S
C382 C381 1.396 . S
H383 C378 0.929 . S
O384 Mn360 2.385 . S
O384 C362 1.234 . S
O385 Mn360 2.209 . S
O385 Mn361 2.215 . S
O385 C362 1.283 . S
O386 Mn360 2.094 . S
O386 C364 1.240 . S
O387 Mn361 2.117 . S
O387 C364 1.264 . S
C388 C381 1.403 . S
C388 C389 1.399 . S
C388 H394 0.929 . S
C389 C369 1.449 . S
C389 C388 1.399 . S
C389 H395 0.930 . S
H390 C370 0.931 . S
H391 C371 0.930 . S
H392 C379 0.931 . S
H393 C380 0.929 . S
H394 C388 0.929 . S
H395 C389 0.930 . S
Mn396 O401 2.095 . S
Mn396 O411 2.162 . S
Mn396 O412 2.297 . S
Mn396 O420 2.385 . S
Mn396 O421 2.209 . S
Mn396 O422 2.094 1_554 S
Mn397 O402 2.121 1_556 S
Mn397 N404 2.257 . S
Mn397 N413 2.282 . S
Mn397 O421 2.215 1_556 S
Mn397 O423 2.117 . S
C398 O420 1.234 . S
C398 O421 1.283 . S
C399 O411 1.281 . S
C399 O412 1.236 . S
C400 O422 1.240 . S
C400 O423 1.264 . S
O401 Mn396 2.095 . S
O401 C410 1.250 . S
O402 Mn397 2.121 1_554 S
O402 C410 1.258 . S
C403 N404 1.326 1_554 S
C403 C407 1.460 . S
C403 H409 0.929 . S
N404 Mn397 2.257 . S
N404 C403 1.326 1_556 S
N404 C408 1.362 . S
C405 C406 1.258 . S
C405 C408 1.431 . S
C405 C425 1.449 . S
C406 C405 1.258 . S
C406 C407 1.477 1_556 S
C406 H426 0.931 . S
C407 C403 1.460 . S
C407 C406 1.477 1_554 S
C407 H427 0.930 . S
C408 N404 1.362 . S
C408 C405 1.431 . S
C408 C418 1.476 . S
H409 C403 0.929 . S
C410 O401 1.250 . S
C410 O402 1.258 . S
O411 Mn396 2.162 . S
O411 C399 1.281 . S
O412 Mn396 2.297 . S
O412 C399 1.236 . S
N413 Mn397 2.282 . S
N413 C414 1.328 . S
N413 C418 1.318 . S
C414 N413 1.328 . S
C414 C415 1.457 . S
C414 H419 0.929 . S
C415 C414 1.457 . S
C415 C416 1.291 . S
C415 H428 0.931 . S
C416 C415 1.291 . S
C416 C417 1.373 . S
C416 H429 0.929 . S
C417 C416 1.373 . S
C417 C418 1.396 . S
C417 C424 1.403 . S
C418 C408 1.476 . S
C418 N413 1.318 . S
C418 C417 1.396 . S
H419 C414 0.929 . S
O420 Mn396 2.385 . S
O420 C398 1.234 . S
O421 Mn396 2.209 . S
O421 Mn397 2.215 1_554 S
O421 C398 1.283 . S
O422 Mn396 2.094 1_556 S
O422 C400 1.240 . S
O423 Mn397 2.117 . S
O423 C400 1.264 . S
C424 C417 1.403 . S
C424 C425 1.399 . S
C424 H430 0.929 . S
C425 C405 1.449 . S
C425 C424 1.399 . S
C425 H431 0.930 . S
H426 C406 0.931 . S
H427 C407 0.930 . S
H428 C415 0.931 . S
H429 C416 0.929 . S
H430 C424 0.929 . S
H431 C425 0.930 . S
Mn432 O437 2.095 . S
Mn432 O447 2.162 . S
Mn432 O448 2.297 . S
Mn432 O456 2.385 . S
Mn432 O457 2.209 . S
Mn432 O458 2.094 . S
Mn433 O438 2.121 . S
Mn433 N440 2.257 . S
Mn433 N449 2.282 1_554 S
Mn433 O457 2.215 . S
Mn433 O459 2.117 1_554 S
C434 O456 1.234 . S
C434 O457 1.283 . S
C435 O447 1.281 . S
C435 O448 1.236 . S
C436 O458 1.240 1_556 S
C436 O459 1.264 . S
O437 Mn432 2.095 . S
O437 C446 1.250 . S
O438 Mn433 2.121 . S
O438 C446 1.258 . S
C439 N440 1.326 . S
C439 C443 1.460 . S
C439 H445 0.929 . S
N440 Mn433 2.257 . S
N440 C439 1.326 . S
N440 C444 1.362 . S
C441 C442 1.258 . S
C441 C444 1.431 . S
C441 C461 1.462 . S
C442 C441 1.258 . S
C442 C443 1.477 . S
C442 H462 0.931 . S
C443 C439 1.460 . S
C443 C442 1.477 . S
C443 H463 0.930 . S
C444 N440 1.362 . S
C444 C441 1.431 . S
C444 C454 1.476 1_554 S
H445 C439 0.929 . S
C446 O437 1.250 . S
C446 O438 1.258 . S
O447 Mn432 2.162 . S
O447 C435 1.281 . S
O448 Mn432 2.297 . S
O448 C435 1.236 . S
N449 Mn433 2.282 1_556 S
N449 C450 1.328 . S
N449 C454 1.318 . S
C450 N449 1.328 . S
C450 C451 1.457 . S
C450 H455 0.929 . S
C451 C450 1.457 . S
C451 C452 1.291 . S
C451 H464 0.931 . S
C452 C451 1.291 . S
C452 C453 1.373 . S
C452 H465 0.929 . S
C453 C452 1.373 . S
C453 C454 1.396 . S
C453 C460 1.403 . S
C454 C444 1.476 1_556 S
C454 N449 1.318 . S
C454 C453 1.396 . S
H455 C450 0.929 . S
O456 Mn432 2.385 . S
O456 C434 1.234 . S
O457 Mn432 2.209 . S
O457 Mn433 2.215 . S
O457 C434 1.283 . S
O458 Mn432 2.094 . S
O458 C436 1.240 1_554 S
O459 Mn433 2.117 1_556 S
O459 C436 1.264 . S
C460 C453 1.403 . S
C460 C461 1.388 1_556 S
C460 H466 0.929 . S
C461 C441 1.462 . S
C461 C460 1.388 1_554 S
C461 H467 0.929 . S
H462 C442 0.931 . S
H463 C443 0.930 . S
H464 C451 0.931 . S
H465 C452 0.929 . S
H466 C460 0.929 . S
H467 C461 0.929 . S
Mn468 O473 2.095 . S
Mn468 O483 2.162 . S
Mn468 O484 2.297 . S
Mn468 O492 2.385 . S
Mn468 O493 2.209 . S
Mn468 O494 2.094 1_554 S
Mn469 O474 2.121 1_556 S
Mn469 N476 2.257 . S
Mn469 N485 2.282 . S
Mn469 O493 2.215 1_556 S
Mn469 O495 2.117 . S
C470 O492 1.234 . S
C470 O493 1.283 . S
C471 O483 1.281 . S
C471 O484 1.236 . S
C472 O494 1.240 . S
C472 O495 1.264 . S
O473 Mn468 2.095 . S
O473 C482 1.250 . S
O474 Mn469 2.121 1_554 S
O474 C482 1.258 . S
C475 N476 1.326 . S
C475 C479 1.460 . S
C475 H481 0.929 1_556 S
N476 Mn469 2.257 . S
N476 C475 1.326 . S
N476 C480 1.362 . S
C477 C478 1.258 . S
C477 C480 1.431 . S
C477 C497 1.449 . S
C478 C477 1.258 . S
C478 C479 1.477 . S
C478 H498 0.931 . S
C479 C475 1.460 . S
C479 C478 1.477 . S
C479 H499 0.930 1_556 S
C480 N476 1.362 . S
C480 C477 1.431 . S
C480 C490 1.476 . S
H481 C475 0.929 1_554 S
C482 O473 1.250 . S
C482 O474 1.258 . S
O483 Mn468 2.162 . S
O483 C471 1.281 . S
O484 Mn468 2.297 . S
O484 C471 1.236 . S
N485 Mn469 2.282 . S
N485 C486 1.328 . S
N485 C490 1.318 . S
C486 N485 1.328 . S
C486 C487 1.457 . S
C486 H491 0.929 . S
C487 C486 1.457 . S
C487 C488 1.291 . S
C487 H500 0.931 . S
C488 C487 1.291 . S
C488 C489 1.373 . S
C488 H501 0.929 . S
C489 C488 1.373 . S
C489 C490 1.396 . S
C489 C496 1.403 . S
C490 C480 1.476 . S
C490 N485 1.318 . S
C490 C489 1.396 . S
H491 C486 0.929 . S
O492 Mn468 2.385 . S
O492 C470 1.234 . S
O493 Mn468 2.209 . S
O493 Mn469 2.215 1_554 S
O493 C470 1.283 . S
O494 Mn468 2.094 1_556 S
O494 C472 1.240 . S
O495 Mn469 2.117 . S
O495 C472 1.264 . S
C496 C489 1.403 . S
C496 C497 1.399 . S
C496 H502 0.929 . S
C497 C477 1.449 . S
C497 C496 1.399 . S
C497 H503 0.930 . S
H498 C478 0.931 . S
H499 C479 0.930 1_554 S
H500 C487 0.931 . S
H501 C488 0.929 . S
H502 C496 0.929 . S
H503 C497 0.930 . S
Mn504 O509 2.095 . S
Mn504 O519 2.162 . S
Mn504 O520 2.297 . S
Mn504 O528 2.385 . S
Mn504 O529 2.209 . S
Mn504 O530 2.094 . S
Mn505 O510 2.121 . S
Mn505 N512 2.257 . S
Mn505 N521 2.282 . S
Mn505 O529 2.215 . S
Mn505 O531 2.117 . S
C506 O528 1.234 . S
C506 O529 1.283 . S
C507 O519 1.281 . S
C507 O520 1.236 . S
C508 O530 1.240 . S
C508 O531 1.264 . S
O509 Mn504 2.095 . S
O509 C518 1.250 . S
O510 Mn505 2.121 . S
O510 C518 1.258 . S
C511 N512 1.326 . S
C511 C515 1.460 . S
C511 H517 0.929 . S
N512 Mn505 2.257 . S
N512 C511 1.326 . S
N512 C516 1.362 . S
C513 C514 1.258 . S
C513 C516 1.431 . S
C513 C533 1.449 . S
C514 C513 1.258 . S
C514 C515 1.477 . S
C514 H534 0.931 . S
C515 C511 1.460 . S
C515 C514 1.477 . S
C515 H535 0.930 . S
C516 N512 1.362 . S
C516 C513 1.431 . S
C516 C526 1.476 . S
H517 C511 0.929 . S
C518 O509 1.250 . S
C518 O510 1.258 . S
O519 Mn504 2.162 . S
O519 C507 1.281 . S
O520 Mn504 2.297 . S
O520 C507 1.236 . S
N521 Mn505 2.282 . S
N521 C522 1.328 . S
N521 C526 1.318 . S
C522 N521 1.328 . S
C522 C523 1.457 . S
C522 H527 0.929 . S
C523 C522 1.457 . S
C523 C524 1.291 . S
C523 H536 0.931 . S
C524 C523 1.291 . S
C524 C525 1.373 . S
C524 H537 0.929 . S
C525 C524 1.373 . S
C525 C526 1.396 . S
C525 C532 1.403 . S
C526 C516 1.476 . S
C526 N521 1.318 . S
C526 C525 1.396 . S
H527 C522 0.929 . S
O528 Mn504 2.385 . S
O528 C506 1.234 . S
O529 Mn504 2.209 . S
O529 Mn505 2.215 . S
O529 C506 1.283 . S
O530 Mn504 2.094 . S
O530 C508 1.240 . S
O531 Mn505 2.117 . S
O531 C508 1.264 . S
C532 C525 1.403 . S
C532 C533 1.399 . S
C532 H538 0.929 . S
C533 C513 1.449 . S
C533 C532 1.399 . S
C533 H539 0.930 . S
H534 C514 0.931 . S
H535 C515 0.930 . S
H536 C523 0.931 . S
H537 C524 0.929 . S
H538 C532 0.929 . S
H539 C533 0.930 . S
Mn540 O545 2.095 . S
Mn540 O555 2.162 . S
Mn540 O556 2.297 . S
Mn540 O564 2.385 . S
Mn540 O565 2.209 . S
Mn540 O566 2.094 . S
Mn541 O546 2.121 . S
Mn541 N548 2.257 . S
Mn541 N557 2.282 . S
Mn541 O565 2.215 . S
Mn541 O567 2.117 . S
C542 O564 1.234 . S
C542 O565 1.283 . S
C543 O555 1.281 . S
C543 O556 1.236 . S
C544 O566 1.240 . S
C544 O567 1.264 . S
O545 Mn540 2.095 . S
O545 C554 1.250 . S
O546 Mn541 2.121 . S
O546 C554 1.258 . S
C547 N548 1.326 . S
C547 C551 1.460 . S
C547 H553 0.929 . S
N548 Mn541 2.257 . S
N548 C547 1.326 . S
N548 C552 1.362 . S
C549 C550 1.258 . S
C549 C552 1.431 . S
C549 C569 1.449 . S
C550 C549 1.258 . S
C550 C551 1.477 . S
C550 H570 0.931 . S
C551 C547 1.460 . S
C551 C550 1.477 . S
C551 H571 0.930 . S
C552 N548 1.362 . S
C552 C549 1.431 . S
C552 C562 1.476 . S
H553 C547 0.929 . S
C554 O545 1.250 . S
C554 O546 1.258 . S
O555 Mn540 2.162 . S
O555 C543 1.281 . S
O556 Mn540 2.297 . S
O556 C543 1.236 . S
N557 Mn541 2.282 . S
N557 C558 1.328 . S
N557 C562 1.318 . S
C558 N557 1.328 . S
C558 C559 1.457 . S
C558 H563 0.929 . S
C559 C558 1.457 . S
C559 C560 1.291 . S
C559 H572 0.931 . S
C560 C559 1.291 . S
C560 C561 1.373 . S
C560 H573 0.929 . S
C561 C560 1.373 . S
C561 C562 1.396 . S
C561 C568 1.403 . S
C562 C552 1.476 . S
C562 N557 1.318 . S
C562 C561 1.396 . S
H563 C558 0.929 . S
O564 Mn540 2.385 . S
O564 C542 1.234 . S
O565 Mn540 2.209 . S
O565 Mn541 2.215 . S
O565 C542 1.283 . S
O566 Mn540 2.094 . S
O566 C544 1.240 . S
O567 Mn541 2.117 . S
O567 C544 1.264 . S
C568 C561 1.403 . S
C568 C569 1.399 . S
C568 H574 0.929 . S
C569 C549 1.449 . S
C569 C568 1.399 . S
C569 H575 0.930 . S
H570 C550 0.931 . S
H571 C551 0.930 . S
H572 C559 0.931 . S
H573 C560 0.929 . S
H574 C568 0.929 . S
H575 C569 0.930 . S
Mn576 O581 2.095 . S
Mn576 O591 2.162 . S
Mn576 O592 2.297 . S
Mn576 O600 2.385 1_545 S
Mn576 O601 2.209 1_545 S
Mn576 O602 2.094 . S
Mn577 O582 2.121 . S
Mn577 N584 2.257 1_545 S
Mn577 N593 2.282 1_545 S
Mn577 O601 2.215 1_545 S
Mn577 O603 2.117 . S
C578 O600 1.234 . S
C578 O601 1.283 . S
C579 O591 1.281 . S
C579 O592 1.236 . S
C580 O602 1.240 . S
C580 O603 1.264 . S
O581 Mn576 2.095 . S
O581 C590 1.250 . S
O582 Mn577 2.121 . S
O582 C590 1.258 . S
C583 N584 1.326 1_545 S
C583 C587 1.460 1_545 S
C583 H589 0.929 . S
N584 Mn577 2.257 1_565 S
N584 C583 1.326 1_565 S
N584 C588 1.362 . S
C585 C586 1.258 . S
C585 C588 1.431 . S
C585 C605 1.449 . S
C586 C585 1.258 . S
C586 C587 1.477 . S
C586 H606 0.931 . S
C587 C583 1.460 1_565 S
C587 C586 1.477 . S
C587 H607 0.930 1_565 S
C588 N584 1.362 . S
C588 C585 1.431 . S
C588 C598 1.476 . S
H589 C583 0.929 . S
C590 O581 1.250 . S
C590 O582 1.258 . S
O591 Mn576 2.162 . S
O591 C579 1.281 . S
O592 Mn576 2.297 . S
O592 C579 1.236 . S
N593 Mn577 2.282 1_565 S
N593 C594 1.328 . S
N593 C598 1.318 . S
C594 N593 1.328 . S
C594 C595 1.457 . S
C594 H599 0.929 . S
C595 C594 1.457 . S
C595 C596 1.291 . S
C595 H608 0.931 . S
C596 C595 1.291 . S
C596 C597 1.373 . S
C596 H609 0.929 . S
C597 C596 1.373 . S
C597 C598 1.396 . S
C597 C604 1.403 . S
C598 C588 1.476 . S
C598 N593 1.318 . S
C598 C597 1.396 . S
H599 C594 0.929 . S
O600 Mn576 2.385 1_565 S
O600 C578 1.234 . S
O601 Mn576 2.209 1_565 S
O601 Mn577 2.215 1_565 S
O601 C578 1.283 . S
O602 Mn576 2.094 . S
O602 C580 1.240 . S
O603 Mn577 2.117 . S
O603 C580 1.264 . S
C604 C597 1.403 . S
C604 C605 1.399 . S
C604 H610 0.929 . S
C605 C585 1.449 . S
C605 C604 1.399 . S
C605 H611 0.930 . S
H606 C586 0.931 . S
H607 C587 0.930 1_545 S
H608 C595 0.931 . S
H609 C596 0.929 . S
H610 C604 0.929 . S
H611 C605 0.930 . S
Mn612 O617 2.095 . S
Mn612 O627 2.162 . S
Mn612 O628 2.297 . S
Mn612 O636 2.385 . S
Mn612 O637 2.209 . S
Mn612 O638 2.094 . S
Mn613 O618 2.121 . S
Mn613 N620 2.257 . S
Mn613 N629 2.282 . S
Mn613 O637 2.215 . S
Mn613 O639 2.117 . S
C614 O636 1.234 . S
C614 O637 1.283 . S
C615 O627 1.281 . S
C615 O628 1.236 . S
C616 O638 1.240 . S
C616 O639 1.264 . S
O617 Mn612 2.095 . S
O617 C626 1.250 . S
O618 Mn613 2.121 . S
O618 C626 1.258 . S
C619 N620 1.326 . S
C619 C623 1.460 . S
C619 H625 0.929 . S
N620 Mn613 2.257 . S
N620 C619 1.326 . S
N620 C624 1.362 . S
C621 C622 1.258 . S
C621 C624 1.431 . S
C621 C641 1.449 . S
C622 C621 1.258 . S
C622 C623 1.477 . S
C622 H642 0.931 . S
C623 C619 1.460 . S
C623 C622 1.477 . S
C623 H643 0.930 . S
C624 N620 1.362 . S
C624 C621 1.431 . S
C624 C634 1.476 . S
H625 C619 0.929 . S
C626 O617 1.250 . S
C626 O618 1.258 . S
O627 Mn612 2.162 . S
O627 C615 1.281 . S
O628 Mn612 2.297 . S
O628 C615 1.236 . S
N629 Mn613 2.282 . S
N629 C630 1.328 . S
N629 C634 1.318 . S
C630 N629 1.328 . S
C630 C631 1.457 . S
C630 H635 0.929 . S
C631 C630 1.457 . S
C631 C632 1.291 . S
C631 H644 0.931 . S
C632 C631 1.291 . S
C632 C633 1.373 . S
C632 H645 0.929 . S
C633 C632 1.373 . S
C633 C634 1.396 . S
C633 C640 1.403 . S
C634 C624 1.476 . S
C634 N629 1.318 . S
C634 C633 1.396 . S
H635 C630 0.929 . S
O636 Mn612 2.385 . S
O636 C614 1.234 . S
O637 Mn612 2.209 . S
O637 Mn613 2.215 . S
O637 C614 1.283 . S
O638 Mn612 2.094 . S
O638 C616 1.240 . S
O639 Mn613 2.117 . S
O639 C616 1.264 . S
C640 C633 1.403 . S
C640 C641 1.399 . S
C640 H646 0.929 . S
C641 C621 1.449 . S
C641 C640 1.399 . S
C641 H647 0.930 . S
H642 C622 0.931 . S
H643 C623 0.930 . S
H644 C631 0.931 . S
H645 C632 0.929 . S
H646 C640 0.929 . S
H647 C641 0.930 . S
Mn648 O653 2.095 . S
Mn648 O663 2.162 . S
Mn648 O664 2.297 . S
Mn648 O672 2.385 . S
Mn648 O673 2.209 . S
Mn648 O674 2.094 . S
Mn649 O654 2.121 . S
Mn649 N656 2.257 . S
Mn649 N665 2.282 . S
Mn649 O673 2.215 . S
Mn649 O675 2.117 . S
C650 O672 1.234 . S
C650 O673 1.283 . S
C651 O663 1.281 . S
C651 O664 1.236 . S
C652 O674 1.240 . S
C652 O675 1.264 . S
O653 Mn648 2.095 . S
O653 C662 1.250 . S
O654 Mn649 2.121 . S
O654 C662 1.258 . S
C655 N656 1.326 . S
C655 C659 1.460 . S
C655 H661 0.929 . S
N656 Mn649 2.257 . S
N656 C655 1.326 . S
N656 C660 1.362 . S
C657 C658 1.258 . S
C657 C660 1.431 . S
C657 C677 1.449 . S
C658 C657 1.258 . S
C658 C659 1.477 . S
C658 H678 0.931 . S
C659 C655 1.460 . S
C659 C658 1.477 . S
C659 H679 0.930 . S
C660 N656 1.362 . S
C660 C657 1.431 . S
C660 C670 1.476 . S
H661 C655 0.929 . S
C662 O653 1.250 . S
C662 O654 1.258 . S
O663 Mn648 2.162 . S
O663 C651 1.281 . S
O664 Mn648 2.297 . S
O664 C651 1.236 . S
N665 Mn649 2.282 . S
N665 C666 1.328 . S
N665 C670 1.318 . S
C666 N665 1.328 . S
C666 C667 1.457 . S
C666 H671 0.929 . S
C667 C666 1.457 . S
C667 C668 1.291 . S
C667 H680 0.931 . S
C668 C667 1.291 . S
C668 C669 1.373 . S
C668 H681 0.929 . S
C669 C668 1.373 . S
C669 C670 1.396 . S
C669 C676 1.403 . S
C670 C660 1.476 . S
C670 N665 1.318 . S
C670 C669 1.396 . S
H671 C666 0.929 . S
O672 Mn648 2.385 . S
O672 C650 1.234 . S
O673 Mn648 2.209 . S
O673 Mn649 2.215 . S
O673 C650 1.283 . S
O674 Mn648 2.094 . S
O674 C652 1.240 . S
O675 Mn649 2.117 . S
O675 C652 1.264 . S
C676 C669 1.403 . S
C676 C677 1.399 . S
C676 H682 0.929 . S
C677 C657 1.449 . S
C677 C676 1.399 . S
C677 H683 0.930 . S
H678 C658 0.931 . S
H679 C659 0.930 . S
H680 C667 0.931 . S
H681 C668 0.929 . S
H682 C676 0.929 . S
H683 C677 0.930 . S
Mn684 O689 2.078 1_545 S
Mn684 O699 2.162 1_545 S
Mn684 O700 2.298 1_545 S
Mn684 O708 2.403 . S
Mn684 O709 2.216 . S
Mn684 O710 2.094 1_545 S
Mn685 O690 2.121 1_545 S
Mn685 N692 2.257 . S
Mn685 N701 2.282 . S
Mn685 O709 2.215 . S
Mn685 O711 2.117 . S
C686 O708 1.234 . S
C686 O709 1.283 . S
C687 O699 1.281 . S
C687 O700 1.235 . S
C688 O710 1.247 1_545 S
C688 O711 1.265 . S
O689 Mn684 2.078 1_565 S
O689 C698 1.250 . S
O690 Mn685 2.121 1_565 S
O690 C698 1.258 . S
C691 N692 1.326 . S
C691 C695 1.460 . S
C691 H697 0.929 1_545 S
N692 Mn685 2.257 . S
N692 C691 1.326 . S
N692 C696 1.362 . S
C693 C694 1.258 . S
C693 C696 1.431 . S
C693 C713 1.449 . S
C694 C693 1.258 . S
C694 C695 1.477 . S
C694 H714 0.931 . S
C695 C691 1.460 . S
C695 C694 1.477 . S
C695 H715 0.930 . S
C696 N692 1.362 . S
C696 C693 1.431 . S
C696 C706 1.476 . S
H697 C691 0.929 1_565 S
C698 O689 1.250 . S
C698 O690 1.258 . S
O699 Mn684 2.162 1_565 S
O699 C687 1.281 . S
O700 Mn684 2.298 1_565 S
O700 C687 1.235 . S
N701 Mn685 2.282 . S
N701 C702 1.328 . S
N701 C706 1.318 . S
C702 N701 1.328 . S
C702 C703 1.457 . S
C702 H707 0.929 . S
C703 C702 1.457 . S
C703 C704 1.291 . S
C703 H716 0.931 . S
C704 C703 1.291 . S
C704 C705 1.373 . S
C704 H717 0.929 . S
C705 C704 1.373 . S
C705 C706 1.396 . S
C705 C712 1.403 . S
C706 C696 1.476 . S
C706 N701 1.318 . S
C706 C705 1.396 . S
H707 C702 0.929 . S
O708 Mn684 2.403 . S
O708 C686 1.234 . S
O709 Mn684 2.216 . S
O709 Mn685 2.215 . S
O709 C686 1.283 . S
O710 Mn684 2.094 1_565 S
O710 C688 1.247 1_565 S
O711 Mn685 2.117 . S
O711 C688 1.265 . S
C712 C705 1.403 . S
C712 C713 1.399 . S
C712 H718 0.929 . S
C713 C693 1.449 . S
C713 C712 1.399 . S
C713 H719 0.930 . S
H714 C694 0.931 . S
H715 C695 0.930 . S
H716 C703 0.931 . S
H717 C704 0.929 . S
H718 C712 0.929 . S
H719 C713 0.930 . S
Mn720 O725 2.095 1_554 S
Mn720 O735 2.162 . S
Mn720 O736 2.297 . S
Mn720 O744 2.385 . S
Mn720 O745 2.209 1_554 S
Mn720 O746 2.094 1_554 S
Mn721 O726 2.121 . S
Mn721 N728 2.257 . S
Mn721 N737 2.282 . S
Mn721 O745 2.215 . S
Mn721 O747 2.117 . S
C722 O744 1.234 1_556 S
C722 O745 1.283 . S
C723 O735 1.281 . S
C723 O736 1.236 . S
C724 O746 1.240 . S
C724 O747 1.264 . S
O725 Mn720 2.095 1_556 S
O725 C734 1.250 . S
O726 Mn721 2.121 . S
O726 C734 1.258 . S
C727 N728 1.326 . S
C727 C731 1.460 . S
C727 H733 0.929 . S
N728 Mn721 2.257 . S
N728 C727 1.326 . S
N728 C732 1.362 . S
C729 C730 1.258 . S
C729 C732 1.431 . S
C729 C749 1.449 . S
C730 C729 1.258 . S
C730 C731 1.477 . S
C730 H750 0.931 . S
C731 C727 1.460 . S
C731 C730 1.477 . S
C731 H751 0.930 . S
C732 N728 1.362 . S
C732 C729 1.431 . S
C732 C742 1.476 . S
H733 C727 0.929 . S
C734 O725 1.250 . S
C734 O726 1.258 . S
O735 Mn720 2.162 . S
O735 C723 1.281 . S
O736 Mn720 2.297 . S
O736 C723 1.236 . S
N737 Mn721 2.282 . S
N737 C738 1.328 . S
N737 C742 1.318 . S
C738 N737 1.328 . S
C738 C739 1.457 . S
C738 H743 0.929 . S
C739 C738 1.457 . S
C739 C740 1.291 . S
C739 H752 0.931 . S
C740 C739 1.291 . S
C740 C741 1.373 . S
C740 H753 0.929 . S
C741 C740 1.373 . S
C741 C742 1.396 . S
C741 C748 1.403 . S
C742 C732 1.476 . S
C742 N737 1.318 . S
C742 C741 1.396 . S
H743 C738 0.929 . S
O744 Mn720 2.385 . S
O744 C722 1.234 1_554 S
O745 Mn720 2.209 1_556 S
O745 Mn721 2.215 . S
O745 C722 1.283 . S
O746 Mn720 2.094 1_556 S
O746 C724 1.240 . S
O747 Mn721 2.117 . S
O747 C724 1.264 . S
C748 C741 1.403 . S
C748 C749 1.399 . S
C748 H754 0.929 . S
C749 C729 1.449 . S
C749 C748 1.399 . S
C749 H755 0.930 . S
H750 C730 0.931 . S
H751 C731 0.930 . S
H752 C739 0.931 . S
H753 C740 0.929 . S
H754 C748 0.929 . S
H755 C749 0.930 . S
Mn756 O761 2.095 . S
Mn756 O771 2.162 . S
Mn756 O772 2.297 . S
Mn756 O780 2.385 . S
Mn756 O781 2.209 . S
Mn756 O782 2.094 . S
Mn757 O762 2.121 . S
Mn757 N764 2.257 . S
Mn757 N773 2.282 . S
Mn757 O781 2.215 . S
Mn757 O783 2.117 . S
C758 O780 1.234 . S
C758 O781 1.283 . S
C759 O771 1.281 . S
C759 O772 1.236 . S
C760 O782 1.240 . S
C760 O783 1.264 . S
O761 Mn756 2.095 . S
O761 C770 1.250 . S
O762 Mn757 2.121 . S
O762 C770 1.258 . S
C763 N764 1.326 . S
C763 C767 1.460 . S
C763 H769 0.929 . S
N764 Mn757 2.257 . S
N764 C763 1.326 . S
N764 C768 1.362 . S
C765 C766 1.258 . S
C765 C768 1.431 . S
C765 C785 1.449 . S
C766 C765 1.258 . S
C766 C767 1.477 . S
C766 H786 0.931 . S
C767 C763 1.460 . S
C767 C766 1.477 . S
C767 H787 0.930 . S
C768 N764 1.362 . S
C768 C765 1.431 . S
C768 C778 1.476 . S
H769 C763 0.929 . S
C770 O761 1.250 . S
C770 O762 1.258 . S
O771 Mn756 2.162 . S
O771 C759 1.281 . S
O772 Mn756 2.297 . S
O772 C759 1.236 . S
N773 Mn757 2.282 . S
N773 C774 1.328 . S
N773 C778 1.318 . S
C774 N773 1.328 . S
C774 C775 1.457 . S
C774 H779 0.929 . S
C775 C774 1.457 . S
C775 C776 1.291 . S
C775 H788 0.931 . S
C776 C775 1.291 . S
C776 C777 1.373 . S
C776 H789 0.929 . S
C777 C776 1.373 . S
C777 C778 1.396 . S
C777 C784 1.403 . S
C778 C768 1.476 . S
C778 N773 1.318 . S
C778 C777 1.396 . S
H779 C774 0.929 . S
O780 Mn756 2.385 . S
O780 C758 1.234 . S
O781 Mn756 2.209 . S
O781 Mn757 2.215 . S
O781 C758 1.283 . S
O782 Mn756 2.094 . S
O782 C760 1.240 . S
O783 Mn757 2.117 . S
O783 C760 1.264 . S
C784 C777 1.403 . S
C784 C785 1.399 . S
C784 H790 0.929 . S
C785 C765 1.449 . S
C785 C784 1.399 . S
C785 H791 0.930 . S
H786 C766 0.931 . S
H787 C767 0.930 . S
H788 C775 0.931 . S
H789 C776 0.929 . S
H790 C784 0.929 . S
H791 C785 0.930 . S
Mn792 O797 2.095 . S
Mn792 O807 2.162 . S
Mn792 O808 2.297 . S
Mn792 O816 2.385 . S
Mn792 O817 2.209 . S
Mn792 O818 2.094 . S
Mn793 O798 2.121 . S
Mn793 N800 2.257 . S
Mn793 N809 2.282 . S
Mn793 O817 2.215 . S
Mn793 O819 2.117 . S
C794 O816 1.234 . S
C794 O817 1.283 . S
C795 O807 1.281 . S
C795 O808 1.236 . S
C796 O818 1.240 . S
C796 O819 1.264 . S
O797 Mn792 2.095 . S
O797 C806 1.250 . S
O798 Mn793 2.121 . S
O798 C806 1.258 . S
C799 N800 1.326 . S
C799 C803 1.460 . S
C799 H805 0.929 . S
N800 Mn793 2.257 . S
N800 C799 1.326 . S
N800 C804 1.362 . S
C801 C802 1.258 . S
C801 C804 1.431 . S
C801 C821 1.449 . S
C802 C801 1.258 . S
C802 C803 1.477 . S
C802 H822 0.931 . S
C803 C799 1.460 . S
C803 C802 1.477 . S
C803 H823 0.930 . S
C804 N800 1.362 . S
C804 C801 1.431 . S
C804 C814 1.476 . S
H805 C799 0.929 . S
C806 O797 1.250 . S
C806 O798 1.258 . S
O807 Mn792 2.162 . S
O807 C795 1.281 . S
O808 Mn792 2.297 . S
O808 C795 1.236 . S
N809 Mn793 2.282 . S
N809 C810 1.328 . S
N809 C814 1.318 . S
C810 N809 1.328 . S
C810 C811 1.457 . S
C810 H815 0.929 . S
C811 C810 1.457 . S
C811 C812 1.291 . S
C811 H824 0.931 . S
C812 C811 1.291 . S
C812 C813 1.373 . S
C812 H825 0.929 . S
C813 C812 1.373 . S
C813 C814 1.396 . S
C813 C820 1.403 . S
C814 C804 1.476 . S
C814 N809 1.318 . S
C814 C813 1.396 . S
H815 C810 0.929 . S
O816 Mn792 2.385 . S
O816 C794 1.234 . S
O817 Mn792 2.209 . S
O817 Mn793 2.215 . S
O817 C794 1.283 . S
O818 Mn792 2.094 . S
O818 C796 1.240 . S
O819 Mn793 2.117 . S
O819 C796 1.264 . S
C820 C813 1.403 . S
C820 C821 1.399 . S
C820 H826 0.929 . S
C821 C801 1.449 . S
C821 C820 1.399 . S
C821 H827 0.930 . S
H822 C802 0.931 . S
H823 C803 0.930 . S
H824 C811 0.931 . S
H825 C812 0.929 . S
H826 C820 0.929 . S
H827 C821 0.930 . S
Mn828 O833 2.095 . S
Mn828 O843 2.162 . S
Mn828 O844 2.297 . S
Mn828 O852 2.385 . S
Mn828 O853 2.209 . S
Mn828 O854 2.094 . S
Mn829 O834 2.121 . S
Mn829 N836 2.257 . S
Mn829 N845 2.282 . S
Mn829 O853 2.215 . S
Mn829 O855 2.117 . S
C830 O852 1.234 . S
C830 O853 1.283 . S
C831 O843 1.281 . S
C831 O844 1.236 . S
C832 O854 1.240 . S
C832 O855 1.264 . S
O833 Mn828 2.095 . S
O833 C842 1.250 . S
O834 Mn829 2.121 . S
O834 C842 1.258 . S
C835 N836 1.326 . S
C835 C839 1.460 . S
C835 H841 0.929 . S
N836 Mn829 2.257 . S
N836 C835 1.326 . S
N836 C840 1.362 . S
C837 C838 1.258 . S
C837 C840 1.431 . S
C837 C857 1.449 . S
C838 C837 1.258 . S
C838 C839 1.477 . S
C838 H858 0.931 . S
C839 C835 1.460 . S
C839 C838 1.477 . S
C839 H859 0.930 . S
C840 N836 1.362 . S
C840 C837 1.431 . S
C840 C850 1.476 . S
H841 C835 0.929 . S
C842 O833 1.250 . S
C842 O834 1.258 . S
O843 Mn828 2.162 . S
O843 C831 1.281 . S
O844 Mn828 2.297 . S
O844 C831 1.236 . S
N845 Mn829 2.282 . S
N845 C846 1.328 . S
N845 C850 1.318 . S
C846 N845 1.328 . S
C846 C847 1.457 . S
C846 H851 0.929 . S
C847 C846 1.457 . S
C847 C848 1.291 . S
C847 H860 0.931 . S
C848 C847 1.291 . S
C848 C849 1.373 . S
C848 H861 0.929 . S
C849 C848 1.373 . S
C849 C850 1.396 . S
C849 C856 1.403 . S
C850 C840 1.476 . S
C850 N845 1.318 . S
C850 C849 1.396 . S
H851 C846 0.929 . S
O852 Mn828 2.385 . S
O852 C830 1.234 . S
O853 Mn828 2.209 . S
O853 Mn829 2.215 . S
O853 C830 1.283 . S
O854 Mn828 2.094 . S
O854 C832 1.240 . S
O855 Mn829 2.117 . S
O855 C832 1.264 . S
C856 C849 1.403 . S
C856 C857 1.399 . S
C856 H862 0.929 . S
C857 C837 1.449 . S
C857 C856 1.399 . S
C857 H863 0.930 . S
H858 C838 0.931 . S
H859 C839 0.930 . S
H860 C847 0.931 . S
H861 C848 0.929 . S
H862 C856 0.929 . S
H863 C857 0.930 . S
Zn864 O870 1.969 . S
Zn864 O871 1.965 . S
Zn864 O875 2.024 . S
Zn864 O880 1.969 . S
Zn865 O872 1.969 1_654 S
Zn865 O878 1.969 1_554 S
Zn865 O879 1.965 . S
Zn865 O881 2.024 1_655 S
C866 O867 1.229 . S
C866 O875 1.058 . S
O867 C866 1.229 . S
C868 O869 1.193 1_454 S
C868 O881 1.096 . S
O869 C868 1.193 1_656 S
O870 Zn864 1.969 . S
O870 C873 1.267 . S
O871 Zn864 1.965 . S
O871 C882 1.260 1_554 S
O872 Zn865 1.969 1_456 S
O872 C882 1.258 1_545 S
C873 O870 1.267 . S
C873 O874 1.228 . S
O874 C873 1.228 . S
O875 Zn864 2.024 . S
O875 C866 1.058 . S
C876 O877 1.228 . S
C876 O878 1.267 1_554 S
O877 C876 1.228 . S
O878 Zn865 1.969 1_556 S
O878 C876 1.267 1_556 S
O879 Zn865 1.965 . S
O879 C883 1.269 . S
O880 Zn864 1.969 . S
O880 C883 1.243 1_465 S
O881 Zn865 2.024 1_455 S
O881 C868 1.096 . S
C882 O871 1.260 1_556 S
C882 O872 1.258 1_565 S
C883 O879 1.269 . S
C883 O880 1.243 1_645 S
Zn884 O890 1.969 . S
Zn884 O891 1.965 . S
Zn884 O895 2.024 . S
Zn884 O900 1.969 . S
Zn885 O892 1.969 . S
Zn885 O898 1.969 . S
Zn885 O899 1.965 . S
Zn885 O901 2.024 . S
C886 O887 1.229 . S
C886 O895 1.058 . S
O887 C886 1.229 . S
C888 O889 1.229 . S
C888 O901 1.058 . S
O889 C888 1.229 . S
O890 Zn884 1.969 . S
O890 C893 1.267 . S
O891 Zn884 1.965 . S
O891 C902 1.260 . S
O892 Zn885 1.969 . S
O892 C902 1.258 . S
C893 O890 1.267 . S
C893 O894 1.228 . S
O894 C893 1.228 . S
O895 Zn884 2.024 . S
O895 C886 1.058 . S
C896 O897 1.228 . S
C896 O898 1.267 . S
O897 C896 1.228 . S
O898 Zn885 1.969 . S
O898 C896 1.267 . S
O899 Zn885 1.965 . S
O899 C903 1.260 . S
O900 Zn884 1.969 . S
O900 C903 1.258 . S
O901 Zn885 2.024 . S
O901 C888 1.058 . S
C902 O891 1.260 . S
C902 O892 1.258 . S
C903 O899 1.260 . S
C903 O900 1.258 . S
Zn904 O910 1.969 . S
Zn904 O911 1.965 . S
Zn904 O915 2.024 . S
Zn904 O920 1.969 . S
Zn905 O912 1.969 1_565 S
Zn905 O918 1.969 . S
Zn905 O919 1.965 1_565 S
Zn905 O921 2.024 . S
C906 O907 1.229 . S
C906 O915 1.058 . S
O907 C906 1.229 . S
C908 O909 1.229 . S
C908 O921 1.058 . S
O909 C908 1.229 . S
O910 Zn904 1.969 . S
O910 C913 1.267 . S
O911 Zn904 1.965 . S
O911 C922 1.260 . S
O912 Zn905 1.969 1_545 S
O912 C922 1.258 . S
C913 O910 1.267 . S
C913 O914 1.228 . S
O914 C913 1.228 . S
O915 Zn904 2.024 . S
O915 C906 1.058 . S
C916 O917 1.228 . S
C916 O918 1.267 . S
O917 C916 1.228 . S
O918 Zn905 1.969 . S
O918 C916 1.267 . S
O919 Zn905 1.965 1_545 S
O919 C923 1.260 . S
O920 Zn904 1.969 . S
O920 C923 1.258 . S
O921 Zn905 2.024 . S
O921 C908 1.058 . S
C922 O911 1.260 . S
C922 O912 1.258 . S
C923 O919 1.260 . S
C923 O920 1.258 . S
Zn924 O930 1.969 . S
Zn924 O931 1.965 . S
Zn924 O935 2.024 . S
Zn924 O940 1.969 . S
Zn925 O932 1.969 . S
Zn925 O938 1.969 . S
Zn925 O939 1.965 . S
Zn925 O941 2.024 . S
C926 O927 1.229 . S
C926 O935 1.058 . S
O927 C926 1.229 . S
C928 O929 1.229 . S
C928 O941 1.058 . S
O929 C928 1.229 . S
O930 Zn924 1.969 . S
O930 C933 1.267 . S
O931 Zn924 1.965 . S
O931 C942 1.260 . S
O932 Zn925 1.969 . S
O932 C942 1.258 . S
C933 O930 1.267 . S
C933 O934 1.228 . S
O934 C933 1.228 . S
O935 Zn924 2.024 . S
O935 C926 1.058 . S
C936 O937 1.228 . S
C936 O938 1.267 . S
O937 C936 1.228 . S
O938 Zn925 1.969 . S
O938 C936 1.267 . S
O939 Zn925 1.965 . S
O939 C943 1.260 . S
O940 Zn924 1.969 . S
O940 C943 1.258 . S
O941 Zn925 2.024 . S
O941 C928 1.058 . S
C942 O931 1.260 . S
C942 O932 1.258 . S
C943 O939 1.260 . S
C943 O940 1.258 . S
Zn944 O950 1.969 . S
Zn944 O951 1.965 1_455 S
Zn944 O955 2.024 1_565 S
Zn944 O960 1.969 1_565 S
Zn945 O952 1.926 1_455 S
Zn945 O958 1.945 1_455 S
Zn945 O959 2.013 . S
Zn945 O961 2.041 . S
C946 O947 1.229 1_545 S
C946 O955 1.058 . S
O947 C946 1.229 1_565 S
C948 O949 1.229 . S
C948 O961 1.058 1_655 S
O949 C948 1.229 . S
O950 Zn944 1.969 . S
O950 C953 1.267 . S
O951 Zn944 1.965 1_655 S
O951 C962 1.260 . S
O952 Zn945 1.926 1_655 S
O952 C962 1.258 1_545 S
C953 O950 1.267 . S
C953 O954 1.228 . S
O954 C953 1.228 . S
O955 Zn944 2.024 1_545 S
O955 C946 1.058 . S
C956 O957 1.228 . S
C956 O958 1.267 1_455 S
O957 C956 1.228 . S
O958 Zn945 1.945 1_655 S
O958 C956 1.267 1_655 S
O959 Zn945 2.013 . S
O959 C963 1.260 . S
O960 Zn944 1.969 1_545 S
O960 C963 1.258 . S
O961 Zn945 2.041 . S
O961 C948 1.058 1_455 S
C962 O951 1.260 . S
C962 O952 1.258 1_565 S
C963 O959 1.260 . S
C963 O960 1.258 . S
Zn964 O970 1.969 . S
Zn964 O971 1.965 . S
Zn964 O975 2.024 . S
Zn964 O980 1.969 . S
Zn965 O972 1.969 . S
Zn965 O978 1.969 . S
Zn965 O979 1.965 . S
Zn965 O981 2.024 . S
C966 O967 1.229 . S
C966 O975 1.058 . S
O967 C966 1.229 . S
C968 O969 1.229 . S
C968 O981 1.058 . S
O969 C968 1.229 . S
O970 Zn964 1.969 . S
O970 C973 1.267 . S
O971 Zn964 1.965 . S
O971 C982 1.260 . S
O972 Zn965 1.969 . S
O972 C982 1.258 . S
C973 O970 1.267 . S
C973 O974 1.228 . S
O974 C973 1.228 . S
O975 Zn964 2.024 . S
O975 C966 1.058 . S
C976 O977 1.228 . S
C976 O978 1.267 . S
O977 C976 1.228 . S
O978 Zn965 1.969 . S
O978 C976 1.267 . S
O979 Zn965 1.965 . S
O979 C983 1.260 . S
O980 Zn964 1.969 . S
O980 C983 1.258 . S
O981 Zn965 2.024 . S
O981 C968 1.058 . S
C982 O971 1.260 . S
C982 O972 1.258 . S
C983 O979 1.260 . S
C983 O980 1.258 . S
Zn984 O990 1.971 . S
Zn984 O991 1.964 1_545 S
Zn984 O995 2.023 1_556 S
Zn984 O1000 1.968 1_556 S
Zn985 O992 1.969 1_545 S
Zn985 O998 1.969 1_545 S
Zn985 O999 1.965 . S
Zn985 O1001 2.024 . S
C986 O987 1.229 . S
C986 O995 1.058 . S
O987 C986 1.229 . S
C988 O989 1.229 . S
C988 O1001 1.058 1_565 S
O989 C988 1.229 . S
O990 Zn984 1.971 . S
O990 C993 1.267 . S
O991 Zn984 1.964 1_565 S
O991 C1002 1.262 1_556 S
O992 Zn985 1.969 1_565 S
O992 C1002 1.258 . S
C993 O990 1.267 . S
C993 O994 1.228 . S
O994 C993 1.228 . S
O995 Zn984 2.023 1_554 S
O995 C986 1.058 . S
C996 O997 1.228 . S
C996 O998 1.267 1_545 S
O997 C996 1.228 . S
O998 Zn985 1.969 1_565 S
O998 C996 1.267 1_565 S
O999 Zn985 1.965 . S
O999 C1003 1.260 . S
O1000 Zn984 1.968 1_554 S
O1000 C1003 1.258 . S
O1001 Zn985 2.024 . S
O1001 C988 1.058 1_545 S
C1002 O991 1.262 1_554 S
C1002 O992 1.258 . S
C1003 O999 1.260 . S
C1003 O1000 1.258 . S
Zn1004 O1010 1.969 . S
Zn1004 O1011 1.965 . S
Zn1004 O1015 2.024 . S
Zn1004 O1020 1.969 . S
Zn1005 O1012 1.969 . S
Zn1005 O1018 1.969 . S
Zn1005 O1019 1.965 . S
Zn1005 O1021 2.024 . S
C1006 O1007 1.229 . S
C1006 O1015 1.058 . S
O1007 C1006 1.229 . S
C1008 O1009 1.229 . S
C1008 O1021 1.058 . S
O1009 C1008 1.229 . S
O1010 Zn1004 1.969 . S
O1010 C1013 1.267 . S
O1011 Zn1004 1.965 . S
O1011 C1022 1.260 . S
O1012 Zn1005 1.969 . S
O1012 C1022 1.258 . S
C1013 O1010 1.267 . S
C1013 O1014 1.228 . S
O1014 C1013 1.228 . S
O1015 Zn1004 2.024 . S
O1015 C1006 1.058 . S
C1016 O1017 1.228 . S
C1016 O1018 1.267 . S
O1017 C1016 1.228 . S
O1018 Zn1005 1.969 . S
O1018 C1016 1.267 . S
O1019 Zn1005 1.965 . S
O1019 C1023 1.260 . S
O1020 Zn1004 1.969 . S
O1020 C1023 1.258 . S
O1021 Zn1005 2.024 . S
O1021 C1008 1.058 . S
C1022 O1011 1.260 . S
C1022 O1012 1.258 . S
C1023 O1019 1.260 . S
C1023 O1020 1.258 . S
Zn1024 O1030 1.969 . S
Zn1024 O1031 1.965 . S
Zn1024 O1035 2.024 . S
Zn1024 O1040 1.969 . S
Zn1025 O1032 1.969 1_556 S
Zn1025 O1038 1.969 1_556 S
Zn1025 O1039 1.965 1_556 S
Zn1025 O1041 2.024 . S
C1026 O1027 1.229 . S
C1026 O1035 1.058 . S
O1027 C1026 1.229 . S
C1028 O1029 1.229 . S
C1028 O1041 1.058 . S
O1029 C1028 1.229 . S
O1030 Zn1024 1.969 . S
O1030 C1033 1.267 . S
O1031 Zn1024 1.965 . S
O1031 C1042 1.260 . S
O1032 Zn1025 1.969 1_554 S
O1032 C1042 1.258 . S
C1033 O1030 1.267 . S
C1033 O1034 1.228 . S
O1034 C1033 1.228 . S
O1035 Zn1024 2.024 . S
O1035 C1026 1.058 . S
C1036 O1037 1.228 . S
C1036 O1038 1.267 1_556 S
O1037 C1036 1.228 . S
O1038 Zn1025 1.969 1_554 S
O1038 C1036 1.267 1_554 S
O1039 Zn1025 1.965 1_554 S
O1039 C1043 1.260 . S
O1040 Zn1024 1.969 . S
O1040 C1043 1.258 . S
O1041 Zn1025 2.024 . S
O1041 C1028 1.058 . S
C1042 O1031 1.260 . S
C1042 O1032 1.258 . S
C1043 O1039 1.260 . S
C1043 O1040 1.258 . S
Zn1044 O1050 1.969 . S
Zn1044 O1051 1.965 . S
Zn1044 O1055 2.024 . S
Zn1044 O1060 1.969 . S
Zn1045 O1052 1.969 . S
Zn1045 O1058 1.969 . S
Zn1045 O1059 1.965 . S
Zn1045 O1061 2.024 . S
C1046 O1047 1.229 . S
C1046 O1055 1.058 . S
O1047 C1046 1.229 . S
C1048 O1049 1.229 . S
C1048 O1061 1.058 . S
O1049 C1048 1.229 . S
O1050 Zn1044 1.969 . S
O1050 C1053 1.267 . S
O1051 Zn1044 1.965 . S
O1051 C1062 1.260 . S
O1052 Zn1045 1.969 . S
O1052 C1062 1.258 . S
C1053 O1050 1.267 . S
C1053 O1054 1.228 . S
O1054 C1053 1.228 . S
O1055 Zn1044 2.024 . S
O1055 C1046 1.058 . S
C1056 O1057 1.228 . S
C1056 O1058 1.267 . S
O1057 C1056 1.228 . S
O1058 Zn1045 1.969 . S
O1058 C1056 1.267 . S
O1059 Zn1045 1.965 . S
O1059 C1063 1.260 . S
O1060 Zn1044 1.969 . S
O1060 C1063 1.258 . S
O1061 Zn1045 2.024 . S
O1061 C1048 1.058 . S
C1062 O1051 1.260 . S
C1062 O1052 1.258 . S
C1063 O1059 1.260 . S
C1063 O1060 1.258 . S
Zn1064 O1070 1.969 . S
Zn1064 O1071 1.965 . S
Zn1064 O1075 2.024 . S
Zn1064 O1080 1.969 . S
Zn1065 O1072 1.969 1_655 S
Zn1065 O1078 1.969 . S
Zn1065 O1079 1.965 1_655 S
Zn1065 O1081 2.024 . S
C1066 O1067 1.229 . S
C1066 O1075 1.058 . S
O1067 C1066 1.229 . S
C1068 O1069 1.229 . S
C1068 O1081 1.058 . S
O1069 C1068 1.229 . S
O1070 Zn1064 1.969 . S
O1070 C1073 1.267 . S
O1071 Zn1064 1.965 . S
O1071 C1082 1.260 . S
O1072 Zn1065 1.969 1_455 S
O1072 C1082 1.258 . S
C1073 O1070 1.267 . S
C1073 O1074 1.228 . S
O1074 C1073 1.228 . S
O1075 Zn1064 2.024 . S
O1075 C1066 1.058 . S
C1076 O1077 1.228 . S
C1076 O1078 1.267 . S
O1077 C1076 1.228 . S
O1078 Zn1065 1.969 . S
O1078 C1076 1.267 . S
O1079 Zn1065 1.965 1_455 S
O1079 C1083 1.260 . S
O1080 Zn1064 1.969 . S
O1080 C1083 1.258 . S
O1081 Zn1065 2.024 . S
O1081 C1068 1.058 . S
C1082 O1071 1.260 . S
C1082 O1072 1.258 . S
C1083 O1079 1.260 . S
C1083 O1080 1.258 . S
Zn1084 O1090 1.969 . S
Zn1084 O1091 1.965 . S
Zn1084 O1095 2.024 . S
Zn1084 O1100 1.969 . S
Zn1085 O1092 1.969 . S
Zn1085 O1098 1.969 . S
Zn1085 O1099 1.965 . S
Zn1085 O1101 2.024 . S
C1086 O1087 1.229 . S
C1086 O1095 1.058 . S
O1087 C1086 1.229 . S
C1088 O1089 1.229 . S
C1088 O1101 1.058 . S
O1089 C1088 1.229 . S
O1090 Zn1084 1.969 . S
O1090 C1093 1.267 . S
O1091 Zn1084 1.965 . S
O1091 C1102 1.260 . S
O1092 Zn1085 1.969 . S
O1092 C1102 1.258 . S
C1093 O1090 1.267 . S
C1093 O1094 1.228 . S
O1094 C1093 1.228 . S
O1095 Zn1084 2.024 . S
O1095 C1086 1.058 . S
C1096 O1097 1.228 . S
C1096 O1098 1.267 . S
O1097 C1096 1.228 . S
O1098 Zn1085 1.969 . S
O1098 C1096 1.267 . S
O1099 Zn1085 1.965 . S
O1099 C1103 1.260 . S
O1100 Zn1084 1.969 . S
O1100 C1103 1.258 . S
O1101 Zn1085 2.024 . S
O1101 C1088 1.058 . S
C1102 O1091 1.260 . S
C1102 O1092 1.258 . S
C1103 O1099 1.260 . S
C1103 O1100 1.258 . S
Zn1104 O1110 1.969 . S
Zn1104 O1111 1.965 . S
Zn1104 O1115 2.024 . S
Zn1104 O1120 1.969 . S
Zn1105 O1112 1.969 . S
Zn1105 O1118 1.969 . S
Zn1105 O1119 1.965 . S
Zn1105 O1121 2.024 . S
C1106 O1107 1.229 . S
C1106 O1115 1.058 . S
O1107 C1106 1.229 . S
C1108 O1109 1.229 . S
C1108 O1121 1.058 . S
O1109 C1108 1.229 . S
O1110 Zn1104 1.969 . S
O1110 C1113 1.267 . S
O1111 Zn1104 1.965 . S
O1111 C1122 1.260 . S
O1112 Zn1105 1.969 . S
O1112 C1122 1.258 . S
C1113 O1110 1.267 . S
C1113 O1114 1.228 . S
O1114 C1113 1.228 . S
O1115 Zn1104 2.024 . S
O1115 C1106 1.058 . S
C1116 O1117 1.228 . S
C1116 O1118 1.267 . S
O1117 C1116 1.228 . S
O1118 Zn1105 1.969 . S
O1118 C1116 1.267 . S
O1119 Zn1105 1.965 . S
O1119 C1123 1.260 . S
O1120 Zn1104 1.969 . S
O1120 C1123 1.258 . S
O1121 Zn1105 2.024 . S
O1121 C1108 1.058 . S
C1122 O1111 1.260 . S
C1122 O1112 1.258 . S
C1123 O1119 1.260 . S
C1123 O1120 1.258 . S
Zn1124 O1130 1.969 . S
Zn1124 O1131 1.965 . S
Zn1124 O1135 2.024 . S
Zn1124 O1140 1.969 . S
Zn1125 O1132 1.969 . S
Zn1125 O1138 1.969 . S
Zn1125 O1139 1.965 . S
Zn1125 O1141 2.024 . S
C1126 O1127 1.229 . S
C1126 O1135 1.058 . S
O1127 C1126 1.229 . S
C1128 O1129 1.229 . S
C1128 O1141 1.058 . S
O1129 C1128 1.229 . S
O1130 Zn1124 1.969 . S
O1130 C1133 1.267 . S
O1131 Zn1124 1.965 . S
O1131 C1142 1.260 . S
O1132 Zn1125 1.969 . S
O1132 C1142 1.258 . S
C1133 O1130 1.267 . S
C1133 O1134 1.228 . S
O1134 C1133 1.228 . S
O1135 Zn1124 2.024 . S
O1135 C1126 1.058 . S
C1136 O1137 1.228 . S
C1136 O1138 1.267 . S
O1137 C1136 1.228 . S
O1138 Zn1125 1.969 . S
O1138 C1136 1.267 . S
O1139 Zn1125 1.965 . S
O1139 C1143 1.260 . S
O1140 Zn1124 1.969 . S
O1140 C1143 1.258 . S
O1141 Zn1125 2.024 . S
O1141 C1128 1.058 . S
C1142 O1131 1.260 . S
C1142 O1132 1.258 . S
C1143 O1139 1.260 . S
C1143 O1140 1.258 . S
Zn1144 O1150 1.969 . S
Zn1144 O1151 1.965 . S
Zn1144 O1155 2.024 . S
Zn1144 O1160 1.969 . S
Zn1145 O1152 1.969 . S
Zn1145 O1158 1.969 . S
Zn1145 O1159 1.965 . S
Zn1145 O1161 2.024 . S
C1146 O1147 1.229 . S
C1146 O1155 1.058 . S
O1147 C1146 1.229 . S
C1148 O1149 1.229 . S
C1148 O1161 1.058 . S
O1149 C1148 1.229 . S
O1150 Zn1144 1.969 . S
O1150 C1153 1.267 . S
O1151 Zn1144 1.965 . S
O1151 C1162 1.260 . S
O1152 Zn1145 1.969 . S
O1152 C1162 1.258 . S
C1153 O1150 1.267 . S
C1153 O1154 1.228 . S
O1154 C1153 1.228 . S
O1155 Zn1144 2.024 . S
O1155 C1146 1.058 . S
C1156 O1157 1.228 . S
C1156 O1158 1.267 . S
O1157 C1156 1.228 . S
O1158 Zn1145 1.969 . S
O1158 C1156 1.267 . S
O1159 Zn1145 1.965 . S
O1159 C1163 1.260 . S
O1160 Zn1144 1.969 . S
O1160 C1163 1.258 . S
O1161 Zn1145 2.024 . S
O1161 C1148 1.058 . S
C1162 O1151 1.260 . S
C1162 O1152 1.258 . S
C1163 O1159 1.260 . S
C1163 O1160 1.258 . S
Zn1164 O1170 1.969 . S
Zn1164 O1171 1.965 . S
Zn1164 O1175 2.024 1_655 S
Zn1164 O1180 1.969 1_655 S
Zn1165 O1172 1.969 1_554 S
Zn1165 O1178 1.980 . S
Zn1165 O1179 1.965 . S
Zn1165 O1181 2.024 . S
C1166 O1167 1.229 . S
C1166 O1175 1.058 . S
O1167 C1166 1.229 . S
C1168 O1169 1.278 . S
C1168 O1181 1.012 1_556 S
O1169 C1168 1.278 . S
O1170 Zn1164 1.969 . S
O1170 C1173 1.267 . S
O1171 Zn1164 1.965 . S
O1171 C1182 1.260 1_654 S
O1172 Zn1165 1.969 1_556 S
O1172 C1182 1.258 . S
C1173 O1170 1.267 . S
C1173 O1174 1.228 . S
O1174 C1173 1.228 . S
O1175 Zn1164 2.024 1_455 S
O1175 C1166 1.058 . S
C1176 O1177 1.228 . S
C1176 O1178 1.284 . S
O1177 C1176 1.228 . S
O1178 Zn1165 1.980 . S
O1178 C1176 1.284 . S
O1179 Zn1165 1.965 . S
O1179 C1183 1.260 . S
O1180 Zn1164 1.969 1_455 S
O1180 C1183 1.258 . S
O1181 Zn1165 2.024 . S
O1181 C1168 1.012 1_554 S
C1182 O1171 1.260 1_456 S
C1182 O1172 1.258 . S
C1183 O1179 1.260 . S
C1183 O1180 1.258 . S
C1184 C1185 1.349 . S
C1184 C1186 1.327 . S
C1184 H1209 0.950 . S
C1185 C1184 1.349 . S
C1185 C1201 1.349 . S
C1186 C1184 1.327 . S
C1186 C1205 1.424 1_655 S
C1186 H1210 0.950 . S
C1187 C1204 1.574 . S
C1187 C1206 1.368 . S
C1187 H1211 0.949 . S
H1188 C1192 0.949 . S
C1189 C1190 1.349 . S
C1189 C1191 1.327 . S
C1189 H1212 0.950 . S
C1190 C1189 1.349 . S
C1190 C1202 1.349 1_556 S
C1191 C1189 1.327 . S
C1191 C1207 1.429 . S
C1191 H1213 0.950 . S
C1192 H1188 0.949 . S
C1192 C1200 1.574 . S
C1192 C1208 1.368 . S
H1193 C1201 0.950 . S
H1194 C1199 0.952 . S
H1195 C1200 0.963 . S
H1196 C1202 0.950 . S
H1197 C1203 0.925 1_554 S
H1198 C1204 0.949 . S
C1199 H1194 0.952 . S
C1199 C1201 1.325 1_455 S
C1199 C1205 1.429 . S
C1200 C1192 1.574 . S
C1200 H1195 0.963 . S
C1200 C1206 1.368 . S
C1201 C1185 1.349 . S
C1201 H1193 0.950 . S
C1201 C1199 1.325 1_655 S
C1202 C1190 1.349 1_554 S
C1202 H1196 0.950 . S
C1202 C1203 1.299 1_554 S
C1203 H1197 0.925 1_556 S
C1203 C1202 1.299 1_556 S
C1203 C1207 1.483 . S
C1204 C1187 1.574 . S
C1204 H1198 0.949 . S
C1204 C1208 1.368 . S
C1205 C1186 1.424 1_455 S
C1205 C1199 1.429 . S
C1205 C1206 1.526 . S
C1206 C1187 1.368 . S
C1206 C1200 1.368 . S
C1206 C1205 1.526 . S
C1207 C1191 1.429 . S
C1207 C1203 1.483 . S
C1207 C1208 1.523 . S
C1208 C1192 1.368 . S
C1208 C1204 1.368 . S
C1208 C1207 1.523 . S
H1209 C1184 0.950 . S
H1210 C1186 0.950 . S
H1211 C1187 0.949 . S
H1212 C1189 0.950 . S
H1213 C1191 0.950 . S
C1214 C1215 1.349 . S
C1214 C1216 1.327 . S
C1214 H1239 0.950 . S
C1215 C1214 1.349 . S
C1215 C1231 1.349 . S
C1216 C1214 1.327 . S
C1216 C1235 1.429 . S
C1216 H1240 0.950 . S
C1217 C1234 1.574 . S
C1217 C1236 1.368 . S
C1217 H1241 0.949 . S
H1218 C1222 0.949 . S
C1219 C1220 1.349 . S
C1219 C1221 1.327 . S
C1219 H1242 0.950 . S
C1220 C1219 1.349 . S
C1220 C1232 1.349 . S
C1221 C1219 1.327 . S
C1221 C1237 1.429 . S
C1221 H1243 0.950 . S
C1222 H1218 0.949 . S
C1222 C1230 1.574 . S
C1222 C1238 1.368 . S
H1223 C1231 0.950 . S
H1224 C1229 0.950 . S
H1225 C1230 0.949 . S
H1226 C1232 0.950 . S
H1227 C1233 0.950 . S
H1228 C1234 0.949 . S
C1229 H1224 0.950 . S
C1229 C1231 1.327 . S
C1229 C1235 1.429 . S
C1230 C1222 1.574 . S
C1230 H1225 0.949 . S
C1230 C1236 1.368 . S
C1231 C1215 1.349 . S
C1231 H1223 0.950 . S
C1231 C1229 1.327 . S
C1232 C1220 1.349 . S
C1232 H1226 0.950 . S
C1232 C1233 1.327 . S
C1233 H1227 0.950 . S
C1233 C1232 1.327 . S
C1233 C1237 1.429 . S
C1234 C1217 1.574 . S
C1234 H1228 0.949 . S
C1234 C1238 1.368 . S
C1235 C1216 1.429 . S
C1235 C1229 1.429 . S
C1235 C1236 1.523 . S
C1236 C1217 1.368 . S
C1236 C1230 1.368 . S
C1236 C1235 1.523 . S
C1237 C1221 1.429 . S
C1237 C1233 1.429 . S
C1237 C1238 1.523 . S
C1238 C1222 1.368 . S
C1238 C1234 1.368 . S
C1238 C1237 1.523 . S
H1239 C1214 0.950 . S
H1240 C1216 0.950 . S
H1241 C1217 0.949 . S
H1242 C1219 0.950 . S
H1243 C1221 0.950 . S
C1244 C1245 1.349 . S
C1244 C1246 1.327 . S
C1244 H1269 0.950 . S
C1245 C1244 1.349 . S
C1245 C1261 1.349 . S
C1246 C1244 1.327 . S
C1246 C1265 1.429 . S
C1246 H1270 0.950 . S
C1247 C1264 1.574 . S
C1247 C1266 1.368 . S
C1247 H1271 0.949 . S
H1248 C1252 0.949 . S
C1249 C1250 1.349 . S
C1249 C1251 1.327 . S
C1249 H1272 0.950 . S
C1250 C1249 1.349 . S
C1250 C1262 1.349 . S
C1251 C1249 1.327 . S
C1251 C1267 1.429 . S
C1251 H1273 0.950 . S
C1252 H1248 0.949 . S
C1252 C1260 1.574 . S
C1252 C1268 1.368 . S
H1253 C1261 0.950 . S
H1254 C1259 0.950 . S
H1255 C1260 0.949 . S
H1256 C1262 0.950 . S
H1257 C1263 0.950 . S
H1258 C1264 0.949 . S
C1259 H1254 0.950 . S
C1259 C1261 1.327 . S
C1259 C1265 1.429 . S
C1260 C1252 1.574 . S
C1260 H1255 0.949 . S
C1260 C1266 1.368 . S
C1261 C1245 1.349 . S
C1261 H1253 0.950 . S
C1261 C1259 1.327 . S
C1262 C1250 1.349 . S
C1262 H1256 0.950 . S
C1262 C1263 1.327 . S
C1263 H1257 0.950 . S
C1263 C1262 1.327 . S
C1263 C1267 1.429 . S
C1264 C1247 1.574 . S
C1264 H1258 0.949 . S
C1264 C1268 1.368 . S
C1265 C1246 1.429 . S
C1265 C1259 1.429 . S
C1265 C1266 1.523 . S
C1266 C1247 1.368 . S
C1266 C1260 1.368 . S
C1266 C1265 1.523 . S
C1267 C1251 1.429 . S
C1267 C1263 1.429 . S
C1267 C1268 1.523 . S
C1268 C1252 1.368 . S
C1268 C1264 1.368 . S
C1268 C1267 1.523 . S
H1269 C1244 0.950 . S
H1270 C1246 0.950 . S
H1271 C1247 0.949 . S
H1272 C1249 0.950 . S
H1273 C1251 0.950 . S
C1274 C1275 1.349 . S
C1274 C1276 1.327 . S
C1274 H1299 0.950 . S
C1275 C1274 1.349 . S
C1275 C1291 1.349 . S
C1276 C1274 1.327 . S
C1276 C1295 1.429 . S
C1276 H1300 0.950 . S
C1277 C1294 1.574 . S
C1277 C1296 1.368 . S
C1277 H1301 0.949 . S
H1278 C1282 0.949 . S
C1279 C1280 1.349 . S
C1279 C1281 1.327 . S
C1279 H1302 0.950 . S
C1280 C1279 1.349 . S
C1280 C1292 1.349 . S
C1281 C1279 1.327 . S
C1281 C1297 1.429 . S
C1281 H1303 0.950 . S
C1282 H1278 0.949 . S
C1282 C1290 1.574 . S
C1282 C1298 1.368 . S
H1283 C1291 0.950 . S
H1284 C1289 0.950 . S
H1285 C1290 0.949 . S
H1286 C1292 0.950 . S
H1287 C1293 0.950 . S
H1288 C1294 0.949 . S
C1289 H1284 0.950 . S
C1289 C1291 1.327 . S
C1289 C1295 1.429 . S
C1290 C1282 1.574 . S
C1290 H1285 0.949 . S
C1290 C1296 1.368 . S
C1291 C1275 1.349 . S
C1291 H1283 0.950 . S
C1291 C1289 1.327 . S
C1292 C1280 1.349 . S
C1292 H1286 0.950 . S
C1292 C1293 1.327 . S
C1293 H1287 0.950 . S
C1293 C1292 1.327 . S
C1293 C1297 1.429 . S
C1294 C1277 1.574 . S
C1294 H1288 0.949 . S
C1294 C1298 1.368 . S
C1295 C1276 1.429 . S
C1295 C1289 1.429 . S
C1295 C1296 1.523 . S
C1296 C1277 1.368 . S
C1296 C1290 1.368 . S
C1296 C1295 1.523 . S
C1297 C1281 1.429 . S
C1297 C1293 1.429 . S
C1297 C1298 1.523 . S
C1298 C1282 1.368 . S
C1298 C1294 1.368 . S
C1298 C1297 1.523 . S
H1299 C1274 0.950 . S
H1300 C1276 0.950 . S
H1301 C1277 0.949 . S
H1302 C1279 0.950 . S
H1303 C1281 0.950 . S
C1304 C1305 1.349 . S
C1304 C1306 1.327 . S
C1304 H1329 0.950 . S
C1305 C1304 1.349 . S
C1305 C1321 1.349 . S
C1306 C1304 1.327 . S
C1306 C1325 1.429 . S
C1306 H1330 0.950 . S
C1307 C1324 1.574 . S
C1307 C1326 1.368 . S
C1307 H1331 0.961 . S
H1308 C1312 0.949 . S
C1309 C1310 1.349 . S
C1309 C1311 1.327 . S
C1309 H1332 0.950 . S
C1310 C1309 1.349 . S
C1310 C1322 1.349 . S
C1311 C1309 1.327 . S
C1311 C1327 1.429 . S
C1311 H1333 0.950 . S
C1312 H1308 0.949 . S
C1312 C1320 1.574 . S
C1312 C1328 1.368 . S
H1313 C1321 0.950 1_655 S
H1314 C1319 0.942 1_655 S
H1315 C1320 0.949 . S
H1316 C1322 0.950 . S
H1317 C1323 0.950 . S
H1318 C1324 0.949 . S
C1319 H1314 0.942 1_455 S
C1319 C1321 1.327 . S
C1319 C1325 1.429 . S
C1320 C1312 1.574 . S
C1320 H1315 0.949 . S
C1320 C1326 1.368 . S
C1321 C1305 1.349 . S
C1321 H1313 0.950 1_455 S
C1321 C1319 1.327 . S
C1322 C1310 1.349 . S
C1322 H1316 0.950 . S
C1322 C1323 1.327 . S
C1323 H1317 0.950 . S
C1323 C1322 1.327 . S
C1323 C1327 1.429 . S
C1324 C1307 1.574 . S
C1324 H1318 0.949 . S
C1324 C1328 1.368 . S
C1325 C1306 1.429 . S
C1325 C1319 1.429 . S
C1325 C1326 1.523 . S
C1326 C1307 1.368 . S
C1326 C1320 1.368 . S
C1326 C1325 1.523 . S
C1327 C1311 1.429 . S
C1327 C1323 1.429 . S
C1327 C1328 1.523 . S
C1328 C1312 1.368 . S
C1328 C1324 1.368 . S
C1328 C1327 1.523 . S
H1329 C1304 0.950 . S
H1330 C1306 0.950 . S
H1331 C1307 0.961 . S
H1332 C1309 0.950 . S
H1333 C1311 0.950 . S
C1334 C1335 1.349 . S
C1334 C1336 1.327 . S
C1334 H1359 0.950 . S
C1335 C1334 1.349 . S
C1335 C1351 1.349 . S
C1336 C1334 1.327 . S
C1336 C1355 1.429 . S
C1336 H1360 0.950 . S
C1337 C1354 1.574 . S
C1337 C1356 1.368 . S
C1337 H1361 0.949 . S
H1338 C1342 0.949 . S
C1339 C1340 1.349 . S
C1339 C1341 1.327 . S
C1339 H1362 0.950 . S
C1340 C1339 1.349 . S
C1340 C1352 1.349 . S
C1341 C1339 1.327 . S
C1341 C1357 1.429 . S
C1341 H1363 0.950 . S
C1342 H1338 0.949 . S
C1342 C1350 1.574 . S
C1342 C1358 1.368 . S
H1343 C1351 0.950 . S
H1344 C1349 0.950 . S
H1345 C1350 0.949 . S
H1346 C1352 0.950 . S
H1347 C1353 0.950 . S
H1348 C1354 0.949 . S
C1349 H1344 0.950 . S
C1349 C1351 1.327 . S
C1349 C1355 1.429 . S
C1350 C1342 1.574 . S
C1350 H1345 0.949 . S
C1350 C1356 1.368 . S
C1351 C1335 1.349 . S
C1351 H1343 0.950 . S
C1351 C1349 1.327 . S
C1352 C1340 1.349 . S
C1352 H1346 0.950 . S
C1352 C1353 1.327 . S
C1353 H1347 0.950 . S
C1353 C1352 1.327 . S
C1353 C1357 1.429 . S
C1354 C1337 1.574 . S
C1354 H1348 0.949 . S
C1354 C1358 1.368 . S
C1355 C1336 1.429 . S
C1355 C1349 1.429 . S
C1355 C1356 1.523 . S
C1356 C1337 1.368 . S
C1356 C1350 1.368 . S
C1356 C1355 1.523 . S
C1357 C1341 1.429 . S
C1357 C1353 1.429 . S
C1357 C1358 1.523 . S
C1358 C1342 1.368 . S
C1358 C1354 1.368 . S
C1358 C1357 1.523 . S
H1359 C1334 0.950 . S
H1360 C1336 0.950 . S
H1361 C1337 0.949 . S
H1362 C1339 0.950 . S
H1363 C1341 0.950 . S
C1364 C1365 1.349 . S
C1364 C1366 1.327 . S
C1364 H1389 0.950 . S
C1365 C1364 1.349 . S
C1365 C1381 1.349 . S
C1366 C1364 1.327 . S
C1366 C1385 1.429 . S
C1366 H1390 0.950 . S
C1367 C1384 1.574 . S
C1367 C1386 1.368 . S
C1367 H1391 0.949 . S
H1368 C1372 0.949 . S
C1369 C1370 1.349 . S
C1369 C1371 1.327 . S
C1369 H1392 0.950 . S
C1370 C1369 1.349 . S
C1370 C1382 1.349 . S
C1371 C1369 1.327 . S
C1371 C1387 1.429 . S
C1371 H1393 0.950 . S
C1372 H1368 0.949 . S
C1372 C1380 1.574 . S
C1372 C1388 1.368 . S
H1373 C1381 0.950 . S
H1374 C1379 0.950 . S
H1375 C1380 0.949 . S
H1376 C1382 0.950 . S
H1377 C1383 0.950 . S
H1378 C1384 0.949 . S
C1379 H1374 0.950 . S
C1379 C1381 1.327 . S
C1379 C1385 1.429 . S
C1380 C1372 1.574 . S
C1380 H1375 0.949 . S
C1380 C1386 1.368 . S
C1381 C1365 1.349 . S
C1381 H1373 0.950 . S
C1381 C1379 1.327 . S
C1382 C1370 1.349 . S
C1382 H1376 0.950 . S
C1382 C1383 1.327 . S
C1383 H1377 0.950 . S
C1383 C1382 1.327 . S
C1383 C1387 1.429 . S
C1384 C1367 1.574 . S
C1384 H1378 0.949 . S
C1384 C1388 1.368 . S
C1385 C1366 1.429 . S
C1385 C1379 1.429 . S
C1385 C1386 1.523 . S
C1386 C1367 1.368 . S
C1386 C1380 1.368 . S
C1386 C1385 1.523 . S
C1387 C1371 1.429 . S
C1387 C1383 1.429 . S
C1387 C1388 1.523 . S
C1388 C1372 1.368 . S
C1388 C1384 1.368 . S
C1388 C1387 1.523 . S
H1389 C1364 0.950 . S
H1390 C1366 0.950 . S
H1391 C1367 0.949 . S
H1392 C1369 0.950 . S
H1393 C1371 0.950 . S
C1394 C1395 1.349 . S
C1394 C1396 1.327 . S
C1394 H1419 0.950 . S
C1395 C1394 1.349 . S
C1395 C1411 1.349 . S
C1396 C1394 1.327 . S
C1396 C1415 1.429 . S
C1396 H1420 0.950 . S
C1397 C1414 1.574 . S
C1397 C1416 1.368 . S
C1397 H1421 0.949 . S
H1398 C1402 0.949 . S
C1399 C1400 1.349 . S
C1399 C1401 1.327 . S
C1399 H1422 0.950 . S
C1400 C1399 1.349 . S
C1400 C1412 1.349 . S
C1401 C1399 1.327 . S
C1401 C1417 1.429 . S
C1401 H1423 0.950 . S
C1402 H1398 0.949 . S
C1402 C1410 1.574 . S
C1402 C1418 1.368 . S
H1403 C1411 0.950 . S
H1404 C1409 0.950 . S
H1405 C1410 0.949 . S
H1406 C1412 0.950 . S
H1407 C1413 0.950 . S
H1408 C1414 0.949 . S
C1409 H1404 0.950 . S
C1409 C1411 1.327 . S
C1409 C1415 1.429 . S
C1410 C1402 1.574 . S
C1410 H1405 0.949 . S
C1410 C1416 1.368 . S
C1411 C1395 1.349 . S
C1411 H1403 0.950 . S
C1411 C1409 1.327 . S
C1412 C1400 1.349 . S
C1412 H1406 0.950 . S
C1412 C1413 1.327 . S
C1413 H1407 0.950 . S
C1413 C1412 1.327 . S
C1413 C1417 1.429 . S
C1414 C1397 1.574 . S
C1414 H1408 0.949 . S
C1414 C1418 1.368 . S
C1415 C1396 1.429 . S
C1415 C1409 1.429 . S
C1415 C1416 1.523 . S
C1416 C1397 1.368 . S
C1416 C1410 1.368 . S
C1416 C1415 1.523 . S
C1417 C1401 1.429 . S
C1417 C1413 1.429 . S
C1417 C1418 1.523 . S
C1418 C1402 1.368 . S
C1418 C1414 1.368 . S
C1418 C1417 1.523 . S
H1419 C1394 0.950 . S
H1420 C1396 0.950 . S
H1421 C1397 0.949 . S
H1422 C1399 0.950 . S
H1423 C1401 0.950 . S
C1424 C1425 1.349 1_565 S
C1424 C1426 1.327 . S
C1424 H1449 0.950 . S
C1425 C1424 1.349 1_545 S
C1425 C1441 1.349 . S
C1426 C1424 1.327 . S
C1426 C1445 1.429 1_565 S
C1426 H1450 0.950 . S
C1427 C1444 1.574 . S
C1427 C1446 1.368 . S
C1427 H1451 0.949 . S
H1428 C1432 0.949 . S
C1429 C1430 1.349 . S
C1429 C1431 1.327 . S
C1429 H1452 0.950 1_655 S
C1430 C1429 1.349 . S
C1430 C1442 1.349 1_545 S
C1431 C1429 1.327 . S
C1431 C1447 1.429 . S
C1431 H1453 0.950 . S
C1432 H1428 0.949 . S
C1432 C1440 1.574 . S
C1432 C1448 1.368 1_565 S
H1433 C1441 0.950 . S
H1434 C1439 0.950 . S
H1435 C1440 0.949 . S
H1436 C1442 0.950 . S
H1437 C1443 0.950 . S
H1438 C1444 0.949 . S
C1439 H1434 0.950 . S
C1439 C1441 1.327 . S
C1439 C1445 1.429 . S
C1440 C1432 1.574 . S
C1440 H1435 0.949 . S
C1440 C1446 1.368 1_565 S
C1441 C1425 1.349 . S
C1441 H1433 0.950 . S
C1441 C1439 1.327 . S
C1442 C1430 1.349 1_565 S
C1442 H1436 0.950 . S
C1442 C1443 1.327 . S
C1443 H1437 0.950 . S
C1443 C1442 1.327 . S
C1443 C1447 1.429 1_565 S
C1444 C1427 1.574 . S
C1444 H1438 0.949 . S
C1444 C1448 1.368 . S
C1445 C1426 1.429 1_545 S
C1445 C1439 1.429 . S
C1445 C1446 1.523 . S
C1446 C1427 1.368 . S
C1446 C1440 1.368 1_545 S
C1446 C1445 1.523 . S
C1447 C1431 1.429 . S
C1447 C1443 1.429 1_545 S
C1447 C1448 1.523 . S
C1448 C1432 1.368 1_545 S
C1448 C1444 1.368 . S
C1448 C1447 1.523 . S
H1449 C1424 0.950 . S
H1450 C1426 0.950 . S
H1451 C1427 0.949 . S
H1452 C1429 0.950 1_455 S
H1453 C1431 0.950 . S
C1454 C1455 1.349 . S
C1454 C1456 1.327 . S
C1454 H1479 0.950 . S
C1455 C1454 1.349 . S
C1455 C1471 1.349 . S
C1456 C1454 1.327 . S
C1456 C1475 1.429 . S
C1456 H1480 0.950 . S
C1457 C1474 1.574 . S
C1457 C1476 1.368 . S
C1457 H1481 0.949 . S
H1458 C1462 0.949 . S
C1459 C1460 1.349 . S
C1459 C1461 1.327 . S
C1459 H1482 0.950 . S
C1460 C1459 1.349 . S
C1460 C1472 1.349 . S
C1461 C1459 1.327 . S
C1461 C1477 1.429 . S
C1461 H1483 0.950 . S
C1462 H1458 0.949 . S
C1462 C1470 1.574 . S
C1462 C1478 1.368 . S
H1463 C1471 0.950 . S
H1464 C1469 0.950 . S
H1465 C1470 0.949 . S
H1466 C1472 0.950 . S
H1467 C1473 0.950 . S
H1468 C1474 0.949 . S
C1469 H1464 0.950 . S
C1469 C1471 1.327 . S
C1469 C1475 1.429 . S
C1470 C1462 1.574 . S
C1470 H1465 0.949 . S
C1470 C1476 1.368 . S
C1471 C1455 1.349 . S
C1471 H1463 0.950 . S
C1471 C1469 1.327 . S
C1472 C1460 1.349 . S
C1472 H1466 0.950 . S
C1472 C1473 1.327 . S
C1473 H1467 0.950 . S
C1473 C1472 1.327 . S
C1473 C1477 1.429 . S
C1474 C1457 1.574 . S
C1474 H1468 0.949 . S
C1474 C1478 1.368 . S
C1475 C1456 1.429 . S
C1475 C1469 1.429 . S
C1475 C1476 1.523 . S
C1476 C1457 1.368 . S
C1476 C1470 1.368 . S
C1476 C1475 1.523 . S
C1477 C1461 1.429 . S
C1477 C1473 1.429 . S
C1477 C1478 1.523 . S
C1478 C1462 1.368 . S
C1478 C1474 1.368 . S
C1478 C1477 1.523 . S
H1479 C1454 0.950 . S
H1480 C1456 0.950 . S
H1481 C1457 0.949 . S
H1482 C1459 0.950 . S
H1483 C1461 0.950 . S
C1484 C1485 1.349 . S
C1484 C1486 1.327 . S
C1484 H1509 0.950 . S
C1485 C1484 1.349 . S
C1485 C1501 1.349 1_565 S
C1486 C1484 1.327 . S
C1486 C1505 1.431 1_565 S
C1486 H1510 0.950 . S
C1487 C1504 1.574 . S
C1487 C1506 1.368 . S
C1487 H1511 0.949 . S
H1488 C1492 0.949 . S
C1489 C1490 1.349 . S
C1489 C1491 1.327 . S
C1489 H1512 0.950 . S
C1490 C1489 1.349 . S
C1490 C1502 1.349 1_545 S
C1491 C1489 1.327 . S
C1491 C1507 1.429 . S
C1491 H1513 0.950 . S
C1492 H1488 0.949 . S
C1492 C1500 1.574 . S
C1492 C1508 1.368 1_565 S
H1493 C1501 0.950 . S
H1494 C1499 0.950 . S
H1495 C1500 0.949 . S
H1496 C1502 0.950 . S
H1497 C1503 0.950 . S
H1498 C1504 0.949 . S
C1499 H1494 0.950 . S
C1499 C1501 1.327 . S
C1499 C1505 1.427 . S
C1500 C1492 1.574 . S
C1500 H1495 0.949 . S
C1500 C1506 1.368 1_565 S
C1501 C1485 1.349 1_545 S
C1501 H1493 0.950 . S
C1501 C1499 1.327 . S
C1502 C1490 1.349 1_565 S
C1502 H1496 0.950 . S
C1502 C1503 1.327 . S
C1503 H1497 0.950 . S
C1503 C1502 1.327 . S
C1503 C1507 1.429 1_565 S
C1504 C1487 1.574 . S
C1504 H1498 0.949 . S
C1504 C1508 1.368 . S
C1505 C1486 1.431 1_545 S
C1505 C1499 1.427 . S
C1505 C1506 1.522 . S
C1506 C1487 1.368 . S
C1506 C1500 1.368 1_545 S
C1506 C1505 1.522 . S
C1507 C1491 1.429 . S
C1507 C1503 1.429 1_545 S
C1507 C1508 1.523 . S
C1508 C1492 1.368 1_545 S
C1508 C1504 1.368 . S
C1508 C1507 1.523 . S
H1509 C1484 0.950 . S
H1510 C1486 0.950 . S
H1511 C1487 0.949 . S
H1512 C1489 0.950 . S
H1513 C1491 0.950 . S
C1514 C1515 1.349 . S
C1514 C1516 1.327 . S
C1514 H1539 0.950 . S
C1515 C1514 1.349 . S
C1515 C1531 1.349 . S
C1516 C1514 1.327 . S
C1516 C1535 1.429 . S
C1516 H1540 0.950 . S
C1517 C1534 1.574 . S
C1517 C1536 1.368 . S
C1517 H1541 0.949 . S
H1518 C1522 0.949 . S
C1519 C1520 1.349 . S
C1519 C1521 1.327 . S
C1519 H1542 0.950 . S
C1520 C1519 1.349 . S
C1520 C1532 1.349 . S
C1521 C1519 1.327 . S
C1521 C1537 1.429 . S
C1521 H1543 0.950 . S
C1522 H1518 0.949 . S
C1522 C1530 1.574 . S
C1522 C1538 1.368 . S
H1523 C1531 0.950 . S
H1524 C1529 0.950 . S
H1525 C1530 0.949 . S
H1526 C1532 0.950 . S
H1527 C1533 0.950 . S
H1528 C1534 0.949 . S
C1529 H1524 0.950 . S
C1529 C1531 1.327 . S
C1529 C1535 1.429 . S
C1530 C1522 1.574 . S
C1530 H1525 0.949 . S
C1530 C1536 1.368 . S
C1531 C1515 1.349 . S
C1531 H1523 0.950 . S
C1531 C1529 1.327 . S
C1532 C1520 1.349 . S
C1532 H1526 0.950 . S
C1532 C1533 1.327 . S
C1533 H1527 0.950 . S
C1533 C1532 1.327 . S
C1533 C1537 1.429 . S
C1534 C1517 1.574 . S
C1534 H1528 0.949 . S
C1534 C1538 1.368 . S
C1535 C1516 1.429 . S
C1535 C1529 1.429 . S
C1535 C1536 1.523 . S
C1536 C1517 1.368 . S
C1536 C1530 1.368 . S
C1536 C1535 1.523 . S
C1537 C1521 1.429 . S
C1537 C1533 1.429 . S
C1537 C1538 1.523 . S
C1538 C1522 1.368 . S
C1538 C1534 1.368 . S
C1538 C1537 1.523 . S
H1539 C1514 0.950 . S
H1540 C1516 0.950 . S
H1541 C1517 0.949 . S
H1542 C1519 0.950 . S
H1543 C1521 0.950 . S
C1544 C1545 1.349 . S
C1544 C1546 1.327 . S
C1544 H1569 0.950 . S
C1545 C1544 1.349 . S
C1545 C1561 1.349 . S
C1546 C1544 1.327 . S
C1546 C1565 1.429 . S
C1546 H1570 0.950 . S
C1547 C1564 1.574 . S
C1547 C1566 1.368 1_565 S
C1547 H1571 0.949 . S
H1548 C1552 0.949 . S
C1549 C1550 1.349 1_565 S
C1549 C1551 1.327 . S
C1549 H1572 0.920 1_655 S
C1550 C1549 1.349 1_545 S
C1550 C1562 1.349 . S
C1551 C1549 1.327 . S
C1551 C1567 1.429 1_565 S
C1551 H1573 0.950 . S
C1552 H1548 0.949 . S
C1552 C1560 1.574 . S
C1552 C1568 1.368 . S
H1553 C1561 0.950 1_565 S
H1554 C1559 0.951 . S
H1555 C1560 0.949 . S
H1556 C1562 0.950 . S
H1557 C1563 0.950 . S
H1558 C1564 0.949 . S
C1559 H1554 0.951 . S
C1559 C1561 1.327 1_565 S
C1559 C1565 1.428 1_565 S
C1560 C1552 1.574 . S
C1560 H1555 0.949 . S
C1560 C1566 1.368 . S
C1561 C1545 1.349 . S
C1561 H1553 0.950 1_545 S
C1561 C1559 1.327 1_545 S
C1562 C1550 1.349 . S
C1562 H1556 0.950 . S
C1562 C1563 1.327 . S
C1563 H1557 0.950 . S
C1563 C1562 1.327 . S
C1563 C1567 1.429 . S
C1564 C1547 1.574 . S
C1564 H1558 0.949 . S
C1564 C1568 1.368 1_565 S
C1565 C1546 1.429 . S
C1565 C1559 1.428 1_545 S
C1565 C1566 1.523 . S
C1566 C1547 1.368 1_545 S
C1566 C1560 1.368 . S
C1566 C1565 1.523 . S
C1567 C1551 1.429 1_545 S
C1567 C1563 1.429 . S
C1567 C1568 1.523 . S
C1568 C1552 1.368 . S
C1568 C1564 1.368 1_545 S
C1568 C1567 1.523 . S
H1569 C1544 0.950 . S
H1570 C1546 0.950 . S
H1571 C1547 0.949 . S
H1572 C1549 0.920 1_455 S
H1573 C1551 0.950 . S
C1574 C1575 1.349 . S
C1574 C1576 1.327 . S
C1574 H1599 0.950 . S
C1575 C1574 1.349 . S
C1575 C1591 1.349 . S
C1576 C1574 1.327 . S
C1576 C1595 1.429 . S
C1576 H1600 0.950 . S
C1577 C1594 1.574 . S
C1577 C1596 1.368 . S
C1577 H1601 0.949 . S
H1578 C1582 0.949 . S
C1579 C1580 1.349 . S
C1579 C1581 1.327 . S
C1579 H1602 0.950 . S
C1580 C1579 1.349 . S
C1580 C1592 1.349 . S
C1581 C1579 1.327 . S
C1581 C1597 1.429 . S
C1581 H1603 0.950 . S
C1582 H1578 0.949 . S
C1582 C1590 1.574 . S
C1582 C1598 1.368 . S
H1583 C1591 0.950 . S
H1584 C1589 0.950 . S
H1585 C1590 0.949 . S
H1586 C1592 0.950 . S
H1587 C1593 0.950 . S
H1588 C1594 0.949 . S
C1589 H1584 0.950 . S
C1589 C1591 1.327 . S
C1589 C1595 1.429 . S
C1590 C1582 1.574 . S
C1590 H1585 0.949 . S
C1590 C1596 1.368 . S
C1591 C1575 1.349 . S
C1591 H1583 0.950 . S
C1591 C1589 1.327 . S
C1592 C1580 1.349 . S
C1592 H1586 0.950 . S
C1592 C1593 1.327 . S
C1593 H1587 0.950 . S
C1593 C1592 1.327 . S
C1593 C1597 1.429 . S
C1594 C1577 1.574 . S
C1594 H1588 0.949 . S
C1594 C1598 1.368 . S
C1595 C1576 1.429 . S
C1595 C1589 1.429 . S
C1595 C1596 1.523 . S
C1596 C1577 1.368 . S
C1596 C1590 1.368 . S
C1596 C1595 1.523 . S
C1597 C1581 1.429 . S
C1597 C1593 1.429 . S
C1597 C1598 1.523 . S
C1598 C1582 1.368 . S
C1598 C1594 1.368 . S
C1598 C1597 1.523 . S
H1599 C1574 0.950 . S
H1600 C1576 0.950 . S
H1601 C1577 0.949 . S
H1602 C1579 0.950 . S
H1603 C1581 0.950 . S
C1604 C1605 1.334 1_565 S
C1604 C1606 1.327 . S
C1604 H1629 0.950 . S
C1605 C1604 1.334 1_545 S
C1605 C1621 1.367 . S
C1606 C1604 1.327 . S
C1606 C1625 1.429 1_565 S
C1606 H1630 0.950 . S
C1607 C1624 1.574 . S
C1607 C1626 1.368 . S
C1607 H1631 0.949 . S
H1608 C1612 0.933 1_565 S
C1609 C1610 1.349 . S
C1609 C1611 1.327 . S
C1609 H1632 0.950 . S
C1610 C1609 1.349 . S
C1610 C1622 1.349 . S
C1611 C1609 1.327 . S
C1611 C1627 1.429 . S
C1611 H1633 0.950 . S
C1612 H1608 0.933 1_545 S
C1612 C1620 1.570 1_545 S
C1612 C1628 1.390 . S
H1613 C1621 0.950 . S
H1614 C1619 0.950 . S
H1615 C1620 0.949 . S
H1616 C1622 0.950 . S
H1617 C1623 0.950 1_565 S
H1618 C1624 0.949 . S
C1619 H1614 0.950 . S
C1619 C1621 1.327 . S
C1619 C1625 1.429 . S
C1620 C1612 1.570 1_565 S
C1620 H1615 0.949 . S
C1620 C1626 1.368 1_565 S
C1621 C1605 1.367 . S
C1621 H1613 0.950 . S
C1621 C1619 1.327 . S
C1622 C1610 1.349 . S
C1622 H1616 0.950 . S
C1622 C1623 1.327 . S
C1623 H1617 0.950 1_545 S
C1623 C1622 1.327 . S
C1623 C1627 1.429 . S
C1624 C1607 1.574 . S
C1624 H1618 0.949 . S
C1624 C1628 1.368 . S
C1625 C1606 1.429 1_545 S
C1625 C1619 1.429 . S
C1625 C1626 1.523 . S
C1626 C1607 1.368 . S
C1626 C1620 1.368 1_545 S
C1626 C1625 1.523 . S
C1627 C1611 1.429 . S
C1627 C1623 1.429 . S
C1627 C1628 1.523 . S
C1628 C1612 1.390 . S
C1628 C1624 1.368 . S
C1628 C1627 1.523 . S
H1629 C1604 0.950 . S
H1630 C1606 0.950 . S
H1631 C1607 0.949 . S
H1632 C1609 0.950 . S
H1633 C1611 0.950 . S
C1634 C1635 1.349 . S
C1634 C1636 1.327 . S
C1634 H1659 0.950 . S
C1635 C1634 1.349 . S
C1635 C1651 1.349 . S
C1636 C1634 1.327 . S
C1636 C1655 1.429 . S
C1636 H1660 0.950 . S
C1637 C1654 1.574 . S
C1637 C1656 1.368 . S
C1637 H1661 0.949 . S
H1638 C1642 0.949 . S
C1639 C1640 1.349 . S
C1639 C1641 1.327 . S
C1639 H1662 0.950 . S
C1640 C1639 1.349 . S
C1640 C1652 1.349 . S
C1641 C1639 1.327 . S
C1641 C1657 1.429 . S
C1641 H1663 0.950 . S
C1642 H1638 0.949 . S
C1642 C1650 1.574 . S
C1642 C1658 1.368 . S
H1643 C1651 0.950 . S
H1644 C1649 0.950 . S
H1645 C1650 0.949 . S
H1646 C1652 0.950 . S
H1647 C1653 0.950 . S
H1648 C1654 0.949 . S
C1649 H1644 0.950 . S
C1649 C1651 1.327 . S
C1649 C1655 1.429 . S
C1650 C1642 1.574 . S
C1650 H1645 0.949 . S
C1650 C1656 1.368 . S
C1651 C1635 1.349 . S
C1651 H1643 0.950 . S
C1651 C1649 1.327 . S
C1652 C1640 1.349 . S
C1652 H1646 0.950 . S
C1652 C1653 1.327 . S
C1653 H1647 0.950 . S
C1653 C1652 1.327 . S
C1653 C1657 1.429 . S
C1654 C1637 1.574 . S
C1654 H1648 0.949 . S
C1654 C1658 1.368 . S
C1655 C1636 1.429 . S
C1655 C1649 1.429 . S
C1655 C1656 1.523 . S
C1656 C1637 1.368 . S
C1656 C1650 1.368 . S
C1656 C1655 1.523 . S
C1657 C1641 1.429 . S
C1657 C1653 1.429 . S
C1657 C1658 1.523 . S
C1658 C1642 1.368 . S
C1658 C1654 1.368 . S
C1658 C1657 1.523 . S
H1659 C1634 0.950 . S
H1660 C1636 0.950 . S
H1661 C1637 0.949 . S
H1662 C1639 0.950 . S
H1663 C1641 0.950 . S
C1664 C1665 1.349 . S
C1664 C1666 1.327 . S
C1664 H1689 0.950 1_554 S
C1665 C1664 1.349 . S
C1665 C1681 1.349 . S
C1666 C1664 1.327 . S
C1666 C1685 1.429 . S
C1666 H1690 0.950 1_554 S
C1667 C1684 1.574 . S
C1667 C1686 1.368 . S
C1667 H1691 0.949 . S
H1668 C1672 0.949 1_556 S
C1669 C1670 1.349 . S
C1669 C1671 1.327 . S
C1669 H1692 0.950 . S
C1670 C1669 1.349 . S
C1670 C1682 1.349 . S
C1671 C1669 1.327 . S
C1671 C1687 1.429 . S
C1671 H1693 0.950 . S
C1672 H1668 0.949 1_554 S
C1672 C1680 1.574 . S
C1672 C1688 1.368 . S
H1673 C1681 0.950 . S
H1674 C1679 0.950 . S
H1675 C1680 0.949 1_556 S
H1676 C1682 0.950 . S
H1677 C1683 0.971 . S
H1678 C1684 0.949 . S
C1679 H1674 0.950 . S
C1679 C1681 1.327 . S
C1679 C1685 1.429 . S
C1680 C1672 1.574 . S
C1680 H1675 0.949 1_554 S
C1680 C1686 1.368 . S
C1681 C1665 1.349 . S
C1681 H1673 0.950 . S
C1681 C1679 1.327 . S
C1682 C1670 1.349 . S
C1682 H1676 0.950 . S
C1682 C1683 1.327 . S
C1683 H1677 0.971 . S
C1683 C1682 1.327 . S
C1683 C1687 1.429 . S
C1684 C1667 1.574 . S
C1684 H1678 0.949 . S
C1684 C1688 1.368 . S
C1685 C1666 1.429 . S
C1685 C1679 1.429 . S
C1685 C1686 1.523 . S
C1686 C1667 1.368 . S
C1686 C1680 1.368 . S
C1686 C1685 1.523 . S
C1687 C1671 1.429 . S
C1687 C1683 1.429 . S
C1687 C1688 1.523 . S
C1688 C1672 1.368 . S
C1688 C1684 1.368 . S
C1688 C1687 1.523 . S
H1689 C1664 0.950 1_556 S
H1690 C1666 0.950 1_556 S
H1691 C1667 0.949 . S
H1692 C1669 0.950 . S
H1693 C1671 0.950 . S
C1694 C1695 1.349 . S
C1694 C1696 1.327 . S
C1694 H1719 0.950 . S
C1695 C1694 1.349 . S
C1695 C1711 1.349 1_556 S
C1696 C1694 1.327 . S
C1696 C1715 1.429 1_556 S
C1696 H1720 0.950 . S
C1697 C1714 1.574 . S
C1697 C1716 1.368 . S
C1697 H1721 0.949 . S
H1698 C1702 0.949 . S
C1699 C1700 1.349 . S
C1699 C1701 1.327 . S
C1699 H1722 0.950 . S
C1700 C1699 1.349 . S
C1700 C1712 1.349 1_554 S
C1701 C1699 1.327 . S
C1701 C1717 1.429 . S
C1701 H1723 0.950 . S
C1702 H1698 0.949 . S
C1702 C1710 1.574 . S
C1702 C1718 1.368 1_556 S
H1703 C1711 0.950 . S
H1704 C1709 0.950 . S
H1705 C1710 0.949 . S
H1706 C1712 0.950 . S
H1707 C1713 0.950 . S
H1708 C1714 0.949 . S
C1709 H1704 0.950 . S
C1709 C1711 1.327 . S
C1709 C1715 1.429 . S
C1710 C1702 1.574 . S
C1710 H1705 0.949 . S
C1710 C1716 1.368 1_556 S
C1711 C1695 1.349 1_554 S
C1711 H1703 0.950 . S
C1711 C1709 1.327 . S
C1712 C1700 1.349 1_556 S
C1712 H1706 0.950 . S
C1712 C1713 1.327 . S
C1713 H1707 0.950 . S
C1713 C1712 1.327 . S
C1713 C1717 1.429 1_556 S
C1714 C1697 1.574 . S
C1714 H1708 0.949 . S
C1714 C1718 1.368 . S
C1715 C1696 1.429 1_554 S
C1715 C1709 1.429 . S
C1715 C1716 1.523 . S
C1716 C1697 1.368 . S
C1716 C1710 1.368 1_554 S
C1716 C1715 1.523 . S
C1717 C1701 1.429 . S
C1717 C1713 1.429 1_554 S
C1717 C1718 1.523 . S
C1718 C1702 1.368 1_554 S
C1718 C1714 1.368 . S
C1718 C1717 1.523 . S
H1719 C1694 0.950 . S
H1720 C1696 0.950 . S
H1721 C1697 0.949 . S
H1722 C1699 0.950 . S
H1723 C1701 0.950 . S
C1724 C1725 1.349 . S
C1724 C1726 1.327 . S
C1724 H1749 0.950 . S
C1725 C1724 1.349 . S
C1725 C1741 1.349 . S
C1726 C1724 1.327 . S
C1726 C1745 1.429 . S
C1726 H1750 0.950 . S
C1727 C1744 1.574 . S
C1727 C1746 1.368 . S
C1727 H1751 0.949 . S
H1728 C1732 0.949 . S
C1729 C1730 1.349 . S
C1729 C1731 1.327 . S
C1729 H1752 0.950 . S
C1730 C1729 1.349 . S
C1730 C1742 1.349 . S
C1731 C1729 1.327 . S
C1731 C1747 1.429 . S
C1731 H1753 0.950 . S
C1732 H1728 0.949 . S
C1732 C1740 1.574 . S
C1732 C1748 1.368 . S
H1733 C1741 0.950 . S
H1734 C1739 0.950 . S
H1735 C1740 0.949 . S
H1736 C1742 0.950 . S
H1737 C1743 0.950 . S
H1738 C1744 0.949 . S
C1739 H1734 0.950 . S
C1739 C1741 1.327 . S
C1739 C1745 1.429 . S
C1740 C1732 1.574 . S
C1740 H1735 0.949 . S
C1740 C1746 1.368 . S
C1741 C1725 1.349 . S
C1741 H1733 0.950 . S
C1741 C1739 1.327 . S
C1742 C1730 1.349 . S
C1742 H1736 0.950 . S
C1742 C1743 1.327 . S
C1743 H1737 0.950 . S
C1743 C1742 1.327 . S
C1743 C1747 1.429 . S
C1744 C1727 1.574 . S
C1744 H1738 0.949 . S
C1744 C1748 1.368 . S
C1745 C1726 1.429 . S
C1745 C1739 1.429 . S
C1745 C1746 1.523 . S
C1746 C1727 1.368 . S
C1746 C1740 1.368 . S
C1746 C1745 1.523 . S
C1747 C1731 1.429 . S
C1747 C1743 1.429 . S
C1747 C1748 1.523 . S
C1748 C1732 1.368 . S
C1748 C1744 1.368 . S
C1748 C1747 1.523 . S
H1749 C1724 0.950 . S
H1750 C1726 0.950 . S
H1751 C1727 0.949 . S
H1752 C1729 0.950 . S
H1753 C1731 0.950 . S
C1754 C1755 1.349 . S
C1754 C1756 1.327 . S
C1754 H1779 0.950 . S
C1755 C1754 1.349 . S
C1755 C1771 1.349 . S
C1756 C1754 1.327 . S
C1756 C1775 1.429 . S
C1756 H1780 0.950 . S
C1757 C1774 1.574 . S
C1757 C1776 1.368 . S
C1757 H1781 0.949 . S
H1758 C1762 0.949 . S
C1759 C1760 1.349 . S
C1759 C1761 1.327 . S
C1759 H1782 0.950 . S
C1760 C1759 1.349 . S
C1760 C1772 1.349 . S
C1761 C1759 1.327 . S
C1761 C1777 1.429 . S
C1761 H1783 0.950 . S
C1762 H1758 0.949 . S
C1762 C1770 1.574 . S
C1762 C1778 1.368 . S
H1763 C1771 0.950 . S
H1764 C1769 0.950 . S
H1765 C1770 0.949 . S
H1766 C1772 0.950 . S
H1767 C1773 0.950 . S
H1768 C1774 0.949 . S
C1769 H1764 0.950 . S
C1769 C1771 1.327 . S
C1769 C1775 1.429 . S
C1770 C1762 1.574 . S
C1770 H1765 0.949 . S
C1770 C1776 1.368 . S
C1771 C1755 1.349 . S
C1771 H1763 0.950 . S
C1771 C1769 1.327 . S
C1772 C1760 1.349 . S
C1772 H1766 0.950 . S
C1772 C1773 1.327 . S
C1773 H1767 0.950 . S
C1773 C1772 1.327 . S
C1773 C1777 1.429 . S
C1774 C1757 1.574 . S
C1774 H1768 0.949 . S
C1774 C1778 1.368 . S
C1775 C1756 1.429 . S
C1775 C1769 1.429 . S
C1775 C1776 1.523 . S
C1776 C1757 1.368 . S
C1776 C1770 1.368 . S
C1776 C1775 1.523 . S
C1777 C1761 1.429 . S
C1777 C1773 1.429 . S
C1777 C1778 1.523 . S
C1778 C1762 1.368 . S
C1778 C1774 1.368 . S
C1778 C1777 1.523 . S
H1779 C1754 0.950 . S
H1780 C1756 0.950 . S
H1781 C1757 0.949 . S
H1782 C1759 0.950 . S
H1783 C1761 0.950 . S
C1784 C1785 1.349 . S
C1784 C1786 1.327 . S
C1784 H1809 0.950 . S
C1785 C1784 1.349 . S
C1785 C1801 1.349 . S
C1786 C1784 1.327 . S
C1786 C1805 1.429 . S
C1786 H1810 0.950 . S
C1787 C1804 1.574 . S
C1787 C1806 1.368 . S
C1787 H1811 0.949 . S
H1788 C1792 0.949 . S
C1789 C1790 1.349 . S
C1789 C1791 1.327 . S
C1789 H1812 0.950 . S
C1790 C1789 1.349 . S
C1790 C1802 1.349 . S
C1791 C1789 1.327 . S
C1791 C1807 1.429 . S
C1791 H1813 0.950 . S
C1792 H1788 0.949 . S
C1792 C1800 1.574 . S
C1792 C1808 1.368 . S
H1793 C1801 0.950 . S
H1794 C1799 0.950 . S
H1795 C1800 0.949 . S
H1796 C1802 0.950 . S
H1797 C1803 0.950 . S
H1798 C1804 0.949 . S
C1799 H1794 0.950 . S
C1799 C1801 1.327 . S
C1799 C1805 1.429 . S
C1800 C1792 1.574 . S
C1800 H1795 0.949 . S
C1800 C1806 1.368 . S
C1801 C1785 1.349 . S
C1801 H1793 0.950 . S
C1801 C1799 1.327 . S
C1802 C1790 1.349 . S
C1802 H1796 0.950 . S
C1802 C1803 1.327 . S
C1803 H1797 0.950 . S
C1803 C1802 1.327 . S
C1803 C1807 1.429 . S
C1804 C1787 1.574 . S
C1804 H1798 0.949 . S
C1804 C1808 1.368 . S
C1805 C1786 1.429 . S
C1805 C1799 1.429 . S
C1805 C1806 1.523 . S
C1806 C1787 1.368 . S
C1806 C1800 1.368 . S
C1806 C1805 1.523 . S
C1807 C1791 1.429 . S
C1807 C1803 1.429 . S
C1807 C1808 1.523 . S
C1808 C1792 1.368 . S
C1808 C1804 1.368 . S
C1808 C1807 1.523 . S
H1809 C1784 0.950 . S
H1810 C1786 0.950 . S
H1811 C1787 0.949 . S
H1812 C1789 0.950 . S
H1813 C1791 0.950 . S
C1814 C1815 1.349 . S
C1814 C1816 1.327 . S
C1814 H1839 0.950 . S
C1815 C1814 1.349 . S
C1815 C1831 1.349 . S
C1816 C1814 1.327 . S
C1816 C1835 1.429 . S
C1816 H1840 0.950 . S
C1817 C1834 1.574 . S
C1817 C1836 1.368 . S
C1817 H1841 0.949 . S
H1818 C1822 0.949 . S
C1819 C1820 1.349 . S
C1819 C1821 1.327 . S
C1819 H1842 0.950 . S
C1820 C1819 1.349 . S
C1820 C1832 1.349 . S
C1821 C1819 1.327 . S
C1821 C1837 1.429 . S
C1821 H1843 0.950 . S
C1822 H1818 0.949 . S
C1822 C1830 1.574 . S
C1822 C1838 1.368 . S
H1823 C1831 0.950 . S
H1824 C1829 0.950 . S
H1825 C1830 0.949 . S
H1826 C1832 0.950 . S
H1827 C1833 0.950 . S
H1828 C1834 0.949 . S
C1829 H1824 0.950 . S
C1829 C1831 1.327 . S
C1829 C1835 1.429 . S
C1830 C1822 1.574 . S
C1830 H1825 0.949 . S
C1830 C1836 1.368 . S
C1831 C1815 1.349 . S
C1831 H1823 0.950 . S
C1831 C1829 1.327 . S
C1832 C1820 1.349 . S
C1832 H1826 0.950 . S
C1832 C1833 1.327 . S
C1833 H1827 0.950 . S
C1833 C1832 1.327 . S
C1833 C1837 1.429 . S
C1834 C1817 1.574 . S
C1834 H1828 0.949 . S
C1834 C1838 1.368 . S
C1835 C1816 1.429 . S
C1835 C1829 1.429 . S
C1835 C1836 1.523 . S
C1836 C1817 1.368 . S
C1836 C1830 1.368 . S
C1836 C1835 1.523 . S
C1837 C1821 1.429 . S
C1837 C1833 1.429 . S
C1837 C1838 1.523 . S
C1838 C1822 1.368 . S
C1838 C1834 1.368 . S
C1838 C1837 1.523 . S
H1839 C1814 0.950 . S
H1840 C1816 0.950 . S
H1841 C1817 0.949 . S
H1842 C1819 0.950 . S
H1843 C1821 0.950 . S
C1844 C1845 1.349 . S
C1844 C1846 1.327 . S
C1844 H1869 0.950 . S
C1845 C1844 1.349 . S
C1845 C1861 1.349 . S
C1846 C1844 1.327 . S
C1846 C1865 1.429 . S
C1846 H1870 0.950 . S
C1847 C1864 1.574 . S
C1847 C1866 1.368 . S
C1847 H1871 0.949 . S
H1848 C1852 0.949 . S
C1849 C1850 1.349 . S
C1849 C1851 1.327 . S
C1849 H1872 0.950 . S
C1850 C1849 1.349 . S
C1850 C1862 1.349 . S
C1851 C1849 1.327 . S
C1851 C1867 1.429 . S
C1851 H1873 0.950 . S
C1852 H1848 0.949 . S
C1852 C1860 1.574 . S
C1852 C1868 1.368 . S
H1853 C1861 0.950 . S
H1854 C1859 0.950 . S
H1855 C1860 0.949 . S
H1856 C1862 0.950 . S
H1857 C1863 0.950 . S
H1858 C1864 0.949 . S
C1859 H1854 0.950 . S
C1859 C1861 1.327 . S
C1859 C1865 1.429 . S
C1860 C1852 1.574 . S
C1860 H1855 0.949 . S
C1860 C1866 1.368 . S
C1861 C1845 1.349 . S
C1861 H1853 0.950 . S
C1861 C1859 1.327 . S
C1862 C1850 1.349 . S
C1862 H1856 0.950 . S
C1862 C1863 1.327 . S
C1863 H1857 0.950 . S
C1863 C1862 1.327 . S
C1863 C1867 1.429 . S
C1864 C1847 1.574 . S
C1864 H1858 0.949 . S
C1864 C1868 1.368 . S
C1865 C1846 1.429 . S
C1865 C1859 1.429 . S
C1865 C1866 1.523 . S
C1866 C1847 1.368 . S
C1866 C1860 1.368 . S
C1866 C1865 1.523 . S
C1867 C1851 1.429 . S
C1867 C1863 1.429 . S
C1867 C1868 1.523 . S
C1868 C1852 1.368 . S
C1868 C1864 1.368 . S
C1868 C1867 1.523 . S
H1869 C1844 0.950 . S
H1870 C1846 0.950 . S
H1871 C1847 0.949 . S
H1872 C1849 0.950 . S
H1873 C1851 0.950 . S
C1874 C1875 1.349 . S
C1874 C1876 1.327 . S
C1874 H1899 0.950 . S
C1875 C1874 1.349 . S
C1875 C1891 1.349 . S
C1876 C1874 1.327 . S
C1876 C1895 1.429 . S
C1876 H1900 0.950 . S
C1877 C1894 1.574 . S
C1877 C1896 1.368 . S
C1877 H1901 0.949 . S
H1878 C1882 0.949 . S
C1879 C1880 1.349 . S
C1879 C1881 1.327 . S
C1879 H1902 0.950 . S
C1880 C1879 1.349 . S
C1880 C1892 1.349 . S
C1881 C1879 1.327 . S
C1881 C1897 1.429 . S
C1881 H1903 0.950 . S
C1882 H1878 0.949 . S
C1882 C1890 1.574 . S
C1882 C1898 1.368 . S
H1883 C1891 0.950 . S
H1884 C1889 0.950 . S
H1885 C1890 0.949 . S
H1886 C1892 0.950 . S
H1887 C1893 0.950 . S
H1888 C1894 0.949 . S
C1889 H1884 0.950 . S
C1889 C1891 1.327 . S
C1889 C1895 1.429 . S
C1890 C1882 1.574 . S
C1890 H1885 0.949 . S
C1890 C1896 1.368 . S
C1891 C1875 1.349 . S
C1891 H1883 0.950 . S
C1891 C1889 1.327 . S
C1892 C1880 1.349 . S
C1892 H1886 0.950 . S
C1892 C1893 1.327 . S
C1893 H1887 0.950 . S
C1893 C1892 1.327 . S
C1893 C1897 1.429 . S
C1894 C1877 1.574 . S
C1894 H1888 0.949 . S
C1894 C1898 1.368 . S
C1895 C1876 1.429 . S
C1895 C1889 1.429 . S
C1895 C1896 1.523 . S
C1896 C1877 1.368 . S
C1896 C1890 1.368 . S
C1896 C1895 1.523 . S
C1897 C1881 1.429 . S
C1897 C1893 1.429 . S
C1897 C1898 1.523 . S
C1898 C1882 1.368 . S
C1898 C1894 1.368 . S
C1898 C1897 1.523 . S
H1899 C1874 0.950 . S
H1900 C1876 0.950 . S
H1901 C1877 0.949 . S
H1902 C1879 0.950 . S
H1903 C1881 0.950 . S
C1904 C1905 1.349 . S
C1904 C1906 1.327 . S
C1904 H1929 0.950 . S
C1905 C1904 1.349 . S
C1905 C1921 1.349 . S
C1906 C1904 1.327 . S
C1906 C1925 1.429 . S
C1906 H1930 0.950 . S
C1907 C1924 1.573 1_455 S
C1907 C1926 1.373 . S
C1907 H1931 0.946 1_455 S
H1908 C1912 0.949 . S
C1909 C1910 1.349 1_655 S
C1909 C1911 1.327 . S
C1909 H1932 0.950 . S
C1910 C1909 1.349 1_455 S
C1910 C1922 1.349 . S
C1911 C1909 1.327 . S
C1911 C1927 1.429 1_655 S
C1911 H1933 0.950 . S
C1912 H1908 0.949 . S
C1912 C1920 1.574 . S
C1912 C1928 1.368 . S
H1913 C1921 0.919 1_655 S
H1914 C1919 0.950 1_655 S
H1915 C1920 0.949 . S
H1916 C1922 0.950 . S
H1917 C1923 0.950 . S
H1918 C1924 0.949 . S
C1919 H1914 0.950 1_455 S
C1919 C1921 1.327 . S
C1919 C1925 1.429 . S
C1920 C1912 1.574 . S
C1920 H1915 0.949 . S
C1920 C1926 1.368 . S
C1921 C1905 1.349 . S
C1921 H1913 0.919 1_455 S
C1921 C1919 1.327 . S
C1922 C1910 1.349 . S
C1922 H1916 0.950 . S
C1922 C1923 1.327 . S
C1923 H1917 0.950 . S
C1923 C1922 1.327 . S
C1923 C1927 1.429 . S
C1924 C1907 1.573 1_655 S
C1924 H1918 0.949 . S
C1924 C1928 1.368 1_655 S
C1925 C1906 1.429 . S
C1925 C1919 1.429 . S
C1925 C1926 1.523 . S
C1926 C1907 1.373 . S
C1926 C1920 1.368 . S
C1926 C1925 1.523 . S
C1927 C1911 1.429 1_455 S
C1927 C1923 1.429 . S
C1927 C1928 1.523 . S
C1928 C1912 1.368 . S
C1928 C1924 1.368 1_455 S
C1928 C1927 1.523 . S
H1929 C1904 0.950 . S
H1930 C1906 0.950 . S
H1931 C1907 0.946 1_655 S
H1932 C1909 0.950 . S
H1933 C1911 0.950 . S
C1934 C1935 1.349 . S
C1934 C1936 1.327 . S
C1934 H1959 0.950 . S
C1935 C1934 1.349 . S
C1935 C1951 1.349 . S
C1936 C1934 1.327 . S
C1936 C1955 1.429 . S
C1936 H1960 0.950 . S
C1937 C1954 1.574 . S
C1937 C1956 1.368 . S
C1937 H1961 0.949 . S
H1938 C1942 0.949 . S
C1939 C1940 1.349 . S
C1939 C1941 1.327 . S
C1939 H1962 0.950 . S
C1940 C1939 1.349 . S
C1940 C1952 1.349 . S
C1941 C1939 1.327 . S
C1941 C1957 1.429 . S
C1941 H1963 0.950 . S
C1942 H1938 0.949 . S
C1942 C1950 1.574 . S
C1942 C1958 1.368 . S
H1943 C1951 0.950 . S
H1944 C1949 0.950 . S
H1945 C1950 0.949 . S
H1946 C1952 0.950 . S
H1947 C1953 0.950 . S
H1948 C1954 0.949 . S
C1949 H1944 0.950 . S
C1949 C1951 1.327 . S
C1949 C1955 1.429 . S
C1950 C1942 1.574 . S
C1950 H1945 0.949 . S
C1950 C1956 1.368 . S
C1951 C1935 1.349 . S
C1951 H1943 0.950 . S
C1951 C1949 1.327 . S
C1952 C1940 1.349 . S
C1952 H1946 0.950 . S
C1952 C1953 1.327 . S
C1953 H1947 0.950 . S
C1953 C1952 1.327 . S
C1953 C1957 1.429 . S
C1954 C1937 1.574 . S
C1954 H1948 0.949 . S
C1954 C1958 1.368 . S
C1955 C1936 1.429 . S
C1955 C1949 1.429 . S
C1955 C1956 1.523 . S
C1956 C1937 1.368 . S
C1956 C1950 1.368 . S
C1956 C1955 1.523 . S
C1957 C1941 1.429 . S
C1957 C1953 1.429 . S
C1957 C1958 1.523 . S
C1958 C1942 1.368 . S
C1958 C1954 1.368 . S
C1958 C1957 1.523 . S
H1959 C1934 0.950 . S
H1960 C1936 0.950 . S
H1961 C1937 0.949 . S
H1962 C1939 0.950 . S
H1963 C1941 0.950 . S
C1964 C1965 1.349 . S
C1964 C1966 1.327 . S
C1964 H1989 0.950 . S
C1965 C1964 1.349 . S
C1965 C1981 1.349 . S
C1966 C1964 1.327 . S
C1966 C1985 1.429 . S
C1966 H1990 0.950 . S
C1967 C1984 1.574 . S
C1967 C1986 1.368 . S
C1967 H1991 0.949 . S
H1968 C1972 0.949 . S
C1969 C1970 1.349 . S
C1969 C1971 1.327 . S
C1969 H1992 0.950 . S
C1970 C1969 1.349 . S
C1970 C1982 1.349 . S
C1971 C1969 1.327 . S
C1971 C1987 1.429 . S
C1971 H1993 0.950 . S
C1972 H1968 0.949 . S
C1972 C1980 1.574 . S
C1972 C1988 1.368 . S
H1973 C1981 0.950 . S
H1974 C1979 0.950 . S
H1975 C1980 0.949 . S
H1976 C1982 0.950 . S
H1977 C1983 0.950 . S
H1978 C1984 0.949 . S
C1979 H1974 0.950 . S
C1979 C1981 1.327 . S
C1979 C1985 1.429 . S
C1980 C1972 1.574 . S
C1980 H1975 0.949 . S
C1980 C1986 1.368 . S
C1981 C1965 1.349 . S
C1981 H1973 0.950 . S
C1981 C1979 1.327 . S
C1982 C1970 1.349 . S
C1982 H1976 0.950 . S
C1982 C1983 1.327 . S
C1983 H1977 0.950 . S
C1983 C1982 1.327 . S
C1983 C1987 1.429 . S
C1984 C1967 1.574 . S
C1984 H1978 0.949 . S
C1984 C1988 1.368 . S
C1985 C1966 1.429 . S
C1985 C1979 1.429 . S
C1985 C1986 1.523 . S
C1986 C1967 1.368 . S
C1986 C1980 1.368 . S
C1986 C1985 1.523 . S
C1987 C1971 1.429 . S
C1987 C1983 1.429 . S
C1987 C1988 1.523 . S
C1988 C1972 1.368 . S
C1988 C1984 1.368 . S
C1988 C1987 1.523 . S
H1989 C1964 0.950 . S
H1990 C1966 0.950 . S
H1991 C1967 0.949 . S
H1992 C1969 0.950 . S
H1993 C1971 0.950 . S
C1994 C1995 1.349 . S
C1994 C1996 1.327 . S
C1994 H2019 0.950 . S
C1995 C1994 1.349 . S
C1995 C2011 1.349 . S
C1996 C1994 1.327 . S
C1996 C2015 1.429 . S
C1996 H2020 0.950 . S
C1997 C2014 1.574 . S
C1997 C2016 1.368 . S
C1997 H2021 0.949 . S
H1998 C2002 0.949 . S
C1999 C2000 1.349 . S
C1999 C2001 1.327 . S
C1999 H2022 0.950 . S
C2000 C1999 1.349 . S
C2000 C2012 1.349 . S
C2001 C1999 1.327 . S
C2001 C2017 1.429 . S
C2001 H2023 0.950 . S
C2002 H1998 0.949 . S
C2002 C2010 1.574 . S
C2002 C2018 1.368 . S
H2003 C2011 0.950 . S
H2004 C2009 0.950 . S
H2005 C2010 0.949 . S
H2006 C2012 0.950 . S
H2007 C2013 0.950 . S
H2008 C2014 0.949 . S
C2009 H2004 0.950 . S
C2009 C2011 1.327 . S
C2009 C2015 1.429 . S
C2010 C2002 1.574 . S
C2010 H2005 0.949 . S
C2010 C2016 1.368 . S
C2011 C1995 1.349 . S
C2011 H2003 0.950 . S
C2011 C2009 1.327 . S
C2012 C2000 1.349 . S
C2012 H2006 0.950 . S
C2012 C2013 1.327 . S
C2013 H2007 0.950 . S
C2013 C2012 1.327 . S
C2013 C2017 1.429 . S
C2014 C1997 1.574 . S
C2014 H2008 0.949 . S
C2014 C2018 1.368 . S
C2015 C1996 1.429 . S
C2015 C2009 1.429 . S
C2015 C2016 1.523 . S
C2016 C1997 1.368 . S
C2016 C2010 1.368 . S
C2016 C2015 1.523 . S
C2017 C2001 1.429 . S
C2017 C2013 1.429 . S
C2017 C2018 1.523 . S
C2018 C2002 1.368 . S
C2018 C2014 1.368 . S
C2018 C2017 1.523 . S
H2019 C1994 0.950 . S
H2020 C1996 0.950 . S
H2021 C1997 0.949 . S
H2022 C1999 0.950 . S
H2023 C2001 0.950 . S
C2024 C2025 1.349 . S
C2024 C2026 1.327 . S
C2024 H2049 0.950 . S
C2025 C2024 1.349 . S
C2025 C2041 1.349 . S
C2026 C2024 1.327 . S
C2026 C2045 1.429 . S
C2026 H2050 0.950 . S
C2027 C2044 1.574 . S
C2027 C2046 1.368 . S
C2027 H2051 0.949 . S
H2028 C2032 0.949 . S
C2029 C2030 1.349 . S
C2029 C2031 1.327 . S
C2029 H2052 0.950 . S
C2030 C2029 1.349 . S
C2030 C2042 1.363 . S
C2031 C2029 1.327 . S
C2031 C2047 1.429 . S
C2031 H2053 0.950 . S
C2032 H2028 0.949 . S
C2032 C2040 1.574 . S
C2032 C2048 1.368 . S
H2033 C2041 0.950 . S
H2034 C2039 0.950 . S
H2035 C2040 0.949 . S
H2036 C2042 0.933 1_655 S
H2037 C2043 0.950 . S
H2038 C2044 0.949 . S
C2039 H2034 0.950 . S
C2039 C2041 1.327 . S
C2039 C2045 1.429 . S
C2040 C2032 1.574 . S
C2040 H2035 0.949 . S
C2040 C2046 1.368 . S
C2041 C2025 1.349 . S
C2041 H2033 0.950 . S
C2041 C2039 1.327 . S
C2042 C2030 1.363 . S
C2042 H2036 0.933 1_455 S
C2042 C2043 1.326 . S
C2043 H2037 0.950 . S
C2043 C2042 1.326 . S
C2043 C2047 1.429 . S
C2044 C2027 1.574 . S
C2044 H2038 0.949 . S
C2044 C2048 1.368 . S
C2045 C2026 1.429 . S
C2045 C2039 1.429 . S
C2045 C2046 1.523 . S
C2046 C2027 1.368 . S
C2046 C2040 1.368 . S
C2046 C2045 1.523 . S
C2047 C2031 1.429 . S
C2047 C2043 1.429 . S
C2047 C2048 1.523 . S
C2048 C2032 1.368 . S
C2048 C2044 1.368 . S
C2048 C2047 1.523 . S
H2049 C2024 0.950 . S
H2050 C2026 0.950 . S
H2051 C2027 0.949 . S
H2052 C2029 0.950 . S
H2053 C2031 0.950 . S
C2054 C2055 1.349 . S
C2054 C2056 1.327 . S
C2054 H2079 0.950 . S
C2055 C2054 1.349 . S
C2055 C2071 1.349 . S
C2056 C2054 1.327 . S
C2056 C2075 1.429 . S
C2056 H2080 0.950 . S
C2057 C2074 1.574 . S
C2057 C2076 1.368 . S
C2057 H2081 0.949 . S
H2058 C2062 0.949 . S
C2059 C2060 1.349 . S
C2059 C2061 1.327 . S
C2059 H2082 0.950 . S
C2060 C2059 1.349 . S
C2060 C2072 1.349 . S
C2061 C2059 1.327 . S
C2061 C2077 1.429 . S
C2061 H2083 0.950 . S
C2062 H2058 0.949 . S
C2062 C2070 1.574 . S
C2062 C2078 1.368 . S
H2063 C2071 0.950 . S
H2064 C2069 0.950 . S
H2065 C2070 0.949 . S
H2066 C2072 0.950 . S
H2067 C2073 0.950 . S
H2068 C2074 0.949 . S
C2069 H2064 0.950 . S
C2069 C2071 1.327 . S
C2069 C2075 1.429 . S
C2070 C2062 1.574 . S
C2070 H2065 0.949 . S
C2070 C2076 1.368 . S
C2071 C2055 1.349 . S
C2071 H2063 0.950 . S
C2071 C2069 1.327 . S
C2072 C2060 1.349 . S
C2072 H2066 0.950 . S
C2072 C2073 1.327 . S
C2073 H2067 0.950 . S
C2073 C2072 1.327 . S
C2073 C2077 1.429 . S
C2074 C2057 1.574 . S
C2074 H2068 0.949 . S
C2074 C2078 1.368 . S
C2075 C2056 1.429 . S
C2075 C2069 1.429 . S
C2075 C2076 1.523 . S
C2076 C2057 1.368 . S
C2076 C2070 1.368 . S
C2076 C2075 1.523 . S
C2077 C2061 1.429 . S
C2077 C2073 1.429 . S
C2077 C2078 1.523 . S
C2078 C2062 1.368 . S
C2078 C2074 1.368 . S
C2078 C2077 1.523 . S
H2079 C2054 0.950 . S
H2080 C2056 0.950 . S
H2081 C2057 0.949 . S
H2082 C2059 0.950 . S
H2083 C2061 0.950 . S
C2084 C2085 1.349 . S
C2084 C2086 1.327 . S
C2084 H2109 0.950 . S
C2085 C2084 1.349 . S
C2085 C2101 1.349 . S
C2086 C2084 1.327 . S
C2086 C2105 1.429 . S
C2086 H2110 0.950 . S
C2087 C2104 1.574 . S
C2087 C2106 1.368 . S
C2087 H2111 0.949 . S
H2088 C2092 0.949 . S
C2089 C2090 1.323 1_556 S
C2089 C2091 1.327 . S
C2089 H2112 0.950 . S
C2090 C2089 1.323 1_554 S
C2090 C2102 1.355 1_554 S
C2091 C2089 1.327 . S
C2091 C2107 1.429 . S
C2091 H2113 0.950 . S
C2092 H2088 0.949 . S
C2092 C2100 1.574 . S
C2092 C2108 1.368 . S
H2093 C2101 0.950 . S
H2094 C2099 0.950 . S
H2095 C2100 0.949 . S
H2096 C2102 0.938 1_554 S
H2097 C2103 0.950 . S
H2098 C2104 0.949 . S
C2099 H2094 0.950 . S
C2099 C2101 1.327 . S
C2099 C2105 1.429 . S
C2100 C2092 1.574 . S
C2100 H2095 0.949 . S
C2100 C2106 1.368 . S
C2101 C2085 1.349 . S
C2101 H2093 0.950 . S
C2101 C2099 1.327 . S
C2102 C2090 1.355 1_556 S
C2102 H2096 0.938 1_556 S
C2102 C2103 1.337 . S
C2103 H2097 0.950 . S
C2103 C2102 1.337 . S
C2103 C2107 1.429 . S
C2104 C2087 1.574 . S
C2104 H2098 0.949 . S
C2104 C2108 1.368 . S
C2105 C2086 1.429 . S
C2105 C2099 1.429 . S
C2105 C2106 1.523 . S
C2106 C2087 1.368 . S
C2106 C2100 1.368 . S
C2106 C2105 1.523 . S
C2107 C2091 1.429 . S
C2107 C2103 1.429 . S
C2107 C2108 1.523 . S
C2108 C2092 1.368 . S
C2108 C2104 1.368 . S
C2108 C2107 1.523 . S
H2109 C2084 0.950 . S
H2110 C2086 0.950 . S
H2111 C2087 0.949 . S
H2112 C2089 0.950 . S
H2113 C2091 0.950 . S
C2114 C2115 1.349 . S
C2114 C2116 1.327 . S
C2114 H2139 0.950 . S
C2115 C2114 1.349 . S
C2115 C2131 1.349 . S
C2116 C2114 1.327 . S
C2116 C2135 1.429 . S
C2116 H2140 0.950 . S
C2117 C2134 1.574 . S
C2117 C2136 1.368 . S
C2117 H2141 0.949 . S
H2118 C2122 0.949 . S
C2119 C2120 1.349 . S
C2119 C2121 1.327 . S
C2119 H2142 0.950 . S
C2120 C2119 1.349 . S
C2120 C2132 1.349 . S
C2121 C2119 1.327 . S
C2121 C2137 1.429 . S
C2121 H2143 0.950 . S
C2122 H2118 0.949 . S
C2122 C2130 1.574 . S
C2122 C2138 1.368 . S
H2123 C2131 0.950 . S
H2124 C2129 0.950 . S
H2125 C2130 0.949 . S
H2126 C2132 0.950 . S
H2127 C2133 0.950 . S
H2128 C2134 0.949 . S
C2129 H2124 0.950 . S
C2129 C2131 1.327 . S
C2129 C2135 1.429 . S
C2130 C2122 1.574 . S
C2130 H2125 0.949 . S
C2130 C2136 1.368 . S
C2131 C2115 1.349 . S
C2131 H2123 0.950 . S
C2131 C2129 1.327 . S
C2132 C2120 1.349 . S
C2132 H2126 0.950 . S
C2132 C2133 1.327 . S
C2133 H2127 0.950 . S
C2133 C2132 1.327 . S
C2133 C2137 1.429 . S
C2134 C2117 1.574 . S
C2134 H2128 0.949 . S
C2134 C2138 1.368 . S
C2135 C2116 1.429 . S
C2135 C2129 1.429 . S
C2135 C2136 1.523 . S
C2136 C2117 1.368 . S
C2136 C2130 1.368 . S
C2136 C2135 1.523 . S
C2137 C2121 1.429 . S
C2137 C2133 1.429 . S
C2137 C2138 1.523 . S
C2138 C2122 1.368 . S
C2138 C2134 1.368 . S
C2138 C2137 1.523 . S
H2139 C2114 0.950 . S
H2140 C2116 0.950 . S
H2141 C2117 0.949 . S
H2142 C2119 0.950 . S
H2143 C2121 0.950 . S
C2144 C2145 1.349 1_565 S
C2144 C2146 1.327 . S
C2144 H2169 0.950 . S
C2145 C2144 1.349 1_545 S
C2145 C2161 1.349 . S
C2146 C2144 1.327 . S
C2146 C2165 1.468 . S
C2146 H2170 0.950 . S
C2147 C2164 1.574 . S
C2147 C2166 1.368 1_545 S
C2147 H2171 0.949 . S
H2148 C2152 0.949 . S
C2149 C2150 1.349 1_545 S
C2149 C2151 1.327 . S
C2149 H2172 0.950 . S
C2150 C2149 1.349 1_565 S
C2150 C2162 1.349 . S
C2151 C2149 1.327 . S
C2151 C2167 1.429 1_545 S
C2151 H2173 0.950 . S
C2152 H2148 0.949 . S
C2152 C2160 1.574 . S
C2152 C2168 1.368 . S
H2153 C2161 0.950 . S
H2154 C2159 0.950 . S
H2155 C2160 0.949 . S
H2156 C2162 0.950 . S
H2157 C2163 0.950 . S
H2158 C2164 0.949 . S
C2159 H2154 0.950 . S
C2159 C2161 1.327 . S
C2159 C2165 1.388 1_545 S
C2160 C2152 1.574 . S
C2160 H2155 0.949 . S
C2160 C2166 1.368 . S
C2161 C2145 1.349 . S
C2161 H2153 0.950 . S
C2161 C2159 1.327 . S
C2162 C2150 1.349 . S
C2162 H2156 0.950 . S
C2162 C2163 1.327 . S
C2163 H2157 0.950 . S
C2163 C2162 1.327 . S
C2163 C2167 1.429 . S
C2164 C2147 1.574 . S
C2164 H2158 0.949 . S
C2164 C2168 1.368 1_545 S
C2165 C2146 1.468 . S
C2165 C2159 1.388 1_565 S
C2165 C2166 1.526 . S
C2166 C2147 1.368 1_565 S
C2166 C2160 1.368 . S
C2166 C2165 1.526 . S
C2167 C2151 1.429 1_565 S
C2167 C2163 1.429 . S
C2167 C2168 1.523 . S
C2168 C2152 1.368 . S
C2168 C2164 1.368 1_565 S
C2168 C2167 1.523 . S
H2169 C2144 0.950 . S
H2170 C2146 0.950 . S
H2171 C2147 0.949 . S
H2172 C2149 0.950 . S
H2173 C2151 0.950 . S
C2174 C2175 1.349 . S
C2174 C2176 1.327 . S
C2174 H2199 0.950 . S
C2175 C2174 1.349 . S
C2175 C2191 1.349 . S
C2176 C2174 1.327 . S
C2176 C2195 1.429 . S
C2176 H2200 0.950 . S
C2177 C2194 1.574 . S
C2177 C2196 1.368 . S
C2177 H2201 0.949 . S
H2178 C2182 0.949 . S
C2179 C2180 1.349 . S
C2179 C2181 1.327 . S
C2179 H2202 0.950 . S
C2180 C2179 1.349 . S
C2180 C2192 1.349 . S
C2181 C2179 1.327 . S
C2181 C2197 1.429 . S
C2181 H2203 0.950 . S
C2182 H2178 0.949 . S
C2182 C2190 1.574 . S
C2182 C2198 1.368 . S
H2183 C2191 0.950 . S
H2184 C2189 0.950 . S
H2185 C2190 0.949 . S
H2186 C2192 0.950 . S
H2187 C2193 0.950 . S
H2188 C2194 0.949 . S
C2189 H2184 0.950 . S
C2189 C2191 1.327 . S
C2189 C2195 1.429 . S
C2190 C2182 1.574 . S
C2190 H2185 0.949 . S
C2190 C2196 1.368 . S
C2191 C2175 1.349 . S
C2191 H2183 0.950 . S
C2191 C2189 1.327 . S
C2192 C2180 1.349 . S
C2192 H2186 0.950 . S
C2192 C2193 1.327 . S
C2193 H2187 0.950 . S
C2193 C2192 1.327 . S
C2193 C2197 1.429 . S
C2194 C2177 1.574 . S
C2194 H2188 0.949 . S
C2194 C2198 1.368 . S
C2195 C2176 1.429 . S
C2195 C2189 1.429 . S
C2195 C2196 1.523 . S
C2196 C2177 1.368 . S
C2196 C2190 1.368 . S
C2196 C2195 1.523 . S
C2197 C2181 1.429 . S
C2197 C2193 1.429 . S
C2197 C2198 1.523 . S
C2198 C2182 1.368 . S
C2198 C2194 1.368 . S
C2198 C2197 1.523 . S
H2199 C2174 0.950 . S
H2200 C2176 0.950 . S
H2201 C2177 0.949 . S
H2202 C2179 0.950 . S
H2203 C2181 0.950 . S
C2204 C2205 1.349 . S
C2204 C2206 1.327 . S
C2204 H2229 0.950 . S
C2205 C2204 1.349 . S
C2205 C2221 1.349 . S
C2206 C2204 1.327 . S
C2206 C2225 1.429 . S
C2206 H2230 0.950 . S
C2207 C2224 1.574 . S
C2207 C2226 1.368 . S
C2207 H2231 0.949 . S
H2208 C2212 0.949 . S
C2209 C2210 1.349 . S
C2209 C2211 1.327 . S
C2209 H2232 0.952 . S
C2210 C2209 1.349 . S
C2210 C2222 1.349 . S
C2211 C2209 1.327 . S
C2211 C2227 1.429 . S
C2211 H2233 0.962 . S
C2212 H2208 0.949 . S
C2212 C2220 1.574 . S
C2212 C2228 1.368 . S
H2213 C2221 0.950 . S
H2214 C2219 0.950 . S
H2215 C2220 0.949 . S
H2216 C2222 0.950 . S
H2217 C2223 0.950 . S
H2218 C2224 0.992 . S
C2219 H2214 0.950 . S
C2219 C2221 1.327 . S
C2219 C2225 1.429 . S
C2220 C2212 1.574 . S
C2220 H2215 0.949 . S
C2220 C2226 1.368 . S
C2221 C2205 1.349 . S
C2221 H2213 0.950 . S
C2221 C2219 1.327 . S
C2222 C2210 1.349 . S
C2222 H2216 0.950 . S
C2222 C2223 1.327 . S
C2223 H2217 0.950 . S
C2223 C2222 1.327 . S
C2223 C2227 1.429 . S
C2224 C2207 1.574 . S
C2224 H2218 0.992 . S
C2224 C2228 1.368 . S
C2225 C2206 1.429 . S
C2225 C2219 1.429 . S
C2225 C2226 1.523 . S
C2226 C2207 1.368 . S
C2226 C2220 1.368 . S
C2226 C2225 1.523 . S
C2227 C2211 1.429 . S
C2227 C2223 1.429 . S
C2227 C2228 1.523 . S
C2228 C2212 1.368 . S
C2228 C2224 1.368 . S
C2228 C2227 1.523 . S
H2229 C2204 0.950 . S
H2230 C2206 0.950 . S
H2231 C2207 0.949 . S
H2232 C2209 0.952 . S
H2233 C2211 0.962 . S
C2234 C2235 1.349 . S
C2234 C2236 1.327 . S
C2234 H2259 0.950 . S
C2235 C2234 1.349 . S
C2235 C2251 1.349 . S
C2236 C2234 1.327 . S
C2236 C2255 1.429 . S
C2236 H2260 0.950 . S
C2237 C2254 1.574 . S
C2237 C2256 1.368 . S
C2237 H2261 0.949 . S
H2238 C2242 0.949 . S
C2239 C2240 1.349 . S
C2239 C2241 1.327 . S
C2239 H2262 0.950 . S
C2240 C2239 1.349 . S
C2240 C2252 1.349 . S
C2241 C2239 1.327 . S
C2241 C2257 1.429 . S
C2241 H2263 0.950 . S
C2242 H2238 0.949 . S
C2242 C2250 1.574 . S
C2242 C2258 1.368 . S
H2243 C2251 0.950 . S
H2244 C2249 0.950 . S
H2245 C2250 0.949 . S
H2246 C2252 0.950 . S
H2247 C2253 0.950 . S
H2248 C2254 0.949 . S
C2249 H2244 0.950 . S
C2249 C2251 1.327 . S
C2249 C2255 1.429 . S
C2250 C2242 1.574 . S
C2250 H2245 0.949 . S
C2250 C2256 1.368 . S
C2251 C2235 1.349 . S
C2251 H2243 0.950 . S
C2251 C2249 1.327 . S
C2252 C2240 1.349 . S
C2252 H2246 0.950 . S
C2252 C2253 1.327 . S
C2253 H2247 0.950 . S
C2253 C2252 1.327 . S
C2253 C2257 1.429 . S
C2254 C2237 1.574 . S
C2254 H2248 0.949 . S
C2254 C2258 1.368 . S
C2255 C2236 1.429 . S
C2255 C2249 1.429 . S
C2255 C2256 1.523 . S
C2256 C2237 1.368 . S
C2256 C2250 1.368 . S
C2256 C2255 1.523 . S
C2257 C2241 1.429 . S
C2257 C2253 1.429 . S
C2257 C2258 1.523 . S
C2258 C2242 1.368 . S
C2258 C2254 1.368 . S
C2258 C2257 1.523 . S
H2259 C2234 0.950 . S
H2260 C2236 0.950 . S
H2261 C2237 0.949 . S
H2262 C2239 0.950 . S
H2263 C2241 0.950 . S
C2264 C2265 1.354 . S
C2264 C2266 1.327 . S
C2264 H2289 0.950 . S
C2265 C2264 1.354 . S
C2265 C2281 1.342 1_565 S
C2266 C2264 1.327 . S
C2266 C2285 1.429 1_565 S
C2266 H2290 0.950 . S
C2267 C2284 1.574 . S
C2267 C2286 1.368 . S
C2267 H2291 0.949 . S
H2268 C2272 0.949 . S
C2269 C2270 1.349 . S
C2269 C2271 1.327 . S
C2269 H2292 0.950 . S
C2270 C2269 1.349 . S
C2270 C2282 1.349 1_545 S
C2271 C2269 1.327 . S
C2271 C2287 1.429 . S
C2271 H2293 0.950 . S
C2272 H2268 0.949 . S
C2272 C2280 1.574 . S
C2272 C2288 1.368 1_565 S
H2273 C2281 0.950 . S
H2274 C2279 0.950 . S
H2275 C2280 0.949 . S
H2276 C2282 0.950 . S
H2277 C2283 0.950 . S
H2278 C2284 0.949 . S
C2279 H2274 0.950 . S
C2279 C2281 1.327 . S
C2279 C2285 1.429 . S
C2280 C2272 1.574 . S
C2280 H2275 0.949 . S
C2280 C2286 1.368 1_565 S
C2281 C2265 1.342 1_545 S
C2281 H2273 0.950 . S
C2281 C2279 1.327 . S
C2282 C2270 1.349 1_565 S
C2282 H2276 0.950 . S
C2282 C2283 1.327 . S
C2283 H2277 0.950 . S
C2283 C2282 1.327 . S
C2283 C2287 1.429 1_565 S
C2284 C2267 1.574 . S
C2284 H2278 0.949 . S
C2284 C2288 1.368 . S
C2285 C2266 1.429 1_545 S
C2285 C2279 1.429 . S
C2285 C2286 1.523 . S
C2286 C2267 1.368 . S
C2286 C2280 1.368 1_545 S
C2286 C2285 1.523 . S
C2287 C2271 1.429 . S
C2287 C2283 1.429 1_545 S
C2287 C2288 1.523 . S
C2288 C2272 1.368 1_545 S
C2288 C2284 1.368 . S
C2288 C2287 1.523 . S
H2289 C2264 0.950 . S
H2290 C2266 0.950 . S
H2291 C2267 0.949 . S
H2292 C2269 0.950 . S
H2293 C2271 0.950 . S
C2294 C2295 1.349 . S
C2294 C2296 1.327 . S
C2294 H2319 0.950 . S
C2295 C2294 1.349 . S
C2295 C2311 1.349 . S
C2296 C2294 1.327 . S
C2296 C2315 1.429 . S
C2296 H2320 0.950 . S
C2297 C2314 1.574 . S
C2297 C2316 1.368 . S
C2297 H2321 0.949 . S
H2298 C2302 0.949 . S
C2299 C2300 1.349 . S
C2299 C2301 1.327 . S
C2299 H2322 0.950 . S
C2300 C2299 1.349 . S
C2300 C2312 1.349 . S
C2301 C2299 1.327 . S
C2301 C2317 1.429 . S
C2301 H2323 0.950 . S
C2302 H2298 0.949 . S
C2302 C2310 1.574 . S
C2302 C2318 1.368 . S
H2303 C2311 0.950 . S
H2304 C2309 0.950 . S
H2305 C2310 0.949 . S
H2306 C2312 0.950 . S
H2307 C2313 0.950 . S
H2308 C2314 0.949 . S
C2309 H2304 0.950 . S
C2309 C2311 1.327 . S
C2309 C2315 1.429 . S
C2310 C2302 1.574 . S
C2310 H2305 0.949 . S
C2310 C2316 1.368 . S
C2311 C2295 1.349 . S
C2311 H2303 0.950 . S
C2311 C2309 1.327 . S
C2312 C2300 1.349 . S
C2312 H2306 0.950 . S
C2312 C2313 1.327 . S
C2313 H2307 0.950 . S
C2313 C2312 1.327 . S
C2313 C2317 1.429 . S
C2314 C2297 1.574 . S
C2314 H2308 0.949 . S
C2314 C2318 1.368 . S
C2315 C2296 1.429 . S
C2315 C2309 1.429 . S
C2315 C2316 1.523 . S
C2316 C2297 1.368 . S
C2316 C2310 1.368 . S
C2316 C2315 1.523 . S
C2317 C2301 1.429 . S
C2317 C2313 1.429 . S
C2317 C2318 1.523 . S
C2318 C2302 1.368 . S
C2318 C2314 1.368 . S
C2318 C2317 1.523 . S
H2319 C2294 0.950 . S
H2320 C2296 0.950 . S
H2321 C2297 0.949 . S
H2322 C2299 0.950 . S
H2323 C2301 0.950 . S
C2324 C2325 1.349 . S
C2324 C2326 1.335 . S
C2324 H2349 0.950 1_545 S
C2325 C2324 1.349 . S
C2325 C2341 1.349 . S
C2326 C2324 1.335 . S
C2326 C2345 1.459 . S
C2326 H2350 0.912 1_545 S
C2327 C2344 1.574 . S
C2327 C2346 1.368 . S
C2327 H2351 0.949 . S
H2328 C2332 0.949 . S
C2329 C2330 1.376 . S
C2329 C2331 1.327 . S
C2329 H2352 0.950 . S
C2330 C2329 1.376 . S
C2330 C2342 1.327 1_545 S
C2331 C2329 1.327 . S
C2331 C2347 1.429 . S
C2331 H2353 0.950 . S
C2332 H2328 0.949 . S
C2332 C2340 1.574 . S
C2332 C2348 1.368 1_565 S
H2333 C2341 0.950 . S
H2334 C2339 0.950 . S
H2335 C2340 0.949 . S
H2336 C2342 0.950 . S
H2337 C2343 0.950 . S
H2338 C2344 0.949 . S
C2339 H2334 0.950 . S
C2339 C2341 1.327 . S
C2339 C2345 1.429 . S
C2340 C2332 1.574 . S
C2340 H2335 0.949 . S
C2340 C2346 1.368 1_565 S
C2341 C2325 1.349 . S
C2341 H2333 0.950 . S
C2341 C2339 1.327 . S
C2342 C2330 1.327 1_565 S
C2342 H2336 0.950 . S
C2342 C2343 1.327 . S
C2343 H2337 0.950 . S
C2343 C2342 1.327 . S
C2343 C2347 1.429 1_565 S
C2344 C2327 1.574 . S
C2344 H2338 0.949 . S
C2344 C2348 1.368 . S
C2345 C2326 1.459 . S
C2345 C2339 1.429 . S
C2345 C2346 1.523 . S
C2346 C2327 1.368 . S
C2346 C2340 1.368 1_545 S
C2346 C2345 1.523 . S
C2347 C2331 1.429 . S
C2347 C2343 1.429 1_545 S
C2347 C2348 1.523 . S
C2348 C2332 1.368 1_545 S
C2348 C2344 1.368 . S
C2348 C2347 1.523 . S
H2349 C2324 0.950 1_565 S
H2350 C2326 0.912 1_565 S
H2351 C2327 0.949 . S
H2352 C2329 0.950 . S
H2353 C2331 0.950 . S
C2354 C2355 1.349 . S
C2354 C2356 1.327 . S
C2354 H2379 0.950 . S
C2355 C2354 1.349 . S
C2355 C2371 1.349 . S
C2356 C2354 1.327 . S
C2356 C2375 1.429 . S
C2356 H2380 0.950 . S
C2357 C2374 1.574 . S
C2357 C2376 1.368 . S
C2357 H2381 0.949 . S
H2358 C2362 0.949 . S
C2359 C2360 1.349 . S
C2359 C2361 1.327 . S
C2359 H2382 0.950 . S
C2360 C2359 1.349 . S
C2360 C2372 1.349 . S
C2361 C2359 1.327 . S
C2361 C2377 1.429 . S
C2361 H2383 0.950 . S
C2362 H2358 0.949 . S
C2362 C2370 1.574 . S
C2362 C2378 1.368 . S
H2363 C2371 0.950 . S
H2364 C2369 0.950 . S
H2365 C2370 0.949 . S
H2366 C2372 0.950 . S
H2367 C2373 0.950 . S
H2368 C2374 0.949 . S
C2369 H2364 0.950 . S
C2369 C2371 1.327 . S
C2369 C2375 1.429 . S
C2370 C2362 1.574 . S
C2370 H2365 0.949 . S
C2370 C2376 1.368 . S
C2371 C2355 1.349 . S
C2371 H2363 0.950 . S
C2371 C2369 1.327 . S
C2372 C2360 1.349 . S
C2372 H2366 0.950 . S
C2372 C2373 1.327 . S
C2373 H2367 0.950 . S
C2373 C2372 1.327 . S
C2373 C2377 1.429 . S
C2374 C2357 1.574 . S
C2374 H2368 0.949 . S
C2374 C2378 1.368 . S
C2375 C2356 1.429 . S
C2375 C2369 1.429 . S
C2375 C2376 1.523 . S
C2376 C2357 1.368 . S
C2376 C2370 1.368 . S
C2376 C2375 1.523 . S
C2377 C2361 1.429 . S
C2377 C2373 1.429 . S
C2377 C2378 1.523 . S
C2378 C2362 1.368 . S
C2378 C2374 1.368 . S
C2378 C2377 1.523 . S
H2379 C2354 0.950 . S
H2380 C2356 0.950 . S
H2381 C2357 0.949 . S
H2382 C2359 0.950 . S
H2383 C2361 0.950 . S
C2384 C2385 1.349 . S
C2384 C2386 1.327 . S
C2384 H2409 0.950 . S
C2385 C2384 1.349 . S
C2385 C2401 1.349 . S
C2386 C2384 1.327 . S
C2386 C2405 1.429 . S
C2386 H2410 0.950 1_554 S
C2387 C2404 1.574 . S
C2387 C2406 1.368 . S
C2387 H2411 0.949 . S
H2388 C2392 0.949 . S
C2389 C2390 1.339 1_554 S
C2389 C2391 1.327 . S
C2389 H2412 0.950 . S
C2390 C2389 1.339 1_556 S
C2390 C2402 1.357 . S
C2391 C2389 1.327 . S
C2391 C2407 1.429 . S
C2391 H2413 0.950 . S
C2392 H2388 0.949 . S
C2392 C2400 1.576 . S
C2392 C2408 1.368 1_556 S
H2393 C2401 0.950 . S
H2394 C2399 0.950 . S
H2395 C2400 0.956 . S
H2396 C2402 0.950 . S
H2397 C2403 0.950 . S
H2398 C2404 0.949 . S
C2399 H2394 0.950 . S
C2399 C2401 1.327 . S
C2399 C2405 1.429 . S
C2400 C2392 1.576 . S
C2400 H2395 0.956 . S
C2400 C2406 1.358 1_556 S
C2401 C2385 1.349 . S
C2401 H2393 0.950 . S
C2401 C2399 1.327 . S
C2402 C2390 1.357 . S
C2402 H2396 0.950 . S
C2402 C2403 1.327 . S
C2403 H2397 0.950 . S
C2403 C2402 1.327 . S
C2403 C2407 1.429 1_556 S
C2404 C2387 1.574 . S
C2404 H2398 0.949 . S
C2404 C2408 1.368 . S
C2405 C2386 1.429 . S
C2405 C2399 1.429 . S
C2405 C2406 1.523 . S
C2406 C2387 1.368 . S
C2406 C2400 1.358 1_554 S
C2406 C2405 1.523 . S
C2407 C2391 1.429 . S
C2407 C2403 1.429 1_554 S
C2407 C2408 1.523 . S
C2408 C2392 1.368 1_554 S
C2408 C2404 1.368 . S
C2408 C2407 1.523 . S
H2409 C2384 0.950 . S
H2410 C2386 0.950 1_556 S
H2411 C2387 0.949 . S
H2412 C2389 0.950 . S
H2413 C2391 0.950 . S
C2414 C2415 1.349 . S
C2414 C2416 1.327 . S
C2414 H2439 0.950 . S
C2415 C2414 1.349 . S
C2415 C2431 1.349 . S
C2416 C2414 1.327 . S
C2416 C2435 1.429 . S
C2416 H2440 0.950 . S
C2417 C2434 1.574 . S
C2417 C2436 1.368 . S
C2417 H2441 0.949 . S
H2418 C2422 0.949 . S
C2419 C2420 1.349 . S
C2419 C2421 1.327 . S
C2419 H2442 0.950 . S
C2420 C2419 1.349 . S
C2420 C2432 1.349 . S
C2421 C2419 1.327 . S
C2421 C2437 1.429 . S
C2421 H2443 0.950 . S
C2422 H2418 0.949 . S
C2422 C2430 1.574 . S
C2422 C2438 1.368 . S
H2423 C2431 0.950 . S
H2424 C2429 0.950 . S
H2425 C2430 0.949 . S
H2426 C2432 0.950 . S
H2427 C2433 0.950 . S
H2428 C2434 0.949 . S
C2429 H2424 0.950 . S
C2429 C2431 1.327 . S
C2429 C2435 1.429 . S
C2430 C2422 1.574 . S
C2430 H2425 0.949 . S
C2430 C2436 1.368 . S
C2431 C2415 1.349 . S
C2431 H2423 0.950 . S
C2431 C2429 1.327 . S
C2432 C2420 1.349 . S
C2432 H2426 0.950 . S
C2432 C2433 1.327 . S
C2433 H2427 0.950 . S
C2433 C2432 1.327 . S
C2433 C2437 1.429 . S
C2434 C2417 1.574 . S
C2434 H2428 0.949 . S
C2434 C2438 1.368 . S
C2435 C2416 1.429 . S
C2435 C2429 1.429 . S
C2435 C2436 1.523 . S
C2436 C2417 1.368 . S
C2436 C2430 1.368 . S
C2436 C2435 1.523 . S
C2437 C2421 1.429 . S
C2437 C2433 1.429 . S
C2437 C2438 1.523 . S
C2438 C2422 1.368 . S
C2438 C2434 1.368 . S
C2438 C2437 1.523 . S
H2439 C2414 0.950 . S
H2440 C2416 0.950 . S
H2441 C2417 0.949 . S
H2442 C2419 0.950 . S
H2443 C2421 0.950 . S
C2444 C2445 1.349 . S
C2444 C2446 1.327 . S
C2444 H2469 0.950 . S
C2445 C2444 1.349 . S
C2445 C2461 1.349 . S
C2446 C2444 1.327 . S
C2446 C2465 1.429 . S
C2446 H2470 0.950 . S
C2447 C2464 1.574 . S
C2447 C2466 1.368 . S
C2447 H2471 0.949 . S
H2448 C2452 0.949 . S
C2449 C2450 1.349 . S
C2449 C2451 1.327 . S
C2449 H2472 0.950 . S
C2450 C2449 1.349 . S
C2450 C2462 1.349 . S
C2451 C2449 1.327 . S
C2451 C2467 1.429 . S
C2451 H2473 0.950 . S
C2452 H2448 0.949 . S
C2452 C2460 1.574 . S
C2452 C2468 1.368 . S
H2453 C2461 0.950 . S
H2454 C2459 0.950 . S
H2455 C2460 0.949 . S
H2456 C2462 0.950 . S
H2457 C2463 0.950 . S
H2458 C2464 0.949 . S
C2459 H2454 0.950 . S
C2459 C2461 1.327 . S
C2459 C2465 1.429 . S
C2460 C2452 1.574 . S
C2460 H2455 0.949 . S
C2460 C2466 1.368 . S
C2461 C2445 1.349 . S
C2461 H2453 0.950 . S
C2461 C2459 1.327 . S
C2462 C2450 1.349 . S
C2462 H2456 0.950 . S
C2462 C2463 1.327 . S
C2463 H2457 0.950 . S
C2463 C2462 1.327 . S
C2463 C2467 1.429 . S
C2464 C2447 1.574 . S
C2464 H2458 0.949 . S
C2464 C2468 1.368 . S
C2465 C2446 1.429 . S
C2465 C2459 1.429 . S
C2465 C2466 1.523 . S
C2466 C2447 1.368 . S
C2466 C2460 1.368 . S
C2466 C2465 1.523 . S
C2467 C2451 1.429 . S
C2467 C2463 1.429 . S
C2467 C2468 1.523 . S
C2468 C2452 1.368 . S
C2468 C2464 1.368 . S
C2468 C2467 1.523 . S
H2469 C2444 0.950 . S
H2470 C2446 0.950 . S
H2471 C2447 0.949 . S
H2472 C2449 0.950 . S
H2473 C2451 0.950 . S
C2474 C2475 1.349 . S
C2474 C2476 1.327 . S
C2474 H2499 0.950 . S
C2475 C2474 1.349 . S
C2475 C2491 1.349 . S
C2476 C2474 1.327 . S
C2476 C2495 1.429 . S
C2476 H2500 0.950 . S
C2477 C2494 1.574 . S
C2477 C2496 1.368 . S
C2477 H2501 0.949 . S
H2478 C2482 0.949 . S
C2479 C2480 1.349 . S
C2479 C2481 1.327 . S
C2479 H2502 0.950 . S
C2480 C2479 1.349 . S
C2480 C2492 1.349 . S
C2481 C2479 1.327 . S
C2481 C2497 1.429 . S
C2481 H2503 0.950 . S
C2482 H2478 0.949 . S
C2482 C2490 1.574 . S
C2482 C2498 1.368 . S
H2483 C2491 0.950 . S
H2484 C2489 0.950 . S
H2485 C2490 0.949 . S
H2486 C2492 0.950 . S
H2487 C2493 0.950 . S
H2488 C2494 0.949 . S
C2489 H2484 0.950 . S
C2489 C2491 1.327 . S
C2489 C2495 1.429 . S
C2490 C2482 1.574 . S
C2490 H2485 0.949 . S
C2490 C2496 1.368 . S
C2491 C2475 1.349 . S
C2491 H2483 0.950 . S
C2491 C2489 1.327 . S
C2492 C2480 1.349 . S
C2492 H2486 0.950 . S
C2492 C2493 1.327 . S
C2493 H2487 0.950 . S
C2493 C2492 1.327 . S
C2493 C2497 1.429 . S
C2494 C2477 1.574 . S
C2494 H2488 0.949 . S
C2494 C2498 1.368 . S
C2495 C2476 1.429 . S
C2495 C2489 1.429 . S
C2495 C2496 1.523 . S
C2496 C2477 1.368 . S
C2496 C2490 1.368 . S
C2496 C2495 1.523 . S
C2497 C2481 1.429 . S
C2497 C2493 1.429 . S
C2497 C2498 1.523 . S
C2498 C2482 1.368 . S
C2498 C2494 1.368 . S
C2498 C2497 1.523 . S
H2499 C2474 0.950 . S
H2500 C2476 0.950 . S
H2501 C2477 0.949 . S
H2502 C2479 0.950 . S
H2503 C2481 0.950 . S
C2504 C2505 1.349 . S
C2504 C2506 1.327 . S
C2504 H2529 0.950 . S
C2505 C2504 1.349 . S
C2505 C2521 1.349 . S
C2506 C2504 1.327 . S
C2506 C2525 1.429 . S
C2506 H2530 0.950 . S
C2507 C2524 1.574 . S
C2507 C2526 1.368 . S
C2507 H2531 0.949 . S
H2508 C2512 0.949 . S
C2509 C2510 1.349 . S
C2509 C2511 1.327 . S
C2509 H2532 0.950 . S
C2510 C2509 1.349 . S
C2510 C2522 1.349 . S
C2511 C2509 1.327 . S
C2511 C2527 1.429 . S
C2511 H2533 0.950 . S
C2512 H2508 0.949 . S
C2512 C2520 1.574 . S
C2512 C2528 1.368 . S
H2513 C2521 0.950 . S
H2514 C2519 0.950 . S
H2515 C2520 0.949 . S
H2516 C2522 0.950 . S
H2517 C2523 0.950 . S
H2518 C2524 0.949 . S
C2519 H2514 0.950 . S
C2519 C2521 1.327 . S
C2519 C2525 1.429 . S
C2520 C2512 1.574 . S
C2520 H2515 0.949 . S
C2520 C2526 1.368 . S
C2521 C2505 1.349 . S
C2521 H2513 0.950 . S
C2521 C2519 1.327 . S
C2522 C2510 1.349 . S
C2522 H2516 0.950 . S
C2522 C2523 1.327 . S
C2523 H2517 0.950 . S
C2523 C2522 1.327 . S
C2523 C2527 1.429 . S
C2524 C2507 1.574 . S
C2524 H2518 0.949 . S
C2524 C2528 1.368 . S
C2525 C2506 1.429 . S
C2525 C2519 1.429 . S
C2525 C2526 1.523 . S
C2526 C2507 1.368 . S
C2526 C2520 1.368 . S
C2526 C2525 1.523 . S
C2527 C2511 1.429 . S
C2527 C2523 1.429 . S
C2527 C2528 1.523 . S
C2528 C2512 1.368 . S
C2528 C2524 1.368 . S
C2528 C2527 1.523 . S
H2529 C2504 0.950 . S
H2530 C2506 0.950 . S
H2531 C2507 0.949 . S
H2532 C2509 0.950 . S
H2533 C2511 0.950 . S
C2534 C2535 1.349 . S
C2534 C2536 1.327 . S
C2534 H2559 0.950 . S
C2535 C2534 1.349 . S
C2535 C2551 1.349 . S
C2536 C2534 1.327 . S
C2536 C2555 1.429 . S
C2536 H2560 0.950 . S
C2537 C2554 1.574 . S
C2537 C2556 1.368 . S
C2537 H2561 0.949 . S
H2538 C2542 0.949 . S
C2539 C2540 1.349 . S
C2539 C2541 1.327 . S
C2539 H2562 0.950 . S
C2540 C2539 1.349 . S
C2540 C2552 1.349 . S
C2541 C2539 1.327 . S
C2541 C2557 1.429 . S
C2541 H2563 0.950 . S
C2542 H2538 0.949 . S
C2542 C2550 1.574 . S
C2542 C2558 1.368 . S
H2543 C2551 0.950 . S
H2544 C2549 0.950 . S
H2545 C2550 0.949 . S
H2546 C2552 0.950 1_545 S
H2547 C2553 0.950 . S
H2548 C2554 0.949 . S
C2549 H2544 0.950 . S
C2549 C2551 1.327 . S
C2549 C2555 1.429 . S
C2550 C2542 1.574 . S
C2550 H2545 0.949 . S
C2550 C2556 1.368 . S
C2551 C2535 1.349 . S
C2551 H2543 0.950 . S
C2551 C2549 1.327 . S
C2552 C2540 1.349 . S
C2552 H2546 0.950 1_565 S
C2552 C2553 1.327 . S
C2553 H2547 0.950 . S
C2553 C2552 1.327 . S
C2553 C2557 1.429 . S
C2554 C2537 1.574 . S
C2554 H2548 0.949 . S
C2554 C2558 1.368 . S
C2555 C2536 1.429 . S
C2555 C2549 1.429 . S
C2555 C2556 1.523 . S
C2556 C2537 1.368 . S
C2556 C2550 1.368 . S
C2556 C2555 1.523 . S
C2557 C2541 1.429 . S
C2557 C2553 1.429 . S
C2557 C2558 1.523 . S
C2558 C2542 1.368 . S
C2558 C2554 1.368 . S
C2558 C2557 1.523 . S
H2559 C2534 0.950 . S
H2560 C2536 0.950 . S
H2561 C2537 0.949 . S
H2562 C2539 0.950 . S
H2563 C2541 0.950 . S
C2564 C2565 1.349 . S
C2564 C2566 1.327 . S
C2564 H2589 0.950 . S
C2565 C2564 1.349 . S
C2565 C2581 1.349 . S
C2566 C2564 1.327 . S
C2566 C2585 1.429 . S
C2566 H2590 0.950 . S
C2567 C2584 1.574 . S
C2567 C2586 1.368 . S
C2567 H2591 0.949 . S
H2568 C2572 0.949 . S
C2569 C2570 1.349 . S
C2569 C2571 1.327 . S
C2569 H2592 0.950 . S
C2570 C2569 1.349 . S
C2570 C2582 1.349 . S
C2571 C2569 1.327 . S
C2571 C2587 1.429 . S
C2571 H2593 0.950 . S
C2572 H2568 0.949 . S
C2572 C2580 1.574 . S
C2572 C2588 1.368 . S
H2573 C2581 0.950 . S
H2574 C2579 0.950 . S
H2575 C2580 0.949 . S
H2576 C2582 0.950 . S
H2577 C2583 0.950 . S
H2578 C2584 0.949 . S
C2579 H2574 0.950 . S
C2579 C2581 1.327 . S
C2579 C2585 1.429 . S
C2580 C2572 1.574 . S
C2580 H2575 0.949 . S
C2580 C2586 1.368 . S
C2581 C2565 1.349 . S
C2581 H2573 0.950 . S
C2581 C2579 1.327 . S
C2582 C2570 1.349 . S
C2582 H2576 0.950 . S
C2582 C2583 1.327 . S
C2583 H2577 0.950 . S
C2583 C2582 1.327 . S
C2583 C2587 1.429 . S
C2584 C2567 1.574 . S
C2584 H2578 0.949 . S
C2584 C2588 1.368 . S
C2585 C2566 1.429 . S
C2585 C2579 1.429 . S
C2585 C2586 1.523 . S
C2586 C2567 1.368 . S
C2586 C2580 1.368 . S
C2586 C2585 1.523 . S
C2587 C2571 1.429 . S
C2587 C2583 1.429 . S
C2587 C2588 1.523 . S
C2588 C2572 1.368 . S
C2588 C2584 1.368 . S
C2588 C2587 1.523 . S
H2589 C2564 0.950 . S
H2590 C2566 0.950 . S
H2591 C2567 0.949 . S
H2592 C2569 0.950 . S
H2593 C2571 0.950 . S
C2594 C2595 1.349 . S
C2594 C2596 1.327 . S
C2594 H2619 0.950 . S
C2595 C2594 1.349 . S
C2595 C2611 1.349 . S
C2596 C2594 1.327 . S
C2596 C2615 1.429 . S
C2596 H2620 0.950 . S
C2597 C2614 1.574 . S
C2597 C2616 1.368 . S
C2597 H2621 0.949 . S
H2598 C2602 0.949 . S
C2599 C2600 1.349 . S
C2599 C2601 1.327 . S
C2599 H2622 0.950 . S
C2600 C2599 1.349 . S
C2600 C2612 1.349 . S
C2601 C2599 1.327 . S
C2601 C2617 1.429 . S
C2601 H2623 0.950 . S
C2602 H2598 0.949 . S
C2602 C2610 1.574 . S
C2602 C2618 1.368 . S
H2603 C2611 0.950 . S
H2604 C2609 0.950 . S
H2605 C2610 0.949 . S
H2606 C2612 0.950 . S
H2607 C2613 0.950 . S
H2608 C2614 0.949 . S
C2609 H2604 0.950 . S
C2609 C2611 1.327 . S
C2609 C2615 1.429 . S
C2610 C2602 1.574 . S
C2610 H2605 0.949 . S
C2610 C2616 1.368 . S
C2611 C2595 1.349 . S
C2611 H2603 0.950 . S
C2611 C2609 1.327 . S
C2612 C2600 1.349 . S
C2612 H2606 0.950 . S
C2612 C2613 1.327 . S
C2613 H2607 0.950 . S
C2613 C2612 1.327 . S
C2613 C2617 1.429 . S
C2614 C2597 1.574 . S
C2614 H2608 0.949 . S
C2614 C2618 1.368 . S
C2615 C2596 1.429 . S
C2615 C2609 1.429 . S
C2615 C2616 1.523 . S
C2616 C2597 1.368 . S
C2616 C2610 1.368 . S
C2616 C2615 1.523 . S
C2617 C2601 1.429 . S
C2617 C2613 1.429 . S
C2617 C2618 1.523 . S
C2618 C2602 1.368 . S
C2618 C2614 1.368 . S
C2618 C2617 1.523 . S
H2619 C2594 0.950 . S
H2620 C2596 0.950 . S
H2621 C2597 0.949 . S
H2622 C2599 0.950 . S
H2623 C2601 0.950 . S
C2624 C2625 1.349 . S
C2624 C2626 1.327 . S
C2624 H2649 0.950 . S
C2625 C2624 1.349 . S
C2625 C2641 1.349 . S
C2626 C2624 1.327 . S
C2626 C2645 1.429 . S
C2626 H2650 0.950 . S
C2627 C2644 1.574 . S
C2627 C2646 1.368 . S
C2627 H2651 0.949 . S
H2628 C2632 0.949 . S
C2629 C2630 1.349 . S
C2629 C2631 1.327 . S
C2629 H2652 0.950 . S
C2630 C2629 1.349 . S
C2630 C2642 1.349 . S
C2631 C2629 1.327 . S
C2631 C2647 1.429 . S
C2631 H2653 0.950 . S
C2632 H2628 0.949 . S
C2632 C2640 1.574 . S
C2632 C2648 1.368 . S
H2633 C2641 0.950 . S
H2634 C2639 0.950 . S
H2635 C2640 0.949 . S
H2636 C2642 0.950 . S
H2637 C2643 0.950 . S
H2638 C2644 0.949 . S
C2639 H2634 0.950 . S
C2639 C2641 1.327 . S
C2639 C2645 1.429 . S
C2640 C2632 1.574 . S
C2640 H2635 0.949 . S
C2640 C2646 1.368 . S
C2641 C2625 1.349 . S
C2641 H2633 0.950 . S
C2641 C2639 1.327 . S
C2642 C2630 1.349 . S
C2642 H2636 0.950 . S
C2642 C2643 1.327 . S
C2643 H2637 0.950 . S
C2643 C2642 1.327 . S
C2643 C2647 1.429 . S
C2644 C2627 1.574 . S
C2644 H2638 0.949 . S
C2644 C2648 1.368 . S
C2645 C2626 1.429 . S
C2645 C2639 1.429 . S
C2645 C2646 1.523 . S
C2646 C2627 1.368 . S
C2646 C2640 1.368 . S
C2646 C2645 1.523 . S
C2647 C2631 1.429 . S
C2647 C2643 1.429 . S
C2647 C2648 1.523 . S
C2648 C2632 1.368 . S
C2648 C2644 1.368 . S
C2648 C2647 1.523 . S
H2649 C2624 0.950 . S
H2650 C2626 0.950 . S
H2651 C2627 0.949 . S
H2652 C2629 0.950 . S
H2653 C2631 0.950 . S
C2654 C2655 1.349 . S
C2654 C2656 1.327 . S
C2654 H2679 0.950 . S
C2655 C2654 1.349 . S
C2655 C2671 1.349 . S
C2656 C2654 1.327 . S
C2656 C2675 1.429 . S
C2656 H2680 0.950 . S
C2657 C2674 1.574 . S
C2657 C2676 1.368 . S
C2657 H2681 0.949 . S
H2658 C2662 0.949 . S
C2659 C2660 1.349 . S
C2659 C2661 1.327 . S
C2659 H2682 0.950 . S
C2660 C2659 1.349 . S
C2660 C2672 1.349 . S
C2661 C2659 1.327 . S
C2661 C2677 1.429 . S
C2661 H2683 0.950 . S
C2662 H2658 0.949 . S
C2662 C2670 1.574 . S
C2662 C2678 1.368 . S
H2663 C2671 0.950 . S
H2664 C2669 0.950 . S
H2665 C2670 0.949 . S
H2666 C2672 0.950 . S
H2667 C2673 0.950 . S
H2668 C2674 0.949 . S
C2669 H2664 0.950 . S
C2669 C2671 1.327 . S
C2669 C2675 1.429 . S
C2670 C2662 1.574 . S
C2670 H2665 0.949 . S
C2670 C2676 1.368 . S
C2671 C2655 1.349 . S
C2671 H2663 0.950 . S
C2671 C2669 1.327 . S
C2672 C2660 1.349 . S
C2672 H2666 0.950 . S
C2672 C2673 1.327 . S
C2673 H2667 0.950 . S
C2673 C2672 1.327 . S
C2673 C2677 1.429 . S
C2674 C2657 1.574 . S
C2674 H2668 0.949 . S
C2674 C2678 1.368 . S
C2675 C2656 1.429 . S
C2675 C2669 1.429 . S
C2675 C2676 1.523 . S
C2676 C2657 1.368 . S
C2676 C2670 1.368 . S
C2676 C2675 1.523 . S
C2677 C2661 1.429 . S
C2677 C2673 1.429 . S
C2677 C2678 1.523 . S
C2678 C2662 1.368 . S
C2678 C2674 1.368 . S
C2678 C2677 1.523 . S
H2679 C2654 0.950 . S
H2680 C2656 0.950 . S
H2681 C2657 0.949 . S
H2682 C2659 0.950 . S
H2683 C2661 0.950 . S
C2684 C2685 1.349 1_655 S
C2684 C2686 1.327 . S
C2684 H2709 0.950 . S
C2685 C2684 1.349 1_455 S
C2685 C2701 1.349 . S
C2686 C2684 1.327 . S
C2686 C2705 1.429 1_655 S
C2686 H2710 0.950 . S
C2687 C2704 1.574 . S
C2687 C2706 1.368 . S
C2687 H2711 0.949 . S
H2688 C2692 0.949 . S
C2689 C2690 1.349 1_554 S
C2689 C2691 1.327 1_554 S
C2689 H2712 0.950 . S
C2690 C2689 1.349 1_556 S
C2690 C2702 1.349 1_455 S
C2691 C2689 1.327 1_556 S
C2691 C2707 1.429 . S
C2691 H2713 0.951 1_556 S
C2692 H2688 0.949 . S
C2692 C2700 1.574 . S
C2692 C2708 1.368 1_655 S
H2693 C2701 0.950 . S
H2694 C2699 0.950 . S
H2695 C2700 0.949 . S
H2696 C2702 0.950 . S
H2697 C2703 0.950 . S
H2698 C2704 0.949 . S
C2699 H2694 0.950 . S
C2699 C2701 1.327 . S
C2699 C2705 1.429 . S
C2700 C2692 1.574 . S
C2700 H2695 0.949 . S
C2700 C2706 1.368 1_655 S
C2701 C2685 1.349 . S
C2701 H2693 0.950 . S
C2701 C2699 1.327 . S
C2702 C2690 1.349 1_655 S
C2702 H2696 0.950 . S
C2702 C2703 1.327 . S
C2703 H2697 0.950 . S
C2703 C2702 1.327 . S
C2703 C2707 1.429 1_655 S
C2704 C2687 1.574 . S
C2704 H2698 0.949 . S
C2704 C2708 1.368 . S
C2705 C2686 1.429 1_455 S
C2705 C2699 1.429 . S
C2705 C2706 1.523 . S
C2706 C2687 1.368 . S
C2706 C2700 1.368 1_455 S
C2706 C2705 1.523 . S
C2707 C2691 1.429 . S
C2707 C2703 1.429 1_455 S
C2707 C2708 1.523 . S
C2708 C2692 1.368 1_455 S
C2708 C2704 1.368 . S
C2708 C2707 1.523 . S
H2709 C2684 0.950 . S
H2710 C2686 0.950 . S
H2711 C2687 0.949 . S
H2712 C2689 0.950 . S
H2713 C2691 0.951 1_554 S
C2714 C2715 1.349 . S
C2714 C2716 1.327 . S
C2714 H2739 0.950 . S
C2715 C2714 1.349 . S
C2715 C2731 1.349 . S
C2716 C2714 1.327 . S
C2716 C2735 1.429 . S
C2716 H2740 0.950 . S
C2717 C2734 1.574 . S
C2717 C2736 1.368 . S
C2717 H2741 0.949 . S
H2718 C2722 0.949 . S
C2719 C2720 1.349 . S
C2719 C2721 1.327 . S
C2719 H2742 0.950 . S
C2720 C2719 1.349 . S
C2720 C2732 1.349 . S
C2721 C2719 1.327 . S
C2721 C2737 1.429 . S
C2721 H2743 0.950 . S
C2722 H2718 0.949 . S
C2722 C2730 1.574 . S
C2722 C2738 1.368 . S
H2723 C2731 0.950 . S
H2724 C2729 0.950 . S
H2725 C2730 0.949 . S
H2726 C2732 0.950 . S
H2727 C2733 0.950 . S
H2728 C2734 0.949 . S
C2729 H2724 0.950 . S
C2729 C2731 1.327 . S
C2729 C2735 1.429 . S
C2730 C2722 1.574 . S
C2730 H2725 0.949 . S
C2730 C2736 1.368 . S
C2731 C2715 1.349 . S
C2731 H2723 0.950 . S
C2731 C2729 1.327 . S
C2732 C2720 1.349 . S
C2732 H2726 0.950 . S
C2732 C2733 1.327 . S
C2733 H2727 0.950 . S
C2733 C2732 1.327 . S
C2733 C2737 1.429 . S
C2734 C2717 1.574 . S
C2734 H2728 0.949 . S
C2734 C2738 1.368 . S
C2735 C2716 1.429 . S
C2735 C2729 1.429 . S
C2735 C2736 1.523 . S
C2736 C2717 1.368 . S
C2736 C2730 1.368 . S
C2736 C2735 1.523 . S
C2737 C2721 1.429 . S
C2737 C2733 1.429 . S
C2737 C2738 1.523 . S
C2738 C2722 1.368 . S
C2738 C2734 1.368 . S
C2738 C2737 1.523 . S
H2739 C2714 0.950 . S
H2740 C2716 0.950 . S
H2741 C2717 0.949 . S
H2742 C2719 0.950 . S
H2743 C2721 0.950 . S
C2744 C2745 1.349 . S
C2744 C2746 1.327 . S
C2744 H2769 0.950 . S
C2745 C2744 1.349 . S
C2745 C2761 1.349 . S
C2746 C2744 1.327 . S
C2746 C2765 1.429 . S
C2746 H2770 0.950 . S
C2747 C2764 1.574 . S
C2747 C2766 1.368 . S
C2747 H2771 0.949 . S
H2748 C2752 0.949 . S
C2749 C2750 1.349 . S
C2749 C2751 1.327 . S
C2749 H2772 0.950 . S
C2750 C2749 1.349 . S
C2750 C2762 1.349 . S
C2751 C2749 1.327 . S
C2751 C2767 1.429 . S
C2751 H2773 0.950 . S
C2752 H2748 0.949 . S
C2752 C2760 1.574 . S
C2752 C2768 1.368 . S
H2753 C2761 0.950 . S
H2754 C2759 0.950 . S
H2755 C2760 0.949 . S
H2756 C2762 0.950 . S
H2757 C2763 0.950 . S
H2758 C2764 0.949 . S
C2759 H2754 0.950 . S
C2759 C2761 1.327 . S
C2759 C2765 1.429 . S
C2760 C2752 1.574 . S
C2760 H2755 0.949 . S
C2760 C2766 1.368 . S
C2761 C2745 1.349 . S
C2761 H2753 0.950 . S
C2761 C2759 1.327 . S
C2762 C2750 1.349 . S
C2762 H2756 0.950 . S
C2762 C2763 1.327 . S
C2763 H2757 0.950 . S
C2763 C2762 1.327 . S
C2763 C2767 1.429 . S
C2764 C2747 1.574 . S
C2764 H2758 0.949 . S
C2764 C2768 1.368 . S
C2765 C2746 1.429 . S
C2765 C2759 1.429 . S
C2765 C2766 1.523 . S
C2766 C2747 1.368 . S
C2766 C2760 1.368 . S
C2766 C2765 1.523 . S
C2767 C2751 1.429 . S
C2767 C2763 1.429 . S
C2767 C2768 1.523 . S
C2768 C2752 1.368 . S
C2768 C2764 1.368 . S
C2768 C2767 1.523 . S
H2769 C2744 0.950 . S
H2770 C2746 0.950 . S
H2771 C2747 0.949 . S
H2772 C2749 0.950 . S
H2773 C2751 0.950 . S
C2774 C2775 1.349 . S
C2774 C2776 1.327 . S
C2774 H2799 0.950 . S
C2775 C2774 1.349 . S
C2775 C2791 1.349 . S
C2776 C2774 1.327 . S
C2776 C2795 1.429 . S
C2776 H2800 0.950 . S
C2777 C2794 1.574 . S
C2777 C2796 1.368 . S
C2777 H2801 0.949 . S
H2778 C2782 0.949 . S
C2779 C2780 1.349 . S
C2779 C2781 1.327 . S
C2779 H2802 0.950 . S
C2780 C2779 1.349 . S
C2780 C2792 1.349 . S
C2781 C2779 1.327 . S
C2781 C2797 1.429 . S
C2781 H2803 0.950 . S
C2782 H2778 0.949 . S
C2782 C2790 1.574 . S
C2782 C2798 1.368 . S
H2783 C2791 0.950 . S
H2784 C2789 0.950 . S
H2785 C2790 0.949 . S
H2786 C2792 0.950 . S
H2787 C2793 0.950 . S
H2788 C2794 0.949 . S
C2789 H2784 0.950 . S
C2789 C2791 1.327 . S
C2789 C2795 1.429 . S
C2790 C2782 1.574 . S
C2790 H2785 0.949 . S
C2790 C2796 1.368 . S
C2791 C2775 1.349 . S
C2791 H2783 0.950 . S
C2791 C2789 1.327 . S
C2792 C2780 1.349 . S
C2792 H2786 0.950 . S
C2792 C2793 1.327 . S
C2793 H2787 0.950 . S
C2793 C2792 1.327 . S
C2793 C2797 1.429 . S
C2794 C2777 1.574 . S
C2794 H2788 0.949 . S
C2794 C2798 1.368 . S
C2795 C2776 1.429 . S
C2795 C2789 1.429 . S
C2795 C2796 1.523 . S
C2796 C2777 1.368 . S
C2796 C2790 1.368 . S
C2796 C2795 1.523 . S
C2797 C2781 1.429 . S
C2797 C2793 1.429 . S
C2797 C2798 1.523 . S
C2798 C2782 1.368 . S
C2798 C2794 1.368 . S
C2798 C2797 1.523 . S
H2799 C2774 0.950 . S
H2800 C2776 0.950 . S
H2801 C2777 0.949 . S
H2802 C2779 0.950 . S
H2803 C2781 0.950 . S
C2804 C2805 1.349 . S
C2804 C2806 1.327 . S
C2804 H2829 0.950 . S
C2805 C2804 1.349 . S
C2805 C2821 1.349 1_455 S
C2806 C2804 1.327 . S
C2806 C2825 1.429 . S
C2806 H2830 0.950 . S
C2807 C2824 1.574 . S
C2807 C2826 1.368 1_655 S
C2807 H2831 0.949 . S
H2808 C2812 0.949 . S
C2809 C2810 1.349 1_655 S
C2809 C2811 1.327 . S
C2809 H2832 0.950 . S
C2810 C2809 1.349 1_455 S
C2810 C2822 1.349 . S
C2811 C2809 1.327 . S
C2811 C2827 1.429 1_655 S
C2811 H2833 0.950 . S
C2812 H2808 0.949 . S
C2812 C2820 1.574 . S
C2812 C2828 1.368 . S
H2813 C2821 0.950 . S
H2814 C2819 0.950 . S
H2815 C2820 0.949 . S
H2816 C2822 0.950 . S
H2817 C2823 0.950 . S
H2818 C2824 0.949 . S
C2819 H2814 0.950 . S
C2819 C2821 1.327 . S
C2819 C2825 1.429 1_655 S
C2820 C2812 1.574 . S
C2820 H2815 0.949 . S
C2820 C2826 1.368 . S
C2821 C2805 1.349 1_655 S
C2821 H2813 0.950 . S
C2821 C2819 1.327 . S
C2822 C2810 1.349 . S
C2822 H2816 0.950 . S
C2822 C2823 1.327 . S
C2823 H2817 0.950 . S
C2823 C2822 1.327 . S
C2823 C2827 1.429 . S
C2824 C2807 1.574 . S
C2824 H2818 0.949 . S
C2824 C2828 1.368 1_655 S
C2825 C2806 1.429 . S
C2825 C2819 1.429 1_455 S
C2825 C2826 1.523 . S
C2826 C2807 1.368 1_455 S
C2826 C2820 1.368 . S
C2826 C2825 1.523 . S
C2827 C2811 1.429 1_455 S
C2827 C2823 1.429 . S
C2827 C2828 1.523 . S
C2828 C2812 1.368 . S
C2828 C2824 1.368 1_455 S
C2828 C2827 1.523 . S
H2829 C2804 0.950 . S
H2830 C2806 0.950 . S
H2831 C2807 0.949 . S
H2832 C2809 0.950 . S
H2833 C2811 0.950 . S
C2834 C2835 1.349 . S
C2834 C2836 1.327 . S
C2834 H2859 0.950 . S
C2835 C2834 1.349 . S
C2835 C2851 1.349 . S
C2836 C2834 1.327 . S
C2836 C2855 1.429 . S
C2836 H2860 0.950 . S
C2837 C2854 1.574 . S
C2837 C2856 1.368 . S
C2837 H2861 0.949 . S
H2838 C2842 0.949 . S
C2839 C2840 1.349 . S
C2839 C2841 1.327 . S
C2839 H2862 0.950 . S
C2840 C2839 1.349 . S
C2840 C2852 1.349 . S
C2841 C2839 1.327 . S
C2841 C2857 1.429 . S
C2841 H2863 0.950 . S
C2842 H2838 0.949 . S
C2842 C2850 1.574 . S
C2842 C2858 1.368 . S
H2843 C2851 0.950 . S
H2844 C2849 0.950 . S
H2845 C2850 0.949 . S
H2846 C2852 0.950 . S
H2847 C2853 0.950 . S
H2848 C2854 0.949 . S
C2849 H2844 0.950 . S
C2849 C2851 1.327 . S
C2849 C2855 1.429 . S
C2850 C2842 1.574 . S
C2850 H2845 0.949 . S
C2850 C2856 1.368 . S
C2851 C2835 1.349 . S
C2851 H2843 0.950 . S
C2851 C2849 1.327 . S
C2852 C2840 1.349 . S
C2852 H2846 0.950 . S
C2852 C2853 1.327 . S
C2853 H2847 0.950 . S
C2853 C2852 1.327 . S
C2853 C2857 1.429 . S
C2854 C2837 1.574 . S
C2854 H2848 0.949 . S
C2854 C2858 1.368 . S
C2855 C2836 1.429 . S
C2855 C2849 1.429 . S
C2855 C2856 1.523 . S
C2856 C2837 1.368 . S
C2856 C2850 1.368 . S
C2856 C2855 1.523 . S
C2857 C2841 1.429 . S
C2857 C2853 1.429 . S
C2857 C2858 1.523 . S
C2858 C2842 1.368 . S
C2858 C2854 1.368 . S
C2858 C2857 1.523 . S
H2859 C2834 0.950 . S
H2860 C2836 0.950 . S
H2861 C2837 0.949 . S
H2862 C2839 0.950 . S
H2863 C2841 0.950 . S
C2864 C2865 1.349 . S
C2864 C2866 1.327 . S
C2864 H2889 0.950 . S
C2865 C2864 1.349 . S
C2865 C2881 1.349 . S
C2866 C2864 1.327 . S
C2866 C2885 1.429 . S
C2866 H2890 0.950 . S
C2867 C2884 1.574 . S
C2867 C2886 1.368 . S
C2867 H2891 0.949 . S
H2868 C2872 0.949 . S
C2869 C2870 1.349 . S
C2869 C2871 1.327 . S
C2869 H2892 0.950 . S
C2870 C2869 1.349 . S
C2870 C2882 1.349 . S
C2871 C2869 1.327 . S
C2871 C2887 1.429 . S
C2871 H2893 0.950 . S
C2872 H2868 0.949 . S
C2872 C2880 1.574 . S
C2872 C2888 1.368 . S
H2873 C2881 0.950 . S
H2874 C2879 0.950 . S
H2875 C2880 0.949 . S
H2876 C2882 0.950 . S
H2877 C2883 0.950 . S
H2878 C2884 0.949 . S
C2879 H2874 0.950 . S
C2879 C2881 1.327 . S
C2879 C2885 1.429 . S
C2880 C2872 1.574 . S
C2880 H2875 0.949 . S
C2880 C2886 1.368 . S
C2881 C2865 1.349 . S
C2881 H2873 0.950 . S
C2881 C2879 1.327 . S
C2882 C2870 1.349 . S
C2882 H2876 0.950 . S
C2882 C2883 1.327 . S
C2883 H2877 0.950 . S
C2883 C2882 1.327 . S
C2883 C2887 1.429 . S
C2884 C2867 1.574 . S
C2884 H2878 0.949 . S
C2884 C2888 1.368 . S
C2885 C2866 1.429 . S
C2885 C2879 1.429 . S
C2885 C2886 1.523 . S
C2886 C2867 1.368 . S
C2886 C2880 1.368 . S
C2886 C2885 1.523 . S
C2887 C2871 1.429 . S
C2887 C2883 1.429 . S
C2887 C2888 1.523 . S
C2888 C2872 1.368 . S
C2888 C2884 1.368 . S
C2888 C2887 1.523 . S
H2889 C2864 0.950 . S
H2890 C2866 0.950 . S
H2891 C2867 0.949 . S
H2892 C2869 0.950 . S
H2893 C2871 0.950 . S
C2894 C2895 1.349 . S
C2894 C2896 1.327 . S
C2894 H2919 0.950 . S
C2895 C2894 1.349 . S
C2895 C2911 1.349 . S
C2896 C2894 1.327 . S
C2896 C2915 1.429 . S
C2896 H2920 0.950 . S
C2897 C2914 1.574 . S
C2897 C2916 1.368 . S
C2897 H2921 0.949 . S
H2898 C2902 0.949 . S
C2899 C2900 1.349 . S
C2899 C2901 1.327 . S
C2899 H2922 0.950 . S
C2900 C2899 1.349 . S
C2900 C2912 1.349 . S
C2901 C2899 1.327 . S
C2901 C2917 1.429 . S
C2901 H2923 0.950 . S
C2902 H2898 0.949 . S
C2902 C2910 1.574 . S
C2902 C2918 1.368 . S
H2903 C2911 0.950 . S
H2904 C2909 0.950 . S
H2905 C2910 0.949 . S
H2906 C2912 0.950 . S
H2907 C2913 0.950 . S
H2908 C2914 0.949 . S
C2909 H2904 0.950 . S
C2909 C2911 1.327 . S
C2909 C2915 1.429 . S
C2910 C2902 1.574 . S
C2910 H2905 0.949 . S
C2910 C2916 1.368 . S
C2911 C2895 1.349 . S
C2911 H2903 0.950 . S
C2911 C2909 1.327 . S
C2912 C2900 1.349 . S
C2912 H2906 0.950 . S
C2912 C2913 1.327 . S
C2913 H2907 0.950 . S
C2913 C2912 1.327 . S
C2913 C2917 1.429 . S
C2914 C2897 1.574 . S
C2914 H2908 0.949 . S
C2914 C2918 1.368 . S
C2915 C2896 1.429 . S
C2915 C2909 1.429 . S
C2915 C2916 1.523 . S
C2916 C2897 1.368 . S
C2916 C2910 1.368 . S
C2916 C2915 1.523 . S
C2917 C2901 1.429 . S
C2917 C2913 1.429 . S
C2917 C2918 1.523 . S
C2918 C2902 1.368 . S
C2918 C2914 1.368 . S
C2918 C2917 1.523 . S
H2919 C2894 0.950 . S
H2920 C2896 0.950 . S
H2921 C2897 0.949 . S
H2922 C2899 0.950 . S
H2923 C2901 0.950 . S
C2924 C2925 1.349 . S
C2924 C2926 1.327 . S
C2924 H2949 0.950 . S
C2925 C2924 1.349 . S
C2925 C2941 1.349 . S
C2926 C2924 1.327 . S
C2926 C2945 1.429 . S
C2926 H2950 0.950 . S
C2927 C2944 1.574 . S
C2927 C2946 1.368 . S
C2927 H2951 0.949 . S
H2928 C2932 0.949 . S
C2929 C2930 1.349 . S
C2929 C2931 1.327 . S
C2929 H2952 0.950 . S
C2930 C2929 1.349 . S
C2930 C2942 1.349 . S
C2931 C2929 1.327 . S
C2931 C2947 1.429 . S
C2931 H2953 0.950 . S
C2932 H2928 0.949 . S
C2932 C2940 1.574 . S
C2932 C2948 1.368 . S
H2933 C2941 0.950 . S
H2934 C2939 0.950 . S
H2935 C2940 0.949 . S
H2936 C2942 0.950 . S
H2937 C2943 0.950 . S
H2938 C2944 0.949 . S
C2939 H2934 0.950 . S
C2939 C2941 1.327 . S
C2939 C2945 1.429 . S
C2940 C2932 1.574 . S
C2940 H2935 0.949 . S
C2940 C2946 1.368 . S
C2941 C2925 1.349 . S
C2941 H2933 0.950 . S
C2941 C2939 1.327 . S
C2942 C2930 1.349 . S
C2942 H2936 0.950 . S
C2942 C2943 1.327 . S
C2943 H2937 0.950 . S
C2943 C2942 1.327 . S
C2943 C2947 1.429 . S
C2944 C2927 1.574 . S
C2944 H2938 0.949 . S
C2944 C2948 1.368 . S
C2945 C2926 1.429 . S
C2945 C2939 1.429 . S
C2945 C2946 1.523 . S
C2946 C2927 1.368 . S
C2946 C2940 1.368 . S
C2946 C2945 1.523 . S
C2947 C2931 1.429 . S
C2947 C2943 1.429 . S
C2947 C2948 1.523 . S
C2948 C2932 1.368 . S
C2948 C2944 1.368 . S
C2948 C2947 1.523 . S
H2949 C2924 0.950 . S
H2950 C2926 0.950 . S
H2951 C2927 0.949 . S
H2952 C2929 0.950 . S
H2953 C2931 0.950 . S
C2954 C2955 1.349 . S
C2954 C2956 1.327 . S
C2954 H2979 0.950 . S
C2955 C2954 1.349 . S
C2955 C2971 1.349 . S
C2956 C2954 1.327 . S
C2956 C2975 1.429 . S
C2956 H2980 0.950 . S
C2957 C2974 1.574 . S
C2957 C2976 1.368 . S
C2957 H2981 0.949 . S
H2958 C2962 0.949 . S
C2959 C2960 1.349 . S
C2959 C2961 1.327 . S
C2959 H2982 0.950 . S
C2960 C2959 1.349 . S
C2960 C2972 1.349 . S
C2961 C2959 1.327 . S
C2961 C2977 1.429 . S
C2961 H2983 0.950 . S
C2962 H2958 0.949 . S
C2962 C2970 1.574 . S
C2962 C2978 1.368 . S
H2963 C2971 0.950 . S
H2964 C2969 0.950 . S
H2965 C2970 0.949 . S
H2966 C2972 0.950 . S
H2967 C2973 0.950 . S
H2968 C2974 0.949 . S
C2969 H2964 0.950 . S
C2969 C2971 1.327 . S
C2969 C2975 1.429 . S
C2970 C2962 1.574 . S
C2970 H2965 0.949 . S
C2970 C2976 1.368 . S
C2971 C2955 1.349 . S
C2971 H2963 0.950 . S
C2971 C2969 1.327 . S
C2972 C2960 1.349 . S
C2972 H2966 0.950 . S
C2972 C2973 1.327 . S
C2973 H2967 0.950 . S
C2973 C2972 1.327 . S
C2973 C2977 1.429 . S
C2974 C2957 1.574 . S
C2974 H2968 0.949 . S
C2974 C2978 1.368 . S
C2975 C2956 1.429 . S
C2975 C2969 1.429 . S
C2975 C2976 1.523 . S
C2976 C2957 1.368 . S
C2976 C2970 1.368 . S
C2976 C2975 1.523 . S
C2977 C2961 1.429 . S
C2977 C2973 1.429 . S
C2977 C2978 1.523 . S
C2978 C2962 1.368 . S
C2978 C2974 1.368 . S
C2978 C2977 1.523 . S
H2979 C2954 0.950 . S
H2980 C2956 0.950 . S
H2981 C2957 0.949 . S
H2982 C2959 0.950 . S
H2983 C2961 0.950 . S
C2984 C2985 1.349 . S
C2984 C2986 1.327 . S
C2984 H3009 0.950 . S
C2985 C2984 1.349 . S
C2985 C3001 1.349 . S
C2986 C2984 1.327 . S
C2986 C3005 1.429 . S
C2986 H3010 0.950 . S
C2987 C3004 1.574 . S
C2987 C3006 1.368 . S
C2987 H3011 0.949 . S
H2988 C2992 0.949 . S
C2989 C2990 1.349 . S
C2989 C2991 1.327 . S
C2989 H3012 0.950 . S
C2990 C2989 1.349 . S
C2990 C3002 1.349 . S
C2991 C2989 1.327 . S
C2991 C3007 1.429 . S
C2991 H3013 0.950 . S
C2992 H2988 0.949 . S
C2992 C3000 1.574 . S
C2992 C3008 1.368 . S
H2993 C3001 0.950 . S
H2994 C2999 0.950 . S
H2995 C3000 0.949 . S
H2996 C3002 0.950 . S
H2997 C3003 0.950 . S
H2998 C3004 0.949 . S
C2999 H2994 0.950 . S
C2999 C3001 1.327 . S
C2999 C3005 1.429 . S
C3000 C2992 1.574 . S
C3000 H2995 0.949 . S
C3000 C3006 1.368 . S
C3001 C2985 1.349 . S
C3001 H2993 0.950 . S
C3001 C2999 1.327 . S
C3002 C2990 1.349 . S
C3002 H2996 0.950 . S
C3002 C3003 1.327 . S
C3003 H2997 0.950 . S
C3003 C3002 1.327 . S
C3003 C3007 1.429 . S
C3004 C2987 1.574 . S
C3004 H2998 0.949 . S
C3004 C3008 1.368 . S
C3005 C2986 1.429 . S
C3005 C2999 1.429 . S
C3005 C3006 1.523 . S
C3006 C2987 1.368 . S
C3006 C3000 1.368 . S
C3006 C3005 1.523 . S
C3007 C2991 1.429 . S
C3007 C3003 1.429 . S
C3007 C3008 1.523 . S
C3008 C2992 1.368 . S
C3008 C3004 1.368 . S
C3008 C3007 1.523 . S
H3009 C2984 0.950 . S
H3010 C2986 0.950 . S
H3011 C2987 0.949 . S
H3012 C2989 0.950 . S
H3013 C2991 0.950 . S
C3014 C3015 1.349 . S
C3014 C3016 1.327 . S
C3014 H3039 0.950 . S
C3015 C3014 1.349 . S
C3015 C3031 1.349 . S
C3016 C3014 1.327 . S
C3016 C3035 1.429 . S
C3016 H3040 0.950 . S
C3017 C3034 1.574 . S
C3017 C3036 1.368 . S
C3017 H3041 0.949 . S
H3018 C3022 0.949 . S
C3019 C3020 1.349 . S
C3019 C3021 1.327 . S
C3019 H3042 0.950 . S
C3020 C3019 1.349 . S
C3020 C3032 1.349 . S
C3021 C3019 1.327 . S
C3021 C3037 1.429 . S
C3021 H3043 0.950 . S
C3022 H3018 0.949 . S
C3022 C3030 1.574 . S
C3022 C3038 1.368 . S
H3023 C3031 0.950 . S
H3024 C3029 0.950 . S
H3025 C3030 0.949 . S
H3026 C3032 0.950 . S
H3027 C3033 0.950 . S
H3028 C3034 0.949 . S
C3029 H3024 0.950 . S
C3029 C3031 1.327 . S
C3029 C3035 1.429 . S
C3030 C3022 1.574 . S
C3030 H3025 0.949 . S
C3030 C3036 1.368 . S
C3031 C3015 1.349 . S
C3031 H3023 0.950 . S
C3031 C3029 1.327 . S
C3032 C3020 1.349 . S
C3032 H3026 0.950 . S
C3032 C3033 1.327 . S
C3033 H3027 0.950 . S
C3033 C3032 1.327 . S
C3033 C3037 1.429 . S
C3034 C3017 1.574 . S
C3034 H3028 0.949 . S
C3034 C3038 1.368 . S
C3035 C3016 1.429 . S
C3035 C3029 1.429 . S
C3035 C3036 1.523 . S
C3036 C3017 1.368 . S
C3036 C3030 1.368 . S
C3036 C3035 1.523 . S
C3037 C3021 1.429 . S
C3037 C3033 1.429 . S
C3037 C3038 1.523 . S
C3038 C3022 1.368 . S
C3038 C3034 1.368 . S
C3038 C3037 1.523 . S
H3039 C3014 0.950 . S
H3040 C3016 0.950 . S
H3041 C3017 0.949 . S
H3042 C3019 0.950 . S
H3043 C3021 0.950 . S
C3044 C3045 1.349 . S
C3044 C3046 1.327 . S
C3044 H3069 0.950 . S
C3045 C3044 1.349 . S
C3045 C3061 1.349 . S
C3046 C3044 1.327 . S
C3046 C3065 1.429 . S
C3046 H3070 0.950 . S
C3047 C3064 1.574 . S
C3047 C3066 1.368 . S
C3047 H3071 0.949 . S
H3048 C3052 0.949 . S
C3049 C3050 1.349 . S
C3049 C3051 1.327 . S
C3049 H3072 0.950 . S
C3050 C3049 1.349 . S
C3050 C3062 1.349 . S
C3051 C3049 1.327 . S
C3051 C3067 1.429 . S
C3051 H3073 0.950 . S
C3052 H3048 0.949 . S
C3052 C3060 1.574 . S
C3052 C3068 1.368 . S
H3053 C3061 0.950 . S
H3054 C3059 0.950 . S
H3055 C3060 0.949 . S
H3056 C3062 0.950 . S
H3057 C3063 0.950 . S
H3058 C3064 0.949 . S
C3059 H3054 0.950 . S
C3059 C3061 1.327 . S
C3059 C3065 1.429 . S
C3060 C3052 1.574 . S
C3060 H3055 0.949 . S
C3060 C3066 1.368 . S
C3061 C3045 1.349 . S
C3061 H3053 0.950 . S
C3061 C3059 1.327 . S
C3062 C3050 1.349 . S
C3062 H3056 0.950 . S
C3062 C3063 1.327 . S
C3063 H3057 0.950 . S
C3063 C3062 1.327 . S
C3063 C3067 1.429 . S
C3064 C3047 1.574 . S
C3064 H3058 0.949 . S
C3064 C3068 1.368 . S
C3065 C3046 1.429 . S
C3065 C3059 1.429 . S
C3065 C3066 1.523 . S
C3066 C3047 1.368 . S
C3066 C3060 1.368 . S
C3066 C3065 1.523 . S
C3067 C3051 1.429 . S
C3067 C3063 1.429 . S
C3067 C3068 1.523 . S
C3068 C3052 1.368 . S
C3068 C3064 1.368 . S
C3068 C3067 1.523 . S
H3069 C3044 0.950 . S
H3070 C3046 0.950 . S
H3071 C3047 0.949 . S
H3072 C3049 0.950 . S
H3073 C3051 0.950 . S
C3074 C3075 1.349 . S
C3074 C3076 1.327 . S
C3074 H3099 0.950 . S
C3075 C3074 1.349 . S
C3075 C3091 1.349 . S
C3076 C3074 1.327 . S
C3076 C3095 1.429 . S
C3076 H3100 0.950 . S
C3077 C3094 1.574 . S
C3077 C3096 1.368 . S
C3077 H3101 0.949 . S
H3078 C3082 0.949 . S
C3079 C3080 1.349 . S
C3079 C3081 1.327 . S
C3079 H3102 0.950 . S
C3080 C3079 1.349 . S
C3080 C3092 1.349 . S
C3081 C3079 1.327 . S
C3081 C3097 1.429 . S
C3081 H3103 0.950 . S
C3082 H3078 0.949 . S
C3082 C3090 1.574 . S
C3082 C3098 1.368 . S
H3083 C3091 0.950 . S
H3084 C3089 0.950 . S
H3085 C3090 0.949 . S
H3086 C3092 0.950 . S
H3087 C3093 0.950 . S
H3088 C3094 0.949 . S
C3089 H3084 0.950 . S
C3089 C3091 1.327 . S
C3089 C3095 1.429 . S
C3090 C3082 1.574 . S
C3090 H3085 0.949 . S
C3090 C3096 1.368 . S
C3091 C3075 1.349 . S
C3091 H3083 0.950 . S
C3091 C3089 1.327 . S
C3092 C3080 1.349 . S
C3092 H3086 0.950 . S
C3092 C3093 1.327 . S
C3093 H3087 0.950 . S
C3093 C3092 1.327 . S
C3093 C3097 1.429 . S
C3094 C3077 1.574 . S
C3094 H3088 0.949 . S
C3094 C3098 1.368 . S
C3095 C3076 1.429 . S
C3095 C3089 1.429 . S
C3095 C3096 1.523 . S
C3096 C3077 1.368 . S
C3096 C3090 1.368 . S
C3096 C3095 1.523 . S
C3097 C3081 1.429 . S
C3097 C3093 1.429 . S
C3097 C3098 1.523 . S
C3098 C3082 1.368 . S
C3098 C3094 1.368 . S
C3098 C3097 1.523 . S
H3099 C3074 0.950 . S
H3100 C3076 0.950 . S
H3101 C3077 0.949 . S
H3102 C3079 0.950 . S
H3103 C3081 0.950 . S
C3104 C3105 1.349 . S
C3104 C3106 1.327 . S
C3104 H3129 0.950 . S
C3105 C3104 1.349 . S
C3105 C3121 1.349 . S
C3106 C3104 1.327 . S
C3106 C3125 1.429 . S
C3106 H3130 0.950 . S
C3107 C3124 1.574 . S
C3107 C3126 1.368 . S
C3107 H3131 0.949 . S
H3108 C3112 0.949 . S
C3109 C3110 1.349 . S
C3109 C3111 1.327 . S
C3109 H3132 0.950 . S
C3110 C3109 1.349 . S
C3110 C3122 1.349 . S
C3111 C3109 1.327 . S
C3111 C3127 1.429 . S
C3111 H3133 0.950 . S
C3112 H3108 0.949 . S
C3112 C3120 1.574 . S
C3112 C3128 1.368 . S
H3113 C3121 0.950 . S
H3114 C3119 0.950 . S
H3115 C3120 0.949 . S
H3116 C3122 0.950 . S
H3117 C3123 0.950 . S
H3118 C3124 0.949 . S
C3119 H3114 0.950 . S
C3119 C3121 1.327 . S
C3119 C3125 1.429 . S
C3120 C3112 1.574 . S
C3120 H3115 0.949 . S
C3120 C3126 1.368 . S
C3121 C3105 1.349 . S
C3121 H3113 0.950 . S
C3121 C3119 1.327 . S
C3122 C3110 1.349 . S
C3122 H3116 0.950 . S
C3122 C3123 1.327 . S
C3123 H3117 0.950 . S
C3123 C3122 1.327 . S
C3123 C3127 1.429 . S
C3124 C3107 1.574 . S
C3124 H3118 0.949 . S
C3124 C3128 1.368 . S
C3125 C3106 1.429 . S
C3125 C3119 1.429 . S
C3125 C3126 1.523 . S
C3126 C3107 1.368 . S
C3126 C3120 1.368 . S
C3126 C3125 1.523 . S
C3127 C3111 1.429 . S
C3127 C3123 1.429 . S
C3127 C3128 1.523 . S
C3128 C3112 1.368 . S
C3128 C3124 1.368 . S
C3128 C3127 1.523 . S
H3129 C3104 0.950 . S
H3130 C3106 0.950 . S
H3131 C3107 0.949 . S
H3132 C3109 0.950 . S
H3133 C3111 0.950 . S
C3134 C3135 1.349 . S
C3134 C3136 1.327 . S
C3134 H3159 0.950 . S
C3135 C3134 1.349 . S
C3135 C3151 1.349 . S
C3136 C3134 1.327 . S
C3136 C3155 1.429 . S
C3136 H3160 0.950 . S
C3137 C3154 1.574 . S
C3137 C3156 1.368 . S
C3137 H3161 0.949 . S
H3138 C3142 0.949 . S
C3139 C3140 1.349 . S
C3139 C3141 1.327 . S
C3139 H3162 0.950 . S
C3140 C3139 1.349 . S
C3140 C3152 1.349 . S
C3141 C3139 1.327 . S
C3141 C3157 1.429 . S
C3141 H3163 0.950 . S
C3142 H3138 0.949 . S
C3142 C3150 1.574 . S
C3142 C3158 1.368 . S
H3143 C3151 0.950 . S
H3144 C3149 0.950 . S
H3145 C3150 0.949 . S
H3146 C3152 0.950 . S
H3147 C3153 0.950 . S
H3148 C3154 0.949 . S
C3149 H3144 0.950 . S
C3149 C3151 1.327 . S
C3149 C3155 1.429 . S
C3150 C3142 1.574 . S
C3150 H3145 0.949 . S
C3150 C3156 1.368 . S
C3151 C3135 1.349 . S
C3151 H3143 0.950 . S
C3151 C3149 1.327 . S
C3152 C3140 1.349 . S
C3152 H3146 0.950 . S
C3152 C3153 1.327 . S
C3153 H3147 0.950 . S
C3153 C3152 1.327 . S
C3153 C3157 1.429 . S
C3154 C3137 1.574 . S
C3154 H3148 0.949 . S
C3154 C3158 1.368 . S
C3155 C3136 1.429 . S
C3155 C3149 1.429 . S
C3155 C3156 1.523 . S
C3156 C3137 1.368 . S
C3156 C3150 1.368 . S
C3156 C3155 1.523 . S
C3157 C3141 1.429 . S
C3157 C3153 1.429 . S
C3157 C3158 1.523 . S
C3158 C3142 1.368 . S
C3158 C3154 1.368 . S
C3158 C3157 1.523 . S
H3159 C3134 0.950 . S
H3160 C3136 0.950 . S
H3161 C3137 0.949 . S
H3162 C3139 0.950 . S
H3163 C3141 0.950 . S
C3164 C3165 1.349 . S
C3164 C3166 1.327 . S
C3164 H3189 0.950 . S
C3165 C3164 1.349 . S
C3165 C3181 1.349 . S
C3166 C3164 1.327 . S
C3166 C3185 1.429 . S
C3166 H3190 0.950 . S
C3167 C3184 1.574 . S
C3167 C3186 1.368 . S
C3167 H3191 0.949 . S
H3168 C3172 0.949 . S
C3169 C3170 1.349 . S
C3169 C3171 1.327 . S
C3169 H3192 0.950 . S
C3170 C3169 1.349 . S
C3170 C3182 1.349 . S
C3171 C3169 1.327 . S
C3171 C3187 1.429 . S
C3171 H3193 0.950 . S
C3172 H3168 0.949 . S
C3172 C3180 1.574 . S
C3172 C3188 1.368 . S
H3173 C3181 0.950 . S
H3174 C3179 0.950 . S
H3175 C3180 0.949 . S
H3176 C3182 0.950 . S
H3177 C3183 0.950 . S
H3178 C3184 0.949 . S
C3179 H3174 0.950 . S
C3179 C3181 1.327 . S
C3179 C3185 1.429 . S
C3180 C3172 1.574 . S
C3180 H3175 0.949 . S
C3180 C3186 1.368 . S
C3181 C3165 1.349 . S
C3181 H3173 0.950 . S
C3181 C3179 1.327 . S
C3182 C3170 1.349 . S
C3182 H3176 0.950 . S
C3182 C3183 1.327 . S
C3183 H3177 0.950 . S
C3183 C3182 1.327 . S
C3183 C3187 1.429 . S
C3184 C3167 1.574 . S
C3184 H3178 0.949 . S
C3184 C3188 1.368 . S
C3185 C3166 1.429 . S
C3185 C3179 1.429 . S
C3185 C3186 1.523 . S
C3186 C3167 1.368 . S
C3186 C3180 1.368 . S
C3186 C3185 1.523 . S
C3187 C3171 1.429 . S
C3187 C3183 1.429 . S
C3187 C3188 1.523 . S
C3188 C3172 1.368 . S
C3188 C3184 1.368 . S
C3188 C3187 1.523 . S
H3189 C3164 0.950 . S
H3190 C3166 0.950 . S
H3191 C3167 0.949 . S
H3192 C3169 0.950 . S
H3193 C3171 0.950 . S
C3194 C3195 1.349 . S
C3194 C3196 1.327 . S
C3194 H3219 0.950 . S
C3195 C3194 1.349 . S
C3195 C3211 1.349 . S
C3196 C3194 1.327 . S
C3196 C3215 1.429 . S
C3196 H3220 0.950 . S
C3197 C3214 1.574 . S
C3197 C3216 1.368 . S
C3197 H3221 0.949 1_554 S
H3198 C3202 0.949 . S
C3199 C3200 1.349 . S
C3199 C3201 1.327 . S
C3199 H3222 0.950 1_554 S
C3200 C3199 1.349 . S
C3200 C3212 1.349 . S
C3201 C3199 1.327 . S
C3201 C3217 1.429 . S
C3201 H3223 0.950 1_554 S
C3202 H3198 0.949 . S
C3202 C3210 1.574 . S
C3202 C3218 1.368 . S
H3203 C3211 0.950 1_556 S
H3204 C3209 0.950 1_556 S
H3205 C3210 0.949 . S
H3206 C3212 0.950 . S
H3207 C3213 0.950 . S
H3208 C3214 0.949 1_556 S
C3209 H3204 0.950 1_554 S
C3209 C3211 1.327 . S
C3209 C3215 1.429 . S
C3210 C3202 1.574 . S
C3210 H3205 0.949 . S
C3210 C3216 1.368 . S
C3211 C3195 1.349 . S
C3211 H3203 0.950 1_554 S
C3211 C3209 1.327 . S
C3212 C3200 1.349 . S
C3212 H3206 0.950 . S
C3212 C3213 1.327 . S
C3213 H3207 0.950 . S
C3213 C3212 1.327 . S
C3213 C3217 1.429 . S
C3214 C3197 1.574 . S
C3214 H3208 0.949 1_554 S
C3214 C3218 1.368 . S
C3215 C3196 1.429 . S
C3215 C3209 1.429 . S
C3215 C3216 1.523 . S
C3216 C3197 1.368 . S
C3216 C3210 1.368 . S
C3216 C3215 1.523 . S
C3217 C3201 1.429 . S
C3217 C3213 1.429 . S
C3217 C3218 1.523 . S
C3218 C3202 1.368 . S
C3218 C3214 1.368 . S
C3218 C3217 1.523 . S
H3219 C3194 0.950 . S
H3220 C3196 0.950 . S
H3221 C3197 0.949 1_556 S
H3222 C3199 0.950 1_556 S
H3223 C3201 0.950 1_556 S
C3224 C3225 1.349 . S
C3224 C3226 1.327 . S
C3224 H3249 0.950 . S
C3225 C3224 1.349 . S
C3225 C3241 1.349 . S
C3226 C3224 1.327 . S
C3226 C3245 1.429 . S
C3226 H3250 0.950 . S
C3227 C3244 1.574 . S
C3227 C3246 1.368 . S
C3227 H3251 0.949 . S
H3228 C3232 0.949 . S
C3229 C3230 1.349 . S
C3229 C3231 1.327 . S
C3229 H3252 0.950 . S
C3230 C3229 1.349 . S
C3230 C3242 1.349 . S
C3231 C3229 1.327 . S
C3231 C3247 1.429 . S
C3231 H3253 0.950 . S
C3232 H3228 0.949 . S
C3232 C3240 1.574 . S
C3232 C3248 1.368 . S
H3233 C3241 0.950 . S
H3234 C3239 0.950 . S
H3235 C3240 0.949 . S
H3236 C3242 0.950 . S
H3237 C3243 0.950 . S
H3238 C3244 0.949 . S
C3239 H3234 0.950 . S
C3239 C3241 1.327 . S
C3239 C3245 1.429 . S
C3240 C3232 1.574 . S
C3240 H3235 0.949 . S
C3240 C3246 1.368 . S
C3241 C3225 1.349 . S
C3241 H3233 0.950 . S
C3241 C3239 1.327 . S
C3242 C3230 1.349 . S
C3242 H3236 0.950 . S
C3242 C3243 1.327 . S
C3243 H3237 0.950 . S
C3243 C3242 1.327 . S
C3243 C3247 1.429 . S
C3244 C3227 1.574 . S
C3244 H3238 0.949 . S
C3244 C3248 1.368 . S
C3245 C3226 1.429 . S
C3245 C3239 1.429 . S
C3245 C3246 1.523 . S
C3246 C3227 1.368 . S
C3246 C3240 1.368 . S
C3246 C3245 1.523 . S
C3247 C3231 1.429 . S
C3247 C3243 1.429 . S
C3247 C3248 1.523 . S
C3248 C3232 1.368 . S
C3248 C3244 1.368 . S
C3248 C3247 1.523 . S
H3249 C3224 0.950 . S
H3250 C3226 0.950 . S
H3251 C3227 0.949 . S
H3252 C3229 0.950 . S
H3253 C3231 0.950 . S
C3254 C3255 1.349 1_556 S
C3254 C3256 1.327 . S
C3254 H3279 0.950 . S
C3255 C3254 1.349 1_554 S
C3255 C3271 1.349 . S
C3256 C3254 1.327 . S
C3256 C3275 1.429 1_556 S
C3256 H3280 0.950 . S
C3257 C3274 1.574 . S
C3257 C3276 1.368 . S
C3257 H3281 0.949 . S
H3258 C3262 0.949 . S
C3259 C3260 1.349 . S
C3259 C3261 1.327 . S
C3259 H3282 0.950 . S
C3260 C3259 1.349 . S
C3260 C3272 1.349 . S
C3261 C3259 1.327 . S
C3261 C3277 1.429 . S
C3261 H3283 0.950 . S
C3262 H3258 0.949 . S
C3262 C3270 1.574 . S
C3262 C3278 1.368 1_556 S
H3263 C3271 0.950 . S
H3264 C3269 0.950 . S
H3265 C3270 0.949 . S
H3266 C3272 0.950 1_556 S
H3267 C3273 0.950 1_556 S
H3268 C3274 0.949 . S
C3269 H3264 0.950 . S
C3269 C3271 1.327 . S
C3269 C3275 1.429 . S
C3270 C3262 1.574 . S
C3270 H3265 0.949 . S
C3270 C3276 1.368 1_556 S
C3271 C3255 1.349 . S
C3271 H3263 0.950 . S
C3271 C3269 1.327 . S
C3272 C3260 1.349 . S
C3272 H3266 0.950 1_554 S
C3272 C3273 1.327 . S
C3273 H3267 0.950 1_554 S
C3273 C3272 1.327 . S
C3273 C3277 1.429 . S
C3274 C3257 1.574 . S
C3274 H3268 0.949 . S
C3274 C3278 1.368 . S
C3275 C3256 1.429 1_554 S
C3275 C3269 1.429 . S
C3275 C3276 1.523 . S
C3276 C3257 1.368 . S
C3276 C3270 1.368 1_554 S
C3276 C3275 1.523 . S
C3277 C3261 1.429 . S
C3277 C3273 1.429 . S
C3277 C3278 1.523 . S
C3278 C3262 1.368 1_554 S
C3278 C3274 1.368 . S
C3278 C3277 1.523 . S
H3279 C3254 0.950 . S
H3280 C3256 0.950 . S
H3281 C3257 0.949 . S
H3282 C3259 0.950 . S
H3283 C3261 0.950 . S
C3284 C3285 1.349 . S
C3284 C3286 1.327 . S
C3284 H3309 0.950 . S
C3285 C3284 1.349 . S
C3285 C3301 1.349 . S
C3286 C3284 1.327 . S
C3286 C3305 1.429 . S
C3286 H3310 0.950 . S
C3287 C3304 1.574 . S
C3287 C3306 1.368 . S
C3287 H3311 0.949 . S
H3288 C3292 0.949 . S
C3289 C3290 1.349 . S
C3289 C3291 1.327 . S
C3289 H3312 0.950 . S
C3290 C3289 1.349 . S
C3290 C3302 1.349 . S
C3291 C3289 1.327 . S
C3291 C3307 1.429 . S
C3291 H3313 0.950 . S
C3292 H3288 0.949 . S
C3292 C3300 1.574 . S
C3292 C3308 1.368 . S
H3293 C3301 0.950 . S
H3294 C3299 0.950 . S
H3295 C3300 0.949 . S
H3296 C3302 0.950 . S
H3297 C3303 0.950 . S
H3298 C3304 0.949 . S
C3299 H3294 0.950 . S
C3299 C3301 1.327 . S
C3299 C3305 1.429 . S
C3300 C3292 1.574 . S
C3300 H3295 0.949 . S
C3300 C3306 1.368 . S
C3301 C3285 1.349 . S
C3301 H3293 0.950 . S
C3301 C3299 1.327 . S
C3302 C3290 1.349 . S
C3302 H3296 0.950 . S
C3302 C3303 1.327 . S
C3303 H3297 0.950 . S
C3303 C3302 1.327 . S
C3303 C3307 1.429 . S
C3304 C3287 1.574 . S
C3304 H3298 0.949 . S
C3304 C3308 1.368 . S
C3305 C3286 1.429 . S
C3305 C3299 1.429 . S
C3305 C3306 1.523 . S
C3306 C3287 1.368 . S
C3306 C3300 1.368 . S
C3306 C3305 1.523 . S
C3307 C3291 1.429 . S
C3307 C3303 1.429 . S
C3307 C3308 1.523 . S
C3308 C3292 1.368 . S
C3308 C3304 1.368 . S
C3308 C3307 1.523 . S
H3309 C3284 0.950 . S
H3310 C3286 0.950 . S
H3311 C3287 0.949 . S
H3312 C3289 0.950 . S
H3313 C3291 0.950 . S
C3314 C3315 1.349 . S
C3314 C3316 1.327 . S
C3314 H3339 0.950 . S
C3315 C3314 1.349 . S
C3315 C3331 1.349 . S
C3316 C3314 1.327 . S
C3316 C3335 1.429 . S
C3316 H3340 0.950 . S
C3317 C3334 1.574 . S
C3317 C3336 1.368 . S
C3317 H3341 0.949 . S
H3318 C3322 0.949 . S
C3319 C3320 1.349 . S
C3319 C3321 1.327 . S
C3319 H3342 0.950 . S
C3320 C3319 1.349 . S
C3320 C3332 1.349 . S
C3321 C3319 1.327 . S
C3321 C3337 1.429 . S
C3321 H3343 0.950 . S
C3322 H3318 0.949 . S
C3322 C3330 1.574 . S
C3322 C3338 1.368 . S
H3323 C3331 0.950 . S
H3324 C3329 0.950 . S
H3325 C3330 0.949 . S
H3326 C3332 0.950 . S
H3327 C3333 0.950 . S
H3328 C3334 0.949 . S
C3329 H3324 0.950 . S
C3329 C3331 1.327 . S
C3329 C3335 1.429 . S
C3330 C3322 1.574 . S
C3330 H3325 0.949 . S
C3330 C3336 1.368 . S
C3331 C3315 1.349 . S
C3331 H3323 0.950 . S
C3331 C3329 1.327 . S
C3332 C3320 1.349 . S
C3332 H3326 0.950 . S
C3332 C3333 1.327 . S
C3333 H3327 0.950 . S
C3333 C3332 1.327 . S
C3333 C3337 1.429 . S
C3334 C3317 1.574 . S
C3334 H3328 0.949 . S
C3334 C3338 1.368 . S
C3335 C3316 1.429 . S
C3335 C3329 1.429 . S
C3335 C3336 1.523 . S
C3336 C3317 1.368 . S
C3336 C3330 1.368 . S
C3336 C3335 1.523 . S
C3337 C3321 1.429 . S
C3337 C3333 1.429 . S
C3337 C3338 1.523 . S
C3338 C3322 1.368 . S
C3338 C3334 1.368 . S
C3338 C3337 1.523 . S
H3339 C3314 0.950 . S
H3340 C3316 0.950 . S
H3341 C3317 0.949 . S
H3342 C3319 0.950 . S
H3343 C3321 0.950 . S
C3344 C3345 1.349 . S
C3344 C3346 1.327 . S
C3344 H3369 0.950 . S
C3345 C3344 1.349 . S
C3345 C3361 1.349 . S
C3346 C3344 1.327 . S
C3346 C3365 1.429 . S
C3346 H3370 0.950 . S
C3347 C3364 1.574 . S
C3347 C3366 1.368 . S
C3347 H3371 0.949 . S
H3348 C3352 0.949 . S
C3349 C3350 1.349 . S
C3349 C3351 1.327 . S
C3349 H3372 0.950 . S
C3350 C3349 1.349 . S
C3350 C3362 1.349 . S
C3351 C3349 1.327 . S
C3351 C3367 1.429 . S
C3351 H3373 0.950 . S
C3352 H3348 0.949 . S
C3352 C3360 1.574 . S
C3352 C3368 1.368 . S
H3353 C3361 0.950 . S
H3354 C3359 0.950 . S
H3355 C3360 0.949 . S
H3356 C3362 0.950 . S
H3357 C3363 0.950 . S
H3358 C3364 0.949 . S
C3359 H3354 0.950 . S
C3359 C3361 1.327 . S
C3359 C3365 1.429 . S
C3360 C3352 1.574 . S
C3360 H3355 0.949 . S
C3360 C3366 1.368 . S
C3361 C3345 1.349 . S
C3361 H3353 0.950 . S
C3361 C3359 1.327 . S
C3362 C3350 1.349 . S
C3362 H3356 0.950 . S
C3362 C3363 1.327 . S
C3363 H3357 0.950 . S
C3363 C3362 1.327 . S
C3363 C3367 1.429 . S
C3364 C3347 1.574 . S
C3364 H3358 0.949 . S
C3364 C3368 1.368 . S
C3365 C3346 1.429 . S
C3365 C3359 1.429 . S
C3365 C3366 1.523 . S
C3366 C3347 1.368 . S
C3366 C3360 1.368 . S
C3366 C3365 1.523 . S
C3367 C3351 1.429 . S
C3367 C3363 1.429 . S
C3367 C3368 1.523 . S
C3368 C3352 1.368 . S
C3368 C3364 1.368 . S
C3368 C3367 1.523 . S
H3369 C3344 0.950 . S
H3370 C3346 0.950 . S
H3371 C3347 0.949 . S
H3372 C3349 0.950 . S
H3373 C3351 0.950 . S
C3374 C3375 1.349 . S
C3374 C3376 1.327 . S
C3374 H3399 0.950 . S
C3375 C3374 1.349 . S
C3375 C3391 1.349 . S
C3376 C3374 1.327 . S
C3376 C3395 1.429 . S
C3376 H3400 0.950 . S
C3377 C3394 1.574 . S
C3377 C3396 1.368 . S
C3377 H3401 0.949 . S
H3378 C3382 0.949 . S
C3379 C3380 1.349 . S
C3379 C3381 1.327 . S
C3379 H3402 0.950 . S
C3380 C3379 1.349 . S
C3380 C3392 1.349 . S
C3381 C3379 1.327 . S
C3381 C3397 1.429 . S
C3381 H3403 0.950 . S
C3382 H3378 0.949 . S
C3382 C3390 1.574 . S
C3382 C3398 1.368 . S
H3383 C3391 0.950 . S
H3384 C3389 0.950 . S
H3385 C3390 0.949 . S
H3386 C3392 0.950 . S
H3387 C3393 0.950 . S
H3388 C3394 0.949 . S
C3389 H3384 0.950 . S
C3389 C3391 1.327 . S
C3389 C3395 1.429 . S
C3390 C3382 1.574 . S
C3390 H3385 0.949 . S
C3390 C3396 1.368 . S
C3391 C3375 1.349 . S
C3391 H3383 0.950 . S
C3391 C3389 1.327 . S
C3392 C3380 1.349 . S
C3392 H3386 0.950 . S
C3392 C3393 1.327 . S
C3393 H3387 0.950 . S
C3393 C3392 1.327 . S
C3393 C3397 1.429 . S
C3394 C3377 1.574 . S
C3394 H3388 0.949 . S
C3394 C3398 1.368 . S
C3395 C3376 1.429 . S
C3395 C3389 1.429 . S
C3395 C3396 1.523 . S
C3396 C3377 1.368 . S
C3396 C3390 1.368 . S
C3396 C3395 1.523 . S
C3397 C3381 1.429 . S
C3397 C3393 1.429 . S
C3397 C3398 1.523 . S
C3398 C3382 1.368 . S
C3398 C3394 1.368 . S
C3398 C3397 1.523 . S
H3399 C3374 0.950 . S
H3400 C3376 0.950 . S
H3401 C3377 0.949 . S
H3402 C3379 0.950 . S
H3403 C3381 0.950 . S
C3404 C3405 1.349 . S
C3404 C3406 1.327 . S
C3404 H3429 0.950 . S
C3405 C3404 1.349 . S
C3405 C3421 1.349 . S
C3406 C3404 1.327 . S
C3406 C3425 1.429 . S
C3406 H3430 0.950 . S
C3407 C3424 1.574 . S
C3407 C3426 1.368 . S
C3407 H3431 0.949 . S
H3408 C3412 0.949 . S
C3409 C3410 1.349 . S
C3409 C3411 1.327 . S
C3409 H3432 0.950 . S
C3410 C3409 1.349 . S
C3410 C3422 1.349 . S
C3411 C3409 1.327 . S
C3411 C3427 1.429 . S
C3411 H3433 0.950 . S
C3412 H3408 0.949 . S
C3412 C3420 1.574 . S
C3412 C3428 1.368 . S
H3413 C3421 0.950 . S
H3414 C3419 0.950 . S
H3415 C3420 0.949 . S
H3416 C3422 0.950 . S
H3417 C3423 0.950 . S
H3418 C3424 0.949 . S
C3419 H3414 0.950 . S
C3419 C3421 1.327 . S
C3419 C3425 1.429 . S
C3420 C3412 1.574 . S
C3420 H3415 0.949 . S
C3420 C3426 1.368 . S
C3421 C3405 1.349 . S
C3421 H3413 0.950 . S
C3421 C3419 1.327 . S
C3422 C3410 1.349 . S
C3422 H3416 0.950 . S
C3422 C3423 1.327 . S
C3423 H3417 0.950 . S
C3423 C3422 1.327 . S
C3423 C3427 1.429 . S
C3424 C3407 1.574 . S
C3424 H3418 0.949 . S
C3424 C3428 1.368 . S
C3425 C3406 1.429 . S
C3425 C3419 1.429 . S
C3425 C3426 1.523 . S
C3426 C3407 1.368 . S
C3426 C3420 1.368 . S
C3426 C3425 1.523 . S
C3427 C3411 1.429 . S
C3427 C3423 1.429 . S
C3427 C3428 1.523 . S
C3428 C3412 1.368 . S
C3428 C3424 1.368 . S
C3428 C3427 1.523 . S
H3429 C3404 0.950 . S
H3430 C3406 0.950 . S
H3431 C3407 0.949 . S
H3432 C3409 0.950 . S
H3433 C3411 0.950 . S
C3434 C3435 1.349 . S
C3434 C3436 1.327 . S
C3434 H3459 0.950 . S
C3435 C3434 1.349 . S
C3435 C3451 1.349 . S
C3436 C3434 1.327 . S
C3436 C3455 1.429 . S
C3436 H3460 0.950 . S
C3437 C3454 1.574 . S
C3437 C3456 1.368 . S
C3437 H3461 0.949 . S
H3438 C3442 0.949 . S
C3439 C3440 1.349 . S
C3439 C3441 1.327 . S
C3439 H3462 0.950 . S
C3440 C3439 1.349 . S
C3440 C3452 1.349 . S
C3441 C3439 1.327 . S
C3441 C3457 1.429 . S
C3441 H3463 0.950 . S
C3442 H3438 0.949 . S
C3442 C3450 1.574 . S
C3442 C3458 1.368 . S
H3443 C3451 0.950 . S
H3444 C3449 0.950 . S
H3445 C3450 0.949 . S
H3446 C3452 0.950 . S
H3447 C3453 0.950 . S
H3448 C3454 0.949 . S
C3449 H3444 0.950 . S
C3449 C3451 1.327 . S
C3449 C3455 1.429 . S
C3450 C3442 1.574 . S
C3450 H3445 0.949 . S
C3450 C3456 1.368 . S
C3451 C3435 1.349 . S
C3451 H3443 0.950 . S
C3451 C3449 1.327 . S
C3452 C3440 1.349 . S
C3452 H3446 0.950 . S
C3452 C3453 1.327 . S
C3453 H3447 0.950 . S
C3453 C3452 1.327 . S
C3453 C3457 1.429 . S
C3454 C3437 1.574 . S
C3454 H3448 0.949 . S
C3454 C3458 1.368 . S
C3455 C3436 1.429 . S
C3455 C3449 1.429 . S
C3455 C3456 1.523 . S
C3456 C3437 1.368 . S
C3456 C3450 1.368 . S
C3456 C3455 1.523 . S
C3457 C3441 1.429 . S
C3457 C3453 1.429 . S
C3457 C3458 1.523 . S
C3458 C3442 1.368 . S
C3458 C3454 1.368 . S
C3458 C3457 1.523 . S
H3459 C3434 0.950 . S
H3460 C3436 0.950 . S
H3461 C3437 0.949 . S
H3462 C3439 0.950 . S
H3463 C3441 0.950 . S
C3464 C3465 1.349 . S
C3464 C3466 1.327 . S
C3464 H3489 0.950 . S
C3465 C3464 1.349 . S
C3465 C3481 1.349 . S
C3466 C3464 1.327 . S
C3466 C3485 1.429 . S
C3466 H3490 0.950 . S
C3467 C3484 1.574 . S
C3467 C3486 1.368 . S
C3467 H3491 0.949 . S
H3468 C3472 0.949 . S
C3469 C3470 1.349 . S
C3469 C3471 1.327 . S
C3469 H3492 0.950 . S
C3470 C3469 1.349 . S
C3470 C3482 1.349 . S
C3471 C3469 1.327 . S
C3471 C3487 1.429 . S
C3471 H3493 0.950 . S
C3472 H3468 0.949 . S
C3472 C3480 1.574 . S
C3472 C3488 1.368 . S
H3473 C3481 0.950 . S
H3474 C3479 0.950 . S
H3475 C3480 0.949 . S
H3476 C3482 0.950 1_554 S
H3477 C3483 0.950 . S
H3478 C3484 0.949 . S
C3479 H3474 0.950 . S
C3479 C3481 1.327 . S
C3479 C3485 1.429 . S
C3480 C3472 1.574 . S
C3480 H3475 0.949 . S
C3480 C3486 1.368 . S
C3481 C3465 1.349 . S
C3481 H3473 0.950 . S
C3481 C3479 1.327 . S
C3482 C3470 1.349 . S
C3482 H3476 0.950 1_556 S
C3482 C3483 1.327 . S
C3483 H3477 0.950 . S
C3483 C3482 1.327 . S
C3483 C3487 1.429 . S
C3484 C3467 1.574 . S
C3484 H3478 0.949 . S
C3484 C3488 1.368 . S
C3485 C3466 1.429 . S
C3485 C3479 1.429 . S
C3485 C3486 1.523 . S
C3486 C3467 1.368 . S
C3486 C3480 1.368 . S
C3486 C3485 1.523 . S
C3487 C3471 1.429 . S
C3487 C3483 1.429 . S
C3487 C3488 1.523 . S
C3488 C3472 1.368 . S
C3488 C3484 1.368 . S
C3488 C3487 1.523 . S
H3489 C3464 0.950 . S
H3490 C3466 0.950 . S
H3491 C3467 0.949 . S
H3492 C3469 0.950 . S
H3493 C3471 0.950 . S
C3494 C3495 1.349 . S
C3494 C3496 1.327 . S
C3494 H3519 0.950 . S
C3495 C3494 1.349 . S
C3495 C3511 1.349 . S
C3496 C3494 1.327 . S
C3496 C3515 1.429 . S
C3496 H3520 0.950 . S
C3497 C3514 1.574 . S
C3497 C3516 1.368 . S
C3497 H3521 0.949 . S
H3498 C3502 0.949 . S
C3499 C3500 1.349 . S
C3499 C3501 1.327 . S
C3499 H3522 0.950 . S
C3500 C3499 1.349 . S
C3500 C3512 1.349 . S
C3501 C3499 1.327 . S
C3501 C3517 1.429 . S
C3501 H3523 0.950 . S
C3502 H3498 0.949 . S
C3502 C3510 1.574 . S
C3502 C3518 1.368 . S
H3503 C3511 0.950 . S
H3504 C3509 0.950 . S
H3505 C3510 0.949 . S
H3506 C3512 0.950 . S
H3507 C3513 0.950 . S
H3508 C3514 0.949 . S
C3509 H3504 0.950 . S
C3509 C3511 1.327 . S
C3509 C3515 1.429 . S
C3510 C3502 1.574 . S
C3510 H3505 0.949 . S
C3510 C3516 1.368 . S
C3511 C3495 1.349 . S
C3511 H3503 0.950 . S
C3511 C3509 1.327 . S
C3512 C3500 1.349 . S
C3512 H3506 0.950 . S
C3512 C3513 1.327 . S
C3513 H3507 0.950 . S
C3513 C3512 1.327 . S
C3513 C3517 1.429 . S
C3514 C3497 1.574 . S
C3514 H3508 0.949 . S
C3514 C3518 1.368 . S
C3515 C3496 1.429 . S
C3515 C3509 1.429 . S
C3515 C3516 1.523 . S
C3516 C3497 1.368 . S
C3516 C3510 1.368 . S
C3516 C3515 1.523 . S
C3517 C3501 1.429 . S
C3517 C3513 1.429 . S
C3517 C3518 1.523 . S
C3518 C3502 1.368 . S
C3518 C3514 1.368 . S
C3518 C3517 1.523 . S
H3519 C3494 0.950 . S
H3520 C3496 0.950 . S
H3521 C3497 0.949 . S
H3522 C3499 0.950 . S
H3523 C3501 0.950 . S
C3524 C3525 1.349 . S
C3524 C3526 1.327 . S
C3524 H3549 0.950 . S
C3525 C3524 1.349 . S
C3525 C3541 1.349 . S
C3526 C3524 1.327 . S
C3526 C3545 1.429 . S
C3526 H3550 0.950 . S
C3527 C3544 1.574 . S
C3527 C3546 1.368 . S
C3527 H3551 0.936 1_455 S
H3528 C3532 0.949 . S
C3529 C3530 1.349 . S
C3529 C3531 1.327 . S
C3529 H3552 0.950 1_455 S
C3530 C3529 1.349 . S
C3530 C3542 1.349 . S
C3531 C3529 1.327 . S
C3531 C3547 1.429 . S
C3531 H3553 0.950 1_455 S
C3532 H3528 0.949 . S
C3532 C3540 1.574 . S
C3532 C3548 1.368 . S
H3533 C3541 0.950 . S
H3534 C3539 0.960 . S
H3535 C3540 0.949 . S
H3536 C3542 0.950 . S
H3537 C3543 0.950 . S
H3538 C3544 0.949 1_655 S
C3539 H3534 0.960 . S
C3539 C3541 1.327 . S
C3539 C3545 1.429 . S
C3540 C3532 1.574 . S
C3540 H3535 0.949 . S
C3540 C3546 1.368 . S
C3541 C3525 1.349 . S
C3541 H3533 0.950 . S
C3541 C3539 1.327 . S
C3542 C3530 1.349 . S
C3542 H3536 0.950 . S
C3542 C3543 1.327 . S
C3543 H3537 0.950 . S
C3543 C3542 1.327 . S
C3543 C3547 1.429 . S
C3544 C3527 1.574 . S
C3544 H3538 0.949 1_455 S
C3544 C3548 1.368 . S
C3545 C3526 1.429 . S
C3545 C3539 1.429 . S
C3545 C3546 1.523 . S
C3546 C3527 1.368 . S
C3546 C3540 1.368 . S
C3546 C3545 1.523 . S
C3547 C3531 1.429 . S
C3547 C3543 1.429 . S
C3547 C3548 1.523 . S
C3548 C3532 1.368 . S
C3548 C3544 1.368 . S
C3548 C3547 1.523 . S
H3549 C3524 0.950 . S
H3550 C3526 0.950 . S
H3551 C3527 0.936 1_655 S
H3552 C3529 0.950 1_655 S
H3553 C3531 0.950 1_655 S
C3554 C3555 1.349 . S
C3554 C3556 1.327 . S
C3554 H3579 0.950 . S
C3555 C3554 1.349 . S
C3555 C3571 1.349 . S
C3556 C3554 1.327 . S
C3556 C3575 1.429 . S
C3556 H3580 0.950 . S
C3557 C3574 1.574 . S
C3557 C3576 1.368 . S
C3557 H3581 0.949 . S
H3558 C3562 0.949 . S
C3559 C3560 1.349 . S
C3559 C3561 1.327 . S
C3559 H3582 0.950 . S
C3560 C3559 1.349 . S
C3560 C3572 1.349 . S
C3561 C3559 1.327 . S
C3561 C3577 1.429 . S
C3561 H3583 0.950 . S
C3562 H3558 0.949 . S
C3562 C3570 1.574 . S
C3562 C3578 1.368 . S
H3563 C3571 0.950 . S
H3564 C3569 0.950 . S
H3565 C3570 0.949 . S
H3566 C3572 0.950 . S
H3567 C3573 0.950 . S
H3568 C3574 0.949 . S
C3569 H3564 0.950 . S
C3569 C3571 1.327 . S
C3569 C3575 1.429 . S
C3570 C3562 1.574 . S
C3570 H3565 0.949 . S
C3570 C3576 1.368 . S
C3571 C3555 1.349 . S
C3571 H3563 0.950 . S
C3571 C3569 1.327 . S
C3572 C3560 1.349 . S
C3572 H3566 0.950 . S
C3572 C3573 1.327 . S
C3573 H3567 0.950 . S
C3573 C3572 1.327 . S
C3573 C3577 1.429 . S
C3574 C3557 1.574 . S
C3574 H3568 0.949 . S
C3574 C3578 1.368 . S
C3575 C3556 1.429 . S
C3575 C3569 1.429 . S
C3575 C3576 1.523 . S
C3576 C3557 1.368 . S
C3576 C3570 1.368 . S
C3576 C3575 1.523 . S
C3577 C3561 1.429 . S
C3577 C3573 1.429 . S
C3577 C3578 1.523 . S
C3578 C3562 1.368 . S
C3578 C3574 1.368 . S
C3578 C3577 1.523 . S
H3579 C3554 0.950 . S
H3580 C3556 0.950 . S
H3581 C3557 0.949 . S
H3582 C3559 0.950 . S
H3583 C3561 0.950 . S
C3584 C3585 1.349 . S
C3584 C3586 1.327 . S
C3584 H3609 0.950 . S
C3585 C3584 1.349 . S
C3585 C3601 1.349 . S
C3586 C3584 1.327 . S
C3586 C3605 1.429 . S
C3586 H3610 0.950 . S
C3587 C3604 1.574 . S
C3587 C3606 1.368 . S
C3587 H3611 0.949 . S
H3588 C3592 0.949 . S
C3589 C3590 1.349 . S
C3589 C3591 1.327 . S
C3589 H3612 0.950 . S
C3590 C3589 1.349 . S
C3590 C3602 1.349 . S
C3591 C3589 1.327 . S
C3591 C3607 1.429 . S
C3591 H3613 0.950 . S
C3592 H3588 0.949 . S
C3592 C3600 1.574 . S
C3592 C3608 1.368 . S
H3593 C3601 0.950 . S
H3594 C3599 0.950 . S
H3595 C3600 0.949 . S
H3596 C3602 0.950 . S
H3597 C3603 0.950 . S
H3598 C3604 0.949 . S
C3599 H3594 0.950 . S
C3599 C3601 1.327 . S
C3599 C3605 1.429 . S
C3600 C3592 1.574 . S
C3600 H3595 0.949 . S
C3600 C3606 1.368 . S
C3601 C3585 1.349 . S
C3601 H3593 0.950 . S
C3601 C3599 1.327 . S
C3602 C3590 1.349 . S
C3602 H3596 0.950 . S
C3602 C3603 1.327 . S
C3603 H3597 0.950 . S
C3603 C3602 1.327 . S
C3603 C3607 1.429 . S
C3604 C3587 1.574 . S
C3604 H3598 0.949 . S
C3604 C3608 1.368 . S
C3605 C3586 1.429 . S
C3605 C3599 1.429 . S
C3605 C3606 1.523 . S
C3606 C3587 1.368 . S
C3606 C3600 1.368 . S
C3606 C3605 1.523 . S
C3607 C3591 1.429 . S
C3607 C3603 1.429 . S
C3607 C3608 1.523 . S
C3608 C3592 1.368 . S
C3608 C3604 1.368 . S
C3608 C3607 1.523 . S
H3609 C3584 0.950 . S
H3610 C3586 0.950 . S
H3611 C3587 0.949 . S
H3612 C3589 0.950 . S
H3613 C3591 0.950 . S
C3614 C3615 1.349 . S
C3614 C3616 1.327 . S
C3614 H3639 0.950 . S
C3615 C3614 1.349 . S
C3615 C3631 1.349 . S
C3616 C3614 1.327 . S
C3616 C3635 1.429 . S
C3616 H3640 0.950 . S
C3617 C3634 1.574 . S
C3617 C3636 1.368 . S
C3617 H3641 0.949 . S
H3618 C3622 0.949 . S
C3619 C3620 1.349 . S
C3619 C3621 1.327 . S
C3619 H3642 0.950 . S
C3620 C3619 1.349 . S
C3620 C3632 1.349 . S
C3621 C3619 1.327 . S
C3621 C3637 1.429 . S
C3621 H3643 0.950 . S
C3622 H3618 0.949 . S
C3622 C3630 1.574 . S
C3622 C3638 1.368 . S
H3623 C3631 0.950 . S
H3624 C3629 0.950 . S
H3625 C3630 0.949 . S
H3626 C3632 0.950 . S
H3627 C3633 0.950 . S
H3628 C3634 0.949 . S
C3629 H3624 0.950 . S
C3629 C3631 1.327 . S
C3629 C3635 1.429 . S
C3630 C3622 1.574 . S
C3630 H3625 0.949 . S
C3630 C3636 1.368 . S
C3631 C3615 1.349 . S
C3631 H3623 0.950 . S
C3631 C3629 1.327 . S
C3632 C3620 1.349 . S
C3632 H3626 0.950 . S
C3632 C3633 1.327 . S
C3633 H3627 0.950 . S
C3633 C3632 1.327 . S
C3633 C3637 1.429 . S
C3634 C3617 1.574 . S
C3634 H3628 0.949 . S
C3634 C3638 1.368 . S
C3635 C3616 1.429 . S
C3635 C3629 1.429 . S
C3635 C3636 1.523 . S
C3636 C3617 1.368 . S
C3636 C3630 1.368 . S
C3636 C3635 1.523 . S
C3637 C3621 1.429 . S
C3637 C3633 1.429 . S
C3637 C3638 1.523 . S
C3638 C3622 1.368 . S
C3638 C3634 1.368 . S
C3638 C3637 1.523 . S
H3639 C3614 0.950 . S
H3640 C3616 0.950 . S
H3641 C3617 0.949 . S
H3642 C3619 0.950 . S
H3643 C3621 0.950 . S
C3644 C3645 1.349 . S
C3644 C3646 1.327 . S
C3644 H3669 0.950 . S
C3645 C3644 1.349 . S
C3645 C3661 1.349 . S
C3646 C3644 1.327 . S
C3646 C3665 1.429 . S
C3646 H3670 0.950 . S
C3647 C3664 1.574 . S
C3647 C3666 1.368 . S
C3647 H3671 0.949 . S
H3648 C3652 0.949 . S
C3649 C3650 1.349 . S
C3649 C3651 1.327 . S
C3649 H3672 0.950 . S
C3650 C3649 1.349 . S
C3650 C3662 1.349 . S
C3651 C3649 1.327 . S
C3651 C3667 1.429 . S
C3651 H3673 0.950 . S
C3652 H3648 0.949 . S
C3652 C3660 1.574 . S
C3652 C3668 1.368 . S
H3653 C3661 0.950 . S
H3654 C3659 0.950 . S
H3655 C3660 0.949 . S
H3656 C3662 0.949 1_455 S
H3657 C3663 0.950 . S
H3658 C3664 0.949 . S
C3659 H3654 0.950 . S
C3659 C3661 1.327 . S
C3659 C3665 1.429 . S
C3660 C3652 1.574 . S
C3660 H3655 0.949 . S
C3660 C3666 1.368 . S
C3661 C3645 1.349 . S
C3661 H3653 0.950 . S
C3661 C3659 1.327 . S
C3662 C3650 1.349 . S
C3662 H3656 0.949 1_655 S
C3662 C3663 1.327 . S
C3663 H3657 0.950 . S
C3663 C3662 1.327 . S
C3663 C3667 1.429 . S
C3664 C3647 1.574 . S
C3664 H3658 0.949 . S
C3664 C3668 1.368 . S
C3665 C3646 1.429 . S
C3665 C3659 1.429 . S
C3665 C3666 1.523 . S
C3666 C3647 1.368 . S
C3666 C3660 1.368 . S
C3666 C3665 1.523 . S
C3667 C3651 1.429 . S
C3667 C3663 1.429 . S
C3667 C3668 1.523 . S
C3668 C3652 1.368 . S
C3668 C3664 1.368 . S
C3668 C3667 1.523 . S
H3669 C3644 0.950 . S
H3670 C3646 0.950 . S
H3671 C3647 0.949 . S
H3672 C3649 0.950 . S
H3673 C3651 0.950 . S
C3674 C3675 1.349 . S
C3674 C3676 1.327 . S
C3674 H3699 0.950 . S
C3675 C3674 1.349 . S
C3675 C3691 1.349 . S
C3676 C3674 1.327 . S
C3676 C3695 1.429 . S
C3676 H3700 0.950 . S
C3677 C3694 1.574 . S
C3677 C3696 1.368 . S
C3677 H3701 0.949 . S
H3678 C3682 0.949 . S
C3679 C3680 1.349 . S
C3679 C3681 1.327 . S
C3679 H3702 0.950 . S
C3680 C3679 1.349 . S
C3680 C3692 1.349 . S
C3681 C3679 1.327 . S
C3681 C3697 1.429 . S
C3681 H3703 0.950 . S
C3682 H3678 0.949 . S
C3682 C3690 1.574 . S
C3682 C3698 1.368 . S
H3683 C3691 0.950 . S
H3684 C3689 0.950 . S
H3685 C3690 0.949 . S
H3686 C3692 0.950 . S
H3687 C3693 0.950 . S
H3688 C3694 0.949 . S
C3689 H3684 0.950 . S
C3689 C3691 1.327 . S
C3689 C3695 1.429 . S
C3690 C3682 1.574 . S
C3690 H3685 0.949 . S
C3690 C3696 1.368 . S
C3691 C3675 1.349 . S
C3691 H3683 0.950 . S
C3691 C3689 1.327 . S
C3692 C3680 1.349 . S
C3692 H3686 0.950 . S
C3692 C3693 1.327 . S
C3693 H3687 0.950 . S
C3693 C3692 1.327 . S
C3693 C3697 1.429 . S
C3694 C3677 1.574 . S
C3694 H3688 0.949 . S
C3694 C3698 1.368 . S
C3695 C3676 1.429 . S
C3695 C3689 1.429 . S
C3695 C3696 1.523 . S
C3696 C3677 1.368 . S
C3696 C3690 1.368 . S
C3696 C3695 1.523 . S
C3697 C3681 1.429 . S
C3697 C3693 1.429 . S
C3697 C3698 1.523 . S
C3698 C3682 1.368 . S
C3698 C3694 1.368 . S
C3698 C3697 1.523 . S
H3699 C3674 0.950 . S
H3700 C3676 0.950 . S
H3701 C3677 0.949 . S
H3702 C3679 0.950 . S
H3703 C3681 0.950 . S
C3704 C3705 1.349 . S
C3704 C3706 1.327 . S
C3704 H3729 0.950 . S
C3705 C3704 1.349 . S
C3705 C3721 1.349 . S
C3706 C3704 1.327 . S
C3706 C3725 1.429 . S
C3706 H3730 0.950 . S
C3707 C3724 1.574 . S
C3707 C3726 1.368 . S
C3707 H3731 0.949 . S
H3708 C3712 0.949 . S
C3709 C3710 1.349 . S
C3709 C3711 1.327 . S
C3709 H3732 0.950 . S
C3710 C3709 1.349 . S
C3710 C3722 1.349 . S
C3711 C3709 1.327 . S
C3711 C3727 1.429 . S
C3711 H3733 0.950 . S
C3712 H3708 0.949 . S
C3712 C3720 1.574 . S
C3712 C3728 1.368 . S
H3713 C3721 0.950 . S
H3714 C3719 0.950 . S
H3715 C3720 0.949 . S
H3716 C3722 0.950 . S
H3717 C3723 0.950 . S
H3718 C3724 0.949 . S
C3719 H3714 0.950 . S
C3719 C3721 1.327 . S
C3719 C3725 1.429 . S
C3720 C3712 1.574 . S
C3720 H3715 0.949 . S
C3720 C3726 1.368 . S
C3721 C3705 1.349 . S
C3721 H3713 0.950 . S
C3721 C3719 1.327 . S
C3722 C3710 1.349 . S
C3722 H3716 0.950 . S
C3722 C3723 1.327 . S
C3723 H3717 0.950 . S
C3723 C3722 1.327 . S
C3723 C3727 1.429 . S
C3724 C3707 1.574 . S
C3724 H3718 0.949 . S
C3724 C3728 1.368 . S
C3725 C3706 1.429 . S
C3725 C3719 1.429 . S
C3725 C3726 1.523 . S
C3726 C3707 1.368 . S
C3726 C3720 1.368 . S
C3726 C3725 1.523 . S
C3727 C3711 1.429 . S
C3727 C3723 1.429 . S
C3727 C3728 1.523 . S
C3728 C3712 1.368 . S
C3728 C3724 1.368 . S
C3728 C3727 1.523 . S
H3729 C3704 0.950 . S
H3730 C3706 0.950 . S
H3731 C3707 0.949 . S
H3732 C3709 0.950 . S
H3733 C3711 0.950 . S
C3734 C3735 1.349 . S
C3734 C3736 1.327 . S
C3734 H3759 0.950 . S
C3735 C3734 1.349 . S
C3735 C3751 1.349 . S
C3736 C3734 1.327 . S
C3736 C3755 1.429 . S
C3736 H3760 0.950 . S
C3737 C3754 1.574 . S
C3737 C3756 1.368 . S
C3737 H3761 0.949 . S
H3738 C3742 0.949 . S
C3739 C3740 1.349 . S
C3739 C3741 1.327 . S
C3739 H3762 0.950 . S
C3740 C3739 1.349 . S
C3740 C3752 1.349 . S
C3741 C3739 1.327 . S
C3741 C3757 1.429 . S
C3741 H3763 0.950 . S
C3742 H3738 0.949 . S
C3742 C3750 1.574 . S
C3742 C3758 1.368 . S
H3743 C3751 0.950 . S
H3744 C3749 0.950 . S
H3745 C3750 0.949 . S
H3746 C3752 0.950 . S
H3747 C3753 0.950 . S
H3748 C3754 0.949 . S
C3749 H3744 0.950 . S
C3749 C3751 1.327 . S
C3749 C3755 1.429 . S
C3750 C3742 1.574 . S
C3750 H3745 0.949 . S
C3750 C3756 1.368 . S
C3751 C3735 1.349 . S
C3751 H3743 0.950 . S
C3751 C3749 1.327 . S
C3752 C3740 1.349 . S
C3752 H3746 0.950 . S
C3752 C3753 1.327 . S
C3753 H3747 0.950 . S
C3753 C3752 1.327 . S
C3753 C3757 1.429 . S
C3754 C3737 1.574 . S
C3754 H3748 0.949 . S
C3754 C3758 1.368 . S
C3755 C3736 1.429 . S
C3755 C3749 1.429 . S
C3755 C3756 1.523 . S
C3756 C3737 1.368 . S
C3756 C3750 1.368 . S
C3756 C3755 1.523 . S
C3757 C3741 1.429 . S
C3757 C3753 1.429 . S
C3757 C3758 1.523 . S
C3758 C3742 1.368 . S
C3758 C3754 1.368 . S
C3758 C3757 1.523 . S
H3759 C3734 0.950 . S
H3760 C3736 0.950 . S
H3761 C3737 0.949 . S
H3762 C3739 0.950 . S
H3763 C3741 0.950 . S
C3764 C3765 1.349 . S
C3764 C3766 1.327 . S
C3764 H3789 0.950 . S
C3765 C3764 1.349 . S
C3765 C3781 1.349 . S
C3766 C3764 1.327 . S
C3766 C3785 1.429 . S
C3766 H3790 0.950 . S
C3767 C3784 1.574 . S
C3767 C3786 1.368 . S
C3767 H3791 0.949 . S
H3768 C3772 0.949 . S
C3769 C3770 1.349 . S
C3769 C3771 1.327 . S
C3769 H3792 0.950 . S
C3770 C3769 1.349 . S
C3770 C3782 1.349 . S
C3771 C3769 1.327 . S
C3771 C3787 1.429 . S
C3771 H3793 0.950 . S
C3772 H3768 0.949 . S
C3772 C3780 1.574 . S
C3772 C3788 1.368 . S
H3773 C3781 0.950 . S
H3774 C3779 0.950 . S
H3775 C3780 0.949 . S
H3776 C3782 0.950 1_455 S
H3777 C3783 0.950 . S
H3778 C3784 0.949 . S
C3779 H3774 0.950 . S
C3779 C3781 1.327 . S
C3779 C3785 1.429 . S
C3780 C3772 1.574 . S
C3780 H3775 0.949 . S
C3780 C3786 1.368 . S
C3781 C3765 1.349 . S
C3781 H3773 0.950 . S
C3781 C3779 1.327 . S
C3782 C3770 1.349 . S
C3782 H3776 0.950 1_655 S
C3782 C3783 1.327 . S
C3783 H3777 0.950 . S
C3783 C3782 1.327 . S
C3783 C3787 1.429 . S
C3784 C3767 1.574 . S
C3784 H3778 0.949 . S
C3784 C3788 1.368 . S
C3785 C3766 1.429 . S
C3785 C3779 1.429 . S
C3785 C3786 1.523 . S
C3786 C3767 1.368 . S
C3786 C3780 1.368 . S
C3786 C3785 1.523 . S
C3787 C3771 1.429 . S
C3787 C3783 1.429 . S
C3787 C3788 1.523 . S
C3788 C3772 1.368 . S
C3788 C3784 1.368 . S
C3788 C3787 1.523 . S
H3789 C3764 0.950 . S
H3790 C3766 0.950 . S
H3791 C3767 0.949 . S
H3792 C3769 0.950 . S
H3793 C3771 0.950 . S
C3794 C3795 1.349 . S
C3794 C3796 1.327 . S
C3794 H3819 0.950 . S
C3795 C3794 1.349 . S
C3795 C3811 1.349 . S
C3796 C3794 1.327 . S
C3796 C3815 1.429 . S
C3796 H3820 0.950 . S
C3797 C3814 1.574 . S
C3797 C3816 1.368 . S
C3797 H3821 0.949 . S
H3798 C3802 0.949 . S
C3799 C3800 1.349 . S
C3799 C3801 1.327 . S
C3799 H3822 0.950 . S
C3800 C3799 1.349 . S
C3800 C3812 1.349 . S
C3801 C3799 1.327 . S
C3801 C3817 1.429 . S
C3801 H3823 0.950 . S
C3802 H3798 0.949 . S
C3802 C3810 1.574 . S
C3802 C3818 1.368 . S
H3803 C3811 0.950 . S
H3804 C3809 0.950 . S
H3805 C3810 0.949 . S
H3806 C3812 0.950 . S
H3807 C3813 0.950 . S
H3808 C3814 0.949 . S
C3809 H3804 0.950 . S
C3809 C3811 1.327 . S
C3809 C3815 1.429 . S
C3810 C3802 1.574 . S
C3810 H3805 0.949 . S
C3810 C3816 1.368 . S
C3811 C3795 1.349 . S
C3811 H3803 0.950 . S
C3811 C3809 1.327 . S
C3812 C3800 1.349 . S
C3812 H3806 0.950 . S
C3812 C3813 1.327 . S
C3813 H3807 0.950 . S
C3813 C3812 1.327 . S
C3813 C3817 1.429 . S
C3814 C3797 1.574 . S
C3814 H3808 0.949 . S
C3814 C3818 1.368 . S
C3815 C3796 1.429 . S
C3815 C3809 1.429 . S
C3815 C3816 1.523 . S
C3816 C3797 1.368 . S
C3816 C3810 1.368 . S
C3816 C3815 1.523 . S
C3817 C3801 1.429 . S
C3817 C3813 1.429 . S
C3817 C3818 1.523 . S
C3818 C3802 1.368 . S
C3818 C3814 1.368 . S
C3818 C3817 1.523 . S
H3819 C3794 0.950 . S
H3820 C3796 0.950 . S
H3821 C3797 0.949 . S
H3822 C3799 0.950 . S
H3823 C3801 0.950 . S
C3824 C3825 1.349 . S
C3824 C3826 1.327 . S
C3824 H3849 0.950 . S
C3825 C3824 1.349 . S
C3825 C3841 1.349 . S
C3826 C3824 1.327 . S
C3826 C3845 1.429 . S
C3826 H3850 0.950 . S
C3827 C3844 1.574 . S
C3827 C3846 1.368 . S
C3827 H3851 0.949 . S
H3828 C3832 0.949 . S
C3829 C3830 1.349 . S
C3829 C3831 1.327 . S
C3829 H3852 0.950 . S
C3830 C3829 1.349 . S
C3830 C3842 1.349 . S
C3831 C3829 1.327 . S
C3831 C3847 1.429 . S
C3831 H3853 0.950 . S
C3832 H3828 0.949 . S
C3832 C3840 1.574 . S
C3832 C3848 1.368 . S
H3833 C3841 0.950 . S
H3834 C3839 0.950 . S
H3835 C3840 0.949 . S
H3836 C3842 0.950 . S
H3837 C3843 0.950 . S
H3838 C3844 0.949 . S
C3839 H3834 0.950 . S
C3839 C3841 1.327 . S
C3839 C3845 1.429 . S
C3840 C3832 1.574 . S
C3840 H3835 0.949 . S
C3840 C3846 1.368 . S
C3841 C3825 1.349 . S
C3841 H3833 0.950 . S
C3841 C3839 1.327 . S
C3842 C3830 1.349 . S
C3842 H3836 0.950 . S
C3842 C3843 1.327 . S
C3843 H3837 0.950 . S
C3843 C3842 1.327 . S
C3843 C3847 1.429 . S
C3844 C3827 1.574 . S
C3844 H3838 0.949 . S
C3844 C3848 1.368 . S
C3845 C3826 1.429 . S
C3845 C3839 1.429 . S
C3845 C3846 1.523 . S
C3846 C3827 1.368 . S
C3846 C3840 1.368 . S
C3846 C3845 1.523 . S
C3847 C3831 1.429 . S
C3847 C3843 1.429 . S
C3847 C3848 1.523 . S
C3848 C3832 1.368 . S
C3848 C3844 1.368 . S
C3848 C3847 1.523 . S
H3849 C3824 0.950 . S
H3850 C3826 0.950 . S
H3851 C3827 0.949 . S
H3852 C3829 0.950 . S
H3853 C3831 0.950 . S
C3854 C3855 1.349 . S
C3854 C3856 1.327 . S
C3854 H3879 0.950 . S
C3855 C3854 1.349 . S
C3855 C3871 1.349 . S
C3856 C3854 1.327 . S
C3856 C3875 1.429 . S
C3856 H3880 0.950 . S
C3857 C3874 1.574 . S
C3857 C3876 1.368 . S
C3857 H3881 0.949 . S
H3858 C3862 0.949 . S
C3859 C3860 1.349 . S
C3859 C3861 1.327 . S
C3859 H3882 0.950 . S
C3860 C3859 1.349 . S
C3860 C3872 1.349 . S
C3861 C3859 1.327 . S
C3861 C3877 1.429 . S
C3861 H3883 0.950 . S
C3862 H3858 0.949 . S
C3862 C3870 1.574 . S
C3862 C3878 1.368 . S
H3863 C3871 0.950 . S
H3864 C3869 0.950 . S
H3865 C3870 0.949 . S
H3866 C3872 0.950 . S
H3867 C3873 0.950 . S
H3868 C3874 0.949 . S
C3869 H3864 0.950 . S
C3869 C3871 1.327 . S
C3869 C3875 1.429 . S
C3870 C3862 1.574 . S
C3870 H3865 0.949 . S
C3870 C3876 1.368 . S
C3871 C3855 1.349 . S
C3871 H3863 0.950 . S
C3871 C3869 1.327 . S
C3872 C3860 1.349 . S
C3872 H3866 0.950 . S
C3872 C3873 1.327 . S
C3873 H3867 0.950 . S
C3873 C3872 1.327 . S
C3873 C3877 1.429 . S
C3874 C3857 1.574 . S
C3874 H3868 0.949 . S
C3874 C3878 1.368 . S
C3875 C3856 1.429 . S
C3875 C3869 1.429 . S
C3875 C3876 1.523 . S
C3876 C3857 1.368 . S
C3876 C3870 1.368 . S
C3876 C3875 1.523 . S
C3877 C3861 1.429 . S
C3877 C3873 1.429 . S
C3877 C3878 1.523 . S
C3878 C3862 1.368 . S
C3878 C3874 1.368 . S
C3878 C3877 1.523 . S
H3879 C3854 0.950 . S
H3880 C3856 0.950 . S
H3881 C3857 0.949 . S
H3882 C3859 0.950 . S
H3883 C3861 0.950 . S
C3884 C3885 1.349 . S
C3884 C3886 1.327 . S
C3884 H3909 0.950 . S
C3885 C3884 1.349 . S
C3885 C3901 1.349 . S
C3886 C3884 1.327 . S
C3886 C3905 1.429 . S
C3886 H3910 0.950 . S
C3887 C3904 1.574 . S
C3887 C3906 1.368 . S
C3887 H3911 0.949 . S
H3888 C3892 0.949 . S
C3889 C3890 1.349 . S
C3889 C3891 1.327 . S
C3889 H3912 0.950 . S
C3890 C3889 1.349 . S
C3890 C3902 1.349 . S
C3891 C3889 1.327 . S
C3891 C3907 1.429 . S
C3891 H3913 0.950 . S
C3892 H3888 0.949 . S
C3892 C3900 1.574 . S
C3892 C3908 1.368 . S
H3893 C3901 0.950 . S
H3894 C3899 0.950 . S
H3895 C3900 0.949 . S
H3896 C3902 0.950 . S
H3897 C3903 0.950 . S
H3898 C3904 0.949 . S
C3899 H3894 0.950 . S
C3899 C3901 1.327 . S
C3899 C3905 1.429 . S
C3900 C3892 1.574 . S
C3900 H3895 0.949 . S
C3900 C3906 1.368 . S
C3901 C3885 1.349 . S
C3901 H3893 0.950 . S
C3901 C3899 1.327 . S
C3902 C3890 1.349 . S
C3902 H3896 0.950 . S
C3902 C3903 1.327 . S
C3903 H3897 0.950 . S
C3903 C3902 1.327 . S
C3903 C3907 1.429 . S
C3904 C3887 1.574 . S
C3904 H3898 0.949 . S
C3904 C3908 1.368 . S
C3905 C3886 1.429 . S
C3905 C3899 1.429 . S
C3905 C3906 1.523 . S
C3906 C3887 1.368 . S
C3906 C3900 1.368 . S
C3906 C3905 1.523 . S
C3907 C3891 1.429 . S
C3907 C3903 1.429 . S
C3907 C3908 1.523 . S
C3908 C3892 1.368 . S
C3908 C3904 1.368 . S
C3908 C3907 1.523 . S
H3909 C3884 0.950 . S
H3910 C3886 0.950 . S
H3911 C3887 0.949 . S
H3912 C3889 0.950 . S
H3913 C3891 0.950 . S
C3914 C3915 1.349 . S
C3914 C3916 1.327 . S
C3914 H3939 0.950 . S
C3915 C3914 1.349 . S
C3915 C3931 1.349 . S
C3916 C3914 1.327 . S
C3916 C3935 1.429 . S
C3916 H3940 0.950 . S
C3917 C3934 1.574 . S
C3917 C3936 1.368 . S
C3917 H3941 0.949 . S
H3918 C3922 0.949 . S
C3919 C3920 1.349 . S
C3919 C3921 1.327 . S
C3919 H3942 0.950 . S
C3920 C3919 1.349 . S
C3920 C3932 1.349 . S
C3921 C3919 1.327 . S
C3921 C3937 1.429 . S
C3921 H3943 0.950 . S
C3922 H3918 0.949 . S
C3922 C3930 1.574 . S
C3922 C3938 1.368 . S
H3923 C3931 0.950 . S
H3924 C3929 0.950 . S
H3925 C3930 0.949 . S
H3926 C3932 0.950 . S
H3927 C3933 0.950 . S
H3928 C3934 0.949 . S
C3929 H3924 0.950 . S
C3929 C3931 1.327 . S
C3929 C3935 1.429 . S
C3930 C3922 1.574 . S
C3930 H3925 0.949 . S
C3930 C3936 1.368 . S
C3931 C3915 1.349 . S
C3931 H3923 0.950 . S
C3931 C3929 1.327 . S
C3932 C3920 1.349 . S
C3932 H3926 0.950 . S
C3932 C3933 1.327 . S
C3933 H3927 0.950 . S
C3933 C3932 1.327 . S
C3933 C3937 1.429 . S
C3934 C3917 1.574 . S
C3934 H3928 0.949 . S
C3934 C3938 1.368 . S
C3935 C3916 1.429 . S
C3935 C3929 1.429 . S
C3935 C3936 1.523 . S
C3936 C3917 1.368 . S
C3936 C3930 1.368 . S
C3936 C3935 1.523 . S
C3937 C3921 1.429 . S
C3937 C3933 1.429 . S
C3937 C3938 1.523 . S
C3938 C3922 1.368 . S
C3938 C3934 1.368 . S
C3938 C3937 1.523 . S
H3939 C3914 0.950 . S
H3940 C3916 0.950 . S
H3941 C3917 0.949 . S
H3942 C3919 0.950 . S
H3943 C3921 0.950 . S
C3944 C3945 1.349 . S
C3944 C3946 1.327 . S
C3944 H3969 0.950 . S
C3945 C3944 1.349 . S
C3945 C3961 1.349 . S
C3946 C3944 1.327 . S
C3946 C3965 1.429 . S
C3946 H3970 0.950 . S
C3947 C3964 1.574 . S
C3947 C3966 1.368 . S
C3947 H3971 0.949 . S
H3948 C3952 0.949 . S
C3949 C3950 1.349 . S
C3949 C3951 1.327 . S
C3949 H3972 0.950 . S
C3950 C3949 1.349 . S
C3950 C3962 1.349 . S
C3951 C3949 1.327 . S
C3951 C3967 1.429 . S
C3951 H3973 0.950 . S
C3952 H3948 0.949 . S
C3952 C3960 1.574 . S
C3952 C3968 1.368 . S
H3953 C3961 0.950 . S
H3954 C3959 0.950 . S
H3955 C3960 0.949 . S
H3956 C3962 0.950 . S
H3957 C3963 0.950 . S
H3958 C3964 0.949 . S
C3959 H3954 0.950 . S
C3959 C3961 1.327 . S
C3959 C3965 1.429 . S
C3960 C3952 1.574 . S
C3960 H3955 0.949 . S
C3960 C3966 1.368 . S
C3961 C3945 1.349 . S
C3961 H3953 0.950 . S
C3961 C3959 1.327 . S
C3962 C3950 1.349 . S
C3962 H3956 0.950 . S
C3962 C3963 1.327 . S
C3963 H3957 0.950 . S
C3963 C3962 1.327 . S
C3963 C3967 1.429 . S
C3964 C3947 1.574 . S
C3964 H3958 0.949 . S
C3964 C3968 1.368 . S
C3965 C3946 1.429 . S
C3965 C3959 1.429 . S
C3965 C3966 1.523 . S
C3966 C3947 1.368 . S
C3966 C3960 1.368 . S
C3966 C3965 1.523 . S
C3967 C3951 1.429 . S
C3967 C3963 1.429 . S
C3967 C3968 1.523 . S
C3968 C3952 1.368 . S
C3968 C3964 1.368 . S
C3968 C3967 1.523 . S
H3969 C3944 0.950 . S
H3970 C3946 0.950 . S
H3971 C3947 0.949 . S
H3972 C3949 0.950 . S
H3973 C3951 0.950 . S
C3974 C3975 1.349 . S
C3974 C3976 1.327 . S
C3974 H3999 0.950 . S
C3975 C3974 1.349 . S
C3975 C3991 1.349 . S
C3976 C3974 1.327 . S
C3976 C3995 1.429 . S
C3976 H4000 0.950 . S
C3977 C3994 1.574 . S
C3977 C3996 1.368 . S
C3977 H4001 0.949 1_554 S
H3978 C3982 0.949 . S
C3979 C3980 1.349 1_556 S
C3979 C3981 1.327 . S
C3979 H4002 0.950 . S
C3980 C3979 1.349 1_554 S
C3980 C3992 1.349 . S
C3981 C3979 1.327 . S
C3981 C3997 1.429 1_556 S
C3981 H4003 0.950 . S
C3982 H3978 0.949 . S
C3982 C3990 1.574 . S
C3982 C3998 1.368 . S
H3983 C3991 0.950 . S
H3984 C3989 0.950 1_556 S
H3985 C3990 0.949 . S
H3986 C3992 0.950 . S
H3987 C3993 0.950 . S
H3988 C3994 0.949 1_556 S
C3989 H3984 0.950 1_554 S
C3989 C3991 1.327 . S
C3989 C3995 1.429 . S
C3990 C3982 1.574 . S
C3990 H3985 0.949 . S
C3990 C3996 1.368 . S
C3991 C3975 1.349 . S
C3991 H3983 0.950 . S
C3991 C3989 1.327 . S
C3992 C3980 1.349 . S
C3992 H3986 0.950 . S
C3992 C3993 1.327 . S
C3993 H3987 0.950 . S
C3993 C3992 1.327 . S
C3993 C3997 1.429 . S
C3994 C3977 1.574 . S
C3994 H3988 0.949 1_554 S
C3994 C3998 1.368 . S
C3995 C3976 1.429 . S
C3995 C3989 1.429 . S
C3995 C3996 1.523 . S
C3996 C3977 1.368 . S
C3996 C3990 1.368 . S
C3996 C3995 1.523 . S
C3997 C3981 1.429 1_554 S
C3997 C3993 1.429 . S
C3997 C3998 1.523 . S
C3998 C3982 1.368 . S
C3998 C3994 1.368 . S
C3998 C3997 1.523 . S
H3999 C3974 0.950 . S
H4000 C3976 0.950 . S
H4001 C3977 0.949 1_556 S
H4002 C3979 0.950 . S
H4003 C3981 0.950 . S
C4004 C4005 1.349 . S
C4004 C4006 1.327 . S
C4004 H4029 0.950 . S
C4005 C4004 1.349 . S
C4005 C4021 1.349 . S
C4006 C4004 1.327 . S
C4006 C4025 1.429 . S
C4006 H4030 0.950 . S
C4007 C4024 1.574 . S
C4007 C4026 1.368 . S
C4007 H4031 0.949 . S
H4008 C4012 0.949 . S
C4009 C4010 1.349 . S
C4009 C4011 1.327 . S
C4009 H4032 0.950 . S
C4010 C4009 1.349 . S
C4010 C4022 1.349 . S
C4011 C4009 1.327 . S
C4011 C4027 1.429 . S
C4011 H4033 0.950 . S
C4012 H4008 0.949 . S
C4012 C4020 1.574 . S
C4012 C4028 1.368 . S
H4013 C4021 0.950 . S
H4014 C4019 0.950 . S
H4015 C4020 0.949 . S
H4016 C4022 0.950 . S
H4017 C4023 0.950 . S
H4018 C4024 0.949 . S
C4019 H4014 0.950 . S
C4019 C4021 1.327 . S
C4019 C4025 1.429 . S
C4020 C4012 1.574 . S
C4020 H4015 0.949 . S
C4020 C4026 1.368 . S
C4021 C4005 1.349 . S
C4021 H4013 0.950 . S
C4021 C4019 1.327 . S
C4022 C4010 1.349 . S
C4022 H4016 0.950 . S
C4022 C4023 1.327 . S
C4023 H4017 0.950 . S
C4023 C4022 1.327 . S
C4023 C4027 1.429 . S
C4024 C4007 1.574 . S
C4024 H4018 0.949 . S
C4024 C4028 1.368 . S
C4025 C4006 1.429 . S
C4025 C4019 1.429 . S
C4025 C4026 1.523 . S
C4026 C4007 1.368 . S
C4026 C4020 1.368 . S
C4026 C4025 1.523 . S
C4027 C4011 1.429 . S
C4027 C4023 1.429 . S
C4027 C4028 1.523 . S
C4028 C4012 1.368 . S
C4028 C4024 1.368 . S
C4028 C4027 1.523 . S
H4029 C4004 0.950 . S
H4030 C4006 0.950 . S
H4031 C4007 0.949 . S
H4032 C4009 0.950 . S
H4033 C4011 0.950 . S
C4034 C4035 1.349 . S
C4034 C4036 1.327 . S
C4034 H4059 0.950 . S
C4035 C4034 1.349 . S
C4035 C4051 1.349 . S
C4036 C4034 1.327 . S
C4036 C4055 1.429 . S
C4036 H4060 0.950 . S
C4037 C4054 1.574 . S
C4037 C4056 1.368 . S
C4037 H4061 0.949 . S
H4038 C4042 0.949 . S
C4039 C4040 1.349 . S
C4039 C4041 1.327 . S
C4039 H4062 0.950 . S
C4040 C4039 1.349 . S
C4040 C4052 1.349 . S
C4041 C4039 1.327 . S
C4041 C4057 1.429 . S
C4041 H4063 0.950 . S
C4042 H4038 0.949 . S
C4042 C4050 1.574 . S
C4042 C4058 1.368 . S
H4043 C4051 0.950 . S
H4044 C4049 0.950 . S
H4045 C4050 0.949 . S
H4046 C4052 0.950 . S
H4047 C4053 0.950 . S
H4048 C4054 0.949 . S
C4049 H4044 0.950 . S
C4049 C4051 1.327 . S
C4049 C4055 1.429 . S
C4050 C4042 1.574 . S
C4050 H4045 0.949 . S
C4050 C4056 1.368 . S
C4051 C4035 1.349 . S
C4051 H4043 0.950 . S
C4051 C4049 1.327 . S
C4052 C4040 1.349 . S
C4052 H4046 0.950 . S
C4052 C4053 1.327 . S
C4053 H4047 0.950 . S
C4053 C4052 1.327 . S
C4053 C4057 1.429 . S
C4054 C4037 1.574 . S
C4054 H4048 0.949 . S
C4054 C4058 1.368 . S
C4055 C4036 1.429 . S
C4055 C4049 1.429 . S
C4055 C4056 1.523 . S
C4056 C4037 1.368 . S
C4056 C4050 1.368 . S
C4056 C4055 1.523 . S
C4057 C4041 1.429 . S
C4057 C4053 1.429 . S
C4057 C4058 1.523 . S
C4058 C4042 1.368 . S
C4058 C4054 1.368 . S
C4058 C4057 1.523 . S
H4059 C4034 0.950 . S
H4060 C4036 0.950 . S
H4061 C4037 0.949 . S
H4062 C4039 0.950 . S
H4063 C4041 0.950 . S
C1185 C255 1.281 . S
C1190 C868 1.146 1_556 S
C1215 C147 1.422 . S
C1220 C903 1.388 . S
C1245 C184 0.936 . S
C1250 C908 0.886 . S
C1280 C933 1.377 . S
C1275 C220 1.450 . S
C1305 C40 1.401 . S
C1310 C953 1.324 . S
C1340 C968 0.948 . S
C1335 C74 1.012 . S
C1370 C1003 1.434 . S
C1365 C110 1.466 . S
C1395 C14 1.220 . S
C1400 C1008 1.111 . S
C1430 C883 1.472 . S
C1425 C579 1.519 . S
C1455 C616 0.949 . S
C1460 C893 0.917 . S
C1490 C923 1.453 . S
C1485 C687 1.491 . S
C1520 C928 1.064 . S
C1515 C436 1.145 . S
C1545 C580 1.120 . S
C1550 C948 1.043 . S
C1580 C983 1.432 . S
C1575 C615 1.472 . S
C1610 C993 0.912 . S
C1605 C688 0.948 . S
C1640 C1023 1.428 . S
C1635 C435 1.490 . S
C1670 C873 1.283 . S
C1665 C410 1.342 . S
C1695 C722 1.791 . S
C1700 C1043 1.761 . S
C1730 C1053 1.458 . S
C1725 C842 1.528 . S
C1760 C1068 0.938 . S
C1755 C794 0.995 . S
C1785 C302 1.365 . S
C1790 C1013 1.288 . S
C1815 C338 1.490 . S
C1820 C913 1.430 . S
C1845 C830 1.826 . S
C1850 C1103 1.803 . S
C1880 C1108 0.974 . S
C1875 C758 1.032 . S
C1910 C866 1.117 . S
C1905 C158 1.197 . S
C1940 C1122 1.371 . S
C1935 C254 1.405 . S
C1965 C218 0.932 . S
C1970 C906 0.879 . S
C1995 C194 1.367 . S
C2000 C1096 1.333 . S
C2030 C956 1.304 . S
C2025 C3 1.381 . S
C2055 C111 0.872 . S
C2060 C1046 0.834 . S
C2090 C1002 1.399 . S
C2085 C76 1.412 . S
C2120 C1126 1.164 . S
C2115 C50 1.243 . S
C2150 C882 1.397 . S
C2145 C364 1.465 . S
C2180 C1116 0.872 . S
C2175 C795 0.905 . S
C2205 C292 1.417 . S
C2210 C922 1.383 . S
C2235 C723 1.086 . S
C2240 C1086 0.996 . S
C2265 C363 1.089 . S
C2270 C946 1.008 . S
C2300 C1062 1.410 . S
C2295 C796 1.441 . S
C2325 C291 0.917 . S
C2330 C996 0.894 . S
C2355 C724 1.486 . S
C2360 C1142 1.426 . S
C2385 C482 1.288 . S
C2390 C876 1.241 1_556 S
C2415 C434 1.761 . S
C2420 C1042 1.738 . S
C2445 C662 1.442 . S
C2450 C976 1.422 . S
C2475 C614 0.980 . S
C2480 C1066 0.924 . S
C2510 C1136 1.279 . S
C2505 C698 1.325 . S
C2535 C554 1.432 . S
C2540 C916 1.407 . S
C2570 C942 1.728 . S
C2565 C650 1.754 . S
C2600 C886 0.926 . S
C2595 C506 0.987 . S
C2625 C183 1.280 . S
C2630 C1148 1.154 . S
C2660 C1123 1.388 . S
C2655 C219 1.423 . S
C2685 C256 0.933 . S
C2690 C1168 0.887 . S
C2715 C148 1.447 . S
C2720 C1093 1.374 . S
C2745 C122 1.430 . S
C2750 C1033 1.391 . S
C2780 C1048 0.888 . S
C2775 C2 0.939 . S
C2810 C1083 1.314 . S
C2805 C39 1.349 . S
C2840 C1128 1.177 . S
C2835 C86 1.290 . S
C2870 C1163 1.475 . S
C2865 C651 1.533 . S
C2895 C472 0.948 . S
C2900 C1113 0.916 . S
C2930 C1183 1.440 . S
C2925 C507 1.479 . S
C2960 C1088 1.069 . S
C2955 C544 1.151 . S
C2990 C1028 1.041 . S
C2985 C652 1.120 . S
C3015 C471 1.452 . S
C3020 C1063 1.410 . S
C3050 C1073 0.906 . S
C3045 C508 0.939 . S
C3075 C543 1.511 . S
C3080 C1143 1.453 . S
C3110 C1153 1.301 . S
C3105 C806 1.363 . S
C3135 C326 1.768 . S
C3140 C963 1.743 . S
C3170 C973 1.437 . S
C3165 C374 1.503 . S
C3200 C988 0.954 . S
C3195 C398 1.017 . S
C3230 C1133 1.291 . S
C3225 C770 1.362 . S
C3255 C734 1.480 1_554 S
C3260 C1173 1.421 . S
C3290 C943 1.794 . S
C3285 C362 1.816 . S
C3320 C888 0.987 . S
C3315 C290 1.047 . S
C3345 C230 1.195 . S
C3350 C1146 1.115 . S
C3380 C902 1.376 . S
C3375 C182 1.411 . S
C3405 C146 0.931 . S
C3410 C1166 0.879 . S
C3435 C266 1.367 . S
C3440 C936 1.333 . S
C3465 C75 1.446 . S
C3470 C1036 1.367 . S
C3500 C966 0.925 . S
C3495 C38 0.988 . S
C3525 C4 1.329 . S
C3530 C1082 1.297 . S
C3555 C112 1.241 . S
C3560 C1006 1.108 . S
C3590 C1162 1.402 . S
C3585 C832 1.469 . S
C3615 C399 0.919 . S
C3620 C896 0.884 . S
C3650 C1182 1.377 1_655 S
C3645 C760 1.412 . S
C3675 C327 1.081 . S
C3680 C926 0.998 . S
C3705 C831 1.118 . S
C3710 C1026 1.032 . S
C3740 C982 1.406 . S
C3735 C400 1.441 . S
C3765 C759 0.924 . S
C3770 C1076 0.889 . S
C3800 C1022 1.431 . S
C3795 C328 1.492 . S
C3830 C1156 1.254 . S
C3825 C626 1.299 . S
C3860 C962 1.737 . S
C3855 C542 1.762 . S
C3885 C590 1.414 . S
C3890 C1056 1.397 . S
C3920 C986 0.927 . S
C3915 C470 0.981 . S
C3945 C518 1.301 . S
C3950 C1016 1.266 . S
C3975 C446 1.421 . S
C3980 C1176 1.396 . S
C4010 C1102 1.739 . S
C4005 C578 1.766 . S
C4040 C1106 0.909 . S
C4035 C686 0.960 . S
