# Generated by pormake.
# Topology gar, (4,6)-cn, num edge types: 1
# Building blocks:
#     Node 0, Type 0, BuildingBlock: TATPOV_clean_sbu_0, # of connection points: 4
#     Node 1, Type 0, BuildingBlock: TATPOV_clean_sbu_0, # of connection points: 4
#     Node 2, Type 0, BuildingBlock: TATPOV_clean_sbu_0, # of connection points: 4
#     Node 3, Type 0, BuildingBlock: TATPOV_clean_sbu_0, # of connection points: 4
#     Node 4, Type 0, BuildingBlock: TATPOV_clean_sbu_0, # of connection points: 4
#     Node 5, Type 0, BuildingBlock: TATPOV_clean_sbu_0, # of connection points: 4
#     Node 6, Type 0, BuildingBlock: TATPOV_clean_sbu_0, # of connection points: 4
#     Node 7, Type 0, BuildingBlock: TATPOV_clean_sbu_0, # of connection points: 4
#     Node 8, Type 0, BuildingBlock: TATPOV_clean_sbu_0, # of connection points: 4
#     Node 9, Type 0, BuildingBlock: TATPOV_clean_sbu_0, # of connection points: 4
#     Node 10, Type 0, BuildingBlock: TATPOV_clean_sbu_0, # of connection points: 4
#     Node 11, Type 0, BuildingBlock: TATPOV_clean_sbu_0, # of connection points: 4
#     Node 12, Type 0, BuildingBlock: TATPOV_clean_sbu_0, # of connection points: 4
#     Node 13, Type 0, BuildingBlock: TATPOV_clean_sbu_0, # of connection points: 4
#     Node 14, Type 0, BuildingBlock: TATPOV_clean_sbu_0, # of connection points: 4
#     Node 15, Type 0, BuildingBlock: TATPOV_clean_sbu_0, # of connection points: 4
#     Node 16, Type 0, BuildingBlock: TATPOV_clean_sbu_0, # of connection points: 4
#     Node 17, Type 0, BuildingBlock: TATPOV_clean_sbu_0, # of connection points: 4
#     Node 18, Type 0, BuildingBlock: TATPOV_clean_sbu_0, # of connection points: 4
#     Node 19, Type 0, BuildingBlock: TATPOV_clean_sbu_0, # of connection points: 4
#     Node 20, Type 0, BuildingBlock: TATPOV_clean_sbu_0, # of connection points: 4
#     Node 21, Type 0, BuildingBlock: TATPOV_clean_sbu_0, # of connection points: 4
#     Node 22, Type 0, BuildingBlock: TATPOV_clean_sbu_0, # of connection points: 4
#     Node 23, Type 0, BuildingBlock: TATPOV_clean_sbu_0, # of connection points: 4
#     Node 24, Type 1, BuildingBlock: MIFKUJ_clean_sbu_0, # of connection points: 6
#     Node 25, Type 1, BuildingBlock: MIFKUJ_clean_sbu_0, # of connection points: 6
#     Node 26, Type 1, BuildingBlock: MIFKUJ_clean_sbu_0, # of connection points: 6
#     Node 27, Type 1, BuildingBlock: MIFKUJ_clean_sbu_0, # of connection points: 6
#     Node 28, Type 1, BuildingBlock: MIFKUJ_clean_sbu_0, # of connection points: 6
#     Node 29, Type 1, BuildingBlock: MIFKUJ_clean_sbu_0, # of connection points: 6
#     Node 30, Type 1, BuildingBlock: MIFKUJ_clean_sbu_0, # of connection points: 6
#     Node 31, Type 1, BuildingBlock: MIFKUJ_clean_sbu_0, # of connection points: 6
#     Node 32, Type 1, BuildingBlock: MIFKUJ_clean_sbu_0, # of connection points: 6
#     Node 33, Type 1, BuildingBlock: MIFKUJ_clean_sbu_0, # of connection points: 6
#     Node 34, Type 1, BuildingBlock: MIFKUJ_clean_sbu_0, # of connection points: 6
#     Node 35, Type 1, BuildingBlock: MIFKUJ_clean_sbu_0, # of connection points: 6
#     Node 36, Type 1, BuildingBlock: MIFKUJ_clean_sbu_0, # of connection points: 6
#     Node 37, Type 1, BuildingBlock: MIFKUJ_clean_sbu_0, # of connection points: 6
#     Node 38, Type 1, BuildingBlock: MIFKUJ_clean_sbu_0, # of connection points: 6
#     Node 39, Type 1, BuildingBlock: MIFKUJ_clean_sbu_0, # of connection points: 6
#     Edge 40, Type (0, 1), BuildingBlock: ZUJKAS_clean_linker_0, # of connection points: 2
#     Edge 41, Type (0, 1), BuildingBlock: ZUJKAS_clean_linker_0, # of connection points: 2
#     Edge 42, Type (0, 1), BuildingBlock: ZUJKAS_clean_linker_0, # of connection points: 2
#     Edge 43, Type (0, 1), BuildingBlock: ZUJKAS_clean_linker_0, # of connection points: 2
#     Edge 44, Type (0, 1), BuildingBlock: ZUJKAS_clean_linker_0, # of connection points: 2
#     Edge 45, Type (0, 1), BuildingBlock: ZUJKAS_clean_linker_0, # of connection points: 2
#     Edge 46, Type (0, 1), BuildingBlock: ZUJKAS_clean_linker_0, # of connection points: 2
#     Edge 47, Type (0, 1), BuildingBlock: ZUJKAS_clean_linker_0, # of connection points: 2
#     Edge 48, Type (0, 1), BuildingBlock: ZUJKAS_clean_linker_0, # of connection points: 2
#     Edge 49, Type (0, 1), BuildingBlock: ZUJKAS_clean_linker_0, # of connection points: 2
#     Edge 50, Type (0, 1), BuildingBlock: ZUJKAS_clean_linker_0, # of connection points: 2
#     Edge 51, Type (0, 1), BuildingBlock: ZUJKAS_clean_linker_0, # of connection points: 2
#     Edge 52, Type (0, 1), BuildingBlock: ZUJKAS_clean_linker_0, # of connection points: 2
#     Edge 53, Type (0, 1), BuildingBlock: ZUJKAS_clean_linker_0, # of connection points: 2
#     Edge 54, Type (0, 1), BuildingBlock: ZUJKAS_clean_linker_0, # of connection points: 2
#     Edge 55, Type (0, 1), BuildingBlock: ZUJKAS_clean_linker_0, # of connection points: 2
#     Edge 56, Type (0, 1), BuildingBlock: ZUJKAS_clean_linker_0, # of connection points: 2
#     Edge 57, Type (0, 1), BuildingBlock: ZUJKAS_clean_linker_0, # of connection points: 2
#     Edge 58, Type (0, 1), BuildingBlock: ZUJKAS_clean_linker_0, # of connection points: 2
#     Edge 59, Type (0, 1), BuildingBlock: ZUJKAS_clean_linker_0, # of connection points: 2
#     Edge 60, Type (0, 1), BuildingBlock: ZUJKAS_clean_linker_0, # of connection points: 2
#     Edge 61, Type (0, 1), BuildingBlock: ZUJKAS_clean_linker_0, # of connection points: 2
#     Edge 62, Type (0, 1), BuildingBlock: ZUJKAS_clean_linker_0, # of connection points: 2
#     Edge 63, Type (0, 1), BuildingBlock: ZUJKAS_clean_linker_0, # of connection points: 2
#     Edge 64, Type (0, 1), BuildingBlock: ZUJKAS_clean_linker_0, # of connection points: 2
#     Edge 65, Type (0, 1), BuildingBlock: ZUJKAS_clean_linker_0, # of connection points: 2
#     Edge 66, Type (0, 1), BuildingBlock: ZUJKAS_clean_linker_0, # of connection points: 2
#     Edge 67, Type (0, 1), BuildingBlock: ZUJKAS_clean_linker_0, # of connection points: 2
#     Edge 68, Type (0, 1), BuildingBlock: ZUJKAS_clean_linker_0, # of connection points: 2
#     Edge 69, Type (0, 1), BuildingBlock: ZUJKAS_clean_linker_0, # of connection points: 2
#     Edge 70, Type (0, 1), BuildingBlock: ZUJKAS_clean_linker_0, # of connection points: 2
#     Edge 71, Type (0, 1), BuildingBlock: ZUJKAS_clean_linker_0, # of connection points: 2
#     Edge 72, Type (0, 1), BuildingBlock: ZUJKAS_clean_linker_0, # of connection points: 2
#     Edge 73, Type (0, 1), BuildingBlock: ZUJKAS_clean_linker_0, # of connection points: 2
#     Edge 74, Type (0, 1), BuildingBlock: ZUJKAS_clean_linker_0, # of connection points: 2
#     Edge 75, Type (0, 1), BuildingBlock: ZUJKAS_clean_linker_0, # of connection points: 2
#     Edge 76, Type (0, 1), BuildingBlock: ZUJKAS_clean_linker_0, # of connection points: 2
#     Edge 77, Type (0, 1), BuildingBlock: ZUJKAS_clean_linker_0, # of connection points: 2
#     Edge 78, Type (0, 1), BuildingBlock: ZUJKAS_clean_linker_0, # of connection points: 2
#     Edge 79, Type (0, 1), BuildingBlock: ZUJKAS_clean_linker_0, # of connection points: 2
#     Edge 80, Type (0, 1), BuildingBlock: ZUJKAS_clean_linker_0, # of connection points: 2
#     Edge 81, Type (0, 1), BuildingBlock: ZUJKAS_clean_linker_0, # of connection points: 2
#     Edge 82, Type (0, 1), BuildingBlock: ZUJKAS_clean_linker_0, # of connection points: 2
#     Edge 83, Type (0, 1), BuildingBlock: ZUJKAS_clean_linker_0, # of connection points: 2
#     Edge 84, Type (0, 1), BuildingBlock: ZUJKAS_clean_linker_0, # of connection points: 2
#     Edge 85, Type (0, 1), BuildingBlock: ZUJKAS_clean_linker_0, # of connection points: 2
#     Edge 86, Type (0, 1), BuildingBlock: ZUJKAS_clean_linker_0, # of connection points: 2
#     Edge 87, Type (0, 1), BuildingBlock: ZUJKAS_clean_linker_0, # of connection points: 2
#     Edge 88, Type (0, 1), BuildingBlock: ZUJKAS_clean_linker_0, # of connection points: 2
#     Edge 89, Type (0, 1), BuildingBlock: ZUJKAS_clean_linker_0, # of connection points: 2
#     Edge 90, Type (0, 1), BuildingBlock: ZUJKAS_clean_linker_0, # of connection points: 2
#     Edge 91, Type (0, 1), BuildingBlock: ZUJKAS_clean_linker_0, # of connection points: 2
#     Edge 92, Type (0, 1), BuildingBlock: ZUJKAS_clean_linker_0, # of connection points: 2
#     Edge 93, Type (0, 1), BuildingBlock: ZUJKAS_clean_linker_0, # of connection points: 2
#     Edge 94, Type (0, 1), BuildingBlock: ZUJKAS_clean_linker_0, # of connection points: 2
#     Edge 95, Type (0, 1), BuildingBlock: ZUJKAS_clean_linker_0, # of connection points: 2
#     Edge 96, Type (0, 1), BuildingBlock: ZUJKAS_clean_linker_0, # of connection points: 2
#     Edge 97, Type (0, 1), BuildingBlock: ZUJKAS_clean_linker_0, # of connection points: 2
#     Edge 98, Type (0, 1), BuildingBlock: ZUJKAS_clean_linker_0, # of connection points: 2
#     Edge 99, Type (0, 1), BuildingBlock: ZUJKAS_clean_linker_0, # of connection points: 2
#     Edge 100, Type (0, 1), BuildingBlock: ZUJKAS_clean_linker_0, # of connection points: 2
#     Edge 101, Type (0, 1), BuildingBlock: ZUJKAS_clean_linker_0, # of connection points: 2
#     Edge 102, Type (0, 1), BuildingBlock: ZUJKAS_clean_linker_0, # of connection points: 2
#     Edge 103, Type (0, 1), BuildingBlock: ZUJKAS_clean_linker_0, # of connection points: 2
#     Edge 104, Type (0, 1), BuildingBlock: ZUJKAS_clean_linker_0, # of connection points: 2
#     Edge 105, Type (0, 1), BuildingBlock: ZUJKAS_clean_linker_0, # of connection points: 2
#     Edge 106, Type (0, 1), BuildingBlock: ZUJKAS_clean_linker_0, # of connection points: 2
#     Edge 107, Type (0, 1), BuildingBlock: ZUJKAS_clean_linker_0, # of connection points: 2
#     Edge 108, Type (0, 1), BuildingBlock: ZUJKAS_clean_linker_0, # of connection points: 2
#     Edge 109, Type (0, 1), BuildingBlock: ZUJKAS_clean_linker_0, # of connection points: 2
#     Edge 110, Type (0, 1), BuildingBlock: ZUJKAS_clean_linker_0, # of connection points: 2
#     Edge 111, Type (0, 1), BuildingBlock: ZUJKAS_clean_linker_0, # of connection points: 2
#     Edge 112, Type (0, 1), BuildingBlock: ZUJKAS_clean_linker_0, # of connection points: 2
#     Edge 113, Type (0, 1), BuildingBlock: ZUJKAS_clean_linker_0, # of connection points: 2
#     Edge 114, Type (0, 1), BuildingBlock: ZUJKAS_clean_linker_0, # of connection points: 2
#     Edge 115, Type (0, 1), BuildingBlock: ZUJKAS_clean_linker_0, # of connection points: 2
#     Edge 116, Type (0, 1), BuildingBlock: ZUJKAS_clean_linker_0, # of connection points: 2
#     Edge 117, Type (0, 1), BuildingBlock: ZUJKAS_clean_linker_0, # of connection points: 2
#     Edge 118, Type (0, 1), BuildingBlock: ZUJKAS_clean_linker_0, # of connection points: 2
#     Edge 119, Type (0, 1), BuildingBlock: ZUJKAS_clean_linker_0, # of connection points: 2
#     Edge 120, Type (0, 1), BuildingBlock: ZUJKAS_clean_linker_0, # of connection points: 2
#     Edge 121, Type (0, 1), BuildingBlock: ZUJKAS_clean_linker_0, # of connection points: 2
#     Edge 122, Type (0, 1), BuildingBlock: ZUJKAS_clean_linker_0, # of connection points: 2
#     Edge 123, Type (0, 1), BuildingBlock: ZUJKAS_clean_linker_0, # of connection points: 2
#     Edge 124, Type (0, 1), BuildingBlock: ZUJKAS_clean_linker_0, # of connection points: 2
#     Edge 125, Type (0, 1), BuildingBlock: ZUJKAS_clean_linker_0, # of connection points: 2
#     Edge 126, Type (0, 1), BuildingBlock: ZUJKAS_clean_linker_0, # of connection points: 2
#     Edge 127, Type (0, 1), BuildingBlock: ZUJKAS_clean_linker_0, # of connection points: 2
#     Edge 128, Type (0, 1), BuildingBlock: ZUJKAS_clean_linker_0, # of connection points: 2
#     Edge 129, Type (0, 1), BuildingBlock: ZUJKAS_clean_linker_0, # of connection points: 2
#     Edge 130, Type (0, 1), BuildingBlock: ZUJKAS_clean_linker_0, # of connection points: 2
#     Edge 131, Type (0, 1), BuildingBlock: ZUJKAS_clean_linker_0, # of connection points: 2
#     Edge 132, Type (0, 1), BuildingBlock: ZUJKAS_clean_linker_0, # of connection points: 2
#     Edge 133, Type (0, 1), BuildingBlock: ZUJKAS_clean_linker_0, # of connection points: 2
#     Edge 134, Type (0, 1), BuildingBlock: ZUJKAS_clean_linker_0, # of connection points: 2
#     Edge 135, Type (0, 1), BuildingBlock: ZUJKAS_clean_linker_0, # of connection points: 2
# Relax obj value: 0.105
# Max RMSD: 0.271
# Mean RMSD: 0.153
data_MOF--net-gar--node1-TATPOV_clean_sbu_0--node2-MIFKUJ_clean_sbu_0--edge1-ZUJKAS_clean_linker_0
_symmetry_space_group_name_H-M    P1
_symmetry_Int_Tables_number       1
_symmetry_cell_setting            triclinic
loop_
_symmetry_equiv_pos_as_xyz
'x, y, z'
_cell_length_a     71.363689
_cell_length_b     71.525331
_cell_length_c     69.597256
_cell_angle_alpha  94.581426
_cell_angle_beta   94.97997
_cell_angle_gamma 100.37923
loop_
_atom_site_label
_atom_site_type_symbol
_atom_site_fract_x
_atom_site_fract_y
_atom_site_fract_z
_atom_type_partial_charge
Zn0 Zn 0.98965 0.26618 0.45681 0.0
Zn1 Zn 0.01796 0.26752 0.43401 0.0
O2 O 0.0247 0.29407 0.44975 0.0
O3 O 1.00036 0.29332 0.46725 0.0
O4 O 0.03955 0.2668 0.4171 0.0
O5 O 0.9981 0.24515 0.47059 0.0
O6 O 0.0198 0.24452 0.45001 0.0
C7 C 0.01589 0.30217 0.46221 0.0
C8 C 0.97608 0.26146 0.41634 0.0
O9 O 0.99394 0.26461 0.41437 0.0
O10 O 0.97045 0.26048 0.43306 0.0
C11 C 0.0476 0.28108 0.40911 0.0
O12 O 0.04173 0.2974 0.4117 0.0
C13 C 0.01152 0.2379 0.46422 0.0
Zn14 Zn 0.99279 0.71268 0.67659 0.0
Zn15 Zn 0.99655 0.74392 0.6567 0.0
O16 O 0.97406 0.74673 0.67276 0.0
O17 O 0.97036 0.72102 0.68848 0.0
O18 O 0.99908 0.76686 0.64145 0.0
O19 O 0.02003 0.72192 0.68906 0.0
O20 O 0.023 0.74678 0.67207 0.0
C21 C 0.96521 0.73644 0.68449 0.0
C22 C 0.98841 0.70358 0.63517 0.0
O23 O 0.9912 0.72168 0.63527 0.0
O24 O 0.98836 0.69601 0.65103 0.0
C25 C 0.98634 0.76746 0.62768 0.0
O26 O 0.97166 0.75323 0.62402 0.0
C27 C 0.03014 0.73694 0.68427 0.0
Zn28 Zn 0.49759 0.77045 0.95261 0.0
Zn29 Zn 0.52182 0.76914 0.92544 0.0
O30 O 0.53006 0.79661 0.93924 0.0
O31 O 0.51094 0.79691 0.96243 0.0
O32 O 0.54133 0.76708 0.90624 0.0
O33 O 0.50574 0.74852 0.9649 0.0
O34 O 0.525 0.7468 0.94202 0.0
C35 C 0.52445 0.80528 0.95378 0.0
C36 C 0.47898 0.76502 0.91326 0.0
O37 O 0.49596 0.76556 0.90864 0.0
O38 O 0.47599 0.76653 0.93095 0.0
C39 C 0.54928 0.78106 0.89777 0.0
O40 O 0.5444 0.7978 0.90106 0.0
C41 C 0.51805 0.74064 0.9571 0.0
Zn42 Zn 0.49118 0.21613 0.16978 0.0
Zn43 Zn 0.49664 0.24709 0.14927 0.0
O44 O 0.47483 0.25162 0.16552 0.0
O45 O 0.47014 0.22669 0.18233 0.0
O46 O 0.50021 0.26972 0.13355 0.0
O47 O 0.51881 0.22397 0.18158 0.0
O48 O 0.523 0.24874 0.16449 0.0
C49 C 0.46588 0.24238 0.17793 0.0
C50 C 0.48584 0.20648 0.12836 0.0
O51 O 0.48989 0.22455 0.12829 0.0
O52 O 0.48528 0.19909 0.14431 0.0
C53 C 0.48754 0.27053 0.11977 0.0
O54 O 0.47242 0.25675 0.11643 0.0
C55 C 0.52958 0.23853 0.17667 0.0
Zn56 Zn 0.05289 0.77601 0.12577 0.0
Zn57 Zn 0.02404 0.77178 0.14766 0.0
O58 O 0.01952 0.794 0.13139 0.0
O59 O 0.04251 0.79604 0.11208 0.0
O60 O 0.00151 0.76861 0.1636 0.0
O61 O 0.04565 0.7487 0.11474 0.0
O62 O 0.02138 0.7451 0.13245 0.0
C63 C 0.02785 0.80162 0.11766 0.0
C64 C 0.0654 0.7827 0.16658 0.0
O65 O 0.04752 0.7783 0.16819 0.0
O66 O 0.07128 0.78317 0.14994 0.0
C67 C 0.99947 0.78206 0.17588 0.0
O68 O 0.01232 0.79794 0.17815 0.0
C69 C 0.03116 0.73823 0.12008 0.0
Zn70 Zn 0.47185 0.74003 0.40156 0.0
Zn71 Zn 0.50202 0.7454 0.38143 0.0
O72 O 0.50412 0.77201 0.39635 0.0
O73 O 0.4773 0.7681 0.41033 0.0
O74 O 0.5249 0.74791 0.3661 0.0
O75 O 0.48322 0.72166 0.41733 0.0
O76 O 0.5065 0.72389 0.39838 0.0
C77 C 0.49247 0.77875 0.40661 0.0
C78 C 0.46125 0.73289 0.36076 0.0
O79 O 0.47914 0.73874 0.36023 0.0
O80 O 0.45457 0.73099 0.37691 0.0
C81 C 0.52887 0.76071 0.35464 0.0
O82 O 0.51781 0.77341 0.35268 0.0
C83 C 0.49831 0.71657 0.41231 0.0
Zn84 Zn 0.55345 0.27369 0.63218 0.0
Zn85 Zn 0.52495 0.27008 0.65515 0.0
O86 O 0.52074 0.29252 0.63939 0.0
O87 O 0.54374 0.29523 0.62012 0.0
O88 O 0.50259 0.26728 0.67117 0.0
O89 O 0.54436 0.24655 0.62048 0.0
O90 O 0.52131 0.2436 0.63971 0.0
C91 C 0.52921 0.30077 0.62609 0.0
C92 C 0.56651 0.27915 0.67322 0.0
O93 O 0.54867 0.27593 0.67524 0.0
O94 O 0.57206 0.2791 0.65641 0.0
C95 C 0.5001 0.28108 0.68274 0.0
O96 O 0.51265 0.29716 0.68455 0.0
C97 C 0.53005 0.23644 0.62658 0.0
Zn98 Zn 0.96191 0.23948 0.89666 0.0
Zn99 Zn 0.99393 0.24257 0.87929 0.0
O100 O 0.99622 0.2696 0.89313 0.0
O101 O 0.96842 0.26766 0.90513 0.0
O102 O 0.01804 0.24396 0.86597 0.0
O103 O 0.97057 0.22048 0.9135 0.0
O104 O 0.99584 0.22127 0.89737 0.0
C105 C 0.9844 0.27739 0.9022 0.0
C106 C 0.95445 0.23143 0.8556 0.0
O107 O 0.97261 0.23625 0.85646 0.0
O108 O 0.94631 0.23066 0.87106 0.0
C109 C 0.02167 0.25503 0.85281 0.0
O110 O 0.00955 0.2661 0.84799 0.0
C111 C 0.98578 0.2145 0.91038 0.0
Zn112 Zn 0.43798 0.00916 0.26824 0.0
Zn113 Zn 0.4138 0.03334 0.26634 0.0
O114 O 0.43138 0.04363 0.29161 0.0
O115 O 0.45341 0.02565 0.29086 0.0
O116 O 0.3959 0.05214 0.26378 0.0
O117 O 0.44507 0.01335 0.2416 0.0
O118 O 0.42691 0.03515 0.24092 0.0
C119 C 0.44697 0.0394 0.29877 0.0
C120 C 0.39907 0.99113 0.27115 0.0
O121 O 0.39578 0.00769 0.26832 0.0
O122 O 0.41609 0.98819 0.27228 0.0
C123 C 0.38258 0.05295 0.27465 0.0
O124 O 0.38034 0.04126 0.28826 0.0
C125 C 0.43858 0.02613 0.233 0.0
Zn126 Zn 0.22232 0.14963 0.4934 0.0
Zn127 Zn 0.25163 0.1315 0.49691 0.0
O128 O 0.25785 0.14806 0.47412 0.0
O129 O 0.23322 0.16265 0.47142 0.0
O130 O 0.27393 0.11772 0.50037 0.0
O131 O 0.22886 0.16213 0.52064 0.0
O132 O 0.25295 0.14687 0.52368 0.0
C133 C 0.24889 0.15962 0.46578 0.0
C134 C 0.21019 0.10908 0.48789 0.0
O135 O 0.22812 0.10936 0.49115 0.0
O136 O 0.20402 0.1246 0.48796 0.0
C137 C 0.27754 0.10605 0.48705 0.0
O138 O 0.26664 0.10304 0.47048 0.0
C139 C 0.24302 0.15834 0.53082 0.0
Zn140 Zn 0.12007 0.03229 0.79038 0.0
Zn141 Zn 0.14165 0.00599 0.78721 0.0
O142 O 0.12524 0.99812 0.80976 0.0
O143 O 0.10695 0.01977 0.81138 0.0
O144 O 0.15797 0.98557 0.78452 0.0
O145 O 0.10878 0.02569 0.76279 0.0
O146 O 0.1263 0.00343 0.76009 0.0
C147 C 0.11199 0.00501 0.81739 0.0
C148 C 0.1599 0.0486 0.79672 0.0
O149 O 0.16166 0.03128 0.79291 0.0
O150 O 0.14341 0.05273 0.79702 0.0
C151 C 0.16521 0.97889 0.79923 0.0
O152 O 0.16216 0.98548 0.81662 0.0
C153 C 0.11394 0.01237 0.75269 0.0
Zn154 Zn 0.28163 0.8739 0.99632 0.0
Zn155 Zn 0.25528 0.89494 -0.00139 0.0
O156 O 0.24384 0.87554 0.97483 0.0
O157 O 0.26514 0.85679 0.97502 0.0
O158 O 0.23524 0.91128 0.00209 0.0
O159 O 0.28022 0.86732 0.02354 0.0
O160 O 0.25624 0.88271 0.0246 0.0
C161 C 0.24956 0.86074 0.9679 0.0
C162 C 0.29648 0.91235 0.99081 0.0
O163 O 0.27971 0.91443 0.99445 0.0
O164 O 0.30082 0.89595 0.99018 0.0
C165 C 0.23331 0.92505 0.99207 0.0
O166 O 0.24459 0.92888 0.97838 0.0
C167 C 0.26707 0.8725 0.03251 0.0
Zn168 Zn 0.28195 0.36202 0.04253 0.0
Zn169 Zn 0.25478 0.38176 0.03931 0.0
O170 O 0.25258 0.36757 0.01186 0.0
O171 O 0.27843 0.35473 0.01377 0.0
O172 O 0.23361 0.39727 0.03752 0.0
O173 O 0.26836 0.34509 0.06036 0.0
O174 O 0.24739 0.36413 0.06111 0.0
C175 C 0.26393 0.3582 0.00389 0.0
C176 C 0.29684 0.40125 0.05147 0.0
O177 O 0.27977 0.40236 0.04521 0.0
O178 O 0.30126 0.38511 0.05342 0.0
C179 C 0.23354 0.41018 0.02596 0.0
O180 O 0.24761 0.4136 0.01498 0.0
C181 C 0.2538 0.34982 0.06708 0.0
Zn182 Zn 0.77754 0.17394 0.03517 0.0
Zn183 Zn 0.79806 0.14755 0.02952 0.0
O184 O 0.80204 0.16329 0.00595 0.0
O185 O 0.7821 0.18317 0.0094 0.0
O186 O 0.81465 0.12776 0.02569 0.0
O187 O 0.79512 0.18648 0.05814 0.0
O188 O 0.80972 0.16184 0.05627 0.0
C189 C 0.79416 0.17664 -0.00019 0.0
C190 C 0.75512 0.13653 0.03349 0.0
O191 O 0.77064 0.13175 0.02887 0.0
O192 O 0.75461 0.15389 0.0381 0.0
C193 C 0.81159 0.11504 0.01135 0.0
O194 O 0.7969 0.11448 0.99841 0.0
C195 C 0.80762 0.17763 0.06487 0.0
Zn196 Zn 0.10724 0.52526 0.24699 0.0
Zn197 Zn 0.13088 0.50094 0.24829 0.0
O198 O 0.11898 0.49941 0.27431 0.0
O199 O 0.10229 0.52245 0.27445 0.0
O200 O 0.14863 0.48202 0.24955 0.0
O201 O 0.0899 0.50789 0.22623 0.0
O202 O 0.11184 0.4899 0.22429 0.0
C203 C 0.10835 0.50929 0.28278 0.0
C204 C 0.14538 0.54282 0.24172 0.0
O205 O 0.14877 0.52646 0.24529 0.0
O206 O 0.12837 0.54574 0.24064 0.0
C207 C 0.16242 0.48376 0.26284 0.0
O208 O 0.16539 0.49847 0.27602 0.0
C209 C 0.09572 0.49377 0.21831 0.0
Zn210 Zn 0.77208 0.85635 0.54028 0.0
Zn211 Zn 0.74738 0.87945 0.54001 0.0
O212 O 0.74342 0.86624 0.51178 0.0
O213 O 0.76377 0.8465 0.51264 0.0
O214 O 0.72786 0.89699 0.5403 0.0
O215 O 0.76069 0.84253 0.56129 0.0
O216 O 0.73981 0.86168 0.56178 0.0
C217 C 0.75105 0.85343 0.50334 0.0
C218 C 0.79075 0.89529 0.54813 0.0
O219 O 0.7736 0.8982 0.5458 0.0
O220 O 0.79388 0.8784 0.5468 0.0
C221 C 0.71112 0.89176 0.53145 0.0
O222 O 0.70651 0.8747 0.52189 0.0
C223 C 0.74653 0.84779 0.56836 0.0
Zn224 Zn 0.91547 0.99156 0.24381 0.0
Zn225 Zn 0.89566 0.01923 0.24752 0.0
O226 O 0.90898 0.01978 0.27527 0.0
O227 O 0.92447 0.9959 0.27224 0.0
O228 O 0.88084 0.04085 0.24931 0.0
O229 O 0.93139 0.00472 0.22506 0.0
O230 O 0.91384 0.02702 0.2263 0.0
C231 C 0.91978 0.00927 0.2827 0.0
C232 C 0.87538 0.9779 0.23456 0.0
O233 O 0.87452 0.99512 0.24014 0.0
O234 O 0.89143 0.97283 0.23394 0.0
C235 C 0.86793 0.04149 0.26073 0.0
O236 O 0.86404 0.02768 0.27197 0.0
C237 C 0.92737 0.02001 0.21937 0.0
Zn238 Zn 0.26565 0.677 0.53363 0.0
Zn239 Zn 0.29042 0.65401 0.53013 0.0
O240 O 0.29092 0.66749 0.50488 0.0
O241 O 0.2689 0.68524 0.50723 0.0
O242 O 0.30924 0.63636 0.52669 0.0
O243 O 0.28208 0.69186 0.55634 0.0
O244 O 0.30192 0.67164 0.55512 0.0
C245 C 0.28134 0.67921 0.4978 0.0
C246 C 0.24836 0.63822 0.5357 0.0
O247 O 0.26503 0.63546 0.53247 0.0
O248 O 0.24503 0.65502 0.5374 0.0
C249 C 0.30806 0.62563 0.51098 0.0
O250 O 0.29437 0.62611 0.49723 0.0
C251 C 0.29698 0.68641 0.56318 0.0
Zn252 Zn 0.40901 0.48582 0.74239 0.0
Zn253 Zn 0.3895 0.51371 0.74398 0.0
O254 O 0.40403 0.5166 0.77155 0.0
O255 O 0.42083 0.49367 0.76964 0.0
O256 O 0.37475 0.53545 0.74449 0.0
O257 O 0.42242 0.49554 0.72034 0.0
O258 O 0.40679 0.5194 0.72155 0.0
C259 C 0.41604 0.50747 0.77932 0.0
C260 C 0.36879 0.47167 0.73641 0.0
O261 O 0.36808 0.4894 0.73885 0.0
O262 O 0.38482 0.46643 0.73711 0.0
C263 C 0.36216 0.53681 0.75614 0.0
O264 O 0.35869 0.52379 0.76833 0.0
C265 C 0.4189 0.51072 0.71393 0.0
Zn266 Zn 0.61536 0.0216 0.71889 0.0
Zn267 Zn 0.63774 0.99782 0.73051 0.0
O268 O 0.61979 0.99817 0.75205 0.0
O269 O 0.60028 0.01669 0.74177 0.0
O270 O 0.65498 0.97984 0.73866 0.0
O271 O 0.60794 0.00556 0.69358 0.0
O272 O 0.6243 0.98441 0.70414 0.0
C273 C 0.60546 0.00622 0.75428 0.0
C274 C 0.65439 0.04008 0.72645 0.0
O275 O 0.65668 0.0234 0.73015 0.0
O276 O 0.63782 0.04307 0.72137 0.0
C277 C 0.66551 0.98253 0.75471 0.0
O278 O 0.66518 0.99757 0.76672 0.0
C279 C 0.61333 0.98973 0.69106 0.0
Zn280 Zn 0.73087 0.64962 -0.00038 0.0
Zn281 Zn 0.76024 0.63197 0.00253 0.0
O282 O 0.76675 0.65021 0.98107 0.0
O283 O 0.74228 0.66504 0.97951 0.0
O284 O 0.7828 0.61835 0.00495 0.0
O285 O 0.73608 0.66005 0.0275 0.0
O286 O 0.76096 0.64584 0.03006 0.0
C287 C 0.75808 0.66256 0.97381 0.0
C288 C 0.71903 0.60942 0.99116 0.0
O289 O 0.73689 0.60972 0.99518 0.0
O290 O 0.71277 0.62489 0.99173 0.0
C291 C 0.78573 0.60677 0.99117 0.0
O292 O 0.77393 0.6038 0.97519 0.0
C293 C 0.75032 0.65636 0.03761 0.0
Zn294 Zn 0.91736 0.50837 0.77144 0.0
Zn295 Zn 0.89434 0.53317 0.76986 0.0
O296 O 0.91253 0.54397 0.79471 0.0
O297 O 0.9327 0.52405 0.79443 0.0
O298 O 0.87646 0.55194 0.76714 0.0
O299 O 0.92503 0.51267 0.74504 0.0
O300 O 0.90761 0.53509 0.74455 0.0
C301 C 0.9275 0.53868 0.80207 0.0
C302 C 0.87898 0.4907 0.77452 0.0
O303 O 0.87603 0.50748 0.77212 0.0
O304 O 0.89583 0.48737 0.77514 0.0
C305 C 0.86273 0.55242 0.77754 0.0
O306 O 0.86011 0.54047 0.79088 0.0
C307 C 0.91909 0.52584 0.73663 0.0
Zn308 Zn 0.78696 0.36762 0.51536 0.0
Zn309 Zn 0.76006 0.38898 0.51284 0.0
O310 O 0.75189 0.36979 0.48849 0.0
O311 O 0.77369 0.35168 0.49136 0.0
O312 O 0.73996 0.40548 0.5129 0.0
O313 O 0.78017 0.36032 0.54144 0.0
O314 O 0.75683 0.37653 0.53834 0.0
C315 C 0.75894 0.35556 0.48228 0.0
C316 C 0.80268 0.40658 0.51166 0.0
O317 O 0.78522 0.40837 0.51174 0.0
O318 O 0.80719 0.39038 0.51296 0.0
C319 C 0.7404 0.41737 0.52761 0.0
O320 O 0.75418 0.41877 0.54176 0.0
C321 C 0.76584 0.36584 0.54789 0.0
Zn322 Zn 0.61661 0.53502 0.28373 0.0
Zn323 Zn 0.63985 0.50979 0.28155 0.0
O324 O 0.6232 0.50136 0.30362 0.0
O325 O 0.60286 0.52115 0.30373 0.0
O326 O 0.65683 0.48998 0.27896 0.0
O327 O 0.60666 0.52846 0.25578 0.0
O328 O 0.62509 0.50692 0.25415 0.0
C329 C 0.60885 0.50706 0.31025 0.0
C330 C 0.65641 0.55251 0.29177 0.0
O331 O 0.65896 0.53545 0.28801 0.0
O332 O 0.63958 0.55593 0.29143 0.0
C333 C 0.66356 0.48258 0.29345 0.0
O334 O 0.65969 0.48814 0.31087 0.0
C335 C 0.61262 0.51537 0.24613 0.0
Zn336 Zn 0.03857 0.01278 0.0269 0.0
Zn337 Zn 0.99852 0.01013 0.00798 0.0
C338 C 0.02945 0.98313 0.05047 0.0
O339 O 0.03826 0.99727 0.06313 0.0
C340 C 0.00099 0.05022 0.00853 0.0
O341 O 0.98725 0.04617 0.01979 0.0
O342 O 0.06685 0.0147 0.03462 0.0
O343 O 0.0368 0.01433 0.99817 0.0
O344 O 0.01118 0.99195 0.99187 0.0
C345 C 0.07927 0.02321 0.02464 0.0
O346 O 0.07383 0.03389 0.01152 0.0
O347 O 0.02727 0.98609 0.03271 0.0
C348 C 0.95717 0.0032 0.00918 0.0
O349 O 0.96136 0.99726 0.02612 0.0
O350 O 0.97046 0.00742 0.99832 0.0
O351 O 0.99995 0.0099 0.03703 0.0
O352 O 0.02671 0.03103 0.04358 0.0
O353 O 0.00909 0.03692 0.00212 0.0
C354 C 0.0273 0.0001 0.98728 0.0
C355 C 0.01035 0.02352 0.04816 0.0
Zn356 Zn 0.27024 0.76513 0.28093 0.0
Zn357 Zn 0.26659 0.77118 0.2399 0.0
C358 C 0.24978 0.72731 0.27743 0.0
O359 O 0.24185 0.73525 0.29152 0.0
C360 C 0.28763 0.80842 0.24258 0.0
O361 O 0.29506 0.79967 0.22863 0.0
O362 O 0.27546 0.76293 0.30936 0.0
O363 O 0.29552 0.77654 0.2722 0.0
O364 O 0.2892 0.75813 0.24489 0.0
C365 C 0.28835 0.75338 0.31378 0.0
O366 O 0.29776 0.74704 0.30001 0.0
O367 O 0.26281 0.73762 0.26955 0.0
C368 C 0.24828 0.78204 0.2066 0.0
O369 O 0.23784 0.78731 0.21995 0.0
O370 O 0.26167 0.77323 0.2114 0.0
O371 O 0.24117 0.75999 0.24853 0.0
O372 O 0.24722 0.77772 0.27631 0.0
O373 O 0.27447 0.79882 0.25092 0.0
C374 C 0.30124 0.76648 0.25885 0.0
C375 C 0.23525 0.76927 0.26234 0.0
Zn376 Zn 0.47903 0.00949 0.51889 0.0
Zn377 Zn 0.5227 0.00434 0.51776 0.0
C378 C 0.48452 0.03965 0.54899 0.0
O379 O 0.4708 0.02756 0.55526 0.0
C380 C 0.51501 0.97349 0.48775 0.0
O381 O 0.52294 0.98694 0.47761 0.0
O382 O 0.45075 0.01092 0.51618 0.0
O383 O 0.48692 0.00911 0.49197 0.0
O384 O 0.51721 0.02322 0.49876 0.0
C385 C 0.44749 0.02486 0.50692 0.0
O386 O 0.46193 0.03558 0.50018 0.0
O387 O 0.49143 0.03476 0.53354 0.0
C388 C 0.55761 0.99633 0.53633 0.0
O389 O 0.5461 0.99127 0.5495 0.0
O390 O 0.55124 0.0039 0.52176 0.0
O391 O 0.51237 0.00682 0.54373 0.0
O392 O 0.48474 0.98801 0.5342 0.0
O393 O 0.51233 0.97776 0.50525 0.0
C394 C 0.50167 0.02008 0.48754 0.0
C395 C 0.49941 0.99288 0.54647 0.0
Zn396 Zn 0.28054 0.26141 0.76414 0.0
Zn397 Zn 0.23781 0.26341 0.76793 0.0
C398 C 0.27697 0.2369 0.73017 0.0
O399 O 0.28767 0.22903 0.74226 0.0
C400 C 0.24382 0.28893 0.80221 0.0
O401 O 0.23739 0.29982 0.78985 0.0
O402 O 0.30922 0.26354 0.76485 0.0
O403 O 0.27626 0.2882 0.77004 0.0
O404 O 0.24891 0.28414 0.75173 0.0
C405 C 0.31723 0.27564 0.75423 0.0
O406 O 0.30668 0.28602 0.74496 0.0
O407 O 0.27106 0.25181 0.73629 0.0
C408 C 0.20074 0.25015 0.77737 0.0
O409 O 0.2108 0.2397 0.78715 0.0
O410 O 0.2092 0.26171 0.76652 0.0
O411 O 0.24231 0.23649 0.76246 0.0
O412 O 0.26988 0.24088 0.78056 0.0
O413 O 0.24613 0.27233 0.79612 0.0
C414 C 0.26452 0.29487 0.75896 0.0
C415 C 0.25441 0.22994 0.77326 0.0
Zn416 Zn 0.00776 0.9729 0.52029 0.0
Zn417 Zn 0.00675 0.01505 0.5186 0.0
C418 C 0.03277 0.976 0.55391 0.0
O419 O 0.04009 0.96509 0.54165 0.0
C420 C 0.98174 0.0148 0.48521 0.0
O421 O 0.97385 0.02414 0.49834 0.0
O422 O 0.00498 0.94428 0.52038 0.0
O423 O 0.98102 0.9779 0.51436 0.0
O424 O 0.98626 0.00369 0.53478 0.0
C425 C 0.99221 0.93699 0.5307 0.0
O426 O 0.98158 0.94805 0.53864 0.0
O427 O 0.0179 0.98228 0.54806 0.0
C428 C 0.02326 0.05602 0.52837 0.0
O429 O 0.03858 0.05059 0.53619 0.0
O430 O 0.00875 0.04354 0.52144 0.0
O431 O 0.03359 0.00995 0.52278 0.0
O432 O 0.02851 0.98308 0.50375 0.0
O433 O 0.9966 0.00821 0.49046 0.0
C434 C 0.97482 0.98911 0.5263 0.0
C435 C 0.03978 0.99819 0.5114 0.0
Zn436 Zn 0.26669 0.78206 0.76925 0.0
Zn437 Zn 0.26883 0.73919 0.77053 0.0
C438 C 0.23247 0.77784 0.74401 0.0
O439 O 0.2434 0.79154 0.73641 0.0
C440 C 0.30096 0.74134 0.79739 0.0
O441 O 0.2882 0.72846 0.80399 0.0
O442 O 0.26615 0.81054 0.77221 0.0
O443 O 0.27107 0.77372 0.7959 0.0
O444 O 0.25058 0.74665 0.78924 0.0
C445 C 0.25554 0.81538 0.78481 0.0
O446 O 0.24741 0.80234 0.79527 0.0
O447 O 0.23961 0.77041 0.75823 0.0
C448 C 0.28 0.70557 0.7565 0.0
O449 O 0.29031 0.71876 0.74771 0.0
O450 O 0.26789 0.71051 0.76736 0.0
O451 O 0.26582 0.74759 0.74373 0.0
O452 O 0.28509 0.77541 0.75049 0.0
O453 O 0.29593 0.74936 0.78263 0.0
C454 C 0.25755 0.76144 0.80077 0.0
C455 C 0.27914 0.76026 0.73916 0.0
Zn456 Zn 0.522 0.0347 0.97191 0.0
Zn457 Zn 0.51828 0.03603 0.01386 0.0
C458 C 0.56163 0.05187 0.97342 0.0
O459 O 0.55518 0.05835 0.9575 0.0
C460 C 0.48045 0.01585 0.01205 0.0
O461 O 0.48946 0.00694 0.02465 0.0
O462 O 0.52241 0.03068 0.94295 0.0
O463 O 0.51116 0.00876 0.97966 0.0
O464 O 0.53039 0.01342 0.00661 0.0
C465 C 0.53118 0.01737 0.93793 0.0
O466 O 0.53806 0.00788 0.95143 0.0
O467 O 0.54993 0.04141 0.98266 0.0
C468 C 0.50897 0.05201 0.04906 0.0
O469 O 0.50176 0.06248 0.03674 0.0
O470 O 0.51818 0.03953 0.04276 0.0
O471 O 0.52953 0.06156 0.00569 0.0
O472 O 0.50922 0.05698 0.97958 0.0
O473 O 0.49008 0.02939 0.00423 0.0
C474 C 0.52157 0.00225 0.99226 0.0
C475 C 0.51835 0.06807 0.99387 0.0
Zn476 Zn 0.26014 0.2357 0.25842 0.0
Zn477 Zn 0.23921 0.27648 0.27832 0.0
C478 C 0.29204 0.26477 0.24932 0.0
O479 O 0.27909 0.27024 0.23759 0.0
C480 C 0.21415 0.27779 0.30716 0.0
O481 O 0.22997 0.28883 0.3155 0.0
O482 O 0.26536 0.20873 0.25522 0.0
O483 O 0.24762 0.23814 0.283 0.0
O484 O 0.25927 0.2673 0.29582 0.0
C485 C 0.27701 0.20536 0.26886 0.0
O486 O 0.28344 0.21884 0.28305 0.0
O487 O 0.28676 0.25189 0.26035 0.0
C488 C 0.22997 0.3109 0.27005 0.0
O489 O 0.21554 0.29797 0.26161 0.0
O490 O 0.24382 0.30532 0.27924 0.0
O491 O 0.2352 0.26673 0.24966 0.0
O492 O 0.24455 0.24176 0.23519 0.0
O493 O 0.21426 0.26967 0.29023 0.0
C494 C 0.25746 0.2494 0.29668 0.0
C495 C 0.23594 0.25582 0.23445 0.0
Zn496 Zn 0.51321 0.47518 0.01166 0.0
Zn497 Zn 0.51316 0.5173 0.01216 0.0
C498 C 0.53743 0.47745 0.04585 0.0
O499 O 0.54492 0.46648 0.03381 0.0
C500 C 0.48808 0.51889 0.97936 0.0
O501 O 0.48051 0.52778 0.9931 0.0
O502 O 0.50986 0.44647 0.01131 0.0
O503 O 0.48681 0.48105 0.00539 0.0
O504 O 0.49262 0.50512 0.02794 0.0
C505 C 0.49652 0.43902 0.02089 0.0
O506 O 0.48551 0.44997 0.02832 0.0
O507 O 0.52281 0.48395 0.03965 0.0
C508 C 0.5304 0.55815 0.02146 0.0
O509 O 0.54638 0.55256 0.02708 0.0
O510 O 0.51531 0.54578 0.01618 0.0
O511 O 0.5399 0.51183 0.01569 0.0
O512 O 0.53467 0.4854 0.99596 0.0
O513 O 0.50283 0.51185 0.98392 0.0
C514 C 0.48085 0.49146 0.01829 0.0
C515 C 0.54608 0.50016 0.0042 0.0
Zn516 Zn 0.76501 0.28515 0.26508 0.0
Zn517 Zn 0.77208 0.24352 0.27299 0.0
C518 C 0.73118 0.27711 0.23975 0.0
O519 O 0.74229 0.2894 0.23066 0.0
C520 C 0.80426 0.25455 0.30079 0.0
O521 O 0.79165 0.24571 0.31129 0.0
O522 O 0.76323 0.31329 0.26531 0.0
O523 O 0.77091 0.28058 0.29286 0.0
O524 O 0.75378 0.25158 0.29128 0.0
C525 C 0.75247 0.31839 0.27765 0.0
O526 O 0.74485 0.30579 0.28886 0.0
O527 O 0.7381 0.27173 0.25538 0.0
C528 C 0.78673 0.21083 0.26383 0.0
O529 O 0.79719 0.22408 0.25525 0.0
O530 O 0.77335 0.21537 0.27315 0.0
O531 O 0.76704 0.24803 0.24508 0.0
O532 O 0.7832 0.27741 0.24664 0.0
O533 O 0.79907 0.25651 0.28324 0.0
C534 C 0.7594 0.26812 0.30023 0.0
C535 C 0.77884 0.26057 0.23815 0.0
Zn536 Zn 0.02344 0.52487 0.4931 0.0
Zn537 Zn 0.02209 0.53266 0.53452 0.0
C538 C 0.06278 0.54166 0.4935 0.0
O539 O 0.05555 0.54951 0.47884 0.0
C540 C 0.98349 0.51554 0.53577 0.0
O541 O 0.99195 0.50845 0.55027 0.0
O542 O 0.02306 0.51703 0.46472 0.0
O543 O 0.01134 0.5014 0.5047 0.0
O544 O 0.03285 0.50854 0.52983 0.0
C545 C 0.03067 0.50253 0.46111 0.0
O546 O 0.03679 0.49381 0.47564 0.0
O547 O 0.05158 0.53053 0.50259 0.0
C548 C 0.01415 0.55341 0.5676 0.0
O549 O 0.00845 0.56329 0.55384 0.0
O550 O 0.02249 0.53964 0.56307 0.0
O551 O 0.03381 0.5563 0.52296 0.0
O552 O 0.01266 0.54902 0.49754 0.0
O553 O 0.99371 0.52657 0.52571 0.0
C554 C 0.02251 0.49604 0.51745 0.0
C555 C 0.02262 0.56157 0.51014 0.0
Zn556 Zn 0.78561 0.76557 0.26814 0.0
Zn557 Zn 0.743 0.76823 0.26842 0.0
C558 C 0.78337 0.74063 0.23495 0.0
O559 O 0.79379 0.73333 0.24783 0.0
C560 C 0.74324 0.79359 0.3013 0.0
O561 O 0.73488 0.80189 0.28766 0.0
O562 O 0.81441 0.7677 0.26931 0.0
O563 O 0.78098 0.79237 0.27366 0.0
O564 O 0.75578 0.78811 0.25225 0.0
C565 C 0.82242 0.77962 0.25851 0.0
O566 O 0.81193 0.79014 0.24937 0.0
O567 O 0.77698 0.75553 0.2402 0.0
C568 C 0.70506 0.75514 0.27521 0.0
O569 O 0.71441 0.74444 0.28546 0.0
O570 O 0.71434 0.76667 0.26486 0.0
O571 O 0.74744 0.74115 0.26478 0.0
O572 O 0.77413 0.74509 0.2843 0.0
O573 O 0.74937 0.7784 0.29657 0.0
C574 C 0.77064 0.79893 0.26105 0.0
C575 C 0.75868 0.73446 0.27646 0.0
Zn576 Zn 0.77094 0.26337 0.78886 0.0
Zn577 Zn 0.76068 0.26744 0.74812 0.0
C578 C 0.75351 0.22421 0.78658 0.0
O579 O 0.74558 0.23092 0.80135 0.0
C580 C 0.7776 0.30606 0.74844 0.0
O581 O 0.78434 0.29823 0.73343 0.0
O582 O 0.77983 0.26221 0.81681 0.0
O583 O 0.79389 0.27612 0.77672 0.0
O584 O 0.78518 0.2571 0.74995 0.0
C585 C 0.79391 0.25373 0.81956 0.0
O586 O 0.80193 0.24784 0.80449 0.0
O587 O 0.76504 0.23569 0.77814 0.0
C588 C 0.7375 0.27677 0.71733 0.0
O589 O 0.72937 0.28272 0.7323 0.0
O590 O 0.75145 0.26815 0.72023 0.0
O591 O 0.7382 0.2542 0.76029 0.0
O592 O 0.74624 0.27385 0.78664 0.0
O593 O 0.76681 0.29537 0.75832 0.0
C594 C 0.79839 0.26642 0.76231 0.0
C595 C 0.73327 0.26403 0.77431 0.0
Zn596 Zn 0.75183 0.74183 0.76914 0.0
Zn597 Zn 0.75167 0.78379 0.78345 0.0
C598 C 0.78332 0.74696 0.74805 0.0
O599 O 0.76992 0.73555 0.73628 0.0
C600 C 0.72177 0.78234 0.80671 0.0
O601 O 0.73652 0.79281 0.81758 0.0
O602 O 0.75171 0.71333 0.76501 0.0
O603 O 0.74732 0.74691 0.79705 0.0
O604 O 0.76892 0.77323 0.80285 0.0
C605 C 0.76342 0.70827 0.77753 0.0
O606 O 0.77261 0.72111 0.7913 0.0
O607 O 0.77908 0.75311 0.76448 0.0
C608 C 0.74484 0.81907 0.77494 0.0
O609 O 0.73355 0.80689 0.7619 0.0
O610 O 0.75561 0.81268 0.78736 0.0
O611 O 0.75408 0.77819 0.75493 0.0
O612 O 0.73407 0.75072 0.749 0.0
O613 O 0.72433 0.77553 0.78988 0.0
C614 C 0.76059 0.7576 0.80834 0.0
C615 C 0.74147 0.76671 0.74358 0.0
Zn616 Zn 0.53413 0.50187 0.52641 0.0
Zn617 Zn 0.49784 0.51385 0.50215 0.0
C618 C 0.51871 0.47655 0.55277 0.0
O619 O 0.52714 0.49136 0.56481 0.0
C620 C 0.51961 0.54323 0.48373 0.0
O621 O 0.51344 0.53063 0.46872 0.0
O622 O 0.56154 0.50121 0.53617 0.0
O623 O 0.53476 0.499 0.49743 0.0
O624 O 0.50494 0.49387 0.48367 0.0
C625 C 0.56601 0.48533 0.53064 0.0
O626 O 0.55291 0.47219 0.52039 0.0
O627 O 0.51893 0.47769 0.53465 0.0
C628 C 0.46897 0.53503 0.50228 0.0
O629 O 0.48253 0.54484 0.51507 0.0
O630 O 0.47179 0.51959 0.49358 0.0
O631 O 0.49593 0.50851 0.52977 0.0
O632 O 0.5248 0.52408 0.54014 0.0
O633 O 0.51594 0.53877 0.5005 0.0
C634 C 0.52249 0.49296 0.4829 0.0
C635 C 0.50715 0.51973 0.54258 0.0
Zn636 Zn 0.98936 0.5126 0.00971 0.0
Zn637 Zn 0.03207 0.5074 0.00322 0.0
C638 C 0.99519 0.54282 0.03861 0.0
O639 O 0.9831 0.52962 0.04564 0.0
C640 C 0.02033 0.47616 0.97337 0.0
O641 O 0.02822 0.48878 0.96233 0.0
O642 O 0.96089 0.51333 0.00803 0.0
O643 O 0.99591 0.5096 0.98231 0.0
O644 O 0.02459 0.52758 0.98681 0.0
C645 C 0.95639 0.52608 0.99767 0.0
O646 O 0.96979 0.53611 0.98891 0.0
O647 O 0.00138 0.53877 0.02249 0.0
C648 C 0.06428 0.49192 0.01238 0.0
O649 O 0.05034 0.48079 0.01942 0.0
O650 O 0.0604 0.50612 0.00389 0.0
O651 O 0.02652 0.50936 0.03102 0.0
O652 O 0.99668 0.49356 0.0274 0.0
O653 O 0.01923 0.48125 0.99109 0.0
C654 C 0.00831 0.52271 0.97701 0.0
C655 C 0.01314 0.49769 0.03699 0.0
H656 H 0.01416 0.19392 0.9044 0.0
H657 H 0.02107 0.16682 0.92155 0.0
H658 H 0.97708 0.17379 0.95877 0.0
H659 H 0.96993 0.20053 0.94174 0.0
H660 H 0.03095 0.16319 0.96244 0.0
H661 H 0.96105 0.11845 0.93291 0.0
H662 H 0.97106 0.14013 0.92291 0.0
H663 H 0.959 0.14122 0.94451 0.0
C664 C 0.00607 0.18975 0.91633 0.0
C665 C 0.99131 0.19921 0.92153 0.0
C666 C 0.01005 0.17431 0.92611 0.0
C667 C 0.99934 0.16815 0.94117 0.0
C668 C 0.98525 0.17812 0.94693 0.0
H669 H 0.98425 0.08072 0.01753 0.0
H670 H 0.98672 0.11015 0.00163 0.0
C671 C 0.98121 0.19343 0.93718 0.0
C672 C 0.00212 0.15083 0.95047 0.0
H673 H 0.97801 0.10717 0.95922 0.0
C674 C 0.0195 0.15082 0.96159 0.0
C675 C 0.98717 0.1347 0.94917 0.0
C676 C 0.96858 0.13348 0.93658 0.0
C677 C 0.02197 0.13534 0.97219 0.0
C678 C 0.00671 0.11961 0.97148 0.0
C679 C 0.9896 0.1194 0.95987 0.0
C680 C 0.00776 0.10329 0.98301 0.0
C681 C 0.04055 0.13612 0.98458 0.0
C682 C 0.0191 0.08991 0.97803 0.0
C683 C 0.01768 0.07299 0.98706 0.0
C684 C 0.00482 0.06921 0.00112 0.0
C685 C 0.99424 0.08314 0.00672 0.0
C686 C 0.99563 0.09998 0.99767 0.0
H687 H 0.04999 0.1504 0.9856 0.0
H688 H 0.0377 0.13251 -0.00059 0.0
H689 H 0.0483 0.12536 0.97826 0.0
H690 H 0.02836 0.09214 0.96657 0.0
H691 H 0.02604 0.06254 0.98243 0.0
H692 H 0.10398 0.79366 0.16745 0.0
H693 H 0.12803 0.79512 0.19466 0.0
H694 H 0.08372 0.78132 0.23241 0.0
H695 H 0.05923 0.7793 0.20483 0.0
H696 H 0.13666 0.81584 0.23028 0.0
H697 H 0.11351 0.73822 0.23771 0.0
H698 H 0.10446 0.74917 0.2173 0.0
H699 H 0.09632 0.7535 0.24066 0.0
C700 C 0.09923 0.79108 0.18153 0.0
C701 C 0.07965 0.78604 0.18388 0.0
C702 C 0.11305 0.79204 0.19714 0.0
C703 C 0.1077 0.78805 0.21551 0.0
C704 C 0.08816 0.7841 0.21826 0.0
H705 H 0.21751 0.79101 0.28688 0.0
H706 H 0.18437 0.79623 0.2822 0.0
C707 C 0.07421 0.78305 0.20252 0.0
C708 C 0.12293 0.78657 0.23091 0.0
H709 H 0.14376 0.75299 0.25221 0.0
C710 C 0.13805 0.80225 0.23559 0.0
C711 C 0.12463 0.76881 0.23783 0.0
C712 C 0.10896 0.75138 0.23312 0.0
C713 C 0.15555 0.80018 0.24526 0.0
C714 C 0.15776 0.78203 0.25078 0.0
C715 C 0.14198 0.76686 0.24789 0.0
C716 C 0.17698 0.7775 0.25558 0.0
C717 C 0.17206 0.81696 0.24781 0.0
C718 C 0.18354 0.7647 0.24262 0.0
C719 C 0.20224 0.76159 0.2453 0.0
C720 C 0.21491 0.77126 0.26103 0.0
C721 C 0.20812 0.78346 0.27455 0.0
C722 C 0.18924 0.78652 0.27186 0.0
H723 H 0.16846 0.82946 0.2408 0.0
H724 H 0.17608 0.82138 0.26349 0.0
H725 H 0.18474 0.8129 0.2416 0.0
H726 H 0.17435 0.75759 0.22994 0.0
H727 H 0.2069 0.752 0.23467 0.0
H728 H 0.52705 0.80251 0.41774 0.0
H729 H 0.53227 0.83557 0.43275 0.0
H730 H 0.47128 0.83396 0.42594 0.0
H731 H 0.46602 0.80084 0.41209 0.0
H732 H 0.52564 0.86777 0.42158 0.0
H733 H 0.48202 0.85128 0.48187 0.0
H734 H 0.48818 0.83281 0.4658 0.0
H735 H 0.46786 0.8436 0.45916 0.0
C736 C 0.51482 0.80928 0.41952 0.0
C737 C 0.49613 0.79908 0.41409 0.0
C738 C 0.51778 0.82812 0.42809 0.0
C739 C 0.50211 0.83707 0.43106 0.0
C740 C 0.48355 0.82715 0.42459 0.0
H741 H 0.50717 0.95926 0.44985 0.0
H742 H 0.50429 0.92606 0.43647 0.0
C743 C 0.48056 0.80827 0.41651 0.0
C744 C 0.505 0.85681 0.44069 0.0
H745 H 0.48843 0.88419 0.4754 0.0
C746 C 0.51768 0.87134 0.43351 0.0
C747 C 0.495 0.86145 0.45659 0.0
C748 C 0.4827 0.8464 0.46643 0.0
C749 C 0.52012 0.89043 0.44133 0.0
C750 C 0.50893 0.89525 0.45618 0.0
C751 C 0.49674 0.88062 0.46376 0.0
C752 C 0.50974 0.91529 0.46425 0.0
C753 C 0.53496 0.90509 0.43382 0.0
C754 C 0.51253 0.92015 0.4844 0.0
C755 C 0.51341 0.93897 0.49209 0.0
C756 C 0.51184 0.95334 0.47975 0.0
C757 C 0.50861 0.94845 0.45965 0.0
C758 C 0.50723 0.92953 0.45199 0.0
H759 H 0.54644 0.89843 0.42791 0.0
H760 H 0.52806 0.91164 0.42184 0.0
H761 H 0.54168 0.91655 0.44535 0.0
H762 H 0.51438 0.90944 0.4942 0.0
H763 H 0.51604 0.94238 0.50766 0.0
H764 H 0.47116 0.25006 0.68176 0.0
H765 H 0.44126 0.24826 0.69684 0.0
H766 H 0.45938 0.30656 0.72179 0.0
H767 H 0.48945 0.30848 0.70696 0.0
H768 H 0.44164 0.28116 0.74751 0.0
H769 H 0.39867 0.27573 0.67606 0.0
H770 H 0.41361 0.25816 0.67845 0.0
H771 H 0.4244 0.28295 0.67904 0.0
C772 C 0.46887 0.26248 0.69056 0.0
C773 C 0.48262 0.27949 0.693 0.0
C774 C 0.45175 0.26143 0.69912 0.0
C775 C 0.44801 0.27737 0.71018 0.0
C776 C 0.46199 0.29412 0.71325 0.0
H777 H 0.33847 0.30183 0.73467 0.0
H778 H 0.37086 0.3023 0.72581 0.0
C779 C 0.47913 0.2952 0.70471 0.0
C780 C 0.42921 0.27688 0.71782 0.0
H781 H 0.38157 0.27285 0.70354 0.0
C782 C 0.42847 0.27931 0.73794 0.0
C783 C 0.41212 0.27469 0.70525 0.0
C784 C 0.41215 0.2729 0.68349 0.0
C785 C 0.41102 0.27951 0.74585 0.0
C786 C 0.39392 0.27704 0.73326 0.0
C787 C 0.3947 0.27464 0.71315 0.0
C788 C 0.37505 0.27758 0.74044 0.0
C789 C 0.41106 0.28281 0.76753 0.0
C790 C 0.36672 0.26364 0.75185 0.0
C791 C 0.34814 0.26335 0.75701 0.0
C792 C 0.33756 0.27691 0.7507 0.0
C793 C 0.34618 0.29113 0.73972 0.0
C794 C 0.3647 0.29143 0.73463 0.0
H795 H 0.42566 0.28866 0.7748 0.0
H796 H 0.40142 0.29281 0.77133 0.0
H797 H 0.40575 0.26904 0.77331 0.0
H798 H 0.37434 0.25262 0.75622 0.0
H799 H 0.34185 0.25215 0.76539 0.0
H800 H 0.01524 0.79878 0.6307 0.0
H801 H 0.01735 0.82628 0.61168 0.0
H802 H 0.96326 0.80105 0.5792 0.0
H803 H 0.96112 0.77337 0.59793 0.0
H804 H 0.99154 0.81708 0.55602 0.0
H805 H 0.98436 0.86733 0.61893 0.0
H806 H 0.00349 0.85432 0.62247 0.0
H807 H 0.97908 0.84175 0.61942 0.0
C808 C 0.00379 0.79906 0.6195 0.0
C809 C 0.98792 0.78396 0.61595 0.0
C810 C 0.00501 0.8148 0.60868 0.0
C811 C 0.99034 0.81579 0.59422 0.0
C812 C 0.97471 0.80056 0.59033 0.0
H813 H 0.96343 0.91635 0.54752 0.0
H814 H 0.96306 0.88582 0.56092 0.0
C815 C 0.97349 0.78479 0.60111 0.0
C816 C 0.99095 0.83294 0.58352 0.0
H817 H 0.99038 0.88062 0.5896 0.0
C818 C 0.99131 0.831 0.56332 0.0
C819 C 0.99044 0.85101 0.5931 0.0
C820 C 0.98915 0.85379 0.61464 0.0
C821 C 0.99124 0.84672 0.55243 0.0
C822 C 0.99098 0.86482 0.56207 0.0
C823 C 0.99065 0.86673 0.58226 0.0
C824 C 0.99037 0.88198 0.5516 0.0
C825 C 0.99096 0.84377 0.5307 0.0
C826 C 0.00567 0.88974 0.5415 0.0
C827 C 0.00588 0.90721 0.53367 0.0
C828 C 0.99088 0.91725 0.53607 0.0
C829 C 0.97525 0.90902 0.54551 0.0
C830 C 0.97501 0.89158 0.5532 0.0
H831 H 0.98683 0.82843 0.52518 0.0
H832 H 0.98084 0.85176 0.52346 0.0
H833 H 0.00547 0.84921 0.52657 0.0
H834 H 0.01782 0.8827 0.54036 0.0
H835 H 0.01818 0.91327 0.5266 0.0
H836 H 0.47891 0.75996 0.8736 0.0
H837 H 0.45158 0.75824 0.84905 0.0
H838 H 0.41496 0.76469 0.89428 0.0
H839 H 0.4419 0.76642 0.91875 0.0
H840 H 0.41568 0.73162 0.84474 0.0
H841 H 0.40578 0.80639 0.85843 0.0
H842 H 0.42775 0.79868 0.8662 0.0
H843 H 0.40759 0.7946 0.88016 0.0
C844 C 0.46504 0.76103 0.8783 0.0
C845 C 0.46263 0.76338 0.89815 0.0
C846 C 0.44947 0.76008 0.86426 0.0
C847 C 0.43137 0.76171 0.86989 0.0
C848 C 0.42891 0.76381 0.88965 0.0
H849 H 0.31606 0.72422 0.82701 0.0
H850 H 0.34917 0.72987 0.84144 0.0
C851 C 0.44434 0.76465 0.90362 0.0
C852 C 0.41467 0.7605 0.85535 0.0
H853 H 0.37864 0.784 0.84228 0.0
C854 C 0.40776 0.74318 0.8439 0.0
C855 C 0.40452 0.7757 0.85407 0.0
C856 C 0.41188 0.79497 0.86523 0.0
C857 C 0.39025 0.74024 0.83219 0.0
C858 C 0.37936 0.75492 0.83213 0.0
C859 C 0.38692 0.77268 0.84253 0.0
C860 C 0.35941 0.75153 0.82287 0.0
C861 C 0.38332 0.72125 0.82036 0.0
C862 C 0.35406 0.76226 0.80799 0.0
C863 C 0.33502 0.75911 0.79969 0.0
C864 C 0.32103 0.74534 0.80635 0.0
C865 C 0.32645 0.7349 0.82149 0.0
C866 C 0.34542 0.73798 0.82966 0.0
H867 H 0.39541 0.71401 0.81729 0.0
H868 H 0.37356 0.71182 0.82861 0.0
H869 H 0.37531 0.72299 0.80641 0.0
H870 H 0.36464 0.77294 0.80272 0.0
H871 H 0.33128 0.7674 0.78807 0.0
H872 H 0.48264 0.21712 0.09142 0.0
H873 H 0.48157 0.19696 0.06107 0.0
H874 H 0.48297 0.14802 0.09324 0.0
H875 H 0.48343 0.16784 0.12342 0.0
H876 H 0.50835 0.17918 0.05027 0.0
H877 H 0.44316 0.12474 0.05015 0.0
H878 H 0.44773 0.14652 0.06624 0.0
H879 H 0.45755 0.12607 0.07279 0.0
C880 C 0.48233 0.20198 0.09198 0.0
C881 C 0.48314 0.19409 0.10986 0.0
C882 C 0.4817 0.19048 0.07462 0.0
C883 C 0.48186 0.17089 0.0748 0.0
C884 C 0.48222 0.16295 0.09261 0.0
H885 H 0.53903 0.09642 0.01941 0.0
H886 H 0.52832 0.1241 0.03404 0.0
C887 C 0.48267 0.17437 0.10993 0.0
C888 C 0.4839 0.1591 0.05682 0.0
H889 H 0.46896 0.11444 0.03343 0.0
C890 C 0.49941 0.16522 0.04628 0.0
C891 C 0.472 0.14108 0.05116 0.0
C892 C 0.45406 0.13436 0.06058 0.0
C893 C 0.50437 0.15312 0.03147 0.0
C894 C 0.49383 0.13426 0.02744 0.0
C895 C 0.47727 0.12879 0.03671 0.0
C896 C 0.50124 0.11926 0.01606 0.0
C897 C 0.52128 0.16045 0.02078 0.0
C898 C 0.48961 0.10725 0.00098 0.0
C899 C 0.4957 0.09118 0.99262 0.0
C900 C 0.51338 0.08681 -0.00056 0.0
C901 C 0.52534 0.09942 0.01382 0.0
C902 C 0.51929 0.11538 0.0221 0.0
H903 H 0.52267 0.17604 0.01964 0.0
H904 H 0.5346 0.15817 0.02898 0.0
H905 H 0.52005 0.15299 0.00598 0.0
H906 H 0.47555 0.10989 0.99622 0.0
H907 H 0.48611 0.08164 0.98167 0.0
H908 H 0.0615 0.24886 0.39872 0.0
H909 H 0.08861 0.24629 0.38013 0.0
H910 H 0.09756 0.30681 0.37465 0.0
H911 H 0.0702 0.30946 0.3929 0.0
H912 H 0.10022 0.28579 0.34042 0.0
H913 H 0.14457 0.26371 0.40097 0.0
H914 H 0.12147 0.24861 0.39506 0.0
H915 H 0.12315 0.27307 0.4045 0.0
C916 C 0.06921 0.26164 0.39356 0.0
C917 C 0.06375 0.2794 0.39743 0.0
C918 C 0.08478 0.26015 0.38301 0.0
C919 C 0.09533 0.27641 0.3763 0.0
C920 C 0.08967 0.29408 0.37977 0.0
H921 H 0.20955 0.29504 0.34232 0.0
H922 H 0.18019 0.29361 0.35807 0.0
C923 C 0.07405 0.29558 0.39024 0.0
C924 C 0.11235 0.27508 0.36575 0.0
H925 H 0.15676 0.26341 0.37043 0.0
C926 C 0.11258 0.28086 0.34694 0.0
C927 C 0.12853 0.26883 0.37438 0.0
C928 C 0.12958 0.26337 0.3949 0.0
C929 C 0.12858 0.28062 0.33655 0.0
C930 C 0.14464 0.27408 0.34507 0.0
C931 C 0.14436 0.26823 0.36384 0.0
C932 C 0.1624 0.27439 0.33533 0.0
C933 C 0.12839 0.28796 0.31681 0.0
C934 C 0.16225 0.26381 0.31739 0.0
C935 C 0.17909 0.26466 0.30825 0.0
C936 C 0.19638 0.27599 0.31698 0.0
C937 C 0.1965 0.28619 0.33515 0.0
C938 C 0.17971 0.28538 0.3442 0.0
H939 H 0.11703 0.29655 0.31435 0.0
H940 H 0.14243 0.29689 0.31498 0.0
H941 H 0.12558 0.27567 0.3055 0.0
H942 H 0.14913 0.25491 0.31047 0.0
H943 H 0.17853 0.25656 0.29432 0.0
H944 H 0.95753 0.00875 0.20366 0.0
H945 H 0.97347 0.02071 0.17662 0.0
H946 H 0.93819 0.06362 0.17312 0.0
H947 H 0.92151 0.05121 0.20026 0.0
H948 H 0.93839 0.04567 0.13869 0.0
H949 H 0.01339 0.06545 0.16969 0.0
H950 H 0.00428 0.04183 0.17552 0.0
H951 H 0.99397 0.06157 0.1848 0.0
C952 C 0.95324 0.02092 0.19741 0.0
C953 C 0.93814 0.02897 0.20413 0.0
C954 C 0.96262 0.02794 0.18203 0.0
C955 C 0.95742 0.04339 0.17308 0.0
C956 C 0.94263 0.05183 0.17998 0.0
H957 H 0.02391 0.05656 0.07218 0.0
H958 H 0.01093 0.06715 0.10191 0.0
C959 C 0.9331 0.04472 0.19546 0.0
C960 C 0.96599 0.0488 0.15515 0.0
H961 H 0.00838 0.05209 0.13527 0.0
C962 C 0.95374 0.04766 0.13802 0.0
C963 C 0.98604 0.05202 0.15417 0.0
C964 C 1.00012 0.05551 0.17212 0.0
C965 C 0.96088 0.04751 0.11986 0.0
C966 C 0.98068 0.04789 0.11881 0.0
C967 C 0.99313 0.05122 0.13599 0.0
C968 C 0.98824 0.04233 0.10042 0.0
C969 C 0.94699 0.04616 0.10196 0.0
C970 C 0.98014 0.02471 0.09 0.0
C971 C 0.98741 0.01872 0.07313 0.0
C972 C 0.00324 0.03004 0.0664 0.0
C973 C 0.0117 0.04753 0.07702 0.0
C974 C 0.00425 0.05363 0.09393 0.0
H975 H 0.93507 0.05369 0.10495 0.0
H976 H 0.95413 0.05235 0.08973 0.0
H977 H 0.94061 0.03094 0.09751 0.0
H978 H 0.96829 0.01536 0.09509 0.0
H979 H 0.98072 0.00504 0.06548 0.0
H980 H 0.30719 0.67029 0.47305 0.0
H981 H 0.3118 0.6818 0.44114 0.0
H982 H 0.2674 0.71482 0.44753 0.0
H983 H 0.2626 0.70347 0.47908 0.0
H984 H 0.26408 0.69081 0.41155 0.0
H985 H 0.33598 0.73737 0.42991 0.0
H986 H 0.33292 0.7132 0.43634 0.0
H987 H 0.32065 0.72982 0.44828 0.0
C988 C 0.29847 0.68005 0.46766 0.0
C989 C 0.28454 0.68597 0.47861 0.0
C990 C 0.30118 0.68666 0.44951 0.0
C991 C 0.29003 0.69926 0.44215 0.0
C992 C 0.27616 0.70513 0.45303 0.0
H993 H 0.26808 0.75988 0.34443 0.0
H994 H 0.27006 0.74639 0.37558 0.0
C995 C 0.27346 0.69861 0.47107 0.0
C996 C 0.29217 0.7061 0.42286 0.0
H997 H 0.32109 0.73702 0.39827 0.0
C998 C 0.2766 0.70078 0.40856 0.0
C999 C 0.30857 0.71903 0.41909 0.0
C1000 C 0.3255 0.72535 0.43418 0.0
C1001 C 0.27679 0.70841 0.39066 0.0
C1002 C 0.29285 0.72196 0.38716 0.0
C1003 C 0.30875 0.72675 0.40116 0.0
C1004 C 0.29304 0.7316 0.36919 0.0
C1005 C 0.25976 0.702 0.37567 0.0
C1006 C 0.30585 0.72835 0.35571 0.0
C1007 C 0.30481 0.73608 0.33793 0.0
C1008 C 0.29099 0.74726 0.33344 0.0
C1009 C 0.27881 0.75126 0.34741 0.0
C1010 C 0.27985 0.74349 0.36516 0.0
H1011 H 0.25101 0.68823 0.3786 0.0
H1012 H 0.25051 0.71291 0.37591 0.0
H1013 H 0.2644 0.70037 0.3609 0.0
H1014 H 0.3162 0.7193 0.35867 0.0
H1015 H 0.31448 0.73284 0.32751 0.0
H1016 H 0.59858 0.95142 0.68748 0.0
H1017 H 0.57782 0.93352 0.65943 0.0
H1018 H 0.58941 0.9827 0.62718 0.0
H1019 H 0.60973 0.00042 0.65495 0.0
H1020 H 0.5456 0.94746 0.6476 0.0
H1021 H 0.58602 0.94054 0.58418 0.0
H1022 H 0.59655 0.94055 0.60883 0.0
H1023 H 0.59504 0.9627 0.59876 0.0
C1024 C 0.59729 0.95802 0.67407 0.0
C1025 C 0.60562 0.97726 0.67327 0.0
C1026 C 0.58545 0.94781 0.6581 0.0
C1027 C 0.58228 0.95665 0.64109 0.0
C1028 C 0.59202 0.97535 0.63989 0.0
H1029 H 0.51106 0.00342 0.58416 0.0
H1030 H 0.52626 0.98499 0.60683 0.0
C1031 C 0.6035 0.98557 0.65584 0.0
C1032 C 0.56596 0.94871 0.62636 0.0
H1033 H 0.55477 0.95021 0.57801 0.0
C1034 C 0.54748 0.94712 0.63228 0.0
C1035 C 0.56825 0.94781 0.60636 0.0
C1036 C 0.58755 0.94776 0.59913 0.0
C1037 C 0.53175 0.94782 0.619 0.0
C1038 C 0.53472 0.95024 0.59948 0.0
C1039 C 0.55256 0.94872 0.59308 0.0
C1040 C 0.52164 0.95918 0.58713 0.0
C1041 C 0.51248 0.94793 0.62627 0.0
C1042 C 0.51368 0.95066 0.56866 0.0
C1043 C 0.50462 0.96114 0.55579 0.0
C1044 C 0.50397 0.98036 0.56116 0.0
C1045 C 0.51118 0.98854 0.57989 0.0
C1046 C 0.5198 0.97799 0.59282 0.0
H1047 H 0.51066 0.93933 0.63882 0.0
H1048 H 0.51143 0.96282 0.6312 0.0
H1049 H 0.50065 0.94224 0.61468 0.0
H1050 H 0.51528 0.93629 0.56392 0.0
H1051 H 0.4995 0.95474 0.54121 0.0
H1052 H 0.22967 0.34779 0.98116 0.0
H1053 H 0.22465 0.33428 0.94713 0.0
H1054 H 0.28583 0.3411 0.94561 0.0
H1055 H 0.29079 0.35347 0.97968 0.0
H1056 H 0.23356 0.3469 0.91477 0.0
H1057 H 0.271 0.28684 0.92507 0.0
H1058 H 0.26558 0.30166 0.94524 0.0
H1059 H 0.28678 0.30898 0.93329 0.0
C1060 C 0.24199 0.34631 0.97351 0.0
C1061 C 0.26059 0.35138 0.98308 0.0
C1062 C 0.23913 0.33859 0.9541 0.0
C1063 C 0.25485 0.33609 0.94394 0.0
C1064 C 0.27344 0.34209 0.95331 0.0
H1065 H 0.25396 0.32537 0.81912 0.0
H1066 H 0.25625 0.33622 0.8536 0.0
C1067 C 0.27627 0.34934 0.97275 0.0
C1068 C 0.25198 0.32763 0.92344 0.0
H1069 H 0.26662 0.29509 0.89237 0.0
C1070 C 0.2406 0.33541 0.90991 0.0
C1071 C 0.26074 0.31229 0.9171 0.0
C1072 C 0.2715 0.30183 0.93101 0.0
C1073 C 0.2383 0.32876 0.89016 0.0
C1074 C 0.24838 0.31451 0.8836 0.0
C1075 C 0.2592 0.30628 0.89725 0.0
C1076 C 0.24791 0.3079 0.86273 0.0
C1077 C 0.2248 0.33688 0.87667 0.0
C1078 C 0.24368 0.28829 0.85643 0.0
C1079 C 0.2431 0.28204 0.8368 0.0
C1080 C 0.24645 0.29531 0.82309 0.0
C1081 C 0.25111 0.31487 0.8294 0.0
C1082 C 0.25218 0.32109 0.84908 0.0
H1083 H 0.21352 0.34204 0.88453 0.0
H1084 H 0.23294 0.34929 0.87046 0.0
H1085 H 0.21772 0.32613 0.86462 0.0
H1086 H 0.24049 0.2778 0.86666 0.0
H1087 H 0.23937 0.26687 0.83227 0.0
H1088 H 0.90759 0.03122 0.31162 0.0
H1089 H 0.91798 0.03389 0.3465 0.0
H1090 H 0.95745 0.9961 0.33578 0.0
H1091 H 0.9473 0.99334 0.30117 0.0
H1092 H 0.91636 0.00162 0.37004 0.0
H1093 H 0.99019 0.04278 0.37015 0.0
H1094 H 0.97168 0.04213 0.35053 0.0
H1095 H 0.98394 0.0224 0.35242 0.0
C1096 C 0.91864 0.02367 0.31669 0.0
C1097 C 0.92662 0.01208 0.30362 0.0
C1098 C 0.9245 0.02517 0.33659 0.0
C1099 C 0.93861 0.01535 0.34362 0.0
C1100 C 0.94675 0.00401 0.33059 0.0
H1101 H 0.99482 0.99727 0.45391 0.0
H1102 H 0.98338 0.997 0.41963 0.0
C1103 C 0.94084 0.00239 0.31081 0.0
C1104 C 0.9443 0.01604 0.36466 0.0
H1105 H 0.9828 0.02832 0.39885 0.0
C1106 C 0.93082 0.00764 0.37644 0.0
C1107 C 0.96322 0.02374 0.37283 0.0
C1108 C 0.97809 0.03343 0.36089 0.0
C1109 C 0.93591 0.00622 0.39614 0.0
C1110 C 0.95489 0.01378 0.4043 0.0
C1111 C 0.96829 0.02243 0.39254 0.0
C1112 C 0.96113 0.01311 0.42507 0.0
C1113 C 0.92109 0.9961 0.40787 0.0
C1114 C 0.95242 0.02225 0.43945 0.0
C1115 C 0.95883 0.02233 0.45899 0.0
C1116 C 0.97425 0.01345 0.46454 0.0
C1117 C 0.98289 0.00418 0.45011 0.0
C1118 C 0.9764 0.00406 0.43053 0.0
H1119 H 0.9092 0.98661 0.39845 0.0
H1120 H 0.92757 0.98742 0.41819 0.0
H1121 H 0.91487 0.00686 0.41632 0.0
H1122 H 0.94091 0.02968 0.43555 0.0
H1123 H 0.95193 0.02971 0.46971 0.0
H1124 H 0.29294 0.72088 0.57956 0.0
H1125 H 0.30526 0.73569 0.61159 0.0
H1126 H 0.33793 0.6912 0.62002 0.0
H1127 H 0.32481 0.67563 0.58769 0.0
H1128 H 0.31813 0.69393 0.64837 0.0
H1129 H 0.35088 0.76758 0.64078 0.0
H1130 H 0.32856 0.76334 0.62588 0.0
H1131 H 0.34668 0.74959 0.62034 0.0
C1132 C 0.30306 0.71436 0.58798 0.0
C1133 C 0.30765 0.69689 0.58117 0.0
C1134 C 0.31042 0.72311 0.6063 0.0
C1135 C 0.32288 0.71485 0.61823 0.0
C1136 C 0.32849 0.69797 0.61102 0.0
H1137 H 0.3161 0.77457 0.73236 0.0
H1138 H 0.33332 0.7634 0.70589 0.0
C1139 C 0.32097 0.68907 0.59257 0.0
C1140 C 0.32667 0.72203 0.63908 0.0
H1141 H 0.32882 0.76364 0.66748 0.0
C1142 C 0.32121 0.70917 0.6527 0.0
C1143 C 0.3314 0.74183 0.64522 0.0
C1144 C 0.33993 0.75626 0.63222 0.0
C1145 C 0.31763 0.71571 0.67129 0.0
C1146 C 0.31888 0.73553 0.67604 0.0
C1147 C 0.32708 0.7484 0.66355 0.0
C1148 C 0.30894 0.74276 0.69209 0.0
C1149 C 0.31138 0.70124 0.68521 0.0
C1150 C 0.28938 0.73548 0.69259 0.0
C1151 C 0.27962 0.74175 0.70755 0.0
C1152 C 0.28909 0.75574 0.72217 0.0
C1153 C 0.30844 0.76381 0.7212 0.0
C1154 C 0.31832 0.75734 0.70622 0.0
H1155 H 0.31861 0.6888 0.68325 0.0
H1156 H 0.31458 0.70753 0.70052 0.0
H1157 H 0.29573 0.69583 0.68221 0.0
H1158 H 0.28162 0.72482 0.6814 0.0
H1159 H 0.26467 0.73542 0.70781 0.0
H1160 H 0.61246 0.98523 0.78451 0.0
H1161 H 0.59689 0.98386 0.8145 0.0
H1162 H 0.56054 0.02175 0.79409 0.0
H1163 H 0.57565 0.02291 0.76403 0.0
H1164 H 0.5969 0.01429 0.84078 0.0
H1165 H 0.52213 0.98066 0.81369 0.0
H1166 H 0.54185 0.98018 0.79917 0.0
H1167 H 0.53113 0.00107 0.8015 0.0
C1168 C 0.60095 0.99304 0.78629 0.0
C1169 C 0.5953 0.00417 0.77187 0.0
C1170 C 0.59208 0.99224 0.80342 0.0
C1171 C 0.57736 0.00248 0.80638 0.0
C1172 C 0.57152 0.01336 0.79191 0.0
H1173 H 0.52308 0.0368 0.9067 0.0
H1174 H 0.53331 0.03226 0.87414 0.0
C1175 C 0.58031 0.01412 0.77478 0.0
C1176 C 0.56921 0.0031 0.82522 0.0
H1177 H 0.52723 0.99589 0.84612 0.0
C1178 C 0.5817 0.01008 0.84197 0.0
C1179 C 0.54934 0.99771 0.82669 0.0
C1180 C 0.53535 0.98931 0.80933 0.0
C1181 C 0.57482 0.01217 0.86011 0.0
C1182 C 0.55496 0.007 0.86153 0.0
C1183 C 0.54244 -7e-05 0.84486 0.0
C1184 C 0.54714 0.00858 0.88041 0.0
C1185 C 0.58877 0.02023 0.87762 0.0
C1186 C 0.55113 0.99643 0.89439 0.0
C1187 C 0.54533 0.99894 0.91288 0.0
C1188 C 0.53542 0.01369 0.91772 0.0
C1189 C 0.53073 0.02536 0.90341 0.0
C1190 C 0.53654 0.02279 0.88484 0.0
H1191 H 0.60299 0.02686 0.87352 0.0
H1192 H 0.5831 0.03109 0.88655 0.0
H1193 H 0.59079 0.00856 0.88673 0.0
H1194 H 0.55914 0.98526 0.89111 0.0
H1195 H 0.54904 0.98959 0.9235 0.0
H1196 H 0.22595 0.35821 0.08973 0.0
H1197 H 0.21386 0.34092 0.11664 0.0
H1198 H 0.24986 0.29968 0.10566 0.0
H1199 H 0.26172 0.3165 0.07887 0.0
H1200 H 0.21275 0.28318 0.11379 0.0
H1201 H 0.24755 0.3435 0.16832 0.0
H1202 H 0.23092 0.34868 0.14947 0.0
H1203 H 0.25309 0.34235 0.1435 0.0
C1204 C 0.23111 0.34534 0.09294 0.0
C1205 C 0.24497 0.33888 0.08228 0.0
C1206 C 0.22426 0.33554 0.10836 0.0
C1207 C 0.23117 0.31916 0.11329 0.0
C1208 C 0.24435 0.31229 0.10213 0.0
H1209 H 0.24538 0.24439 0.19866 0.0
H1210 H 0.23945 0.25863 0.16852 0.0
C1211 C 0.25119 0.32203 0.08685 0.0
C1212 C 0.22583 0.30958 0.13069 0.0
H1213 H 0.23407 0.31493 0.18002 0.0
C1214 C 0.21711 0.29018 0.12831 0.0
C1215 C 0.23153 0.31875 0.14959 0.0
C1216 C 0.2414 0.33943 0.15302 0.0
C1217 C 0.21457 0.27954 0.14431 0.0
C1218 C 0.22122 0.28846 0.16314 0.0
C1219 C 0.229 0.3081 0.16557 0.0
C1220 C 0.22193 0.27756 0.18039 0.0
C1221 C 0.20507 0.25878 0.14086 0.0
C1222 C 0.2139 0.28328 0.19707 0.0
C1223 C 0.21739 0.27524 0.21437 0.0
C1224 C 0.2291 0.26142 0.2154 0.0
C1225 C 0.23619 0.2549 0.19837 0.0
C1226 C 0.23274 0.26299 0.18107 0.0
H1227 H 0.19521 0.25593 0.12726 0.0
H1228 H 0.21622 0.24991 0.13938 0.0
H1229 H 0.19689 0.25423 0.15309 0.0
H1230 H 0.20554 0.29451 0.1969 0.0
H1231 H 0.2115 0.2804 0.22712 0.0
H1232 H 0.2254 0.95557 0.97358 0.0
H1233 H 0.20148 0.97512 0.98052 0.0
H1234 H 0.18415 0.94065 0.02628 0.0
H1235 H 0.20811 0.92118 0.01962 0.0
H1236 H 0.16186 0.96343 0.97939 0.0
H1237 H 0.1932 0.99502 0.05311 0.0
H1238 H 0.2065 0.98328 0.03652 0.0
H1239 H 0.1896 0.96942 0.05001 0.0
C1240 C 0.21656 0.95218 0.98518 0.0
C1241 C 0.21873 0.93684 0.99609 0.0
C1242 C 0.20291 0.96338 0.98912 0.0
C1243 C 0.19127 0.95955 0.00413 0.0
C1244 C 0.19328 0.94414 0.01492 0.0
H1245 H 0.09351 0.99773 0.04651 0.0
H1246 H 0.12194 0.98396 0.04181 0.0
C1247 C 0.2069 0.93293 0.01099 0.0
C1248 C 0.17653 0.97118 0.00804 0.0
H1249 H 0.16146 0.99919 0.04342 0.0
C1250 C 0.16186 0.97141 0.99332 0.0
C1251 C 0.17657 0.98155 0.02624 0.0
C1252 C 0.1924 0.9825 0.04234 0.0
C1253 C 0.14688 0.98124 0.99648 0.0
C1254 C 0.1468 0.99142 0.01477 0.0
C1255 C 0.16159 0.9914 0.02942 0.0
C1256 C 0.13099 0.00149 0.01914 0.0
C1257 C 0.13093 0.98008 0.98042 0.0
C1258 C 0.12713 0.01649 0.00855 0.0
C1259 C 0.11089 0.02442 0.01119 0.0
C1260 C 0.09825 0.01752 0.02456 0.0
C1261 C 0.10288 0.00335 0.03605 0.0
C1262 C 0.11911 0.99543 0.03336 0.0
H1263 H 0.13084 0.96821 0.96906 0.0
H1264 H 0.11676 0.97803 0.98621 0.0
H1265 H 0.13287 0.99362 0.97345 0.0
H1266 H 0.13637 0.02167 0.9978 0.0
H1267 H 0.10784 0.03538 0.00217 0.0
H1268 H 0.72444 0.57288 0.9965 0.0
H1269 H 0.69965 0.54375 0.99311 0.0
H1270 H 0.65747 0.57615 0.9734 0.0
H1271 H 0.68188 0.60481 0.97631 0.0
H1272 H 0.66975 0.53833 0.01348 0.0
H1273 H 0.64125 0.52899 0.93684 0.0
H1274 H 0.66421 0.54387 0.94524 0.0
H1275 H 0.64247 0.55342 0.94569 0.0
C1276 C 0.70996 0.57362 0.99097 0.0
C1277 C 0.70512 0.59119 0.98679 0.0
C1278 C 0.69582 0.55699 0.98905 0.0
C1279 C 0.67672 0.55765 0.98265 0.0
C1280 C 0.67214 0.57506 0.97778 0.0
H1281 H 0.574 0.52829 0.02276 0.0
H1282 H 0.60731 0.53613 0.01674 0.0
C1283 C 0.68615 0.59157 0.97972 0.0
C1284 C 0.66091 0.54122 0.98361 0.0
H1285 H 0.61718 0.52086 0.96006 0.0
C1286 C 0.65853 0.53401 0.00159 0.0
C1287 C 0.64642 0.53504 0.96803 0.0
C1288 C 0.64888 0.54061 0.94783 0.0
C1289 C 0.64116 0.5227 0.00501 0.0
C1290 C 0.62568 0.51893 0.99022 0.0
C1291 C 0.62886 0.52415 0.97159 0.0
C1292 C 0.60566 0.51267 0.99459 0.0
C1293 C 0.63925 0.51575 0.02478 0.0
C1294 C 0.59336 0.4971 0.98378 0.0
C1295 C 0.574 0.49266 0.98706 0.0
C1296 C 0.56664 0.50389 0.00103 0.0
C1297 C 0.5791 0.51932 0.01188 0.0
C1298 C 0.5983 0.5237 0.00863 0.0
H1299 H 0.65311 0.5128 0.03117 0.0
H1300 H 0.63523 0.52705 0.03459 0.0
H1301 H 0.62816 0.5026 0.02416 0.0
H1302 H 0.59868 0.48856 0.97269 0.0
H1303 H 0.56475 0.4807 0.97844 0.0
H1304 H 0.6757 0.46055 0.32053 0.0
H1305 H 0.6931 0.43433 0.31566 0.0
H1306 H 0.69462 0.44364 0.25535 0.0
H1307 H 0.67706 0.46988 0.26001 0.0
H1308 H 0.67868 0.40075 0.28486 0.0
H1309 H 0.75194 0.44119 0.27848 0.0
H1310 H 0.73485 0.45161 0.29143 0.0
H1311 H 0.73173 0.44814 0.26549 0.0
C1312 C 0.67984 0.45716 0.30625 0.0
C1313 C 0.67494 0.46731 0.29065 0.0
C1314 C 0.68979 0.44217 0.3035 0.0
C1315 C 0.69525 0.43717 0.28519 0.0
C1316 C 0.69069 0.44743 0.26964 0.0
H1317 H 0.75481 0.34421 0.2502 0.0
H1318 H 0.74144 0.37363 0.25077 0.0
C1319 C 0.68059 0.46235 0.27233 0.0
C1320 C 0.70469 0.42048 0.28225 0.0
H1321 H 0.7478 0.40759 0.27615 0.0
C1322 C 0.69377 0.40222 0.28288 0.0
C1323 C 0.7243 0.42247 0.27941 0.0
C1324 C 0.73653 0.44188 0.27871 0.0
C1325 C 0.702 0.38585 0.28101 0.0
C1326 C 0.72183 0.38784 0.27902 0.0
C1327 C 0.73265 0.40609 0.2778 0.0
C1328 C 0.73158 0.37116 0.27917 0.0
C1329 C 0.6893 0.36654 0.2811 0.0
C1330 C 0.73114 0.36047 0.29521 0.0
C1331 C 0.73861 0.34373 0.29488 0.0
C1332 C 0.74697 0.33742 0.27859 0.0
C1333 C 0.74845 0.34872 0.26295 0.0
C1334 C 0.74078 0.36548 0.26324 0.0
H1335 H 0.67406 0.36701 0.27671 0.0
H1336 H 0.6938 0.3556 0.2712 0.0
H1337 H 0.69025 0.36202 0.29598 0.0
H1338 H 0.72459 0.36485 0.30787 0.0
H1339 H 0.73747 0.33551 0.30728 0.0
H1340 H 0.80058 0.44482 0.51461 0.0
H1341 H 0.82704 0.47195 0.51367 0.0
H1342 H 0.86554 0.43274 0.50459 0.0
H1343 H 0.83954 0.4059 0.50531 0.0
H1344 H 0.86016 0.48078 0.5387 0.0
H1345 H 0.87898 0.46933 0.46419 0.0
H1346 H 0.85613 0.45848 0.47146 0.0
H1347 H 0.87674 0.44737 0.47526 0.0
C1348 C 0.81465 0.44204 0.51213 0.0
C1349 C 0.81797 0.42321 0.51008 0.0
C1350 C 0.82971 0.45752 0.51158 0.0
C1351 C 0.84815 0.45434 0.50864 0.0
C1352 C 0.85133 0.43555 0.50632 0.0
H1353 H 0.9584 0.4924 0.55478 0.0
H1354 H 0.92393 0.48307 0.54718 0.0
C1355 C 0.83644 0.42019 0.50697 0.0
C1356 C 0.86478 0.47026 0.50993 0.0
H1357 H 0.9058 0.48333 0.48868 0.0
C1358 C 0.86991 0.48179 0.52754 0.0
C1359 C 0.8773 0.472 0.49522 0.0
C1360 C 0.87187 0.46126 0.4754 0.0
C1361 C 0.88812 0.49341 0.53159 0.0
C1362 C 0.90158 0.4931 0.51783 0.0
C1363 C 0.89566 0.48326 0.49943 0.0
C1364 C 0.92233 0.50037 0.52314 0.0
C1365 C 0.89304 0.50521 0.55091 0.0
C1366 C 0.93307 0.51282 0.51182 0.0
C1367 C 0.95298 0.518 0.51598 0.0
C1368 C 0.96244 0.51067 0.53144 0.0
C1369 C 0.95159 0.49835 0.54281 0.0
C1370 C 0.93179 0.49318 0.53863 0.0
H1371 H 0.88016 0.50993 0.55603 0.0
H1372 H 0.89832 0.49636 0.56182 0.0
H1373 H 0.90429 0.51799 0.55017 0.0
H1374 H 0.92608 0.51833 0.49964 0.0
H1375 H 0.96096 0.52753 0.50697 0.0
H1376 H 0.35376 0.05954 0.29632 0.0
H1377 H 0.33361 0.08355 0.29273 0.0
H1378 H 0.36229 0.1022 0.24365 0.0
H1379 H 0.38273 0.07844 0.2473 0.0
H1380 H 0.35998 0.13182 0.26981 0.0
H1381 H 0.28866 0.08494 0.25297 0.0
H1382 H 0.30158 0.08005 0.27472 0.0
H1383 H 0.31073 0.07611 0.25176 0.0
C1384 C 0.3557 0.06864 0.28466 0.0
C1385 C 0.36988 0.06706 0.27211 0.0
C1386 C 0.34404 0.08227 0.28253 0.0
C1387 C 0.34621 0.09447 0.26772 0.0
C1388 C 0.36028 0.09285 0.2551 0.0
H1389 H 0.27337 0.17717 0.23869 0.0
H1390 H 0.2894 0.14948 0.23738 0.0
C1391 C 0.37196 0.07926 0.25724 0.0
C1392 C 0.33471 0.10975 0.26617 0.0
H1393 H 0.28891 0.11808 0.26162 0.0
C1394 C 0.34444 0.12879 0.26785 0.0
C1395 C 0.31444 0.10579 0.26337 0.0
C1396 C 0.30322 0.08561 0.2604 0.0
C1397 C 0.33448 0.14398 0.26743 0.0
C1398 C 0.31422 0.14006 0.26559 0.0
C1399 C 0.30444 0.12103 0.26324 0.0
C1400 C 0.30311 0.15568 0.26675 0.0
C1401 C 0.34574 0.16414 0.26899 0.0
C1402 C 0.30502 0.1679 0.28386 0.0
C1403 C 0.29596 0.18363 0.28465 0.0
C1404 C 0.28468 0.18743 0.26834 0.0
C1405 C 0.282 0.17464 0.25147 0.0
C1406 C 0.29115 0.15885 0.25069 0.0
H1407 H 0.36059 0.1645 0.26518 0.0
H1408 H 0.33865 0.17304 0.25938 0.0
H1409 H 0.34659 0.17063 0.28414 0.0
H1410 H 0.31387 0.16547 0.29654 0.0
H1411 H 0.29812 0.19303 0.29797 0.0
H1412 H 0.30111 0.10672 0.52045 0.0
H1413 H 0.32844 0.09069 0.52525 0.0
H1414 H 0.31857 0.06696 0.46552 0.0
H1415 H 0.29097 0.0826 0.46068 0.0
H1416 H 0.32684 0.04059 0.49048 0.0
H1417 H 0.37996 0.10836 0.50535 0.0
H1418 H 0.36121 0.10614 0.5211 0.0
H1419 H 0.35554 0.10759 0.49564 0.0
C1420 C 0.30473 0.09808 0.50832 0.0
C1421 C 0.29393 0.09608 0.49013 0.0
C1422 C 0.32041 0.08898 0.51108 0.0
C1423 C 0.32575 0.07787 0.49566 0.0
C1424 C 0.31475 0.0755 0.47761 0.0
H1425 H 0.43559 0.04896 0.48236 0.0
H1426 H 0.40526 0.06011 0.48006 0.0
C1427 C 0.299 0.08452 0.47485 0.0
C1428 C 0.34302 0.06905 0.49816 0.0
H1429 H 0.39157 0.07982 0.50896 0.0
C1430 C 0.341 0.04914 0.49456 0.0
C1431 C 0.36151 0.08025 0.5033 0.0
C1432 C 0.36479 0.10178 0.50641 0.0
C1433 C 0.35699 0.04014 0.49587 0.0
C1434 C 0.37544 0.05134 0.50123 0.0
C1435 C 0.3774 0.07123 0.50498 0.0
C1436 C 0.39313 0.04307 0.50186 0.0
C1437 C 0.35407 0.01882 0.49093 0.0
C1438 C 0.39636 0.02951 0.51473 0.0
C1439 C 0.41378 0.02294 0.51599 0.0
C1440 C 0.42828 0.03003 0.50457 0.0
C1441 C 0.42478 0.04328 0.49145 0.0
C1442 C 0.40743 0.0497 0.49012 0.0
H1443 H 0.33981 0.013 0.48287 0.0
H1444 H 0.36531 0.01505 0.48208 0.0
H1445 H 0.35503 0.01177 0.50452 0.0
H1446 H 0.38567 0.02444 0.52418 0.0
H1447 H 0.41611 0.01284 0.52633 0.0
H1448 H 0.6554 0.58946 0.30357 0.0
H1449 H 0.681 0.61713 0.30496 0.0
H1450 H 0.72041 0.58059 0.28964 0.0
H1451 H 0.69452 0.55254 0.28779 0.0
H1452 H 0.71696 0.62855 0.32544 0.0
H1453 H 0.72152 0.61578 0.24604 0.0
H1454 H 0.70232 0.60291 0.25776 0.0
H1455 H 0.7258 0.59712 0.26073 0.0
C1456 C 0.66952 0.58718 0.30066 0.0
C1457 C 0.67282 0.56877 0.29525 0.0
C1458 C 0.6842 0.60306 0.30158 0.0
C1459 C 0.70254 0.60097 0.29712 0.0
C1460 C 0.70626 0.58254 0.29282 0.0
H1461 H 0.77943 0.714 0.2993 0.0
H1462 H 0.77029 0.68037 0.30546 0.0
C1463 C 0.69148 0.56653 0.29186 0.0
C1464 C 0.7169 0.6184 0.29548 0.0
H1465 H 0.73717 0.64527 0.26161 0.0
C1466 C 0.7218 0.6321 0.3116 0.0
C1467 C 0.72309 0.62298 0.27735 0.0
C1468 C 0.71788 0.60904 0.2594 0.0
C1469 C 0.73159 0.65066 0.30981 0.0
C1470 C 0.73682 0.65551 0.29145 0.0
C1471 C 0.73313 0.64144 0.27565 0.0
C1472 C 0.74318 0.67563 0.28759 0.0
C1473 C 0.73498 0.66533 0.32718 0.0
C1474 C 0.73114 0.68395 0.27529 0.0
C1475 C 0.73629 0.70298 0.27171 0.0
C1476 C 0.75368 0.71418 0.28033 0.0
C1477 C 0.7659 0.70579 0.29252 0.0
C1478 C 0.76069 0.68661 0.2961 0.0
H1479 H 0.72803 0.65979 0.3398 0.0
H1480 H 0.7506 0.66965 0.33152 0.0
H1481 H 0.72944 0.67829 0.32352 0.0
H1482 H 0.71754 0.67575 0.26862 0.0
H1483 H 0.7265 0.70892 0.26225 0.0
H1484 H 0.8401 0.49 0.76879 0.0
H1485 H 0.81424 0.46226 0.76935 0.0
H1486 H 0.85617 0.42781 0.78411 0.0
H1487 H 0.88173 0.45511 0.78389 0.0
H1488 H 0.8086 0.42933 0.74594 0.0
H1489 H 0.81761 0.41187 0.82129 0.0
H1490 H 0.82799 0.43488 0.81409 0.0
H1491 H 0.8404 0.41507 0.81182 0.0
C1492 C 0.84373 0.47657 0.77248 0.0
C1493 C 0.86298 0.47476 0.77623 0.0
C1494 C 0.82896 0.46077 0.77282 0.0
C1495 C 0.83325 0.44306 0.77718 0.0
C1496 C 0.85243 0.44143 0.78129 0.0
H1497 H 0.80182 0.3318 0.73118 0.0
H1498 H 0.81012 0.3662 0.73905 0.0
C1499 C 0.86709 0.45707 0.78092 0.0
C1500 C 0.81825 0.42555 0.77535 0.0
H1501 H 0.80647 0.38437 0.79678 0.0
C1502 C 0.80767 0.4197 0.75725 0.0
C1503 C 0.81658 0.41312 0.79021 0.0
C1504 C 0.82611 0.4192 0.8105 0.0
C1505 C 0.79714 0.40106 0.753 0.0
C1506 C 0.79764 0.38786 0.76707 0.0
C1507 C 0.80646 0.39433 0.78581 0.0
C1508 C 0.79146 0.367 0.76191 0.0
C1509 C 0.78627 0.39547 0.7332 0.0
C1510 C 0.77869 0.35584 0.7726 0.0
C1511 C 0.77409 0.33597 0.7683 0.0
C1512 C 0.78231 0.32699 0.75331 0.0
C1513 C 0.79513 0.33824 0.74273 0.0
C1514 C 0.79973 0.35799 0.74706 0.0
H1515 H 0.78106 0.40787 0.72744 0.0
H1516 H 0.79598 0.39067 0.72303 0.0
H1517 H 0.77383 0.38371 0.73351 0.0
H1518 H 0.77234 0.36249 0.7843 0.0
H1519 H 0.76416 0.32768 0.77671 0.0
H1520 H 0.00561 0.82589 0.13227 0.0
H1521 H 0.99983 0.85556 0.11938 0.0
H1522 H 0.0298 0.84325 0.07007 0.0
H1523 H 0.03586 0.81395 0.08288 0.0
H1524 H 0.04482 0.87808 0.09121 0.0
H1525 H 0.96611 0.86964 0.07312 0.0
H1526 H 0.97381 0.8637 0.0968 0.0
H1527 H 0.97793 0.84952 0.07568 0.0
C1528 C 0.01055 0.82932 0.11846 0.0
C1529 C 0.02139 0.81773 0.10871 0.0
C1530 C 0.00717 0.84621 0.11107 0.0
C1531 C 0.01434 0.85154 0.09374 0.0
C1532 C 0.02415 0.83939 0.08347 0.0
H1533 H 0.01462 0.94957 0.02792 0.0
H1534 H 0.00848 0.91736 0.03866 0.0
C1535 C 0.02765 0.82268 0.09086 0.0
C1536 C 0.01401 0.87079 0.08748 0.0
H1537 H 0.98478 0.90047 0.0714 0.0
C1538 C 0.03168 0.88294 0.08684 0.0
C1539 C 0.99685 0.87704 0.08175 0.0
C1540 C 0.97756 0.86429 0.08169 0.0
C1541 C 0.0327 0.90121 0.08067 0.0
C1542 C 0.01557 0.9076 0.07522 0.0
C1543 C 0.99785 0.89548 0.07571 0.0
C1544 C 0.01619 0.92695 0.06905 0.0
C1545 C 0.0521 0.91354 0.07988 0.0
C1546 C 0.02206 0.9429 0.08268 0.0
C1547 C 0.02566 0.96122 0.07663 0.0
C1548 C 0.02344 0.96391 0.05682 0.0
C1549 C 0.01655 0.94795 0.04327 0.0
C1550 C 0.01296 0.92957 0.04936 0.0
H1551 H 0.06385 0.90528 0.08129 0.0
H1552 H 0.05262 0.92026 0.06604 0.0
H1553 H 0.05473 0.92514 0.09191 0.0
H1554 H 0.02457 0.9411 0.09794 0.0
H1555 H 0.03076 0.97321 0.08746 0.0
H1556 H 0.91624 0.21739 0.84897 0.0
H1557 H 0.8952 0.21922 0.82025 0.0
H1558 H 0.94394 0.24126 0.79061 0.0
H1559 H 0.9653 0.24 0.81987 0.0
H1560 H 0.9194 0.26396 0.78875 0.0
H1561 H 0.87781 0.19197 0.76823 0.0
H1562 H 0.8775 0.19679 0.79381 0.0
H1563 H 0.89998 0.19603 0.78393 0.0
C1564 C 0.92261 0.22219 0.83623 0.0
C1565 C 0.94244 0.22875 0.8368 0.0
C1566 C 0.91052 0.22299 0.81963 0.0
C1567 C 0.91795 0.2301 0.80307 0.0
C1568 C 0.93789 0.23557 0.80315 0.0
H1569 H 0.81299 0.24368 0.736 0.0
H1570 H 0.84513 0.23589 0.73847 0.0
C1571 C 0.95007 0.23481 0.81988 0.0
C1572 C 0.90455 0.23472 0.7874 0.0
H1573 H 0.85919 0.21832 0.76591 0.0
C1574 C 0.90652 0.25381 0.78317 0.0
C1575 C 0.88797 0.22148 0.77945 0.0
C1576 C 0.88587 0.20039 0.78145 0.0
C1577 C 0.89133 0.26044 0.77344 0.0
C1578 C 0.87362 0.24778 0.76838 0.0
C1579 C 0.87256 0.22823 0.77028 0.0
C1580 C 0.85546 0.25485 0.76453 0.0
C1581 C 0.89414 0.28117 0.76964 0.0
C1582 C 0.85065 0.26828 0.77817 0.0
C1583 C 0.83244 0.27283 0.77673 0.0
C1584 C 0.81844 0.26378 0.76182 0.0
C1585 C 0.82346 0.2509 0.74767 0.0
C1586 C 0.84181 0.24643 0.74906 0.0
H1587 H 0.90897 0.28627 0.7661 0.0
H1588 H 0.8839 0.28359 0.75756 0.0
H1589 H 0.8921 0.28991 0.78294 0.0
H1590 H 0.86063 0.27452 0.7906 0.0
H1591 H 0.82908 0.28276 0.78792 0.0
H1592 H 0.50222 0.20922 0.63829 0.0
H1593 H 0.49362 0.17535 0.62609 0.0
H1594 H 0.53583 0.18392 0.58533 0.0
H1595 H 0.54442 0.21767 0.59724 0.0
H1596 H 0.49932 0.1627 0.56941 0.0
H1597 H 0.52723 0.13477 0.63634 0.0
H1598 H 0.5107 0.15074 0.63948 0.0
H1599 H 0.53375 0.15948 0.63176 0.0
C1600 C 0.50963 0.20391 0.62669 0.0
C1601 C 0.52407 0.21614 0.6188 0.0
C1602 C 0.50478 0.18454 0.61983 0.0
C1603 C 0.5143 0.17713 0.60502 0.0
C1604 C 0.5284 0.18937 0.59685 0.0
H1605 H 0.51139 0.06864 0.53898 0.0
H1606 H 0.51869 0.10188 0.55314 0.0
C1607 C 0.53329 0.20866 0.6037 0.0
C1608 C 0.50959 0.15664 0.59781 0.0
H1609 H 0.51204 0.112 0.6107 0.0
C1610 C 0.50207 0.15159 0.57842 0.0
C1611 C 0.51319 0.14224 0.60965 0.0
C1612 C 0.5218 0.14699 0.63044 0.0
C1613 C 0.49796 0.13246 0.57053 0.0
C1614 C 0.50188 0.11808 0.58226 0.0
C1615 C 0.50916 0.1231 0.60174 0.0
C1616 C 0.49844 0.09773 0.57453 0.0
C1617 C 0.48918 0.1278 0.54978 0.0
C1618 C 0.48523 0.08424 0.58242 0.0
C1619 C 0.48115 0.06521 0.57448 0.0
C1620 C 0.49026 0.05933 0.55855 0.0
C1621 C 0.50403 0.07274 0.55116 0.0
C1622 C 0.50813 0.09176 0.55914 0.0
H1623 H 0.48249 0.13958 0.54452 0.0
H1624 H 0.50054 0.12559 0.54038 0.0
H1625 H 0.47816 0.11452 0.54815 0.0
H1626 H 0.47772 0.08855 0.5944 0.0
H1627 H 0.47051 0.05524 0.58056 0.0
H1628 H 0.54302 0.78718 0.33054 0.0
H1629 H 0.5708 0.78736 0.3121 0.0
H1630 H 0.58045 0.7353 0.33509 0.0
H1631 H 0.55279 0.73491 0.35344 0.0
H1632 H 0.60924 0.78789 0.32693 0.0
H1633 H 0.5805 0.72336 0.27623 0.0
H1634 H 0.56538 0.73579 0.29 0.0
H1635 H 0.57838 0.71949 0.30118 0.0
C1636 C 0.551 0.77572 0.3316 0.0
C1637 C 0.54564 0.761 0.34342 0.0
C1638 C 0.56685 0.77585 0.32104 0.0
C1639 C 0.57746 0.76117 0.32197 0.0
C1640 C 0.57221 0.74654 0.33384 0.0
H1641 H 0.68106 0.73015 0.29357 0.0
H1642 H 0.64914 0.73278 0.3021 0.0
C1643 C 0.55646 0.74643 0.34444 0.0
C1644 C 0.59456 0.76142 0.31126 0.0
H1645 H 0.61451 0.73428 0.2791 0.0
C1646 C 0.61033 0.77637 0.31621 0.0
C1647 C 0.59587 0.74637 0.29726 0.0
C1648 C 0.57907 0.73043 0.29069 0.0
C1649 C 0.62776 0.77612 0.30833 0.0
C1650 C 0.6293 0.76066 0.29491 0.0
C1651 C 0.61328 0.74611 0.28939 0.0
C1652 C 0.64788 0.75842 0.28793 0.0
C1653 C 0.64469 0.79186 0.31519 0.0
C1654 C 0.65753 0.77167 0.27661 0.0
C1655 C 0.67586 0.7702 0.27165 0.0
C1656 C 0.68478 0.75545 0.27798 0.0
C1657 C 0.67466 0.74175 0.28856 0.0
C1658 C 0.65639 0.7432 0.29343 0.0
H1659 H 0.64202 0.80091 0.32802 0.0
H1660 H 0.65765 0.7858 0.31898 0.0
H1661 H 0.64773 0.80114 0.30337 0.0
H1662 H 0.65107 0.78337 0.27196 0.0
H1663 H 0.68328 0.78097 0.26347 0.0
H1664 H 0.00983 0.23068 0.50174 0.0
H1665 H 0.01642 0.20246 0.51658 0.0
H1666 H 0.03127 0.17946 0.4619 0.0
H1667 H 0.0257 0.20827 0.44729 0.0
H1668 H 0.99779 0.16855 0.50879 0.0
H1669 H 0.07285 0.16633 0.49681 0.0
H1670 H 0.06241 0.18708 0.493 0.0
H1671 H 0.05895 0.16741 0.47436 0.0
C1672 C 0.01485 0.21974 0.49299 0.0
C1673 C 0.01723 0.2216 0.47337 0.0
C1674 C 0.01863 0.20362 0.50148 0.0
C1675 C 0.02454 0.18885 0.49046 0.0
C1676 C 0.02728 0.19086 0.4709 0.0
H1677 H 0.99704 0.07052 0.50622 0.0
H1678 H 0.99836 0.10344 0.49916 0.0
C1679 C 0.02393 0.20725 0.4625 0.0
C1680 C 0.02587 0.17065 0.49894 0.0
H1681 H 0.05349 0.13658 0.50328 0.0
C1682 C 0.01013 0.16175 0.50782 0.0
C1683 C 0.04206 0.16183 0.49806 0.0
C1684 C 0.06009 0.17129 0.49023 0.0
C1685 C 0.00982 0.14403 0.51515 0.0
C1686 C 0.02535 0.13453 0.51287 0.0
C1687 C 0.04145 0.14374 0.50476 0.0
C1688 C 0.02459 0.1146 0.51771 0.0
C1689 C 0.99281 0.13573 0.52528 0.0
C1690 C 0.03923 0.10976 0.53008 0.0
C1691 C 0.03869 0.09076 0.53394 0.0
C1692 C 0.02348 0.07633 0.52549 0.0
C1693 C 0.00883 0.08129 0.51321 0.0
C1694 C 0.0095 0.10017 0.50921 0.0
H1695 H 0.98607 0.14717 0.53194 0.0
H1696 H 0.98185 0.12664 0.51453 0.0
H1697 H 0.99691 0.12689 0.53678 0.0
H1698 H 0.05109 0.12067 0.53669 0.0
H1699 H 0.05023 0.08737 0.54338 0.0
H1700 H 0.55815 0.26544 0.16582 0.0
H1701 H 0.59231 0.27114 0.17721 0.0
H1702 H 0.58147 0.22785 0.21668 0.0
H1703 H 0.54742 0.22177 0.20515 0.0
H1704 H 0.6114 0.28231 0.21357 0.0
H1705 H 0.62286 0.21033 0.18715 0.0
H1706 H 0.60139 0.21909 0.17988 0.0
H1707 H 0.60432 0.20993 0.20306 0.0
C1708 C 0.56301 0.25716 0.17696 0.0
C1709 C 0.55006 0.24303 0.18445 0.0
C1710 C 0.58254 0.26043 0.18344 0.0
C1711 C 0.58948 0.24964 0.19749 0.0
C1712 C 0.5765 0.23599 0.20546 0.0
H1713 H 0.70366 0.25267 0.25541 0.0
H1714 H 0.66909 0.24563 0.24543 0.0
C1715 C 0.55701 0.23263 0.19893 0.0
C1716 C 0.61027 0.25274 0.20387 0.0
H1717 H 0.64883 0.23044 0.20664 0.0
C1718 C 0.61959 0.27098 0.21201 0.0
C1719 C 0.62094 0.23792 0.20182 0.0
C1720 C 0.61194 0.21826 0.19234 0.0
C1721 C 0.63924 0.27478 0.2183 0.0
C1722 C 0.64986 0.25998 0.21623 0.0
C1723 C 0.64057 0.24171 0.20826 0.0
C1724 C 0.67078 0.26345 0.22172 0.0
C1725 C 0.6485 0.29455 0.22729 0.0
C1726 C 0.68313 0.27538 0.21135 0.0
C1727 C 0.70282 0.27933 0.21691 0.0
C1728 C 0.71054 0.27143 0.23297 0.0
C1729 C 0.69816 0.25901 0.243 0.0
C1730 C 0.67843 0.25499 0.23735 0.0
H1731 H 0.63773 0.30304 0.23172 0.0
H1732 H 0.65859 0.29379 0.24017 0.0
H1733 H 0.65679 0.30221 0.21658 0.0
H1734 H 0.6775 0.28181 0.19906 0.0
H1735 H 0.71192 0.28891 0.20881 0.0
H1736 H 0.52485 0.82427 0.9892 0.0
H1737 H 0.52968 0.8588 0.99692 0.0
H1738 H 0.54487 0.8673 0.93921 0.0
H1739 H 0.54033 0.83257 0.93139 0.0
H1740 H 0.56586 0.89596 0.97147 0.0
H1741 H 0.48645 0.88282 0.969 0.0
H1742 H 0.49815 0.86904 0.98505 0.0
H1743 H 0.49926 0.86522 0.95937 0.0
C1744 C 0.52972 0.83348 0.97829 0.0
C1745 C 0.53193 0.82575 0.95959 0.0
C1746 C 0.53246 0.85318 0.98274 0.0
C1747 C 0.53725 0.86549 0.96851 0.0
C1748 C 0.54111 0.85795 0.95034 0.0
H1749 H 0.50623 0.97588 0.96193 0.0
H1750 H 0.51165 0.94332 0.95611 0.0
C1751 C 0.53854 0.83814 0.94591 0.0
C1752 C 0.53564 0.88578 0.97185 0.0
H1753 H 0.50283 0.91424 0.97904 0.0
C1754 C 0.55213 0.90003 0.97312 0.0
C1755 C 0.51762 0.89096 0.97369 0.0
C1756 C 0.49931 0.87626 0.97155 0.0
C1757 C 0.55106 0.91944 0.97651 0.0
C1758 C 0.53307 0.92455 0.9789 0.0
C1759 C 0.51661 0.91026 0.97737 0.0
C1760 C 0.53072 0.94465 0.98231 0.0
C1761 C 0.56906 0.93432 0.97716 0.0
C1762 C 0.5395 0.95615 -0.00088 0.0
C1763 C 0.53642 0.97486 0.00253 0.0
C1764 C 0.52441 0.98228 0.98923 0.0
C1765 C 0.51553 0.97062 0.97251 0.0
C1766 C 0.51866 0.95201 0.96911 0.0
H1767 H 0.58067 0.92843 0.97057 0.0
H1768 H 0.56623 0.94671 0.96947 0.0
H1769 H 0.57422 0.93956 0.99248 0.0
H1770 H 0.54852 0.95058 0.00971 0.0
H1771 H 0.54344 0.98347 0.01555 0.0
H1772 H 0.93893 0.71429 0.70326 0.0
H1773 H 0.91032 0.72245 0.7158 0.0
H1774 H 0.92504 0.77936 0.69836 0.0
H1775 H 0.95348 0.77102 0.68502 0.0
H1776 H 0.90478 0.74818 0.74339 0.0
H1777 H 0.8714 0.76342 0.67257 0.0
H1778 H 0.89247 0.75281 0.67455 0.0
H1779 H 0.89437 0.77805 0.68053 0.0
C1780 C 0.93614 0.72857 0.70208 0.0
C1781 C 0.94842 0.74196 0.69298 0.0
C1782 C 0.91977 0.73324 0.70932 0.0
C1783 C 0.91532 0.75143 0.70778 0.0
C1784 C 0.92789 0.76508 0.69929 0.0
H1785 H 0.8146 0.77188 0.7671 0.0
H1786 H 0.84761 0.77692 0.75827 0.0
C1787 C 0.9442 0.76033 0.69177 0.0
C1788 C 0.89726 0.75562 0.71474 0.0
H1789 H 0.85389 0.76602 0.69936 0.0
C1790 C 0.8937 0.75226 0.73383 0.0
C1791 C 0.88279 0.76087 0.70221 0.0
C1792 C 0.88531 0.76385 0.68128 0.0
C1793 C 0.8758 0.75311 0.74046 0.0
C1794 C 0.86123 0.75805 0.72782 0.0
C1795 C 0.86511 0.76233 0.70905 0.0
C1796 C 0.84121 0.75648 0.73281 0.0
C1797 C 0.87235 0.74756 0.76052 0.0
C1798 C 0.82653 0.74393 0.72106 0.0
C1799 C 0.80774 0.7413 0.72585 0.0
C1800 C 0.80314 0.75107 0.74261 0.0
C1801 C 0.81773 0.76403 0.75418 0.0
C1802 C 0.83661 0.76683 0.74922 0.0
H1803 H 0.88364 0.74028 0.76673 0.0
H1804 H 0.87233 0.76059 0.77028 0.0
H1805 H 0.85825 0.73793 0.76031 0.0
H1806 H 0.82969 0.73578 0.70833 0.0
H1807 H 0.7969 0.73121 0.71659 0.0
H1808 H 0.11963 0.97447 0.83674 0.0
H1809 H 0.10405 0.96179 0.86445 0.0
H1810 H 0.06779 0.00391 0.86224 0.0
H1811 H 0.0827 0.0162 0.83478 0.0
H1812 H 0.10329 0.97959 0.89974 0.0
H1813 H 0.02885 0.95731 0.86743 0.0
H1814 H 0.04855 0.96182 0.85275 0.0
H1815 H 0.03746 0.9811 0.86173 0.0
C1816 C 0.10813 0.98079 0.84203 0.0
C1817 C 0.10241 0.99632 0.83349 0.0
C1818 C 0.09923 0.97353 0.85782 0.0
C1819 C 0.08439 0.98158 0.86512 0.0
C1820 C 0.07871 0.99699 0.8565 0.0
H1821 H 0.05798 0.01843 0.97137 0.0
H1822 H 0.07189 0.00803 0.94278 0.0
C1823 C 0.08748 0.00418 0.84086 0.0
C1824 C 0.07583 0.97552 0.88285 0.0
H1825 H 0.03293 0.97031 0.90184 0.0
C1826 C 0.08788 0.97698 0.90015 0.0
C1827 C 0.05573 0.97143 0.88345 0.0
C1828 C 0.04196 0.9676 0.86525 0.0
C1829 C 0.0804 0.97667 0.91815 0.0
C1830 C 0.06043 0.9755 0.91882 0.0
C1831 C 0.04828 0.97177 0.90144 0.0
C1832 C 0.05227 0.98087 0.93694 0.0
C1833 C 0.09409 0.97838 0.93627 0.0
C1834 C 0.03596 0.9695 0.94283 0.0
C1835 C 0.0276 0.97568 0.95912 0.0
C1836 C 0.03543 0.99334 0.96973 0.0
C1837 C 0.05167 0.00466 0.96369 0.0
C1838 C 0.05984 0.99859 0.94742 0.0
H1839 H 0.10622 0.97107 0.93357 0.0
H1840 H 0.10022 0.99368 0.94063 0.0
H1841 H 0.08688 0.9722 0.94846 0.0
H1842 H 0.02967 0.9559 0.93479 0.0
H1843 H 0.01512 0.96663 0.96344 0.0
H1844 H 0.73173 0.36819 0.56248 0.0
H1845 H 0.7197 0.35387 0.59103 0.0
H1846 H 0.77241 0.33338 0.60236 0.0
H1847 H 0.78453 0.34743 0.574 0.0
H1848 H 0.72522 0.30719 0.59708 0.0
H1849 H 0.75284 0.36785 0.65367 0.0
H1850 H 0.74495 0.37156 0.62909 0.0
H1851 H 0.76721 0.36379 0.63421 0.0
C1852 C 0.74083 0.36081 0.57118 0.0
C1853 C 0.75905 0.35886 0.56594 0.0
C1854 C 0.73391 0.35262 0.58739 0.0
C1855 C 0.74521 0.34259 0.5986 0.0
C1856 C 0.76354 0.34108 0.59376 0.0
H1857 H 0.75201 0.26778 0.68345 0.0
H1858 H 0.74874 0.28285 0.65339 0.0
C1859 C 0.77041 0.34912 0.57757 0.0
C1860 C 0.73793 0.33299 0.61512 0.0
H1861 H 0.7423 0.33755 0.66445 0.0
C1862 C 0.72854 0.31387 0.61183 0.0
C1863 C 0.7423 0.34188 0.6342 0.0
C1864 C 0.75232 0.36244 0.63818 0.0
C1865 C 0.72426 0.30304 0.62736 0.0
C1866 C 0.72975 0.31158 0.64651 0.0
C1867 C 0.73811 0.33105 0.64973 0.0
C1868 C 0.72896 0.30025 0.66334 0.0
C1869 C 0.71443 0.28243 0.62317 0.0
C1870 C 0.71873 0.30488 0.67878 0.0
C1871 C 0.72056 0.29629 0.69599 0.0
C1872 C 0.73291 0.28314 0.69811 0.0
C1873 C 0.7424 0.27785 0.68227 0.0
C1874 C 0.74046 0.28637 0.66503 0.0
H1875 H 0.70613 0.27975 0.60864 0.0
H1876 H 0.72539 0.27322 0.6234 0.0
H1877 H 0.70463 0.27818 0.63428 0.0
H1878 H 0.70989 0.31566 0.67775 0.0
H1879 H 0.71303 0.30067 0.70793 0.0
H1880 H 0.43083 0.05079 0.33065 0.0
H1881 H 0.44675 0.05782 0.36362 0.0
H1882 H 0.50136 0.05649 0.34179 0.0
H1883 H 0.48526 0.04838 0.30896 0.0
H1884 H 0.49583 0.03234 0.36662 0.0
H1885 H 0.47887 0.09888 0.39997 0.0
H1886 H 0.45719 0.0835 0.38941 0.0
H1887 H 0.47519 0.09259 0.37409 0.0
C1888 C 0.4463 0.0527 0.33286 0.0
C1889 C 0.45683 0.04891 0.31738 0.0
C1890 C 0.45545 0.05686 0.35172 0.0
C1891 C 0.47534 0.05782 0.35526 0.0
C1892 C 0.48603 0.0558 0.33947 0.0
H1893 H 0.53098 0.03959 0.46952 0.0
H1894 H 0.52833 0.05277 0.43803 0.0
C1895 C 0.47684 0.05119 0.32072 0.0
C1896 C 0.48421 0.05721 0.37526 0.0
H1897 H 0.48415 0.07492 0.4223 0.0
C1898 C 0.49381 0.04207 0.3787 0.0
C1899 C 0.48162 0.06983 0.39111 0.0
C1900 C 0.47283 0.08722 0.38839 0.0
C1901 C 0.49958 0.0384 0.39755 0.0
C1902 C 0.49561 0.05012 0.41338 0.0
C1903 C 0.48709 0.06593 0.41004 0.0
C1904 C 0.49751 0.04429 0.4332 0.0
C1905 C 0.50865 0.0212 0.40053 0.0
C1906 C 0.48105 0.03536 0.44079 0.0
C1907 C 0.48251 0.02765 0.45848 0.0
C1908 C 0.50048 0.02888 0.46906 0.0
C1909 C 0.51696 0.03838 0.46169 0.0
C1910 C 0.51548 0.04597 0.44379 0.0
H1911 H 0.51023 0.01316 0.38662 0.0
H1912 H 0.52303 0.02584 0.40868 0.0
H1913 H 0.49983 0.01142 0.40929 0.0
H1914 H 0.46709 0.03383 0.43271 0.0
H1915 H 0.4695 0.02053 0.46373 0.0
H1916 H 0.77729 0.6493 0.06548 0.0
H1917 H 0.78307 0.66275 0.09952 0.0
H1918 H 0.73868 0.69564 0.08978 0.0
H1919 H 0.73258 0.68214 0.05614 0.0
H1920 H 0.79371 0.70054 0.11509 0.0
H1921 H 0.72283 0.66882 0.13664 0.0
H1922 H 0.73138 0.66089 0.1143 0.0
H1923 H 0.72107 0.68208 0.11595 0.0
C1924 C 0.76872 0.65934 0.07063 0.0
C1925 C 0.75436 0.6645 0.05812 0.0
C1926 C 0.77204 0.66701 0.09006 0.0
C1927 C 0.76101 0.67988 0.09725 0.0
C1928 C 0.74699 0.68534 0.08468 0.0
H1929 H 0.7603 0.74987 0.20488 0.0
H1930 H 0.75524 0.73517 0.17126 0.0
C1931 C 0.74361 0.67766 0.06538 0.0
C1932 C 0.76436 0.68808 0.11776 0.0
H1933 H 0.74186 0.69377 0.15862 0.0
C1934 C 0.78244 0.69892 0.12467 0.0
C1935 C 0.7496 0.68596 0.13022 0.0
C1936 C 0.73019 0.67365 0.12398 0.0
C1937 C 0.78601 0.70811 0.14358 0.0
C1938 C 0.77115 0.70626 0.15586 0.0
C1939 C 0.75314 0.69529 0.14905 0.0
C1940 C 0.7742 0.71518 0.17606 0.0
C1941 C 0.80552 0.72003 0.15019 0.0
C1942 C 0.78629 0.70858 0.18982 0.0
C1943 C 0.7891 0.71681 0.20895 0.0
C1944 C 0.77988 0.73184 0.21469 0.0
C1945 C 0.76764 0.73836 0.20089 0.0
C1946 C 0.76474 0.72999 0.18172 0.0
H1947 H 0.81409 0.7232 0.13786 0.0
H1948 H 0.80419 0.73372 0.1582 0.0
H1949 H 0.81348 0.71217 0.1602 0.0
H1950 H 0.79349 0.69697 0.18577 0.0
H1951 H 0.79861 0.71142 0.21921 0.0
H1952 H 0.12378 0.98739 0.72486 0.0
H1953 H 0.11066 0.98113 0.69068 0.0
H1954 H 0.07219 0.02022 0.70031 0.0
H1955 H 0.08527 0.02677 0.73416 0.0
H1956 H 0.07288 0.96715 0.6743 0.0
H1957 H 0.09885 0.04022 0.65449 0.0
H1958 H 0.10766 0.03181 0.67668 0.0
H1959 H 0.08512 0.03978 0.67492 0.0
C1960 C 0.11253 0.99465 0.71968 0.0
C1961 C 0.1057 0.00771 0.73221 0.0
C1962 C 0.10507 0.99106 0.70017 0.0
C1963 C 0.09074 0.00053 0.69291 0.0
C1964 C 0.08358 0.01314 0.7055 0.0
H1965 H 0.02212 0.99855 0.58326 0.0
H1966 H 0.03624 0.00424 0.61714 0.0
C1967 C 0.09102 0.01677 0.72491 0.0
C1968 C 0.08297 0.99709 0.67224 0.0
H1969 H 0.07601 0.0197 0.63152 0.0
C1970 C 0.0737 0.97859 0.66488 0.0
C1971 C 0.08403 0.01207 0.66002 0.0
C1972 C 0.09461 0.03205 0.66685 0.0
C1973 C 0.06504 0.97476 0.64573 0.0
C1974 C 0.06589 0.9898 0.63363 0.0
C1975 C 0.07528 0.00826 0.64092 0.0
C1976 C 0.05748 0.98655 0.61319 0.0
C1977 C 0.05467 0.95476 0.63871 0.0
C1978 C 0.065 0.97502 0.59978 0.0
C1979 C 0.05705 0.97181 0.5805 0.0
C1980 C 0.04143 0.9801 0.57424 0.0
C1981 C 0.0341 0.99191 0.58765 0.0
C1982 C 0.04213 0.99518 0.60698 0.0
H1983 H 0.05153 0.94597 0.65092 0.0
H1984 H 0.04101 0.95502 0.62988 0.0
H1985 H 0.06376 0.9477 0.62943 0.0
H1986 H 0.07706 0.96852 0.60423 0.0
H1987 H 0.06312 0.96271 0.57055 0.0
H1988 H 0.77424 0.32844 0.46302 0.0
H1989 H 0.76231 0.31028 0.43216 0.0
H1990 H 0.71245 0.33668 0.42947 0.0
H1991 H 0.72479 0.3557 0.46044 0.0
H1992 H 0.73037 0.28461 0.41891 0.0
H1993 H 0.73404 0.35002 0.37967 0.0
H1994 H 0.74383 0.35117 0.40458 0.0
H1995 H 0.71835 0.34734 0.39851 0.0
C1996 C 0.76067 0.33041 0.456 0.0
C1997 C 0.75059 0.34373 0.4641 0.0
C1998 C 0.7538 0.31988 0.43835 0.0
C1999 C 0.73659 0.32224 0.42837 0.0
C2000 C 0.72596 0.3349 0.43675 0.0
H2001 H 0.72662 0.25194 0.31534 0.0
H2002 H 0.71466 0.26329 0.34541 0.0
C2003 C 0.733 0.34571 0.45444 0.0
C2004 C 0.7311 0.31231 0.40863 0.0
H2005 H 0.732 0.32102 0.36123 0.0
C2006 C 0.73023 0.29246 0.4062 0.0
C2007 C 0.73077 0.3226 0.3921 0.0
C2008 C 0.73188 0.34396 0.3937 0.0
C2009 C 0.73123 0.28299 0.38796 0.0
C2010 C 0.73254 0.29362 0.37172 0.0
C2011 C 0.73117 0.313 0.37382 0.0
C2012 C 0.73908 0.28617 0.35352 0.0
C2013 C 0.73265 0.26213 0.38655 0.0
C2014 C 0.75667 0.29529 0.34813 0.0
C2015 C 0.76335 0.28903 0.33106 0.0
C2016 C 0.75267 0.27338 0.31899 0.0
C2017 C 0.73522 0.26392 0.32451 0.0
C2018 C 0.72837 0.27038 0.34163 0.0
H2019 H 0.73369 0.25658 0.40099 0.0
H2020 H 0.71975 0.25364 0.37777 0.0
H2021 H 0.74538 0.25985 0.37921 0.0
H2022 H 0.76526 0.30738 0.35718 0.0
H2023 H 0.77689 0.29657 0.32725 0.0
H2024 H 0.42965 0.05391 0.21055 0.0
H2025 H 0.44076 0.06085 0.17898 0.0
H2026 H 0.47306 0.01546 0.18107 0.0
H2027 H 0.46206 0.00833 0.21226 0.0
H2028 H 0.47994 0.0704 0.16955 0.0
H2029 H 0.44003 0.00347 0.1283 0.0
H2030 H 0.43405 0.0121 0.15166 0.0
H2031 H 0.45369 -0.00036 0.15004 0.0
C2032 C 0.43904 0.04536 0.20422 0.0
C2033 C 0.44487 0.0305 0.21388 0.0
C2034 C 0.44539 0.04937 0.18624 0.0
C2035 C 0.4575 0.03847 0.17764 0.0
C2036 C 0.46345 0.0238 0.18733 0.0
H2037 H 0.51726 0.02911 0.07703 0.0
H2038 H 0.50528 0.02788 0.10886 0.0
C2039 C 0.45718 0.01981 0.20522 0.0
C2040 C 0.46431 0.04241 0.15865 0.0
H2041 H 0.46541 0.02115 0.11323 0.0
C2042 C 0.4766 0.05978 0.15712 0.0
C2043 C 0.45987 0.02848 0.14253 0.0
C2044 C 0.44604 0.00994 0.1431 0.0
C2045 C 0.48526 0.06325 0.14005 0.0
C2046 C 0.48131 0.04904 0.12417 0.0
C2047 C 0.46857 0.03192 0.12554 0.0
C2048 C 0.49029 0.0514 0.10594 0.0
C2049 C 0.49908 0.08176 0.13935 0.0
C2050 C 0.48604 0.06524 0.09394 0.0
C2051 C 0.49288 0.06599 0.07575 0.0
C2052 C 0.50398 0.05284 0.06924 0.0
C2053 C 0.50878 0.03945 0.08162 0.0
C2054 C 0.50191 0.0387 0.09978 0.0
H2055 H 0.50365 0.08938 0.15402 0.0
H2056 H 0.51199 0.07915 0.13252 0.0
H2057 H 0.49204 0.09124 0.13045 0.0
H2058 H 0.47686 0.07498 0.09832 0.0
H2059 H 0.48891 0.07647 0.06656 0.0
H2060 H 0.74205 0.68911 0.95602 0.0
H2061 H 0.75345 0.7074 0.93017 0.0
H2062 H 0.80355 0.68144 0.93113 0.0
H2063 H 0.79189 0.66244 0.95714 0.0
H2064 H 0.78651 0.73356 0.92794 0.0
H2065 H 0.78045 0.66966 0.87469 0.0
H2066 H 0.77038 0.66803 0.89752 0.0
H2067 H 0.79583 0.67101 0.89684 0.0
C2068 C 0.75554 0.6872 0.95087 0.0
C2069 C 0.76596 0.67412 0.95858 0.0
C2070 C 0.76211 0.69782 0.93611 0.0
C2071 C 0.77929 0.69574 0.92862 0.0
C2072 C 0.79011 0.68309 0.93654 0.0
H2073 H 0.79402 0.77034 0.8324 0.0
H2074 H 0.80444 0.75665 0.86195 0.0
C2075 C 0.78346 0.67229 0.95141 0.0
C2076 C 0.78474 0.70624 0.91179 0.0
H2077 H 0.78323 0.6994 0.86257 0.0
C2078 C 0.78632 0.7262 0.91367 0.0
C2079 C 0.78451 0.69655 0.89322 0.0
C2080 C 0.78262 0.67513 0.89027 0.0
C2081 C 0.78585 0.73649 0.89732 0.0
C2082 C 0.78416 0.72656 0.87868 0.0
C2083 C 0.78444 0.70691 0.87692 0.0
C2084 C 0.77856 0.73533 0.86098 0.0
C2085 C 0.7855 0.75756 0.90005 0.0
C2086 C 0.76065 0.72788 0.85069 0.0
C2087 C 0.75477 0.73553 0.83394 0.0
C2088 C 0.76664 0.75089 0.82704 0.0
C2089 C 0.7845 0.75862 0.83749 0.0
C2090 C 0.79047 0.75081 0.85433 0.0
H2091 H 0.78469 0.76262 0.91541 0.0
H2092 H 0.79871 0.76574 0.89523 0.0
H2093 H 0.77306 0.76082 0.89108 0.0
H2094 H 0.75116 0.71605 0.85565 0.0
H2095 H 0.74091 0.72925 0.8263 0.0
H2096 H 0.84343 0.11278 0.03525 0.0
H2097 H 0.86569 0.0909 0.03102 0.0
H2098 H 0.83216 0.06453 0.97808 0.0
H2099 H 0.80962 0.0863 0.98227 0.0
H2100 H 0.84376 0.03813 0.0028 0.0
H2101 H 0.90476 0.09444 0.99075 0.0
H2102 H 0.89412 0.09947 0.01257 0.0
H2103 H 0.88038 0.09829 0.98943 0.0
C2104 C 0.84074 0.10234 0.02269 0.0
C2105 C 0.82479 0.10139 0.00902 0.0
C2106 C 0.85354 0.0899 0.02026 0.0
C2107 C 0.85075 0.07632 0.00407 0.0
C2108 C 0.83463 0.075 0.99062 0.0
H2109 H 0.9449 0.01931 0.97711 0.0
H2110 H 0.91697 0.03455 0.97301 0.0
C2111 C 0.82179 0.08747 0.99303 0.0
C2112 C 0.86474 0.06357 0.00129 0.0
H2113 H 0.91215 0.06422 0.99726 0.0
C2114 C 0.85868 0.04378 0.00138 0.0
C2115 C 0.88412 0.07093 -0.00091 0.0
C2116 C 0.89124 0.09193 0.99775 0.0
C2117 C 0.8717 0.03123 0.00017 0.0
C2118 C 0.8913 0.03874 -0.0009 0.0
C2119 C 0.89715 0.05845 0.9982 0.0
C2120 C 0.90625 0.02674 -2e-05 0.0
C2121 C 0.86436 0.01009 9e-05 0.0
C2122 C 0.90926 0.01686 0.01626 0.0
C2123 C 0.92516 0.00803 0.0186 0.0
C2124 C 0.9385 0.00911 0.0048 0.0
C2125 C 0.93492 0.01818 0.98801 0.0
C2126 C 0.91898 0.02696 0.98567 0.0
H2127 H 0.84891 0.0062 0.99467 0.0
H2128 H 0.87249 0.00164 0.99097 0.0
H2129 H 0.866 0.00604 0.01512 0.0
H2130 H 0.89989 0.01683 0.0277 0.0
H2131 H 0.9275 0.00126 0.03175 0.0
H2132 H 0.30146 0.43114 0.02917 0.0
H2133 H 0.33192 0.45252 0.02637 0.0
H2134 H 0.35803 0.4304 0.07572 0.0
H2135 H 0.32792 0.4086 0.07814 0.0
H2136 H 0.36139 0.48011 0.0498 0.0
H2137 H 0.38441 0.41168 0.02949 0.0
H2138 H 0.35975 0.41311 0.03192 0.0
H2139 H 0.37615 0.41326 0.0531 0.0
C2140 C 0.31351 0.43138 0.03985 0.0
C2141 C 0.31248 0.41807 0.0537 0.0
C2142 C 0.33091 0.44355 0.0382 0.0
C2143 C 0.34732 0.44266 0.05054 0.0
C2144 C 0.34562 0.43101 0.06582 0.0
H2145 H 0.46485 0.50397 0.05018 0.0
H2146 H 0.43186 0.49407 0.05783 0.0
C2147 C 0.3284 0.41864 0.06725 0.0
C2148 C 0.36657 0.45141 0.0457 0.0
H2149 H 0.40804 0.43962 0.03201 0.0
C2150 C 0.37164 0.47133 0.0459 0.0
C2151 C 0.37974 0.43984 0.04021 0.0
C2152 C 0.37473 0.41829 0.03846 0.0
C2153 C 0.38971 0.48 0.04104 0.0
C2154 C 0.40306 0.46841 0.03615 0.0
C2155 C 0.39785 0.44851 0.03583 0.0
C2156 C 0.42243 0.47628 0.03085 0.0
C2157 C 0.39418 0.50139 0.04075 0.0
C2158 C 0.42816 0.46949 0.01323 0.0
C2159 C 0.44703 0.47481 0.00901 0.0
C2160 C 0.46058 0.48714 0.02228 0.0
C2161 C 0.4547 0.49451 0.03963 0.0
C2162 C 0.43581 0.48899 0.04396 0.0
H2163 H 0.38092 0.50752 0.03954 0.0
H2164 H 0.40284 0.50787 0.05446 0.0
H2165 H 0.40255 0.50548 0.02852 0.0
H2166 H 0.41811 0.45965 0.0029 0.0
H2167 H 0.45106 0.46899 0.99545 0.0
H2168 H 0.33494 0.5443 0.77958 0.0
H2169 H 0.3175 0.5708 0.77929 0.0
H2170 H 0.34801 0.59227 0.73239 0.0
H2171 H 0.36537 0.56576 0.73242 0.0
H2172 H 0.33233 0.6099 0.78513 0.0
H2173 H 0.2921 0.59086 0.71235 0.0
H2174 H 0.30379 0.57423 0.72482 0.0
H2175 H 0.31745 0.59218 0.71228 0.0
C2176 C 0.33789 0.5546 0.76912 0.0
C2177 C 0.35152 0.55284 0.75597 0.0
C2178 C 0.3279 0.56974 0.76899 0.0
C2179 C 0.33121 0.58334 0.75561 0.0
C2180 C 0.3449 0.58171 0.74255 0.0
H2181 H 0.3025 0.69065 0.73208 0.0
H2182 H 0.31283 0.65998 0.73238 0.0
C2183 C 0.35491 0.5666 0.74269 0.0
C2184 C 0.32094 0.59967 0.75577 0.0
H2185 H 0.29253 0.62225 0.72716 0.0
C2186 C 0.32343 0.61249 0.77255 0.0
C2187 C 0.3093 0.603 0.73935 0.0
C2188 C 0.30532 0.58925 0.72123 0.0
C2189 C 0.31528 0.62899 0.77308 0.0
C2190 C 0.30402 0.63257 0.75648 0.0
C2191 C 0.30114 0.61948 0.73987 0.0
C2192 C 0.29633 0.65048 0.7556 0.0
C2193 C 0.31946 0.64288 0.7911 0.0
C2194 C 0.28315 0.65515 0.76821 0.0
C2195 C 0.27717 0.67278 0.76809 0.0
C2196 C 0.28427 0.686 0.75533 0.0
C2197 C 0.29684 0.68089 0.7422 0.0
C2198 C 0.30275 0.66332 0.74231 0.0
H2199 H 0.33147 0.64001 0.801 0.0
H2200 H 0.32308 0.6578 0.7873 0.0
H2201 H 0.30655 0.64163 0.79907 0.0
H2202 H 0.27773 0.6453 0.77835 0.0
H2203 H 0.26745 0.67627 0.77835 0.0
H2204 H 0.21318 0.63992 0.54697 0.0
H2205 H 0.18526 0.61454 0.54379 0.0
H2206 H 0.21883 0.57424 0.52276 0.0
H2207 H 0.24711 0.59997 0.5255 0.0
H2208 H 0.18727 0.57267 0.49903 0.0
H2209 H 0.16584 0.57032 0.57284 0.0
H2210 H 0.16988 0.59464 0.56729 0.0
H2211 H 0.18947 0.58181 0.56816 0.0
C2212 C 0.21481 0.62562 0.54199 0.0
C2213 C 0.23237 0.62201 0.53635 0.0
C2214 C 0.19882 0.61102 0.54041 0.0
C2215 C 0.19998 0.59238 0.53339 0.0
C2216 C 0.21767 0.58849 0.52842 0.0
H2217 H 0.08301 0.52457 0.52 0.0
H2218 H 0.11764 0.53169 0.52943 0.0
C2219 C 0.2338 0.60319 0.53 0.0
C2220 C 0.18207 0.57798 0.52886 0.0
H2221 H 0.13928 0.5636 0.54656 0.0
C2222 C 0.17696 0.57021 0.50956 0.0
C2223 C 0.16872 0.57427 0.54262 0.0
C2224 C 0.1739 0.58055 0.56392 0.0
C2225 C 0.15826 0.56057 0.50328 0.0
C2226 C 0.14424 0.55916 0.51655 0.0
C2227 C 0.14987 0.56512 0.53624 0.0
C2228 C 0.1235 0.5537 0.50999 0.0
C2229 C 0.15358 0.55263 0.48232 0.0
C2230 C 0.11527 0.56388 0.49615 0.0
C2231 C 0.09559 0.55981 0.49069 0.0
C2232 C 0.08365 0.54569 0.49921 0.0
C2233 C 0.09185 0.53555 0.51318 0.0
C2234 C 0.11163 0.53955 0.51855 0.0
H2235 H 0.16622 0.54809 0.47645 0.0
H2236 H 0.14148 0.54025 0.48045 0.0
H2237 H 0.14961 0.56393 0.47362 0.0
H2238 H 0.12402 0.57531 0.48983 0.0
H2239 H 0.08971 0.56798 0.48001 0.0
H2240 H 0.6706 0.95111 0.73229 0.0
H2241 H 0.69061 0.92804 0.74058 0.0
H2242 H 0.70883 0.95956 0.7965 0.0
H2243 H 0.68868 0.9828 0.78839 0.0
H2244 H 0.73152 0.93502 0.75222 0.0
H2245 H 0.68765 0.90396 0.80852 0.0
H2246 H 0.67843 0.91812 0.79091 0.0
H2247 H 0.69564 0.92945 0.81062 0.0
C2248 C 0.67884 0.95319 0.74637 0.0
C2249 C 0.67795 0.96876 0.75972 0.0
C2250 C 0.69032 0.94001 0.75105 0.0
C2251 C 0.70107 0.94203 0.76919 0.0
C2252 C 0.70046 0.95765 0.78251 0.0
H2253 H 0.7553 0.84701 0.80548 0.0
H2254 H 0.74925 0.87989 0.80661 0.0
C2255 C 0.68898 0.97092 0.77781 0.0
C2256 C 0.71258 0.92744 0.77398 0.0
H2257 H 0.71248 0.8887 0.79963 0.0
C2258 C 0.7276 0.92508 0.76283 0.0
C2259 C 0.70755 0.91464 0.78797 0.0
C2260 C 0.69139 0.91649 0.80019 0.0
C2261 C 0.73708 0.90964 0.76459 0.0
C2262 C 0.73113 0.89607 0.77759 0.0
C2263 C 0.717 0.89914 0.78968 0.0
C2264 C 0.73713 0.87726 0.77669 0.0
C2265 C 0.75295 0.90766 0.75206 0.0
C2266 C 0.73239 0.86501 0.75953 0.0
C2267 C 0.73568 0.84637 0.7589 0.0
C2268 C 0.74377 0.83953 0.77544 0.0
C2269 C 0.74917 0.85197 0.79249 0.0
C2270 C 0.74568 0.87069 0.79316 0.0
H2271 H 0.76018 0.92181 0.74834 0.0
H2272 H 0.76381 0.90052 0.75935 0.0
H2273 H 0.74681 0.89893 0.7383 0.0
H2274 H 0.7254 0.86961 0.74678 0.0
H2275 H 0.73139 0.83715 0.74553 0.0
H2276 H 0.71472 0.92689 0.55198 0.0
H2277 H 0.69048 0.94711 0.55383 0.0
H2278 H 0.65118 0.9059 0.51405 0.0
H2279 H 0.67511 0.88551 0.51236 0.0
H2280 H 0.67123 0.96401 0.5256 0.0
H2281 H 0.62019 0.91221 0.55977 0.0
H2282 H 0.64472 0.90973 0.55798 0.0
H2283 H 0.627 0.90231 0.53749 0.0
C2284 C 0.70091 0.92212 0.54363 0.0
C2285 C 0.69681 0.90447 0.53216 0.0
C2286 C 0.68708 0.93372 0.54468 0.0
C2287 C 0.66888 0.92787 0.53435 0.0
C2288 C 0.66495 0.91051 0.5225 0.0
H2289 H 0.58036 0.99337 0.50683 0.0
H2290 H 0.60873 0.97856 0.50705 0.0
C2291 C 0.67871 0.8989 0.52149 0.0
C2292 C 0.65392 0.93979 0.536 0.0
H2293 H 0.60828 0.9385 0.5478 0.0
C2294 C 0.6575 0.9585 0.53056 0.0
C2295 C 0.63612 0.93272 0.5428 0.0
C2296 C 0.63181 0.91322 0.55003 0.0
C2297 C 0.64356 0.97013 0.53123 0.0
C2298 C 0.62544 0.96271 0.53718 0.0
C2299 C 0.62209 0.94416 0.54307 0.0
C2300 C 0.60961 0.97373 0.53741 0.0
C2301 C 0.6485 0.99031 0.52584 0.0
C2302 C 0.60058 0.97598 0.55435 0.0
C2303 C 0.58418 0.98414 0.55419 0.0
C2304 C 0.57651 0.99039 0.53708 0.0
C2305 C 0.58603 0.98891 0.5203 0.0
C2306 C 0.60233 0.9805 0.52043 0.0
H2307 H 0.66424 0.99559 0.52749 0.0
H2308 H 0.64322 0.99067 0.51043 0.0
H2309 H 0.64173 0.00018 0.53487 0.0
H2310 H 0.60596 0.97094 0.56761 0.0
H2311 H 0.57721 0.98504 0.56737 0.0
H2312 H 0.33205 0.47513 0.74353 0.0
H2313 H 0.30451 0.44891 0.74361 0.0
H2314 H 0.3387 0.40853 0.72418 0.0
H2315 H 0.3658 0.43434 0.72366 0.0
H2316 H 0.30131 0.39973 0.70694 0.0
H2317 H 0.30452 0.41379 0.78727 0.0
H2318 H 0.30035 0.43266 0.77281 0.0
H2319 H 0.32312 0.42526 0.77387 0.0
C2320 C 0.33351 0.46069 0.73892 0.0
C2321 C 0.35119 0.45678 0.73389 0.0
C2322 C 0.31783 0.44573 0.73908 0.0
C2323 C 0.31967 0.42673 0.73422 0.0
C2324 C 0.33693 0.42305 0.72803 0.0
H2325 H 0.29733 0.32042 0.77099 0.0
H2326 H 0.30553 0.35356 0.76423 0.0
C2327 C 0.35249 0.43786 0.72787 0.0
C2328 C 0.30467 0.41023 0.73712 0.0
H2329 H 0.28739 0.38436 0.77305 0.0
C2330 C 0.29778 0.39652 0.72131 0.0
C2331 C 0.30018 0.4061 0.75592 0.0
C2332 C 0.30744 0.42012 0.77352 0.0
C2333 C 0.28792 0.37822 0.724 0.0
C2334 C 0.28459 0.37369 0.74297 0.0
C2335 C 0.29003 0.38792 0.75854 0.0
C2336 C 0.2786 0.35369 0.7474 0.0
C2337 C 0.28258 0.36341 0.70676 0.0
C2338 C 0.26063 0.34272 0.74026 0.0
C2339 C 0.25589 0.32356 0.74402 0.0
C2340 C 0.26903 0.31516 0.75507 0.0
C2341 C 0.28685 0.32637 0.76243 0.0
C2342 C 0.29156 0.34538 0.75863 0.0
H2343 H 0.28832 0.36862 0.69343 0.0
H2344 H 0.28804 0.35024 0.70976 0.0
H2345 H 0.26675 0.35957 0.70394 0.0
H2346 H 0.25032 0.34894 0.73177 0.0
H2347 H 0.242 0.31534 0.73826 0.0
H2348 H 0.14232 0.57798 0.231 0.0
H2349 H 0.16756 0.60588 0.23221 0.0
H2350 H 0.20966 0.57251 0.24967 0.0
H2351 H 0.18418 0.5443 0.24888 0.0
H2352 H 0.21278 0.60419 0.27363 0.0
H2353 H 0.20887 0.6247 0.19907 0.0
H2354 H 0.18536 0.62089 0.20696 0.0
H2355 H 0.19801 0.60126 0.20482 0.0
C2356 C 0.15696 0.5764 0.23478 0.0
C2357 C 0.1612 0.55891 0.23997 0.0
C2358 C 0.17145 0.59238 0.23524 0.0
C2359 C 0.19057 0.59125 0.24068 0.0
C2360 C 0.19501 0.57365 0.24522 0.0
H2361 H 0.26412 0.70565 0.24992 0.0
H2362 H 0.25411 0.67123 0.24043 0.0
C2363 C 0.18044 0.55756 0.24477 0.0
C2364 C 0.20519 0.60907 0.24403 0.0
H2365 H 0.21899 0.65117 0.22475 0.0
C2366 C 0.21456 0.61426 0.26278 0.0
C2367 C 0.20791 0.62212 0.22982 0.0
C2368 C 0.19965 0.61683 0.20899 0.0
C2369 C 0.22506 0.63276 0.26816 0.0
C2370 C 0.22582 0.64647 0.25454 0.0
C2371 C 0.21803 0.64076 0.23531 0.0
C2372 C 0.23257 0.6671 0.26053 0.0
C2373 C 0.23461 0.63761 0.28859 0.0
C2374 C 0.22352 0.6762 0.27466 0.0
C2375 C 0.22914 0.69573 0.28007 0.0
C2376 C 0.24384 0.70666 0.27131 0.0
C2377 C 0.25277 0.6976 0.25695 0.0
C2378 C 0.24712 0.67796 0.25155 0.0
H2379 H 0.23868 0.62481 0.29462 0.0
H2380 H 0.24762 0.64891 0.28927 0.0
H2381 H 0.22443 0.64282 0.29795 0.0
H2382 H 0.21187 0.66822 0.28137 0.0
H2383 H 0.22187 0.70226 0.29107 0.0
H2384 H 0.52095 0.69246 0.39862 0.0
H2385 H 0.53021 0.66541 0.41413 0.0
H2386 H 0.50289 0.68067 0.46448 0.0
H2387 H 0.49293 0.70713 0.44878 0.0
H2388 H 0.55092 0.6605 0.44759 0.0
H2389 H 0.47465 0.62704 0.44875 0.0
H2390 H 0.48189 0.64753 0.43579 0.0
H2391 H 0.4806 0.65043 0.46156 0.0
C2392 C 0.51705 0.6901 0.41305 0.0
C2393 C 0.50591 0.70166 0.42235 0.0
C2394 C 0.52238 0.67468 0.42191 0.0
C2395 C 0.51681 0.67075 0.44026 0.0
C2396 C 0.50683 0.68309 0.45008 0.0
H2397 H 0.52043 0.57508 0.50853 0.0
H2398 H 0.52388 0.60795 0.49994 0.0
C2399 C 0.5012 0.69824 0.44111 0.0
C2400 C 0.52041 0.65316 0.44866 0.0
H2401 H 0.49759 0.61229 0.46511 0.0
C2402 C 0.53928 0.64995 0.45143 0.0
C2403 C 0.50516 0.63931 0.45349 0.0
C2404 C 0.48443 0.64112 0.44957 0.0
C2405 C 0.54328 0.63332 0.45909 0.0
C2406 C 0.52804 0.61973 0.46414 0.0
C2407 C 0.50925 0.62297 0.46149 0.0
C2408 C 0.53079 0.60124 0.47084 0.0
C2409 C 0.56366 0.6303 0.46177 0.0
C2410 C 0.53411 0.58678 0.45748 0.0
C2411 C 0.53196 0.56797 0.46226 0.0
C2412 C 0.52647 0.56337 0.48049 0.0
C2413 C 0.52472 0.57817 0.49439 0.0
C2414 C 0.52668 0.59695 0.48952 0.0
H2415 H 0.57411 0.64351 0.46028 0.0
H2416 H 0.5668 0.62538 0.47623 0.0
H2417 H 0.56567 0.619 0.45066 0.0
H2418 H 0.53705 0.5898 0.44292 0.0
H2419 H 0.53346 0.55687 0.45128 0.0
H2420 H 0.60514 0.28351 0.67311 0.0
H2421 H 0.62906 0.28549 0.70053 0.0
H2422 H 0.58526 0.28388 0.73969 0.0
H2423 H 0.56084 0.2813 0.71197 0.0
H2424 H 0.64034 0.31103 0.73231 0.0
H2425 H 0.60992 0.23928 0.75388 0.0
H2426 H 0.60172 0.24733 0.7313 0.0
H2427 H 0.59479 0.25683 0.7537 0.0
C2428 C 0.60048 0.28367 0.68751 0.0
C2429 C 0.581 0.28202 0.6903 0.0
C2430 C 0.61425 0.28489 0.70323 0.0
C2431 C 0.60896 0.28461 0.72216 0.0
C2432 C 0.58962 0.28376 0.72517 0.0
H2433 H 0.71801 0.29094 0.79523 0.0
H2434 H 0.68547 0.29755 0.78956 0.0
C2435 C 0.57571 0.28238 0.70933 0.0
C2436 C 0.62394 0.28419 0.73821 0.0
H2437 H 0.64088 0.25331 0.76715 0.0
C2438 C 0.64034 0.29865 0.74035 0.0
C2439 C 0.6238 0.26803 0.74871 0.0
C2440 C 0.60671 0.25189 0.7468 0.0
C2441 C 0.65726 0.29653 0.75111 0.0
C2442 C 0.65755 0.27973 0.7605 0.0
C2443 C 0.64057 0.26616 0.75994 0.0
C2444 C 0.67587 0.27413 0.76716 0.0
C2445 C 0.67512 0.31143 0.75074 0.0
C2446 C 0.68086 0.25814 0.75734 0.0
C2447 C 0.6992 0.25423 0.76069 0.0
C2448 C 0.71305 0.26627 0.77391 0.0
C2449 C 0.70768 0.28148 0.78485 0.0
C2450 C 0.68915 0.28536 0.78153 0.0
H2451 H 0.67291 0.32237 0.74074 0.0
H2452 H 0.67953 0.31883 0.7655 0.0
H2453 H 0.68706 0.30463 0.7462 0.0
H2454 H 0.67085 0.24923 0.74623 0.0
H2455 H 0.70278 0.24225 0.75217 0.0
H2456 H 0.01968 0.30011 0.91238 0.0
H2457 H 0.02643 0.33385 0.92532 0.0
H2458 H 0.96591 0.33479 0.9189 0.0
H2459 H 0.9591 0.30102 0.90707 0.0
H2460 H 0.0209 0.36531 0.91141 0.0
H2461 H 0.97839 0.35606 0.97373 0.0
H2462 H 0.98332 0.33602 0.95894 0.0
H2463 H 0.96369 0.34745 0.9515 0.0
C2464 C 0.00786 0.30755 0.91385 0.0
C2465 C 0.98887 0.29791 0.90904 0.0
C2466 C 0.01171 0.3268 0.92122 0.0
C2467 C 0.99663 0.33674 0.92362 0.0
C2468 C 0.97774 0.32728 0.91795 0.0
H2469 H 0.01 0.46071 0.93598 0.0
H2470 H 0.00407 0.42685 0.92387 0.0
C2471 C 0.97387 0.308 0.91104 0.0
C2472 C 1.00056 0.35706 0.93174 0.0
H2473 H 0.98679 0.38805 0.96515 0.0
C2474 C 0.0136 0.37027 0.92329 0.0
C2475 C 0.99134 0.3635 0.94752 0.0
C2476 C 0.97859 0.34995 0.95857 0.0
C2477 C 0.01733 0.38978 0.92989 0.0
C2478 C 0.00711 0.39638 0.94479 0.0
C2479 C 0.99439 0.38309 0.95349 0.0
C2480 C 0.00974 0.41689 0.95203 0.0
C2481 C 0.03254 0.40294 0.92109 0.0
C2482 C 0.01377 0.42252 0.97198 0.0
C2483 C 0.01645 0.44175 0.97896 0.0
C2484 C 0.01544 0.45578 0.96609 0.0
C2485 C 0.01102 0.45017 0.94618 0.0
C2486 C 0.00787 0.43086 0.93924 0.0
H2487 H 0.04306 0.39504 0.91495 0.0
H2488 H 0.02569 0.40948 0.90907 0.0
H2489 H 0.04042 0.41453 0.93195 0.0
H2490 H 0.01519 0.41205 0.98217 0.0
H2491 H 0.01997 0.44568 0.99438 0.0
H2492 H 0.99014 0.80868 0.20197 0.0
H2493 H 0.96135 0.80618 0.21892 0.0
H2494 H 0.9416 0.74874 0.19203 0.0
H2495 H 0.97025 0.75121 0.17475 0.0
H2496 H 0.91423 0.77064 0.18866 0.0
H2497 H 0.9459 0.77753 0.26501 0.0
H2498 H 0.9564 0.79653 0.2517 0.0
H2499 H 0.95913 0.77245 0.24486 0.0
C2500 C 0.97978 0.79543 0.19979 0.0
C2501 C 0.98251 0.78015 0.18697 0.0
C2502 C 0.96338 0.79397 0.20963 0.0
C2503 C 0.94946 0.77716 0.207 0.0
C2504 C 0.95223 0.7618 0.19438 0.0
H2505 H 0.84632 0.75493 0.26827 0.0
H2506 H 0.87769 0.75361 0.25681 0.0
C2507 C 0.96861 0.76325 0.1845 0.0
C2508 C 0.93136 0.77614 0.21626 0.0
H2509 H 0.91331 0.78174 0.25985 0.0
C2510 C 0.91404 0.77288 0.20424 0.0
C2511 C 0.93108 0.77884 0.23661 0.0
C2512 C 0.9491 0.78134 0.25032 0.0
C2513 C 0.89652 0.77291 0.21193 0.0
C2514 C 0.89633 0.7766 0.23218 0.0
C2515 C 0.91354 0.77916 0.24431 0.0
C2516 C 0.87838 0.77839 0.24079 0.0
C2517 C 0.87832 0.76906 0.1983 0.0
C2518 C 0.86877 0.79314 0.23614 0.0
C2519 C 0.85095 0.79394 0.24264 0.0
C2520 C 0.8424 0.78005 0.25402 0.0
C2521 C 0.85251 0.76583 0.25952 0.0
C2522 C 0.87041 0.76504 0.25297 0.0
H2523 H 0.88028 0.76172 0.18413 0.0
H2524 H 0.86649 0.76015 0.2047 0.0
H2525 H 0.87397 0.78282 0.19555 0.0
H2526 H 0.87486 0.80379 0.22706 0.0
H2527 H 0.84365 0.8052 0.23829 0.0
H2528 H 0.51692 0.30144 0.12273 0.0
H2529 H 0.51974 0.32869 0.10332 0.0
H2530 H 0.46585 0.30377 0.07029 0.0
H2531 H 0.46298 0.27638 0.08944 0.0
H2532 H 0.49506 0.31926 0.04742 0.0
H2533 H 0.48675 0.37015 0.10939 0.0
H2534 H 0.50558 0.35686 0.11353 0.0
H2535 H 0.48107 0.34459 0.11001 0.0
C2536 C 0.50568 0.30172 0.11131 0.0
C2537 C 0.48963 0.28681 0.10775 0.0
C2538 C 0.5073 0.31732 0.10026 0.0
C2539 C 0.49289 0.31833 0.08554 0.0
C2540 C 0.47711 0.30326 0.08162 0.0
H2541 H 0.46704 0.41819 0.03664 0.0
H2542 H 0.46632 0.38775 0.0503 0.0
C2543 C 0.47547 0.28766 0.09264 0.0
C2544 C 0.49386 0.33537 0.07463 0.0
H2545 H 0.4932 0.38306 0.08 0.0
C2546 C 0.4947 0.33324 0.0545 0.0
C2547 C 0.49318 0.35351 0.08393 0.0
C2548 C 0.49143 0.35649 0.10537 0.0
C2549 C 0.49491 0.34885 0.04341 0.0
C2550 C 0.49443 0.36701 0.05276 0.0
C2551 C 0.49364 0.36911 0.07289 0.0
C2552 C 0.49405 0.38405 0.04205 0.0
C2553 C 0.49516 0.34572 0.02175 0.0
C2554 C 0.50972 0.39185 0.03243 0.0
C2555 C 0.51014 0.40929 0.02448 0.0
C2556 C 0.49498 0.41924 0.02623 0.0
C2557 C 0.47899 0.41094 0.03513 0.0
C2558 C 0.47855 0.39354 0.04297 0.0
H2559 H 0.4913 0.33034 0.01636 0.0
H2560 H 0.48509 0.35352 0.01415 0.0
H2561 H 0.50977 0.35129 0.01794 0.0
H2562 H 0.52196 0.38489 0.03182 0.0
H2563 H 0.52271 0.4154 0.01784 0.0
H2564 H 0.93863 0.24422 0.41336 0.0
H2565 H 0.91377 0.24492 0.38714 0.0
H2566 H 0.95562 0.27677 0.35516 0.0
H2567 H 0.98085 0.27587 0.38134 0.0
H2568 H 0.91839 0.29225 0.36509 0.0
H2569 H 0.90715 0.21889 0.32763 0.0
H2570 H 0.91064 0.22084 0.35371 0.0
H2571 H 0.92988 0.23074 0.3404 0.0
C2572 C 0.94264 0.25113 0.40063 0.0
C2573 C 0.96168 0.26003 0.39942 0.0
C2574 C 0.92843 0.25146 0.38566 0.0
C2575 C 0.93292 0.26084 0.36927 0.0
C2576 C 0.95196 0.26937 0.3677 0.0
H2577 H 0.83601 0.25925 0.28091 0.0
H2578 H 0.86959 0.26363 0.29469 0.0
C2579 C 0.96632 0.26878 0.3826 0.0
C2580 C 0.91724 0.26284 0.35473 0.0
H2581 H 0.88191 0.23632 0.32237 0.0
C2582 C 0.91065 0.28019 0.35538 0.0
C2583 C 0.90725 0.24708 0.34212 0.0
C2584 C 0.9141 0.22832 0.34073 0.0
C2585 C 0.89353 0.28178 0.34461 0.0
C2586 C 0.88286 0.26563 0.33299 0.0
C2587 C 0.89014 0.24868 0.33134 0.0
C2588 C 0.86307 0.26526 0.32448 0.0
C2589 C 0.88651 0.30044 0.34635 0.0
C2590 C 0.84843 0.26491 0.33671 0.0
C2591 C 0.82934 0.26219 0.32894 0.0
C2592 C 0.82456 0.25994 0.30878 0.0
C2593 C 0.83931 0.2611 0.29651 0.0
C2594 C 0.85845 0.26354 0.30433 0.0
H2595 H 0.89825 0.31256 0.35199 0.0
H2596 H 0.88002 0.30342 0.33209 0.0
H2597 H 0.87531 0.29952 0.35653 0.0
H2598 H 0.85174 0.266 0.3523 0.0
H2599 H 0.81828 0.26136 0.33873 0.0
H2600 H 0.98653 0.71448 0.5982 0.0
H2601 H 0.9862 0.69438 0.56792 0.0
H2602 H 0.98649 0.64531 0.60012 0.0
H2603 H 0.98628 0.66503 0.63017 0.0
H2604 H 0.01307 0.67594 0.55762 0.0
H2605 H 0.94691 0.62269 0.55648 0.0
H2606 H 0.95149 0.64461 0.57234 0.0
H2607 H 0.96056 0.62395 0.57953 0.0
C2608 C 0.98615 0.69933 0.59877 0.0
C2609 C 0.98642 0.69136 0.61662 0.0
C2610 C 0.98595 0.68787 0.58145 0.0
C2611 C 0.98594 0.66825 0.58167 0.0
C2612 C 0.98587 0.66027 0.59945 0.0
H2613 H 0.04374 0.59196 0.53293 0.0
H2614 H 0.03324 0.62097 0.54425 0.0
C2615 C 0.98594 0.67163 0.6167 0.0
C2616 C 0.98812 0.65634 0.56384 0.0
H2617 H 0.97323 0.61133 0.54139 0.0
C2618 C 0.00404 0.66201 0.5537 0.0
C2619 C 0.97607 0.63841 0.55822 0.0
C2620 C 0.95769 0.6322 0.56711 0.0
C2621 C 0.00932 0.64944 0.53952 0.0
C2622 C 0.99869 0.63059 0.5358 0.0
C2623 C 0.98165 0.62565 0.54446 0.0
C2624 C 0.00643 0.61502 0.52572 0.0
C2625 C 0.02667 0.65626 0.52925 0.0
C2626 C 0.99499 0.60197 0.51132 0.0
C2627 C 0.00091 0.5851 0.50496 0.0
C2628 C 0.01828 0.58098 0.51306 0.0
C2629 C 0.03026 0.5947 0.52643 0.0
C2630 C 0.02434 0.61145 0.53279 0.0
H2631 H 0.02795 0.67166 0.52715 0.0
H2632 H 0.03976 0.65463 0.53831 0.0
H2633 H 0.0261 0.64806 0.51491 0.0
H2634 H 0.98106 0.60437 0.50575 0.0
H2635 H 0.99133 0.57477 0.49469 0.0
H2636 H 0.56088 0.74801 0.88548 0.0
H2637 H 0.5878 0.74468 0.86679 0.0
H2638 H 0.59995 0.80559 0.86372 0.0
H2639 H 0.57279 0.80901 0.88196 0.0
H2640 H 0.60341 0.78569 0.82922 0.0
H2641 H 0.64307 0.75893 0.89025 0.0
H2642 H 0.61975 0.74492 0.88249 0.0
H2643 H 0.62199 0.76905 0.8932 0.0
C2644 C 0.56921 0.7607 0.88074 0.0
C2645 C 0.56479 0.77881 0.88539 0.0
C2646 C 0.58466 0.75877 0.87012 0.0
C2647 C 0.59613 0.77493 0.86418 0.0
C2648 C 0.59134 0.79293 0.86822 0.0
H2649 H 0.71263 0.79674 0.84126 0.0
H2650 H 0.68135 0.79309 0.85337 0.0
C2651 C 0.57582 0.79486 0.8787 0.0
C2652 C 0.61355 0.7733 0.85438 0.0
H2653 H 0.65752 0.76091 0.86116 0.0
C2654 C 0.61521 0.78015 0.83612 0.0
C2655 C 0.62899 0.76622 0.8635 0.0
C2656 C 0.62851 0.75951 0.88351 0.0
C2657 C 0.63202 0.78046 0.8269 0.0
C2658 C 0.64746 0.77341 0.83605 0.0
C2659 C 0.64561 0.76616 0.85409 0.0
C2660 C 0.66635 0.77515 0.82821 0.0
C2661 C 0.63344 0.7891 0.80787 0.0
C2662 C 0.66841 0.76612 0.81002 0.0
C2663 C 0.68642 0.76827 0.80293 0.0
C2664 C 0.70265 0.77937 0.814 0.0
C2665 C 0.70049 0.7881 0.83231 0.0
C2666 C 0.68258 0.78601 0.8393 0.0
H2667 H 0.62192 0.79736 0.80478 0.0
H2668 H 0.64752 0.7987 0.80782 0.0
H2669 H 0.63212 0.77752 0.79596 0.0
H2670 H 0.65615 0.75737 0.80136 0.0
H2671 H 0.68763 0.76129 0.78882 0.0
H2672 H 0.42334 0.54665 0.70102 0.0
H2673 H 0.44134 0.55778 0.67416 0.0
H2674 H 0.45446 0.50162 0.66274 0.0
H2675 H 0.43725 0.49072 0.68952 0.0
H2676 H 0.48576 0.52923 0.66297 0.0
H2677 H 0.42445 0.546 0.61661 0.0
H2678 H 0.42979 0.5583 0.64056 0.0
H2679 H 0.42099 0.53298 0.63758 0.0
C2680 C 0.43003 0.53673 0.69269 0.0
C2681 C 0.42889 0.51782 0.69742 0.0
C2682 C 0.44026 0.54308 0.67734 0.0
C2683 C 0.44918 0.5305 0.66637 0.0
C2684 C 0.44785 0.51164 0.67106 0.0
H2685 H 0.47256 0.50609 0.55462 0.0
H2686 H 0.46076 0.51395 0.58535 0.0
C2687 C 0.43792 0.5054 0.68639 0.0
C2688 C 0.45988 0.53633 0.64979 0.0
H2689 H 0.45318 0.54617 0.60278 0.0
C2690 C 0.4788 0.53329 0.64988 0.0
C2691 C 0.45075 0.5417 0.63279 0.0
C2692 C 0.43035 0.54485 0.63169 0.0
C2693 C 0.48824 0.53379 0.63301 0.0
C2694 C 0.47871 0.53814 0.6157 0.0
C2695 C 0.46042 0.5428 0.61606 0.0
C2696 C 0.48598 0.53485 0.5966 0.0
C2697 C 0.50765 0.52812 0.63353 0.0
C2698 C 0.50409 0.54414 0.59251 0.0
C2699 C 0.5111 0.53937 0.57491 0.0
C2700 C 0.49995 0.52551 0.56104 0.0
C2701 C 0.48158 0.5168 0.56496 0.0
C2702 C 0.47474 0.52136 0.58254 0.0
H2703 H 0.51139 0.52188 0.64714 0.0
H2704 H 0.50815 0.51754 0.6211 0.0
H2705 H 0.51876 0.54093 0.63253 0.0
H2706 H 0.51286 0.5549 0.60296 0.0
H2707 H 0.52521 0.54649 0.57219 0.0
H2708 H 0.81848 0.16611 0.97404 0.0
H2709 H 0.8258 0.18026 0.94387 0.0
H2710 H 0.78782 0.21965 0.95449 0.0
H2711 H 0.78061 0.20594 0.9844 0.0
H2712 H 0.79964 0.1824 0.91206 0.0
H2713 H 0.83613 0.25484 0.94256 0.0
H2714 H 0.8328 0.23481 0.95699 0.0
H2715 H 0.81372 0.24773 0.95222 0.0
C2716 C 0.81183 0.17789 0.96999 0.0
C2717 C 0.79901 0.18492 0.98166 0.0
C2718 C 0.81605 0.18596 0.95281 0.0
C2719 C 0.80767 0.20128 0.94722 0.0
C2720 C 0.79485 0.2082 0.95881 0.0
H2721 H 0.7785 0.26094 0.85342 0.0
H2722 H 0.78549 0.2485 0.88445 0.0
C2723 C 0.79062 0.20019 0.97585 0.0
C2724 C 0.81103 0.20937 0.92866 0.0
H2725 H 0.82182 0.25193 0.90936 0.0
C2726 C 0.80493 0.19751 0.91139 0.0
C2727 C 0.81794 0.22909 0.9279 0.0
C2728 C 0.8257 0.24231 0.94592 0.0
C2729 C 0.80431 0.20509 0.89342 0.0
C2730 C 0.81017 0.22499 0.8928 0.0
C2731 C 0.81722 0.2367 0.90996 0.0
C2732 C 0.80758 0.23404 0.87466 0.0
C2733 C 0.79637 0.19197 0.87536 0.0
C2734 C 0.81811 0.23045 0.85915 0.0
C2735 C 0.81417 0.23754 0.84142 0.0
C2736 C 0.79963 0.24833 0.83895 0.0
C2737 C 0.78973 0.25263 0.85483 0.0
C2738 C 0.79371 0.24556 0.87256 0.0
H2739 H 0.78981 0.17746 0.87872 0.0
H2740 H 0.78541 0.19798 0.86679 0.0
H2741 H 0.8081 0.19061 0.86618 0.0
H2742 H 0.82904 0.22179 0.86063 0.0
H2743 H 0.82215 0.23408 0.82951 0.0
H2744 H 0.10744 0.48417 0.18338 0.0
H2745 H 0.08666 0.47396 0.15308 0.0
H2746 H 0.03698 0.46794 0.18492 0.0
H2747 H 0.0577 0.47943 0.21503 0.0
H2748 H 0.05903 0.44531 0.13601 0.0
H2749 H 0.02772 0.50992 0.15303 0.0
H2750 H 0.04799 0.50492 0.16759 0.0
H2751 H 0.0242 0.49235 0.17001 0.0
C2752 C 0.09212 0.4802 0.18389 0.0
C2753 C 0.08405 0.48284 0.20132 0.0
C2754 C 0.08025 0.47436 0.16662 0.0
C2755 C 0.06022 0.47079 0.16669 0.0
C2756 C 0.05234 0.47127 0.18447 0.0
H2757 H 0.98735 0.47935 0.05966 0.0
H2758 H 0.99474 0.46714 0.09096 0.0
C2759 C 0.06415 0.47767 0.20163 0.0
C2760 C 0.04788 0.46921 0.14816 0.0
H2761 H 0.01875 0.49345 0.1225 0.0
C2762 C 0.04993 0.45561 0.13316 0.0
C2763 C 0.03599 0.4827 0.14442 0.0
C2764 C 0.03391 0.4984 0.15952 0.0
C2765 C 0.04132 0.45585 0.1143 0.0
C2766 C 0.03034 0.46995 0.11046 0.0
C2767 C 0.02707 0.48257 0.12567 0.0
C2768 C 0.02546 0.47445 0.09055 0.0
C2769 C 0.04479 0.4417 0.09838 0.0
C2770 C 0.04029 0.48272 0.08024 0.0
C2771 C 0.03617 0.49008 0.0628 0.0
C2772 C 0.01709 0.48909 0.05515 0.0
C2773 C 0.00218 0.48024 0.06519 0.0
C2774 C 0.00635 0.47318 0.08295 0.0
H2775 H 0.04865 0.42875 0.10426 0.0
H2776 H 0.03194 0.43738 0.08767 0.0
H2777 H 0.05684 0.44844 0.09067 0.0
H2778 H 0.05511 0.48424 0.08613 0.0
H2779 H 0.048 0.49683 0.05549 0.0
H2780 H 0.76028 0.8227 0.4834 0.0
H2781 H 0.75555 0.81391 0.44857 0.0
H2782 H 0.72606 0.86078 0.44079 0.0
H2783 H 0.73088 0.86989 0.47594 0.0
H2784 H 0.72144 0.80465 0.42239 0.0
H2785 H 0.7709 0.86977 0.40614 0.0
H2786 H 0.77021 0.86233 0.4303 0.0
H2787 H 0.75151 0.87338 0.42003 0.0
C2788 C 0.75266 0.83112 0.47436 0.0
C2789 C 0.74612 0.84713 0.48244 0.0
C2790 C 0.74993 0.82602 0.45444 0.0
C2791 C 0.74072 0.83685 0.44211 0.0
C2792 C 0.73347 0.85242 0.45009 0.0
H2793 H 0.7306 0.82519 0.31561 0.0
H2794 H 0.72894 0.83594 0.34952 0.0
C2795 C 0.73612 0.85752 0.47015 0.0
C2796 C 0.73945 0.83198 0.42091 0.0
H2797 H 0.75789 0.84703 0.37992 0.0
C2798 C 0.72926 0.81397 0.41305 0.0
C2799 C 0.74972 0.84417 0.40881 0.0
C2800 C 0.76134 0.86346 0.41667 0.0
C2801 C 0.72924 0.80771 0.39342 0.0
C2802 C 0.74003 0.81964 0.38147 0.0
C2803 C 0.74975 0.83788 0.38918 0.0
C2804 C 0.74161 0.81333 0.36097 0.0
C2805 C 0.71763 0.7884 0.38564 0.0
C2806 C 0.74974 0.79731 0.3562 0.0
C2807 C 0.75074 0.7911 0.33681 0.0
C2808 C 0.7437 0.80089 0.32187 0.0
C2809 C 0.7361 0.81727 0.32675 0.0
C2810 C 0.73511 0.82345 0.34613 0.0
H2811 H 0.70626 0.78345 0.39501 0.0
H2812 H 0.71085 0.78872 0.37072 0.0
H2813 H 0.72721 0.77779 0.38515 0.0
H2814 H 0.75524 0.78955 0.36748 0.0
H2815 H 0.75674 0.77849 0.33353 0.0
H2816 H 0.44576 0.49462 0.79766 0.0
H2817 H 0.45737 0.49973 0.83196 0.0
H2818 H 0.41631 0.53595 0.84206 0.0
H2819 H 0.40437 0.5308 0.80748 0.0
H2820 H 0.47223 0.53454 0.85624 0.0
H2821 H 0.40543 0.4934 0.87944 0.0
H2822 H 0.41085 0.49189 0.85456 0.0
H2823 H 0.40284 0.51255 0.86475 0.0
C2824 C 0.4392 0.50377 0.8071 0.0
C2825 C 0.424 0.51218 0.79985 0.0
C2826 C 0.44592 0.5067 0.82671 0.0
C2827 C 0.43754 0.518 0.83954 0.0
C2828 C 0.42278 0.52696 0.83236 0.0
H2829 H 0.45785 0.53413 0.96549 0.0
H2830 H 0.44578 0.53495 0.93173 0.0
C2831 C 0.41606 0.5241 0.81262 0.0
C2832 C 0.44407 0.51974 0.86048 0.0
H2833 H 0.43066 0.50551 0.90373 0.0
C2834 C 0.46313 0.52833 0.86669 0.0
C2835 C 0.43213 0.51157 0.874 0.0
C2836 C 0.4117 0.5017 0.86794 0.0
C2837 C 0.47064 0.52888 0.88608 0.0
C2838 C 0.45887 0.52022 0.89949 0.0
C2839 C 0.43967 0.51203 0.89338 0.0
C2840 C 0.46621 0.51943 0.91993 0.0
C2841 C 0.49105 0.53886 0.89205 0.0
C2842 C 0.48147 0.51007 0.92452 0.0
C2843 C 0.48847 0.50959 0.94385 0.0
C2844 C 0.4802 0.51835 0.95891 0.0
C2845 C 0.4646 0.52729 0.95425 0.0
C2846 C 0.45766 0.52779 0.93495 0.0
H2847 H 0.49625 0.54914 0.88166 0.0
H2848 H 0.49251 0.54664 0.90672 0.0
H2849 H 0.50045 0.52808 0.89241 0.0
H2850 H 0.48797 0.50312 0.91314 0.0
H2851 H 0.50042 0.50251 0.94697 0.0
H2852 H 0.80427 0.16207 0.09878 0.0
H2853 H 0.81115 0.18011 0.13077 0.0
H2854 H 0.84089 0.22858 0.1054 0.0
H2855 H 0.833 0.21085 0.07323 0.0
H2856 H 0.83979 0.20142 0.15641 0.0
H2857 H 0.79463 0.24797 0.12175 0.0
H2858 H 0.79827 0.226 0.10945 0.0
H2859 H 0.81676 0.24702 0.11164 0.0
C2860 C 0.81298 0.17627 0.10021 0.0
C2861 C 0.81808 0.18519 0.08371 0.0
C2862 C 0.81685 0.18662 0.11845 0.0
C2863 C 0.82599 0.2059 0.12034 0.0
C2864 C 0.83334 0.21391 0.10416 0.0
H2865 H 0.80532 0.28281 0.21896 0.0
H2866 H 0.82175 0.27219 0.19163 0.0
C2867 C 0.82905 0.20373 0.08586 0.0
C2868 C 0.82476 0.21812 0.13824 0.0
H2869 H 0.80177 0.25306 0.15521 0.0
C2870 C 0.83181 0.21297 0.15614 0.0
C2871 C 0.81424 0.23317 0.13788 0.0
C2872 C 0.80539 0.23883 0.1192 0.0
C2873 C 0.82778 0.22179 0.17365 0.0
C2874 C 0.81644 0.23607 0.17317 0.0
C2875 C 0.81055 0.24216 0.15541 0.0
C2876 C 0.80786 0.24257 0.19045 0.0
C2877 C 0.83497 0.21525 0.19251 0.0
C2878 C 0.79431 0.22951 0.19836 0.0
C2879 C 0.7847 0.23552 0.21357 0.0
C2880 C 0.78852 0.25476 0.22132 0.0
C2881 C 0.80208 0.2679 0.21332 0.0
C2882 C 0.81157 0.26186 0.19785 0.0
H2883 H 0.84781 0.20871 0.19094 0.0
H2884 H 0.83856 0.22732 0.20409 0.0
H2885 H 0.8236 0.2043 0.19715 0.0
H2886 H 0.79088 0.21466 0.19249 0.0
H2887 H 0.77431 0.22499 0.21929 0.0
H2888 H 0.0886 0.52982 0.30537 0.0
H2889 H 0.07492 0.52134 0.33501 0.0
H2890 H 0.09903 0.47019 0.33293 0.0
H2891 H 0.11299 0.47861 0.30298 0.0
H2892 H 0.04845 0.48508 0.33786 0.0
H2893 H 0.11485 0.49798 0.38946 0.0
H2894 H 0.11408 0.50879 0.36689 0.0
H2895 H 0.11421 0.48374 0.36676 0.0
C2896 C 0.09119 0.51683 0.31122 0.0
C2897 C 0.10184 0.50484 0.30176 0.0
C2898 C 0.0833 0.512 0.32815 0.0
C2899 C 0.08594 0.49515 0.33604 0.0
C2900 C 0.09695 0.48332 0.32703 0.0
H2901 H 0.047 0.47252 0.44921 0.0
H2902 H 0.05842 0.4661 0.41768 0.0
C2903 C 0.10491 0.48816 0.30998 0.0
C2904 C 0.07658 0.49012 0.35349 0.0
H2905 H 0.08541 0.49196 0.40257 0.0
C2906 C 0.0565 0.48623 0.352 0.0
C2907 C 0.08718 0.49149 0.3718 0.0
C2908 C 0.10878 0.49579 0.37402 0.0
C2909 C 0.04667 0.48462 0.36855 0.0
C2910 C 0.05727 0.48731 0.38698 0.0
C2911 C 0.07735 0.48999 0.38837 0.0
C2912 C 0.04803 0.48942 0.40502 0.0
C2913 C 0.02507 0.48054 0.36617 0.0
C2914 C 0.03818 0.50451 0.4082 0.0
C2915 C 0.03165 0.50826 0.42619 0.0
C2916 C 0.03504 0.49706 0.44133 0.0
C2917 C 0.04423 0.48146 0.43785 0.0
C2918 C 0.05076 0.47774 0.41986 0.0
H2919 H 0.01938 0.47274 0.3518 0.0
H2920 H 0.01922 0.47201 0.37768 0.0
H2921 H 0.01984 0.49426 0.36711 0.0
H2922 H 0.03628 0.51394 0.39706 0.0
H2923 H 0.02468 0.5204 0.42844 0.0
H2924 H 0.7145 0.85231 0.5867 0.0
H2925 H 0.70303 0.83623 0.6146 0.0
H2926 H 0.74977 0.80544 0.61483 0.0
H2927 H 0.76079 0.8207 0.58702 0.0
H2928 H 0.71702 0.78251 0.62094 0.0
H2929 H 0.72826 0.85039 0.66934 0.0
H2930 H 0.71161 0.84824 0.64803 0.0
H2931 H 0.73666 0.84952 0.64566 0.0
C2932 C 0.72221 0.84201 0.59267 0.0
C2933 C 0.73864 0.83793 0.58468 0.0
C2934 C 0.71569 0.83289 0.60865 0.0
C2935 C 0.72568 0.81977 0.61697 0.0
C2936 C 0.74175 0.81542 0.60866 0.0
H2937 H 0.76204 0.79361 0.72463 0.0
H2938 H 0.75304 0.80494 0.69382 0.0
C2939 C 0.74811 0.8243 0.59273 0.0
C2940 C 0.72051 0.81105 0.63493 0.0
H2941 H 0.72311 0.82189 0.68384 0.0
C2942 C 0.71795 0.79107 0.63469 0.0
C2943 C 0.72168 0.82226 0.65283 0.0
C2944 C 0.72481 0.84379 0.65415 0.0
C2945 C 0.71827 0.78213 0.65195 0.0
C2946 C 0.72063 0.79347 0.6699 0.0
C2947 C 0.72141 0.81326 0.67004 0.0
C2948 C 0.72553 0.78581 0.68852 0.0
C2949 C 0.71763 0.76086 0.65083 0.0
C2950 C 0.71317 0.77102 0.69576 0.0
C2951 C 0.71848 0.76421 0.71342 0.0
C2952 C 0.73607 0.77235 0.72417 0.0
C2953 C 0.74835 0.78707 0.71677 0.0
C2954 C 0.74318 0.79364 0.69916 0.0
H2955 H 0.71889 0.75472 0.63592 0.0
H2956 H 0.72936 0.75753 0.66076 0.0
H2957 H 0.70381 0.75371 0.65534 0.0
H2958 H 0.69935 0.76495 0.68795 0.0
H2959 H 0.70865 0.753 0.71889 0.0
H2960 H 0.71057 0.41898 0.50064 0.0
H2961 H 0.68401 0.43582 0.50461 0.0
H2962 H 0.70863 0.45783 0.56256 0.0
H2963 H 0.73523 0.44099 0.55878 0.0
H2964 H 0.66998 0.44013 0.56005 0.0
H2965 H 0.68179 0.49316 0.50637 0.0
H2966 H 0.68226 0.46922 0.4967 0.0
H2967 H 0.70032 0.48103 0.51556 0.0
C2968 C 0.71047 0.42758 0.51415 0.0
C2969 C 0.72501 0.42861 0.5294 0.0
C2970 C 0.69535 0.43731 0.51635 0.0
C2971 C 0.6945 0.44828 0.53379 0.0
C2972 C 0.70911 0.44956 0.54893 0.0
H2973 H 0.59919 0.51094 0.54377 0.0
H2974 H 0.63186 0.50418 0.5476 0.0
C2975 C 0.72429 0.43991 0.54673 0.0
C2976 C 0.67757 0.45709 0.53668 0.0
H2977 H 0.65039 0.48692 0.51715 0.0
C2978 C 0.66585 0.4506 0.55089 0.0
C2979 C 0.67235 0.47094 0.52492 0.0
C2980 C 0.68493 0.47916 0.51015 0.0
C2981 C 0.64847 0.45676 0.55287 0.0
C2982 C 0.64263 0.46961 0.54021 0.0
C2983 C 0.65487 0.47697 0.52677 0.0
C2984 C 0.62304 0.47386 0.53924 0.0
C2985 C 0.63626 0.44908 0.56815 0.0
C2986 C 0.60739 0.45907 0.53326 0.0
C2987 C 0.5889 0.46287 0.53099 0.0
C2988 C 0.58562 0.48157 0.53463 0.0
C2989 C 0.60127 0.49638 0.54097 0.0
C2990 C 0.6199 0.49256 0.5431 0.0
H2991 H 0.64496 0.44418 0.5801 0.0
H2992 H 0.62866 0.46004 0.57434 0.0
H2993 H 0.62536 0.43665 0.5615 0.0
H2994 H 0.60954 0.4446 0.52989 0.0
H2995 H 0.57719 0.45111 0.52609 0.0
H2996 H 0.2161 0.0729 0.49407 0.0
H2997 H 0.1915 0.04382 0.49283 0.0
H2998 H 0.14814 0.07547 0.47458 0.0
H2999 H 0.17234 0.10411 0.47541 0.0
H3000 H 0.16279 0.03924 0.51513 0.0
H3001 H 0.1308 0.02722 0.43949 0.0
H3002 H 0.15394 0.04231 0.44656 0.0
H3003 H 0.13226 0.05182 0.44783 0.0
C3004 C 0.20137 0.07349 0.48935 0.0
C3005 C 0.19617 0.09085 0.48494 0.0
C3006 C 0.18734 0.05688 0.48864 0.0
C3007 C 0.168 0.05735 0.48326 0.0
C3008 C 0.16299 0.07453 0.47821 0.0
H3009 H 0.06747 0.02747 0.52829 0.0
H3010 H 0.10032 0.03593 0.52085 0.0
C3011 C 0.17689 0.09103 0.47894 0.0
C3012 C 0.15252 0.04097 0.48538 0.0
H3013 H 0.10826 0.01929 0.46405 0.0
C3014 C 0.15113 0.03439 0.50376 0.0
C3015 C 0.13746 0.03414 0.47049 0.0
C3016 C 0.13883 0.03911 0.44994 0.0
C3017 C 0.13422 0.02299 0.50822 0.0
C3018 C 0.1182 0.01847 0.49406 0.0
C3019 C 0.12037 0.02314 0.47507 0.0
C3020 C 0.09858 0.01187 0.49939 0.0
C3021 C 0.13338 0.01673 0.52836 0.0
C3022 C 0.0864 0.99572 0.48946 0.0
C3023 C 0.06732 0.99089 0.49356 0.0
C3024 C 0.06012 0.00231 0.50749 0.0
C3025 C 0.07248 0.01832 0.51749 0.0
C3026 C 0.09141 0.02308 0.51341 0.0
H3027 H 0.14761 0.01441 0.53441 0.0
H3028 H 0.12934 0.02814 0.53802 0.0
H3029 H 0.12271 0.00338 0.52852 0.0
H3030 H 0.09157 0.98702 0.47839 0.0
H3031 H 0.05814 0.97849 0.48558 0.0
H3032 H 0.17817 0.9582 0.82718 0.0
H3033 H 0.19578 0.93204 0.82317 0.0
H3034 H 0.1955 0.93838 0.7621 0.0
H3035 H 0.1777 0.96454 0.76589 0.0
H3036 H 0.18115 0.89695 0.79337 0.0
H3037 H 0.25372 0.93808 0.78536 0.0
H3038 H 0.2366 0.94851 0.79827 0.0
H3039 H 0.23312 0.94436 0.77237 0.0
C3040 C 0.18194 0.95415 0.8129 0.0
C3041 C 0.17649 0.96347 0.79685 0.0
C3042 C 0.19201 0.93919 0.81065 0.0
C3043 C 0.19705 0.93341 0.79238 0.0
C3044 C 0.19189 0.94278 0.77635 0.0
H3045 H 0.25789 0.84178 0.75804 0.0
H3046 H 0.24429 0.87103 0.75916 0.0
C3047 C 0.18165 0.95767 0.77854 0.0
C3048 C 0.20681 0.91687 0.79004 0.0
H3049 H 0.25019 0.90456 0.78403 0.0
C3050 C 0.19623 0.89858 0.79128 0.0
C3051 C 0.2264 0.91908 0.78708 0.0
C3052 C 0.23828 0.93854 0.78574 0.0
C3053 C 0.20475 0.88238 0.78979 0.0
C3054 C 0.22457 0.8846 0.78758 0.0
C3055 C 0.23506 0.90289 0.78587 0.0
C3056 C 0.23459 0.86808 0.78757 0.0
C3057 C 0.19235 0.86299 0.79034 0.0
C3058 C 0.23437 0.85718 0.80347 0.0
C3059 C 0.24196 0.8405 0.80281 0.0
C3060 C 0.25026 0.8345 0.78636 0.0
C3061 C 0.25161 0.84606 0.77092 0.0
C3062 C 0.2438 0.86273 0.77152 0.0
H3063 H 0.17701 0.86318 0.78611 0.0
H3064 H 0.19687 0.85198 0.78054 0.0
H3065 H 0.1936 0.85876 0.80532 0.0
H3066 H 0.22784 0.86132 0.81624 0.0
H3067 H 0.2409 0.83203 0.81505 0.0
H3068 H 0.29701 0.95064 0.00014 0.0
H3069 H 0.32416 0.9771 -0.00067 0.0
H3070 H 0.35689 0.93745 0.97526 0.0
H3071 H 0.3301 0.91135 0.97572 0.0
H3072 H 0.35847 0.98004 0.01983 0.0
H3073 H 0.37033 0.98094 0.94287 0.0
H3074 H 0.34801 0.96925 0.9506 0.0
H3075 H 0.36788 0.95692 0.94927 0.0
C3076 C 0.30985 0.94771 0.99424 0.0
C3077 C 0.31145 0.92889 0.98811 0.0
C3078 C 0.32533 0.96281 0.99379 0.0
C3079 C 0.34246 0.95932 0.98692 0.0
C3080 C 0.34369 0.94064 0.98011 0.0
H3081 H 0.45665 0.98722 0.02611 0.0
H3082 H 0.42199 0.97838 0.01969 0.0
C3083 C 0.32838 0.92564 0.98062 0.0
C3084 C 0.36005 0.97428 0.98919 0.0
H3085 H 0.39941 0.98952 0.96601 0.0
C3086 C 0.36719 0.98259 0.00795 0.0
C3087 C 0.37133 0.97802 0.97368 0.0
C3088 C 0.36385 0.97095 0.95296 0.0
C3089 C 0.38602 0.99284 0.0119 0.0
C3090 C 0.39808 0.99445 0.99678 0.0
C3091 C 0.39031 0.9879 0.9777 0.0
C3092 C 0.41913 0.00057 0.00083 0.0
C3093 C 0.39307 0.00112 0.03242 0.0
C3094 C 0.42918 0.01558 0.9918 0.0
C3095 C 0.44917 0.0206 0.99531 0.0
C3096 C 0.45939 0.01054 0.00777 0.0
C3097 C 0.44925 0.99536 0.01654 0.0
C3098 C 0.42937 0.99039 0.01303 0.0
H3099 H 0.38114 0.00494 0.04023 0.0
H3100 H 0.39904 0.99028 0.04032 0.0
H3101 H 0.40442 0.01404 0.0328 0.0
H3102 H 0.42155 0.02345 0.98212 0.0
H3103 H 0.45659 0.03235 0.98831 0.0
H3104 H 0.8336 0.5589 0.7988 0.0
H3105 H 0.81349 0.58292 0.79496 0.0
H3106 H 0.84259 0.60145 0.74608 0.0
H3107 H 0.86301 0.57772 0.75002 0.0
H3108 H 0.84064 0.63096 0.77184 0.0
H3109 H 0.76869 0.58532 0.75578 0.0
H3110 H 0.78139 0.58013 0.77752 0.0
H3111 H 0.79048 0.57596 0.75455 0.0
C3112 C 0.83562 0.56797 0.78711 0.0
C3113 C 0.84995 0.56641 0.77475 0.0
C3114 C 0.82398 0.58158 0.78483 0.0
C3115 C 0.82628 0.59377 0.77001 0.0
C3116 C 0.84045 0.5921 0.75752 0.0
H3117 H 0.75745 0.68164 0.74568 0.0
H3118 H 0.77132 0.65258 0.74215 0.0
C3119 C 0.85214 0.57855 0.75983 0.0
C3120 C 0.81506 0.60927 0.76857 0.0
H3121 H 0.76957 0.61853 0.76555 0.0
C3122 C 0.8251 0.62819 0.77021 0.0
C3123 C 0.79477 0.60569 0.76621 0.0
C3124 C 0.78319 0.58566 0.76321 0.0
C3125 C 0.81545 0.64362 0.77038 0.0
C3126 C 0.79522 0.64007 0.76917 0.0
C3127 C 0.78509 0.62118 0.76669 0.0
C3128 C 0.78464 0.65596 0.77166 0.0
C3129 C 0.82701 0.66366 0.77215 0.0
C3130 C 0.78696 0.66695 0.78958 0.0
C3131 C 0.77914 0.68341 0.79162 0.0
C3132 C 0.76873 0.68919 0.77579 0.0
C3133 C 0.76538 0.67752 0.75813 0.0
C3134 C 0.77332 0.66098 0.75608 0.0
H3135 H 0.84175 0.66388 0.76806 0.0
H3136 H 0.81994 0.67285 0.76287 0.0
H3137 H 0.82814 0.66994 0.78741 0.0
H3138 H 0.79542 0.66314 0.80185 0.0
H3139 H 0.7818 0.69196 0.8055 0.0
H3140 H 0.81231 0.60869 0.02256 0.0
H3141 H 0.84003 0.59292 0.02505 0.0
H3142 H 0.82464 0.56699 0.9664 0.0
H3143 H 0.79673 0.58242 0.96386 0.0
H3144 H 0.83547 0.54163 0.99175 0.0
H3145 H 0.88872 0.60945 -0.00088 0.0
H3146 H 0.87173 0.6081 0.01678 0.0
H3147 H 0.86367 0.60832 0.99161 0.0
C3148 C 0.81479 0.59962 0.01019 0.0
C3149 C 0.80236 0.59695 0.99295 0.0
C3150 C 0.8307 0.59066 0.01162 0.0
C3151 C 0.83457 0.579 0.99581 0.0
C3152 C 0.82196 0.57597 0.97876 0.0
H3153 H 0.94173 0.54806 0.9724 0.0
H3154 H 0.91145 0.55928 0.97233 0.0
C3155 C 0.80604 0.58487 0.97732 0.0
C3156 C 0.85195 0.57022 0.99684 0.0
H3157 H 0.90083 0.5811 0.00221 0.0
C3158 C 0.84977 0.55023 0.99409 0.0
C3159 C 0.8706 0.58148 -0.00032 0.0
C3160 C 0.87391 0.60303 0.0018 0.0
C3161 C 0.86575 0.54122 0.99407 0.0
C3162 C 0.88439 0.5525 0.99714 0.0
C3163 C 0.88653 0.57246 -2e-05 0.0
C3164 C 0.90195 0.5441 0.99645 0.0
C3165 C 0.86256 0.51977 0.99021 0.0
C3166 C 0.90662 0.53156 0.00988 0.0
C3167 C 0.92399 0.52497 0.00989 0.0
C3168 C 0.93705 0.53102 0.9966 0.0
C3169 C 0.93206 0.54319 0.98291 0.0
C3170 C 0.91474 0.54965 0.98285 0.0
H3171 H 0.8477 0.51365 0.98381 0.0
H3172 H 0.87271 0.51544 0.98026 0.0
H3173 H 0.86508 0.51351 0.00407 0.0
H3174 H 0.89712 0.52733 0.02073 0.0
H3175 H 0.92749 0.51573 0.02072 0.0
H3176 H 0.19614 0.04842 0.7861 0.0
H3177 H 0.22184 0.07635 0.78591 0.0
H3178 H 0.1868 0.11225 0.81244 0.0
H3179 H 0.16148 0.08469 0.81294 0.0
H3180 H 0.21798 0.10612 0.7655 0.0
H3181 H 0.23804 0.13386 0.84198 0.0
H3182 H 0.22524 0.10978 0.83488 0.0
H3183 H 0.2125 0.12934 0.83696 0.0
C3184 C 0.19419 0.06219 0.79239 0.0
C3185 C 0.17674 0.06437 0.79943 0.0
C3186 C 0.20885 0.07813 0.79224 0.0
C3187 C 0.20637 0.09637 0.79941 0.0
C3188 C 0.18931 0.0983 0.80729 0.0
H3189 H 0.22263 0.2033 0.76004 0.0
H3190 H 0.21562 0.16988 0.76621 0.0
C3191 C 0.17471 0.08251 0.80736 0.0
C3192 C 0.22006 0.11384 0.79631 0.0
H3193 H 0.24033 0.15798 0.81859 0.0
C3194 C 0.22335 0.11727 0.77719 0.0
C3195 C 0.22742 0.12832 0.81153 0.0
C3196 C 0.22578 0.12502 0.8325 0.0
C3197 C 0.23217 0.13534 0.77273 0.0
C3198 C 0.23748 0.15043 0.78773 0.0
C3199 C 0.23589 0.14652 0.80703 0.0
C3200 C 0.24251 0.17061 0.7835 0.0
C3201 C 0.23504 0.13828 0.75189 0.0
C3202 C 0.25976 0.18233 0.79164 0.0
C3203 C 0.26379 0.20163 0.78825 0.0
C3204 C 0.25052 0.20952 0.77681 0.0
C3205 C 0.23324 0.1977 0.7688 0.0
C3206 C 0.22926 0.17851 0.77218 0.0
H3207 H 0.23683 0.12483 0.74372 0.0
H3208 H 0.22219 0.14272 0.74486 0.0
H3209 H 0.24774 0.14952 0.75078 0.0
H3210 H 0.27008 0.17656 0.80061 0.0
H3211 H 0.27721 0.21036 0.79467 0.0
H3212 H 0.36027 0.99061 0.26641 0.0
H3213 H 0.33438 0.96294 0.26671 0.0
H3214 H 0.37618 0.92767 0.27898 0.0
H3215 H 0.40189 0.95501 0.279 0.0
H3216 H 0.32813 0.93071 0.24224 0.0
H3217 H 0.33833 0.91112 0.31686 0.0
H3218 H 0.34892 0.93421 0.31003 0.0
H3219 H 0.36064 0.91407 0.30645 0.0
C3220 C 0.3639 0.97701 0.26948 0.0
C3221 C 0.38316 0.97502 0.27263 0.0
C3222 C 0.3491 0.96124 0.26968 0.0
C3223 C 0.35333 0.94332 0.27325 0.0
C3224 C 0.37252 0.94145 0.27675 0.0
H3225 H 0.31463 0.83219 0.22637 0.0
H3226 H 0.32619 0.86619 0.23495 0.0
C3227 C 0.38725 0.95711 0.27654 0.0
C3228 C 0.3381 0.92598 0.27126 0.0
H3229 H 0.32465 0.88472 0.29214 0.0
C3230 C 0.32698 0.92086 0.25335 0.0
C3231 C 0.33624 0.91327 0.28586 0.0
C3232 C 0.34654 0.91858 0.30595 0.0
C3233 C 0.31545 0.90269 0.24903 0.0
C3234 C 0.31537 0.88921 0.26286 0.0
C3235 C 0.32502 0.89494 0.2814 0.0
C3236 C 0.30749 0.86866 0.25752 0.0
C3237 C 0.30406 0.89784 0.22941 0.0
C3238 C 0.29352 0.85857 0.26779 0.0
C3239 C 0.28692 0.83894 0.26298 0.0
C3240 C 0.29438 0.82912 0.24799 0.0
C3241 C 0.30849 0.83929 0.23792 0.0
C3242 C 0.31501 0.85881 0.24269 0.0
H3243 H 0.30012 0.9108 0.22363 0.0
H3244 H 0.31293 0.89178 0.21909 0.0
H3245 H 0.29079 0.88717 0.23005 0.0
H3246 H 0.28772 0.86589 0.27946 0.0
H3247 H 0.27606 0.83147 0.27103 0.0
H3248 H 0.54361 0.32049 0.59703 0.0
H3249 H 0.53524 0.34961 0.58573 0.0
H3250 H 0.49206 0.34816 0.62549 0.0
H3251 H 0.50034 0.31882 0.63706 0.0
H3252 H 0.48297 0.35782 0.5826 0.0
H3253 H 0.54818 0.40082 0.62529 0.0
H3254 H 0.55159 0.37979 0.61108 0.0
H3255 H 0.53728 0.37739 0.63103 0.0
C3256 C 0.5322 0.32619 0.60331 0.0
C3257 C 0.52277 0.31741 0.61811 0.0
C3258 C 0.52743 0.34282 0.59678 0.0
C3259 C 0.51315 0.35101 0.60488 0.0
C3260 C 0.50312 0.34196 0.61908 0.0
H3261 H 0.51256 0.47037 0.59003 0.0
H3262 H 0.5067 0.43966 0.60365 0.0
C3263 C 0.50791 0.32526 0.62569 0.0
C3264 C 0.50987 0.36974 0.59933 0.0
H3265 H 0.53217 0.41631 0.60188 0.0
C3266 C 0.49353 0.37071 0.58698 0.0
C3267 C 0.52361 0.38648 0.60528 0.0
C3268 C 0.54111 0.38622 0.61903 0.0
C3269 C 0.49101 0.38799 0.57975 0.0
C3270 C 0.50531 0.40454 0.58488 0.0
C3271 C 0.52121 0.40363 0.59791 0.0
C3272 C 0.50494 0.42272 0.57614 0.0
C3273 C 0.47317 0.38835 0.56659 0.0
C3274 C 0.50538 0.42338 0.55607 0.0
C3275 C 0.50865 0.44093 0.54822 0.0
C3276 C 0.51181 0.45811 0.56037 0.0
C3277 C 0.51032 0.45738 0.58031 0.0
C3278 C 0.50693 0.43984 0.58812 0.0
H3279 H 0.46123 0.37678 0.56907 0.0
H3280 H 0.46847 0.40229 0.56874 0.0
H3281 H 0.47619 0.38611 0.55129 0.0
H3282 H 0.50431 0.41038 0.54659 0.0
H3283 H 0.5098 0.44103 0.53281 0.0
H3284 H 0.46944 0.73799 0.32335 0.0
H3285 H 0.44642 0.73903 0.29533 0.0
H3286 H 0.39981 0.72419 0.33019 0.0
H3287 H 0.42244 0.72237 0.35776 0.0
H3288 H 0.39061 0.70783 0.29375 0.0
H3289 H 0.42152 0.78513 0.29321 0.0
H3290 H 0.43712 0.76854 0.28868 0.0
H3291 H 0.42877 0.77141 0.31217 0.0
C3292 C 0.45427 0.73455 0.32489 0.0
C3293 C 0.44779 0.73042 0.3429 0.0
C3294 C 0.44114 0.7353 0.3089 0.0
C3295 C 0.4214 0.73218 0.3108 0.0
C3296 C 0.41496 0.72674 0.32837 0.0
H3297 H 0.32907 0.78121 0.28804 0.0
H3298 H 0.35991 0.77199 0.29473 0.0
C3299 C 0.42798 0.72579 0.3442 0.0
C3300 C 0.40726 0.73626 0.29552 0.0
H3301 H 0.39181 0.77367 0.27576 0.0
C3302 C 0.39101 0.72211 0.2894 0.0
C3303 C 0.40786 0.75494 0.28988 0.0
C3304 C 0.42466 0.77096 0.29636 0.0
C3305 C 0.37467 0.72651 0.27936 0.0
C3306 C 0.37486 0.74547 0.27481 0.0
C3307 C 0.39175 0.75917 0.27931 0.0
C3308 C 0.35694 0.75222 0.26894 0.0
C3309 C 0.35684 0.71123 0.27528 0.0
C3310 C 0.34514 0.74454 0.2519 0.0
C3311 C 0.32722 0.74967 0.2481 0.0
C3312 C 0.32097 0.76266 0.26122 0.0
C3313 C 0.33334 0.77108 0.27767 0.0
C3314 C 0.35106 0.76586 0.2815 0.0
H3315 H 0.35836 0.69807 0.28225 0.0
H3316 H 0.34432 0.71656 0.28051 0.0
H3317 H 0.35381 0.70736 0.25942 0.0
H3318 H 0.34957 0.73428 0.2418 0.0
H3319 H 0.31807 0.74305 0.23522 0.0
H3320 H 0.0046 0.70948 0.13153 0.0
H3321 H 0.99834 0.67552 0.11936 0.0
H3322 H 0.04005 0.68732 0.07853 0.0
H3323 H 0.04659 0.72096 0.09066 0.0
H3324 H 0.98606 0.65763 0.08197 0.0
H3325 H 0.05827 0.64498 0.10662 0.0
H3326 H 0.04957 0.66601 0.11512 0.0
H3327 H 0.05894 0.66458 0.09198 0.0
C3328 C 0.0124 0.70482 0.11994 0.0
C3329 C 0.02623 0.7179 0.11221 0.0
C3330 C 0.00883 0.68544 0.11303 0.0
C3331 C 0.01907 0.67887 0.09836 0.0
C3332 C 0.03238 0.692 0.09022 0.0
H3333 H 0.01892 0.57398 0.02785 0.0
H3334 H 0.0246 0.60686 0.0432 0.0
C3335 C 0.036 0.71127 0.09712 0.0
C3336 C 0.01578 0.65837 0.09124 0.0
H3337 H 0.0388 0.62084 0.084 0.0
C3338 C 0.99751 0.64951 0.0826 0.0
C3339 C 0.03078 0.64783 0.0921 0.0
C3340 C 0.05044 0.65627 0.10213 0.0
C3341 C 0.994 0.63054 0.0742 0.0
C3342 C 0.00913 0.62019 0.07466 0.0
C3343 C 0.0273 0.62892 0.08357 0.0
C3344 C 0.00632 0.60024 0.06592 0.0
C3345 C 0.97431 0.62184 0.06443 0.0
C3346 C 0.99455 0.58567 0.07393 0.0
C3347 C 0.99136 0.56692 0.0653 0.0
C3348 C 0.9999 0.56242 0.04847 0.0
C3349 C 0.01211 0.577 0.04077 0.0
C3350 C 0.01535 0.59576 0.04949 0.0
H3351 H 0.96535 0.6328 0.06201 0.0
H3352 H 0.97531 0.61394 0.05027 0.0
H3353 H 0.96695 0.61153 0.0737 0.0
H3354 H 0.9877 0.58883 0.08678 0.0
H3355 H 0.98193 0.55604 0.07165 0.0
H3356 H 0.04865 0.2327 0.85814 0.0
H3357 H 0.07744 0.23275 0.84152 0.0
H3358 H 0.06315 0.27737 0.80808 0.0
H3359 H 0.03431 0.27753 0.82472 0.0
H3360 H 0.07971 0.22638 0.80052 0.0
H3361 H 0.11901 0.29815 0.83216 0.0
H3362 H 0.09872 0.2854 0.84255 0.0
H3363 H 0.0951 0.29698 0.82095 0.0
C3364 C 0.05163 0.24258 0.8473 0.0
C3365 C 0.0392 0.25517 0.84282 0.0
C3366 C 0.06807 0.24255 0.83779 0.0
C3367 C 0.0725 0.25518 0.82372 0.0
C3368 C 0.06012 0.2677 0.8191 0.0
H3369 H 0.17697 0.27368 0.76429 0.0
H3370 H 0.14445 0.27465 0.7727 0.0
C3371 C 0.04361 0.26772 0.82858 0.0
C3372 C 0.09005 0.25502 0.81385 0.0
H3373 H 0.13435 0.28113 0.80997 0.0
C3374 C 0.09163 0.23838 0.80248 0.0
C3375 C 0.10548 0.27077 0.81632 0.0
C3376 C 0.10467 0.28883 0.82875 0.0
C3377 C 0.10838 0.23694 0.79375 0.0
C3378 C 0.12409 0.25242 0.7968 0.0
C3379 C 0.12227 0.2693 0.80764 0.0
C3380 C 0.14301 0.25087 0.79022 0.0
C3381 C 0.10912 0.21883 0.78138 0.0
C3382 C 0.15293 0.23717 0.79725 0.0
C3383 C 0.17142 0.23657 0.79248 0.0
C3384 C 0.18046 0.24976 0.78069 0.0
C3385 C 0.17037 0.26326 0.77332 0.0
C3386 C 0.15182 0.26387 0.77815 0.0
H3387 H 0.09454 0.21121 0.77546 0.0
H3388 H 0.11785 0.22183 0.76914 0.0
H3389 H 0.11572 0.20913 0.79039 0.0
H3390 H 0.14659 0.22727 0.80693 0.0
H3391 H 0.17879 0.22603 0.79846 0.0
H3392 H 0.52875 0.70988 0.93813 0.0
H3393 H 0.53365 0.6803 0.95172 0.0
H3394 H 0.52604 0.70473 0.00858 0.0
H3395 H 0.52014 0.7338 0.99492 0.0
H3396 H 0.55777 0.67009 0.97856 0.0
H3397 H 0.485 0.65816 0.00285 0.0
H3398 H 0.49293 0.6767 0.98772 0.0
H3399 H 0.49946 0.68028 0.01353 0.0
C3400 C 0.52829 0.70894 0.95354 0.0
C3401 C 0.52374 0.72393 0.96544 0.0
C3402 C 0.53109 0.69207 0.9613 0.0
C3403 C 0.52964 0.69009 0.98108 0.0
C3404 C 0.52653 0.70565 0.99318 0.0
H3405 H 0.55822 0.58957 0.03418 0.0
H3406 H 0.55902 0.62246 0.02617 0.0
C3407 C 0.52329 0.72229 0.98538 0.0
C3408 C 0.53044 0.6715 0.98888 0.0
H3409 H 0.50516 0.63714 0.01281 0.0
C3410 C 0.54628 0.66285 0.98605 0.0
C3411 C 0.51528 0.66195 0.99841 0.0
C3412 C 0.49713 0.66964 0.00064 0.0
C3413 C 0.54732 0.64485 0.99234 0.0
C3414 C 0.53239 0.63556 0.00233 0.0
C3415 C 0.5167 0.64435 0.00536 0.0
C3416 C 0.53182 0.61602 0.00831 0.0
C3417 C 0.56402 0.63568 0.98753 0.0
C3418 C 0.51588 0.60169 0.00175 0.0
C3419 C 0.51516 0.5831 0.00671 0.0
C3420 C 0.53048 0.57834 0.0182 0.0
C3421 C 0.54626 0.59278 0.0252 0.0
C3422 C 0.54683 0.61153 0.02046 0.0
H3423 H 0.57136 0.64229 0.97562 0.0
H3424 H 0.57463 0.63757 0.0005 0.0
H3425 H 0.55931 0.62014 0.98321 0.0
H3426 H 0.50409 0.60479 0.99242 0.0
H3427 H 0.50281 0.57234 0.00099 0.0
H3428 H 0.0574 0.76553 0.67399 0.0
H3429 H 0.09175 0.77225 0.68466 0.0
H3430 H 0.08357 0.72734 0.72264 0.0
H3431 H 0.04934 0.72031 0.71188 0.0
H3432 H 0.11176 0.78247 0.7213 0.0
H3433 H 0.12445 0.71252 0.69003 0.0
H3434 H 0.10257 0.72106 0.68401 0.0
H3435 H 0.10626 0.71072 0.70642 0.0
C3436 C 0.06288 0.75715 0.68469 0.0
C3437 C 0.05063 0.74226 0.69194 0.0
C3438 C 0.08252 0.76099 0.69075 0.0
C3439 C 0.09025 0.75002 0.70412 0.0
C3440 C 0.07797 0.73567 0.71195 0.0
H3441 H 0.20539 0.75112 0.75738 0.0
H3442 H 0.1708 0.74435 0.74777 0.0
C3443 C 0.05837 0.73176 0.70586 0.0
C3444 C 0.11119 0.7535 0.7098 0.0
H3445 H 0.15045 0.73232 0.70972 0.0
C3446 C 0.12024 0.77154 0.71871 0.0
C3447 C 0.12221 0.7392 0.70638 0.0
C3448 C 0.11345 0.71984 0.69603 0.0
C3449 C 0.13999 0.77558 0.72458 0.0
C3450 C 0.15097 0.76127 0.7212 0.0
C3451 C 0.14194 0.74322 0.71234 0.0
C3452 C 0.17194 0.76488 0.7265 0.0
C3453 C 0.14891 0.79502 0.73464 0.0
C3454 C 0.18403 0.77832 0.71737 0.0
C3455 C 0.20375 0.78216 0.72274 0.0
C3456 C 0.21178 0.77259 0.73734 0.0
C3457 C 0.19967 0.75875 0.7461 0.0
C3458 C 0.17991 0.75488 0.74066 0.0
H3459 H 0.13797 0.80272 0.74019 0.0
H3460 H 0.1595 0.79381 0.74692 0.0
H3461 H 0.15653 0.80375 0.7242 0.0
H3462 H 0.17817 0.78593 0.70615 0.0
H3463 H 0.21266 0.79285 0.71564 0.0
H3464 H 0.04727 0.3274 0.45344 0.0
H3465 H 0.05726 0.36116 0.46595 0.0
H3466 H 0.01038 0.35576 0.50155 0.0
H3467 H 0.00066 0.32232 0.48965 0.0
H3468 H 0.03713 0.38875 0.46144 0.0
H3469 H 0.05266 0.38511 0.53975 0.0
H3470 H 0.05075 0.36454 0.52236 0.0
H3471 H 0.02962 0.37086 0.53157 0.0
C3472 C 0.03934 0.33336 0.46421 0.0
C3473 C 0.02316 0.32215 0.47052 0.0
C3474 C 0.04507 0.35263 0.47134 0.0
C3475 C 0.03482 0.3609 0.48501 0.0
C3476 C 0.0189 0.3496 0.49151 0.0
H3477 H 0.9993 0.46552 0.49671 0.0
H3478 H 0.00615 0.43368 0.4895 0.0
C3479 C 0.01322 0.33046 0.48447 0.0
C3480 C 0.03911 0.38171 0.491 0.0
H3481 H 0.04095 0.4137 0.53056 0.0
C3482 C 0.03846 0.39427 0.47657 0.0
C3483 C 0.04129 0.38906 0.51074 0.0
C3484 C 0.04384 0.37666 0.52695 0.0
C3485 C 0.03822 0.41364 0.48132 0.0
C3486 C 0.03813 0.42047 0.50096 0.0
C3487 C 0.04053 0.40833 0.51548 0.0
C3488 C 0.03382 0.43955 0.50647 0.0
C3489 C 0.03749 0.42649 0.46519 0.0
C3490 C 0.04662 0.45307 0.51931 0.0
C3491 C 0.04259 0.47129 0.52372 0.0
C3492 C 0.02569 0.47617 0.51534 0.0
C3493 C 0.01253 0.46226 0.50323 0.0
C3494 C 0.01651 0.44411 0.49894 0.0
H3495 H 0.04426 0.42122 0.45256 0.0
H3496 H 0.02232 0.42662 0.46022 0.0
H3497 H 0.04481 0.44137 0.47012 0.0
H3498 H 0.05994 0.4497 0.52548 0.0
H3499 H 0.05302 0.48174 0.53307 0.0
H3500 H 0.44607 0.22773 0.20691 0.0
H3501 H 0.41918 0.23862 0.22078 0.0
H3502 H 0.42326 0.28436 0.18371 0.0
H3503 H 0.45022 0.27353 0.16959 0.0
H3504 H 0.41641 0.27613 0.23941 0.0
H3505 H 0.36731 0.2536 0.17155 0.0
H3506 H 0.38951 0.24513 0.17584 0.0
H3507 H 0.3898 0.26903 0.16959 0.0
C3508 C 0.44134 0.24016 0.20172 0.0
C3509 C 0.45022 0.24966 0.187 0.0
C3510 C 0.42601 0.2464 0.20974 0.0
C3511 C 0.41915 0.26217 0.20315 0.0
C3512 C 0.42824 0.27203 0.18884 0.0
H3513 H 0.30852 0.29049 0.22574 0.0
H3514 H 0.34111 0.29437 0.2163 0.0
C3515 C 0.44366 0.26584 0.18083 0.0
C3516 C 0.40194 0.26761 0.21076 0.0
H3517 H 0.35427 0.26575 0.19853 0.0
C3518 C 0.40284 0.27408 0.23046 0.0
C3519 C 0.38432 0.26501 0.19901 0.0
C3520 C 0.3825 0.25771 0.17784 0.0
C3521 C 0.38645 0.27765 0.23883 0.0
C3522 C 0.36863 0.2742 0.22726 0.0
C3523 C 0.36792 0.26844 0.2074 0.0
C3524 C 0.35023 0.27472 0.2356 0.0
C3525 C 0.38839 0.28497 0.25997 0.0
C3526 C 0.34466 0.26281 0.25 0.0
C3527 C 0.3261 0.26068 0.25554 0.0
C3528 C 0.31261 0.27018 0.24655 0.0
C3529 C 0.31853 0.28293 0.23292 0.0
C3530 C 0.33716 0.28514 0.22747 0.0
H3531 H 0.40302 0.29323 0.26471 0.0
H3532 H 0.37782 0.29419 0.26301 0.0
H3533 H 0.38593 0.27266 0.26879 0.0
H3534 H 0.3543 0.25427 0.25618 0.0
H3535 H 0.32203 0.25068 0.26603 0.0
H3536 H 0.62381 0.48708 0.33802 0.0
H3537 H 0.60884 0.47637 0.36678 0.0
H3538 H 0.55757 0.49606 0.34678 0.0
H3539 H 0.57234 0.50686 0.31834 0.0
H3540 H 0.59584 0.50378 0.39296 0.0
H3541 H 0.53725 0.44309 0.36545 0.0
H3542 H 0.55781 0.4503 0.35244 0.0
H3543 H 0.53849 0.46334 0.35158 0.0
C3544 C 0.60919 0.48869 0.33958 0.0
C3545 C 0.59929 0.49792 0.32604 0.0
C3546 C 0.60068 0.48258 0.35597 0.0
C3547 C 0.58203 0.48523 0.35875 0.0
C3548 C 0.57183 0.49356 0.34474 0.0
H3549 H 0.50593 0.49302 0.44581 0.0
H3550 H 0.5208 0.48817 0.41578 0.0
C3551 C 0.58038 0.49988 0.32858 0.0
C3552 C 0.57401 0.48184 0.37734 0.0
H3553 H 0.53479 0.45891 0.39659 0.0
C3554 C 0.58271 0.49369 0.39391 0.0
C3555 C 0.55673 0.46888 0.37837 0.0
C3556 C 0.54707 0.45554 0.36105 0.0
C3557 C 0.57412 0.49364 0.41128 0.0
C3558 C 0.55661 0.48092 0.41226 0.0
C3559 C 0.54821 0.46861 0.39583 0.0
C3560 C 0.54644 0.48101 0.42996 0.0
C3561 C 0.58336 0.50799 0.42805 0.0
C3562 C 0.55553 0.47776 0.44773 0.0
C3563 C 0.54724 0.48081 0.46486 0.0
C3564 C 0.52948 0.48676 0.4645 0.0
C3565 C 0.51965 0.48849 0.44654 0.0
C3566 C 0.52813 0.48573 0.42939 0.0
H3567 H 0.59383 0.51976 0.42333 0.0
H3568 H 0.57243 0.51432 0.43539 0.0
H3569 H 0.59117 0.50074 0.43878 0.0
H3570 H 0.56941 0.47359 0.44844 0.0
H3571 H 0.55503 0.47905 0.47846 0.0
H3572 H 0.23712 0.87567 0.05411 0.0
H3573 H 0.23118 0.86204 0.08481 0.0
H3574 H 0.28356 0.84 0.08442 0.0
H3575 H 0.28971 0.85359 0.05414 0.0
H3576 H 0.22732 0.82286 0.09116 0.0
H3577 H 0.28776 0.86719 0.13906 0.0
H3578 H 0.2795 0.87397 0.11581 0.0
H3579 H 0.29522 0.85697 0.11728 0.0
C3580 C 0.24749 0.86815 0.06074 0.0
C3581 C 0.2639 0.86575 0.05171 0.0
C3582 C 0.24404 0.86034 0.0782 0.0
C3583 C 0.25706 0.85024 0.08695 0.0
C3584 C 0.27353 0.84806 0.07809 0.0
H3585 H 0.27196 0.77992 0.17798 0.0
H3586 H 0.27178 0.79604 0.14829 0.0
C3587 C 0.27695 0.85577 0.0607 0.0
C3588 C 0.25322 0.84102 0.10482 0.0
H3589 H 0.27357 0.83753 0.15025 0.0
C3590 C 0.23722 0.82624 0.10422 0.0
C3591 C 0.26618 0.84552 0.1218 0.0
C3592 C 0.28303 0.86191 0.12364 0.0
C3593 C 0.23439 0.81519 0.11988 0.0
C3594 C 0.24785 0.81918 0.13648 0.0
C3595 C 0.26343 0.83439 0.13735 0.0
C3596 C 0.24637 0.80757 0.15307 0.0
C3597 C 0.21751 0.79889 0.11834 0.0
C3598 C 0.23191 0.80847 0.16531 0.0
C3599 C 0.23197 0.79931 0.1823 0.0
C3600 C 0.24655 0.78915 0.1873 0.0
C3601 C 0.26052 0.78758 0.17453 0.0
C3602 C 0.26048 0.79682 0.1576 0.0
H3603 H 0.21017 0.79578 0.10338 0.0
H3604 H 0.22217 0.78576 0.12289 0.0
H3605 H 0.20702 0.80256 0.1282 0.0
H3606 H 0.22103 0.81689 0.16213 0.0
H3607 H 0.22101 0.80078 0.19184 0.0
H3608 H 0.91901 0.56772 0.82648 0.0
H3609 H 0.93612 0.5809 0.85822 0.0
H3610 H 0.97752 0.54456 0.84998 0.0
H3611 H 0.96124 0.53213 0.81852 0.0
H3612 H 0.93914 0.5625 0.88789 0.0
H3613 H 0.01302 0.5899 0.87541 0.0
H3614 H 0.99395 0.58576 0.85583 0.0
H3615 H 0.00674 0.567 0.86181 0.0
C3616 C 0.93208 0.563 0.83128 0.0
C3617 C 0.93865 0.54875 0.82004 0.0
C3618 C 0.94186 0.57055 0.84939 0.0
C3619 C 0.9584 0.56406 0.85641 0.0
C3620 C 0.96528 0.55042 0.84475 0.0
H3621 H 0.9804 0.50919 0.94791 0.0
H3622 H 0.96903 0.52602 0.92166 0.0
C3623 C 0.95568 0.54302 0.82677 0.0
C3624 C 0.96676 0.5686 0.87692 0.0
H3625 H 0.00936 0.56982 0.90373 0.0
C3626 C 0.95453 0.56485 0.89147 0.0
C3627 C 0.98683 0.57246 0.88205 0.0
C3628 C 0.00079 0.57924 0.86788 0.0
C3629 C 0.96179 0.56202 0.91016 0.0
C3630 C 0.98163 0.56225 0.91408 0.0
C3631 C 0.99405 0.56885 0.90051 0.0
C3632 C 0.98906 0.55254 0.93033 0.0
C3633 C 0.94797 0.55759 0.92513 0.0
C3634 C 0.00494 0.56142 0.94331 0.0
C3635 C 0.01182 0.55157 0.95822 0.0
C3636 C 0.00288 0.53274 0.96028 0.0
C3637 C 0.98743 0.52377 0.94686 0.0
C3638 C 0.98074 0.53348 0.93198 0.0
H3639 H 0.93611 0.56567 0.92333 0.0
H3640 H 0.94149 0.54216 0.92312 0.0
H3641 H 0.95519 0.56114 0.9401 0.0
H3642 H 0.01181 0.576 0.94206 0.0
H3643 H 0.02373 0.55883 0.96843 0.0
H3644 H 0.22741 0.18637 0.54859 0.0
H3645 H 0.23397 0.20023 0.58219 0.0
H3646 H 0.27499 0.16377 0.59288 0.0
H3647 H 0.26881 0.15004 0.55903 0.0
H3648 H 0.2286 0.18226 0.61478 0.0
H3649 H 0.30512 0.21573 0.6152 0.0
H3650 H 0.2898 0.20717 0.59307 0.0
H3651 H 0.29993 0.1907 0.60713 0.0
C3652 C 0.23795 0.18136 0.55801 0.0
C3653 C 0.24762 0.1671 0.55109 0.0
C3654 C 0.24166 0.18931 0.57723 0.0
C3655 C 0.25512 0.18321 0.58998 0.0
C3656 C 0.26484 0.169 0.58318 0.0
H3657 H 0.28993 0.2069 0.71277 0.0
H3658 H 0.28402 0.19408 0.67877 0.0
C3659 C 0.26122 0.16109 0.56386 0.0
C3660 C 0.25831 0.19126 0.61056 0.0
H3661 H 0.29254 0.21514 0.64572 0.0
C3662 C 0.24256 0.18954 0.62152 0.0
C3663 C 0.27653 0.20078 0.61931 0.0
C3664 C 0.29379 0.2039 0.60805 0.0
C3665 C 0.2446 0.19681 0.64108 0.0
C3666 C 0.26283 0.20618 0.64983 0.0
C3667 C 0.27858 0.20793 0.63891 0.0
C3668 C 0.26595 0.21392 0.67045 0.0
C3669 C 0.22735 0.19408 0.65236 0.0
C3670 C 0.25775 0.22938 0.67699 0.0
C3671 C 0.26112 0.23681 0.69646 0.0
C3672 C 0.27276 0.22887 0.70967 0.0
C3673 C 0.28086 0.21333 0.70301 0.0
C3674 C 0.27755 0.20599 0.68358 0.0
H3675 H 0.2153 0.18333 0.64465 0.0
H3676 H 0.23109 0.1895 0.66686 0.0
H3677 H 0.22238 0.20785 0.65457 0.0
H3678 H 0.24894 0.23583 0.66698 0.0
H3679 H 0.25474 0.24882 0.70112 0.0
H3680 H 0.58385 0.52855 0.22629 0.0
H3681 H 0.57151 0.52078 0.1923 0.0
H3682 H 0.61154 0.48287 0.18509 0.0
H3683 H 0.62417 0.49063 0.21931 0.0
H3684 H 0.60986 0.50983 0.15622 0.0
H3685 H 0.53795 0.46987 0.16716 0.0
H3686 H 0.54477 0.49273 0.18109 0.0
H3687 H 0.5579 0.4741 0.1858 0.0
C3688 C 0.59003 0.51848 0.21757 0.0
C3689 C 0.605 0.51017 0.22556 0.0
C3690 C 0.58286 0.51399 0.19815 0.0
C3691 C 0.59044 0.50108 0.18631 0.0
C3692 C 0.60543 0.49278 0.1941 0.0
H3693 H 0.56766 0.46443 0.06313 0.0
H3694 H 0.58088 0.47028 0.09703 0.0
C3695 C 0.6126 0.49721 0.21363 0.0
C3696 C 0.58302 0.49686 0.16561 0.0
H3697 H 0.5424 0.47878 0.13544 0.0
C3698 C 0.59517 0.50288 0.15161 0.0
C3699 C 0.56382 0.48792 0.15976 0.0
C3700 C 0.55036 0.48062 0.1742 0.0
C3701 C 0.58846 0.50065 0.13185 0.0
C3702 C 0.5692 0.49183 0.12599 0.0
C3703 C 0.55712 0.48563 0.14 0.0
C3704 C 0.56135 0.48864 0.10535 0.0
C3705 C 0.60188 0.50825 0.11748 0.0
C3706 C 0.54568 0.4967 0.09887 0.0
C3707 C 0.53795 0.49327 0.07947 0.0
C3708 C 0.54572 0.48162 0.06628 0.0
C3709 C 0.5614 0.47357 0.07287 0.0
C3710 C 0.56907 0.47697 0.09224 0.0
H3711 H 0.61423 0.51901 0.12463 0.0
H3712 H 0.6076 0.49628 0.11047 0.0
H3713 H 0.59431 0.51486 0.10599 0.0
H3714 H 0.53946 0.50566 0.10883 0.0
H3715 H 0.52586 0.49964 0.07484 0.0
H3716 H 0.25595 0.82619 0.95421 0.0
H3717 H 0.24231 0.8074 0.92423 0.0
H3718 H 0.20455 0.84707 0.91338 0.0
H3719 H 0.21885 0.86667 0.94356 0.0
H3720 H 0.20736 0.78892 0.90777 0.0
H3721 H 0.2347 0.8506 0.86694 0.0
H3722 H 0.24088 0.85139 0.89268 0.0
H3723 H 0.21705 0.85318 0.88337 0.0
C3724 C 0.24464 0.83097 0.94562 0.0
C3725 C 0.23882 0.84822 0.95106 0.0
C3726 C 0.23668 0.82004 0.92849 0.0
C3727 C 0.22261 0.82594 0.91635 0.0
C3728 C 0.21567 0.84244 0.92235 0.0
H3729 H 0.21948 0.75264 0.80637 0.0
H3730 H 0.20383 0.76702 0.83247 0.0
C3731 C 0.22379 0.85357 0.93961 0.0
C3732 C 0.2175 0.81576 0.89666 0.0
H3733 H 0.2305 0.82015 0.85098 0.0
C3734 C 0.21176 0.79577 0.8951 0.0
C3735 C 0.22309 0.82476 0.88011 0.0
C3736 C 0.22934 0.84614 0.88071 0.0
C3737 C 0.21392 0.78443 0.87831 0.0
C3738 C 0.22159 0.79342 0.86265 0.0
C3739 C 0.22484 0.8134 0.86323 0.0
C3740 C 0.23032 0.78296 0.84771 0.0
C3741 C 0.20994 0.76299 0.87815 0.0
C3742 C 0.25032 0.78685 0.84798 0.0
C3743 C 0.25918 0.7788 0.83325 0.0
C3744 C 0.24823 0.76658 0.81797 0.0
C3745 C 0.22824 0.76182 0.81817 0.0
C3746 C 0.2193 0.77009 0.83295 0.0
H3747 H 0.2042 0.75823 0.89165 0.0
H3748 H 0.19939 0.75661 0.86564 0.0
H3749 H 0.22331 0.75742 0.87639 0.0
H3750 H 0.25908 0.79663 0.85936 0.0
H3751 H 0.2746 0.78269 0.83343 0.0
H3752 H 0.94 0.50613 0.71454 0.0
H3753 H 0.95453 0.51535 0.68552 0.0
H3754 H 0.92963 0.56602 0.68751 0.0
H3755 H 0.91502 0.55697 0.71693 0.0
H3756 H 0.9364 0.52269 0.64942 0.0
H3757 H 0.98818 0.58583 0.68617 0.0
H3758 H 0.97583 0.56761 0.69952 0.0
H3759 H 0.96322 0.58458 0.68924 0.0
C3760 C 0.9375 0.51922 0.70883 0.0
C3761 C 0.92644 0.53089 0.71813 0.0
C3762 C 0.94581 0.52444 0.69222 0.0
C3763 C 0.94335 0.54146 0.68457 0.0
C3764 C 0.93191 0.55296 0.69341 0.0
H3765 H 0.99485 0.5805 0.58141 0.0
H3766 H 0.9776 0.57996 0.61034 0.0
C3767 C 0.92348 0.5477 0.71011 0.0
C3768 C 0.95306 0.54692 0.66739 0.0
H3769 H 0.99103 0.5772 0.65334 0.0
C3770 C 0.94818 0.53475 0.65018 0.0
C3771 C 0.96841 0.56267 0.66851 0.0
C3772 C 0.97439 0.57593 0.68684 0.0
C3773 C 0.95865 0.53755 0.63421 0.0
C3774 C 0.97452 0.55277 0.63562 0.0
C3775 C 0.97891 0.56548 0.65247 0.0
C3776 C 0.98714 0.55492 0.61995 0.0
C3777 C 0.95294 0.52399 0.61603 0.0
C3778 C 0.9988 0.54148 0.61636 0.0
C3779 C 0.00872 0.54175 0.59994 0.0
C3780 C 0.00705 0.55545 0.58682 0.0
C3781 C 0.99635 0.56969 0.59119 0.0
C3782 C 0.98648 0.56943 0.60768 0.0
H3783 H 0.93819 0.51562 0.61578 0.0
H3784 H 0.95378 0.5319 0.60293 0.0
H3785 H 0.96297 0.51383 0.61526 0.0
H3786 H 0.99957 0.53028 0.62585 0.0
H3787 H 0.01687 0.53062 0.59703 0.0
H3788 H 0.28463 0.16247 0.45252 0.0
H3789 H 0.29647 0.18068 0.42601 0.0
H3790 H 0.24152 0.19717 0.41558 0.0
H3791 H 0.22987 0.17964 0.44187 0.0
H3792 H 0.28428 0.17741 0.38747 0.0
H3793 H 0.2769 0.24822 0.41938 0.0
H3794 H 0.27631 0.22807 0.43354 0.0
H3795 H 0.25485 0.23179 0.41986 0.0
C3796 C 0.27516 0.17007 0.44459 0.0
C3797 C 0.25638 0.16978 0.44948 0.0
C3798 C 0.28194 0.18049 0.42951 0.0
C3799 C 0.27006 0.19077 0.41921 0.0
C3800 C 0.2512 0.18995 0.42376 0.0
H3801 H 0.24694 0.21332 0.30665 0.0
H3802 H 0.25606 0.20057 0.33658 0.0
C3803 C 0.24449 0.17975 0.43876 0.0
C3804 C 0.27656 0.20172 0.403 0.0
H3805 H 0.2726 0.24342 0.38389 0.0
C3806 C 0.28224 0.19202 0.38683 0.0
C3807 C 0.27461 0.22101 0.40232 0.0
C3808 C 0.27056 0.23291 0.41983 0.0
C3809 C 0.28401 0.20047 0.36936 0.0
C3810 C 0.27936 0.21879 0.36793 0.0
C3811 C 0.27572 0.22919 0.38472 0.0
C3812 C 0.27562 0.22633 0.34894 0.0
C3813 C 0.29031 0.1894 0.35251 0.0
C3814 C 0.28303 0.24537 0.34599 0.0
C3815 C 0.27738 0.25294 0.32892 0.0
C3816 C 0.26427 0.24157 0.31451 0.0
C3817 C 0.25718 0.22246 0.31738 0.0
C3818 C 0.26262 0.21502 0.33444 0.0
H3819 H 0.30085 0.18074 0.35768 0.0
H3820 H 0.27775 0.17933 0.34482 0.0
H3821 H 0.29685 0.19895 0.34209 0.0
H3822 H 0.29292 0.25446 0.35704 0.0
H3823 H 0.28312 0.2677 0.3271 0.0
H3824 H 0.31198 0.60411 0.47776 0.0
H3825 H 0.33626 0.58457 0.47245 0.0
H3826 H 0.36063 0.59958 0.53176 0.0
H3827 H 0.33643 0.61912 0.53724 0.0
H3828 H 0.37645 0.59791 0.47715 0.0
H3829 H 0.35482 0.54076 0.52456 0.0
H3830 H 0.33894 0.55617 0.5163 0.0
H3831 H 0.35703 0.56447 0.53629 0.0
C3832 C 0.3224 0.60313 0.48974 0.0
C3833 C 0.32226 0.61318 0.50794 0.0
C3834 C 0.33625 0.59195 0.48666 0.0
C3835 C 0.35006 0.59042 0.50178 0.0
C3836 C 0.34986 0.60028 0.52 0.0
H3837 H 0.4628 0.57077 0.51168 0.0
H3838 H 0.43267 0.58228 0.50827 0.0
C3839 C 0.3361 0.61155 0.52307 0.0
C3840 C 0.36545 0.57955 0.49827 0.0
H3841 H 0.38658 0.54387 0.5148 0.0
C3842 C 0.3785 0.5859 0.48515 0.0
C3843 C 0.36796 0.56373 0.50853 0.0
C3844 C 0.35385 0.55573 0.52208 0.0
C3845 C 0.39461 0.57754 0.48284 0.0
C3846 C 0.39775 0.56253 0.49402 0.0
C3847 C 0.38415 0.55545 0.50632 0.0
C3848 C 0.41603 0.55546 0.49471 0.0
C3849 C 0.40843 0.58514 0.46885 0.0
C3850 C 0.41663 0.53648 0.48827 0.0
C3851 C 0.43396 0.52982 0.49011 0.0
C3852 C 0.4508 0.54199 0.49876 0.0
C3853 C 0.45008 0.56101 0.505 0.0
C3854 C 0.43289 0.56767 0.50297 0.0
H3855 H 0.40157 0.59282 0.45778 0.0
H3856 H 0.42066 0.59534 0.47697 0.0
H3857 H 0.41418 0.57341 0.46139 0.0
H3858 H 0.40368 0.52683 0.48198 0.0
H3859 H 0.43407 0.51508 0.48526 0.0
H3860 H 0.79184 0.93321 0.5425 0.0
H3861 H 0.82068 0.95798 0.54272 0.0
H3862 H 0.85592 0.91789 0.55993 0.0
H3863 H 0.82751 0.89347 0.56016 0.0
H3864 H 0.86921 0.95417 0.57822 0.0
H3865 H 0.85444 0.95518 0.49835 0.0
H3866 H 0.83658 0.96119 0.51321 0.0
H3867 H 0.8412 0.93728 0.51137 0.0
C3868 C 0.80573 0.92985 0.5467 0.0
C3869 C 0.8074 0.91129 0.55102 0.0
C3870 C 0.82219 0.94396 0.54669 0.0
C3871 C 0.84047 0.93966 0.55099 0.0
C3872 C 0.84199 0.92153 0.5565 0.0
H3873 H 0.94785 0.95791 0.51229 0.0
H3874 H 0.91463 0.95036 0.51923 0.0
C3875 C 0.82569 0.90752 0.55651 0.0
C3876 C 0.85827 0.95306 0.54827 0.0
H3877 H 0.88479 0.97008 0.51269 0.0
C3878 C 0.87254 0.95807 0.56399 0.0
C3879 C 0.86256 0.958 0.52964 0.0
C3880 C 0.848 0.95259 0.5121 0.0
C3881 C 0.89132 0.9667 0.56136 0.0
C3882 C 0.89582 0.97073 0.54254 0.0
C3883 C 0.88125 0.96694 0.52708 0.0
C3884 C 0.9159 0.97624 0.53806 0.0
C3885 C 0.90648 0.97012 0.57844 0.0
C3886 C 0.92767 0.99342 0.54623 0.0
C3887 C 0.94684 0.99775 0.54238 0.0
C3888 C 0.95448 0.98501 0.53019 0.0
C3889 C 0.94249 0.96803 0.52176 0.0
C3890 C 0.92344 0.96371 0.52566 0.0
H3891 H 0.9012 0.96347 0.59132 0.0
H3892 H 0.91926 0.96434 0.57465 0.0
H3893 H 0.91103 0.98571 0.58245 0.0
H3894 H 0.92205 0.00343 0.5556 0.0
H3895 H 0.95567 0.01101 0.54898 0.0
H3896 H 0.83987 0.04753 0.28373 0.0
H3897 H 0.82243 0.07406 0.28443 0.0
H3898 H 0.85475 0.09848 0.24 0.0
H3899 H 0.8721 0.07198 0.23903 0.0
H3900 H 0.83687 0.1131 0.29263 0.0
H3901 H 0.79943 0.09758 0.21839 0.0
H3902 H 0.81075 0.08036 0.23029 0.0
H3903 H 0.82486 0.09906 0.21903 0.0
C3904 C 0.84322 0.05849 0.27403 0.0
C3905 C 0.85734 0.05756 0.26125 0.0
C3906 C 0.83323 0.07365 0.27447 0.0
C3907 C 0.83705 0.08808 0.26204 0.0
C3908 C 0.85125 0.08728 0.24941 0.0
H3909 H 0.81153 0.19676 0.24168 0.0
H3910 H 0.82149 0.16595 0.24207 0.0
C3911 C 0.86126 0.07217 0.24897 0.0
C3912 C 0.8267 0.10435 0.26267 0.0
H3913 H 0.79985 0.12859 0.23428 0.0
C3914 C 0.82854 0.11637 0.27997 0.0
C3915 C 0.81577 0.10852 0.24615 0.0
C3916 C 0.81239 0.0956 0.22746 0.0
C3917 C 0.82055 0.13297 0.28091 0.0
C3918 C 0.81019 0.13748 0.26419 0.0
C3919 C 0.80781 0.12512 0.24708 0.0
C3920 C 0.80312 0.15575 0.26365 0.0
C3921 C 0.82402 0.14601 0.29952 0.0
C3922 C 0.78914 0.16015 0.2754 0.0
C3923 C 0.78335 0.17788 0.27522 0.0
C3924 C 0.79148 0.19146 0.26329 0.0
C3925 C 0.80506 0.18672 0.25117 0.0
C3926 C 0.81076 0.16907 0.25132 0.0
H3927 H 0.8352 0.1423 0.30989 0.0
H3928 H 0.82846 0.16112 0.29656 0.0
H3929 H 0.81054 0.14484 0.30655 0.0
H3930 H 0.78282 0.14994 0.28479 0.0
H3931 H 0.77283 0.18108 0.28467 0.0
H3932 H 0.74501 0.1034 0.00931 0.0
H3933 H 0.71252 0.08455 0.00134 0.0
H3934 H 0.69213 0.119 0.04575 0.0
H3935 H 0.72429 0.13815 0.05338 0.0
H3936 H 0.68292 0.06384 0.02145 0.0
H3937 H 0.66426 0.12997 0.99478 0.0
H3938 H 0.68867 0.1274 0.00095 0.0
H3939 H 0.6741 0.13284 0.01969 0.0
C3940 C 0.73368 0.10662 0.01768 0.0
C3941 C 0.73705 0.12243 0.03171 0.0
C3942 C 0.71515 0.09586 0.01312 0.0
C3943 C 0.6999 0.10071 0.02267 0.0
C3944 C 0.70365 0.11531 0.03794 0.0
H3945 H 0.5791 0.04677 0.00878 0.0
H3946 H 0.61305 0.05687 0.0207 0.0
C3947 C 0.72203 0.1262 0.0423 0.0
C3948 C 0.67985 0.0922 0.01526 0.0
H3949 H 0.63873 0.104 0.99525 0.0
C3950 C 0.67322 0.07255 0.01568 0.0
C3951 C 0.66736 0.10359 0.00742 0.0
C3952 C 0.67396 0.12458 0.00547 0.0
C3953 C 0.65424 0.06404 0.00874 0.0
C3954 C 0.64162 0.07559 0.00149 0.0
C3955 C 0.64839 0.09518 0.00092 0.0
C3956 C 0.6214 0.06784 0.99397 0.0
C3957 C 0.648 0.04275 0.00886 0.0
C3958 C 0.61477 0.07087 0.9751 0.0
C3959 C 0.59539 0.06545 0.9684 0.0
C3960 C 0.58223 0.05681 0.98042 0.0
C3961 C 0.58893 0.05334 -0.00083 0.0
C3962 C 0.60834 0.05895 0.00594 0.0
H3963 H 0.66045 0.0354 0.00986 0.0
H3964 H 0.64005 0.03983 0.02164 0.0
H3965 H 0.63837 0.03656 0.99562 0.0
H3966 H 0.62458 0.07776 0.96564 0.0
H3967 H 0.59073 0.0682 0.95384 0.0
H3968 H 0.19207 0.48211 0.29009 0.0
H3969 H 0.21082 0.45669 0.29236 0.0
H3970 H 0.17838 0.42631 0.24049 0.0
H3971 H 0.15981 0.45164 0.23795 0.0
H3972 H 0.19707 0.41901 0.29654 0.0
H3973 H 0.23299 0.42446 0.22944 0.0
H3974 H 0.22185 0.44325 0.23953 0.0
H3975 H 0.20762 0.42296 0.22475 0.0
C3976 C 0.18908 0.47012 0.27904 0.0
C3977 C 0.17445 0.46893 0.26382 0.0
C3978 C 0.19982 0.45563 0.28036 0.0
C3979 C 0.19624 0.43978 0.26641 0.0
C3980 C 0.18174 0.43864 0.25114 0.0
H3981 H 0.20646 0.32617 0.24569 0.0
H3982 H 0.20245 0.3593 0.24621 0.0
C3983 C 0.17102 0.45308 0.24981 0.0
C3984 C 0.20651 0.42365 0.26845 0.0
H3985 H 0.23006 0.39406 0.24295 0.0
C3986 C 0.20469 0.41378 0.28504 0.0
C3987 C 0.21654 0.41694 0.25349 0.0
C3988 C 0.22005 0.42759 0.2359 0.0
C3989 C 0.21142 0.3966 0.28643 0.0
C3990 C 0.22036 0.38927 0.2709 0.0
C3991 C 0.22315 0.39971 0.25482 0.0
C3992 C 0.22446 0.36968 0.26992 0.0
C3993 C 0.20784 0.38578 0.3039 0.0
C3994 C 0.23852 0.3646 0.28284 0.0
C3995 C 0.24092 0.34554 0.28256 0.0
C3996 C 0.22918 0.33136 0.26943 0.0
C3997 C 0.21561 0.33671 0.25611 0.0
C3998 C 0.21334 0.35566 0.25632 0.0
H3999 H 0.19881 0.39239 0.31366 0.0
H4000 H 0.20069 0.37078 0.29929 0.0
H4001 H 0.22172 0.38545 0.31227 0.0
H4002 H 0.24737 0.37529 0.29333 0.0
H4003 H 0.2515 0.34184 0.29297 0.0
H4004 H 0.22918 0.43874 0.0029 0.0
H4005 H 0.20292 0.45652 0.00066 0.0
H4006 H 0.17562 0.42395 0.04349 0.0
H4007 H 0.2019 0.4063 0.04603 0.0
H4008 H 0.16443 0.443 0.99002 0.0
H4009 H 0.17543 0.47855 0.06483 0.0
H4010 H 0.19331 0.46717 0.05437 0.0
H4011 H 0.17344 0.45313 0.06411 0.0
C4012 C 0.21765 0.43542 0.01195 0.0
C4013 C 0.21771 0.42113 0.02472 0.0
C4014 C 0.20265 0.44561 0.01063 0.0
C4015 C 0.18746 0.44181 0.02214 0.0
C4016 C 0.18741 0.42746 0.0348 0.0
H4017 H 0.07685 0.46594 0.03417 0.0
H4018 H 0.10789 0.45625 0.03575 0.0
C4019 C 0.2024 0.41728 0.03614 0.0
C4020 C 0.17126 0.45228 0.02042 0.0
H4021 H 0.14516 0.47841 0.04695 0.0
C4022 C 0.16037 0.45099 0.00238 0.0
C4023 C 0.16604 0.46281 0.03654 0.0
C4024 C 0.17778 0.46569 0.05601 0.0
C4025 C 0.14384 0.4591 0.00029 0.0
C4026 C 0.13821 0.46896 0.0166 0.0
C4027 C 0.14948 0.47083 0.03446 0.0
C4028 C 0.11975 0.47585 0.0159 0.0
C4029 C 0.132 0.45627 0.98087 0.0
C4030 C 0.11616 0.49039 0.00443 0.0
C4031 C 0.09828 0.49606 0.0035 0.0
C4032 C 0.08374 0.48721 0.01399 0.0
C4033 C 0.08763 0.47299 0.02577 0.0
C4034 C 0.10543 0.46744 0.02676 0.0
H4035 H 0.1366 0.4457 0.9706 0.0
H4036 H 0.11662 0.4514 0.98259 0.0
H4037 H 0.13348 0.47008 0.9744 0.0
H4038 H 0.12713 0.49727 0.99614 0.0
H4039 H 0.09574 0.50708 0.99433 0.0
H4040 H 0.86789 0.94888 0.20591 0.0
H4041 H 0.84339 0.91998 0.20419 0.0
H4042 H 0.82054 0.9435 0.2542 0.0
H4043 H 0.8444 0.97289 0.25517 0.0
H4044 H 0.8443 0.89774 0.23098 0.0
H4045 H 0.7719 0.91523 0.22515 0.0
H4046 H 0.79271 0.93184 0.2201 0.0
H4047 H 0.78695 0.9299 0.24466 0.0
C4048 C 0.85712 0.94815 0.21602 0.0
C4049 C 0.85797 0.96302 0.23067 0.0
C4050 C 0.84315 0.93162 0.21508 0.0
C4051 C 0.83006 0.92947 0.22906 0.0
C4052 C 0.83013 0.9449 0.24295 0.0
H4053 H 0.79726 0.82699 0.28167 0.0
H4054 H 0.80958 0.85874 0.27256 0.0
C4055 C 0.84384 0.96169 0.24358 0.0
C4056 C 0.81892 0.91019 0.23115 0.0
H4057 H 0.77498 0.8858 0.23929 0.0
C4058 C 0.82906 0.89514 0.23241 0.0
C4059 C 0.799 0.90661 0.23293 0.0
C4060 C 0.78699 0.92174 0.23043 0.0
C4061 C 0.82008 0.87691 0.23611 0.0
C4062 C 0.80052 0.87371 0.23927 0.0
C4063 C 0.79007 0.88841 0.23718 0.0
C4064 C 0.79116 0.85537 0.24566 0.0
C4065 C 0.83175 0.86128 0.2368 0.0
C4066 C 0.77606 0.84329 0.23396 0.0
C4067 C 0.76882 0.82509 0.23923 0.0
C4068 C 0.77663 0.81876 0.25624 0.0
C4069 C 0.79111 0.83131 0.26833 0.0
C4070 C 0.79819 0.84946 0.26315 0.0
H4071 H 0.8444 0.86432 0.2285 0.0
H4072 H 0.83705 0.86026 0.25207 0.0
H4073 H 0.823 0.84723 0.23087 0.0
H4074 H 0.77039 0.84767 0.22044 0.0
H4075 H 0.7576 0.81576 0.22966 0.0
H4076 H 0.69203 0.04074 0.74002 0.0
H4077 H 0.71753 0.06909 0.74772 0.0
H4078 H 0.67853 0.10461 0.72749 0.0
H4079 H 0.65348 0.07668 0.71924 0.0
H4080 H 0.71387 0.11606 0.71673 0.0
H4081 H 0.71787 0.10558 0.79539 0.0
H4082 H 0.7233 0.08684 0.77928 0.0
H4083 H 0.69937 0.09158 0.7781 0.0
C4084 C 0.68903 0.05458 0.73697 0.0
C4085 C 0.67064 0.05647 0.72925 0.0
C4086 C 0.70356 0.07076 0.74149 0.0
C4087 C 0.69982 0.089 0.73852 0.0
C4088 C 0.68177 0.0907 0.72994 0.0
H4089 H 0.72369 0.198 0.79538 0.0
H4090 H 0.71501 0.16433 0.7833 0.0
C4091 C 0.66738 0.07466 0.72532 0.0
C4092 C 0.71384 0.10671 0.74535 0.0
H4093 H 0.73333 0.13483 0.78673 0.0
C4094 C 0.71849 0.1201 0.732 0.0
C4095 C 0.71976 0.11189 0.7653 0.0
C4096 C 0.71477 0.09833 0.78043 0.0
C4097 C 0.72752 0.13898 0.73815 0.0
C4098 C 0.73261 0.14441 0.75819 0.0
C4099 C 0.72933 0.13061 0.77139 0.0
C4100 C 0.73886 0.16469 0.766 0.0
C4101 C 0.73015 0.15323 0.72326 0.0
C4102 C 0.75528 0.17609 0.76045 0.0
C4103 C 0.76008 0.1955 0.76709 0.0
C4104 C 0.74875 0.2037 0.77969 0.0
C4105 C 0.73269 0.19212 0.78568 0.0
C4106 C 0.72776 0.17284 0.77884 0.0
H4107 H 0.72199 0.14753 0.70904 0.0
H4108 H 0.72547 0.16662 0.72829 0.0
H4109 H 0.74553 0.1568 0.72101 0.0
H4110 H 0.7643 0.17002 0.75092 0.0
H4111 H 0.77269 0.20406 0.76243 0.0
loop_
_geom_bond_atom_site_label_1
_geom_bond_atom_site_label_2
_geom_bond_distance
_geom_bond_site_symmetry_2
_ccdc_geom_bond_type
Zn0 O3 2.031 1_655 S
Zn0 O5 2.049 . S
Zn0 O10 2.067 . S
Zn1 O2 1.962 . S
Zn1 O4 1.986 . S
Zn1 O6 1.996 . S
Zn1 O9 1.943 . S
O2 Zn1 1.962 . S
O2 C7 1.254 . S
O3 Zn0 2.031 1_455 S
O3 C7 1.269 . S
O4 Zn1 1.986 . S
O4 C11 1.262 . S
O5 Zn0 2.049 . S
O5 C13 1.260 1_655 S
O6 Zn1 1.996 . S
O6 C13 1.257 . S
C7 O2 1.254 . S
C7 O3 1.269 . S
C8 O9 1.249 1_655 S
C8 O10 1.270 . S
O9 Zn1 1.943 . S
O9 C8 1.249 1_455 S
O10 Zn0 2.067 . S
O10 C8 1.270 . S
C11 O4 1.262 . S
C11 O12 1.232 . S
O12 C11 1.232 . S
C13 O5 1.260 1_455 S
C13 O6 1.257 . S
Zn14 O17 2.031 1_455 S
Zn14 O19 2.049 . S
Zn14 O24 2.067 . S
Zn15 O16 1.962 1_455 S
Zn15 O18 1.986 . S
Zn15 O20 1.996 . S
Zn15 O23 1.943 . S
O16 Zn15 1.962 1_655 S
O16 C21 1.254 . S
O17 Zn14 2.031 1_655 S
O17 C21 1.269 . S
O18 Zn15 1.986 . S
O18 C25 1.262 . S
O19 Zn14 2.049 . S
O19 C27 1.260 . S
O20 Zn15 1.996 . S
O20 C27 1.257 . S
C21 O16 1.254 . S
C21 O17 1.269 . S
C22 O23 1.249 . S
C22 O24 1.270 . S
O23 Zn15 1.943 . S
O23 C22 1.249 . S
O24 Zn14 2.067 . S
O24 C22 1.270 . S
C25 O18 1.262 . S
C25 O26 1.232 1_455 S
O26 C25 1.232 1_655 S
C27 O19 1.260 . S
C27 O20 1.257 . S
Zn28 O31 2.031 . S
Zn28 O33 2.049 . S
Zn28 O38 2.067 . S
Zn29 O30 1.962 . S
Zn29 O32 1.986 . S
Zn29 O34 1.996 . S
Zn29 O37 1.943 . S
O30 Zn29 1.962 . S
O30 C35 1.254 . S
O31 Zn28 2.031 . S
O31 C35 1.269 . S
O32 Zn29 1.986 . S
O32 C39 1.262 . S
O33 Zn28 2.049 . S
O33 C41 1.260 . S
O34 Zn29 1.996 . S
O34 C41 1.257 . S
C35 O30 1.254 . S
C35 O31 1.269 . S
C36 O37 1.249 . S
C36 O38 1.270 . S
O37 Zn29 1.943 . S
O37 C36 1.249 . S
O38 Zn28 2.067 . S
O38 C36 1.270 . S
C39 O32 1.262 . S
C39 O40 1.232 . S
O40 C39 1.232 . S
C41 O33 1.260 . S
C41 O34 1.257 . S
Zn42 O45 2.031 . S
Zn42 O47 2.049 . S
Zn42 O52 2.067 . S
Zn43 O44 1.962 . S
Zn43 O46 1.986 . S
Zn43 O48 1.996 . S
Zn43 O51 1.943 . S
O44 Zn43 1.962 . S
O44 C49 1.254 . S
O45 Zn42 2.031 . S
O45 C49 1.269 . S
O46 Zn43 1.986 . S
O46 C53 1.262 . S
O47 Zn42 2.049 . S
O47 C55 1.260 . S
O48 Zn43 1.996 . S
O48 C55 1.257 . S
C49 O44 1.254 . S
C49 O45 1.269 . S
C50 O51 1.249 . S
C50 O52 1.270 . S
O51 Zn43 1.943 . S
O51 C50 1.249 . S
O52 Zn42 2.067 . S
O52 C50 1.270 . S
C53 O46 1.262 . S
C53 O54 1.232 . S
O54 C53 1.232 . S
C55 O47 1.260 . S
C55 O48 1.257 . S
Zn56 O59 2.031 . S
Zn56 O61 2.049 . S
Zn56 O66 2.067 . S
Zn57 O58 1.962 . S
Zn57 O60 1.986 1_455 S
Zn57 O62 1.996 . S
Zn57 O65 1.943 . S
O58 Zn57 1.962 . S
O58 C63 1.254 . S
O59 Zn56 2.031 . S
O59 C63 1.269 . S
O60 Zn57 1.986 1_655 S
O60 C67 1.262 . S
O61 Zn56 2.049 . S
O61 C69 1.260 . S
O62 Zn57 1.996 . S
O62 C69 1.257 . S
C63 O58 1.254 . S
C63 O59 1.269 . S
C64 O65 1.249 . S
C64 O66 1.270 . S
O65 Zn57 1.943 . S
O65 C64 1.249 . S
O66 Zn56 2.067 . S
O66 C64 1.270 . S
C67 O60 1.262 . S
C67 O68 1.234 . S
O68 C67 1.234 . S
C69 O61 1.260 . S
C69 O62 1.257 . S
Zn70 O73 2.031 . S
Zn70 O75 2.049 . S
Zn70 O80 2.067 . S
Zn71 O72 1.962 . S
Zn71 O74 1.986 . S
Zn71 O76 1.996 . S
Zn71 O79 1.943 . S
O72 Zn71 1.962 . S
O72 C77 1.254 . S
O73 Zn70 2.031 . S
O73 C77 1.269 . S
O74 Zn71 1.986 . S
O74 C81 1.262 . S
O75 Zn70 2.049 . S
O75 C83 1.260 . S
O76 Zn71 1.996 . S
O76 C83 1.257 . S
C77 O72 1.254 . S
C77 O73 1.269 . S
C78 O79 1.249 . S
C78 O80 1.270 . S
O79 Zn71 1.943 . S
O79 C78 1.249 . S
O80 Zn70 2.067 . S
O80 C78 1.270 . S
C81 O74 1.262 . S
C81 O82 1.232 . S
O82 C81 1.232 . S
C83 O75 1.260 . S
C83 O76 1.257 . S
Zn84 O87 2.031 . S
Zn84 O89 2.049 . S
Zn84 O94 2.067 . S
Zn85 O86 1.962 . S
Zn85 O88 1.986 . S
Zn85 O90 1.996 . S
Zn85 O93 1.943 . S
O86 Zn85 1.962 . S
O86 C91 1.254 . S
O87 Zn84 2.031 . S
O87 C91 1.269 . S
O88 Zn85 1.986 . S
O88 C95 1.262 . S
O89 Zn84 2.049 . S
O89 C97 1.260 . S
O90 Zn85 1.996 . S
O90 C97 1.257 . S
C91 O86 1.254 . S
C91 O87 1.269 . S
C92 O93 1.249 . S
C92 O94 1.270 . S
O93 Zn85 1.943 . S
O93 C92 1.249 . S
O94 Zn84 2.067 . S
O94 C92 1.270 . S
C95 O88 1.262 . S
C95 O96 1.232 . S
O96 C95 1.232 . S
C97 O89 1.260 . S
C97 O90 1.257 . S
Zn98 O101 2.031 . S
Zn98 O103 2.049 . S
Zn98 O108 2.067 . S
Zn99 O100 1.962 . S
Zn99 O102 1.986 . S
Zn99 O104 1.996 . S
Zn99 O107 1.943 1_455 S
O100 Zn99 1.962 . S
O100 C105 1.254 . S
O101 Zn98 2.031 . S
O101 C105 1.269 1_655 S
O102 Zn99 1.986 . S
O102 C109 1.262 . S
O103 Zn98 2.049 . S
O103 C111 1.260 . S
O104 Zn99 1.996 . S
O104 C111 1.257 1_455 S
C105 O100 1.254 . S
C105 O101 1.269 1_455 S
C106 O107 1.249 . S
C106 O108 1.270 . S
O107 Zn99 1.943 1_655 S
O107 C106 1.249 . S
O108 Zn98 2.067 . S
O108 C106 1.270 . S
C109 O102 1.262 . S
C109 O110 1.232 . S
O110 C109 1.232 . S
C111 O103 1.260 . S
C111 O104 1.257 1_655 S
Zn112 O115 2.025 1_565 S
Zn112 O117 2.043 1_565 S
Zn112 O122 2.074 . S
Zn113 O114 1.962 . S
Zn113 O116 1.986 . S
Zn113 O118 1.996 . S
Zn113 O121 1.943 . S
O114 Zn113 1.962 . S
O114 C119 1.254 . S
O115 Zn112 2.025 1_545 S
O115 C119 1.269 . S
O116 Zn113 1.986 . S
O116 C123 1.262 . S
O117 Zn112 2.043 1_545 S
O117 C125 1.260 . S
O118 Zn113 1.996 . S
O118 C125 1.257 . S
C119 O114 1.254 . S
C119 O115 1.269 . S
C120 O121 1.249 1_565 S
C120 O122 1.270 . S
O121 Zn113 1.943 . S
O121 C120 1.249 1_545 S
O122 Zn112 2.074 . S
O122 C120 1.270 . S
C123 O116 1.262 . S
C123 O124 1.232 . S
O124 C123 1.232 . S
C125 O117 1.260 . S
C125 O118 1.257 . S
Zn126 O129 2.031 . S
Zn126 O131 2.049 . S
Zn126 O136 2.067 . S
Zn127 O128 1.962 . S
Zn127 O130 1.986 . S
Zn127 O132 1.996 . S
Zn127 O135 1.943 . S
O128 Zn127 1.962 . S
O128 C133 1.254 . S
O129 Zn126 2.031 . S
O129 C133 1.269 . S
O130 Zn127 1.986 . S
O130 C137 1.262 . S
O131 Zn126 2.049 . S
O131 C139 1.260 . S
O132 Zn127 1.996 . S
O132 C139 1.257 . S
C133 O128 1.254 . S
C133 O129 1.269 . S
C134 O135 1.249 . S
C134 O136 1.270 . S
O135 Zn127 1.943 . S
O135 C134 1.249 . S
O136 Zn126 2.067 . S
O136 C134 1.270 . S
C137 O130 1.262 . S
C137 O138 1.232 . S
O138 C137 1.232 . S
C139 O131 1.260 . S
C139 O132 1.257 . S
Zn140 O143 2.031 . S
Zn140 O145 2.049 . S
Zn140 O150 2.067 . S
Zn141 O142 1.965 . S
Zn141 O144 2.022 . S
Zn141 O146 1.983 1_565 S
Zn141 O149 1.910 1_565 S
O142 Zn141 1.965 . S
O142 C147 1.254 1_565 S
O143 Zn140 2.031 . S
O143 C147 1.269 . S
O144 Zn141 2.022 . S
O144 C151 1.262 . S
O145 Zn140 2.049 . S
O145 C153 1.260 . S
O146 Zn141 1.983 1_545 S
O146 C153 1.257 . S
C147 O142 1.254 1_545 S
C147 O143 1.269 . S
C148 O149 1.249 . S
C148 O150 1.270 . S
O149 Zn141 1.910 1_545 S
O149 C148 1.249 . S
O150 Zn140 2.067 . S
O150 C148 1.270 . S
C151 O144 1.262 . S
C151 O152 1.232 . S
O152 C151 1.232 . S
C153 O145 1.260 . S
C153 O146 1.257 . S
Zn154 O157 2.031 1_554 S
Zn154 O159 2.049 . S
Zn154 O164 2.067 . S
Zn155 O156 1.962 1_554 S
Zn155 O158 1.986 . S
Zn155 O160 1.996 . S
Zn155 O163 1.943 . S
O156 Zn155 1.962 1_556 S
O156 C161 1.254 . S
O157 Zn154 2.031 1_556 S
O157 C161 1.269 . S
O158 Zn155 1.986 . S
O158 C165 1.262 . S
O159 Zn154 2.049 . S
O159 C167 1.260 . S
O160 Zn155 1.996 . S
O160 C167 1.257 . S
C161 O156 1.254 . S
C161 O157 1.269 . S
C162 O163 1.249 . S
C162 O164 1.270 . S
O163 Zn155 1.943 . S
O163 C162 1.249 . S
O164 Zn154 2.067 . S
O164 C162 1.270 . S
C165 O158 1.262 . S
C165 O166 1.232 . S
O166 C165 1.232 . S
C167 O159 1.260 . S
C167 O160 1.257 . S
Zn168 O171 2.031 . S
Zn168 O173 2.049 . S
Zn168 O178 2.067 . S
Zn169 O170 1.962 . S
Zn169 O172 1.986 . S
Zn169 O174 1.996 . S
Zn169 O177 1.943 . S
O170 Zn169 1.962 . S
O170 C175 1.254 . S
O171 Zn168 2.031 . S
O171 C175 1.269 . S
O172 Zn169 1.986 . S
O172 C179 1.262 . S
O173 Zn168 2.049 . S
O173 C181 1.260 . S
O174 Zn169 1.996 . S
O174 C181 1.257 . S
C175 O170 1.254 . S
C175 O171 1.269 . S
C176 O177 1.249 . S
C176 O178 1.270 . S
O177 Zn169 1.943 . S
O177 C176 1.249 . S
O178 Zn168 2.067 . S
O178 C176 1.270 . S
C179 O172 1.262 . S
C179 O180 1.232 . S
O180 C179 1.232 . S
C181 O173 1.260 . S
C181 O174 1.257 . S
Zn182 O185 1.988 1_554 S
Zn182 O187 2.049 . S
Zn182 O192 2.067 . S
Zn183 O184 1.981 . S
Zn183 O186 1.986 . S
Zn183 O188 1.996 . S
Zn183 O191 1.943 . S
O184 Zn183 1.981 . S
O184 C189 1.245 1_554 S
O185 Zn182 1.988 1_556 S
O185 C189 1.292 . S
O186 Zn183 1.986 . S
O186 C193 1.262 . S
O187 Zn182 2.049 . S
O187 C195 1.260 . S
O188 Zn183 1.996 . S
O188 C195 1.257 . S
C189 O184 1.245 1_556 S
C189 O185 1.292 . S
C190 O191 1.249 . S
C190 O192 1.270 . S
O191 Zn183 1.943 . S
O191 C190 1.249 . S
O192 Zn182 2.067 . S
O192 C190 1.270 . S
C193 O186 1.262 . S
C193 O194 1.232 . S
O194 C193 1.232 . S
C195 O187 1.260 . S
C195 O188 1.257 . S
Zn196 O199 2.031 . S
Zn196 O201 2.049 . S
Zn196 O206 2.067 . S
Zn197 O198 1.962 . S
Zn197 O200 1.986 . S
Zn197 O202 1.996 . S
Zn197 O205 1.943 . S
O198 Zn197 1.962 . S
O198 C203 1.254 . S
O199 Zn196 2.031 . S
O199 C203 1.269 . S
O200 Zn197 1.986 . S
O200 C207 1.262 . S
O201 Zn196 2.049 . S
O201 C209 1.260 . S
O202 Zn197 1.996 . S
O202 C209 1.257 . S
C203 O198 1.254 . S
C203 O199 1.269 . S
C204 O205 1.249 . S
C204 O206 1.270 . S
O205 Zn197 1.943 . S
O205 C204 1.249 . S
O206 Zn196 2.067 . S
O206 C204 1.270 . S
C207 O200 1.262 . S
C207 O208 1.232 . S
O208 C207 1.232 . S
C209 O201 1.260 . S
C209 O202 1.257 . S
Zn210 O213 2.031 . S
Zn210 O215 2.049 . S
Zn210 O220 2.067 . S
Zn211 O212 1.962 . S
Zn211 O214 1.986 . S
Zn211 O216 1.996 . S
Zn211 O219 1.943 . S
O212 Zn211 1.962 . S
O212 C217 1.254 . S
O213 Zn210 2.031 . S
O213 C217 1.269 . S
O214 Zn211 1.986 . S
O214 C221 1.262 . S
O215 Zn210 2.049 . S
O215 C223 1.260 . S
O216 Zn211 1.996 . S
O216 C223 1.257 . S
C217 O212 1.254 . S
C217 O213 1.269 . S
C218 O219 1.249 . S
C218 O220 1.270 . S
O219 Zn211 1.943 . S
O219 C218 1.249 . S
O220 Zn210 2.067 . S
O220 C218 1.270 . S
C221 O214 1.262 . S
C221 O222 1.232 . S
O222 C221 1.232 . S
C223 O215 1.260 . S
C223 O216 1.257 . S
Zn224 O227 2.031 1_565 S
Zn224 O229 2.049 . S
Zn224 O234 2.067 . S
Zn225 O226 1.962 . S
Zn225 O228 1.986 . S
Zn225 O230 1.996 . S
Zn225 O233 1.943 . S
O226 Zn225 1.962 . S
O226 C231 1.254 . S
O227 Zn224 2.031 1_545 S
O227 C231 1.269 . S
O228 Zn225 1.986 . S
O228 C235 1.262 . S
O229 Zn224 2.049 . S
O229 C237 1.260 1_565 S
O230 Zn225 1.996 . S
O230 C237 1.257 . S
C231 O226 1.254 . S
C231 O227 1.269 . S
C232 O233 1.249 1_565 S
C232 O234 1.270 . S
O233 Zn225 1.943 . S
O233 C232 1.249 1_545 S
O234 Zn224 2.067 . S
O234 C232 1.270 . S
C235 O228 1.262 . S
C235 O236 1.232 . S
O236 C235 1.232 . S
C237 O229 1.260 1_545 S
C237 O230 1.257 . S
Zn238 O241 2.031 . S
Zn238 O243 2.049 . S
Zn238 O248 2.067 . S
Zn239 O240 1.962 . S
Zn239 O242 1.986 . S
Zn239 O244 1.996 . S
Zn239 O247 1.943 . S
O240 Zn239 1.962 . S
O240 C245 1.254 . S
O241 Zn238 2.031 . S
O241 C245 1.269 . S
O242 Zn239 1.986 . S
O242 C249 1.262 . S
O243 Zn238 2.049 . S
O243 C251 1.260 . S
O244 Zn239 1.996 . S
O244 C251 1.257 . S
C245 O240 1.254 . S
C245 O241 1.269 . S
C246 O247 1.249 . S
C246 O248 1.270 . S
O247 Zn239 1.943 . S
O247 C246 1.249 . S
O248 Zn238 2.067 . S
O248 C246 1.270 . S
C249 O242 1.262 . S
C249 O250 1.232 . S
O250 C249 1.232 . S
C251 O243 1.260 . S
C251 O244 1.257 . S
Zn252 O255 2.031 . S
Zn252 O257 2.049 . S
Zn252 O262 2.067 . S
Zn253 O254 1.962 . S
Zn253 O256 1.986 . S
Zn253 O258 1.996 . S
Zn253 O261 1.943 . S
O254 Zn253 1.962 . S
O254 C259 1.254 . S
O255 Zn252 2.031 . S
O255 C259 1.269 . S
O256 Zn253 1.986 . S
O256 C263 1.262 . S
O257 Zn252 2.049 . S
O257 C265 1.260 . S
O258 Zn253 1.996 . S
O258 C265 1.257 . S
C259 O254 1.254 . S
C259 O255 1.269 . S
C260 O261 1.249 . S
C260 O262 1.270 . S
O261 Zn253 1.943 . S
O261 C260 1.249 . S
O262 Zn252 2.067 . S
O262 C260 1.270 . S
C263 O256 1.262 . S
C263 O264 1.232 . S
O264 C263 1.232 . S
C265 O257 1.260 . S
C265 O258 1.257 . S
Zn266 O269 2.031 . S
Zn266 O271 2.049 . S
Zn266 O276 2.067 . S
Zn267 O268 1.962 . S
Zn267 O270 1.986 . S
Zn267 O272 1.996 . S
Zn267 O275 1.943 1_565 S
O268 Zn267 1.962 . S
O268 C273 1.254 1_565 S
O269 Zn266 2.031 . S
O269 C273 1.269 . S
O270 Zn267 1.986 . S
O270 C277 1.262 . S
O271 Zn266 2.049 . S
O271 C279 1.260 . S
O272 Zn267 1.996 . S
O272 C279 1.257 1_565 S
C273 O268 1.254 1_545 S
C273 O269 1.269 . S
C274 O275 1.249 . S
C274 O276 1.270 . S
O275 Zn267 1.943 1_545 S
O275 C274 1.249 . S
O276 Zn266 2.067 . S
O276 C274 1.270 . S
C277 O270 1.262 . S
C277 O278 1.232 . S
O278 C277 1.232 . S
C279 O271 1.260 . S
C279 O272 1.257 1_545 S
Zn280 O283 2.031 1_554 S
Zn280 O285 2.049 . S
Zn280 O290 2.067 . S
Zn281 O282 1.984 . S
Zn281 O284 1.975 1_556 S
Zn281 O286 1.978 1_556 S
Zn281 O289 1.941 . S
O282 Zn281 1.984 . S
O282 C287 1.254 . S
O283 Zn280 2.031 1_556 S
O283 C287 1.269 . S
O284 Zn281 1.975 1_554 S
O284 C291 1.236 1_554 S
O285 Zn280 2.049 . S
O285 C293 1.260 . S
O286 Zn281 1.978 1_554 S
O286 C293 1.257 . S
C287 O282 1.254 . S
C287 O283 1.269 . S
C288 O289 1.256 . S
C288 O290 1.253 1_556 S
O289 Zn281 1.941 . S
O289 C288 1.256 . S
O290 Zn280 2.067 . S
O290 C288 1.253 1_554 S
C291 O284 1.236 1_556 S
C291 O292 1.264 . S
O292 C291 1.264 . S
C293 O285 1.260 . S
C293 O286 1.257 . S
Zn294 O297 2.031 . S
Zn294 O299 2.049 . S
Zn294 O304 2.067 . S
Zn295 O296 1.962 . S
Zn295 O298 1.986 . S
Zn295 O300 1.996 . S
Zn295 O303 1.943 . S
O296 Zn295 1.962 . S
O296 C301 1.254 . S
O297 Zn294 2.031 . S
O297 C301 1.269 . S
O298 Zn295 1.986 . S
O298 C305 1.262 . S
O299 Zn294 2.049 . S
O299 C307 1.260 . S
O300 Zn295 1.996 . S
O300 C307 1.257 . S
C301 O296 1.254 . S
C301 O297 1.269 . S
C302 O303 1.249 . S
C302 O304 1.270 . S
O303 Zn295 1.943 . S
O303 C302 1.249 . S
O304 Zn294 2.067 . S
O304 C302 1.270 . S
C305 O298 1.262 . S
C305 O306 1.232 . S
O306 C305 1.232 . S
C307 O299 1.260 . S
C307 O300 1.257 . S
Zn308 O311 2.031 . S
Zn308 O313 2.049 . S
Zn308 O318 2.067 . S
Zn309 O310 1.962 . S
Zn309 O312 1.986 . S
Zn309 O314 1.996 . S
Zn309 O317 1.943 . S
O310 Zn309 1.962 . S
O310 C315 1.254 . S
O311 Zn308 2.031 . S
O311 C315 1.269 . S
O312 Zn309 1.986 . S
O312 C319 1.262 . S
O313 Zn308 2.049 . S
O313 C321 1.260 . S
O314 Zn309 1.996 . S
O314 C321 1.257 . S
C315 O310 1.254 . S
C315 O311 1.269 . S
C316 O317 1.249 . S
C316 O318 1.270 . S
O317 Zn309 1.943 . S
O317 C316 1.249 . S
O318 Zn308 2.067 . S
O318 C316 1.270 . S
C319 O312 1.262 . S
C319 O320 1.232 . S
O320 C319 1.232 . S
C321 O313 1.260 . S
C321 O314 1.257 . S
Zn322 O325 2.031 . S
Zn322 O327 2.049 . S
Zn322 O332 2.067 . S
Zn323 O324 1.962 . S
Zn323 O326 1.986 . S
Zn323 O328 1.996 . S
Zn323 O331 1.943 . S
O324 Zn323 1.962 . S
O324 C329 1.254 . S
O325 Zn322 2.031 . S
O325 C329 1.269 . S
O326 Zn323 1.986 . S
O326 C333 1.262 . S
O327 Zn322 2.049 . S
O327 C335 1.260 . S
O328 Zn323 1.996 . S
O328 C335 1.257 . S
C329 O324 1.254 . S
C329 O325 1.269 . S
C330 O331 1.249 . S
C330 O332 1.270 . S
O331 Zn323 1.943 . S
O331 C330 1.249 . S
O332 Zn322 2.067 . S
O332 C330 1.270 . S
C333 O326 1.262 . S
C333 O334 1.232 . S
O334 C333 1.232 . S
C335 O327 1.260 . S
C335 O328 1.257 . S
Zn336 O342 1.969 1_565 S
Zn336 O343 1.965 1_565 S
Zn336 O347 2.024 . S
Zn336 O352 1.969 1_565 S
Zn337 O344 1.969 1_554 S
Zn337 O350 1.989 1_455 S
Zn337 O351 1.963 . S
Zn337 O353 2.023 . S
C338 O339 1.229 . S
C338 O347 1.058 . S
O339 C338 1.229 . S
C340 O341 1.229 1_554 S
C340 O353 1.058 . S
O341 C340 1.229 1_556 S
O342 Zn336 1.969 1_545 S
O342 C345 1.267 1_545 S
O343 Zn336 1.965 1_545 S
O343 C354 1.260 1_554 S
O344 Zn337 1.969 1_556 S
O344 C354 1.258 . S
C345 O342 1.267 1_565 S
C345 O346 1.228 . S
O346 C345 1.228 . S
O347 Zn336 2.024 . S
O347 C338 1.058 . S
C348 O349 1.228 . S
C348 O350 1.298 . S
O349 C348 1.228 . S
O350 Zn337 1.989 1_655 S
O350 C348 1.298 . S
O351 Zn337 1.963 . S
O351 C355 1.272 . S
O352 Zn336 1.969 1_545 S
O352 C355 1.258 . S
O353 Zn337 2.023 . S
O353 C340 1.058 . S
C354 O343 1.260 1_556 S
C354 O344 1.258 . S
C355 O351 1.272 . S
C355 O352 1.258 . S
Zn356 O362 1.969 . S
Zn356 O363 1.965 . S
Zn356 O367 2.024 . S
Zn356 O372 1.969 . S
Zn357 O364 1.969 . S
Zn357 O370 1.969 . S
Zn357 O371 1.965 . S
Zn357 O373 2.024 . S
C358 O359 1.229 . S
C358 O367 1.058 . S
O359 C358 1.229 . S
C360 O361 1.229 . S
C360 O373 1.058 . S
O361 C360 1.229 . S
O362 Zn356 1.969 . S
O362 C365 1.267 . S
O363 Zn356 1.965 . S
O363 C374 1.260 . S
O364 Zn357 1.969 . S
O364 C374 1.258 . S
C365 O362 1.267 . S
C365 O366 1.228 . S
O366 C365 1.228 . S
O367 Zn356 2.024 . S
O367 C358 1.058 . S
C368 O369 1.228 . S
C368 O370 1.267 . S
O369 C368 1.228 . S
O370 Zn357 1.969 . S
O370 C368 1.267 . S
O371 Zn357 1.965 . S
O371 C375 1.260 . S
O372 Zn356 1.969 . S
O372 C375 1.258 . S
O373 Zn357 2.024 . S
O373 C360 1.058 . S
C374 O363 1.260 . S
C374 O364 1.258 . S
C375 O371 1.260 . S
C375 O372 1.258 . S
Zn376 O382 1.969 . S
Zn376 O383 1.965 . S
Zn376 O387 2.024 . S
Zn376 O392 1.969 . S
Zn377 O384 1.987 . S
Zn377 O390 1.969 . S
Zn377 O391 1.965 1_565 S
Zn377 O393 2.024 . S
C378 O379 1.229 . S
C378 O387 1.058 . S
O379 C378 1.229 . S
C380 O381 1.229 . S
C380 O393 1.058 . S
O381 C380 1.229 . S
O382 Zn376 1.969 . S
O382 C385 1.267 . S
O383 Zn376 1.965 . S
O383 C394 1.260 . S
O384 Zn377 1.987 . S
O384 C394 1.235 1_565 S
C385 O382 1.267 . S
C385 O386 1.228 . S
O386 C385 1.228 . S
O387 Zn376 2.024 . S
O387 C378 1.058 . S
C388 O389 1.228 . S
C388 O390 1.267 . S
O389 C388 1.228 . S
O390 Zn377 1.969 . S
O390 C388 1.267 . S
O391 Zn377 1.965 1_545 S
O391 C395 1.260 . S
O392 Zn376 1.969 . S
O392 C395 1.258 . S
O393 Zn377 2.024 . S
O393 C380 1.058 . S
C394 O383 1.260 . S
C394 O384 1.235 1_545 S
C395 O391 1.260 . S
C395 O392 1.258 . S
Zn396 O402 1.969 . S
Zn396 O403 1.965 . S
Zn396 O407 2.024 . S
Zn396 O412 1.969 . S
Zn397 O404 1.969 . S
Zn397 O410 1.969 . S
Zn397 O411 1.965 . S
Zn397 O413 2.024 . S
C398 O399 1.229 . S
C398 O407 1.058 . S
O399 C398 1.229 . S
C400 O401 1.229 . S
C400 O413 1.058 . S
O401 C400 1.229 . S
O402 Zn396 1.969 . S
O402 C405 1.267 . S
O403 Zn396 1.965 . S
O403 C414 1.260 . S
O404 Zn397 1.969 . S
O404 C414 1.258 . S
C405 O402 1.267 . S
C405 O406 1.228 . S
O406 C405 1.228 . S
O407 Zn396 2.024 . S
O407 C398 1.058 . S
C408 O409 1.228 . S
C408 O410 1.267 . S
O409 C408 1.228 . S
O410 Zn397 1.969 . S
O410 C408 1.267 . S
O411 Zn397 1.965 . S
O411 C415 1.260 . S
O412 Zn396 1.969 . S
O412 C415 1.258 . S
O413 Zn397 2.024 . S
O413 C400 1.058 . S
C414 O403 1.260 . S
C414 O404 1.258 . S
C415 O411 1.260 . S
C415 O412 1.258 . S
Zn416 O422 1.969 . S
Zn416 O423 1.965 1_455 S
Zn416 O427 2.024 1_565 S
Zn416 O432 1.969 1_565 S
Zn417 O424 1.969 1_455 S
Zn417 O430 1.969 1_455 S
Zn417 O431 1.965 . S
Zn417 O433 2.024 . S
C418 O419 1.229 1_545 S
C418 O427 1.058 . S
O419 C418 1.229 1_565 S
C420 O421 1.229 . S
C420 O433 1.058 1_655 S
O421 C420 1.229 . S
O422 Zn416 1.969 . S
O422 C425 1.267 . S
O423 Zn416 1.965 1_655 S
O423 C434 1.260 1_565 S
O424 Zn417 1.969 1_655 S
O424 C434 1.258 . S
C425 O422 1.267 . S
C425 O426 1.228 . S
O426 C425 1.228 . S
O427 Zn416 2.024 1_545 S
O427 C418 1.058 . S
C428 O429 1.228 . S
C428 O430 1.267 1_455 S
O429 C428 1.228 . S
O430 Zn417 1.969 1_655 S
O430 C428 1.267 1_655 S
O431 Zn417 1.965 . S
O431 C435 1.260 . S
O432 Zn416 1.969 1_545 S
O432 C435 1.258 . S
O433 Zn417 2.024 . S
O433 C420 1.058 1_455 S
C434 O423 1.260 1_545 S
C434 O424 1.258 . S
C435 O431 1.260 . S
C435 O432 1.258 . S
Zn436 O442 1.969 . S
Zn436 O443 1.965 . S
Zn436 O447 2.024 . S
Zn436 O452 1.969 . S
Zn437 O444 1.969 . S
Zn437 O450 1.969 . S
Zn437 O451 1.965 . S
Zn437 O453 2.024 . S
C438 O439 1.229 . S
C438 O447 1.058 . S
O439 C438 1.229 . S
C440 O441 1.229 . S
C440 O453 1.058 . S
O441 C440 1.229 . S
O442 Zn436 1.969 . S
O442 C445 1.267 . S
O443 Zn436 1.965 . S
O443 C454 1.260 . S
O444 Zn437 1.969 . S
O444 C454 1.258 . S
C445 O442 1.267 . S
C445 O446 1.228 . S
O446 C445 1.228 . S
O447 Zn436 2.024 . S
O447 C438 1.058 . S
C448 O449 1.228 . S
C448 O450 1.267 . S
O449 C448 1.228 . S
O450 Zn437 1.969 . S
O450 C448 1.267 . S
O451 Zn437 1.965 . S
O451 C455 1.260 . S
O452 Zn436 1.969 . S
O452 C455 1.258 . S
O453 Zn437 2.024 . S
O453 C440 1.058 . S
C454 O443 1.260 . S
C454 O444 1.258 . S
C455 O451 1.260 . S
C455 O452 1.258 . S
Zn456 O462 1.969 . S
Zn456 O463 1.965 . S
Zn456 O467 2.024 1_556 S
Zn456 O472 1.969 1_556 S
Zn457 O464 1.969 1_545 S
Zn457 O470 1.969 . S
Zn457 O471 1.965 . S
Zn457 O473 2.024 . S
C458 O459 1.229 1_554 S
C458 O467 1.058 . S
O459 C458 1.229 1_556 S
C460 O461 1.229 . S
C460 O473 1.058 1_565 S
O461 C460 1.229 . S
O462 Zn456 1.969 . S
O462 C465 1.267 . S
O463 Zn456 1.965 . S
O463 C474 1.260 1_546 S
O464 Zn457 1.969 1_565 S
O464 C474 1.258 . S
C465 O462 1.267 . S
C465 O466 1.228 . S
O466 C465 1.228 . S
O467 Zn456 2.024 1_554 S
O467 C458 1.058 . S
C468 O469 1.228 . S
C468 O470 1.267 . S
O469 C468 1.228 . S
O470 Zn457 1.969 . S
O470 C468 1.267 . S
O471 Zn457 1.965 . S
O471 C475 1.260 . S
O472 Zn456 1.969 1_554 S
O472 C475 1.258 . S
O473 Zn457 2.024 . S
O473 C460 1.058 1_545 S
C474 O463 1.260 1_564 S
C474 O464 1.258 . S
C475 O471 1.260 . S
C475 O472 1.258 . S
Zn476 O482 1.969 . S
Zn476 O483 1.965 . S
Zn476 O487 2.024 . S
Zn476 O492 1.969 . S
Zn477 O484 1.969 . S
Zn477 O490 1.969 . S
Zn477 O491 1.965 . S
Zn477 O493 2.024 . S
C478 O479 1.229 . S
C478 O487 1.058 . S
O479 C478 1.229 . S
C480 O481 1.229 . S
C480 O493 1.058 . S
O481 C480 1.229 . S
O482 Zn476 1.969 . S
O482 C485 1.267 . S
O483 Zn476 1.965 . S
O483 C494 1.260 . S
O484 Zn477 1.969 . S
O484 C494 1.258 . S
C485 O482 1.267 . S
C485 O486 1.228 . S
O486 C485 1.228 . S
O487 Zn476 2.024 . S
O487 C478 1.058 . S
C488 O489 1.228 . S
C488 O490 1.267 . S
O489 C488 1.228 . S
O490 Zn477 1.969 . S
O490 C488 1.267 . S
O491 Zn477 1.965 . S
O491 C495 1.260 . S
O492 Zn476 1.969 . S
O492 C495 1.258 . S
O493 Zn477 2.024 . S
O493 C480 1.058 . S
C494 O483 1.260 . S
C494 O484 1.258 . S
C495 O491 1.260 . S
C495 O492 1.258 . S
Zn496 O502 1.969 . S
Zn496 O503 1.965 . S
Zn496 O507 2.024 . S
Zn496 O512 1.969 . S
Zn497 O504 1.969 1_556 S
Zn497 O510 1.968 . S
Zn497 O511 1.965 1_556 S
Zn497 O513 2.024 . S
C498 O499 1.229 . S
C498 O507 1.058 . S
O499 C498 1.229 . S
C500 O501 1.229 . S
C500 O513 1.058 . S
O501 C500 1.229 . S
O502 Zn496 1.969 . S
O502 C505 1.267 . S
O503 Zn496 1.965 . S
O503 C514 1.260 . S
O504 Zn497 1.969 1_554 S
O504 C514 1.258 . S
C505 O502 1.267 . S
C505 O506 1.228 . S
O506 C505 1.228 . S
O507 Zn496 2.024 . S
O507 C498 1.058 . S
C508 O509 1.228 . S
C508 O510 1.264 . S
O509 C508 1.228 . S
O510 Zn497 1.968 . S
O510 C508 1.264 . S
O511 Zn497 1.965 1_554 S
O511 C515 1.260 . S
O512 Zn496 1.969 . S
O512 C515 1.258 . S
O513 Zn497 2.024 . S
O513 C500 1.058 . S
C514 O503 1.260 . S
C514 O504 1.258 . S
C515 O511 1.260 . S
C515 O512 1.258 . S
Zn516 O522 1.969 . S
Zn516 O523 1.965 . S
Zn516 O527 2.024 . S
Zn516 O532 1.969 . S
Zn517 O524 1.969 . S
Zn517 O530 1.969 . S
Zn517 O531 1.965 . S
Zn517 O533 2.024 . S
C518 O519 1.229 . S
C518 O527 1.058 . S
O519 C518 1.229 . S
C520 O521 1.229 . S
C520 O533 1.058 . S
O521 C520 1.229 . S
O522 Zn516 1.969 . S
O522 C525 1.267 . S
O523 Zn516 1.965 . S
O523 C534 1.260 . S
O524 Zn517 1.969 . S
O524 C534 1.258 . S
C525 O522 1.267 . S
C525 O526 1.228 . S
O526 C525 1.228 . S
O527 Zn516 2.024 . S
O527 C518 1.058 . S
C528 O529 1.228 . S
C528 O530 1.267 . S
O529 C528 1.228 . S
O530 Zn517 1.969 . S
O530 C528 1.267 . S
O531 Zn517 1.965 . S
O531 C535 1.260 . S
O532 Zn516 1.969 . S
O532 C535 1.258 . S
O533 Zn517 2.024 . S
O533 C520 1.058 . S
C534 O523 1.260 . S
C534 O524 1.258 . S
C535 O531 1.260 . S
C535 O532 1.258 . S
Zn536 O542 1.969 . S
Zn536 O543 1.965 . S
Zn536 O547 2.024 . S
Zn536 O552 1.969 . S
Zn537 O544 1.969 . S
Zn537 O550 1.969 . S
Zn537 O551 1.965 1_655 S
Zn537 O553 2.024 . S
C538 O539 1.229 . S
C538 O547 1.058 . S
O539 C538 1.229 . S
C540 O541 1.229 . S
C540 O553 1.058 . S
O541 C540 1.229 . S
O542 Zn536 1.969 . S
O542 C545 1.267 . S
O543 Zn536 1.965 . S
O543 C554 1.260 . S
O544 Zn537 1.969 . S
O544 C554 1.258 1_655 S
C545 O542 1.267 . S
C545 O546 1.228 . S
O546 C545 1.228 . S
O547 Zn536 2.024 . S
O547 C538 1.058 . S
C548 O549 1.228 . S
C548 O550 1.267 . S
O549 C548 1.228 . S
O550 Zn537 1.969 . S
O550 C548 1.267 . S
O551 Zn537 1.965 1_455 S
O551 C555 1.260 . S
O552 Zn536 1.969 . S
O552 C555 1.258 . S
O553 Zn537 2.024 . S
O553 C540 1.058 . S
C554 O543 1.260 . S
C554 O544 1.258 1_455 S
C555 O551 1.260 . S
C555 O552 1.258 . S
Zn556 O562 1.969 . S
Zn556 O563 1.965 . S
Zn556 O567 2.024 . S
Zn556 O572 1.969 . S
Zn557 O564 1.969 . S
Zn557 O570 1.969 . S
Zn557 O571 1.965 . S
Zn557 O573 2.024 . S
C558 O559 1.229 . S
C558 O567 1.058 . S
O559 C558 1.229 . S
C560 O561 1.229 . S
C560 O573 1.058 . S
O561 C560 1.229 . S
O562 Zn556 1.969 . S
O562 C565 1.267 . S
O563 Zn556 1.965 . S
O563 C574 1.260 . S
O564 Zn557 1.969 . S
O564 C574 1.258 . S
C565 O562 1.267 . S
C565 O566 1.228 . S
O566 C565 1.228 . S
O567 Zn556 2.024 . S
O567 C558 1.058 . S
C568 O569 1.228 . S
C568 O570 1.267 . S
O569 C568 1.228 . S
O570 Zn557 1.969 . S
O570 C568 1.267 . S
O571 Zn557 1.965 . S
O571 C575 1.260 . S
O572 Zn556 1.969 . S
O572 C575 1.258 . S
O573 Zn557 2.024 . S
O573 C560 1.058 . S
C574 O563 1.260 . S
C574 O564 1.258 . S
C575 O571 1.260 . S
C575 O572 1.258 . S
Zn576 O582 1.969 . S
Zn576 O583 1.965 . S
Zn576 O587 2.024 . S
Zn576 O592 1.969 . S
Zn577 O584 1.969 . S
Zn577 O590 1.969 . S
Zn577 O591 1.965 . S
Zn577 O593 2.024 . S
C578 O579 1.229 . S
C578 O587 1.058 . S
O579 C578 1.229 . S
C580 O581 1.229 . S
C580 O593 1.058 . S
O581 C580 1.229 . S
O582 Zn576 1.969 . S
O582 C585 1.267 . S
O583 Zn576 1.965 . S
O583 C594 1.260 . S
O584 Zn577 1.969 . S
O584 C594 1.258 . S
C585 O582 1.267 . S
C585 O586 1.228 . S
O586 C585 1.228 . S
O587 Zn576 2.024 . S
O587 C578 1.058 . S
C588 O589 1.228 . S
C588 O590 1.267 . S
O589 C588 1.228 . S
O590 Zn577 1.969 . S
O590 C588 1.267 . S
O591 Zn577 1.965 . S
O591 C595 1.260 . S
O592 Zn576 1.969 . S
O592 C595 1.258 . S
O593 Zn577 2.024 . S
O593 C580 1.058 . S
C594 O583 1.260 . S
C594 O584 1.258 . S
C595 O591 1.260 . S
C595 O592 1.258 . S
Zn596 O602 1.969 . S
Zn596 O603 1.965 . S
Zn596 O607 2.024 . S
Zn596 O612 1.969 . S
Zn597 O604 1.969 . S
Zn597 O610 1.969 . S
Zn597 O611 1.965 . S
Zn597 O613 2.024 . S
C598 O599 1.229 . S
C598 O607 1.058 . S
O599 C598 1.229 . S
C600 O601 1.229 . S
C600 O613 1.058 . S
O601 C600 1.229 . S
O602 Zn596 1.969 . S
O602 C605 1.267 . S
O603 Zn596 1.965 . S
O603 C614 1.260 . S
O604 Zn597 1.969 . S
O604 C614 1.258 . S
C605 O602 1.267 . S
C605 O606 1.228 . S
O606 C605 1.228 . S
O607 Zn596 2.024 . S
O607 C598 1.058 . S
C608 O609 1.228 . S
C608 O610 1.267 . S
O609 C608 1.228 . S
O610 Zn597 1.969 . S
O610 C608 1.267 . S
O611 Zn597 1.965 . S
O611 C615 1.260 . S
O612 Zn596 1.969 . S
O612 C615 1.258 . S
O613 Zn597 2.024 . S
O613 C600 1.058 . S
C614 O603 1.260 . S
C614 O604 1.258 . S
C615 O611 1.260 . S
C615 O612 1.258 . S
Zn616 O622 1.969 . S
Zn616 O623 1.965 . S
Zn616 O627 2.024 . S
Zn616 O632 1.969 . S
Zn617 O624 1.969 . S
Zn617 O630 1.969 . S
Zn617 O631 1.965 . S
Zn617 O633 2.024 . S
C618 O619 1.229 . S
C618 O627 1.058 . S
O619 C618 1.229 . S
C620 O621 1.229 . S
C620 O633 1.058 . S
O621 C620 1.229 . S
O622 Zn616 1.969 . S
O622 C625 1.267 . S
O623 Zn616 1.965 . S
O623 C634 1.260 . S
O624 Zn617 1.969 . S
O624 C634 1.258 . S
C625 O622 1.267 . S
C625 O626 1.228 . S
O626 C625 1.228 . S
O627 Zn616 2.024 . S
O627 C618 1.058 . S
C628 O629 1.228 . S
C628 O630 1.267 . S
O629 C628 1.228 . S
O630 Zn617 1.969 . S
O630 C628 1.267 . S
O631 Zn617 1.965 . S
O631 C635 1.260 . S
O632 Zn616 1.969 . S
O632 C635 1.258 . S
O633 Zn617 2.024 . S
O633 C620 1.058 . S
C634 O623 1.260 . S
C634 O624 1.258 . S
C635 O631 1.260 . S
C635 O632 1.258 . S
Zn636 O642 1.969 . S
Zn636 O643 1.965 . S
Zn636 O647 2.024 1_655 S
Zn636 O652 1.969 1_655 S
Zn637 O644 1.969 1_554 S
Zn637 O650 1.969 . S
Zn637 O651 1.965 . S
Zn637 O653 2.024 . S
C638 O639 1.229 1_455 S
C638 O647 1.058 . S
O639 C638 1.229 1_655 S
C640 O641 1.193 1_554 S
C640 O653 1.094 . S
O641 C640 1.193 1_556 S
O642 Zn636 1.969 . S
O642 C645 1.267 . S
O643 Zn636 1.965 . S
O643 C654 1.246 1_654 S
O644 Zn637 1.969 1_556 S
O644 C654 1.278 . S
C645 O642 1.267 . S
C645 O646 1.228 . S
O646 C645 1.228 . S
O647 Zn636 2.024 1_455 S
O647 C638 1.058 . S
C648 O649 1.228 . S
C648 O650 1.267 . S
O649 C648 1.228 . S
O650 Zn637 1.969 . S
O650 C648 1.267 . S
O651 Zn637 1.965 . S
O651 C655 1.260 . S
O652 Zn636 1.969 1_455 S
O652 C655 1.258 . S
O653 Zn637 2.024 . S
O653 C640 1.094 . S
C654 O643 1.246 1_456 S
C654 O644 1.278 . S
C655 O651 1.260 . S
C655 O652 1.258 . S
H656 C664 0.929 . S
H657 C666 0.930 . S
H658 C668 0.930 . S
H659 C671 0.929 . S
H660 C674 0.930 . S
H661 C676 0.960 . S
H662 C676 0.960 . S
H663 C676 0.960 . S
C664 H656 0.929 . S
C664 C665 1.377 . S
C664 C666 1.384 . S
C665 C664 1.377 . S
C665 C671 1.390 1_655 S
C666 H657 0.930 . S
C666 C664 1.384 . S
C666 C667 1.372 1_655 S
C667 C666 1.372 1_455 S
C667 C668 1.400 . S
C667 C672 1.490 . S
C668 H658 0.930 . S
C668 C667 1.400 . S
C668 C671 1.386 . S
H669 C685 0.930 . S
H670 C686 0.931 . S
C671 H659 0.929 . S
C671 C665 1.390 1_455 S
C671 C668 1.386 . S
C672 C667 1.490 . S
C672 C674 1.395 . S
C672 C675 1.403 1_455 S
H673 C679 0.930 . S
C674 H660 0.930 . S
C674 C672 1.395 . S
C674 C677 1.403 . S
C675 C672 1.403 1_655 S
C675 C676 1.524 . S
C675 C679 1.400 . S
C676 H661 0.960 . S
C676 H662 0.960 . S
C676 H663 0.960 . S
C676 C675 1.524 . S
C677 C674 1.403 . S
C677 C678 1.392 . S
C677 C681 1.495 . S
C678 C677 1.392 . S
C678 C679 1.385 1_455 S
C678 C680 1.478 . S
C679 H673 0.930 . S
C679 C675 1.400 . S
C679 C678 1.385 1_655 S
C680 C678 1.478 . S
C680 C682 1.381 . S
C680 C686 1.383 1_556 S
C681 C677 1.495 . S
C681 H687 0.959 . S
C681 H688 0.961 . S
C681 H689 0.960 . S
C682 C680 1.381 . S
C682 C683 1.394 . S
C682 H690 0.930 . S
C683 C682 1.394 . S
C683 C684 1.383 1_556 S
C683 H691 0.929 . S
C684 C683 1.383 1_554 S
C684 C685 1.377 . S
C685 H669 0.930 . S
C685 C684 1.377 . S
C685 C686 1.379 . S
C686 H670 0.931 . S
C686 C680 1.383 1_554 S
C686 C685 1.379 . S
H687 C681 0.959 . S
H688 C681 0.961 . S
H689 C681 0.960 . S
H690 C682 0.930 . S
H691 C683 0.929 . S
H692 C700 0.929 . S
H693 C702 0.930 . S
H694 C704 0.930 . S
H695 C707 0.929 . S
H696 C710 0.930 . S
H697 C712 0.960 . S
H698 C712 0.960 . S
H699 C712 0.960 . S
C700 H692 0.929 . S
C700 C701 1.377 . S
C700 C702 1.384 . S
C701 C700 1.377 . S
C701 C707 1.390 . S
C702 H693 0.930 . S
C702 C700 1.384 . S
C702 C703 1.372 . S
C703 C702 1.372 . S
C703 C704 1.400 . S
C703 C708 1.490 . S
C704 H694 0.930 . S
C704 C703 1.400 . S
C704 C707 1.386 . S
H705 C721 0.930 . S
H706 C722 0.931 . S
C707 H695 0.929 . S
C707 C701 1.390 . S
C707 C704 1.386 . S
C708 C703 1.490 . S
C708 C710 1.395 . S
C708 C711 1.403 . S
H709 C715 0.930 . S
C710 H696 0.930 . S
C710 C708 1.395 . S
C710 C713 1.403 . S
C711 C708 1.403 . S
C711 C712 1.524 . S
C711 C715 1.400 . S
C712 H697 0.960 . S
C712 H698 0.960 . S
C712 H699 0.960 . S
C712 C711 1.524 . S
C713 C710 1.403 . S
C713 C714 1.392 . S
C713 C717 1.495 . S
C714 C713 1.392 . S
C714 C715 1.385 . S
C714 C716 1.478 . S
C715 H709 0.930 . S
C715 C711 1.400 . S
C715 C714 1.385 . S
C716 C714 1.478 . S
C716 C718 1.381 . S
C716 C722 1.383 . S
C717 C713 1.495 . S
C717 H723 0.959 . S
C717 H724 0.961 . S
C717 H725 0.960 . S
C718 C716 1.381 . S
C718 C719 1.394 . S
C718 H726 0.930 . S
C719 C718 1.394 . S
C719 C720 1.383 . S
C719 H727 0.929 . S
C720 C719 1.383 . S
C720 C721 1.377 . S
C721 H705 0.930 . S
C721 C720 1.377 . S
C721 C722 1.379 . S
C722 H706 0.931 . S
C722 C716 1.383 . S
C722 C721 1.379 . S
H723 C717 0.959 . S
H724 C717 0.961 . S
H725 C717 0.960 . S
H726 C718 0.930 . S
H727 C719 0.929 . S
H728 C736 0.929 . S
H729 C738 0.930 . S
H730 C740 0.930 . S
H731 C743 0.929 . S
H732 C746 0.930 . S
H733 C748 0.960 . S
H734 C748 0.960 . S
H735 C748 0.960 . S
C736 H728 0.929 . S
C736 C737 1.377 . S
C736 C738 1.384 . S
C737 C736 1.377 . S
C737 C743 1.390 . S
C738 H729 0.930 . S
C738 C736 1.384 . S
C738 C739 1.372 . S
C739 C738 1.372 . S
C739 C740 1.400 . S
C739 C744 1.490 . S
C740 H730 0.930 . S
C740 C739 1.400 . S
C740 C743 1.386 . S
H741 C757 0.930 . S
H742 C758 0.931 . S
C743 H731 0.929 . S
C743 C737 1.390 . S
C743 C740 1.386 . S
C744 C739 1.490 . S
C744 C746 1.395 . S
C744 C747 1.403 . S
H745 C751 0.930 . S
C746 H732 0.930 . S
C746 C744 1.395 . S
C746 C749 1.403 . S
C747 C744 1.403 . S
C747 C748 1.524 . S
C747 C751 1.400 . S
C748 H733 0.960 . S
C748 H734 0.960 . S
C748 H735 0.960 . S
C748 C747 1.524 . S
C749 C746 1.403 . S
C749 C750 1.392 . S
C749 C753 1.495 . S
C750 C749 1.392 . S
C750 C751 1.385 . S
C750 C752 1.478 . S
C751 H745 0.930 . S
C751 C747 1.400 . S
C751 C750 1.385 . S
C752 C750 1.478 . S
C752 C754 1.381 . S
C752 C758 1.383 . S
C753 C749 1.495 . S
C753 H759 0.959 . S
C753 H760 0.961 . S
C753 H761 0.960 . S
C754 C752 1.381 . S
C754 C755 1.394 . S
C754 H762 0.930 . S
C755 C754 1.394 . S
C755 C756 1.383 . S
C755 H763 0.929 . S
C756 C755 1.383 . S
C756 C757 1.377 . S
C757 H741 0.930 . S
C757 C756 1.377 . S
C757 C758 1.379 . S
C758 H742 0.931 . S
C758 C752 1.383 . S
C758 C757 1.379 . S
H759 C753 0.959 . S
H760 C753 0.961 . S
H761 C753 0.960 . S
H762 C754 0.930 . S
H763 C755 0.929 . S
H764 C772 0.929 . S
H765 C774 0.930 . S
H766 C776 0.930 . S
H767 C779 0.929 . S
H768 C782 0.930 . S
H769 C784 0.960 . S
H770 C784 0.960 . S
H771 C784 0.960 . S
C772 H764 0.929 . S
C772 C773 1.377 . S
C772 C774 1.384 . S
C773 C772 1.377 . S
C773 C779 1.390 . S
C774 H765 0.930 . S
C774 C772 1.384 . S
C774 C775 1.372 . S
C775 C774 1.372 . S
C775 C776 1.400 . S
C775 C780 1.490 . S
C776 H766 0.930 . S
C776 C775 1.400 . S
C776 C779 1.386 . S
H777 C793 0.930 . S
H778 C794 0.931 . S
C779 H767 0.929 . S
C779 C773 1.390 . S
C779 C776 1.386 . S
C780 C775 1.490 . S
C780 C782 1.395 . S
C780 C783 1.403 . S
H781 C787 0.930 . S
C782 H768 0.930 . S
C782 C780 1.395 . S
C782 C785 1.403 . S
C783 C780 1.403 . S
C783 C784 1.524 . S
C783 C787 1.400 . S
C784 H769 0.960 . S
C784 H770 0.960 . S
C784 H771 0.960 . S
C784 C783 1.524 . S
C785 C782 1.403 . S
C785 C786 1.392 . S
C785 C789 1.495 . S
C786 C785 1.392 . S
C786 C787 1.385 . S
C786 C788 1.478 . S
C787 H781 0.930 . S
C787 C783 1.400 . S
C787 C786 1.385 . S
C788 C786 1.478 . S
C788 C790 1.381 . S
C788 C794 1.383 . S
C789 C785 1.495 . S
C789 H795 0.959 . S
C789 H796 0.961 . S
C789 H797 0.960 . S
C790 C788 1.381 . S
C790 C791 1.394 . S
C790 H798 0.930 . S
C791 C790 1.394 . S
C791 C792 1.383 . S
C791 H799 0.929 . S
C792 C791 1.383 . S
C792 C793 1.377 . S
C793 H777 0.930 . S
C793 C792 1.377 . S
C793 C794 1.379 . S
C794 H778 0.931 . S
C794 C788 1.383 . S
C794 C793 1.379 . S
H795 C789 0.959 . S
H796 C789 0.961 . S
H797 C789 0.960 . S
H798 C790 0.930 . S
H799 C791 0.929 . S
H800 C808 0.929 . S
H801 C810 0.930 . S
H802 C812 0.930 . S
H803 C815 0.929 . S
H804 C818 0.930 . S
H805 C820 0.991 . S
H806 C820 0.922 1_455 S
H807 C820 1.001 . S
C808 H800 0.929 . S
C808 C809 1.377 . S
C808 C810 1.384 . S
C809 C808 1.377 . S
C809 C815 1.390 1_455 S
C810 H801 0.930 . S
C810 C808 1.384 . S
C810 C811 1.372 . S
C811 C810 1.372 . S
C811 C812 1.400 1_455 S
C811 C816 1.490 . S
C812 H802 0.930 . S
C812 C811 1.400 1_655 S
C812 C815 1.386 . S
H813 C829 0.930 1_655 S
H814 C830 0.931 1_655 S
C815 H803 0.929 . S
C815 C809 1.390 1_655 S
C815 C812 1.386 . S
C816 C811 1.490 . S
C816 C818 1.395 . S
C816 C819 1.403 . S
H817 C823 0.930 . S
C818 H804 0.930 . S
C818 C816 1.395 . S
C818 C821 1.403 . S
C819 C816 1.403 . S
C819 C820 1.494 1_455 S
C819 C823 1.400 . S
C820 H805 0.991 . S
C820 H806 0.922 1_655 S
C820 H807 1.001 . S
C820 C819 1.494 1_655 S
C821 C818 1.403 . S
C821 C822 1.392 . S
C821 C825 1.495 . S
C822 C821 1.392 . S
C822 C823 1.385 . S
C822 C824 1.478 . S
C823 H817 0.930 . S
C823 C819 1.400 . S
C823 C822 1.385 . S
C824 C822 1.478 . S
C824 C826 1.381 . S
C824 C830 1.383 . S
C825 C821 1.495 . S
C825 H831 0.959 . S
C825 H832 0.961 . S
C825 H833 0.960 . S
C826 C824 1.381 . S
C826 C827 1.394 . S
C826 H834 0.930 . S
C827 C826 1.394 . S
C827 C828 1.383 . S
C827 H835 0.929 . S
C828 C827 1.383 . S
C828 C829 1.377 . S
C829 H813 0.930 1_455 S
C829 C828 1.377 . S
C829 C830 1.379 . S
C830 H814 0.931 1_455 S
C830 C824 1.383 . S
C830 C829 1.379 . S
H831 C825 0.959 . S
H832 C825 0.961 . S
H833 C825 0.960 . S
H834 C826 0.930 . S
H835 C827 0.929 . S
H836 C844 0.929 . S
H837 C846 0.930 . S
H838 C848 0.930 . S
H839 C851 0.929 . S
H840 C854 0.930 . S
H841 C856 0.960 . S
H842 C856 0.960 . S
H843 C856 0.960 . S
C844 H836 0.929 . S
C844 C845 1.377 . S
C844 C846 1.384 . S
C845 C844 1.377 . S
C845 C851 1.390 . S
C846 H837 0.930 . S
C846 C844 1.384 . S
C846 C847 1.372 . S
C847 C846 1.372 . S
C847 C848 1.400 . S
C847 C852 1.490 . S
C848 H838 0.930 . S
C848 C847 1.400 . S
C848 C851 1.386 . S
H849 C865 0.930 . S
H850 C866 0.931 . S
C851 H839 0.929 . S
C851 C845 1.390 . S
C851 C848 1.386 . S
C852 C847 1.490 . S
C852 C854 1.395 . S
C852 C855 1.403 . S
H853 C859 0.930 . S
C854 H840 0.930 . S
C854 C852 1.395 . S
C854 C857 1.403 . S
C855 C852 1.403 . S
C855 C856 1.524 . S
C855 C859 1.400 . S
C856 H841 0.960 . S
C856 H842 0.960 . S
C856 H843 0.960 . S
C856 C855 1.524 . S
C857 C854 1.403 . S
C857 C858 1.392 . S
C857 C861 1.495 . S
C858 C857 1.392 . S
C858 C859 1.385 . S
C858 C860 1.478 . S
C859 H853 0.930 . S
C859 C855 1.400 . S
C859 C858 1.385 . S
C860 C858 1.478 . S
C860 C862 1.381 . S
C860 C866 1.383 . S
C861 C857 1.495 . S
C861 H867 0.959 . S
C861 H868 0.961 . S
C861 H869 0.960 . S
C862 C860 1.381 . S
C862 C863 1.394 . S
C862 H870 0.930 . S
C863 C862 1.394 . S
C863 C864 1.383 . S
C863 H871 0.929 . S
C864 C863 1.383 . S
C864 C865 1.377 . S
C865 H849 0.930 . S
C865 C864 1.377 . S
C865 C866 1.379 . S
C866 H850 0.931 . S
C866 C860 1.383 . S
C866 C865 1.379 . S
H867 C861 0.959 . S
H868 C861 0.961 . S
H869 C861 0.960 . S
H870 C862 0.930 . S
H871 C863 0.929 . S
H872 C880 0.929 . S
H873 C882 0.930 . S
H874 C884 0.930 . S
H875 C887 0.929 . S
H876 C890 0.930 . S
H877 C892 0.960 . S
H878 C892 0.960 . S
H879 C892 0.960 . S
C880 H872 0.929 . S
C880 C881 1.377 . S
C880 C882 1.384 . S
C881 C880 1.377 . S
C881 C887 1.390 . S
C882 H873 0.930 . S
C882 C880 1.384 . S
C882 C883 1.372 . S
C883 C882 1.372 . S
C883 C884 1.400 . S
C883 C888 1.490 . S
C884 H874 0.930 . S
C884 C883 1.400 . S
C884 C887 1.386 . S
H885 C901 0.930 . S
H886 C902 0.931 . S
C887 H875 0.929 . S
C887 C881 1.390 . S
C887 C884 1.386 . S
C888 C883 1.490 . S
C888 C890 1.395 . S
C888 C891 1.403 . S
H889 C895 0.930 . S
C890 H876 0.930 . S
C890 C888 1.395 . S
C890 C893 1.403 . S
C891 C888 1.403 . S
C891 C892 1.524 . S
C891 C895 1.400 . S
C892 H877 0.960 . S
C892 H878 0.960 . S
C892 H879 0.960 . S
C892 C891 1.524 . S
C893 C890 1.403 . S
C893 C894 1.392 . S
C893 C897 1.495 . S
C894 C893 1.392 . S
C894 C895 1.385 . S
C894 C896 1.478 . S
C895 H889 0.930 . S
C895 C891 1.400 . S
C895 C894 1.385 . S
C896 C894 1.478 . S
C896 C898 1.381 . S
C896 C902 1.383 . S
C897 C893 1.495 . S
C897 H903 0.959 . S
C897 H904 0.961 . S
C897 H905 0.960 . S
C898 C896 1.381 . S
C898 C899 1.394 . S
C898 H906 0.930 . S
C899 C898 1.394 . S
C899 C900 1.383 . S
C899 H907 0.929 . S
C900 C899 1.383 . S
C900 C901 1.377 . S
C901 H885 0.930 . S
C901 C900 1.377 . S
C901 C902 1.379 . S
C902 H886 0.931 . S
C902 C896 1.383 . S
C902 C901 1.379 . S
H903 C897 0.959 . S
H904 C897 0.961 . S
H905 C897 0.960 . S
H906 C898 0.930 . S
H907 C899 0.929 . S
H908 C916 0.929 . S
H909 C918 0.930 . S
H910 C920 0.930 . S
H911 C923 0.929 . S
H912 C926 0.930 . S
H913 C928 0.960 . S
H914 C928 0.960 . S
H915 C928 0.960 . S
C916 H908 0.929 . S
C916 C917 1.377 . S
C916 C918 1.384 . S
C917 C916 1.377 . S
C917 C923 1.390 . S
C918 H909 0.930 . S
C918 C916 1.384 . S
C918 C919 1.372 . S
C919 C918 1.372 . S
C919 C920 1.400 . S
C919 C924 1.490 . S
C920 H910 0.930 . S
C920 C919 1.400 . S
C920 C923 1.386 . S
H921 C937 0.930 . S
H922 C938 0.931 . S
C923 H911 0.929 . S
C923 C917 1.390 . S
C923 C920 1.386 . S
C924 C919 1.490 . S
C924 C926 1.395 . S
C924 C927 1.403 . S
H925 C931 0.930 . S
C926 H912 0.930 . S
C926 C924 1.395 . S
C926 C929 1.403 . S
C927 C924 1.403 . S
C927 C928 1.524 . S
C927 C931 1.400 . S
C928 H913 0.960 . S
C928 H914 0.960 . S
C928 H915 0.960 . S
C928 C927 1.524 . S
C929 C926 1.403 . S
C929 C930 1.392 . S
C929 C933 1.495 . S
C930 C929 1.392 . S
C930 C931 1.385 . S
C930 C932 1.478 . S
C931 H925 0.930 . S
C931 C927 1.400 . S
C931 C930 1.385 . S
C932 C930 1.478 . S
C932 C934 1.381 . S
C932 C938 1.383 . S
C933 C929 1.495 . S
C933 H939 0.959 . S
C933 H940 0.961 . S
C933 H941 0.960 . S
C934 C932 1.381 . S
C934 C935 1.394 . S
C934 H942 0.930 . S
C935 C934 1.394 . S
C935 C936 1.383 . S
C935 H943 0.929 . S
C936 C935 1.383 . S
C936 C937 1.377 . S
C937 H921 0.930 . S
C937 C936 1.377 . S
C937 C938 1.379 . S
C938 H922 0.931 . S
C938 C932 1.383 . S
C938 C937 1.379 . S
H939 C933 0.959 . S
H940 C933 0.961 . S
H941 C933 0.960 . S
H942 C934 0.930 . S
H943 C935 0.929 . S
H944 C952 0.929 1_565 S
H945 C954 0.930 1_565 S
H946 C956 0.930 . S
H947 C959 0.929 . S
H948 C962 0.930 . S
H949 C964 0.960 . S
H950 C964 0.960 . S
H951 C964 0.960 . S
C952 H944 0.929 1_545 S
C952 C953 1.377 . S
C952 C954 1.384 . S
C953 C952 1.377 . S
C953 C959 1.390 . S
C954 H945 0.930 1_545 S
C954 C952 1.384 . S
C954 C955 1.372 . S
C955 C954 1.372 . S
C955 C956 1.400 . S
C955 C960 1.490 . S
C956 H946 0.930 . S
C956 C955 1.400 . S
C956 C959 1.386 . S
H957 C973 0.940 . S
H958 C974 0.931 . S
C959 H947 0.929 . S
C959 C953 1.390 . S
C959 C956 1.386 . S
C960 C955 1.490 . S
C960 C962 1.395 . S
C960 C963 1.403 . S
H961 C967 0.930 . S
C962 H948 0.930 . S
C962 C960 1.395 . S
C962 C965 1.403 . S
C963 C960 1.403 . S
C963 C964 1.524 . S
C963 C967 1.400 . S
C964 H949 0.960 . S
C964 H950 0.960 . S
C964 H951 0.960 . S
C964 C963 1.524 . S
C965 C962 1.403 . S
C965 C966 1.392 . S
C965 C969 1.495 . S
C966 C965 1.392 . S
C966 C967 1.385 . S
C966 C968 1.478 . S
C967 H961 0.930 . S
C967 C963 1.400 . S
C967 C966 1.385 . S
C968 C966 1.478 . S
C968 C970 1.381 . S
C968 C974 1.383 . S
C969 C965 1.495 . S
C969 H975 0.959 . S
C969 H976 0.961 . S
C969 H977 0.909 1_545 S
C970 C968 1.381 . S
C970 C971 1.394 . S
C970 H978 0.930 1_545 S
C971 C970 1.394 . S
C971 C972 1.383 1_655 S
C971 H979 0.929 1_545 S
C972 C971 1.383 1_455 S
C972 C973 1.385 . S
C973 H957 0.940 . S
C973 C972 1.385 . S
C973 C974 1.362 1_455 S
C974 H958 0.931 . S
C974 C968 1.383 . S
C974 C973 1.362 1_655 S
H975 C969 0.959 . S
H976 C969 0.961 . S
H977 C969 0.909 1_565 S
H978 C970 0.930 1_565 S
H979 C971 0.929 1_565 S
H980 C988 0.929 . S
H981 C990 0.930 . S
H982 C992 0.930 . S
H983 C995 0.929 . S
H984 C998 0.930 . S
H985 C1000 0.960 . S
H986 C1000 0.960 . S
H987 C1000 0.960 . S
C988 H980 0.929 . S
C988 C989 1.377 . S
C988 C990 1.384 . S
C989 C988 1.377 . S
C989 C995 1.390 . S
C990 H981 0.930 . S
C990 C988 1.384 . S
C990 C991 1.372 . S
C991 C990 1.372 . S
C991 C992 1.400 . S
C991 C996 1.490 . S
C992 H982 0.930 . S
C992 C991 1.400 . S
C992 C995 1.386 . S
H993 C1009 0.930 . S
H994 C1010 0.931 . S
C995 H983 0.929 . S
C995 C989 1.390 . S
C995 C992 1.386 . S
C996 C991 1.490 . S
C996 C998 1.395 . S
C996 C999 1.403 . S
H997 C1003 0.930 . S
C998 H984 0.930 . S
C998 C996 1.395 . S
C998 C1001 1.403 . S
C999 C996 1.403 . S
C999 C1000 1.524 . S
C999 C1003 1.400 . S
C1000 H985 0.960 . S
C1000 H986 0.960 . S
C1000 H987 0.960 . S
C1000 C999 1.524 . S
C1001 C998 1.403 . S
C1001 C1002 1.392 . S
C1001 C1005 1.495 . S
C1002 C1001 1.392 . S
C1002 C1003 1.385 . S
C1002 C1004 1.478 . S
C1003 H997 0.930 . S
C1003 C999 1.400 . S
C1003 C1002 1.385 . S
C1004 C1002 1.478 . S
C1004 C1006 1.381 . S
C1004 C1010 1.383 . S
C1005 C1001 1.495 . S
C1005 H1011 0.959 . S
C1005 H1012 0.961 . S
C1005 H1013 0.960 . S
C1006 C1004 1.381 . S
C1006 C1007 1.394 . S
C1006 H1014 0.930 . S
C1007 C1006 1.394 . S
C1007 C1008 1.383 . S
C1007 H1015 0.929 . S
C1008 C1007 1.383 . S
C1008 C1009 1.377 . S
C1009 H993 0.930 . S
C1009 C1008 1.377 . S
C1009 C1010 1.379 . S
C1010 H994 0.931 . S
C1010 C1004 1.383 . S
C1010 C1009 1.379 . S
H1011 C1005 0.959 . S
H1012 C1005 0.961 . S
H1013 C1005 0.960 . S
H1014 C1006 0.930 . S
H1015 C1007 0.929 . S
H1016 C1024 0.929 . S
H1017 C1026 0.930 . S
H1018 C1028 0.930 . S
H1019 C1031 0.929 . S
H1020 C1034 0.930 . S
H1021 C1036 0.960 . S
H1022 C1036 0.960 1_565 S
H1023 C1036 0.960 . S
C1024 H1016 0.929 . S
C1024 C1025 1.377 . S
C1024 C1026 1.384 . S
C1025 C1024 1.377 . S
C1025 C1031 1.390 1_565 S
C1026 H1017 0.930 . S
C1026 C1024 1.384 . S
C1026 C1027 1.372 . S
C1027 C1026 1.372 . S
C1027 C1028 1.400 1_565 S
C1027 C1032 1.490 . S
C1028 H1018 0.930 . S
C1028 C1027 1.400 1_545 S
C1028 C1031 1.386 . S
H1029 C1045 0.930 . S
H1030 C1046 0.931 . S
C1031 H1019 0.929 . S
C1031 C1025 1.390 1_545 S
C1031 C1028 1.386 . S
C1032 C1027 1.490 . S
C1032 C1034 1.395 . S
C1032 C1035 1.403 1_565 S
H1033 C1039 0.930 . S
C1034 H1020 0.930 . S
C1034 C1032 1.395 . S
C1034 C1037 1.403 . S
C1035 C1032 1.403 1_545 S
C1035 C1036 1.524 . S
C1035 C1039 1.400 . S
C1036 H1021 0.960 . S
C1036 H1022 0.960 1_545 S
C1036 H1023 0.960 . S
C1036 C1035 1.524 . S
C1037 C1034 1.403 . S
C1037 C1038 1.403 . S
C1037 C1041 1.495 . S
C1038 C1037 1.403 . S
C1038 C1039 1.390 1_565 S
C1038 C1040 1.464 1_565 S
C1039 H1033 0.930 . S
C1039 C1035 1.400 . S
C1039 C1038 1.390 1_545 S
C1040 C1038 1.464 1_545 S
C1040 C1042 1.373 1_545 S
C1040 C1046 1.393 . S
C1041 C1037 1.495 . S
C1041 H1047 0.959 . S
C1041 H1048 0.961 1_565 S
C1041 H1049 0.960 . S
C1042 C1040 1.373 1_565 S
C1042 C1043 1.394 . S
C1042 H1050 0.930 . S
C1043 C1042 1.394 . S
C1043 C1044 1.383 1_565 S
C1043 H1051 0.929 . S
C1044 C1043 1.383 1_545 S
C1044 C1045 1.377 . S
C1045 H1029 0.930 . S
C1045 C1044 1.377 . S
C1045 C1046 1.379 . S
C1046 H1030 0.931 . S
C1046 C1040 1.393 . S
C1046 C1045 1.379 . S
H1047 C1041 0.959 . S
H1048 C1041 0.961 1_545 S
H1049 C1041 0.960 . S
H1050 C1042 0.930 . S
H1051 C1043 0.929 . S
H1052 C1060 0.929 . S
H1053 C1062 0.930 . S
H1054 C1064 0.930 . S
H1055 C1067 0.929 . S
H1056 C1070 0.930 . S
H1057 C1072 0.960 . S
H1058 C1072 0.960 . S
H1059 C1072 0.960 . S
C1060 H1052 0.929 . S
C1060 C1061 1.377 . S
C1060 C1062 1.384 . S
C1061 C1060 1.377 . S
C1061 C1067 1.390 . S
C1062 H1053 0.930 . S
C1062 C1060 1.384 . S
C1062 C1063 1.372 . S
C1063 C1062 1.372 . S
C1063 C1064 1.400 . S
C1063 C1068 1.490 . S
C1064 H1054 0.930 . S
C1064 C1063 1.400 . S
C1064 C1067 1.386 . S
H1065 C1081 0.930 . S
H1066 C1082 0.931 . S
C1067 H1055 0.929 . S
C1067 C1061 1.390 . S
C1067 C1064 1.386 . S
C1068 C1063 1.490 . S
C1068 C1070 1.395 . S
C1068 C1071 1.403 . S
H1069 C1075 0.930 . S
C1070 H1056 0.930 . S
C1070 C1068 1.395 . S
C1070 C1073 1.403 . S
C1071 C1068 1.403 . S
C1071 C1072 1.524 . S
C1071 C1075 1.400 . S
C1072 H1057 0.960 . S
C1072 H1058 0.960 . S
C1072 H1059 0.960 . S
C1072 C1071 1.524 . S
C1073 C1070 1.403 . S
C1073 C1074 1.392 . S
C1073 C1077 1.495 . S
C1074 C1073 1.392 . S
C1074 C1075 1.385 . S
C1074 C1076 1.478 . S
C1075 H1069 0.930 . S
C1075 C1071 1.400 . S
C1075 C1074 1.385 . S
C1076 C1074 1.478 . S
C1076 C1078 1.381 . S
C1076 C1082 1.383 . S
C1077 C1073 1.495 . S
C1077 H1083 0.959 . S
C1077 H1084 0.961 . S
C1077 H1085 0.960 . S
C1078 C1076 1.381 . S
C1078 C1079 1.394 . S
C1078 H1086 0.930 . S
C1079 C1078 1.394 . S
C1079 C1080 1.383 . S
C1079 H1087 0.929 . S
C1080 C1079 1.383 . S
C1080 C1081 1.377 . S
C1081 H1065 0.930 . S
C1081 C1080 1.377 . S
C1081 C1082 1.379 . S
C1082 H1066 0.931 . S
C1082 C1076 1.383 . S
C1082 C1081 1.379 . S
H1083 C1077 0.959 . S
H1084 C1077 0.961 . S
H1085 C1077 0.960 . S
H1086 C1078 0.930 . S
H1087 C1079 0.929 . S
H1088 C1096 0.929 . S
H1089 C1098 0.930 . S
H1090 C1100 0.930 1_565 S
H1091 C1103 0.929 1_565 S
H1092 C1106 0.930 . S
H1093 C1108 0.960 . S
H1094 C1108 0.960 . S
H1095 C1108 0.960 . S
C1096 H1088 0.929 . S
C1096 C1097 1.377 . S
C1096 C1098 1.384 . S
C1097 C1096 1.377 . S
C1097 C1103 1.390 . S
C1098 H1089 0.930 . S
C1098 C1096 1.384 . S
C1098 C1099 1.372 . S
C1099 C1098 1.372 . S
C1099 C1100 1.400 . S
C1099 C1104 1.490 . S
C1100 H1090 0.930 1_545 S
C1100 C1099 1.400 . S
C1100 C1103 1.386 . S
H1101 C1117 0.930 . S
H1102 C1118 0.931 . S
C1103 H1091 0.929 1_545 S
C1103 C1097 1.390 . S
C1103 C1100 1.386 . S
C1104 C1099 1.490 . S
C1104 C1106 1.395 . S
C1104 C1107 1.403 . S
H1105 C1111 0.930 . S
C1106 H1092 0.930 . S
C1106 C1104 1.395 . S
C1106 C1109 1.403 . S
C1107 C1104 1.403 . S
C1107 C1108 1.524 . S
C1107 C1111 1.400 . S
C1108 H1093 0.960 . S
C1108 H1094 0.960 . S
C1108 H1095 0.960 . S
C1108 C1107 1.524 . S
C1109 C1106 1.403 . S
C1109 C1110 1.392 . S
C1109 C1113 1.495 . S
C1110 C1109 1.392 . S
C1110 C1111 1.385 . S
C1110 C1112 1.478 . S
C1111 H1105 0.930 . S
C1111 C1107 1.400 . S
C1111 C1110 1.385 . S
C1112 C1110 1.478 . S
C1112 C1114 1.381 . S
C1112 C1118 1.383 1_545 S
C1113 C1109 1.495 . S
C1113 H1119 0.959 . S
C1113 H1120 0.961 . S
C1113 H1121 0.960 . S
C1114 C1112 1.381 . S
C1114 C1115 1.394 . S
C1114 H1122 0.930 . S
C1115 C1114 1.394 . S
C1115 C1116 1.383 . S
C1115 H1123 0.929 . S
C1116 C1115 1.383 . S
C1116 C1117 1.377 1_545 S
C1117 H1101 0.930 . S
C1117 C1116 1.377 1_565 S
C1117 C1118 1.379 . S
C1118 H1102 0.931 . S
C1118 C1112 1.383 1_565 S
C1118 C1117 1.379 . S
H1119 C1113 0.959 . S
H1120 C1113 0.961 . S
H1121 C1113 0.960 . S
H1122 C1114 0.930 . S
H1123 C1115 0.929 . S
H1124 C1132 0.929 . S
H1125 C1134 0.930 . S
H1126 C1136 0.930 . S
H1127 C1139 0.929 . S
H1128 C1142 0.930 . S
H1129 C1144 0.960 . S
H1130 C1144 0.960 . S
H1131 C1144 0.960 . S
C1132 H1124 0.929 . S
C1132 C1133 1.377 . S
C1132 C1134 1.384 . S
C1133 C1132 1.377 . S
C1133 C1139 1.390 . S
C1134 H1125 0.930 . S
C1134 C1132 1.384 . S
C1134 C1135 1.372 . S
C1135 C1134 1.372 . S
C1135 C1136 1.400 . S
C1135 C1140 1.490 . S
C1136 H1126 0.930 . S
C1136 C1135 1.400 . S
C1136 C1139 1.386 . S
H1137 C1153 0.930 . S
H1138 C1154 0.931 . S
C1139 H1127 0.929 . S
C1139 C1133 1.390 . S
C1139 C1136 1.386 . S
C1140 C1135 1.490 . S
C1140 C1142 1.395 . S
C1140 C1143 1.403 . S
H1141 C1147 0.930 . S
C1142 H1128 0.930 . S
C1142 C1140 1.395 . S
C1142 C1145 1.403 . S
C1143 C1140 1.403 . S
C1143 C1144 1.524 . S
C1143 C1147 1.400 . S
C1144 H1129 0.960 . S
C1144 H1130 0.960 . S
C1144 H1131 0.960 . S
C1144 C1143 1.524 . S
C1145 C1142 1.403 . S
C1145 C1146 1.392 . S
C1145 C1149 1.495 . S
C1146 C1145 1.392 . S
C1146 C1147 1.385 . S
C1146 C1148 1.478 . S
C1147 H1141 0.930 . S
C1147 C1143 1.400 . S
C1147 C1146 1.385 . S
C1148 C1146 1.478 . S
C1148 C1150 1.381 . S
C1148 C1154 1.383 . S
C1149 C1145 1.495 . S
C1149 H1155 0.959 . S
C1149 H1156 0.961 . S
C1149 H1157 0.960 . S
C1150 C1148 1.381 . S
C1150 C1151 1.394 . S
C1150 H1158 0.930 . S
C1151 C1150 1.394 . S
C1151 C1152 1.383 . S
C1151 H1159 0.929 . S
C1152 C1151 1.383 . S
C1152 C1153 1.377 . S
C1153 H1137 0.930 . S
C1153 C1152 1.377 . S
C1153 C1154 1.379 . S
C1154 H1138 0.931 . S
C1154 C1148 1.383 . S
C1154 C1153 1.379 . S
H1155 C1149 0.959 . S
H1156 C1149 0.961 . S
H1157 C1149 0.960 . S
H1158 C1150 0.930 . S
H1159 C1151 0.929 . S
H1160 C1168 0.929 . S
H1161 C1170 0.930 1_565 S
H1162 C1172 0.930 . S
H1163 C1175 0.929 . S
H1164 C1178 0.930 . S
H1165 C1180 0.960 . S
H1166 C1180 0.960 . S
H1167 C1180 0.960 . S
C1168 H1160 0.929 . S
C1168 C1169 1.377 1_565 S
C1168 C1170 1.384 1_565 S
C1169 C1168 1.377 1_545 S
C1169 C1175 1.390 . S
C1170 H1161 0.930 1_545 S
C1170 C1168 1.384 1_545 S
C1170 C1171 1.372 . S
C1171 C1170 1.372 . S
C1171 C1172 1.400 . S
C1171 C1176 1.490 . S
C1172 H1162 0.930 . S
C1172 C1171 1.400 . S
C1172 C1175 1.386 . S
H1173 C1189 0.930 . S
H1174 C1190 0.931 . S
C1175 H1163 0.929 . S
C1175 C1169 1.390 . S
C1175 C1172 1.386 . S
C1176 C1171 1.490 . S
C1176 C1178 1.395 . S
C1176 C1179 1.403 . S
H1177 C1183 0.930 . S
C1178 H1164 0.930 . S
C1178 C1176 1.395 . S
C1178 C1181 1.403 . S
C1179 C1176 1.403 . S
C1179 C1180 1.524 1_545 S
C1179 C1183 1.400 . S
C1180 H1165 0.960 . S
C1180 H1166 0.960 . S
C1180 H1167 0.960 . S
C1180 C1179 1.524 1_565 S
C1181 C1178 1.403 . S
C1181 C1182 1.392 . S
C1181 C1185 1.495 . S
C1182 C1181 1.392 . S
C1182 C1183 1.385 . S
C1182 C1184 1.478 . S
C1183 H1177 0.930 . S
C1183 C1179 1.400 . S
C1183 C1182 1.385 . S
C1184 C1182 1.478 . S
C1184 C1186 1.381 . S
C1184 C1190 1.383 . S
C1185 C1181 1.495 . S
C1185 H1191 0.959 . S
C1185 H1192 0.961 . S
C1185 H1193 0.960 . S
C1186 C1184 1.381 . S
C1186 C1187 1.394 . S
C1186 H1194 0.930 . S
C1187 C1186 1.394 . S
C1187 C1188 1.383 . S
C1187 H1195 0.929 . S
C1188 C1187 1.383 . S
C1188 C1189 1.377 . S
C1189 H1173 0.930 . S
C1189 C1188 1.377 . S
C1189 C1190 1.379 . S
C1190 H1174 0.931 . S
C1190 C1184 1.383 . S
C1190 C1189 1.379 . S
H1191 C1185 0.959 . S
H1192 C1185 0.961 . S
H1193 C1185 0.960 . S
H1194 C1186 0.930 . S
H1195 C1187 0.929 . S
H1196 C1204 0.929 . S
H1197 C1206 0.930 . S
H1198 C1208 0.930 . S
H1199 C1211 0.929 . S
H1200 C1214 0.930 . S
H1201 C1216 0.960 . S
H1202 C1216 0.960 . S
H1203 C1216 0.960 . S
C1204 H1196 0.929 . S
C1204 C1205 1.377 . S
C1204 C1206 1.384 . S
C1205 C1204 1.377 . S
C1205 C1211 1.390 . S
C1206 H1197 0.930 . S
C1206 C1204 1.384 . S
C1206 C1207 1.372 . S
C1207 C1206 1.372 . S
C1207 C1208 1.400 . S
C1207 C1212 1.490 . S
C1208 H1198 0.930 . S
C1208 C1207 1.400 . S
C1208 C1211 1.386 . S
H1209 C1225 0.930 . S
H1210 C1226 0.931 . S
C1211 H1199 0.929 . S
C1211 C1205 1.390 . S
C1211 C1208 1.386 . S
C1212 C1207 1.490 . S
C1212 C1214 1.395 . S
C1212 C1215 1.403 . S
H1213 C1219 0.930 . S
C1214 H1200 0.930 . S
C1214 C1212 1.395 . S
C1214 C1217 1.403 . S
C1215 C1212 1.403 . S
C1215 C1216 1.524 . S
C1215 C1219 1.400 . S
C1216 H1201 0.960 . S
C1216 H1202 0.960 . S
C1216 H1203 0.960 . S
C1216 C1215 1.524 . S
C1217 C1214 1.403 . S
C1217 C1218 1.392 . S
C1217 C1221 1.495 . S
C1218 C1217 1.392 . S
C1218 C1219 1.385 . S
C1218 C1220 1.478 . S
C1219 H1213 0.930 . S
C1219 C1215 1.400 . S
C1219 C1218 1.385 . S
C1220 C1218 1.478 . S
C1220 C1222 1.381 . S
C1220 C1226 1.383 . S
C1221 C1217 1.495 . S
C1221 H1227 0.959 . S
C1221 H1228 0.961 . S
C1221 H1229 0.960 . S
C1222 C1220 1.381 . S
C1222 C1223 1.394 . S
C1222 H1230 0.930 . S
C1223 C1222 1.394 . S
C1223 C1224 1.383 . S
C1223 H1231 0.929 . S
C1224 C1223 1.383 . S
C1224 C1225 1.377 . S
C1225 H1209 0.930 . S
C1225 C1224 1.377 . S
C1225 C1226 1.379 . S
C1226 H1210 0.931 . S
C1226 C1220 1.383 . S
C1226 C1225 1.379 . S
H1227 C1221 0.959 . S
H1228 C1221 0.961 . S
H1229 C1221 0.960 . S
H1230 C1222 0.930 . S
H1231 C1223 0.929 . S
H1232 C1240 0.929 1_556 S
H1233 C1242 0.930 1_556 S
H1234 C1244 0.930 . S
H1235 C1247 0.929 . S
H1236 C1250 0.930 . S
H1237 C1252 0.960 . S
H1238 C1252 0.960 . S
H1239 C1252 0.960 . S
C1240 H1232 0.929 1_554 S
C1240 C1241 1.377 . S
C1240 C1242 1.384 . S
C1241 C1240 1.377 . S
C1241 C1247 1.390 . S
C1242 H1233 0.930 1_554 S
C1242 C1240 1.384 . S
C1242 C1243 1.372 . S
C1243 C1242 1.372 . S
C1243 C1244 1.400 . S
C1243 C1248 1.490 . S
C1244 H1234 0.930 . S
C1244 C1243 1.400 . S
C1244 C1247 1.386 . S
H1245 C1261 0.930 . S
H1246 C1262 0.931 . S
C1247 H1235 0.929 . S
C1247 C1241 1.390 . S
C1247 C1244 1.386 . S
C1248 C1243 1.490 . S
C1248 C1250 1.395 . S
C1248 C1251 1.403 . S
H1249 C1255 0.930 . S
C1250 H1236 0.930 . S
C1250 C1248 1.395 . S
C1250 C1253 1.403 . S
C1251 C1248 1.403 . S
C1251 C1252 1.524 . S
C1251 C1255 1.400 . S
C1252 H1237 0.960 . S
C1252 H1238 0.960 . S
C1252 H1239 0.960 . S
C1252 C1251 1.524 . S
C1253 C1250 1.403 . S
C1253 C1254 1.392 . S
C1253 C1257 1.495 . S
C1254 C1253 1.392 . S
C1254 C1255 1.385 . S
C1254 C1256 1.478 . S
C1255 H1249 0.930 . S
C1255 C1251 1.400 . S
C1255 C1254 1.385 . S
C1256 C1254 1.478 . S
C1256 C1258 1.381 . S
C1256 C1262 1.383 . S
C1257 C1253 1.495 . S
C1257 H1263 0.959 1_554 S
C1257 H1264 0.961 . S
C1257 H1265 0.960 1_554 S
C1258 C1256 1.381 . S
C1258 C1259 1.394 . S
C1258 H1266 0.930 . S
C1259 C1258 1.394 . S
C1259 C1260 1.383 . S
C1259 H1267 0.929 . S
C1260 C1259 1.383 . S
C1260 C1261 1.377 . S
C1261 H1245 0.930 . S
C1261 C1260 1.377 . S
C1261 C1262 1.379 . S
C1262 H1246 0.931 . S
C1262 C1256 1.383 . S
C1262 C1261 1.379 . S
H1263 C1257 0.959 1_556 S
H1264 C1257 0.961 . S
H1265 C1257 0.960 1_556 S
H1266 C1258 0.930 . S
H1267 C1259 0.929 . S
H1268 C1276 0.929 . S
H1269 C1278 0.930 . S
H1270 C1280 0.930 . S
H1271 C1283 0.929 . S
H1272 C1286 0.930 . S
H1273 C1288 0.960 . S
H1274 C1288 0.960 . S
H1275 C1288 0.960 . S
C1276 H1268 0.929 . S
C1276 C1277 1.377 1_554 S
C1276 C1278 1.384 . S
C1277 C1276 1.377 1_556 S
C1277 C1283 1.390 . S
C1278 H1269 0.930 . S
C1278 C1276 1.384 . S
C1278 C1279 1.361 1_554 S
C1279 C1278 1.361 1_556 S
C1279 C1280 1.426 . S
C1279 C1284 1.478 1_556 S
C1280 H1270 0.930 . S
C1280 C1279 1.426 . S
C1280 C1283 1.386 . S
H1281 C1297 0.930 . S
H1282 C1298 0.931 . S
C1283 H1271 0.929 . S
C1283 C1277 1.390 . S
C1283 C1280 1.386 . S
C1284 C1279 1.478 1_554 S
C1284 C1286 1.395 . S
C1284 C1287 1.403 1_554 S
H1285 C1291 0.930 . S
C1286 H1272 0.930 . S
C1286 C1284 1.395 . S
C1286 C1289 1.403 . S
C1287 C1284 1.403 1_556 S
C1287 C1288 1.524 . S
C1287 C1291 1.400 . S
C1288 H1273 0.960 . S
C1288 H1274 0.960 . S
C1288 H1275 0.960 . S
C1288 C1287 1.524 . S
C1289 C1286 1.403 . S
C1289 C1290 1.392 . S
C1289 C1293 1.495 . S
C1290 C1289 1.392 . S
C1290 C1291 1.385 1_554 S
C1290 C1292 1.478 . S
C1291 H1285 0.930 . S
C1291 C1287 1.400 . S
C1291 C1290 1.385 1_556 S
C1292 C1290 1.478 . S
C1292 C1294 1.381 . S
C1292 C1298 1.383 . S
C1293 C1289 1.495 . S
C1293 H1299 0.959 . S
C1293 H1300 0.961 . S
C1293 H1301 0.960 . S
C1294 C1292 1.381 . S
C1294 C1295 1.394 . S
C1294 H1302 0.930 . S
C1295 C1294 1.394 . S
C1295 C1296 1.383 . S
C1295 H1303 0.929 . S
C1296 C1295 1.383 . S
C1296 C1297 1.377 . S
C1297 H1281 0.930 . S
C1297 C1296 1.377 . S
C1297 C1298 1.379 . S
C1298 H1282 0.931 . S
C1298 C1292 1.383 . S
C1298 C1297 1.379 . S
H1299 C1293 0.959 . S
H1300 C1293 0.961 . S
H1301 C1293 0.960 . S
H1302 C1294 0.930 . S
H1303 C1295 0.929 . S
H1304 C1312 0.929 . S
H1305 C1314 0.930 . S
H1306 C1316 0.930 . S
H1307 C1319 0.929 . S
H1308 C1322 0.930 . S
H1309 C1324 0.960 . S
H1310 C1324 0.960 . S
H1311 C1324 0.960 . S
C1312 H1304 0.929 . S
C1312 C1313 1.377 . S
C1312 C1314 1.384 . S
C1313 C1312 1.377 . S
C1313 C1319 1.390 . S
C1314 H1305 0.930 . S
C1314 C1312 1.384 . S
C1314 C1315 1.372 . S
C1315 C1314 1.372 . S
C1315 C1316 1.400 . S
C1315 C1320 1.490 . S
C1316 H1306 0.930 . S
C1316 C1315 1.400 . S
C1316 C1319 1.386 . S
H1317 C1333 0.930 . S
H1318 C1334 0.931 . S
C1319 H1307 0.929 . S
C1319 C1313 1.390 . S
C1319 C1316 1.386 . S
C1320 C1315 1.490 . S
C1320 C1322 1.395 . S
C1320 C1323 1.403 . S
H1321 C1327 0.930 . S
C1322 H1308 0.930 . S
C1322 C1320 1.395 . S
C1322 C1325 1.403 . S
C1323 C1320 1.403 . S
C1323 C1324 1.524 . S
C1323 C1327 1.400 . S
C1324 H1309 0.960 . S
C1324 H1310 0.960 . S
C1324 H1311 0.960 . S
C1324 C1323 1.524 . S
C1325 C1322 1.403 . S
C1325 C1326 1.392 . S
C1325 C1329 1.495 . S
C1326 C1325 1.392 . S
C1326 C1327 1.385 . S
C1326 C1328 1.478 . S
C1327 H1321 0.930 . S
C1327 C1323 1.400 . S
C1327 C1326 1.385 . S
C1328 C1326 1.478 . S
C1328 C1330 1.381 . S
C1328 C1334 1.383 . S
C1329 C1325 1.495 . S
C1329 H1335 0.959 . S
C1329 H1336 0.961 . S
C1329 H1337 0.960 . S
C1330 C1328 1.381 . S
C1330 C1331 1.394 . S
C1330 H1338 0.930 . S
C1331 C1330 1.394 . S
C1331 C1332 1.383 . S
C1331 H1339 0.929 . S
C1332 C1331 1.383 . S
C1332 C1333 1.377 . S
C1333 H1317 0.930 . S
C1333 C1332 1.377 . S
C1333 C1334 1.379 . S
C1334 H1318 0.931 . S
C1334 C1328 1.383 . S
C1334 C1333 1.379 . S
H1335 C1329 0.959 . S
H1336 C1329 0.961 . S
H1337 C1329 0.960 . S
H1338 C1330 0.930 . S
H1339 C1331 0.929 . S
H1340 C1348 0.929 . S
H1341 C1350 0.930 . S
H1342 C1352 0.930 . S
H1343 C1355 0.929 . S
H1344 C1358 0.930 . S
H1345 C1360 0.960 . S
H1346 C1360 0.960 . S
H1347 C1360 0.960 . S
C1348 H1340 0.929 . S
C1348 C1349 1.377 . S
C1348 C1350 1.384 . S
C1349 C1348 1.377 . S
C1349 C1355 1.390 . S
C1350 H1341 0.930 . S
C1350 C1348 1.384 . S
C1350 C1351 1.372 . S
C1351 C1350 1.372 . S
C1351 C1352 1.400 . S
C1351 C1356 1.490 . S
C1352 H1342 0.930 . S
C1352 C1351 1.400 . S
C1352 C1355 1.386 . S
H1353 C1369 0.930 . S
H1354 C1370 0.931 . S
C1355 H1343 0.929 . S
C1355 C1349 1.390 . S
C1355 C1352 1.386 . S
C1356 C1351 1.490 . S
C1356 C1358 1.395 . S
C1356 C1359 1.403 . S
H1357 C1363 0.930 . S
C1358 H1344 0.930 . S
C1358 C1356 1.395 . S
C1358 C1361 1.403 . S
C1359 C1356 1.403 . S
C1359 C1360 1.524 . S
C1359 C1363 1.400 . S
C1360 H1345 0.960 . S
C1360 H1346 0.960 . S
C1360 H1347 0.960 . S
C1360 C1359 1.524 . S
C1361 C1358 1.403 . S
C1361 C1362 1.392 . S
C1361 C1365 1.495 . S
C1362 C1361 1.392 . S
C1362 C1363 1.385 . S
C1362 C1364 1.478 . S
C1363 H1357 0.930 . S
C1363 C1359 1.400 . S
C1363 C1362 1.385 . S
C1364 C1362 1.478 . S
C1364 C1366 1.381 . S
C1364 C1370 1.383 . S
C1365 C1361 1.495 . S
C1365 H1371 0.959 . S
C1365 H1372 0.961 . S
C1365 H1373 0.960 . S
C1366 C1364 1.381 . S
C1366 C1367 1.394 . S
C1366 H1374 0.930 . S
C1367 C1366 1.394 . S
C1367 C1368 1.383 . S
C1367 H1375 0.929 . S
C1368 C1367 1.383 . S
C1368 C1369 1.377 . S
C1369 H1353 0.930 . S
C1369 C1368 1.377 . S
C1369 C1370 1.379 . S
C1370 H1354 0.931 . S
C1370 C1364 1.383 . S
C1370 C1369 1.379 . S
H1371 C1365 0.959 . S
H1372 C1365 0.961 . S
H1373 C1365 0.960 . S
H1374 C1366 0.930 . S
H1375 C1367 0.929 . S
H1376 C1384 0.929 . S
H1377 C1386 0.930 . S
H1378 C1388 0.930 . S
H1379 C1391 0.929 . S
H1380 C1394 0.930 . S
H1381 C1396 0.960 . S
H1382 C1396 0.960 . S
H1383 C1396 0.960 . S
C1384 H1376 0.929 . S
C1384 C1385 1.377 . S
C1384 C1386 1.384 . S
C1385 C1384 1.377 . S
C1385 C1391 1.390 . S
C1386 H1377 0.930 . S
C1386 C1384 1.384 . S
C1386 C1387 1.372 . S
C1387 C1386 1.372 . S
C1387 C1388 1.400 . S
C1387 C1392 1.490 . S
C1388 H1378 0.930 . S
C1388 C1387 1.400 . S
C1388 C1391 1.386 . S
H1389 C1405 0.930 . S
H1390 C1406 0.931 . S
C1391 H1379 0.929 . S
C1391 C1385 1.390 . S
C1391 C1388 1.386 . S
C1392 C1387 1.490 . S
C1392 C1394 1.395 . S
C1392 C1395 1.403 . S
H1393 C1399 0.930 . S
C1394 H1380 0.930 . S
C1394 C1392 1.395 . S
C1394 C1397 1.403 . S
C1395 C1392 1.403 . S
C1395 C1396 1.524 . S
C1395 C1399 1.400 . S
C1396 H1381 0.960 . S
C1396 H1382 0.960 . S
C1396 H1383 0.960 . S
C1396 C1395 1.524 . S
C1397 C1394 1.403 . S
C1397 C1398 1.392 . S
C1397 C1401 1.495 . S
C1398 C1397 1.392 . S
C1398 C1399 1.385 . S
C1398 C1400 1.478 . S
C1399 H1393 0.930 . S
C1399 C1395 1.400 . S
C1399 C1398 1.385 . S
C1400 C1398 1.478 . S
C1400 C1402 1.381 . S
C1400 C1406 1.383 . S
C1401 C1397 1.495 . S
C1401 H1407 0.959 . S
C1401 H1408 0.961 . S
C1401 H1409 0.960 . S
C1402 C1400 1.381 . S
C1402 C1403 1.394 . S
C1402 H1410 0.930 . S
C1403 C1402 1.394 . S
C1403 C1404 1.383 . S
C1403 H1411 0.929 . S
C1404 C1403 1.383 . S
C1404 C1405 1.377 . S
C1405 H1389 0.930 . S
C1405 C1404 1.377 . S
C1405 C1406 1.379 . S
C1406 H1390 0.931 . S
C1406 C1400 1.383 . S
C1406 C1405 1.379 . S
H1407 C1401 0.959 . S
H1408 C1401 0.961 . S
H1409 C1401 0.960 . S
H1410 C1402 0.930 . S
H1411 C1403 0.929 . S
H1412 C1420 0.929 . S
H1413 C1422 0.930 . S
H1414 C1424 0.930 . S
H1415 C1427 0.929 . S
H1416 C1430 0.930 . S
H1417 C1432 0.960 . S
H1418 C1432 0.960 . S
H1419 C1432 0.960 . S
C1420 H1412 0.929 . S
C1420 C1421 1.377 . S
C1420 C1422 1.384 . S
C1421 C1420 1.377 . S
C1421 C1427 1.390 . S
C1422 H1413 0.930 . S
C1422 C1420 1.384 . S
C1422 C1423 1.372 . S
C1423 C1422 1.372 . S
C1423 C1424 1.400 . S
C1423 C1428 1.490 . S
C1424 H1414 0.930 . S
C1424 C1423 1.400 . S
C1424 C1427 1.386 . S
H1425 C1441 0.930 . S
H1426 C1442 0.931 . S
C1427 H1415 0.929 . S
C1427 C1421 1.390 . S
C1427 C1424 1.386 . S
C1428 C1423 1.490 . S
C1428 C1430 1.395 . S
C1428 C1431 1.403 . S
H1429 C1435 0.930 . S
C1430 H1416 0.930 . S
C1430 C1428 1.395 . S
C1430 C1433 1.403 . S
C1431 C1428 1.403 . S
C1431 C1432 1.524 . S
C1431 C1435 1.400 . S
C1432 H1417 0.960 . S
C1432 H1418 0.960 . S
C1432 H1419 0.960 . S
C1432 C1431 1.524 . S
C1433 C1430 1.403 . S
C1433 C1434 1.392 . S
C1433 C1437 1.495 . S
C1434 C1433 1.392 . S
C1434 C1435 1.385 . S
C1434 C1436 1.478 . S
C1435 H1429 0.930 . S
C1435 C1431 1.400 . S
C1435 C1434 1.385 . S
C1436 C1434 1.478 . S
C1436 C1438 1.381 . S
C1436 C1442 1.383 . S
C1437 C1433 1.495 . S
C1437 H1443 0.959 . S
C1437 H1444 0.961 . S
C1437 H1445 0.960 . S
C1438 C1436 1.381 . S
C1438 C1439 1.394 . S
C1438 H1446 0.930 . S
C1439 C1438 1.394 . S
C1439 C1440 1.383 . S
C1439 H1447 0.929 . S
C1440 C1439 1.383 . S
C1440 C1441 1.377 . S
C1441 H1425 0.930 . S
C1441 C1440 1.377 . S
C1441 C1442 1.379 . S
C1442 H1426 0.931 . S
C1442 C1436 1.383 . S
C1442 C1441 1.379 . S
H1443 C1437 0.959 . S
H1444 C1437 0.961 . S
H1445 C1437 0.960 . S
H1446 C1438 0.930 . S
H1447 C1439 0.929 . S
H1448 C1456 0.929 . S
H1449 C1458 0.930 . S
H1450 C1460 0.930 . S
H1451 C1463 0.929 . S
H1452 C1466 0.930 . S
H1453 C1468 0.960 . S
H1454 C1468 0.960 . S
H1455 C1468 0.960 . S
C1456 H1448 0.929 . S
C1456 C1457 1.377 . S
C1456 C1458 1.384 . S
C1457 C1456 1.377 . S
C1457 C1463 1.390 . S
C1458 H1449 0.930 . S
C1458 C1456 1.384 . S
C1458 C1459 1.372 . S
C1459 C1458 1.372 . S
C1459 C1460 1.400 . S
C1459 C1464 1.490 . S
C1460 H1450 0.930 . S
C1460 C1459 1.400 . S
C1460 C1463 1.386 . S
H1461 C1477 0.930 . S
H1462 C1478 0.931 . S
C1463 H1451 0.929 . S
C1463 C1457 1.390 . S
C1463 C1460 1.386 . S
C1464 C1459 1.490 . S
C1464 C1466 1.395 . S
C1464 C1467 1.403 . S
H1465 C1471 0.930 . S
C1466 H1452 0.930 . S
C1466 C1464 1.395 . S
C1466 C1469 1.403 . S
C1467 C1464 1.403 . S
C1467 C1468 1.524 . S
C1467 C1471 1.400 . S
C1468 H1453 0.960 . S
C1468 H1454 0.960 . S
C1468 H1455 0.960 . S
C1468 C1467 1.524 . S
C1469 C1466 1.403 . S
C1469 C1470 1.392 . S
C1469 C1473 1.495 . S
C1470 C1469 1.392 . S
C1470 C1471 1.385 . S
C1470 C1472 1.478 . S
C1471 H1465 0.930 . S
C1471 C1467 1.400 . S
C1471 C1470 1.385 . S
C1472 C1470 1.478 . S
C1472 C1474 1.381 . S
C1472 C1478 1.383 . S
C1473 C1469 1.495 . S
C1473 H1479 0.959 . S
C1473 H1480 0.961 . S
C1473 H1481 0.960 . S
C1474 C1472 1.381 . S
C1474 C1475 1.394 . S
C1474 H1482 0.930 . S
C1475 C1474 1.394 . S
C1475 C1476 1.383 . S
C1475 H1483 0.929 . S
C1476 C1475 1.383 . S
C1476 C1477 1.377 . S
C1477 H1461 0.930 . S
C1477 C1476 1.377 . S
C1477 C1478 1.379 . S
C1478 H1462 0.931 . S
C1478 C1472 1.383 . S
C1478 C1477 1.379 . S
H1479 C1473 0.959 . S
H1480 C1473 0.961 . S
H1481 C1473 0.960 . S
H1482 C1474 0.930 . S
H1483 C1475 0.929 . S
H1484 C1492 0.929 . S
H1485 C1494 0.930 . S
H1486 C1496 0.930 . S
H1487 C1499 0.929 . S
H1488 C1502 0.930 . S
H1489 C1504 0.960 . S
H1490 C1504 0.960 . S
H1491 C1504 0.960 . S
C1492 H1484 0.929 . S
C1492 C1493 1.377 . S
C1492 C1494 1.384 . S
C1493 C1492 1.377 . S
C1493 C1499 1.390 . S
C1494 H1485 0.930 . S
C1494 C1492 1.384 . S
C1494 C1495 1.372 . S
C1495 C1494 1.372 . S
C1495 C1496 1.400 . S
C1495 C1500 1.490 . S
C1496 H1486 0.930 . S
C1496 C1495 1.400 . S
C1496 C1499 1.386 . S
H1497 C1513 0.930 . S
H1498 C1514 0.931 . S
C1499 H1487 0.929 . S
C1499 C1493 1.390 . S
C1499 C1496 1.386 . S
C1500 C1495 1.490 . S
C1500 C1502 1.395 . S
C1500 C1503 1.403 . S
H1501 C1507 0.930 . S
C1502 H1488 0.930 . S
C1502 C1500 1.395 . S
C1502 C1505 1.403 . S
C1503 C1500 1.403 . S
C1503 C1504 1.524 . S
C1503 C1507 1.400 . S
C1504 H1489 0.960 . S
C1504 H1490 0.960 . S
C1504 H1491 0.960 . S
C1504 C1503 1.524 . S
C1505 C1502 1.403 . S
C1505 C1506 1.392 . S
C1505 C1509 1.495 . S
C1506 C1505 1.392 . S
C1506 C1507 1.385 . S
C1506 C1508 1.478 . S
C1507 H1501 0.930 . S
C1507 C1503 1.400 . S
C1507 C1506 1.385 . S
C1508 C1506 1.478 . S
C1508 C1510 1.381 . S
C1508 C1514 1.383 . S
C1509 C1505 1.495 . S
C1509 H1515 0.959 . S
C1509 H1516 0.961 . S
C1509 H1517 0.960 . S
C1510 C1508 1.381 . S
C1510 C1511 1.394 . S
C1510 H1518 0.930 . S
C1511 C1510 1.394 . S
C1511 C1512 1.383 . S
C1511 H1519 0.929 . S
C1512 C1511 1.383 . S
C1512 C1513 1.377 . S
C1513 H1497 0.930 . S
C1513 C1512 1.377 . S
C1513 C1514 1.379 . S
C1514 H1498 0.931 . S
C1514 C1508 1.383 . S
C1514 C1513 1.379 . S
H1515 C1509 0.959 . S
H1516 C1509 0.961 . S
H1517 C1509 0.960 . S
H1518 C1510 0.930 . S
H1519 C1511 0.929 . S
H1520 C1528 0.929 . S
H1521 C1530 0.930 . S
H1522 C1532 0.930 . S
H1523 C1535 0.929 . S
H1524 C1538 0.930 . S
H1525 C1540 0.960 . S
H1526 C1540 0.960 . S
H1527 C1540 0.960 . S
C1528 H1520 0.929 . S
C1528 C1529 1.377 . S
C1528 C1530 1.384 . S
C1529 C1528 1.377 . S
C1529 C1535 1.390 . S
C1530 H1521 0.930 . S
C1530 C1528 1.384 . S
C1530 C1531 1.372 . S
C1531 C1530 1.372 . S
C1531 C1532 1.400 . S
C1531 C1536 1.490 . S
C1532 H1522 0.930 . S
C1532 C1531 1.400 . S
C1532 C1535 1.386 . S
H1533 C1549 0.930 . S
H1534 C1550 0.931 . S
C1535 H1523 0.929 . S
C1535 C1529 1.390 . S
C1535 C1532 1.386 . S
C1536 C1531 1.490 . S
C1536 C1538 1.395 . S
C1536 C1539 1.403 . S
H1537 C1543 0.930 1_655 S
C1538 H1524 0.930 . S
C1538 C1536 1.395 . S
C1538 C1541 1.403 . S
C1539 C1536 1.403 . S
C1539 C1540 1.524 1_455 S
C1539 C1543 1.400 . S
C1540 H1525 0.960 . S
C1540 H1526 0.960 . S
C1540 H1527 0.960 . S
C1540 C1539 1.524 1_655 S
C1541 C1538 1.403 . S
C1541 C1542 1.392 . S
C1541 C1545 1.495 . S
C1542 C1541 1.392 . S
C1542 C1543 1.385 . S
C1542 C1544 1.478 . S
C1543 H1537 0.930 1_455 S
C1543 C1539 1.400 . S
C1543 C1542 1.385 . S
C1544 C1542 1.478 . S
C1544 C1546 1.381 . S
C1544 C1550 1.383 . S
C1545 C1541 1.495 . S
C1545 H1551 0.959 . S
C1545 H1552 0.961 . S
C1545 H1553 0.960 . S
C1546 C1544 1.381 . S
C1546 C1547 1.394 . S
C1546 H1554 0.930 . S
C1547 C1546 1.394 . S
C1547 C1548 1.383 . S
C1547 H1555 0.929 . S
C1548 C1547 1.383 . S
C1548 C1549 1.377 . S
C1549 H1533 0.930 . S
C1549 C1548 1.377 . S
C1549 C1550 1.379 . S
C1550 H1534 0.931 . S
C1550 C1544 1.383 . S
C1550 C1549 1.379 . S
H1551 C1545 0.959 . S
H1552 C1545 0.961 . S
H1553 C1545 0.960 . S
H1554 C1546 0.930 . S
H1555 C1547 0.929 . S
H1556 C1564 0.929 . S
H1557 C1566 0.930 . S
H1558 C1568 0.930 . S
H1559 C1571 0.929 . S
H1560 C1574 0.930 . S
H1561 C1576 0.960 . S
H1562 C1576 0.960 . S
H1563 C1576 0.960 . S
C1564 H1556 0.929 . S
C1564 C1565 1.377 . S
C1564 C1566 1.384 . S
C1565 C1564 1.377 . S
C1565 C1571 1.390 . S
C1566 H1557 0.930 . S
C1566 C1564 1.384 . S
C1566 C1567 1.372 . S
C1567 C1566 1.372 . S
C1567 C1568 1.400 . S
C1567 C1572 1.490 . S
C1568 H1558 0.930 . S
C1568 C1567 1.400 . S
C1568 C1571 1.386 . S
H1569 C1585 0.930 . S
H1570 C1586 0.931 . S
C1571 H1559 0.929 . S
C1571 C1565 1.390 . S
C1571 C1568 1.386 . S
C1572 C1567 1.490 . S
C1572 C1574 1.395 . S
C1572 C1575 1.403 . S
H1573 C1579 0.930 . S
C1574 H1560 0.930 . S
C1574 C1572 1.395 . S
C1574 C1577 1.403 . S
C1575 C1572 1.403 . S
C1575 C1576 1.524 . S
C1575 C1579 1.400 . S
C1576 H1561 0.960 . S
C1576 H1562 0.960 . S
C1576 H1563 0.960 . S
C1576 C1575 1.524 . S
C1577 C1574 1.403 . S
C1577 C1578 1.392 . S
C1577 C1581 1.495 . S
C1578 C1577 1.392 . S
C1578 C1579 1.385 . S
C1578 C1580 1.478 . S
C1579 H1573 0.930 . S
C1579 C1575 1.400 . S
C1579 C1578 1.385 . S
C1580 C1578 1.478 . S
C1580 C1582 1.381 . S
C1580 C1586 1.383 . S
C1581 C1577 1.495 . S
C1581 H1587 0.959 . S
C1581 H1588 0.961 . S
C1581 H1589 0.960 . S
C1582 C1580 1.381 . S
C1582 C1583 1.394 . S
C1582 H1590 0.930 . S
C1583 C1582 1.394 . S
C1583 C1584 1.383 . S
C1583 H1591 0.929 . S
C1584 C1583 1.383 . S
C1584 C1585 1.377 . S
C1585 H1569 0.930 . S
C1585 C1584 1.377 . S
C1585 C1586 1.379 . S
C1586 H1570 0.931 . S
C1586 C1580 1.383 . S
C1586 C1585 1.379 . S
H1587 C1581 0.959 . S
H1588 C1581 0.961 . S
H1589 C1581 0.960 . S
H1590 C1582 0.930 . S
H1591 C1583 0.929 . S
H1592 C1600 0.929 . S
H1593 C1602 0.930 . S
H1594 C1604 0.930 . S
H1595 C1607 0.929 . S
H1596 C1610 0.930 . S
H1597 C1612 0.960 . S
H1598 C1612 0.960 . S
H1599 C1612 0.960 . S
C1600 H1592 0.929 . S
C1600 C1601 1.377 . S
C1600 C1602 1.384 . S
C1601 C1600 1.377 . S
C1601 C1607 1.390 . S
C1602 H1593 0.930 . S
C1602 C1600 1.384 . S
C1602 C1603 1.372 . S
C1603 C1602 1.372 . S
C1603 C1604 1.400 . S
C1603 C1608 1.490 . S
C1604 H1594 0.930 . S
C1604 C1603 1.400 . S
C1604 C1607 1.386 . S
H1605 C1621 0.930 . S
H1606 C1622 0.931 . S
C1607 H1595 0.929 . S
C1607 C1601 1.390 . S
C1607 C1604 1.386 . S
C1608 C1603 1.490 . S
C1608 C1610 1.395 . S
C1608 C1611 1.403 . S
H1609 C1615 0.930 . S
C1610 H1596 0.930 . S
C1610 C1608 1.395 . S
C1610 C1613 1.403 . S
C1611 C1608 1.403 . S
C1611 C1612 1.524 . S
C1611 C1615 1.400 . S
C1612 H1597 0.960 . S
C1612 H1598 0.960 . S
C1612 H1599 0.960 . S
C1612 C1611 1.524 . S
C1613 C1610 1.403 . S
C1613 C1614 1.392 . S
C1613 C1617 1.495 . S
C1614 C1613 1.392 . S
C1614 C1615 1.385 . S
C1614 C1616 1.478 . S
C1615 H1609 0.930 . S
C1615 C1611 1.400 . S
C1615 C1614 1.385 . S
C1616 C1614 1.478 . S
C1616 C1618 1.381 . S
C1616 C1622 1.383 . S
C1617 C1613 1.495 . S
C1617 H1623 0.959 . S
C1617 H1624 0.961 . S
C1617 H1625 0.960 . S
C1618 C1616 1.381 . S
C1618 C1619 1.394 . S
C1618 H1626 0.930 . S
C1619 C1618 1.394 . S
C1619 C1620 1.383 . S
C1619 H1627 0.929 . S
C1620 C1619 1.383 . S
C1620 C1621 1.377 . S
C1621 H1605 0.930 . S
C1621 C1620 1.377 . S
C1621 C1622 1.379 . S
C1622 H1606 0.931 . S
C1622 C1616 1.383 . S
C1622 C1621 1.379 . S
H1623 C1617 0.959 . S
H1624 C1617 0.961 . S
H1625 C1617 0.960 . S
H1626 C1618 0.930 . S
H1627 C1619 0.929 . S
H1628 C1636 0.929 . S
H1629 C1638 0.930 . S
H1630 C1640 0.930 . S
H1631 C1643 0.929 . S
H1632 C1646 0.930 . S
H1633 C1648 0.960 . S
H1634 C1648 0.960 . S
H1635 C1648 0.960 . S
C1636 H1628 0.929 . S
C1636 C1637 1.377 . S
C1636 C1638 1.384 . S
C1637 C1636 1.377 . S
C1637 C1643 1.390 . S
C1638 H1629 0.930 . S
C1638 C1636 1.384 . S
C1638 C1639 1.372 . S
C1639 C1638 1.372 . S
C1639 C1640 1.400 . S
C1639 C1644 1.490 . S
C1640 H1630 0.930 . S
C1640 C1639 1.400 . S
C1640 C1643 1.386 . S
H1641 C1657 0.930 . S
H1642 C1658 0.931 . S
C1643 H1631 0.929 . S
C1643 C1637 1.390 . S
C1643 C1640 1.386 . S
C1644 C1639 1.490 . S
C1644 C1646 1.395 . S
C1644 C1647 1.403 . S
H1645 C1651 0.930 . S
C1646 H1632 0.930 . S
C1646 C1644 1.395 . S
C1646 C1649 1.403 . S
C1647 C1644 1.403 . S
C1647 C1648 1.524 . S
C1647 C1651 1.400 . S
C1648 H1633 0.960 . S
C1648 H1634 0.960 . S
C1648 H1635 0.960 . S
C1648 C1647 1.524 . S
C1649 C1646 1.403 . S
C1649 C1650 1.392 . S
C1649 C1653 1.495 . S
C1650 C1649 1.392 . S
C1650 C1651 1.385 . S
C1650 C1652 1.478 . S
C1651 H1645 0.930 . S
C1651 C1647 1.400 . S
C1651 C1650 1.385 . S
C1652 C1650 1.478 . S
C1652 C1654 1.381 . S
C1652 C1658 1.383 . S
C1653 C1649 1.495 . S
C1653 H1659 0.959 . S
C1653 H1660 0.961 . S
C1653 H1661 0.960 . S
C1654 C1652 1.381 . S
C1654 C1655 1.394 . S
C1654 H1662 0.930 . S
C1655 C1654 1.394 . S
C1655 C1656 1.383 . S
C1655 H1663 0.929 . S
C1656 C1655 1.383 . S
C1656 C1657 1.377 . S
C1657 H1641 0.930 . S
C1657 C1656 1.377 . S
C1657 C1658 1.379 . S
C1658 H1642 0.931 . S
C1658 C1652 1.383 . S
C1658 C1657 1.379 . S
H1659 C1653 0.959 . S
H1660 C1653 0.961 . S
H1661 C1653 0.960 . S
H1662 C1654 0.930 . S
H1663 C1655 0.929 . S
H1664 C1672 0.929 . S
H1665 C1674 0.930 . S
H1666 C1676 0.929 . S
H1667 C1679 0.929 . S
H1668 C1682 0.931 1_655 S
H1669 C1684 0.960 . S
H1670 C1684 0.960 . S
H1671 C1684 0.960 . S
C1672 H1664 0.929 . S
C1672 C1673 1.377 . S
C1672 C1674 1.384 . S
C1673 C1672 1.377 . S
C1673 C1679 1.390 . S
C1674 H1665 0.930 . S
C1674 C1672 1.384 . S
C1674 C1675 1.372 . S
C1675 C1674 1.372 . S
C1675 C1676 1.400 . S
C1675 C1680 1.490 . S
C1676 H1666 0.929 . S
C1676 C1675 1.400 . S
C1676 C1679 1.386 . S
H1677 C1693 0.930 . S
H1678 C1694 0.931 . S
C1679 H1667 0.929 . S
C1679 C1673 1.390 . S
C1679 C1676 1.386 . S
C1680 C1675 1.490 . S
C1680 C1682 1.395 . S
C1680 C1683 1.403 . S
H1681 C1687 0.930 . S
C1682 H1668 0.931 1_455 S
C1682 C1680 1.395 . S
C1682 C1685 1.403 . S
C1683 C1680 1.403 . S
C1683 C1684 1.524 . S
C1683 C1687 1.400 . S
C1684 H1669 0.960 . S
C1684 H1670 0.960 . S
C1684 H1671 0.960 . S
C1684 C1683 1.524 . S
C1685 C1682 1.403 . S
C1685 C1686 1.392 . S
C1685 C1689 1.495 1_455 S
C1686 C1685 1.392 . S
C1686 C1687 1.385 . S
C1686 C1688 1.478 . S
C1687 H1681 0.930 . S
C1687 C1683 1.400 . S
C1687 C1686 1.385 . S
C1688 C1686 1.478 . S
C1688 C1690 1.381 . S
C1688 C1694 1.383 1_455 S
C1689 C1685 1.495 1_655 S
C1689 H1695 0.959 . S
C1689 H1696 0.961 . S
C1689 H1697 0.937 1_655 S
C1690 C1688 1.381 . S
C1690 C1691 1.394 . S
C1690 H1698 0.930 . S
C1691 C1690 1.394 . S
C1691 C1692 1.383 . S
C1691 H1699 0.929 . S
C1692 C1691 1.383 . S
C1692 C1693 1.377 1_455 S
C1693 H1677 0.930 . S
C1693 C1692 1.377 1_655 S
C1693 C1694 1.379 . S
C1694 H1678 0.931 . S
C1694 C1688 1.383 1_655 S
C1694 C1693 1.379 . S
H1695 C1689 0.959 . S
H1696 C1689 0.961 . S
H1697 C1689 0.937 1_455 S
H1698 C1690 0.930 . S
H1699 C1691 0.929 . S
H1700 C1708 0.929 . S
H1701 C1710 0.930 . S
H1702 C1712 0.930 . S
H1703 C1715 0.929 . S
H1704 C1718 0.930 . S
H1705 C1720 0.960 . S
H1706 C1720 0.960 . S
H1707 C1720 0.960 . S
C1708 H1700 0.929 . S
C1708 C1709 1.377 . S
C1708 C1710 1.384 . S
C1709 C1708 1.377 . S
C1709 C1715 1.390 . S
C1710 H1701 0.930 . S
C1710 C1708 1.384 . S
C1710 C1711 1.372 . S
C1711 C1710 1.372 . S
C1711 C1712 1.400 . S
C1711 C1716 1.490 . S
C1712 H1702 0.930 . S
C1712 C1711 1.400 . S
C1712 C1715 1.386 . S
H1713 C1729 0.930 . S
H1714 C1730 0.931 . S
C1715 H1703 0.929 . S
C1715 C1709 1.390 . S
C1715 C1712 1.386 . S
C1716 C1711 1.490 . S
C1716 C1718 1.395 . S
C1716 C1719 1.403 . S
H1717 C1723 0.930 . S
C1718 H1704 0.930 . S
C1718 C1716 1.395 . S
C1718 C1721 1.403 . S
C1719 C1716 1.403 . S
C1719 C1720 1.524 . S
C1719 C1723 1.400 . S
C1720 H1705 0.960 . S
C1720 H1706 0.960 . S
C1720 H1707 0.960 . S
C1720 C1719 1.524 . S
C1721 C1718 1.403 . S
C1721 C1722 1.392 . S
C1721 C1725 1.495 . S
C1722 C1721 1.392 . S
C1722 C1723 1.385 . S
C1722 C1724 1.478 . S
C1723 H1717 0.930 . S
C1723 C1719 1.400 . S
C1723 C1722 1.385 . S
C1724 C1722 1.478 . S
C1724 C1726 1.381 . S
C1724 C1730 1.383 . S
C1725 C1721 1.495 . S
C1725 H1731 0.959 . S
C1725 H1732 0.961 . S
C1725 H1733 0.960 . S
C1726 C1724 1.381 . S
C1726 C1727 1.394 . S
C1726 H1734 0.930 . S
C1727 C1726 1.394 . S
C1727 C1728 1.383 . S
C1727 H1735 0.929 . S
C1728 C1727 1.383 . S
C1728 C1729 1.377 . S
C1729 H1713 0.930 . S
C1729 C1728 1.377 . S
C1729 C1730 1.379 . S
C1730 H1714 0.931 . S
C1730 C1724 1.383 . S
C1730 C1729 1.379 . S
H1731 C1725 0.959 . S
H1732 C1725 0.961 . S
H1733 C1725 0.960 . S
H1734 C1726 0.930 . S
H1735 C1727 0.929 . S
H1736 C1744 0.929 . S
H1737 C1746 0.930 . S
H1738 C1748 0.930 . S
H1739 C1751 0.929 . S
H1740 C1754 0.930 . S
H1741 C1756 0.960 . S
H1742 C1756 0.960 . S
H1743 C1756 0.960 . S
C1744 H1736 0.929 . S
C1744 C1745 1.377 . S
C1744 C1746 1.384 . S
C1745 C1744 1.377 . S
C1745 C1751 1.390 . S
C1746 H1737 0.930 . S
C1746 C1744 1.384 . S
C1746 C1747 1.372 . S
C1747 C1746 1.372 . S
C1747 C1748 1.400 . S
C1747 C1752 1.490 . S
C1748 H1738 0.930 . S
C1748 C1747 1.400 . S
C1748 C1751 1.386 . S
H1749 C1765 0.930 . S
H1750 C1766 0.931 . S
C1751 H1739 0.929 . S
C1751 C1745 1.390 . S
C1751 C1748 1.386 . S
C1752 C1747 1.490 . S
C1752 C1754 1.395 . S
C1752 C1755 1.403 . S
H1753 C1759 0.930 . S
C1754 H1740 0.930 . S
C1754 C1752 1.395 . S
C1754 C1757 1.403 . S
C1755 C1752 1.403 . S
C1755 C1756 1.524 . S
C1755 C1759 1.400 . S
C1756 H1741 0.960 . S
C1756 H1742 0.960 . S
C1756 H1743 0.960 . S
C1756 C1755 1.524 . S
C1757 C1754 1.403 . S
C1757 C1758 1.392 . S
C1757 C1761 1.495 . S
C1758 C1757 1.392 . S
C1758 C1759 1.385 . S
C1758 C1760 1.478 . S
C1759 H1753 0.930 . S
C1759 C1755 1.400 . S
C1759 C1758 1.385 . S
C1760 C1758 1.478 . S
C1760 C1762 1.381 1_556 S
C1760 C1766 1.383 . S
C1761 C1757 1.495 . S
C1761 H1767 0.959 . S
C1761 H1768 0.961 . S
C1761 H1769 0.960 1_556 S
C1762 C1760 1.381 1_554 S
C1762 C1763 1.394 . S
C1762 H1770 0.930 . S
C1763 C1762 1.394 . S
C1763 C1764 1.383 1_554 S
C1763 H1771 0.929 . S
C1764 C1763 1.383 1_556 S
C1764 C1765 1.377 . S
C1765 H1749 0.930 . S
C1765 C1764 1.377 . S
C1765 C1766 1.379 . S
C1766 H1750 0.931 . S
C1766 C1760 1.383 . S
C1766 C1765 1.379 . S
H1767 C1761 0.959 . S
H1768 C1761 0.961 . S
H1769 C1761 0.960 1_554 S
H1770 C1762 0.930 . S
H1771 C1763 0.929 . S
H1772 C1780 0.929 . S
H1773 C1782 0.930 . S
H1774 C1784 0.930 . S
H1775 C1787 0.929 . S
H1776 C1790 0.930 . S
H1777 C1792 0.960 . S
H1778 C1792 0.960 . S
H1779 C1792 0.960 . S
C1780 H1772 0.929 . S
C1780 C1781 1.377 . S
C1780 C1782 1.384 . S
C1781 C1780 1.377 . S
C1781 C1787 1.390 . S
C1782 H1773 0.930 . S
C1782 C1780 1.384 . S
C1782 C1783 1.372 . S
C1783 C1782 1.372 . S
C1783 C1784 1.400 . S
C1783 C1788 1.490 . S
C1784 H1774 0.930 . S
C1784 C1783 1.400 . S
C1784 C1787 1.386 . S
H1785 C1801 0.930 . S
H1786 C1802 0.931 . S
C1787 H1775 0.929 . S
C1787 C1781 1.390 . S
C1787 C1784 1.386 . S
C1788 C1783 1.490 . S
C1788 C1790 1.395 . S
C1788 C1791 1.403 . S
H1789 C1795 0.930 . S
C1790 H1776 0.930 . S
C1790 C1788 1.395 . S
C1790 C1793 1.403 . S
C1791 C1788 1.403 . S
C1791 C1792 1.524 . S
C1791 C1795 1.400 . S
C1792 H1777 0.960 . S
C1792 H1778 0.960 . S
C1792 H1779 0.960 . S
C1792 C1791 1.524 . S
C1793 C1790 1.403 . S
C1793 C1794 1.392 . S
C1793 C1797 1.495 . S
C1794 C1793 1.392 . S
C1794 C1795 1.385 . S
C1794 C1796 1.478 . S
C1795 H1789 0.930 . S
C1795 C1791 1.400 . S
C1795 C1794 1.385 . S
C1796 C1794 1.478 . S
C1796 C1798 1.381 . S
C1796 C1802 1.383 . S
C1797 C1793 1.495 . S
C1797 H1803 0.959 . S
C1797 H1804 0.961 . S
C1797 H1805 0.960 . S
C1798 C1796 1.381 . S
C1798 C1799 1.394 . S
C1798 H1806 0.930 . S
C1799 C1798 1.394 . S
C1799 C1800 1.383 . S
C1799 H1807 0.929 . S
C1800 C1799 1.383 . S
C1800 C1801 1.377 . S
C1801 H1785 0.930 . S
C1801 C1800 1.377 . S
C1801 C1802 1.379 . S
C1802 H1786 0.931 . S
C1802 C1796 1.383 . S
C1802 C1801 1.379 . S
H1803 C1797 0.959 . S
H1804 C1797 0.961 . S
H1805 C1797 0.960 . S
H1806 C1798 0.930 . S
H1807 C1799 0.929 . S
H1808 C1816 0.929 . S
H1809 C1818 0.930 . S
H1810 C1820 0.930 . S
H1811 C1823 0.929 . S
H1812 C1826 0.930 . S
H1813 C1828 0.960 . S
H1814 C1828 0.960 . S
H1815 C1828 0.960 . S
C1816 H1808 0.929 . S
C1816 C1817 1.377 1_565 S
C1816 C1818 1.384 . S
C1817 C1816 1.377 1_545 S
C1817 C1823 1.390 . S
C1818 H1809 0.930 . S
C1818 C1816 1.384 . S
C1818 C1819 1.372 1_565 S
C1819 C1818 1.372 1_545 S
C1819 C1820 1.400 . S
C1819 C1824 1.490 . S
C1820 H1810 0.930 . S
C1820 C1819 1.400 . S
C1820 C1823 1.386 . S
H1821 C1837 0.930 . S
H1822 C1838 0.931 . S
C1823 H1811 0.929 . S
C1823 C1817 1.390 . S
C1823 C1820 1.386 . S
C1824 C1819 1.490 . S
C1824 C1826 1.395 . S
C1824 C1827 1.403 . S
H1825 C1831 0.930 . S
C1826 H1812 0.930 . S
C1826 C1824 1.395 . S
C1826 C1829 1.403 . S
C1827 C1824 1.403 . S
C1827 C1828 1.524 . S
C1827 C1831 1.400 . S
C1828 H1813 0.960 . S
C1828 H1814 0.960 . S
C1828 H1815 0.960 . S
C1828 C1827 1.524 . S
C1829 C1826 1.403 . S
C1829 C1830 1.392 . S
C1829 C1833 1.495 1_545 S
C1830 C1829 1.392 . S
C1830 C1831 1.385 . S
C1830 C1832 1.478 . S
C1831 H1825 0.930 . S
C1831 C1827 1.400 . S
C1831 C1830 1.385 . S
C1832 C1830 1.478 . S
C1832 C1834 1.381 1_545 S
C1832 C1838 1.383 . S
C1833 C1829 1.495 1_565 S
C1833 H1839 0.959 . S
C1833 H1840 0.961 1_565 S
C1833 H1841 0.960 . S
C1834 C1832 1.381 1_565 S
C1834 C1835 1.394 . S
C1834 H1842 0.930 . S
C1835 C1834 1.394 . S
C1835 C1836 1.383 1_565 S
C1835 H1843 0.929 . S
C1836 C1835 1.383 1_545 S
C1836 C1837 1.377 . S
C1837 H1821 0.930 . S
C1837 C1836 1.377 . S
C1837 C1838 1.379 . S
C1838 H1822 0.931 . S
C1838 C1832 1.383 . S
C1838 C1837 1.379 . S
H1839 C1833 0.959 . S
H1840 C1833 0.961 1_545 S
H1841 C1833 0.960 . S
H1842 C1834 0.930 . S
H1843 C1835 0.929 . S
H1844 C1852 0.929 . S
H1845 C1854 0.930 . S
H1846 C1856 0.930 . S
H1847 C1859 0.929 . S
H1848 C1862 0.930 . S
H1849 C1864 0.960 . S
H1850 C1864 0.960 . S
H1851 C1864 0.960 . S
C1852 H1844 0.929 . S
C1852 C1853 1.377 . S
C1852 C1854 1.384 . S
C1853 C1852 1.377 . S
C1853 C1859 1.390 . S
C1854 H1845 0.930 . S
C1854 C1852 1.384 . S
C1854 C1855 1.372 . S
C1855 C1854 1.372 . S
C1855 C1856 1.400 . S
C1855 C1860 1.490 . S
C1856 H1846 0.930 . S
C1856 C1855 1.400 . S
C1856 C1859 1.386 . S
H1857 C1873 0.930 . S
H1858 C1874 0.931 . S
C1859 H1847 0.929 . S
C1859 C1853 1.390 . S
C1859 C1856 1.386 . S
C1860 C1855 1.490 . S
C1860 C1862 1.395 . S
C1860 C1863 1.403 . S
H1861 C1867 0.930 . S
C1862 H1848 0.930 . S
C1862 C1860 1.395 . S
C1862 C1865 1.403 . S
C1863 C1860 1.403 . S
C1863 C1864 1.524 . S
C1863 C1867 1.400 . S
C1864 H1849 0.960 . S
C1864 H1850 0.960 . S
C1864 H1851 0.960 . S
C1864 C1863 1.524 . S
C1865 C1862 1.403 . S
C1865 C1866 1.392 . S
C1865 C1869 1.495 . S
C1866 C1865 1.392 . S
C1866 C1867 1.385 . S
C1866 C1868 1.478 . S
C1867 H1861 0.930 . S
C1867 C1863 1.400 . S
C1867 C1866 1.385 . S
C1868 C1866 1.478 . S
C1868 C1870 1.381 . S
C1868 C1874 1.383 . S
C1869 C1865 1.495 . S
C1869 H1875 0.959 . S
C1869 H1876 0.961 . S
C1869 H1877 0.960 . S
C1870 C1868 1.381 . S
C1870 C1871 1.394 . S
C1870 H1878 0.930 . S
C1871 C1870 1.394 . S
C1871 C1872 1.383 . S
C1871 H1879 0.929 . S
C1872 C1871 1.383 . S
C1872 C1873 1.377 . S
C1873 H1857 0.930 . S
C1873 C1872 1.377 . S
C1873 C1874 1.379 . S
C1874 H1858 0.931 . S
C1874 C1868 1.383 . S
C1874 C1873 1.379 . S
H1875 C1869 0.959 . S
H1876 C1869 0.961 . S
H1877 C1869 0.960 . S
H1878 C1870 0.930 . S
H1879 C1871 0.929 . S
H1880 C1888 0.929 . S
H1881 C1890 0.930 . S
H1882 C1892 0.930 . S
H1883 C1895 0.929 . S
H1884 C1898 0.930 . S
H1885 C1900 0.960 . S
H1886 C1900 0.960 . S
H1887 C1900 0.960 . S
C1888 H1880 0.929 . S
C1888 C1889 1.377 . S
C1888 C1890 1.384 . S
C1889 C1888 1.377 . S
C1889 C1895 1.390 . S
C1890 H1881 0.930 . S
C1890 C1888 1.384 . S
C1890 C1891 1.372 . S
C1891 C1890 1.372 . S
C1891 C1892 1.400 . S
C1891 C1896 1.490 . S
C1892 H1882 0.930 . S
C1892 C1891 1.400 . S
C1892 C1895 1.386 . S
H1893 C1909 0.930 . S
H1894 C1910 0.931 . S
C1895 H1883 0.929 . S
C1895 C1889 1.390 . S
C1895 C1892 1.386 . S
C1896 C1891 1.490 . S
C1896 C1898 1.395 . S
C1896 C1899 1.403 . S
H1897 C1903 0.930 . S
C1898 H1884 0.930 . S
C1898 C1896 1.395 . S
C1898 C1901 1.403 . S
C1899 C1896 1.403 . S
C1899 C1900 1.524 . S
C1899 C1903 1.400 . S
C1900 H1885 0.960 . S
C1900 H1886 0.960 . S
C1900 H1887 0.960 . S
C1900 C1899 1.524 . S
C1901 C1898 1.403 . S
C1901 C1902 1.392 . S
C1901 C1905 1.495 1_545 S
C1902 C1901 1.392 . S
C1902 C1903 1.385 . S
C1902 C1904 1.478 . S
C1903 H1897 0.930 . S
C1903 C1899 1.400 . S
C1903 C1902 1.385 . S
C1904 C1902 1.478 . S
C1904 C1906 1.381 . S
C1904 C1910 1.383 . S
C1905 C1901 1.495 1_565 S
C1905 H1911 0.959 . S
C1905 H1912 0.961 . S
C1905 H1913 0.944 1_565 S
C1906 C1904 1.381 . S
C1906 C1907 1.394 . S
C1906 H1914 0.930 . S
C1907 C1906 1.394 . S
C1907 C1908 1.383 . S
C1907 H1915 0.929 . S
C1908 C1907 1.383 . S
C1908 C1909 1.377 . S
C1909 H1893 0.930 . S
C1909 C1908 1.377 . S
C1909 C1910 1.379 . S
C1910 H1894 0.931 . S
C1910 C1904 1.383 . S
C1910 C1909 1.379 . S
H1911 C1905 0.959 . S
H1912 C1905 0.961 . S
H1913 C1905 0.944 1_545 S
H1914 C1906 0.930 . S
H1915 C1907 0.929 . S
H1916 C1924 0.929 . S
H1917 C1926 0.930 . S
H1918 C1928 0.930 . S
H1919 C1931 0.929 . S
H1920 C1934 0.930 . S
H1921 C1936 0.960 . S
H1922 C1936 0.960 . S
H1923 C1936 0.960 . S
C1924 H1916 0.929 . S
C1924 C1925 1.377 . S
C1924 C1926 1.384 . S
C1925 C1924 1.377 . S
C1925 C1931 1.390 . S
C1926 H1917 0.930 . S
C1926 C1924 1.384 . S
C1926 C1927 1.372 . S
C1927 C1926 1.372 . S
C1927 C1928 1.400 . S
C1927 C1932 1.490 . S
C1928 H1918 0.930 . S
C1928 C1927 1.400 . S
C1928 C1931 1.386 . S
H1929 C1945 0.930 . S
H1930 C1946 0.931 . S
C1931 H1919 0.929 . S
C1931 C1925 1.390 . S
C1931 C1928 1.386 . S
C1932 C1927 1.490 . S
C1932 C1934 1.395 . S
C1932 C1935 1.403 . S
H1933 C1939 0.930 . S
C1934 H1920 0.930 . S
C1934 C1932 1.395 . S
C1934 C1937 1.403 . S
C1935 C1932 1.403 . S
C1935 C1936 1.524 . S
C1935 C1939 1.400 . S
C1936 H1921 0.960 . S
C1936 H1922 0.960 . S
C1936 H1923 0.960 . S
C1936 C1935 1.524 . S
C1937 C1934 1.403 . S
C1937 C1938 1.392 . S
C1937 C1941 1.495 . S
C1938 C1937 1.392 . S
C1938 C1939 1.385 . S
C1938 C1940 1.478 . S
C1939 H1933 0.930 . S
C1939 C1935 1.400 . S
C1939 C1938 1.385 . S
C1940 C1938 1.478 . S
C1940 C1942 1.381 . S
C1940 C1946 1.383 . S
C1941 C1937 1.495 . S
C1941 H1947 0.959 . S
C1941 H1948 0.961 . S
C1941 H1949 0.960 . S
C1942 C1940 1.381 . S
C1942 C1943 1.394 . S
C1942 H1950 0.930 . S
C1943 C1942 1.394 . S
C1943 C1944 1.383 . S
C1943 H1951 0.929 . S
C1944 C1943 1.383 . S
C1944 C1945 1.377 . S
C1945 H1929 0.930 . S
C1945 C1944 1.377 . S
C1945 C1946 1.379 . S
C1946 H1930 0.931 . S
C1946 C1940 1.383 . S
C1946 C1945 1.379 . S
H1947 C1941 0.959 . S
H1948 C1941 0.961 . S
H1949 C1941 0.960 . S
H1950 C1942 0.930 . S
H1951 C1943 0.929 . S
H1952 C1960 0.934 . S
H1953 C1962 0.922 1_565 S
H1954 C1964 0.930 . S
H1955 C1967 0.929 . S
H1956 C1970 0.930 . S
H1957 C1972 0.960 . S
H1958 C1972 0.960 . S
H1959 C1972 0.960 . S
C1960 H1952 0.934 . S
C1960 C1961 1.375 1_565 S
C1960 C1962 1.376 1_565 S
C1961 C1960 1.375 1_545 S
C1961 C1967 1.390 . S
C1962 H1953 0.922 1_545 S
C1962 C1960 1.376 1_545 S
C1962 C1963 1.387 . S
C1963 C1962 1.387 . S
C1963 C1964 1.400 . S
C1963 C1968 1.490 . S
C1964 H1954 0.930 . S
C1964 C1963 1.400 . S
C1964 C1967 1.386 . S
H1965 C1981 0.930 . S
H1966 C1982 0.931 . S
C1967 H1955 0.929 . S
C1967 C1961 1.390 . S
C1967 C1964 1.386 . S
C1968 C1963 1.490 . S
C1968 C1970 1.395 1_545 S
C1968 C1971 1.403 . S
H1969 C1975 0.930 . S
C1970 H1956 0.930 . S
C1970 C1968 1.395 1_565 S
C1970 C1973 1.403 . S
C1971 C1968 1.403 . S
C1971 C1972 1.524 . S
C1971 C1975 1.400 . S
C1972 H1957 0.960 . S
C1972 H1958 0.960 . S
C1972 H1959 0.960 . S
C1972 C1971 1.524 . S
C1973 C1970 1.403 . S
C1973 C1974 1.392 1_565 S
C1973 C1977 1.495 . S
C1974 C1973 1.392 1_545 S
C1974 C1975 1.385 . S
C1974 C1976 1.478 . S
C1975 H1969 0.930 . S
C1975 C1971 1.400 . S
C1975 C1974 1.385 . S
C1976 C1974 1.478 . S
C1976 C1978 1.381 . S
C1976 C1982 1.383 . S
C1977 C1973 1.495 . S
C1977 H1983 0.959 . S
C1977 H1984 0.961 . S
C1977 H1985 0.960 . S
C1978 C1976 1.381 . S
C1978 C1979 1.394 . S
C1978 H1986 0.930 . S
C1979 C1978 1.394 . S
C1979 C1980 1.383 . S
C1979 H1987 0.929 . S
C1980 C1979 1.383 . S
C1980 C1981 1.377 . S
C1981 H1965 0.930 . S
C1981 C1980 1.377 . S
C1981 C1982 1.379 . S
C1982 H1966 0.931 . S
C1982 C1976 1.383 . S
C1982 C1981 1.379 . S
H1983 C1977 0.959 . S
H1984 C1977 0.961 . S
H1985 C1977 0.960 . S
H1986 C1978 0.930 . S
H1987 C1979 0.929 . S
H1988 C1996 0.929 . S
H1989 C1998 0.930 . S
H1990 C2000 0.930 . S
H1991 C2003 0.929 . S
H1992 C2006 0.930 . S
H1993 C2008 0.960 . S
H1994 C2008 0.960 . S
H1995 C2008 0.960 . S
C1996 H1988 0.929 . S
C1996 C1997 1.377 . S
C1996 C1998 1.384 . S
C1997 C1996 1.377 . S
C1997 C2003 1.390 . S
C1998 H1989 0.930 . S
C1998 C1996 1.384 . S
C1998 C1999 1.372 . S
C1999 C1998 1.372 . S
C1999 C2000 1.400 . S
C1999 C2004 1.490 . S
C2000 H1990 0.930 . S
C2000 C1999 1.400 . S
C2000 C2003 1.386 . S
H2001 C2017 0.930 . S
H2002 C2018 0.931 . S
C2003 H1991 0.929 . S
C2003 C1997 1.390 . S
C2003 C2000 1.386 . S
C2004 C1999 1.490 . S
C2004 C2006 1.395 . S
C2004 C2007 1.403 . S
H2005 C2011 0.930 . S
C2006 H1992 0.930 . S
C2006 C2004 1.395 . S
C2006 C2009 1.403 . S
C2007 C2004 1.403 . S
C2007 C2008 1.524 . S
C2007 C2011 1.400 . S
C2008 H1993 0.960 . S
C2008 H1994 0.960 . S
C2008 H1995 0.960 . S
C2008 C2007 1.524 . S
C2009 C2006 1.403 . S
C2009 C2010 1.392 . S
C2009 C2013 1.495 . S
C2010 C2009 1.392 . S
C2010 C2011 1.385 . S
C2010 C2012 1.478 . S
C2011 H2005 0.930 . S
C2011 C2007 1.400 . S
C2011 C2010 1.385 . S
C2012 C2010 1.478 . S
C2012 C2014 1.381 . S
C2012 C2018 1.383 . S
C2013 C2009 1.495 . S
C2013 H2019 0.959 . S
C2013 H2020 0.961 . S
C2013 H2021 0.960 . S
C2014 C2012 1.381 . S
C2014 C2015 1.394 . S
C2014 H2022 0.930 . S
C2015 C2014 1.394 . S
C2015 C2016 1.383 . S
C2015 H2023 0.929 . S
C2016 C2015 1.383 . S
C2016 C2017 1.377 . S
C2017 H2001 0.930 . S
C2017 C2016 1.377 . S
C2017 C2018 1.379 . S
C2018 H2002 0.931 . S
C2018 C2012 1.383 . S
C2018 C2017 1.379 . S
H2019 C2013 0.959 . S
H2020 C2013 0.961 . S
H2021 C2013 0.960 . S
H2022 C2014 0.930 . S
H2023 C2015 0.929 . S
H2024 C2032 0.929 . S
H2025 C2034 0.930 . S
H2026 C2036 0.930 . S
H2027 C2039 0.929 . S
H2028 C2042 0.930 . S
H2029 C2044 0.960 1_565 S
H2030 C2044 0.960 1_565 S
H2031 C2044 0.960 . S
C2032 H2024 0.929 . S
C2032 C2033 1.377 . S
C2032 C2034 1.384 . S
C2033 C2032 1.377 . S
C2033 C2039 1.390 . S
C2034 H2025 0.930 . S
C2034 C2032 1.384 . S
C2034 C2035 1.372 . S
C2035 C2034 1.372 . S
C2035 C2036 1.400 . S
C2035 C2040 1.490 . S
C2036 H2026 0.930 . S
C2036 C2035 1.400 . S
C2036 C2039 1.386 . S
H2037 C2053 0.930 . S
H2038 C2054 0.931 . S
C2039 H2027 0.929 . S
C2039 C2033 1.390 . S
C2039 C2036 1.386 . S
C2040 C2035 1.490 . S
C2040 C2042 1.395 . S
C2040 C2043 1.403 . S
H2041 C2047 0.930 . S
C2042 H2028 0.930 . S
C2042 C2040 1.395 . S
C2042 C2045 1.403 . S
C2043 C2040 1.403 . S
C2043 C2044 1.524 . S
C2043 C2047 1.400 . S
C2044 H2029 0.960 1_545 S
C2044 H2030 0.960 1_545 S
C2044 H2031 0.960 . S
C2044 C2043 1.524 . S
C2045 C2042 1.403 . S
C2045 C2046 1.392 . S
C2045 C2049 1.495 . S
C2046 C2045 1.392 . S
C2046 C2047 1.385 . S
C2046 C2048 1.478 . S
C2047 H2041 0.930 . S
C2047 C2043 1.400 . S
C2047 C2046 1.385 . S
C2048 C2046 1.478 . S
C2048 C2050 1.381 . S
C2048 C2054 1.383 . S
C2049 C2045 1.495 . S
C2049 H2055 0.959 . S
C2049 H2056 0.961 . S
C2049 H2057 0.960 . S
C2050 C2048 1.381 . S
C2050 C2051 1.394 1_545 S
C2050 H2058 0.930 1_545 S
C2051 C2050 1.394 1_565 S
C2051 C2052 1.383 1_565 S
C2051 H2059 0.929 . S
C2052 C2051 1.383 1_545 S
C2052 C2053 1.377 . S
C2053 H2037 0.930 . S
C2053 C2052 1.377 . S
C2053 C2054 1.379 . S
C2054 H2038 0.931 . S
C2054 C2048 1.383 . S
C2054 C2053 1.379 . S
H2055 C2049 0.959 . S
H2056 C2049 0.961 . S
H2057 C2049 0.960 . S
H2058 C2050 0.930 1_565 S
H2059 C2051 0.929 . S
H2060 C2068 0.929 . S
H2061 C2070 0.930 . S
H2062 C2072 0.930 . S
H2063 C2075 0.929 . S
H2064 C2078 0.930 . S
H2065 C2080 0.960 . S
H2066 C2080 0.960 . S
H2067 C2080 0.960 . S
C2068 H2060 0.929 . S
C2068 C2069 1.377 . S
C2068 C2070 1.384 . S
C2069 C2068 1.377 . S
C2069 C2075 1.390 . S
C2070 H2061 0.930 . S
C2070 C2068 1.384 . S
C2070 C2071 1.372 . S
C2071 C2070 1.372 . S
C2071 C2072 1.400 . S
C2071 C2076 1.490 . S
C2072 H2062 0.930 . S
C2072 C2071 1.400 . S
C2072 C2075 1.386 . S
H2073 C2089 0.930 . S
H2074 C2090 0.931 . S
C2075 H2063 0.929 . S
C2075 C2069 1.390 . S
C2075 C2072 1.386 . S
C2076 C2071 1.490 . S
C2076 C2078 1.395 . S
C2076 C2079 1.403 . S
H2077 C2083 0.930 . S
C2078 H2064 0.930 . S
C2078 C2076 1.395 . S
C2078 C2081 1.403 . S
C2079 C2076 1.403 . S
C2079 C2080 1.524 . S
C2079 C2083 1.400 . S
C2080 H2065 0.960 . S
C2080 H2066 0.960 . S
C2080 H2067 0.960 . S
C2080 C2079 1.524 . S
C2081 C2078 1.403 . S
C2081 C2082 1.392 . S
C2081 C2085 1.495 . S
C2082 C2081 1.392 . S
C2082 C2083 1.385 . S
C2082 C2084 1.478 . S
C2083 H2077 0.930 . S
C2083 C2079 1.400 . S
C2083 C2082 1.385 . S
C2084 C2082 1.478 . S
C2084 C2086 1.381 . S
C2084 C2090 1.383 . S
C2085 C2081 1.495 . S
C2085 H2091 0.959 . S
C2085 H2092 0.961 . S
C2085 H2093 0.960 . S
C2086 C2084 1.381 . S
C2086 C2087 1.394 . S
C2086 H2094 0.930 . S
C2087 C2086 1.394 . S
C2087 C2088 1.383 . S
C2087 H2095 0.929 . S
C2088 C2087 1.383 . S
C2088 C2089 1.377 . S
C2089 H2073 0.930 . S
C2089 C2088 1.377 . S
C2089 C2090 1.379 . S
C2090 H2074 0.931 . S
C2090 C2084 1.383 . S
C2090 C2089 1.379 . S
H2091 C2085 0.959 . S
H2092 C2085 0.961 . S
H2093 C2085 0.960 . S
H2094 C2086 0.930 . S
H2095 C2087 0.929 . S
H2096 C2104 0.929 . S
H2097 C2106 0.930 . S
H2098 C2108 0.930 . S
H2099 C2111 0.929 . S
H2100 C2114 0.930 . S
H2101 C2116 0.960 . S
H2102 C2116 0.960 . S
H2103 C2116 0.960 . S
C2104 H2096 0.929 . S
C2104 C2105 1.377 . S
C2104 C2106 1.384 . S
C2105 C2104 1.377 . S
C2105 C2111 1.390 . S
C2106 H2097 0.930 . S
C2106 C2104 1.384 . S
C2106 C2107 1.372 . S
C2107 C2106 1.372 . S
C2107 C2108 1.400 . S
C2107 C2112 1.490 . S
C2108 H2098 0.930 . S
C2108 C2107 1.400 . S
C2108 C2111 1.386 . S
H2109 C2125 0.941 . S
H2110 C2126 0.931 . S
C2111 H2099 0.929 . S
C2111 C2105 1.390 . S
C2111 C2108 1.386 . S
C2112 C2107 1.490 . S
C2112 C2114 1.395 . S
C2112 C2115 1.399 1_554 S
H2113 C2119 0.927 . S
C2114 H2100 0.930 . S
C2114 C2112 1.395 . S
C2114 C2117 1.403 . S
C2115 C2112 1.399 1_556 S
C2115 C2116 1.527 . S
C2115 C2119 1.400 . S
C2116 H2101 0.960 . S
C2116 H2102 0.960 . S
C2116 H2103 0.960 . S
C2116 C2115 1.527 . S
C2117 C2114 1.403 . S
C2117 C2118 1.392 . S
C2117 C2121 1.495 . S
C2118 C2117 1.392 . S
C2118 C2119 1.389 1_554 S
C2118 C2120 1.478 . S
C2119 H2113 0.927 . S
C2119 C2115 1.400 . S
C2119 C2118 1.389 1_556 S
C2120 C2118 1.478 . S
C2120 C2122 1.381 . S
C2120 C2126 1.383 . S
C2121 C2117 1.495 . S
C2121 H2127 0.959 . S
C2121 H2128 0.961 . S
C2121 H2129 0.960 . S
C2122 C2120 1.381 . S
C2122 C2123 1.394 . S
C2122 H2130 0.930 . S
C2123 C2122 1.394 . S
C2123 C2124 1.383 . S
C2123 H2131 0.929 . S
C2124 C2123 1.383 . S
C2124 C2125 1.377 . S
C2125 H2109 0.941 . S
C2125 C2124 1.377 . S
C2125 C2126 1.379 . S
C2126 H2110 0.931 . S
C2126 C2120 1.383 . S
C2126 C2125 1.379 . S
H2127 C2121 0.959 . S
H2128 C2121 0.961 . S
H2129 C2121 0.960 . S
H2130 C2122 0.930 . S
H2131 C2123 0.929 . S
H2132 C2140 0.929 . S
H2133 C2142 0.930 . S
H2134 C2144 0.930 . S
H2135 C2147 0.929 . S
H2136 C2150 0.930 . S
H2137 C2152 0.960 . S
H2138 C2152 0.960 . S
H2139 C2152 0.960 . S
C2140 H2132 0.929 . S
C2140 C2141 1.377 . S
C2140 C2142 1.384 . S
C2141 C2140 1.377 . S
C2141 C2147 1.390 . S
C2142 H2133 0.930 . S
C2142 C2140 1.384 . S
C2142 C2143 1.372 . S
C2143 C2142 1.372 . S
C2143 C2144 1.400 . S
C2143 C2148 1.490 . S
C2144 H2134 0.930 . S
C2144 C2143 1.400 . S
C2144 C2147 1.386 . S
H2145 C2161 0.930 . S
H2146 C2162 0.931 . S
C2147 H2135 0.929 . S
C2147 C2141 1.390 . S
C2147 C2144 1.386 . S
C2148 C2143 1.490 . S
C2148 C2150 1.395 . S
C2148 C2151 1.403 . S
H2149 C2155 0.930 . S
C2150 H2136 0.930 . S
C2150 C2148 1.395 . S
C2150 C2153 1.403 . S
C2151 C2148 1.403 . S
C2151 C2152 1.524 . S
C2151 C2155 1.400 . S
C2152 H2137 0.960 . S
C2152 H2138 0.960 . S
C2152 H2139 0.960 . S
C2152 C2151 1.524 . S
C2153 C2150 1.403 . S
C2153 C2154 1.392 . S
C2153 C2157 1.495 . S
C2154 C2153 1.392 . S
C2154 C2155 1.385 . S
C2154 C2156 1.478 . S
C2155 H2149 0.930 . S
C2155 C2151 1.400 . S
C2155 C2154 1.385 . S
C2156 C2154 1.478 . S
C2156 C2158 1.381 . S
C2156 C2162 1.383 . S
C2157 C2153 1.495 . S
C2157 H2163 0.959 . S
C2157 H2164 0.961 . S
C2157 H2165 0.960 . S
C2158 C2156 1.381 . S
C2158 C2159 1.394 . S
C2158 H2166 0.930 . S
C2159 C2158 1.394 . S
C2159 C2160 1.383 . S
C2159 H2167 0.886 1_554 S
C2160 C2159 1.383 . S
C2160 C2161 1.377 . S
C2161 H2145 0.930 . S
C2161 C2160 1.377 . S
C2161 C2162 1.379 . S
C2162 H2146 0.931 . S
C2162 C2156 1.383 . S
C2162 C2161 1.379 . S
H2163 C2157 0.959 . S
H2164 C2157 0.961 . S
H2165 C2157 0.960 . S
H2166 C2158 0.930 . S
H2167 C2159 0.886 1_556 S
H2168 C2176 0.929 . S
H2169 C2178 0.930 . S
H2170 C2180 0.930 . S
H2171 C2183 0.929 . S
H2172 C2186 0.930 . S
H2173 C2188 0.960 . S
H2174 C2188 0.960 . S
H2175 C2188 0.960 . S
C2176 H2168 0.929 . S
C2176 C2177 1.377 . S
C2176 C2178 1.384 . S
C2177 C2176 1.377 . S
C2177 C2183 1.390 . S
C2178 H2169 0.930 . S
C2178 C2176 1.384 . S
C2178 C2179 1.372 . S
C2179 C2178 1.372 . S
C2179 C2180 1.400 . S
C2179 C2184 1.490 . S
C2180 H2170 0.930 . S
C2180 C2179 1.400 . S
C2180 C2183 1.386 . S
H2181 C2197 0.930 . S
H2182 C2198 0.931 . S
C2183 H2171 0.929 . S
C2183 C2177 1.390 . S
C2183 C2180 1.386 . S
C2184 C2179 1.490 . S
C2184 C2186 1.395 . S
C2184 C2187 1.403 . S
H2185 C2191 0.930 . S
C2186 H2172 0.930 . S
C2186 C2184 1.395 . S
C2186 C2189 1.403 . S
C2187 C2184 1.403 . S
C2187 C2188 1.524 . S
C2187 C2191 1.400 . S
C2188 H2173 0.960 . S
C2188 H2174 0.960 . S
C2188 H2175 0.960 . S
C2188 C2187 1.524 . S
C2189 C2186 1.403 . S
C2189 C2190 1.392 . S
C2189 C2193 1.495 . S
C2190 C2189 1.392 . S
C2190 C2191 1.385 . S
C2190 C2192 1.478 . S
C2191 H2185 0.930 . S
C2191 C2187 1.400 . S
C2191 C2190 1.385 . S
C2192 C2190 1.478 . S
C2192 C2194 1.381 . S
C2192 C2198 1.383 . S
C2193 C2189 1.495 . S
C2193 H2199 0.959 . S
C2193 H2200 0.961 . S
C2193 H2201 0.960 . S
C2194 C2192 1.381 . S
C2194 C2195 1.394 . S
C2194 H2202 0.930 . S
C2195 C2194 1.394 . S
C2195 C2196 1.383 . S
C2195 H2203 0.929 . S
C2196 C2195 1.383 . S
C2196 C2197 1.377 . S
C2197 H2181 0.930 . S
C2197 C2196 1.377 . S
C2197 C2198 1.379 . S
C2198 H2182 0.931 . S
C2198 C2192 1.383 . S
C2198 C2197 1.379 . S
H2199 C2193 0.959 . S
H2200 C2193 0.961 . S
H2201 C2193 0.960 . S
H2202 C2194 0.930 . S
H2203 C2195 0.929 . S
H2204 C2212 0.929 . S
H2205 C2214 0.930 . S
H2206 C2216 0.930 . S
H2207 C2219 0.929 . S
H2208 C2222 0.930 . S
H2209 C2224 0.960 . S
H2210 C2224 0.960 . S
H2211 C2224 0.960 . S
C2212 H2204 0.929 . S
C2212 C2213 1.377 . S
C2212 C2214 1.384 . S
C2213 C2212 1.377 . S
C2213 C2219 1.390 . S
C2214 H2205 0.930 . S
C2214 C2212 1.384 . S
C2214 C2215 1.372 . S
C2215 C2214 1.372 . S
C2215 C2216 1.400 . S
C2215 C2220 1.490 . S
C2216 H2206 0.930 . S
C2216 C2215 1.400 . S
C2216 C2219 1.386 . S
H2217 C2233 0.930 . S
H2218 C2234 0.931 . S
C2219 H2207 0.929 . S
C2219 C2213 1.390 . S
C2219 C2216 1.386 . S
C2220 C2215 1.490 . S
C2220 C2222 1.395 . S
C2220 C2223 1.403 . S
H2221 C2227 0.930 . S
C2222 H2208 0.930 . S
C2222 C2220 1.395 . S
C2222 C2225 1.403 . S
C2223 C2220 1.403 . S
C2223 C2224 1.524 . S
C2223 C2227 1.400 . S
C2224 H2209 0.960 . S
C2224 H2210 0.960 . S
C2224 H2211 0.960 . S
C2224 C2223 1.524 . S
C2225 C2222 1.403 . S
C2225 C2226 1.392 . S
C2225 C2229 1.495 . S
C2226 C2225 1.392 . S
C2226 C2227 1.385 . S
C2226 C2228 1.478 . S
C2227 H2221 0.930 . S
C2227 C2223 1.400 . S
C2227 C2226 1.385 . S
C2228 C2226 1.478 . S
C2228 C2230 1.381 . S
C2228 C2234 1.383 . S
C2229 C2225 1.495 . S
C2229 H2235 0.959 . S
C2229 H2236 0.961 . S
C2229 H2237 0.960 . S
C2230 C2228 1.381 . S
C2230 C2231 1.394 . S
C2230 H2238 0.930 . S
C2231 C2230 1.394 . S
C2231 C2232 1.383 . S
C2231 H2239 0.929 . S
C2232 C2231 1.383 . S
C2232 C2233 1.377 . S
C2233 H2217 0.930 . S
C2233 C2232 1.377 . S
C2233 C2234 1.379 . S
C2234 H2218 0.931 . S
C2234 C2228 1.383 . S
C2234 C2233 1.379 . S
H2235 C2229 0.959 . S
H2236 C2229 0.961 . S
H2237 C2229 0.960 . S
H2238 C2230 0.930 . S
H2239 C2231 0.929 . S
H2240 C2248 0.929 . S
H2241 C2250 0.930 . S
H2242 C2252 0.930 . S
H2243 C2255 0.929 . S
H2244 C2258 0.930 . S
H2245 C2260 0.960 . S
H2246 C2260 0.960 . S
H2247 C2260 0.960 . S
C2248 H2240 0.929 . S
C2248 C2249 1.377 . S
C2248 C2250 1.384 . S
C2249 C2248 1.377 . S
C2249 C2255 1.390 . S
C2250 H2241 0.930 . S
C2250 C2248 1.384 . S
C2250 C2251 1.372 . S
C2251 C2250 1.372 . S
C2251 C2252 1.400 . S
C2251 C2256 1.490 . S
C2252 H2242 0.930 . S
C2252 C2251 1.400 . S
C2252 C2255 1.386 . S
H2253 C2269 0.930 . S
H2254 C2270 0.931 . S
C2255 H2243 0.929 . S
C2255 C2249 1.390 . S
C2255 C2252 1.386 . S
C2256 C2251 1.490 . S
C2256 C2258 1.395 . S
C2256 C2259 1.403 . S
H2257 C2263 0.930 . S
C2258 H2244 0.930 . S
C2258 C2256 1.395 . S
C2258 C2261 1.403 . S
C2259 C2256 1.403 . S
C2259 C2260 1.524 . S
C2259 C2263 1.400 . S
C2260 H2245 0.960 . S
C2260 H2246 0.960 . S
C2260 H2247 0.960 . S
C2260 C2259 1.524 . S
C2261 C2258 1.403 . S
C2261 C2262 1.392 . S
C2261 C2265 1.495 . S
C2262 C2261 1.392 . S
C2262 C2263 1.385 . S
C2262 C2264 1.478 . S
C2263 H2257 0.930 . S
C2263 C2259 1.400 . S
C2263 C2262 1.385 . S
C2264 C2262 1.478 . S
C2264 C2266 1.381 . S
C2264 C2270 1.383 . S
C2265 C2261 1.495 . S
C2265 H2271 0.959 . S
C2265 H2272 0.961 . S
C2265 H2273 0.960 . S
C2266 C2264 1.381 . S
C2266 C2267 1.394 . S
C2266 H2274 0.930 . S
C2267 C2266 1.394 . S
C2267 C2268 1.383 . S
C2267 H2275 0.929 . S
C2268 C2267 1.383 . S
C2268 C2269 1.377 . S
C2269 H2253 0.930 . S
C2269 C2268 1.377 . S
C2269 C2270 1.379 . S
C2270 H2254 0.931 . S
C2270 C2264 1.383 . S
C2270 C2269 1.379 . S
H2271 C2265 0.959 . S
H2272 C2265 0.961 . S
H2273 C2265 0.960 . S
H2274 C2266 0.930 . S
H2275 C2267 0.929 . S
H2276 C2284 0.929 . S
H2277 C2286 0.930 . S
H2278 C2288 0.930 . S
H2279 C2291 0.929 . S
H2280 C2294 0.930 . S
H2281 C2296 0.960 . S
H2282 C2296 0.960 . S
H2283 C2296 0.960 . S
C2284 H2276 0.929 . S
C2284 C2285 1.377 . S
C2284 C2286 1.384 . S
C2285 C2284 1.377 . S
C2285 C2291 1.390 . S
C2286 H2277 0.930 . S
C2286 C2284 1.384 . S
C2286 C2287 1.372 . S
C2287 C2286 1.372 . S
C2287 C2288 1.400 . S
C2287 C2292 1.490 . S
C2288 H2278 0.930 . S
C2288 C2287 1.400 . S
C2288 C2291 1.386 . S
H2289 C2305 0.930 . S
H2290 C2306 0.931 . S
C2291 H2279 0.929 . S
C2291 C2285 1.390 . S
C2291 C2288 1.386 . S
C2292 C2287 1.490 . S
C2292 C2294 1.395 . S
C2292 C2295 1.403 . S
H2293 C2299 0.930 . S
C2294 H2280 0.930 . S
C2294 C2292 1.395 . S
C2294 C2297 1.403 . S
C2295 C2292 1.403 . S
C2295 C2296 1.524 . S
C2295 C2299 1.400 . S
C2296 H2281 0.960 . S
C2296 H2282 0.960 . S
C2296 H2283 0.960 . S
C2296 C2295 1.524 . S
C2297 C2294 1.403 . S
C2297 C2298 1.392 . S
C2297 C2301 1.495 . S
C2298 C2297 1.392 . S
C2298 C2299 1.385 . S
C2298 C2300 1.478 . S
C2299 H2293 0.930 . S
C2299 C2295 1.400 . S
C2299 C2298 1.385 . S
C2300 C2298 1.478 . S
C2300 C2302 1.381 . S
C2300 C2306 1.383 . S
C2301 C2297 1.495 . S
C2301 H2307 0.959 . S
C2301 H2308 0.961 . S
C2301 H2309 0.960 . S
C2302 C2300 1.381 . S
C2302 C2303 1.394 . S
C2302 H2310 0.930 . S
C2303 C2302 1.394 . S
C2303 C2304 1.383 . S
C2303 H2311 0.962 . S
C2304 C2303 1.383 . S
C2304 C2305 1.377 . S
C2305 H2289 0.930 . S
C2305 C2304 1.377 . S
C2305 C2306 1.379 . S
C2306 H2290 0.931 . S
C2306 C2300 1.383 . S
C2306 C2305 1.379 . S
H2307 C2301 0.959 . S
H2308 C2301 0.961 . S
H2309 C2301 0.960 . S
H2310 C2302 0.930 . S
H2311 C2303 0.962 . S
H2312 C2320 0.929 . S
H2313 C2322 0.930 . S
H2314 C2324 0.930 . S
H2315 C2327 0.929 . S
H2316 C2330 0.930 . S
H2317 C2332 0.960 . S
H2318 C2332 0.960 . S
H2319 C2332 0.960 . S
C2320 H2312 0.929 . S
C2320 C2321 1.377 . S
C2320 C2322 1.384 . S
C2321 C2320 1.377 . S
C2321 C2327 1.390 . S
C2322 H2313 0.930 . S
C2322 C2320 1.384 . S
C2322 C2323 1.372 . S
C2323 C2322 1.372 . S
C2323 C2324 1.400 . S
C2323 C2328 1.490 . S
C2324 H2314 0.930 . S
C2324 C2323 1.400 . S
C2324 C2327 1.386 . S
H2325 C2341 0.930 . S
H2326 C2342 0.931 . S
C2327 H2315 0.929 . S
C2327 C2321 1.390 . S
C2327 C2324 1.386 . S
C2328 C2323 1.490 . S
C2328 C2330 1.395 . S
C2328 C2331 1.403 . S
H2329 C2335 0.930 . S
C2330 H2316 0.930 . S
C2330 C2328 1.395 . S
C2330 C2333 1.403 . S
C2331 C2328 1.403 . S
C2331 C2332 1.524 . S
C2331 C2335 1.400 . S
C2332 H2317 0.960 . S
C2332 H2318 0.960 . S
C2332 H2319 0.960 . S
C2332 C2331 1.524 . S
C2333 C2330 1.403 . S
C2333 C2334 1.392 . S
C2333 C2337 1.495 . S
C2334 C2333 1.392 . S
C2334 C2335 1.385 . S
C2334 C2336 1.478 . S
C2335 H2329 0.930 . S
C2335 C2331 1.400 . S
C2335 C2334 1.385 . S
C2336 C2334 1.478 . S
C2336 C2338 1.381 . S
C2336 C2342 1.383 . S
C2337 C2333 1.495 . S
C2337 H2343 0.959 . S
C2337 H2344 0.961 . S
C2337 H2345 0.960 . S
C2338 C2336 1.381 . S
C2338 C2339 1.394 . S
C2338 H2346 0.930 . S
C2339 C2338 1.394 . S
C2339 C2340 1.383 . S
C2339 H2347 0.929 . S
C2340 C2339 1.383 . S
C2340 C2341 1.377 . S
C2341 H2325 0.930 . S
C2341 C2340 1.377 . S
C2341 C2342 1.379 . S
C2342 H2326 0.931 . S
C2342 C2336 1.383 . S
C2342 C2341 1.379 . S
H2343 C2337 0.959 . S
H2344 C2337 0.961 . S
H2345 C2337 0.960 . S
H2346 C2338 0.930 . S
H2347 C2339 0.929 . S
H2348 C2356 0.929 . S
H2349 C2358 0.930 . S
H2350 C2360 0.930 . S
H2351 C2363 0.929 . S
H2352 C2366 0.930 . S
H2353 C2368 0.960 . S
H2354 C2368 0.960 . S
H2355 C2368 0.960 . S
C2356 H2348 0.929 . S
C2356 C2357 1.377 . S
C2356 C2358 1.384 . S
C2357 C2356 1.377 . S
C2357 C2363 1.390 . S
C2358 H2349 0.930 . S
C2358 C2356 1.384 . S
C2358 C2359 1.372 . S
C2359 C2358 1.372 . S
C2359 C2360 1.400 . S
C2359 C2364 1.490 . S
C2360 H2350 0.930 . S
C2360 C2359 1.400 . S
C2360 C2363 1.386 . S
H2361 C2377 0.930 . S
H2362 C2378 0.931 . S
C2363 H2351 0.929 . S
C2363 C2357 1.390 . S
C2363 C2360 1.386 . S
C2364 C2359 1.490 . S
C2364 C2366 1.395 . S
C2364 C2367 1.403 . S
H2365 C2371 0.930 . S
C2366 H2352 0.930 . S
C2366 C2364 1.395 . S
C2366 C2369 1.403 . S
C2367 C2364 1.403 . S
C2367 C2368 1.524 . S
C2367 C2371 1.400 . S
C2368 H2353 0.960 . S
C2368 H2354 0.960 . S
C2368 H2355 0.960 . S
C2368 C2367 1.524 . S
C2369 C2366 1.403 . S
C2369 C2370 1.392 . S
C2369 C2373 1.495 . S
C2370 C2369 1.392 . S
C2370 C2371 1.385 . S
C2370 C2372 1.478 . S
C2371 H2365 0.930 . S
C2371 C2367 1.400 . S
C2371 C2370 1.385 . S
C2372 C2370 1.478 . S
C2372 C2374 1.381 . S
C2372 C2378 1.383 . S
C2373 C2369 1.495 . S
C2373 H2379 0.959 . S
C2373 H2380 0.961 . S
C2373 H2381 0.960 . S
C2374 C2372 1.381 . S
C2374 C2375 1.394 . S
C2374 H2382 0.930 . S
C2375 C2374 1.394 . S
C2375 C2376 1.383 . S
C2375 H2383 0.929 . S
C2376 C2375 1.383 . S
C2376 C2377 1.377 . S
C2377 H2361 0.930 . S
C2377 C2376 1.377 . S
C2377 C2378 1.379 . S
C2378 H2362 0.931 . S
C2378 C2372 1.383 . S
C2378 C2377 1.379 . S
H2379 C2373 0.959 . S
H2380 C2373 0.961 . S
H2381 C2373 0.960 . S
H2382 C2374 0.930 . S
H2383 C2375 0.929 . S
H2384 C2392 0.929 . S
H2385 C2394 0.930 . S
H2386 C2396 0.930 . S
H2387 C2399 0.929 . S
H2388 C2402 0.930 . S
H2389 C2404 0.960 . S
H2390 C2404 0.960 . S
H2391 C2404 0.960 . S
C2392 H2384 0.929 . S
C2392 C2393 1.377 . S
C2392 C2394 1.384 . S
C2393 C2392 1.377 . S
C2393 C2399 1.390 . S
C2394 H2385 0.930 . S
C2394 C2392 1.384 . S
C2394 C2395 1.372 . S
C2395 C2394 1.372 . S
C2395 C2396 1.400 . S
C2395 C2400 1.490 . S
C2396 H2386 0.930 . S
C2396 C2395 1.400 . S
C2396 C2399 1.386 . S
H2397 C2413 0.930 . S
H2398 C2414 0.931 . S
C2399 H2387 0.929 . S
C2399 C2393 1.390 . S
C2399 C2396 1.386 . S
C2400 C2395 1.490 . S
C2400 C2402 1.395 . S
C2400 C2403 1.403 . S
H2401 C2407 0.930 . S
C2402 H2388 0.930 . S
C2402 C2400 1.395 . S
C2402 C2405 1.403 . S
C2403 C2400 1.403 . S
C2403 C2404 1.524 . S
C2403 C2407 1.400 . S
C2404 H2389 0.960 . S
C2404 H2390 0.960 . S
C2404 H2391 0.960 . S
C2404 C2403 1.524 . S
C2405 C2402 1.403 . S
C2405 C2406 1.392 . S
C2405 C2409 1.495 . S
C2406 C2405 1.392 . S
C2406 C2407 1.385 . S
C2406 C2408 1.478 . S
C2407 H2401 0.930 . S
C2407 C2403 1.400 . S
C2407 C2406 1.385 . S
C2408 C2406 1.478 . S
C2408 C2410 1.381 . S
C2408 C2414 1.383 . S
C2409 C2405 1.495 . S
C2409 H2415 0.959 . S
C2409 H2416 0.961 . S
C2409 H2417 0.960 . S
C2410 C2408 1.381 . S
C2410 C2411 1.394 . S
C2410 H2418 0.930 . S
C2411 C2410 1.394 . S
C2411 C2412 1.383 . S
C2411 H2419 0.929 . S
C2412 C2411 1.383 . S
C2412 C2413 1.377 . S
C2413 H2397 0.930 . S
C2413 C2412 1.377 . S
C2413 C2414 1.379 . S
C2414 H2398 0.931 . S
C2414 C2408 1.383 . S
C2414 C2413 1.379 . S
H2415 C2409 0.959 . S
H2416 C2409 0.961 . S
H2417 C2409 0.960 . S
H2418 C2410 0.930 . S
H2419 C2411 0.929 . S
H2420 C2428 0.929 . S
H2421 C2430 0.930 . S
H2422 C2432 0.930 . S
H2423 C2435 0.929 . S
H2424 C2438 0.930 . S
H2425 C2440 0.960 . S
H2426 C2440 0.960 . S
H2427 C2440 0.960 . S
C2428 H2420 0.929 . S
C2428 C2429 1.377 . S
C2428 C2430 1.384 . S
C2429 C2428 1.377 . S
C2429 C2435 1.390 . S
C2430 H2421 0.930 . S
C2430 C2428 1.384 . S
C2430 C2431 1.372 . S
C2431 C2430 1.372 . S
C2431 C2432 1.400 . S
C2431 C2436 1.490 . S
C2432 H2422 0.930 . S
C2432 C2431 1.400 . S
C2432 C2435 1.386 . S
H2433 C2449 0.930 . S
H2434 C2450 0.931 . S
C2435 H2423 0.929 . S
C2435 C2429 1.390 . S
C2435 C2432 1.386 . S
C2436 C2431 1.490 . S
C2436 C2438 1.395 . S
C2436 C2439 1.403 . S
H2437 C2443 0.930 . S
C2438 H2424 0.930 . S
C2438 C2436 1.395 . S
C2438 C2441 1.403 . S
C2439 C2436 1.403 . S
C2439 C2440 1.524 . S
C2439 C2443 1.400 . S
C2440 H2425 0.960 . S
C2440 H2426 0.960 . S
C2440 H2427 0.960 . S
C2440 C2439 1.524 . S
C2441 C2438 1.403 . S
C2441 C2442 1.392 . S
C2441 C2445 1.495 . S
C2442 C2441 1.392 . S
C2442 C2443 1.385 . S
C2442 C2444 1.478 . S
C2443 H2437 0.930 . S
C2443 C2439 1.400 . S
C2443 C2442 1.385 . S
C2444 C2442 1.478 . S
C2444 C2446 1.381 . S
C2444 C2450 1.383 . S
C2445 C2441 1.495 . S
C2445 H2451 0.959 . S
C2445 H2452 0.961 . S
C2445 H2453 0.960 . S
C2446 C2444 1.381 . S
C2446 C2447 1.394 . S
C2446 H2454 0.930 . S
C2447 C2446 1.394 . S
C2447 C2448 1.383 . S
C2447 H2455 0.929 . S
C2448 C2447 1.383 . S
C2448 C2449 1.377 . S
C2449 H2433 0.930 . S
C2449 C2448 1.377 . S
C2449 C2450 1.379 . S
C2450 H2434 0.931 . S
C2450 C2444 1.383 . S
C2450 C2449 1.379 . S
H2451 C2445 0.959 . S
H2452 C2445 0.961 . S
H2453 C2445 0.960 . S
H2454 C2446 0.930 . S
H2455 C2447 0.929 . S
H2456 C2464 0.929 . S
H2457 C2466 0.930 . S
H2458 C2468 0.930 . S
H2459 C2471 0.929 . S
H2460 C2474 0.930 . S
H2461 C2476 0.960 . S
H2462 C2476 0.960 . S
H2463 C2476 0.960 . S
C2464 H2456 0.929 . S
C2464 C2465 1.377 . S
C2464 C2466 1.384 . S
C2465 C2464 1.377 . S
C2465 C2471 1.390 1_455 S
C2466 H2457 0.930 . S
C2466 C2464 1.384 . S
C2466 C2467 1.372 . S
C2467 C2466 1.372 . S
C2467 C2468 1.400 1_455 S
C2467 C2472 1.490 . S
C2468 H2458 0.930 . S
C2468 C2467 1.400 1_655 S
C2468 C2471 1.386 . S
H2469 C2485 0.930 . S
H2470 C2486 0.931 . S
C2471 H2459 0.929 . S
C2471 C2465 1.390 1_655 S
C2471 C2468 1.386 . S
C2472 C2467 1.490 . S
C2472 C2474 1.395 . S
C2472 C2475 1.403 1_455 S
H2473 C2479 0.930 . S
C2474 H2460 0.930 . S
C2474 C2472 1.395 . S
C2474 C2477 1.403 . S
C2475 C2472 1.403 1_655 S
C2475 C2476 1.524 . S
C2475 C2479 1.400 . S
C2476 H2461 0.960 . S
C2476 H2462 0.960 . S
C2476 H2463 0.960 . S
C2476 C2475 1.524 . S
C2477 C2474 1.403 . S
C2477 C2478 1.392 . S
C2477 C2481 1.495 . S
C2478 C2477 1.392 . S
C2478 C2479 1.385 1_455 S
C2478 C2480 1.478 . S
C2479 H2473 0.930 . S
C2479 C2475 1.400 . S
C2479 C2478 1.385 1_655 S
C2480 C2478 1.478 . S
C2480 C2482 1.381 . S
C2480 C2486 1.383 1_455 S
C2481 C2477 1.495 . S
C2481 H2487 0.959 . S
C2481 H2488 0.961 . S
C2481 H2489 0.960 . S
C2482 C2480 1.381 . S
C2482 C2483 1.394 1_556 S
C2482 H2490 0.930 . S
C2483 C2482 1.394 1_554 S
C2483 C2484 1.383 1_554 S
C2483 H2491 0.929 . S
C2484 C2483 1.383 1_556 S
C2484 C2485 1.377 1_455 S
C2485 H2469 0.930 . S
C2485 C2484 1.377 1_655 S
C2485 C2486 1.379 . S
C2486 H2470 0.931 . S
C2486 C2480 1.383 1_655 S
C2486 C2485 1.379 . S
H2487 C2481 0.959 . S
H2488 C2481 0.961 . S
H2489 C2481 0.960 . S
H2490 C2482 0.930 . S
H2491 C2483 0.929 . S
H2492 C2500 0.929 . S
H2493 C2502 0.930 . S
H2494 C2504 0.930 . S
H2495 C2507 0.929 . S
H2496 C2510 0.930 . S
H2497 C2512 0.960 . S
H2498 C2512 0.960 . S
H2499 C2512 0.960 . S
C2500 H2492 0.929 . S
C2500 C2501 1.377 . S
C2500 C2502 1.384 . S
C2501 C2500 1.377 . S
C2501 C2507 1.390 . S
C2502 H2493 0.930 . S
C2502 C2500 1.384 . S
C2502 C2503 1.372 . S
C2503 C2502 1.372 . S
C2503 C2504 1.400 . S
C2503 C2508 1.490 . S
C2504 H2494 0.930 . S
C2504 C2503 1.400 . S
C2504 C2507 1.386 . S
H2505 C2521 0.930 . S
H2506 C2522 0.931 . S
C2507 H2495 0.929 . S
C2507 C2501 1.390 . S
C2507 C2504 1.386 . S
C2508 C2503 1.490 . S
C2508 C2510 1.395 . S
C2508 C2511 1.403 . S
H2509 C2515 0.930 . S
C2510 H2496 0.930 . S
C2510 C2508 1.395 . S
C2510 C2513 1.403 . S
C2511 C2508 1.403 . S
C2511 C2512 1.524 . S
C2511 C2515 1.400 . S
C2512 H2497 0.960 . S
C2512 H2498 0.960 . S
C2512 H2499 0.960 . S
C2512 C2511 1.524 . S
C2513 C2510 1.403 . S
C2513 C2514 1.392 . S
C2513 C2517 1.495 . S
C2514 C2513 1.392 . S
C2514 C2515 1.385 . S
C2514 C2516 1.478 . S
C2515 H2509 0.930 . S
C2515 C2511 1.400 . S
C2515 C2514 1.385 . S
C2516 C2514 1.478 . S
C2516 C2518 1.381 . S
C2516 C2522 1.383 . S
C2517 C2513 1.495 . S
C2517 H2523 0.959 . S
C2517 H2524 0.961 . S
C2517 H2525 0.960 . S
C2518 C2516 1.381 . S
C2518 C2519 1.394 . S
C2518 H2526 0.930 . S
C2519 C2518 1.394 . S
C2519 C2520 1.383 . S
C2519 H2527 0.929 . S
C2520 C2519 1.383 . S
C2520 C2521 1.377 . S
C2521 H2505 0.930 . S
C2521 C2520 1.377 . S
C2521 C2522 1.379 . S
C2522 H2506 0.931 . S
C2522 C2516 1.383 . S
C2522 C2521 1.379 . S
H2523 C2517 0.959 . S
H2524 C2517 0.961 . S
H2525 C2517 0.960 . S
H2526 C2518 0.930 . S
H2527 C2519 0.929 . S
H2528 C2536 0.929 . S
H2529 C2538 0.930 . S
H2530 C2540 0.930 . S
H2531 C2543 0.929 . S
H2532 C2546 0.930 . S
H2533 C2548 0.960 . S
H2534 C2548 0.960 . S
H2535 C2548 0.960 . S
C2536 H2528 0.929 . S
C2536 C2537 1.377 . S
C2536 C2538 1.384 . S
C2537 C2536 1.377 . S
C2537 C2543 1.390 . S
C2538 H2529 0.930 . S
C2538 C2536 1.384 . S
C2538 C2539 1.372 . S
C2539 C2538 1.372 . S
C2539 C2540 1.400 . S
C2539 C2544 1.490 . S
C2540 H2530 0.930 . S
C2540 C2539 1.400 . S
C2540 C2543 1.386 . S
H2541 C2557 0.930 . S
H2542 C2558 0.931 . S
C2543 H2531 0.929 . S
C2543 C2537 1.390 . S
C2543 C2540 1.386 . S
C2544 C2539 1.490 . S
C2544 C2546 1.395 . S
C2544 C2547 1.403 . S
H2545 C2551 0.930 . S
C2546 H2532 0.930 . S
C2546 C2544 1.395 . S
C2546 C2549 1.403 . S
C2547 C2544 1.403 . S
C2547 C2548 1.524 . S
C2547 C2551 1.400 . S
C2548 H2533 0.960 . S
C2548 H2534 0.960 . S
C2548 H2535 0.960 . S
C2548 C2547 1.524 . S
C2549 C2546 1.403 . S
C2549 C2550 1.392 . S
C2549 C2553 1.495 . S
C2550 C2549 1.392 . S
C2550 C2551 1.385 . S
C2550 C2552 1.478 . S
C2551 H2545 0.930 . S
C2551 C2547 1.400 . S
C2551 C2550 1.385 . S
C2552 C2550 1.478 . S
C2552 C2554 1.381 . S
C2552 C2558 1.383 . S
C2553 C2549 1.495 . S
C2553 H2559 0.959 . S
C2553 H2560 0.961 . S
C2553 H2561 0.960 . S
C2554 C2552 1.381 . S
C2554 C2555 1.394 . S
C2554 H2562 0.930 . S
C2555 C2554 1.394 . S
C2555 C2556 1.383 . S
C2555 H2563 0.929 . S
C2556 C2555 1.383 . S
C2556 C2557 1.377 . S
C2557 H2541 0.930 . S
C2557 C2556 1.377 . S
C2557 C2558 1.379 . S
C2558 H2542 0.931 . S
C2558 C2552 1.383 . S
C2558 C2557 1.379 . S
H2559 C2553 0.959 . S
H2560 C2553 0.961 . S
H2561 C2553 0.960 . S
H2562 C2554 0.930 . S
H2563 C2555 0.929 . S
H2564 C2572 0.929 . S
H2565 C2574 0.930 . S
H2566 C2576 0.930 . S
H2567 C2579 0.929 . S
H2568 C2582 0.930 . S
H2569 C2584 0.960 . S
H2570 C2584 0.960 . S
H2571 C2584 0.960 . S
C2572 H2564 0.929 . S
C2572 C2573 1.377 . S
C2572 C2574 1.384 . S
C2573 C2572 1.377 . S
C2573 C2579 1.390 . S
C2574 H2565 0.930 . S
C2574 C2572 1.384 . S
C2574 C2575 1.372 . S
C2575 C2574 1.372 . S
C2575 C2576 1.400 . S
C2575 C2580 1.490 . S
C2576 H2566 0.930 . S
C2576 C2575 1.400 . S
C2576 C2579 1.386 . S
H2577 C2593 0.930 . S
H2578 C2594 0.931 . S
C2579 H2567 0.929 . S
C2579 C2573 1.390 . S
C2579 C2576 1.386 . S
C2580 C2575 1.490 . S
C2580 C2582 1.395 . S
C2580 C2583 1.403 . S
H2581 C2587 0.930 . S
C2582 H2568 0.930 . S
C2582 C2580 1.395 . S
C2582 C2585 1.403 . S
C2583 C2580 1.403 . S
C2583 C2584 1.524 . S
C2583 C2587 1.400 . S
C2584 H2569 0.960 . S
C2584 H2570 0.960 . S
C2584 H2571 0.960 . S
C2584 C2583 1.524 . S
C2585 C2582 1.403 . S
C2585 C2586 1.392 . S
C2585 C2589 1.495 . S
C2586 C2585 1.392 . S
C2586 C2587 1.385 . S
C2586 C2588 1.478 . S
C2587 H2581 0.930 . S
C2587 C2583 1.400 . S
C2587 C2586 1.385 . S
C2588 C2586 1.478 . S
C2588 C2590 1.381 . S
C2588 C2594 1.383 . S
C2589 C2585 1.495 . S
C2589 H2595 0.959 . S
C2589 H2596 0.961 . S
C2589 H2597 0.960 . S
C2590 C2588 1.381 . S
C2590 C2591 1.394 . S
C2590 H2598 0.930 . S
C2591 C2590 1.394 . S
C2591 C2592 1.383 . S
C2591 H2599 0.929 . S
C2592 C2591 1.383 . S
C2592 C2593 1.377 . S
C2593 H2577 0.930 . S
C2593 C2592 1.377 . S
C2593 C2594 1.379 . S
C2594 H2578 0.931 . S
C2594 C2588 1.383 . S
C2594 C2593 1.379 . S
H2595 C2589 0.959 . S
H2596 C2589 0.961 . S
H2597 C2589 0.960 . S
H2598 C2590 0.930 . S
H2599 C2591 0.929 . S
H2600 C2608 0.929 . S
H2601 C2610 0.930 . S
H2602 C2612 0.930 . S
H2603 C2615 0.929 . S
H2604 C2618 0.930 . S
H2605 C2620 0.960 . S
H2606 C2620 0.960 1_655 S
H2607 C2620 0.960 . S
C2608 H2600 0.929 . S
C2608 C2609 1.378 . S
C2608 C2610 1.384 . S
C2609 C2608 1.378 . S
C2609 C2615 1.389 1_655 S
C2610 H2601 0.930 . S
C2610 C2608 1.384 . S
C2610 C2611 1.374 . S
C2611 C2610 1.374 . S
C2611 C2612 1.398 1_655 S
C2611 C2616 1.488 1_655 S
C2612 H2602 0.930 . S
C2612 C2611 1.398 1_455 S
C2612 C2615 1.386 . S
H2613 C2629 0.930 . S
H2614 C2630 0.931 . S
C2615 H2603 0.929 . S
C2615 C2609 1.389 1_455 S
C2615 C2612 1.386 . S
C2616 C2611 1.488 1_455 S
C2616 C2618 1.394 1_455 S
C2616 C2619 1.404 . S
H2617 C2623 0.930 . S
C2618 H2604 0.930 . S
C2618 C2616 1.394 1_655 S
C2618 C2621 1.403 . S
C2619 C2616 1.404 . S
C2619 C2620 1.524 . S
C2619 C2623 1.400 . S
C2620 H2605 0.960 . S
C2620 H2606 0.960 1_455 S
C2620 H2607 0.960 . S
C2620 C2619 1.524 . S
C2621 C2618 1.403 . S
C2621 C2622 1.392 1_655 S
C2621 C2625 1.495 . S
C2622 C2621 1.392 1_455 S
C2622 C2623 1.385 . S
C2622 C2624 1.478 . S
C2623 H2617 0.930 . S
C2623 C2619 1.400 . S
C2623 C2622 1.385 . S
C2624 C2622 1.478 . S
C2624 C2626 1.381 1_455 S
C2624 C2630 1.383 . S
C2625 C2621 1.495 . S
C2625 H2631 0.959 . S
C2625 H2632 0.961 1_655 S
C2625 H2633 0.960 . S
C2626 C2624 1.381 1_655 S
C2626 C2627 1.394 . S
C2626 H2634 0.930 . S
C2627 C2626 1.394 . S
C2627 C2628 1.383 1_655 S
C2627 H2635 0.929 . S
C2628 C2627 1.383 1_455 S
C2628 C2629 1.377 . S
C2629 H2613 0.930 . S
C2629 C2628 1.377 . S
C2629 C2630 1.379 . S
C2630 H2614 0.931 . S
C2630 C2624 1.383 . S
C2630 C2629 1.379 . S
H2631 C2625 0.959 . S
H2632 C2625 0.961 1_455 S
H2633 C2625 0.960 . S
H2634 C2626 0.930 . S
H2635 C2627 0.929 . S
H2636 C2644 0.929 . S
H2637 C2646 0.930 . S
H2638 C2648 0.930 . S
H2639 C2651 0.929 . S
H2640 C2654 0.930 . S
H2641 C2656 0.960 . S
H2642 C2656 0.960 . S
H2643 C2656 0.960 . S
C2644 H2636 0.929 . S
C2644 C2645 1.377 . S
C2644 C2646 1.384 . S
C2645 C2644 1.377 . S
C2645 C2651 1.390 . S
C2646 H2637 0.930 . S
C2646 C2644 1.384 . S
C2646 C2647 1.372 . S
C2647 C2646 1.372 . S
C2647 C2648 1.400 . S
C2647 C2652 1.490 . S
C2648 H2638 0.930 . S
C2648 C2647 1.400 . S
C2648 C2651 1.386 . S
H2649 C2665 0.930 . S
H2650 C2666 0.931 . S
C2651 H2639 0.929 . S
C2651 C2645 1.390 . S
C2651 C2648 1.386 . S
C2652 C2647 1.490 . S
C2652 C2654 1.395 . S
C2652 C2655 1.403 . S
H2653 C2659 0.930 . S
C2654 H2640 0.930 . S
C2654 C2652 1.395 . S
C2654 C2657 1.403 . S
C2655 C2652 1.403 . S
C2655 C2656 1.524 . S
C2655 C2659 1.400 . S
C2656 H2641 0.960 . S
C2656 H2642 0.960 . S
C2656 H2643 0.960 . S
C2656 C2655 1.524 . S
C2657 C2654 1.403 . S
C2657 C2658 1.392 . S
C2657 C2661 1.495 . S
C2658 C2657 1.392 . S
C2658 C2659 1.385 . S
C2658 C2660 1.478 . S
C2659 H2653 0.930 . S
C2659 C2655 1.400 . S
C2659 C2658 1.385 . S
C2660 C2658 1.478 . S
C2660 C2662 1.381 . S
C2660 C2666 1.383 . S
C2661 C2657 1.495 . S
C2661 H2667 0.959 . S
C2661 H2668 0.961 . S
C2661 H2669 0.960 . S
C2662 C2660 1.381 . S
C2662 C2663 1.394 . S
C2662 H2670 0.930 . S
C2663 C2662 1.394 . S
C2663 C2664 1.383 . S
C2663 H2671 0.929 . S
C2664 C2663 1.383 . S
C2664 C2665 1.377 . S
C2665 H2649 0.930 . S
C2665 C2664 1.377 . S
C2665 C2666 1.379 . S
C2666 H2650 0.931 . S
C2666 C2660 1.383 . S
C2666 C2665 1.379 . S
H2667 C2661 0.959 . S
H2668 C2661 0.961 . S
H2669 C2661 0.960 . S
H2670 C2662 0.930 . S
H2671 C2663 0.929 . S
H2672 C2680 0.929 . S
H2673 C2682 0.930 . S
H2674 C2684 0.930 . S
H2675 C2687 0.929 . S
H2676 C2690 0.930 . S
H2677 C2692 0.960 . S
H2678 C2692 0.960 . S
H2679 C2692 0.960 . S
C2680 H2672 0.929 . S
C2680 C2681 1.377 . S
C2680 C2682 1.384 . S
C2681 C2680 1.377 . S
C2681 C2687 1.390 . S
C2682 H2673 0.930 . S
C2682 C2680 1.384 . S
C2682 C2683 1.372 . S
C2683 C2682 1.372 . S
C2683 C2684 1.400 . S
C2683 C2688 1.490 . S
C2684 H2674 0.930 . S
C2684 C2683 1.400 . S
C2684 C2687 1.386 . S
H2685 C2701 0.930 . S
H2686 C2702 0.931 . S
C2687 H2675 0.929 . S
C2687 C2681 1.390 . S
C2687 C2684 1.386 . S
C2688 C2683 1.490 . S
C2688 C2690 1.395 . S
C2688 C2691 1.403 . S
H2689 C2695 0.930 . S
C2690 H2676 0.930 . S
C2690 C2688 1.395 . S
C2690 C2693 1.403 . S
C2691 C2688 1.403 . S
C2691 C2692 1.524 . S
C2691 C2695 1.400 . S
C2692 H2677 0.960 . S
C2692 H2678 0.960 . S
C2692 H2679 0.960 . S
C2692 C2691 1.524 . S
C2693 C2690 1.403 . S
C2693 C2694 1.392 . S
C2693 C2697 1.495 . S
C2694 C2693 1.392 . S
C2694 C2695 1.385 . S
C2694 C2696 1.478 . S
C2695 H2689 0.930 . S
C2695 C2691 1.400 . S
C2695 C2694 1.385 . S
C2696 C2694 1.478 . S
C2696 C2698 1.381 . S
C2696 C2702 1.383 . S
C2697 C2693 1.495 . S
C2697 H2703 0.959 . S
C2697 H2704 0.961 . S
C2697 H2705 0.960 . S
C2698 C2696 1.381 . S
C2698 C2699 1.394 . S
C2698 H2706 0.930 . S
C2699 C2698 1.394 . S
C2699 C2700 1.383 . S
C2699 H2707 0.929 . S
C2700 C2699 1.383 . S
C2700 C2701 1.377 . S
C2701 H2685 0.930 . S
C2701 C2700 1.377 . S
C2701 C2702 1.379 . S
C2702 H2686 0.931 . S
C2702 C2696 1.383 . S
C2702 C2701 1.379 . S
H2703 C2697 0.959 . S
H2704 C2697 0.961 . S
H2705 C2697 0.960 . S
H2706 C2698 0.930 . S
H2707 C2699 0.929 . S
H2708 C2716 0.929 . S
H2709 C2718 0.930 . S
H2710 C2720 0.930 . S
H2711 C2723 0.929 . S
H2712 C2726 0.930 . S
H2713 C2728 0.960 . S
H2714 C2728 0.960 . S
H2715 C2728 0.960 . S
C2716 H2708 0.929 . S
C2716 C2717 1.377 . S
C2716 C2718 1.384 . S
C2717 C2716 1.377 . S
C2717 C2723 1.390 . S
C2718 H2709 0.930 . S
C2718 C2716 1.384 . S
C2718 C2719 1.372 . S
C2719 C2718 1.372 . S
C2719 C2720 1.400 . S
C2719 C2724 1.490 . S
C2720 H2710 0.930 . S
C2720 C2719 1.400 . S
C2720 C2723 1.386 . S
H2721 C2737 0.930 . S
H2722 C2738 0.931 . S
C2723 H2711 0.929 . S
C2723 C2717 1.390 . S
C2723 C2720 1.386 . S
C2724 C2719 1.490 . S
C2724 C2726 1.395 . S
C2724 C2727 1.403 . S
H2725 C2731 0.930 . S
C2726 H2712 0.930 . S
C2726 C2724 1.395 . S
C2726 C2729 1.403 . S
C2727 C2724 1.403 . S
C2727 C2728 1.524 . S
C2727 C2731 1.400 . S
C2728 H2713 0.960 . S
C2728 H2714 0.960 . S
C2728 H2715 0.960 . S
C2728 C2727 1.524 . S
C2729 C2726 1.403 . S
C2729 C2730 1.392 . S
C2729 C2733 1.495 . S
C2730 C2729 1.392 . S
C2730 C2731 1.385 . S
C2730 C2732 1.478 . S
C2731 H2725 0.930 . S
C2731 C2727 1.400 . S
C2731 C2730 1.385 . S
C2732 C2730 1.478 . S
C2732 C2734 1.381 . S
C2732 C2738 1.383 . S
C2733 C2729 1.495 . S
C2733 H2739 0.959 . S
C2733 H2740 0.961 . S
C2733 H2741 0.960 . S
C2734 C2732 1.381 . S
C2734 C2735 1.394 . S
C2734 H2742 0.930 . S
C2735 C2734 1.394 . S
C2735 C2736 1.383 . S
C2735 H2743 0.929 . S
C2736 C2735 1.383 . S
C2736 C2737 1.377 . S
C2737 H2721 0.930 . S
C2737 C2736 1.377 . S
C2737 C2738 1.379 . S
C2738 H2722 0.931 . S
C2738 C2732 1.383 . S
C2738 C2737 1.379 . S
H2739 C2733 0.959 . S
H2740 C2733 0.961 . S
H2741 C2733 0.960 . S
H2742 C2734 0.930 . S
H2743 C2735 0.929 . S
H2744 C2752 0.929 . S
H2745 C2754 0.930 . S
H2746 C2756 0.930 . S
H2747 C2759 0.929 . S
H2748 C2762 0.930 . S
H2749 C2764 0.960 . S
H2750 C2764 0.960 . S
H2751 C2764 0.960 . S
C2752 H2744 0.929 . S
C2752 C2753 1.377 . S
C2752 C2754 1.384 . S
C2753 C2752 1.377 . S
C2753 C2759 1.390 . S
C2754 H2745 0.930 . S
C2754 C2752 1.384 . S
C2754 C2755 1.372 . S
C2755 C2754 1.372 . S
C2755 C2756 1.400 . S
C2755 C2760 1.490 . S
C2756 H2746 0.930 . S
C2756 C2755 1.400 . S
C2756 C2759 1.386 . S
H2757 C2773 0.930 1_655 S
H2758 C2774 0.931 . S
C2759 H2747 0.929 . S
C2759 C2753 1.390 . S
C2759 C2756 1.386 . S
C2760 C2755 1.490 . S
C2760 C2762 1.395 . S
C2760 C2763 1.403 . S
H2761 C2767 0.930 . S
C2762 H2748 0.930 . S
C2762 C2760 1.395 . S
C2762 C2765 1.403 . S
C2763 C2760 1.403 . S
C2763 C2764 1.524 . S
C2763 C2767 1.400 . S
C2764 H2749 0.960 . S
C2764 H2750 0.960 . S
C2764 H2751 0.960 . S
C2764 C2763 1.524 . S
C2765 C2762 1.403 . S
C2765 C2766 1.392 . S
C2765 C2769 1.495 . S
C2766 C2765 1.392 . S
C2766 C2767 1.385 . S
C2766 C2768 1.478 . S
C2767 H2761 0.930 . S
C2767 C2763 1.400 . S
C2767 C2766 1.385 . S
C2768 C2766 1.478 . S
C2768 C2770 1.381 . S
C2768 C2774 1.383 . S
C2769 C2765 1.495 . S
C2769 H2775 0.959 . S
C2769 H2776 0.961 . S
C2769 H2777 0.960 . S
C2770 C2768 1.381 . S
C2770 C2771 1.394 . S
C2770 H2778 0.930 . S
C2771 C2770 1.394 . S
C2771 C2772 1.383 . S
C2771 H2779 0.929 . S
C2772 C2771 1.383 . S
C2772 C2773 1.377 . S
C2773 H2757 0.930 1_455 S
C2773 C2772 1.377 . S
C2773 C2774 1.379 . S
C2774 H2758 0.931 . S
C2774 C2768 1.383 . S
C2774 C2773 1.379 . S
H2775 C2769 0.959 . S
H2776 C2769 0.961 . S
H2777 C2769 0.960 . S
H2778 C2770 0.930 . S
H2779 C2771 0.929 . S
H2780 C2788 0.929 . S
H2781 C2790 0.930 . S
H2782 C2792 0.930 . S
H2783 C2795 0.929 . S
H2784 C2798 0.930 . S
H2785 C2800 0.960 . S
H2786 C2800 0.960 . S
H2787 C2800 0.960 . S
C2788 H2780 0.929 . S
C2788 C2789 1.377 . S
C2788 C2790 1.384 . S
C2789 C2788 1.377 . S
C2789 C2795 1.390 . S
C2790 H2781 0.930 . S
C2790 C2788 1.384 . S
C2790 C2791 1.372 . S
C2791 C2790 1.372 . S
C2791 C2792 1.400 . S
C2791 C2796 1.490 . S
C2792 H2782 0.930 . S
C2792 C2791 1.400 . S
C2792 C2795 1.386 . S
H2793 C2809 0.930 . S
H2794 C2810 0.931 . S
C2795 H2783 0.929 . S
C2795 C2789 1.390 . S
C2795 C2792 1.386 . S
C2796 C2791 1.490 . S
C2796 C2798 1.395 . S
C2796 C2799 1.403 . S
H2797 C2803 0.930 . S
C2798 H2784 0.930 . S
C2798 C2796 1.395 . S
C2798 C2801 1.403 . S
C2799 C2796 1.403 . S
C2799 C2800 1.524 . S
C2799 C2803 1.400 . S
C2800 H2785 0.960 . S
C2800 H2786 0.960 . S
C2800 H2787 0.960 . S
C2800 C2799 1.524 . S
C2801 C2798 1.403 . S
C2801 C2802 1.392 . S
C2801 C2805 1.495 . S
C2802 C2801 1.392 . S
C2802 C2803 1.385 . S
C2802 C2804 1.478 . S
C2803 H2797 0.930 . S
C2803 C2799 1.400 . S
C2803 C2802 1.385 . S
C2804 C2802 1.478 . S
C2804 C2806 1.381 . S
C2804 C2810 1.383 . S
C2805 C2801 1.495 . S
C2805 H2811 0.959 . S
C2805 H2812 0.961 . S
C2805 H2813 0.960 . S
C2806 C2804 1.381 . S
C2806 C2807 1.394 . S
C2806 H2814 0.930 . S
C2807 C2806 1.394 . S
C2807 C2808 1.383 . S
C2807 H2815 0.929 . S
C2808 C2807 1.383 . S
C2808 C2809 1.377 . S
C2809 H2793 0.930 . S
C2809 C2808 1.377 . S
C2809 C2810 1.379 . S
C2810 H2794 0.931 . S
C2810 C2804 1.383 . S
C2810 C2809 1.379 . S
H2811 C2805 0.959 . S
H2812 C2805 0.961 . S
H2813 C2805 0.960 . S
H2814 C2806 0.930 . S
H2815 C2807 0.929 . S
H2816 C2824 0.929 . S
H2817 C2826 0.930 . S
H2818 C2828 0.930 . S
H2819 C2831 0.929 . S
H2820 C2834 0.930 . S
H2821 C2836 0.960 . S
H2822 C2836 0.960 . S
H2823 C2836 0.960 . S
C2824 H2816 0.929 . S
C2824 C2825 1.377 . S
C2824 C2826 1.384 . S
C2825 C2824 1.377 . S
C2825 C2831 1.390 . S
C2826 H2817 0.930 . S
C2826 C2824 1.384 . S
C2826 C2827 1.372 . S
C2827 C2826 1.372 . S
C2827 C2828 1.400 . S
C2827 C2832 1.490 . S
C2828 H2818 0.930 . S
C2828 C2827 1.400 . S
C2828 C2831 1.386 . S
H2829 C2845 0.930 . S
H2830 C2846 0.931 . S
C2831 H2819 0.929 . S
C2831 C2825 1.390 . S
C2831 C2828 1.386 . S
C2832 C2827 1.490 . S
C2832 C2834 1.395 . S
C2832 C2835 1.403 . S
H2833 C2839 0.930 . S
C2834 H2820 0.930 . S
C2834 C2832 1.395 . S
C2834 C2837 1.403 . S
C2835 C2832 1.403 . S
C2835 C2836 1.524 . S
C2835 C2839 1.400 . S
C2836 H2821 0.960 . S
C2836 H2822 0.960 . S
C2836 H2823 0.960 . S
C2836 C2835 1.524 . S
C2837 C2834 1.403 . S
C2837 C2838 1.392 . S
C2837 C2841 1.495 . S
C2838 C2837 1.392 . S
C2838 C2839 1.385 . S
C2838 C2840 1.478 . S
C2839 H2833 0.930 . S
C2839 C2835 1.400 . S
C2839 C2838 1.385 . S
C2840 C2838 1.478 . S
C2840 C2842 1.381 . S
C2840 C2846 1.383 . S
C2841 C2837 1.495 . S
C2841 H2847 0.959 . S
C2841 H2848 0.961 . S
C2841 H2849 0.960 . S
C2842 C2840 1.381 . S
C2842 C2843 1.394 . S
C2842 H2850 0.930 . S
C2843 C2842 1.394 . S
C2843 C2844 1.383 . S
C2843 H2851 0.929 . S
C2844 C2843 1.383 . S
C2844 C2845 1.377 . S
C2845 H2829 0.930 . S
C2845 C2844 1.377 . S
C2845 C2846 1.379 . S
C2846 H2830 0.931 . S
C2846 C2840 1.383 . S
C2846 C2845 1.379 . S
H2847 C2841 0.959 . S
H2848 C2841 0.961 . S
H2849 C2841 0.960 . S
H2850 C2842 0.930 . S
H2851 C2843 0.929 . S
H2852 C2860 0.929 . S
H2853 C2862 0.930 . S
H2854 C2864 0.930 . S
H2855 C2867 0.929 . S
H2856 C2870 0.930 . S
H2857 C2872 0.960 . S
H2858 C2872 0.960 . S
H2859 C2872 0.960 . S
C2860 H2852 0.929 . S
C2860 C2861 1.377 . S
C2860 C2862 1.384 . S
C2861 C2860 1.377 . S
C2861 C2867 1.390 . S
C2862 H2853 0.930 . S
C2862 C2860 1.384 . S
C2862 C2863 1.372 . S
C2863 C2862 1.372 . S
C2863 C2864 1.400 . S
C2863 C2868 1.490 . S
C2864 H2854 0.930 . S
C2864 C2863 1.400 . S
C2864 C2867 1.386 . S
H2865 C2881 0.930 . S
H2866 C2882 0.931 . S
C2867 H2855 0.929 . S
C2867 C2861 1.390 . S
C2867 C2864 1.386 . S
C2868 C2863 1.490 . S
C2868 C2870 1.395 . S
C2868 C2871 1.403 . S
H2869 C2875 0.930 . S
C2870 H2856 0.930 . S
C2870 C2868 1.395 . S
C2870 C2873 1.403 . S
C2871 C2868 1.403 . S
C2871 C2872 1.524 . S
C2871 C2875 1.400 . S
C2872 H2857 0.960 . S
C2872 H2858 0.960 . S
C2872 H2859 0.960 . S
C2872 C2871 1.524 . S
C2873 C2870 1.403 . S
C2873 C2874 1.392 . S
C2873 C2877 1.495 . S
C2874 C2873 1.392 . S
C2874 C2875 1.385 . S
C2874 C2876 1.478 . S
C2875 H2869 0.930 . S
C2875 C2871 1.400 . S
C2875 C2874 1.385 . S
C2876 C2874 1.478 . S
C2876 C2878 1.381 . S
C2876 C2882 1.383 . S
C2877 C2873 1.495 . S
C2877 H2883 0.959 . S
C2877 H2884 0.961 . S
C2877 H2885 0.960 . S
C2878 C2876 1.381 . S
C2878 C2879 1.394 . S
C2878 H2886 0.930 . S
C2879 C2878 1.394 . S
C2879 C2880 1.383 . S
C2879 H2887 0.929 . S
C2880 C2879 1.383 . S
C2880 C2881 1.377 . S
C2881 H2865 0.930 . S
C2881 C2880 1.377 . S
C2881 C2882 1.379 . S
C2882 H2866 0.931 . S
C2882 C2876 1.383 . S
C2882 C2881 1.379 . S
H2883 C2877 0.959 . S
H2884 C2877 0.961 . S
H2885 C2877 0.960 . S
H2886 C2878 0.930 . S
H2887 C2879 0.929 . S
H2888 C2896 0.929 . S
H2889 C2898 0.930 . S
H2890 C2900 0.930 . S
H2891 C2903 0.929 . S
H2892 C2906 0.930 . S
H2893 C2908 0.960 . S
H2894 C2908 0.960 . S
H2895 C2908 0.960 . S
C2896 H2888 0.929 . S
C2896 C2897 1.377 . S
C2896 C2898 1.384 . S
C2897 C2896 1.377 . S
C2897 C2903 1.390 . S
C2898 H2889 0.930 . S
C2898 C2896 1.384 . S
C2898 C2899 1.372 . S
C2899 C2898 1.372 . S
C2899 C2900 1.400 . S
C2899 C2904 1.490 . S
C2900 H2890 0.930 . S
C2900 C2899 1.400 . S
C2900 C2903 1.386 . S
H2901 C2917 0.930 . S
H2902 C2918 0.931 . S
C2903 H2891 0.929 . S
C2903 C2897 1.390 . S
C2903 C2900 1.386 . S
C2904 C2899 1.490 . S
C2904 C2906 1.395 . S
C2904 C2907 1.403 . S
H2905 C2911 0.930 . S
C2906 H2892 0.930 . S
C2906 C2904 1.395 . S
C2906 C2909 1.403 . S
C2907 C2904 1.403 . S
C2907 C2908 1.524 . S
C2907 C2911 1.400 . S
C2908 H2893 0.960 . S
C2908 H2894 0.960 . S
C2908 H2895 0.960 . S
C2908 C2907 1.524 . S
C2909 C2906 1.403 . S
C2909 C2910 1.392 . S
C2909 C2913 1.495 . S
C2910 C2909 1.392 . S
C2910 C2911 1.385 . S
C2910 C2912 1.478 . S
C2911 H2905 0.930 . S
C2911 C2907 1.400 . S
C2911 C2910 1.385 . S
C2912 C2910 1.478 . S
C2912 C2914 1.381 . S
C2912 C2918 1.383 . S
C2913 C2909 1.495 . S
C2913 H2919 0.959 . S
C2913 H2920 0.961 . S
C2913 H2921 0.960 . S
C2914 C2912 1.381 . S
C2914 C2915 1.394 . S
C2914 H2922 0.930 . S
C2915 C2914 1.394 . S
C2915 C2916 1.383 . S
C2915 H2923 0.929 . S
C2916 C2915 1.383 . S
C2916 C2917 1.377 . S
C2917 H2901 0.930 . S
C2917 C2916 1.377 . S
C2917 C2918 1.379 . S
C2918 H2902 0.931 . S
C2918 C2912 1.383 . S
C2918 C2917 1.379 . S
H2919 C2913 0.959 . S
H2920 C2913 0.961 . S
H2921 C2913 0.960 . S
H2922 C2914 0.930 . S
H2923 C2915 0.929 . S
H2924 C2932 0.929 . S
H2925 C2934 0.930 . S
H2926 C2936 0.930 . S
H2927 C2939 0.929 . S
H2928 C2942 0.930 . S
H2929 C2944 0.960 . S
H2930 C2944 0.960 . S
H2931 C2944 0.960 . S
C2932 H2924 0.929 . S
C2932 C2933 1.377 . S
C2932 C2934 1.384 . S
C2933 C2932 1.377 . S
C2933 C2939 1.390 . S
C2934 H2925 0.930 . S
C2934 C2932 1.384 . S
C2934 C2935 1.372 . S
C2935 C2934 1.372 . S
C2935 C2936 1.400 . S
C2935 C2940 1.490 . S
C2936 H2926 0.930 . S
C2936 C2935 1.400 . S
C2936 C2939 1.386 . S
H2937 C2953 0.930 . S
H2938 C2954 0.931 . S
C2939 H2927 0.929 . S
C2939 C2933 1.390 . S
C2939 C2936 1.386 . S
C2940 C2935 1.490 . S
C2940 C2942 1.395 . S
C2940 C2943 1.403 . S
H2941 C2947 0.930 . S
C2942 H2928 0.930 . S
C2942 C2940 1.395 . S
C2942 C2945 1.403 . S
C2943 C2940 1.403 . S
C2943 C2944 1.524 . S
C2943 C2947 1.400 . S
C2944 H2929 0.960 . S
C2944 H2930 0.960 . S
C2944 H2931 0.960 . S
C2944 C2943 1.524 . S
C2945 C2942 1.403 . S
C2945 C2946 1.392 . S
C2945 C2949 1.495 . S
C2946 C2945 1.392 . S
C2946 C2947 1.385 . S
C2946 C2948 1.478 . S
C2947 H2941 0.930 . S
C2947 C2943 1.400 . S
C2947 C2946 1.385 . S
C2948 C2946 1.478 . S
C2948 C2950 1.381 . S
C2948 C2954 1.383 . S
C2949 C2945 1.495 . S
C2949 H2955 0.959 . S
C2949 H2956 0.961 . S
C2949 H2957 0.960 . S
C2950 C2948 1.381 . S
C2950 C2951 1.394 . S
C2950 H2958 0.930 . S
C2951 C2950 1.394 . S
C2951 C2952 1.383 . S
C2951 H2959 0.929 . S
C2952 C2951 1.383 . S
C2952 C2953 1.377 . S
C2953 H2937 0.930 . S
C2953 C2952 1.377 . S
C2953 C2954 1.379 . S
C2954 H2938 0.931 . S
C2954 C2948 1.383 . S
C2954 C2953 1.379 . S
H2955 C2949 0.959 . S
H2956 C2949 0.961 . S
H2957 C2949 0.960 . S
H2958 C2950 0.930 . S
H2959 C2951 0.929 . S
H2960 C2968 0.929 . S
H2961 C2970 0.930 . S
H2962 C2972 0.930 . S
H2963 C2975 0.929 . S
H2964 C2978 0.930 . S
H2965 C2980 0.960 . S
H2966 C2980 0.960 . S
H2967 C2980 0.960 . S
C2968 H2960 0.929 . S
C2968 C2969 1.377 . S
C2968 C2970 1.384 . S
C2969 C2968 1.377 . S
C2969 C2975 1.390 . S
C2970 H2961 0.930 . S
C2970 C2968 1.384 . S
C2970 C2971 1.372 . S
C2971 C2970 1.372 . S
C2971 C2972 1.400 . S
C2971 C2976 1.490 . S
C2972 H2962 0.930 . S
C2972 C2971 1.400 . S
C2972 C2975 1.386 . S
H2973 C2989 0.930 . S
H2974 C2990 0.931 . S
C2975 H2963 0.929 . S
C2975 C2969 1.390 . S
C2975 C2972 1.386 . S
C2976 C2971 1.490 . S
C2976 C2978 1.395 . S
C2976 C2979 1.403 . S
H2977 C2983 0.930 . S
C2978 H2964 0.930 . S
C2978 C2976 1.395 . S
C2978 C2981 1.403 . S
C2979 C2976 1.403 . S
C2979 C2980 1.524 . S
C2979 C2983 1.400 . S
C2980 H2965 0.960 . S
C2980 H2966 0.960 . S
C2980 H2967 0.960 . S
C2980 C2979 1.524 . S
C2981 C2978 1.403 . S
C2981 C2982 1.392 . S
C2981 C2985 1.495 . S
C2982 C2981 1.392 . S
C2982 C2983 1.385 . S
C2982 C2984 1.478 . S
C2983 H2977 0.930 . S
C2983 C2979 1.400 . S
C2983 C2982 1.385 . S
C2984 C2982 1.478 . S
C2984 C2986 1.381 . S
C2984 C2990 1.383 . S
C2985 C2981 1.495 . S
C2985 H2991 0.959 . S
C2985 H2992 0.961 . S
C2985 H2993 0.960 . S
C2986 C2984 1.381 . S
C2986 C2987 1.394 . S
C2986 H2994 0.930 . S
C2987 C2986 1.394 . S
C2987 C2988 1.383 . S
C2987 H2995 0.929 . S
C2988 C2987 1.383 . S
C2988 C2989 1.377 . S
C2989 H2973 0.930 . S
C2989 C2988 1.377 . S
C2989 C2990 1.379 . S
C2990 H2974 0.931 . S
C2990 C2984 1.383 . S
C2990 C2989 1.379 . S
H2991 C2985 0.959 . S
H2992 C2985 0.961 . S
H2993 C2985 0.960 . S
H2994 C2986 0.930 . S
H2995 C2987 0.929 . S
H2996 C3004 0.929 . S
H2997 C3006 0.930 . S
H2998 C3008 0.930 . S
H2999 C3011 0.929 . S
H3000 C3014 0.930 . S
H3001 C3016 0.960 . S
H3002 C3016 0.960 . S
H3003 C3016 0.960 . S
C3004 H2996 0.929 . S
C3004 C3005 1.377 . S
C3004 C3006 1.384 . S
C3005 C3004 1.377 . S
C3005 C3011 1.390 . S
C3006 H2997 0.930 . S
C3006 C3004 1.384 . S
C3006 C3007 1.372 . S
C3007 C3006 1.372 . S
C3007 C3008 1.400 . S
C3007 C3012 1.490 . S
C3008 H2998 0.930 . S
C3008 C3007 1.400 . S
C3008 C3011 1.386 . S
H3009 C3025 0.930 . S
H3010 C3026 0.931 . S
C3011 H2999 0.929 . S
C3011 C3005 1.390 . S
C3011 C3008 1.386 . S
C3012 C3007 1.490 . S
C3012 C3014 1.395 . S
C3012 C3015 1.403 . S
H3013 C3019 0.930 . S
C3014 H3000 0.930 . S
C3014 C3012 1.395 . S
C3014 C3017 1.403 . S
C3015 C3012 1.403 . S
C3015 C3016 1.524 . S
C3015 C3019 1.400 . S
C3016 H3001 0.960 . S
C3016 H3002 0.960 . S
C3016 H3003 0.960 . S
C3016 C3015 1.524 . S
C3017 C3014 1.403 . S
C3017 C3018 1.392 . S
C3017 C3021 1.495 . S
C3018 C3017 1.392 . S
C3018 C3019 1.385 . S
C3018 C3020 1.478 . S
C3019 H3013 0.930 . S
C3019 C3015 1.400 . S
C3019 C3018 1.385 . S
C3020 C3018 1.478 . S
C3020 C3022 1.381 . S
C3020 C3026 1.383 . S
C3021 C3017 1.495 . S
C3021 H3027 0.959 . S
C3021 H3028 0.961 . S
C3021 H3029 0.960 . S
C3022 C3020 1.381 . S
C3022 C3023 1.394 . S
C3022 H3030 0.930 . S
C3023 C3022 1.394 . S
C3023 C3024 1.383 . S
C3023 H3031 0.929 . S
C3024 C3023 1.383 . S
C3024 C3025 1.377 . S
C3025 H3009 0.930 . S
C3025 C3024 1.377 . S
C3025 C3026 1.379 . S
C3026 H3010 0.931 . S
C3026 C3020 1.383 . S
C3026 C3025 1.379 . S
H3027 C3021 0.959 . S
H3028 C3021 0.961 . S
H3029 C3021 0.960 . S
H3030 C3022 0.930 . S
H3031 C3023 0.929 . S
H3032 C3040 0.929 . S
H3033 C3042 0.930 . S
H3034 C3044 0.930 . S
H3035 C3047 0.929 . S
H3036 C3050 0.930 . S
H3037 C3052 0.960 . S
H3038 C3052 0.960 . S
H3039 C3052 0.960 . S
C3040 H3032 0.929 . S
C3040 C3041 1.377 . S
C3040 C3042 1.384 . S
C3041 C3040 1.377 . S
C3041 C3047 1.390 . S
C3042 H3033 0.930 . S
C3042 C3040 1.384 . S
C3042 C3043 1.372 . S
C3043 C3042 1.372 . S
C3043 C3044 1.400 . S
C3043 C3048 1.490 . S
C3044 H3034 0.930 . S
C3044 C3043 1.400 . S
C3044 C3047 1.386 . S
H3045 C3061 0.930 . S
H3046 C3062 0.931 . S
C3047 H3035 0.929 . S
C3047 C3041 1.390 . S
C3047 C3044 1.386 . S
C3048 C3043 1.490 . S
C3048 C3050 1.395 . S
C3048 C3051 1.403 . S
H3049 C3055 0.930 . S
C3050 H3036 0.930 . S
C3050 C3048 1.395 . S
C3050 C3053 1.403 . S
C3051 C3048 1.403 . S
C3051 C3052 1.524 . S
C3051 C3055 1.400 . S
C3052 H3037 0.960 . S
C3052 H3038 0.960 . S
C3052 H3039 0.960 . S
C3052 C3051 1.524 . S
C3053 C3050 1.403 . S
C3053 C3054 1.392 . S
C3053 C3057 1.495 . S
C3054 C3053 1.392 . S
C3054 C3055 1.385 . S
C3054 C3056 1.478 . S
C3055 H3049 0.930 . S
C3055 C3051 1.400 . S
C3055 C3054 1.385 . S
C3056 C3054 1.478 . S
C3056 C3058 1.381 . S
C3056 C3062 1.383 . S
C3057 C3053 1.495 . S
C3057 H3063 0.959 . S
C3057 H3064 0.961 . S
C3057 H3065 0.960 . S
C3058 C3056 1.381 . S
C3058 C3059 1.394 . S
C3058 H3066 0.930 . S
C3059 C3058 1.394 . S
C3059 C3060 1.383 . S
C3059 H3067 0.929 . S
C3060 C3059 1.383 . S
C3060 C3061 1.377 . S
C3061 H3045 0.930 . S
C3061 C3060 1.377 . S
C3061 C3062 1.379 . S
C3062 H3046 0.931 . S
C3062 C3056 1.383 . S
C3062 C3061 1.379 . S
H3063 C3057 0.959 . S
H3064 C3057 0.961 . S
H3065 C3057 0.960 . S
H3066 C3058 0.930 . S
H3067 C3059 0.929 . S
H3068 C3076 0.929 . S
H3069 C3078 0.930 . S
H3070 C3080 0.930 1_556 S
H3071 C3083 0.929 1_556 S
H3072 C3086 0.930 . S
H3073 C3088 0.960 . S
H3074 C3088 0.960 1_554 S
H3075 C3088 0.960 . S
C3076 H3068 0.929 . S
C3076 C3077 1.377 . S
C3076 C3078 1.384 . S
C3077 C3076 1.377 . S
C3077 C3083 1.390 . S
C3078 H3069 0.930 . S
C3078 C3076 1.384 . S
C3078 C3079 1.372 . S
C3079 C3078 1.372 . S
C3079 C3080 1.400 . S
C3079 C3084 1.490 . S
C3080 H3070 0.930 1_554 S
C3080 C3079 1.400 . S
C3080 C3083 1.386 . S
H3081 C3097 0.930 . S
H3082 C3098 0.931 . S
C3083 H3071 0.929 1_554 S
C3083 C3077 1.390 . S
C3083 C3080 1.386 . S
C3084 C3079 1.490 . S
C3084 C3086 1.395 . S
C3084 C3087 1.403 . S
H3085 C3091 0.931 1_556 S
C3086 H3072 0.930 . S
C3086 C3084 1.395 . S
C3086 C3089 1.403 . S
C3087 C3084 1.403 . S
C3087 C3088 1.524 1_554 S
C3087 C3091 1.400 . S
C3088 H3073 0.960 . S
C3088 H3074 0.960 1_556 S
C3088 H3075 0.960 . S
C3088 C3087 1.524 1_556 S
C3089 C3086 1.403 . S
C3089 C3090 1.392 . S
C3089 C3093 1.495 . S
C3090 C3089 1.392 . S
C3090 C3091 1.385 . S
C3090 C3092 1.478 . S
C3091 H3085 0.931 1_554 S
C3091 C3087 1.400 . S
C3091 C3090 1.385 . S
C3092 C3090 1.478 . S
C3092 C3094 1.381 . S
C3092 C3098 1.383 1_554 S
C3093 C3089 1.495 . S
C3093 H3099 0.959 . S
C3093 H3100 0.961 . S
C3093 H3101 0.960 . S
C3094 C3092 1.381 . S
C3094 C3095 1.394 . S
C3094 H3102 0.930 . S
C3095 C3094 1.394 . S
C3095 C3096 1.383 . S
C3095 H3103 0.929 1_565 S
C3096 C3095 1.383 . S
C3096 C3097 1.377 1_554 S
C3097 H3081 0.930 . S
C3097 C3096 1.377 1_556 S
C3097 C3098 1.379 . S
C3098 H3082 0.931 . S
C3098 C3092 1.383 1_556 S
C3098 C3097 1.379 . S
H3099 C3093 0.959 . S
H3100 C3093 0.961 . S
H3101 C3093 0.960 . S
H3102 C3094 0.930 . S
H3103 C3095 0.929 1_545 S
H3104 C3112 0.929 . S
H3105 C3114 0.930 . S
H3106 C3116 0.930 . S
H3107 C3119 0.929 . S
H3108 C3122 0.930 . S
H3109 C3124 0.960 . S
H3110 C3124 0.960 . S
H3111 C3124 0.960 . S
C3112 H3104 0.929 . S
C3112 C3113 1.377 . S
C3112 C3114 1.384 . S
C3113 C3112 1.377 . S
C3113 C3119 1.390 . S
C3114 H3105 0.930 . S
C3114 C3112 1.384 . S
C3114 C3115 1.372 . S
C3115 C3114 1.372 . S
C3115 C3116 1.400 . S
C3115 C3120 1.490 . S
C3116 H3106 0.930 . S
C3116 C3115 1.400 . S
C3116 C3119 1.386 . S
H3117 C3133 0.930 . S
H3118 C3134 0.931 . S
C3119 H3107 0.929 . S
C3119 C3113 1.390 . S
C3119 C3116 1.386 . S
C3120 C3115 1.490 . S
C3120 C3122 1.395 . S
C3120 C3123 1.403 . S
H3121 C3127 0.930 . S
C3122 H3108 0.930 . S
C3122 C3120 1.395 . S
C3122 C3125 1.403 . S
C3123 C3120 1.403 . S
C3123 C3124 1.524 . S
C3123 C3127 1.400 . S
C3124 H3109 0.960 . S
C3124 H3110 0.960 . S
C3124 H3111 0.960 . S
C3124 C3123 1.524 . S
C3125 C3122 1.403 . S
C3125 C3126 1.392 . S
C3125 C3129 1.495 . S
C3126 C3125 1.392 . S
C3126 C3127 1.385 . S
C3126 C3128 1.478 . S
C3127 H3121 0.930 . S
C3127 C3123 1.400 . S
C3127 C3126 1.385 . S
C3128 C3126 1.478 . S
C3128 C3130 1.381 . S
C3128 C3134 1.383 . S
C3129 C3125 1.495 . S
C3129 H3135 0.959 . S
C3129 H3136 0.961 . S
C3129 H3137 0.960 . S
C3130 C3128 1.381 . S
C3130 C3131 1.394 . S
C3130 H3138 0.930 . S
C3131 C3130 1.394 . S
C3131 C3132 1.383 . S
C3131 H3139 0.929 . S
C3132 C3131 1.383 . S
C3132 C3133 1.377 . S
C3133 H3117 0.930 . S
C3133 C3132 1.377 . S
C3133 C3134 1.379 . S
C3134 H3118 0.931 . S
C3134 C3128 1.383 . S
C3134 C3133 1.379 . S
H3135 C3129 0.959 . S
H3136 C3129 0.961 . S
H3137 C3129 0.960 . S
H3138 C3130 0.930 . S
H3139 C3131 0.929 . S
H3140 C3148 0.929 . S
H3141 C3150 0.930 . S
H3142 C3152 0.930 . S
H3143 C3155 0.929 . S
H3144 C3158 0.930 . S
H3145 C3160 0.960 . S
H3146 C3160 0.960 . S
H3147 C3160 0.960 . S
C3148 H3140 0.929 . S
C3148 C3149 1.377 . S
C3148 C3150 1.384 . S
C3149 C3148 1.377 . S
C3149 C3155 1.390 1_554 S
C3150 H3141 0.930 . S
C3150 C3148 1.384 . S
C3150 C3151 1.372 . S
C3151 C3150 1.372 . S
C3151 C3152 1.400 1_554 S
C3151 C3156 1.490 . S
C3152 H3142 0.930 . S
C3152 C3151 1.400 1_556 S
C3152 C3155 1.386 . S
H3153 C3169 0.975 . S
H3154 C3170 0.931 1_556 S
C3155 H3143 0.929 . S
C3155 C3149 1.390 1_556 S
C3155 C3152 1.386 . S
C3156 C3151 1.490 . S
C3156 C3158 1.395 . S
C3156 C3159 1.403 . S
H3157 C3163 0.930 . S
C3158 H3144 0.930 . S
C3158 C3156 1.395 . S
C3158 C3161 1.403 . S
C3159 C3156 1.403 . S
C3159 C3160 1.524 . S
C3159 C3163 1.400 . S
C3160 H3145 0.960 . S
C3160 H3146 0.960 . S
C3160 H3147 0.960 . S
C3160 C3159 1.524 . S
C3161 C3158 1.403 . S
C3161 C3162 1.392 . S
C3161 C3165 1.495 . S
C3162 C3161 1.392 . S
C3162 C3163 1.385 . S
C3162 C3164 1.478 . S
C3163 H3157 0.930 . S
C3163 C3159 1.400 . S
C3163 C3162 1.385 . S
C3164 C3162 1.478 . S
C3164 C3166 1.381 . S
C3164 C3170 1.383 . S
C3165 C3161 1.495 . S
C3165 H3171 0.959 . S
C3165 H3172 0.961 . S
C3165 H3173 0.960 . S
C3166 C3164 1.381 . S
C3166 C3167 1.394 . S
C3166 H3174 0.930 . S
C3167 C3166 1.394 . S
C3167 C3168 1.383 . S
C3167 H3175 0.929 . S
C3168 C3167 1.383 . S
C3168 C3169 1.377 . S
C3169 H3153 0.975 . S
C3169 C3168 1.377 . S
C3169 C3170 1.379 . S
C3170 H3154 0.931 1_554 S
C3170 C3164 1.383 . S
C3170 C3169 1.379 . S
H3171 C3165 0.959 . S
H3172 C3165 0.961 . S
H3173 C3165 0.960 . S
H3174 C3166 0.930 . S
H3175 C3167 0.929 . S
H3176 C3184 0.929 . S
H3177 C3186 0.930 . S
H3178 C3188 0.930 . S
H3179 C3191 0.929 . S
H3180 C3194 0.930 . S
H3181 C3196 0.960 . S
H3182 C3196 0.960 . S
H3183 C3196 0.960 . S
C3184 H3176 0.929 . S
C3184 C3185 1.377 . S
C3184 C3186 1.384 . S
C3185 C3184 1.377 . S
C3185 C3191 1.390 . S
C3186 H3177 0.930 . S
C3186 C3184 1.384 . S
C3186 C3187 1.372 . S
C3187 C3186 1.372 . S
C3187 C3188 1.400 . S
C3187 C3192 1.490 . S
C3188 H3178 0.930 . S
C3188 C3187 1.400 . S
C3188 C3191 1.386 . S
H3189 C3205 0.930 . S
H3190 C3206 0.931 . S
C3191 H3179 0.929 . S
C3191 C3185 1.390 . S
C3191 C3188 1.386 . S
C3192 C3187 1.490 . S
C3192 C3194 1.395 . S
C3192 C3195 1.403 . S
H3193 C3199 0.930 . S
C3194 H3180 0.930 . S
C3194 C3192 1.395 . S
C3194 C3197 1.403 . S
C3195 C3192 1.403 . S
C3195 C3196 1.524 . S
C3195 C3199 1.400 . S
C3196 H3181 0.960 . S
C3196 H3182 0.960 . S
C3196 H3183 0.960 . S
C3196 C3195 1.524 . S
C3197 C3194 1.403 . S
C3197 C3198 1.392 . S
C3197 C3201 1.495 . S
C3198 C3197 1.392 . S
C3198 C3199 1.385 . S
C3198 C3200 1.478 . S
C3199 H3193 0.930 . S
C3199 C3195 1.400 . S
C3199 C3198 1.385 . S
C3200 C3198 1.478 . S
C3200 C3202 1.381 . S
C3200 C3206 1.383 . S
C3201 C3197 1.495 . S
C3201 H3207 0.959 . S
C3201 H3208 0.961 . S
C3201 H3209 0.960 . S
C3202 C3200 1.381 . S
C3202 C3203 1.394 . S
C3202 H3210 0.930 . S
C3203 C3202 1.394 . S
C3203 C3204 1.383 . S
C3203 H3211 0.929 . S
C3204 C3203 1.383 . S
C3204 C3205 1.377 . S
C3205 H3189 0.930 . S
C3205 C3204 1.377 . S
C3205 C3206 1.379 . S
C3206 H3190 0.931 . S
C3206 C3200 1.383 . S
C3206 C3205 1.379 . S
H3207 C3201 0.959 . S
H3208 C3201 0.961 . S
H3209 C3201 0.960 . S
H3210 C3202 0.930 . S
H3211 C3203 0.929 . S
H3212 C3220 0.929 . S
H3213 C3222 0.930 . S
H3214 C3224 0.930 . S
H3215 C3227 0.929 . S
H3216 C3230 0.930 . S
H3217 C3232 0.960 . S
H3218 C3232 0.960 . S
H3219 C3232 0.960 . S
C3220 H3212 0.929 . S
C3220 C3221 1.377 . S
C3220 C3222 1.384 . S
C3221 C3220 1.377 . S
C3221 C3227 1.390 . S
C3222 H3213 0.930 . S
C3222 C3220 1.384 . S
C3222 C3223 1.372 . S
C3223 C3222 1.372 . S
C3223 C3224 1.400 . S
C3223 C3228 1.490 . S
C3224 H3214 0.930 . S
C3224 C3223 1.400 . S
C3224 C3227 1.386 . S
H3225 C3241 0.930 . S
H3226 C3242 0.931 . S
C3227 H3215 0.929 . S
C3227 C3221 1.390 . S
C3227 C3224 1.386 . S
C3228 C3223 1.490 . S
C3228 C3230 1.395 . S
C3228 C3231 1.403 . S
H3229 C3235 0.930 . S
C3230 H3216 0.930 . S
C3230 C3228 1.395 . S
C3230 C3233 1.403 . S
C3231 C3228 1.403 . S
C3231 C3232 1.524 . S
C3231 C3235 1.400 . S
C3232 H3217 0.960 . S
C3232 H3218 0.960 . S
C3232 H3219 0.960 . S
C3232 C3231 1.524 . S
C3233 C3230 1.403 . S
C3233 C3234 1.392 . S
C3233 C3237 1.495 . S
C3234 C3233 1.392 . S
C3234 C3235 1.385 . S
C3234 C3236 1.478 . S
C3235 H3229 0.930 . S
C3235 C3231 1.400 . S
C3235 C3234 1.385 . S
C3236 C3234 1.478 . S
C3236 C3238 1.381 . S
C3236 C3242 1.383 . S
C3237 C3233 1.495 . S
C3237 H3243 0.959 . S
C3237 H3244 0.961 . S
C3237 H3245 0.960 . S
C3238 C3236 1.381 . S
C3238 C3239 1.394 . S
C3238 H3246 0.930 . S
C3239 C3238 1.394 . S
C3239 C3240 1.383 . S
C3239 H3247 0.929 . S
C3240 C3239 1.383 . S
C3240 C3241 1.377 . S
C3241 H3225 0.930 . S
C3241 C3240 1.377 . S
C3241 C3242 1.379 . S
C3242 H3226 0.931 . S
C3242 C3236 1.383 . S
C3242 C3241 1.379 . S
H3243 C3237 0.959 . S
H3244 C3237 0.961 . S
H3245 C3237 0.960 . S
H3246 C3238 0.930 . S
H3247 C3239 0.929 . S
H3248 C3256 0.929 . S
H3249 C3258 0.930 . S
H3250 C3260 0.930 . S
H3251 C3263 0.929 . S
H3252 C3266 0.930 . S
H3253 C3268 0.960 . S
H3254 C3268 0.960 . S
H3255 C3268 0.960 . S
C3256 H3248 0.929 . S
C3256 C3257 1.377 . S
C3256 C3258 1.384 . S
C3257 C3256 1.377 . S
C3257 C3263 1.390 . S
C3258 H3249 0.930 . S
C3258 C3256 1.384 . S
C3258 C3259 1.372 . S
C3259 C3258 1.372 . S
C3259 C3260 1.400 . S
C3259 C3264 1.490 . S
C3260 H3250 0.930 . S
C3260 C3259 1.400 . S
C3260 C3263 1.386 . S
H3261 C3277 0.930 . S
H3262 C3278 0.931 . S
C3263 H3251 0.929 . S
C3263 C3257 1.390 . S
C3263 C3260 1.386 . S
C3264 C3259 1.490 . S
C3264 C3266 1.395 . S
C3264 C3267 1.403 . S
H3265 C3271 0.930 . S
C3266 H3252 0.930 . S
C3266 C3264 1.395 . S
C3266 C3269 1.403 . S
C3267 C3264 1.403 . S
C3267 C3268 1.524 . S
C3267 C3271 1.400 . S
C3268 H3253 0.960 . S
C3268 H3254 0.960 . S
C3268 H3255 0.960 . S
C3268 C3267 1.524 . S
C3269 C3266 1.403 . S
C3269 C3270 1.392 . S
C3269 C3273 1.495 . S
C3270 C3269 1.392 . S
C3270 C3271 1.385 . S
C3270 C3272 1.478 . S
C3271 H3265 0.930 . S
C3271 C3267 1.400 . S
C3271 C3270 1.385 . S
C3272 C3270 1.478 . S
C3272 C3274 1.381 . S
C3272 C3278 1.383 . S
C3273 C3269 1.495 . S
C3273 H3279 0.959 . S
C3273 H3280 0.961 . S
C3273 H3281 0.960 . S
C3274 C3272 1.381 . S
C3274 C3275 1.394 . S
C3274 H3282 0.930 . S
C3275 C3274 1.394 . S
C3275 C3276 1.383 . S
C3275 H3283 0.929 . S
C3276 C3275 1.383 . S
C3276 C3277 1.377 . S
C3277 H3261 0.930 . S
C3277 C3276 1.377 . S
C3277 C3278 1.379 . S
C3278 H3262 0.931 . S
C3278 C3272 1.383 . S
C3278 C3277 1.379 . S
H3279 C3273 0.959 . S
H3280 C3273 0.961 . S
H3281 C3273 0.960 . S
H3282 C3274 0.930 . S
H3283 C3275 0.929 . S
H3284 C3292 0.929 . S
H3285 C3294 0.930 . S
H3286 C3296 0.930 . S
H3287 C3299 0.929 . S
H3288 C3302 0.930 . S
H3289 C3304 0.960 . S
H3290 C3304 0.960 . S
H3291 C3304 0.960 . S
C3292 H3284 0.929 . S
C3292 C3293 1.377 . S
C3292 C3294 1.384 . S
C3293 C3292 1.377 . S
C3293 C3299 1.390 . S
C3294 H3285 0.930 . S
C3294 C3292 1.384 . S
C3294 C3295 1.372 . S
C3295 C3294 1.372 . S
C3295 C3296 1.400 . S
C3295 C3300 1.490 . S
C3296 H3286 0.930 . S
C3296 C3295 1.400 . S
C3296 C3299 1.386 . S
H3297 C3313 0.930 . S
H3298 C3314 0.931 . S
C3299 H3287 0.929 . S
C3299 C3293 1.390 . S
C3299 C3296 1.386 . S
C3300 C3295 1.490 . S
C3300 C3302 1.395 . S
C3300 C3303 1.403 . S
H3301 C3307 0.930 . S
C3302 H3288 0.930 . S
C3302 C3300 1.395 . S
C3302 C3305 1.403 . S
C3303 C3300 1.403 . S
C3303 C3304 1.524 . S
C3303 C3307 1.400 . S
C3304 H3289 0.960 . S
C3304 H3290 0.960 . S
C3304 H3291 0.960 . S
C3304 C3303 1.524 . S
C3305 C3302 1.403 . S
C3305 C3306 1.392 . S
C3305 C3309 1.495 . S
C3306 C3305 1.392 . S
C3306 C3307 1.385 . S
C3306 C3308 1.478 . S
C3307 H3301 0.930 . S
C3307 C3303 1.400 . S
C3307 C3306 1.385 . S
C3308 C3306 1.478 . S
C3308 C3310 1.381 . S
C3308 C3314 1.383 . S
C3309 C3305 1.495 . S
C3309 H3315 0.959 . S
C3309 H3316 0.961 . S
C3309 H3317 0.960 . S
C3310 C3308 1.381 . S
C3310 C3311 1.394 . S
C3310 H3318 0.930 . S
C3311 C3310 1.394 . S
C3311 C3312 1.383 . S
C3311 H3319 0.929 . S
C3312 C3311 1.383 . S
C3312 C3313 1.377 . S
C3313 H3297 0.930 . S
C3313 C3312 1.377 . S
C3313 C3314 1.379 . S
C3314 H3298 0.931 . S
C3314 C3308 1.383 . S
C3314 C3313 1.379 . S
H3315 C3309 0.959 . S
H3316 C3309 0.961 . S
H3317 C3309 0.960 . S
H3318 C3310 0.930 . S
H3319 C3311 0.929 . S
H3320 C3328 0.929 . S
H3321 C3330 0.930 . S
H3322 C3332 0.930 . S
H3323 C3335 0.929 . S
H3324 C3338 0.930 . S
H3325 C3340 0.960 . S
H3326 C3340 0.960 . S
H3327 C3340 0.960 . S
C3328 H3320 0.929 . S
C3328 C3329 1.377 . S
C3328 C3330 1.384 . S
C3329 C3328 1.377 . S
C3329 C3335 1.390 . S
C3330 H3321 0.930 . S
C3330 C3328 1.384 . S
C3330 C3331 1.372 . S
C3331 C3330 1.372 . S
C3331 C3332 1.400 . S
C3331 C3336 1.490 . S
C3332 H3322 0.930 . S
C3332 C3331 1.400 . S
C3332 C3335 1.386 . S
H3333 C3349 0.930 1_655 S
H3334 C3350 0.931 1_655 S
C3335 H3323 0.929 . S
C3335 C3329 1.390 . S
C3335 C3332 1.386 . S
C3336 C3331 1.490 . S
C3336 C3338 1.395 . S
C3336 C3339 1.403 . S
H3337 C3343 0.930 . S
C3338 H3324 0.930 . S
C3338 C3336 1.395 . S
C3338 C3341 1.403 . S
C3339 C3336 1.403 . S
C3339 C3340 1.524 . S
C3339 C3343 1.400 . S
C3340 H3325 0.960 . S
C3340 H3326 0.960 . S
C3340 H3327 0.960 . S
C3340 C3339 1.524 . S
C3341 C3338 1.403 . S
C3341 C3342 1.392 . S
C3341 C3345 1.478 1_455 S
C3342 C3341 1.392 . S
C3342 C3343 1.385 . S
C3342 C3344 1.478 . S
C3343 H3337 0.930 . S
C3343 C3339 1.400 . S
C3343 C3342 1.385 . S
C3344 C3342 1.478 . S
C3344 C3346 1.381 . S
C3344 C3350 1.383 . S
C3345 C3341 1.478 1_655 S
C3345 H3351 0.983 . S
C3345 H3352 0.997 . S
C3345 H3353 0.920 1_655 S
C3346 C3344 1.381 . S
C3346 C3347 1.394 . S
C3346 H3354 0.930 . S
C3347 C3346 1.394 . S
C3347 C3348 1.383 . S
C3347 H3355 0.929 . S
C3348 C3347 1.383 . S
C3348 C3349 1.377 . S
C3349 H3333 0.930 1_455 S
C3349 C3348 1.377 . S
C3349 C3350 1.379 . S
C3350 H3334 0.931 1_455 S
C3350 C3344 1.383 . S
C3350 C3349 1.379 . S
H3351 C3345 0.983 . S
H3352 C3345 0.997 . S
H3353 C3345 0.920 1_455 S
H3354 C3346 0.930 . S
H3355 C3347 0.929 . S
H3356 C3364 0.929 . S
H3357 C3366 0.930 . S
H3358 C3368 0.930 . S
H3359 C3371 0.929 . S
H3360 C3374 0.930 . S
H3361 C3376 0.960 . S
H3362 C3376 0.960 . S
H3363 C3376 0.960 . S
C3364 H3356 0.929 . S
C3364 C3365 1.377 . S
C3364 C3366 1.384 . S
C3365 C3364 1.377 . S
C3365 C3371 1.390 . S
C3366 H3357 0.930 . S
C3366 C3364 1.384 . S
C3366 C3367 1.372 . S
C3367 C3366 1.372 . S
C3367 C3368 1.400 . S
C3367 C3372 1.490 . S
C3368 H3358 0.930 . S
C3368 C3367 1.400 . S
C3368 C3371 1.386 . S
H3369 C3385 0.930 . S
H3370 C3386 0.931 . S
C3371 H3359 0.929 . S
C3371 C3365 1.390 . S
C3371 C3368 1.386 . S
C3372 C3367 1.490 . S
C3372 C3374 1.395 . S
C3372 C3375 1.403 . S
H3373 C3379 0.930 . S
C3374 H3360 0.930 . S
C3374 C3372 1.395 . S
C3374 C3377 1.403 . S
C3375 C3372 1.403 . S
C3375 C3376 1.524 . S
C3375 C3379 1.400 . S
C3376 H3361 0.960 . S
C3376 H3362 0.960 . S
C3376 H3363 0.960 . S
C3376 C3375 1.524 . S
C3377 C3374 1.403 . S
C3377 C3378 1.392 . S
C3377 C3381 1.495 . S
C3378 C3377 1.392 . S
C3378 C3379 1.385 . S
C3378 C3380 1.478 . S
C3379 H3373 0.930 . S
C3379 C3375 1.400 . S
C3379 C3378 1.385 . S
C3380 C3378 1.478 . S
C3380 C3382 1.381 . S
C3380 C3386 1.383 . S
C3381 C3377 1.495 . S
C3381 H3387 0.959 . S
C3381 H3388 0.961 . S
C3381 H3389 0.960 . S
C3382 C3380 1.381 . S
C3382 C3383 1.394 . S
C3382 H3390 0.930 . S
C3383 C3382 1.394 . S
C3383 C3384 1.383 . S
C3383 H3391 0.929 . S
C3384 C3383 1.383 . S
C3384 C3385 1.377 . S
C3385 H3369 0.930 . S
C3385 C3384 1.377 . S
C3385 C3386 1.379 . S
C3386 H3370 0.931 . S
C3386 C3380 1.383 . S
C3386 C3385 1.379 . S
H3387 C3381 0.959 . S
H3388 C3381 0.961 . S
H3389 C3381 0.960 . S
H3390 C3382 0.930 . S
H3391 C3383 0.929 . S
H3392 C3400 0.929 . S
H3393 C3402 0.930 . S
H3394 C3404 0.930 . S
H3395 C3407 0.929 . S
H3396 C3410 0.930 . S
H3397 C3412 0.960 . S
H3398 C3412 0.960 . S
H3399 C3412 0.960 . S
C3400 H3392 0.929 . S
C3400 C3401 1.377 . S
C3400 C3402 1.384 . S
C3401 C3400 1.377 . S
C3401 C3407 1.390 . S
C3402 H3393 0.930 . S
C3402 C3400 1.384 . S
C3402 C3403 1.372 . S
C3403 C3402 1.372 . S
C3403 C3404 1.400 . S
C3403 C3408 1.490 . S
C3404 H3394 0.930 . S
C3404 C3403 1.400 . S
C3404 C3407 1.386 . S
H3405 C3421 0.930 1_554 S
H3406 C3422 0.931 . S
C3407 H3395 0.929 . S
C3407 C3401 1.390 . S
C3407 C3404 1.386 . S
C3408 C3403 1.490 . S
C3408 C3410 1.395 . S
C3408 C3411 1.403 . S
H3409 C3415 0.930 . S
C3410 H3396 0.930 . S
C3410 C3408 1.395 . S
C3410 C3413 1.403 . S
C3411 C3408 1.403 . S
C3411 C3412 1.524 . S
C3411 C3415 1.400 . S
C3412 H3397 0.960 . S
C3412 H3398 0.960 . S
C3412 H3399 0.960 . S
C3412 C3411 1.524 . S
C3413 C3410 1.403 . S
C3413 C3414 1.392 . S
C3413 C3417 1.495 . S
C3414 C3413 1.392 . S
C3414 C3415 1.385 . S
C3414 C3416 1.478 . S
C3415 H3409 0.930 . S
C3415 C3411 1.400 . S
C3415 C3414 1.385 . S
C3416 C3414 1.478 . S
C3416 C3418 1.381 . S
C3416 C3422 1.383 . S
C3417 C3413 1.495 . S
C3417 H3423 0.959 . S
C3417 H3424 0.961 . S
C3417 H3425 0.960 . S
C3418 C3416 1.381 . S
C3418 C3419 1.394 . S
C3418 H3426 0.930 . S
C3419 C3418 1.394 . S
C3419 C3420 1.383 . S
C3419 H3427 0.929 . S
C3420 C3419 1.383 . S
C3420 C3421 1.377 . S
C3421 H3405 0.930 1_556 S
C3421 C3420 1.377 . S
C3421 C3422 1.379 . S
C3422 H3406 0.931 . S
C3422 C3416 1.383 . S
C3422 C3421 1.379 . S
H3423 C3417 0.959 . S
H3424 C3417 0.961 . S
H3425 C3417 0.960 . S
H3426 C3418 0.930 . S
H3427 C3419 0.929 . S
H3428 C3436 0.929 . S
H3429 C3438 0.930 . S
H3430 C3440 0.930 . S
H3431 C3443 0.929 . S
H3432 C3446 0.930 . S
H3433 C3448 0.960 . S
H3434 C3448 0.960 . S
H3435 C3448 0.960 . S
C3436 H3428 0.929 . S
C3436 C3437 1.377 . S
C3436 C3438 1.384 . S
C3437 C3436 1.377 . S
C3437 C3443 1.390 . S
C3438 H3429 0.930 . S
C3438 C3436 1.384 . S
C3438 C3439 1.372 . S
C3439 C3438 1.372 . S
C3439 C3440 1.400 . S
C3439 C3444 1.490 . S
C3440 H3430 0.930 . S
C3440 C3439 1.400 . S
C3440 C3443 1.386 . S
H3441 C3457 0.930 . S
H3442 C3458 0.931 . S
C3443 H3431 0.929 . S
C3443 C3437 1.390 . S
C3443 C3440 1.386 . S
C3444 C3439 1.490 . S
C3444 C3446 1.395 . S
C3444 C3447 1.403 . S
H3445 C3451 0.930 . S
C3446 H3432 0.930 . S
C3446 C3444 1.395 . S
C3446 C3449 1.403 . S
C3447 C3444 1.403 . S
C3447 C3448 1.524 . S
C3447 C3451 1.400 . S
C3448 H3433 0.960 . S
C3448 H3434 0.960 . S
C3448 H3435 0.960 . S
C3448 C3447 1.524 . S
C3449 C3446 1.403 . S
C3449 C3450 1.392 . S
C3449 C3453 1.495 . S
C3450 C3449 1.392 . S
C3450 C3451 1.385 . S
C3450 C3452 1.478 . S
C3451 H3445 0.930 . S
C3451 C3447 1.400 . S
C3451 C3450 1.385 . S
C3452 C3450 1.478 . S
C3452 C3454 1.381 . S
C3452 C3458 1.383 . S
C3453 C3449 1.495 . S
C3453 H3459 0.959 . S
C3453 H3460 0.961 . S
C3453 H3461 0.960 . S
C3454 C3452 1.381 . S
C3454 C3455 1.394 . S
C3454 H3462 0.930 . S
C3455 C3454 1.394 . S
C3455 C3456 1.383 . S
C3455 H3463 0.929 . S
C3456 C3455 1.383 . S
C3456 C3457 1.377 . S
C3457 H3441 0.930 . S
C3457 C3456 1.377 . S
C3457 C3458 1.379 . S
C3458 H3442 0.931 . S
C3458 C3452 1.383 . S
C3458 C3457 1.379 . S
H3459 C3453 0.959 . S
H3460 C3453 0.961 . S
H3461 C3453 0.960 . S
H3462 C3454 0.930 . S
H3463 C3455 0.929 . S
H3464 C3472 0.929 . S
H3465 C3474 0.930 . S
H3466 C3476 0.930 1_655 S
H3467 C3479 0.929 1_655 S
H3468 C3482 0.930 . S
H3469 C3484 0.960 . S
H3470 C3484 0.960 . S
H3471 C3484 0.960 . S
C3472 H3464 0.929 . S
C3472 C3473 1.377 . S
C3472 C3474 1.384 . S
C3473 C3472 1.377 . S
C3473 C3479 1.390 . S
C3474 H3465 0.930 . S
C3474 C3472 1.384 . S
C3474 C3475 1.372 . S
C3475 C3474 1.372 . S
C3475 C3476 1.400 . S
C3475 C3480 1.490 . S
C3476 H3466 0.930 1_455 S
C3476 C3475 1.400 . S
C3476 C3479 1.386 . S
H3477 C3493 0.930 . S
H3478 C3494 0.950 . S
C3479 H3467 0.929 1_455 S
C3479 C3473 1.390 . S
C3479 C3476 1.386 . S
C3480 C3475 1.490 . S
C3480 C3482 1.395 . S
C3480 C3483 1.403 . S
H3481 C3487 0.930 . S
C3482 H3468 0.930 . S
C3482 C3480 1.395 . S
C3482 C3485 1.403 . S
C3483 C3480 1.403 . S
C3483 C3484 1.524 . S
C3483 C3487 1.400 . S
C3484 H3469 0.960 . S
C3484 H3470 0.960 . S
C3484 H3471 0.960 . S
C3484 C3483 1.524 . S
C3485 C3482 1.403 . S
C3485 C3486 1.392 . S
C3485 C3489 1.495 . S
C3486 C3485 1.392 . S
C3486 C3487 1.385 . S
C3486 C3488 1.478 . S
C3487 H3481 0.930 . S
C3487 C3483 1.400 . S
C3487 C3486 1.385 . S
C3488 C3486 1.478 . S
C3488 C3490 1.381 . S
C3488 C3494 1.357 1_455 S
C3489 C3485 1.495 . S
C3489 H3495 0.959 . S
C3489 H3496 0.961 . S
C3489 H3497 0.960 . S
C3490 C3488 1.381 . S
C3490 C3491 1.394 . S
C3490 H3498 0.930 . S
C3491 C3490 1.394 . S
C3491 C3492 1.383 . S
C3491 H3499 0.929 . S
C3492 C3491 1.383 . S
C3492 C3493 1.377 1_455 S
C3493 H3477 0.930 . S
C3493 C3492 1.377 1_655 S
C3493 C3494 1.387 . S
C3494 H3478 0.950 . S
C3494 C3488 1.357 1_655 S
C3494 C3493 1.387 . S
H3495 C3489 0.959 . S
H3496 C3489 0.961 . S
H3497 C3489 0.960 . S
H3498 C3490 0.930 . S
H3499 C3491 0.929 . S
H3500 C3508 0.929 . S
H3501 C3510 0.930 . S
H3502 C3512 0.930 . S
H3503 C3515 0.929 . S
H3504 C3518 0.930 . S
H3505 C3520 0.960 . S
H3506 C3520 0.960 . S
H3507 C3520 0.960 . S
C3508 H3500 0.929 . S
C3508 C3509 1.377 . S
C3508 C3510 1.384 . S
C3509 C3508 1.377 . S
C3509 C3515 1.390 . S
C3510 H3501 0.930 . S
C3510 C3508 1.384 . S
C3510 C3511 1.372 . S
C3511 C3510 1.372 . S
C3511 C3512 1.400 . S
C3511 C3516 1.490 . S
C3512 H3502 0.930 . S
C3512 C3511 1.400 . S
C3512 C3515 1.386 . S
H3513 C3529 0.930 . S
H3514 C3530 0.931 . S
C3515 H3503 0.929 . S
C3515 C3509 1.390 . S
C3515 C3512 1.386 . S
C3516 C3511 1.490 . S
C3516 C3518 1.395 . S
C3516 C3519 1.403 . S
H3517 C3523 0.930 . S
C3518 H3504 0.930 . S
C3518 C3516 1.395 . S
C3518 C3521 1.403 . S
C3519 C3516 1.403 . S
C3519 C3520 1.524 . S
C3519 C3523 1.400 . S
C3520 H3505 0.960 . S
C3520 H3506 0.960 . S
C3520 H3507 0.960 . S
C3520 C3519 1.524 . S
C3521 C3518 1.403 . S
C3521 C3522 1.392 . S
C3521 C3525 1.495 . S
C3522 C3521 1.392 . S
C3522 C3523 1.385 . S
C3522 C3524 1.478 . S
C3523 H3517 0.930 . S
C3523 C3519 1.400 . S
C3523 C3522 1.385 . S
C3524 C3522 1.478 . S
C3524 C3526 1.381 . S
C3524 C3530 1.383 . S
C3525 C3521 1.495 . S
C3525 H3531 0.959 . S
C3525 H3532 0.961 . S
C3525 H3533 0.960 . S
C3526 C3524 1.381 . S
C3526 C3527 1.394 . S
C3526 H3534 0.930 . S
C3527 C3526 1.394 . S
C3527 C3528 1.383 . S
C3527 H3535 0.929 . S
C3528 C3527 1.383 . S
C3528 C3529 1.377 . S
C3529 H3513 0.930 . S
C3529 C3528 1.377 . S
C3529 C3530 1.379 . S
C3530 H3514 0.931 . S
C3530 C3524 1.383 . S
C3530 C3529 1.379 . S
H3531 C3525 0.959 . S
H3532 C3525 0.961 . S
H3533 C3525 0.960 . S
H3534 C3526 0.930 . S
H3535 C3527 0.929 . S
H3536 C3544 0.929 . S
H3537 C3546 0.930 . S
H3538 C3548 0.930 . S
H3539 C3551 0.929 . S
H3540 C3554 0.930 . S
H3541 C3556 0.960 . S
H3542 C3556 0.960 . S
H3543 C3556 0.960 . S
C3544 H3536 0.929 . S
C3544 C3545 1.377 . S
C3544 C3546 1.384 . S
C3545 C3544 1.377 . S
C3545 C3551 1.390 . S
C3546 H3537 0.930 . S
C3546 C3544 1.384 . S
C3546 C3547 1.372 . S
C3547 C3546 1.372 . S
C3547 C3548 1.400 . S
C3547 C3552 1.490 . S
C3548 H3538 0.930 . S
C3548 C3547 1.400 . S
C3548 C3551 1.386 . S
H3549 C3565 0.930 . S
H3550 C3566 0.931 . S
C3551 H3539 0.929 . S
C3551 C3545 1.390 . S
C3551 C3548 1.386 . S
C3552 C3547 1.490 . S
C3552 C3554 1.395 . S
C3552 C3555 1.403 . S
H3553 C3559 0.930 . S
C3554 H3540 0.930 . S
C3554 C3552 1.395 . S
C3554 C3557 1.403 . S
C3555 C3552 1.403 . S
C3555 C3556 1.524 . S
C3555 C3559 1.400 . S
C3556 H3541 0.960 . S
C3556 H3542 0.960 . S
C3556 H3543 0.960 . S
C3556 C3555 1.524 . S
C3557 C3554 1.403 . S
C3557 C3558 1.392 . S
C3557 C3561 1.495 . S
C3558 C3557 1.392 . S
C3558 C3559 1.385 . S
C3558 C3560 1.478 . S
C3559 H3553 0.930 . S
C3559 C3555 1.400 . S
C3559 C3558 1.385 . S
C3560 C3558 1.478 . S
C3560 C3562 1.381 . S
C3560 C3566 1.383 . S
C3561 C3557 1.495 . S
C3561 H3567 0.959 . S
C3561 H3568 0.961 . S
C3561 H3569 0.960 . S
C3562 C3560 1.381 . S
C3562 C3563 1.394 . S
C3562 H3570 0.930 . S
C3563 C3562 1.394 . S
C3563 C3564 1.383 . S
C3563 H3571 0.929 . S
C3564 C3563 1.383 . S
C3564 C3565 1.377 . S
C3565 H3549 0.930 . S
C3565 C3564 1.377 . S
C3565 C3566 1.379 . S
C3566 H3550 0.931 . S
C3566 C3560 1.383 . S
C3566 C3565 1.379 . S
H3567 C3561 0.959 . S
H3568 C3561 0.961 . S
H3569 C3561 0.960 . S
H3570 C3562 0.930 . S
H3571 C3563 0.929 . S
H3572 C3580 0.929 . S
H3573 C3582 0.930 . S
H3574 C3584 0.930 . S
H3575 C3587 0.929 . S
H3576 C3590 0.930 . S
H3577 C3592 0.960 . S
H3578 C3592 0.960 . S
H3579 C3592 0.960 . S
C3580 H3572 0.929 . S
C3580 C3581 1.377 . S
C3580 C3582 1.384 . S
C3581 C3580 1.377 . S
C3581 C3587 1.390 . S
C3582 H3573 0.930 . S
C3582 C3580 1.384 . S
C3582 C3583 1.372 . S
C3583 C3582 1.372 . S
C3583 C3584 1.400 . S
C3583 C3588 1.490 . S
C3584 H3574 0.930 . S
C3584 C3583 1.400 . S
C3584 C3587 1.386 . S
H3585 C3601 0.930 . S
H3586 C3602 0.931 . S
C3587 H3575 0.929 . S
C3587 C3581 1.390 . S
C3587 C3584 1.386 . S
C3588 C3583 1.490 . S
C3588 C3590 1.395 . S
C3588 C3591 1.403 . S
H3589 C3595 0.930 . S
C3590 H3576 0.930 . S
C3590 C3588 1.395 . S
C3590 C3593 1.403 . S
C3591 C3588 1.403 . S
C3591 C3592 1.524 . S
C3591 C3595 1.400 . S
C3592 H3577 0.960 . S
C3592 H3578 0.960 . S
C3592 H3579 0.960 . S
C3592 C3591 1.524 . S
C3593 C3590 1.403 . S
C3593 C3594 1.392 . S
C3593 C3597 1.495 . S
C3594 C3593 1.392 . S
C3594 C3595 1.385 . S
C3594 C3596 1.478 . S
C3595 H3589 0.930 . S
C3595 C3591 1.400 . S
C3595 C3594 1.385 . S
C3596 C3594 1.478 . S
C3596 C3598 1.381 . S
C3596 C3602 1.383 . S
C3597 C3593 1.495 . S
C3597 H3603 0.959 . S
C3597 H3604 0.961 . S
C3597 H3605 0.960 . S
C3598 C3596 1.381 . S
C3598 C3599 1.394 . S
C3598 H3606 0.930 . S
C3599 C3598 1.394 . S
C3599 C3600 1.383 . S
C3599 H3607 0.929 . S
C3600 C3599 1.383 . S
C3600 C3601 1.377 . S
C3601 H3585 0.930 . S
C3601 C3600 1.377 . S
C3601 C3602 1.379 . S
C3602 H3586 0.931 . S
C3602 C3596 1.383 . S
C3602 C3601 1.379 . S
H3603 C3597 0.959 . S
H3604 C3597 0.961 . S
H3605 C3597 0.960 . S
H3606 C3598 0.930 . S
H3607 C3599 0.929 . S
H3608 C3616 0.929 . S
H3609 C3618 0.930 . S
H3610 C3620 0.930 . S
H3611 C3623 0.929 . S
H3612 C3626 0.930 . S
H3613 C3628 0.960 . S
H3614 C3628 0.960 . S
H3615 C3628 0.960 . S
C3616 H3608 0.929 . S
C3616 C3617 1.377 . S
C3616 C3618 1.384 . S
C3617 C3616 1.377 . S
C3617 C3623 1.390 . S
C3618 H3609 0.930 . S
C3618 C3616 1.384 . S
C3618 C3619 1.372 . S
C3619 C3618 1.372 . S
C3619 C3620 1.400 . S
C3619 C3624 1.490 . S
C3620 H3610 0.930 . S
C3620 C3619 1.400 . S
C3620 C3623 1.386 . S
H3621 C3637 0.930 . S
H3622 C3638 0.931 . S
C3623 H3611 0.929 . S
C3623 C3617 1.390 . S
C3623 C3620 1.386 . S
C3624 C3619 1.490 . S
C3624 C3626 1.395 . S
C3624 C3627 1.403 . S
H3625 C3631 0.930 . S
C3626 H3612 0.930 . S
C3626 C3624 1.395 . S
C3626 C3629 1.403 . S
C3627 C3624 1.403 . S
C3627 C3628 1.524 . S
C3627 C3631 1.400 . S
C3628 H3613 0.960 . S
C3628 H3614 0.960 . S
C3628 H3615 0.960 . S
C3628 C3627 1.524 . S
C3629 C3626 1.403 . S
C3629 C3630 1.392 . S
C3629 C3633 1.495 . S
C3630 C3629 1.392 . S
C3630 C3631 1.385 . S
C3630 C3632 1.478 . S
C3631 H3625 0.930 . S
C3631 C3627 1.400 . S
C3631 C3630 1.385 . S
C3632 C3630 1.478 . S
C3632 C3634 1.381 . S
C3632 C3638 1.383 . S
C3633 C3629 1.495 . S
C3633 H3639 0.959 . S
C3633 H3640 0.961 . S
C3633 H3641 0.960 . S
C3634 C3632 1.381 . S
C3634 C3635 1.394 1_655 S
C3634 H3642 0.930 1_655 S
C3635 C3634 1.394 1_455 S
C3635 C3636 1.383 1_455 S
C3635 H3643 0.929 . S
C3636 C3635 1.383 1_655 S
C3636 C3637 1.377 . S
C3637 H3621 0.930 . S
C3637 C3636 1.377 . S
C3637 C3638 1.379 . S
C3638 H3622 0.931 . S
C3638 C3632 1.383 . S
C3638 C3637 1.379 . S
H3639 C3633 0.959 . S
H3640 C3633 0.961 . S
H3641 C3633 0.960 . S
H3642 C3634 0.930 1_455 S
H3643 C3635 0.929 . S
H3644 C3652 0.929 . S
H3645 C3654 0.930 . S
H3646 C3656 0.930 . S
H3647 C3659 0.929 . S
H3648 C3662 0.930 . S
H3649 C3664 0.960 . S
H3650 C3664 0.960 . S
H3651 C3664 0.960 . S
C3652 H3644 0.929 . S
C3652 C3653 1.377 . S
C3652 C3654 1.384 . S
C3653 C3652 1.377 . S
C3653 C3659 1.390 . S
C3654 H3645 0.930 . S
C3654 C3652 1.384 . S
C3654 C3655 1.372 . S
C3655 C3654 1.372 . S
C3655 C3656 1.400 . S
C3655 C3660 1.490 . S
C3656 H3646 0.930 . S
C3656 C3655 1.400 . S
C3656 C3659 1.386 . S
H3657 C3673 0.930 . S
H3658 C3674 0.931 . S
C3659 H3647 0.929 . S
C3659 C3653 1.390 . S
C3659 C3656 1.386 . S
C3660 C3655 1.490 . S
C3660 C3662 1.395 . S
C3660 C3663 1.403 . S
H3661 C3667 0.930 . S
C3662 H3648 0.930 . S
C3662 C3660 1.395 . S
C3662 C3665 1.403 . S
C3663 C3660 1.403 . S
C3663 C3664 1.524 . S
C3663 C3667 1.400 . S
C3664 H3649 0.960 . S
C3664 H3650 0.960 . S
C3664 H3651 0.960 . S
C3664 C3663 1.524 . S
C3665 C3662 1.403 . S
C3665 C3666 1.392 . S
C3665 C3669 1.495 . S
C3666 C3665 1.392 . S
C3666 C3667 1.385 . S
C3666 C3668 1.478 . S
C3667 H3661 0.930 . S
C3667 C3663 1.400 . S
C3667 C3666 1.385 . S
C3668 C3666 1.478 . S
C3668 C3670 1.381 . S
C3668 C3674 1.383 . S
C3669 C3665 1.495 . S
C3669 H3675 0.959 . S
C3669 H3676 0.961 . S
C3669 H3677 0.960 . S
C3670 C3668 1.381 . S
C3670 C3671 1.394 . S
C3670 H3678 0.930 . S
C3671 C3670 1.394 . S
C3671 C3672 1.383 . S
C3671 H3679 0.929 . S
C3672 C3671 1.383 . S
C3672 C3673 1.377 . S
C3673 H3657 0.930 . S
C3673 C3672 1.377 . S
C3673 C3674 1.379 . S
C3674 H3658 0.931 . S
C3674 C3668 1.383 . S
C3674 C3673 1.379 . S
H3675 C3669 0.959 . S
H3676 C3669 0.961 . S
H3677 C3669 0.960 . S
H3678 C3670 0.930 . S
H3679 C3671 0.929 . S
H3680 C3688 0.929 . S
H3681 C3690 0.930 . S
H3682 C3692 0.930 . S
H3683 C3695 0.929 . S
H3684 C3698 0.930 . S
H3685 C3700 0.960 . S
H3686 C3700 0.960 . S
H3687 C3700 0.960 . S
C3688 H3680 0.929 . S
C3688 C3689 1.377 . S
C3688 C3690 1.384 . S
C3689 C3688 1.377 . S
C3689 C3695 1.390 . S
C3690 H3681 0.930 . S
C3690 C3688 1.384 . S
C3690 C3691 1.372 . S
C3691 C3690 1.372 . S
C3691 C3692 1.400 . S
C3691 C3696 1.490 . S
C3692 H3682 0.930 . S
C3692 C3691 1.400 . S
C3692 C3695 1.386 . S
H3693 C3709 0.930 . S
H3694 C3710 0.931 . S
C3695 H3683 0.929 . S
C3695 C3689 1.390 . S
C3695 C3692 1.386 . S
C3696 C3691 1.490 . S
C3696 C3698 1.395 . S
C3696 C3699 1.403 . S
H3697 C3703 0.930 . S
C3698 H3684 0.930 . S
C3698 C3696 1.395 . S
C3698 C3701 1.403 . S
C3699 C3696 1.403 . S
C3699 C3700 1.524 . S
C3699 C3703 1.400 . S
C3700 H3685 0.960 . S
C3700 H3686 0.960 . S
C3700 H3687 0.960 . S
C3700 C3699 1.524 . S
C3701 C3698 1.403 . S
C3701 C3702 1.392 . S
C3701 C3705 1.495 . S
C3702 C3701 1.392 . S
C3702 C3703 1.385 . S
C3702 C3704 1.478 . S
C3703 H3697 0.930 . S
C3703 C3699 1.400 . S
C3703 C3702 1.385 . S
C3704 C3702 1.478 . S
C3704 C3706 1.381 . S
C3704 C3710 1.383 . S
C3705 C3701 1.495 . S
C3705 H3711 0.959 . S
C3705 H3712 0.961 . S
C3705 H3713 0.960 . S
C3706 C3704 1.381 . S
C3706 C3707 1.394 . S
C3706 H3714 0.930 . S
C3707 C3706 1.394 . S
C3707 C3708 1.383 . S
C3707 H3715 0.929 . S
C3708 C3707 1.383 . S
C3708 C3709 1.377 . S
C3709 H3693 0.930 . S
C3709 C3708 1.377 . S
C3709 C3710 1.379 . S
C3710 H3694 0.931 . S
C3710 C3704 1.383 . S
C3710 C3709 1.379 . S
H3711 C3705 0.959 . S
H3712 C3705 0.961 . S
H3713 C3705 0.960 . S
H3714 C3706 0.930 . S
H3715 C3707 0.929 . S
H3716 C3724 0.929 . S
H3717 C3726 0.930 . S
H3718 C3728 0.930 . S
H3719 C3731 0.929 . S
H3720 C3734 0.930 . S
H3721 C3736 0.960 . S
H3722 C3736 0.960 . S
H3723 C3736 0.960 . S
C3724 H3716 0.929 . S
C3724 C3725 1.377 . S
C3724 C3726 1.384 . S
C3725 C3724 1.377 . S
C3725 C3731 1.390 . S
C3726 H3717 0.930 . S
C3726 C3724 1.384 . S
C3726 C3727 1.372 . S
C3727 C3726 1.372 . S
C3727 C3728 1.400 . S
C3727 C3732 1.490 . S
C3728 H3718 0.930 . S
C3728 C3727 1.400 . S
C3728 C3731 1.386 . S
H3729 C3745 0.930 . S
H3730 C3746 0.931 . S
C3731 H3719 0.929 . S
C3731 C3725 1.390 . S
C3731 C3728 1.386 . S
C3732 C3727 1.490 . S
C3732 C3734 1.395 . S
C3732 C3735 1.403 . S
H3733 C3739 0.930 . S
C3734 H3720 0.930 . S
C3734 C3732 1.395 . S
C3734 C3737 1.403 . S
C3735 C3732 1.403 . S
C3735 C3736 1.524 . S
C3735 C3739 1.400 . S
C3736 H3721 0.960 . S
C3736 H3722 0.960 . S
C3736 H3723 0.960 . S
C3736 C3735 1.524 . S
C3737 C3734 1.403 . S
C3737 C3738 1.392 . S
C3737 C3741 1.495 . S
C3738 C3737 1.392 . S
C3738 C3739 1.385 . S
C3738 C3740 1.478 . S
C3739 H3733 0.930 . S
C3739 C3735 1.400 . S
C3739 C3738 1.385 . S
C3740 C3738 1.478 . S
C3740 C3742 1.381 . S
C3740 C3746 1.383 . S
C3741 C3737 1.495 . S
C3741 H3747 0.959 . S
C3741 H3748 0.961 . S
C3741 H3749 0.960 . S
C3742 C3740 1.381 . S
C3742 C3743 1.394 . S
C3742 H3750 0.930 . S
C3743 C3742 1.394 . S
C3743 C3744 1.383 . S
C3743 H3751 0.929 . S
C3744 C3743 1.383 . S
C3744 C3745 1.377 . S
C3745 H3729 0.930 . S
C3745 C3744 1.377 . S
C3745 C3746 1.379 . S
C3746 H3730 0.931 . S
C3746 C3740 1.383 . S
C3746 C3745 1.379 . S
H3747 C3741 0.959 . S
H3748 C3741 0.961 . S
H3749 C3741 0.960 . S
H3750 C3742 0.930 . S
H3751 C3743 0.929 . S
H3752 C3760 0.929 . S
H3753 C3762 0.930 . S
H3754 C3764 0.930 . S
H3755 C3767 0.929 . S
H3756 C3770 0.930 . S
H3757 C3772 0.960 . S
H3758 C3772 0.960 . S
H3759 C3772 0.960 . S
C3760 H3752 0.929 . S
C3760 C3761 1.377 . S
C3760 C3762 1.384 . S
C3761 C3760 1.377 . S
C3761 C3767 1.390 . S
C3762 H3753 0.930 . S
C3762 C3760 1.384 . S
C3762 C3763 1.372 . S
C3763 C3762 1.372 . S
C3763 C3764 1.400 . S
C3763 C3768 1.490 . S
C3764 H3754 0.930 . S
C3764 C3763 1.400 . S
C3764 C3767 1.386 . S
H3765 C3781 0.930 . S
H3766 C3782 0.931 . S
C3767 H3755 0.929 . S
C3767 C3761 1.390 . S
C3767 C3764 1.386 . S
C3768 C3763 1.490 . S
C3768 C3770 1.395 . S
C3768 C3771 1.403 . S
H3769 C3775 0.930 . S
C3770 H3756 0.930 . S
C3770 C3768 1.395 . S
C3770 C3773 1.403 . S
C3771 C3768 1.403 . S
C3771 C3772 1.524 . S
C3771 C3775 1.400 . S
C3772 H3757 0.960 . S
C3772 H3758 0.960 . S
C3772 H3759 0.960 . S
C3772 C3771 1.524 . S
C3773 C3770 1.403 . S
C3773 C3774 1.392 . S
C3773 C3777 1.495 . S
C3774 C3773 1.392 . S
C3774 C3775 1.385 . S
C3774 C3776 1.478 . S
C3775 H3769 0.930 . S
C3775 C3771 1.400 . S
C3775 C3774 1.385 . S
C3776 C3774 1.478 . S
C3776 C3778 1.381 . S
C3776 C3782 1.383 . S
C3777 C3773 1.495 . S
C3777 H3783 0.959 . S
C3777 H3784 0.961 . S
C3777 H3785 0.960 . S
C3778 C3776 1.381 . S
C3778 C3779 1.394 . S
C3778 H3786 0.930 . S
C3779 C3778 1.394 . S
C3779 C3780 1.383 . S
C3779 H3787 0.929 . S
C3780 C3779 1.383 . S
C3780 C3781 1.377 . S
C3781 H3765 0.930 . S
C3781 C3780 1.377 . S
C3781 C3782 1.379 . S
C3782 H3766 0.931 . S
C3782 C3776 1.383 . S
C3782 C3781 1.379 . S
H3783 C3777 0.959 . S
H3784 C3777 0.961 . S
H3785 C3777 0.960 . S
H3786 C3778 0.930 . S
H3787 C3779 0.929 . S
H3788 C3796 0.929 . S
H3789 C3798 0.930 . S
H3790 C3800 0.930 . S
H3791 C3803 0.929 . S
H3792 C3806 0.930 . S
H3793 C3808 0.960 . S
H3794 C3808 0.960 . S
H3795 C3808 0.960 . S
C3796 H3788 0.929 . S
C3796 C3797 1.377 . S
C3796 C3798 1.384 . S
C3797 C3796 1.377 . S
C3797 C3803 1.390 . S
C3798 H3789 0.930 . S
C3798 C3796 1.384 . S
C3798 C3799 1.372 . S
C3799 C3798 1.372 . S
C3799 C3800 1.400 . S
C3799 C3804 1.490 . S
C3800 H3790 0.930 . S
C3800 C3799 1.400 . S
C3800 C3803 1.386 . S
H3801 C3817 0.930 . S
H3802 C3818 0.931 . S
C3803 H3791 0.929 . S
C3803 C3797 1.390 . S
C3803 C3800 1.386 . S
C3804 C3799 1.490 . S
C3804 C3806 1.395 . S
C3804 C3807 1.403 . S
H3805 C3811 0.930 . S
C3806 H3792 0.930 . S
C3806 C3804 1.395 . S
C3806 C3809 1.403 . S
C3807 C3804 1.403 . S
C3807 C3808 1.524 . S
C3807 C3811 1.400 . S
C3808 H3793 0.960 . S
C3808 H3794 0.960 . S
C3808 H3795 0.960 . S
C3808 C3807 1.524 . S
C3809 C3806 1.403 . S
C3809 C3810 1.392 . S
C3809 C3813 1.495 . S
C3810 C3809 1.392 . S
C3810 C3811 1.385 . S
C3810 C3812 1.478 . S
C3811 H3805 0.930 . S
C3811 C3807 1.400 . S
C3811 C3810 1.385 . S
C3812 C3810 1.478 . S
C3812 C3814 1.381 . S
C3812 C3818 1.383 . S
C3813 C3809 1.495 . S
C3813 H3819 0.959 . S
C3813 H3820 0.961 . S
C3813 H3821 0.960 . S
C3814 C3812 1.381 . S
C3814 C3815 1.394 . S
C3814 H3822 0.930 . S
C3815 C3814 1.394 . S
C3815 C3816 1.383 . S
C3815 H3823 0.929 . S
C3816 C3815 1.383 . S
C3816 C3817 1.377 . S
C3817 H3801 0.930 . S
C3817 C3816 1.377 . S
C3817 C3818 1.379 . S
C3818 H3802 0.931 . S
C3818 C3812 1.383 . S
C3818 C3817 1.379 . S
H3819 C3813 0.959 . S
H3820 C3813 0.961 . S
H3821 C3813 0.960 . S
H3822 C3814 0.930 . S
H3823 C3815 0.929 . S
H3824 C3832 0.929 . S
H3825 C3834 0.930 . S
H3826 C3836 0.930 . S
H3827 C3839 0.929 . S
H3828 C3842 0.930 . S
H3829 C3844 0.960 . S
H3830 C3844 0.960 . S
H3831 C3844 0.960 . S
C3832 H3824 0.929 . S
C3832 C3833 1.377 . S
C3832 C3834 1.384 . S
C3833 C3832 1.377 . S
C3833 C3839 1.390 . S
C3834 H3825 0.930 . S
C3834 C3832 1.384 . S
C3834 C3835 1.372 . S
C3835 C3834 1.372 . S
C3835 C3836 1.400 . S
C3835 C3840 1.490 . S
C3836 H3826 0.930 . S
C3836 C3835 1.400 . S
C3836 C3839 1.386 . S
H3837 C3853 0.930 . S
H3838 C3854 0.931 . S
C3839 H3827 0.929 . S
C3839 C3833 1.390 . S
C3839 C3836 1.386 . S
C3840 C3835 1.490 . S
C3840 C3842 1.395 . S
C3840 C3843 1.403 . S
H3841 C3847 0.930 . S
C3842 H3828 0.930 . S
C3842 C3840 1.395 . S
C3842 C3845 1.403 . S
C3843 C3840 1.403 . S
C3843 C3844 1.524 . S
C3843 C3847 1.400 . S
C3844 H3829 0.960 . S
C3844 H3830 0.960 . S
C3844 H3831 0.960 . S
C3844 C3843 1.524 . S
C3845 C3842 1.403 . S
C3845 C3846 1.392 . S
C3845 C3849 1.495 . S
C3846 C3845 1.392 . S
C3846 C3847 1.385 . S
C3846 C3848 1.478 . S
C3847 H3841 0.930 . S
C3847 C3843 1.400 . S
C3847 C3846 1.385 . S
C3848 C3846 1.478 . S
C3848 C3850 1.381 . S
C3848 C3854 1.383 . S
C3849 C3845 1.495 . S
C3849 H3855 0.959 . S
C3849 H3856 0.961 . S
C3849 H3857 0.960 . S
C3850 C3848 1.381 . S
C3850 C3851 1.394 . S
C3850 H3858 0.930 . S
C3851 C3850 1.394 . S
C3851 C3852 1.383 . S
C3851 H3859 0.929 . S
C3852 C3851 1.383 . S
C3852 C3853 1.377 . S
C3853 H3837 0.930 . S
C3853 C3852 1.377 . S
C3853 C3854 1.379 . S
C3854 H3838 0.931 . S
C3854 C3848 1.383 . S
C3854 C3853 1.379 . S
H3855 C3849 0.959 . S
H3856 C3849 0.961 . S
H3857 C3849 0.960 . S
H3858 C3850 0.930 . S
H3859 C3851 0.929 . S
H3860 C3868 0.929 . S
H3861 C3870 0.930 . S
H3862 C3872 0.930 . S
H3863 C3875 0.929 . S
H3864 C3878 0.930 . S
H3865 C3880 0.960 . S
H3866 C3880 0.960 . S
H3867 C3880 0.960 . S
C3868 H3860 0.929 . S
C3868 C3869 1.377 . S
C3868 C3870 1.384 . S
C3869 C3868 1.377 . S
C3869 C3875 1.390 . S
C3870 H3861 0.930 . S
C3870 C3868 1.384 . S
C3870 C3871 1.372 . S
C3871 C3870 1.372 . S
C3871 C3872 1.400 . S
C3871 C3876 1.490 . S
C3872 H3862 0.930 . S
C3872 C3871 1.400 . S
C3872 C3875 1.386 . S
H3873 C3889 0.930 . S
H3874 C3890 0.931 . S
C3875 H3863 0.929 . S
C3875 C3869 1.390 . S
C3875 C3872 1.386 . S
C3876 C3871 1.490 . S
C3876 C3878 1.395 . S
C3876 C3879 1.403 . S
H3877 C3883 0.930 . S
C3878 H3864 0.930 . S
C3878 C3876 1.395 . S
C3878 C3881 1.403 . S
C3879 C3876 1.403 . S
C3879 C3880 1.524 . S
C3879 C3883 1.400 . S
C3880 H3865 0.960 . S
C3880 H3866 0.960 . S
C3880 H3867 0.960 . S
C3880 C3879 1.524 . S
C3881 C3878 1.403 . S
C3881 C3882 1.392 . S
C3881 C3885 1.495 . S
C3882 C3881 1.392 . S
C3882 C3883 1.385 . S
C3882 C3884 1.478 . S
C3883 H3877 0.930 . S
C3883 C3879 1.400 . S
C3883 C3882 1.385 . S
C3884 C3882 1.478 . S
C3884 C3886 1.381 . S
C3884 C3890 1.383 . S
C3885 C3881 1.495 . S
C3885 H3891 0.959 . S
C3885 H3892 0.961 . S
C3885 H3893 0.960 . S
C3886 C3884 1.381 . S
C3886 C3887 1.394 1_565 S
C3886 H3894 0.948 . S
C3887 C3886 1.394 1_545 S
C3887 C3888 1.383 1_545 S
C3887 H3895 0.929 . S
C3888 C3887 1.383 1_565 S
C3888 C3889 1.377 . S
C3889 H3873 0.930 . S
C3889 C3888 1.377 . S
C3889 C3890 1.379 . S
C3890 H3874 0.931 . S
C3890 C3884 1.383 . S
C3890 C3889 1.379 . S
H3891 C3885 0.959 . S
H3892 C3885 0.961 . S
H3893 C3885 0.960 . S
H3894 C3886 0.948 . S
H3895 C3887 0.929 . S
H3896 C3904 0.929 . S
H3897 C3906 0.930 . S
H3898 C3908 0.930 . S
H3899 C3911 0.929 . S
H3900 C3914 0.930 . S
H3901 C3916 0.960 . S
H3902 C3916 0.960 . S
H3903 C3916 0.960 . S
C3904 H3896 0.929 . S
C3904 C3905 1.377 . S
C3904 C3906 1.384 . S
C3905 C3904 1.377 . S
C3905 C3911 1.390 . S
C3906 H3897 0.930 . S
C3906 C3904 1.384 . S
C3906 C3907 1.372 . S
C3907 C3906 1.372 . S
C3907 C3908 1.400 . S
C3907 C3912 1.490 . S
C3908 H3898 0.930 . S
C3908 C3907 1.400 . S
C3908 C3911 1.386 . S
H3909 C3925 0.930 . S
H3910 C3926 0.931 . S
C3911 H3899 0.929 . S
C3911 C3905 1.390 . S
C3911 C3908 1.386 . S
C3912 C3907 1.490 . S
C3912 C3914 1.395 . S
C3912 C3915 1.403 . S
H3913 C3919 0.930 . S
C3914 H3900 0.930 . S
C3914 C3912 1.395 . S
C3914 C3917 1.403 . S
C3915 C3912 1.403 . S
C3915 C3916 1.524 . S
C3915 C3919 1.400 . S
C3916 H3901 0.960 . S
C3916 H3902 0.960 . S
C3916 H3903 0.960 . S
C3916 C3915 1.524 . S
C3917 C3914 1.403 . S
C3917 C3918 1.392 . S
C3917 C3921 1.495 . S
C3918 C3917 1.392 . S
C3918 C3919 1.385 . S
C3918 C3920 1.478 . S
C3919 H3913 0.930 . S
C3919 C3915 1.400 . S
C3919 C3918 1.385 . S
C3920 C3918 1.478 . S
C3920 C3922 1.381 . S
C3920 C3926 1.383 . S
C3921 C3917 1.495 . S
C3921 H3927 0.959 . S
C3921 H3928 0.961 . S
C3921 H3929 0.960 . S
C3922 C3920 1.381 . S
C3922 C3923 1.394 . S
C3922 H3930 0.930 . S
C3923 C3922 1.394 . S
C3923 C3924 1.383 . S
C3923 H3931 0.929 . S
C3924 C3923 1.383 . S
C3924 C3925 1.377 . S
C3925 H3909 0.930 . S
C3925 C3924 1.377 . S
C3925 C3926 1.379 . S
C3926 H3910 0.931 . S
C3926 C3920 1.383 . S
C3926 C3925 1.379 . S
H3927 C3921 0.959 . S
H3928 C3921 0.961 . S
H3929 C3921 0.960 . S
H3930 C3922 0.930 . S
H3931 C3923 0.929 . S
H3932 C3940 0.950 . S
H3933 C3942 0.930 . S
H3934 C3944 0.930 . S
H3935 C3947 0.929 . S
H3936 C3950 0.930 . S
H3937 C3952 0.960 . S
H3938 C3952 0.960 . S
H3939 C3952 0.960 . S
C3940 H3932 0.950 . S
C3940 C3941 1.359 1_556 S
C3940 C3942 1.382 . S
C3941 C3940 1.359 1_554 S
C3941 C3947 1.390 . S
C3942 H3933 0.930 . S
C3942 C3940 1.382 . S
C3942 C3943 1.372 1_556 S
C3943 C3942 1.372 1_554 S
C3943 C3944 1.400 . S
C3943 C3948 1.490 . S
C3944 H3934 0.930 . S
C3944 C3943 1.400 . S
C3944 C3947 1.386 . S
H3945 C3961 0.930 . S
H3946 C3962 0.931 . S
C3947 H3935 0.929 . S
C3947 C3941 1.390 . S
C3947 C3944 1.386 . S
C3948 C3943 1.490 . S
C3948 C3950 1.395 . S
C3948 C3951 1.403 . S
H3949 C3955 0.930 . S
C3950 H3936 0.930 . S
C3950 C3948 1.395 . S
C3950 C3953 1.403 . S
C3951 C3948 1.403 . S
C3951 C3952 1.524 . S
C3951 C3955 1.400 . S
C3952 H3937 0.960 . S
C3952 H3938 0.960 . S
C3952 H3939 0.960 . S
C3952 C3951 1.524 . S
C3953 C3950 1.403 . S
C3953 C3954 1.392 . S
C3953 C3957 1.495 1_554 S
C3954 C3953 1.392 . S
C3954 C3955 1.385 . S
C3954 C3956 1.478 . S
C3955 H3949 0.930 . S
C3955 C3951 1.400 . S
C3955 C3954 1.385 . S
C3956 C3954 1.478 . S
C3956 C3958 1.381 1_554 S
C3956 C3962 1.383 . S
C3957 C3953 1.495 1_556 S
C3957 H3963 0.959 . S
C3957 H3964 0.961 1_556 S
C3957 H3965 0.960 . S
C3958 C3956 1.381 1_556 S
C3958 C3959 1.394 . S
C3958 H3966 0.930 . S
C3959 C3958 1.394 . S
C3959 C3960 1.383 1_556 S
C3959 H3967 0.929 . S
C3960 C3959 1.383 1_554 S
C3960 C3961 1.377 . S
C3961 H3945 0.930 . S
C3961 C3960 1.377 . S
C3961 C3962 1.379 . S
C3962 H3946 0.931 . S
C3962 C3956 1.383 . S
C3962 C3961 1.379 . S
H3963 C3957 0.959 . S
H3964 C3957 0.961 1_554 S
H3965 C3957 0.960 . S
H3966 C3958 0.930 . S
H3967 C3959 0.929 . S
H3968 C3976 0.929 . S
H3969 C3978 0.930 . S
H3970 C3980 0.930 . S
H3971 C3983 0.929 . S
H3972 C3986 0.930 . S
H3973 C3988 0.960 . S
H3974 C3988 0.960 . S
H3975 C3988 0.960 . S
C3976 H3968 0.929 . S
C3976 C3977 1.377 . S
C3976 C3978 1.384 . S
C3977 C3976 1.377 . S
C3977 C3983 1.390 . S
C3978 H3969 0.930 . S
C3978 C3976 1.384 . S
C3978 C3979 1.372 . S
C3979 C3978 1.372 . S
C3979 C3980 1.400 . S
C3979 C3984 1.490 . S
C3980 H3970 0.930 . S
C3980 C3979 1.400 . S
C3980 C3983 1.386 . S
H3981 C3997 0.930 . S
H3982 C3998 0.931 . S
C3983 H3971 0.929 . S
C3983 C3977 1.390 . S
C3983 C3980 1.386 . S
C3984 C3979 1.490 . S
C3984 C3986 1.395 . S
C3984 C3987 1.403 . S
H3985 C3991 0.930 . S
C3986 H3972 0.930 . S
C3986 C3984 1.395 . S
C3986 C3989 1.403 . S
C3987 C3984 1.403 . S
C3987 C3988 1.524 . S
C3987 C3991 1.400 . S
C3988 H3973 0.960 . S
C3988 H3974 0.960 . S
C3988 H3975 0.960 . S
C3988 C3987 1.524 . S
C3989 C3986 1.403 . S
C3989 C3990 1.392 . S
C3989 C3993 1.495 . S
C3990 C3989 1.392 . S
C3990 C3991 1.385 . S
C3990 C3992 1.478 . S
C3991 H3985 0.930 . S
C3991 C3987 1.400 . S
C3991 C3990 1.385 . S
C3992 C3990 1.478 . S
C3992 C3994 1.381 . S
C3992 C3998 1.383 . S
C3993 C3989 1.495 . S
C3993 H3999 0.959 . S
C3993 H4000 0.961 . S
C3993 H4001 0.960 . S
C3994 C3992 1.381 . S
C3994 C3995 1.394 . S
C3994 H4002 0.930 . S
C3995 C3994 1.394 . S
C3995 C3996 1.383 . S
C3995 H4003 0.929 . S
C3996 C3995 1.383 . S
C3996 C3997 1.377 . S
C3997 H3981 0.930 . S
C3997 C3996 1.377 . S
C3997 C3998 1.379 . S
C3998 H3982 0.931 . S
C3998 C3992 1.383 . S
C3998 C3997 1.379 . S
H3999 C3993 0.959 . S
H4000 C3993 0.961 . S
H4001 C3993 0.960 . S
H4002 C3994 0.930 . S
H4003 C3995 0.929 . S
H4004 C4012 0.929 . S
H4005 C4014 0.930 . S
H4006 C4016 0.930 . S
H4007 C4019 0.929 . S
H4008 C4022 0.930 . S
H4009 C4024 0.960 . S
H4010 C4024 0.960 . S
H4011 C4024 0.960 . S
C4012 H4004 0.929 . S
C4012 C4013 1.377 . S
C4012 C4014 1.384 . S
C4013 C4012 1.377 . S
C4013 C4019 1.390 . S
C4014 H4005 0.930 . S
C4014 C4012 1.384 . S
C4014 C4015 1.372 . S
C4015 C4014 1.372 . S
C4015 C4016 1.400 . S
C4015 C4020 1.490 . S
C4016 H4006 0.930 . S
C4016 C4015 1.400 . S
C4016 C4019 1.386 . S
H4017 C4033 0.930 . S
H4018 C4034 0.931 . S
C4019 H4007 0.929 . S
C4019 C4013 1.390 . S
C4019 C4016 1.386 . S
C4020 C4015 1.490 . S
C4020 C4022 1.395 . S
C4020 C4023 1.403 . S
H4021 C4027 0.930 . S
C4022 H4008 0.930 . S
C4022 C4020 1.395 . S
C4022 C4025 1.403 . S
C4023 C4020 1.403 . S
C4023 C4024 1.524 . S
C4023 C4027 1.400 . S
C4024 H4009 0.960 . S
C4024 H4010 0.960 . S
C4024 H4011 0.960 . S
C4024 C4023 1.524 . S
C4025 C4022 1.403 . S
C4025 C4026 1.392 . S
C4025 C4029 1.495 1_554 S
C4026 C4025 1.392 . S
C4026 C4027 1.385 . S
C4026 C4028 1.478 . S
C4027 H4021 0.930 . S
C4027 C4023 1.400 . S
C4027 C4026 1.385 . S
C4028 C4026 1.478 . S
C4028 C4030 1.351 1_554 S
C4028 C4034 1.383 . S
C4029 C4025 1.495 1_556 S
C4029 H4035 0.959 . S
C4029 H4036 0.961 . S
C4029 H4037 0.960 . S
C4030 C4028 1.351 1_556 S
C4030 C4031 1.397 . S
C4030 H4038 0.959 . S
C4031 C4030 1.397 . S
C4031 C4032 1.383 1_556 S
C4031 H4039 0.929 . S
C4032 C4031 1.383 1_554 S
C4032 C4033 1.377 . S
C4033 H4017 0.930 . S
C4033 C4032 1.377 . S
C4033 C4034 1.379 . S
C4034 H4018 0.931 . S
C4034 C4028 1.383 . S
C4034 C4033 1.379 . S
H4035 C4029 0.959 . S
H4036 C4029 0.961 . S
H4037 C4029 0.960 . S
H4038 C4030 0.959 . S
H4039 C4031 0.929 . S
H4040 C4048 0.929 . S
H4041 C4050 0.930 . S
H4042 C4052 0.930 . S
H4043 C4055 0.929 . S
H4044 C4058 0.930 . S
H4045 C4060 0.960 . S
H4046 C4060 0.960 . S
H4047 C4060 0.960 . S
C4048 H4040 0.929 . S
C4048 C4049 1.377 . S
C4048 C4050 1.384 . S
C4049 C4048 1.377 . S
C4049 C4055 1.390 . S
C4050 H4041 0.930 . S
C4050 C4048 1.384 . S
C4050 C4051 1.372 . S
C4051 C4050 1.372 . S
C4051 C4052 1.400 . S
C4051 C4056 1.490 . S
C4052 H4042 0.930 . S
C4052 C4051 1.400 . S
C4052 C4055 1.386 . S
H4053 C4069 0.930 . S
H4054 C4070 0.931 . S
C4055 H4043 0.929 . S
C4055 C4049 1.390 . S
C4055 C4052 1.386 . S
C4056 C4051 1.490 . S
C4056 C4058 1.395 . S
C4056 C4059 1.403 . S
H4057 C4063 0.930 . S
C4058 H4044 0.930 . S
C4058 C4056 1.395 . S
C4058 C4061 1.403 . S
C4059 C4056 1.403 . S
C4059 C4060 1.524 . S
C4059 C4063 1.400 . S
C4060 H4045 0.960 . S
C4060 H4046 0.960 . S
C4060 H4047 0.960 . S
C4060 C4059 1.524 . S
C4061 C4058 1.403 . S
C4061 C4062 1.392 . S
C4061 C4065 1.495 . S
C4062 C4061 1.392 . S
C4062 C4063 1.385 . S
C4062 C4064 1.478 . S
C4063 H4057 0.930 . S
C4063 C4059 1.400 . S
C4063 C4062 1.385 . S
C4064 C4062 1.478 . S
C4064 C4066 1.381 . S
C4064 C4070 1.383 . S
C4065 C4061 1.495 . S
C4065 H4071 0.959 . S
C4065 H4072 0.961 . S
C4065 H4073 0.960 . S
C4066 C4064 1.381 . S
C4066 C4067 1.394 . S
C4066 H4074 0.930 . S
C4067 C4066 1.394 . S
C4067 C4068 1.383 . S
C4067 H4075 0.929 . S
C4068 C4067 1.383 . S
C4068 C4069 1.377 . S
C4069 H4053 0.930 . S
C4069 C4068 1.377 . S
C4069 C4070 1.379 . S
C4070 H4054 0.931 . S
C4070 C4064 1.383 . S
C4070 C4069 1.379 . S
H4071 C4065 0.959 . S
H4072 C4065 0.961 . S
H4073 C4065 0.960 . S
H4074 C4066 0.930 . S
H4075 C4067 0.929 . S
H4076 C4084 0.929 . S
H4077 C4086 0.930 . S
H4078 C4088 0.930 . S
H4079 C4091 0.929 . S
H4080 C4094 0.930 . S
H4081 C4096 0.960 . S
H4082 C4096 0.960 . S
H4083 C4096 0.960 . S
C4084 H4076 0.929 . S
C4084 C4085 1.377 . S
C4084 C4086 1.384 . S
C4085 C4084 1.377 . S
C4085 C4091 1.390 . S
C4086 H4077 0.930 . S
C4086 C4084 1.384 . S
C4086 C4087 1.372 . S
C4087 C4086 1.372 . S
C4087 C4088 1.400 . S
C4087 C4092 1.490 . S
C4088 H4078 0.930 . S
C4088 C4087 1.400 . S
C4088 C4091 1.386 . S
H4089 C4105 0.930 . S
H4090 C4106 0.931 . S
C4091 H4079 0.929 . S
C4091 C4085 1.390 . S
C4091 C4088 1.386 . S
C4092 C4087 1.490 . S
C4092 C4094 1.395 . S
C4092 C4095 1.403 . S
H4093 C4099 0.930 . S
C4094 H4080 0.930 . S
C4094 C4092 1.395 . S
C4094 C4097 1.403 . S
C4095 C4092 1.403 . S
C4095 C4096 1.524 . S
C4095 C4099 1.400 . S
C4096 H4081 0.960 . S
C4096 H4082 0.960 . S
C4096 H4083 0.960 . S
C4096 C4095 1.524 . S
C4097 C4094 1.403 . S
C4097 C4098 1.392 . S
C4097 C4101 1.495 . S
C4098 C4097 1.392 . S
C4098 C4099 1.385 . S
C4098 C4100 1.478 . S
C4099 H4093 0.930 . S
C4099 C4095 1.400 . S
C4099 C4098 1.385 . S
C4100 C4098 1.478 . S
C4100 C4102 1.381 . S
C4100 C4106 1.383 . S
C4101 C4097 1.495 . S
C4101 H4107 0.959 . S
C4101 H4108 0.961 . S
C4101 H4109 0.960 . S
C4102 C4100 1.381 . S
C4102 C4103 1.394 . S
C4102 H4110 0.930 . S
C4103 C4102 1.394 . S
C4103 C4104 1.383 . S
C4103 H4111 0.929 . S
C4104 C4103 1.383 . S
C4104 C4105 1.377 . S
C4105 H4089 0.930 . S
C4105 C4104 1.377 . S
C4105 C4106 1.379 . S
C4106 H4090 0.931 . S
C4106 C4100 1.383 . S
C4106 C4105 1.379 . S
H4107 C4101 0.959 . S
H4108 C4101 0.961 . S
H4109 C4101 0.960 . S
H4110 C4102 0.930 . S
H4111 C4103 0.929 . S
C665 C111 1.200 . S
C684 C340 1.129 . S
C701 C64 1.394 . S
C720 C375 1.435 . S
C737 C77 0.866 . S
C756 C380 0.761 . S
C792 C405 1.190 . S
C773 C95 1.223 . S
C809 C25 1.235 . S
C828 C425 1.218 . S
C864 C440 0.876 . S
C845 C36 0.949 . S
C900 C475 1.388 . S
C881 C50 1.386 . S
C917 C11 1.176 . S
C936 C480 1.079 . S
C972 C355 1.309 . S
C953 C237 1.299 . S
C989 C245 0.842 . S
C1008 C365 0.852 . S
C1044 C395 1.300 . S
C1025 C279 1.251 1_565 S
C1080 C400 0.892 . S
C1061 C175 1.015 1_556 S
C1097 C231 0.967 . S
C1116 C420 0.880 . S
C1152 C455 1.267 . S
C1133 C251 1.233 . S
C1188 C465 0.839 . S
C1169 C273 0.890 . S
C1224 C495 1.355 . S
C1205 C181 1.313 . S
C1260 C345 1.080 . S
C1241 C165 1.229 . S
C1277 C288 1.674 . S
C1296 C515 1.685 . S
C1332 C525 1.254 . S
C1313 C333 1.386 . S
C1368 C540 0.923 . S
C1349 C316 0.934 . S
C1385 C123 1.193 . S
C1404 C485 1.050 . S
C1421 C137 1.338 . S
C1440 C385 1.288 . S
C1457 C330 1.662 . S
C1476 C575 1.716 . S
C1512 C580 0.888 . S
C1493 C302 0.938 . S
C1548 C338 1.192 . S
C1529 C63 1.378 . S
C1584 C594 1.460 . S
C1565 C106 1.473 . S
C1601 C97 0.933 . S
C1620 C378 0.908 . S
C1637 C81 1.306 . S
C1656 C568 1.224 . S
C1692 C428 1.362 . S
C1673 C13 1.337 . S
C1709 C55 0.923 . S
C1728 C518 0.846 . S
C1764 C474 1.414 1_556 S
C1745 C35 1.416 . S
C1800 C598 1.215 . S
C1781 C21 1.377 . S
C1836 C354 1.464 . S
C1817 C147 1.527 . S
C1872 C588 0.874 . S
C1853 C321 0.867 . S
C1889 C119 1.398 . S
C1908 C394 1.343 . S
C1925 C293 1.069 . S
C1944 C558 1.010 . S
C1961 C153 1.078 . S
C1980 C418 1.013 . S
C2016 C534 1.380 . S
C1997 C315 1.405 . S
C2033 C125 0.854 . S
C2052 C468 0.817 . S
C2069 C287 1.514 . S
C2088 C614 1.471 . S
C2105 C193 1.296 . S
C2124 C348 1.188 . S
C2141 C176 1.746 . S
C2160 C514 1.759 . S
C2177 C263 1.378 . S
C2196 C448 1.313 . S
C2213 C246 1.041 . S
C2232 C538 0.971 . S
C2268 C608 1.257 . S
C2249 C277 1.321 . S
C2285 C221 1.391 . S
C2304 C388 1.356 . S
C2340 C414 1.786 . S
C2321 C260 1.769 . S
C2376 C358 0.957 . S
C2357 C204 1.030 . S
C2393 C83 1.203 . S
C2412 C620 1.150 . S
C2448 C595 1.443 . S
C2429 C92 1.395 . S
C2465 C105 0.867 . S
C2484 C640 0.761 1_556 S
C2501 C67 1.219 . S
C2520 C565 1.139 . S
C2537 C53 1.235 . S
C2556 C505 1.218 . S
C2592 C520 0.871 . S
C2573 C8 0.944 . S
C2628 C555 1.409 . S
C2609 C22 1.382 1_655 S
C2664 C600 1.091 . S
C2645 C39 1.175 . S
C2700 C635 1.325 . S
C2681 C265 1.313 . S
C2717 C189 0.835 . S
C2736 C585 0.778 . S
C2772 C655 1.310 . S
C2753 C209 1.239 . S
C2808 C560 0.949 . S
C2789 C217 1.012 . S
C2844 C500 0.917 . S
C2825 C259 0.963 . S
C2861 C195 1.239 . S
C2880 C535 1.312 . S
C2916 C545 0.914 . S
C2897 C203 0.885 . S
C2933 C223 1.315 . S
C2952 C615 1.352 . S
C2988 C625 1.126 . S
C2969 C319 1.227 . S
C3005 C134 1.673 . S
C3024 C435 1.695 . S
C3060 C445 1.252 . S
C3041 C151 1.386 . S
C3096 C460 0.830 . S
C3077 C162 0.937 . S
C3132 C605 1.053 . S
C3113 C305 1.193 . S
C3149 C291 1.333 1_554 S
C3168 C645 1.281 . S
C3204 C415 1.687 . S
C3185 C148 1.673 . S
C3240 C360 0.876 . S
C3221 C120 0.939 . S
C3257 C91 1.376 . S
C3276 C618 1.269 . S
C3312 C374 1.498 . S
C3293 C78 1.480 . S
C3329 C69 0.914 . S
C3348 C638 0.852 . S
C3365 C109 1.309 . S
C3384 C408 1.289 . S
C3401 C41 1.327 . S
C3420 C508 1.298 . S
C3456 C438 0.846 . S
C3437 C27 0.922 . S
C3473 C7 1.420 . S
C3492 C554 1.386 . S
C3509 C49 1.377 . S
C3528 C478 1.270 . S
C3564 C634 1.438 . S
C3545 C329 1.528 . S
C3581 C167 0.856 . S
C3600 C368 0.824 . S
C3636 C654 1.375 1_655 S
C3617 C301 1.395 . S
C3653 C139 1.087 . S
C3672 C398 1.089 . S
C3689 C335 1.070 . S
C3708 C498 1.056 . S
C3744 C454 1.375 . S
C3725 C161 1.405 . S
C3761 C307 0.856 . S
C3780 C548 0.868 . S
C3816 C494 1.470 . S
C3797 C133 1.512 . S
C3852 C628 1.180 . S
C3833 C249 1.297 . S
C3888 C434 1.769 1_565 S
C3869 C218 1.749 . S
C3905 C235 1.375 . S
C3924 C528 1.285 . S
C3960 C458 1.025 . S
C3941 C190 1.048 . S
C3977 C207 1.315 . S
C3996 C488 1.252 . S
C4013 C179 1.388 . S
C4032 C648 1.311 . S
C4068 C574 1.768 . S
C4049 C232 1.765 . S
C4104 C578 1.029 . S
C4085 C274 1.033 . S
