# Generated by pormake.
# Topology pyr, (3,6)-cn, num edge types: 1
# Building blocks:
#     Node 0, Type 0, BuildingBlock: OLANEW_clean_sbu_2, # of connection points: 3
#     Node 1, Type 0, BuildingBlock: OLANEW_clean_sbu_2, # of connection points: 3
#     Node 2, Type 0, BuildingBlock: OLANEW_clean_sbu_2, # of connection points: 3
#     Node 3, Type 0, BuildingBlock: OLANEW_clean_sbu_2, # of connection points: 3
#     Node 4, Type 0, BuildingBlock: OLANEW_clean_sbu_2, # of connection points: 3
#     Node 5, Type 0, BuildingBlock: OLANEW_clean_sbu_2, # of connection points: 3
#     Node 6, Type 0, BuildingBlock: OLANEW_clean_sbu_2, # of connection points: 3
#     Node 7, Type 0, BuildingBlock: OLANEW_clean_sbu_2, # of connection points: 3
#     Node 8, Type 1, BuildingBlock: MIDCAF_clean_sbu_0, # of connection points: 6
#     Node 9, Type 1, BuildingBlock: MIDCAF_clean_sbu_0, # of connection points: 6
#     Node 10, Type 1, BuildingBlock: MIDCAF_clean_sbu_0, # of connection points: 6
#     Node 11, Type 1, BuildingBlock: MIDCAF_clean_sbu_0, # of connection points: 6
#     Edge 12, Type (0, 1), BuildingBlock: OJICUG_clean_linker_0, # of connection points: 2
#     Edge 13, Type (0, 1), BuildingBlock: OJICUG_clean_linker_0, # of connection points: 2
#     Edge 14, Type (0, 1), BuildingBlock: OJICUG_clean_linker_0, # of connection points: 2
#     Edge 15, Type (0, 1), BuildingBlock: OJICUG_clean_linker_0, # of connection points: 2
#     Edge 16, Type (0, 1), BuildingBlock: OJICUG_clean_linker_0, # of connection points: 2
#     Edge 17, Type (0, 1), BuildingBlock: OJICUG_clean_linker_0, # of connection points: 2
#     Edge 18, Type (0, 1), BuildingBlock: OJICUG_clean_linker_0, # of connection points: 2
#     Edge 19, Type (0, 1), BuildingBlock: OJICUG_clean_linker_0, # of connection points: 2
#     Edge 20, Type (0, 1), BuildingBlock: OJICUG_clean_linker_0, # of connection points: 2
#     Edge 21, Type (0, 1), BuildingBlock: OJICUG_clean_linker_0, # of connection points: 2
#     Edge 22, Type (0, 1), BuildingBlock: OJICUG_clean_linker_0, # of connection points: 2
#     Edge 23, Type (0, 1), BuildingBlock: OJICUG_clean_linker_0, # of connection points: 2
#     Edge 24, Type (0, 1), BuildingBlock: OJICUG_clean_linker_0, # of connection points: 2
#     Edge 25, Type (0, 1), BuildingBlock: OJICUG_clean_linker_0, # of connection points: 2
#     Edge 26, Type (0, 1), BuildingBlock: OJICUG_clean_linker_0, # of connection points: 2
#     Edge 27, Type (0, 1), BuildingBlock: OJICUG_clean_linker_0, # of connection points: 2
#     Edge 28, Type (0, 1), BuildingBlock: OJICUG_clean_linker_0, # of connection points: 2
#     Edge 29, Type (0, 1), BuildingBlock: OJICUG_clean_linker_0, # of connection points: 2
#     Edge 30, Type (0, 1), BuildingBlock: OJICUG_clean_linker_0, # of connection points: 2
#     Edge 31, Type (0, 1), BuildingBlock: OJICUG_clean_linker_0, # of connection points: 2
#     Edge 32, Type (0, 1), BuildingBlock: OJICUG_clean_linker_0, # of connection points: 2
#     Edge 33, Type (0, 1), BuildingBlock: OJICUG_clean_linker_0, # of connection points: 2
#     Edge 34, Type (0, 1), BuildingBlock: OJICUG_clean_linker_0, # of connection points: 2
#     Edge 35, Type (0, 1), BuildingBlock: OJICUG_clean_linker_0, # of connection points: 2
# Relax obj value: 0.080
# Max RMSD: 0.155
# Mean RMSD: 0.117
data_MOF--net-pry--node1-OLANEW_clean_sbu_2--node2-MIDCAF_clean_sbu_0--edge1-OJICUG_clean_linker_0
_symmetry_space_group_name_H-M    P1
_symmetry_Int_Tables_number       1
_symmetry_cell_setting            triclinic
loop_
_symmetry_equiv_pos_as_xyz
'x, y, z'
_cell_length_a     27.768829
_cell_length_b     27.967857
_cell_length_c     27.358358
_cell_angle_alpha  95.146948
_cell_angle_beta   90.622265
_cell_angle_gamma 95.526546
loop_
_atom_site_label
_atom_site_type_symbol
_atom_site_fract_x
_atom_site_fract_y
_atom_site_fract_z
_atom_type_partial_charge
O0 O 0.33331 0.25091 0.23086 0.0
Cd1 Cd 0.27694 0.30225 0.27409 0.0
O2 O 0.34461 0.20712 0.29236 0.0
Cd3 Cd 0.29021 0.23594 0.34083 0.0
O4 O 0.23807 0.20933 0.39384 0.0
C5 C 0.25254 0.17518 0.41605 0.0
O6 O 0.29624 0.1626 0.40724 0.0
C7 C 0.35407 0.2176 0.24902 0.0
C8 C 0.22083 0.3531 0.21413 0.0
O9 O 0.26159 0.37244 0.23235 0.0
O10 O 0.2073 0.30976 0.22339 0.0
O11 O 0.34957 0.7457 0.92998 0.0
Cd12 Cd 0.30266 0.68043 0.87866 0.0
O13 O 0.30471 0.79064 0.89175 0.0
Cd14 Cd 0.26774 0.84775 0.86087 0.0
O15 O 0.21904 0.86811 0.80369 0.0
C16 C 0.19355 0.90369 0.80707 0.0
O17 O 0.19591 0.93283 0.84763 0.0
C18 C 0.33884 0.78767 0.92258 0.0
C19 C 0.35555 0.6471 0.79844 0.0
O20 O 0.33482 0.68607 0.79811 0.0
O21 O 0.35102 0.62352 0.83644 0.0
O22 O 0.87568 0.35015 0.77499 0.0
Cd23 Cd 0.82154 0.30372 0.71212 0.0
O24 O 0.84058 0.30186 0.8248 0.0
Cd25 Cd 0.81239 0.26349 0.88695 0.0
O26 O 0.75517 0.21614 0.91814 0.0
C27 C 0.75987 0.18876 0.95226 0.0
O28 O 0.80254 0.18804 0.97323 0.0
C29 C 0.87159 0.33732 0.81831 0.0
C30 C 0.74663 0.35453 0.68068 0.0
O31 O 0.74359 0.33367 0.72052 0.0
O32 O 0.78511 0.35156 0.65559 0.0
O33 O 0.89387 0.87925 0.27707 0.0
Cd34 Cd 0.8549 0.83485 0.20326 0.0
O35 O 0.84374 0.83059 0.31469 0.0
Cd36 Cd 0.80957 0.80059 0.37785 0.0
O37 O 0.76687 0.75878 0.42823 0.0
C38 C 0.72143 0.74951 0.42154 0.0
O39 O 0.70028 0.76656 0.38451 0.0
C40 C 0.87766 0.86464 0.31692 0.0
C41 C 0.89815 0.75192 0.16935 0.0
O42 O 0.90655 0.79132 0.14897 0.0
O43 O 0.86993 0.75175 0.20608 0.0
O44 O 0.98086 0.94614 0.91287 0.0
Cd45 Cd 0.9492 0.91066 0.98641 0.0
O46 O 0.93413 0.89412 0.86391 0.0
Cd47 Cd 0.88511 0.88085 0.92337 0.0
O48 O 0.82857 0.90347 0.97205 0.0
C49 C 0.80046 0.9329 0.95759 0.0
O50 O 0.80587 0.94777 0.91359 0.0
C51 C 0.96865 0.92751 0.86982 0.0
C52 C 0.98177 0.82003 0.99373 0.0
O53 O 0.94517 0.82526 0.96657 0.0
O54 O 1.00297 0.85759 0.01814 0.0
O55 O 0.58282 0.97821 0.40055 0.0
Cd56 Cd 0.61953 0.94228 0.46876 0.0
O57 O 0.6011 0.05054 0.43752 0.0
Cd58 Cd 0.60465 0.12913 0.44696 0.0
O59 O 0.6002 0.20662 0.46022 0.0
C60 C 0.60304 0.22947 0.50269 0.0
O61 O 0.61009 0.20605 0.54128 0.0
C62 C 0.58231 0.02366 0.40091 0.0
C63 C 0.71821 0.97137 0.48516 0.0
O64 O 0.7047 0.93131 0.46007 0.0
O65 O 0.68535 0.99741 0.50158 0.0
O66 O 0.59402 0.71572 0.146 0.0
Cd67 Cd 0.63094 0.64626 0.17253 0.0
O68 O 0.52407 0.68227 0.16816 0.0
Cd69 Cd 0.44567 0.6735 0.17593 0.0
O70 O 0.36914 0.64748 0.16636 0.0
C71 C 0.35598 0.60308 0.15435 0.0
O72 O 0.38904 0.57247 0.14948 0.0
C73 C 0.54864 0.71715 0.1504 0.0
C74 C 0.59982 0.62509 0.26548 0.0
O75 O 0.64081 0.6493 0.2606 0.0
O76 O 0.57419 0.6109 0.22674 0.0
O77 O 0.10442 0.56527 0.70963 0.0
Cd78 Cd 0.13662 0.59814 0.63589 0.0
O79 O 0.13205 0.49728 0.68305 0.0
Cd80 Cd 0.14669 0.42173 0.68013 0.0
O81 O 0.14604 0.34488 0.65707 0.0
C82 C 0.13403 0.32991 0.61293 0.0
O83 O 0.12436 0.36143 0.58227 0.0
C84 C 0.11068 0.52184 0.71609 0.0
C85 C 0.22967 0.57121 0.61988 0.0
O86 O 0.22341 0.61179 0.64345 0.0
O87 O 0.19211 0.54396 0.60364 0.0
Zn88 Zn 0.97483 0.08276 0.62933 0.0
Zn89 Zn 0.0792 0.95373 0.53597 0.0
Zn90 Zn 0.02608 0.02072 0.57858 0.0
C91 C 0.11991 0.04856 0.51726 0.0
C92 C 0.98775 0.94056 0.48986 0.0
O93 O 0.02184 1.00278 0.65526 0.0
O94 O 0.97988 0.05727 0.69441 0.0
C95 C 0.05075 0.1375 0.59113 0.0
O96 O 0.0846 0.06222 0.54339 0.0
O97 O 0.12534 0.00418 0.50893 0.0
O98 O 0.02618 0.92005 0.49236 0.0
O99 O 0.98174 0.97857 0.51862 0.0
O100 O 0.01468 0.14241 0.61802 0.0
O101 O 0.06011 0.09541 0.57278 0.0
O102 O 0.95089 0.00802 0.54737 0.0
O103 O 0.91469 0.06501 0.58967 0.0
C104 C 0.9129 0.03016 0.55673 0.0
O105 O 0.06016 0.97871 0.63371 0.0
O106 O 0.10162 0.92416 0.59429 0.0
C107 C 1.00242 0.02022 0.69469 0.0
C108 C 0.0885 0.9447 0.63422 0.0
Zn109 Zn 0.49221 0.05287 0.03054 0.0
Zn110 Zn 0.58037 0.97974 0.15228 0.0
Zn111 Zn 0.53384 0.01022 0.09559 0.0
C112 C 0.64086 0.98055 0.07947 0.0
C113 C 0.51118 0.9085 0.13122 0.0
O114 O 0.49394 0.06413 0.13861 0.0
O115 O 0.45882 0.09565 0.07801 0.0
C116 C 0.58909 0.07731 0.01666 0.0
O117 O 0.61003 0.0104 0.07015 0.0
O118 O 0.6333 0.95463 0.11444 0.0
O119 O 0.52937 0.9291 0.17109 0.0
O120 O 0.51185 0.93237 0.09304 0.0
O121 O 0.54887 0.08443 0.9981 0.0
O122 O 0.59029 0.0491 0.05153 0.0
O123 O 0.483 0.95325 0.055 0.0
O124 O 0.45425 0.99444 0.99801 0.0
C125 C 0.45545 0.95504 0.01709 0.0
O126 O 0.52391 0.04155 0.17361 0.0
O127 O 0.599 0.03818 0.19733 0.0
C128 C 0.46614 0.09428 0.1235 0.0
C129 C 0.55797 0.05193 0.2065 0.0
Zn130 Zn 0.58939 0.5811 0.63208 0.0
Zn131 Zn 0.47851 0.48504 0.49329 0.0
Zn132 Zn 0.53583 0.532 0.55941 0.0
C133 C 0.54161 0.4205 0.51993 0.0
C134 C 0.52991 0.55687 0.44639 0.0
O135 O 0.48817 0.56121 0.61761 0.0
O136 O 0.53687 0.60785 0.67068 0.0
C137 C 0.61222 0.48583 0.6279 0.0
O138 O 0.55558 0.45642 0.55137 0.0
O139 O 0.50858 0.42411 0.48886 0.0
O140 O 0.49339 0.52635 0.43968 0.0
O141 O 0.55162 0.56385 0.48874 0.0
O142 O 0.61887 0.52494 0.65501 0.0
O143 O 0.58364 0.48214 0.58996 0.0
O144 O 0.57982 0.59109 0.52743 0.0
O145 O 0.62762 0.6236 0.58949 0.0
C146 C 0.61441 0.62215 0.54503 0.0
O147 O 0.45821 0.53712 0.57931 0.0
O148 O 0.41519 0.48749 0.52425 0.0
C149 C 0.49483 0.59048 0.65687 0.0
C150 C 0.41696 0.51688 0.5621 0.0
Zn151 Zn 0.12088 0.57137 0.98012 0.0
Zn152 Zn 0.99936 0.48244 0.0791 0.0
Zn153 Zn 0.06275 0.52985 0.026 0.0
C154 C 0.09065 0.45865 0.10776 0.0
C155 C 0.98145 0.44852 0.97898 0.0
O156 O 0.04764 0.60641 0.029 0.0
O157 O 0.08251 0.62293 0.95956 0.0
C158 C 0.17076 0.56161 0.06138 0.0
O159 O 0.10421 0.49129 0.07882 0.0
O160 O 0.04617 0.44695 0.11361 0.0
O161 O 0.9641 0.44574 0.02129 0.0
O162 O 0.01972 0.47726 0.97305 0.0
O163 O 0.17013 0.59293 0.03119 0.0
O164 O 0.13549 0.528 0.06153 0.0
O165 O 0.05856 0.50232 0.94648 0.0
O166 O 0.13528 0.51917 0.93005 0.0
C167 C 0.09401 0.49941 0.91657 0.0
O168 O 0.01593 0.58216 0.06161 0.0
O169 O 0.97217 0.5404 0.11323 0.0
C170 C 0.05628 0.63502 0.99502 0.0
C171 C 0.98415 0.57998 0.09557 0.0
C172 C 0.17213 0.15788 0.45598 0.0
C173 C 0.21953 0.14615 0.44663 0.0
H174 H 0.10306 0.13577 0.48557 0.0
C175 C 0.23451 0.10408 0.46405 0.0
H176 H 0.15948 0.19004 0.44303 0.0
C177 C 0.20234 0.0733 0.4882 0.0
C178 C 0.15459 0.08409 0.49614 0.0
H179 H 0.27076 0.09396 0.4577 0.0
H180 H 0.21468 0.04049 0.49998 0.0
C181 C 0.13995 0.1271 0.48067 0.0
C182 C 0.3975 0.82614 0.98859 0.0
C183 C 0.36674 0.83087 0.94834 0.0
H184 H 0.44907 0.86123 0.04214 0.0
C185 C 0.36484 0.87673 0.93189 0.0
H186 H 0.39989 0.79129 1.00233 0.0
C187 C 0.39336 0.91667 0.95459 0.0
C188 C 0.4246 0.91199 0.99452 0.0
H189 H 0.3423 0.88178 0.90069 0.0
H190 H 0.39114 0.9513 0.94033 0.0
C191 C 0.42589 0.86625 0.01151 0.0
C192 C 0.67685 0.40248 0.70059 0.0
C193 C 0.70792 0.38323 0.66544 0.0
H194 H 0.62213 0.45052 0.71593 0.0
C195 C 0.70329 0.39393 0.61642 0.0
H196 H 0.67956 0.39492 0.73861 0.0
C197 C 0.66947 0.42483 0.60326 0.0
C198 C 0.64044 0.44609 0.63909 0.0
H199 H 0.72653 0.37929 0.5885 0.0
H200 H 0.66773 0.43401 0.56568 0.0
C201 C 0.64394 0.43418 0.68765 0.0
C202 C 0.93152 0.7004 0.10082 0.0
C203 C 0.9198 0.70774 0.15056 0.0
H204 H 0.95729 0.65218 0.04396 0.0
C205 C 0.92798 0.672 0.18184 0.0
H206 H 0.92437 0.72669 0.07555 0.0
C207 C 0.9489 0.63044 0.16397 0.0
C208 C 0.96148 0.62359 0.11439 0.0
H209 H 0.91895 0.67655 0.22029 0.0
H210 H 0.95571 0.6039 0.18906 0.0
C211 C 0.95122 0.65827 0.08282 0.0
C212 C 0.4086 0.15046 0.23768 0.0
C213 C 0.38689 0.18869 0.21873 0.0
H214 H 0.45077 0.09049 0.22271 0.0
C215 C 0.39456 0.19721 0.16955 0.0
H216 H 0.40355 0.14291 0.27553 0.0
C217 C 0.42148 0.16724 0.13953 0.0
C218 C 0.44171 0.12793 0.15779 0.0
H219 H 0.37871 0.22634 0.15371 0.0
H220 H 0.42569 0.17451 0.1015 0.0
C221 C 0.43584 0.12043 0.20752 0.0
C222 C 0.14233 0.95681 0.76349 0.0
C223 C 0.16278 0.91283 0.76477 0.0
H224 H 0.1039 1.00191 0.72081 0.0
C225 C 0.15504 0.87811 0.72429 0.0
H226 H 0.14769 0.98442 0.79396 0.0
C227 C 0.12886 0.8877 0.68292 0.0
C228 C 0.10984 0.93229 0.68088 0.0
H229 H 0.16993 0.8437 0.72413 0.0
H230 H 0.12455 0.86055 0.65195 0.0
C231 C 0.11659 0.96661 0.72178 0.0
C232 C 0.93109 0.40656 0.85097 0.0
C233 C 0.90136 0.36439 0.85927 0.0
H234 H 0.97884 0.46641 0.88232 0.0
C235 C 0.9003 0.34923 0.90685 0.0
H236 H 0.9329 0.41954 0.81485 0.0
C237 C 0.92714 0.37611 0.94527 0.0
C238 C 0.95615 0.41863 0.93707 0.0
H239 H 0.87875 0.31677 0.91477 0.0
H240 H 0.92496 0.36362 0.98161 0.0
C241 C 0.95805 0.43331 0.88945 0.0
C242 C 0.64275 0.70839 0.44785 0.0
C243 C 0.69324 0.71817 0.45391 0.0
H244 H 0.57783 0.67061 0.47271 0.0
C245 C 0.71696 0.69695 0.49081 0.0
H246 H 0.62337 0.72439 0.41991 0.0
C247 C 0.691 0.66597 0.52037 0.0
C248 C 0.64083 0.65533 0.51356 0.0
H249 H 0.75575 0.7038 0.49661 0.0
H250 H 0.71036 0.64967 0.54813 0.0
C251 C 0.61671 0.67744 0.47773 0.0
C252 C 0.14628 0.35704 0.16288 0.0
C253 C 0.18938 0.38024 0.18466 0.0
H254 H 0.08191 0.36372 0.12135 0.0
C255 C 0.2007 0.42976 0.17969 0.0
H256 H 0.13631 0.31904 0.16593 0.0
C257 C 0.16908 0.4555 0.15423 0.0
C258 C 0.126 0.43217 0.13277 0.0
H259 H 0.23332 0.44893 0.19653 0.0
H260 H 0.17723 0.49391 0.15316 0.0
C261 C 0.11501 0.38269 0.13739 0.0
C262 C 0.71945 0.13232 0.00963 0.0
C263 C 0.71716 0.15818 0.96799 0.0
H264 H 0.68081 0.08681 0.05811 0.0
C265 C 0.67317 0.15518 0.9415 0.0
H266 H 0.75279 0.1338 0.03086 0.0
C267 C 0.63226 0.12783 0.95669 0.0
C268 C 0.63406 0.10282 0.99892 0.0
H269 H 0.6701 0.17429 0.90905 0.0
H270 H 0.59893 0.12689 0.93553 0.0
C271 C 0.67823 0.10514 0.02511 0.0
C272 C 0.91226 0.85418 0.39929 0.0
C273 C 0.89967 0.88504 0.36453 0.0
H274 H 0.95078 0.84787 0.46645 0.0
C275 C 0.91166 0.93499 0.37415 0.0
H276 H 0.9038 0.8155 0.39248 0.0
C277 C 0.9371 0.95363 0.41727 0.0
C278 C 0.95231 0.92239 0.45045 0.0
H279 H 0.90222 0.95946 0.34784 0.0
H280 H 0.94738 0.9921 0.42324 0.0
C281 C 0.93908 0.87262 0.44149 0.0
C282 C 0.41242 0.66623 0.73146 0.0
C283 C 0.38648 0.63157 0.75762 0.0
H284 H 0.46801 0.68 0.67927 0.0
C285 C 0.39307 0.58256 0.74667 0.0
H286 H 0.40813 0.70423 0.73928 0.0
C287 C 0.42623 0.56865 0.7112 0.0
C288 C 0.45409 0.60371 0.6873 0.0
H289 H 0.37327 0.55515 0.76618 0.0
H290 H 0.43182 0.53087 0.70418 0.0
C291 C 0.4466 0.65247 0.69724 0.0
C292 C 1.00052 0.99958 0.82879 0.0
C293 C 0.98825 0.94952 0.82636 0.0
H294 H 0.01389 0.06147 0.78827 0.0
C295 C 0.98731 0.92226 0.78057 0.0
H296 H 1.00124 0.02146 0.86358 0.0
C297 C 0.99542 0.94509 0.73763 0.0
C298 C 1.00345 0.99554 0.73988 0.0
H299 H 0.97803 0.88358 0.7778 0.0
H300 H 0.99231 0.92363 0.70255 0.0
C301 C 0.00736 0.0225 0.78578 0.0
C302 C 0.59079 0.08264 0.33736 0.0
C303 C 0.56398 0.04397 0.357 0.0
H304 H 0.60836 0.11719 0.27215 0.0
C305 C 0.52485 0.01909 0.32942 0.0
H306 H 0.62135 0.1022 0.35762 0.0
C307 C 0.51635 0.02887 0.28095 0.0
C308 C 0.54796 0.06245 0.25891 0.0
H309 H 0.5034 0.98932 0.34391 0.0
H310 H 0.48952 0.0054 0.2589 0.0
C311 C 0.58303 0.09159 0.28848 0.0
C312 C 0.53271 0.60354 0.32143 0.0
C313 C 0.58251 0.61289 0.31409 0.0
H314 H 0.47719 0.58021 0.36987 0.0
C315 C 0.61516 0.60783 0.35251 0.0
H316 H 0.50672 0.60745 0.29258 0.0
C317 C 0.59821 0.59117 0.39661 0.0
C318 C 0.54835 0.58104 0.40354 0.0
H319 H 0.65381 0.61454 0.34764 0.0
H320 H 0.62412 0.58449 0.42446 0.0
C321 C 0.51583 0.5881 0.36574 0.0
C322 C 0.05917 0.52245 0.79004 0.0
C323 C 0.09653 0.50281 0.76312 0.0
H324 H 0.02836 0.53554 0.86065 0.0
C325 C 0.12535 0.47197 0.78544 0.0
H326 H 0.03647 0.54643 0.77377 0.0
C327 C 0.12021 0.46523 0.8353 0.0
C328 C 0.08581 0.48867 0.8633 0.0
H329 H 0.15501 0.45708 0.766 0.0
H330 H 0.1461 0.44547 0.85301 0.0
C331 C 0.05388 0.51547 0.83967 0.0
C332 C 0.7241 0.97335 0.97071 0.0
C333 C 0.76142 0.94911 0.98943 0.0
H334 H 0.65597 1.00172 0.98428 0.0
C335 C 0.76044 0.93911 0.03876 0.0
H336 H 0.72388 0.98155 0.93277 0.0
C337 C 0.72223 0.95154 0.06831 0.0
C338 C 0.68389 0.97404 0.04924 0.0
H339 H 0.78885 0.92097 0.05446 0.0
H340 H 0.72219 0.94241 0.10597 0.0
C341 C 0.68544 0.9854 1.0003 0.0
C342 C 0.80482 0.95323 0.49507 0.0
C343 C 0.76991 0.98667 0.49694 0.0
H344 H 0.87746 0.94033 0.5139 0.0
C345 C 0.78408 0.03488 0.51371 0.0
H346 H 0.79488 0.91571 0.48248 0.0
C347 C 0.83136 0.04904 0.53037 0.0
C348 C 0.86574 0.01532 0.53118 0.0
H349 H 0.75827 0.06164 0.51514 0.0
H350 H 0.84055 0.08637 0.54421 0.0
C351 C 0.85229 0.96738 0.5125 0.0
C352 C 0.29209 0.54206 0.11382 0.0
C353 C 0.30508 0.58764 0.13925 0.0
H354 H 0.23802 0.49752 0.06912 0.0
C355 C 0.26994 0.62046 0.14565 0.0
H356 H 0.31832 0.51591 0.1084 0.0
C357 C 0.22419 0.6096 0.1237 0.0
C358 C 0.21247 0.56564 0.09535 0.0
H359 H 0.27854 0.65565 0.16537 0.0
H360 H 0.19885 0.63684 0.12639 0.0
C361 C 0.24613 0.53128 0.09165 0.0
C362 C 0.31977 0.59027 0.61661 0.0
C363 C 0.27871 0.55655 0.61033 0.0
H364 H 0.39576 0.60446 0.60457 0.0
C365 C 0.28454 0.50886 0.5924 0.0
H366 H 0.31638 0.62737 0.63014 0.0
C367 C 0.33012 0.49556 0.57927 0.0
C368 C 0.37087 0.52965 0.58362 0.0
H369 H 0.25371 0.48193 0.58752 0.0
H370 H 0.33326 0.45881 0.56432 0.0
C371 C 0.36539 0.57703 0.60277 0.0
C372 C 0.9896 0.73665 0.95604 0.0
C373 C 0.99979 0.7722 0.99539 0.0
H374 H 1.00051 0.66544 0.92501 0.0
C375 C 0.02798 0.76183 0.03541 0.0
H376 H 0.96824 0.74374 0.92459 0.0
C377 C 0.04548 0.71656 0.03605 0.0
C378 C 0.03581 0.68156 0.99624 0.0
H379 H 0.0362 0.78853 0.06628 0.0
H380 H 0.06711 0.70911 0.06717 0.0
C381 C 0.00808 0.692 0.95615 0.0
C382 C 0.54214 0.78348 0.09641 0.0
C383 C 0.52638 0.76035 0.13768 0.0
H384 H 0.5469 0.84871 0.06057 0.0
C385 C 0.49583 0.78321 0.17089 0.0
H386 H 0.56572 0.76649 0.07031 0.0
C387 C 0.48588 0.83072 0.16588 0.0
C388 C 0.50508 0.85533 0.12677 0.0
H389 H 0.48357 0.76623 0.2032 0.0
H390 H 0.46649 0.8495 0.19463 0.0
C391 C 0.53095 0.83034 0.0906 0.0
C392 C 0.09105 0.2616 0.55916 0.0
C393 C 0.12263 0.27768 0.59908 0.0
H394 H 0.04325 0.20293 0.52497 0.0
C395 C 0.13802 0.24377 0.62927 0.0
H396 H 0.07859 0.28682 0.53516 0.0
C397 C 0.11868 0.19559 0.62247 0.0
C398 C 0.08356 0.18078 0.58564 0.0
H399 H 0.16264 0.25501 0.66004 0.0
H400 H 0.12796 0.17093 0.64866 0.0
C401 C 0.07109 0.21356 0.55295 0.0
C402 C 0.58619 0.30493 0.46653 0.0
C403 C 0.59373 0.2809 0.50843 0.0
H404 H 0.56439 0.36818 0.43785 0.0
C405 C 0.58893 0.30549 0.55513 0.0
H406 H 0.59002 0.28738 0.43003 0.0
C407 C 0.5742 0.35227 0.55955 0.0
C408 C 0.56437 0.37495 0.51736 0.0
H409 H 0.59465 0.28798 0.58816 0.0
H410 H 0.5682 0.36959 0.59567 0.0
C411 C 0.57152 0.35127 0.47097 0.0
loop_
_geom_bond_atom_site_label_1
_geom_bond_atom_site_label_2
_geom_bond_distance
_geom_bond_site_symmetry_2
_ccdc_geom_bond_type
O0 Cd1 2.300 . S
O0 C7 1.275 . S
Cd1 O0 2.300 . S
Cd1 O9 2.381 . S
Cd1 O10 2.378 . S
O2 Cd3 2.385 . S
O2 C7 1.255 . S
Cd3 O2 2.385 . S
Cd3 O4 2.317 . S
O4 Cd3 2.317 . S
O4 C5 1.232 . S
C5 O4 1.232 . S
C5 O6 1.218 . S
O6 C5 1.218 . S
C7 O0 1.275 . S
C7 O2 1.255 . S
C8 O9 1.258 . S
C8 O10 1.256 . S
O9 Cd1 2.381 . S
O9 C8 1.258 . S
O10 Cd1 2.378 . S
O10 C8 1.256 . S
O11 Cd12 2.300 . S
O11 C18 1.275 . S
Cd12 O11 2.300 . S
Cd12 O20 2.381 . S
Cd12 O21 2.378 . S
O13 Cd14 2.385 . S
O13 C18 1.255 . S
Cd14 O13 2.385 . S
Cd14 O15 2.317 . S
O15 Cd14 2.317 . S
O15 C16 1.232 . S
C16 O15 1.232 . S
C16 O17 1.218 . S
O17 C16 1.218 . S
C18 O11 1.275 . S
C18 O13 1.255 . S
C19 O20 1.258 . S
C19 O21 1.256 . S
O20 Cd12 2.381 . S
O20 C19 1.258 . S
O21 Cd12 2.378 . S
O21 C19 1.256 . S
O22 Cd23 2.300 . S
O22 C29 1.275 . S
Cd23 O22 2.300 . S
Cd23 O31 2.381 . S
Cd23 O32 2.378 . S
O24 Cd25 2.385 . S
O24 C29 1.255 . S
Cd25 O24 2.385 . S
Cd25 O26 2.317 . S
O26 Cd25 2.317 . S
O26 C27 1.232 . S
C27 O26 1.232 . S
C27 O28 1.218 . S
O28 C27 1.218 . S
C29 O22 1.275 . S
C29 O24 1.255 . S
C30 O31 1.258 . S
C30 O32 1.256 . S
O31 Cd23 2.381 . S
O31 C30 1.258 . S
O32 Cd23 2.378 . S
O32 C30 1.256 . S
O33 Cd34 2.300 . S
O33 C40 1.275 . S
Cd34 O33 2.300 . S
Cd34 O42 2.381 . S
Cd34 O43 2.378 . S
O35 Cd36 2.385 . S
O35 C40 1.255 . S
Cd36 O35 2.385 . S
Cd36 O37 2.317 . S
O37 Cd36 2.317 . S
O37 C38 1.232 . S
C38 O37 1.232 . S
C38 O39 1.218 . S
O39 C38 1.218 . S
C40 O33 1.275 . S
C40 O35 1.255 . S
C41 O42 1.258 . S
C41 O43 1.256 . S
O42 Cd34 2.381 . S
O42 C41 1.258 . S
O43 Cd34 2.378 . S
O43 C41 1.256 . S
O44 Cd45 2.300 . S
O44 C51 1.275 . S
Cd45 O44 2.300 . S
Cd45 O53 2.381 1_655 S
Cd45 O54 2.378 1_656 S
O46 Cd47 2.381 1_566 S
O46 C51 1.259 . S
Cd47 O46 2.381 1_544 S
Cd47 O48 2.317 1_545 S
O48 Cd47 2.317 1_565 S
O48 C49 1.232 1_565 S
C49 O48 1.232 1_545 S
C49 O50 1.218 . S
O50 C49 1.218 . S
C51 O44 1.275 . S
C51 O46 1.259 . S
C52 O53 1.258 1_554 S
C52 O54 1.256 . S
O53 Cd45 2.381 1_455 S
O53 C52 1.258 1_556 S
O54 Cd45 2.378 1_454 S
O54 C52 1.256 . S
O55 Cd56 2.300 . S
O55 C62 1.275 . S
Cd56 O55 2.300 . S
Cd56 O64 2.381 . S
Cd56 O65 2.378 . S
O57 Cd58 2.385 . S
O57 C62 1.255 . S
Cd58 O57 2.385 . S
Cd58 O59 2.317 . S
O59 Cd58 2.317 . S
O59 C60 1.232 . S
C60 O59 1.232 . S
C60 O61 1.218 . S
O61 C60 1.218 . S
C62 O55 1.275 . S
C62 O57 1.255 . S
C63 O64 1.258 . S
C63 O65 1.256 . S
O64 Cd56 2.381 . S
O64 C63 1.258 . S
O65 Cd56 2.378 . S
O65 C63 1.256 . S
O66 Cd67 2.300 . S
O66 C73 1.275 . S
Cd67 O66 2.300 . S
Cd67 O75 2.381 . S
Cd67 O76 2.378 . S
O68 Cd69 2.385 . S
O68 C73 1.255 . S
Cd69 O68 2.385 . S
Cd69 O70 2.317 . S
O70 Cd69 2.317 . S
O70 C71 1.232 . S
C71 O70 1.232 . S
C71 O72 1.218 . S
O72 C71 1.218 . S
C73 O66 1.275 . S
C73 O68 1.255 . S
C74 O75 1.258 . S
C74 O76 1.256 . S
O75 Cd67 2.381 . S
O75 C74 1.258 . S
O76 Cd67 2.378 . S
O76 C74 1.256 . S
O77 Cd78 2.300 . S
O77 C84 1.275 . S
Cd78 O77 2.300 . S
Cd78 O86 2.381 . S
Cd78 O87 2.378 . S
O79 Cd80 2.385 . S
O79 C84 1.255 . S
Cd80 O79 2.385 . S
Cd80 O81 2.317 . S
O81 Cd80 2.317 . S
O81 C82 1.232 . S
C82 O81 1.232 . S
C82 O83 1.218 . S
O83 C82 1.218 . S
C84 O77 1.275 . S
C84 O79 1.255 . S
C85 O86 1.258 . S
C85 O87 1.256 . S
O86 Cd78 2.381 . S
O86 C85 1.258 . S
O87 Cd78 2.378 . S
O87 C85 1.256 . S
Zn88 O94 1.920 . S
Zn88 O100 1.898 . S
Zn88 O103 1.905 . S
Zn89 O97 1.905 1_565 S
Zn89 O98 1.898 . S
Zn89 O106 1.920 . S
Zn90 O93 2.073 1_445 S
Zn90 O96 2.114 . S
Zn90 O99 2.120 1_445 S
Zn90 O101 2.120 . S
Zn90 O102 2.114 1_455 S
Zn90 O105 2.087 . S
C91 O96 1.166 . S
C91 O97 1.182 . S
C92 O98 1.167 1_655 S
C92 O99 1.299 . S
O93 Zn90 2.073 1_665 S
O93 C107 1.298 1_565 S
O94 Zn88 1.920 . S
O94 C107 1.234 . S
C95 O100 1.167 1_455 S
C95 O101 1.299 . S
O96 Zn90 2.114 . S
O96 C91 1.166 . S
O97 Zn89 1.905 1_545 S
O97 C91 1.182 . S
O98 Zn89 1.898 . S
O98 C92 1.167 1_455 S
O99 Zn90 2.120 1_665 S
O99 C92 1.299 . S
O100 Zn88 1.898 . S
O100 C95 1.167 1_655 S
O101 Zn90 2.120 . S
O101 C95 1.299 . S
O102 Zn90 2.114 1_655 S
O102 C104 1.166 . S
O103 Zn88 1.905 . S
O103 C104 1.182 . S
C104 O102 1.166 . S
C104 O103 1.182 . S
O105 Zn90 2.087 . S
O105 C108 1.288 1_545 S
O106 Zn89 1.920 . S
O106 C108 1.234 . S
C107 O93 1.298 1_545 S
C107 O94 1.234 . S
C108 O105 1.288 1_565 S
C108 O106 1.234 . S
Zn109 O115 1.920 . S
Zn109 O121 1.898 . S
Zn109 O124 1.905 1_554 S
Zn110 O118 1.905 . S
Zn110 O119 1.898 . S
Zn110 O127 1.920 . S
Zn111 O114 2.080 . S
Zn111 O117 2.114 1_545 S
Zn111 O120 2.120 1_545 S
Zn111 O122 2.120 . S
Zn111 O123 2.114 1_545 S
Zn111 O126 2.080 . S
C112 O117 1.166 . S
C112 O118 1.182 . S
C113 O119 1.167 . S
C113 O120 1.299 . S
O114 Zn111 2.080 . S
O114 C128 1.305 . S
O115 Zn109 1.920 . S
O115 C128 1.234 . S
C116 O121 1.167 . S
C116 O122 1.299 . S
O117 Zn111 2.114 1_565 S
O117 C112 1.166 . S
O118 Zn110 1.905 . S
O118 C112 1.182 . S
O119 Zn110 1.898 . S
O119 C113 1.167 . S
O120 Zn111 2.120 1_565 S
O120 C113 1.299 . S
O121 Zn109 1.898 . S
O121 C116 1.167 . S
O122 Zn111 2.120 . S
O122 C116 1.299 . S
O123 Zn111 2.114 1_565 S
O123 C125 1.166 1_554 S
O124 Zn109 1.905 1_556 S
O124 C125 1.182 1_545 S
C125 O123 1.166 1_556 S
C125 O124 1.182 1_565 S
O126 Zn111 2.080 . S
O126 C129 1.305 . S
O127 Zn110 1.920 . S
O127 C129 1.234 1_565 S
C128 O114 1.305 . S
C128 O115 1.234 . S
C129 O126 1.305 . S
C129 O127 1.234 1_545 S
Zn130 O136 1.920 . S
Zn130 O142 1.898 . S
Zn130 O145 1.905 . S
Zn131 O139 1.905 . S
Zn131 O140 1.898 . S
Zn131 O148 1.920 . S
Zn132 O135 2.080 . S
Zn132 O138 2.114 . S
Zn132 O141 2.120 . S
Zn132 O143 2.120 . S
Zn132 O144 2.114 . S
Zn132 O147 2.080 . S
C133 O138 1.166 . S
C133 O139 1.182 . S
C134 O140 1.167 . S
C134 O141 1.299 . S
O135 Zn132 2.080 . S
O135 C149 1.305 . S
O136 Zn130 1.920 . S
O136 C149 1.234 . S
C137 O142 1.167 . S
C137 O143 1.299 . S
O138 Zn132 2.114 . S
O138 C133 1.166 . S
O139 Zn131 1.905 . S
O139 C133 1.182 . S
O140 Zn131 1.898 . S
O140 C134 1.167 . S
O141 Zn132 2.120 . S
O141 C134 1.299 . S
O142 Zn130 1.898 . S
O142 C137 1.167 . S
O143 Zn132 2.120 . S
O143 C137 1.299 . S
O144 Zn132 2.114 . S
O144 C146 1.166 . S
O145 Zn130 1.905 . S
O145 C146 1.182 . S
C146 O144 1.166 . S
C146 O145 1.182 . S
O147 Zn132 2.080 . S
O147 C150 1.305 . S
O148 Zn131 1.920 . S
O148 C150 1.234 . S
C149 O135 1.305 . S
C149 O136 1.234 . S
C150 O147 1.305 . S
C150 O148 1.234 . S
Zn151 O157 1.920 . S
Zn151 O163 1.898 . S
Zn151 O166 1.905 . S
Zn152 O160 1.905 1_655 S
Zn152 O161 1.898 . S
Zn152 O169 1.920 . S
Zn153 O156 2.080 1_554 S
Zn153 O159 2.114 . S
Zn153 O162 2.120 1_454 S
Zn153 O164 2.120 . S
Zn153 O165 2.114 1_554 S
Zn153 O168 2.080 . S
C154 O159 1.166 . S
C154 O160 1.182 . S
C155 O161 1.167 1_556 S
C155 O162 1.299 . S
O156 Zn153 2.080 1_556 S
O156 C170 1.305 . S
O157 Zn151 1.920 . S
O157 C170 1.234 . S
C158 O163 1.167 1_554 S
C158 O164 1.299 . S
O159 Zn153 2.114 . S
O159 C154 1.166 . S
O160 Zn152 1.905 1_455 S
O160 C154 1.182 . S
O161 Zn152 1.898 . S
O161 C155 1.167 1_554 S
O162 Zn153 2.120 1_656 S
O162 C155 1.299 . S
O163 Zn151 1.898 . S
O163 C158 1.167 1_556 S
O164 Zn153 2.120 . S
O164 C158 1.299 . S
O165 Zn153 2.114 1_556 S
O165 C167 1.166 . S
O166 Zn151 1.905 . S
O166 C167 1.182 . S
C167 O165 1.166 . S
C167 O166 1.182 . S
O168 Zn153 2.080 . S
O168 C171 1.298 1_455 S
O169 Zn152 1.920 . S
O169 C171 1.239 . S
C170 O156 1.305 . S
C170 O157 1.234 . S
C171 O168 1.298 1_655 S
C171 O169 1.239 . S
C172 C173 1.387 . S
C172 H176 0.950 . S
C172 C181 1.390 . S
C173 C172 1.387 . S
C173 C175 1.387 . S
H174 C181 0.950 . S
C175 C173 1.387 . S
C175 C177 1.390 . S
C175 H179 0.950 . S
H176 C172 0.950 . S
C177 C175 1.390 . S
C177 C178 1.387 . S
C177 H180 0.950 . S
C178 C177 1.387 . S
C178 C181 1.387 . S
H179 C175 0.950 . S
H180 C177 0.950 . S
C181 C172 1.390 . S
C181 H174 0.950 . S
C181 C178 1.387 . S
C182 C183 1.387 . S
C182 H186 0.950 . S
C182 C191 1.390 . S
C183 C182 1.387 . S
C183 C185 1.387 . S
H184 C191 0.950 1_545 S
C185 C183 1.387 . S
C185 C187 1.390 . S
C185 H189 0.950 . S
H186 C182 0.950 . S
C187 C185 1.390 . S
C187 C188 1.387 . S
C187 H190 0.950 . S
C188 C187 1.387 . S
C188 C191 1.387 . S
H189 C185 0.950 . S
H190 C187 0.950 . S
C191 C182 1.390 . S
C191 H184 0.950 1_565 S
C191 C188 1.387 . S
C192 C193 1.387 . S
C192 H196 0.950 . S
C192 C201 1.390 . S
C193 C192 1.387 . S
C193 C195 1.387 . S
H194 C201 0.950 . S
C195 C193 1.387 . S
C195 C197 1.390 . S
C195 H199 0.950 . S
H196 C192 0.950 . S
C197 C195 1.390 . S
C197 C198 1.387 . S
C197 H200 0.950 . S
C198 C197 1.387 . S
C198 C201 1.387 . S
H199 C195 0.950 . S
H200 C197 0.950 . S
C201 C192 1.390 . S
C201 H194 0.950 . S
C201 C198 1.387 . S
C202 C203 1.387 . S
C202 H206 0.950 . S
C202 C211 1.390 1_655 S
C203 C202 1.387 . S
C203 C205 1.387 . S
H204 C211 0.950 . S
C205 C203 1.387 . S
C205 C207 1.390 . S
C205 H209 0.950 . S
H206 C202 0.950 . S
C207 C205 1.390 . S
C207 C208 1.387 . S
C207 H210 0.950 . S
C208 C207 1.387 . S
C208 C211 1.387 1_655 S
H209 C205 0.950 . S
H210 C207 0.950 . S
C211 C202 1.390 1_455 S
C211 H204 0.950 . S
C211 C208 1.387 1_455 S
C212 C213 1.387 . S
C212 H216 0.950 . S
C212 C221 1.390 . S
C213 C212 1.387 . S
C213 C215 1.387 . S
H214 C221 0.950 . S
C215 C213 1.387 . S
C215 C217 1.390 . S
C215 H219 0.950 . S
H216 C212 0.950 . S
C217 C215 1.390 . S
C217 C218 1.387 . S
C217 H220 0.950 . S
C218 C217 1.387 . S
C218 C221 1.387 . S
H219 C215 0.950 . S
H220 C217 0.950 . S
C221 C212 1.390 . S
C221 H214 0.950 . S
C221 C218 1.387 . S
C222 C223 1.387 . S
C222 H226 0.950 . S
C222 C231 1.390 . S
C223 C222 1.387 . S
C223 C225 1.387 . S
H224 C231 0.950 1_545 S
C225 C223 1.387 . S
C225 C227 1.390 . S
C225 H229 0.950 . S
H226 C222 0.950 . S
C227 C225 1.390 . S
C227 C228 1.387 . S
C227 H230 0.950 . S
C228 C227 1.387 . S
C228 C231 1.387 . S
H229 C225 0.950 . S
H230 C227 0.950 . S
C231 C222 1.390 . S
C231 H224 0.950 1_565 S
C231 C228 1.387 . S
C232 C233 1.387 . S
C232 H236 0.950 . S
C232 C241 1.390 . S
C233 C232 1.387 . S
C233 C235 1.387 . S
H234 C241 0.950 . S
C235 C233 1.387 . S
C235 C237 1.390 . S
C235 H239 0.950 . S
H236 C232 0.950 . S
C237 C235 1.390 . S
C237 C238 1.387 . S
C237 H240 0.950 1_556 S
C238 C237 1.387 . S
C238 C241 1.387 . S
H239 C235 0.950 . S
H240 C237 0.950 1_554 S
C241 C232 1.390 . S
C241 H234 0.950 . S
C241 C238 1.387 . S
C242 C243 1.387 . S
C242 H246 0.950 . S
C242 C251 1.390 . S
C243 C242 1.387 . S
C243 C245 1.387 . S
H244 C251 0.950 . S
C245 C243 1.387 . S
C245 C247 1.390 . S
C245 H249 0.950 . S
H246 C242 0.950 . S
C247 C245 1.390 . S
C247 C248 1.387 . S
C247 H250 0.950 . S
C248 C247 1.387 . S
C248 C251 1.387 . S
H249 C245 0.950 . S
H250 C247 0.950 . S
C251 C242 1.390 . S
C251 H244 0.950 . S
C251 C248 1.387 . S
C252 C253 1.387 . S
C252 H256 0.950 . S
C252 C261 1.390 . S
C253 C252 1.387 . S
C253 C255 1.387 . S
H254 C261 0.950 . S
C255 C253 1.387 . S
C255 C257 1.390 . S
C255 H259 0.950 . S
H256 C252 0.950 . S
C257 C255 1.390 . S
C257 C258 1.387 . S
C257 H260 0.950 . S
C258 C257 1.387 . S
C258 C261 1.387 . S
H259 C255 0.950 . S
H260 C257 0.950 . S
C261 C252 1.390 . S
C261 H254 0.950 . S
C261 C258 1.387 . S
C262 C263 1.387 1_554 S
C262 H266 0.950 . S
C262 C271 1.390 . S
C263 C262 1.387 1_556 S
C263 C265 1.387 . S
H264 C271 0.950 . S
C265 C263 1.387 . S
C265 C267 1.390 . S
C265 H269 0.950 . S
H266 C262 0.950 . S
C267 C265 1.390 . S
C267 C268 1.387 1_556 S
C267 H270 0.950 . S
C268 C267 1.387 1_554 S
C268 C271 1.387 . S
H269 C265 0.950 . S
H270 C267 0.950 . S
C271 C262 1.390 . S
C271 H264 0.950 . S
C271 C268 1.387 . S
C272 C273 1.387 . S
C272 H276 0.950 . S
C272 C281 1.390 . S
C273 C272 1.387 . S
C273 C275 1.387 . S
H274 C281 0.950 1_455 S
C275 C273 1.387 . S
C275 C277 1.390 . S
C275 H279 0.950 . S
H276 C272 0.950 . S
C277 C275 1.390 . S
C277 C278 1.387 . S
C277 H280 0.950 . S
C278 C277 1.387 . S
C278 C281 1.387 . S
H279 C275 0.950 . S
H280 C277 0.950 . S
C281 C272 1.390 . S
C281 H274 0.950 1_655 S
C281 C278 1.387 . S
C282 C283 1.387 . S
C282 H286 0.950 . S
C282 C291 1.390 . S
C283 C282 1.387 . S
C283 C285 1.387 . S
H284 C291 0.950 . S
C285 C283 1.387 . S
C285 C287 1.390 . S
C285 H289 0.950 . S
H286 C282 0.950 . S
C287 C285 1.390 . S
C287 C288 1.387 . S
C287 H290 0.950 . S
C288 C287 1.387 . S
C288 C291 1.387 . S
H289 C285 0.950 . S
H290 C287 0.950 . S
C291 C282 1.390 . S
C291 H284 0.950 . S
C291 C288 1.387 . S
C292 C293 1.387 1_455 S
C292 H296 0.950 . S
C292 C301 1.390 . S
C293 C292 1.387 1_655 S
C293 C295 1.387 . S
H294 C301 0.950 . S
C295 C293 1.387 . S
C295 C297 1.390 . S
C295 H299 0.950 . S
H296 C292 0.950 . S
C297 C295 1.390 . S
C297 C298 1.387 . S
C297 H300 0.953 . S
C298 C297 1.387 . S
C298 C301 1.387 1_655 S
H299 C295 0.950 . S
H300 C297 0.953 . S
C301 C292 1.390 . S
C301 H294 0.950 . S
C301 C298 1.387 1_455 S
C302 C303 1.387 . S
C302 H306 0.950 . S
C302 C311 1.390 . S
C303 C302 1.387 . S
C303 C305 1.387 . S
H304 C311 0.950 . S
C305 C303 1.387 . S
C305 C307 1.390 . S
C305 H309 0.950 1_545 S
H306 C302 0.950 . S
C307 C305 1.390 . S
C307 C308 1.387 . S
C307 H310 0.950 1_545 S
C308 C307 1.387 . S
C308 C311 1.387 . S
H309 C305 0.950 1_565 S
H310 C307 0.950 1_565 S
C311 C302 1.390 . S
C311 H304 0.950 . S
C311 C308 1.387 . S
C312 C313 1.387 . S
C312 H316 0.950 . S
C312 C321 1.390 . S
C313 C312 1.387 . S
C313 C315 1.387 . S
H314 C321 0.950 . S
C315 C313 1.387 . S
C315 C317 1.390 . S
C315 H319 0.950 . S
H316 C312 0.950 . S
C317 C315 1.390 . S
C317 C318 1.387 . S
C317 H320 0.950 . S
C318 C317 1.387 . S
C318 C321 1.387 . S
H319 C315 0.950 . S
H320 C317 0.950 . S
C321 C312 1.390 . S
C321 H314 0.950 . S
C321 C318 1.387 . S
C322 C323 1.387 . S
C322 H326 0.950 . S
C322 C331 1.390 . S
C323 C322 1.387 . S
C323 C325 1.387 . S
H324 C331 0.950 . S
C325 C323 1.387 . S
C325 C327 1.390 . S
C325 H329 0.950 . S
H326 C322 0.950 . S
C327 C325 1.390 . S
C327 C328 1.387 . S
C327 H330 0.950 . S
C328 C327 1.387 . S
C328 C331 1.387 . S
H329 C325 0.950 . S
H330 C327 0.950 . S
C331 C322 1.390 . S
C331 H324 0.950 . S
C331 C328 1.387 . S
C332 C333 1.387 . S
C332 H336 0.950 . S
C332 C341 1.390 . S
C333 C332 1.387 . S
C333 C335 1.387 1_545 S
H334 C341 0.950 . S
C335 C333 1.387 1_565 S
C335 C337 1.390 . S
C335 H339 0.950 . S
H336 C332 0.950 . S
C337 C335 1.390 . S
C337 C338 1.387 1_565 S
C337 H340 0.950 . S
C338 C337 1.387 1_545 S
C338 C341 1.387 . S
H339 C335 0.950 . S
H340 C337 0.950 . S
C341 C332 1.390 . S
C341 H334 0.950 . S
C341 C338 1.387 . S
C342 C343 1.387 . S
C342 H346 0.950 1_545 S
C342 C351 1.390 . S
C343 C342 1.387 . S
C343 C345 1.387 . S
H344 C351 0.950 1_565 S
C345 C343 1.387 . S
C345 C347 1.390 . S
C345 H349 0.950 . S
H346 C342 0.950 1_565 S
C347 C345 1.390 . S
C347 C348 1.387 . S
C347 H350 0.950 . S
C348 C347 1.387 . S
C348 C351 1.387 . S
H349 C345 0.950 . S
H350 C347 0.950 . S
C351 C342 1.390 . S
C351 H344 0.950 1_545 S
C351 C348 1.387 . S
C352 C353 1.387 1_556 S
C352 H356 0.950 . S
C352 C361 1.390 . S
C353 C352 1.387 1_554 S
C353 C355 1.387 . S
H354 C361 0.950 . S
C355 C353 1.387 . S
C355 C357 1.390 . S
C355 H359 0.950 . S
H356 C352 0.950 . S
C357 C355 1.390 . S
C357 C358 1.387 . S
C357 H360 0.950 . S
C358 C357 1.387 . S
C358 C361 1.387 1_554 S
H359 C355 0.950 . S
H360 C357 0.950 . S
C361 C352 1.390 . S
C361 H354 0.950 . S
C361 C358 1.387 1_556 S
C362 C363 1.387 . S
C362 H366 0.950 . S
C362 C371 1.390 . S
C363 C362 1.387 . S
C363 C365 1.387 . S
H364 C371 0.950 . S
C365 C363 1.387 . S
C365 C367 1.390 . S
C365 H369 0.950 . S
H366 C362 0.950 . S
C367 C365 1.390 . S
C367 C368 1.387 . S
C367 H370 0.950 . S
C368 C367 1.387 . S
C368 C371 1.387 . S
H369 C365 0.950 . S
H370 C367 0.950 . S
C371 C362 1.390 . S
C371 H364 0.950 . S
C371 C368 1.387 . S
C372 C373 1.387 1_556 S
C372 H376 0.950 . S
C372 C381 1.390 . S
C373 C372 1.387 1_554 S
C373 C375 1.387 . S
H374 C381 0.950 . S
C375 C373 1.387 . S
C375 C377 1.390 . S
C375 H379 0.950 . S
H376 C372 0.950 . S
C377 C375 1.390 . S
C377 C378 1.387 . S
C377 H380 0.950 . S
C378 C377 1.387 . S
C378 C381 1.387 1_554 S
H379 C375 0.950 . S
H380 C377 0.950 . S
C381 C372 1.390 . S
C381 H374 0.950 . S
C381 C378 1.387 1_556 S
C382 C383 1.387 . S
C382 H386 0.950 . S
C382 C391 1.390 . S
C383 C382 1.387 . S
C383 C385 1.387 . S
H384 C391 0.950 . S
C385 C383 1.387 . S
C385 C387 1.390 . S
C385 H389 0.950 . S
H386 C382 0.950 . S
C387 C385 1.390 . S
C387 C388 1.387 . S
C387 H390 0.950 . S
C388 C387 1.387 . S
C388 C391 1.387 . S
H389 C385 0.950 . S
H390 C387 0.950 . S
C391 C382 1.390 . S
C391 H384 0.950 . S
C391 C388 1.387 . S
C392 C393 1.387 . S
C392 H396 0.950 1_455 S
C392 C401 1.390 . S
C393 C392 1.387 . S
C393 C395 1.387 . S
H394 C401 0.950 1_655 S
C395 C393 1.387 . S
C395 C397 1.390 . S
C395 H399 0.950 . S
H396 C392 0.950 1_655 S
C397 C395 1.390 . S
C397 C398 1.387 . S
C397 H400 0.950 . S
C398 C397 1.387 . S
C398 C401 1.387 . S
H399 C395 0.950 . S
H400 C397 0.950 . S
C401 C392 1.390 . S
C401 H394 0.950 1_455 S
C401 C398 1.387 . S
C402 C403 1.387 . S
C402 H406 0.950 . S
C402 C411 1.390 . S
C403 C402 1.387 . S
C403 C405 1.387 . S
H404 C411 0.950 . S
C405 C403 1.387 . S
C405 C407 1.390 . S
C405 H409 0.950 . S
H406 C402 0.950 . S
C407 C405 1.390 . S
C407 C408 1.387 . S
C407 H410 0.950 . S
C408 C407 1.387 . S
C408 C411 1.387 . S
H409 C405 0.950 . S
H410 C407 0.950 . S
C411 C402 1.390 . S
C411 H404 0.950 . S
C411 C408 1.387 . S
C173 C5 1.622 . S
C178 C91 1.668 . S
C183 C18 1.522 . S
C188 C125 1.464 . S
C198 C137 1.283 . S
C193 C30 1.351 . S
C203 C41 1.341 . S
C208 C171 1.304 . S
C218 C128 1.648 . S
C213 C7 1.684 . S
C228 C108 1.676 . S
C223 C16 1.560 . S
C238 C155 1.401 . S
C233 C29 1.483 . S
C248 C146 1.135 . S
C243 C38 1.087 . S
C253 C8 1.655 . S
C258 C154 1.558 . S
C268 C116 1.616 . S
C263 C27 1.523 . S
C273 C40 1.477 . S
C278 C92 1.371 . S
C283 C19 1.310 . S
C288 C149 1.249 . S
C298 C107 1.578 1_565 S
C293 C51 1.674 . S
C303 C62 1.596 . S
C308 C129 1.615 . S
C313 C74 1.507 . S
C318 C134 1.521 . S
C323 C84 1.380 . S
C328 C167 1.463 . S
C333 C49 1.873 . S
C338 C112 1.821 1_545 S
C348 C104 1.549 . S
C343 C63 1.561 . S
C358 C158 1.443 . S
C353 C71 1.190 . S
C368 C150 1.363 . S
C363 C85 1.350 . S
C373 C52 1.689 . S
C378 C170 1.607 1_554 S
C388 C113 1.764 . S
C383 C73 1.718 . S
C398 C95 1.441 . S
C393 C82 1.124 . S
C403 C60 1.341 . S
C408 C133 1.635 . S
