# Generated by pormake.
# Topology pyr, (3,6)-cn, num edge types: 1
# Building blocks:
#     Node 0, Type 0, BuildingBlock: WUSLED_clean_sbu_0, # of connection points: 3
#     Node 1, Type 0, BuildingBlock: WUSLED_clean_sbu_0, # of connection points: 3
#     Node 2, Type 0, BuildingBlock: WUSLED_clean_sbu_0, # of connection points: 3
#     Node 3, Type 0, BuildingBlock: WUSLED_clean_sbu_0, # of connection points: 3
#     Node 4, Type 0, BuildingBlock: WUSLED_clean_sbu_0, # of connection points: 3
#     Node 5, Type 0, BuildingBlock: WUSLED_clean_sbu_0, # of connection points: 3
#     Node 6, Type 0, BuildingBlock: WUSLED_clean_sbu_0, # of connection points: 3
#     Node 7, Type 0, BuildingBlock: WUSLED_clean_sbu_0, # of connection points: 3
#     Node 8, Type 1, BuildingBlock: INOVEN_clean_sbu_0, # of connection points: 6
#     Node 9, Type 1, BuildingBlock: INOVEN_clean_sbu_0, # of connection points: 6
#     Node 10, Type 1, BuildingBlock: INOVEN_clean_sbu_0, # of connection points: 6
#     Node 11, Type 1, BuildingBlock: INOVEN_clean_sbu_0, # of connection points: 6
#     Edge 12, Type (0, 1), None
#     Edge 13, Type (0, 1), None
#     Edge 14, Type (0, 1), None
#     Edge 15, Type (0, 1), None
#     Edge 16, Type (0, 1), None
#     Edge 17, Type (0, 1), None
#     Edge 18, Type (0, 1), None
#     Edge 19, Type (0, 1), None
#     Edge 20, Type (0, 1), None
#     Edge 21, Type (0, 1), None
#     Edge 22, Type (0, 1), None
#     Edge 23, Type (0, 1), None
#     Edge 24, Type (0, 1), None
#     Edge 25, Type (0, 1), None
#     Edge 26, Type (0, 1), None
#     Edge 27, Type (0, 1), None
#     Edge 28, Type (0, 1), None
#     Edge 29, Type (0, 1), None
#     Edge 30, Type (0, 1), None
#     Edge 31, Type (0, 1), None
#     Edge 32, Type (0, 1), None
#     Edge 33, Type (0, 1), None
#     Edge 34, Type (0, 1), None
#     Edge 35, Type (0, 1), None
# Relax obj value: 0.177
# Max RMSD: 0.155
# Mean RMSD: 0.071
data_MOF--net-pyr--node1-WUSLED_clean_sbu_0--node2-INOVEN_clean_sbu_0--edge1-none
_symmetry_space_group_name_H-M    P1
_symmetry_Int_Tables_number       1
_symmetry_cell_setting            triclinic
loop_
_symmetry_equiv_pos_as_xyz
'x, y, z'
_cell_length_a     28.731414
_cell_length_b     29.815828
_cell_length_c     26.524954
_cell_angle_alpha  90.770429
_cell_angle_beta   88.487584
_cell_angle_gamma 105.75066
loop_
_atom_site_label
_atom_site_type_symbol
_atom_site_fract_x
_atom_site_fract_y
_atom_site_fract_z
_atom_type_partial_charge
C0 C 0.33357 0.42836 0.21159 0.0
C1 C 0.29084 0.39565 0.2277 0.0
C2 C 0.24406 0.45019 0.20919 0.0
C3 C 0.24644 0.40642 0.22641 0.0
C4 C 0.2875 0.48381 0.19645 0.0
C5 C 0.33179 0.47286 0.19739 0.0
U6 U 0.40701 0.3427 0.23152 0.0
O7 O 0.44423 0.31357 0.17195 0.0
O8 O 0.48432 0.3461 0.23852 0.0
C9 C 0.48329 0.31916 0.1986 0.0
C10 C 0.37846 0.4144 0.203 0.0
C11 C 0.49657 0.27564 0.20628 0.0
C12 C 0.55297 0.22994 0.18909 0.0
C13 C 0.54316 0.27317 0.19319 0.0
C14 C 0.47018 0.1913 0.21423 0.0
C15 C 0.51591 0.18847 0.19688 0.0
C16 C 0.46075 0.23472 0.21948 0.0
C17 C 0.30407 0.28488 0.32194 0.0
C18 C 0.2623 0.28519 0.4023 0.0
C19 C 0.21666 0.266 0.32564 0.0
C20 C 0.25958 0.27351 0.29754 0.0
C21 C 0.21767 0.27008 0.37844 0.0
C22 C 0.30515 0.29205 0.3743 0.0
C23 C 0.34924 0.28608 0.29433 0.0
O24 O 0.4062 0.41613 0.24213 0.0
O25 O 0.37277 0.37612 0.17602 0.0
O26 O 0.3872 0.31887 0.3088 0.0
O27 O 0.34676 0.28043 0.2451 0.0
H28 H 0.29152 0.36099 0.23869 0.0
H29 H 0.21383 0.37955 0.23626 0.0
H30 H 0.28716 0.51822 0.1842 0.0
H31 H 0.36442 0.49851 0.18495 0.0
H32 H 0.58844 0.2291 0.175 0.0
H33 H 0.57106 0.30433 0.18272 0.0
H34 H 0.44081 0.16005 0.22008 0.0
H35 H 0.42444 0.23606 0.22996 0.0
H36 H 0.2641 0.28928 0.44291 0.0
H37 H 0.18282 0.25383 0.3062 0.0
H38 H 0.25764 0.26821 0.25709 0.0
H39 H 0.33909 0.30109 0.39391 0.0
C40 C 0.14563 0.9425 0.5925 0.0
C41 C 0.15274 0.97798 0.62934 0.0
C42 C 0.1272 1.0278 0.57044 0.0
C43 C 0.14323 1.02041 0.61842 0.0
C44 C 0.12088 0.99232 0.53381 0.0
C45 C 0.12993 0.95004 0.54484 0.0
U46 U 0.21827 0.88089 0.66505 0.0
O47 O 0.25903 0.83411 0.63515 0.0
O48 O 0.20642 0.81075 0.69764 0.0
C49 C 0.24047 0.80154 0.66842 0.0
C50 C 0.15876 0.89927 0.60138 0.0
C51 C 0.27647 0.78272 0.69209 0.0
C52 C 0.31737 0.72168 0.68917 0.0
C53 C 0.27685 0.73713 0.67973 0.0
C54 C 0.35608 0.79625 0.72765 0.0
C55 C 0.35826 0.75167 0.71138 0.0
C56 C 0.31547 0.81182 0.71782 0.0
C57 C 0.2935 0.95721 0.76716 0.0
C58 C 0.31261 0.93706 0.85063 0.0
C59 C 0.34891 1.01457 0.81744 0.0
C60 C 0.32498 1.00174 0.77253 0.0
C61 C 0.34148 0.98281 0.85733 0.0
C62 C 0.28879 0.92417 0.80553 0.0
C63 C 0.26097 0.94877 0.72489 0.0
O64 O 0.20401 0.90169 0.5894 0.0
O65 O 0.14405 0.87883 0.64485 0.0
O66 O 0.21767 0.92095 0.73433 0.0
O67 O 0.27962 0.94173 0.68069 0.0
H68 H 0.16576 0.97293 0.66625 0.0
H69 H 0.14785 1.04709 0.64745 0.0
H70 H 0.10795 0.99679 0.49674 0.0
H71 H 0.12504 0.92325 0.51592 0.0
H72 H 0.31787 0.68746 0.67542 0.0
H73 H 0.24727 0.71456 0.65923 0.0
H74 H 0.3867 0.81991 0.74556 0.0
H75 H 0.31583 0.84739 0.72726 0.0
H76 H 0.30684 0.91205 0.88101 0.0
H77 H 0.37056 1.05023 0.82211 0.0
H78 H 0.32871 1.02752 0.74319 0.0
H79 H 0.26469 0.88942 0.80178 0.0
C80 C 0.64065 0.47981 0.79085 0.0
C81 C 0.61594 0.5136 0.80205 0.0
C82 C 0.60367 0.52431 0.71231 0.0
C83 C 0.598 0.53561 0.76349 0.0
C84 C 0.62829 0.49029 0.70101 0.0
C85 C 0.64657 0.46839 0.73978 0.0
U86 U 0.68732 0.41278 0.90645 0.0
O87 O 0.6266 0.36963 0.95121 0.0
O88 O 0.66808 0.33579 0.9 0.0
C89 C 0.63246 0.33007 0.93353 0.0
C90 C 0.65778 0.45522 0.83242 0.0
C91 C 0.6225 0.28974 0.96855 0.0
C92 C 0.57202 0.24809 1.03737 0.0
C93 C 0.59233 0.28929 1.01119 0.0
C94 C 0.61377 0.2065 0.98135 0.0
C95 C 0.58117 0.20597 1.02191 0.0
C96 C 0.63402 0.24806 0.95463 0.0
C97 C 0.81183 0.47388 0.98237 0.0
C98 C 0.88777 0.46928 1.01838 0.0
C99 C 0.86505 0.54161 1.02371 0.0
C100 C 0.82198 0.52051 0.99869 0.0
C101 C 0.89844 0.51617 1.03414 0.0
C102 C 0.84525 0.44855 0.99236 0.0
C103 C 0.76674 0.45187 0.95491 0.0
O104 O 0.68658 0.42807 0.82473 0.0
O105 O 0.64651 0.46067 0.88005 0.0
O106 O 0.72472 0.45881 0.96784 0.0
O107 O 0.76608 0.42403 0.91587 0.0
H108 H 0.61011 0.52298 0.84084 0.0
H109 H 0.57906 0.56128 0.77406 0.0
H110 H 0.63319 0.4803 0.66224 0.0
H111 H 0.66478 0.44201 0.72977 0.0
H112 H 0.54719 0.2489 1.06863 0.0
H113 H 0.5818 0.3202 1.0227 0.0
H114 H 0.62133 0.17451 0.9685 0.0
H115 H 0.65642 0.24692 0.92142 0.0
H116 H 0.91285 0.4488 1.02517 0.0
H117 H 0.87211 0.57785 1.03492 0.0
H118 H 0.79697 0.54093 0.9913 0.0
H119 H 0.83839 0.41254 0.98027 0.0
C120 C 0.75818 0.68531 0.48385 0.0
C121 C 0.76039 0.67663 0.53558 0.0
C122 C 0.67254 0.64575 0.5418 0.0
C123 C 0.71809 0.65741 0.56425 0.0
C124 C 0.67036 0.6531 0.4897 0.0
C125 C 0.71269 0.67312 0.46115 0.0
U126 U 0.88289 0.74933 0.40444 0.0
O127 O 0.92727 0.70341 0.37711 0.0
O128 O 0.88625 0.73285 0.32272 0.0
C129 C 0.91676 0.70782 0.32981 0.0
C130 C 0.80299 0.70847 0.45452 0.0
C131 C 0.93362 0.68155 0.28844 0.0
C132 C 0.92896 0.60872 0.24328 0.0
C133 C 0.91243 0.63369 0.28194 0.0
C134 C 0.98861 0.67903 0.21696 0.0
C135 C 0.96758 0.63083 0.21045 0.0
C136 C 0.97167 0.7041 0.25544 0.0
C137 C 0.93699 0.87582 0.46273 0.0
C138 C 0.94778 0.9598 0.46938 0.0
C139 C 0.9685 0.91817 0.53927 0.0
C140 C 0.95398 0.87633 0.51205 0.0
C141 C 0.96645 0.96056 0.51792 0.0
C142 C 0.93324 0.91791 0.44217 0.0
C143 C 0.93222 0.83463 0.42906 0.0
O144 O 0.80291 0.73262 0.41337 0.0
O145 O 0.8459 0.70602 0.46822 0.0
O146 O 0.94027 0.79693 0.44786 0.0
O147 O 0.89777 0.82555 0.39573 0.0
H148 H 0.79481 0.68585 0.55426 0.0
H149 H 0.72101 0.65225 0.60427 0.0
H150 H 0.63582 0.64471 0.47129 0.0
H151 H 0.70976 0.67941 0.42139 0.0
H152 H 0.91187 0.57174 0.23964 0.0
H153 H 0.88313 0.61552 0.30692 0.0
H154 H 1.01841 0.69728 0.19263 0.0
H155 H 0.98872 0.74106 0.25984 0.0
H156 H 0.9462 0.99179 0.45151 0.0
H157 H 0.98305 0.91743 0.57641 0.0
H158 H 0.95822 0.84484 0.52889 0.0
H159 H 0.92133 0.91888 0.40388 0.0
C160 C 0.7449 0.74797 0.97745 0.0
C161 C 0.78813 0.78115 0.96365 0.0
C162 C 0.83397 0.72524 0.97943 0.0
C163 C 0.83231 0.76995 0.96473 0.0
C164 C 0.79012 0.69125 0.98968 0.0
C165 C 0.74603 0.70263 0.98891 0.0
U166 U 0.669 0.83163 0.95624 0.0
O167 O 0.63327 0.86174 1.01623 0.0
O168 O 0.59124 0.82734 0.9516 0.0
C169 C 0.5933 0.85517 0.99092 0.0
C170 C 0.69997 0.76187 0.98643 0.0
C171 C 0.57926 0.89828 0.98303 0.0
C172 C 0.52272 0.94351 1.0017 0.0
C173 C 0.53284 0.90045 0.99732 0.0
C174 C 0.60476 0.98259 0.97442 0.0
C175 C 0.55932 0.98514 0.99298 0.0
C176 C 0.61447 0.93933 0.96885 0.0
C177 C 0.76882 0.8881 0.86212 0.0
C178 C 0.81024 0.89073 0.78121 0.0
C179 C 0.85594 0.90355 0.85818 0.0
C180 C 0.81316 0.89621 0.88644 0.0
C181 C 0.85494 0.90267 0.80526 0.0
C182 C 0.76752 0.88393 0.80947 0.0
C183 C 0.72404 0.88688 0.89035 0.0
O184 O 0.70591 0.80106 1.01182 0.0
O185 O 0.67087 0.75822 0.94814 0.0
O186 O 0.7276 0.89432 0.93928 0.0
O187 O 0.68637 0.85289 0.87769 0.0
H188 H 0.78798 0.81642 0.95474 0.0
H189 H 0.86525 0.79711 0.95684 0.0
H190 H 0.78997 0.65617 0.99993 0.0
H191 H 0.71303 0.67655 0.99946 0.0
H192 H 0.4875 0.94416 1.01678 0.0
H193 H 0.50544 0.86922 1.00861 0.0
H194 H 0.63377 1.01399 0.96785 0.0
H195 H 0.65064 0.93823 0.95745 0.0
H196 H 0.80841 0.88916 0.74046 0.0
H197 H 0.88981 0.91325 0.87784 0.0
H198 H 0.81521 0.89921 0.9271 0.0
H199 H 0.7336 0.87733 0.79002 0.0
C200 C 0.78305 0.21768 0.42191 0.0
C201 C 0.75156 0.17312 0.41677 0.0
C202 C 0.73488 0.19171 0.33191 0.0
C203 C 0.72754 0.16012 0.37195 0.0
C204 C 0.76377 0.23749 0.33837 0.0
C205 C 0.7877 0.25056 0.38338 0.0
U206 U 0.8585 0.29428 0.52374 0.0
O207 O 0.87027 0.36438 0.49104 0.0
O208 O 0.81784 0.34113 0.55369 0.0
C209 C 0.83634 0.37366 0.52037 0.0
C210 C 0.81567 0.22628 0.46411 0.0
C211 C 0.80029 0.39251 0.49685 0.0
C212 C 0.72058 0.37898 0.46154 0.0
C213 C 0.76127 0.36345 0.47112 0.0
C214 C 0.75928 0.45345 0.50025 0.0
C215 C 0.71836 0.42347 0.47807 0.0
C216 C 0.79987 0.43805 0.50942 0.0
C217 C 0.93121 0.2328 0.59632 0.0
C218 C 0.95623 0.18325 0.65507 0.0
C219 C 0.93291 0.15457 0.57087 0.0
C220 C 0.92356 0.19704 0.55977 0.0
C221 C 0.94932 0.14745 0.61876 0.0
C222 C 0.94734 0.22556 0.64386 0.0
C223 C 0.91812 0.27603 0.58734 0.0
O224 O 0.85894 0.2541 0.45452 0.0
O225 O 0.79711 0.23342 0.50832 0.0
O226 O 0.8729 0.27366 0.5994 0.0
O227 O 0.93276 0.29633 0.54379 0.0
H228 H 0.74789 0.14747 0.44622 0.0
H229 H 0.70586 0.12444 0.36746 0.0
H230 H 0.76948 0.26237 0.30788 0.0
H231 H 0.81181 0.28532 0.38695 0.0
H232 H 0.68994 0.35534 0.44364 0.0
H233 H 0.76094 0.32792 0.46152 0.0
H234 H 0.75875 0.4876 0.51419 0.0
H235 H 0.82947 0.46057 0.52993 0.0
H236 H 0.96948 0.179 0.69205 0.0
H237 H 0.92785 0.12765 0.54208 0.0
H238 H 0.91021 0.20188 0.52296 0.0
H239 H 0.95266 0.25257 0.67255 0.0
C240 C 0.26448 0.69977 0.2087 0.0
C241 C 0.23092 0.72497 0.19889 0.0
C242 C 0.17784 0.65734 0.15707 0.0
C243 C 0.1884 0.70418 0.17295 0.0
C244 C 0.21135 0.63197 0.16733 0.0
C245 C 0.25446 0.65315 0.19228 0.0
U246 U 0.38904 0.76116 0.28439 0.0
O247 O 0.38985 0.74608 0.36616 0.0
O248 O 0.42992 0.71337 0.31093 0.0
C249 C 0.41867 0.71893 0.35854 0.0
C250 C 0.30955 0.722 0.23609 0.0
C251 C 0.43585 0.69445 0.40017 0.0
C252 C 0.47858 0.63876 0.42764 0.0
C253 C 0.46062 0.66069 0.38903 0.0
C254 C 0.44821 0.68409 0.49004 0.0
C255 C 0.47287 0.6501 0.4788 0.0
C256 C 0.42991 0.70592 0.45122 0.0
C257 C 0.45365 0.88406 0.22192 0.0
C258 C 0.50417 0.92569 0.15312 0.0
C259 C 0.46199 0.96718 0.20875 0.0
C260 C 0.44186 0.92567 0.23559 0.0
C261 C 0.49474 0.96775 0.16833 0.0
C262 C 0.48398 0.88453 0.17941 0.0
C263 C 0.44379 0.84384 0.25707 0.0
O264 O 0.35156 0.71504 0.22319 0.0
O265 O 0.31022 0.74989 0.2751 0.0
O266 O 0.4082 0.83815 0.29063 0.0
O267 O 0.44969 0.80425 0.2395 0.0
H268 H 0.2377 0.76094 0.21107 0.0
H269 H 0.16323 0.7246 0.16632 0.0
H270 H 0.20434 0.59575 0.15603 0.0
H271 H 0.27958 0.6328 0.19955 0.0
H272 H 0.49754 0.6131 0.41711 0.0
H273 H 0.46646 0.65127 0.35026 0.0
H274 H 0.44328 0.69411 0.52879 0.0
H275 H 0.41166 0.73228 0.46118 0.0
H276 H 0.52913 0.92491 0.12197 0.0
H277 H 0.4542 0.99913 0.22141 0.0
H278 H 0.41932 0.9268 0.2687 0.0
H279 H 0.49472 0.85368 0.16809 0.0
C280 C 0.13933 0.29865 0.72761 0.0
C281 C 0.12236 0.29834 0.6783 0.0
C282 C 0.10991 0.21414 0.67202 0.0
C283 C 0.10786 0.25661 0.65088 0.0
C284 C 0.12855 0.2147 0.72055 0.0
C285 C 0.14308 0.25647 0.74796 0.0
U286 U 0.19342 0.42489 0.78646 0.0
O287 O 0.14888 0.47062 0.81402 0.0
O288 O 0.19008 0.44117 0.8682 0.0
C289 C 0.15944 0.46608 0.86127 0.0
C290 C 0.14408 0.33969 0.76149 0.0
C291 C 0.14268 0.49223 0.90282 0.0
C292 C 0.08655 0.49493 0.97317 0.0
C293 C 0.10341 0.46997 0.93454 0.0
C294 C 0.14862 0.5645 0.94954 0.0
C295 C 0.1088 0.54271 0.98106 0.0
C296 C 0.16516 0.53964 0.91077 0.0
C297 C 0.31816 0.48904 0.7072 0.0
C298 C 0.40596 0.52133 0.70142 0.0
C299 C 0.3583 0.51676 0.62678 0.0
C300 C 0.31598 0.49758 0.65544 0.0
C301 C 0.40383 0.52852 0.64928 0.0
C302 C 0.36362 0.50134 0.72996 0.0
C303 C 0.27334 0.46584 0.73649 0.0
O304 O 0.1785 0.34862 0.79484 0.0
O305 O 0.13606 0.37747 0.74287 0.0
O306 O 0.23045 0.46838 0.72285 0.0
O307 O 0.2734 0.44158 0.77756 0.0
H308 H 0.11812 0.3299 0.66163 0.0
H309 H 0.0933 0.25749 0.61376 0.0
H310 H 0.13013 0.18264 0.73826 0.0
H311 H 0.15496 0.25535 0.78623 0.0
H312 H 0.0558 0.47694 0.99648 0.0
H313 H 0.08536 0.43336 0.92901 0.0
H314 H 0.16669 0.60117 0.95429 0.0
H315 H 0.19544 0.55756 0.88681 0.0
H316 H 0.44049 0.5298 0.71986 0.0
H317 H 0.35542 0.5218 0.58674 0.0
H318 H 0.28159 0.48826 0.63671 0.0
H319 H 0.36651 0.49514 0.76975 0.0
Gd320 Gd 0.04069 0.11168 0.54572 0.0
Gd321 Gd 1.0354 1.06325 0.64399 0.0
C322 C 0.08915 0.16952 0.64497 0.0
C323 C 0.04317 0.16964 0.47517 0.0
C324 C 0.08696 0.20115 0.45507 0.0
C325 C 0.13136 0.19844 0.47357 0.0
C326 C 0.08539 0.23067 0.41529 0.0
C327 C 0.17304 0.25134 0.40852 0.0
C328 C 0.12839 0.25601 0.39218 0.0
C329 C 0.17415 0.2231 0.45021 0.0
C330 C 0.11269 1.07022 0.55919 0.0
C331 C 0.9872 1.00528 0.54481 0.0
C332 C 1.03175 1.00488 0.71426 0.0
C333 C 0.98724 0.9734 0.73287 0.0
C334 C 0.94342 0.97833 0.71498 0.0
C335 C 0.98759 0.94086 0.76992 0.0
C336 C 0.89995 0.9219 0.77595 0.0
C337 C 0.94396 0.91487 0.79127 0.0
C338 C 0.90005 0.95309 0.7367 0.0
C339 C 0.96353 0.10495 0.63028 0.0
O340 O 0.0675 0.1704 0.60181 0.0
O341 O 0.09 0.12954 0.66516 0.0
O342 O 0.04032 0.12576 0.46629 0.0
O343 O 1.03294 0.1782 0.52198 0.0
O344 O 0.09579 1.07607 0.51583 0.0
O345 O 0.09518 0.0922 0.59177 0.0
O346 O 1.00885 1.0045 0.58796 0.0
O347 O 0.98627 1.04521 0.52458 0.0
O348 O 1.03476 1.04877 0.72343 0.0
O349 O 0.04313 0.99671 0.6677 0.0
O350 O 0.98057 0.09935 0.67364 0.0
O351 O 0.98095 1.08268 0.59794 0.0
H352 H 0.13281 0.17538 0.50442 0.0
H353 H 0.05106 0.23273 0.40102 0.0
H354 H 0.12663 0.27773 0.36031 0.0
H355 H 0.20772 0.21767 0.46292 0.0
H356 H 0.94289 1.00342 0.68593 0.0
H357 H 1.02144 0.93681 0.78345 0.0
H358 H 0.94478 0.89077 0.82118 0.0
H359 H 0.86703 0.96029 0.72481 0.0
Gd360 Gd 0.58492 0.09026 0.10711 0.0
Gd361 Gd 0.49058 0.08351 1.08277 0.0
C362 C 0.52207 0.14467 0.17498 0.0
C363 C 0.67124 0.11493 0.14006 0.0
C364 C 0.6872 0.13465 0.18894 0.0
C365 C 0.65476 0.12666 0.23052 0.0
C366 C 0.73392 0.16373 0.19357 0.0
C367 C 0.71704 0.17499 0.28206 0.0
C368 C 0.7489 0.18383 0.24002 0.0
C369 C 0.66974 0.14661 0.277 0.0
C370 C 0.52344 1.01134 0.144 0.0
C371 C 0.55323 1.0289 1.01501 0.0
C372 C 0.40437 1.0591 1.04956 0.0
C373 C 0.3886 1.03948 1.00059 0.0
C374 C 0.42121 1.04756 0.95915 0.0
C375 C 0.34191 1.0104 0.99573 0.0
C376 C 0.35914 0.99935 0.90728 0.0
C377 C 0.32712 0.9904 0.94919 0.0
C378 C 0.40641 1.02773 0.91257 0.0
C379 C 0.5523 0.16238 1.04611 0.0
O380 O 0.56517 0.14448 0.15709 0.0
O381 O 0.48384 0.11365 0.15853 0.0
O382 O 0.64464 1.0719 0.14092 0.0
O383 O 0.65404 0.14181 0.11177 0.0
O384 O 0.56399 1.01363 0.12074 0.0
O385 O 0.51608 1.05132 0.1471 0.0
O386 O 0.51017 1.02912 1.03296 0.0
O387 O 0.59151 1.0599 1.0314 0.0
O388 O 0.43105 0.10211 1.04885 0.0
O389 O 0.42137 1.03212 1.07791 0.0
O390 O 0.5118 0.16021 1.06943 0.0
O391 O 0.55938 0.1223 1.0428 0.0
H392 H 0.61802 0.10488 0.2271 0.0
H393 H 0.75879 0.1706 0.1614 0.0
H394 H 0.78582 0.20507 0.24341 0.0
H395 H 0.64468 0.13955 0.30904 0.0
H396 H 0.45793 1.06933 0.96275 0.0
H397 H 0.31692 1.00344 1.0278 0.0
H398 H 0.29022 0.96916 0.94562 0.0
H399 H 0.43159 1.03487 0.88064 0.0
Gd400 Gd 0.53251 0.5481 0.56464 0.0
Gd401 Gd 0.54398 0.62636 0.62653 0.0
C402 C 0.58258 0.54733 0.67196 0.0
C403 C 0.5433 0.47823 0.51168 0.0
C404 C 0.58654 0.46378 0.49654 0.0
C405 C 0.58629 0.4171 0.50162 0.0
C406 C 0.62938 0.49675 0.48114 0.0
C407 C 0.67203 0.43655 0.47882 0.0
C408 C 0.6716 0.48313 0.47183 0.0
C409 C 0.62863 0.40355 0.49291 0.0
C410 C 0.44869 0.54504 0.61762 0.0
C411 C 0.49397 0.62711 0.51918 0.0
C412 C 0.53318 0.69628 0.67939 0.0
C413 C 0.48994 0.71093 0.69409 0.0
C414 C 0.49034 0.75762 0.68862 0.0
C415 C 0.44697 0.67813 0.70946 0.0
C416 C 0.40451 0.73847 0.71099 0.0
C417 C 0.40478 0.6919 0.71836 0.0
C418 C 0.44803 0.77132 0.69692 0.0
C419 C 0.62769 0.62922 0.5735 0.0
O420 O 0.58418 0.53535 0.62389 0.0
O421 O 0.56125 0.57976 0.68465 0.0
O422 O 0.5325 0.47545 0.55982 0.0
O423 O 0.5392 0.5167 0.49183 0.0
O424 O 0.45102 0.53322 0.57081 0.0
O425 O 0.49081 0.55742 0.63466 0.0
O426 O 0.49229 0.63906 0.56726 0.0
O427 O 0.51538 0.59475 0.5065 0.0
O428 O 0.54446 0.69914 0.63136 0.0
O429 O 0.53688 0.65769 0.69928 0.0
O430 O 0.62545 0.64098 0.62034 0.0
O431 O 0.58555 0.61706 0.55648 0.0
H432 H 0.55375 0.39143 0.51429 0.0
H433 H 0.63068 0.53325 0.47771 0.0
H434 H 0.70427 0.50938 0.46071 0.0
H435 H 0.6278 0.36764 0.49986 0.0
H436 H 0.52298 0.78316 0.67597 0.0
H437 H 0.44554 0.64162 0.71318 0.0
H438 H 0.37202 0.66577 0.72947 0.0
H439 H 0.44898 0.80721 0.68971 0.0
Gd440 Gd 1.03586 0.54687 0.12451 0.0
Gd441 Gd 0.04048 0.62673 1.06669 0.0
C442 C 0.13106 0.63468 0.13242 0.0
C443 C 0.05765 0.47993 0.17059 0.0
C444 C 0.10505 0.47239 0.18042 0.0
C445 C 0.11145 0.44874 0.2238 0.0
C446 C 0.14471 0.49038 0.1476 0.0
C447 C 0.19647 0.4594 0.20062 0.0
C448 C 0.18987 0.48382 0.1575 0.0
C449 C 0.15672 0.44215 0.2338 0.0
C450 C 0.98662 0.60287 0.17152 0.0
C451 C 0.94523 0.53883 1.05879 0.0
C452 C 1.01911 0.69384 1.02045 0.0
C453 C 0.97193 0.70147 1.00974 0.0
C454 C 0.96678 0.72693 0.96731 0.0
C455 C 0.93139 0.68214 1.04095 0.0
C456 C 0.88118 0.71533 0.98828 0.0
C457 C 0.88652 0.68905 1.03037 0.0
C458 C 0.92184 0.73398 0.9567 0.0
C459 C 0.08972 0.57067 1.01996 0.0
O460 O 0.11439 0.58888 0.13227 0.0
O461 O 0.10545 0.66013 0.11251 0.0
O462 O 0.04851 0.51535 0.19424 0.0
O463 O 0.04518 0.47725 0.12339 0.0
O464 O 0.97133 0.55783 0.16861 0.0
O465 O 1.02735 0.61643 0.1489 0.0
O466 O 0.96201 0.58462 1.05866 0.0
O467 O 0.97073 0.5134 1.07892 0.0
O468 O 1.02871 0.65862 0.99686 0.0
O469 O 1.03066 0.69616 1.06791 0.0
O470 O 0.10519 0.61569 1.02301 0.0
O471 O 0.04885 0.55721 1.04232 0.0
H472 H 0.0814 0.43535 0.24992 0.0
H473 H 0.14074 0.5092 0.11402 0.0
H474 H 0.21932 0.49698 0.13064 0.0
H475 H 0.16058 0.42369 0.26763 0.0
H476 H 0.99758 0.74148 0.94248 0.0
H477 H 0.93445 0.66212 1.07389 0.0
H478 H 0.85632 0.67479 1.05603 0.0
H479 H 0.91896 0.75397 0.92372 0.0
loop_
_geom_bond_atom_site_label_1
_geom_bond_atom_site_label_2
_geom_bond_distance
_geom_bond_site_symmetry_2
_ccdc_geom_bond_type
C0 C1 1.264 . S
C0 C5 1.479 . S
C0 C10 1.465 . S
C1 C0 1.264 . S
C1 C3 1.339 . S
C1 H28 0.931 . S
C2 C3 1.395 . S
C2 C4 1.320 . S
C3 C1 1.339 . S
C3 C2 1.395 . S
C3 H29 0.929 . S
C4 C2 1.320 . S
C4 C5 1.405 . S
C4 H30 0.930 . S
C5 C0 1.479 . S
C5 C4 1.405 . S
C5 H31 0.931 . S
U6 O7 2.454 . S
U6 O8 2.458 . S
U6 C9 2.984 . S
U6 C10 2.847 . S
U6 C23 2.882 . S
U6 O24 2.441 . S
U6 O25 2.420 . S
U6 O26 2.455 . S
U6 O27 2.449 . S
O7 U6 2.454 . S
O7 C9 1.353 . S
O8 U6 2.458 . S
O8 C9 1.286 . S
C9 U6 2.984 . S
C9 O7 1.353 . S
C9 O8 1.286 . S
C9 C11 1.363 . S
C10 C0 1.465 . S
C10 U6 2.847 . S
C10 O24 1.249 . S
C10 O25 1.202 . S
C11 C9 1.363 . S
C11 C13 1.408 . S
C11 C16 1.342 . S
C12 C13 1.310 . S
C12 C15 1.461 . S
C12 H32 0.932 . S
C13 C11 1.408 . S
C13 C12 1.310 . S
C13 H33 0.930 . S
C14 C15 1.474 . S
C14 C16 1.285 . S
C14 H34 0.929 . S
C15 C12 1.461 . S
C15 C14 1.474 . S
C16 C11 1.342 . S
C16 C14 1.285 . S
C16 H35 0.930 . S
C17 C20 1.424 . S
C17 C22 1.245 . S
C17 C23 1.428 . S
C18 C21 1.260 . S
C18 C22 1.477 . S
C18 H36 0.932 . S
C19 C20 1.384 . S
C19 C21 1.479 . S
C19 H37 0.929 . S
C20 C17 1.424 . S
C20 C19 1.384 . S
C20 H38 0.928 . S
C21 C18 1.260 . S
C21 C19 1.479 . S
C22 C17 1.245 . S
C22 C18 1.477 . S
C22 H39 0.932 . S
C23 U6 2.882 . S
C23 C17 1.428 . S
C23 O26 1.301 . S
C23 O27 1.282 . S
O24 U6 2.441 . S
O24 C10 1.249 . S
O25 U6 2.420 . S
O25 C10 1.202 . S
O26 U6 2.455 . S
O26 C23 1.301 . S
O27 U6 2.449 . S
O27 C23 1.282 . S
H28 C1 0.931 . S
H29 C3 0.929 . S
H30 C4 0.930 . S
H31 C5 0.931 . S
H32 C12 0.932 . S
H33 C13 0.930 . S
H34 C14 0.929 . S
H35 C16 0.930 . S
H36 C18 0.932 . S
H37 C19 0.929 . S
H38 C20 0.928 . S
H39 C22 0.932 . S
C40 C41 1.264 . S
C40 C45 1.479 . S
C40 C50 1.465 . S
C41 C40 1.264 . S
C41 C43 1.339 . S
C41 H68 0.931 . S
C42 C43 1.395 . S
C42 C44 1.320 . S
C43 C41 1.339 . S
C43 C42 1.395 . S
C43 H69 0.929 . S
C44 C42 1.320 . S
C44 C45 1.405 . S
C44 H70 0.930 . S
C45 C40 1.479 . S
C45 C44 1.405 . S
C45 H71 0.931 . S
U46 O47 2.454 . S
U46 O48 2.458 . S
U46 C49 2.984 . S
U46 C50 2.847 . S
U46 C63 2.882 . S
U46 O64 2.441 . S
U46 O65 2.420 . S
U46 O66 2.455 . S
U46 O67 2.449 . S
O47 U46 2.454 . S
O47 C49 1.353 . S
O48 U46 2.458 . S
O48 C49 1.286 . S
C49 U46 2.984 . S
C49 O47 1.353 . S
C49 O48 1.286 . S
C49 C51 1.363 . S
C50 C40 1.465 . S
C50 U46 2.847 . S
C50 O64 1.249 . S
C50 O65 1.202 . S
C51 C49 1.363 . S
C51 C53 1.408 . S
C51 C56 1.342 . S
C52 C53 1.310 . S
C52 C55 1.461 . S
C52 H72 0.932 . S
C53 C51 1.408 . S
C53 C52 1.310 . S
C53 H73 0.930 . S
C54 C55 1.474 . S
C54 C56 1.285 . S
C54 H74 0.929 . S
C55 C52 1.461 . S
C55 C54 1.474 . S
C56 C51 1.342 . S
C56 C54 1.285 . S
C56 H75 0.930 . S
C57 C60 1.424 . S
C57 C62 1.245 . S
C57 C63 1.428 . S
C58 C61 1.260 . S
C58 C62 1.477 . S
C58 H76 0.932 . S
C59 C60 1.384 . S
C59 C61 1.479 . S
C59 H77 0.929 . S
C60 C57 1.424 . S
C60 C59 1.384 . S
C60 H78 0.928 . S
C61 C58 1.260 . S
C61 C59 1.479 . S
C62 C57 1.245 . S
C62 C58 1.477 . S
C62 H79 0.932 . S
C63 U46 2.882 . S
C63 C57 1.428 . S
C63 O66 1.301 . S
C63 O67 1.282 . S
O64 U46 2.441 . S
O64 C50 1.249 . S
O65 U46 2.420 . S
O65 C50 1.202 . S
O66 U46 2.455 . S
O66 C63 1.301 . S
O67 U46 2.449 . S
O67 C63 1.282 . S
H68 C41 0.931 . S
H69 C43 0.929 . S
H70 C44 0.930 . S
H71 C45 0.931 . S
H72 C52 0.932 . S
H73 C53 0.930 . S
H74 C54 0.929 . S
H75 C56 0.930 . S
H76 C58 0.932 . S
H77 C59 0.929 . S
H78 C60 0.928 . S
H79 C62 0.932 . S
C80 C81 1.264 . S
C80 C85 1.479 . S
C80 C90 1.465 . S
C81 C80 1.264 . S
C81 C83 1.339 . S
C81 H108 0.931 . S
C82 C83 1.395 . S
C82 C84 1.320 . S
C83 C81 1.339 . S
C83 C82 1.395 . S
C83 H109 0.929 . S
C84 C82 1.320 . S
C84 C85 1.405 . S
C84 H110 0.930 . S
C85 C80 1.479 . S
C85 C84 1.405 . S
C85 H111 0.931 . S
U86 O87 2.454 . S
U86 O88 2.458 . S
U86 C89 2.984 . S
U86 C90 2.847 . S
U86 C103 2.882 . S
U86 O104 2.441 . S
U86 O105 2.420 . S
U86 O106 2.455 . S
U86 O107 2.449 . S
O87 U86 2.454 . S
O87 C89 1.353 . S
O88 U86 2.458 . S
O88 C89 1.286 . S
C89 U86 2.984 . S
C89 O87 1.353 . S
C89 O88 1.286 . S
C89 C91 1.363 . S
C90 C80 1.465 . S
C90 U86 2.847 . S
C90 O104 1.249 . S
C90 O105 1.202 . S
C91 C89 1.363 . S
C91 C93 1.408 . S
C91 C96 1.342 . S
C92 C93 1.310 . S
C92 C95 1.461 . S
C92 H112 0.932 . S
C93 C91 1.408 . S
C93 C92 1.310 . S
C93 H113 0.930 . S
C94 C95 1.474 . S
C94 C96 1.285 . S
C94 H114 0.929 . S
C95 C92 1.461 . S
C95 C94 1.474 . S
C96 C91 1.342 . S
C96 C94 1.285 . S
C96 H115 0.930 . S
C97 C100 1.424 . S
C97 C102 1.245 . S
C97 C103 1.428 . S
C98 C101 1.260 . S
C98 C102 1.477 . S
C98 H116 0.932 . S
C99 C100 1.384 . S
C99 C101 1.479 . S
C99 H117 0.929 . S
C100 C97 1.424 . S
C100 C99 1.384 . S
C100 H118 0.928 . S
C101 C98 1.260 . S
C101 C99 1.479 . S
C102 C97 1.245 . S
C102 C98 1.477 . S
C102 H119 0.932 . S
C103 U86 2.882 . S
C103 C97 1.428 . S
C103 O106 1.301 . S
C103 O107 1.282 . S
O104 U86 2.441 . S
O104 C90 1.249 . S
O105 U86 2.420 . S
O105 C90 1.202 . S
O106 U86 2.455 . S
O106 C103 1.301 . S
O107 U86 2.449 . S
O107 C103 1.282 . S
H108 C81 0.931 . S
H109 C83 0.929 . S
H110 C84 0.930 . S
H111 C85 0.931 . S
H112 C92 0.932 . S
H113 C93 0.930 . S
H114 C94 0.929 . S
H115 C96 0.930 . S
H116 C98 0.932 . S
H117 C99 0.929 . S
H118 C100 0.928 . S
H119 C102 0.932 . S
C120 C121 1.264 . S
C120 C125 1.479 . S
C120 C130 1.465 . S
C121 C120 1.264 . S
C121 C123 1.339 . S
C121 H148 0.931 . S
C122 C123 1.395 . S
C122 C124 1.320 . S
C123 C121 1.339 . S
C123 C122 1.395 . S
C123 H149 0.929 . S
C124 C122 1.320 . S
C124 C125 1.405 . S
C124 H150 0.930 . S
C125 C120 1.479 . S
C125 C124 1.405 . S
C125 H151 0.931 . S
U126 O127 2.454 . S
U126 O128 2.458 . S
U126 C129 2.984 . S
U126 C130 2.847 . S
U126 C143 2.882 . S
U126 O144 2.441 . S
U126 O145 2.420 . S
U126 O146 2.455 . S
U126 O147 2.449 . S
O127 U126 2.454 . S
O127 C129 1.353 . S
O128 U126 2.458 . S
O128 C129 1.286 . S
C129 U126 2.984 . S
C129 O127 1.353 . S
C129 O128 1.286 . S
C129 C131 1.363 . S
C130 C120 1.465 . S
C130 U126 2.847 . S
C130 O144 1.249 . S
C130 O145 1.202 . S
C131 C129 1.363 . S
C131 C133 1.408 . S
C131 C136 1.342 . S
C132 C133 1.310 . S
C132 C135 1.461 . S
C132 H152 0.932 . S
C133 C131 1.408 . S
C133 C132 1.310 . S
C133 H153 0.930 . S
C134 C135 1.474 . S
C134 C136 1.285 . S
C134 H154 0.929 . S
C135 C132 1.461 . S
C135 C134 1.474 . S
C136 C131 1.342 . S
C136 C134 1.285 . S
C136 H155 0.930 . S
C137 C140 1.424 . S
C137 C142 1.245 . S
C137 C143 1.428 . S
C138 C141 1.260 . S
C138 C142 1.477 . S
C138 H156 0.932 . S
C139 C140 1.384 . S
C139 C141 1.479 . S
C139 H157 0.929 . S
C140 C137 1.424 . S
C140 C139 1.384 . S
C140 H158 0.928 . S
C141 C138 1.260 . S
C141 C139 1.479 . S
C142 C137 1.245 . S
C142 C138 1.477 . S
C142 H159 0.932 . S
C143 U126 2.882 . S
C143 C137 1.428 . S
C143 O146 1.301 . S
C143 O147 1.282 . S
O144 U126 2.441 . S
O144 C130 1.249 . S
O145 U126 2.420 . S
O145 C130 1.202 . S
O146 U126 2.455 . S
O146 C143 1.301 . S
O147 U126 2.449 . S
O147 C143 1.282 . S
H148 C121 0.931 . S
H149 C123 0.929 . S
H150 C124 0.930 . S
H151 C125 0.931 . S
H152 C132 0.932 . S
H153 C133 0.930 . S
H154 C134 0.929 . S
H155 C136 0.930 . S
H156 C138 0.932 . S
H157 C139 0.929 . S
H158 C140 0.928 . S
H159 C142 0.932 . S
C160 C161 1.264 . S
C160 C165 1.479 . S
C160 C170 1.465 . S
C161 C160 1.264 . S
C161 C163 1.339 . S
C161 H188 0.931 . S
C162 C163 1.395 . S
C162 C164 1.320 . S
C163 C161 1.339 . S
C163 C162 1.395 . S
C163 H189 0.929 . S
C164 C162 1.320 . S
C164 C165 1.405 . S
C164 H190 0.930 . S
C165 C160 1.479 . S
C165 C164 1.405 . S
C165 H191 0.931 . S
U166 O167 2.454 . S
U166 O168 2.458 . S
U166 C169 2.984 . S
U166 C170 2.847 . S
U166 C183 2.882 . S
U166 O184 2.441 . S
U166 O185 2.420 . S
U166 O186 2.455 . S
U166 O187 2.449 . S
O167 U166 2.454 . S
O167 C169 1.353 . S
O168 U166 2.458 . S
O168 C169 1.286 . S
C169 U166 2.984 . S
C169 O167 1.353 . S
C169 O168 1.286 . S
C169 C171 1.363 . S
C170 C160 1.465 . S
C170 U166 2.847 . S
C170 O184 1.249 . S
C170 O185 1.202 . S
C171 C169 1.363 . S
C171 C173 1.408 . S
C171 C176 1.342 . S
C172 C173 1.310 . S
C172 C175 1.461 . S
C172 H192 0.932 . S
C173 C171 1.408 . S
C173 C172 1.310 . S
C173 H193 0.930 . S
C174 C175 1.474 . S
C174 C176 1.285 . S
C174 H194 0.929 . S
C175 C172 1.461 . S
C175 C174 1.474 . S
C176 C171 1.342 . S
C176 C174 1.285 . S
C176 H195 0.930 . S
C177 C180 1.424 . S
C177 C182 1.245 . S
C177 C183 1.428 . S
C178 C181 1.260 . S
C178 C182 1.477 . S
C178 H196 0.932 . S
C179 C180 1.384 . S
C179 C181 1.479 . S
C179 H197 0.929 . S
C180 C177 1.424 . S
C180 C179 1.384 . S
C180 H198 0.928 . S
C181 C178 1.260 . S
C181 C179 1.479 . S
C182 C177 1.245 . S
C182 C178 1.477 . S
C182 H199 0.932 . S
C183 U166 2.882 . S
C183 C177 1.428 . S
C183 O186 1.301 . S
C183 O187 1.282 . S
O184 U166 2.441 . S
O184 C170 1.249 . S
O185 U166 2.420 . S
O185 C170 1.202 . S
O186 U166 2.455 . S
O186 C183 1.301 . S
O187 U166 2.449 . S
O187 C183 1.282 . S
H188 C161 0.931 . S
H189 C163 0.929 . S
H190 C164 0.930 . S
H191 C165 0.931 . S
H192 C172 0.932 . S
H193 C173 0.930 . S
H194 C174 0.929 . S
H195 C176 0.930 . S
H196 C178 0.932 . S
H197 C179 0.929 . S
H198 C180 0.928 . S
H199 C182 0.932 . S
C200 C201 1.264 . S
C200 C205 1.479 . S
C200 C210 1.465 . S
C201 C200 1.264 . S
C201 C203 1.339 . S
C201 H228 0.931 . S
C202 C203 1.395 . S
C202 C204 1.320 . S
C203 C201 1.339 . S
C203 C202 1.395 . S
C203 H229 0.929 . S
C204 C202 1.320 . S
C204 C205 1.405 . S
C204 H230 0.930 . S
C205 C200 1.479 . S
C205 C204 1.405 . S
C205 H231 0.931 . S
U206 O207 2.454 . S
U206 O208 2.458 . S
U206 C209 2.984 . S
U206 C210 2.847 . S
U206 C223 2.882 . S
U206 O224 2.441 . S
U206 O225 2.420 . S
U206 O226 2.455 . S
U206 O227 2.449 . S
O207 U206 2.454 . S
O207 C209 1.353 . S
O208 U206 2.458 . S
O208 C209 1.286 . S
C209 U206 2.984 . S
C209 O207 1.353 . S
C209 O208 1.286 . S
C209 C211 1.363 . S
C210 C200 1.465 . S
C210 U206 2.847 . S
C210 O224 1.249 . S
C210 O225 1.202 . S
C211 C209 1.363 . S
C211 C213 1.408 . S
C211 C216 1.342 . S
C212 C213 1.310 . S
C212 C215 1.461 . S
C212 H232 0.932 . S
C213 C211 1.408 . S
C213 C212 1.310 . S
C213 H233 0.930 . S
C214 C215 1.474 . S
C214 C216 1.285 . S
C214 H234 0.929 . S
C215 C212 1.461 . S
C215 C214 1.474 . S
C216 C211 1.342 . S
C216 C214 1.285 . S
C216 H235 0.930 . S
C217 C220 1.424 . S
C217 C222 1.245 . S
C217 C223 1.428 . S
C218 C221 1.260 . S
C218 C222 1.477 . S
C218 H236 0.932 . S
C219 C220 1.384 . S
C219 C221 1.479 . S
C219 H237 0.929 . S
C220 C217 1.424 . S
C220 C219 1.384 . S
C220 H238 0.928 . S
C221 C218 1.260 . S
C221 C219 1.479 . S
C222 C217 1.245 . S
C222 C218 1.477 . S
C222 H239 0.932 . S
C223 U206 2.882 . S
C223 C217 1.428 . S
C223 O226 1.301 . S
C223 O227 1.282 . S
O224 U206 2.441 . S
O224 C210 1.249 . S
O225 U206 2.420 . S
O225 C210 1.202 . S
O226 U206 2.455 . S
O226 C223 1.301 . S
O227 U206 2.449 . S
O227 C223 1.282 . S
H228 C201 0.931 . S
H229 C203 0.929 . S
H230 C204 0.930 . S
H231 C205 0.931 . S
H232 C212 0.932 . S
H233 C213 0.930 . S
H234 C214 0.929 . S
H235 C216 0.930 . S
H236 C218 0.932 . S
H237 C219 0.929 . S
H238 C220 0.928 . S
H239 C222 0.932 . S
C240 C241 1.264 . S
C240 C245 1.479 . S
C240 C250 1.465 . S
C241 C240 1.264 . S
C241 C243 1.339 . S
C241 H268 0.931 . S
C242 C243 1.395 . S
C242 C244 1.320 . S
C243 C241 1.339 . S
C243 C242 1.395 . S
C243 H269 0.929 . S
C244 C242 1.320 . S
C244 C245 1.405 . S
C244 H270 0.930 . S
C245 C240 1.479 . S
C245 C244 1.405 . S
C245 H271 0.931 . S
U246 O247 2.454 . S
U246 O248 2.458 . S
U246 C249 2.984 . S
U246 C250 2.847 . S
U246 C263 2.882 . S
U246 O264 2.441 . S
U246 O265 2.420 . S
U246 O266 2.455 . S
U246 O267 2.449 . S
O247 U246 2.454 . S
O247 C249 1.353 . S
O248 U246 2.458 . S
O248 C249 1.286 . S
C249 U246 2.984 . S
C249 O247 1.353 . S
C249 O248 1.286 . S
C249 C251 1.363 . S
C250 C240 1.465 . S
C250 U246 2.847 . S
C250 O264 1.249 . S
C250 O265 1.202 . S
C251 C249 1.363 . S
C251 C253 1.408 . S
C251 C256 1.342 . S
C252 C253 1.310 . S
C252 C255 1.461 . S
C252 H272 0.932 . S
C253 C251 1.408 . S
C253 C252 1.310 . S
C253 H273 0.930 . S
C254 C255 1.474 . S
C254 C256 1.285 . S
C254 H274 0.929 . S
C255 C252 1.461 . S
C255 C254 1.474 . S
C256 C251 1.342 . S
C256 C254 1.285 . S
C256 H275 0.930 . S
C257 C260 1.424 . S
C257 C262 1.245 . S
C257 C263 1.428 . S
C258 C261 1.260 . S
C258 C262 1.477 . S
C258 H276 0.932 . S
C259 C260 1.384 . S
C259 C261 1.479 . S
C259 H277 0.929 . S
C260 C257 1.424 . S
C260 C259 1.384 . S
C260 H278 0.928 . S
C261 C258 1.260 . S
C261 C259 1.479 . S
C262 C257 1.245 . S
C262 C258 1.477 . S
C262 H279 0.932 . S
C263 U246 2.882 . S
C263 C257 1.428 . S
C263 O266 1.301 . S
C263 O267 1.282 . S
O264 U246 2.441 . S
O264 C250 1.249 . S
O265 U246 2.420 . S
O265 C250 1.202 . S
O266 U246 2.455 . S
O266 C263 1.301 . S
O267 U246 2.449 . S
O267 C263 1.282 . S
H268 C241 0.931 . S
H269 C243 0.929 . S
H270 C244 0.930 . S
H271 C245 0.931 . S
H272 C252 0.932 . S
H273 C253 0.930 . S
H274 C254 0.929 . S
H275 C256 0.930 . S
H276 C258 0.932 . S
H277 C259 0.929 . S
H278 C260 0.928 . S
H279 C262 0.932 . S
C280 C281 1.264 . S
C280 C285 1.479 . S
C280 C290 1.465 . S
C281 C280 1.264 . S
C281 C283 1.339 . S
C281 H308 0.931 . S
C282 C283 1.395 . S
C282 C284 1.320 . S
C283 C281 1.339 . S
C283 C282 1.395 . S
C283 H309 0.929 . S
C284 C282 1.320 . S
C284 C285 1.405 . S
C284 H310 0.930 . S
C285 C280 1.479 . S
C285 C284 1.405 . S
C285 H311 0.931 . S
U286 O287 2.454 . S
U286 O288 2.458 . S
U286 C289 2.984 . S
U286 C290 2.847 . S
U286 C303 2.882 . S
U286 O304 2.441 . S
U286 O305 2.420 . S
U286 O306 2.455 . S
U286 O307 2.449 . S
O287 U286 2.454 . S
O287 C289 1.353 . S
O288 U286 2.458 . S
O288 C289 1.286 . S
C289 U286 2.984 . S
C289 O287 1.353 . S
C289 O288 1.286 . S
C289 C291 1.363 . S
C290 C280 1.465 . S
C290 U286 2.847 . S
C290 O304 1.249 . S
C290 O305 1.202 . S
C291 C289 1.363 . S
C291 C293 1.408 . S
C291 C296 1.342 . S
C292 C293 1.310 . S
C292 C295 1.461 . S
C292 H312 0.932 . S
C293 C291 1.408 . S
C293 C292 1.310 . S
C293 H313 0.930 . S
C294 C295 1.474 . S
C294 C296 1.285 . S
C294 H314 0.929 . S
C295 C292 1.461 . S
C295 C294 1.474 . S
C296 C291 1.342 . S
C296 C294 1.285 . S
C296 H315 0.930 . S
C297 C300 1.424 . S
C297 C302 1.245 . S
C297 C303 1.428 . S
C298 C301 1.260 . S
C298 C302 1.477 . S
C298 H316 0.932 . S
C299 C300 1.384 . S
C299 C301 1.479 . S
C299 H317 0.929 . S
C300 C297 1.424 . S
C300 C299 1.384 . S
C300 H318 0.928 . S
C301 C298 1.260 . S
C301 C299 1.479 . S
C302 C297 1.245 . S
C302 C298 1.477 . S
C302 H319 0.932 . S
C303 U286 2.882 . S
C303 C297 1.428 . S
C303 O306 1.301 . S
C303 O307 1.282 . S
O304 U286 2.441 . S
O304 C290 1.249 . S
O305 U286 2.420 . S
O305 C290 1.202 . S
O306 U286 2.455 . S
O306 C303 1.301 . S
O307 U286 2.449 . S
O307 C303 1.282 . S
H308 C281 0.931 . S
H309 C283 0.929 . S
H310 C284 0.930 . S
H311 C285 0.931 . S
H312 C292 0.932 . S
H313 C293 0.930 . S
H314 C294 0.929 . S
H315 C296 0.930 . S
H316 C298 0.932 . S
H317 C299 0.929 . S
H318 C300 0.928 . S
H319 C302 0.932 . S
Gd320 C323 2.818 . S
Gd320 O340 2.377 . S
Gd320 O342 2.448 . S
Gd320 O343 2.506 . S
Gd320 O344 2.435 1_545 S
Gd320 O345 2.717 1_545 S
Gd320 O347 2.395 1_445 S
Gd320 O351 2.327 1_455 S
Gd321 C332 2.809 1_545 S
Gd321 O341 2.406 1_655 S
Gd321 O345 2.320 1_645 S
Gd321 O346 2.368 1_545 S
Gd321 O348 2.444 1_545 S
Gd321 O349 2.493 1_545 S
Gd321 O350 2.444 . S
Gd321 O351 2.723 . S
C322 O340 1.240 . S
C322 O341 1.240 . S
C323 Gd320 2.818 . S
C323 C324 1.510 . S
C323 O342 1.249 . S
C323 O343 1.252 . S
C324 C323 1.510 . S
C324 C325 1.404 . S
C324 C326 1.352 . S
C325 C324 1.404 . S
C325 C329 1.389 . S
C325 H352 0.930 . S
C326 C324 1.352 . S
C326 C328 1.374 . S
C326 H353 0.931 . S
C327 C328 1.359 . S
C327 C329 1.364 . S
C328 C326 1.374 . S
C328 C327 1.359 . S
C328 H354 0.931 . S
C329 C325 1.389 . S
C329 C327 1.364 . S
C329 H355 0.931 . S
C330 O344 1.256 . S
C330 O345 1.257 . S
C331 O346 1.240 . S
C331 O347 1.240 . S
C332 Gd321 2.809 1_565 S
C332 C333 1.510 . S
C332 O348 1.249 . S
C332 O349 1.252 . S
C333 C332 1.510 . S
C333 C334 1.404 . S
C333 C335 1.352 . S
C334 C333 1.404 . S
C334 C338 1.389 . S
C334 H356 0.930 . S
C335 C333 1.352 . S
C335 C337 1.374 . S
C335 H357 0.931 . S
C336 C337 1.359 . S
C336 C338 1.364 . S
C337 C335 1.374 . S
C337 C336 1.359 . S
C337 H358 0.931 . S
C338 C334 1.389 . S
C338 C336 1.364 . S
C338 H359 0.931 . S
C339 O350 1.256 . S
C339 O351 1.257 . S
O340 Gd320 2.377 . S
O340 C322 1.240 . S
O341 Gd321 2.406 1_455 S
O341 C322 1.240 . S
O342 Gd320 2.448 . S
O342 C323 1.249 . S
O343 Gd320 2.506 . S
O343 C323 1.252 . S
O344 Gd320 2.435 1_565 S
O344 C330 1.256 . S
O345 Gd320 2.717 1_565 S
O345 Gd321 2.320 1_465 S
O345 C330 1.257 . S
O346 Gd321 2.368 1_565 S
O346 C331 1.240 . S
O347 Gd320 2.395 1_665 S
O347 C331 1.240 . S
O348 Gd321 2.444 1_565 S
O348 C332 1.249 . S
O349 Gd321 2.493 1_565 S
O349 C332 1.252 . S
O350 Gd321 2.444 . S
O350 C339 1.256 . S
O351 Gd320 2.327 1_655 S
O351 Gd321 2.723 . S
O351 C339 1.257 . S
H352 C325 0.930 . S
H353 C326 0.931 . S
H354 C328 0.931 . S
H355 C329 0.931 . S
H356 C334 0.930 . S
H357 C335 0.931 . S
H358 C337 0.931 . S
H359 C338 0.931 . S
Gd360 C363 2.810 1_565 S
Gd360 O380 2.367 1_565 S
Gd360 O382 2.448 1_565 S
Gd360 O383 2.493 1_565 S
Gd360 O384 2.447 . S
Gd360 O385 2.722 . S
Gd360 O387 2.405 1_554 S
Gd360 O391 2.316 1_564 S
Gd361 C372 2.818 1_545 S
Gd361 O381 2.395 1_556 S
Gd361 O385 2.327 1_546 S
Gd361 O386 2.377 1_545 S
Gd361 O388 2.448 1_545 S
Gd361 O389 2.506 1_545 S
Gd361 O390 2.435 . S
Gd361 O391 2.717 . S
C362 O380 1.240 . S
C362 O381 1.240 . S
C363 Gd360 2.810 1_545 S
C363 C364 1.510 . S
C363 O382 1.249 . S
C363 O383 1.252 . S
C364 C363 1.510 . S
C364 C365 1.404 . S
C364 C366 1.352 . S
C365 C364 1.404 . S
C365 C369 1.389 . S
C365 H392 0.930 . S
C366 C364 1.352 . S
C366 C368 1.374 . S
C366 H393 0.931 . S
C367 C368 1.359 . S
C367 C369 1.364 . S
C368 C366 1.374 . S
C368 C367 1.359 . S
C368 H394 0.931 . S
C369 C365 1.389 . S
C369 C367 1.364 . S
C369 H395 0.931 . S
C370 O384 1.256 . S
C370 O385 1.257 . S
C371 O386 1.240 . S
C371 O387 1.240 . S
C372 Gd361 2.818 1_565 S
C372 C373 1.510 . S
C372 O388 1.249 . S
C372 O389 1.252 . S
C373 C372 1.510 . S
C373 C374 1.404 . S
C373 C375 1.352 . S
C374 C373 1.404 . S
C374 C378 1.389 . S
C374 H396 0.930 . S
C375 C373 1.352 . S
C375 C377 1.374 . S
C375 H397 0.931 . S
C376 C377 1.359 . S
C376 C378 1.364 . S
C377 C375 1.374 . S
C377 C376 1.359 . S
C377 H398 0.931 . S
C378 C374 1.389 . S
C378 C376 1.364 . S
C378 H399 0.931 . S
C379 O390 1.256 . S
C379 O391 1.257 . S
O380 Gd360 2.367 1_545 S
O380 C362 1.240 . S
O381 Gd361 2.395 1_554 S
O381 C362 1.240 . S
O382 Gd360 2.448 1_545 S
O382 C363 1.249 . S
O383 Gd360 2.493 1_545 S
O383 C363 1.252 . S
O384 Gd360 2.447 . S
O384 C370 1.256 . S
O385 Gd360 2.722 . S
O385 Gd361 2.327 1_564 S
O385 C370 1.257 . S
O386 Gd361 2.377 1_565 S
O386 C371 1.240 . S
O387 Gd360 2.405 1_556 S
O387 C371 1.240 . S
O388 Gd361 2.448 1_565 S
O388 C372 1.249 . S
O389 Gd361 2.506 1_565 S
O389 C372 1.252 . S
O390 Gd361 2.435 . S
O390 C379 1.256 . S
O391 Gd360 2.316 1_546 S
O391 Gd361 2.717 . S
O391 C379 1.257 . S
H392 C365 0.930 . S
H393 C366 0.931 . S
H394 C368 0.931 . S
H395 C369 0.931 . S
H396 C374 0.930 . S
H397 C375 0.931 . S
H398 C377 0.931 . S
H399 C378 0.931 . S
Gd400 C403 2.818 . S
Gd400 O420 2.377 . S
Gd400 O422 2.448 . S
Gd400 O423 2.506 . S
Gd400 O424 2.435 . S
Gd400 O425 2.717 . S
Gd400 O427 2.395 . S
Gd400 O431 2.327 . S
Gd401 C412 2.818 . S
Gd401 O421 2.395 . S
Gd401 O425 2.327 . S
Gd401 O426 2.377 . S
Gd401 O428 2.448 . S
Gd401 O429 2.506 . S
Gd401 O430 2.435 . S
Gd401 O431 2.717 . S
C402 O420 1.240 . S
C402 O421 1.240 . S
C403 Gd400 2.818 . S
C403 C404 1.510 . S
C403 O422 1.249 . S
C403 O423 1.252 . S
C404 C403 1.510 . S
C404 C405 1.404 . S
C404 C406 1.352 . S
C405 C404 1.404 . S
C405 C409 1.389 . S
C405 H432 0.930 . S
C406 C404 1.352 . S
C406 C408 1.374 . S
C406 H433 0.931 . S
C407 C408 1.359 . S
C407 C409 1.364 . S
C408 C406 1.374 . S
C408 C407 1.359 . S
C408 H434 0.931 . S
C409 C405 1.389 . S
C409 C407 1.364 . S
C409 H435 0.931 . S
C410 O424 1.256 . S
C410 O425 1.257 . S
C411 O426 1.240 . S
C411 O427 1.240 . S
C412 Gd401 2.818 . S
C412 C413 1.510 . S
C412 O428 1.249 . S
C412 O429 1.252 . S
C413 C412 1.510 . S
C413 C414 1.404 . S
C413 C415 1.352 . S
C414 C413 1.404 . S
C414 C418 1.389 . S
C414 H436 0.930 . S
C415 C413 1.352 . S
C415 C417 1.374 . S
C415 H437 0.931 . S
C416 C417 1.359 . S
C416 C418 1.364 . S
C417 C415 1.374 . S
C417 C416 1.359 . S
C417 H438 0.931 . S
C418 C414 1.389 . S
C418 C416 1.364 . S
C418 H439 0.931 . S
C419 O430 1.256 . S
C419 O431 1.257 . S
O420 Gd400 2.377 . S
O420 C402 1.240 . S
O421 Gd401 2.395 . S
O421 C402 1.240 . S
O422 Gd400 2.448 . S
O422 C403 1.249 . S
O423 Gd400 2.506 . S
O423 C403 1.252 . S
O424 Gd400 2.435 . S
O424 C410 1.256 . S
O425 Gd400 2.717 . S
O425 Gd401 2.327 . S
O425 C410 1.257 . S
O426 Gd401 2.377 . S
O426 C411 1.240 . S
O427 Gd400 2.395 . S
O427 C411 1.240 . S
O428 Gd401 2.448 . S
O428 C412 1.249 . S
O429 Gd401 2.506 . S
O429 C412 1.252 . S
O430 Gd401 2.435 . S
O430 C419 1.256 . S
O431 Gd400 2.327 . S
O431 Gd401 2.717 . S
O431 C419 1.257 . S
H432 C405 0.930 . S
H433 C406 0.931 . S
H434 C408 0.931 . S
H435 C409 0.931 . S
H436 C414 0.930 . S
H437 C415 0.931 . S
H438 C417 0.931 . S
H439 C418 0.931 . S
Gd440 C443 2.818 . S
Gd440 O460 2.377 . S
Gd440 O462 2.448 . S
Gd440 O463 2.506 . S
Gd440 O464 2.435 1_455 S
Gd440 O465 2.717 1_455 S
Gd440 O467 2.395 1_455 S
Gd440 O471 2.327 1_554 S
Gd441 C452 2.816 1_455 S
Gd441 O461 2.398 1_556 S
Gd441 O465 2.327 1_456 S
Gd441 O466 2.375 1_455 S
Gd441 O468 2.447 1_455 S
Gd441 O469 2.503 1_455 S
Gd441 O470 2.437 . S
Gd441 O471 2.719 . S
C442 O460 1.240 . S
C442 O461 1.240 . S
C443 Gd440 2.818 . S
C443 C444 1.510 . S
C443 O462 1.249 . S
C443 O463 1.252 . S
C444 C443 1.510 . S
C444 C445 1.404 . S
C444 C446 1.352 . S
C445 C444 1.404 . S
C445 C449 1.389 . S
C445 H472 0.930 . S
C446 C444 1.352 . S
C446 C448 1.374 . S
C446 H473 0.931 . S
C447 C448 1.359 . S
C447 C449 1.364 . S
C448 C446 1.374 . S
C448 C447 1.359 . S
C448 H474 0.931 . S
C449 C445 1.389 . S
C449 C447 1.364 . S
C449 H475 0.931 . S
C450 O464 1.256 . S
C450 O465 1.257 . S
C451 O466 1.240 . S
C451 O467 1.240 1_556 S
C452 Gd441 2.816 1_655 S
C452 C453 1.510 . S
C452 O468 1.249 . S
C452 O469 1.252 . S
C453 C452 1.510 . S
C453 C454 1.404 . S
C453 C455 1.352 . S
C454 C453 1.404 . S
C454 C458 1.389 . S
C454 H476 0.930 . S
C455 C453 1.352 . S
C455 C457 1.374 . S
C455 H477 0.931 . S
C456 C457 1.359 . S
C456 C458 1.364 . S
C457 C455 1.374 . S
C457 C456 1.359 . S
C457 H478 0.931 . S
C458 C454 1.389 . S
C458 C456 1.364 . S
C458 H479 0.931 . S
C459 O470 1.256 . S
C459 O471 1.257 . S
O460 Gd440 2.377 . S
O460 C442 1.240 . S
O461 Gd441 2.398 1_554 S
O461 C442 1.240 . S
O462 Gd440 2.448 . S
O462 C443 1.249 . S
O463 Gd440 2.506 . S
O463 C443 1.252 . S
O464 Gd440 2.435 1_655 S
O464 C450 1.256 . S
O465 Gd440 2.717 1_655 S
O465 Gd441 2.327 1_654 S
O465 C450 1.257 . S
O466 Gd441 2.375 1_655 S
O466 C451 1.240 . S
O467 Gd440 2.395 1_655 S
O467 C451 1.240 1_554 S
O468 Gd441 2.447 1_655 S
O468 C452 1.249 . S
O469 Gd441 2.503 1_655 S
O469 C452 1.252 . S
O470 Gd441 2.437 . S
O470 C459 1.256 . S
O471 Gd440 2.327 1_556 S
O471 Gd441 2.719 . S
O471 C459 1.257 . S
H472 C445 0.930 . S
H473 C446 0.931 . S
H474 C448 0.931 . S
H475 C449 0.931 . S
H476 C454 0.930 . S
H477 C455 0.931 . S
H478 C457 0.931 . S
H479 C458 0.931 . S
C21 C327 2.516 . S
C61 C376 2.185 . S
C402 C82 3.463 . S
C135 C450 3.480 . S
C362 C15 5.006 . S
C330 C42 1.987 . S
C451 C101 2.476 . S
C419 C122 2.121 . S
C2 C447 3.251 . S
C379 C95 3.161 . S
C141 C331 3.348 . S
C55 C416 2.887 . S
C336 C181 2.796 . S
C202 C367 2.047 . S
C255 C411 3.524 . S
C295 C459 3.419 . S
C175 C371 4.990 . S
C339 C221 1.948 . S
C442 C242 2.452 . S
C410 C301 2.167 . S
C162 C456 3.556 . S
C370 C261 3.245 . S
C322 C282 3.277 . S
C215 C407 2.823 . S
