# Generated by pormake.
# Topology iac, (4,6)-cn, num edge types: 1
# Building blocks:
#     Node 0, Type 0, BuildingBlock: GALJAG_clean_sbu_0, # of connection points: 4
#     Node 1, Type 0, BuildingBlock: GALJAG_clean_sbu_0, # of connection points: 4
#     Node 2, Type 0, BuildingBlock: GALJAG_clean_sbu_0, # of connection points: 4
#     Node 3, Type 0, BuildingBlock: GALJAG_clean_sbu_0, # of connection points: 4
#     Node 4, Type 0, BuildingBlock: GALJAG_clean_sbu_0, # of connection points: 4
#     Node 5, Type 0, BuildingBlock: GALJAG_clean_sbu_0, # of connection points: 4
#     Node 6, Type 0, BuildingBlock: GALJAG_clean_sbu_0, # of connection points: 4
#     Node 7, Type 0, BuildingBlock: GALJAG_clean_sbu_0, # of connection points: 4
#     Node 8, Type 0, BuildingBlock: GALJAG_clean_sbu_0, # of connection points: 4
#     Node 9, Type 0, BuildingBlock: GALJAG_clean_sbu_0, # of connection points: 4
#     Node 10, Type 0, BuildingBlock: GALJAG_clean_sbu_0, # of connection points: 4
#     Node 11, Type 0, BuildingBlock: GALJAG_clean_sbu_0, # of connection points: 4
#     Node 12, Type 0, BuildingBlock: GALJAG_clean_sbu_0, # of connection points: 4
#     Node 13, Type 0, BuildingBlock: GALJAG_clean_sbu_0, # of connection points: 4
#     Node 14, Type 0, BuildingBlock: GALJAG_clean_sbu_0, # of connection points: 4
#     Node 15, Type 0, BuildingBlock: GALJAG_clean_sbu_0, # of connection points: 4
#     Node 16, Type 0, BuildingBlock: GALJAG_clean_sbu_0, # of connection points: 4
#     Node 17, Type 0, BuildingBlock: GALJAG_clean_sbu_0, # of connection points: 4
#     Node 18, Type 0, BuildingBlock: GALJAG_clean_sbu_0, # of connection points: 4
#     Node 19, Type 0, BuildingBlock: GALJAG_clean_sbu_0, # of connection points: 4
#     Node 20, Type 0, BuildingBlock: GALJAG_clean_sbu_0, # of connection points: 4
#     Node 21, Type 0, BuildingBlock: GALJAG_clean_sbu_0, # of connection points: 4
#     Node 22, Type 0, BuildingBlock: GALJAG_clean_sbu_0, # of connection points: 4
#     Node 23, Type 0, BuildingBlock: GALJAG_clean_sbu_0, # of connection points: 4
#     Node 24, Type 1, BuildingBlock: JUFBIX_clean_sbu_0, # of connection points: 6
#     Node 25, Type 1, BuildingBlock: JUFBIX_clean_sbu_0, # of connection points: 6
#     Node 26, Type 1, BuildingBlock: JUFBIX_clean_sbu_0, # of connection points: 6
#     Node 27, Type 1, BuildingBlock: JUFBIX_clean_sbu_0, # of connection points: 6
#     Node 28, Type 1, BuildingBlock: JUFBIX_clean_sbu_0, # of connection points: 6
#     Node 29, Type 1, BuildingBlock: JUFBIX_clean_sbu_0, # of connection points: 6
#     Node 30, Type 1, BuildingBlock: JUFBIX_clean_sbu_0, # of connection points: 6
#     Node 31, Type 1, BuildingBlock: JUFBIX_clean_sbu_0, # of connection points: 6
#     Node 32, Type 1, BuildingBlock: JUFBIX_clean_sbu_0, # of connection points: 6
#     Node 33, Type 1, BuildingBlock: JUFBIX_clean_sbu_0, # of connection points: 6
#     Node 34, Type 1, BuildingBlock: JUFBIX_clean_sbu_0, # of connection points: 6
#     Node 35, Type 1, BuildingBlock: JUFBIX_clean_sbu_0, # of connection points: 6
#     Node 36, Type 1, BuildingBlock: JUFBIX_clean_sbu_0, # of connection points: 6
#     Node 37, Type 1, BuildingBlock: JUFBIX_clean_sbu_0, # of connection points: 6
#     Node 38, Type 1, BuildingBlock: JUFBIX_clean_sbu_0, # of connection points: 6
#     Node 39, Type 1, BuildingBlock: JUFBIX_clean_sbu_0, # of connection points: 6
#     Edge 40, Type (0, 1), BuildingBlock: CIFDUS_clean_linker_0, # of connection points: 2
#     Edge 41, Type (0, 1), BuildingBlock: CIFDUS_clean_linker_0, # of connection points: 2
#     Edge 42, Type (0, 1), BuildingBlock: CIFDUS_clean_linker_0, # of connection points: 2
#     Edge 43, Type (0, 1), BuildingBlock: CIFDUS_clean_linker_0, # of connection points: 2
#     Edge 44, Type (0, 1), BuildingBlock: CIFDUS_clean_linker_0, # of connection points: 2
#     Edge 45, Type (0, 1), BuildingBlock: CIFDUS_clean_linker_0, # of connection points: 2
#     Edge 46, Type (0, 1), BuildingBlock: CIFDUS_clean_linker_0, # of connection points: 2
#     Edge 47, Type (0, 1), BuildingBlock: CIFDUS_clean_linker_0, # of connection points: 2
#     Edge 48, Type (0, 1), BuildingBlock: CIFDUS_clean_linker_0, # of connection points: 2
#     Edge 49, Type (0, 1), BuildingBlock: CIFDUS_clean_linker_0, # of connection points: 2
#     Edge 50, Type (0, 1), BuildingBlock: CIFDUS_clean_linker_0, # of connection points: 2
#     Edge 51, Type (0, 1), BuildingBlock: CIFDUS_clean_linker_0, # of connection points: 2
#     Edge 52, Type (0, 1), BuildingBlock: CIFDUS_clean_linker_0, # of connection points: 2
#     Edge 53, Type (0, 1), BuildingBlock: CIFDUS_clean_linker_0, # of connection points: 2
#     Edge 54, Type (0, 1), BuildingBlock: CIFDUS_clean_linker_0, # of connection points: 2
#     Edge 55, Type (0, 1), BuildingBlock: CIFDUS_clean_linker_0, # of connection points: 2
#     Edge 56, Type (0, 1), BuildingBlock: CIFDUS_clean_linker_0, # of connection points: 2
#     Edge 57, Type (0, 1), BuildingBlock: CIFDUS_clean_linker_0, # of connection points: 2
#     Edge 58, Type (0, 1), BuildingBlock: CIFDUS_clean_linker_0, # of connection points: 2
#     Edge 59, Type (0, 1), BuildingBlock: CIFDUS_clean_linker_0, # of connection points: 2
#     Edge 60, Type (0, 1), BuildingBlock: CIFDUS_clean_linker_0, # of connection points: 2
#     Edge 61, Type (0, 1), BuildingBlock: CIFDUS_clean_linker_0, # of connection points: 2
#     Edge 62, Type (0, 1), BuildingBlock: CIFDUS_clean_linker_0, # of connection points: 2
#     Edge 63, Type (0, 1), BuildingBlock: CIFDUS_clean_linker_0, # of connection points: 2
#     Edge 64, Type (0, 1), BuildingBlock: CIFDUS_clean_linker_0, # of connection points: 2
#     Edge 65, Type (0, 1), BuildingBlock: CIFDUS_clean_linker_0, # of connection points: 2
#     Edge 66, Type (0, 1), BuildingBlock: CIFDUS_clean_linker_0, # of connection points: 2
#     Edge 67, Type (0, 1), BuildingBlock: CIFDUS_clean_linker_0, # of connection points: 2
#     Edge 68, Type (0, 1), BuildingBlock: CIFDUS_clean_linker_0, # of connection points: 2
#     Edge 69, Type (0, 1), BuildingBlock: CIFDUS_clean_linker_0, # of connection points: 2
#     Edge 70, Type (0, 1), BuildingBlock: CIFDUS_clean_linker_0, # of connection points: 2
#     Edge 71, Type (0, 1), BuildingBlock: CIFDUS_clean_linker_0, # of connection points: 2
#     Edge 72, Type (0, 1), BuildingBlock: CIFDUS_clean_linker_0, # of connection points: 2
#     Edge 73, Type (0, 1), BuildingBlock: CIFDUS_clean_linker_0, # of connection points: 2
#     Edge 74, Type (0, 1), BuildingBlock: CIFDUS_clean_linker_0, # of connection points: 2
#     Edge 75, Type (0, 1), BuildingBlock: CIFDUS_clean_linker_0, # of connection points: 2
#     Edge 76, Type (0, 1), BuildingBlock: CIFDUS_clean_linker_0, # of connection points: 2
#     Edge 77, Type (0, 1), BuildingBlock: CIFDUS_clean_linker_0, # of connection points: 2
#     Edge 78, Type (0, 1), BuildingBlock: CIFDUS_clean_linker_0, # of connection points: 2
#     Edge 79, Type (0, 1), BuildingBlock: CIFDUS_clean_linker_0, # of connection points: 2
#     Edge 80, Type (0, 1), BuildingBlock: CIFDUS_clean_linker_0, # of connection points: 2
#     Edge 81, Type (0, 1), BuildingBlock: CIFDUS_clean_linker_0, # of connection points: 2
#     Edge 82, Type (0, 1), BuildingBlock: CIFDUS_clean_linker_0, # of connection points: 2
#     Edge 83, Type (0, 1), BuildingBlock: CIFDUS_clean_linker_0, # of connection points: 2
#     Edge 84, Type (0, 1), BuildingBlock: CIFDUS_clean_linker_0, # of connection points: 2
#     Edge 85, Type (0, 1), BuildingBlock: CIFDUS_clean_linker_0, # of connection points: 2
#     Edge 86, Type (0, 1), BuildingBlock: CIFDUS_clean_linker_0, # of connection points: 2
#     Edge 87, Type (0, 1), BuildingBlock: CIFDUS_clean_linker_0, # of connection points: 2
#     Edge 88, Type (0, 1), BuildingBlock: CIFDUS_clean_linker_0, # of connection points: 2
#     Edge 89, Type (0, 1), BuildingBlock: CIFDUS_clean_linker_0, # of connection points: 2
#     Edge 90, Type (0, 1), BuildingBlock: CIFDUS_clean_linker_0, # of connection points: 2
#     Edge 91, Type (0, 1), BuildingBlock: CIFDUS_clean_linker_0, # of connection points: 2
#     Edge 92, Type (0, 1), BuildingBlock: CIFDUS_clean_linker_0, # of connection points: 2
#     Edge 93, Type (0, 1), BuildingBlock: CIFDUS_clean_linker_0, # of connection points: 2
#     Edge 94, Type (0, 1), BuildingBlock: CIFDUS_clean_linker_0, # of connection points: 2
#     Edge 95, Type (0, 1), BuildingBlock: CIFDUS_clean_linker_0, # of connection points: 2
#     Edge 96, Type (0, 1), BuildingBlock: CIFDUS_clean_linker_0, # of connection points: 2
#     Edge 97, Type (0, 1), BuildingBlock: CIFDUS_clean_linker_0, # of connection points: 2
#     Edge 98, Type (0, 1), BuildingBlock: CIFDUS_clean_linker_0, # of connection points: 2
#     Edge 99, Type (0, 1), BuildingBlock: CIFDUS_clean_linker_0, # of connection points: 2
#     Edge 100, Type (0, 1), BuildingBlock: CIFDUS_clean_linker_0, # of connection points: 2
#     Edge 101, Type (0, 1), BuildingBlock: CIFDUS_clean_linker_0, # of connection points: 2
#     Edge 102, Type (0, 1), BuildingBlock: CIFDUS_clean_linker_0, # of connection points: 2
#     Edge 103, Type (0, 1), BuildingBlock: CIFDUS_clean_linker_0, # of connection points: 2
#     Edge 104, Type (0, 1), BuildingBlock: CIFDUS_clean_linker_0, # of connection points: 2
#     Edge 105, Type (0, 1), BuildingBlock: CIFDUS_clean_linker_0, # of connection points: 2
#     Edge 106, Type (0, 1), BuildingBlock: CIFDUS_clean_linker_0, # of connection points: 2
#     Edge 107, Type (0, 1), BuildingBlock: CIFDUS_clean_linker_0, # of connection points: 2
#     Edge 108, Type (0, 1), BuildingBlock: CIFDUS_clean_linker_0, # of connection points: 2
#     Edge 109, Type (0, 1), BuildingBlock: CIFDUS_clean_linker_0, # of connection points: 2
#     Edge 110, Type (0, 1), BuildingBlock: CIFDUS_clean_linker_0, # of connection points: 2
#     Edge 111, Type (0, 1), BuildingBlock: CIFDUS_clean_linker_0, # of connection points: 2
#     Edge 112, Type (0, 1), BuildingBlock: CIFDUS_clean_linker_0, # of connection points: 2
#     Edge 113, Type (0, 1), BuildingBlock: CIFDUS_clean_linker_0, # of connection points: 2
#     Edge 114, Type (0, 1), BuildingBlock: CIFDUS_clean_linker_0, # of connection points: 2
#     Edge 115, Type (0, 1), BuildingBlock: CIFDUS_clean_linker_0, # of connection points: 2
#     Edge 116, Type (0, 1), BuildingBlock: CIFDUS_clean_linker_0, # of connection points: 2
#     Edge 117, Type (0, 1), BuildingBlock: CIFDUS_clean_linker_0, # of connection points: 2
#     Edge 118, Type (0, 1), BuildingBlock: CIFDUS_clean_linker_0, # of connection points: 2
#     Edge 119, Type (0, 1), BuildingBlock: CIFDUS_clean_linker_0, # of connection points: 2
#     Edge 120, Type (0, 1), BuildingBlock: CIFDUS_clean_linker_0, # of connection points: 2
#     Edge 121, Type (0, 1), BuildingBlock: CIFDUS_clean_linker_0, # of connection points: 2
#     Edge 122, Type (0, 1), BuildingBlock: CIFDUS_clean_linker_0, # of connection points: 2
#     Edge 123, Type (0, 1), BuildingBlock: CIFDUS_clean_linker_0, # of connection points: 2
#     Edge 124, Type (0, 1), BuildingBlock: CIFDUS_clean_linker_0, # of connection points: 2
#     Edge 125, Type (0, 1), BuildingBlock: CIFDUS_clean_linker_0, # of connection points: 2
#     Edge 126, Type (0, 1), BuildingBlock: CIFDUS_clean_linker_0, # of connection points: 2
#     Edge 127, Type (0, 1), BuildingBlock: CIFDUS_clean_linker_0, # of connection points: 2
#     Edge 128, Type (0, 1), BuildingBlock: CIFDUS_clean_linker_0, # of connection points: 2
#     Edge 129, Type (0, 1), BuildingBlock: CIFDUS_clean_linker_0, # of connection points: 2
#     Edge 130, Type (0, 1), BuildingBlock: CIFDUS_clean_linker_0, # of connection points: 2
#     Edge 131, Type (0, 1), BuildingBlock: CIFDUS_clean_linker_0, # of connection points: 2
#     Edge 132, Type (0, 1), BuildingBlock: CIFDUS_clean_linker_0, # of connection points: 2
#     Edge 133, Type (0, 1), BuildingBlock: CIFDUS_clean_linker_0, # of connection points: 2
#     Edge 134, Type (0, 1), BuildingBlock: CIFDUS_clean_linker_0, # of connection points: 2
#     Edge 135, Type (0, 1), BuildingBlock: CIFDUS_clean_linker_0, # of connection points: 2
# Relax obj value: 0.267
# Max RMSD: 0.239
# Mean RMSD: 0.155
data_MOF--net-iac--node1-GALJAG_clean_sbu_0--node2-JUFBIX_clean_sbu_0--edge1-CIFDUS_clean_linker_0
_symmetry_space_group_name_H-M    P1
_symmetry_Int_Tables_number       1
_symmetry_cell_setting            triclinic
loop_
_symmetry_equiv_pos_as_xyz
'x, y, z'
_cell_length_a     47.620056
_cell_length_b     49.072469
_cell_length_c     48.605389
_cell_angle_alpha  89.19371
_cell_angle_beta   88.203526
_cell_angle_gamma 88.776123
loop_
_atom_site_label
_atom_site_type_symbol
_atom_site_fract_x
_atom_site_fract_y
_atom_site_fract_z
_atom_type_partial_charge
In0 In 0.03893 0.28202 0.15635 0.0
O1 O 0.03921 0.25476 0.11674 0.0
O2 O 0.03754 0.23371 0.15457 0.0
C3 C 0.0376 0.33372 0.13016 0.0
C4 C 0.98887 0.28574 0.18772 0.0
C5 C 0.09148 0.28126 0.18107 0.0
O6 O 0.03089 0.31214 0.11825 0.0
O7 O 0.04471 0.32919 0.1546 0.0
O8 O 0.06904 0.27433 0.19365 0.0
O9 O 0.08768 0.28723 0.15603 0.0
C10 C 0.03758 0.23172 0.12868 0.0
O11 O 0.99006 0.2788 0.16284 0.0
O12 O 0.0127 0.29066 0.1969 0.0
In13 In 0.05517 0.7727 0.42749 0.0
O14 O 0.08417 0.7684 0.3901 0.0
O15 O 0.10248 0.77787 0.42816 0.0
C16 C 0.00974 0.77382 0.39614 0.0
C17 C 0.06109 0.72406 0.45259 0.0
C18 C 0.04454 0.81933 0.45471 0.0
O19 O 0.03265 0.78435 0.38844 0.0
O20 O 0.00984 0.76248 0.41958 0.0
O21 O 0.03443 0.79694 0.4628 0.0
O22 O 0.06041 0.8179 0.43353 0.0
C23 C 0.10621 0.77307 0.40284 0.0
O24 O 0.06321 0.74613 0.46534 0.0
O25 O 0.05555 0.72669 0.4275 0.0
In26 In 0.53692 0.78707 0.6569 0.0
O27 O 0.53914 0.83498 0.65285 0.0
O28 O 0.53938 0.81361 0.61579 0.0
C29 C 0.53872 0.73454 0.6336 0.0
C30 C 0.58474 0.78515 0.68856 0.0
C31 C 0.48466 0.78992 0.68443 0.0
O32 O 0.52915 0.75544 0.6212 0.0
O33 O 0.54823 0.7403 0.6567 0.0
O34 O 0.50695 0.79858 0.69416 0.0
O35 O 0.48845 0.78 0.66082 0.0
C36 C 0.53983 0.83678 0.62694 0.0
O37 O 0.56061 0.77822 0.69726 0.0
O38 O 0.5852 0.79289 0.66357 0.0
In39 In 0.56414 0.26577 0.89724 0.0
O40 O 0.61128 0.25952 0.89542 0.0
O41 O 0.59476 0.29657 0.8786 0.0
C42 C 0.53348 0.25835 0.85248 0.0
C43 C 0.57006 0.22138 0.92895 0.0
C44 C 0.53547 0.30211 0.92851 0.0
O45 O 0.55294 0.27537 0.8528 0.0
O46 O 0.53079 0.24405 0.87413 0.0
O47 O 0.52343 0.2868 0.91221 0.0
O48 O 0.56178 0.29916 0.92879 0.0
C49 C 0.61619 0.28239 0.88444 0.0
O50 O 0.5642 0.24461 0.93857 0.0
O51 O 0.57275 0.22039 0.90301 0.0
In52 In 0.15113 0.01407 0.31568 0.0
O53 O 0.1853 0.989 0.29371 0.0
O54 O 0.17477 0.97864 0.33544 0.0
C55 C 0.17843 0.06131 0.30978 0.0
C56 C 0.1181 0.00992 0.27223 0.0
C57 C 0.12187 0.01261 0.36384 0.0
O58 O 0.19048 0.03952 0.31744 0.0
O59 O 0.15277 0.05919 0.30493 0.0
O60 O 0.11487 0.9987 0.34364 0.0
O61 O 0.14314 0.02701 0.35945 0.0
C62 C 0.18979 0.97358 0.3142 0.0
O63 O 0.11884 0.03119 0.28637 0.0
O64 O 0.13326 0.99033 0.28065 0.0
In65 In 0.26946 0.91443 0.54852 0.0
O66 O 0.24927 0.95381 0.56402 0.0
O67 O 0.2234 0.92417 0.54654 0.0
C68 C 0.32147 0.93188 0.53999 0.0
C69 C 0.26752 0.88479 0.59446 0.0
C70 C 0.26555 0.88834 0.50126 0.0
O71 O 0.30016 0.94513 0.53201 0.0
O72 O 0.31646 0.91026 0.55349 0.0
O73 O 0.25672 0.87821 0.52378 0.0
O74 O 0.27487 0.91212 0.50243 0.0
C75 C 0.22486 0.94651 0.55874 0.0
O76 O 0.26627 0.87435 0.57099 0.0
O77 O 0.27153 0.91012 0.59466 0.0
In78 In 0.39423 0.05063 0.76499 0.0
O79 O 0.355 0.07615 0.75605 0.0
O80 O 0.39381 0.09597 0.76192 0.0
C81 C 0.36795 1.00339 0.76895 0.0
C82 C 0.4253 0.05412 0.719 0.0
C83 C 0.421 0.04697 0.81236 0.0
O84 O 0.35938 0.02399 0.78232 0.0
O85 O 0.38868 0.00726 0.75273 0.0
O86 O 0.43 0.03544 0.79072 0.0
O87 O 0.39868 0.06101 0.80996 0.0
C88 C 0.36835 0.09813 0.75587 0.0
O89 O 0.43523 0.05806 0.74237 0.0
O90 O 0.39988 0.04729 0.71901 0.0
In91 In 0.27778 0.1618 0.03711 0.0
O92 O 0.30551 0.12477 0.02244 0.0
O93 O 0.32548 0.15529 0.04438 0.0
C94 C 0.23083 0.12844 0.03699 0.0
C95 C 0.27835 0.18654 0.08926 0.0
C96 C 0.27599 0.19265 0.98803 0.0
O97 O 0.25405 0.12133 0.04703 0.0
O98 O 0.23107 0.15228 0.02686 0.0
O99 O 0.29517 0.17542 0.9933 0.0
O100 O 0.25818 0.19523 0.00777 0.0
C101 C 0.32816 0.1328 0.03217 0.0
O102 O 0.28609 0.19867 0.06724 0.0
O103 O 0.26959 0.16301 0.08478 0.0
In104 In 0.7506 0.41114 0.06174 0.0
O105 O 0.73737 0.38656 0.09908 0.0
O106 O 0.75682 0.42456 0.10566 0.0
C107 C 0.76461 0.37067 0.02739 0.0
C108 C 0.70045 0.43357 0.05102 0.0
C109 C 0.79928 0.4352 0.05003 0.0
O110 O 0.76087 0.36619 0.05287 0.0
O111 O 0.75947 0.39476 0.01947 0.0
O112 O 0.77649 0.4438 0.04004 0.0
O113 O 0.79699 0.41566 0.06706 0.0
C114 C 0.74592 0.40347 0.1161 0.0
O115 O 0.72112 0.4476 0.05733 0.0
O116 O 0.70523 0.40826 0.04983 0.0
In117 In 0.906 0.56325 0.26084 0.0
O118 O 0.94335 0.56815 0.23226 0.0
O119 O 0.90539 0.5539 0.21563 0.0
C120 C 0.93656 0.55969 0.30565 0.0
C121 C 0.88384 0.61226 0.25202 0.0
C122 C 0.87493 0.52056 0.27449 0.0
O123 O 0.94334 0.54714 0.28388 0.0
O124 O 0.91498 0.57496 0.30433 0.0
O125 O 0.86717 0.54447 0.28086 0.0
O126 O 0.89731 0.51869 0.25997 0.0
C127 C 0.93039 0.56127 0.2113 0.0
O128 O 0.86942 0.59102 0.25075 0.0
O129 O 0.90895 0.60864 0.25893 0.0
In130 In 0.78115 0.66446 0.53931 0.0
O131 O 0.81293 0.62856 0.52828 0.0
O132 O 0.82814 0.66207 0.54963 0.0
C133 C 0.73373 0.63152 0.53847 0.0
C134 C 0.7804 0.69282 0.58917 0.0
C135 C 0.7799 0.69419 0.48967 0.0
O136 O 0.73486 0.65503 0.52779 0.0
O137 O 0.75639 0.62435 0.54963 0.0
O138 O 0.79835 0.67606 0.49466 0.0
O139 O 0.76268 0.69781 0.50968 0.0
C140 C 0.8338 0.63909 0.5393 0.0
O141 O 0.78483 0.70382 0.5658 0.0
O142 O 0.77503 0.66784 0.58751 0.0
In143 In 0.70179 0.49373 0.78832 0.0
O144 O 0.74241 0.48225 0.76552 0.0
O145 O 0.73517 0.46565 0.80587 0.0
C146 C 0.71781 0.54286 0.80326 0.0
C147 C 0.67634 0.48142 0.74213 0.0
C148 C 0.65802 0.4899 0.82394 0.0
O149 O 0.72364 0.52162 0.81698 0.0
O150 O 0.70458 0.53917 0.78156 0.0
O151 O 0.66155 0.50955 0.80734 0.0
O152 O 0.67676 0.47122 0.82252 0.0
C153 C 0.75163 0.46789 0.78509 0.0
O154 O 0.67654 0.46534 0.76267 0.0
O155 O 0.68997 0.50299 0.74466 0.0
In156 In 0.02898 0.78621 0.91564 0.0
O157 O 0.06008 0.7775 0.8781 0.0
O158 O 0.07731 0.79206 0.91419 0.0
C159 C 0.98032 0.78822 0.88484 0.0
C160 C 0.02948 0.73511 0.94308 0.0
C161 C 0.02707 0.83681 0.94288 0.0
O162 O 1.00407 0.79606 0.876 0.0
O163 O 0.98061 0.77988 0.90957 0.0
O164 O 0.0242 0.81394 0.95495 0.0
O165 O 0.02978 0.83443 0.9171 0.0
C166 C 0.08201 0.78466 0.88974 0.0
O167 O 0.03316 0.75754 0.95485 0.0
O168 O 0.02538 0.73827 0.91769 0.0
In169 In 0.00881 0.29387 0.63465 0.0
O170 O 0.98364 0.32204 0.60671 0.0
O171 O 0.00845 0.33996 0.63684 0.0
C172 C 0.02935 0.26944 0.58927 0.0
C173 C 0.05174 0.28281 0.66753 0.0
C174 C 0.96775 0.27472 0.66796 0.0
O175 O 0.04373 0.28548 0.60287 0.0
O176 O 1.00442 0.26649 0.59821 0.0
O177 O 0.98375 0.29341 0.67467 0.0
O178 O 0.9715 0.26623 0.64375 0.0
C179 C 0.99198 0.34355 0.61729 0.0
O180 O 0.04601 0.30675 0.65913 0.0
O181 O 0.03623 0.2645 0.6587 0.0
In182 In 0.53004 0.29187 0.41637 0.0
O183 O 0.55814 0.27844 0.37831 0.0
O184 O 0.57712 0.30258 0.40747 0.0
C185 C 0.48019 0.29593 0.38692 0.0
C186 C 0.53241 0.24292 0.44798 0.0
C187 C 0.53008 0.34199 0.44359 0.0
O188 O 0.50303 0.2862 0.37695 0.0
O189 O 0.4824 0.30373 0.41144 0.0
O190 O 0.5253 0.31933 0.45552 0.0
O191 O 0.53407 0.33964 0.41786 0.0
C192 C 0.58027 0.28986 0.38524 0.0
O193 O 0.5153 0.24733 0.42909 0.0
O194 O 0.54751 0.26327 0.4517 0.0
In195 In 0.52242 0.8034 0.134 0.0
O196 O 0.53796 0.79358 0.09018 0.0
O197 O 0.5166 0.76317 0.11394 0.0
C198 C 0.51995 0.8575 0.12721 0.0
C199 C 0.47188 0.79878 0.15893 0.0
C200 C 0.5679 0.78689 0.16085 0.0
O201 O 0.50924 0.84139 0.11069 0.0
O202 O 0.53281 0.84629 0.14673 0.0
O203 O 0.54348 0.77976 0.16832 0.0
O204 O 0.56922 0.80235 0.1399 0.0
C205 C 0.52902 0.76955 0.09155 0.0
O206 O 0.49394 0.80209 0.17211 0.0
O207 O 0.47544 0.79715 0.13319 0.0
In208 In 0.87192 0.07489 0.77226 0.0
O209 O 0.91104 0.05675 0.75262 0.0
O210 O 0.90236 0.09884 0.74437 0.0
C211 C 0.89575 0.07663 0.82137 0.0
C212 C 0.82693 0.10866 0.77092 0.0
C213 C 0.84968 0.02849 0.75674 0.0
O214 O 0.89803 0.09584 0.8039 0.0
O215 O 0.8812 0.05696 0.81413 0.0
O216 O 0.8525 0.03455 0.78159 0.0
O217 O 0.85769 0.04621 0.7394 0.0
C218 C 0.91828 0.07827 0.74008 0.0
O219 O 0.84292 0.10486 0.75013 0.0
O220 O 0.83417 0.09599 0.79231 0.0
In221 In 0.80695 0.17485 0.52518 0.0
O222 O 0.8301 0.13509 0.51623 0.0
O223 O 0.85411 0.16887 0.52809 0.0
C224 C 0.76267 0.1489 0.54709 0.0
C225 C 0.80671 0.21369 0.56356 0.0
C226 C 0.80285 0.18873 0.47197 0.0
O227 O 0.78745 0.13959 0.5488 0.0
O228 O 0.76016 0.17089 0.53346 0.0
O229 O 0.78683 0.17161 0.48352 0.0
O230 O 0.82013 0.1994 0.48752 0.0
C231 C 0.85397 0.14423 0.52099 0.0
O232 O 0.80046 0.21913 0.53902 0.0
O233 O 0.81429 0.18934 0.56807 0.0
In234 In 0.66053 0.01795 0.30514 0.0
O235 O 0.70425 1.00113 0.3124 0.0
O236 O 0.67178 0.97358 0.30285 0.0
C237 C 0.68629 0.06205 0.28673 0.0
C238 C 0.62129 0.02222 0.26739 0.0
C239 C 0.64078 0.01229 0.35641 0.0
O240 O 0.69162 0.03885 0.27677 0.0
O241 O 0.66874 0.06273 0.3068 0.0
O242 O 0.65927 0.02951 0.34993 0.0
O243 O 0.63148 0.99902 0.33675 0.0
C244 C 0.69696 0.97687 0.3093 0.0
O245 O 0.61856 0.03387 0.2903 0.0
O246 O 0.64273 0.00679 0.26459 0.0
In247 In 0.78327 0.90688 0.03417 0.0
O248 O 0.7363 0.90815 0.02381 0.0
O249 O 0.75138 0.94298 0.04315 0.0
C250 C 0.82989 0.94096 0.03328 0.0
C251 C 0.78402 0.87941 0.08537 0.0
C252 C 0.78436 0.8773 0.98496 0.0
O253 O 0.80654 0.94763 0.02323 0.0
O254 O 0.82988 0.91732 0.0438 0.0
O255 O 0.78031 0.8667 0.00859 0.0
O256 O 0.78922 0.90241 0.98609 0.0
C257 C 0.73059 0.93169 0.03277 0.0
O258 O 0.80179 0.87531 0.0659 0.0
O259 O 0.76539 0.89692 0.07909 0.0
In260 In 0.29311 0.66044 1.00378 0.0
O261 O 0.28079 0.70206 0.02001 0.0
O262 O 0.30287 0.67428 0.04622 0.0
C263 C 0.30348 0.68191 0.95436 0.0
C264 C 0.33455 0.62383 0.99831 0.0
C265 C 0.24339 0.63996 0.01721 0.0
O266 O 0.31433 0.69082 0.97569 0.0
O267 O 0.28626 0.6629 0.95819 0.0
O268 O 0.2655 0.6327 0.02922 0.0
O269 O 0.24661 0.65687 0.99757 0.0
C270 C 0.2906 0.69719 0.0434 0.0
O271 O 0.30943 0.61773 0.99444 0.0
O272 O 0.33829 0.6476 0.00685 0.0
In273 In 0.17094 0.5085 0.79889 0.0
O274 O 0.21682 0.49675 0.80606 0.0
O275 O 0.18659 0.46552 0.80287 0.0
C276 C 0.18828 0.5584 0.78687 0.0
C277 C 0.13833 0.50659 0.75541 0.0
C278 C 0.14132 0.50068 0.84544 0.0
O279 O 0.19658 0.53785 0.77332 0.0
O280 O 0.1724 0.55349 0.80759 0.0
O281 O 0.13439 0.49082 0.82289 0.0
O282 O 0.16315 0.51491 0.84443 0.0
C283 C 0.21161 0.4717 0.80714 0.0
O284 O 0.13171 0.51979 0.77677 0.0
O285 O 0.16113 0.493 0.75641 0.0
In286 In 0.28715 0.40754 0.53322 0.0
O287 O 0.26738 0.39145 0.5754 0.0
O288 O 0.30817 0.37727 0.56462 0.0
C289 C 0.28669 0.37731 0.48404 0.0
C290 C 0.23695 0.43727 0.53837 0.0
C291 C 0.33419 0.44143 0.53121 0.0
O292 O 0.28688 0.36658 0.50785 0.0
O293 O 0.28747 0.40293 0.48489 0.0
O294 O 0.31329 0.44459 0.51607 0.0
O295 O 0.33163 0.42129 0.54742 0.0
C296 C 0.28831 0.37707 0.58255 0.0
O297 O 0.25974 0.44493 0.54813 0.0
O298 O 0.23935 0.41471 0.52626 0.0
In299 In 0.42771 0.56039 0.24036 0.0
O300 O 0.46533 0.56956 0.21125 0.0
O301 O 0.42678 0.55863 0.19405 0.0
C302 C 0.45157 0.55729 0.28937 0.0
C303 C 0.40065 0.60839 0.24684 0.0
C304 C 0.40224 0.51216 0.2422 0.0
O305 O 0.46499 0.55029 0.26764 0.0
O306 O 0.42657 0.56527 0.28613 0.0
O307 O 0.38906 0.53443 0.23852 0.0
O308 O 0.42841 0.51418 0.24459 0.0
C309 C 0.45191 0.56537 0.18979 0.0
O310 O 0.38783 0.58666 0.24254 0.0
O311 O 0.42709 0.606 0.24675 0.0
Co312 Co 0.02345 0.04631 0.01668 0.0
C313 C 0.02401 0.07842 0.06548 0.0
Co314 Co 0.0374 0.0233 0.0527 0.0
C315 C 0.99758 0.0627 0.96564 0.0
C316 C 0.02342 0.09329 0.98204 0.0
N317 N 0.01432 0.06776 0.98673 0.0
N318 N 0.99584 0.08418 0.94798 0.0
C319 C 0.01211 0.10344 0.95833 0.0
H320 H 0.98708 0.04358 0.9633 0.0
H321 H 0.03725 0.10401 0.99521 0.0
C322 C 0.037 0.9912 1.00397 0.0
N323 N 0.04644 1.0019 0.08272 0.0
C324 C 0.05965 0.00846 0.10573 0.0
C325 C 0.03949 0.97553 0.08641 0.0
N326 N 0.06127 0.98715 0.12352 0.0
C327 C 0.04872 0.96638 0.1114 0.0
C328 C 0.97873 0.01894 0.04209 0.0
O329 O 0.02917 0.01394 0.99318 0.0
O330 O 0.04328 0.99126 0.02926 0.0
O331 O 0.99857 0.01263 0.05816 0.0
O332 O 0.98415 0.0356 0.02233 0.0
O333 O 0.03145 0.05554 0.07617 0.0
H334 H 0.02781 0.96383 0.07213 0.0
H335 H 0.06777 0.02847 0.10943 0.0
O336 O 0.01789 0.07858 0.04013 0.0
O337 O 0.06236 0.05671 0.01109 0.0
O338 O 0.0766 0.03416 0.04727 0.0
C339 C 0.08211 0.0506 0.02734 0.0
H340 H 0.01521 0.12366 0.94977 0.0
H341 H 0.04561 0.94631 0.12037 0.0
Co342 Co 0.29861 0.78887 0.29886 0.0
C343 C 0.30248 0.73744 0.27775 0.0
Co344 Co 0.27737 0.78567 0.25994 0.0
C345 C 0.30436 0.80333 0.35419 0.0
C346 C 0.34269 0.78548 0.338 0.0
N347 N 0.31592 0.7918 0.33159 0.0
N348 N 0.32279 0.80482 0.37441 0.0
C349 C 0.34709 0.79383 0.36443 0.0
H350 H 0.28324 0.81197 0.35524 0.0
H351 H 0.35821 0.77637 0.32402 0.0
C352 C 0.27402 0.83726 0.28066 0.0
N353 N 0.2605 0.78243 0.22697 0.0
C354 C 0.27032 0.76578 0.20711 0.0
C355 C 0.23704 0.79428 0.21691 0.0
N356 N 0.25391 0.76627 0.18524 0.0
C357 C 0.233 0.78439 0.19088 0.0
C358 C 0.24242 0.77583 0.30455 0.0
O359 O 0.28675 0.82609 0.30057 0.0
O360 O 0.26842 0.82315 0.25997 0.0
O361 O 0.24309 0.77841 0.27855 0.0
O362 O 0.26484 0.77867 0.31758 0.0
O363 O 0.28647 0.74783 0.25994 0.0
H364 H 0.22369 0.80887 0.22786 0.0
H365 H 0.28938 0.75347 0.20857 0.0
O366 O 0.31063 0.75209 0.29709 0.0
O367 O 0.33198 0.799 0.28031 0.0
O368 O 0.31192 0.79292 0.24108 0.0
C369 C 0.33357 0.79856 0.25428 0.0
H370 H 0.36666 0.79265 0.37518 0.0
H371 H 0.21587 0.78955 0.1775 0.0
Co372 Co 0.52485 0.03259 0.52606 0.0
C373 C 0.53563 0.08892 0.51531 0.0
Co374 Co 0.55666 0.04867 0.5525 0.0
C375 C 0.4779 1.00367 0.5095 0.0
C376 C 0.49702 0.02468 0.47516 0.0
N377 N 0.49946 0.01966 0.50237 0.0
N378 N 0.46183 0.99854 0.488 0.0
C379 C 0.47357 0.01182 0.46626 0.0
H380 H 0.47328 0.99703 0.53046 0.0
H381 H 0.51091 0.03742 0.46283 0.0
C382 C 0.54498 0.99213 0.56307 0.0
N383 N 0.58242 0.06199 0.57594 0.0
C384 C 0.60056 0.08182 0.56942 0.0
C385 C 0.58841 0.05429 0.60193 0.0
N386 N 0.61763 0.08688 0.59012 0.0
C387 C 0.61051 0.06941 0.61061 0.0
C388 C 0.50241 0.05333 0.57366 0.0
O389 O 0.52818 0.99634 0.54349 0.0
O390 O 0.55974 0.01217 0.57029 0.0
O391 O 0.52801 0.05809 0.57758 0.0
O392 O 0.49564 0.04209 0.55157 0.0
O393 O 0.5529 0.0851 0.5346 0.0
H394 H 0.57787 0.03834 0.61355 0.0
H395 H 0.60226 0.09155 0.54932 0.0
O396 O 0.52129 0.06858 0.50847 0.0
O397 O 0.55365 0.02306 0.50119 0.0
O398 O 0.58598 0.03925 0.52716 0.0
C399 C 0.57925 0.02752 0.50535 0.0
H400 H 0.46547 0.01264 0.4457 0.0
H401 H 0.62086 0.06743 0.63007 0.0
Co402 Co 0.30311 0.28706 0.78361 0.0
C403 C 0.27739 0.30594 0.73554 0.0
Co404 Co 0.25803 0.27834 0.78523 0.0
C405 C 0.36115 0.27425 0.79054 0.0
C406 C 0.35521 0.3151 0.77553 0.0
N407 N 0.34121 0.29247 0.78297 0.0
N408 N 0.38718 0.28458 0.78845 0.0
C409 C 0.38349 0.31034 0.77894 0.0
H410 H 0.35645 0.25383 0.79771 0.0
H411 H 0.34542 0.33399 0.76867 0.0
C412 C 0.28412 0.2597 0.83332 0.0
N413 N 0.21992 0.27226 0.78558 0.0
C414 C 0.20021 0.2862 0.77153 0.0
C415 C 0.20653 0.25058 0.79665 0.0
N416 N 0.17522 0.27378 0.77281 0.0
C417 C 0.17904 0.25143 0.78877 0.0
C418 C 0.28952 0.23746 0.76189 0.0
O419 O 0.30546 0.26931 0.82017 0.0
O420 O 0.26049 0.26136 0.82176 0.0
O421 O 0.2645 0.24428 0.76866 0.0
O422 O 0.30931 0.25344 0.7667 0.0
O423 O 0.25606 0.29592 0.74837 0.0
H424 H 0.21648 0.23433 0.80832 0.0
H425 H 0.20456 0.30407 0.75893 0.0
O426 O 0.30086 0.30445 0.74737 0.0
O427 O 0.29659 0.32095 0.80062 0.0
O428 O 0.25155 0.3119 0.80203 0.0
C429 C 0.27148 0.32745 0.8076 0.0
H430 H 0.39983 0.32515 0.77575 0.0
H431 H 0.16348 0.23612 0.79334 0.0
Co432 Co 0.02474 0.02082 0.55968 0.0
C433 C 0.01564 0.04463 0.61085 0.0
Co434 Co 0.05035 0.05659 0.56716 0.0
C435 C 0.01358 0.96797 0.54192 0.0
C436 C 0.97637 0.98515 0.56099 0.0
N437 N 1.00349 0.99048 0.55455 0.0
N438 N 0.99401 0.94884 0.53974 0.0
C439 C 0.97047 0.95935 0.55194 0.0
H440 H 0.03515 0.96566 0.53447 0.0
H441 H 0.96182 0.99919 0.57123 0.0
C442 C 0.06025 0.03297 0.51611 0.0
N443 N 0.07346 0.08602 0.57081 0.0
C444 C 0.06597 0.11256 0.56979 0.0
C445 C 0.10188 0.08572 0.56885 0.0
N446 N 0.08839 0.12873 0.56664 0.0
C447 C 0.11113 0.11204 0.56653 0.0
C448 C 0.07521 0.00842 0.58328 0.0
O449 O 0.04051 0.01723 0.52335 0.0
O450 O 0.06761 0.05103 0.53255 0.0
O451 O 0.07747 0.03406 0.58329 0.0
O452 O 0.05357 0.99817 0.57345 0.0
O453 O 0.03303 0.06227 0.60203 0.0
H454 H 0.11502 0.06754 0.56729 0.0
H455 H 0.04439 0.11994 0.57038 0.0
O456 O 0.0095 0.02475 0.59576 0.0
O457 O 0.99593 0.04351 0.54594 0.0
O458 O 0.02251 0.07895 0.55087 0.0
C459 C 0.99962 0.06899 0.54343 0.0
H460 H 0.95039 0.94944 0.55355 0.0
H461 H 0.13267 0.11833 0.56351 0.0
Co462 Co 0.28274 0.79526 0.7874 0.0
C463 C 0.22739 0.77795 0.79823 0.0
Co464 Co 0.27074 0.76275 0.7602 0.0
C465 C 0.30519 0.84521 0.80142 0.0
C466 C 0.28819 0.82563 0.83758 0.0
N467 N 0.2928 0.82235 0.81029 0.0
N468 N 0.30847 0.86295 0.82183 0.0
C469 C 0.29774 0.85086 0.84477 0.0
H470 H 0.31041 0.84927 0.77994 0.0
H471 H 0.27786 0.81104 0.85113 0.0
C472 C 0.326 0.77974 0.74913 0.0
N473 N 0.26048 0.73589 0.73717 0.0
C474 C 0.24637 0.71384 0.74558 0.0
C475 C 0.2654 0.73258 0.70991 0.0
N476 N 0.24217 0.69667 0.72489 0.0
C477 C 0.25428 0.70815 0.70229 0.0
C478 C 0.25919 0.81378 0.7397 0.0
O479 O 0.31996 0.796 0.76879 0.0
O480 O 0.3073 0.76325 0.7422 0.0
O481 O 0.25785 0.78852 0.73523 0.0
O482 O 0.26911 0.82166 0.76204 0.0
O483 O 0.23386 0.76236 0.7782 0.0
H484 H 0.27679 0.74668 0.69665 0.0
H485 H 0.24039 0.7099 0.76692 0.0
O486 O 0.24586 0.79434 0.80599 0.0
O487 O 0.2963 0.76932 0.81214 0.0
O488 O 0.28388 0.73633 0.78551 0.0
C489 C 0.29482 0.74408 0.8074 0.0
H490 H 0.29647 0.85972 0.86505 0.0
H491 H 0.25538 0.69937 0.68197 0.0
Co492 Co 0.52906 0.0303 0.01638 0.0
C493 C 0.58341 0.01797 0.03488 0.0
Co494 Co 0.53902 0.05289 0.05305 0.0
C495 C 0.50833 0.02222 0.96321 0.0
C496 C 0.526 0.98523 0.97967 0.0
N497 N 0.52086 0.01172 0.98544 0.0
N498 N 0.50528 1.0034 0.94372 0.0
C499 C 0.51646 0.98005 0.95385 0.0
H500 H 0.50193 0.04344 0.96126 0.0
H501 H 0.53595 0.97068 0.99337 0.0
C502 C 0.48505 0.06581 0.03532 0.0
N503 N 0.54762 0.07074 0.08445 0.0
C504 C 0.56355 0.05933 0.10393 0.0
C505 C 0.53935 0.09525 0.09452 0.0
N506 N 0.56584 0.07551 0.12565 0.0
C507 C 0.55043 0.09815 0.12027 0.0
C508 C 0.55377 0.07971 0.00524 0.0
O509 O 0.49211 0.04933 0.01607 0.0
O510 O 0.50257 0.06973 0.05399 0.0
O511 O 0.55269 0.08203 0.03125 0.0
O512 O 0.54494 0.05824 0.99452 0.0
O513 O 0.5759 0.03622 0.05196 0.0
H514 H 0.52577 0.10975 0.08413 0.0
H515 H 0.57253 0.0389 0.10279 0.0
O516 O 0.56584 0.01132 0.01704 0.0
O517 O 0.51318 1.00272 0.03772 0.0
O518 O 0.52519 0.02334 0.07508 0.0
C519 C 0.51389 1.00343 0.06366 0.0
H520 H 0.51727 0.96062 0.94356 0.0
H521 H 0.54738 0.11528 0.1339 0.0
Co522 Co 0.28413 0.26886 0.29311 0.0
C523 C 0.33981 0.28815 0.29592 0.0
Co524 Co 0.28972 0.30815 0.27269 0.0
C525 C 0.26684 0.21398 0.30339 0.0
C526 C 0.29313 0.22837 0.33479 0.0
N527 N 0.28087 0.23595 0.31115 0.0
N528 N 0.26996 0.19289 0.32118 0.0
C529 C 0.28651 0.20182 0.34098 0.0
H530 H 0.25498 0.21334 0.28478 0.0
H531 H 0.30618 0.24128 0.34666 0.0
C532 C 0.23396 0.288 0.26995 0.0
N533 N 0.2931 0.34103 0.2543 0.0
C534 C 0.30816 0.36283 0.26079 0.0
C535 C 0.2804 0.34822 0.23076 0.0
N536 N 0.30516 0.38336 0.2423 0.0
C537 C 0.28766 0.37431 0.22342 0.0
C538 C 0.29623 0.26411 0.23566 0.0
O539 O 0.24381 0.26971 0.2861 0.0
O540 O 0.25019 0.30718 0.26232 0.0
O541 O 0.29951 0.28962 0.23847 0.0
O542 O 0.29013 0.25016 0.25736 0.0
O543 O 0.32936 0.30882 0.28335 0.0
H544 H 0.26689 0.33523 0.21948 0.0
H545 H 0.32091 0.36371 0.2788 0.0
O546 O 0.32426 0.26763 0.30005 0.0
O547 O 0.27804 0.28788 0.32862 0.0
O548 O 0.28002 0.327 0.30682 0.0
C549 C 0.27764 0.31389 0.32963 0.0
H550 H 0.29301 0.19013 0.35882 0.0
H551 H 0.28116 0.38553 0.20528 0.0
Co552 Co 0.51431 0.52104 0.98681 0.0
C553 C 0.50068 0.55051 0.03327 0.0
Co554 Co 0.53378 0.56116 0.98672 0.0
C555 C 0.51222 0.46316 0.98701 0.0
C556 C 0.4713 0.48125 0.99337 0.0
N557 N 0.49854 0.48733 0.9884 0.0
N558 N 0.49473 0.44223 0.99105 0.0
C559 C 0.46885 0.45337 0.99473 0.0
H560 H 0.5346 0.46095 0.98276 0.0
H561 H 0.45441 0.49613 0.99621 0.0
C562 C 0.54724 0.5313 0.94052 0.0
N563 N 0.54839 0.59553 0.98641 0.0
C564 C 0.53352 0.61726 0.99566 0.0
C565 C 0.57505 0.60408 0.9834 0.0
N566 N 0.54976 0.63874 0.99998 0.0
C567 C 0.57596 0.63082 0.99186 0.0
C568 C 0.5669 0.52201 0.01004 0.0
O569 O 0.53273 0.51306 0.95269 0.0
O570 O 0.54985 0.55439 0.95158 0.0
O571 O 0.56622 0.54697 1.00301 0.0
O572 O 0.54602 0.50727 0.00542 0.0
O573 O 0.51746 0.56766 0.0226 0.0
H574 H 0.59292 0.59111 0.97784 0.0
H575 H 0.51143 0.61652 1.00152 0.0
O576 O 0.49609 0.52881 0.02061 0.0
O577 O 0.48291 0.53493 0.96847 0.0
O578 O 0.50127 0.57529 0.97039 0.0
C579 C 0.4812 0.56037 0.9639 0.0
H580 H 0.44971 0.44218 0.99832 0.0
H581 H 0.59473 0.64247 0.99443 0.0
Co582 Co 0.79288 0.30816 0.29944 0.0
C583 C 0.73724 0.29363 0.31551 0.0
Co584 Co 0.77809 0.27247 0.27839 0.0
C585 C 0.82171 0.3567 0.30787 0.0
C586 C 0.79778 0.34565 0.34416 0.0
N587 N 0.80472 0.33747 0.31835 0.0
N588 N 0.82564 0.37657 0.3259 0.0
C589 C 0.81045 0.37011 0.34875 0.0
H590 H 0.83001 0.35686 0.28687 0.0
H591 H 0.7839 0.33492 0.35841 0.0
C592 C 0.8336 0.28684 0.26192 0.0
N593 N 0.76608 0.24363 0.25908 0.0
C594 C 0.74835 0.22464 0.26866 0.0
C595 C 0.77136 0.23744 0.2324 0.0
N596 N 0.74216 0.20691 0.2491 0.0
C597 C 0.7568 0.21449 0.22625 0.0
C598 C 0.76568 0.32122 0.25226 0.0
O599 O 0.82916 0.30567 0.27938 0.0
O600 O 0.81401 0.2701 0.25846 0.0
O601 O 0.76394 0.29558 0.25126 0.0
O602 O 0.7785 0.33184 0.27178 0.0
O603 O 0.742 0.27492 0.29807 0.0
H604 H 0.78472 0.24898 0.21833 0.0
H605 H 0.74047 0.22351 0.28978 0.0
O606 O 0.75675 0.31039 0.31942 0.0
O607 O 0.80705 0.28501 0.32677 0.0
O608 O 0.79194 0.24881 0.30629 0.0
C609 C 0.80435 0.2594 0.32613 0.0
H610 H 0.80835 0.38237 0.36707 0.0
H611 H 0.75682 0.20426 0.20666 0.0
Co612 Co 0.02743 0.52075 0.51363 0.0
C613 C 0.08126 0.50754 0.5323 0.0
Co614 Co 0.03632 0.54198 0.55141 0.0
C615 C 0.01027 0.5165 0.45918 0.0
C616 C 0.02492 0.47767 0.47395 0.0
N617 N 0.02056 0.50383 0.4814 0.0
N618 N 0.00785 0.49949 0.438 0.0
C619 C 0.01712 0.47493 0.44706 0.0
H620 H 1.00523 0.5381 0.45849 0.0
H621 H 0.03335 0.46175 0.48713 0.0
C622 C 0.98216 0.55439 0.53196 0.0
N623 N 0.04334 0.55857 0.58377 0.0
C624 C 0.05482 0.54575 0.60536 0.0
C625 C 0.03821 0.58438 0.59199 0.0
N626 N 0.05723 0.56233 0.62687 0.0
C627 C 0.04673 0.58675 0.61871 0.0
C628 C 0.05143 0.57174 0.50593 0.0
O629 O 0.99056 0.53771 0.51349 0.0
O630 O 0.99893 0.5596 0.55108 0.0
O631 O 0.05113 0.57159 0.53197 0.0
O632 O 0.04241 0.5512 0.49355 0.0
O633 O 0.07404 0.52412 0.55139 0.0
H634 H 0.02882 0.6003 0.57945 0.0
H635 H 0.06072 0.52433 0.6054 0.0
O636 O 0.06381 0.50356 0.51361 0.0
O637 O 0.0125 0.49088 0.53354 0.0
O638 O 0.02121 0.51226 0.57138 0.0
C639 C 0.01182 0.49166 0.55961 0.0
H640 H 0.01797 0.45637 0.43526 0.0
H641 H 0.04557 0.605 0.63098 0.0
Co642 Co 0.8017 0.79729 0.28926 0.0
C643 C 0.77472 0.81313 0.24054 0.0
Co644 Co 0.75881 0.78204 0.28889 0.0
C645 C 0.86001 0.79597 0.30095 0.0
C646 C 0.84784 0.83364 0.2816 0.0
N647 N 0.83792 0.8093 0.29008 0.0
N648 N 0.88331 0.8111 0.30002 0.0
C649 C 0.87582 0.8348 0.28767 0.0
H650 H 0.85881 0.77567 0.30986 0.0
H651 H 0.83531 0.8498 0.27243 0.0
C652 C 0.78602 0.76602 0.33733 0.0
N653 N 0.72259 0.77015 0.28845 0.0
C654 C 0.70859 0.76307 0.26616 0.0
C655 C 0.70357 0.76905 0.30955 0.0
N656 N 0.6813 0.75831 0.27222 0.0
C657 C 0.6781 0.76179 0.29961 0.0
C658 C 0.79742 0.74725 0.26536 0.0
O659 O 0.80572 0.77969 0.32572 0.0
O660 O 0.76325 0.76399 0.32454 0.0
O661 O 0.77141 0.75037 0.27098 0.0
O662 O 0.81439 0.76534 0.27223 0.0
O663 O 0.75445 0.80067 0.25275 0.0
H664 H 0.70759 0.77458 0.33051 0.0
H665 H 0.71809 0.76256 0.24566 0.0
O666 O 0.79778 0.81428 0.253 0.0
O667 O 0.78871 0.82957 0.30634 0.0
O668 O 0.74617 0.81338 0.30677 0.0
C669 C 0.76279 0.832 0.31282 0.0
H670 H 0.88919 0.85221 0.28449 0.0
H671 H 0.65839 0.76113 0.31129 0.0
Co672 Co 0.81749 0.29128 0.82294 0.0
C673 C 0.78487 0.24975 0.80521 0.0
Co674 Co 0.79992 0.29906 0.78223 0.0
C675 C 0.82892 0.30501 0.8776 0.0
C676 C 0.83713 0.26251 0.87138 0.0
N677 N 0.82965 0.28582 0.85816 0.0
N678 N 0.83523 0.29476 0.90248 0.0
C679 C 0.84022 0.26793 0.8989 0.0
H680 H 0.8217 0.3258 0.87401 0.0
H681 H 0.8387 0.24267 0.86196 0.0
C682 C 0.83168 0.3411 0.80007 0.0
N683 N 0.78786 0.30365 0.74677 0.0
C684 C 0.78888 0.28344 0.72837 0.0
C685 C 0.77842 0.32575 0.73273 0.0
N686 N 0.78051 0.29169 0.70339 0.0
C687 C 0.774 0.31844 0.70583 0.0
C688 C 0.76401 0.31669 0.82238 0.0
O689 O 0.83399 0.32612 0.82142 0.0
O690 O 0.81811 0.3325 0.77997 0.0
O691 O 0.76723 0.31646 0.79637 0.0
O692 O 0.78342 0.30694 0.83722 0.0
O693 O 0.78158 0.26555 0.78471 0.0
H694 H 0.77554 0.34588 0.7413 0.0
H695 H 0.79683 0.26312 0.73301 0.0
O696 O 0.80065 0.25681 0.82429 0.0
O697 O 0.85129 0.2755 0.8085 0.0
O698 O 0.83255 0.28144 0.76823 0.0
C699 C 0.85264 0.27268 0.7826 0.0
H700 H 0.84458 0.25325 0.91513 0.0
H701 H 0.7668 0.33172 0.68942 0.0
Co702 Co 0.77408 0.76685 0.79928 0.0
C703 C 0.83266 0.77583 0.806 0.0
Co704 Co 0.79048 0.80112 0.77564 0.0
C705 C 0.74678 0.71696 0.81071 0.0
C706 C 0.76769 0.73118 0.84594 0.0
N707 N 0.76215 0.73751 0.81954 0.0
N708 N 0.74273 0.69778 0.8304 0.0
C709 C 0.75584 0.70659 0.85267 0.0
H710 H 0.73997 0.71541 0.78976 0.0
H711 H 0.78024 0.74327 0.85914 0.0
C712 C 0.732 0.79246 0.76884 0.0
N713 N 0.80186 0.8306 0.75532 0.0
C714 C 0.81342 0.85302 0.7651 0.0
C715 C 0.79555 0.83689 0.72908 0.0
N716 N 0.8135 0.87357 0.74649 0.0
C717 C 0.80271 0.86343 0.72358 0.0
C718 C 0.79037 0.75373 0.74389 0.0
O719 O 0.73583 0.77334 0.78643 0.0
O720 O 0.7527 0.80765 0.76282 0.0
O721 O 0.79759 0.77853 0.74358 0.0
O722 O 0.78118 0.74374 0.76677 0.0
O723 O 0.82857 0.79488 0.78838 0.0
H724 H 0.78442 0.82381 0.71561 0.0
H725 H 0.81999 0.85473 0.78609 0.0
O726 O 0.81213 0.76035 0.81216 0.0
O727 O 0.76704 0.78944 0.83148 0.0
O728 O 0.78324 0.82416 0.80817 0.0
C729 C 0.77415 0.81425 0.83109 0.0
H730 H 0.75748 0.69566 0.87207 0.0
H731 H 0.79808 0.87498 0.70507 0.0
Co732 Co 0.52534 0.55097 0.51352 0.0
C733 C 0.5231 0.58651 0.55976 0.0
Co734 Co 0.53828 0.53107 0.55145 0.0
C735 C 0.50357 0.56055 0.45946 0.0
C736 C 0.519 0.59676 0.47733 0.0
N737 N 0.51555 0.56983 0.48216 0.0
N738 N 0.49915 0.58073 0.44097 0.0
C739 C 0.50864 0.60357 0.45206 0.0
H740 H 0.4978 0.53957 0.45667 0.0
H741 H 0.52852 0.6106 0.49124 0.0
C742 C 0.54031 0.496 0.50457 0.0
N743 N 0.54846 0.51235 0.58266 0.0
C744 C 0.56892 0.51864 0.59978 0.0
C745 C 0.54028 0.48727 0.59065 0.0
N746 N 0.57447 0.4982 0.61783 0.0
C747 C 0.55622 0.4785 0.61225 0.0
C748 C 0.48055 0.5239 0.5403 0.0
O749 O 0.53407 0.51829 0.49216 0.0
O750 O 0.54401 0.49703 0.53042 0.0
O751 O 0.4994 0.52055 0.55821 0.0
O752 O 0.48684 0.53791 0.51874 0.0
O753 O 0.53258 0.56543 0.5725 0.0
H754 H 0.52482 0.4755 0.58044 0.0
H755 H 0.58012 0.53756 0.59826 0.0
O756 O 0.51654 0.58353 0.5348 0.0
O757 O 0.56364 0.56392 0.50826 0.0
O758 O 0.57733 0.54154 0.54464 0.0
C759 C 0.58316 0.55787 0.52479 0.0
H760 H 0.50839 0.62357 0.44238 0.0
H761 H 0.55534 0.45857 0.62199 0.0
Co762 Co 0.00778 0.52311 0.01127 0.0
C763 C 0.02389 0.57789 1.00183 0.0
Co764 Co 0.04194 0.53434 0.03754 0.0
C765 C 0.95665 0.49942 0.99996 0.0
C766 C 0.9725 0.51942 0.96355 0.0
N767 N 0.97873 0.51326 0.98984 0.0
N768 N 0.93661 0.49669 0.98139 0.0
C769 C 0.94632 0.50934 0.95832 0.0
H770 H 0.95464 0.49287 0.02127 0.0
H771 H 0.98561 0.53127 0.94952 0.0
C772 C 0.02564 0.4795 0.04671 0.0
N773 N 0.07022 0.54403 0.05966 0.0
C774 C 0.09201 0.55927 0.05149 0.0
C775 C 0.07411 0.53854 0.08659 0.0
N776 N 0.10938 0.56382 0.07212 0.0
C777 C 0.09848 0.55062 0.09432 0.0
C778 C 0.9902 0.54468 0.06088 0.0
O779 O 0.00873 0.4864 0.02788 0.0
O780 O 0.0425 0.49752 0.05449 0.0
O781 O 0.01635 0.54599 0.06408 0.0
O782 O 0.98124 0.53492 0.03893 0.0
O783 O 0.04116 0.57154 0.02059 0.0
H784 H 0.06013 0.5266 0.09968 0.0
H785 H 0.09533 0.56645 0.0305 0.0
O786 O 1.00714 0.55953 0.99459 0.0
O787 O 0.03401 0.51153 0.98404 0.0
O788 O 0.06827 0.52266 0.01052 0.0
C789 C 0.06012 0.51324 0.98806 0.0
H790 H 0.93512 0.51167 0.93937 0.0
H791 H 0.10734 0.54996 0.11456 0.0
H792 H 0.03615 0.17808 0.14912 0.0
H793 H 0.03236 0.22443 0.07327 0.0
H794 H 0.02664 0.18248 0.04769 0.0
H795 H 0.02299 0.13201 0.04608 0.0
H796 H 0.02852 0.08515 0.12146 0.0
H797 H 0.03302 0.1272 0.1474 0.0
C798 C 0.03412 0.17908 0.12698 0.0
C799 C 0.03477 0.20496 0.11341 0.0
C800 C 0.03095 0.15443 0.11205 0.0
C801 C 0.03208 0.20526 0.08459 0.0
C802 C 0.0287 0.18107 0.06981 0.0
C803 C 0.02489 0.13088 0.06824 0.0
C804 C 0.025 0.10488 0.08156 0.0
C805 C 0.02806 0.15544 0.0832 0.0
C806 C 0.02806 0.10443 0.11035 0.0
C807 C 0.03076 0.12868 0.12531 0.0
H808 H 0.11822 0.76293 0.34932 0.0
H809 H 0.15666 0.78302 0.42548 0.0
H810 H 0.2028 0.78395 0.40195 0.0
H811 H 0.23169 0.78074 0.35939 0.0
H812 H 0.19271 0.76178 0.28312 0.0
H813 H 0.14718 0.75845 0.3072 0.0
C814 C 0.13671 0.76743 0.36079 0.0
C815 C 0.13411 0.77302 0.389 0.0
C816 C 0.163 0.76805 0.34716 0.0
C817 C 0.15819 0.77874 0.40367 0.0
C818 C 0.18454 0.77924 0.39026 0.0
C819 C 0.21329 0.77558 0.3481 0.0
C820 C 0.21552 0.77152 0.31954 0.0
C821 C 0.18712 0.77413 0.36197 0.0
C822 C 0.19149 0.76505 0.30512 0.0
C823 C 0.16546 0.76319 0.31884 0.0
H824 H 0.55559 0.88789 0.64412 0.0
H825 H 0.5245 0.84708 0.57369 0.0
H826 H 0.52268 0.89049 0.54818 0.0
H827 H 0.52934 0.94087 0.54561 0.0
H828 H 0.56396 0.98093 0.61486 0.0
H829 H 0.56499 0.93769 0.64055 0.0
C830 C 0.54847 0.88841 0.62316 0.0
C831 C 0.54005 0.86378 0.61111 0.0
C832 C 0.54809 0.91367 0.60816 0.0
C833 C 0.53117 0.86531 0.58372 0.0
C834 C 0.53006 0.89033 0.56904 0.0
C835 C 0.53721 0.94021 0.56629 0.0
C836 C 0.54647 0.96468 0.57807 0.0
C837 C 0.53838 0.91478 0.58099 0.0
C838 C 0.55674 0.96284 0.60495 0.0
C839 C 0.55728 0.93793 0.6198 0.0
H840 H 0.48498 0.23086 0.85354 0.0
H841 H 0.53258 0.2893 0.80531 0.0
H842 H 0.49131 0.30022 0.77823 0.0
H843 H 0.44023 0.29807 0.77326 0.0
H844 H 0.39239 0.24243 0.82494 0.0
H845 H 0.43524 0.22524 0.84521 0.0
C846 C 0.48654 0.2455 0.83665 0.0
C847 C 0.51163 0.25952 0.83165 0.0
C848 C 0.46251 0.2525 0.82203 0.0
C849 C 0.5134 0.27834 0.80964 0.0
C850 C 0.48976 0.28476 0.79432 0.0
C851 C 0.43915 0.28214 0.78888 0.0
C852 C 0.41291 0.27201 0.79778 0.0
C853 C 0.4639 0.27285 0.8012 0.0
C854 C 0.4121 0.25073 0.81751 0.0
C855 C 0.43667 0.24092 0.82933 0.0
H856 H 1.00667 0.82896 0.4969 0.0
H857 H 0.06673 0.86843 0.44203 0.0
H858 H 0.05502 0.91227 0.46273 0.0
H859 H 0.02825 0.93925 0.49622 0.0
H860 H 0.96876 0.90096 0.55224 0.0
H861 H 0.97908 0.85674 0.53072 0.0
C862 C 0.01723 0.84717 0.48961 0.0
C863 C 0.03765 0.84547 0.4681 0.0
C864 C 0.01031 0.87244 0.50156 0.0
C865 C 0.05102 0.8692 0.45863 0.0
C866 C 0.04431 0.89429 0.47039 0.0
C867 C 0.01771 0.9212 0.50394 0.0
C868 C 0.99811 0.92322 0.52604 0.0
C869 C 0.02408 0.89609 0.49185 0.0
C870 C 0.98391 0.89984 0.5352 0.0
C871 C 0.98997 0.8746 0.52305 0.0
H872 H 0.43532 0.76606 0.67086 0.0
H873 H 0.47062 0.81643 0.73237 0.0
H874 H 0.42523 0.81849 0.75745 0.0
H875 H 0.37498 0.80561 0.76239 0.0
H876 H 0.34068 0.75382 0.70136 0.0
H877 H 0.38565 0.7528 0.67602 0.0
C878 C 0.43311 0.77755 0.68973 0.0
C879 C 0.4566 0.79113 0.69954 0.0
C880 C 0.40686 0.77839 0.70434 0.0
C881 C 0.45311 0.80575 0.7242 0.0
C882 C 0.42704 0.80695 0.73861 0.0
C883 C 0.37731 0.79413 0.74353 0.0
C884 C 0.35411 0.77981 0.73399 0.0
C885 C 0.40368 0.79331 0.72897 0.0
C886 C 0.35789 0.765 0.70946 0.0
C887 C 0.38374 0.7644 0.69482 0.0
H888 H 0.57315 0.16869 0.91333 0.0
H889 H 0.57171 0.2201 0.98471 0.0
H890 H 0.57009 0.18005 0.01494 0.0
H891 H 0.56418 0.13104 0.02093 0.0
H892 H 0.56292 0.07966 0.94959 0.0
H893 H 0.57091 0.1191 0.91947 0.0
C894 C 0.57285 0.17104 0.9355 0.0
C895 C 0.57221 0.19716 0.94684 0.0
C896 C 0.57131 0.148 0.95273 0.0
C897 C 0.5719 0.20009 0.97556 0.0
C898 C 0.57098 0.17725 0.99284 0.0
C899 C 0.5661 0.1284 0.99882 0.0
C900 C 0.56268 0.10261 0.98747 0.0
C901 C 0.56994 0.15118 0.98163 0.0
C902 C 0.56525 0.09943 0.9588 0.0
C903 C 0.56975 0.12195 0.94155 0.0
H904 H 0.10903 0.26228 0.23239 0.0
H905 H 0.13774 0.30746 0.16055 0.0
H906 H 0.18269 0.31487 0.18179 0.0
H907 H 0.21475 0.3086 0.22071 0.0
H908 H 0.18804 0.26062 0.2913 0.0
H909 H 0.14214 0.25448 0.27095 0.0
C910 C 0.12512 0.27369 0.22132 0.0
C911 C 0.11953 0.28427 0.19464 0.0
C912 C 0.15158 0.27759 0.23364 0.0
C913 C 0.14106 0.2989 0.18088 0.0
C914 C 0.16694 0.30327 0.19313 0.0
C915 C 0.19883 0.29702 0.23186 0.0
C916 C 0.20508 0.28552 0.25796 0.0
C917 C 0.17254 0.29281 0.21954 0.0
C918 C 0.18408 0.27001 0.27146 0.0
C919 C 0.1577 0.2664 0.25971 0.0
H920 H 0.11585 0.96744 0.23761 0.0
H921 H 0.0875 0.05085 0.24841 0.0
H922 H 0.06734 0.0512 0.20282 0.0
H923 H 0.05938 0.02829 0.15926 0.0
H924 H 0.08779 0.94504 0.14848 0.0
H925 H 0.10638 0.94406 0.1948 0.0
C926 C 0.10499 0.98559 0.23009 0.0
C927 C 0.10319 0.00908 0.24624 0.0
C928 C 0.09372 0.98574 0.20383 0.0
C929 C 0.0891 0.03248 0.23631 0.0
C930 C 0.0777 0.03276 0.21022 0.0
C931 C 0.06986 0.01007 0.16704 0.0
C932 C 0.07247 0.98686 0.15055 0.0
C933 C 0.08028 0.00964 0.19366 0.0
C934 C 0.0855 0.9631 0.16096 0.0
C935 C 0.09614 0.96255 0.18736 0.0
H936 H 0.31188 0.88819 0.46935 0.0
H937 H 0.23161 0.85001 0.48094 0.0
H938 H 0.2432 0.81908 0.44276 0.0
H939 H 0.27648 0.80337 0.40635 0.0
H940 H 0.35785 0.83969 0.39717 0.0
H941 H 0.34608 0.87059 0.43513 0.0
C942 C 0.29682 0.87332 0.46316 0.0
C943 C 0.27072 0.87157 0.4771 0.0
C944 C 0.30416 0.85505 0.44231 0.0
C945 C 0.25162 0.85177 0.46989 0.0
C946 C 0.25833 0.83407 0.44835 0.0
C947 C 0.29162 0.81791 0.413 0.0
C948 C 0.31787 0.81952 0.39926 0.0
C949 C 0.28461 0.8355 0.43457 0.0
C950 C 0.33766 0.83806 0.40787 0.0
C951 C 0.33079 0.85587 0.42922 0.0
H952 H 0.4099 0.0435 0.66722 0.0
H953 H 0.47759 0.07467 0.71397 0.0
H954 H 0.50576 0.08117 0.67178 0.0
H955 H 0.51242 0.07476 0.62278 0.0
H956 H 0.44661 0.04047 0.57574 0.0
H957 H 0.41584 0.0393 0.61701 0.0
C958 C 0.43079 0.05179 0.66809 0.0
C959 C 0.4419 0.05828 0.69353 0.0
C960 C 0.44697 0.05514 0.64384 0.0
C961 C 0.46882 0.0692 0.69455 0.0
C962 C 0.48485 0.07306 0.67049 0.0
C963 C 0.49122 0.06733 0.62137 0.0
C964 C 0.48187 0.0574 0.59641 0.0
C965 C 0.47428 0.06567 0.64516 0.0
C966 C 0.45427 0.04814 0.59484 0.0
C967 C 0.4368 0.04725 0.61843 0.0
H968 H 0.31656 0.19949 0.94639 0.0
H969 H 0.22969 0.21849 0.96683 0.0
H970 H 0.22409 0.23979 0.92142 0.0
H971 H 0.24357 0.25287 0.875 0.0
H972 H 0.33134 0.23691 0.85588 0.0
H973 H 0.33673 0.21493 0.90098 0.0
C974 C 0.2964 0.20839 0.94101 0.0
C975 C 0.27355 0.20714 0.96041 0.0
C976 C 0.29341 0.22123 0.91472 0.0
C977 C 0.24773 0.21906 0.95272 0.0
C978 C 0.24447 0.23124 0.92654 0.0
C979 C 0.26391 0.24457 0.88064 0.0
C980 C 0.28697 0.24655 0.86156 0.0
C981 C 0.26709 0.2324 0.90722 0.0
C982 C 0.31315 0.23585 0.86978 0.0
C983 C 0.31626 0.22317 0.89574 0.0
H984 H 0.13553 0.04024 0.40841 0.0
H985 H 0.07485 0.98411 0.37955 0.0
H986 H 0.05045 0.98464 0.42479 0.0
H987 H 0.04622 1.00211 0.47237 0.0
H988 H 0.10759 0.05873 0.49952 0.0
H989 H 0.13195 0.0568 0.455 0.0
C990 C 0.11696 0.02808 0.41194 0.0
C991 C 0.10689 0.01226 0.39075 0.0
C992 C 0.10319 0.02859 0.43768 0.0
C993 C 0.0829 0.99653 0.39565 0.0
C994 C 0.06899 0.99683 0.42145 0.0
C995 C 0.06496 0.01393 0.46848 0.0
C996 C 0.07495 0.03066 0.48914 0.0
C997 C 0.07891 0.01292 0.44261 0.0
C998 C 0.09929 0.04585 0.48391 0.0
C999 C 0.1133 0.04477 0.45846 0.0
H1000 H 0.27103 0.90201 0.64684 0.0
H1001 H 0.2514 0.83229 0.59823 0.0
H1002 H 0.24157 0.80576 0.63997 0.0
H1003 H 0.24222 0.80132 0.68944 0.0
H1004 H 0.26607 0.86914 0.73873 0.0
H1005 H 0.2693 0.89806 0.69738 0.0
C1006 C 0.26461 0.88101 0.64547 0.0
C1007 C 0.26232 0.86891 0.61968 0.0
C1008 C 0.25931 0.86579 0.66952 0.0
C1009 C 0.25371 0.84183 0.61797 0.0
C1010 C 0.24787 0.82675 0.64176 0.0
C1011 C 0.2477 0.82255 0.69131 0.0
C1012 C 0.2543 0.83302 0.71695 0.0
C1013 C 0.25103 0.83842 0.66755 0.0
C1014 C 0.261 0.86063 0.71909 0.0
C1015 C 0.26316 0.87705 0.69547 0.0
H1016 H 0.4635 0.01166 0.82324 0.0
H1017 H 0.40857 0.07275 0.86058 0.0
H1018 H 0.42991 0.0642 0.90503 0.0
H1019 H 0.46338 0.03881 0.93312 0.0
H1020 H 0.51823 0.97764 0.89607 0.0
H1021 H 0.49717 0.98634 0.85144 0.0
C1022 C 0.45634 0.02323 0.84108 0.0
C1023 C 0.43465 0.04287 0.83875 0.0
C1024 C 0.46841 0.01797 0.86651 0.0
C1025 C 0.42533 0.05756 0.86198 0.0
C1026 C 0.43745 0.05265 0.88734 0.0
C1027 C 0.47093 0.0276 0.91521 0.0
C1028 C 0.49242 0.00777 0.91773 0.0
C1029 C 0.4589 0.03284 0.88981 0.0
C1030 C 0.50154 0.99285 0.89457 0.0
C1031 C 0.48966 0.99796 0.8691 0.0
H1032 H 0.30005 0.23577 0.10678 0.0
H1033 H 0.26089 0.16264 0.13777 0.0
H1034 H 0.26398 0.1787 0.18487 0.0
H1035 H 0.2772 0.21393 0.21828 0.0
H1036 H 0.31582 0.28737 0.18735 0.0
H1037 H 0.31372 0.27087 0.14031 0.0
C1038 C 0.29211 0.22333 0.12378 0.0
C1039 C 0.2801 0.19785 0.11817 0.0
C1040 C 0.29402 0.23277 0.15136 0.0
C1041 C 0.27016 0.18227 0.14094 0.0
C1042 C 0.27198 0.19147 0.16815 0.0
C1043 C 0.28551 0.22624 0.20134 0.0
C1044 C 0.29695 0.25198 0.20697 0.0
C1045 C 0.28388 0.2167 0.17379 0.0
C1046 C 0.30706 0.26751 0.18421 0.0
C1047 C 0.30576 0.25807 0.15702 0.0
H1048 H 0.18329 0.13264 0.00595 0.0
H1049 H 0.22083 0.08339 0.06959 0.0
H1050 H 0.17934 0.05468 0.07219 0.0
H1051 H 0.13114 0.04387 0.05715 0.0
H1052 H 0.09532 0.09208 0.99155 0.0
H1053 H 0.13683 0.12015 0.98896 0.0
C1054 C 0.18246 0.1156 0.02038 0.0
C1055 C 0.20538 0.1105 0.03769 0.0
C1056 C 0.15856 0.09867 0.02141 0.0
C1057 C 0.20373 0.08802 0.05599 0.0
C1058 C 0.17986 0.0715 0.05751 0.0
C1059 C 0.1325 0.0603 0.04206 0.0
C1060 C 0.10964 0.0655 0.02457 0.0
C1061 C 0.15697 0.0766 0.04039 0.0
C1062 C 0.11223 0.08716 0.00528 0.0
C1063 C 0.1361 0.10349 1.00382 0.0
H1064 H 0.68645 0.48716 0.05034 0.0
H1065 H 0.65284 0.4073 0.03853 0.0
H1066 H 0.60752 0.42782 0.02684 0.0
H1067 H 0.57851 0.46836 0.01769 0.0
H1068 H 0.61263 0.54833 0.02788 0.0
H1069 H 0.65679 0.52774 0.04287 0.0
C1070 C 0.66915 0.47427 0.04534 0.0
C1071 C 0.67291 0.44585 0.0451 0.0
C1072 C 0.64335 0.48617 0.03841 0.0
C1073 C 0.65039 0.42929 0.03869 0.0
C1074 C 0.62452 0.44098 0.03204 0.0
C1075 C 0.59549 0.4813 0.02347 0.0
C1076 C 0.59242 0.50977 0.02159 0.0
C1077 C 0.6209 0.46939 0.03153 0.0
C1078 C 0.61459 0.52631 0.02906 0.0
C1079 C 0.63983 0.51458 0.03757 0.0
H1080 H 0.8955 0.46942 0.27289 0.0
H1081 H 0.82448 0.51775 0.30283 0.0
H1082 H 0.80397 0.47709 0.32457 0.0
H1083 H 0.8059 0.42734 0.33348 0.0
H1084 H 0.87692 0.37994 0.30271 0.0
H1085 H 0.89846 0.42102 0.28335 0.0
C1086 C 0.87543 0.47107 0.28401 0.0
C1087 C 0.86127 0.49631 0.28602 0.0
C1088 C 0.86417 0.44795 0.29667 0.0
C1089 C 0.83554 0.49832 0.30083 0.0
C1090 C 0.82395 0.47519 0.31338 0.0
C1091 C 0.82639 0.42636 0.32313 0.0
C1092 C 0.84012 0.40107 0.31953 0.0
C1093 C 0.83812 0.4499 0.31141 0.0
C1094 C 0.86633 0.39949 0.30565 0.0
C1095 C 0.87842 0.4228 0.29446 0.0
H1096 H 0.85557 0.5939 0.51177 0.0
H1097 H 0.87719 0.65449 0.57046 0.0
H1098 H 0.92404 0.63383 0.57413 0.0
H1099 H 0.95968 0.5985 0.56065 0.0
H1100 H 0.93884 0.53917 0.50033 0.0
H1101 H 0.89164 0.55916 0.49745 0.0
C1102 C 0.87051 0.60257 0.52538 0.0
C1103 C 0.86253 0.62582 0.54084 0.0
C1104 C 0.8979 0.59072 0.52717 0.0
C1105 C 0.88248 0.63672 0.55822 0.0
C1106 C 0.90943 0.62485 0.5604 0.0
C1107 C 0.94482 0.58987 0.54693 0.0
C1108 C 0.95313 0.56713 0.53085 0.0
C1109 C 0.9175 0.60182 0.54498 0.0
C1110 C 0.93336 0.55657 0.51302 0.0
C1111 C 0.90618 0.56803 0.51134 0.0
H1112 H 0.23065 0.07204 0.32651 0.0
H1113 H 0.158 0.10933 0.28923 0.0
H1114 H 0.18061 0.15354 0.28857 0.0
H1115 H 0.22009 0.1818 0.30043 0.0
H1116 H 0.29225 0.14491 0.33871 0.0
H1117 H 0.27065 0.10021 0.33739 0.0
C1118 C 0.21989 0.08982 0.31806 0.0
C1119 C 0.19276 0.08753 0.30796 0.0
C1120 C 0.2328 0.11519 0.31813 0.0
C1121 C 0.17892 0.11067 0.29717 0.0
C1122 C 0.19179 0.13593 0.29681 0.0
C1123 C 0.2312 0.16391 0.30814 0.0
C1124 C 0.25765 0.16655 0.31965 0.0
C1125 C 0.2186 0.13844 0.30748 0.0
C1126 C 0.27169 0.14334 0.33005 0.0
C1127 C 0.25943 0.11781 0.32918 0.0
H1128 H 0.33622 0.96799 0.50026 0.0
H1129 H 0.37043 0.91297 0.5613 0.0
H1130 H 0.41804 0.92652 0.54766 0.0
H1131 H 0.44929 0.95598 0.52036 0.0
H1132 H 0.41508 0.01183 0.46029 0.0
H1133 H 0.36785 0.99511 0.47073 0.0
C1134 C 0.35412 0.95904 0.51061 0.0
C1135 C 0.35002 0.93995 0.53204 0.0
C1136 C 0.38124 0.96672 0.50253 0.0
C1137 C 0.37324 0.92798 0.54494 0.0
C1138 C 0.40037 0.93561 0.53709 0.0
C1139 C 0.43145 0.96427 0.50945 0.0
C1140 C 0.43539 0.98527 0.48993 0.0
C1141 C 0.40452 0.95519 0.51617 0.0
C1142 C 0.41243 0.99554 0.47533 0.0
C1143 C 0.38547 0.98625 0.48154 0.0
H1144 H 0.82932 0.6258 0.24516 0.0
H1145 H 0.91229 0.6594 0.2473 0.0
H1146 H 0.8922 0.70546 0.24583 0.0
H1147 H 0.85128 0.73529 0.25153 0.0
H1148 H 0.76805 0.70185 0.25353 0.0
H1149 H 0.78808 0.65645 0.24487 0.0
C1150 C 0.84296 0.64324 0.24486 0.0
C1151 C 0.87204 0.63948 0.24702 0.0
C1152 C 0.83126 0.66955 0.24482 0.0
C1153 C 0.8897 0.66202 0.24622 0.0
C1154 C 0.87828 0.68828 0.24532 0.0
C1155 C 0.83746 0.71816 0.24961 0.0
C1156 C 0.80839 0.72161 0.25393 0.0
C1157 C 0.84908 0.69218 0.24581 0.0
C1158 C 0.79062 0.69947 0.25074 0.0
C1159 C 0.80203 0.67354 0.24593 0.0
H1160 H 0.78324 0.44959 0.82681 0.0
H1161 H 0.78 0.45264 0.73826 0.0
H1162 H 0.81627 0.41686 0.73477 0.0
H1163 H 0.83686 0.37674 0.75743 0.0
H1164 H 0.83685 0.37171 0.84606 0.0
H1165 H 0.81578 0.41722 0.84906 0.0
C1166 C 0.79114 0.44291 0.80678 0.0
C1167 C 0.77837 0.45266 0.78288 0.0
C1168 C 0.81153 0.42203 0.80499 0.0
C1169 C 0.7892 0.44478 0.75694 0.0
C1170 C 0.80991 0.42434 0.75494 0.0
C1171 C 0.83349 0.3862 0.77735 0.0
C1172 C 0.83668 0.37048 0.80145 0.0
C1173 C 0.81961 0.41154 0.7789 0.0
C1174 C 0.8336 0.38315 0.82715 0.0
C1175 C 0.82104 0.40902 0.82891 0.0
H1176 H 0.02892 0.89002 0.92157 0.0
H1177 H 0.02918 0.84512 0.99844 0.0
H1178 H 0.0335 0.88762 0.02349 0.0
H1179 H 0.03712 0.93807 0.02425 0.0
H1180 H 0.03454 0.98358 0.94786 0.0
H1181 H 0.03142 0.94098 0.92247 0.0
C1182 C 0.02984 0.88945 0.94382 0.0
C1183 C 0.02867 0.86383 0.95786 0.0
C1184 C 0.0321 0.91442 0.95841 0.0
C1185 C 0.0299 0.86409 0.9868 0.0
C1186 C 0.03247 0.88858 1.00126 0.0
C1187 C 0.03612 0.9388 1.00201 0.0
C1188 C 0.03647 0.96455 0.98821 0.0
C1189 C 0.03366 0.91395 0.98739 0.0
C1190 C 0.03458 0.96449 0.95931 0.0
C1191 C 0.0327 0.93993 0.94467 0.0
H1192 H 0.96865 0.2749 0.72311 0.0
H1193 H 0.9185 0.25127 0.65538 0.0
H1194 H 0.87884 0.24235 0.68728 0.0
H1195 H 0.85659 0.24971 0.73275 0.0
H1196 H 0.90634 0.27519 0.80009 0.0
H1197 H 0.94859 0.27389 0.77018 0.0
C1198 C 0.94915 0.26736 0.71546 0.0
C1199 C 0.94596 0.26444 0.68706 0.0
C1200 C 0.92658 0.26257 0.73381 0.0
C1201 C 0.92108 0.25397 0.67723 0.0
C1202 C 0.89848 0.24894 0.69542 0.0
C1203 C 0.87686 0.25423 0.74102 0.0
C1204 C 0.87846 0.26321 0.76823 0.0
C1205 C 0.90068 0.25438 0.72353 0.0
C1206 C 0.90472 0.26844 0.77908 0.0
C1207 C 0.92876 0.26801 0.76192 0.0
H1208 H 0.50444 0.19434 0.44151 0.0
H1209 H 0.56782 0.23025 0.49003 0.0
H1210 H 0.57457 0.18701 0.51491 0.0
H1211 H 0.56296 0.13806 0.52308 0.0
H1212 H 0.49967 0.10237 0.4741 0.0
H1213 H 0.49268 0.14569 0.44979 0.0
C1214 C 0.51967 0.19282 0.4576 0.0
C1215 C 0.53549 0.21604 0.46369 0.0
C1216 C 0.52362 0.16752 0.47197 0.0
C1217 C 0.55519 0.21313 0.48468 0.0
C1218 C 0.55912 0.1882 0.49901 0.0
C1219 C 0.54759 0.13968 0.50712 0.0
C1220 C 0.53191 0.1164 0.50074 0.0
C1221 C 0.54355 0.16509 0.49287 0.0
C1222 C 0.51217 0.11947 0.47979 0.0
C1223 C 0.50809 0.14446 0.46572 0.0
H1224 H 0.5698 0.75698 0.20809 0.0
H1225 H 0.62193 0.80013 0.14844 0.0
H1226 H 0.66271 0.79235 0.1768 0.0
H1227 H 0.68204 0.77784 0.22027 0.0
H1228 H 0.63051 0.73531 0.28081 0.0
H1229 H 0.59071 0.73837 0.25019 0.0
C1230 C 0.59017 0.76436 0.20118 0.0
C1231 C 0.59287 0.77936 0.17645 0.0
C1232 C 0.61345 0.76015 0.21775 0.0
C1233 C 0.61934 0.78871 0.16756 0.0
C1234 C 0.64264 0.7843 0.18374 0.0
C1235 C 0.66242 0.76852 0.22661 0.0
C1236 C 0.65921 0.75648 0.25289 0.0
C1237 C 0.63974 0.77065 0.20914 0.0
C1238 C 0.63335 0.74503 0.26082 0.0
C1239 C 0.61065 0.74674 0.24333 0.0
H1240 H 0.08311 0.2517 0.58822 0.0
H1241 H 1.00413 0.24246 0.54867 0.0
H1242 H 0.01961 0.19777 0.5319 0.0
H1243 H 0.04981 0.15771 0.53946 0.0
H1244 H 0.12539 0.16466 0.58506 0.0
H1245 H 0.11756 0.21398 0.58816 0.0
C1246 C 0.06982 0.24039 0.57492 0.0
C1247 C 0.04236 0.24984 0.57009 0.0
C1248 C 0.07802 0.21397 0.56721 0.0
C1249 C 0.02526 0.23523 0.55282 0.0
C1250 C 0.03398 0.2096 0.54354 0.0
C1251 C 0.06472 0.17016 0.54973 0.0
C1252 C 0.08751 0.15772 0.56295 0.0
C1253 C 0.05935 0.19807 0.55244 0.0
C1254 C 0.10744 0.17393 0.57517 0.0
C1255 C 0.10288 0.20204 0.57703 0.0
H1256 H 0.62921 0.31709 0.39347 0.0
H1257 H 0.59352 0.25802 0.34061 0.0
H1258 H 0.63835 0.25356 0.31486 0.0
H1259 H 0.68821 0.26622 0.30719 0.0
H1260 H 0.72333 0.32642 0.35924 0.0
H1261 H 0.67866 0.33054 0.38513 0.0
C1262 C 0.63119 0.30326 0.37628 0.0
C1263 C 0.60776 0.28789 0.36915 0.0
C1264 C 0.65716 0.30094 0.36129 0.0
C1265 C 0.61095 0.27017 0.34668 0.0
C1266 C 0.63671 0.26757 0.3319 0.0
C1267 C 0.68615 0.28025 0.3242 0.0
C1268 C 0.70947 0.29594 0.33112 0.0
C1269 C 0.66005 0.2828 0.33899 0.0
C1270 C 0.70602 0.31407 0.35325 0.0
C1271 C 0.68035 0.31644 0.36817 0.0
H1272 H 0.48387 0.8851 0.09538 0.0
H1273 H 0.55109 0.89605 0.15136 0.0
H1274 H 0.5512 0.94492 0.1405 0.0
H1275 H 0.53697 0.98263 0.10965 0.0
H1276 H 0.47157 0.97024 0.05196 0.0
H1277 H 0.46525 0.92392 0.06954 0.0
C1278 C 0.49834 0.89826 0.1054 0.0
C1279 C 0.51789 0.88714 0.12354 0.0
C1280 C 0.49846 0.92603 0.09885 0.0
C1281 C 0.53611 0.90431 0.13697 0.0
C1282 C 0.53617 0.93217 0.13079 0.0
C1283 C 0.52074 0.97002 0.10166 0.0
C1284 C 0.50494 0.97943 0.07946 0.0
C1285 C 0.51808 0.94306 0.11104 0.0
C1286 C 0.48407 0.96308 0.06896 0.0
C1287 C 0.4806 0.93661 0.07884 0.0
H1288 H 0.93129 0.75909 0.89167 0.0
H1289 H 0.97141 0.81801 0.83782 0.0
H1290 H 0.9305 0.8192 0.80856 0.0
H1291 H 0.88245 0.80403 0.79814 0.0
H1292 H 0.84352 0.74321 0.85076 0.0
H1293 H 0.88434 0.74216 0.8799 0.0
C1294 C 0.93109 0.77226 0.87358 0.0
C1295 C 0.95462 0.78864 0.86731 0.0
C1296 C 0.90749 0.7724 0.85626 0.0
C1297 C 0.95381 0.80522 0.84342 0.0
C1298 C 0.9303 0.8059 0.82655 0.0
C1299 C 0.88296 0.7903 0.81579 0.0
C1300 C 0.85953 0.77364 0.82188 0.0
C1301 C 0.90691 0.78959 0.83267 0.0
C1302 C 0.86097 0.75617 0.84512 0.0
C1303 C 0.88442 0.75564 0.86205 0.0
H1304 H 0.93896 0.10795 0.8353 0.0
H1305 H 0.88527 0.04387 0.86588 0.0
H1306 H 0.91132 0.04088 0.90837 0.0
H1307 H 0.94993 0.05581 0.9362 0.0
H1308 H 1.00542 0.11793 0.90421 0.0
H1309 H 0.97788 0.12255 0.86303 0.0
C1310 C 0.93284 0.09353 0.8514 0.0
C1311 C 0.91027 0.07622 0.84761 0.0
C1312 C 0.94826 0.09151 0.87545 0.0
C1313 C 0.90266 0.0574 0.86842 0.0
C1314 C 0.91755 0.05565 0.89266 0.0
C1315 C 0.95622 0.07015 0.92014 0.0
C1316 C 0.97973 0.0865 0.92344 0.0
C1317 C 0.94058 0.0724 0.89625 0.0
C1318 C 0.98721 0.10534 0.90251 0.0
C1319 C 0.97155 0.10792 0.87883 0.0
H1320 H 0.7931 0.20071 0.61563 0.0
H1321 H 0.80859 0.26959 0.56175 0.0
H1322 H 0.80013 0.30073 0.60049 0.0
H1323 H 0.79013 0.30766 0.65042 0.0
H1324 H 0.77164 0.23781 0.70234 0.0
H1325 H 0.77924 0.20766 0.66351 0.0
C1326 C 0.7948 0.22255 0.6124 0.0
C1327 C 0.80199 0.23295 0.58619 0.0
C1328 C 0.78921 0.24007 0.63436 0.0
C1329 C 0.80335 0.26124 0.58196 0.0
C1330 C 0.79845 0.27897 0.60404 0.0
C1331 C 0.78729 0.28592 0.65304 0.0
C1332 C 0.7809 0.27495 0.67934 0.0
C1333 C 0.79149 0.26856 0.63042 0.0
C1334 C 0.77726 0.2467 0.68247 0.0
C1335 C 0.78153 0.22942 0.66027 0.0
H1336 H 0.6579 0.03756 0.4019 0.0
H1337 H 0.60146 0.97656 0.37434 0.0
H1338 H 0.58124 0.97192 0.42074 0.0
H1339 H 0.57517 0.98974 0.46687 0.0
H1340 H 0.62903 0.05279 0.49434 0.0
H1341 H 0.65564 0.05136 0.4504 0.0
C1342 C 0.64136 0.0231 0.40618 0.0
C1343 C 0.63063 0.00791 0.38479 0.0
C1344 C 0.62959 0.0208 0.43279 0.0
C1345 C 0.60963 0.98884 0.3905 0.0
C1346 C 0.59815 0.98608 0.41698 0.0
C1347 C 0.59312 1.00277 0.4634 0.0
C1348 C 0.59991 0.02172 0.48327 0.0
C1349 C 0.60734 1.00262 0.43797 0.0
C1350 C 0.62347 0.03813 0.47908 0.0
C1351 C 0.63841 0.03753 0.45391 0.0
H1352 H 0.74209 0.87023 0.12561 0.0
H1353 H 0.83092 0.85817 0.10924 0.0
H1354 H 0.83619 0.83796 0.15511 0.0
H1355 H 0.8159 0.82359 0.20063 0.0
H1356 H 0.72648 0.83144 0.21579 0.0
H1357 H 0.72122 0.853 0.17036 0.0
C1358 C 0.7626 0.86314 0.13204 0.0
C1359 C 0.78613 0.86604 0.11361 0.0
C1360 C 0.76543 0.85066 0.15858 0.0
C1361 C 0.8124 0.85633 0.12258 0.0
C1362 C 0.81546 0.84475 0.14902 0.0
C1363 C 0.79522 0.83004 0.19408 0.0
C1364 C 0.77166 0.82598 0.21216 0.0
C1365 C 0.79219 0.84181 0.16733 0.0
C1366 C 0.74507 0.83422 0.20271 0.0
C1367 C 0.74204 0.84665 0.17657 0.0
H1368 H 0.94666 0.03412 0.72162 0.0
H1369 H 0.9407 0.12149 0.7112 0.0
H1370 H 0.97369 0.11902 0.67151 0.0
H1371 H 0.99987 0.09119 0.63689 0.0
H1372 H 1.00089 1.00355 0.64545 0.0
H1373 H 0.97416 0.00688 0.68897 0.0
C1374 C 0.9529 0.05271 0.71097 0.0
C1375 C 0.94124 0.07792 0.71914 0.0
C1376 C 0.97074 0.05098 0.68771 0.0
C1377 C 0.94942 0.10183 0.70514 0.0
C1378 C 0.96814 0.1004 0.68243 0.0
C1379 C 0.99455 0.07293 0.64861 0.0
C1380 C 1.0021 0.04717 0.63817 0.0
C1381 C 0.97828 0.07498 0.67307 0.0
C1382 C 0.99499 0.02355 0.65315 0.0
C1383 C 0.97979 0.02544 0.67797 0.0
H1384 H 0.83831 0.22104 0.44308 0.0
H1385 H 0.76518 0.17172 0.43492 0.0
H1386 H 0.76204 0.18591 0.38661 0.0
H1387 H 0.77723 0.21626 0.34844 0.0
H1388 H 0.84861 0.26749 0.35823 0.0
H1389 H 0.85584 0.24806 0.40404 0.0
C1390 C 0.82178 0.21327 0.43069 0.0
C1391 C 0.80174 0.19577 0.44253 0.0
C1392 C 0.81997 0.22169 0.40321 0.0
C1393 C 0.78066 0.1855 0.42622 0.0
C1394 C 0.7789 0.19354 0.39864 0.0
C1395 C 0.79482 0.22251 0.36036 0.0
C1396 C 0.8124 0.24317 0.35023 0.0
C1397 C 0.79809 0.2121 0.3871 0.0
C1398 C 0.83486 0.25156 0.36584 0.0
C1399 C 0.83886 0.24063 0.39203 0.0
H1400 H 0.6382 0.0195 0.21466 0.0
H1401 H 0.56914 0.04675 0.26755 0.0
H1402 H 0.54622 0.06814 0.22794 0.0
H1403 H 0.54659 0.07934 0.17795 0.0
H1404 H 0.61735 0.05346 0.12673 0.0
H1405 H 0.63955 0.03193 0.16627 0.0
C1406 C 0.61788 0.02969 0.21747 0.0
C1407 C 0.60504 0.0312 0.24372 0.0
C1408 C 0.60564 0.04279 0.19507 0.0
C1409 C 0.57911 0.04507 0.24729 0.0
C1410 C 0.56622 0.05752 0.22478 0.0
C1411 C 0.56713 0.06951 0.17582 0.0
C1412 C 0.58054 0.06793 0.14979 0.0
C1413 C 0.57952 0.05682 0.19861 0.0
C1414 C 0.6069 0.05481 0.1468 0.0
C1415 C 0.6194 0.04235 0.16924 0.0
H1416 H 0.78928 0.89645 0.93095 0.0
H1417 H 0.7734 0.8232 0.97841 0.0
H1418 H 0.76761 0.79793 0.93602 0.0
H1419 H 0.76727 0.79602 0.885 0.0
H1420 H 0.78394 0.86893 0.83726 0.0
H1421 H 0.78889 0.89452 0.87966 0.0
C1422 C 0.78465 0.87492 0.93208 0.0
C1423 C 0.78194 0.86192 0.95829 0.0
C1424 C 0.78123 0.86029 0.90729 0.0
C1425 C 0.77577 0.83395 0.95889 0.0
C1426 C 0.77235 0.8194 0.93449 0.0
C1427 C 0.77167 0.81759 0.88376 0.0
C1428 C 0.77487 0.83037 0.85749 0.0
C1429 C 0.77496 0.83228 0.9085 0.0
C1430 C 0.78107 0.85835 0.85682 0.0
C1431 C 0.78405 0.87307 0.88123 0.0
H1432 H 0.87749 0.93711 0.0641 0.0
H1433 H 0.83968 0.98599 1.00035 0.0
H1434 H 0.8812 0.01472 0.99746 0.0
H1435 H 0.92955 0.0256 0.0123 0.0
H1436 H 0.96553 0.97758 0.07796 0.0
H1437 H 0.92398 0.9496 0.08081 0.0
C1438 C 0.87824 0.95408 0.04959 0.0
C1439 C 0.85524 0.95906 0.03234 0.0
C1440 C 0.90216 0.97099 0.04838 0.0
C1441 C 0.85683 0.98145 0.01391 0.0
C1442 C 0.88072 0.99798 0.01222 0.0
C1443 C 0.92821 0.00924 0.02747 0.0
C1444 C 0.95114 0.00408 0.04491 0.0
C1445 C 0.9037 0.99296 0.02928 0.0
C1446 C 0.94858 0.98249 0.06427 0.0
C1447 C 0.92468 0.96621 0.06589 0.0
H1448 H 0.38132 0.64115 0.97327 0.0
H1449 H 0.33922 0.56833 1.0007 0.0
H1450 H 0.38028 0.54047 0.98589 0.0
H1451 H 0.42999 0.5383 0.97109 0.0
H1452 H 0.4718 0.61188 0.94477 0.0
H1453 H 0.42819 0.63809 0.95183 0.0
C1454 C 0.38123 0.61915 0.97598 0.0
C1455 C 0.35809 0.60663 0.98885 0.0
C1456 C 0.40445 0.60356 0.96712 0.0
C1457 C 0.35736 0.57819 0.99136 0.0
C1458 C 0.38064 0.56237 0.98276 0.0
C1459 C 0.42931 0.55989 0.96598 0.0
C1460 C 0.45406 0.57334 0.95801 0.0
C1461 C 0.40457 0.57498 0.9713 0.0
C1462 C 0.45296 0.60124 0.95126 0.0
C1463 C 0.42818 0.61627 0.95562 0.0
H1464 H 0.22084 0.57316 0.74288 0.0
H1465 H 0.16891 0.60568 0.80963 0.0
H1466 H 0.17763 0.65195 0.793 0.0
H1467 H 0.20165 0.6828 0.76107 0.0
H1468 H 0.25686 0.651 0.6967 0.0
H1469 H 0.24392 0.60445 0.70984 0.0
C1470 C 0.21152 0.5904 0.75381 0.0
C1471 C 0.19457 0.58617 0.7776 0.0
C1472 C 0.21672 0.61686 0.74423 0.0
C1473 C 0.18234 0.60855 0.79146 0.0
C1474 C 0.18712 0.63493 0.78186 0.0
C1475 C 0.21081 0.66565 0.7499 0.0
C1476 C 0.23053 0.67015 0.72836 0.0
C1477 C 0.20447 0.63925 0.75848 0.0
C1478 C 0.24157 0.64795 0.71335 0.0
C1479 C 0.2345 0.6214 0.72112 0.0
H1480 H 0.18782 0.42871 0.5122 0.0
H1481 H 0.22444 0.48218 0.57011 0.0
H1482 H 0.18001 0.50824 0.5743 0.0
H1483 H 0.13007 0.51628 0.56111 0.0
H1484 H 0.09515 0.46321 0.50152 0.0
H1485 H 0.139 0.43701 0.49857 0.0
C1486 C 0.18614 0.44604 0.52579 0.0
C1487 C 0.20967 0.45328 0.54085 0.0
C1488 C 0.16053 0.46124 0.52783 0.0
C1489 C 0.20686 0.47601 0.5582 0.0
C1490 C 0.18134 0.49098 0.56064 0.0
C1491 C 0.13204 0.49897 0.54752 0.0
C1492 C 0.10894 0.49197 0.53157 0.0
C1493 C 0.1579 0.48387 0.54551 0.0
C1494 C 0.11228 0.46941 0.51401 0.0
C1495 C 0.1375 0.45424 0.51229 0.0
H1496 H 0.82788 0.99065 0.79067 0.0
H1497 H 0.85134 0.00611 0.7055 0.0
H1498 H 0.8417 0.95872 0.69447 0.0
H1499 H 0.82966 0.91229 0.71011 0.0
H1500 H 0.80617 0.89823 0.79562 0.0
H1501 H 0.81353 0.9457 0.80559 0.0
C1502 C 0.83065 0.98373 0.76963 0.0
C1503 C 0.84044 1.00155 0.74896 0.0
C1504 C 0.82563 0.95666 0.76364 0.0
C1505 C 0.84375 0.99255 0.72173 0.0
C1506 C 0.83845 0.9655 0.71547 0.0
C1507 C 0.82602 0.91974 0.73084 0.0
C1508 C 0.81799 0.90167 0.75213 0.0
C1509 C 0.8299 0.94727 0.73643 0.0
C1510 C 0.81327 0.91147 0.77897 0.0
C1511 C 0.8171 0.93872 0.78468 0.0
H1512 H 0.70877 0.16706 0.54899 0.0
H1513 H 0.76267 0.10046 0.57522 0.0
H1514 H 0.72207 0.07688 0.59529 0.0
H1515 H 0.67069 0.07328 0.60109 0.0
H1516 H 0.61706 0.13868 0.57244 0.0
H1517 H 0.65812 0.16516 0.55814 0.0
C1518 C 0.71164 0.14746 0.55923 0.0
C1519 C 0.73849 0.13529 0.5603 0.0
C1520 C 0.68828 0.13399 0.57047 0.0
C1521 C 0.74205 0.11006 0.5739 0.0
C1522 C 0.7189 0.09661 0.58544 0.0
C1523 C 0.66823 0.09367 0.5925 0.0
C1524 C 0.64124 0.10429 0.58785 0.0
C1525 C 0.69187 0.10815 0.58337 0.0
C1526 C 0.63789 0.13042 0.57619 0.0
C1527 C 0.66125 0.14535 0.56785 0.0
H1528 H 0.20361 0.4296 0.8408 0.0
H1529 H 0.26579 0.4672 0.78735 0.0
H1530 H 0.2949 0.42528 0.78841 0.0
H1531 H 0.29618 0.37541 0.79591 0.0
H1532 H 0.23097 0.33796 0.84607 0.0
H1533 H 0.20976 0.38254 0.85585 0.0
C1534 C 0.22394 0.42872 0.83003 0.0
C1535 C 0.23251 0.45069 0.81347 0.0
C1536 C 0.23977 0.40458 0.8301 0.0
C1537 C 0.25894 0.45008 0.79998 0.0
C1538 C 0.27537 0.42616 0.80047 0.0
C1539 C 0.27795 0.37726 0.80977 0.0
C1540 C 0.26462 0.35378 0.81983 0.0
C1541 C 0.26514 0.40282 0.81416 0.0
C1542 C 0.24109 0.35601 0.83779 0.0
C1543 C 0.22896 0.38139 0.84328 0.0
H1544 H 0.34594 0.62192 0.23891 0.0
H1545 H 0.42236 0.65182 0.27192 0.0
H1546 H 0.3976 0.69321 0.28713 0.0
H1547 H 0.35472 0.72128 0.29015 0.0
H1548 H 0.27916 0.69385 0.25361 0.0
H1549 H 0.30292 0.65077 0.24104 0.0
C1550 C 0.35711 0.63758 0.24936 0.0
C1551 C 0.38587 0.63396 0.25425 0.0
C1552 C 0.34285 0.66151 0.25769 0.0
C1553 C 0.40024 0.65433 0.26771 0.0
C1554 C 0.38608 0.67789 0.27659 0.0
C1555 C 0.34333 0.70562 0.2799 0.0
C1556 C 0.31519 0.71032 0.27322 0.0
C1557 C 0.35742 0.68166 0.2717 0.0
C1558 C 0.3008 0.69036 0.25921 0.0
C1559 C 0.31441 0.6659 0.25188 0.0
H1560 H 0.51305 0.71418 0.58743 0.0
H1561 H 0.56273 0.68845 0.65607 0.0
H1562 H 0.56156 0.64119 0.64093 0.0
H1563 H 0.54695 0.60615 0.60759 0.0
H1564 H 0.49709 0.63224 0.53911 0.0
H1565 H 0.49771 0.67919 0.55475 0.0
C1566 C 0.52373 0.6983 0.59909 0.0
C1567 C 0.53813 0.70546 0.62298 0.0
C1568 C 0.5228 0.67064 0.5903 0.0
C1569 C 0.55154 0.68408 0.63763 0.0
C1570 C 0.55083 0.65678 0.62897 0.0
C1571 C 0.53588 0.62199 0.59624 0.0
C1572 C 0.52178 0.61497 0.57207 0.0
C1573 C 0.5365 0.64962 0.6053 0.0
C1574 C 0.50804 0.6364 0.55774 0.0
C1575 C 0.50846 0.66357 0.56666 0.0
H1576 H 0.63464 0.3181 0.84518 0.0
H1577 H 0.66171 0.26785 0.91332 0.0
H1578 H 0.71041 0.28011 0.90359 0.0
H1579 H 0.74531 0.29938 0.87213 0.0
H1580 H 0.71947 0.34437 0.79997 0.0
H1581 H 0.6702 0.34086 0.81534 0.0
C1582 C 0.65126 0.3102 0.85802 0.0
C1583 C 0.64491 0.29185 0.87962 0.0
C1584 C 0.67933 0.31649 0.85163 0.0
C1585 C 0.66637 0.28165 0.89626 0.0
C1586 C 0.69412 0.28875 0.89081 0.0
C1587 C 0.72899 0.3091 0.86009 0.0
C1588 C 0.7359 0.32186 0.83484 0.0
C1589 C 0.70089 0.30539 0.86803 0.0
C1590 C 0.71455 0.33429 0.81945 0.0
C1591 C 0.68641 0.33205 0.82808 0.0
H1592 H 0.01306 0.35327 0.08191 0.0
H1593 H 0.06289 0.37887 0.14904 0.0
H1594 H 0.06435 0.42501 0.12966 0.0
H1595 H 0.05142 0.45913 0.09363 0.0
H1596 H 0.99951 0.43442 0.0277 0.0
H1597 H 0.99899 0.38791 0.04638 0.0
C1598 C 0.0243 0.36889 0.0923 0.0
C1599 C 0.03796 0.36207 0.11709 0.0
C1600 C 0.0247 0.39602 0.08115 0.0
C1601 C 0.05214 0.38307 0.13008 0.0
C1602 C 0.05302 0.40969 0.11893 0.0
C1603 C 0.04001 0.44362 0.08325 0.0
C1604 C 0.02564 0.45078 0.05896 0.0
C1605 C 0.03938 0.41657 0.09447 0.0
C1606 C 0.01084 0.42999 0.04627 0.0
C1607 C 0.01053 0.40314 0.05701 0.0
H1608 H 1.00372 0.80102 0.34775 0.0
H1609 H 0.95893 0.75131 0.40776 0.0
H1610 H 0.91589 0.75734 0.38215 0.0
H1611 H 0.89057 0.779 0.34457 0.0
H1612 H 0.93479 0.82926 0.28474 0.0
H1613 H 0.97865 0.82094 0.30866 0.0
C1614 C 0.98458 0.79133 0.35508 0.0
C1615 C 0.9844 0.77586 0.37963 0.0
C1616 C 0.95988 0.79515 0.34046 0.0
C1617 C 0.95952 0.76341 0.38894 0.0
C1618 C 0.93493 0.76686 0.37435 0.0
C1619 C 0.90987 0.78772 0.33641 0.0
C1620 C 0.90945 0.80472 0.3129 0.0
C1621 C 0.93481 0.78298 0.35032 0.0
C1622 C 0.93456 0.81634 0.30298 0.0
C1623 C 0.95962 0.81151 0.31658 0.0
H1624 H 0.55669 0.33282 0.96784 0.0
H1625 H 0.48079 0.31903 0.92433 0.0
H1626 H 0.45906 0.36006 0.94441 0.0
H1627 H 0.46496 0.40349 0.96796 0.0
H1628 H 0.54199 0.41809 0.00906 0.0
H1629 H 0.56002 0.37283 0.99658 0.0
C1630 C 0.53523 0.33858 0.96311 0.0
C1631 C 0.52052 0.32346 0.94425 0.0
C1632 C 0.52324 0.36239 0.97411 0.0
C1633 C 0.49258 0.33068 0.93861 0.0
C1634 C 0.48021 0.35414 0.94999 0.0
C1635 C 0.48531 0.39635 0.97481 0.0
C1636 C 0.50242 0.41401 0.9889 0.0
C1637 C 0.49579 0.3707 0.96685 0.0
C1638 C 0.52881 0.40481 0.99769 0.0
C1639 C 0.53908 0.37904 0.99057 0.0
H1640 H 0.93686 0.26521 0.17736 0.0
H1641 H 0.97997 0.31228 0.23649 0.0
H1642 H 0.93636 0.31763 0.2641 0.0
H1643 H 0.88539 0.3089 0.27185 0.0
H1644 H 0.84328 0.25931 0.21401 0.0
H1645 H 0.88653 0.25509 0.18594 0.0
C1646 C 0.93674 0.27666 0.19628 0.0
C1647 C 0.96191 0.28841 0.20462 0.0
C1648 C 0.91151 0.27923 0.21249 0.0
C1649 C 0.96114 0.30295 0.22943 0.0
C1650 C 0.93608 0.30607 0.24529 0.0
C1651 C 0.88564 0.29719 0.25309 0.0
C1652 C 0.86075 0.28453 0.2452 0.0
C1653 C 0.91103 0.29431 0.23709 0.0
C1654 C 0.86186 0.26926 0.22083 0.0
C1655 C 0.88672 0.26684 0.20463 0.0
H1656 H 0.05735 0.67491 0.4287 0.0
H1657 H 0.07198 0.71299 0.50634 0.0
H1658 H 0.07394 0.66829 0.52906 0.0
H1659 H 0.06744 0.61919 0.52749 0.0
H1660 H 0.05057 0.5811 0.45031 0.0
H1661 H 0.0542 0.62517 0.42656 0.0
C1662 C 0.06117 0.6734 0.45056 0.0
C1663 C 0.06418 0.69714 0.46594 0.0
C1664 C 0.06195 0.64773 0.46348 0.0
C1665 C 0.06936 0.69495 0.49416 0.0
C1666 C 0.07051 0.66944 0.50712 0.0
C1667 C 0.06497 0.62039 0.50539 0.0
C1668 C 0.0585 0.59697 0.49071 0.0
C1669 C 0.06628 0.64579 0.49207 0.0
C1670 C 0.0555 0.59887 0.46208 0.0
C1671 C 0.05739 0.62406 0.44853 0.0
H1672 H 0.63483 0.8126 0.68233 0.0
H1673 H 0.592 0.75504 0.73565 0.0
H1674 H 0.63259 0.75222 0.76529 0.0
H1675 H 0.68119 0.7656 0.77619 0.0
H1676 H 0.7226 0.82535 0.7241 0.0
H1677 H 0.68218 0.82784 0.69461 0.0
C1678 C 0.63436 0.79939 0.7004 0.0
C1679 C 0.61017 0.78389 0.70642 0.0
C1680 C 0.65776 0.79833 0.71795 0.0
C1681 C 0.61012 0.76721 0.73028 0.0
C1682 C 0.63346 0.76558 0.74735 0.0
C1683 C 0.68131 0.7794 0.75858 0.0
C1684 C 0.70533 0.7953 0.75275 0.0
C1685 C 0.65752 0.78103 0.74148 0.0
C1686 C 0.70469 0.81292 0.72955 0.0
C1687 C 0.68146 0.8143 0.71241 0.0
H1688 H 0.67624 0.51069 0.69479 0.0
H1689 H 0.63578 0.44356 0.73707 0.0
H1690 H 0.60065 0.44238 0.70151 0.0
H1691 H 0.57924 0.46328 0.66105 0.0
H1692 H 0.62091 0.52964 0.6182 0.0
H1693 H 0.65739 0.5286 0.65187 0.0
C1694 C 0.65997 0.49554 0.696 0.0
C1695 C 0.65839 0.4774 0.71854 0.0
C1696 C 0.63973 0.49521 0.67578 0.0
C1697 C 0.63739 0.45773 0.71983 0.0
C1698 C 0.61719 0.45719 0.69965 0.0
C1699 C 0.59643 0.47729 0.65872 0.0
C1700 C 0.59678 0.49682 0.63722 0.0
C1701 C 0.61779 0.4763 0.67791 0.0
C1702 C 0.61936 0.51487 0.63485 0.0
C1703 C 0.64054 0.51413 0.65398 0.0
H1704 H 0.80283 0.38223 0.98832 0.0
H1705 H 0.75795 0.31528 0.02575 0.0
H1706 H 0.77972 0.28394 0.99179 0.0
H1707 H 0.8077 0.27733 0.94833 0.0
H1708 H 0.85225 0.34509 0.91212 0.0
H1709 H 0.83505 0.37456 0.94931 0.0
C1710 C 0.79786 0.36073 0.98903 0.0
C1711 C 0.77836 0.35099 0.00876 0.0
C1712 C 0.81064 0.34313 0.96993 0.0
C1713 C 0.77267 0.32309 0.01029 0.0
C1714 C 0.78513 0.30528 0.99098 0.0
C1715 C 0.81428 0.2983 0.94922 0.0
C1716 C 0.83101 0.30927 0.92764 0.0
C1717 C 0.80371 0.31523 0.97034 0.0
C1718 C 0.83926 0.33649 0.92861 0.0
C1719 C 0.82928 0.3533 0.94966 0.0
H1720 H 0.90925 0.54318 0.164 0.0
H1721 H 0.97959 0.58479 0.19694 0.0
H1722 H 1.0016 0.58793 0.1512 0.0
H1723 H 1.00303 0.57512 0.10348 0.0
H1724 H 0.9355 0.52974 0.07032 0.0
H1725 H 0.90937 0.53289 0.11449 0.0
C1726 C 0.92934 0.55299 0.16105 0.0
C1727 C 0.9431 0.56332 0.18366 0.0
C1728 C 0.94209 0.55434 0.13479 0.0
C1729 C 0.96892 0.57628 0.17978 0.0
C1730 C 0.9814 0.57826 0.15368 0.0
C1731 C 0.98241 0.56619 0.10577 0.0
C1732 C 0.97133 0.55178 0.08408 0.0
C1733 C 0.96845 0.56684 0.13126 0.0
C1734 C 0.9444 0.54085 0.08695 0.0
C1735 C 0.92967 0.54236 0.11222 0.0
H1736 H 0.82105 0.70516 0.44931 0.0
H1737 H 0.73241 0.71607 0.4676 0.0
H1738 H 0.72616 0.73798 0.42265 0.0
H1739 H 0.74553 0.75408 0.37738 0.0
H1740 H 0.83478 0.74743 0.36057 0.0
H1741 H 0.84102 0.72424 0.40504 0.0
C1742 C 0.80037 0.71238 0.44349 0.0
C1743 C 0.77719 0.70865 0.46213 0.0
C1744 C 0.79697 0.72586 0.41756 0.0
C1745 C 0.75068 0.71855 0.45403 0.0
C1746 C 0.74705 0.7311 0.42813 0.0
C1747 C 0.76638 0.74756 0.3834 0.0
C1748 C 0.78961 0.75243 0.36519 0.0
C1749 C 0.76998 0.73485 0.40961 0.0
C1750 C 0.81645 0.74407 0.37386 0.0
C1751 C 0.82004 0.7307 0.39942 0.0
H1752 H 0.62101 0.53105 0.83227 0.0
H1753 H 0.64346 0.45062 0.8624 0.0
H1754 H 0.60786 0.4551 0.8998 0.0
H1755 H 0.5737 0.48402 0.92621 0.0
H1756 H 0.55565 0.56596 0.89762 0.0
H1757 H 0.58613 0.55872 0.85694 0.0
C1758 C 0.61797 0.5143 0.84681 0.0
C1759 C 0.63489 0.49059 0.84475 0.0
C1760 C 0.59833 0.51741 0.8685 0.0
C1761 C 0.63069 0.46911 0.8637 0.0
C1762 C 0.61042 0.47171 0.88506 0.0
C1763 C 0.57612 0.50001 0.91073 0.0
C1764 C 0.56257 0.52545 0.91463 0.0
C1765 C 0.59458 0.49605 0.88799 0.0
C1766 C 0.56604 0.54628 0.89488 0.0
C1767 C 0.58345 0.54216 0.87173 0.0
H1768 H 0.71683 0.36453 0.14268 0.0
H1769 H 0.77606 0.42806 0.15537 0.0
H1770 H 0.78444 0.41027 0.20178 0.0
H1771 H 0.78063 0.37202 0.23516 0.0
H1772 H 0.72327 0.3073 0.22011 0.0
H1773 H 0.7082 0.33033 0.1783 0.0
C1774 C 0.73118 0.37477 0.15582 0.0
C1775 C 0.74627 0.3971 0.14563 0.0
C1776 C 0.73645 0.36401 0.18189 0.0
C1777 C 0.7644 0.41061 0.16287 0.0
C1778 C 0.76932 0.40036 0.18928 0.0
C1779 C 0.76442 0.36336 0.22298 0.0
C1780 C 0.75349 0.33783 0.23021 0.0
C1781 C 0.75637 0.37635 0.1985 0.0
C1782 C 0.73238 0.32673 0.2145 0.0
C1783 C 0.72371 0.33986 0.19065 0.0
H1784 H 0.97577 0.52045 0.31556 0.0
H1785 H 0.92732 0.58567 0.35409 0.0
H1786 H 0.94498 0.57205 0.39889 0.0
H1787 H 0.97149 0.54021 0.42701 0.0
H1788 H 0.02095 0.47533 0.38925 0.0
H1789 H 1.00456 0.48964 0.34394 0.0
C1790 C 0.96945 0.53192 0.33372 0.0
C1791 C 0.95033 0.55399 0.33167 0.0
C1792 C 0.97927 0.52369 0.35941 0.0
C1793 C 0.94208 0.56861 0.35527 0.0
C1794 C 0.952 0.56075 0.38085 0.0
C1795 C 0.97916 0.52944 0.40888 0.0
C1796 C 0.9976 0.5069 0.41143 0.0
C1797 C 0.97019 0.53808 0.38314 0.0
C1798 C 1.00654 0.49261 0.3878 0.0
C1799 C 0.99741 0.50094 0.36193 0.0
H1800 H 0.77464 0.67297 0.64293 0.0
H1801 H 0.7924 0.74649 0.59657 0.0
H1802 H 0.7983 0.77106 0.63932 0.0
H1803 H 0.79817 0.77233 0.6903 0.0
H1804 H 0.77957 0.69927 0.73709 0.0
H1805 H 0.77458 0.67426 0.69431 0.0
C1806 C 0.77971 0.6944 0.64212 0.0
C1807 C 0.78292 0.70769 0.61611 0.0
C1808 C 0.78318 0.70864 0.66714 0.0
C1809 C 0.78964 0.73552 0.61592 0.0
C1810 C 0.79312 0.74968 0.64054 0.0
C1811 C 0.79333 0.75085 0.69127 0.0
C1812 C 0.78961 0.73785 0.71736 0.0
C1813 C 0.79001 0.73653 0.66633 0.0
C1814 C 0.78287 0.71 0.71767 0.0
C1815 C 0.77986 0.69562 0.69304 0.0
H1816 H 0.68724 0.6371 0.50618 0.0
H1817 H 0.72157 0.5865 0.57058 0.0
H1818 H 0.67914 0.55904 0.57191 0.0
H1819 H 0.63113 0.54978 0.55556 0.0
H1820 H 0.59819 0.59939 0.48953 0.0
H1821 H 0.64074 0.62622 0.48803 0.0
C1822 C 0.68553 0.62002 0.52049 0.0
C1823 C 0.70784 0.61417 0.53839 0.0
C1824 C 0.66106 0.60386 0.52082 0.0
C1825 C 0.705 0.59168 0.55654 0.0
C1826 C 0.68059 0.5759 0.55733 0.0
C1827 C 0.63333 0.56625 0.5406 0.0
C1828 C 0.61103 0.57224 0.52262 0.0
C1829 C 0.65832 0.58179 0.53965 0.0
C1830 C 0.61467 0.59391 0.50356 0.0
C1831 C 0.63913 0.6095 0.50275 0.0
H1832 H 0.17328 0.92626 0.56482 0.0
H1833 H 0.22071 0.99899 0.57626 0.0
H1834 H 0.17783 0.02339 0.59174 0.0
H1835 H 0.12672 0.02515 0.59612 0.0
H1836 H 0.07924 0.95293 0.58172 0.0
H1837 H 0.1228 0.92657 0.57479 0.0
C1838 C 0.1742 0.94747 0.5707 0.0
C1839 C 0.19969 0.96121 0.56869 0.0
C1840 C 0.14971 0.96115 0.57951 0.0
C1841 C 0.20101 0.98832 0.57717 0.0
C1842 C 0.17663 1.00215 0.58616 0.0
C1843 C 0.12586 1.0035 0.59208 0.0
C1844 C 0.09993 0.99112 0.58858 0.0
C1845 C 0.15081 0.98891 0.58667 0.0
C1846 C 0.09906 0.96296 0.58406 0.0
C1847 C 0.1239 0.94797 0.57978 0.0
H1848 H 0.33186 0.98759 0.81017 0.0
H1849 H 0.38145 0.95775 0.74054 0.0
H1850 H 0.36939 0.91112 0.75281 0.0
H1851 H 0.34603 0.87909 0.78354 0.0
H1852 H 0.29376 0.90777 0.85163 0.0
H1853 H 0.30687 0.95482 0.84062 0.0
C1854 C 0.33966 0.97087 0.79751 0.0
C1855 C 0.3574 0.97598 0.77447 0.0
C1856 C 0.33283 0.94405 0.80481 0.0
C1857 C 0.36766 0.95424 0.75833 0.0
C1858 C 0.36098 0.9276 0.76543 0.0
C1859 C 0.33722 0.89562 0.79584 0.0
C1860 C 0.31867 0.89007 0.81808 0.0
C1861 C 0.34383 0.92233 0.78871 0.0
C1862 C 0.30824 0.91158 0.83447 0.0
C1863 C 0.31542 0.93844 0.82796 0.0
H1864 H 0.37762 0.14278 0.05707 0.0
H1865 H 0.34078 0.0878 1.00072 0.0
H1866 H 0.38567 0.06269 0.99569 0.0
H1867 H 0.43599 0.0559 0.00773 0.0
H1868 H 0.47132 0.11047 0.06568 0.0
H1869 H 0.42697 0.13581 0.06945 0.0
C1870 C 0.37935 0.12531 0.04365 0.0
C1871 C 0.35565 0.11734 0.02929 0.0
C1872 C 0.40524 0.11071 0.04109 0.0
C1873 C 0.35851 0.0945 0.01211 0.0
C1874 C 0.38429 0.08009 0.00918 0.0
C1875 C 0.434 0.07338 0.02111 0.0
C1876 C 0.45731 0.08107 0.03638 0.0
C1877 C 0.40791 0.08793 0.0236 0.0
C1878 C 0.454 0.10379 0.05371 0.0
C1879 C 0.4285 0.11844 0.05591 0.0
H1880 H 0.69521 0.59049 0.78589 0.0
H1881 H 0.75472 0.55574 0.84236 0.0
H1882 H 0.76579 0.60129 0.85803 0.0
H1883 H 0.76052 0.65084 0.85339 0.0
H1884 H 0.70068 0.68546 0.79728 0.0
H1885 H 0.68736 0.63984 0.78386 0.0
C1886 C 0.71064 0.59294 0.80158 0.0
C1887 C 0.72448 0.57005 0.81272 0.0
C1888 C 0.71663 0.619 0.81062 0.0
C1889 C 0.74402 0.57326 0.83339 0.0
C1890 C 0.75028 0.59921 0.84239 0.0
C1891 C 0.7441 0.64837 0.83875 0.0
C1892 C 0.73171 0.67132 0.82615 0.0
C1893 C 0.73688 0.6222 0.83094 0.0
C1894 C 0.71071 0.66793 0.80692 0.0
C1895 C 0.70315 0.64195 0.79924 0.0
H1896 H 0.81043 0.47169 0.00866 0.0
H1897 H 0.85002 0.41909 0.06872 0.0
H1898 H 0.89618 0.43119 0.05011 0.0
H1899 H 0.92514 0.45667 0.0174 0.0
H1900 H 0.88691 0.51192 0.95913 0.0
H1901 H 0.84014 0.49775 0.97547 0.0
C1902 C 0.8292 0.46312 0.0178 0.0
C1903 C 0.82689 0.44472 0.04016 0.0
C1904 C 0.85576 0.47013 0.00695 0.0
C1905 C 0.85129 0.43347 0.05164 0.0
C1906 C 0.87767 0.4402 0.0409 0.0
C1907 C 0.90658 0.46575 0.00835 0.0
C1908 C 0.90942 0.48559 0.98743 0.0
C1909 C 0.88009 0.45846 0.01861 0.0
C1910 C 0.88524 0.4965 0.9752 0.0
C1911 C 0.85855 0.48867 0.98479 0.0
H1912 H 0.31305 0.11272 0.75777 0.0
H1913 H 0.39595 0.14242 0.73751 0.0
H1914 H 0.37686 0.18836 0.7312 0.0
H1915 H 0.33853 0.22069 0.73884 0.0
H1916 H 0.25618 0.19263 0.7637 0.0
H1917 H 0.2728 0.14527 0.75972 0.0
C1918 C 0.32672 0.12925 0.75154 0.0
C1919 C 0.3558 0.12458 0.74874 0.0
C1920 C 0.31573 0.1558 0.74875 0.0
C1921 C 0.3735 0.14586 0.7404 0.0
C1922 C 0.36263 0.17205 0.73666 0.0
C1923 C 0.32405 0.20421 0.74287 0.0
C1924 C 0.2965 0.20994 0.75223 0.0
C1925 C 0.33404 0.17738 0.74192 0.0
C1926 C 0.27768 0.18856 0.75673 0.0
C1927 C 0.28722 0.16153 0.75473 0.0
H1928 H 0.21353 0.95122 0.26846 0.0
H1929 H 0.21017 0.94361 0.35703 0.0
H1930 H 0.23942 0.9021 0.3545 0.0
H1931 H 0.26196 0.86579 0.32688 0.0
H1932 H 0.26174 0.87164 0.23822 0.0
H1933 H 0.23816 0.91625 0.24096 0.0
C1934 C 0.21954 0.94066 0.2872 0.0
C1935 C 0.20967 0.95026 0.31286 0.0
C1936 C 0.2356 0.91648 0.28554 0.0
C1937 C 0.21742 0.9364 0.33702 0.0
C1938 C 0.23412 0.91271 0.33559 0.0
C1939 C 0.2572 0.8771 0.3082 0.0
C1940 C 0.26346 0.86555 0.28241 0.0
C1941 C 0.24277 0.90224 0.30993 0.0
C1942 C 0.25695 0.88017 0.25831 0.0
C1943 C 0.24344 0.90561 0.25986 0.0
H1944 H 0.53662 0.39463 0.42249 0.0
H1945 H 0.52775 0.3503 0.49934 0.0
H1946 H 0.53151 0.3927 0.52471 0.0
H1947 H 0.53682 0.44312 0.52563 0.0
H1948 H 0.54371 0.48772 0.44875 0.0
H1949 H 0.54143 0.44515 0.4234 0.0
C1950 C 0.53547 0.39417 0.44479 0.0
C1951 C 0.53184 0.3688 0.45875 0.0
C1952 C 0.53746 0.41902 0.45951 0.0
C1953 C 0.53042 0.36913 0.48777 0.0
C1954 C 0.53265 0.39356 0.50241 0.0
C1955 C 0.53814 0.44359 0.50333 0.0
C1956 C 0.54081 0.46908 0.48937 0.0
C1957 C 0.5362 0.41874 0.4886 0.0
C1958 C 0.54189 0.46879 0.46034 0.0
C1959 C 0.54049 0.44427 0.4457 0.0
H1960 H 0.45899 0.80877 0.21232 0.0
H1961 H 0.42218 0.7875 0.1357 0.0
H1962 H 0.37558 0.78705 0.15825 0.0
H1963 H 0.34567 0.79176 0.19991 0.0
H1964 H 0.3828 0.81296 0.2765 0.0
H1965 H 0.42899 0.81473 0.25359 0.0
C1966 C 0.44077 0.80397 0.20058 0.0
C1967 C 0.44392 0.79801 0.17251 0.0
C1968 C 0.41415 0.80394 0.21358 0.0
C1969 C 0.42019 0.79206 0.15742 0.0
C1970 C 0.39358 0.79186 0.17026 0.0
C1971 C 0.36382 0.79704 0.21153 0.0
C1972 C 0.36085 0.8022 0.23983 0.0
C1973 C 0.39035 0.79772 0.19833 0.0
C1974 C 0.38455 0.8089 0.25466 0.0
C1975 C 0.41099 0.80982 0.24162 0.0
H1976 H 0.01065 0.68523 0.9257 0.0
H1977 H 0.05064 0.72215 0.99374 0.0
H1978 H 0.05353 0.67778 0.0174 0.0
H1979 H 0.04463 0.62762 0.01923 0.0
H1980 H 1.00176 0.59178 0.95223 0.0
H1981 H 1.00018 0.6358 0.92827 0.0
C1982 C 0.02001 0.68366 0.94572 0.0
C1983 C 0.03051 0.70747 0.95766 0.0
C1984 C 0.02113 0.65786 0.95965 0.0
C1985 C 0.04231 0.70456 0.98382 0.0
C1986 C 0.04402 0.67899 0.99745 0.0
C1987 C 0.03496 0.62937 0.99937 0.0
C1988 C 0.02341 0.60583 0.98776 0.0
C1989 C 0.03352 0.65534 0.98565 0.0
C1990 C 0.01081 0.6091 0.96199 0.0
C1991 C 0.0099 0.63448 0.94812 0.0
H1992 H 0.08405 0.31897 0.69306 0.0
H1993 H 0.06907 0.23292 0.68616 0.0
H1994 H 0.10508 0.22262 0.71962 0.0
H1995 H 0.14147 0.23796 0.74989 0.0
H1996 H 0.15689 0.32379 0.75684 0.0
H1997 H 0.1199 0.33438 0.72429 0.0
C1998 C 0.08874 0.29797 0.69885 0.0
C1999 C 0.07406 0.27673 0.68712 0.0
C2000 C 0.10938 0.2922 0.71816 0.0
C2001 C 0.08019 0.24962 0.69488 0.0
C2002 C 0.1007 0.24371 0.71404 0.0
C2003 C 0.13637 0.25899 0.7447 0.0
C2004 C 0.15173 0.28009 0.75583 0.0
C2005 C 0.11541 0.26483 0.7258 0.0
C2006 C 0.14536 0.30724 0.7484 0.0
C2007 C 0.12427 0.31327 0.72982 0.0
H2008 H 0.50643 0.72029 0.08941 0.0
H2009 H 0.56285 0.77392 0.04493 0.0
H2010 H 0.57397 0.73794 0.01147 0.0
H2011 H 0.56915 0.68999 0.99658 0.0
H2012 H 0.51335 0.63744 0.04344 0.0
H2013 H 0.50046 0.67427 0.07419 0.0
C2014 C 0.52104 0.72423 0.0723 0.0
C2015 C 0.53395 0.74953 0.06965 0.0
C2016 C 0.52748 0.70359 0.0536 0.0
C2017 C 0.55266 0.75447 0.0473 0.0
C2018 C 0.5591 0.73391 0.0283 0.0
C2019 C 0.55413 0.68683 0.01348 0.0
C2020 C 0.54194 0.66119 0.01741 0.0
C2021 C 0.54694 0.70819 0.03151 0.0
C2022 C 0.52249 0.65715 0.03942 0.0
C2023 C 0.51525 0.67814 0.05724 0.0
H2024 H 0.10007 0.76262 0.84006 0.0
H2025 H 0.12899 0.8084 0.90834 0.0
H2026 H 0.17573 0.81096 0.88638 0.0
H2027 H 0.20898 0.80041 0.84754 0.0
H2028 H 0.18074 0.75278 0.78022 0.0
H2029 H 0.13381 0.75079 0.80184 0.0
C2030 C 0.11659 0.77314 0.85015 0.0
C2031 C 0.11072 0.78536 0.87593 0.0
C2032 C 0.14383 0.77427 0.83747 0.0
C2033 C 0.13266 0.79875 0.88861 0.0
C2034 C 0.15953 0.80028 0.87599 0.0
C2035 C 0.19257 0.78963 0.83754 0.0
C2036 C 0.19867 0.77692 0.81204 0.0
C2037 C 0.16544 0.78817 0.85038 0.0
C2038 C 0.17695 0.76283 0.79973 0.0
C2039 C 0.14994 0.76167 0.81212 0.0
H2040 H 1.00177 0.39199 0.64015 0.0
H2041 H 0.96956 0.35557 0.56761 0.0
H2042 H 0.96954 0.39984 0.54398 0.0
H2043 H 0.98533 0.4471 0.54193 0.0
H2044 H 0.01827 0.48309 0.61449 0.0
H2045 H 0.01101 0.44079 0.64026 0.0
C2046 C 0.99425 0.39389 0.61935 0.0
C2047 C 0.98622 0.37065 0.60539 0.0
C2048 C 0.99472 0.4192 0.60583 0.0
C2049 C 0.97606 0.37327 0.57865 0.0
C2050 C 0.9762 0.3985 0.56509 0.0
C2051 C 0.9905 0.44579 0.56349 0.0
C2052 C 1.00285 0.46791 0.57613 0.0
C2053 C 0.98655 0.42134 0.57813 0.0
C2054 C 0.009 0.46619 0.60421 0.0
C2055 C 1.00494 0.442 0.61896 0.0
H2056 H 0.46325 0.26684 0.34177 0.0
H2057 H 0.43546 0.33066 0.39689 0.0
H2058 H 0.39136 0.33559 0.37261 0.0
H2059 H 0.35931 0.32104 0.33624 0.0
H2060 H 0.38483 0.2542 0.28414 0.0
H2061 H 0.43052 0.25133 0.3062 0.0
C2062 C 0.44762 0.28192 0.34842 0.0
C2063 C 0.45313 0.29847 0.37129 0.0
C2064 C 0.42159 0.2842 0.33465 0.0
C2065 C 0.43215 0.31759 0.37956 0.0
C2066 C 0.40677 0.32048 0.36556 0.0
C2067 C 0.37507 0.30614 0.32941 0.0
C2068 C 0.3687 0.2883 0.3079 0.0
C2069 C 0.40109 0.30388 0.3431 0.0
C2070 C 0.38916 0.26852 0.30016 0.0
C2071 C 0.41535 0.26679 0.31295 0.0
H2072 H 0.4351 0.58899 0.33137 0.0
H2073 H 0.49591 0.52651 0.30794 0.0
H2074 H 0.51527 0.52709 0.35418 0.0
H2075 H 0.51486 0.54611 0.40118 0.0
H2076 H 0.45644 0.61115 0.42237 0.0
H2077 H 0.43576 0.60888 0.37696 0.0
C2078 C 0.45254 0.57542 0.33643 0.0
C2079 C 0.46401 0.55758 0.31659 0.0
C2080 C 0.4638 0.57637 0.36256 0.0
C2081 C 0.48686 0.54041 0.32307 0.0
C2082 C 0.49781 0.5407 0.34943 0.0
C2083 C 0.49747 0.55953 0.39568 0.0
C2084 C 0.48681 0.57861 0.41474 0.0
C2085 C 0.48643 0.55862 0.36932 0.0
C2086 C 0.4647 0.59638 0.40771 0.0
C2087 C 0.45299 0.59506 0.3819 0.0
H2088 H 0.29308 0.68298 0.09654 0.0
H2089 H 0.27265 0.75044 0.04243 0.0
H2090 H 0.25728 0.77789 0.08211 0.0
H2091 H 0.2498 0.78226 0.13255 0.0
H2092 H 0.26914 0.71362 0.18539 0.0
H2093 H 0.28426 0.68662 0.14571 0.0
C2094 C 0.2856 0.70381 0.09344 0.0
C2095 C 0.28427 0.7149 0.06684 0.0
C2096 C 0.27615 0.71896 0.11604 0.0
C2097 C 0.27404 0.74168 0.06293 0.0
C2098 C 0.26509 0.75725 0.08552 0.0
C2099 C 0.25686 0.76125 0.13508 0.0
C2100 C 0.25855 0.74979 0.16154 0.0
C2101 C 0.26584 0.74598 0.11217 0.0
C2102 C 0.26797 0.7227 0.16501 0.0
C2103 C 0.27669 0.70737 0.14244 0.0
H2104 H 0.15556 0.51327 0.89693 0.0
H2105 H 0.08936 0.47905 0.85047 0.0
H2106 H 0.05919 0.47685 0.8919 0.0
H2107 H 0.05014 0.48905 0.93991 0.0
H2108 H 0.11608 0.52395 0.9863 0.0
H2109 H 0.14813 0.52095 0.9463 0.0
C2110 C 0.13461 0.50513 0.89599 0.0
C2111 C 0.12442 0.49679 0.87079 0.0
C2112 C 0.1174 0.50405 0.91976 0.0
C2113 C 0.09748 0.48583 0.86973 0.0
C2114 C 0.08024 0.48458 0.89335 0.0
C2115 C 0.07164 0.49566 0.94137 0.0
C2116 C 0.08063 0.50711 0.96576 0.0
C2117 C 0.08976 0.49429 0.91828 0.0
C2118 C 0.10863 0.51522 0.9676 0.0
C2119 C 0.12692 0.51366 0.94473 0.0
H2120 H 0.24599 0.36556 0.62162 0.0
H2121 H 0.33527 0.35563 0.60647 0.0
H2122 H 0.34005 0.33377 0.65165 0.0
H2123 H 0.31921 0.3175 0.69633 0.0
H2124 H 0.22958 0.3248 0.71056 0.0
H2125 H 0.22478 0.34725 0.6656 0.0
C2126 C 0.26651 0.35854 0.62812 0.0
C2127 C 0.29026 0.36251 0.61023 0.0
C2128 C 0.26912 0.34539 0.65434 0.0
C2129 C 0.31655 0.35298 0.61937 0.0
C2130 C 0.31933 0.34045 0.64543 0.0
C2131 C 0.29858 0.32398 0.68967 0.0
C2132 C 0.27481 0.31938 0.70735 0.0
C2133 C 0.29583 0.33656 0.66323 0.0
C2134 C 0.24833 0.32787 0.69779 0.0
C2135 C 0.24555 0.34083 0.6719 0.0
H2136 H 0.42885 0.54904 0.14325 0.0
H2137 H 0.50302 0.58592 0.17362 0.0
H2138 H 0.52383 0.58726 0.12683 0.0
H2139 H 0.52174 0.57529 0.0776 0.0
H2140 H 0.44853 0.53529 0.04901 0.0
H2141 H 0.42627 0.53816 0.09478 0.0
C2142 C 0.44951 0.55754 0.13964 0.0
C2143 C 0.46445 0.56728 0.16176 0.0
C2144 C 0.46143 0.5577 0.113 0.0
C2145 C 0.49121 0.57816 0.15684 0.0
C2146 C 0.50307 0.57896 0.13013 0.0
C2147 C 0.50078 0.56759 0.08145 0.0
C2148 C 0.48671 0.55508 0.06019 0.0
C2149 C 0.48849 0.56846 0.10809 0.0
C2150 C 0.45972 0.54485 0.06525 0.0
C2151 C 0.44702 0.54645 0.09136 0.0
H2152 H 0.28728 0.66286 0.90566 0.0
H2153 H 0.33534 0.72588 0.94212 0.0
H2154 H 0.34204 0.74793 0.89722 0.0
H2155 H 0.32799 0.75293 0.84975 0.0
H2156 H 0.2776 0.6916 0.81358 0.0
H2157 H 0.27896 0.66453 0.85613 0.0
C2158 C 0.29944 0.68127 0.90366 0.0
C2159 C 0.31015 0.69324 0.92705 0.0
C2160 C 0.30289 0.69398 0.87794 0.0
C2161 C 0.32646 0.71666 0.92432 0.0
C2162 C 0.33037 0.72922 0.89872 0.0
C2163 C 0.31781 0.73336 0.85102 0.0
C2164 C 0.30213 0.72449 0.82907 0.0
C2165 C 0.31776 0.71859 0.87568 0.0
C2166 C 0.28958 0.69887 0.83048 0.0
C2167 C 0.29011 0.68356 0.85484 0.0
H2168 H 0.09504 0.5417 0.74742 0.0
H2169 H 0.14769 0.48108 0.70639 0.0
H2170 H 0.12669 0.49323 0.6625 0.0
H2171 H 0.09626 0.5233 0.63578 0.0
H2172 H 0.04394 0.58431 0.67649 0.0
H2173 H 0.06285 0.57035 0.72085 0.0
C2174 C 0.10162 0.53084 0.72895 0.0
C2175 C 0.12286 0.51055 0.73001 0.0
C2176 C 0.09006 0.53842 0.70385 0.0
C2177 C 0.13132 0.49673 0.70598 0.0
C2178 C 0.11949 0.5038 0.68093 0.0
C2179 C 0.08861 0.53328 0.65437 0.0
C2180 C 0.06865 0.55474 0.65291 0.0
C2181 C 0.0993 0.52498 0.67961 0.0
C2182 C 0.05954 0.56796 0.6771 0.0
C2183 C 0.07013 0.55982 0.70243 0.0
H2184 H 0.28135 0.39671 0.43054 0.0
H2185 H 0.2879 0.32165 0.47718 0.0
H2186 H 0.28481 0.29554 0.43479 0.0
H2187 H 0.28078 0.2936 0.38362 0.0
H2188 H 0.27402 0.36906 0.33747 0.0
H2189 H 0.27645 0.39481 0.37986 0.0
C2190 C 0.28214 0.37462 0.43154 0.0
C2191 C 0.285 0.3614 0.4575 0.0
C2192 C 0.28015 0.35953 0.40681 0.0
C2193 C 0.2858 0.33265 0.45786 0.0
C2194 C 0.28398 0.3176 0.43344 0.0
C2195 C 0.27953 0.31567 0.38277 0.0
C2196 C 0.27698 0.32907 0.3568 0.0
C2197 C 0.28114 0.33072 0.40766 0.0
C2198 C 0.27579 0.35783 0.3567 0.0
C2199 C 0.27729 0.37274 0.38114 0.0
H2200 H 0.37797 0.44441 0.56722 0.0
H2201 H 0.34797 0.47975 0.49169 0.0
H2202 H 0.38921 0.50868 0.48796 0.0
H2203 H 0.43505 0.5236 0.50548 0.0
H2204 H 0.46396 0.48906 0.58192 0.0
H2205 H 0.42244 0.46088 0.58586 0.0
C2206 C 0.38038 0.45846 0.54993 0.0
C2207 C 0.35959 0.45955 0.52969 0.0
C2208 C 0.40423 0.47551 0.54805 0.0
C2209 C 0.36334 0.47821 0.50763 0.0
C2210 C 0.38708 0.49487 0.50546 0.0
C2211 C 0.43218 0.51017 0.5232 0.0
C2212 C 0.45306 0.50886 0.54341 0.0
C2213 C 0.40783 0.49372 0.52548 0.0
C2214 C 0.44858 0.49095 0.56603 0.0
C2215 C 0.4247 0.47457 0.56828 0.0
H2216 H 0.90746 0.16019 0.52657 0.0
H2217 H 0.85755 0.0896 0.51255 0.0
H2218 H 0.89932 0.06012 0.5153 0.0
H2219 H 0.94882 0.05412 0.52608 0.0
H2220 H 0.99871 0.12463 0.54091 0.0
H2221 H 0.95812 0.15452 0.53297 0.0
C2222 C 0.90581 0.13838 0.52388 0.0
C2223 C 0.87953 0.12698 0.51979 0.0
C2224 C 0.92981 0.12158 0.52568 0.0
C2225 C 0.87761 0.09878 0.51595 0.0
C2226 C 0.90144 0.08192 0.51754 0.0
C2227 C 0.95093 0.07604 0.52724 0.0
C2228 C 0.97656 0.08712 0.5345 0.0
C2229 C 0.92748 0.09306 0.52306 0.0
C2230 C 0.97909 0.11557 0.53559 0.0
C2231 C 0.95588 0.13269 0.53116 0.0
H2232 H 0.6693 0.11353 0.29667 0.0
H2233 H 0.73016 0.0655 0.24964 0.0
H2234 H 0.75092 0.10707 0.23049 0.0
H2235 H 0.75392 0.15702 0.23035 0.0
H2236 H 0.6936 0.20452 0.27825 0.0
H2237 H 0.66986 0.16308 0.29355 0.0
C2238 C 0.68711 0.1122 0.28224 0.0
C2239 C 0.69859 0.08675 0.27488 0.0
C2240 C 0.69877 0.13598 0.27136 0.0
C2241 C 0.72126 0.08508 0.25578 0.0
C2242 C 0.73304 0.10875 0.24478 0.0
C2243 C 0.73516 0.15816 0.24354 0.0
C2244 C 0.72546 0.1834 0.25342 0.0
C2245 C 0.7222 0.13429 0.25276 0.0
C2246 C 0.70138 0.18501 0.27075 0.0
C2247 C 0.68795 0.16144 0.27953 0.0
H2248 H 0.7097 0.97916 0.05629 0.0
H2249 H 0.68656 0.91371 1.00385 0.0
H2250 H 0.63984 0.9344 0.99898 0.0
H2251 H 0.60476 0.97123 0.00974 0.0
H2252 H 0.62752 0.03558 0.06382 0.0
H2253 H 0.67444 0.01541 0.06775 0.0
C2254 C 0.69445 0.96942 0.04379 0.0
C2255 C 0.70193 0.94481 0.03045 0.0
C2256 C 0.66722 0.98134 0.04128 0.0
C2257 C 0.68162 0.93256 0.01445 0.0
C2258 C 0.65476 0.94445 0.01159 0.0
C2259 C 0.62 0.98091 0.02229 0.0
C2260 C 0.61231 0.00511 0.03631 0.0
C2261 C 0.64721 0.96887 0.02489 0.0
C2262 C 0.63253 0.01704 0.0527 0.0
C2263 C 0.65956 0.00548 0.05501 0.0
H2264 H 0.34846 0.50242 0.22998 0.0
H2265 H 0.42423 0.46309 0.2586 0.0
H2266 H 0.40027 0.41956 0.26234 0.0
H2267 H 0.35788 0.39264 0.25676 0.0
H2268 H 0.28285 0.4317 0.2265 0.0
H2269 H 0.30637 0.47554 0.22407 0.0
C2270 C 0.3597 0.48431 0.23705 0.0
C2271 C 0.38799 0.48587 0.24402 0.0
C2272 C 0.34592 0.4594 0.23886 0.0
C2273 C 0.40241 0.46229 0.25303 0.0
C2274 C 0.38873 0.43745 0.25523 0.0
C2275 C 0.3467 0.41086 0.24994 0.0
C2276 C 0.31874 0.40915 0.24192 0.0
C2277 C 0.3605 0.43578 0.24818 0.0
C2278 C 0.30447 0.43267 0.2326 0.0
C2279 C 0.31787 0.45766 0.23127 0.0
H2280 H 0.2321 0.60393 0.05839 0.0
H2281 H 0.19285 0.65448 0.99643 0.0
H2282 H 0.14682 0.63768 0.01102 0.0
H2283 H 0.11847 0.60682 0.03926 0.0
H2284 H 0.15748 0.55387 0.09909 0.0
H2285 H 0.20307 0.57436 0.0883 0.0
C2286 C 0.21345 0.61128 0.04813 0.0
C2287 C 0.21575 0.63009 0.02617 0.0
C2288 C 0.18717 0.6014 0.05646 0.0
C2289 C 0.19152 0.63973 0.01319 0.0
C2290 C 0.16524 0.63026 0.02158 0.0
C2291 C 0.13698 0.59978 0.04992 0.0
C2292 C 0.13492 0.57859 0.06949 0.0
C2293 C 0.16296 0.61082 0.04286 0.0
C2294 C 0.15872 0.57021 0.08393 0.0
C2295 C 0.18473 0.58168 0.07755 0.0
H2296 H 0.68222 0.92982 0.33252 0.0
H2297 H 0.75342 0.97311 0.29872 0.0
H2298 H 0.78297 0.93171 0.3025 0.0
H2299 H 0.78559 0.88186 0.30822 0.0
H2300 H 0.71328 0.83909 0.34082 0.0
H2301 H 0.68718 0.88203 0.34579 0.0
C2302 C 0.70431 0.93014 0.32626 0.0
C2303 C 0.7157 0.95377 0.31458 0.0
C2304 C 0.72083 0.90656 0.32849 0.0
C2305 C 0.74438 0.95467 0.30733 0.0
C2306 C 0.76116 0.93113 0.30951 0.0
C2307 C 0.76445 0.88211 0.31722 0.0
C2308 C 0.75099 0.85756 0.3235 0.0
C2309 C 0.74926 0.90672 0.31908 0.0
C2310 C 0.72373 0.8579 0.33537 0.0
C2311 C 0.70877 0.88235 0.33806 0.0
H2312 H 0.79882 0.1273 0.81587 0.0
H2313 H 0.80575 0.13765 0.72764 0.0
H2314 H 0.78216 0.1822 0.731 0.0
H2315 H 0.77386 0.22206 0.75961 0.0
H2316 H 0.77638 0.21408 0.84802 0.0
H2317 H 0.78076 0.16462 0.84425 0.0
C2318 C 0.79433 0.13895 0.79732 0.0
C2319 C 0.80486 0.12993 0.77168 0.0
C2320 C 0.78271 0.16519 0.79963 0.0
C2321 C 0.79842 0.1447 0.74769 0.0
C2322 C 0.78505 0.17017 0.74963 0.0
C2323 C 0.77427 0.2094 0.77809 0.0
C2324 C 0.77583 0.22148 0.80399 0.0
C2325 C 0.77924 0.18139 0.77561 0.0
C2326 C 0.77585 0.20504 0.82783 0.0
C2327 C 0.77858 0.17683 0.82565 0.0
loop_
_geom_bond_atom_site_label_1
_geom_bond_atom_site_label_2
_geom_bond_distance
_geom_bond_site_symmetry_2
_ccdc_geom_bond_type
In0 O1 2.294 . S
In0 O2 2.326 . S
In0 O6 2.266 . S
In0 O7 2.326 . S
In0 O8 2.266 . S
In0 O9 2.326 . S
In0 O11 2.294 1_455 S
In0 O12 2.326 1_455 S
O1 In0 2.294 . S
O1 C10 1.240 . S
O2 In0 2.326 . S
O2 C10 1.252 . S
C3 O6 1.252 . S
C3 O7 1.260 . S
C4 O11 1.240 . S
C4 O12 1.252 . S
C5 O8 1.252 . S
C5 O9 1.260 . S
O6 In0 2.266 . S
O6 C3 1.252 . S
O7 In0 2.326 . S
O7 C3 1.260 . S
O8 In0 2.266 . S
O8 C5 1.252 . S
O9 In0 2.326 . S
O9 C5 1.260 . S
C10 O1 1.240 . S
C10 O2 1.252 . S
O11 In0 2.294 1_655 S
O11 C4 1.240 . S
O12 In0 2.326 1_655 S
O12 C4 1.252 . S
In13 O14 2.294 . S
In13 O15 2.326 . S
In13 O19 2.266 . S
In13 O20 2.326 . S
In13 O21 2.266 . S
In13 O22 2.326 . S
In13 O24 2.294 . S
In13 O25 2.326 . S
O14 In13 2.294 . S
O14 C23 1.240 . S
O15 In13 2.326 . S
O15 C23 1.252 . S
C16 O19 1.252 . S
C16 O20 1.260 . S
C17 O24 1.240 . S
C17 O25 1.252 . S
C18 O21 1.252 . S
C18 O22 1.260 . S
O19 In13 2.266 . S
O19 C16 1.252 . S
O20 In13 2.326 . S
O20 C16 1.260 . S
O21 In13 2.266 . S
O21 C18 1.252 . S
O22 In13 2.326 . S
O22 C18 1.260 . S
C23 O14 1.240 . S
C23 O15 1.252 . S
O24 In13 2.294 . S
O24 C17 1.240 . S
O25 In13 2.326 . S
O25 C17 1.252 . S
In26 O27 2.294 . S
In26 O28 2.326 . S
In26 O32 2.266 . S
In26 O33 2.326 . S
In26 O34 2.266 . S
In26 O35 2.326 . S
In26 O37 2.294 . S
In26 O38 2.326 . S
O27 In26 2.294 . S
O27 C36 1.240 . S
O28 In26 2.326 . S
O28 C36 1.252 . S
C29 O32 1.252 . S
C29 O33 1.260 . S
C30 O37 1.240 . S
C30 O38 1.252 . S
C31 O34 1.252 . S
C31 O35 1.260 . S
O32 In26 2.266 . S
O32 C29 1.252 . S
O33 In26 2.326 . S
O33 C29 1.260 . S
O34 In26 2.266 . S
O34 C31 1.252 . S
O35 In26 2.326 . S
O35 C31 1.260 . S
C36 O27 1.240 . S
C36 O28 1.252 . S
O37 In26 2.294 . S
O37 C30 1.240 . S
O38 In26 2.326 . S
O38 C30 1.252 . S
In39 O40 2.294 . S
In39 O41 2.326 . S
In39 O45 2.266 . S
In39 O46 2.326 . S
In39 O47 2.266 . S
In39 O48 2.326 . S
In39 O50 2.294 . S
In39 O51 2.326 . S
O40 In39 2.294 . S
O40 C49 1.240 . S
O41 In39 2.326 . S
O41 C49 1.252 . S
C42 O45 1.252 . S
C42 O46 1.260 . S
C43 O50 1.240 . S
C43 O51 1.252 . S
C44 O47 1.252 . S
C44 O48 1.260 . S
O45 In39 2.266 . S
O45 C42 1.252 . S
O46 In39 2.326 . S
O46 C42 1.260 . S
O47 In39 2.266 . S
O47 C44 1.252 . S
O48 In39 2.326 . S
O48 C44 1.260 . S
C49 O40 1.240 . S
C49 O41 1.252 . S
O50 In39 2.294 . S
O50 C43 1.240 . S
O51 In39 2.326 . S
O51 C43 1.252 . S
In52 O53 2.294 1_545 S
In52 O54 2.326 1_545 S
In52 O58 2.266 . S
In52 O59 2.326 . S
In52 O60 2.266 . S
In52 O61 2.326 . S
In52 O63 2.294 . S
In52 O64 2.326 . S
O53 In52 2.294 1_565 S
O53 C62 1.240 . S
O54 In52 2.326 1_565 S
O54 C62 1.252 . S
C55 O58 1.252 . S
C55 O59 1.260 . S
C56 O63 1.240 . S
C56 O64 1.252 . S
C57 O60 1.252 . S
C57 O61 1.260 . S
O58 In52 2.266 . S
O58 C55 1.252 . S
O59 In52 2.326 . S
O59 C55 1.260 . S
O60 In52 2.266 . S
O60 C57 1.252 . S
O61 In52 2.326 . S
O61 C57 1.260 . S
C62 O53 1.240 . S
C62 O54 1.252 . S
O63 In52 2.294 . S
O63 C56 1.240 . S
O64 In52 2.326 . S
O64 C56 1.252 . S
In65 O66 2.294 . S
In65 O67 2.326 . S
In65 O71 2.266 . S
In65 O72 2.326 . S
In65 O73 2.266 . S
In65 O74 2.326 . S
In65 O76 2.294 . S
In65 O77 2.326 . S
O66 In65 2.294 . S
O66 C75 1.240 . S
O67 In65 2.326 . S
O67 C75 1.252 . S
C68 O71 1.252 . S
C68 O72 1.260 . S
C69 O76 1.240 . S
C69 O77 1.252 . S
C70 O73 1.252 . S
C70 O74 1.260 . S
O71 In65 2.266 . S
O71 C68 1.252 . S
O72 In65 2.326 . S
O72 C68 1.260 . S
O73 In65 2.266 . S
O73 C70 1.252 . S
O74 In65 2.326 . S
O74 C70 1.260 . S
C75 O66 1.240 . S
C75 O67 1.252 . S
O76 In65 2.294 . S
O76 C69 1.240 . S
O77 In65 2.326 . S
O77 C69 1.252 . S
In78 O79 2.294 . S
In78 O80 2.326 . S
In78 O84 2.266 . S
In78 O85 2.326 . S
In78 O86 2.266 . S
In78 O87 2.326 . S
In78 O89 2.294 . S
In78 O90 2.326 . S
O79 In78 2.294 . S
O79 C88 1.240 . S
O80 In78 2.326 . S
O80 C88 1.252 . S
C81 O84 1.252 . S
C81 O85 1.260 . S
C82 O89 1.240 . S
C82 O90 1.252 . S
C83 O86 1.252 . S
C83 O87 1.260 . S
O84 In78 2.266 . S
O84 C81 1.252 . S
O85 In78 2.326 . S
O85 C81 1.260 . S
O86 In78 2.266 . S
O86 C83 1.252 . S
O87 In78 2.326 . S
O87 C83 1.260 . S
C88 O79 1.240 . S
C88 O80 1.252 . S
O89 In78 2.294 . S
O89 C82 1.240 . S
O90 In78 2.326 . S
O90 C82 1.252 . S
In91 O92 2.294 . S
In91 O93 2.326 . S
In91 O97 2.266 . S
In91 O98 2.326 . S
In91 O99 2.266 . S
In91 O100 2.326 1_554 S
In91 O102 2.294 . S
In91 O103 2.326 . S
O92 In91 2.294 . S
O92 C101 1.240 . S
O93 In91 2.326 . S
O93 C101 1.252 . S
C94 O97 1.252 . S
C94 O98 1.260 . S
C95 O102 1.240 . S
C95 O103 1.252 . S
C96 O99 1.252 1_556 S
C96 O100 1.260 . S
O97 In91 2.266 . S
O97 C94 1.252 . S
O98 In91 2.326 . S
O98 C94 1.260 . S
O99 In91 2.266 . S
O99 C96 1.252 1_554 S
O100 In91 2.326 1_556 S
O100 C96 1.260 . S
C101 O92 1.240 . S
C101 O93 1.252 . S
O102 In91 2.294 . S
O102 C95 1.240 . S
O103 In91 2.326 . S
O103 C95 1.252 . S
In104 O105 2.294 . S
In104 O106 2.326 . S
In104 O110 2.266 . S
In104 O111 2.326 . S
In104 O112 2.266 . S
In104 O113 2.326 . S
In104 O115 2.294 . S
In104 O116 2.326 . S
O105 In104 2.294 . S
O105 C114 1.240 . S
O106 In104 2.326 . S
O106 C114 1.252 . S
C107 O110 1.252 . S
C107 O111 1.260 . S
C108 O115 1.240 . S
C108 O116 1.252 . S
C109 O112 1.252 . S
C109 O113 1.260 . S
O110 In104 2.266 . S
O110 C107 1.252 . S
O111 In104 2.326 . S
O111 C107 1.260 . S
O112 In104 2.266 . S
O112 C109 1.252 . S
O113 In104 2.326 . S
O113 C109 1.260 . S
C114 O105 1.240 . S
C114 O106 1.252 . S
O115 In104 2.294 . S
O115 C108 1.240 . S
O116 In104 2.326 . S
O116 C108 1.252 . S
In117 O118 2.294 . S
In117 O119 2.326 . S
In117 O123 2.266 . S
In117 O124 2.326 . S
In117 O125 2.266 . S
In117 O126 2.326 . S
In117 O128 2.294 . S
In117 O129 2.326 . S
O118 In117 2.294 . S
O118 C127 1.240 . S
O119 In117 2.326 . S
O119 C127 1.252 . S
C120 O123 1.252 . S
C120 O124 1.260 . S
C121 O128 1.240 . S
C121 O129 1.252 . S
C122 O125 1.252 . S
C122 O126 1.260 . S
O123 In117 2.266 . S
O123 C120 1.252 . S
O124 In117 2.326 . S
O124 C120 1.260 . S
O125 In117 2.266 . S
O125 C122 1.252 . S
O126 In117 2.326 . S
O126 C122 1.260 . S
C127 O118 1.240 . S
C127 O119 1.252 . S
O128 In117 2.294 . S
O128 C121 1.240 . S
O129 In117 2.326 . S
O129 C121 1.252 . S
In130 O131 2.294 . S
In130 O132 2.326 . S
In130 O136 2.266 . S
In130 O137 2.326 . S
In130 O138 2.266 . S
In130 O139 2.326 . S
In130 O141 2.294 . S
In130 O142 2.326 . S
O131 In130 2.294 . S
O131 C140 1.240 . S
O132 In130 2.326 . S
O132 C140 1.252 . S
C133 O136 1.252 . S
C133 O137 1.260 . S
C134 O141 1.240 . S
C134 O142 1.252 . S
C135 O138 1.252 . S
C135 O139 1.260 . S
O136 In130 2.266 . S
O136 C133 1.252 . S
O137 In130 2.326 . S
O137 C133 1.260 . S
O138 In130 2.266 . S
O138 C135 1.252 . S
O139 In130 2.326 . S
O139 C135 1.260 . S
C140 O131 1.240 . S
C140 O132 1.252 . S
O141 In130 2.294 . S
O141 C134 1.240 . S
O142 In130 2.326 . S
O142 C134 1.252 . S
In143 O144 2.294 . S
In143 O145 2.326 . S
In143 O149 2.266 . S
In143 O150 2.326 . S
In143 O151 2.266 . S
In143 O152 2.326 . S
In143 O154 2.294 . S
In143 O155 2.326 . S
O144 In143 2.294 . S
O144 C153 1.240 . S
O145 In143 2.326 . S
O145 C153 1.252 . S
C146 O149 1.252 . S
C146 O150 1.260 . S
C147 O154 1.240 . S
C147 O155 1.252 . S
C148 O151 1.252 . S
C148 O152 1.260 . S
O149 In143 2.266 . S
O149 C146 1.252 . S
O150 In143 2.326 . S
O150 C146 1.260 . S
O151 In143 2.266 . S
O151 C148 1.252 . S
O152 In143 2.326 . S
O152 C148 1.260 . S
C153 O144 1.240 . S
C153 O145 1.252 . S
O154 In143 2.294 . S
O154 C147 1.240 . S
O155 In143 2.326 . S
O155 C147 1.252 . S
In156 O157 2.294 . S
In156 O158 2.326 . S
In156 O162 2.266 1_455 S
In156 O163 2.326 1_455 S
In156 O164 2.266 . S
In156 O165 2.326 . S
In156 O167 2.294 . S
In156 O168 2.326 . S
O157 In156 2.294 . S
O157 C166 1.240 . S
O158 In156 2.326 . S
O158 C166 1.252 . S
C159 O162 1.252 . S
C159 O163 1.260 . S
C160 O167 1.240 . S
C160 O168 1.252 . S
C161 O164 1.252 . S
C161 O165 1.260 . S
O162 In156 2.266 1_655 S
O162 C159 1.252 . S
O163 In156 2.326 1_655 S
O163 C159 1.260 . S
O164 In156 2.266 . S
O164 C161 1.252 . S
O165 In156 2.326 . S
O165 C161 1.260 . S
C166 O157 1.240 . S
C166 O158 1.252 . S
O167 In156 2.294 . S
O167 C160 1.240 . S
O168 In156 2.326 . S
O168 C160 1.252 . S
In169 O170 2.294 . S
In169 O171 2.327 . S
In169 O175 2.266 1_455 S
In169 O176 2.325 1_455 S
In169 O177 2.264 1_455 S
In169 O178 2.322 1_455 S
In169 O180 2.296 . S
In169 O181 2.329 . S
O170 In169 2.294 . S
O170 C179 1.240 . S
O171 In169 2.327 . S
O171 C179 1.252 . S
C172 O175 1.252 . S
C172 O176 1.260 . S
C173 O180 1.240 . S
C173 O181 1.252 . S
C174 O177 1.252 . S
C174 O178 1.260 . S
O175 In169 2.266 1_655 S
O175 C172 1.252 . S
O176 In169 2.325 1_655 S
O176 C172 1.260 . S
O177 In169 2.264 1_655 S
O177 C174 1.252 . S
O178 In169 2.322 1_655 S
O178 C174 1.260 . S
C179 O170 1.240 . S
C179 O171 1.252 . S
O180 In169 2.296 . S
O180 C173 1.240 . S
O181 In169 2.329 . S
O181 C173 1.252 . S
In182 O183 2.294 . S
In182 O184 2.326 . S
In182 O188 2.266 . S
In182 O189 2.326 . S
In182 O190 2.266 . S
In182 O191 2.326 . S
In182 O193 2.294 . S
In182 O194 2.326 . S
O183 In182 2.294 . S
O183 C192 1.240 . S
O184 In182 2.326 . S
O184 C192 1.252 . S
C185 O188 1.252 . S
C185 O189 1.260 . S
C186 O193 1.240 . S
C186 O194 1.252 . S
C187 O190 1.252 . S
C187 O191 1.260 . S
O188 In182 2.266 . S
O188 C185 1.252 . S
O189 In182 2.326 . S
O189 C185 1.260 . S
O190 In182 2.266 . S
O190 C187 1.252 . S
O191 In182 2.326 . S
O191 C187 1.260 . S
C192 O183 1.240 . S
C192 O184 1.252 . S
O193 In182 2.294 . S
O193 C186 1.240 . S
O194 In182 2.326 . S
O194 C186 1.252 . S
In195 O196 2.294 . S
In195 O197 2.326 . S
In195 O201 2.266 . S
In195 O202 2.326 . S
In195 O203 2.266 . S
In195 O204 2.326 . S
In195 O206 2.294 . S
In195 O207 2.326 . S
O196 In195 2.294 . S
O196 C205 1.240 . S
O197 In195 2.326 . S
O197 C205 1.252 . S
C198 O201 1.252 . S
C198 O202 1.260 . S
C199 O206 1.240 . S
C199 O207 1.252 . S
C200 O203 1.252 . S
C200 O204 1.260 . S
O201 In195 2.266 . S
O201 C198 1.252 . S
O202 In195 2.326 . S
O202 C198 1.260 . S
O203 In195 2.266 . S
O203 C200 1.252 . S
O204 In195 2.326 . S
O204 C200 1.260 . S
C205 O196 1.240 . S
C205 O197 1.252 . S
O206 In195 2.294 . S
O206 C199 1.240 . S
O207 In195 2.326 . S
O207 C199 1.252 . S
In208 O209 2.294 . S
In208 O210 2.326 . S
In208 O214 2.266 . S
In208 O215 2.326 . S
In208 O216 2.266 . S
In208 O217 2.326 . S
In208 O219 2.294 . S
In208 O220 2.326 . S
O209 In208 2.294 . S
O209 C218 1.240 . S
O210 In208 2.326 . S
O210 C218 1.252 . S
C211 O214 1.252 . S
C211 O215 1.260 . S
C212 O219 1.240 . S
C212 O220 1.252 . S
C213 O216 1.252 . S
C213 O217 1.260 . S
O214 In208 2.266 . S
O214 C211 1.252 . S
O215 In208 2.326 . S
O215 C211 1.260 . S
O216 In208 2.266 . S
O216 C213 1.252 . S
O217 In208 2.326 . S
O217 C213 1.260 . S
C218 O209 1.240 . S
C218 O210 1.252 . S
O219 In208 2.294 . S
O219 C212 1.240 . S
O220 In208 2.326 . S
O220 C212 1.252 . S
In221 O222 2.294 . S
In221 O223 2.326 . S
In221 O227 2.266 . S
In221 O228 2.326 . S
In221 O229 2.266 . S
In221 O230 2.326 . S
In221 O232 2.294 . S
In221 O233 2.326 . S
O222 In221 2.294 . S
O222 C231 1.240 . S
O223 In221 2.326 . S
O223 C231 1.252 . S
C224 O227 1.252 . S
C224 O228 1.260 . S
C225 O232 1.240 . S
C225 O233 1.252 . S
C226 O229 1.252 . S
C226 O230 1.260 . S
O227 In221 2.266 . S
O227 C224 1.252 . S
O228 In221 2.326 . S
O228 C224 1.260 . S
O229 In221 2.266 . S
O229 C226 1.252 . S
O230 In221 2.326 . S
O230 C226 1.260 . S
C231 O222 1.240 . S
C231 O223 1.252 . S
O232 In221 2.294 . S
O232 C225 1.240 . S
O233 In221 2.326 . S
O233 C225 1.252 . S
In234 O235 2.294 1_545 S
In234 O236 2.326 1_545 S
In234 O240 2.266 . S
In234 O241 2.326 . S
In234 O242 2.266 . S
In234 O243 2.326 . S
In234 O245 2.294 . S
In234 O246 2.326 . S
O235 In234 2.294 1_565 S
O235 C244 1.240 . S
O236 In234 2.326 1_565 S
O236 C244 1.252 . S
C237 O240 1.252 . S
C237 O241 1.260 . S
C238 O245 1.240 . S
C238 O246 1.252 . S
C239 O242 1.252 . S
C239 O243 1.260 . S
O240 In234 2.266 . S
O240 C237 1.252 . S
O241 In234 2.326 . S
O241 C237 1.260 . S
O242 In234 2.266 . S
O242 C239 1.252 . S
O243 In234 2.326 . S
O243 C239 1.260 . S
C244 O235 1.240 . S
C244 O236 1.252 . S
O245 In234 2.294 . S
O245 C238 1.240 . S
O246 In234 2.326 . S
O246 C238 1.252 . S
In247 O248 2.294 . S
In247 O249 2.326 . S
In247 O253 2.266 . S
In247 O254 2.326 . S
In247 O255 2.266 1_554 S
In247 O256 2.326 1_554 S
In247 O258 2.294 . S
In247 O259 2.326 . S
O248 In247 2.294 . S
O248 C257 1.240 . S
O249 In247 2.326 . S
O249 C257 1.252 . S
C250 O253 1.252 . S
C250 O254 1.260 . S
C251 O258 1.240 . S
C251 O259 1.252 . S
C252 O255 1.252 . S
C252 O256 1.260 . S
O253 In247 2.266 . S
O253 C250 1.252 . S
O254 In247 2.326 . S
O254 C250 1.260 . S
O255 In247 2.266 1_556 S
O255 C252 1.252 . S
O256 In247 2.326 1_556 S
O256 C252 1.260 . S
C257 O248 1.240 . S
C257 O249 1.252 . S
O258 In247 2.294 . S
O258 C251 1.240 . S
O259 In247 2.326 . S
O259 C251 1.252 . S
In260 O261 2.296 . S
In260 O262 2.329 . S
In260 O266 2.264 1_554 S
In260 O267 2.322 1_554 S
In260 O268 2.266 1_554 S
In260 O269 2.325 1_554 S
In260 O271 2.294 . S
In260 O272 2.327 . S
O261 In260 2.296 . S
O261 C270 1.240 . S
O262 In260 2.329 . S
O262 C270 1.252 . S
C263 O266 1.252 . S
C263 O267 1.260 . S
C264 O271 1.240 . S
C264 O272 1.252 . S
C265 O268 1.252 . S
C265 O269 1.260 . S
O266 In260 2.264 1_556 S
O266 C263 1.252 . S
O267 In260 2.322 1_556 S
O267 C263 1.260 . S
O268 In260 2.266 1_556 S
O268 C265 1.252 . S
O269 In260 2.325 1_556 S
O269 C265 1.260 . S
C270 O261 1.240 . S
C270 O262 1.252 . S
O271 In260 2.294 . S
O271 C264 1.240 . S
O272 In260 2.327 . S
O272 C264 1.252 . S
In273 O274 2.294 . S
In273 O275 2.326 . S
In273 O279 2.266 . S
In273 O280 2.326 . S
In273 O281 2.266 . S
In273 O282 2.326 . S
In273 O284 2.294 . S
In273 O285 2.326 . S
O274 In273 2.294 . S
O274 C283 1.240 . S
O275 In273 2.326 . S
O275 C283 1.252 . S
C276 O279 1.252 . S
C276 O280 1.260 . S
C277 O284 1.240 . S
C277 O285 1.252 . S
C278 O281 1.252 . S
C278 O282 1.260 . S
O279 In273 2.266 . S
O279 C276 1.252 . S
O280 In273 2.326 . S
O280 C276 1.260 . S
O281 In273 2.266 . S
O281 C278 1.252 . S
O282 In273 2.326 . S
O282 C278 1.260 . S
C283 O274 1.240 . S
C283 O275 1.252 . S
O284 In273 2.294 . S
O284 C277 1.240 . S
O285 In273 2.326 . S
O285 C277 1.252 . S
In286 O287 2.294 . S
In286 O288 2.326 . S
In286 O292 2.266 . S
In286 O293 2.326 . S
In286 O294 2.266 . S
In286 O295 2.326 . S
In286 O297 2.294 . S
In286 O298 2.326 . S
O287 In286 2.294 . S
O287 C296 1.240 . S
O288 In286 2.326 . S
O288 C296 1.252 . S
C289 O292 1.252 . S
C289 O293 1.260 . S
C290 O297 1.240 . S
C290 O298 1.252 . S
C291 O294 1.252 . S
C291 O295 1.260 . S
O292 In286 2.266 . S
O292 C289 1.252 . S
O293 In286 2.326 . S
O293 C289 1.260 . S
O294 In286 2.266 . S
O294 C291 1.252 . S
O295 In286 2.326 . S
O295 C291 1.260 . S
C296 O287 1.240 . S
C296 O288 1.252 . S
O297 In286 2.294 . S
O297 C290 1.240 . S
O298 In286 2.326 . S
O298 C290 1.252 . S
In299 O300 2.294 . S
In299 O301 2.326 . S
In299 O305 2.266 . S
In299 O306 2.326 . S
In299 O307 2.266 . S
In299 O308 2.326 . S
In299 O310 2.294 . S
In299 O311 2.326 . S
O300 In299 2.294 . S
O300 C309 1.240 . S
O301 In299 2.326 . S
O301 C309 1.252 . S
C302 O305 1.252 . S
C302 O306 1.260 . S
C303 O310 1.240 . S
C303 O311 1.252 . S
C304 O307 1.252 . S
C304 O308 1.260 . S
O305 In299 2.266 . S
O305 C302 1.252 . S
O306 In299 2.326 . S
O306 C302 1.260 . S
O307 In299 2.266 . S
O307 C304 1.252 . S
O308 In299 2.326 . S
O308 C304 1.260 . S
C309 O300 1.240 . S
C309 O301 1.252 . S
O310 In299 2.294 . S
O310 C303 1.240 . S
O311 In299 2.326 . S
O311 C303 1.252 . S
Co312 N317 2.057 . S
Co312 O329 2.021 1_545 S
Co312 O332 2.062 1_456 S
Co312 O336 2.117 1_556 S
Co312 O337 2.020 . S
C313 O333 1.259 . S
C313 O336 1.258 . S
Co314 N323 2.074 . S
Co314 O330 2.117 1_545 S
Co314 O331 2.020 1_455 S
Co314 O333 2.021 . S
Co314 O338 2.062 . S
C315 N317 1.316 1_655 S
C315 N318 1.347 . S
C315 H320 0.925 1_655 S
C316 N317 1.375 1_655 S
C316 C319 1.350 . S
C316 H321 0.930 . S
N317 Co312 2.057 . S
N317 C315 1.316 1_455 S
N317 C316 1.375 1_455 S
N318 C315 1.347 . S
N318 C319 1.373 . S
C319 C316 1.350 . S
C319 N318 1.373 . S
C319 H340 0.931 . S
H320 C315 0.925 1_455 S
H321 C316 0.930 . S
C322 O329 1.259 1_554 S
C322 O330 1.258 . S
N323 Co314 2.074 . S
N323 C324 1.333 . S
N323 C325 1.339 1_545 S
C324 N323 1.333 . S
C324 N326 1.347 1_545 S
C324 H335 0.931 . S
C325 N323 1.339 1_565 S
C325 C327 1.350 . S
C325 H334 0.930 . S
N326 C324 1.347 1_565 S
N326 C327 1.373 . S
C327 C325 1.350 . S
C327 N326 1.373 . S
C327 H341 0.931 . S
C328 O331 1.256 . S
C328 O332 1.255 . S
O329 Co312 2.021 1_565 S
O329 C322 1.259 1_556 S
O330 Co314 2.117 1_565 S
O330 C322 1.258 . S
O331 Co314 2.020 1_655 S
O331 C328 1.256 . S
O332 Co312 2.062 1_654 S
O332 C328 1.255 . S
O333 C313 1.259 . S
O333 Co314 2.021 . S
H334 C325 0.930 . S
H335 C324 0.931 . S
O336 Co312 2.117 1_554 S
O336 C313 1.258 . S
O337 Co312 2.020 . S
O337 C339 1.256 1_556 S
O338 Co314 2.062 . S
O338 C339 1.255 . S
C339 O337 1.256 1_554 S
C339 O338 1.255 . S
H340 C319 0.931 . S
H341 C327 0.931 . S
Co342 N347 2.057 . S
Co342 O359 2.021 . S
Co342 O362 2.062 . S
Co342 O366 2.117 . S
Co342 O367 2.020 . S
C343 O363 1.259 . S
C343 O366 1.258 . S
Co344 N353 2.057 . S
Co344 O360 2.117 . S
Co344 O361 2.020 . S
Co344 O363 2.021 . S
Co344 O368 2.062 . S
C345 N347 1.316 . S
C345 N348 1.347 . S
C345 H350 0.931 . S
C346 N347 1.375 . S
C346 C349 1.350 . S
C346 H351 0.930 . S
N347 Co342 2.057 . S
N347 C345 1.316 . S
N347 C346 1.375 . S
N348 C345 1.347 . S
N348 C349 1.373 . S
C349 C346 1.350 . S
C349 N348 1.373 . S
C349 H370 0.931 . S
H350 C345 0.931 . S
H351 C346 0.930 . S
C352 O359 1.259 . S
C352 O360 1.258 . S
N353 Co344 2.057 . S
N353 C354 1.316 . S
N353 C355 1.375 . S
C354 N353 1.316 . S
C354 N356 1.347 . S
C354 H365 0.931 . S
C355 N353 1.375 . S
C355 C357 1.350 . S
C355 H364 0.930 . S
N356 C354 1.347 . S
N356 C357 1.373 . S
C357 C355 1.350 . S
C357 N356 1.373 . S
C357 H371 0.931 . S
C358 O361 1.256 . S
C358 O362 1.255 . S
O359 Co342 2.021 . S
O359 C352 1.259 . S
O360 Co344 2.117 . S
O360 C352 1.258 . S
O361 Co344 2.020 . S
O361 C358 1.256 . S
O362 Co342 2.062 . S
O362 C358 1.255 . S
O363 C343 1.259 . S
O363 Co344 2.021 . S
H364 C355 0.930 . S
H365 C354 0.931 . S
O366 Co342 2.117 . S
O366 C343 1.258 . S
O367 Co342 2.020 . S
O367 C369 1.256 . S
O368 Co344 2.062 . S
O368 C369 1.255 . S
C369 O367 1.256 . S
C369 O368 1.255 . S
H370 C349 0.931 . S
H371 C357 0.931 . S
Co372 N377 2.057 . S
Co372 O389 2.021 1_545 S
Co372 O392 2.062 . S
Co372 O396 2.117 . S
Co372 O397 2.020 . S
C373 O393 1.259 . S
C373 O396 1.258 . S
Co374 N383 2.057 . S
Co374 O390 2.117 . S
Co374 O391 2.020 . S
Co374 O393 2.021 . S
Co374 O398 2.062 . S
C375 N377 1.319 . S
C375 N378 1.347 . S
C375 H380 0.928 1_545 S
C376 N377 1.375 . S
C376 C379 1.350 . S
C376 H381 0.930 . S
N377 Co372 2.057 . S
N377 C375 1.319 . S
N377 C376 1.375 . S
N378 C375 1.347 . S
N378 C379 1.373 . S
C379 C376 1.350 . S
C379 N378 1.373 . S
C379 H400 0.931 . S
H380 C375 0.928 1_565 S
H381 C376 0.930 . S
C382 O389 1.259 . S
C382 O390 1.258 1_565 S
N383 Co374 2.057 . S
N383 C384 1.316 . S
N383 C385 1.375 . S
C384 N383 1.316 . S
C384 N386 1.347 . S
C384 H395 0.931 . S
C385 N383 1.375 . S
C385 C387 1.350 . S
C385 H394 0.930 . S
N386 C384 1.347 . S
N386 C387 1.373 . S
C387 C385 1.350 . S
C387 N386 1.373 . S
C387 H401 0.931 . S
C388 O391 1.256 . S
C388 O392 1.255 . S
O389 Co372 2.021 1_565 S
O389 C382 1.259 . S
O390 Co374 2.117 . S
O390 C382 1.258 1_545 S
O391 Co374 2.020 . S
O391 C388 1.256 . S
O392 Co372 2.062 . S
O392 C388 1.255 . S
O393 C373 1.259 . S
O393 Co374 2.021 . S
H394 C385 0.930 . S
H395 C384 0.931 . S
O396 Co372 2.117 . S
O396 C373 1.258 . S
O397 Co372 2.020 . S
O397 C399 1.256 . S
O398 Co374 2.062 . S
O398 C399 1.255 . S
C399 O397 1.256 . S
C399 O398 1.255 . S
H400 C379 0.931 . S
H401 C387 0.931 . S
Co402 N407 2.057 . S
Co402 O419 2.021 . S
Co402 O422 2.062 . S
Co402 O426 2.117 . S
Co402 O427 2.020 . S
C403 O423 1.259 . S
C403 O426 1.258 . S
Co404 N413 2.057 . S
Co404 O420 2.117 . S
Co404 O421 2.020 . S
Co404 O423 2.021 . S
Co404 O428 2.062 . S
C405 N407 1.316 . S
C405 N408 1.347 . S
C405 H410 0.931 . S
C406 N407 1.375 . S
C406 C409 1.350 . S
C406 H411 0.930 . S
N407 Co402 2.057 . S
N407 C405 1.316 . S
N407 C406 1.375 . S
N408 C405 1.347 . S
N408 C409 1.373 . S
C409 C406 1.350 . S
C409 N408 1.373 . S
C409 H430 0.931 . S
H410 C405 0.931 . S
H411 C406 0.930 . S
C412 O419 1.259 . S
C412 O420 1.258 . S
N413 Co404 2.057 . S
N413 C414 1.316 . S
N413 C415 1.375 . S
C414 N413 1.316 . S
C414 N416 1.347 . S
C414 H425 0.931 . S
C415 N413 1.375 . S
C415 C417 1.350 . S
C415 H424 0.930 . S
N416 C414 1.347 . S
N416 C417 1.373 . S
C417 C415 1.350 . S
C417 N416 1.373 . S
C417 H431 0.931 . S
C418 O421 1.256 . S
C418 O422 1.255 . S
O419 Co402 2.021 . S
O419 C412 1.259 . S
O420 Co404 2.117 . S
O420 C412 1.258 . S
O421 Co404 2.020 . S
O421 C418 1.256 . S
O422 Co402 2.062 . S
O422 C418 1.255 . S
O423 C403 1.259 . S
O423 Co404 2.021 . S
H424 C415 0.930 . S
H425 C414 0.931 . S
O426 Co402 2.117 . S
O426 C403 1.258 . S
O427 Co402 2.020 . S
O427 C429 1.256 . S
O428 Co404 2.062 . S
O428 C429 1.255 . S
C429 O427 1.256 . S
C429 O428 1.255 . S
H430 C409 0.931 . S
H431 C417 0.931 . S
Co432 N437 2.057 1_445 S
Co432 O449 2.021 . S
Co432 O452 2.053 1_545 S
Co432 O456 2.117 1_455 S
Co432 O457 2.020 1_455 S
C433 O453 1.259 1_655 S
C433 O456 1.258 . S
Co434 N443 2.057 . S
Co434 O450 2.117 . S
Co434 O451 2.020 . S
Co434 O453 2.021 . S
Co434 O458 2.062 1_455 S
C435 N437 1.316 1_455 S
C435 N438 1.347 1_455 S
C435 H440 0.931 . S
C436 N437 1.375 . S
C436 C439 1.350 . S
C436 H441 0.930 . S
N437 Co432 2.057 1_665 S
N437 C435 1.316 1_655 S
N437 C436 1.375 . S
N438 C435 1.347 1_655 S
N438 C439 1.373 . S
C439 C436 1.350 . S
C439 N438 1.373 . S
C439 H460 0.931 . S
H440 C435 0.931 . S
H441 C436 0.930 . S
C442 O449 1.259 . S
C442 O450 1.258 . S
N443 Co434 2.057 . S
N443 C444 1.316 . S
N443 C445 1.375 . S
C444 N443 1.316 . S
C444 N446 1.347 . S
C444 H455 0.931 . S
C445 N443 1.375 . S
C445 C447 1.350 . S
C445 H454 0.930 . S
N446 C444 1.347 . S
N446 C447 1.373 . S
C447 C445 1.350 . S
C447 N446 1.373 . S
C447 H461 0.931 . S
C448 O451 1.256 . S
C448 O452 1.230 1_545 S
O449 Co432 2.021 . S
O449 C442 1.259 . S
O450 Co434 2.117 . S
O450 C442 1.258 . S
O451 Co434 2.020 . S
O451 C448 1.256 . S
O452 Co432 2.053 1_565 S
O452 C448 1.230 1_565 S
O453 C433 1.259 1_455 S
O453 Co434 2.021 . S
H454 C445 0.930 . S
H455 C444 0.931 . S
O456 Co432 2.117 1_655 S
O456 C433 1.258 . S
O457 Co432 2.020 1_655 S
O457 C459 1.256 . S
O458 Co434 2.062 1_655 S
O458 C459 1.255 . S
C459 O457 1.256 . S
C459 O458 1.255 . S
H460 C439 0.931 . S
H461 C447 0.931 . S
Co462 N467 2.057 . S
Co462 O479 2.021 . S
Co462 O482 2.062 . S
Co462 O486 2.117 . S
Co462 O487 2.020 . S
C463 O483 1.259 . S
C463 O486 1.258 . S
Co464 N473 2.057 . S
Co464 O480 2.117 . S
Co464 O481 2.020 . S
Co464 O483 2.021 . S
Co464 O488 2.062 . S
C465 N467 1.316 . S
C465 N468 1.347 . S
C465 H470 0.931 . S
C466 N467 1.375 . S
C466 C469 1.350 . S
C466 H471 0.930 . S
N467 Co462 2.057 . S
N467 C465 1.316 . S
N467 C466 1.375 . S
N468 C465 1.347 . S
N468 C469 1.373 . S
C469 C466 1.350 . S
C469 N468 1.373 . S
C469 H490 0.931 . S
H470 C465 0.931 . S
H471 C466 0.930 . S
C472 O479 1.259 . S
C472 O480 1.258 . S
N473 Co464 2.057 . S
N473 C474 1.316 . S
N473 C475 1.375 . S
C474 N473 1.316 . S
C474 N476 1.347 . S
C474 H485 0.931 . S
C475 N473 1.375 . S
C475 C477 1.350 . S
C475 H484 0.930 . S
N476 C474 1.347 . S
N476 C477 1.373 . S
C477 C475 1.350 . S
C477 N476 1.373 . S
C477 H491 0.931 . S
C478 O481 1.256 . S
C478 O482 1.255 . S
O479 Co462 2.021 . S
O479 C472 1.259 . S
O480 Co464 2.117 . S
O480 C472 1.258 . S
O481 Co464 2.020 . S
O481 C478 1.256 . S
O482 Co462 2.062 . S
O482 C478 1.255 . S
O483 C463 1.259 . S
O483 Co464 2.021 . S
H484 C475 0.930 . S
H485 C474 0.931 . S
O486 Co462 2.117 . S
O486 C463 1.258 . S
O487 Co462 2.020 . S
O487 C489 1.256 . S
O488 Co464 2.062 . S
O488 C489 1.255 . S
C489 O487 1.256 . S
C489 O488 1.255 . S
H490 C469 0.931 . S
H491 C477 0.931 . S
Co492 N497 2.057 1_554 S
Co492 O509 2.021 . S
Co492 O512 2.062 1_554 S
Co492 O516 2.117 . S
Co492 O517 2.020 1_545 S
C493 O513 1.259 . S
C493 O516 1.258 . S
Co494 N503 2.057 . S
Co494 O510 2.117 . S
Co494 O511 2.020 . S
Co494 O513 2.021 . S
Co494 O518 2.062 1_545 S
C495 N497 1.316 . S
C495 N498 1.347 . S
C495 H500 0.931 . S
C496 N497 1.375 1_565 S
C496 C499 1.350 . S
C496 H501 0.930 . S
N497 Co492 2.057 1_556 S
N497 C495 1.316 . S
N497 C496 1.375 1_545 S
N498 C495 1.347 . S
N498 C499 1.373 1_545 S
C499 C496 1.350 . S
C499 N498 1.373 1_565 S
C499 H520 0.931 . S
H500 C495 0.931 . S
H501 C496 0.930 . S
C502 O509 1.259 . S
C502 O510 1.258 . S
N503 Co494 2.057 . S
N503 C504 1.316 . S
N503 C505 1.375 . S
C504 N503 1.316 . S
C504 N506 1.347 . S
C504 H515 0.931 . S
C505 N503 1.375 . S
C505 C507 1.350 . S
C505 H514 0.930 . S
N506 C504 1.347 . S
N506 C507 1.373 . S
C507 C505 1.350 . S
C507 N506 1.373 . S
C507 H521 0.931 . S
C508 O511 1.256 . S
C508 O512 1.255 1_554 S
O509 Co492 2.021 . S
O509 C502 1.259 . S
O510 Co494 2.117 . S
O510 C502 1.258 . S
O511 Co494 2.020 . S
O511 C508 1.256 . S
O512 Co492 2.062 1_556 S
O512 C508 1.255 1_556 S
O513 C493 1.259 . S
O513 Co494 2.021 . S
H514 C505 0.930 . S
H515 C504 0.931 . S
O516 Co492 2.117 . S
O516 C493 1.258 . S
O517 Co492 2.020 1_565 S
O517 C519 1.256 . S
O518 Co494 2.062 1_565 S
O518 C519 1.255 . S
C519 O517 1.256 . S
C519 O518 1.255 . S
H520 C499 0.931 . S
H521 C507 0.931 . S
Co522 N527 2.057 . S
Co522 O539 2.021 . S
Co522 O542 2.062 . S
Co522 O546 2.117 . S
Co522 O547 2.020 . S
C523 O543 1.259 . S
C523 O546 1.258 . S
Co524 N533 2.057 . S
Co524 O540 2.117 . S
Co524 O541 2.020 . S
Co524 O543 2.021 . S
Co524 O548 2.062 . S
C525 N527 1.316 . S
C525 N528 1.347 . S
C525 H530 0.931 . S
C526 N527 1.375 . S
C526 C529 1.350 . S
C526 H531 0.930 . S
N527 Co522 2.057 . S
N527 C525 1.316 . S
N527 C526 1.375 . S
N528 C525 1.347 . S
N528 C529 1.373 . S
C529 C526 1.350 . S
C529 N528 1.373 . S
C529 H550 0.931 . S
H530 C525 0.931 . S
H531 C526 0.930 . S
C532 O539 1.259 . S
C532 O540 1.258 . S
N533 Co524 2.057 . S
N533 C534 1.316 . S
N533 C535 1.375 . S
C534 N533 1.316 . S
C534 N536 1.347 . S
C534 H545 0.931 . S
C535 N533 1.375 . S
C535 C537 1.350 . S
C535 H544 0.930 . S
N536 C534 1.347 . S
N536 C537 1.373 . S
C537 C535 1.350 . S
C537 N536 1.373 . S
C537 H551 0.931 . S
C538 O541 1.256 . S
C538 O542 1.255 . S
O539 Co522 2.021 . S
O539 C532 1.259 . S
O540 Co524 2.117 . S
O540 C532 1.258 . S
O541 Co524 2.020 . S
O541 C538 1.256 . S
O542 Co522 2.062 . S
O542 C538 1.255 . S
O543 C523 1.259 . S
O543 Co524 2.021 . S
H544 C535 0.930 . S
H545 C534 0.931 . S
O546 Co522 2.117 . S
O546 C523 1.258 . S
O547 Co522 2.020 . S
O547 C549 1.256 . S
O548 Co524 2.062 . S
O548 C549 1.255 . S
C549 O547 1.256 . S
C549 O548 1.255 . S
H550 C529 0.931 . S
H551 C537 0.931 . S
Co552 N557 2.057 . S
Co552 O569 2.021 1_554 S
Co552 O572 2.062 . S
Co552 O576 2.117 . S
Co552 O577 2.020 . S
C553 O573 1.259 . S
C553 O576 1.258 . S
Co554 N563 2.057 . S
Co554 O570 2.117 . S
Co554 O571 2.020 . S
Co554 O573 2.021 . S
Co554 O578 2.062 . S
C555 N557 1.316 1_556 S
C555 N558 1.347 1_556 S
C555 H560 0.931 . S
C556 N557 1.375 . S
C556 C559 1.350 . S
C556 H561 0.930 . S
N557 Co552 2.057 . S
N557 C555 1.316 1_554 S
N557 C556 1.375 . S
N558 C555 1.347 1_554 S
N558 C559 1.373 . S
C559 C556 1.350 . S
C559 N558 1.373 . S
C559 H580 0.931 . S
H560 C555 0.931 . S
H561 C556 0.930 . S
C562 O569 1.259 . S
C562 O570 1.258 1_556 S
N563 Co554 2.057 . S
N563 C564 1.316 . S
N563 C565 1.375 . S
C564 N563 1.316 . S
C564 N566 1.347 . S
C564 H575 0.931 . S
C565 N563 1.375 . S
C565 C567 1.350 . S
C565 H574 0.930 . S
N566 C564 1.347 . S
N566 C567 1.373 . S
C567 C565 1.350 . S
C567 N566 1.373 . S
C567 H581 0.931 . S
C568 O571 1.256 . S
C568 O572 1.255 . S
O569 Co552 2.021 1_556 S
O569 C562 1.259 . S
O570 Co554 2.117 . S
O570 C562 1.258 1_554 S
O571 Co554 2.020 . S
O571 C568 1.256 . S
O572 Co552 2.062 . S
O572 C568 1.255 . S
O573 C553 1.259 . S
O573 Co554 2.021 . S
H574 C565 0.930 . S
H575 C564 0.931 . S
O576 Co552 2.117 . S
O576 C553 1.258 . S
O577 Co552 2.020 . S
O577 C579 1.256 . S
O578 Co554 2.062 . S
O578 C579 1.255 . S
C579 O577 1.256 . S
C579 O578 1.255 . S
H580 C559 0.931 . S
H581 C567 0.931 . S
Co582 N587 2.057 . S
Co582 O599 2.021 . S
Co582 O602 2.062 . S
Co582 O606 2.117 . S
Co582 O607 2.020 . S
C583 O603 1.259 . S
C583 O606 1.258 . S
Co584 N593 2.057 . S
Co584 O600 2.117 . S
Co584 O601 2.020 . S
Co584 O603 2.021 . S
Co584 O608 2.062 . S
C585 N587 1.316 . S
C585 N588 1.347 . S
C585 H590 0.931 . S
C586 N587 1.375 . S
C586 C589 1.350 . S
C586 H591 0.930 . S
N587 Co582 2.057 . S
N587 C585 1.316 . S
N587 C586 1.375 . S
N588 C585 1.347 . S
N588 C589 1.373 . S
C589 C586 1.350 . S
C589 N588 1.373 . S
C589 H610 0.931 . S
H590 C585 0.931 . S
H591 C586 0.930 . S
C592 O599 1.259 . S
C592 O600 1.258 . S
N593 Co584 2.057 . S
N593 C594 1.316 . S
N593 C595 1.375 . S
C594 N593 1.316 . S
C594 N596 1.347 . S
C594 H605 0.931 . S
C595 N593 1.375 . S
C595 C597 1.350 . S
C595 H604 0.930 . S
N596 C594 1.347 . S
N596 C597 1.373 . S
C597 C595 1.350 . S
C597 N596 1.373 . S
C597 H611 0.931 . S
C598 O601 1.256 . S
C598 O602 1.255 . S
O599 Co582 2.021 . S
O599 C592 1.259 . S
O600 Co584 2.117 . S
O600 C592 1.258 . S
O601 Co584 2.020 . S
O601 C598 1.256 . S
O602 Co582 2.062 . S
O602 C598 1.255 . S
O603 C583 1.259 . S
O603 Co584 2.021 . S
H604 C595 0.930 . S
H605 C594 0.931 . S
O606 Co582 2.117 . S
O606 C583 1.258 . S
O607 Co582 2.020 . S
O607 C609 1.256 . S
O608 Co584 2.062 . S
O608 C609 1.255 . S
C609 O607 1.256 . S
C609 O608 1.255 . S
H610 C589 0.931 . S
H611 C597 0.931 . S
Co612 N617 2.057 . S
Co612 O629 2.021 1_455 S
Co612 O632 2.062 . S
Co612 O636 2.117 . S
Co612 O637 2.020 . S
C613 O633 1.259 . S
C613 O636 1.258 . S
Co614 N623 2.057 . S
Co614 O630 2.147 . S
Co614 O631 2.020 . S
Co614 O633 2.021 . S
Co614 O638 2.062 . S
C615 N617 1.316 1_655 S
C615 N618 1.345 1_655 S
C615 H620 0.931 . S
C616 N617 1.375 . S
C616 C619 1.350 . S
C616 H621 0.930 . S
N617 Co612 2.057 . S
N617 C615 1.316 1_455 S
N617 C616 1.375 . S
N618 C615 1.345 1_455 S
N618 C619 1.385 . S
C619 C616 1.350 . S
C619 N618 1.385 . S
C619 H640 0.931 . S
H620 C615 0.931 . S
H621 C616 0.930 . S
C622 O629 1.259 . S
C622 O630 1.234 1_655 S
N623 Co614 2.057 . S
N623 C624 1.316 . S
N623 C625 1.375 . S
C624 N623 1.316 . S
C624 N626 1.347 . S
C624 H635 0.931 . S
C625 N623 1.375 . S
C625 C627 1.350 . S
C625 H634 0.930 . S
N626 C624 1.347 . S
N626 C627 1.373 . S
C627 C625 1.350 . S
C627 N626 1.373 . S
C627 H641 0.931 . S
C628 O631 1.256 . S
C628 O632 1.255 . S
O629 Co612 2.021 1_655 S
O629 C622 1.259 . S
O630 Co614 2.147 . S
O630 C622 1.234 1_455 S
O631 Co614 2.020 . S
O631 C628 1.256 . S
O632 Co612 2.062 . S
O632 C628 1.255 . S
O633 C613 1.259 . S
O633 Co614 2.021 . S
H634 C625 0.930 . S
H635 C624 0.931 . S
O636 Co612 2.117 . S
O636 C613 1.258 . S
O637 Co612 2.020 . S
O637 C639 1.256 . S
O638 Co614 2.062 . S
O638 C639 1.255 . S
C639 O637 1.256 . S
C639 O638 1.255 . S
H640 C619 0.931 . S
H641 C627 0.931 . S
Co642 N647 2.057 . S
Co642 O659 2.021 . S
Co642 O662 2.062 . S
Co642 O666 2.117 . S
Co642 O667 2.020 . S
C643 O663 1.259 . S
C643 O666 1.258 . S
Co644 N653 2.057 . S
Co644 O660 2.117 . S
Co644 O661 2.020 . S
Co644 O663 2.021 . S
Co644 O668 2.062 . S
C645 N647 1.316 . S
C645 N648 1.347 . S
C645 H650 0.931 . S
C646 N647 1.375 . S
C646 C649 1.350 . S
C646 H651 0.930 . S
N647 Co642 2.057 . S
N647 C645 1.316 . S
N647 C646 1.375 . S
N648 C645 1.347 . S
N648 C649 1.373 . S
C649 C646 1.350 . S
C649 N648 1.373 . S
C649 H670 0.931 . S
H650 C645 0.931 . S
H651 C646 0.930 . S
C652 O659 1.259 . S
C652 O660 1.258 . S
N653 Co644 2.057 . S
N653 C654 1.316 . S
N653 C655 1.375 . S
C654 N653 1.316 . S
C654 N656 1.347 . S
C654 H665 0.931 . S
C655 N653 1.375 . S
C655 C657 1.350 . S
C655 H664 0.930 . S
N656 C654 1.347 . S
N656 C657 1.373 . S
C657 C655 1.350 . S
C657 N656 1.373 . S
C657 H671 0.931 . S
C658 O661 1.256 . S
C658 O662 1.255 . S
O659 Co642 2.021 . S
O659 C652 1.259 . S
O660 Co644 2.117 . S
O660 C652 1.258 . S
O661 Co644 2.020 . S
O661 C658 1.256 . S
O662 Co642 2.062 . S
O662 C658 1.255 . S
O663 C643 1.259 . S
O663 Co644 2.021 . S
H664 C655 0.930 . S
H665 C654 0.931 . S
O666 Co642 2.117 . S
O666 C643 1.258 . S
O667 Co642 2.020 . S
O667 C669 1.256 . S
O668 Co644 2.062 . S
O668 C669 1.255 . S
C669 O667 1.256 . S
C669 O668 1.255 . S
H670 C649 0.931 . S
H671 C657 0.931 . S
Co672 N677 2.057 . S
Co672 O689 2.021 . S
Co672 O692 2.062 . S
Co672 O696 2.117 . S
Co672 O697 2.020 . S
C673 O693 1.259 . S
C673 O696 1.258 . S
Co674 N683 2.057 . S
Co674 O690 2.117 . S
Co674 O691 2.020 . S
Co674 O693 2.021 . S
Co674 O698 2.062 . S
C675 N677 1.316 . S
C675 N678 1.347 . S
C675 H680 0.931 . S
C676 N677 1.375 . S
C676 C679 1.350 . S
C676 H681 0.930 . S
N677 Co672 2.057 . S
N677 C675 1.316 . S
N677 C676 1.375 . S
N678 C675 1.347 . S
N678 C679 1.373 . S
C679 C676 1.350 . S
C679 N678 1.373 . S
C679 H700 0.931 . S
H680 C675 0.931 . S
H681 C676 0.930 . S
C682 O689 1.259 . S
C682 O690 1.258 . S
N683 Co674 2.057 . S
N683 C684 1.316 . S
N683 C685 1.375 . S
C684 N683 1.316 . S
C684 N686 1.347 . S
C684 H695 0.931 . S
C685 N683 1.375 . S
C685 C687 1.350 . S
C685 H694 0.930 . S
N686 C684 1.347 . S
N686 C687 1.373 . S
C687 C685 1.350 . S
C687 N686 1.373 . S
C687 H701 0.931 . S
C688 O691 1.256 . S
C688 O692 1.255 . S
O689 Co672 2.021 . S
O689 C682 1.259 . S
O690 Co674 2.117 . S
O690 C682 1.258 . S
O691 Co674 2.020 . S
O691 C688 1.256 . S
O692 Co672 2.062 . S
O692 C688 1.255 . S
O693 C673 1.259 . S
O693 Co674 2.021 . S
H694 C685 0.930 . S
H695 C684 0.931 . S
O696 Co672 2.117 . S
O696 C673 1.258 . S
O697 Co672 2.020 . S
O697 C699 1.256 . S
O698 Co674 2.062 . S
O698 C699 1.255 . S
C699 O697 1.256 . S
C699 O698 1.255 . S
H700 C679 0.931 . S
H701 C687 0.931 . S
Co702 N707 2.057 . S
Co702 O719 2.021 . S
Co702 O722 2.062 . S
Co702 O726 2.117 . S
Co702 O727 2.020 . S
C703 O723 1.259 . S
C703 O726 1.258 . S
Co704 N713 2.057 . S
Co704 O720 2.117 . S
Co704 O721 2.020 . S
Co704 O723 2.021 . S
Co704 O728 2.062 . S
C705 N707 1.316 . S
C705 N708 1.347 . S
C705 H710 0.931 . S
C706 N707 1.375 . S
C706 C709 1.350 . S
C706 H711 0.930 . S
N707 Co702 2.057 . S
N707 C705 1.316 . S
N707 C706 1.375 . S
N708 C705 1.347 . S
N708 C709 1.373 . S
C709 C706 1.350 . S
C709 N708 1.373 . S
C709 H730 0.931 . S
H710 C705 0.931 . S
H711 C706 0.930 . S
C712 O719 1.259 . S
C712 O720 1.258 . S
N713 Co704 2.057 . S
N713 C714 1.316 . S
N713 C715 1.375 . S
C714 N713 1.316 . S
C714 N716 1.347 . S
C714 H725 0.931 . S
C715 N713 1.375 . S
C715 C717 1.350 . S
C715 H724 0.930 . S
N716 C714 1.347 . S
N716 C717 1.373 . S
C717 C715 1.350 . S
C717 N716 1.373 . S
C717 H731 0.931 . S
C718 O721 1.256 . S
C718 O722 1.255 . S
O719 Co702 2.021 . S
O719 C712 1.259 . S
O720 Co704 2.117 . S
O720 C712 1.258 . S
O721 Co704 2.020 . S
O721 C718 1.256 . S
O722 Co702 2.062 . S
O722 C718 1.255 . S
O723 C703 1.259 . S
O723 Co704 2.021 . S
H724 C715 0.930 . S
H725 C714 0.931 . S
O726 Co702 2.117 . S
O726 C703 1.258 . S
O727 Co702 2.020 . S
O727 C729 1.256 . S
O728 Co704 2.062 . S
O728 C729 1.255 . S
C729 O727 1.256 . S
C729 O728 1.255 . S
H730 C709 0.931 . S
H731 C717 0.931 . S
Co732 N737 2.057 . S
Co732 O749 2.021 . S
Co732 O752 2.062 . S
Co732 O756 2.117 . S
Co732 O757 2.020 . S
C733 O753 1.259 . S
C733 O756 1.258 . S
Co734 N743 2.057 . S
Co734 O750 2.117 . S
Co734 O751 2.020 . S
Co734 O753 2.021 . S
Co734 O758 2.062 . S
C735 N737 1.316 . S
C735 N738 1.347 . S
C735 H740 0.931 . S
C736 N737 1.375 . S
C736 C739 1.350 . S
C736 H741 0.930 . S
N737 Co732 2.057 . S
N737 C735 1.316 . S
N737 C736 1.375 . S
N738 C735 1.347 . S
N738 C739 1.373 . S
C739 C736 1.350 . S
C739 N738 1.373 . S
C739 H760 0.931 . S
H740 C735 0.931 . S
H741 C736 0.930 . S
C742 O749 1.259 . S
C742 O750 1.258 . S
N743 Co734 2.057 . S
N743 C744 1.316 . S
N743 C745 1.375 . S
C744 N743 1.316 . S
C744 N746 1.347 . S
C744 H755 0.931 . S
C745 N743 1.375 . S
C745 C747 1.350 . S
C745 H754 0.930 . S
N746 C744 1.347 . S
N746 C747 1.373 . S
C747 C745 1.350 . S
C747 N746 1.373 . S
C747 H761 0.931 . S
C748 O751 1.256 . S
C748 O752 1.255 . S
O749 Co732 2.021 . S
O749 C742 1.259 . S
O750 Co734 2.117 . S
O750 C742 1.258 . S
O751 Co734 2.020 . S
O751 C748 1.256 . S
O752 Co732 2.062 . S
O752 C748 1.255 . S
O753 C733 1.259 . S
O753 Co734 2.021 . S
H754 C745 0.930 . S
H755 C744 0.931 . S
O756 Co732 2.117 . S
O756 C733 1.258 . S
O757 Co732 2.020 . S
O757 C759 1.256 . S
O758 Co734 2.062 . S
O758 C759 1.255 . S
C759 O757 1.256 . S
C759 O758 1.255 . S
H760 C739 0.931 . S
H761 C747 0.931 . S
Co762 N767 2.057 1_455 S
Co762 O779 2.021 . S
Co762 O782 2.062 1_455 S
Co762 O786 2.117 . S
Co762 O787 2.020 1_554 S
C763 O783 1.259 . S
C763 O786 1.258 . S
Co764 N773 2.057 . S
Co764 O780 2.117 . S
Co764 O781 2.020 . S
Co764 O783 2.021 . S
Co764 O788 2.062 1_554 S
C765 N767 1.316 . S
C765 N768 1.347 . S
C765 H770 0.931 . S
C766 N767 1.375 1_556 S
C766 C769 1.350 . S
C766 H771 0.930 . S
N767 Co762 2.057 1_655 S
N767 C765 1.316 . S
N767 C766 1.375 1_554 S
N768 C765 1.347 . S
N768 C769 1.373 1_554 S
C769 C766 1.350 . S
C769 N768 1.373 1_556 S
C769 H790 0.931 . S
H770 C765 0.931 . S
H771 C766 0.930 . S
C772 O779 1.259 . S
C772 O780 1.258 . S
N773 Co764 2.057 . S
N773 C774 1.316 . S
N773 C775 1.375 . S
C774 N773 1.316 . S
C774 N776 1.347 . S
C774 H785 0.931 . S
C775 N773 1.375 . S
C775 C777 1.350 . S
C775 H784 0.930 . S
N776 C774 1.347 . S
N776 C777 1.373 . S
C777 C775 1.350 . S
C777 N776 1.373 . S
C777 H791 0.931 . S
C778 O781 1.256 . S
C778 O782 1.255 1_455 S
O779 Co762 2.021 . S
O779 C772 1.259 . S
O780 Co764 2.117 . S
O780 C772 1.258 . S
O781 Co764 2.020 . S
O781 C778 1.256 . S
O782 Co762 2.062 1_655 S
O782 C778 1.255 1_655 S
O783 C763 1.259 . S
O783 Co764 2.021 . S
H784 C775 0.930 . S
H785 C774 0.931 . S
O786 Co762 2.117 . S
O786 C763 1.258 . S
O787 Co762 2.020 1_556 S
O787 C789 1.256 . S
O788 Co764 2.062 1_556 S
O788 C789 1.255 . S
C789 O787 1.256 . S
C789 O788 1.255 . S
H790 C769 0.931 . S
H791 C777 0.931 . S
H792 C798 0.930 . S
H793 C801 0.930 . S
H794 C802 0.930 . S
H795 C803 0.930 . S
H796 C806 0.930 . S
H797 C807 0.930 . S
C798 H792 0.930 . S
C798 C799 1.355 . S
C798 C800 1.415 . S
C799 C798 1.355 . S
C799 C801 1.419 . S
C800 C798 1.415 . S
C800 C805 1.425 . S
C800 C807 1.409 . S
C801 H793 0.930 . S
C801 C799 1.419 . S
C801 C802 1.362 . S
C802 H794 0.930 . S
C802 C801 1.362 . S
C802 C805 1.409 . S
C803 H795 0.930 . S
C803 C804 1.355 . S
C803 C805 1.415 . S
C804 C803 1.355 . S
C804 C806 1.419 . S
C805 C800 1.425 . S
C805 C802 1.409 . S
C805 C803 1.415 . S
C806 H796 0.930 . S
C806 C804 1.419 . S
C806 C807 1.362 . S
C807 H797 0.930 . S
C807 C800 1.409 . S
C807 C806 1.362 . S
H808 C814 0.930 . S
H809 C817 0.930 . S
H810 C818 0.930 . S
H811 C819 0.930 . S
H812 C822 0.930 . S
H813 C823 0.930 . S
C814 H808 0.930 . S
C814 C815 1.355 . S
C814 C816 1.415 . S
C815 C814 1.355 . S
C815 C817 1.419 . S
C816 C814 1.415 . S
C816 C821 1.425 . S
C816 C823 1.409 . S
C817 H809 0.930 . S
C817 C815 1.419 . S
C817 C818 1.362 . S
C818 H810 0.930 . S
C818 C817 1.362 . S
C818 C821 1.409 . S
C819 H811 0.930 . S
C819 C820 1.355 . S
C819 C821 1.415 . S
C820 C819 1.355 . S
C820 C822 1.419 . S
C821 C816 1.425 . S
C821 C818 1.409 . S
C821 C819 1.415 . S
C822 H812 0.930 . S
C822 C820 1.419 . S
C822 C823 1.362 . S
C823 H813 0.930 . S
C823 C816 1.409 . S
C823 C822 1.362 . S
H824 C830 0.930 . S
H825 C833 0.930 . S
H826 C834 0.930 . S
H827 C835 0.930 . S
H828 C838 0.930 . S
H829 C839 0.930 . S
C830 H824 0.930 . S
C830 C831 1.355 . S
C830 C832 1.415 . S
C831 C830 1.355 . S
C831 C833 1.419 . S
C832 C830 1.415 . S
C832 C837 1.425 . S
C832 C839 1.409 . S
C833 H825 0.930 . S
C833 C831 1.419 . S
C833 C834 1.362 . S
C834 H826 0.930 . S
C834 C833 1.362 . S
C834 C837 1.409 . S
C835 H827 0.930 . S
C835 C836 1.355 . S
C835 C837 1.415 . S
C836 C835 1.355 . S
C836 C838 1.419 . S
C837 C832 1.425 . S
C837 C834 1.409 . S
C837 C835 1.415 . S
C838 H828 0.930 . S
C838 C836 1.419 . S
C838 C839 1.362 . S
C839 H829 0.930 . S
C839 C832 1.409 . S
C839 C838 1.362 . S
H840 C846 0.930 . S
H841 C849 0.930 . S
H842 C850 0.930 . S
H843 C851 0.930 . S
H844 C854 0.930 . S
H845 C855 0.930 . S
C846 H840 0.930 . S
C846 C847 1.355 . S
C846 C848 1.415 . S
C847 C846 1.355 . S
C847 C849 1.419 . S
C848 C846 1.415 . S
C848 C853 1.425 . S
C848 C855 1.409 . S
C849 H841 0.930 . S
C849 C847 1.419 . S
C849 C850 1.362 . S
C850 H842 0.930 . S
C850 C849 1.362 . S
C850 C853 1.409 . S
C851 H843 0.930 . S
C851 C852 1.355 . S
C851 C853 1.415 . S
C852 C851 1.355 . S
C852 C854 1.419 . S
C853 C848 1.425 . S
C853 C850 1.409 . S
C853 C851 1.415 . S
C854 H844 0.930 . S
C854 C852 1.419 . S
C854 C855 1.362 . S
C855 H845 0.930 . S
C855 C848 1.409 . S
C855 C854 1.362 . S
H856 C862 0.930 . S
H857 C865 0.930 . S
H858 C866 0.930 . S
H859 C867 0.930 . S
H860 C870 0.930 . S
H861 C871 0.930 . S
C862 H856 0.930 . S
C862 C863 1.355 . S
C862 C864 1.415 . S
C863 C862 1.355 . S
C863 C865 1.419 . S
C864 C862 1.415 . S
C864 C869 1.425 . S
C864 C871 1.409 . S
C865 H857 0.930 . S
C865 C863 1.419 . S
C865 C866 1.362 . S
C866 H858 0.930 . S
C866 C865 1.362 . S
C866 C869 1.409 . S
C867 H859 0.930 . S
C867 C868 1.355 . S
C867 C869 1.415 . S
C868 C867 1.355 . S
C868 C870 1.419 . S
C869 C864 1.425 . S
C869 C866 1.409 . S
C869 C867 1.415 . S
C870 H860 0.930 . S
C870 C868 1.419 . S
C870 C871 1.362 . S
C871 H861 0.930 . S
C871 C864 1.409 . S
C871 C870 1.362 . S
H872 C878 0.930 . S
H873 C881 0.930 . S
H874 C882 0.930 . S
H875 C883 0.930 . S
H876 C886 0.930 . S
H877 C887 0.930 . S
C878 H872 0.930 . S
C878 C879 1.355 . S
C878 C880 1.415 . S
C879 C878 1.355 . S
C879 C881 1.419 . S
C880 C878 1.415 . S
C880 C885 1.425 . S
C880 C887 1.409 . S
C881 H873 0.930 . S
C881 C879 1.419 . S
C881 C882 1.362 . S
C882 H874 0.930 . S
C882 C881 1.362 . S
C882 C885 1.409 . S
C883 H875 0.930 . S
C883 C884 1.355 . S
C883 C885 1.415 . S
C884 C883 1.355 . S
C884 C886 1.419 . S
C885 C880 1.425 . S
C885 C882 1.409 . S
C885 C883 1.415 . S
C886 H876 0.930 . S
C886 C884 1.419 . S
C886 C887 1.362 . S
C887 H877 0.930 . S
C887 C880 1.409 . S
C887 C886 1.362 . S
H888 C894 0.930 . S
H889 C897 0.930 . S
H890 C898 0.930 1_554 S
H891 C899 0.964 . S
H892 C902 0.930 . S
H893 C903 0.930 . S
C894 H888 0.930 . S
C894 C895 1.355 . S
C894 C896 1.415 . S
C895 C894 1.355 . S
C895 C897 1.419 . S
C896 C894 1.415 . S
C896 C901 1.425 . S
C896 C903 1.409 . S
C897 H889 0.930 . S
C897 C895 1.419 . S
C897 C898 1.362 . S
C898 H890 0.930 1_556 S
C898 C897 1.362 . S
C898 C901 1.409 . S
C899 H891 0.964 . S
C899 C900 1.346 1_554 S
C899 C901 1.391 1_554 S
C900 C899 1.346 1_556 S
C900 C902 1.419 . S
C901 C896 1.425 . S
C901 C898 1.409 . S
C901 C899 1.391 1_556 S
C902 H892 0.930 . S
C902 C900 1.419 . S
C902 C903 1.362 . S
C903 H893 0.930 . S
C903 C896 1.409 . S
C903 C902 1.362 . S
H904 C910 0.930 . S
H905 C913 0.930 . S
H906 C914 0.930 . S
H907 C915 0.930 . S
H908 C918 0.930 . S
H909 C919 0.930 . S
C910 H904 0.930 . S
C910 C911 1.355 . S
C910 C912 1.415 . S
C911 C910 1.355 . S
C911 C913 1.419 . S
C912 C910 1.415 . S
C912 C917 1.425 . S
C912 C919 1.409 . S
C913 H905 0.930 . S
C913 C911 1.419 . S
C913 C914 1.362 . S
C914 H906 0.930 . S
C914 C913 1.362 . S
C914 C917 1.409 . S
C915 H907 0.930 . S
C915 C916 1.355 . S
C915 C917 1.415 . S
C916 C915 1.355 . S
C916 C918 1.419 . S
C917 C912 1.425 . S
C917 C914 1.409 . S
C917 C915 1.415 . S
C918 H908 0.930 . S
C918 C916 1.419 . S
C918 C919 1.362 . S
C919 H909 0.930 . S
C919 C912 1.409 . S
C919 C918 1.362 . S
H920 C926 0.930 . S
H921 C929 0.930 . S
H922 C930 0.930 . S
H923 C931 0.930 . S
H924 C934 0.930 . S
H925 C935 0.930 . S
C926 H920 0.930 . S
C926 C927 1.355 1_565 S
C926 C928 1.415 . S
C927 C926 1.355 1_545 S
C927 C929 1.419 . S
C928 C926 1.415 . S
C928 C933 1.425 1_565 S
C928 C935 1.409 . S
C929 H921 0.930 . S
C929 C927 1.419 . S
C929 C930 1.362 . S
C930 H922 0.930 . S
C930 C929 1.362 . S
C930 C933 1.409 . S
C931 H923 0.930 . S
C931 C932 1.355 1_545 S
C931 C933 1.415 . S
C932 C931 1.355 1_565 S
C932 C934 1.419 . S
C933 C928 1.425 1_545 S
C933 C930 1.409 . S
C933 C931 1.415 . S
C934 H924 0.930 . S
C934 C932 1.419 . S
C934 C935 1.362 . S
C935 H925 0.930 . S
C935 C928 1.409 . S
C935 C934 1.362 . S
H936 C942 0.930 . S
H937 C945 0.930 . S
H938 C946 0.930 . S
H939 C947 0.930 . S
H940 C950 0.930 . S
H941 C951 0.930 . S
C942 H936 0.930 . S
C942 C943 1.355 . S
C942 C944 1.415 . S
C943 C942 1.355 . S
C943 C945 1.419 . S
C944 C942 1.415 . S
C944 C949 1.425 . S
C944 C951 1.409 . S
C945 H937 0.930 . S
C945 C943 1.419 . S
C945 C946 1.362 . S
C946 H938 0.930 . S
C946 C945 1.362 . S
C946 C949 1.409 . S
C947 H939 0.930 . S
C947 C948 1.355 . S
C947 C949 1.415 . S
C948 C947 1.355 . S
C948 C950 1.419 . S
C949 C944 1.425 . S
C949 C946 1.409 . S
C949 C947 1.415 . S
C950 H940 0.930 . S
C950 C948 1.419 . S
C950 C951 1.362 . S
C951 H941 0.930 . S
C951 C944 1.409 . S
C951 C950 1.362 . S
H952 C958 0.930 . S
H953 C961 0.930 . S
H954 C962 0.930 . S
H955 C963 0.930 . S
H956 C966 0.930 . S
H957 C967 0.930 . S
C958 H952 0.930 . S
C958 C959 1.355 . S
C958 C960 1.415 . S
C959 C958 1.355 . S
C959 C961 1.419 . S
C960 C958 1.415 . S
C960 C965 1.425 . S
C960 C967 1.409 . S
C961 H953 0.930 . S
C961 C959 1.419 . S
C961 C962 1.362 . S
C962 H954 0.930 . S
C962 C961 1.362 . S
C962 C965 1.409 . S
C963 H955 0.930 . S
C963 C964 1.355 . S
C963 C965 1.415 . S
C964 C963 1.355 . S
C964 C966 1.419 . S
C965 C960 1.425 . S
C965 C962 1.409 . S
C965 C963 1.415 . S
C966 H956 0.930 . S
C966 C964 1.419 . S
C966 C967 1.362 . S
C967 H957 0.930 . S
C967 C960 1.409 . S
C967 C966 1.362 . S
H968 C974 0.930 . S
H969 C977 0.930 . S
H970 C978 0.930 . S
H971 C979 0.930 . S
H972 C982 0.930 . S
H973 C983 0.930 . S
C974 H968 0.930 . S
C974 C975 1.355 . S
C974 C976 1.415 . S
C975 C974 1.355 . S
C975 C977 1.419 . S
C976 C974 1.415 . S
C976 C981 1.425 . S
C976 C983 1.409 . S
C977 H969 0.930 . S
C977 C975 1.419 . S
C977 C978 1.362 . S
C978 H970 0.930 . S
C978 C977 1.362 . S
C978 C981 1.409 . S
C979 H971 0.930 . S
C979 C980 1.355 . S
C979 C981 1.415 . S
C980 C979 1.355 . S
C980 C982 1.419 . S
C981 C976 1.425 . S
C981 C978 1.409 . S
C981 C979 1.415 . S
C982 H972 0.930 . S
C982 C980 1.419 . S
C982 C983 1.362 . S
C983 H973 0.930 . S
C983 C976 1.409 . S
C983 C982 1.362 . S
H984 C990 0.930 . S
H985 C993 0.930 . S
H986 C994 0.930 . S
H987 C995 0.930 . S
H988 C998 0.930 . S
H989 C999 0.930 . S
C990 H984 0.930 . S
C990 C991 1.355 . S
C990 C992 1.415 . S
C991 C990 1.355 . S
C991 C993 1.419 . S
C992 C990 1.415 . S
C992 C997 1.425 . S
C992 C999 1.409 . S
C993 H985 0.930 . S
C993 C991 1.419 . S
C993 C994 1.362 . S
C994 H986 0.930 . S
C994 C993 1.362 . S
C994 C997 1.409 . S
C995 H987 0.930 . S
C995 C996 1.355 . S
C995 C997 1.415 . S
C996 C995 1.355 . S
C996 C998 1.419 . S
C997 C992 1.425 . S
C997 C994 1.409 . S
C997 C995 1.415 . S
C998 H988 0.930 . S
C998 C996 1.419 . S
C998 C999 1.362 . S
C999 H989 0.930 . S
C999 C992 1.409 . S
C999 C998 1.362 . S
H1000 C1006 0.930 . S
H1001 C1009 0.930 . S
H1002 C1010 0.930 . S
H1003 C1011 0.930 . S
H1004 C1014 0.930 . S
H1005 C1015 0.930 . S
C1006 H1000 0.930 . S
C1006 C1007 1.355 . S
C1006 C1008 1.415 . S
C1007 C1006 1.355 . S
C1007 C1009 1.419 . S
C1008 C1006 1.415 . S
C1008 C1013 1.425 . S
C1008 C1015 1.409 . S
C1009 H1001 0.930 . S
C1009 C1007 1.419 . S
C1009 C1010 1.362 . S
C1010 H1002 0.930 . S
C1010 C1009 1.362 . S
C1010 C1013 1.409 . S
C1011 H1003 0.930 . S
C1011 C1012 1.355 . S
C1011 C1013 1.415 . S
C1012 C1011 1.355 . S
C1012 C1014 1.419 . S
C1013 C1008 1.425 . S
C1013 C1010 1.409 . S
C1013 C1011 1.415 . S
C1014 H1004 0.930 . S
C1014 C1012 1.419 . S
C1014 C1015 1.362 . S
C1015 H1005 0.930 . S
C1015 C1008 1.409 . S
C1015 C1014 1.362 . S
H1016 C1022 0.930 . S
H1017 C1025 0.930 . S
H1018 C1026 0.930 1_565 S
H1019 C1027 0.930 1_565 S
H1020 C1030 0.930 . S
H1021 C1031 0.930 . S
C1022 H1016 0.930 . S
C1022 C1023 1.355 . S
C1022 C1024 1.415 . S
C1023 C1022 1.355 . S
C1023 C1025 1.419 . S
C1024 C1022 1.415 . S
C1024 C1029 1.425 . S
C1024 C1031 1.409 . S
C1025 H1017 0.930 . S
C1025 C1023 1.419 . S
C1025 C1026 1.362 . S
C1026 H1018 0.930 1_545 S
C1026 C1025 1.362 . S
C1026 C1029 1.409 . S
C1027 H1019 0.930 1_545 S
C1027 C1028 1.355 . S
C1027 C1029 1.415 . S
C1028 C1027 1.355 . S
C1028 C1030 1.419 . S
C1029 C1024 1.425 . S
C1029 C1026 1.409 . S
C1029 C1027 1.415 . S
C1030 H1020 0.930 . S
C1030 C1028 1.419 . S
C1030 C1031 1.362 . S
C1031 H1021 0.930 . S
C1031 C1024 1.409 . S
C1031 C1030 1.362 . S
H1032 C1038 0.930 . S
H1033 C1041 0.930 . S
H1034 C1042 0.930 . S
H1035 C1043 0.930 . S
H1036 C1046 0.930 . S
H1037 C1047 0.930 . S
C1038 H1032 0.930 . S
C1038 C1039 1.355 . S
C1038 C1040 1.415 . S
C1039 C1038 1.355 . S
C1039 C1041 1.419 . S
C1040 C1038 1.415 . S
C1040 C1045 1.425 . S
C1040 C1047 1.409 . S
C1041 H1033 0.930 . S
C1041 C1039 1.419 . S
C1041 C1042 1.362 . S
C1042 H1034 0.930 . S
C1042 C1041 1.362 . S
C1042 C1045 1.409 . S
C1043 H1035 0.930 . S
C1043 C1044 1.355 . S
C1043 C1045 1.415 . S
C1044 C1043 1.355 . S
C1044 C1046 1.419 . S
C1045 C1040 1.425 . S
C1045 C1042 1.409 . S
C1045 C1043 1.415 . S
C1046 H1036 0.930 . S
C1046 C1044 1.419 . S
C1046 C1047 1.362 . S
C1047 H1037 0.930 . S
C1047 C1040 1.409 . S
C1047 C1046 1.362 . S
H1048 C1054 0.930 . S
H1049 C1057 0.930 . S
H1050 C1058 0.930 . S
H1051 C1059 0.930 . S
H1052 C1062 0.930 . S
H1053 C1063 0.930 . S
C1054 H1048 0.930 . S
C1054 C1055 1.355 . S
C1054 C1056 1.415 . S
C1055 C1054 1.355 . S
C1055 C1057 1.419 . S
C1056 C1054 1.415 . S
C1056 C1061 1.425 . S
C1056 C1063 1.409 . S
C1057 H1049 0.930 . S
C1057 C1055 1.419 . S
C1057 C1058 1.362 . S
C1058 H1050 0.930 . S
C1058 C1057 1.362 . S
C1058 C1061 1.409 . S
C1059 H1051 0.930 . S
C1059 C1060 1.355 . S
C1059 C1061 1.415 . S
C1060 C1059 1.355 . S
C1060 C1062 1.419 . S
C1061 C1056 1.425 . S
C1061 C1058 1.409 . S
C1061 C1059 1.415 . S
C1062 H1052 0.930 . S
C1062 C1060 1.419 . S
C1062 C1063 1.362 . S
C1063 H1053 0.930 . S
C1063 C1056 1.409 . S
C1063 C1062 1.362 . S
H1064 C1070 0.930 . S
H1065 C1073 0.930 . S
H1066 C1074 0.930 . S
H1067 C1075 0.930 . S
H1068 C1078 0.930 . S
H1069 C1079 0.930 . S
C1070 H1064 0.930 . S
C1070 C1071 1.355 . S
C1070 C1072 1.415 . S
C1071 C1070 1.355 . S
C1071 C1073 1.419 . S
C1072 C1070 1.415 . S
C1072 C1077 1.425 . S
C1072 C1079 1.409 . S
C1073 H1065 0.930 . S
C1073 C1071 1.419 . S
C1073 C1074 1.362 . S
C1074 H1066 0.930 . S
C1074 C1073 1.362 . S
C1074 C1077 1.409 . S
C1075 H1067 0.930 . S
C1075 C1076 1.355 . S
C1075 C1077 1.415 . S
C1076 C1075 1.355 . S
C1076 C1078 1.419 . S
C1077 C1072 1.425 . S
C1077 C1074 1.409 . S
C1077 C1075 1.415 . S
C1078 H1068 0.930 . S
C1078 C1076 1.419 . S
C1078 C1079 1.362 . S
C1079 H1069 0.930 . S
C1079 C1072 1.409 . S
C1079 C1078 1.362 . S
H1080 C1086 0.930 . S
H1081 C1089 0.930 . S
H1082 C1090 0.930 . S
H1083 C1091 0.930 . S
H1084 C1094 0.930 . S
H1085 C1095 0.930 . S
C1086 H1080 0.930 . S
C1086 C1087 1.355 . S
C1086 C1088 1.415 . S
C1087 C1086 1.355 . S
C1087 C1089 1.419 . S
C1088 C1086 1.415 . S
C1088 C1093 1.425 . S
C1088 C1095 1.409 . S
C1089 H1081 0.930 . S
C1089 C1087 1.419 . S
C1089 C1090 1.362 . S
C1090 H1082 0.930 . S
C1090 C1089 1.362 . S
C1090 C1093 1.409 . S
C1091 H1083 0.930 . S
C1091 C1092 1.355 . S
C1091 C1093 1.415 . S
C1092 C1091 1.355 . S
C1092 C1094 1.419 . S
C1093 C1088 1.425 . S
C1093 C1090 1.409 . S
C1093 C1091 1.415 . S
C1094 H1084 0.930 . S
C1094 C1092 1.419 . S
C1094 C1095 1.362 . S
C1095 H1085 0.930 . S
C1095 C1088 1.409 . S
C1095 C1094 1.362 . S
H1096 C1102 0.930 . S
H1097 C1105 0.930 . S
H1098 C1106 0.930 . S
H1099 C1107 0.930 . S
H1100 C1110 0.930 . S
H1101 C1111 0.930 . S
C1102 H1096 0.930 . S
C1102 C1103 1.355 . S
C1102 C1104 1.415 . S
C1103 C1102 1.355 . S
C1103 C1105 1.419 . S
C1104 C1102 1.415 . S
C1104 C1109 1.425 . S
C1104 C1111 1.409 . S
C1105 H1097 0.930 . S
C1105 C1103 1.419 . S
C1105 C1106 1.362 . S
C1106 H1098 0.930 . S
C1106 C1105 1.362 . S
C1106 C1109 1.409 . S
C1107 H1099 0.930 . S
C1107 C1108 1.355 . S
C1107 C1109 1.415 . S
C1108 C1107 1.355 . S
C1108 C1110 1.419 . S
C1109 C1104 1.425 . S
C1109 C1106 1.409 . S
C1109 C1107 1.415 . S
C1110 H1100 0.930 . S
C1110 C1108 1.419 . S
C1110 C1111 1.362 . S
C1111 H1101 0.930 . S
C1111 C1104 1.409 . S
C1111 C1110 1.362 . S
H1112 C1118 0.930 . S
H1113 C1121 0.930 . S
H1114 C1122 0.930 . S
H1115 C1123 0.930 . S
H1116 C1126 0.930 . S
H1117 C1127 0.930 . S
C1118 H1112 0.930 . S
C1118 C1119 1.355 . S
C1118 C1120 1.415 . S
C1119 C1118 1.355 . S
C1119 C1121 1.419 . S
C1120 C1118 1.415 . S
C1120 C1125 1.425 . S
C1120 C1127 1.409 . S
C1121 H1113 0.930 . S
C1121 C1119 1.419 . S
C1121 C1122 1.362 . S
C1122 H1114 0.930 . S
C1122 C1121 1.362 . S
C1122 C1125 1.409 . S
C1123 H1115 0.930 . S
C1123 C1124 1.355 . S
C1123 C1125 1.415 . S
C1124 C1123 1.355 . S
C1124 C1126 1.419 . S
C1125 C1120 1.425 . S
C1125 C1122 1.409 . S
C1125 C1123 1.415 . S
C1126 H1116 0.930 . S
C1126 C1124 1.419 . S
C1126 C1127 1.362 . S
C1127 H1117 0.930 . S
C1127 C1120 1.409 . S
C1127 C1126 1.362 . S
H1128 C1134 0.930 . S
H1129 C1137 0.930 . S
H1130 C1138 0.930 . S
H1131 C1139 0.930 . S
H1132 C1142 0.930 . S
H1133 C1143 0.948 . S
C1134 H1128 0.930 . S
C1134 C1135 1.355 . S
C1134 C1136 1.415 . S
C1135 C1134 1.355 . S
C1135 C1137 1.419 . S
C1136 C1134 1.415 . S
C1136 C1141 1.425 . S
C1136 C1143 1.380 1_565 S
C1137 H1129 0.930 . S
C1137 C1135 1.419 . S
C1137 C1138 1.362 . S
C1138 H1130 0.930 . S
C1138 C1137 1.362 . S
C1138 C1141 1.409 . S
C1139 H1131 0.930 . S
C1139 C1140 1.355 . S
C1139 C1141 1.415 . S
C1140 C1139 1.355 . S
C1140 C1142 1.419 1_565 S
C1141 C1136 1.425 . S
C1141 C1138 1.409 . S
C1141 C1139 1.415 . S
C1142 H1132 0.930 . S
C1142 C1140 1.419 1_545 S
C1142 C1143 1.374 . S
C1143 H1133 0.948 . S
C1143 C1136 1.380 1_545 S
C1143 C1142 1.374 . S
H1144 C1150 0.930 . S
H1145 C1153 0.930 . S
H1146 C1154 0.930 . S
H1147 C1155 0.930 . S
H1148 C1158 0.930 . S
H1149 C1159 0.930 . S
C1150 H1144 0.930 . S
C1150 C1151 1.355 . S
C1150 C1152 1.415 . S
C1151 C1150 1.355 . S
C1151 C1153 1.419 . S
C1152 C1150 1.415 . S
C1152 C1157 1.425 . S
C1152 C1159 1.409 . S
C1153 H1145 0.930 . S
C1153 C1151 1.419 . S
C1153 C1154 1.362 . S
C1154 H1146 0.930 . S
C1154 C1153 1.362 . S
C1154 C1157 1.409 . S
C1155 H1147 0.930 . S
C1155 C1156 1.355 . S
C1155 C1157 1.415 . S
C1156 C1155 1.355 . S
C1156 C1158 1.419 . S
C1157 C1152 1.425 . S
C1157 C1154 1.409 . S
C1157 C1155 1.415 . S
C1158 H1148 0.930 . S
C1158 C1156 1.419 . S
C1158 C1159 1.362 . S
C1159 H1149 0.930 . S
C1159 C1152 1.409 . S
C1159 C1158 1.362 . S
H1160 C1166 0.930 . S
H1161 C1169 0.930 . S
H1162 C1170 0.930 . S
H1163 C1171 0.930 . S
H1164 C1174 0.930 . S
H1165 C1175 0.930 . S
C1166 H1160 0.930 . S
C1166 C1167 1.355 . S
C1166 C1168 1.415 . S
C1167 C1166 1.355 . S
C1167 C1169 1.419 . S
C1168 C1166 1.415 . S
C1168 C1173 1.425 . S
C1168 C1175 1.409 . S
C1169 H1161 0.930 . S
C1169 C1167 1.419 . S
C1169 C1170 1.362 . S
C1170 H1162 0.930 . S
C1170 C1169 1.362 . S
C1170 C1173 1.409 . S
C1171 H1163 0.930 . S
C1171 C1172 1.355 . S
C1171 C1173 1.415 . S
C1172 C1171 1.355 . S
C1172 C1174 1.419 . S
C1173 C1168 1.425 . S
C1173 C1170 1.409 . S
C1173 C1171 1.415 . S
C1174 H1164 0.930 . S
C1174 C1172 1.419 . S
C1174 C1175 1.362 . S
C1175 H1165 0.930 . S
C1175 C1168 1.409 . S
C1175 C1174 1.362 . S
H1176 C1182 0.930 . S
H1177 C1185 0.930 . S
H1178 C1186 0.930 . S
H1179 C1187 0.930 1_655 S
H1180 C1190 0.930 . S
H1181 C1191 0.930 . S
C1182 H1176 0.930 . S
C1182 C1183 1.355 . S
C1182 C1184 1.415 . S
C1183 C1182 1.355 . S
C1183 C1185 1.419 1_455 S
C1184 C1182 1.415 . S
C1184 C1189 1.425 . S
C1184 C1191 1.409 . S
C1185 H1177 0.930 . S
C1185 C1183 1.419 1_655 S
C1185 C1186 1.362 . S
C1186 H1178 0.930 . S
C1186 C1185 1.362 . S
C1186 C1189 1.409 1_655 S
C1187 H1179 0.930 1_455 S
C1187 C1188 1.355 . S
C1187 C1189 1.415 . S
C1188 C1187 1.355 . S
C1188 C1190 1.419 . S
C1189 C1184 1.425 . S
C1189 C1186 1.409 1_455 S
C1189 C1187 1.415 . S
C1190 H1180 0.930 . S
C1190 C1188 1.419 . S
C1190 C1191 1.362 . S
C1191 H1181 0.930 . S
C1191 C1184 1.409 . S
C1191 C1190 1.362 . S
H1192 C1198 0.930 . S
H1193 C1201 0.930 . S
H1194 C1202 0.930 . S
H1195 C1203 0.930 . S
H1196 C1206 0.930 . S
H1197 C1207 0.930 . S
C1198 H1192 0.930 . S
C1198 C1199 1.355 . S
C1198 C1200 1.415 . S
C1199 C1198 1.355 . S
C1199 C1201 1.419 . S
C1200 C1198 1.415 . S
C1200 C1205 1.425 . S
C1200 C1207 1.409 . S
C1201 H1193 0.930 . S
C1201 C1199 1.419 . S
C1201 C1202 1.362 . S
C1202 H1194 0.930 . S
C1202 C1201 1.362 . S
C1202 C1205 1.409 . S
C1203 H1195 0.930 . S
C1203 C1204 1.355 . S
C1203 C1205 1.415 . S
C1204 C1203 1.355 . S
C1204 C1206 1.419 . S
C1205 C1200 1.425 . S
C1205 C1202 1.409 . S
C1205 C1203 1.415 . S
C1206 H1196 0.930 . S
C1206 C1204 1.419 . S
C1206 C1207 1.362 . S
C1207 H1197 0.930 . S
C1207 C1200 1.409 . S
C1207 C1206 1.362 . S
H1208 C1214 0.930 . S
H1209 C1217 0.930 . S
H1210 C1218 0.930 . S
H1211 C1219 0.930 . S
H1212 C1222 0.930 . S
H1213 C1223 0.930 . S
C1214 H1208 0.930 . S
C1214 C1215 1.355 . S
C1214 C1216 1.415 . S
C1215 C1214 1.355 . S
C1215 C1217 1.419 . S
C1216 C1214 1.415 . S
C1216 C1221 1.425 . S
C1216 C1223 1.409 . S
C1217 H1209 0.930 . S
C1217 C1215 1.419 . S
C1217 C1218 1.362 . S
C1218 H1210 0.930 . S
C1218 C1217 1.362 . S
C1218 C1221 1.409 . S
C1219 H1211 0.930 . S
C1219 C1220 1.355 . S
C1219 C1221 1.415 . S
C1220 C1219 1.355 . S
C1220 C1222 1.419 . S
C1221 C1216 1.425 . S
C1221 C1218 1.409 . S
C1221 C1219 1.415 . S
C1222 H1212 0.930 . S
C1222 C1220 1.419 . S
C1222 C1223 1.362 . S
C1223 H1213 0.930 . S
C1223 C1216 1.409 . S
C1223 C1222 1.362 . S
H1224 C1230 0.930 . S
H1225 C1233 0.930 . S
H1226 C1234 0.930 . S
H1227 C1235 0.930 . S
H1228 C1238 0.930 . S
H1229 C1239 0.930 . S
C1230 H1224 0.930 . S
C1230 C1231 1.355 . S
C1230 C1232 1.415 . S
C1231 C1230 1.355 . S
C1231 C1233 1.419 . S
C1232 C1230 1.415 . S
C1232 C1237 1.425 . S
C1232 C1239 1.409 . S
C1233 H1225 0.930 . S
C1233 C1231 1.419 . S
C1233 C1234 1.362 . S
C1234 H1226 0.930 . S
C1234 C1233 1.362 . S
C1234 C1237 1.409 . S
C1235 H1227 0.930 . S
C1235 C1236 1.355 . S
C1235 C1237 1.415 . S
C1236 C1235 1.355 . S
C1236 C1238 1.419 . S
C1237 C1232 1.425 . S
C1237 C1234 1.409 . S
C1237 C1235 1.415 . S
C1238 H1228 0.930 . S
C1238 C1236 1.419 . S
C1238 C1239 1.362 . S
C1239 H1229 0.930 . S
C1239 C1232 1.409 . S
C1239 C1238 1.362 . S
H1240 C1246 0.930 . S
H1241 C1249 0.930 . S
H1242 C1250 0.930 . S
H1243 C1251 0.930 . S
H1244 C1254 0.930 . S
H1245 C1255 0.930 . S
C1246 H1240 0.930 . S
C1246 C1247 1.358 . S
C1246 C1248 1.415 1_655 S
C1247 C1246 1.358 . S
C1247 C1249 1.410 1_655 S
C1248 C1246 1.415 1_455 S
C1248 C1253 1.425 . S
C1248 C1255 1.409 1_455 S
C1249 H1241 0.930 . S
C1249 C1247 1.410 1_455 S
C1249 C1250 1.362 . S
C1250 H1242 0.930 . S
C1250 C1249 1.362 . S
C1250 C1253 1.409 . S
C1251 H1243 0.930 . S
C1251 C1252 1.355 . S
C1251 C1253 1.415 . S
C1252 C1251 1.355 . S
C1252 C1254 1.419 . S
C1253 C1248 1.425 . S
C1253 C1250 1.409 . S
C1253 C1251 1.415 . S
C1254 H1244 0.930 . S
C1254 C1252 1.419 . S
C1254 C1255 1.362 1_455 S
C1255 H1245 0.930 . S
C1255 C1248 1.409 1_655 S
C1255 C1254 1.362 1_655 S
H1256 C1262 0.930 . S
H1257 C1265 0.930 . S
H1258 C1266 0.930 . S
H1259 C1267 0.930 . S
H1260 C1270 0.930 . S
H1261 C1271 0.930 . S
C1262 H1256 0.930 . S
C1262 C1263 1.355 . S
C1262 C1264 1.415 . S
C1263 C1262 1.355 . S
C1263 C1265 1.419 . S
C1264 C1262 1.415 . S
C1264 C1269 1.425 . S
C1264 C1271 1.409 . S
C1265 H1257 0.930 . S
C1265 C1263 1.419 . S
C1265 C1266 1.362 . S
C1266 H1258 0.930 . S
C1266 C1265 1.362 . S
C1266 C1269 1.409 . S
C1267 H1259 0.930 . S
C1267 C1268 1.355 . S
C1267 C1269 1.415 . S
C1268 C1267 1.355 . S
C1268 C1270 1.419 . S
C1269 C1264 1.425 . S
C1269 C1266 1.409 . S
C1269 C1267 1.415 . S
C1270 H1260 0.930 . S
C1270 C1268 1.419 . S
C1270 C1271 1.362 . S
C1271 H1261 0.930 . S
C1271 C1264 1.409 . S
C1271 C1270 1.362 . S
H1272 C1278 0.930 . S
H1273 C1281 0.930 . S
H1274 C1282 0.930 . S
H1275 C1283 0.930 . S
H1276 C1286 0.930 . S
H1277 C1287 0.930 . S
C1278 H1272 0.930 . S
C1278 C1279 1.355 . S
C1278 C1280 1.415 . S
C1279 C1278 1.355 . S
C1279 C1281 1.419 . S
C1280 C1278 1.415 . S
C1280 C1285 1.425 . S
C1280 C1287 1.409 . S
C1281 H1273 0.930 . S
C1281 C1279 1.419 . S
C1281 C1282 1.362 . S
C1282 H1274 0.930 . S
C1282 C1281 1.362 . S
C1282 C1285 1.409 . S
C1283 H1275 0.930 . S
C1283 C1284 1.355 . S
C1283 C1285 1.415 . S
C1284 C1283 1.355 . S
C1284 C1286 1.419 . S
C1285 C1280 1.425 . S
C1285 C1282 1.409 . S
C1285 C1283 1.415 . S
C1286 H1276 0.930 . S
C1286 C1284 1.419 . S
C1286 C1287 1.362 . S
C1287 H1277 0.930 . S
C1287 C1280 1.409 . S
C1287 C1286 1.362 . S
H1288 C1294 0.930 . S
H1289 C1297 0.930 . S
H1290 C1298 0.930 . S
H1291 C1299 0.930 . S
H1292 C1302 0.930 . S
H1293 C1303 0.930 . S
C1294 H1288 0.930 . S
C1294 C1295 1.355 . S
C1294 C1296 1.415 . S
C1295 C1294 1.355 . S
C1295 C1297 1.419 . S
C1296 C1294 1.415 . S
C1296 C1301 1.425 . S
C1296 C1303 1.409 . S
C1297 H1289 0.930 . S
C1297 C1295 1.419 . S
C1297 C1298 1.362 . S
C1298 H1290 0.930 . S
C1298 C1297 1.362 . S
C1298 C1301 1.409 . S
C1299 H1291 0.930 . S
C1299 C1300 1.355 . S
C1299 C1301 1.415 . S
C1300 C1299 1.355 . S
C1300 C1302 1.419 . S
C1301 C1296 1.425 . S
C1301 C1298 1.409 . S
C1301 C1299 1.415 . S
C1302 H1292 0.930 . S
C1302 C1300 1.419 . S
C1302 C1303 1.362 . S
C1303 H1293 0.930 . S
C1303 C1296 1.409 . S
C1303 C1302 1.362 . S
H1304 C1310 0.930 . S
H1305 C1313 0.930 . S
H1306 C1314 0.930 . S
H1307 C1315 0.930 . S
H1308 C1318 0.930 . S
H1309 C1319 0.930 . S
C1310 H1304 0.930 . S
C1310 C1311 1.355 . S
C1310 C1312 1.415 . S
C1311 C1310 1.355 . S
C1311 C1313 1.419 . S
C1312 C1310 1.415 . S
C1312 C1317 1.425 . S
C1312 C1319 1.409 . S
C1313 H1305 0.930 . S
C1313 C1311 1.419 . S
C1313 C1314 1.362 . S
C1314 H1306 0.930 . S
C1314 C1313 1.362 . S
C1314 C1317 1.409 . S
C1315 H1307 0.930 . S
C1315 C1316 1.355 . S
C1315 C1317 1.415 . S
C1316 C1315 1.355 . S
C1316 C1318 1.419 . S
C1317 C1312 1.425 . S
C1317 C1314 1.409 . S
C1317 C1315 1.415 . S
C1318 H1308 0.930 . S
C1318 C1316 1.419 . S
C1318 C1319 1.362 . S
C1319 H1309 0.930 . S
C1319 C1312 1.409 . S
C1319 C1318 1.362 . S
H1320 C1326 0.930 . S
H1321 C1329 0.930 . S
H1322 C1330 0.930 . S
H1323 C1331 0.930 . S
H1324 C1334 0.930 . S
H1325 C1335 0.930 . S
C1326 H1320 0.930 . S
C1326 C1327 1.355 . S
C1326 C1328 1.415 . S
C1327 C1326 1.355 . S
C1327 C1329 1.419 . S
C1328 C1326 1.415 . S
C1328 C1333 1.425 . S
C1328 C1335 1.409 . S
C1329 H1321 0.930 . S
C1329 C1327 1.419 . S
C1329 C1330 1.362 . S
C1330 H1322 0.930 . S
C1330 C1329 1.362 . S
C1330 C1333 1.409 . S
C1331 H1323 0.930 . S
C1331 C1332 1.355 . S
C1331 C1333 1.415 . S
C1332 C1331 1.355 . S
C1332 C1334 1.419 . S
C1333 C1328 1.425 . S
C1333 C1330 1.409 . S
C1333 C1331 1.415 . S
C1334 H1324 0.930 . S
C1334 C1332 1.419 . S
C1334 C1335 1.362 . S
C1335 H1325 0.930 . S
C1335 C1328 1.409 . S
C1335 C1334 1.362 . S
H1336 C1342 0.930 . S
H1337 C1345 0.930 . S
H1338 C1346 0.930 . S
H1339 C1347 0.893 1_565 S
H1340 C1350 0.930 . S
H1341 C1351 0.930 . S
C1342 H1336 0.930 . S
C1342 C1343 1.355 . S
C1342 C1344 1.415 . S
C1343 C1342 1.355 . S
C1343 C1345 1.419 1_545 S
C1344 C1342 1.415 . S
C1344 C1349 1.425 . S
C1344 C1351 1.409 . S
C1345 H1337 0.930 . S
C1345 C1343 1.419 1_565 S
C1345 C1346 1.362 . S
C1346 H1338 0.930 . S
C1346 C1345 1.362 . S
C1346 C1349 1.409 1_565 S
C1347 H1339 0.893 1_545 S
C1347 C1348 1.387 . S
C1347 C1349 1.419 . S
C1348 C1347 1.387 . S
C1348 C1350 1.419 . S
C1349 C1344 1.425 . S
C1349 C1346 1.409 1_545 S
C1349 C1347 1.419 . S
C1350 H1340 0.930 . S
C1350 C1348 1.419 . S
C1350 C1351 1.362 . S
C1351 H1341 0.930 . S
C1351 C1344 1.409 . S
C1351 C1350 1.362 . S
H1352 C1358 0.930 . S
H1353 C1361 0.930 . S
H1354 C1362 0.930 . S
H1355 C1363 0.930 . S
H1356 C1366 0.930 . S
H1357 C1367 0.930 . S
C1358 H1352 0.930 . S
C1358 C1359 1.355 . S
C1358 C1360 1.415 . S
C1359 C1358 1.355 . S
C1359 C1361 1.419 . S
C1360 C1358 1.415 . S
C1360 C1365 1.425 . S
C1360 C1367 1.409 . S
C1361 H1353 0.930 . S
C1361 C1359 1.419 . S
C1361 C1362 1.362 . S
C1362 H1354 0.930 . S
C1362 C1361 1.362 . S
C1362 C1365 1.409 . S
C1363 H1355 0.930 . S
C1363 C1364 1.355 . S
C1363 C1365 1.415 . S
C1364 C1363 1.355 . S
C1364 C1366 1.419 . S
C1365 C1360 1.425 . S
C1365 C1362 1.409 . S
C1365 C1363 1.415 . S
C1366 H1356 0.930 . S
C1366 C1364 1.419 . S
C1366 C1367 1.362 . S
C1367 H1357 0.930 . S
C1367 C1360 1.409 . S
C1367 C1366 1.362 . S
H1368 C1374 0.930 . S
H1369 C1377 0.930 . S
H1370 C1378 0.930 . S
H1371 C1379 0.930 . S
H1372 C1382 0.942 . S
H1373 C1383 0.930 . S
C1374 H1368 0.930 . S
C1374 C1375 1.355 . S
C1374 C1376 1.415 . S
C1375 C1374 1.355 . S
C1375 C1377 1.419 . S
C1376 C1374 1.415 . S
C1376 C1381 1.425 . S
C1376 C1383 1.409 . S
C1377 H1369 0.930 . S
C1377 C1375 1.419 . S
C1377 C1378 1.362 . S
C1378 H1370 0.930 . S
C1378 C1377 1.362 . S
C1378 C1381 1.409 . S
C1379 H1371 0.930 . S
C1379 C1380 1.355 . S
C1379 C1381 1.415 . S
C1380 C1379 1.355 . S
C1380 C1382 1.412 1_655 S
C1381 C1376 1.425 . S
C1381 C1378 1.409 . S
C1381 C1379 1.415 . S
C1382 H1372 0.942 . S
C1382 C1380 1.412 1_455 S
C1382 C1383 1.358 1_455 S
C1383 H1373 0.930 . S
C1383 C1376 1.409 . S
C1383 C1382 1.358 1_655 S
H1384 C1390 0.930 . S
H1385 C1393 0.930 . S
H1386 C1394 0.930 . S
H1387 C1395 0.930 . S
H1388 C1398 0.930 . S
H1389 C1399 0.930 . S
C1390 H1384 0.930 . S
C1390 C1391 1.355 . S
C1390 C1392 1.415 . S
C1391 C1390 1.355 . S
C1391 C1393 1.419 . S
C1392 C1390 1.415 . S
C1392 C1397 1.425 . S
C1392 C1399 1.409 . S
C1393 H1385 0.930 . S
C1393 C1391 1.419 . S
C1393 C1394 1.362 . S
C1394 H1386 0.930 . S
C1394 C1393 1.362 . S
C1394 C1397 1.409 . S
C1395 H1387 0.930 . S
C1395 C1396 1.355 . S
C1395 C1397 1.415 . S
C1396 C1395 1.355 . S
C1396 C1398 1.419 . S
C1397 C1392 1.425 . S
C1397 C1394 1.409 . S
C1397 C1395 1.415 . S
C1398 H1388 0.930 . S
C1398 C1396 1.419 . S
C1398 C1399 1.362 . S
C1399 H1389 0.930 . S
C1399 C1392 1.409 . S
C1399 C1398 1.362 . S
H1400 C1406 0.930 . S
H1401 C1409 0.914 1_565 S
H1402 C1410 0.930 . S
H1403 C1411 0.930 . S
H1404 C1414 0.930 . S
H1405 C1415 0.930 . S
C1406 H1400 0.930 . S
C1406 C1407 1.355 . S
C1406 C1408 1.415 . S
C1407 C1406 1.355 . S
C1407 C1409 1.425 . S
C1408 C1406 1.415 . S
C1408 C1413 1.425 . S
C1408 C1415 1.409 . S
C1409 H1401 0.914 1_545 S
C1409 C1407 1.425 . S
C1409 C1410 1.374 . S
C1410 H1402 0.930 . S
C1410 C1409 1.374 . S
C1410 C1413 1.409 . S
C1411 H1403 0.930 . S
C1411 C1412 1.355 . S
C1411 C1413 1.415 . S
C1412 C1411 1.355 . S
C1412 C1414 1.419 . S
C1413 C1408 1.425 . S
C1413 C1410 1.409 . S
C1413 C1411 1.415 . S
C1414 H1404 0.930 . S
C1414 C1412 1.419 . S
C1414 C1415 1.362 . S
C1415 H1405 0.930 . S
C1415 C1408 1.409 . S
C1415 C1414 1.362 . S
H1416 C1422 0.930 . S
H1417 C1425 0.930 . S
H1418 C1426 0.930 . S
H1419 C1427 0.930 . S
H1420 C1430 0.930 . S
H1421 C1431 0.930 . S
C1422 H1416 0.930 . S
C1422 C1423 1.355 . S
C1422 C1424 1.415 . S
C1423 C1422 1.355 . S
C1423 C1425 1.419 . S
C1424 C1422 1.415 . S
C1424 C1429 1.425 . S
C1424 C1431 1.409 . S
C1425 H1417 0.930 . S
C1425 C1423 1.419 . S
C1425 C1426 1.362 . S
C1426 H1418 0.930 . S
C1426 C1425 1.362 . S
C1426 C1429 1.409 . S
C1427 H1419 0.930 . S
C1427 C1428 1.355 . S
C1427 C1429 1.415 . S
C1428 C1427 1.355 . S
C1428 C1430 1.419 . S
C1429 C1424 1.425 . S
C1429 C1426 1.409 . S
C1429 C1427 1.415 . S
C1430 H1420 0.930 . S
C1430 C1428 1.419 . S
C1430 C1431 1.362 . S
C1431 H1421 0.930 . S
C1431 C1424 1.409 . S
C1431 C1430 1.362 . S
H1432 C1438 0.930 . S
H1433 C1441 0.930 . S
H1434 C1442 0.930 1_545 S
H1435 C1443 0.930 . S
H1436 C1446 0.930 . S
H1437 C1447 0.930 . S
C1438 H1432 0.930 . S
C1438 C1439 1.355 . S
C1438 C1440 1.415 . S
C1439 C1438 1.355 . S
C1439 C1441 1.419 . S
C1440 C1438 1.415 . S
C1440 C1445 1.425 . S
C1440 C1447 1.409 . S
C1441 H1433 0.930 . S
C1441 C1439 1.419 . S
C1441 C1442 1.362 . S
C1442 H1434 0.930 1_565 S
C1442 C1441 1.362 . S
C1442 C1445 1.409 . S
C1443 H1435 0.930 . S
C1443 C1444 1.355 1_545 S
C1443 C1445 1.415 1_545 S
C1444 C1443 1.355 1_565 S
C1444 C1446 1.419 . S
C1445 C1440 1.425 . S
C1445 C1442 1.409 . S
C1445 C1443 1.415 1_565 S
C1446 H1436 0.930 . S
C1446 C1444 1.419 . S
C1446 C1447 1.362 . S
C1447 H1437 0.930 . S
C1447 C1440 1.409 . S
C1447 C1446 1.362 . S
H1448 C1454 0.930 . S
H1449 C1457 0.930 . S
H1450 C1458 0.930 . S
H1451 C1459 0.930 . S
H1452 C1462 0.930 . S
H1453 C1463 0.930 . S
C1454 H1448 0.930 . S
C1454 C1455 1.355 . S
C1454 C1456 1.415 . S
C1455 C1454 1.355 . S
C1455 C1457 1.419 1_554 S
C1456 C1454 1.415 . S
C1456 C1461 1.425 . S
C1456 C1463 1.409 . S
C1457 H1449 0.930 . S
C1457 C1455 1.419 1_556 S
C1457 C1458 1.362 . S
C1458 H1450 0.930 . S
C1458 C1457 1.362 . S
C1458 C1461 1.409 1_556 S
C1459 H1451 0.930 . S
C1459 C1460 1.355 . S
C1459 C1461 1.415 . S
C1460 C1459 1.355 . S
C1460 C1462 1.419 . S
C1461 C1456 1.425 . S
C1461 C1458 1.409 1_554 S
C1461 C1459 1.415 . S
C1462 H1452 0.930 . S
C1462 C1460 1.419 . S
C1462 C1463 1.362 . S
C1463 H1453 0.930 . S
C1463 C1456 1.409 . S
C1463 C1462 1.362 . S
H1464 C1470 0.930 . S
H1465 C1473 0.930 . S
H1466 C1474 0.930 . S
H1467 C1475 0.930 . S
H1468 C1478 0.930 . S
H1469 C1479 0.930 . S
C1470 H1464 0.930 . S
C1470 C1471 1.355 . S
C1470 C1472 1.415 . S
C1471 C1470 1.355 . S
C1471 C1473 1.419 . S
C1472 C1470 1.415 . S
C1472 C1477 1.425 . S
C1472 C1479 1.409 . S
C1473 H1465 0.930 . S
C1473 C1471 1.419 . S
C1473 C1474 1.362 . S
C1474 H1466 0.930 . S
C1474 C1473 1.362 . S
C1474 C1477 1.409 . S
C1475 H1467 0.930 . S
C1475 C1476 1.355 . S
C1475 C1477 1.415 . S
C1476 C1475 1.355 . S
C1476 C1478 1.419 . S
C1477 C1472 1.425 . S
C1477 C1474 1.409 . S
C1477 C1475 1.415 . S
C1478 H1468 0.930 . S
C1478 C1476 1.419 . S
C1478 C1479 1.362 . S
C1479 H1469 0.930 . S
C1479 C1472 1.409 . S
C1479 C1478 1.362 . S
H1480 C1486 0.930 . S
H1481 C1489 0.930 . S
H1482 C1490 0.930 . S
H1483 C1491 0.930 . S
H1484 C1494 0.930 . S
H1485 C1495 0.930 . S
C1486 H1480 0.930 . S
C1486 C1487 1.355 . S
C1486 C1488 1.415 . S
C1487 C1486 1.355 . S
C1487 C1489 1.419 . S
C1488 C1486 1.415 . S
C1488 C1493 1.425 . S
C1488 C1495 1.409 . S
C1489 H1481 0.930 . S
C1489 C1487 1.419 . S
C1489 C1490 1.362 . S
C1490 H1482 0.930 . S
C1490 C1489 1.362 . S
C1490 C1493 1.409 . S
C1491 H1483 0.930 . S
C1491 C1492 1.355 . S
C1491 C1493 1.415 . S
C1492 C1491 1.355 . S
C1492 C1494 1.419 . S
C1493 C1488 1.425 . S
C1493 C1490 1.409 . S
C1493 C1491 1.415 . S
C1494 H1484 0.930 . S
C1494 C1492 1.419 . S
C1494 C1495 1.362 . S
C1495 H1485 0.930 . S
C1495 C1488 1.409 . S
C1495 C1494 1.362 . S
H1496 C1502 0.930 . S
H1497 C1505 0.930 . S
H1498 C1506 0.930 . S
H1499 C1507 0.930 . S
H1500 C1510 0.930 . S
H1501 C1511 0.930 . S
C1502 H1496 0.930 . S
C1502 C1503 1.355 . S
C1502 C1504 1.415 . S
C1503 C1502 1.355 . S
C1503 C1505 1.419 . S
C1504 C1502 1.415 . S
C1504 C1509 1.425 . S
C1504 C1511 1.409 . S
C1505 H1497 0.930 . S
C1505 C1503 1.419 . S
C1505 C1506 1.362 . S
C1506 H1498 0.930 . S
C1506 C1505 1.362 . S
C1506 C1509 1.409 . S
C1507 H1499 0.930 . S
C1507 C1508 1.355 . S
C1507 C1509 1.415 . S
C1508 C1507 1.355 . S
C1508 C1510 1.419 . S
C1509 C1504 1.425 . S
C1509 C1506 1.409 . S
C1509 C1507 1.415 . S
C1510 H1500 0.930 . S
C1510 C1508 1.419 . S
C1510 C1511 1.362 . S
C1511 H1501 0.930 . S
C1511 C1504 1.409 . S
C1511 C1510 1.362 . S
H1512 C1518 0.930 . S
H1513 C1521 0.930 . S
H1514 C1522 0.930 . S
H1515 C1523 0.930 . S
H1516 C1526 0.930 . S
H1517 C1527 0.930 . S
C1518 H1512 0.930 . S
C1518 C1519 1.355 . S
C1518 C1520 1.415 . S
C1519 C1518 1.355 . S
C1519 C1521 1.419 . S
C1520 C1518 1.415 . S
C1520 C1525 1.425 . S
C1520 C1527 1.409 . S
C1521 H1513 0.930 . S
C1521 C1519 1.419 . S
C1521 C1522 1.362 . S
C1522 H1514 0.930 . S
C1522 C1521 1.362 . S
C1522 C1525 1.409 . S
C1523 H1515 0.930 . S
C1523 C1524 1.355 . S
C1523 C1525 1.415 . S
C1524 C1523 1.355 . S
C1524 C1526 1.419 . S
C1525 C1520 1.425 . S
C1525 C1522 1.409 . S
C1525 C1523 1.415 . S
C1526 H1516 0.930 . S
C1526 C1524 1.419 . S
C1526 C1527 1.362 . S
C1527 H1517 0.930 . S
C1527 C1520 1.409 . S
C1527 C1526 1.362 . S
H1528 C1534 0.930 . S
H1529 C1537 0.930 . S
H1530 C1538 0.930 . S
H1531 C1539 0.930 . S
H1532 C1542 0.930 . S
H1533 C1543 0.930 . S
C1534 H1528 0.930 . S
C1534 C1535 1.355 . S
C1534 C1536 1.415 . S
C1535 C1534 1.355 . S
C1535 C1537 1.419 . S
C1536 C1534 1.415 . S
C1536 C1541 1.425 . S
C1536 C1543 1.409 . S
C1537 H1529 0.930 . S
C1537 C1535 1.419 . S
C1537 C1538 1.362 . S
C1538 H1530 0.930 . S
C1538 C1537 1.362 . S
C1538 C1541 1.409 . S
C1539 H1531 0.930 . S
C1539 C1540 1.355 . S
C1539 C1541 1.415 . S
C1540 C1539 1.355 . S
C1540 C1542 1.419 . S
C1541 C1536 1.425 . S
C1541 C1538 1.409 . S
C1541 C1539 1.415 . S
C1542 H1532 0.930 . S
C1542 C1540 1.419 . S
C1542 C1543 1.362 . S
C1543 H1533 0.930 . S
C1543 C1536 1.409 . S
C1543 C1542 1.362 . S
H1544 C1550 0.930 . S
H1545 C1553 0.930 . S
H1546 C1554 0.930 . S
H1547 C1555 0.930 . S
H1548 C1558 0.930 . S
H1549 C1559 0.930 . S
C1550 H1544 0.930 . S
C1550 C1551 1.355 . S
C1550 C1552 1.415 . S
C1551 C1550 1.355 . S
C1551 C1553 1.419 . S
C1552 C1550 1.415 . S
C1552 C1557 1.425 . S
C1552 C1559 1.409 . S
C1553 H1545 0.930 . S
C1553 C1551 1.419 . S
C1553 C1554 1.362 . S
C1554 H1546 0.930 . S
C1554 C1553 1.362 . S
C1554 C1557 1.409 . S
C1555 H1547 0.930 . S
C1555 C1556 1.355 . S
C1555 C1557 1.415 . S
C1556 C1555 1.355 . S
C1556 C1558 1.419 . S
C1557 C1552 1.425 . S
C1557 C1554 1.409 . S
C1557 C1555 1.415 . S
C1558 H1548 0.930 . S
C1558 C1556 1.419 . S
C1558 C1559 1.362 . S
C1559 H1549 0.930 . S
C1559 C1552 1.409 . S
C1559 C1558 1.362 . S
H1560 C1566 0.930 . S
H1561 C1569 0.930 . S
H1562 C1570 0.930 . S
H1563 C1571 0.930 . S
H1564 C1574 0.930 . S
H1565 C1575 0.930 . S
C1566 H1560 0.930 . S
C1566 C1567 1.355 . S
C1566 C1568 1.415 . S
C1567 C1566 1.355 . S
C1567 C1569 1.419 . S
C1568 C1566 1.415 . S
C1568 C1573 1.425 . S
C1568 C1575 1.409 . S
C1569 H1561 0.930 . S
C1569 C1567 1.419 . S
C1569 C1570 1.362 . S
C1570 H1562 0.930 . S
C1570 C1569 1.362 . S
C1570 C1573 1.409 . S
C1571 H1563 0.930 . S
C1571 C1572 1.355 . S
C1571 C1573 1.415 . S
C1572 C1571 1.355 . S
C1572 C1574 1.419 . S
C1573 C1568 1.425 . S
C1573 C1570 1.409 . S
C1573 C1571 1.415 . S
C1574 H1564 0.930 . S
C1574 C1572 1.419 . S
C1574 C1575 1.362 . S
C1575 H1565 0.930 . S
C1575 C1568 1.409 . S
C1575 C1574 1.362 . S
H1576 C1582 0.930 . S
H1577 C1585 0.930 . S
H1578 C1586 0.930 . S
H1579 C1587 0.930 . S
H1580 C1590 0.930 . S
H1581 C1591 0.930 . S
C1582 H1576 0.930 . S
C1582 C1583 1.355 . S
C1582 C1584 1.415 . S
C1583 C1582 1.355 . S
C1583 C1585 1.419 . S
C1584 C1582 1.415 . S
C1584 C1589 1.425 . S
C1584 C1591 1.409 . S
C1585 H1577 0.930 . S
C1585 C1583 1.419 . S
C1585 C1586 1.362 . S
C1586 H1578 0.930 . S
C1586 C1585 1.362 . S
C1586 C1589 1.409 . S
C1587 H1579 0.930 . S
C1587 C1588 1.355 . S
C1587 C1589 1.415 . S
C1588 C1587 1.355 . S
C1588 C1590 1.419 . S
C1589 C1584 1.425 . S
C1589 C1586 1.409 . S
C1589 C1587 1.415 . S
C1590 H1580 0.930 . S
C1590 C1588 1.419 . S
C1590 C1591 1.362 . S
C1591 H1581 0.930 . S
C1591 C1584 1.409 . S
C1591 C1590 1.362 . S
H1592 C1598 0.930 . S
H1593 C1601 0.930 . S
H1594 C1602 0.930 . S
H1595 C1603 0.930 . S
H1596 C1606 0.930 1_655 S
H1597 C1607 0.930 1_655 S
C1598 H1592 0.930 . S
C1598 C1599 1.355 . S
C1598 C1600 1.415 . S
C1599 C1598 1.355 . S
C1599 C1601 1.419 . S
C1600 C1598 1.415 . S
C1600 C1605 1.425 . S
C1600 C1607 1.409 . S
C1601 H1593 0.930 . S
C1601 C1599 1.419 . S
C1601 C1602 1.362 . S
C1602 H1594 0.930 . S
C1602 C1601 1.362 . S
C1602 C1605 1.409 . S
C1603 H1595 0.930 . S
C1603 C1604 1.355 . S
C1603 C1605 1.415 . S
C1604 C1603 1.355 . S
C1604 C1606 1.419 . S
C1605 C1600 1.425 . S
C1605 C1602 1.409 . S
C1605 C1603 1.415 . S
C1606 H1596 0.930 1_455 S
C1606 C1604 1.419 . S
C1606 C1607 1.362 . S
C1607 H1597 0.930 1_455 S
C1607 C1600 1.409 . S
C1607 C1606 1.362 . S
H1608 C1614 0.930 . S
H1609 C1617 0.930 . S
H1610 C1618 0.930 . S
H1611 C1619 0.930 . S
H1612 C1622 0.930 . S
H1613 C1623 0.930 . S
C1614 H1608 0.930 . S
C1614 C1615 1.355 . S
C1614 C1616 1.415 . S
C1615 C1614 1.355 . S
C1615 C1617 1.419 . S
C1616 C1614 1.415 . S
C1616 C1621 1.425 . S
C1616 C1623 1.409 . S
C1617 H1609 0.930 . S
C1617 C1615 1.419 . S
C1617 C1618 1.362 . S
C1618 H1610 0.930 . S
C1618 C1617 1.362 . S
C1618 C1621 1.409 . S
C1619 H1611 0.930 . S
C1619 C1620 1.355 . S
C1619 C1621 1.415 . S
C1620 C1619 1.355 . S
C1620 C1622 1.419 . S
C1621 C1616 1.425 . S
C1621 C1618 1.409 . S
C1621 C1619 1.415 . S
C1622 H1612 0.930 . S
C1622 C1620 1.419 . S
C1622 C1623 1.362 . S
C1623 H1613 0.930 . S
C1623 C1616 1.409 . S
C1623 C1622 1.362 . S
H1624 C1630 0.930 . S
H1625 C1633 0.930 . S
H1626 C1634 0.930 . S
H1627 C1635 0.930 . S
H1628 C1638 0.930 . S
H1629 C1639 0.930 . S
C1630 H1624 0.930 . S
C1630 C1631 1.355 . S
C1630 C1632 1.415 . S
C1631 C1630 1.355 . S
C1631 C1633 1.419 . S
C1632 C1630 1.415 . S
C1632 C1637 1.425 . S
C1632 C1639 1.409 . S
C1633 H1625 0.930 . S
C1633 C1631 1.419 . S
C1633 C1634 1.362 . S
C1634 H1626 0.930 . S
C1634 C1633 1.362 . S
C1634 C1637 1.409 . S
C1635 H1627 0.930 . S
C1635 C1636 1.355 . S
C1635 C1637 1.415 . S
C1636 C1635 1.355 . S
C1636 C1638 1.419 . S
C1637 C1632 1.425 . S
C1637 C1634 1.409 . S
C1637 C1635 1.415 . S
C1638 H1628 0.930 . S
C1638 C1636 1.419 . S
C1638 C1639 1.362 . S
C1639 H1629 0.930 . S
C1639 C1632 1.409 . S
C1639 C1638 1.362 . S
H1640 C1646 0.930 . S
H1641 C1649 0.930 . S
H1642 C1650 0.930 . S
H1643 C1651 0.930 . S
H1644 C1654 0.930 . S
H1645 C1655 0.930 . S
C1646 H1640 0.930 . S
C1646 C1647 1.355 . S
C1646 C1648 1.415 . S
C1647 C1646 1.355 . S
C1647 C1649 1.419 . S
C1648 C1646 1.415 . S
C1648 C1653 1.425 . S
C1648 C1655 1.409 . S
C1649 H1641 0.930 . S
C1649 C1647 1.419 . S
C1649 C1650 1.362 . S
C1650 H1642 0.930 . S
C1650 C1649 1.362 . S
C1650 C1653 1.409 . S
C1651 H1643 0.930 . S
C1651 C1652 1.355 . S
C1651 C1653 1.415 . S
C1652 C1651 1.355 . S
C1652 C1654 1.419 . S
C1653 C1648 1.425 . S
C1653 C1650 1.409 . S
C1653 C1651 1.415 . S
C1654 H1644 0.930 . S
C1654 C1652 1.419 . S
C1654 C1655 1.362 . S
C1655 H1645 0.930 . S
C1655 C1648 1.409 . S
C1655 C1654 1.362 . S
H1656 C1662 0.930 . S
H1657 C1665 0.930 . S
H1658 C1666 0.930 . S
H1659 C1667 0.930 . S
H1660 C1670 0.930 . S
H1661 C1671 0.930 . S
C1662 H1656 0.930 . S
C1662 C1663 1.355 . S
C1662 C1664 1.415 . S
C1663 C1662 1.355 . S
C1663 C1665 1.419 . S
C1664 C1662 1.415 . S
C1664 C1669 1.425 . S
C1664 C1671 1.409 . S
C1665 H1657 0.930 . S
C1665 C1663 1.419 . S
C1665 C1666 1.362 . S
C1666 H1658 0.930 . S
C1666 C1665 1.362 . S
C1666 C1669 1.409 . S
C1667 H1659 0.930 . S
C1667 C1668 1.355 . S
C1667 C1669 1.415 . S
C1668 C1667 1.355 . S
C1668 C1670 1.419 . S
C1669 C1664 1.425 . S
C1669 C1666 1.409 . S
C1669 C1667 1.415 . S
C1670 H1660 0.930 . S
C1670 C1668 1.419 . S
C1670 C1671 1.362 . S
C1671 H1661 0.930 . S
C1671 C1664 1.409 . S
C1671 C1670 1.362 . S
H1672 C1678 0.930 . S
H1673 C1681 0.930 . S
H1674 C1682 0.930 . S
H1675 C1683 0.930 . S
H1676 C1686 0.930 . S
H1677 C1687 0.930 . S
C1678 H1672 0.930 . S
C1678 C1679 1.355 . S
C1678 C1680 1.415 . S
C1679 C1678 1.355 . S
C1679 C1681 1.419 . S
C1680 C1678 1.415 . S
C1680 C1685 1.425 . S
C1680 C1687 1.409 . S
C1681 H1673 0.930 . S
C1681 C1679 1.419 . S
C1681 C1682 1.362 . S
C1682 H1674 0.930 . S
C1682 C1681 1.362 . S
C1682 C1685 1.409 . S
C1683 H1675 0.930 . S
C1683 C1684 1.355 . S
C1683 C1685 1.415 . S
C1684 C1683 1.355 . S
C1684 C1686 1.419 . S
C1685 C1680 1.425 . S
C1685 C1682 1.409 . S
C1685 C1683 1.415 . S
C1686 H1676 0.930 . S
C1686 C1684 1.419 . S
C1686 C1687 1.362 . S
C1687 H1677 0.930 . S
C1687 C1680 1.409 . S
C1687 C1686 1.362 . S
H1688 C1694 0.930 . S
H1689 C1697 0.930 . S
H1690 C1698 0.930 . S
H1691 C1699 0.930 . S
H1692 C1702 0.930 . S
H1693 C1703 0.930 . S
C1694 H1688 0.930 . S
C1694 C1695 1.355 . S
C1694 C1696 1.415 . S
C1695 C1694 1.355 . S
C1695 C1697 1.419 . S
C1696 C1694 1.415 . S
C1696 C1701 1.425 . S
C1696 C1703 1.409 . S
C1697 H1689 0.930 . S
C1697 C1695 1.419 . S
C1697 C1698 1.362 . S
C1698 H1690 0.930 . S
C1698 C1697 1.362 . S
C1698 C1701 1.409 . S
C1699 H1691 0.930 . S
C1699 C1700 1.355 . S
C1699 C1701 1.415 . S
C1700 C1699 1.355 . S
C1700 C1702 1.419 . S
C1701 C1696 1.425 . S
C1701 C1698 1.409 . S
C1701 C1699 1.415 . S
C1702 H1692 0.930 . S
C1702 C1700 1.419 . S
C1702 C1703 1.362 . S
C1703 H1693 0.930 . S
C1703 C1696 1.409 . S
C1703 C1702 1.362 . S
H1704 C1710 0.930 . S
H1705 C1713 0.930 1_554 S
H1706 C1714 0.930 . S
H1707 C1715 0.930 . S
H1708 C1718 0.930 . S
H1709 C1719 0.930 . S
C1710 H1704 0.930 . S
C1710 C1711 1.355 . S
C1710 C1712 1.415 . S
C1711 C1710 1.355 . S
C1711 C1713 1.419 . S
C1712 C1710 1.415 . S
C1712 C1717 1.425 . S
C1712 C1719 1.409 . S
C1713 H1705 0.930 1_556 S
C1713 C1711 1.419 . S
C1713 C1714 1.362 . S
C1714 H1706 0.930 . S
C1714 C1713 1.362 . S
C1714 C1717 1.409 . S
C1715 H1707 0.930 . S
C1715 C1716 1.355 . S
C1715 C1717 1.415 . S
C1716 C1715 1.355 . S
C1716 C1718 1.419 . S
C1717 C1712 1.425 . S
C1717 C1714 1.409 . S
C1717 C1715 1.415 . S
C1718 H1708 0.930 . S
C1718 C1716 1.419 . S
C1718 C1719 1.362 . S
C1719 H1709 0.930 . S
C1719 C1712 1.409 . S
C1719 C1718 1.362 . S
H1720 C1726 0.930 . S
H1721 C1729 0.930 . S
H1722 C1730 0.930 . S
H1723 C1731 0.930 1_455 S
H1724 C1734 0.930 . S
H1725 C1735 0.930 . S
C1726 H1720 0.930 . S
C1726 C1727 1.355 . S
C1726 C1728 1.415 . S
C1727 C1726 1.355 . S
C1727 C1729 1.419 . S
C1728 C1726 1.415 . S
C1728 C1733 1.425 . S
C1728 C1735 1.409 . S
C1729 H1721 0.930 . S
C1729 C1727 1.419 . S
C1729 C1730 1.362 . S
C1730 H1722 0.930 . S
C1730 C1729 1.362 . S
C1730 C1733 1.409 . S
C1731 H1723 0.930 1_655 S
C1731 C1732 1.355 . S
C1731 C1733 1.415 . S
C1732 C1731 1.355 . S
C1732 C1734 1.419 . S
C1733 C1728 1.425 . S
C1733 C1730 1.409 . S
C1733 C1731 1.415 . S
C1734 H1724 0.930 . S
C1734 C1732 1.419 . S
C1734 C1735 1.362 . S
C1735 H1725 0.930 . S
C1735 C1728 1.409 . S
C1735 C1734 1.362 . S
H1736 C1742 0.930 . S
H1737 C1745 0.930 . S
H1738 C1746 0.930 . S
H1739 C1747 0.930 . S
H1740 C1750 0.930 . S
H1741 C1751 0.930 . S
C1742 H1736 0.930 . S
C1742 C1743 1.355 . S
C1742 C1744 1.415 . S
C1743 C1742 1.355 . S
C1743 C1745 1.419 . S
C1744 C1742 1.415 . S
C1744 C1749 1.425 . S
C1744 C1751 1.409 . S
C1745 H1737 0.930 . S
C1745 C1743 1.419 . S
C1745 C1746 1.362 . S
C1746 H1738 0.930 . S
C1746 C1745 1.362 . S
C1746 C1749 1.409 . S
C1747 H1739 0.930 . S
C1747 C1748 1.355 . S
C1747 C1749 1.415 . S
C1748 C1747 1.355 . S
C1748 C1750 1.419 . S
C1749 C1744 1.425 . S
C1749 C1746 1.409 . S
C1749 C1747 1.415 . S
C1750 H1740 0.930 . S
C1750 C1748 1.419 . S
C1750 C1751 1.362 . S
C1751 H1741 0.930 . S
C1751 C1744 1.409 . S
C1751 C1750 1.362 . S
H1752 C1758 0.930 . S
H1753 C1761 0.930 . S
H1754 C1762 0.930 . S
H1755 C1763 0.930 . S
H1756 C1766 0.930 . S
H1757 C1767 0.930 . S
C1758 H1752 0.930 . S
C1758 C1759 1.355 . S
C1758 C1760 1.415 . S
C1759 C1758 1.355 . S
C1759 C1761 1.419 . S
C1760 C1758 1.415 . S
C1760 C1765 1.425 . S
C1760 C1767 1.409 . S
C1761 H1753 0.930 . S
C1761 C1759 1.419 . S
C1761 C1762 1.362 . S
C1762 H1754 0.930 . S
C1762 C1761 1.362 . S
C1762 C1765 1.409 . S
C1763 H1755 0.930 . S
C1763 C1764 1.355 . S
C1763 C1765 1.415 . S
C1764 C1763 1.355 . S
C1764 C1766 1.419 . S
C1765 C1760 1.425 . S
C1765 C1762 1.409 . S
C1765 C1763 1.415 . S
C1766 H1756 0.930 . S
C1766 C1764 1.419 . S
C1766 C1767 1.362 . S
C1767 H1757 0.930 . S
C1767 C1760 1.409 . S
C1767 C1766 1.362 . S
H1768 C1774 0.930 . S
H1769 C1777 0.930 . S
H1770 C1778 0.930 . S
H1771 C1779 0.930 . S
H1772 C1782 0.930 . S
H1773 C1783 0.930 . S
C1774 H1768 0.930 . S
C1774 C1775 1.355 . S
C1774 C1776 1.415 . S
C1775 C1774 1.355 . S
C1775 C1777 1.419 . S
C1776 C1774 1.415 . S
C1776 C1781 1.425 . S
C1776 C1783 1.409 . S
C1777 H1769 0.930 . S
C1777 C1775 1.419 . S
C1777 C1778 1.362 . S
C1778 H1770 0.930 . S
C1778 C1777 1.362 . S
C1778 C1781 1.409 . S
C1779 H1771 0.930 . S
C1779 C1780 1.355 . S
C1779 C1781 1.415 . S
C1780 C1779 1.355 . S
C1780 C1782 1.419 . S
C1781 C1776 1.425 . S
C1781 C1778 1.409 . S
C1781 C1779 1.415 . S
C1782 H1772 0.930 . S
C1782 C1780 1.419 . S
C1782 C1783 1.362 . S
C1783 H1773 0.930 . S
C1783 C1776 1.409 . S
C1783 C1782 1.362 . S
H1784 C1790 0.930 . S
H1785 C1793 0.930 . S
H1786 C1794 0.930 . S
H1787 C1795 0.930 . S
H1788 C1798 0.930 . S
H1789 C1799 0.930 1_455 S
C1790 H1784 0.930 . S
C1790 C1791 1.355 . S
C1790 C1792 1.415 . S
C1791 C1790 1.355 . S
C1791 C1793 1.419 . S
C1792 C1790 1.415 . S
C1792 C1797 1.425 . S
C1792 C1799 1.409 . S
C1793 H1785 0.930 . S
C1793 C1791 1.419 . S
C1793 C1794 1.362 . S
C1794 H1786 0.930 . S
C1794 C1793 1.362 . S
C1794 C1797 1.409 . S
C1795 H1787 0.930 . S
C1795 C1796 1.355 . S
C1795 C1797 1.415 . S
C1796 C1795 1.355 . S
C1796 C1798 1.419 1_655 S
C1797 C1792 1.425 . S
C1797 C1794 1.409 . S
C1797 C1795 1.415 . S
C1798 H1788 0.930 . S
C1798 C1796 1.419 1_455 S
C1798 C1799 1.362 1_455 S
C1799 H1789 0.930 1_655 S
C1799 C1792 1.409 . S
C1799 C1798 1.362 1_655 S
H1800 C1806 0.930 . S
H1801 C1809 0.930 . S
H1802 C1810 0.930 . S
H1803 C1811 0.930 . S
H1804 C1814 0.930 . S
H1805 C1815 0.930 . S
C1806 H1800 0.930 . S
C1806 C1807 1.355 . S
C1806 C1808 1.415 . S
C1807 C1806 1.355 . S
C1807 C1809 1.419 . S
C1808 C1806 1.415 . S
C1808 C1813 1.425 . S
C1808 C1815 1.409 . S
C1809 H1801 0.930 . S
C1809 C1807 1.419 . S
C1809 C1810 1.362 . S
C1810 H1802 0.930 . S
C1810 C1809 1.362 . S
C1810 C1813 1.409 . S
C1811 H1803 0.930 . S
C1811 C1812 1.355 . S
C1811 C1813 1.415 . S
C1812 C1811 1.355 . S
C1812 C1814 1.419 . S
C1813 C1808 1.425 . S
C1813 C1810 1.409 . S
C1813 C1811 1.415 . S
C1814 H1804 0.930 . S
C1814 C1812 1.419 . S
C1814 C1815 1.362 . S
C1815 H1805 0.930 . S
C1815 C1808 1.409 . S
C1815 C1814 1.362 . S
H1816 C1822 0.930 . S
H1817 C1825 0.930 . S
H1818 C1826 0.930 . S
H1819 C1827 0.930 . S
H1820 C1830 0.930 . S
H1821 C1831 0.930 . S
C1822 H1816 0.930 . S
C1822 C1823 1.355 . S
C1822 C1824 1.415 . S
C1823 C1822 1.355 . S
C1823 C1825 1.419 . S
C1824 C1822 1.415 . S
C1824 C1829 1.425 . S
C1824 C1831 1.409 . S
C1825 H1817 0.930 . S
C1825 C1823 1.419 . S
C1825 C1826 1.362 . S
C1826 H1818 0.930 . S
C1826 C1825 1.362 . S
C1826 C1829 1.409 . S
C1827 H1819 0.930 . S
C1827 C1828 1.355 . S
C1827 C1829 1.415 . S
C1828 C1827 1.355 . S
C1828 C1830 1.419 . S
C1829 C1824 1.425 . S
C1829 C1826 1.409 . S
C1829 C1827 1.415 . S
C1830 H1820 0.930 . S
C1830 C1828 1.419 . S
C1830 C1831 1.362 . S
C1831 H1821 0.930 . S
C1831 C1824 1.409 . S
C1831 C1830 1.362 . S
H1832 C1838 0.930 . S
H1833 C1841 0.930 . S
H1834 C1842 0.930 1_545 S
H1835 C1843 0.930 . S
H1836 C1846 0.930 . S
H1837 C1847 0.930 . S
C1838 H1832 0.930 . S
C1838 C1839 1.355 . S
C1838 C1840 1.415 . S
C1839 C1838 1.355 . S
C1839 C1841 1.419 . S
C1840 C1838 1.415 . S
C1840 C1845 1.425 . S
C1840 C1847 1.409 . S
C1841 H1833 0.930 . S
C1841 C1839 1.419 . S
C1841 C1842 1.362 . S
C1842 H1834 0.930 1_565 S
C1842 C1841 1.362 . S
C1842 C1845 1.409 . S
C1843 H1835 0.930 . S
C1843 C1844 1.347 1_545 S
C1843 C1845 1.415 1_545 S
C1844 C1843 1.347 1_565 S
C1844 C1846 1.452 . S
C1845 C1840 1.425 . S
C1845 C1842 1.409 . S
C1845 C1843 1.415 1_565 S
C1846 H1836 0.930 . S
C1846 C1844 1.452 . S
C1846 C1847 1.362 . S
C1847 H1837 0.930 . S
C1847 C1840 1.409 . S
C1847 C1846 1.362 . S
H1848 C1854 0.953 . S
H1849 C1857 0.930 . S
H1850 C1858 0.930 . S
H1851 C1859 0.930 . S
H1852 C1862 0.930 . S
H1853 C1863 0.930 . S
C1854 H1848 0.953 . S
C1854 C1855 1.355 . S
C1854 C1856 1.415 . S
C1855 C1854 1.355 . S
C1855 C1857 1.419 . S
C1856 C1854 1.415 . S
C1856 C1861 1.425 . S
C1856 C1863 1.409 . S
C1857 H1849 0.930 . S
C1857 C1855 1.419 . S
C1857 C1858 1.362 . S
C1858 H1850 0.930 . S
C1858 C1857 1.362 . S
C1858 C1861 1.409 . S
C1859 H1851 0.930 . S
C1859 C1860 1.355 . S
C1859 C1861 1.415 . S
C1860 C1859 1.355 . S
C1860 C1862 1.419 . S
C1861 C1856 1.425 . S
C1861 C1858 1.409 . S
C1861 C1859 1.415 . S
C1862 H1852 0.930 . S
C1862 C1860 1.419 . S
C1862 C1863 1.362 . S
C1863 H1853 0.930 . S
C1863 C1856 1.409 . S
C1863 C1862 1.362 . S
H1864 C1870 0.930 . S
H1865 C1873 0.930 . S
H1866 C1874 0.930 . S
H1867 C1875 0.930 . S
H1868 C1878 0.930 . S
H1869 C1879 0.930 . S
C1870 H1864 0.930 . S
C1870 C1871 1.355 . S
C1870 C1872 1.415 . S
C1871 C1870 1.355 . S
C1871 C1873 1.419 . S
C1872 C1870 1.415 . S
C1872 C1877 1.425 . S
C1872 C1879 1.409 . S
C1873 H1865 0.930 . S
C1873 C1871 1.419 . S
C1873 C1874 1.362 . S
C1874 H1866 0.930 . S
C1874 C1873 1.362 . S
C1874 C1877 1.409 . S
C1875 H1867 0.930 . S
C1875 C1876 1.355 . S
C1875 C1877 1.415 . S
C1876 C1875 1.355 . S
C1876 C1878 1.419 . S
C1877 C1872 1.425 . S
C1877 C1874 1.409 . S
C1877 C1875 1.415 . S
C1878 H1868 0.930 . S
C1878 C1876 1.419 . S
C1878 C1879 1.362 . S
C1879 H1869 0.930 . S
C1879 C1872 1.409 . S
C1879 C1878 1.362 . S
H1880 C1886 0.930 . S
H1881 C1889 0.930 . S
H1882 C1890 0.930 . S
H1883 C1891 0.930 . S
H1884 C1894 0.930 . S
H1885 C1895 0.930 . S
C1886 H1880 0.930 . S
C1886 C1887 1.355 . S
C1886 C1888 1.415 . S
C1887 C1886 1.355 . S
C1887 C1889 1.419 . S
C1888 C1886 1.415 . S
C1888 C1893 1.425 . S
C1888 C1895 1.409 . S
C1889 H1881 0.930 . S
C1889 C1887 1.419 . S
C1889 C1890 1.362 . S
C1890 H1882 0.930 . S
C1890 C1889 1.362 . S
C1890 C1893 1.409 . S
C1891 H1883 0.930 . S
C1891 C1892 1.355 . S
C1891 C1893 1.415 . S
C1892 C1891 1.355 . S
C1892 C1894 1.419 . S
C1893 C1888 1.425 . S
C1893 C1890 1.409 . S
C1893 C1891 1.415 . S
C1894 H1884 0.930 . S
C1894 C1892 1.419 . S
C1894 C1895 1.362 . S
C1895 H1885 0.930 . S
C1895 C1888 1.409 . S
C1895 C1894 1.362 . S
H1896 C1902 0.930 . S
H1897 C1905 0.930 . S
H1898 C1906 0.930 . S
H1899 C1907 0.930 . S
H1900 C1910 0.930 1_556 S
H1901 C1911 0.930 . S
C1902 H1896 0.930 . S
C1902 C1903 1.355 . S
C1902 C1904 1.415 . S
C1903 C1902 1.355 . S
C1903 C1905 1.419 . S
C1904 C1902 1.415 . S
C1904 C1909 1.425 . S
C1904 C1911 1.409 . S
C1905 H1897 0.930 . S
C1905 C1903 1.419 . S
C1905 C1906 1.362 . S
C1906 H1898 0.930 . S
C1906 C1905 1.362 . S
C1906 C1909 1.409 . S
C1907 H1899 0.930 . S
C1907 C1908 1.355 . S
C1907 C1909 1.415 . S
C1908 C1907 1.355 . S
C1908 C1910 1.419 . S
C1909 C1904 1.425 . S
C1909 C1906 1.409 . S
C1909 C1907 1.415 . S
C1910 H1900 0.930 1_554 S
C1910 C1908 1.419 . S
C1910 C1911 1.362 . S
C1911 H1901 0.930 . S
C1911 C1904 1.409 . S
C1911 C1910 1.362 . S
H1912 C1918 0.930 . S
H1913 C1921 0.930 . S
H1914 C1922 0.930 . S
H1915 C1923 0.930 . S
H1916 C1926 0.930 . S
H1917 C1927 0.930 . S
C1918 H1912 0.930 . S
C1918 C1919 1.355 . S
C1918 C1920 1.415 . S
C1919 C1918 1.355 . S
C1919 C1921 1.419 . S
C1920 C1918 1.415 . S
C1920 C1925 1.425 . S
C1920 C1927 1.409 . S
C1921 H1913 0.930 . S
C1921 C1919 1.419 . S
C1921 C1922 1.362 . S
C1922 H1914 0.930 . S
C1922 C1921 1.362 . S
C1922 C1925 1.409 . S
C1923 H1915 0.930 . S
C1923 C1924 1.355 . S
C1923 C1925 1.415 . S
C1924 C1923 1.355 . S
C1924 C1926 1.419 . S
C1925 C1920 1.425 . S
C1925 C1922 1.409 . S
C1925 C1923 1.415 . S
C1926 H1916 0.930 . S
C1926 C1924 1.419 . S
C1926 C1927 1.362 . S
C1927 H1917 0.930 . S
C1927 C1920 1.409 . S
C1927 C1926 1.362 . S
H1928 C1934 0.930 . S
H1929 C1937 0.930 . S
H1930 C1938 0.930 . S
H1931 C1939 0.930 . S
H1932 C1942 0.930 . S
H1933 C1943 0.930 . S
C1934 H1928 0.930 . S
C1934 C1935 1.355 . S
C1934 C1936 1.415 . S
C1935 C1934 1.355 . S
C1935 C1937 1.419 . S
C1936 C1934 1.415 . S
C1936 C1941 1.425 . S
C1936 C1943 1.409 . S
C1937 H1929 0.930 . S
C1937 C1935 1.419 . S
C1937 C1938 1.362 . S
C1938 H1930 0.930 . S
C1938 C1937 1.362 . S
C1938 C1941 1.409 . S
C1939 H1931 0.930 . S
C1939 C1940 1.355 . S
C1939 C1941 1.415 . S
C1940 C1939 1.355 . S
C1940 C1942 1.419 . S
C1941 C1936 1.425 . S
C1941 C1938 1.409 . S
C1941 C1939 1.415 . S
C1942 H1932 0.930 . S
C1942 C1940 1.419 . S
C1942 C1943 1.362 . S
C1943 H1933 0.930 . S
C1943 C1936 1.409 . S
C1943 C1942 1.362 . S
H1944 C1950 0.930 . S
H1945 C1953 0.930 . S
H1946 C1954 0.930 . S
H1947 C1955 0.930 . S
H1948 C1958 0.930 . S
H1949 C1959 0.930 . S
C1950 H1944 0.930 . S
C1950 C1951 1.355 . S
C1950 C1952 1.415 . S
C1951 C1950 1.355 . S
C1951 C1953 1.419 . S
C1952 C1950 1.415 . S
C1952 C1957 1.425 . S
C1952 C1959 1.409 . S
C1953 H1945 0.930 . S
C1953 C1951 1.419 . S
C1953 C1954 1.362 . S
C1954 H1946 0.930 . S
C1954 C1953 1.362 . S
C1954 C1957 1.409 . S
C1955 H1947 0.930 . S
C1955 C1956 1.355 . S
C1955 C1957 1.415 . S
C1956 C1955 1.355 . S
C1956 C1958 1.419 . S
C1957 C1952 1.425 . S
C1957 C1954 1.409 . S
C1957 C1955 1.415 . S
C1958 H1948 0.930 . S
C1958 C1956 1.419 . S
C1958 C1959 1.362 . S
C1959 H1949 0.930 . S
C1959 C1952 1.409 . S
C1959 C1958 1.362 . S
H1960 C1966 0.930 . S
H1961 C1969 0.930 . S
H1962 C1970 0.930 . S
H1963 C1971 0.930 . S
H1964 C1974 0.930 . S
H1965 C1975 0.930 . S
C1966 H1960 0.930 . S
C1966 C1967 1.355 . S
C1966 C1968 1.415 . S
C1967 C1966 1.355 . S
C1967 C1969 1.419 . S
C1968 C1966 1.415 . S
C1968 C1973 1.425 . S
C1968 C1975 1.409 . S
C1969 H1961 0.930 . S
C1969 C1967 1.419 . S
C1969 C1970 1.362 . S
C1970 H1962 0.930 . S
C1970 C1969 1.362 . S
C1970 C1973 1.409 . S
C1971 H1963 0.930 . S
C1971 C1972 1.355 . S
C1971 C1973 1.415 . S
C1972 C1971 1.355 . S
C1972 C1974 1.419 . S
C1973 C1968 1.425 . S
C1973 C1970 1.409 . S
C1973 C1971 1.415 . S
C1974 H1964 0.930 . S
C1974 C1972 1.419 . S
C1974 C1975 1.362 . S
C1975 H1965 0.930 . S
C1975 C1968 1.409 . S
C1975 C1974 1.362 . S
H1976 C1982 0.930 1_655 S
H1977 C1985 0.930 . S
H1978 C1986 0.930 . S
H1979 C1987 0.930 . S
H1980 C1990 0.930 . S
H1981 C1991 0.930 . S
C1982 H1976 0.930 1_455 S
C1982 C1983 1.355 . S
C1982 C1984 1.415 . S
C1983 C1982 1.355 . S
C1983 C1985 1.419 . S
C1984 C1982 1.415 . S
C1984 C1989 1.425 . S
C1984 C1991 1.409 1_455 S
C1985 H1977 0.930 . S
C1985 C1983 1.419 . S
C1985 C1986 1.362 . S
C1986 H1978 0.930 . S
C1986 C1985 1.362 . S
C1986 C1989 1.409 . S
C1987 H1979 0.930 . S
C1987 C1988 1.355 . S
C1987 C1989 1.415 . S
C1988 C1987 1.355 . S
C1988 C1990 1.419 1_455 S
C1989 C1984 1.425 . S
C1989 C1986 1.409 . S
C1989 C1987 1.415 . S
C1990 H1980 0.930 . S
C1990 C1988 1.419 1_655 S
C1990 C1991 1.362 . S
C1991 H1981 0.930 . S
C1991 C1984 1.409 1_655 S
C1991 C1990 1.362 . S
H1992 C1998 0.930 . S
H1993 C2001 0.930 . S
H1994 C2002 0.930 . S
H1995 C2003 0.930 . S
H1996 C2006 0.930 . S
H1997 C2007 0.930 . S
C1998 H1992 0.930 . S
C1998 C1999 1.355 . S
C1998 C2000 1.415 . S
C1999 C1998 1.355 . S
C1999 C2001 1.419 . S
C2000 C1998 1.415 . S
C2000 C2005 1.425 . S
C2000 C2007 1.409 . S
C2001 H1993 0.930 . S
C2001 C1999 1.419 . S
C2001 C2002 1.362 . S
C2002 H1994 0.930 . S
C2002 C2001 1.362 . S
C2002 C2005 1.409 . S
C2003 H1995 0.930 . S
C2003 C2004 1.355 . S
C2003 C2005 1.415 . S
C2004 C2003 1.355 . S
C2004 C2006 1.419 . S
C2005 C2000 1.425 . S
C2005 C2002 1.409 . S
C2005 C2003 1.415 . S
C2006 H1996 0.930 . S
C2006 C2004 1.419 . S
C2006 C2007 1.362 . S
C2007 H1997 0.930 . S
C2007 C2000 1.409 . S
C2007 C2006 1.362 . S
H2008 C2014 0.930 . S
H2009 C2017 0.930 . S
H2010 C2018 0.930 . S
H2011 C2019 0.930 . S
H2012 C2022 0.930 . S
H2013 C2023 0.930 . S
C2014 H2008 0.930 . S
C2014 C2015 1.355 . S
C2014 C2016 1.415 . S
C2015 C2014 1.355 . S
C2015 C2017 1.419 . S
C2016 C2014 1.415 . S
C2016 C2021 1.425 . S
C2016 C2023 1.409 . S
C2017 H2009 0.930 . S
C2017 C2015 1.419 . S
C2017 C2018 1.362 . S
C2018 H2010 0.930 . S
C2018 C2017 1.362 . S
C2018 C2021 1.409 . S
C2019 H2011 0.930 . S
C2019 C2020 1.355 . S
C2019 C2021 1.415 . S
C2020 C2019 1.355 . S
C2020 C2022 1.419 . S
C2021 C2016 1.425 . S
C2021 C2018 1.409 . S
C2021 C2019 1.415 . S
C2022 H2012 0.930 . S
C2022 C2020 1.419 . S
C2022 C2023 1.362 . S
C2023 H2013 0.930 . S
C2023 C2016 1.409 . S
C2023 C2022 1.362 . S
H2024 C2030 0.930 . S
H2025 C2033 0.930 . S
H2026 C2034 0.930 . S
H2027 C2035 0.930 . S
H2028 C2038 0.930 . S
H2029 C2039 0.930 . S
C2030 H2024 0.930 . S
C2030 C2031 1.355 . S
C2030 C2032 1.415 . S
C2031 C2030 1.355 . S
C2031 C2033 1.419 . S
C2032 C2030 1.415 . S
C2032 C2037 1.425 . S
C2032 C2039 1.409 . S
C2033 H2025 0.930 . S
C2033 C2031 1.419 . S
C2033 C2034 1.362 . S
C2034 H2026 0.930 . S
C2034 C2033 1.362 . S
C2034 C2037 1.409 . S
C2035 H2027 0.930 . S
C2035 C2036 1.355 . S
C2035 C2037 1.415 . S
C2036 C2035 1.355 . S
C2036 C2038 1.419 . S
C2037 C2032 1.425 . S
C2037 C2034 1.409 . S
C2037 C2035 1.415 . S
C2038 H2028 0.930 . S
C2038 C2036 1.419 . S
C2038 C2039 1.362 . S
C2039 H2029 0.930 . S
C2039 C2032 1.409 . S
C2039 C2038 1.362 . S
H2040 C2046 0.930 . S
H2041 C2049 0.930 . S
H2042 C2050 0.930 . S
H2043 C2051 0.930 . S
H2044 C2054 0.930 . S
H2045 C2055 0.930 . S
C2046 H2040 0.930 . S
C2046 C2047 1.355 . S
C2046 C2048 1.415 . S
C2047 C2046 1.355 . S
C2047 C2049 1.419 1_455 S
C2048 C2046 1.415 . S
C2048 C2053 1.425 1_455 S
C2048 C2055 1.409 . S
C2049 H2041 0.930 . S
C2049 C2047 1.419 1_655 S
C2049 C2050 1.362 . S
C2050 H2042 0.930 . S
C2050 C2049 1.362 . S
C2050 C2053 1.409 . S
C2051 H2043 0.930 . S
C2051 C2052 1.355 1_655 S
C2051 C2053 1.415 . S
C2052 C2051 1.355 1_455 S
C2052 C2054 1.419 . S
C2053 C2048 1.425 1_655 S
C2053 C2050 1.409 . S
C2053 C2051 1.415 . S
C2054 H2044 0.930 . S
C2054 C2052 1.419 . S
C2054 C2055 1.362 . S
C2055 H2045 0.930 . S
C2055 C2048 1.409 . S
C2055 C2054 1.362 . S
H2056 C2062 0.930 . S
H2057 C2065 0.930 . S
H2058 C2066 0.930 . S
H2059 C2067 0.930 . S
H2060 C2070 0.930 . S
H2061 C2071 0.930 . S
C2062 H2056 0.930 . S
C2062 C2063 1.355 . S
C2062 C2064 1.415 . S
C2063 C2062 1.355 . S
C2063 C2065 1.419 . S
C2064 C2062 1.415 . S
C2064 C2069 1.425 . S
C2064 C2071 1.409 . S
C2065 H2057 0.930 . S
C2065 C2063 1.419 . S
C2065 C2066 1.362 . S
C2066 H2058 0.930 . S
C2066 C2065 1.362 . S
C2066 C2069 1.409 . S
C2067 H2059 0.930 . S
C2067 C2068 1.355 . S
C2067 C2069 1.415 . S
C2068 C2067 1.355 . S
C2068 C2070 1.419 . S
C2069 C2064 1.425 . S
C2069 C2066 1.409 . S
C2069 C2067 1.415 . S
C2070 H2060 0.930 . S
C2070 C2068 1.419 . S
C2070 C2071 1.362 . S
C2071 H2061 0.930 . S
C2071 C2064 1.409 . S
C2071 C2070 1.362 . S
H2072 C2078 0.930 . S
H2073 C2081 0.930 . S
H2074 C2082 0.930 . S
H2075 C2083 0.930 . S
H2076 C2086 0.930 . S
H2077 C2087 0.930 . S
C2078 H2072 0.930 . S
C2078 C2079 1.355 . S
C2078 C2080 1.415 . S
C2079 C2078 1.355 . S
C2079 C2081 1.419 . S
C2080 C2078 1.415 . S
C2080 C2085 1.425 . S
C2080 C2087 1.409 . S
C2081 H2073 0.930 . S
C2081 C2079 1.419 . S
C2081 C2082 1.362 . S
C2082 H2074 0.930 . S
C2082 C2081 1.362 . S
C2082 C2085 1.409 . S
C2083 H2075 0.930 . S
C2083 C2084 1.355 . S
C2083 C2085 1.415 . S
C2084 C2083 1.355 . S
C2084 C2086 1.419 . S
C2085 C2080 1.425 . S
C2085 C2082 1.409 . S
C2085 C2083 1.415 . S
C2086 H2076 0.930 . S
C2086 C2084 1.419 . S
C2086 C2087 1.362 . S
C2087 H2077 0.930 . S
C2087 C2080 1.409 . S
C2087 C2086 1.362 . S
H2088 C2094 0.930 . S
H2089 C2097 0.930 . S
H2090 C2098 0.930 . S
H2091 C2099 0.930 . S
H2092 C2102 0.930 . S
H2093 C2103 0.930 . S
C2094 H2088 0.930 . S
C2094 C2095 1.355 . S
C2094 C2096 1.415 . S
C2095 C2094 1.355 . S
C2095 C2097 1.419 . S
C2096 C2094 1.415 . S
C2096 C2101 1.425 . S
C2096 C2103 1.409 . S
C2097 H2089 0.930 . S
C2097 C2095 1.419 . S
C2097 C2098 1.362 . S
C2098 H2090 0.930 . S
C2098 C2097 1.362 . S
C2098 C2101 1.409 . S
C2099 H2091 0.930 . S
C2099 C2100 1.355 . S
C2099 C2101 1.415 . S
C2100 C2099 1.355 . S
C2100 C2102 1.419 . S
C2101 C2096 1.425 . S
C2101 C2098 1.409 . S
C2101 C2099 1.415 . S
C2102 H2092 0.930 . S
C2102 C2100 1.419 . S
C2102 C2103 1.362 . S
C2103 H2093 0.930 . S
C2103 C2096 1.409 . S
C2103 C2102 1.362 . S
H2104 C2110 0.930 . S
H2105 C2113 0.930 . S
H2106 C2114 0.930 . S
H2107 C2115 0.930 . S
H2108 C2118 0.930 . S
H2109 C2119 0.930 . S
C2110 H2104 0.930 . S
C2110 C2111 1.355 . S
C2110 C2112 1.415 . S
C2111 C2110 1.355 . S
C2111 C2113 1.419 . S
C2112 C2110 1.415 . S
C2112 C2117 1.425 . S
C2112 C2119 1.409 . S
C2113 H2105 0.930 . S
C2113 C2111 1.419 . S
C2113 C2114 1.362 . S
C2114 H2106 0.930 . S
C2114 C2113 1.362 . S
C2114 C2117 1.409 . S
C2115 H2107 0.930 . S
C2115 C2116 1.355 . S
C2115 C2117 1.415 . S
C2116 C2115 1.355 . S
C2116 C2118 1.419 . S
C2117 C2112 1.425 . S
C2117 C2114 1.409 . S
C2117 C2115 1.415 . S
C2118 H2108 0.930 . S
C2118 C2116 1.419 . S
C2118 C2119 1.362 . S
C2119 H2109 0.930 . S
C2119 C2112 1.409 . S
C2119 C2118 1.362 . S
H2120 C2126 0.930 . S
H2121 C2129 0.930 . S
H2122 C2130 0.930 . S
H2123 C2131 0.930 . S
H2124 C2134 0.930 . S
H2125 C2135 0.930 . S
C2126 H2120 0.930 . S
C2126 C2127 1.355 . S
C2126 C2128 1.415 . S
C2127 C2126 1.355 . S
C2127 C2129 1.419 . S
C2128 C2126 1.415 . S
C2128 C2133 1.425 . S
C2128 C2135 1.409 . S
C2129 H2121 0.930 . S
C2129 C2127 1.419 . S
C2129 C2130 1.362 . S
C2130 H2122 0.930 . S
C2130 C2129 1.362 . S
C2130 C2133 1.409 . S
C2131 H2123 0.930 . S
C2131 C2132 1.355 . S
C2131 C2133 1.415 . S
C2132 C2131 1.355 . S
C2132 C2134 1.419 . S
C2133 C2128 1.425 . S
C2133 C2130 1.409 . S
C2133 C2131 1.415 . S
C2134 H2124 0.930 . S
C2134 C2132 1.419 . S
C2134 C2135 1.362 . S
C2135 H2125 0.930 . S
C2135 C2128 1.409 . S
C2135 C2134 1.362 . S
H2136 C2142 0.930 . S
H2137 C2145 0.930 . S
H2138 C2146 0.930 . S
H2139 C2147 0.930 . S
H2140 C2150 0.930 . S
H2141 C2151 0.930 . S
C2142 H2136 0.930 . S
C2142 C2143 1.355 . S
C2142 C2144 1.415 . S
C2143 C2142 1.355 . S
C2143 C2145 1.419 . S
C2144 C2142 1.415 . S
C2144 C2149 1.425 . S
C2144 C2151 1.409 . S
C2145 H2137 0.930 . S
C2145 C2143 1.419 . S
C2145 C2146 1.362 . S
C2146 H2138 0.930 . S
C2146 C2145 1.362 . S
C2146 C2149 1.409 . S
C2147 H2139 0.930 . S
C2147 C2148 1.355 . S
C2147 C2149 1.415 . S
C2148 C2147 1.355 . S
C2148 C2150 1.419 . S
C2149 C2144 1.425 . S
C2149 C2146 1.409 . S
C2149 C2147 1.415 . S
C2150 H2140 0.930 . S
C2150 C2148 1.419 . S
C2150 C2151 1.362 . S
C2151 H2141 0.930 . S
C2151 C2144 1.409 . S
C2151 C2150 1.362 . S
H2152 C2158 0.930 . S
H2153 C2161 0.930 . S
H2154 C2162 0.930 . S
H2155 C2163 0.930 . S
H2156 C2166 0.930 . S
H2157 C2167 0.930 . S
C2158 H2152 0.930 . S
C2158 C2159 1.355 . S
C2158 C2160 1.415 . S
C2159 C2158 1.355 . S
C2159 C2161 1.419 . S
C2160 C2158 1.415 . S
C2160 C2165 1.425 . S
C2160 C2167 1.409 . S
C2161 H2153 0.930 . S
C2161 C2159 1.419 . S
C2161 C2162 1.362 . S
C2162 H2154 0.930 . S
C2162 C2161 1.362 . S
C2162 C2165 1.409 . S
C2163 H2155 0.930 . S
C2163 C2164 1.355 . S
C2163 C2165 1.415 . S
C2164 C2163 1.355 . S
C2164 C2166 1.419 . S
C2165 C2160 1.425 . S
C2165 C2162 1.409 . S
C2165 C2163 1.415 . S
C2166 H2156 0.930 . S
C2166 C2164 1.419 . S
C2166 C2167 1.362 . S
C2167 H2157 0.930 . S
C2167 C2160 1.409 . S
C2167 C2166 1.362 . S
H2168 C2174 0.930 . S
H2169 C2177 0.930 . S
H2170 C2178 0.930 . S
H2171 C2179 0.930 . S
H2172 C2182 0.930 . S
H2173 C2183 0.930 . S
C2174 H2168 0.930 . S
C2174 C2175 1.355 . S
C2174 C2176 1.415 . S
C2175 C2174 1.355 . S
C2175 C2177 1.419 . S
C2176 C2174 1.415 . S
C2176 C2181 1.425 . S
C2176 C2183 1.409 . S
C2177 H2169 0.930 . S
C2177 C2175 1.419 . S
C2177 C2178 1.362 . S
C2178 H2170 0.930 . S
C2178 C2177 1.362 . S
C2178 C2181 1.409 . S
C2179 H2171 0.930 . S
C2179 C2180 1.355 . S
C2179 C2181 1.415 . S
C2180 C2179 1.355 . S
C2180 C2182 1.419 . S
C2181 C2176 1.425 . S
C2181 C2178 1.409 . S
C2181 C2179 1.415 . S
C2182 H2172 0.930 . S
C2182 C2180 1.419 . S
C2182 C2183 1.362 . S
C2183 H2173 0.930 . S
C2183 C2176 1.409 . S
C2183 C2182 1.362 . S
H2184 C2190 0.930 . S
H2185 C2193 0.930 . S
H2186 C2194 0.930 . S
H2187 C2195 0.930 . S
H2188 C2198 0.930 . S
H2189 C2199 0.930 . S
C2190 H2184 0.930 . S
C2190 C2191 1.355 . S
C2190 C2192 1.415 . S
C2191 C2190 1.355 . S
C2191 C2193 1.419 . S
C2192 C2190 1.415 . S
C2192 C2197 1.425 . S
C2192 C2199 1.409 . S
C2193 H2185 0.930 . S
C2193 C2191 1.419 . S
C2193 C2194 1.362 . S
C2194 H2186 0.930 . S
C2194 C2193 1.362 . S
C2194 C2197 1.409 . S
C2195 H2187 0.930 . S
C2195 C2196 1.355 . S
C2195 C2197 1.415 . S
C2196 C2195 1.355 . S
C2196 C2198 1.419 . S
C2197 C2192 1.425 . S
C2197 C2194 1.409 . S
C2197 C2195 1.415 . S
C2198 H2188 0.930 . S
C2198 C2196 1.419 . S
C2198 C2199 1.362 . S
C2199 H2189 0.930 . S
C2199 C2192 1.409 . S
C2199 C2198 1.362 . S
H2200 C2206 0.930 . S
H2201 C2209 0.930 . S
H2202 C2210 0.930 . S
H2203 C2211 0.930 . S
H2204 C2214 0.930 . S
H2205 C2215 0.930 . S
C2206 H2200 0.930 . S
C2206 C2207 1.355 . S
C2206 C2208 1.415 . S
C2207 C2206 1.355 . S
C2207 C2209 1.419 . S
C2208 C2206 1.415 . S
C2208 C2213 1.425 . S
C2208 C2215 1.409 . S
C2209 H2201 0.930 . S
C2209 C2207 1.419 . S
C2209 C2210 1.362 . S
C2210 H2202 0.930 . S
C2210 C2209 1.362 . S
C2210 C2213 1.409 . S
C2211 H2203 0.930 . S
C2211 C2212 1.355 . S
C2211 C2213 1.415 . S
C2212 C2211 1.355 . S
C2212 C2214 1.419 . S
C2213 C2208 1.425 . S
C2213 C2210 1.409 . S
C2213 C2211 1.415 . S
C2214 H2204 0.930 . S
C2214 C2212 1.419 . S
C2214 C2215 1.362 . S
C2215 H2205 0.930 . S
C2215 C2208 1.409 . S
C2215 C2214 1.362 . S
H2216 C2222 0.930 . S
H2217 C2225 0.930 . S
H2218 C2226 0.930 . S
H2219 C2227 0.930 . S
H2220 C2230 0.930 . S
H2221 C2231 0.930 . S
C2222 H2216 0.930 . S
C2222 C2223 1.355 . S
C2222 C2224 1.415 . S
C2223 C2222 1.355 . S
C2223 C2225 1.419 . S
C2224 C2222 1.415 . S
C2224 C2229 1.425 . S
C2224 C2231 1.409 . S
C2225 H2217 0.930 . S
C2225 C2223 1.419 . S
C2225 C2226 1.362 . S
C2226 H2218 0.930 . S
C2226 C2225 1.362 . S
C2226 C2229 1.409 . S
C2227 H2219 0.930 . S
C2227 C2228 1.355 . S
C2227 C2229 1.415 . S
C2228 C2227 1.355 . S
C2228 C2230 1.419 . S
C2229 C2224 1.425 . S
C2229 C2226 1.409 . S
C2229 C2227 1.415 . S
C2230 H2220 0.930 . S
C2230 C2228 1.419 . S
C2230 C2231 1.362 . S
C2231 H2221 0.930 . S
C2231 C2224 1.409 . S
C2231 C2230 1.362 . S
H2232 C2238 0.930 . S
H2233 C2241 0.930 . S
H2234 C2242 0.930 . S
H2235 C2243 0.930 . S
H2236 C2246 0.930 . S
H2237 C2247 0.930 . S
C2238 H2232 0.930 . S
C2238 C2239 1.355 . S
C2238 C2240 1.415 . S
C2239 C2238 1.355 . S
C2239 C2241 1.419 . S
C2240 C2238 1.415 . S
C2240 C2245 1.425 . S
C2240 C2247 1.409 . S
C2241 H2233 0.930 . S
C2241 C2239 1.419 . S
C2241 C2242 1.362 . S
C2242 H2234 0.930 . S
C2242 C2241 1.362 . S
C2242 C2245 1.409 . S
C2243 H2235 0.930 . S
C2243 C2244 1.355 . S
C2243 C2245 1.415 . S
C2244 C2243 1.355 . S
C2244 C2246 1.419 . S
C2245 C2240 1.425 . S
C2245 C2242 1.409 . S
C2245 C2243 1.415 . S
C2246 H2236 0.930 . S
C2246 C2244 1.419 . S
C2246 C2247 1.362 . S
C2247 H2237 0.930 . S
C2247 C2240 1.409 . S
C2247 C2246 1.362 . S
H2248 C2254 0.930 . S
H2249 C2257 0.930 1_556 S
H2250 C2258 0.930 . S
H2251 C2259 0.930 1_546 S
H2252 C2262 0.930 . S
H2253 C2263 0.930 . S
C2254 H2248 0.930 . S
C2254 C2255 1.355 . S
C2254 C2256 1.415 . S
C2255 C2254 1.355 . S
C2255 C2257 1.419 . S
C2256 C2254 1.415 . S
C2256 C2261 1.425 . S
C2256 C2263 1.409 . S
C2257 H2249 0.930 1_554 S
C2257 C2255 1.419 . S
C2257 C2258 1.362 1_554 S
C2258 H2250 0.930 . S
C2258 C2257 1.362 1_556 S
C2258 C2261 1.409 1_556 S
C2259 H2251 0.930 1_564 S
C2259 C2260 1.355 . S
C2259 C2261 1.415 . S
C2260 C2259 1.355 . S
C2260 C2262 1.419 . S
C2261 C2256 1.425 . S
C2261 C2258 1.409 1_554 S
C2261 C2259 1.415 . S
C2262 H2252 0.930 . S
C2262 C2260 1.419 . S
C2262 C2263 1.362 . S
C2263 H2253 0.930 . S
C2263 C2256 1.409 . S
C2263 C2262 1.362 . S
H2264 C2270 0.930 . S
H2265 C2273 0.930 . S
H2266 C2274 0.930 . S
H2267 C2275 0.930 . S
H2268 C2278 0.930 . S
H2269 C2279 0.930 . S
C2270 H2264 0.930 . S
C2270 C2271 1.355 . S
C2270 C2272 1.415 . S
C2271 C2270 1.355 . S
C2271 C2273 1.419 . S
C2272 C2270 1.415 . S
C2272 C2277 1.425 . S
C2272 C2279 1.409 . S
C2273 H2265 0.930 . S
C2273 C2271 1.419 . S
C2273 C2274 1.362 . S
C2274 H2266 0.930 . S
C2274 C2273 1.362 . S
C2274 C2277 1.409 . S
C2275 H2267 0.930 . S
C2275 C2276 1.355 . S
C2275 C2277 1.415 . S
C2276 C2275 1.355 . S
C2276 C2278 1.419 . S
C2277 C2272 1.425 . S
C2277 C2274 1.409 . S
C2277 C2275 1.415 . S
C2278 H2268 0.930 . S
C2278 C2276 1.419 . S
C2278 C2279 1.362 . S
C2279 H2269 0.930 . S
C2279 C2272 1.409 . S
C2279 C2278 1.362 . S
H2280 C2286 0.930 . S
H2281 C2289 0.930 . S
H2282 C2290 0.930 . S
H2283 C2291 0.930 . S
H2284 C2294 0.930 . S
H2285 C2295 0.930 . S
C2286 H2280 0.930 . S
C2286 C2287 1.355 1_554 S
C2286 C2288 1.415 . S
C2287 C2286 1.355 1_556 S
C2287 C2289 1.419 . S
C2288 C2286 1.415 . S
C2288 C2293 1.425 . S
C2288 C2295 1.409 . S
C2289 H2281 0.930 . S
C2289 C2287 1.419 . S
C2289 C2290 1.362 . S
C2290 H2282 0.930 . S
C2290 C2289 1.362 . S
C2290 C2293 1.409 1_556 S
C2291 H2283 0.930 . S
C2291 C2292 1.355 . S
C2291 C2293 1.415 . S
C2292 C2291 1.355 . S
C2292 C2294 1.419 . S
C2293 C2288 1.425 . S
C2293 C2290 1.409 1_554 S
C2293 C2291 1.415 . S
C2294 H2284 0.930 . S
C2294 C2292 1.419 . S
C2294 C2295 1.362 . S
C2295 H2285 0.930 . S
C2295 C2288 1.409 . S
C2295 C2294 1.362 . S
H2296 C2302 0.930 . S
H2297 C2305 0.930 . S
H2298 C2306 0.930 . S
H2299 C2307 0.930 . S
H2300 C2310 0.930 . S
H2301 C2311 0.930 . S
C2302 H2296 0.930 . S
C2302 C2303 1.355 . S
C2302 C2304 1.415 . S
C2303 C2302 1.355 . S
C2303 C2305 1.419 . S
C2304 C2302 1.415 . S
C2304 C2309 1.425 . S
C2304 C2311 1.409 . S
C2305 H2297 0.930 . S
C2305 C2303 1.419 . S
C2305 C2306 1.362 . S
C2306 H2298 0.930 . S
C2306 C2305 1.362 . S
C2306 C2309 1.409 . S
C2307 H2299 0.930 . S
C2307 C2308 1.355 . S
C2307 C2309 1.415 . S
C2308 C2307 1.355 . S
C2308 C2310 1.419 . S
C2309 C2304 1.425 . S
C2309 C2306 1.409 . S
C2309 C2307 1.415 . S
C2310 H2300 0.930 . S
C2310 C2308 1.419 . S
C2310 C2311 1.362 . S
C2311 H2301 0.930 . S
C2311 C2304 1.409 . S
C2311 C2310 1.362 . S
H2312 C2318 0.930 . S
H2313 C2321 0.930 . S
H2314 C2322 0.930 . S
H2315 C2323 0.930 . S
H2316 C2326 0.930 . S
H2317 C2327 0.930 . S
C2318 H2312 0.930 . S
C2318 C2319 1.355 . S
C2318 C2320 1.415 . S
C2319 C2318 1.355 . S
C2319 C2321 1.419 . S
C2320 C2318 1.415 . S
C2320 C2325 1.425 . S
C2320 C2327 1.409 . S
C2321 H2313 0.930 . S
C2321 C2319 1.419 . S
C2321 C2322 1.362 . S
C2322 H2314 0.930 . S
C2322 C2321 1.362 . S
C2322 C2325 1.409 . S
C2323 H2315 0.930 . S
C2323 C2324 1.355 . S
C2323 C2325 1.415 . S
C2324 C2323 1.355 . S
C2324 C2326 1.419 . S
C2325 C2320 1.425 . S
C2325 C2322 1.409 . S
C2325 C2323 1.415 . S
C2326 H2316 0.930 . S
C2326 C2324 1.419 . S
C2326 C2327 1.362 . S
C2327 H2317 0.930 . S
C2327 C2320 1.409 . S
C2327 C2326 1.362 . S
C804 C313 1.953 . S
C799 C10 1.992 . S
C815 C23 1.240 . S
C820 C358 1.214 . S
C831 C36 1.909 . S
C836 C382 1.887 . S
C852 N408 1.223 . S
C847 C42 1.197 . S
C863 C18 1.296 . S
C868 N438 1.304 1_455 S
C884 C472 1.798 . S
C879 C31 1.814 . S
C900 C508 1.361 1_556 S
C895 C43 1.356 . S
C911 C5 1.982 . S
C916 C532 1.948 . S
C927 C56 1.123 . S
C932 N326 1.115 . S
C943 C70 1.315 . S
C948 N348 1.325 . S
C964 C388 1.246 . S
C959 C82 1.260 . S
C980 C412 1.958 . S
C975 C96 1.997 . S
C991 C57 1.419 . S
C996 C442 1.395 . S
C1012 C478 1.343 . S
C1007 C69 1.318 . S
C1028 N498 1.270 . S
C1023 C83 1.250 . S
C1044 C538 1.937 . S
C1039 C95 1.956 . S
C1060 C339 1.855 . S
C1055 C94 1.883 . S
C1076 C568 1.246 . S
C1071 C108 1.218 . S
C1087 C122 1.257 . S
C1092 N588 1.282 . S
C1108 C622 1.764 . S
C1103 C140 1.806 . S
C1119 C55 1.108 . S
C1124 N528 1.105 . S
C1140 N378 1.242 1_565 S
C1135 C68 1.232 . S
C1151 C121 1.328 . S
C1156 C658 1.312 . S
C1172 C682 1.260 . S
C1167 C153 1.289 . S
C1183 C161 1.735 . S
C1188 C322 1.707 1_556 S
C1204 C699 0.945 . S
C1199 C174 0.969 . S
C1215 C186 1.615 . S
C1220 C373 1.597 . S
C1231 C200 1.085 . S
C1236 N656 1.074 . S
C1252 N446 1.098 . S
C1247 C172 1.050 . S
C1268 C583 1.498 . S
C1263 C192 1.520 . S
C1284 C519 1.104 . S
C1279 C198 1.094 . S
C1300 C703 1.660 . S
C1295 C159 1.691 . S
C1316 N318 0.966 . S
C1311 C211 0.995 . S
C1327 C225 1.081 . S
C1332 N686 1.113 . S
C1348 C399 0.949 . S
C1343 C239 0.973 . S
C1359 C251 1.692 . S
C1364 C643 1.643 . S
C1375 C218 1.184 . S
C1380 C433 1.160 . S
C1391 C226 1.031 . S
C1396 C609 1.046 . S
C1412 N506 1.091 . S
C1407 C238 1.054 . S
C1423 C252 1.660 . S
C1428 C729 1.641 . S
C1439 C250 1.609 . S
C1444 C328 1.585 1_565 S
C1455 C264 0.919 . S
C1460 C579 0.899 . S
C1471 C276 1.051 . S
C1476 N476 1.094 . S
C1487 C290 1.514 . S
C1492 C613 1.490 . S
C1508 N716 0.938 . S
C1503 C213 0.929 1_565 S
C1524 N386 1.081 . S
C1519 C224 1.039 . S
C1540 C429 1.011 . S
C1535 C283 0.997 . S
C1556 C343 1.029 . S
C1551 C303 1.049 . S
C1567 C29 2.003 . S
C1572 C733 1.953 . S
C1588 C688 1.205 . S
C1583 C49 1.229 . S
C1604 C772 1.862 . S
C1599 C3 1.911 . S
C1615 C16 1.225 1_655 S
C1620 N648 1.225 . S
C1631 C44 1.271 . S
C1636 N558 1.293 1_556 S
C1652 C592 1.810 . S
C1647 C4 1.818 . S
C1668 C628 1.374 . S
C1663 C17 1.355 . S
C1684 C712 1.941 . S
C1679 C30 1.957 . S
C1700 N746 1.130 . S
C1695 C147 1.119 . S
C1711 C107 1.295 1_556 S
C1716 N678 1.315 . S
C1727 C127 1.246 . S
C1732 C778 1.268 1_655 S
C1748 C652 1.944 . S
C1743 C135 1.994 . S
C1764 C562 1.395 . S
C1759 C148 1.443 . S
C1775 C114 1.335 . S
C1780 C598 1.358 . S
C1796 N618 1.268 1_655 S
C1791 C120 1.270 . S
C1807 C134 1.950 . S
C1812 C718 1.943 . S
C1828 C759 1.887 . S
C1823 C133 1.900 . S
C1844 C448 1.199 1_565 S
C1839 C75 1.206 . S
C1860 N468 1.283 . S
C1855 C81 1.279 1_565 S
C1871 C101 1.795 . S
C1876 C502 1.777 . S
C1892 N708 1.110 . S
C1887 C146 1.097 . S
C1903 C109 1.253 . S
C1908 N768 1.250 . S
C1924 C418 1.313 . S
C1919 C88 1.325 . S
C1940 C352 1.312 . S
C1935 C62 1.324 . S
C1951 C187 1.728 . S
C1956 C742 1.693 . S
C1972 C369 0.959 . S
C1967 C199 0.962 . S
C1988 C763 1.597 1_556 S
C1983 C160 1.611 . S
C1999 C173 1.006 . S
C2004 N416 1.040 . S
C2015 C205 1.047 . S
C2020 N566 1.089 . S
C2031 C166 1.521 . S
C2036 C463 1.471 . S
C2047 C179 1.071 . S
C2052 C639 1.044 . S
C2063 C185 1.720 . S
C2068 C523 1.705 . S
C2084 N738 0.976 . S
C2079 C302 0.969 . S
C2095 C270 1.065 . S
C2100 N356 1.106 . S
C2116 C789 0.936 . S
C2111 C278 0.954 . S
C2127 C296 1.706 . S
C2132 C403 1.656 . S
C2143 C309 1.150 . S
C2148 C553 1.145 . S
C2164 C489 1.011 . S
C2159 C263 1.037 . S
C2175 C277 1.106 . S
C2180 N626 1.097 . S
C2196 C549 1.638 . S
C2191 C289 1.659 . S
C2212 C748 1.589 . S
C2207 C291 1.613 . S
C2228 C459 0.898 . S
C2223 C231 0.919 . S
C2239 C237 1.045 . S
C2244 N596 1.096 . S
C2260 C493 1.456 1_565 S
C2255 C257 1.503 . S
C2276 N536 0.927 . S
C2271 C304 0.948 . S
C2287 C265 1.097 . S
C2292 N776 1.088 . S
C2308 C669 0.976 . S
C2303 C244 0.994 . S
C2324 C673 1.034 . S
C2319 C212 1.030 . S
