# Generated by pormake.
# Topology nia, (6,6)-cn, num edge types: 1
# Building blocks:
#     Node 0, Type 0, BuildingBlock: KUMBOL_clean_sbu_0, # of connection points: 6
#     Node 1, Type 0, BuildingBlock: KUMBOL_clean_sbu_0, # of connection points: 6
#     Node 2, Type 1, BuildingBlock: MIDCAF_clean_sbu_0, # of connection points: 6
#     Node 3, Type 1, BuildingBlock: MIDCAF_clean_sbu_0, # of connection points: 6
#     Edge 4, Type (0, 1), BuildingBlock: XIVTED_clean_linker_0, # of connection points: 2
#     Edge 5, Type (0, 1), BuildingBlock: XIVTED_clean_linker_0, # of connection points: 2
#     Edge 6, Type (0, 1), BuildingBlock: XIVTED_clean_linker_0, # of connection points: 2
#     Edge 7, Type (0, 1), BuildingBlock: XIVTED_clean_linker_0, # of connection points: 2
#     Edge 8, Type (0, 1), BuildingBlock: XIVTED_clean_linker_0, # of connection points: 2
#     Edge 9, Type (0, 1), BuildingBlock: XIVTED_clean_linker_0, # of connection points: 2
#     Edge 10, Type (0, 1), BuildingBlock: XIVTED_clean_linker_0, # of connection points: 2
#     Edge 11, Type (0, 1), BuildingBlock: XIVTED_clean_linker_0, # of connection points: 2
#     Edge 12, Type (0, 1), BuildingBlock: XIVTED_clean_linker_0, # of connection points: 2
#     Edge 13, Type (0, 1), BuildingBlock: XIVTED_clean_linker_0, # of connection points: 2
#     Edge 14, Type (0, 1), BuildingBlock: XIVTED_clean_linker_0, # of connection points: 2
#     Edge 15, Type (0, 1), BuildingBlock: XIVTED_clean_linker_0, # of connection points: 2
# Relax obj value: 0.169
# Max RMSD: 0.286
# Mean RMSD: 0.204
data_MOF--net-nia--node1-KUMBOL_clean_sbu_0--node2-MIDCAF_clean_sbu_0--edge1-XIVTED_clean_linker_0
_symmetry_space_group_name_H-M    P1
_symmetry_Int_Tables_number       1
_symmetry_cell_setting            triclinic
loop_
_symmetry_equiv_pos_as_xyz
'x, y, z'
_cell_length_a     28.701966
_cell_length_b     28.570952
_cell_length_c     32.378602
_cell_angle_alpha  90.565031
_cell_angle_beta   89.311209
_cell_angle_gamma 139.29168
loop_
_atom_site_label
_atom_site_type_symbol
_atom_site_fract_x
_atom_site_fract_y
_atom_site_fract_z
_atom_type_partial_charge
Gd0 Gd 0.96421 0.01622 0.97912 0.0
Gd1 Gd 0.02144 0.97649 0.06009 0.0
C2 C 0.84007 0.81017 0.15276 0.0
C3 C 0.88972 0.878 0.21675 0.0
C4 C 0.9583 0.9347 0.15269 0.0
C5 C 0.9029 0.87142 0.13149 0.0
C6 C 0.9534 0.93755 0.1959 0.0
C7 C 0.83294 0.81455 0.19514 0.0
C8 C 0.78724 0.74557 0.13117 0.0
C9 C 0.79849 0.7425 0.08976 0.0
N10 N 0.91233 0.86836 0.09071 0.0
C11 C 0.86163 0.80433 0.07002 0.0
H12 H 0.86819 0.7998 0.03807 0.0
C13 C 0.0804 0.04816 0.15322 0.0
N14 N 0.01973 0.99086 0.13189 0.0
C15 C 0.07812 0.05372 0.19594 0.0
C16 C 0.01404 -0.00149 0.21728 0.0
H17 H 0.1308 0.09015 0.13704 0.0
H18 H 0.78479 0.76833 0.21181 0.0
H19 H 0.12074 0.1956 0.99432 0.0
H20 H 0.73829 0.69749 0.14639 0.0
H21 H 0.75837 0.69247 0.07291 0.0
H22 H 0.88484 0.87951 0.24982 0.0
H23 H 0.84468 0.89215 0.90725 0.0
H24 H 0.23642 0.28326 0.88078 0.0
H25 H 0.22593 0.29779 0.95436 0.0
H26 H 0.07724 0.08967 0.78513 0.0
H27 H 0.12604 0.09994 0.21244 0.0
H28 H 0.01281 0.00168 0.25047 0.0
H29 H 0.18166 0.20484 0.81833 0.0
H30 H 0.84086 0.87392 0.83218 0.0
N31 N 0.06932 0.12057 0.94437 0.0
C32 C 0.18923 0.23743 0.89818 0.0
C33 C 0.18341 0.24587 0.93966 0.0
C34 C 0.13333 0.17048 0.87934 0.0
C35 C 0.07288 0.11227 0.90337 0.0
C36 C 0.12283 0.18692 0.96235 0.0
N37 N 0.95557 0.99223 0.9079 0.0
C38 C 0.01455 0.04645 0.8847 0.0
C39 C 0.89033 0.9223 0.84656 0.0
C40 C 0.95206 0.97475 0.82281 0.0
C41 C 0.89261 0.93289 0.88901 0.0
C42 C 0.01475 0.03841 0.84156 0.0
H43 H 0.94986 0.96684 0.78981 0.0
O44 O 0.86634 0.98174 0.98372 0.0
O45 O 0.94614 0.9753 0.04224 0.0
O46 O 0.97503 0.90071 1.00509 0.0
O47 O 0.93471 0.92261 0.95517 0.0
O48 O 0.85674 0.91324 1.00504 0.0
O49 O 0.95812 0.0829 0.95482 0.0
O50 O 0.11712 0.01406 0.08159 0.0
O51 O 0.04211 0.02104 0.99786 0.0
O52 O 0.01913 0.0982 0.03103 0.0
O53 O 0.05318 0.07249 0.08341 0.0
O54 O 0.13038 0.07793 0.03441 0.0
O55 O 0.02622 0.90429 0.06091 0.0
C56 C 0.87905 0.92099 0.04184 0.0
C57 C 0.07607 0.0952 0.81814 0.0
C58 C 0.13538 0.16092 0.83703 0.0
C59 C 0.88972 0.03403 0.9618 0.0
C60 C 0.84334 0.01301 0.92727 0.0
C61 C 0.7871 0.94114 0.91401 0.0
C62 C 0.85168 0.06357 0.90923 0.0
C63 C 0.80387 0.04248 0.8786 0.0
C64 C 0.74251 0.92089 0.88213 0.0
C65 C 0.75047 0.97091 0.8646 0.0
C66 C 0.94343 0.88656 0.96953 0.0
C67 C 0.10927 0.07451 0.99834 0.0
C68 C 0.08814 0.95061 0.07917 0.0
C69 C 0.09296 0.92527 0.11651 0.0
C70 C 0.03792 0.88386 0.14612 0.0
C71 C 0.15247 0.94163 0.12255 0.0
C72 C 0.15679 0.91649 0.15786 0.0
C73 C 0.04312 0.86141 0.18189 0.0
C74 C 0.1021 0.87751 0.18784 0.0
C75 C 0.04861 0.11141 0.06733 0.0
H76 H 0.77633 0.89989 0.92877 0.0
H77 H 0.89378 0.11857 0.92011 0.0
H78 H 0.69977 0.86549 0.87207 0.0
H79 H 0.71197 0.9522 0.84172 0.0
H80 H -0.00975 0.86756 0.14135 0.0
H81 H 0.19454 0.97259 0.09938 0.0
H82 H 0.00022 0.82959 0.20447 0.0
H83 H 0.10303 0.85637 0.21496 0.0
Gd84 Gd 0.00851 0.97986 0.46444 0.0
Gd85 Gd 0.00326 0.04381 0.56466 0.0
C86 C 0.19679 0.17979 0.64932 0.0
C87 C 0.14754 0.10068 0.70805 0.0
C88 C 0.07246 0.06153 0.64922 0.0
C89 C 0.13005 0.12597 0.6294 0.0
C90 C 0.08021 0.04902 0.68924 0.0
C91 C 0.20554 0.1662 0.6883 0.0
C92 C 0.25234 0.24635 0.62994 0.0
C93 C 0.2405 0.25825 0.59187 0.0
N94 N 0.11973 0.13774 0.59183 0.0
C95 C 0.17363 0.20324 0.57319 0.0
H96 H 0.16615 0.21394 0.54378 0.0
C97 C 0.94712 0.95687 0.65294 0.0
N98 N 0.00749 0.01409 0.63106 0.0
C99 C 0.95226 0.94124 0.69222 0.0
C100 C 0.01933 0.98672 0.71008 0.0
H101 H 0.8951 0.92173 0.63917 0.0
H102 H 0.25654 0.20664 0.70387 0.0
H103 H 0.83707 0.81436 0.4637 0.0
H104 H 0.30423 0.28911 0.6443 0.0
H105 H 0.28301 0.30975 0.57676 0.0
H106 H 0.15466 0.0917 0.73858 0.0
H107 H 0.14625 0.10613 0.40105 0.0
H108 H 0.73811 0.79131 0.35479 0.0
H109 H 0.73109 0.74092 0.41956 0.0
H110 H 0.93278 0.00929 0.28101 0.0
H111 H 0.90455 0.89436 0.70875 0.0
H112 H 0.02326 0.9749 0.74066 0.0
H113 H 0.81325 0.89343 0.30411 0.0
H114 H 0.16807 0.15868 0.33276 0.0
N115 N 0.90377 0.90623 0.4248 0.0
C116 C 0.78502 0.82379 0.37397 0.0
C117 C 0.7809 0.79512 0.41045 0.0
C118 C 0.85026 0.89318 0.36201 0.0
C119 C 0.90975 0.93303 0.38805 0.0
C120 C 0.84122 0.83707 0.43547 0.0
N121 N 0.03365 0.02946 0.39851 0.0
C122 C 0.97695 -0.0028 0.37463 0.0
C123 C 0.11404 0.11364 0.34432 0.0
C124 C 0.05635 0.08534 0.32107 0.0
C125 C 0.10157 0.08367 0.38278 0.0
C126 C 0.98659 0.02464 0.33541 0.0
H127 H 0.06614 0.10859 0.29127 0.0
O128 O 0.08213 0.98299 0.44077 0.0
O129 O 0.05395 0.02755 0.52612 0.0
O130 O 0.05258 0.12554 0.51348 0.0
O131 O 0.04409 0.0797 0.44954 0.0
O132 O 0.12605 0.06248 0.48165 0.0
O133 O 0.97087 0.88079 0.45067 0.0
O134 O 0.92392 0.02475 0.59804 0.0
O135 O 0.95509 -0.00558 0.50309 0.0
O136 O 0.93686 0.89038 0.51262 0.0
O137 O 0.97427 0.94682 0.57723 0.0
O138 O 0.88488 0.95193 0.55208 0.0
O139 O 0.02323 0.13244 0.57802 0.0
C140 C 0.11866 0.06775 0.52013 0.0
C141 C 0.92666 0.98855 0.311 0.0
C142 C 0.85858 0.92257 0.32416 0.0
C143 C 0.03177 0.91397 0.43449 0.0
C144 C 0.02965 0.89139 0.39256 0.0
C145 C 0.9838 0.87439 0.36246 0.0
C146 C 0.07555 0.88912 0.38193 0.0
C147 C 0.0761 0.87052 0.34145 0.0
C148 C 0.98499 0.85742 0.32225 0.0
C149 C 0.0309 0.85569 0.3117 0.0
C150 C 0.06132 0.1293 0.47277 0.0
C151 C 0.89006 0.94916 0.51272 0.0
C152 C 0.96419 0.09266 0.59932 0.0
C153 C 0.97034 0.12086 0.63988 0.0
C154 C 0.01567 0.13789 0.67035 0.0
C155 C 0.93014 0.13071 0.64832 0.0
C156 C 0.93456 0.15687 0.6871 0.0
C157 C 0.01964 0.16272 0.70899 0.0
C158 C 0.97929 0.17205 0.71745 0.0
C159 C 0.94064 0.89043 0.55355 0.0
H160 H 0.94695 0.87408 0.36986 0.0
H161 H 0.1098 0.90068 0.40541 0.0
H162 H 0.95003 0.84539 0.29918 0.0
H163 H 0.031 0.84279 0.28019 0.0
H164 H 0.04824 0.13244 0.66435 0.0
H165 H 0.89654 0.11926 0.62432 0.0
H166 H 0.05431 0.175 0.73242 0.0
H167 H 0.98296 0.19091 0.74779 0.0
Zn168 Zn 0.38523 0.69381 0.19215 0.0
Zn169 Zn 0.34864 0.69118 0.34386 0.0
Zn170 Zn 0.37673 0.69305 0.26938 0.0
C171 C 0.48505 0.75395 0.34179 0.0
C172 C 0.25384 0.54954 0.32361 0.0
O173 O 0.36754 0.75623 0.2392 0.0
O174 O 0.39392 0.76503 0.17321 0.0
C175 C 0.50974 0.74851 0.22552 0.0
O176 O 0.47564 0.7482 0.30245 0.0
O177 O 0.43699 0.73222 0.36607 0.0
O178 O 0.26291 0.58686 0.35156 0.0
O179 O 0.29213 0.57978 0.29036 0.0
O180 O 0.47315 0.72257 0.193 0.0
O181 O 0.48624 0.74906 0.25942 0.0
O182 O 0.29948 0.58016 0.24605 0.0
O183 O 0.29577 0.59256 0.17935 0.0
C184 C 0.273 0.55247 0.20988 0.0
O185 O 0.34124 0.74124 0.27992 0.0
O186 O 0.33495 0.74824 0.3475 0.0
C187 C 0.37958 0.78169 0.20269 0.0
C188 C 0.32856 0.75872 0.31142 0.0
Zn189 Zn 0.62152 0.31819 0.84132 0.0
Zn190 Zn 0.60619 0.28655 0.68635 0.0
Zn191 Zn 0.62085 0.31889 0.76107 0.0
C192 C 0.68859 0.43385 0.69437 0.0
C193 C 0.47346 0.20823 0.70815 0.0
O194 O 0.65323 0.27384 0.78626 0.0
O195 O 0.6464 0.27256 0.85454 0.0
C196 C 0.72371 0.46237 0.81301 0.0
O197 O 0.68966 0.42455 0.733 0.0
O198 O 0.65345 0.38179 0.66951 0.0
O199 O 0.50199 0.20434 0.68081 0.0
O200 O 0.51039 0.25059 0.73935 0.0
O201 O 0.70051 0.42401 0.84465 0.0
O202 O 0.69847 0.43341 0.77705 0.0
O203 O 0.51288 0.25872 0.78325 0.0
O204 O 0.52252 0.26456 0.8513 0.0
C205 C 0.48583 0.24445 0.81958 0.0
O206 O 0.66391 0.28025 0.74353 0.0
O207 O 0.6577 0.26766 0.6756 0.0
C208 C 0.65942 0.25932 0.82205 0.0
C209 C 0.67688 0.26659 0.70996 0.0
H210 H 0.2117 0.90231 0.0966 0.0
H211 H 0.4137 0.88465 0.25035 0.0
H212 H 0.22905 0.94379 0.22746 0.0
H213 H 0.32439 0.77606 0.13304 0.0
H214 H 0.37737 0.93843 0.23748 0.0
H215 H 0.2871 0.89108 0.1047 0.0
C216 C 0.23277 0.91089 0.12689 0.0
C217 C 0.2132 0.92319 0.16147 0.0
C218 C 0.36659 0.90344 0.21445 0.0
C219 C 0.2984 0.9087 0.17103 0.0
C220 C 0.38646 0.87224 0.22198 0.0
C221 C 0.36886 0.82343 0.19359 0.0
C222 C 0.33064 0.88676 0.17778 0.0
C223 C 0.33743 0.81218 0.15618 0.0
C224 C 0.27531 0.90375 0.13154 0.0
C225 C 0.24163 0.93285 0.20007 0.0
N226 N 0.31855 0.84288 0.14958 0.0
N227 N 0.28212 0.92448 0.20393 0.0
H228 H 0.08374 0.97924 0.58051 0.0
H229 H 0.44862 0.28161 0.70007 0.0
H230 H 0.26174 0.1911 0.52971 0.0
H231 H 0.34877 0.07037 0.68731 0.0
H232 H 0.35708 0.2451 0.65506 0.0
H233 H 0.16094 0.00889 0.63527 0.0
C234 C 0.1387 0.03246 0.58137 0.0
C235 C 0.16581 0.08422 0.55188 0.0
C236 C 0.35404 0.20621 0.66333 0.0
C237 C 0.25408 0.11768 0.61376 0.0
C238 C 0.40522 0.22645 0.68955 0.0
C239 C 0.40551 0.17856 0.69749 0.0
C240 C 0.30191 0.13709 0.64621 0.0
C241 C 0.34957 0.10836 0.68211 0.0
C242 C 0.18272 0.04892 0.61231 0.0
C243 C 0.23862 0.15067 0.55271 0.0
N244 N 0.29984 0.08959 0.65696 0.0
N245 N 0.28024 0.16616 0.58374 0.0
H246 H 0.0141 0.1778 0.05944 0.0
H247 H 0.28391 0.47008 0.23413 0.0
H248 H 0.14106 0.1812 0.13292 0.0
H249 H 0.15466 0.46446 0.16206 0.0
H250 H 0.21954 0.35415 0.20478 0.0
H251 H 0.05577 0.27524 0.1016 0.0
C252 C 0.05068 0.19887 0.08446 0.0
C253 C 0.07395 0.17091 0.09261 0.0
C254 C 0.20387 0.37725 0.19615 0.0
C255 C 0.12166 0.28255 0.14133 0.0
C256 C 0.23956 0.44266 0.21371 0.0
C257 C 0.22313 0.47574 0.2014 0.0
C258 C 0.15231 0.34551 0.16551 0.0
C259 C 0.16825 0.44013 0.17269 0.0
C260 C 0.0741 0.25428 0.10874 0.0
C261 C 0.12086 0.20013 0.12575 0.0
N262 N 0.1353 0.37735 0.15541 0.0
N263 N 0.14344 0.25452 0.1487 0.0
H264 H 0.97796 0.26808 0.73037 0.0
H265 H 0.6341 0.15541 0.67037 0.0
H266 H 0.79828 0.07509 0.66322 0.0
H267 H 0.79855 0.3338 0.75063 0.0
H268 H 0.69333 0.12441 0.66889 0.0
H269 H 0.91241 0.29132 0.74066 0.0
C270 C 0.92447 0.23014 0.71812 0.0
C271 C 0.89393 0.16978 0.6955 0.0
C272 C 0.71649 0.17013 0.68706 0.0
C273 C 0.81921 0.19704 0.70655 0.0
C274 C 0.68277 0.18787 0.68779 0.0
C275 C 0.71145 0.24678 0.71088 0.0
C276 C 0.78024 0.21251 0.70895 0.0
C277 C 0.7747 0.28756 0.73276 0.0
C278 C 0.88727 0.24376 0.72383 0.0
C279 C 0.82473 0.12313 0.68001 0.0
N280 N 0.80734 0.26985 0.73112 0.0
N281 N 0.79 0.138 0.6856 0.0
H282 H 0.91449 -0.00272 0.11187 0.0
H283 H 0.52765 0.6702 0.21136 0.0
H284 H 0.73991 0.7912 0.05384 0.0
H285 H 0.64462 0.88789 0.22707 0.0
H286 H 0.62948 0.71419 0.17372 0.0
H287 H 0.83591 0.9569 0.1707 0.0
C288 C 0.85992 0.94325 0.11178 0.0
C289 C 0.83371 0.89681 0.07833 0.0
C290 C 0.63382 0.7525 0.18664 0.0
C291 C 0.7445 0.85067 0.14536 0.0
C292 C 0.57634 0.72759 0.20869 0.0
C293 C 0.57811 0.77564 0.22231 0.0
C294 C 0.69326 0.82593 0.17807 0.0
C295 C 0.6417 0.84936 0.21733 0.0
C296 C 0.81536 0.92044 0.14529 0.0
C297 C 0.76224 0.82813 0.07927 0.0
N298 N 0.69663 0.87246 0.19478 0.0
N299 N 0.72023 0.80688 0.11242 0.0
H300 H 0.83122 0.75287 0.52459 0.0
H301 H 0.80106 0.5708 0.72704 0.0
H302 H 0.96879 0.87607 0.62992 0.0
H303 H 0.6606 0.45509 0.62209 0.0
H304 H 0.86341 0.68399 0.69375 0.0
H305 H 0.76957 0.64314 0.56074 0.0
C306 C 0.84853 0.75685 0.55531 0.0
C307 C 0.90458 0.82365 0.57443 0.0
C308 C 0.8187 0.63359 0.67823 0.0
C309 C 0.83409 0.69807 0.61629 0.0
C310 C 0.78291 0.56914 0.69737 0.0
C311 C 0.72573 0.50346 0.67734 0.0
C312 C 0.79692 0.63184 0.6389 0.0
C313 C 0.70492 0.50437 0.63858 0.0
C314 C 0.8131 0.69413 0.57611 0.0
C315 C 0.92472 0.82553 0.61438 0.0
N316 N 0.74051 0.56727 0.62071 0.0
N317 N 0.88949 0.76365 0.63402 0.0
H318 H 0.21299 0.95583 0.3669 0.0
H319 H 0.22855 0.71499 0.2574 0.0
H320 H 0.04428 0.77171 0.29049 0.0
H321 H 0.36788 0.8652 0.3558 0.0
H322 H 0.17416 0.75196 0.25788 0.0
H323 H 0.28328 0.93897 0.35239 0.0
C324 C 0.19062 0.91187 0.34709 0.0
C325 C 0.122 0.86452 0.33046 0.0
C326 C 0.21718 0.77734 0.27903 0.0
C327 C 0.20284 0.8456 0.31319 0.0
C328 C 0.24836 0.75657 0.27857 0.0
C329 C 0.30259 0.78724 0.30661 0.0
C330 C 0.24045 0.82887 0.30781 0.0
C331 C 0.32605 0.84031 0.33375 0.0
C332 C 0.23105 0.9026 0.33857 0.0
C333 C 0.0969 0.80979 0.30397 0.0
N334 N 0.2947 0.85925 0.3338 0.0
N335 N 0.13704 0.80152 0.29642 0.0
H336 H 0.24644 0.20696 0.98768 0.0
H337 H 0.45242 0.31087 0.81641 0.0
H338 H 0.07871 0.0014 0.92773 0.0
H339 H 0.36228 0.10679 0.84174 0.0
H340 H 0.35028 0.27001 0.85215 0.0
H341 H 0.32784 0.24746 0.93085 0.0
C342 C 0.22656 0.17091 0.96213 0.0
C343 C 0.15557 0.10148 0.96184 0.0
C344 C 0.35188 0.23349 0.84862 0.0
C345 C 0.2485 0.14631 0.89768 0.0
C346 C 0.40939 0.25629 0.82783 0.0
C347 C 0.41503 0.21171 0.82595 0.0
C348 C 0.29988 0.16563 0.86739 0.0
C349 C 0.3591 0.14222 0.84223 0.0
C350 C 0.27271 0.19407 0.9297 0.0
C351 C 0.13271 0.05592 0.92861 0.0
N352 N 0.30391 0.12135 0.86267 0.0
N353 N 0.17953 0.07865 0.89818 0.0
H354 H 0.01745 0.18656 0.48182 0.0
H355 H 0.2799 0.47824 0.30438 0.0
H356 H 0.16414 0.21048 0.41341 0.0
H357 H 0.13245 0.45547 0.37046 0.0
H358 H 0.22644 0.36959 0.33757 0.0
H359 H 0.05264 0.27978 0.43853 0.0
C360 C 0.05742 0.21191 0.45783 0.0
C361 C 0.08749 0.19057 0.45066 0.0
C362 C 0.20451 0.38725 0.34416 0.0
C363 C 0.12699 0.29566 0.40074 0.0
C364 C 0.23393 0.44834 0.32431 0.0
C365 C 0.20954 0.4749 0.33395 0.0
C366 C 0.15115 0.35331 0.37444 0.0
C367 C 0.15248 0.43636 0.36204 0.0
C368 C 0.07685 0.26432 0.43283 0.0
C369 C 0.13838 0.22416 0.41904 0.0
N370 N 0.12578 0.37799 0.38171 0.0
N371 N 0.15657 0.27503 0.39525 0.0
H372 H 0.83183 0.14228 0.92506 0.0
H373 H 0.62005 0.14994 0.77974 0.0
H374 H 0.77128 0.05309 0.80183 0.0
H375 H 0.76194 0.30895 0.8743 0.0
H376 H 0.67007 0.10904 0.78815 0.0
H377 H 0.80657 0.20364 0.90718 0.0
C378 C 0.8149 0.13677 0.8939 0.0
C379 C 0.80267 0.09124 0.86518 0.0
C380 C 0.6907 0.15339 0.8067 0.0
C381 C 0.77082 0.15953 0.8451 0.0
C382 C 0.66221 0.17653 0.80192 0.0
C383 C 0.68784 0.23332 0.82598 0.0
C384 C 0.74394 0.18654 0.83634 0.0
C385 C 0.74107 0.26506 0.85509 0.0
C386 C 0.79974 0.17142 0.88385 0.0
C387 C 0.77945 0.0858 0.82545 0.0
N388 N 0.76722 0.24109 0.85958 0.0
N389 N 0.76291 0.11838 0.81681 0.0
H390 H 0.74991 0.82343 0.52104 0.0
H391 H 0.62695 0.86181 0.31558 0.0
H392 H 0.89965 0.01081 0.44346 0.0
H393 H 0.48564 0.70479 0.41155 0.0
H394 H 0.7296 0.91074 0.35568 0.0
H395 H 0.65306 0.77388 0.47601 0.0
C396 C 0.76214 0.85385 0.49428 0.0
C397 C 0.8326 0.91976 0.48494 0.0
C398 C 0.67589 0.86544 0.36766 0.0
C399 C 0.72233 0.86452 0.43353 0.0
C400 C 0.61759 0.83726 0.34468 0.0
C401 C 0.54807 0.78 0.36066 0.0
C402 C 0.66366 0.83521 0.40631 0.0
C403 C 0.53848 0.74985 0.39843 0.0
C404 C 0.70703 0.82578 0.46855 0.0
C405 C 0.84591 0.95844 0.45067 0.0
N406 N 0.59539 0.77791 0.4199 0.0
N407 N 0.79116 0.92999 0.42588 0.0
H408 H -0.00235 0.83865 0.96317 0.0
H409 H 0.7167 0.54838 0.78919 0.0
H410 H 0.83377 0.80351 0.91469 0.0
H411 H 0.84581 0.54892 0.85629 0.0
H412 H 0.78122 0.66227 0.82263 0.0
H413 H 0.95957 0.74775 0.91494 0.0
C414 C 0.95385 0.81201 0.94236 0.0
C415 C 0.91951 0.82947 0.9425 0.0
C416 C 0.79662 0.63834 0.82928 0.0
C417 C 0.87659 0.72675 0.88691 0.0
C418 C 0.76059 0.57407 0.80967 0.0
C419 C 0.77626 0.53973 0.8201 0.0
C420 C 0.84817 0.66774 0.85947 0.0
C421 C 0.83245 0.57416 0.84752 0.0
C422 C 0.9326 0.76073 0.91459 0.0
C423 C 0.86331 0.79359 0.91474 0.0
N424 N 0.86579 0.6358 0.86672 0.0
N425 N 0.84362 0.74404 0.88814 0.0
loop_
_geom_bond_atom_site_label_1
_geom_bond_atom_site_label_2
_geom_bond_distance
_geom_bond_site_symmetry_2
_ccdc_geom_bond_type
Gd0 N31 2.661 1_655 S
Gd0 N37 2.601 . S
Gd0 O44 2.545 1_545 S
Gd0 O45 2.606 1_546 S
Gd0 O47 2.429 1_545 S
Gd0 O48 2.545 1_545 S
Gd0 O49 2.412 . S
Gd0 O51 2.362 1_655 S
Gd0 O52 2.324 1_656 S
Gd0 C59 2.828 . S
Gd1 N10 2.661 1_455 S
Gd1 N14 2.601 . S
Gd1 O45 2.362 1_455 S
Gd1 O46 2.324 1_454 S
Gd1 O50 2.545 1_565 S
Gd1 O51 2.606 1_564 S
Gd1 O53 2.429 1_565 S
Gd1 O54 2.545 1_565 S
Gd1 O55 2.412 . S
Gd1 C68 2.828 . S
C2 C5 1.417 . S
C2 C7 1.431 . S
C2 C8 1.412 . S
C3 C6 1.437 . S
C3 C7 1.317 . S
C3 H22 0.929 . S
C4 C5 1.426 . S
C4 C6 1.413 . S
C4 N14 1.359 1_655 S
C5 C2 1.417 . S
C5 C4 1.426 . S
C5 N10 1.350 . S
C6 C3 1.437 . S
C6 C4 1.413 . S
C6 C16 1.391 1_655 S
C7 C2 1.431 . S
C7 C3 1.317 . S
C7 H18 0.930 . S
C8 C2 1.412 . S
C8 C9 1.355 . S
C8 H20 0.930 . S
C9 C8 1.355 . S
C9 C11 1.402 . S
C9 H21 0.930 . S
N10 Gd1 2.661 1_655 S
N10 C5 1.350 . S
N10 C11 1.307 . S
C11 C9 1.402 . S
C11 N10 1.307 . S
C11 H12 0.930 . S
H12 C11 0.930 . S
C13 N14 1.334 1_545 S
C13 C15 1.394 . S
C13 H17 0.930 . S
N14 Gd1 2.601 . S
N14 C4 1.359 1_455 S
N14 C13 1.334 1_565 S
C15 C13 1.394 . S
C15 C16 1.359 1_545 S
C15 H27 0.930 . S
C16 C6 1.391 1_455 S
C16 C15 1.359 1_565 S
C16 H28 0.927 1_565 S
H17 C13 0.930 . S
H18 C7 0.930 . S
H19 C36 0.930 . S
H20 C8 0.930 . S
H21 C9 0.930 . S
H22 C3 0.929 . S
H23 C41 0.930 . S
H24 C32 0.930 . S
H25 C33 0.930 . S
H26 C57 0.929 . S
H27 C15 0.930 . S
H28 C16 0.927 1_545 S
H29 C58 0.930 . S
H30 C39 0.930 . S
N31 Gd0 2.661 1_455 S
N31 C35 1.350 . S
N31 C36 1.307 . S
C32 H24 0.930 . S
C32 C33 1.355 . S
C32 C34 1.412 . S
C33 H25 0.930 . S
C33 C32 1.355 . S
C33 C36 1.402 . S
C34 C32 1.412 . S
C34 C35 1.417 . S
C34 C58 1.431 . S
C35 N31 1.350 . S
C35 C34 1.417 . S
C35 C38 1.426 . S
C36 H19 0.930 . S
C36 N31 1.307 . S
C36 C33 1.402 . S
N37 Gd0 2.601 . S
N37 C38 1.359 1_655 S
N37 C41 1.334 1_545 S
C38 C35 1.426 . S
C38 N37 1.359 1_455 S
C38 C42 1.413 . S
C39 H30 0.930 . S
C39 C40 1.359 1_565 S
C39 C41 1.394 . S
C40 C39 1.359 1_545 S
C40 C42 1.391 1_655 S
C40 H43 0.929 . S
C41 H23 0.930 . S
C41 N37 1.334 1_565 S
C41 C39 1.394 . S
C42 C38 1.413 . S
C42 C40 1.391 1_455 S
C42 C57 1.437 . S
H43 C40 0.929 . S
O44 Gd0 2.545 1_565 S
O44 C59 1.258 1_565 S
O45 Gd0 2.606 1_564 S
O45 Gd1 2.362 1_655 S
O45 C56 1.284 . S
O46 Gd1 2.324 1_656 S
O46 C66 1.254 . S
O47 Gd0 2.429 1_565 S
O47 C66 1.268 . S
O48 Gd0 2.545 1_565 S
O48 C56 1.250 1_556 S
O49 Gd0 2.412 . S
O49 C59 1.252 . S
O50 Gd1 2.545 1_545 S
O50 C68 1.258 1_545 S
O51 Gd0 2.362 1_455 S
O51 Gd1 2.606 1_546 S
O51 C67 1.284 . S
O52 Gd0 2.324 1_454 S
O52 C75 1.254 . S
O53 Gd1 2.429 1_545 S
O53 C75 1.268 . S
O54 Gd1 2.545 1_545 S
O54 C67 1.250 1_554 S
O55 Gd1 2.412 . S
O55 C68 1.252 . S
C56 O45 1.284 . S
C56 O48 1.250 1_554 S
C57 H26 0.929 . S
C57 C42 1.437 . S
C57 C58 1.317 . S
C58 H29 0.930 . S
C58 C34 1.431 . S
C58 C57 1.317 . S
C59 Gd0 2.828 . S
C59 O44 1.258 1_545 S
C59 O49 1.252 . S
C59 C60 1.497 . S
C60 C59 1.497 . S
C60 C61 1.395 . S
C60 C62 1.380 . S
C61 C60 1.395 . S
C61 C64 1.398 . S
C61 H76 0.930 . S
C62 C60 1.380 . S
C62 C63 1.391 . S
C62 H77 0.930 . S
C63 C62 1.391 . S
C63 C65 1.387 . S
C64 C61 1.398 . S
C64 C65 1.380 . S
C64 H78 0.930 . S
C65 C63 1.387 . S
C65 C64 1.380 . S
C65 H79 0.930 . S
C66 O46 1.254 . S
C66 O47 1.268 . S
C67 O51 1.284 . S
C67 O54 1.250 1_556 S
C68 Gd1 2.828 . S
C68 O50 1.258 1_565 S
C68 O55 1.252 . S
C68 C69 1.497 . S
C69 C68 1.497 . S
C69 C70 1.395 . S
C69 C71 1.380 . S
C70 C69 1.395 . S
C70 C73 1.398 . S
C70 H80 0.930 . S
C71 C69 1.380 . S
C71 C72 1.391 . S
C71 H81 0.930 . S
C72 C71 1.391 . S
C72 C74 1.387 . S
C73 C70 1.398 . S
C73 C74 1.380 . S
C73 H82 0.930 . S
C74 C72 1.387 . S
C74 C73 1.380 . S
C74 H83 0.930 . S
C75 O52 1.254 . S
C75 O53 1.268 . S
H76 C61 0.930 . S
H77 C62 0.930 . S
H78 C64 0.930 . S
H79 C65 0.930 . S
H80 C70 0.930 . S
H81 C71 0.930 . S
H82 C73 0.930 . S
H83 C74 0.930 . S
Gd84 N115 2.661 1_455 S
Gd84 N121 2.601 1_565 S
Gd84 O128 2.545 1_565 S
Gd84 O129 2.606 1_565 S
Gd84 O131 2.429 1_565 S
Gd84 O132 2.545 1_565 S
Gd84 O133 2.412 . S
Gd84 O135 2.362 1_455 S
Gd84 O136 2.324 1_455 S
Gd84 C143 2.828 . S
Gd85 N94 2.661 1_655 S
Gd85 N98 2.601 1_655 S
Gd85 O129 2.362 1_655 S
Gd85 O130 2.324 1_655 S
Gd85 O134 2.545 . S
Gd85 O135 2.606 1_545 S
Gd85 O137 2.429 1_545 S
Gd85 O138 2.545 1_545 S
Gd85 O139 2.412 . S
Gd85 C152 2.828 . S
C86 C89 1.417 . S
C86 C91 1.431 . S
C86 C92 1.412 . S
C87 C90 1.437 . S
C87 C91 1.317 . S
C87 H106 0.929 . S
C88 C89 1.426 . S
C88 C90 1.413 . S
C88 N98 1.359 . S
C89 C86 1.417 . S
C89 C88 1.426 . S
C89 N94 1.350 . S
C90 C87 1.437 . S
C90 C88 1.413 . S
C90 C100 1.391 . S
C91 C86 1.431 . S
C91 C87 1.317 . S
C91 H102 0.930 . S
C92 C86 1.412 . S
C92 C93 1.355 . S
C92 H104 0.930 . S
C93 C92 1.355 . S
C93 C95 1.402 . S
C93 H105 0.930 . S
N94 Gd85 2.661 1_455 S
N94 C89 1.350 . S
N94 C95 1.307 . S
C95 C93 1.402 . S
C95 N94 1.307 . S
C95 H96 0.930 . S
H96 C95 0.930 . S
C97 N98 1.334 1_665 S
C97 C99 1.394 . S
C97 H101 0.930 . S
N98 Gd85 2.601 1_455 S
N98 C88 1.359 . S
N98 C97 1.334 1_445 S
C99 C97 1.394 . S
C99 C100 1.359 1_665 S
C99 H111 0.930 . S
C100 C90 1.391 . S
C100 C99 1.359 1_445 S
C100 H112 0.929 . S
H101 C97 0.930 . S
H102 C91 0.930 . S
H103 C120 0.930 . S
H104 C92 0.930 . S
H105 C93 0.930 . S
H106 C87 0.929 . S
H107 C125 0.930 . S
H108 C116 0.930 . S
H109 C117 0.930 . S
H110 C141 0.929 . S
H111 C99 0.930 . S
H112 C100 0.929 . S
H113 C142 0.930 . S
H114 C123 0.930 . S
N115 Gd84 2.661 1_655 S
N115 C119 1.350 . S
N115 C120 1.307 . S
C116 H108 0.930 . S
C116 C117 1.355 . S
C116 C118 1.412 . S
C117 H109 0.930 . S
C117 C116 1.355 . S
C117 C120 1.402 . S
C118 C116 1.412 . S
C118 C119 1.417 . S
C118 C142 1.431 . S
C119 N115 1.350 . S
C119 C118 1.417 . S
C119 C122 1.426 . S
C120 H103 0.930 . S
C120 N115 1.307 . S
C120 C117 1.402 . S
N121 Gd84 2.601 1_545 S
N121 C122 1.359 1_445 S
N121 C125 1.334 . S
C122 C119 1.426 . S
C122 N121 1.359 1_665 S
C122 C126 1.413 . S
C123 H114 0.930 . S
C123 C124 1.359 . S
C123 C125 1.394 . S
C124 C123 1.359 . S
C124 C126 1.391 1_445 S
C124 H127 0.929 . S
C125 H107 0.930 . S
C125 N121 1.334 . S
C125 C123 1.394 . S
C126 C122 1.413 . S
C126 C124 1.391 1_665 S
C126 C141 1.437 . S
H127 C124 0.929 . S
O128 Gd84 2.545 1_545 S
O128 C143 1.258 1_545 S
O129 Gd84 2.606 1_545 S
O129 Gd85 2.362 1_455 S
O129 C140 1.284 . S
O130 Gd85 2.324 1_455 S
O130 C150 1.254 . S
O131 Gd84 2.429 1_545 S
O131 C150 1.268 . S
O132 Gd84 2.545 1_545 S
O132 C140 1.250 . S
O133 Gd84 2.412 . S
O133 C143 1.252 . S
O134 Gd85 2.545 . S
O134 C152 1.258 . S
O135 Gd84 2.362 1_655 S
O135 Gd85 2.606 1_565 S
O135 C151 1.284 . S
O136 Gd84 2.324 1_655 S
O136 C159 1.254 . S
O137 Gd85 2.429 1_565 S
O137 C159 1.268 . S
O138 Gd85 2.545 1_565 S
O138 C151 1.250 . S
O139 Gd85 2.412 . S
O139 C152 1.252 . S
C140 O129 1.284 . S
C140 O132 1.250 . S
C141 H110 0.929 . S
C141 C126 1.437 . S
C141 C142 1.317 . S
C142 H113 0.930 . S
C142 C118 1.431 . S
C142 C141 1.317 . S
C143 Gd84 2.828 . S
C143 O128 1.258 1_565 S
C143 O133 1.252 . S
C143 C144 1.497 . S
C144 C143 1.497 . S
C144 C145 1.395 . S
C144 C146 1.380 . S
C145 C144 1.395 . S
C145 C148 1.398 . S
C145 H160 0.930 1_565 S
C146 C144 1.380 . S
C146 C147 1.391 . S
C146 H161 0.930 . S
C147 C146 1.391 . S
C147 C149 1.387 . S
C148 C145 1.398 . S
C148 C149 1.380 . S
C148 H162 0.930 . S
C149 C147 1.387 . S
C149 C148 1.380 . S
C149 H163 0.930 . S
C150 O130 1.254 . S
C150 O131 1.268 . S
C151 O135 1.284 . S
C151 O138 1.250 . S
C152 Gd85 2.828 . S
C152 O134 1.258 . S
C152 O139 1.252 . S
C152 C153 1.497 . S
C153 C152 1.497 . S
C153 C154 1.395 . S
C153 C155 1.380 . S
C154 C153 1.395 . S
C154 C157 1.398 . S
C154 H164 0.930 . S
C155 C153 1.380 . S
C155 C156 1.391 . S
C155 H165 0.930 . S
C156 C155 1.391 . S
C156 C158 1.387 . S
C157 C154 1.398 . S
C157 C158 1.380 . S
C157 H166 0.930 . S
C158 C156 1.387 . S
C158 C157 1.380 . S
C158 H167 0.930 . S
C159 O136 1.254 . S
C159 O137 1.268 . S
H160 C145 0.930 1_545 S
H161 C146 0.930 . S
H162 C148 0.930 . S
H163 C149 0.930 . S
H164 C154 0.930 . S
H165 C155 0.930 . S
H166 C157 0.930 . S
H167 C158 0.930 . S
Zn168 O174 1.920 . S
Zn168 O180 1.898 . S
Zn168 O183 1.905 . S
Zn169 O177 1.905 . S
Zn169 O178 1.898 . S
Zn169 O186 1.920 . S
Zn170 O173 2.080 . S
Zn170 O176 2.114 . S
Zn170 O179 2.120 . S
Zn170 O181 2.120 . S
Zn170 O182 2.114 . S
Zn170 O185 2.080 . S
C171 O176 1.166 . S
C171 O177 1.182 . S
C172 O178 1.167 . S
C172 O179 1.299 . S
O173 Zn170 2.080 . S
O173 C187 1.305 . S
O174 Zn168 1.920 . S
O174 C187 1.234 . S
C175 O180 1.167 . S
C175 O181 1.299 . S
O176 Zn170 2.114 . S
O176 C171 1.166 . S
O177 Zn169 1.905 . S
O177 C171 1.182 . S
O178 Zn169 1.898 . S
O178 C172 1.167 . S
O179 Zn170 2.120 . S
O179 C172 1.299 . S
O180 Zn168 1.898 . S
O180 C175 1.167 . S
O181 Zn170 2.120 . S
O181 C175 1.299 . S
O182 Zn170 2.114 . S
O182 C184 1.166 . S
O183 Zn168 1.905 . S
O183 C184 1.182 . S
C184 O182 1.166 . S
C184 O183 1.182 . S
O185 Zn170 2.080 . S
O185 C188 1.305 . S
O186 Zn169 1.920 . S
O186 C188 1.234 . S
C187 O173 1.305 . S
C187 O174 1.234 . S
C188 O185 1.305 . S
C188 O186 1.234 . S
Zn189 O195 1.920 . S
Zn189 O201 1.898 . S
Zn189 O204 1.905 . S
Zn190 O198 1.905 . S
Zn190 O199 1.898 . S
Zn190 O207 1.920 . S
Zn191 O194 2.080 . S
Zn191 O197 2.114 . S
Zn191 O200 2.120 . S
Zn191 O202 2.120 . S
Zn191 O203 2.114 . S
Zn191 O206 2.080 . S
C192 O197 1.166 . S
C192 O198 1.182 . S
C193 O199 1.167 . S
C193 O200 1.299 . S
O194 Zn191 2.080 . S
O194 C208 1.305 . S
O195 Zn189 1.920 . S
O195 C208 1.234 . S
C196 O201 1.167 . S
C196 O202 1.299 . S
O197 Zn191 2.114 . S
O197 C192 1.166 . S
O198 Zn190 1.905 . S
O198 C192 1.182 . S
O199 Zn190 1.898 . S
O199 C193 1.167 . S
O200 Zn191 2.120 . S
O200 C193 1.299 . S
O201 Zn189 1.898 . S
O201 C196 1.167 . S
O202 Zn191 2.120 . S
O202 C196 1.299 . S
O203 Zn191 2.114 . S
O203 C205 1.166 . S
O204 Zn189 1.905 . S
O204 C205 1.182 . S
C205 O203 1.166 . S
C205 O204 1.182 . S
O206 Zn191 2.080 . S
O206 C209 1.305 . S
O207 Zn190 1.920 . S
O207 C209 1.234 . S
C208 O194 1.305 . S
C208 O195 1.234 . S
C209 O206 1.305 . S
C209 O207 1.234 . S
H210 C216 0.930 . S
H211 C220 0.930 . S
H212 C225 0.929 . S
H213 C223 0.929 . S
H214 C218 0.929 . S
H215 C224 0.929 . S
C216 H210 0.930 . S
C216 C217 1.367 . S
C216 C224 1.378 . S
C217 C216 1.367 . S
C217 C225 1.433 . S
C218 H214 0.929 . S
C218 C220 1.378 . S
C218 C222 1.350 . S
C219 C222 1.463 . S
C219 C224 1.350 . S
C219 N227 1.427 . S
C220 H211 0.930 . S
C220 C218 1.378 . S
C220 C221 1.367 . S
C221 C220 1.367 . S
C221 C223 1.433 . S
C222 C218 1.350 . S
C222 C219 1.463 . S
C222 N226 1.427 . S
C223 H213 0.929 . S
C223 C221 1.433 . S
C223 N226 1.384 . S
C224 H215 0.929 . S
C224 C216 1.378 . S
C224 C219 1.350 . S
C225 H212 0.929 . S
C225 C217 1.433 . S
C225 N227 1.384 . S
N226 C222 1.427 . S
N226 C223 1.384 . S
N227 C219 1.427 . S
N227 C225 1.384 . S
H228 C234 0.930 1_565 S
H229 C238 0.930 . S
H230 C243 0.929 . S
H231 C241 0.929 . S
H232 C236 0.929 . S
H233 C242 0.929 . S
C234 H228 0.930 1_545 S
C234 C235 1.367 . S
C234 C242 1.378 . S
C235 C234 1.367 . S
C235 C243 1.433 . S
C236 H232 0.929 . S
C236 C238 1.378 . S
C236 C240 1.350 . S
C237 C240 1.463 . S
C237 C242 1.350 . S
C237 N245 1.427 . S
C238 H229 0.930 . S
C238 C236 1.378 . S
C238 C239 1.367 . S
C239 C238 1.367 . S
C239 C241 1.433 . S
C240 C236 1.350 . S
C240 C237 1.463 . S
C240 N244 1.427 . S
C241 H231 0.929 . S
C241 C239 1.433 . S
C241 N244 1.384 . S
C242 H233 0.929 . S
C242 C234 1.378 . S
C242 C237 1.350 . S
C243 H230 0.929 . S
C243 C235 1.433 . S
C243 N245 1.384 . S
N244 C240 1.427 . S
N244 C241 1.384 . S
N245 C237 1.427 . S
N245 C243 1.384 . S
H246 C252 0.930 . S
H247 C256 0.930 . S
H248 C261 0.929 . S
H249 C259 0.929 . S
H250 C254 0.929 . S
H251 C260 0.929 . S
C252 H246 0.930 . S
C252 C253 1.367 . S
C252 C260 1.378 . S
C253 C252 1.367 . S
C253 C261 1.433 . S
C254 H250 0.929 . S
C254 C256 1.378 . S
C254 C258 1.350 . S
C255 C258 1.463 . S
C255 C260 1.350 . S
C255 N263 1.427 . S
C256 H247 0.930 . S
C256 C254 1.378 . S
C256 C257 1.367 . S
C257 C256 1.367 . S
C257 C259 1.433 . S
C258 C254 1.350 . S
C258 C255 1.463 . S
C258 N262 1.427 . S
C259 H249 0.929 . S
C259 C257 1.433 . S
C259 N262 1.384 . S
C260 H251 0.929 . S
C260 C252 1.378 . S
C260 C255 1.350 . S
C261 H248 0.929 . S
C261 C253 1.433 . S
C261 N263 1.384 . S
N262 C258 1.427 . S
N262 C259 1.384 . S
N263 C255 1.427 . S
N263 C261 1.384 . S
H264 C270 0.930 . S
H265 C274 0.930 . S
H266 C279 0.929 . S
H267 C277 0.929 . S
H268 C272 0.929 . S
H269 C278 0.929 . S
C270 H264 0.930 . S
C270 C271 1.367 . S
C270 C278 1.378 . S
C271 C270 1.367 . S
C271 C279 1.433 . S
C272 H268 0.929 . S
C272 C274 1.378 . S
C272 C276 1.350 . S
C273 C276 1.463 . S
C273 C278 1.350 . S
C273 N281 1.427 . S
C274 H265 0.930 . S
C274 C272 1.378 . S
C274 C275 1.367 . S
C275 C274 1.367 . S
C275 C277 1.433 . S
C276 C272 1.350 . S
C276 C273 1.463 . S
C276 N280 1.427 . S
C277 H267 0.929 . S
C277 C275 1.433 . S
C277 N280 1.384 . S
C278 H269 0.929 . S
C278 C270 1.378 . S
C278 C273 1.350 . S
C279 H266 0.929 . S
C279 C271 1.433 . S
C279 N281 1.384 . S
N280 C276 1.427 . S
N280 C277 1.384 . S
N281 C273 1.427 . S
N281 C279 1.384 . S
H282 C288 0.930 1_545 S
H283 C292 0.930 . S
H284 C297 0.929 . S
H285 C295 0.929 . S
H286 C290 0.929 . S
H287 C296 0.929 . S
C288 H282 0.930 1_565 S
C288 C289 1.367 . S
C288 C296 1.378 . S
C289 C288 1.367 . S
C289 C297 1.433 . S
C290 H286 0.929 . S
C290 C292 1.378 . S
C290 C294 1.350 . S
C291 C294 1.463 . S
C291 C296 1.350 . S
C291 N299 1.427 . S
C292 H283 0.930 . S
C292 C290 1.378 . S
C292 C293 1.367 . S
C293 C292 1.367 . S
C293 C295 1.433 . S
C294 C290 1.350 . S
C294 C291 1.463 . S
C294 N298 1.427 . S
C295 H285 0.929 . S
C295 C293 1.433 . S
C295 N298 1.384 . S
C296 H287 0.929 . S
C296 C288 1.378 . S
C296 C291 1.350 . S
C297 H284 0.929 . S
C297 C289 1.433 . S
C297 N299 1.384 . S
N298 C294 1.427 . S
N298 C295 1.384 . S
N299 C291 1.427 . S
N299 C297 1.384 . S
H300 C306 0.930 . S
H301 C310 0.930 . S
H302 C315 0.929 1_455 S
H303 C313 0.929 . S
H304 C308 0.929 . S
H305 C314 0.929 . S
C306 H300 0.930 . S
C306 C307 1.367 . S
C306 C314 1.378 . S
C307 C306 1.367 . S
C307 C315 1.433 . S
C308 H304 0.929 . S
C308 C310 1.378 . S
C308 C312 1.350 . S
C309 C312 1.463 . S
C309 C314 1.350 . S
C309 N317 1.427 . S
C310 H301 0.930 . S
C310 C308 1.378 . S
C310 C311 1.367 . S
C311 C310 1.367 . S
C311 C313 1.433 . S
C312 C308 1.350 . S
C312 C309 1.463 . S
C312 N316 1.427 . S
C313 H303 0.929 . S
C313 C311 1.433 . S
C313 N316 1.384 . S
C314 H305 0.929 . S
C314 C306 1.378 . S
C314 C309 1.350 . S
C315 H302 0.929 1_655 S
C315 C307 1.433 . S
C315 N317 1.384 . S
N316 C312 1.427 . S
N316 C313 1.384 . S
N317 C309 1.427 . S
N317 C315 1.384 . S
H318 C324 0.930 . S
H319 C328 0.930 . S
H320 C333 0.929 . S
H321 C331 0.929 . S
H322 C326 0.929 . S
H323 C332 0.929 . S
C324 H318 0.930 . S
C324 C325 1.367 . S
C324 C332 1.378 . S
C325 C324 1.367 . S
C325 C333 1.433 . S
C326 H322 0.929 . S
C326 C328 1.378 . S
C326 C330 1.350 . S
C327 C330 1.463 . S
C327 C332 1.350 . S
C327 N335 1.427 . S
C328 H319 0.930 . S
C328 C326 1.378 . S
C328 C329 1.367 . S
C329 C328 1.367 . S
C329 C331 1.433 . S
C330 C326 1.350 . S
C330 C327 1.463 . S
C330 N334 1.427 . S
C331 H321 0.929 . S
C331 C329 1.433 . S
C331 N334 1.384 . S
C332 H323 0.929 . S
C332 C324 1.378 . S
C332 C327 1.350 . S
C333 H320 0.929 . S
C333 C325 1.433 . S
C333 N335 1.384 . S
N334 C330 1.427 . S
N334 C331 1.384 . S
N335 C327 1.427 . S
N335 C333 1.384 . S
H336 C342 0.930 . S
H337 C346 0.930 . S
H338 C351 0.929 . S
H339 C349 0.929 . S
H340 C344 0.929 . S
H341 C350 0.929 . S
C342 H336 0.930 . S
C342 C343 1.367 . S
C342 C350 1.378 . S
C343 C342 1.367 . S
C343 C351 1.433 . S
C344 H340 0.929 . S
C344 C346 1.378 . S
C344 C348 1.350 . S
C345 C348 1.463 . S
C345 C350 1.350 . S
C345 N353 1.427 . S
C346 H337 0.930 . S
C346 C344 1.378 . S
C346 C347 1.367 . S
C347 C346 1.367 . S
C347 C349 1.433 . S
C348 C344 1.350 . S
C348 C345 1.463 . S
C348 N352 1.427 . S
C349 H339 0.929 . S
C349 C347 1.433 . S
C349 N352 1.384 . S
C350 H341 0.929 . S
C350 C342 1.378 . S
C350 C345 1.350 . S
C351 H338 0.929 . S
C351 C343 1.433 . S
C351 N353 1.384 . S
N352 C348 1.427 . S
N352 C349 1.384 . S
N353 C345 1.427 . S
N353 C351 1.384 . S
H354 C360 0.925 1_655 S
H355 C364 0.930 . S
H356 C369 0.929 . S
H357 C367 0.929 . S
H358 C362 0.929 . S
H359 C368 0.929 . S
C360 H354 0.925 1_455 S
C360 C361 1.367 . S
C360 C368 1.378 . S
C361 C360 1.367 . S
C361 C369 1.433 . S
C362 H358 0.929 . S
C362 C364 1.378 . S
C362 C366 1.350 . S
C363 C366 1.463 . S
C363 C368 1.350 . S
C363 N371 1.427 . S
C364 H355 0.930 . S
C364 C362 1.378 . S
C364 C365 1.367 . S
C365 C364 1.367 . S
C365 C367 1.433 . S
C366 C362 1.350 . S
C366 C363 1.463 . S
C366 N370 1.427 . S
C367 H357 0.929 . S
C367 C365 1.433 . S
C367 N370 1.384 . S
C368 H359 0.929 . S
C368 C360 1.378 . S
C368 C363 1.350 . S
C369 H356 0.929 . S
C369 C361 1.433 . S
C369 N371 1.384 . S
N370 C366 1.427 . S
N370 C367 1.384 . S
N371 C363 1.427 . S
N371 C369 1.384 . S
H372 C378 0.930 . S
H373 C382 0.930 . S
H374 C387 0.929 . S
H375 C385 0.929 . S
H376 C380 0.929 . S
H377 C386 0.929 . S
C378 H372 0.930 . S
C378 C379 1.367 . S
C378 C386 1.378 . S
C379 C378 1.367 . S
C379 C387 1.433 . S
C380 H376 0.929 . S
C380 C382 1.378 . S
C380 C384 1.350 . S
C381 C384 1.463 . S
C381 C386 1.350 . S
C381 N389 1.427 . S
C382 H373 0.930 . S
C382 C380 1.378 . S
C382 C383 1.367 . S
C383 C382 1.367 . S
C383 C385 1.433 . S
C384 C380 1.350 . S
C384 C381 1.463 . S
C384 N388 1.427 . S
C385 H375 0.929 . S
C385 C383 1.433 . S
C385 N388 1.384 . S
C386 H377 0.929 . S
C386 C378 1.378 . S
C386 C381 1.350 . S
C387 H374 0.929 . S
C387 C379 1.433 . S
C387 N389 1.384 . S
N388 C384 1.427 . S
N388 C385 1.384 . S
N389 C381 1.427 . S
N389 C387 1.384 . S
H390 C396 0.930 . S
H391 C400 0.930 . S
H392 C405 0.929 1_545 S
H393 C403 0.929 . S
H394 C398 0.929 . S
H395 C404 0.929 . S
C396 H390 0.930 . S
C396 C397 1.367 . S
C396 C404 1.378 . S
C397 C396 1.367 . S
C397 C405 1.433 . S
C398 H394 0.929 . S
C398 C400 1.378 . S
C398 C402 1.350 . S
C399 C402 1.463 . S
C399 C404 1.350 . S
C399 N407 1.427 . S
C400 H391 0.930 . S
C400 C398 1.378 . S
C400 C401 1.367 . S
C401 C400 1.367 . S
C401 C403 1.433 . S
C402 C398 1.350 . S
C402 C399 1.463 . S
C402 N406 1.427 . S
C403 H393 0.929 . S
C403 C401 1.433 . S
C403 N406 1.384 . S
C404 H395 0.929 . S
C404 C396 1.378 . S
C404 C399 1.350 . S
C405 H392 0.929 1_565 S
C405 C397 1.433 . S
C405 N407 1.384 . S
N406 C402 1.427 . S
N406 C403 1.384 . S
N407 C399 1.427 . S
N407 C405 1.384 . S
H408 C414 0.930 1_455 S
H409 C418 0.930 . S
H410 C423 0.929 . S
H411 C421 0.929 . S
H412 C416 0.929 . S
H413 C422 0.929 . S
C414 H408 0.930 1_655 S
C414 C415 1.367 . S
C414 C422 1.378 . S
C415 C414 1.367 . S
C415 C423 1.433 . S
C416 H412 0.929 . S
C416 C418 1.378 . S
C416 C420 1.350 . S
C417 C420 1.463 . S
C417 C422 1.350 . S
C417 N425 1.427 . S
C418 H409 0.930 . S
C418 C416 1.378 . S
C418 C419 1.367 . S
C419 C418 1.367 . S
C419 C421 1.433 . S
C420 C416 1.350 . S
C420 C417 1.463 . S
C420 N424 1.427 . S
C421 H411 0.929 . S
C421 C419 1.433 . S
C421 N424 1.384 . S
C422 H413 0.929 . S
C422 C414 1.378 . S
C422 C417 1.350 . S
C423 H410 0.929 . S
C423 C415 1.433 . S
C423 N425 1.384 . S
N424 C420 1.427 . S
N424 C421 1.384 . S
N425 C417 1.427 . S
N425 C423 1.384 . S
C217 C72 1.173 . S
C221 C187 1.273 . S
C235 C140 1.573 . S
C239 C193 1.442 . S
C253 C75 1.560 . S
C257 C184 1.473 . S
C271 C156 1.143 . S
C275 C209 1.254 . S
C289 C56 1.575 . S
C293 C175 1.439 . S
C311 C192 1.479 . S
C307 C159 1.548 . S
C325 C147 1.139 . S
C329 C188 1.269 . S
C347 C205 1.497 . S
C343 C67 1.583 . S
C365 C172 1.409 . S
C361 C150 1.572 . S
C383 C208 1.287 . S
C379 C63 1.163 . S
C401 C171 1.491 . S
C397 C151 1.586 . S
C419 C196 1.412 . S
C415 C66 1.571 . S
