# Generated by pormake.
# Topology pth, (4,4)-cn, num edge types: 1
# Building blocks:
#     Node 0, Type 0, BuildingBlock: TATPOV_clean_sbu_0, # of connection points: 4
#     Node 1, Type 0, BuildingBlock: TATPOV_clean_sbu_0, # of connection points: 4
#     Node 2, Type 0, BuildingBlock: TATPOV_clean_sbu_0, # of connection points: 4
#     Node 3, Type 1, BuildingBlock: KOZSID_clean_sbu_0, # of connection points: 4
#     Node 4, Type 1, BuildingBlock: KOZSID_clean_sbu_0, # of connection points: 4
#     Node 5, Type 1, BuildingBlock: KOZSID_clean_sbu_0, # of connection points: 4
#     Edge 6, Type (0, 1), BuildingBlock: MIFKUJ_clean_linker_0, # of connection points: 2
#     Edge 7, Type (0, 1), BuildingBlock: MIFKUJ_clean_linker_0, # of connection points: 2
#     Edge 8, Type (0, 1), BuildingBlock: MIFKUJ_clean_linker_0, # of connection points: 2
#     Edge 9, Type (0, 1), BuildingBlock: MIFKUJ_clean_linker_0, # of connection points: 2
#     Edge 10, Type (0, 1), BuildingBlock: MIFKUJ_clean_linker_0, # of connection points: 2
#     Edge 11, Type (0, 1), BuildingBlock: MIFKUJ_clean_linker_0, # of connection points: 2
#     Edge 12, Type (0, 1), BuildingBlock: MIFKUJ_clean_linker_0, # of connection points: 2
#     Edge 13, Type (0, 1), BuildingBlock: MIFKUJ_clean_linker_0, # of connection points: 2
#     Edge 14, Type (0, 1), BuildingBlock: MIFKUJ_clean_linker_0, # of connection points: 2
#     Edge 15, Type (0, 1), BuildingBlock: MIFKUJ_clean_linker_0, # of connection points: 2
#     Edge 16, Type (0, 1), BuildingBlock: MIFKUJ_clean_linker_0, # of connection points: 2
#     Edge 17, Type (0, 1), BuildingBlock: MIFKUJ_clean_linker_0, # of connection points: 2
# Relax obj value: 0.036
# Max RMSD: 0.163
# Mean RMSD: 0.080
data_MOF--net-pth--node1-TATPOV_clean_sbu_0--node2-KOZSID_clean_sbu_0--edge1-MIFKUJ_clean_linker_0
_symmetry_space_group_name_H-M    P1
_symmetry_Int_Tables_number       1
_symmetry_cell_setting            triclinic
loop_
_symmetry_equiv_pos_as_xyz
'x, y, z'
_cell_length_a     34.021411
_cell_length_b     33.692628
_cell_length_c     74.946024
_cell_angle_alpha  90.235267
_cell_angle_beta   90.084288
_cell_angle_gamma 121.04323
loop_
_atom_site_label
_atom_site_type_symbol
_atom_site_fract_x
_atom_site_fract_y
_atom_site_fract_z
_atom_type_partial_charge
Zn0 Zn 0.17489 0.04171 0.0165 0.0
Zn1 Zn 0.14052 0.08398 0.03544 0.0
O2 O 0.14341 0.03998 0.05376 0.0
O3 O 0.17342 0.00636 0.03837 0.0
O4 O 0.12151 0.12171 0.04996 0.0
O5 O 0.23083 0.10167 0.00953 0.0
O6 O 0.20072 0.13603 0.02429 0.0
C7 C 0.15691 0.01107 0.05282 0.0
C8 C 0.08582 0.02264 0.00412 0.0
O9 O 0.08858 0.04815 0.01725 0.0
O10 O 0.11829 0.01558 0.00092 0.0
C11 C 0.08367 0.10614 0.05812 0.0
O12 O 0.053 0.06164 0.0573 0.0
C13 C 0.23251 0.13842 0.01452 0.0
Zn14 Zn 0.14469 0.14429 0.34412 0.0
Zn15 Zn 0.06926 0.10436 0.36467 0.0
O16 O 0.12023 0.11438 0.38249 0.0
O17 O 0.18206 0.14844 0.36572 0.0
O18 O 0.01087 0.07986 0.37886 0.0
O19 O 0.1354 0.19669 0.33747 0.0
O20 O 0.07295 0.16225 0.35376 0.0
C21 C 0.16343 0.13232 0.38068 0.0
C22 C 0.07654 0.05104 0.33304 0.0
O23 O 0.05458 0.05263 0.34652 0.0
O24 O 0.11524 0.08583 0.3291 0.0
C25 C 0.0093 0.08518 0.39559 0.0
O26 O 0.04754 0.10471 0.40493 0.0
C27 C 0.09991 0.19515 0.34349 0.0
Zn28 Zn 0.1223 0.97588 0.70924 0.0
Zn29 Zn 0.07894 0.01359 0.6927 0.0
O30 O 0.11573 0.0068 0.67233 0.0
O31 O 0.14888 0.97312 0.68543 0.0
O32 O 0.03986 0.03482 0.68078 0.0
O33 O 0.06284 0.92233 0.71829 0.0
O34 O 0.02855 0.95418 0.70479 0.0
C35 C 0.14177 0.98999 0.67158 0.0
C36 C 0.14836 0.06808 0.72203 0.0
O37 O 0.12014 0.06566 0.71024 0.0
O38 O 0.15486 0.03458 0.72416 0.0
C39 C 0.04984 0.05941 0.66682 0.0
O40 O 0.08993 0.07483 0.65925 0.0
C41 C 0.0265 0.92207 0.7144 0.0
C42 C 0.07035 0.62508 0.17218 0.0
C43 C 0.11476 0.65869 0.16746 0.0
C44 C 0.14354 0.6528 0.1783 0.0
C45 C 0.11528 0.61628 0.18902 0.0
N46 N 0.07009 0.59798 0.18554 0.0
Co47 Co 0.01705 0.54615 0.19857 0.0
N48 N 0.05926 0.54299 0.21647 0.0
C49 C 0.10559 0.56968 0.21706 0.0
C50 C 0.12513 0.55986 0.23102 0.0
C51 C 0.08918 0.52473 0.23991 0.0
C52 C 0.04961 0.51511 0.23079 0.0
N53 N 0.96407 0.49373 0.21141 0.0
C54 C 0.96362 0.46952 0.22589 0.0
C55 C 0.91943 0.43487 0.23026 0.0
C56 C 0.89086 0.43702 0.21802 0.0
C57 C 0.91912 0.4727 0.20693 0.0
N58 N 0.97487 0.55044 0.18097 0.0
C59 C 0.9286 0.52351 0.18021 0.0
C60 C 0.90897 0.53661 0.16732 0.0
C61 C 0.94474 0.5748 0.15962 0.0
C62 C 0.98421 0.58275 0.16833 0.0
N63 N 0.02124 0.5003 0.18305 0.0
C64 C 0.02685 0.43391 0.16178 0.0
C65 C 0.98537 0.43255 0.16382 0.0
C66 C 0.98337 0.46571 0.1744 0.0
C67 C 0.06552 0.4693 0.17049 0.0
C68 C 0.062 0.50182 0.18089 0.0
N69 N 0.01284 0.59175 0.21395 0.0
C70 C 0.96771 0.62001 0.22781 0.0
C71 C 0.00741 0.65995 0.23372 0.0
C72 C 0.04977 0.66451 0.23001 0.0
C73 C 0.05167 0.63023 0.22024 0.0
C74 C 0.97118 0.58658 0.21801 0.0
H75 H 0.08498 0.63584 0.21777 0.0
H76 H 0.93977 0.5572 0.21363 0.0
H77 H 0.95068 0.46241 0.17537 0.0
H78 H 0.09279 0.52758 0.18713 0.0
C79 C 0.12991 0.60255 0.20391 0.0
C80 C 0.02956 0.6223 0.16452 0.0
C81 C 0.00399 0.47787 0.23587 0.0
C82 C 0.90445 0.48793 0.19248 0.0
H83 H 0.12543 0.68586 0.15769 0.0
H84 H 0.18057 0.67417 0.17891 0.0
H85 H 0.16123 0.57587 0.23422 0.0
H86 H 0.09181 0.50762 0.25162 0.0
H87 H 0.909 0.41057 0.24117 0.0
H88 H 0.85387 0.41524 0.21731 0.0
H89 H 0.87285 0.52111 0.16426 0.0
H90 H 0.94209 0.59514 0.14907 0.0
H91 H 0.9545 0.40624 0.15715 0.0
H92 H 0.09841 0.47161 0.16957 0.0
H93 H 0.93411 0.61502 0.23032 0.0
H94 H 0.08145 0.69442 0.23464 0.0
C95 C 0.50205 0.02721 0.55379 0.0
C96 C 0.47109 0.98459 0.56116 0.0
C97 C 0.48321 0.95389 0.55504 0.0
C98 C 0.52081 0.97951 0.54438 0.0
N99 N 0.53303 0.02427 0.54353 0.0
Co100 Co 0.58407 0.07339 0.52953 0.0
N101 N 0.58606 0.02704 0.51371 0.0
C102 C 0.56718 0.98158 0.51728 0.0
C103 C 0.57523 0.95801 0.50424 0.0
C104 C 0.60149 0.99075 0.49182 0.0
C105 C 0.60816 0.03277 0.49804 0.0
N106 N 0.63553 0.12295 0.51566 0.0
C107 C 0.65373 0.12069 0.49989 0.0
C108 C 0.69059 0.16384 0.49527 0.0
C109 C 0.69629 0.1937 0.50886 0.0
C110 C 0.66264 0.16738 0.52095 0.0
N111 N 0.5816 0.11921 0.54546 0.0
C112 C 0.61479 0.16371 0.54785 0.0
C113 C 0.60161 0.18719 0.55902 0.0
C114 C 0.55739 0.15538 0.56388 0.0
C115 C 0.54621 0.1141 0.55545 0.0
N116 N 0.62835 0.07143 0.54567 0.0
C117 C 0.69486 0.07396 0.56859 0.0
C118 C 0.65591 0.07282 0.57543 0.0
C119 C 0.62302 0.07134 0.56376 0.0
C120 C 0.69896 0.07255 0.55003 0.0
C121 C 0.66565 0.07151 0.53889 0.0
N122 N 0.53981 0.07565 0.51359 0.0
C123 C 0.5104 0.11997 0.50026 0.0
C124 C 0.47088 0.07929 0.49462 0.0
C125 C 0.46743 0.03674 0.49802 0.0
C126 C 0.50222 0.03567 0.50757 0.0
C127 C 0.54454 0.11742 0.50957 0.0
H128 H 0.49806 0.00245 0.51054 0.0
H129 H 0.57416 0.14932 0.51397 0.0
H130 H 0.59359 0.07084 0.56938 0.0
H131 H 0.67048 0.0712 0.52476 0.0
C132 C 0.53859 0.96155 0.53208 0.0
C133 C 0.5025 0.07021 0.55723 0.0
C134 C 0.64178 0.07773 0.4903 0.0
C135 C 0.65243 0.18412 0.53633 0.0
H136 H 0.44254 0.97652 0.56984 0.0
H137 H 0.46509 0.91688 0.55726 0.0
H138 H 0.56334 0.9214 0.50375 0.0
H139 H 0.6157 0.9847 0.47993 0.0
H140 H 0.71208 0.17243 0.48359 0.0
H141 H 0.72168 0.23031 0.50971 0.0
H142 H 0.62064 0.22375 0.56229 0.0
H143 H 0.53578 0.1622 0.57234 0.0
H144 H 0.65125 0.07405 0.58966 0.0
H145 H 0.72772 0.07216 0.54406 0.0
H146 H 0.51485 0.15362 0.49758 0.0
H147 H 0.43743 0.00448 0.49384 0.0
C148 C 0.65241 0.60094 0.83419 0.0
C149 C 0.68108 0.58746 0.82667 0.0
C150 C 0.679 0.55381 0.83736 0.0
C151 C 0.64889 0.54825 0.85059 0.0
N152 N 0.63124 0.57602 0.84895 0.0
Co153 Co 0.58366 0.57669 0.86449 0.0
N154 N 0.58298 0.52936 0.88083 0.0
C155 C 0.61023 0.5111 0.87992 0.0
C156 C 0.60379 0.48147 0.89357 0.0
C157 C 0.57014 0.48041 0.90377 0.0
C158 C 0.55755 0.50916 0.89556 0.0
N159 N 0.53468 0.57587 0.87972 0.0
C160 C 0.51156 0.54882 0.89385 0.0
C161 C 0.47773 0.55708 0.89974 0.0
C162 C 0.47968 0.59069 0.88903 0.0
C163 C 0.51412 0.60071 0.87716 0.0
N164 N 0.58583 0.62545 0.84848 0.0
C165 C 0.56136 0.64661 0.85026 0.0
C166 C 0.57243 0.68092 0.83805 0.0
C167 C 0.60638 0.68219 0.82795 0.0
C168 C 0.6138 0.6481 0.83451 0.0
N169 N 0.53503 0.52699 0.84942 0.0
C170 C 0.4655 0.45619 0.8282 0.0
C171 C 0.46586 0.49711 0.83171 0.0
C172 C 0.50064 0.53174 0.84222 0.0
C173 C 0.50066 0.45139 0.8355 0.0
C174 C 0.53467 0.48681 0.84601 0.0
N175 N 0.63223 0.62644 0.87957 0.0
C176 C 0.66078 0.69673 0.89695 0.0
C177 C 0.7013 0.69748 0.9008 0.0
C178 C 0.70666 0.66201 0.89386 0.0
C179 C 0.67198 0.62711 0.88338 0.0
C180 C 0.62706 0.66129 0.88638 0.0
H181 H 0.67818 0.60111 0.8785 0.0
H182 H 0.59725 0.66307 0.88383 0.0
H183 H 0.49874 0.56191 0.84439 0.0
H184 H 0.56027 0.48084 0.85124 0.0
C185 C 0.63918 0.51986 0.86542 0.0
C186 C 0.64857 0.63933 0.8274 0.0
C187 C 0.51973 0.5142 0.9018 0.0
C188 C 0.52821 0.63344 0.86355 0.0
H189 H 0.70215 0.60125 0.81489 0.0
H190 H 0.69799 0.53628 0.83589 0.0
H191 H 0.62083 0.46218 0.89565 0.0
H192 H 0.55585 0.46002 0.91571 0.0
H193 H 0.45374 0.5403 0.91054 0.0
H194 H 0.45823 0.6057 0.88971 0.0
H195 H 0.55795 0.70282 0.83679 0.0
H196 H 0.62399 0.70597 0.81713 0.0
H197 H 0.43903 0.50228 0.82661 0.0
H198 H 0.50232 0.42061 0.83299 0.0
H199 H 0.65533 0.72384 0.90181 0.0
H200 H 0.7373 0.66083 0.89663 0.0
H201 H 0.00701 0.08561 0.07745 0.0
H202 H 0.99405 0.13901 0.09519 0.0
H203 H 0.12742 0.25234 0.08022 0.0
H204 H 0.14086 0.19936 0.06269 0.0
H205 H 0.11363 0.25418 0.11525 0.0
H206 H 0.0297 0.23828 0.06135 0.0
H207 H 0.97248 0.1959 0.03766 0.0
H208 H 0.86483 0.13997 0.0766 0.0
H209 H 0.92153 0.18156 0.10056 0.0
H210 H 0.09612 0.44721 0.13935 0.0
H211 H 0.10233 0.38887 0.12223 0.0
H212 H 0.97045 0.28259 0.14179 0.0
H213 H 0.96425 0.34063 0.15926 0.0
H214 H 0.98028 0.27379 0.10567 0.0
H215 H 0.06444 0.2924 0.15944 0.0
H216 H 0.1219 0.33591 0.18291 0.0
H217 H 0.22949 0.38734 0.144 0.0
H218 H 0.17257 0.34466 0.12023 0.0
C219 C 0.03353 0.12191 0.0779 0.0
C220 C 0.07497 0.13818 0.06864 0.0
C221 C 0.02599 0.15242 0.08799 0.0
C222 C 0.05965 0.19975 0.08893 0.0
C223 C 0.101 0.21598 0.07971 0.0
C224 C 0.10855 0.1856 0.06964 0.0
C225 C 0.0524 0.23247 0.09973 0.0
C226 C 0.08473 0.25881 0.11301 0.0
C227 C 0.01405 0.23765 0.09714 0.0
C228 C 0.97992 0.2126 0.08277 0.0
C229 C 0.99387 0.21661 0.06488 0.0
C230 C 0.96153 0.1928 0.0514 0.0
C231 C 0.91506 0.16514 0.05563 0.0
C232 C 0.90084 0.16134 0.07335 0.0
C233 C 0.93306 0.18504 0.08688 0.0
C234 C 0.06857 0.41139 0.14016 0.0
C235 C 0.02983 0.39862 0.15081 0.0
C236 C 0.07211 0.37811 0.1303 0.0
C237 C 0.03707 0.33133 0.1309 0.0
C238 C 0.99786 0.31852 0.14114 0.0
C239 C 0.99433 0.3518 0.15107 0.0
C240 C 0.04184 0.29584 0.12099 0.0
C241 C 0.00904 0.26895 0.10794 0.0
C242 C 0.0798 0.29016 0.12375 0.0
C243 C 0.11418 0.31566 0.13803 0.0
C244 C 0.10031 0.31328 0.15586 0.0
C245 C 0.1328 0.33774 0.16922 0.0
C246 C 0.17931 0.36446 0.16494 0.0
C247 C 0.19344 0.36667 0.14729 0.0
C248 C 0.16109 0.34231 0.13387 0.0
H249 H 0.20441 0.38338 0.17531 0.0
H250 H 0.89007 0.14675 0.04518 0.0
H251 H 0.92887 0.06359 0.37902 0.0
H252 H 0.85997 0.05553 0.39275 0.0
H253 H 0.92199 0.07596 0.44479 0.0
H254 H 0.99119 0.08427 0.43118 0.0
H255 H 0.82853 0.00562 0.44385 0.0
H256 H 0.92665 0.16475 0.42499 0.0
H257 H 0.97173 0.22524 0.4028 0.0
H258 H 0.85048 0.17965 0.37107 0.0
H259 H 0.80478 0.11841 0.39297 0.0
H260 H 0.72285 0.08769 0.49994 0.0
H261 H 0.77867 0.08284 0.48102 0.0
H262 H 0.69514 0.0638 0.43468 0.0
H263 H 0.6387 0.06857 0.45384 0.0
H264 H 0.79094 0.12603 0.42934 0.0
H265 H 0.69054 0.9735 0.45015 0.0
H266 H 0.64517 0.91362 0.47245 0.0
H267 H 0.76873 0.9448 0.49999 0.0
H268 H 0.81486 0.00568 0.47807 0.0
C269 C 0.92767 0.06574 0.39341 0.0
C270 C 0.96569 0.07492 0.40401 0.0
C271 C 0.8883 0.06126 0.40122 0.0
C272 C 0.88611 0.06563 0.41976 0.0
C273 C 0.92306 0.07254 0.43045 0.0
C274 C 0.96263 0.07744 0.42264 0.0
C275 C 0.84656 0.06572 0.42799 0.0
C276 C 0.8204 0.03202 0.44076 0.0
C277 C 0.83516 0.0994 0.42351 0.0
C278 C 0.86242 0.13668 0.4105 0.0
C279 C 0.90967 0.16742 0.41321 0.0
C280 C 0.93532 0.20187 0.4007 0.0
C281 C 0.91402 0.20619 0.3855 0.0
C282 C 0.86696 0.1762 0.38283 0.0
C283 C 0.84116 0.14163 0.39529 0.0
C284 C 0.71667 0.0829 0.4857 0.0
C285 C 0.67679 0.07858 0.47824 0.0
C286 C 0.7484 0.07997 0.47492 0.0
C287 C 0.74076 0.07246 0.45649 0.0
C288 C 0.70154 0.06953 0.44889 0.0
C289 C 0.66947 0.07223 0.45976 0.0
C290 C 0.77356 0.06651 0.44549 0.0
C291 C 0.7985 0.09912 0.43222 0.0
C292 C 0.78368 0.03165 0.44944 0.0
C293 C 0.75618 0.99446 0.46251 0.0
C294 C 0.70806 0.96787 0.46103 0.0
C295 C 0.68219 0.93372 0.4736 0.0
C296 C 0.70405 0.92545 0.48764 0.0
C297 C 0.75185 0.95127 0.48911 0.0
C298 C 0.77789 0.98561 0.4766 0.0
H299 H 0.68396 0.89898 0.49736 0.0
H300 H 0.93395 0.23284 0.37581 0.0
H301 H 0.01354 0.86407 0.74193 0.0
H302 H 0.94242 0.81246 0.75737 0.0
H303 H 0.86787 0.84778 0.72042 0.0
H304 H 0.93978 0.90144 0.7053 0.0
H305 H 0.8403 0.84973 0.75188 0.0
H306 H 0.85743 0.73753 0.72066 0.0
H307 H 0.89591 0.69785 0.70891 0.0
H308 H 0.9189 0.66827 0.76229 0.0
H309 H 0.88113 0.70835 0.77438 0.0
H310 H 0.63306 0.65337 0.7928 0.0
H311 H 0.6911 0.69988 0.77015 0.0
H312 H 0.79817 0.73931 0.80931 0.0
H313 H 0.74035 0.69455 0.83205 0.0
H314 H 0.79883 0.69307 0.77244 0.0
H315 H 0.78852 0.81788 0.80205 0.0
H316 H 0.74477 0.85374 0.812 0.0
H317 H 0.70148 0.85285 0.75807 0.0
H318 H 0.74444 0.81626 0.74786 0.0
C319 C 0.98198 0.86043 0.73689 0.0
C320 C 0.98234 0.88683 0.72235 0.0
C321 C 0.94115 0.83061 0.7457 0.0
C322 C 0.89947 0.8255 0.73992 0.0
C323 C 0.89953 0.85102 0.72513 0.0
C324 C 0.94062 0.88153 0.71645 0.0
C325 C 0.8567 0.79586 0.75015 0.0
C326 C 0.83081 0.8151 0.75603 0.0
C327 C 0.84394 0.75053 0.75562 0.0
C328 C 0.86665 0.72624 0.74843 0.0
C329 C 0.87095 0.72285 0.7299 0.0
C330 C 0.89261 0.70023 0.72318 0.0
C331 C 0.9099 0.68061 0.73485 0.0
C332 C 0.90549 0.68349 0.75327 0.0
C333 C 0.88389 0.70609 0.76006 0.0
C334 C 0.66896 0.67291 0.79657 0.0
C335 C 0.68251 0.6709 0.81409 0.0
C336 C 0.70192 0.69908 0.78368 0.0
C337 C 0.74869 0.72272 0.78814 0.0
C338 C 0.76215 0.72118 0.80568 0.0
C339 C 0.72927 0.69588 0.81862 0.0
C340 C 0.78408 0.74775 0.77445 0.0
C341 C 0.80824 0.72742 0.76795 0.0
C342 C 0.79458 0.79149 0.7681 0.0
C343 C 0.76914 0.81378 0.77424 0.0
C344 C 0.76925 0.82486 0.79235 0.0
C345 C 0.7447 0.84542 0.79803 0.0
C346 C 0.72021 0.85541 0.78569 0.0
C347 C 0.72037 0.845 0.76763 0.0
C348 C 0.74482 0.82437 0.76189 0.0
H349 H 0.70123 0.87134 0.79011 0.0
H350 H 0.92666 0.66313 0.72961 0.0
H351 H 0.18069 0.94532 0.05453 0.0
H352 H 0.15435 0.88262 0.07597 0.0
H353 H 0.08623 0.93896 0.10607 0.0
H354 H 0.11221 0.00218 0.08447 0.0
H355 H 0.13367 0.90118 0.12719 0.0
H356 H 0.02111 0.85857 0.08082 0.0
H357 H 0.99454 0.85033 0.04966 0.0
H358 H 0.04558 0.75995 0.03838 0.0
H359 H 0.07311 0.76823 0.06943 0.0
H360 H 0.00885 0.68743 0.17376 0.0
H361 H 0.02395 0.75577 0.15652 0.0
H362 H 0.07776 0.71222 0.1135 0.0
H363 H 0.06118 0.64332 0.13053 0.0
H364 H 0.02907 0.74615 0.10053 0.0
H365 H 0.14757 0.79363 0.1455 0.0
H366 H 0.17551 0.80121 0.17643 0.0
H367 H 0.11528 0.88213 0.1902 0.0
H368 H 0.08636 0.87441 0.15938 0.0
C369 C 0.16079 0.94505 0.06585 0.0
C370 C 0.1481 0.97854 0.06764 0.0
C371 C 0.14573 0.90908 0.07808 0.0
C372 C 0.11782 0.90588 0.09241 0.0
C373 C 0.10764 0.94087 0.09503 0.0
C374 C 0.12253 0.97692 0.08268 0.0
C375 C 0.09662 0.86384 0.10362 0.0
C376 C 0.11011 0.86731 0.12151 0.0
C377 C 0.06638 0.81973 0.09607 0.0
C378 C 0.04948 0.81431 0.07742 0.0
C379 C 0.02698 0.83722 0.07166 0.0
C380 C 0.01169 0.83249 0.05402 0.0
C381 C 0.01844 0.80469 0.04204 0.0
C382 C 0.0404 0.78149 0.04768 0.0
C383 C 0.0558 0.78614 0.0653 0.0
C384 C 0.02324 0.69238 0.1605 0.0
C385 C 0.03439 0.66084 0.15342 0.0
C386 C 0.03213 0.73141 0.15073 0.0
C387 C 0.05284 0.7396 0.13386 0.0
C388 C 0.06195 0.70674 0.1265 0.0
C389 C 0.05265 0.66756 0.1362 0.0
C390 C 0.06691 0.78313 0.12406 0.0
C391 C 0.05207 0.77998 0.10637 0.0
C392 C 0.09607 0.82743 0.1318 0.0
C393 C 0.11443 0.83306 0.15019 0.0
C394 C 0.14011 0.81286 0.15515 0.0
C395 C 0.15612 0.81718 0.17266 0.0
C396 C 0.14708 0.84205 0.18529 0.0
C397 C 0.12219 0.86282 0.18041 0.0
C398 C 0.106 0.85851 0.16292 0.0
H399 H 0.15944 0.8453 0.19884 0.0
H400 H 0.0066 0.80104 0.02839 0.0
H401 H 0.25591 0.16903 0.38078 0.0
H402 H 0.30225 0.15993 0.4032 0.0
H403 H 0.18321 0.08503 0.4367 0.0
H404 H 0.13589 0.09304 0.41393 0.0
H405 H 0.32574 0.18555 0.43616 0.0
H406 H 0.19293 0.00121 0.45908 0.0
H407 H 0.12272 0.93165 0.44798 0.0
H408 H 0.16822 0.9701 0.39399 0.0
H409 H 0.2389 0.03952 0.40478 0.0
H410 H 0.43244 0.1298 0.5044 0.0
H411 H 0.37416 0.13763 0.48834 0.0
H412 H 0.36711 0.04243 0.44797 0.0
H413 H 0.42475 0.03377 0.46423 0.0
H414 H 0.284 0.02702 0.45423 0.0
H415 H 0.43218 0.1612 0.44237 0.0
H416 H 0.50684 0.22985 0.45033 0.0
H417 H 0.43819 0.29062 0.47662 0.0
H418 H 0.36308 0.22199 0.469 0.0
C419 C 0.23943 0.15091 0.39296 0.0
C420 C 0.19199 0.13137 0.39546 0.0
C421 C 0.26614 0.1459 0.40583 0.0
C422 C 0.24621 0.1213 0.42156 0.0
C423 C 0.19923 0.10353 0.42453 0.0
C424 C 0.17227 0.10837 0.41156 0.0
C425 C 0.27473 0.11288 0.43425 0.0
C426 C 0.31634 0.1509 0.44026 0.0
C427 C 0.26295 0.06765 0.43938 0.0
C428 C 0.22086 0.0258 0.43274 0.0
C429 C 0.18795 0.99472 0.44485 0.0
C430 C 0.14809 0.95534 0.43861 0.0
C431 C 0.14093 0.94656 0.42029 0.0
C432 C 0.17371 0.97704 0.40817 0.0
C433 C 0.21365 0.01642 0.41434 0.0
C434 C 0.41833 0.11047 0.49212 0.0
C435 C 0.4335 0.08162 0.48543 0.0
C436 C 0.38501 0.11492 0.48297 0.0
C437 C 0.36678 0.09124 0.46678 0.0
C438 C 0.38066 0.06106 0.46043 0.0
C439 C 0.41364 0.05618 0.4697 0.0
C440 C 0.33513 0.09968 0.456 0.0
C441 C 0.29299 0.06171 0.45038 0.0
C442 C 0.34697 0.14489 0.45079 0.0
C443 C 0.39206 0.18628 0.45529 0.0
C444 C 0.43303 0.18907 0.44995 0.0
C445 C 0.47542 0.22799 0.45439 0.0
C446 C 0.47726 0.26451 0.46402 0.0
C447 C 0.43671 0.26226 0.46919 0.0
C448 C 0.39422 0.22338 0.46481 0.0
H449 H 0.51011 0.29462 0.46744 0.0
H450 H 0.11003 0.91608 0.41549 0.0
H451 H 0.16143 0.15459 0.7165 0.0
H452 H 0.20897 0.2248 0.73437 0.0
H453 H 0.24139 0.14645 0.77057 0.0
H454 H 0.19448 0.07657 0.75286 0.0
H455 H 0.22014 0.20689 0.78792 0.0
H456 H 0.31551 0.20788 0.73946 0.0
H457 H 0.33449 0.20702 0.70777 0.0
H458 H 0.33148 0.33124 0.69881 0.0
H459 H 0.31185 0.33245 0.73043 0.0
H460 H 0.42272 0.36252 0.83327 0.0
H461 H 0.3632 0.30102 0.81486 0.0
H462 H 0.36344 0.40302 0.78017 0.0
H463 H 0.42476 0.4649 0.79805 0.0
H464 H 0.36126 0.33632 0.76106 0.0
H465 H 0.27571 0.34183 0.81007 0.0
H466 H 0.25646 0.34363 0.84164 0.0
H467 H 0.23879 0.20923 0.84956 0.0
H468 H 0.2586 0.20688 0.81808 0.0
C469 C 0.1784 0.15231 0.72835 0.0
C470 C 0.17446 0.11013 0.7332 0.0
C471 C 0.20558 0.19241 0.7385 0.0
C472 C 0.2288 0.19073 0.75372 0.0
C473 C 0.22368 0.1484 0.75888 0.0
C474 C 0.19704 0.10856 0.74868 0.0
C475 C 0.26014 0.23318 0.76398 0.0
C476 C 0.2511 0.23519 0.78211 0.0
C477 C 0.29972 0.27058 0.7562 0.0
C478 C 0.31165 0.26993 0.73723 0.0
C479 C 0.3185 0.23477 0.73069 0.0
C480 C 0.32945 0.23427 0.71275 0.0
C481 C 0.33404 0.26897 0.70127 0.0
C482 C 0.32782 0.30432 0.70771 0.0
C483 C 0.31679 0.30495 0.72564 0.0
C484 C 0.4105 0.37196 0.82163 0.0
C485 C 0.42859 0.41871 0.81715 0.0
C486 C 0.37596 0.33672 0.81124 0.0
C487 C 0.35826 0.3474 0.7963 0.0
C488 C 0.37635 0.39398 0.79171 0.0
C489 C 0.41114 0.42931 0.80205 0.0
C490 C 0.32191 0.30973 0.78519 0.0
C491 C 0.32996 0.30854 0.76688 0.0
C492 C 0.2812 0.27324 0.79279 0.0
C493 C 0.26896 0.27433 0.81173 0.0
C494 C 0.26803 0.31278 0.81857 0.0
C495 C 0.25697 0.31389 0.83645 0.0
C496 C 0.24649 0.27661 0.84761 0.0
C497 C 0.24693 0.23809 0.8409 0.0
C498 C 0.25802 0.23683 0.82303 0.0
H499 H 0.23794 0.27754 0.86145 0.0
H500 H 0.34253 0.26853 0.68738 0.0
H501 H 0.96332 0.03013 0.67882 0.0
H502 H 0.90347 0.03746 0.664 0.0
H503 H 0.99644 0.11282 0.6211 0.0
H504 H 0.05689 0.10602 0.63594 0.0
H505 H 0.94407 0.15041 0.63113 0.0
H506 H 0.91953 -0.00026 0.61604 0.0
H507 H 0.90807 0.92288 0.62276 0.0
H508 H 0.78645 0.88786 0.65235 0.0
H509 H 0.79755 0.9648 0.64599 0.0
H510 H 0.7878 0.12297 0.56333 0.0
H511 H 0.84717 0.12404 0.58183 0.0
H512 H 0.74488 0.03513 0.62 0.0
H513 H 0.68471 0.03163 0.60097 0.0
H514 H 0.80077 0.00545 0.61409 0.0
H515 H 0.82161 0.15341 0.62812 0.0
H516 H 0.83253 0.23032 0.62203 0.0
H517 H 0.95961 0.27107 0.59556 0.0
H518 H 0.94915 0.19415 0.60128 0.0
C519 C 0.97127 0.04861 0.6663 0.0
C520 C 0.01484 0.06716 0.65848 0.0
C521 C 0.93693 0.05265 0.65783 0.0
C522 C 0.94532 0.0751 0.64133 0.0
C523 C 0.98924 0.09524 0.63381 0.0
C524 C 0.0237 0.0912 0.64228 0.0
C525 C 0.90773 0.07591 0.63161 0.0
C526 C 0.91289 0.11877 0.62723 0.0
C527 C 0.86655 0.03459 0.62699 0.0
C528 C 0.85963 0.98818 0.63069 0.0
C529 C 0.89053 0.97577 0.62409 0.0
C530 C 0.88407 0.93218 0.62781 0.0
C531 C 0.84662 0.90055 0.63802 0.0
C532 C 0.81548 0.91241 0.64447 0.0
C533 C 0.82182 0.95599 0.64079 0.0
C534 C 0.77773 0.10327 0.57558 0.0
C535 C 0.73128 0.07691 0.58056 0.0
C536 C 0.81192 0.10452 0.58631 0.0
C537 C 0.80068 0.08022 0.60246 0.0
C538 C 0.75444 0.05435 0.60763 0.0
C539 C 0.72009 0.05271 0.5968 0.0
C540 C 0.83698 0.08006 0.61348 0.0
C541 C 0.83168 0.03722 0.61809 0.0
C542 C 0.87787 0.12145 0.61841 0.0
C543 C 0.88439 0.16785 0.61501 0.0
C544 C 0.85173 0.17865 0.62089 0.0
C545 C 0.85786 0.22227 0.61752 0.0
C546 C 0.89669 0.25553 0.60838 0.0
C547 C 0.92953 0.24526 0.60263 0.0
C548 C 0.92354 0.20167 0.60595 0.0
H549 H 0.90137 0.28928 0.60578 0.0
H550 H 0.84169 0.86682 0.64089 0.0
H551 H 0.99976 0.0058 0.01194 0.0
H552 H 0.9292 0.95816 0.9946 0.0
H553 H 0.00713 0.93817 0.95396 0.0
H554 H 0.07733 0.98533 0.9711 0.0
H555 H 0.9407 0.95293 0.93977 0.0
H556 H 0.9555 0.8587 0.98476 0.0
H557 H 0.96384 0.83876 0.01558 0.0
H558 H 0.83717 0.8293 0.02997 0.0
H559 H 0.82847 0.84999 0.99925 0.0
H560 H 0.79381 0.74369 0.89515 0.0
H561 H 0.85409 0.80578 0.91324 0.0
H562 H 0.75208 0.79979 0.94908 0.0
H563 H 0.6915 0.73663 0.93128 0.0
H564 H 0.82368 0.80436 0.96703 0.0
H565 H 0.8041 0.88776 0.92003 0.0
H566 H 0.79691 0.90631 0.88885 0.0
H567 H 0.93302 0.93521 0.87786 0.0
H568 H 0.9408 0.91616 0.90892 0.0
C569 C 0.00187 0.99184 0.99918 0.0
C570 C 0.04398 0.99893 0.99295 0.0
C571 C 0.96159 0.96457 0.98933 0.0
C572 C 0.96301 0.94439 0.97309 0.0
C573 C 0.00533 0.95345 0.96646 0.0
C574 C 0.04538 0.98021 0.97633 0.0
C575 C 0.92044 0.91116 0.96346 0.0
C576 C 0.91507 0.92042 0.94569 0.0
C577 C 0.88666 0.86922 0.97136 0.0
C578 C 0.89165 0.85648 0.98979 0.0
C579 C 0.92963 0.85277 0.99454 0.0
C580 C 0.93439 0.84126 0.01198 0.0
C581 C 0.90114 0.83289 0.02475 0.0
C582 C 0.86297 0.8359 0.02008 0.0
C583 C 0.8581 0.84752 0.00265 0.0
C584 C 0.7842 0.75532 0.90695 0.0
C585 C 0.73789 0.73527 0.91178 0.0
C586 C 0.81864 0.79114 0.91717 0.0
C587 C 0.80748 0.80784 0.93235 0.0
C588 C 0.76136 0.78761 0.93734 0.0
C589 C 0.72683 0.75177 0.9271 0.0
C590 C 0.8443 0.8457 0.94318 0.0
C591 C 0.84868 0.83726 0.96118 0.0
C592 C 0.87727 0.88834 0.93545 0.0
C593 C 0.87291 0.90023 0.91679 0.0
C594 C 0.8324 0.89777 0.91094 0.0
C595 C 0.82823 0.90842 0.89329 0.0
C596 C 0.86446 0.92186 0.88138 0.0
C597 C 0.90498 0.92478 0.8871 0.0
C598 C 0.90931 0.91413 0.90474 0.0
H599 H 0.86116 0.93007 0.86771 0.0
H600 H 0.90489 0.82397 0.03825 0.0
H601 H 0.11046 0.03983 0.30175 0.0
H602 H 0.08398 0.96867 0.2848 0.0
H603 H 0.97463 0.89378 0.32252 0.0
H604 H 0.00129 0.96526 0.33981 0.0
H605 H 0.02135 0.84998 0.31567 0.0
H606 H 0.9493 0.91282 0.28116 0.0
H607 H 0.9434 0.97258 0.26458 0.0
H608 H 0.04397 0.98358 0.22717 0.0
H609 H 0.05102 0.92437 0.24367 0.0
H610 H 0.94775 0.65032 0.26027 0.0
H611 H 0.9456 0.71206 0.27679 0.0
H612 H 0.05972 0.81467 0.24596 0.0
H613 H 0.06123 0.75333 0.22909 0.0
H614 H 0.99488 0.83755 0.25023 0.0
H615 H 0.07549 0.78494 0.28752 0.0
H616 H 0.08355 0.72669 0.3043 0.0
H617 H 0.96754 0.69763 0.33655 0.0
H618 H 0.95843 0.75533 0.31978 0.0
C619 C 0.08051 0.0084 0.30642 0.0
C620 C 0.05805 0.00824 0.32217 0.0
C621 C 0.06523 0.96774 0.29662 0.0
C622 C 0.02703 0.92603 0.30229 0.0
C623 C 0.00406 0.9257 0.31789 0.0
C624 C 0.01927 0.96656 0.32771 0.0
C625 C 0.01338 0.88258 0.2924 0.0
C626 C 0.01441 0.84673 0.30143 0.0
C627 C 0.00512 0.87876 0.27378 0.0
C628 C 0.00087 0.91428 0.26373 0.0
C629 C 0.97041 0.9282 0.26947 0.0
C630 C 0.96682 0.96195 0.26007 0.0
C631 C 0.99333 0.98191 0.24484 0.0
C632 C 0.02344 0.96809 0.23897 0.0
C633 C 0.0272 0.93437 0.24832 0.0
C634 C 0.97201 0.68605 0.25688 0.0
C635 C 0.00495 0.69699 0.24349 0.0
C636 C 0.97092 0.72124 0.2664 0.0
C637 C 0.00279 0.76793 0.26272 0.0
C638 C 0.03486 0.77887 0.24904 0.0
C639 C 0.036 0.74379 0.23955 0.0
C640 C 0.00413 0.80569 0.27342 0.0
C641 C 0.00081 0.84041 0.26453 0.0
C642 C 0.0104 0.80856 0.29216 0.0
C643 C 0.01593 0.77399 0.30225 0.0
C644 C 0.05147 0.76584 0.29809 0.0
C645 C 0.05627 0.73298 0.30761 0.0
C646 C 0.02598 0.70836 0.32144 0.0
C647 C 0.99091 0.71665 0.3258 0.0
C648 C 0.98592 0.74943 0.3163 0.0
H649 H 0.02976 0.68294 0.3288 0.0
H650 H 0.99051 0.00805 0.23759 0.0
H651 H 0.15431 0.04357 0.64219 0.0
H652 H 0.20592 0.05791 0.61703 0.0
H653 H 0.23972 0.96084 0.63884 0.0
H654 H 0.18839 0.94625 0.66385 0.0
H655 H 0.29763 0.09496 0.61932 0.0
H656 H 0.26474 0.9095 0.60603 0.0
H657 H 0.19943 0.829 0.6053 0.0
H658 H 0.10719 0.87744 0.59467 0.0
H659 H 0.17199 0.9582 0.59507 0.0
H660 H 0.49265 0.09013 0.5916 0.0
H661 H 0.42306 0.07975 0.60572 0.0
H662 H 0.35035 0.03128 0.55564 0.0
H663 H 0.4204 0.0421 0.54148 0.0
H664 H 0.30236 0.97439 0.58275 0.0
H665 H 0.37599 0.13523 0.57119 0.0
H666 H 0.43969 0.21648 0.57058 0.0
H667 H 0.44604 0.21925 0.62783 0.0
H668 H 0.38285 0.13774 0.62879 0.0
C669 C 0.17202 0.02458 0.64142 0.0
C670 C 0.16738 0.99389 0.65507 0.0
C671 C 0.20164 0.03298 0.62709 0.0
C672 C 0.22652 0.01032 0.62602 0.0
C673 C 0.22044 0.97829 0.63924 0.0
C674 C 0.1912 0.97014 0.6536 0.0
C675 C 0.26184 0.02266 0.61206 0.0
C676 C 0.29844 0.0687 0.61117 0.0
C677 C 0.26242 0.98857 0.60116 0.0
C678 C 0.22327 0.93998 0.60069 0.0
C679 C 0.23057 0.903 0.60343 0.0
C680 C 0.19362 0.8573 0.6031 0.0
C681 C 0.14918 0.84812 0.59998 0.0
C682 C 0.14161 0.88461 0.59714 0.0
C683 C 0.17844 0.93036 0.59745 0.0
C684 C 0.46208 0.07841 0.58356 0.0
C685 C 0.46184 0.06797 0.56542 0.0
C686 C 0.42237 0.07235 0.59161 0.0
C687 C 0.38168 0.05536 0.58167 0.0
C688 C 0.38144 0.04475 0.56351 0.0
C689 C 0.42131 0.05107 0.55544 0.0
C690 C 0.33898 0.04625 0.59063 0.0
C691 C 0.30111 0.00081 0.59062 0.0
C692 C 0.33696 0.08102 0.60052 0.0
C693 C 0.37478 0.13023 0.60005 0.0
C694 C 0.39115 0.15304 0.58365 0.0
C695 C 0.42717 0.19917 0.58325 0.0
C696 C 0.44694 0.22299 0.59916 0.0
C697 C 0.43068 0.20075 0.61551 0.0
C698 C 0.39472 0.15459 0.616 0.0
H699 H 0.47482 0.25871 0.59881 0.0
H700 H 0.12062 0.81272 0.59974 0.0
H701 H 0.2945 0.15319 0.98858 0.0
H702 H 0.34737 0.22559 0.97399 0.0
H703 H 0.30666 0.29899 0.00957 0.0
H704 H 0.25177 0.22566 0.02388 0.0
H705 H 0.30792 0.32686 0.97765 0.0
H706 H 0.41665 0.31221 0.01158 0.0
H707 H 0.45558 0.27465 0.02483 0.0
H708 H 0.49137 0.25105 0.97258 0.0
H709 H 0.45209 0.28787 0.95899 0.0
H710 H 0.50594 0.53372 0.93589 0.0
H711 H 0.45909 0.47772 0.95917 0.0
H712 H 0.41881 0.36552 0.92176 0.0
H713 H 0.46396 0.42129 0.89838 0.0
H714 H 0.46534 0.36989 0.95972 0.0
H715 H 0.3414 0.37463 0.92735 0.0
H716 H 0.30573 0.41714 0.91572 0.0
H717 H 0.30479 0.4668 0.96849 0.0
H718 H 0.34117 0.42511 0.98037 0.0
C719 C 0.29718 0.18473 0.99355 0.0
C720 C 0.26885 0.18357 0.00742 0.0
C721 C 0.32777 0.22634 0.98523 0.0
C722 C 0.33168 0.26806 0.99083 0.0
C723 C 0.30438 0.2673 0.00504 0.0
C724 C 0.27316 0.2254 0.01325 0.0
C725 C 0.36177 0.31143 0.98084 0.0
C726 C 0.3427 0.33676 0.97411 0.0
C727 C 0.40732 0.32477 0.97617 0.0
C728 C 0.43118 0.30265 0.98426 0.0
C729 C 0.43256 0.29876 0.0029 0.0
C730 C 0.45473 0.27762 0.01048 0.0
C731 C 0.47589 0.26042 0.99955 0.0
C732 C 0.47498 0.2644 0.98103 0.0
C733 C 0.45283 0.28549 0.97338 0.0
C734 C 0.48617 0.49714 0.93263 0.0
C735 C 0.48807 0.48154 0.91543 0.0
C736 C 0.45978 0.46535 0.94588 0.0
C737 C 0.43577 0.41771 0.94209 0.0
C738 C 0.43719 0.40222 0.92486 0.0
C739 C 0.46273 0.43394 0.91156 0.0
C740 C 0.41064 0.38346 0.9562 0.0
C741 C 0.43087 0.3602 0.96368 0.0
C742 C 0.36669 0.37266 0.96183 0.0
C743 C 0.34456 0.39734 0.95469 0.0
C744 C 0.33407 0.39505 0.93643 0.0
C745 C 0.31361 0.41888 0.9298 0.0
C746 C 0.30316 0.44481 0.94135 0.0
C747 C 0.313 0.44681 0.95956 0.0
C748 C 0.33352 0.42308 0.96624 0.0
H749 H 0.28731 0.46323 0.9362 0.0
H750 H 0.49302 0.24406 0.00544 0.0
H751 H 0.02385 0.19984 0.35193 0.0
H752 H -4e-05 0.2503 0.33852 0.0
H753 H 0.12389 0.31671 0.30725 0.0
H754 H 0.14839 0.26737 0.32077 0.0
H755 H 0.10346 0.37878 0.31816 0.0
H756 H 0.02244 0.22645 0.29023 0.0
H757 H 0.97164 0.14142 0.29032 0.0
H758 H 0.86241 0.15519 0.31195 0.0
H759 H 0.9128 0.24034 0.31216 0.0
H760 H 0.99712 0.39492 0.23107 0.0
H761 H 0.00428 0.34706 0.25389 0.0
H762 H 0.01031 0.44052 0.29487 0.0
H763 H 0.0039 0.48879 0.27188 0.0
H764 H 0.95892 0.29967 0.28295 0.0
H765 H 0.08889 0.4535 0.32548 0.0
H766 H 0.14538 0.53715 0.32274 0.0
H767 H 0.16495 0.51812 0.26747 0.0
H768 H 0.10849 0.43443 0.26989 0.0
C769 C 0.04636 0.22571 0.34241 0.0
C770 C 0.08782 0.22922 0.33727 0.0
C771 C 0.03256 0.25439 0.33472 0.0
C772 C 0.05982 0.28679 0.32168 0.0
C773 C 0.10228 0.29196 0.31727 0.0
C774 C 0.11615 0.26352 0.32497 0.0
C775 C 0.04326 0.31318 0.31159 0.0
C776 C 0.07152 0.36153 0.31067 0.0
C777 C 0.00185 0.29071 0.30165 0.0
C778 C 0.97148 0.23963 0.30139 0.0
C779 C 0.98767 0.21129 0.2951 0.0
C780 C 0.95895 0.1631 0.29508 0.0
C781 C 0.91387 0.14291 0.30118 0.0
C782 C 0.89736 0.17087 0.30726 0.0
C783 C 0.92596 0.21909 0.30732 0.0
C784 C 0.99892 0.40443 0.245 0.0
C785 C -4e-05 0.44514 0.24988 0.0
C786 C 0.00299 0.37722 0.25801 0.0
C787 C 0.00836 0.39052 0.27607 0.0
C788 C 0.00674 0.42994 0.28101 0.0
C789 C 0.0028 0.45724 0.26796 0.0
C790 C 0.01948 0.36516 0.28933 0.0
C791 C 0.99021 0.31704 0.29084 0.0
C792 C 0.06051 0.38769 0.29949 0.0
C793 C 0.09418 0.43792 0.29783 0.0
C794 C 0.10524 0.46725 0.31275 0.0
C795 C 0.13718 0.51464 0.31124 0.0
C796 C 0.15857 0.53296 0.29492 0.0
C797 C 0.14816 0.50392 0.28008 0.0
C798 C 0.11608 0.45655 0.28149 0.0
H799 H 0.18332 0.56964 0.29378 0.0
H800 H 0.89169 0.10559 0.30117 0.0
loop_
_geom_bond_atom_site_label_1
_geom_bond_atom_site_label_2
_geom_bond_distance
_geom_bond_site_symmetry_2
_ccdc_geom_bond_type
Zn0 O3 2.031 . S
Zn0 O5 2.049 1_554 S
Zn0 O10 2.067 . S
Zn1 O2 1.962 . S
Zn1 O4 1.986 . S
Zn1 O6 1.996 . S
Zn1 O9 1.943 . S
O2 Zn1 1.962 . S
O2 C7 1.254 . S
O3 Zn0 2.031 . S
O3 C7 1.269 . S
O4 Zn1 1.986 . S
O4 C11 1.262 . S
O5 Zn0 2.049 1_556 S
O5 C13 1.260 1_556 S
O6 Zn1 1.996 . S
O6 C13 1.257 . S
C7 O2 1.254 . S
C7 O3 1.269 . S
C8 O9 1.249 . S
C8 O10 1.270 . S
O9 Zn1 1.943 . S
O9 C8 1.249 . S
O10 Zn0 2.067 . S
O10 C8 1.270 . S
C11 O4 1.262 . S
C11 O12 1.232 . S
O12 C11 1.232 . S
C13 O5 1.260 1_554 S
C13 O6 1.257 . S
Zn14 O17 2.031 . S
Zn14 O19 2.049 . S
Zn14 O24 2.067 . S
Zn15 O16 1.962 . S
Zn15 O18 1.986 1_455 S
Zn15 O20 1.996 . S
Zn15 O23 1.943 . S
O16 Zn15 1.962 . S
O16 C21 1.254 . S
O17 Zn14 2.031 . S
O17 C21 1.269 . S
O18 Zn15 1.986 1_655 S
O18 C25 1.262 . S
O19 Zn14 2.049 . S
O19 C27 1.260 . S
O20 Zn15 1.996 . S
O20 C27 1.257 . S
C21 O16 1.254 . S
C21 O17 1.269 . S
C22 O23 1.249 . S
C22 O24 1.270 . S
O23 Zn15 1.943 . S
O23 C22 1.249 . S
O24 Zn14 2.067 . S
O24 C22 1.270 . S
C25 O18 1.262 . S
C25 O26 1.232 . S
O26 C25 1.232 . S
C27 O19 1.260 . S
C27 O20 1.257 . S
Zn28 O31 2.031 1_565 S
Zn28 O33 2.049 . S
Zn28 O38 2.067 1_565 S
Zn29 O30 1.962 . S
Zn29 O32 1.986 1_455 S
Zn29 O34 1.996 1_545 S
Zn29 O37 1.943 . S
O30 Zn29 1.962 . S
O30 C35 1.254 . S
O31 Zn28 2.031 1_545 S
O31 C35 1.269 . S
O32 Zn29 1.986 1_655 S
O32 C39 1.262 1_655 S
O33 Zn28 2.049 . S
O33 C41 1.260 . S
O34 Zn29 1.996 1_565 S
O34 C41 1.257 . S
C35 O30 1.254 . S
C35 O31 1.269 . S
C36 O37 1.249 . S
C36 O38 1.270 . S
O37 Zn29 1.943 . S
O37 C36 1.249 . S
O38 Zn28 2.067 1_545 S
O38 C36 1.270 . S
C39 O32 1.262 1_455 S
C39 O40 1.232 . S
O40 C39 1.232 . S
C41 O33 1.260 . S
C41 O34 1.257 . S
C42 C43 1.443 . S
C42 N46 1.376 . S
C42 C80 1.389 . S
C43 C42 1.443 . S
C43 C44 1.340 . S
C43 H83 0.951 . S
C44 C43 1.340 . S
C44 C45 1.439 . S
C44 H84 0.950 . S
C45 C44 1.439 . S
C45 N46 1.374 . S
C45 C79 1.395 . S
N46 C42 1.376 . S
N46 C45 1.374 . S
N46 Co47 2.008 . S
Co47 N46 2.008 . S
Co47 N48 1.995 . S
Co47 N53 2.008 . S
Co47 N58 1.995 . S
Co47 N63 2.282 . S
Co47 N69 2.282 . S
N48 Co47 1.995 . S
N48 C49 1.376 . S
N48 C52 1.383 . S
C49 N48 1.376 . S
C49 C50 1.446 . S
C49 C79 1.391 . S
C50 C49 1.446 . S
C50 C51 1.339 . S
C50 H85 0.949 . S
C51 C50 1.339 . S
C51 C52 1.439 . S
C51 H86 0.950 . S
C52 N48 1.383 . S
C52 C51 1.439 . S
C52 C81 1.392 . S
N53 Co47 2.008 . S
N53 C54 1.376 . S
N53 C57 1.374 1_455 S
C54 N53 1.376 . S
C54 C55 1.443 1_455 S
C54 C81 1.389 . S
C55 C54 1.443 1_655 S
C55 C56 1.340 . S
C55 H87 0.951 . S
C56 C55 1.340 . S
C56 C57 1.439 . S
C56 H88 0.950 . S
C57 N53 1.374 1_655 S
C57 C56 1.439 . S
C57 C82 1.395 . S
N58 Co47 1.995 . S
N58 C59 1.376 1_455 S
N58 C62 1.383 . S
C59 N58 1.376 1_655 S
C59 C60 1.446 . S
C59 C82 1.391 . S
C60 C59 1.446 . S
C60 C61 1.339 . S
C60 H89 0.949 . S
C61 C60 1.339 . S
C61 C62 1.439 1_655 S
C61 H90 0.950 . S
C62 N58 1.383 . S
C62 C61 1.439 1_455 S
C62 C80 1.392 . S
N63 Co47 2.282 . S
N63 C66 1.332 . S
N63 C68 1.332 . S
C64 C65 1.386 . S
C64 C67 1.388 . S
C65 C64 1.386 . S
C65 C66 1.382 . S
C65 H91 0.966 . S
C66 N63 1.332 . S
C66 C65 1.382 . S
C66 H77 0.952 . S
C67 C64 1.388 . S
C67 C68 1.382 . S
C67 H92 0.950 . S
C68 N63 1.332 . S
C68 C67 1.382 . S
C68 H78 0.948 . S
N69 Co47 2.282 . S
N69 C73 1.332 . S
N69 C74 1.332 . S
C70 C71 1.388 . S
C70 C74 1.382 . S
C70 H93 0.950 1_455 S
C71 C70 1.388 . S
C71 C72 1.386 . S
C72 C71 1.386 . S
C72 C73 1.382 . S
C72 H94 0.950 . S
C73 N69 1.332 . S
C73 C72 1.382 . S
C73 H75 0.952 . S
C74 N69 1.332 . S
C74 C70 1.382 . S
C74 H76 0.948 1_455 S
H75 C73 0.952 . S
H76 C74 0.948 1_655 S
H77 C66 0.952 . S
H78 C68 0.948 . S
C79 C45 1.395 . S
C79 C49 1.391 . S
C80 C42 1.389 . S
C80 C62 1.392 . S
C81 C52 1.392 . S
C81 C54 1.389 . S
C82 C57 1.395 . S
C82 C59 1.391 . S
H83 C43 0.951 . S
H84 C44 0.950 . S
H85 C50 0.949 . S
H86 C51 0.950 . S
H87 C55 0.951 . S
H88 C56 0.950 . S
H89 C60 0.949 . S
H90 C61 0.950 . S
H91 C65 0.966 . S
H92 C67 0.950 . S
H93 C70 0.950 1_655 S
H94 C72 0.950 . S
C95 C96 1.443 1_545 S
C95 N99 1.376 . S
C95 C133 1.389 . S
C96 C95 1.443 1_565 S
C96 C97 1.340 . S
C96 H136 0.951 . S
C97 C96 1.340 . S
C97 C98 1.439 . S
C97 H137 0.950 . S
C98 C97 1.439 . S
C98 N99 1.374 1_565 S
C98 C132 1.395 . S
N99 C95 1.376 . S
N99 C98 1.374 1_545 S
N99 Co100 2.008 . S
Co100 N99 2.008 . S
Co100 N101 1.995 . S
Co100 N106 2.008 . S
Co100 N111 1.995 . S
Co100 N116 2.282 . S
Co100 N122 2.282 . S
N101 Co100 1.995 . S
N101 C102 1.376 1_545 S
N101 C105 1.383 . S
C102 N101 1.376 1_565 S
C102 C103 1.446 . S
C102 C132 1.391 . S
C103 C102 1.446 . S
C103 C104 1.339 1_565 S
C103 H138 0.949 . S
C104 C103 1.339 1_545 S
C104 C105 1.439 . S
C104 H139 0.950 . S
C105 N101 1.383 . S
C105 C104 1.439 . S
C105 C134 1.392 . S
N106 Co100 2.008 . S
N106 C107 1.376 . S
N106 C110 1.374 . S
C107 N106 1.376 . S
C107 C108 1.443 . S
C107 C134 1.389 . S
C108 C107 1.443 . S
C108 C109 1.340 . S
C108 H140 0.951 . S
C109 C108 1.340 . S
C109 C110 1.439 . S
C109 H141 0.950 . S
C110 N106 1.374 . S
C110 C109 1.439 . S
C110 C135 1.395 . S
N111 Co100 1.995 . S
N111 C112 1.376 . S
N111 C115 1.383 . S
C112 N111 1.376 . S
C112 C113 1.446 . S
C112 C135 1.391 . S
C113 C112 1.446 . S
C113 C114 1.339 . S
C113 H142 0.949 . S
C114 C113 1.339 . S
C114 C115 1.439 . S
C114 H143 0.950 . S
C115 N111 1.383 . S
C115 C114 1.439 . S
C115 C133 1.392 . S
N116 Co100 2.282 . S
N116 C119 1.332 . S
N116 C121 1.332 . S
C117 C118 1.386 . S
C117 C120 1.388 . S
C118 C117 1.386 . S
C118 C119 1.382 . S
C118 H144 0.950 . S
C119 N116 1.332 . S
C119 C118 1.382 . S
C119 H130 0.952 . S
C120 C117 1.388 . S
C120 C121 1.382 . S
C120 H145 0.950 . S
C121 N116 1.332 . S
C121 C120 1.382 . S
C121 H131 0.948 . S
N122 Co100 2.282 . S
N122 C126 1.332 . S
N122 C127 1.332 . S
C123 C124 1.388 . S
C123 C127 1.382 . S
C123 H146 0.950 . S
C124 C123 1.388 . S
C124 C125 1.386 . S
C125 C124 1.386 . S
C125 C126 1.382 . S
C125 H147 0.950 . S
C126 N122 1.332 . S
C126 C125 1.382 . S
C126 H128 0.952 . S
C127 N122 1.332 . S
C127 C123 1.382 . S
C127 H129 0.948 . S
H128 C126 0.952 . S
H129 C127 0.948 . S
H130 C119 0.952 . S
H131 C121 0.948 . S
C132 C98 1.395 . S
C132 C102 1.391 . S
C133 C95 1.389 . S
C133 C115 1.392 . S
C134 C105 1.392 . S
C134 C107 1.389 . S
C135 C110 1.395 . S
C135 C112 1.391 . S
H136 C96 0.951 . S
H137 C97 0.950 . S
H138 C103 0.949 . S
H139 C104 0.950 . S
H140 C108 0.951 . S
H141 C109 0.950 . S
H142 C113 0.949 . S
H143 C114 0.950 . S
H144 C118 0.950 . S
H145 C120 0.950 . S
H146 C123 0.950 . S
H147 C125 0.950 . S
C148 C149 1.443 . S
C148 N152 1.376 . S
C148 C186 1.389 . S
C149 C148 1.443 . S
C149 C150 1.340 . S
C149 H189 0.951 . S
C150 C149 1.340 . S
C150 C151 1.439 . S
C150 H190 0.950 . S
C151 C150 1.439 . S
C151 N152 1.374 . S
C151 C185 1.395 . S
N152 C148 1.376 . S
N152 C151 1.374 . S
N152 Co153 2.008 . S
Co153 N152 2.008 . S
Co153 N154 1.995 . S
Co153 N159 2.008 . S
Co153 N164 1.995 . S
Co153 N169 2.282 . S
Co153 N175 2.282 . S
N154 Co153 1.995 . S
N154 C155 1.376 . S
N154 C158 1.383 . S
C155 N154 1.376 . S
C155 C156 1.446 . S
C155 C185 1.391 . S
C156 C155 1.446 . S
C156 C157 1.339 . S
C156 H191 0.949 . S
C157 C156 1.339 . S
C157 C158 1.439 . S
C157 H192 0.950 . S
C158 N154 1.383 . S
C158 C157 1.439 . S
C158 C187 1.392 . S
N159 Co153 2.008 . S
N159 C160 1.376 . S
N159 C163 1.374 . S
C160 N159 1.376 . S
C160 C161 1.443 . S
C160 C187 1.389 . S
C161 C160 1.443 . S
C161 C162 1.340 . S
C161 H193 0.951 . S
C162 C161 1.340 . S
C162 C163 1.439 . S
C162 H194 0.950 . S
C163 N159 1.374 . S
C163 C162 1.439 . S
C163 C188 1.395 . S
N164 Co153 1.995 . S
N164 C165 1.376 . S
N164 C168 1.383 . S
C165 N164 1.376 . S
C165 C166 1.446 . S
C165 C188 1.391 . S
C166 C165 1.446 . S
C166 C167 1.339 . S
C166 H195 0.949 . S
C167 C166 1.339 . S
C167 C168 1.439 . S
C167 H196 0.950 . S
C168 N164 1.383 . S
C168 C167 1.439 . S
C168 C186 1.392 . S
N169 Co153 2.282 . S
N169 C172 1.332 . S
N169 C174 1.332 . S
C170 C171 1.386 . S
C170 C173 1.388 . S
C171 C170 1.386 . S
C171 C172 1.382 . S
C171 H197 0.950 . S
C172 N169 1.332 . S
C172 C171 1.382 . S
C172 H183 0.952 . S
C173 C170 1.388 . S
C173 C174 1.382 . S
C173 H198 0.950 . S
C174 N169 1.332 . S
C174 C173 1.382 . S
C174 H184 0.948 . S
N175 Co153 2.282 . S
N175 C179 1.332 . S
N175 C180 1.332 . S
C176 C177 1.388 . S
C176 C180 1.382 . S
C176 H199 0.950 . S
C177 C176 1.388 . S
C177 C178 1.386 . S
C178 C177 1.386 . S
C178 C179 1.382 . S
C178 H200 0.950 . S
C179 N175 1.332 . S
C179 C178 1.382 . S
C179 H181 0.952 . S
C180 N175 1.332 . S
C180 C176 1.382 . S
C180 H182 0.948 . S
H181 C179 0.952 . S
H182 C180 0.948 . S
H183 C172 0.952 . S
H184 C174 0.948 . S
C185 C151 1.395 . S
C185 C155 1.391 . S
C186 C148 1.389 . S
C186 C168 1.392 . S
C187 C158 1.392 . S
C187 C160 1.389 . S
C188 C163 1.395 . S
C188 C165 1.391 . S
H189 C149 0.951 . S
H190 C150 0.950 . S
H191 C156 0.949 . S
H192 C157 0.950 . S
H193 C161 0.951 . S
H194 C162 0.950 . S
H195 C166 0.949 . S
H196 C167 0.950 . S
H197 C171 0.950 . S
H198 C173 0.950 . S
H199 C176 0.950 . S
H200 C178 0.950 . S
H201 C219 0.951 . S
H202 C221 0.951 . S
H203 C223 0.950 . S
H204 C224 0.950 . S
H205 C226 0.950 . S
H206 C229 0.950 . S
H207 C230 0.950 . S
H208 C232 0.950 . S
H209 C233 0.939 1_655 S
H210 C234 0.951 . S
H211 C236 0.951 . S
H212 C238 0.950 . S
H213 C239 0.971 . S
H214 C241 0.950 . S
H215 C244 0.950 . S
H216 C245 0.950 . S
H217 C247 0.950 . S
H218 C248 0.950 . S
C219 H201 0.951 . S
C219 C220 1.366 . S
C219 C221 1.388 . S
C220 C219 1.366 . S
C220 C224 1.385 . S
C221 H202 0.951 . S
C221 C219 1.388 . S
C221 C222 1.366 . S
C222 C221 1.366 . S
C222 C223 1.414 . S
C222 C225 1.499 . S
C223 H203 0.950 . S
C223 C222 1.414 . S
C223 C224 1.374 . S
C224 H204 0.950 . S
C224 C220 1.385 . S
C224 C223 1.374 . S
C225 C222 1.499 . S
C225 C226 1.373 . S
C225 C227 1.389 . S
C226 H205 0.950 . S
C226 C225 1.373 . S
C226 C242 1.377 . S
C227 C225 1.389 . S
C227 C228 1.524 . S
C227 C241 1.377 . S
C228 C227 1.524 . S
C228 C229 1.397 . S
C228 C233 1.381 . S
C229 H206 0.950 . S
C229 C228 1.397 . S
C229 C230 1.334 . S
C230 H207 0.950 . S
C230 C229 1.334 . S
C230 C231 1.287 . S
C231 C230 1.287 . S
C231 C232 1.524 1_455 S
C231 H250 0.913 . S
C232 H208 0.950 . S
C232 C231 1.524 1_655 S
C232 C233 1.408 1_655 S
C233 H209 0.939 1_455 S
C233 C228 1.381 . S
C233 C232 1.408 1_455 S
C234 H210 0.951 . S
C234 C235 1.366 . S
C234 C236 1.388 . S
C235 C234 1.366 . S
C235 C239 1.385 . S
C236 H211 0.951 . S
C236 C234 1.388 . S
C236 C237 1.366 . S
C237 C236 1.366 . S
C237 C238 1.414 . S
C237 C240 1.499 . S
C238 H212 0.950 . S
C238 C237 1.414 . S
C238 C239 1.374 . S
C239 H213 0.971 . S
C239 C235 1.385 . S
C239 C238 1.374 . S
C240 C237 1.499 . S
C240 C241 1.373 . S
C240 C242 1.389 . S
C241 H214 0.950 . S
C241 C227 1.377 . S
C241 C240 1.373 . S
C242 C226 1.377 . S
C242 C240 1.389 . S
C242 C243 1.524 . S
C243 C242 1.524 . S
C243 C244 1.397 . S
C243 C248 1.363 . S
C244 H215 0.950 . S
C244 C243 1.397 . S
C244 C245 1.334 . S
C245 H216 0.950 . S
C245 C244 1.334 . S
C245 C246 1.287 . S
C246 C245 1.287 . S
C246 C247 1.524 . S
C246 H249 0.999 . S
C247 H217 0.950 . S
C247 C246 1.524 . S
C247 C248 1.415 . S
C248 H218 0.950 . S
C248 C243 1.363 . S
C248 C247 1.415 . S
H249 C246 0.999 . S
H250 C231 0.913 . S
H251 C269 0.951 . S
H252 C271 0.951 . S
H253 C273 0.950 . S
H254 C274 0.950 . S
H255 C276 0.950 . S
H256 C279 0.950 . S
H257 C280 0.950 . S
H258 C282 0.950 . S
H259 C283 0.950 . S
H260 C284 0.951 . S
H261 C286 0.951 . S
H262 C288 0.950 . S
H263 C289 0.950 . S
H264 C291 0.950 . S
H265 C294 0.950 1_545 S
H266 C295 0.950 . S
H267 C297 0.950 . S
H268 C298 0.950 . S
C269 H251 0.951 . S
C269 C270 1.366 . S
C269 C271 1.388 . S
C270 C269 1.366 . S
C270 C274 1.385 . S
C271 H252 0.951 . S
C271 C269 1.388 . S
C271 C272 1.366 . S
C272 C271 1.366 . S
C272 C273 1.414 . S
C272 C275 1.499 . S
C273 H253 0.950 . S
C273 C272 1.414 . S
C273 C274 1.374 . S
C274 H254 0.950 . S
C274 C270 1.385 . S
C274 C273 1.374 . S
C275 C272 1.499 . S
C275 C276 1.373 . S
C275 C277 1.389 . S
C276 H255 0.950 . S
C276 C275 1.373 . S
C276 C292 1.377 . S
C277 C275 1.389 . S
C277 C278 1.524 . S
C277 C291 1.377 . S
C278 C277 1.524 . S
C278 C279 1.397 . S
C278 C283 1.363 . S
C279 H256 0.950 . S
C279 C278 1.397 . S
C279 C280 1.334 . S
C280 H257 0.950 . S
C280 C279 1.334 . S
C280 C281 1.287 . S
C281 C280 1.287 . S
C281 C282 1.524 . S
C281 H300 0.913 . S
C282 H258 0.950 . S
C282 C281 1.524 . S
C282 C283 1.415 . S
C283 H259 0.950 . S
C283 C278 1.363 . S
C283 C282 1.415 . S
C284 H260 0.951 . S
C284 C285 1.366 . S
C284 C286 1.388 . S
C285 C284 1.366 . S
C285 C289 1.385 . S
C286 H261 0.951 . S
C286 C284 1.388 . S
C286 C287 1.366 . S
C287 C286 1.366 . S
C287 C288 1.414 . S
C287 C290 1.499 . S
C288 H262 0.950 . S
C288 C287 1.414 . S
C288 C289 1.374 . S
C289 H263 0.950 . S
C289 C285 1.385 . S
C289 C288 1.374 . S
C290 C287 1.499 . S
C290 C291 1.373 . S
C290 C292 1.389 . S
C291 H264 0.950 . S
C291 C277 1.377 . S
C291 C290 1.373 . S
C292 C276 1.377 . S
C292 C290 1.389 . S
C292 C293 1.524 1_545 S
C293 C292 1.524 1_565 S
C293 C294 1.397 . S
C293 C298 1.363 . S
C294 H265 0.950 1_565 S
C294 C293 1.397 . S
C294 C295 1.334 . S
C295 H266 0.950 . S
C295 C294 1.334 . S
C295 C296 1.287 . S
C296 C295 1.287 . S
C296 C297 1.524 . S
C296 H299 0.999 . S
C297 H267 0.950 . S
C297 C296 1.524 . S
C297 C298 1.415 . S
C298 H268 0.950 . S
C298 C293 1.363 . S
C298 C297 1.415 . S
H299 C296 0.999 . S
H300 C281 0.913 . S
H301 C319 0.951 1_455 S
H302 C321 0.951 . S
H303 C323 0.950 . S
H304 C324 0.950 . S
H305 C326 0.950 . S
H306 C329 0.950 . S
H307 C330 0.950 . S
H308 C332 0.950 . S
H309 C333 0.950 . S
H310 C334 0.951 . S
H311 C336 0.951 . S
H312 C338 0.950 . S
H313 C339 0.950 . S
H314 C341 0.950 . S
H315 C344 0.950 . S
H316 C345 0.950 . S
H317 C347 0.950 . S
H318 C348 0.950 . S
C319 H301 0.951 1_655 S
C319 C320 1.366 . S
C319 C321 1.388 . S
C320 C319 1.366 . S
C320 C324 1.385 . S
C321 H302 0.951 . S
C321 C319 1.388 . S
C321 C322 1.366 . S
C322 C321 1.366 . S
C322 C323 1.414 . S
C322 C325 1.499 . S
C323 H303 0.950 . S
C323 C322 1.414 . S
C323 C324 1.374 . S
C324 H304 0.950 . S
C324 C320 1.385 . S
C324 C323 1.374 . S
C325 C322 1.499 . S
C325 C326 1.373 . S
C325 C327 1.389 . S
C326 H305 0.950 . S
C326 C325 1.373 . S
C326 C342 1.377 . S
C327 C325 1.389 . S
C327 C328 1.524 . S
C327 C341 1.377 . S
C328 C327 1.524 . S
C328 C329 1.397 . S
C328 C333 1.363 . S
C329 H306 0.950 . S
C329 C328 1.397 . S
C329 C330 1.334 . S
C330 H307 0.950 . S
C330 C329 1.334 . S
C330 C331 1.287 1_655 S
C331 C330 1.287 1_455 S
C331 C332 1.524 . S
C331 H350 0.913 . S
C332 H308 0.950 . S
C332 C331 1.524 . S
C332 C333 1.415 1_455 S
C333 H309 0.950 . S
C333 C328 1.363 . S
C333 C332 1.415 1_655 S
C334 H310 0.951 . S
C334 C335 1.366 . S
C334 C336 1.388 . S
C335 C334 1.366 . S
C335 C339 1.385 . S
C336 H311 0.951 . S
C336 C334 1.388 . S
C336 C337 1.366 . S
C337 C336 1.366 . S
C337 C338 1.414 . S
C337 C340 1.499 . S
C338 H312 0.950 . S
C338 C337 1.414 . S
C338 C339 1.374 . S
C339 H313 0.950 . S
C339 C335 1.385 . S
C339 C338 1.374 . S
C340 C337 1.499 . S
C340 C341 1.373 . S
C340 C342 1.389 . S
C341 H314 0.950 . S
C341 C327 1.377 . S
C341 C340 1.373 . S
C342 C326 1.377 . S
C342 C340 1.389 . S
C342 C343 1.524 . S
C343 C342 1.524 . S
C343 C344 1.397 . S
C343 C348 1.363 . S
C344 H315 0.950 . S
C344 C343 1.397 . S
C344 C345 1.334 . S
C345 H316 0.950 . S
C345 C344 1.334 . S
C345 C346 1.287 . S
C346 C345 1.287 . S
C346 C347 1.524 . S
C346 H349 0.999 . S
C347 H317 0.950 . S
C347 C346 1.524 . S
C347 C348 1.415 . S
C348 H318 0.950 . S
C348 C343 1.363 . S
C348 C347 1.415 . S
H349 C346 0.999 . S
H350 C331 0.913 . S
H351 C369 0.951 1_545 S
H352 C371 0.951 . S
H353 C373 0.950 . S
H354 C374 0.950 . S
H355 C376 0.950 . S
H356 C379 0.950 . S
H357 C380 0.950 . S
H358 C382 0.950 . S
H359 C383 0.950 . S
H360 C384 0.951 . S
H361 C386 0.951 . S
H362 C388 0.950 . S
H363 C389 0.950 . S
H364 C391 0.950 . S
H365 C394 0.950 . S
H366 C395 0.950 . S
H367 C397 0.950 . S
H368 C398 0.950 1_655 S
C369 H351 0.951 1_565 S
C369 C370 1.366 . S
C369 C371 1.388 . S
C370 C369 1.366 . S
C370 C374 1.385 . S
C371 H352 0.951 . S
C371 C369 1.388 . S
C371 C372 1.366 . S
C372 C371 1.366 . S
C372 C373 1.414 . S
C372 C375 1.499 . S
C373 H353 0.950 . S
C373 C372 1.414 . S
C373 C374 1.374 . S
C374 H354 0.950 . S
C374 C370 1.385 . S
C374 C373 1.374 . S
C375 C372 1.499 . S
C375 C376 1.373 . S
C375 C377 1.389 . S
C376 H355 0.950 . S
C376 C375 1.373 . S
C376 C392 1.377 . S
C377 C375 1.389 . S
C377 C378 1.524 . S
C377 C391 1.377 . S
C378 C377 1.524 . S
C378 C379 1.397 . S
C378 C383 1.363 . S
C379 H356 0.950 . S
C379 C378 1.397 . S
C379 C380 1.334 . S
C380 H357 0.950 . S
C380 C379 1.334 . S
C380 C381 1.287 . S
C381 C380 1.287 . S
C381 C382 1.524 . S
C381 H400 0.913 . S
C382 H358 0.950 . S
C382 C381 1.524 . S
C382 C383 1.415 . S
C383 H359 0.950 . S
C383 C378 1.363 . S
C383 C382 1.415 . S
C384 H360 0.951 . S
C384 C385 1.366 . S
C384 C386 1.388 . S
C385 C384 1.366 . S
C385 C389 1.385 . S
C386 H361 0.951 . S
C386 C384 1.388 . S
C386 C387 1.366 . S
C387 C386 1.366 . S
C387 C388 1.414 . S
C387 C390 1.499 . S
C388 H362 0.950 . S
C388 C387 1.414 . S
C388 C389 1.374 . S
C389 H363 0.950 . S
C389 C385 1.385 . S
C389 C388 1.374 . S
C390 C387 1.499 . S
C390 C391 1.373 . S
C390 C392 1.389 . S
C391 H364 0.950 . S
C391 C377 1.377 . S
C391 C390 1.373 . S
C392 C376 1.377 . S
C392 C390 1.389 . S
C392 C393 1.524 . S
C393 C392 1.524 . S
C393 C394 1.397 . S
C393 C398 1.363 . S
C394 H365 0.950 . S
C394 C393 1.397 . S
C394 C395 1.334 . S
C395 H366 0.950 . S
C395 C394 1.334 . S
C395 C396 1.287 . S
C396 C395 1.287 . S
C396 C397 1.524 1_455 S
C396 H399 0.999 1_455 S
C397 H367 0.950 . S
C397 C396 1.524 1_655 S
C397 C398 1.415 1_655 S
C398 H368 0.950 1_455 S
C398 C393 1.363 . S
C398 C397 1.415 1_455 S
H399 C396 0.999 1_655 S
H400 C381 0.913 . S
H401 C419 0.951 . S
H402 C421 0.951 . S
H403 C423 0.950 . S
H404 C424 0.950 . S
H405 C426 0.950 . S
H406 C429 0.950 . S
H407 C430 0.950 . S
H408 C432 0.950 . S
H409 C433 0.946 . S
H410 C434 0.951 . S
H411 C436 0.951 . S
H412 C438 0.950 . S
H413 C439 0.950 . S
H414 C441 0.950 . S
H415 C444 0.950 . S
H416 C445 0.950 . S
H417 C447 0.950 . S
H418 C448 0.950 . S
C419 H401 0.951 . S
C419 C420 1.366 . S
C419 C421 1.388 . S
C420 C419 1.366 . S
C420 C424 1.385 . S
C421 H402 0.951 . S
C421 C419 1.388 . S
C421 C422 1.366 . S
C422 C421 1.366 . S
C422 C423 1.414 . S
C422 C425 1.499 . S
C423 H403 0.950 . S
C423 C422 1.414 . S
C423 C424 1.374 . S
C424 H404 0.950 . S
C424 C420 1.385 . S
C424 C423 1.374 . S
C425 C422 1.499 . S
C425 C426 1.373 . S
C425 C427 1.389 . S
C426 H405 0.950 . S
C426 C425 1.373 . S
C426 C442 1.377 . S
C427 C425 1.389 . S
C427 C428 1.524 . S
C427 C441 1.377 . S
C428 C427 1.524 . S
C428 C429 1.397 . S
C428 C433 1.363 1_545 S
C429 H406 0.950 . S
C429 C428 1.397 . S
C429 C430 1.334 1_545 S
C430 H407 0.950 . S
C430 C429 1.334 1_565 S
C430 C431 1.287 . S
C431 C430 1.287 . S
C431 C432 1.524 . S
C431 H450 0.913 . S
C432 H408 0.950 . S
C432 C431 1.524 . S
C432 C433 1.415 . S
C433 H409 0.946 . S
C433 C428 1.363 1_565 S
C433 C432 1.415 . S
C434 H410 0.951 . S
C434 C435 1.366 . S
C434 C436 1.388 . S
C435 C434 1.366 . S
C435 C439 1.385 . S
C436 H411 0.951 . S
C436 C434 1.388 . S
C436 C437 1.366 . S
C437 C436 1.366 . S
C437 C438 1.414 . S
C437 C440 1.499 . S
C438 H412 0.950 . S
C438 C437 1.414 . S
C438 C439 1.374 . S
C439 H413 0.950 . S
C439 C435 1.385 . S
C439 C438 1.374 . S
C440 C437 1.499 . S
C440 C441 1.373 . S
C440 C442 1.389 . S
C441 H414 0.950 . S
C441 C427 1.377 . S
C441 C440 1.373 . S
C442 C426 1.377 . S
C442 C440 1.389 . S
C442 C443 1.524 . S
C443 C442 1.524 . S
C443 C444 1.397 . S
C443 C448 1.363 . S
C444 H415 0.950 . S
C444 C443 1.397 . S
C444 C445 1.334 . S
C445 H416 0.950 . S
C445 C444 1.334 . S
C445 C446 1.287 . S
C446 C445 1.287 . S
C446 C447 1.524 . S
C446 H449 0.999 . S
C447 H417 0.950 . S
C447 C446 1.524 . S
C447 C448 1.415 . S
C448 H418 0.950 . S
C448 C443 1.363 . S
C448 C447 1.415 . S
H449 C446 0.999 . S
H450 C431 0.913 . S
H451 C469 0.951 . S
H452 C471 0.951 . S
H453 C473 0.950 . S
H454 C474 0.950 . S
H455 C476 0.950 . S
H456 C479 0.950 . S
H457 C480 0.950 . S
H458 C482 0.950 . S
H459 C483 0.950 . S
H460 C484 0.951 . S
H461 C486 0.951 . S
H462 C488 0.950 . S
H463 C489 0.950 . S
H464 C491 0.950 . S
H465 C494 0.950 . S
H466 C495 0.950 . S
H467 C497 0.950 . S
H468 C498 0.950 . S
C469 H451 0.951 . S
C469 C470 1.366 . S
C469 C471 1.388 . S
C470 C469 1.366 . S
C470 C474 1.385 . S
C471 H452 0.951 . S
C471 C469 1.388 . S
C471 C472 1.366 . S
C472 C471 1.366 . S
C472 C473 1.414 . S
C472 C475 1.499 . S
C473 H453 0.950 . S
C473 C472 1.414 . S
C473 C474 1.374 . S
C474 H454 0.950 . S
C474 C470 1.385 . S
C474 C473 1.374 . S
C475 C472 1.499 . S
C475 C476 1.373 . S
C475 C477 1.389 . S
C476 H455 0.950 . S
C476 C475 1.373 . S
C476 C492 1.377 . S
C477 C475 1.389 . S
C477 C478 1.524 . S
C477 C491 1.377 . S
C478 C477 1.524 . S
C478 C479 1.397 . S
C478 C483 1.363 . S
C479 H456 0.950 . S
C479 C478 1.397 . S
C479 C480 1.334 . S
C480 H457 0.950 . S
C480 C479 1.334 . S
C480 C481 1.287 . S
C481 C480 1.287 . S
C481 C482 1.524 . S
C481 H500 0.913 . S
C482 H458 0.950 . S
C482 C481 1.524 . S
C482 C483 1.415 . S
C483 H459 0.950 . S
C483 C478 1.363 . S
C483 C482 1.415 . S
C484 H460 0.951 . S
C484 C485 1.366 . S
C484 C486 1.388 . S
C485 C484 1.366 . S
C485 C489 1.385 . S
C486 H461 0.951 . S
C486 C484 1.388 . S
C486 C487 1.366 . S
C487 C486 1.366 . S
C487 C488 1.414 . S
C487 C490 1.499 . S
C488 H462 0.950 . S
C488 C487 1.414 . S
C488 C489 1.374 . S
C489 H463 0.950 . S
C489 C485 1.385 . S
C489 C488 1.374 . S
C490 C487 1.499 . S
C490 C491 1.373 . S
C490 C492 1.389 . S
C491 H464 0.950 . S
C491 C477 1.377 . S
C491 C490 1.373 . S
C492 C476 1.377 . S
C492 C490 1.389 . S
C492 C493 1.524 . S
C493 C492 1.524 . S
C493 C494 1.397 . S
C493 C498 1.363 . S
C494 H465 0.950 . S
C494 C493 1.397 . S
C494 C495 1.334 . S
C495 H466 0.950 . S
C495 C494 1.334 . S
C495 C496 1.287 . S
C496 C495 1.287 . S
C496 C497 1.524 . S
C496 H499 0.999 . S
C497 H467 0.950 . S
C497 C496 1.524 . S
C497 C498 1.415 . S
C498 H468 0.950 . S
C498 C493 1.363 . S
C498 C497 1.415 . S
H499 C496 0.999 . S
H500 C481 0.913 . S
H501 C519 0.951 . S
H502 C521 0.951 . S
H503 C523 0.950 . S
H504 C524 0.950 1_455 S
H505 C526 0.950 . S
H506 C529 0.950 . S
H507 C530 0.950 . S
H508 C532 0.950 . S
H509 C533 0.950 . S
H510 C534 0.951 . S
H511 C536 0.951 . S
H512 C538 0.950 . S
H513 C539 0.950 . S
H514 C541 0.950 . S
H515 C544 0.950 . S
H516 C545 0.950 . S
H517 C547 0.950 . S
H518 C548 0.950 . S
C519 H501 0.951 . S
C519 C520 1.366 . S
C519 C521 1.388 . S
C520 C519 1.366 . S
C520 C524 1.385 . S
C521 H502 0.951 . S
C521 C519 1.388 . S
C521 C522 1.366 . S
C522 C521 1.366 . S
C522 C523 1.414 . S
C522 C525 1.499 . S
C523 H503 0.950 . S
C523 C522 1.414 . S
C523 C524 1.374 . S
C524 H504 0.950 1_655 S
C524 C520 1.385 . S
C524 C523 1.374 . S
C525 C522 1.499 . S
C525 C526 1.373 . S
C525 C527 1.389 . S
C526 H505 0.950 . S
C526 C525 1.373 . S
C526 C542 1.377 . S
C527 C525 1.389 . S
C527 C528 1.524 1_545 S
C527 C541 1.377 . S
C528 C527 1.524 1_565 S
C528 C529 1.397 . S
C528 C533 1.363 . S
C529 H506 0.950 . S
C529 C528 1.397 . S
C529 C530 1.334 . S
C530 H507 0.950 . S
C530 C529 1.334 . S
C530 C531 1.287 . S
C531 C530 1.287 . S
C531 C532 1.524 . S
C531 H550 0.913 . S
C532 H508 0.950 . S
C532 C531 1.524 . S
C532 C533 1.415 . S
C533 H509 0.950 . S
C533 C528 1.363 . S
C533 C532 1.415 . S
C534 H510 0.951 . S
C534 C535 1.366 . S
C534 C536 1.388 . S
C535 C534 1.366 . S
C535 C539 1.385 . S
C536 H511 0.951 . S
C536 C534 1.388 . S
C536 C537 1.366 . S
C537 C536 1.366 . S
C537 C538 1.414 . S
C537 C540 1.499 . S
C538 H512 0.950 . S
C538 C537 1.414 . S
C538 C539 1.374 . S
C539 H513 0.950 . S
C539 C535 1.385 . S
C539 C538 1.374 . S
C540 C537 1.499 . S
C540 C541 1.373 . S
C540 C542 1.389 . S
C541 H514 0.950 . S
C541 C527 1.377 . S
C541 C540 1.373 . S
C542 C526 1.377 . S
C542 C540 1.389 . S
C542 C543 1.524 . S
C543 C542 1.524 . S
C543 C544 1.397 . S
C543 C548 1.363 . S
C544 H515 0.950 . S
C544 C543 1.397 . S
C544 C545 1.334 . S
C545 H516 0.950 . S
C545 C544 1.334 . S
C545 C546 1.287 . S
C546 C545 1.287 . S
C546 C547 1.524 . S
C546 H549 0.999 . S
C547 H517 0.950 . S
C547 C546 1.524 . S
C547 C548 1.415 . S
C548 H518 0.950 . S
C548 C543 1.363 . S
C548 C547 1.415 . S
H549 C546 0.999 . S
H550 C531 0.913 . S
H551 C569 0.951 . S
H552 C571 0.951 1_554 S
H553 C573 0.950 1_455 S
H554 C574 0.950 1_545 S
H555 C576 0.950 . S
H556 C579 0.950 . S
H557 C580 0.950 1_455 S
H558 C582 0.950 . S
H559 C583 0.951 1_556 S
H560 C584 0.951 . S
H561 C586 0.951 . S
H562 C588 0.950 . S
H563 C589 0.950 . S
H564 C591 0.950 . S
H565 C594 0.950 . S
H566 C595 0.950 . S
H567 C597 0.950 . S
H568 C598 0.950 . S
C569 H551 0.951 . S
C569 C570 1.366 1_655 S
C569 C571 1.388 1_554 S
C570 C569 1.366 1_455 S
C570 C574 1.385 1_554 S
C571 H552 0.951 1_556 S
C571 C569 1.388 1_556 S
C571 C572 1.366 . S
C572 C571 1.366 . S
C572 C573 1.414 . S
C572 C575 1.499 . S
C573 H553 0.950 1_655 S
C573 C572 1.414 . S
C573 C574 1.374 1_655 S
C574 H554 0.950 1_565 S
C574 C570 1.385 1_556 S
C574 C573 1.374 1_455 S
C575 C572 1.499 . S
C575 C576 1.373 . S
C575 C577 1.389 . S
C576 H555 0.950 . S
C576 C575 1.373 . S
C576 C592 1.377 . S
C577 C575 1.389 . S
C577 C578 1.524 . S
C577 C591 1.377 . S
C578 C577 1.524 . S
C578 C579 1.397 . S
C578 C583 1.363 1_556 S
C579 H556 0.950 . S
C579 C578 1.397 . S
C579 C580 1.334 1_556 S
C580 H557 0.950 1_655 S
C580 C579 1.334 1_554 S
C580 C581 1.287 . S
C581 C580 1.287 . S
C581 C582 1.524 . S
C581 H600 0.913 . S
C582 H558 0.950 . S
C582 C581 1.524 . S
C582 C583 1.415 . S
C583 H559 0.951 1_554 S
C583 C578 1.363 1_554 S
C583 C582 1.415 . S
C584 H560 0.951 . S
C584 C585 1.366 . S
C584 C586 1.388 . S
C585 C584 1.366 . S
C585 C589 1.385 . S
C586 H561 0.951 . S
C586 C584 1.388 . S
C586 C587 1.366 . S
C587 C586 1.366 . S
C587 C588 1.414 . S
C587 C590 1.499 . S
C588 H562 0.950 . S
C588 C587 1.414 . S
C588 C589 1.374 . S
C589 H563 0.950 . S
C589 C585 1.385 . S
C589 C588 1.374 . S
C590 C587 1.499 . S
C590 C591 1.373 . S
C590 C592 1.389 . S
C591 H564 0.950 . S
C591 C577 1.377 . S
C591 C590 1.373 . S
C592 C576 1.377 . S
C592 C590 1.389 . S
C592 C593 1.524 . S
C593 C592 1.524 . S
C593 C594 1.397 . S
C593 C598 1.363 . S
C594 H565 0.950 . S
C594 C593 1.397 . S
C594 C595 1.334 . S
C595 H566 0.950 . S
C595 C594 1.334 . S
C595 C596 1.287 . S
C596 C595 1.287 . S
C596 C597 1.524 . S
C596 H599 0.999 . S
C597 H567 0.950 . S
C597 C596 1.524 . S
C597 C598 1.415 . S
C598 H568 0.950 . S
C598 C593 1.363 . S
C598 C597 1.415 . S
H599 C596 0.999 . S
H600 C581 0.913 . S
H601 C619 0.951 . S
H602 C621 0.951 . S
H603 C623 0.950 . S
H604 C624 0.950 . S
H605 C626 0.950 . S
H606 C629 0.950 1_655 S
H607 C630 0.950 1_655 S
H608 C632 0.950 . S
H609 C633 0.950 . S
H610 C634 0.951 1_655 S
H611 C636 0.951 1_655 S
H612 C638 0.950 . S
H613 C639 0.950 . S
H614 C641 0.950 . S
H615 C644 0.950 . S
H616 C645 0.950 . S
H617 C647 0.950 . S
H618 C648 0.950 . S
C619 H601 0.951 . S
C619 C620 1.366 . S
C619 C621 1.388 1_545 S
C620 C619 1.366 . S
C620 C624 1.385 1_445 S
C621 H602 0.951 . S
C621 C619 1.388 1_565 S
C621 C622 1.366 . S
C622 C621 1.366 . S
C622 C623 1.414 1_455 S
C622 C625 1.499 . S
C623 H603 0.950 . S
C623 C622 1.414 1_655 S
C623 C624 1.374 . S
C624 H604 0.950 . S
C624 C620 1.385 1_665 S
C624 C623 1.374 . S
C625 C622 1.499 . S
C625 C626 1.373 . S
C625 C627 1.389 . S
C626 H605 0.950 . S
C626 C625 1.373 . S
C626 C642 1.377 . S
C627 C625 1.389 . S
C627 C628 1.524 . S
C627 C641 1.377 . S
C628 C627 1.524 . S
C628 C629 1.397 . S
C628 C633 1.363 . S
C629 H606 0.950 1_455 S
C629 C628 1.397 . S
C629 C630 1.334 1_565 S
C630 H607 0.950 1_455 S
C630 C629 1.334 1_545 S
C630 C631 1.287 . S
C631 C630 1.287 . S
C631 C632 1.524 . S
C631 H650 0.913 . S
C632 H608 0.950 . S
C632 C631 1.524 . S
C632 C633 1.415 1_545 S
C633 H609 0.950 . S
C633 C628 1.363 . S
C633 C632 1.415 1_565 S
C634 H610 0.951 1_455 S
C634 C635 1.366 . S
C634 C636 1.388 . S
C635 C634 1.366 . S
C635 C639 1.385 . S
C636 H611 0.951 1_455 S
C636 C634 1.388 . S
C636 C637 1.366 . S
C637 C636 1.366 . S
C637 C638 1.414 . S
C637 C640 1.499 . S
C638 H612 0.950 . S
C638 C637 1.414 . S
C638 C639 1.374 . S
C639 H613 0.950 . S
C639 C635 1.385 . S
C639 C638 1.374 . S
C640 C637 1.499 . S
C640 C641 1.373 . S
C640 C642 1.389 . S
C641 H614 0.950 . S
C641 C627 1.377 . S
C641 C640 1.373 . S
C642 C626 1.377 . S
C642 C640 1.389 . S
C642 C643 1.524 . S
C643 C642 1.524 . S
C643 C644 1.397 . S
C643 C648 1.363 1_455 S
C644 H615 0.950 . S
C644 C643 1.397 . S
C644 C645 1.334 . S
C645 H616 0.950 . S
C645 C644 1.334 . S
C645 C646 1.287 . S
C646 C645 1.287 . S
C646 C647 1.524 1_455 S
C646 H649 0.999 . S
C647 H617 0.950 . S
C647 C646 1.524 1_655 S
C647 C648 1.415 . S
C648 H618 0.950 . S
C648 C643 1.363 1_655 S
C648 C647 1.415 . S
H649 C646 0.999 . S
H650 C631 0.913 . S
H651 C669 0.951 . S
H652 C671 0.951 . S
H653 C673 0.950 . S
H654 C674 0.950 . S
H655 C676 0.950 . S
H656 C679 0.950 . S
H657 C680 0.950 . S
H658 C682 0.950 . S
H659 C683 0.950 . S
H660 C684 0.951 . S
H661 C686 0.951 . S
H662 C688 0.950 . S
H663 C689 0.950 . S
H664 C691 0.950 1_565 S
H665 C694 0.950 . S
H666 C695 0.950 . S
H667 C697 0.950 . S
H668 C698 0.950 . S
C669 H651 0.951 . S
C669 C670 1.366 1_565 S
C669 C671 1.388 . S
C670 C669 1.366 1_545 S
C670 C674 1.385 . S
C671 H652 0.951 . S
C671 C669 1.388 . S
C671 C672 1.366 1_565 S
C672 C671 1.366 1_545 S
C672 C673 1.414 . S
C672 C675 1.499 . S
C673 H653 0.950 . S
C673 C672 1.414 . S
C673 C674 1.374 . S
C674 H654 0.950 . S
C674 C670 1.385 . S
C674 C673 1.374 . S
C675 C672 1.499 . S
C675 C676 1.373 . S
C675 C677 1.389 . S
C676 H655 0.950 . S
C676 C675 1.373 . S
C676 C692 1.377 . S
C677 C675 1.389 . S
C677 C678 1.524 1_545 S
C677 C691 1.377 . S
C678 C677 1.524 1_565 S
C678 C679 1.397 . S
C678 C683 1.363 . S
C679 H656 0.950 . S
C679 C678 1.397 . S
C679 C680 1.334 . S
C680 H657 0.950 . S
C680 C679 1.334 . S
C680 C681 1.287 . S
C681 C680 1.287 . S
C681 C682 1.524 . S
C681 H700 0.913 . S
C682 H658 0.950 . S
C682 C681 1.524 . S
C682 C683 1.415 . S
C683 H659 0.950 . S
C683 C678 1.363 . S
C683 C682 1.415 . S
C684 H660 0.951 . S
C684 C685 1.366 . S
C684 C686 1.388 . S
C685 C684 1.366 . S
C685 C689 1.385 . S
C686 H661 0.951 . S
C686 C684 1.388 . S
C686 C687 1.366 . S
C687 C686 1.366 . S
C687 C688 1.414 . S
C687 C690 1.499 . S
C688 H662 0.950 . S
C688 C687 1.414 . S
C688 C689 1.374 . S
C689 H663 0.950 . S
C689 C685 1.385 . S
C689 C688 1.374 . S
C690 C687 1.499 . S
C690 C691 1.373 . S
C690 C692 1.389 . S
C691 H664 0.950 1_545 S
C691 C677 1.377 . S
C691 C690 1.373 . S
C692 C676 1.377 . S
C692 C690 1.389 . S
C692 C693 1.524 . S
C693 C692 1.524 . S
C693 C694 1.397 . S
C693 C698 1.363 . S
C694 H665 0.950 . S
C694 C693 1.397 . S
C694 C695 1.334 . S
C695 H666 0.950 . S
C695 C694 1.334 . S
C695 C696 1.287 . S
C696 C695 1.287 . S
C696 C697 1.524 . S
C696 H699 0.999 . S
C697 H667 0.950 . S
C697 C696 1.524 . S
C697 C698 1.415 . S
C698 H668 0.950 . S
C698 C693 1.363 . S
C698 C697 1.415 . S
H699 C696 0.999 . S
H700 C681 0.913 . S
H701 C719 0.951 . S
H702 C721 0.951 . S
H703 C723 0.950 . S
H704 C724 0.950 . S
H705 C726 0.950 . S
H706 C729 0.950 . S
H707 C730 0.950 1_554 S
H708 C732 0.950 . S
H709 C733 0.950 . S
H710 C734 0.951 . S
H711 C736 0.951 . S
H712 C738 0.950 . S
H713 C739 0.950 . S
H714 C741 0.950 . S
H715 C744 0.950 . S
H716 C745 0.950 . S
H717 C747 0.950 . S
H718 C748 0.950 . S
C719 H701 0.951 . S
C719 C720 1.366 . S
C719 C721 1.388 . S
C720 C719 1.366 . S
C720 C724 1.385 1_556 S
C721 H702 0.951 . S
C721 C719 1.388 . S
C721 C722 1.366 . S
C722 C721 1.366 . S
C722 C723 1.414 . S
C722 C725 1.499 . S
C723 H703 0.950 . S
C723 C722 1.414 . S
C723 C724 1.374 1_556 S
C724 H704 0.950 . S
C724 C720 1.385 1_554 S
C724 C723 1.374 1_554 S
C725 C722 1.499 . S
C725 C726 1.373 . S
C725 C727 1.389 . S
C726 H705 0.950 . S
C726 C725 1.373 . S
C726 C742 1.377 . S
C727 C725 1.389 . S
C727 C728 1.524 . S
C727 C741 1.377 . S
C728 C727 1.524 . S
C728 C729 1.397 . S
C728 C733 1.363 . S
C729 H706 0.950 . S
C729 C728 1.397 . S
C729 C730 1.334 . S
C730 H707 0.950 1_556 S
C730 C729 1.334 . S
C730 C731 1.287 . S
C731 C730 1.287 . S
C731 C732 1.524 . S
C731 H750 0.913 . S
C732 H708 0.950 . S
C732 C731 1.524 . S
C732 C733 1.415 . S
C733 H709 0.950 . S
C733 C728 1.363 . S
C733 C732 1.415 . S
C734 H710 0.951 . S
C734 C735 1.366 . S
C734 C736 1.388 . S
C735 C734 1.366 . S
C735 C739 1.385 . S
C736 H711 0.951 . S
C736 C734 1.388 . S
C736 C737 1.366 . S
C737 C736 1.366 . S
C737 C738 1.414 . S
C737 C740 1.499 . S
C738 H712 0.950 . S
C738 C737 1.414 . S
C738 C739 1.374 . S
C739 H713 0.950 . S
C739 C735 1.385 . S
C739 C738 1.374 . S
C740 C737 1.499 . S
C740 C741 1.373 . S
C740 C742 1.389 . S
C741 H714 0.950 . S
C741 C727 1.377 . S
C741 C740 1.373 . S
C742 C726 1.377 . S
C742 C740 1.389 . S
C742 C743 1.524 . S
C743 C742 1.524 . S
C743 C744 1.397 . S
C743 C748 1.363 . S
C744 H715 0.950 . S
C744 C743 1.397 . S
C744 C745 1.334 . S
C745 H716 0.950 . S
C745 C744 1.334 . S
C745 C746 1.287 . S
C746 C745 1.287 . S
C746 C747 1.524 . S
C746 H749 0.999 . S
C747 H717 0.950 . S
C747 C746 1.524 . S
C747 C748 1.415 . S
C748 H718 0.950 . S
C748 C743 1.363 . S
C748 C747 1.415 . S
H749 C746 0.999 . S
H750 C731 0.913 . S
H751 C769 0.951 1_655 S
H752 C771 0.951 1_655 S
H753 C773 0.950 . S
H754 C774 0.950 . S
H755 C776 0.950 . S
H756 C779 0.950 . S
H757 C780 0.950 . S
H758 C782 0.950 . S
H759 C783 0.950 . S
H760 C784 0.951 . S
H761 C786 0.951 . S
H762 C788 0.950 1_655 S
H763 C789 0.950 1_655 S
H764 C791 0.937 1_655 S
H765 C794 0.950 . S
H766 C795 0.950 . S
H767 C797 0.950 . S
H768 C798 0.950 . S
C769 H751 0.951 1_455 S
C769 C770 1.366 . S
C769 C771 1.388 . S
C770 C769 1.366 . S
C770 C774 1.385 . S
C771 H752 0.951 1_455 S
C771 C769 1.388 . S
C771 C772 1.366 . S
C772 C771 1.366 . S
C772 C773 1.414 . S
C772 C775 1.499 . S
C773 H753 0.950 . S
C773 C772 1.414 . S
C773 C774 1.374 . S
C774 H754 0.950 . S
C774 C770 1.385 . S
C774 C773 1.374 . S
C775 C772 1.499 . S
C775 C776 1.373 . S
C775 C777 1.389 . S
C776 H755 0.950 . S
C776 C775 1.373 . S
C776 C792 1.377 . S
C777 C775 1.389 . S
C777 C778 1.524 1_455 S
C777 C791 1.377 . S
C778 C777 1.524 1_655 S
C778 C779 1.397 1_655 S
C778 C783 1.363 . S
C779 H756 0.950 . S
C779 C778 1.397 1_455 S
C779 C780 1.334 1_455 S
C780 H757 0.950 . S
C780 C779 1.334 1_655 S
C780 C781 1.287 . S
C781 C780 1.287 . S
C781 C782 1.524 . S
C781 H800 0.913 . S
C782 H758 0.950 . S
C782 C781 1.524 . S
C782 C783 1.415 . S
C783 H759 0.950 . S
C783 C778 1.363 . S
C783 C782 1.415 . S
C784 H760 0.951 . S
C784 C785 1.366 . S
C784 C786 1.388 . S
C785 C784 1.366 . S
C785 C789 1.385 . S
C786 H761 0.951 . S
C786 C784 1.388 . S
C786 C787 1.366 . S
C787 C786 1.366 . S
C787 C788 1.414 . S
C787 C790 1.499 . S
C788 H762 0.950 1_455 S
C788 C787 1.414 . S
C788 C789 1.374 . S
C789 H763 0.950 1_455 S
C789 C785 1.385 . S
C789 C788 1.374 . S
C790 C787 1.499 . S
C790 C791 1.373 . S
C790 C792 1.389 . S
C791 H764 0.937 1_455 S
C791 C777 1.377 . S
C791 C790 1.373 . S
C792 C776 1.377 . S
C792 C790 1.389 . S
C792 C793 1.524 . S
C793 C792 1.524 . S
C793 C794 1.397 . S
C793 C798 1.363 . S
C794 H765 0.950 . S
C794 C793 1.397 . S
C794 C795 1.334 . S
C795 H766 0.950 . S
C795 C794 1.334 . S
C795 C796 1.287 . S
C796 C795 1.287 . S
C796 C797 1.524 . S
C796 H799 0.999 . S
C797 H767 0.950 . S
C797 C796 1.524 . S
C797 C798 1.415 . S
C798 H768 0.950 . S
C798 C793 1.363 . S
C798 C797 1.415 . S
H799 C796 0.999 . S
H800 C781 0.913 . S
C235 C64 1.311 . S
C220 C11 1.300 . S
C270 C25 1.363 . S
C285 C134 1.376 . S
C320 C41 1.358 1_655 S
C335 C186 1.414 . S
C370 C7 1.329 1_565 S
C385 C80 1.330 . S
C435 C124 1.403 . S
C420 C21 1.400 . S
C470 C36 1.378 . S
C485 C170 1.432 . S
C535 C117 1.375 . S
C520 C39 1.364 1_655 S
C570 C8 1.377 1_565 S
C585 C177 1.427 . S
C635 C71 1.490 . S
C620 C22 1.436 . S
C685 C133 1.396 . S
C670 C35 1.393 . S
C735 C187 1.409 . S
C720 C13 1.352 1_556 S
C770 C27 1.413 . S
C785 C81 1.464 . S
