# Generated by pormake.
# Topology pth, (4,4)-cn, num edge types: 1
# Building blocks:
#     Node 0, Type 0, BuildingBlock: NAHDIM_clean_sbu_0, # of connection points: 4
#     Node 1, Type 0, BuildingBlock: NAHDIM_clean_sbu_0, # of connection points: 4
#     Node 2, Type 0, BuildingBlock: NAHDIM_clean_sbu_0, # of connection points: 4
#     Node 3, Type 1, BuildingBlock: KOZSID_clean_sbu_0, # of connection points: 4
#     Node 4, Type 1, BuildingBlock: KOZSID_clean_sbu_0, # of connection points: 4
#     Node 5, Type 1, BuildingBlock: KOZSID_clean_sbu_0, # of connection points: 4
#     Edge 6, Type (0, 1), BuildingBlock: MIFKUJ_clean_linker_0, # of connection points: 2
#     Edge 7, Type (0, 1), BuildingBlock: MIFKUJ_clean_linker_0, # of connection points: 2
#     Edge 8, Type (0, 1), BuildingBlock: MIFKUJ_clean_linker_0, # of connection points: 2
#     Edge 9, Type (0, 1), BuildingBlock: MIFKUJ_clean_linker_0, # of connection points: 2
#     Edge 10, Type (0, 1), BuildingBlock: MIFKUJ_clean_linker_0, # of connection points: 2
#     Edge 11, Type (0, 1), BuildingBlock: MIFKUJ_clean_linker_0, # of connection points: 2
#     Edge 12, Type (0, 1), BuildingBlock: MIFKUJ_clean_linker_0, # of connection points: 2
#     Edge 13, Type (0, 1), BuildingBlock: MIFKUJ_clean_linker_0, # of connection points: 2
#     Edge 14, Type (0, 1), BuildingBlock: MIFKUJ_clean_linker_0, # of connection points: 2
#     Edge 15, Type (0, 1), BuildingBlock: MIFKUJ_clean_linker_0, # of connection points: 2
#     Edge 16, Type (0, 1), BuildingBlock: MIFKUJ_clean_linker_0, # of connection points: 2
#     Edge 17, Type (0, 1), BuildingBlock: MIFKUJ_clean_linker_0, # of connection points: 2
# Relax obj value: 0.042
# Max RMSD: 0.168
# Mean RMSD: 0.085
data_MOF--net-pth--node1-NAHDIM_clean_sbu_0--node2-KOZSID_clean_sbu_0--edge1-MIFKUJ_clean_linker_0
_symmetry_space_group_name_H-M    P1
_symmetry_Int_Tables_number       1
_symmetry_cell_setting            triclinic
loop_
_symmetry_equiv_pos_as_xyz
'x, y, z'
_cell_length_a     33.770845
_cell_length_b     33.919648
_cell_length_c     75.519906
_cell_angle_alpha  89.729576
_cell_angle_beta   87.884203
_cell_angle_gamma 120.60105
loop_
_atom_site_label
_atom_site_type_symbol
_atom_site_fract_x
_atom_site_fract_y
_atom_site_fract_z
_atom_type_partial_charge
C0 C 0.07319 0.0179 0.07351 0.0
O1 O 0.07389 0.05267 0.08139 0.0
O2 O 0.0407 0.09491 0.05683 0.0
Zn3 Zn 0.05397 0.05398 0.04191 0.0
O4 O -0.0008 0.01318 0.02798 0.0
C5 C 0.14019 0.13134 0.03139 0.0
O6 O 0.13921 0.13906 0.04839 0.0
O7 O 0.06716 0.01334 0.05696 0.0
C8 C 0.98477 0.02761 0.01568 0.0
O9 O 0.00617 0.07171 0.01176 0.0
C10 C 0.00523 0.08237 0.06695 0.0
O11 O 0.97321 0.03881 0.06824 0.0
O12 O 0.10754 0.09474 0.02534 0.0
C13 C 0.0588 0.1542 0.34218 0.0
O14 O 0.02741 0.11155 0.33921 0.0
O15 O 0.05875 0.0558 0.3548 0.0
Zn16 Zn 0.06851 0.10721 0.37056 0.0
O17 O 0.01092 0.09105 0.38506 0.0
C18 C 0.10831 0.08784 0.39883 0.0
O19 O 0.06565 0.05346 0.40044 0.0
O20 O 0.08387 0.16246 0.35541 0.0
C21 C 0.01474 0.1141 0.39876 0.0
O22 O 0.05585 0.1467 0.40302 0.0
C23 C 0.02801 0.01416 0.3579 0.0
O24 O -0.0002 0.00332 0.37189 0.0
O25 O 0.11908 0.11809 0.38666 0.0
C26 C 0.10045 0.03207 0.67527 0.0
O27 O 0.08707 0.06073 0.67068 0.0
O28 O 0.00617 0.03793 0.69035 0.0
Zn29 Zn 0.04518 0.02429 0.70564 0.0
O30 O 0.08657 0.07865 0.71995 0.0
C31 C 0.98499 0.97861 0.73558 0.0
O32 O 0.99724 0.02109 0.73916 0.0
O33 O 0.08579 0.01034 0.69006 0.0
C34 C 0.10692 0.07244 0.73254 0.0
O35 O 0.09952 0.03107 0.73578 0.0
C36 C 0.99105 0.06419 0.69461 0.0
O37 O 0.0017 0.08493 0.70983 0.0
O38 O 0.00222 0.9708 0.72174 0.0
C39 C 0.06483 0.63502 0.17726 0.0
C40 C 0.10709 0.66676 0.16924 0.0
C41 C 0.13957 0.6616 0.1774 0.0
C42 C 0.11539 0.6272 0.18986 0.0
N43 N 0.06931 0.60955 0.19001 0.0
Co44 Co 0.02126 0.55994 0.20627 0.0
N45 N 0.06953 0.55611 0.21965 0.0
C46 C 0.11575 0.58149 0.21659 0.0
C47 C 0.14009 0.56997 0.22742 0.0
C48 C 0.10761 0.53498 0.23802 0.0
C49 C 0.06499 0.52734 0.23312 0.0
N50 N 0.97315 0.50991 0.22238 0.0
C51 C 0.97777 0.48568 0.23564 0.0
C52 C 0.93539 0.45356 0.24346 0.0
C53 C 0.90274 0.45692 0.23459 0.0
C54 C 0.92691 0.49089 0.22197 0.0
N55 N 0.97311 0.56445 0.19306 0.0
C56 C 0.92686 0.53906 0.19594 0.0
C57 C 0.90295 0.55163 0.18527 0.0
C58 C 0.93588 0.58774 0.17515 0.0
C59 C 0.97806 0.59503 0.18029 0.0
N60 N 0.01772 0.51276 0.18985 0.0
C61 C 0.01192 0.44147 0.16897 0.0
C62 C 0.97238 0.44212 0.17451 0.0
C63 C 0.97604 0.47773 0.18483 0.0
C64 C 0.05455 0.47791 0.17359 0.0
C65 C 0.05664 0.51299 0.18386 0.0
N66 N 0.02461 0.60675 0.22274 0.0
C67 C 0.98642 0.63563 0.24168 0.0
C68 C 0.02857 0.67316 0.24599 0.0
C69 C 0.06882 0.67702 0.23842 0.0
C70 C 0.06608 0.64364 0.22692 0.0
C71 C 0.98525 0.60318 0.23014 0.0
H72 H 0.09789 0.64837 0.22156 0.0
H73 H 0.952 0.57565 0.22735 0.0
H74 H 0.94453 0.47573 0.18872 0.0
H75 H 0.09013 0.53947 0.18699 0.0
C76 C 0.13519 0.61355 0.20257 0.0
C77 C 0.02188 0.63253 0.17317 0.0
C78 C 0.02123 0.49093 0.24101 0.0
C79 C 0.90715 0.50546 0.20949 0.0
H80 H 0.11388 0.69198 0.15894 0.0
H81 H 0.17653 0.68168 0.17499 0.0
H82 H 0.17699 0.58429 0.22724 0.0
H83 H 0.11481 0.51656 0.24788 0.0
H84 H 0.92877 0.4298 0.25435 0.0
H85 H 0.86577 0.43672 0.23695 0.0
H86 H 0.86604 0.53713 0.18521 0.0
H87 H 0.92969 0.60718 0.16536 0.0
H88 H 0.93857 0.41523 0.17093 0.0
H89 H 0.08626 0.47895 0.16969 0.0
H90 H 0.95423 0.63155 0.24695 0.0
H91 H 0.10235 0.70538 0.24148 0.0
C92 C 0.47627 0.01736 0.56637 0.0
C93 C 0.44179 0.97398 0.5723 0.0
C94 C 0.44805 0.94327 0.56288 0.0
C95 C 0.48557 0.96941 0.55171 0.0
N96 N 0.50405 0.01509 0.5535 0.0
Co97 Co 0.55717 0.06544 0.53914 0.0
N98 N 0.56378 0.01997 0.52428 0.0
C99 C 0.53775 0.97372 0.52567 0.0
C100 C 0.55162 0.95153 0.51419 0.0
C101 C 0.589 0.98554 0.50496 0.0
C102 C 0.59561 0.02678 0.51131 0.0
N103 N 0.61038 0.11579 0.52483 0.0
C104 C 0.63737 0.11345 0.51165 0.0
C105 C 0.67067 0.15669 0.50518 0.0
C106 C 0.66521 0.18753 0.51488 0.0
C107 C 0.6289 0.16151 0.52659 0.0
N108 N 0.55046 0.11091 0.55392 0.0
C109 C 0.57671 0.15718 0.55268 0.0
C110 C 0.56349 0.17919 0.56456 0.0
C111 C 0.52616 0.14502 0.57379 0.0
C112 C 0.51863 0.104 0.5669 0.0
N113 N 0.60071 0.06528 0.55604 0.0
C114 C 0.66318 0.06566 0.57978 0.0
C115 C 0.66618 0.10643 0.5743 0.0
C116 C 0.63505 0.10548 0.56246 0.0
C117 C 0.62847 0.02462 0.5732 0.0
C118 C 0.59766 0.02518 0.5615 0.0
N119 N 0.51362 0.0657 0.52229 0.0
C120 C 0.48603 0.10728 0.50569 0.0
C121 C 0.44906 0.0665 0.49996 0.0
C122 C 0.44538 0.02525 0.50533 0.0
C123 C 0.47788 0.02565 0.51637 0.0
C124 C 0.51761 0.1061 0.51671 0.0
H125 H 0.47312 0.99314 0.52004 0.0
H126 H 0.54454 0.13837 0.52074 0.0
H127 H 0.63975 0.1378 0.55864 0.0
H128 H 0.57176 0.99279 0.55707 0.0
C129 C 0.50221 0.95206 0.53861 0.0
C130 C 0.47979 0.05956 0.57269 0.0
C131 C 0.63383 0.07137 0.50522 0.0
C132 C 0.61237 0.17899 0.53974 0.0
H133 H 0.41414 0.96516 0.58207 0.0
H134 H 0.42687 0.90628 0.56368 0.0
H135 H 0.53708 0.91496 0.51302 0.0
H136 H 0.60959 0.98032 0.49499 0.0
H137 H 0.69667 0.16507 0.49469 0.0
H138 H 0.68572 0.22453 0.51371 0.0
H139 H 0.57864 0.21574 0.56608 0.0
H140 H 0.50619 0.14974 0.58421 0.0
H141 H 0.693 0.13913 0.57889 0.0
H142 H 0.62473 0.99214 0.57721 0.0
H143 H 0.49007 0.14012 0.50207 0.0
H144 H 0.41762 0.99276 0.50102 0.0
C145 C 0.61156 0.59016 0.84988 0.0
C146 C 0.64681 0.5817 0.84547 0.0
C147 C 0.64107 0.54723 0.85658 0.0
C148 C 0.60298 0.53676 0.86715 0.0
N149 N 0.58362 0.56211 0.86335 0.0
Co150 Co 0.52896 0.55963 0.87595 0.0
N151 N 0.52331 0.51189 0.89333 0.0
C152 C 0.55073 0.49363 0.89411 0.0
C153 C 0.53801 0.46134 0.90745 0.0
C154 C 0.49987 0.4584 0.91559 0.0
C155 C 0.49146 0.48908 0.90664 0.0
N156 N 0.47409 0.55688 0.8885 0.0
C157 C 0.44662 0.52925 0.90215 0.0
C158 C 0.41122 0.53739 0.90659 0.0
C159 C 0.41621 0.57115 0.89521 0.0
C160 C 0.45417 0.58158 0.88452 0.0
N161 N 0.53491 0.60766 0.85866 0.0
C162 C 0.50753 0.62597 0.8579 0.0
C163 C 0.52089 0.65894 0.84478 0.0
C164 C 0.55954 0.66244 0.83684 0.0
C165 C 0.56759 0.63138 0.84568 0.0
N166 N 0.48726 0.51066 0.86008 0.0
C167 C 0.42647 0.44005 0.83833 0.0
C168 C 0.42227 0.47838 0.84121 0.0
C169 C 0.45266 0.51289 0.85208 0.0
C170 C 0.46178 0.43774 0.84639 0.0
C171 C 0.49166 0.47322 0.85706 0.0
N172 N 0.5706 0.60861 0.8918 0.0
C173 C 0.59509 0.68093 0.90584 0.0
C174 C 0.63178 0.67981 0.91323 0.0
C175 C 0.63709 0.64228 0.90987 0.0
C176 C 0.60643 0.60742 0.89919 0.0
C177 C 0.56503 0.64515 0.89532 0.0
H178 H 0.61276 0.58015 0.89696 0.0
H179 H 0.53775 0.64801 0.89011 0.0
H180 H 0.44711 0.54077 0.85391 0.0
H181 H 0.51789 0.46944 0.86277 0.0
C182 C 0.58683 0.50589 0.8816 0.0
C183 C 0.60766 0.62695 0.84167 0.0
C184 C 0.45161 0.4937 0.91079 0.0
C185 C 0.47077 0.61297 0.87021 0.0
H186 H 0.67465 0.59937 0.8356 0.0
H187 H 0.66299 0.53264 0.85728 0.0
H188 H 0.55397 0.44161 0.91064 0.0
H189 H 0.47994 0.43564 0.92666 0.0
H190 H 0.38416 0.52012 0.9168 0.0
H191 H 0.39422 0.58568 0.89456 0.0
H192 H 0.50502 0.67877 0.84163 0.0
H193 H 0.58001 0.68579 0.82599 0.0
H194 H 0.39506 0.4814 0.83538 0.0
H195 H 0.46666 0.40887 0.84437 0.0
H196 H 0.58934 0.70912 0.90826 0.0
H197 H 0.6654 0.64021 0.91514 0.0
H198 H 0.06336 0.17479 0.06553 0.0
H199 H 0.06006 0.23189 0.08389 0.0
H200 H 0.93655 0.12591 0.11122 0.0
H201 H 0.93916 0.06812 0.0926 0.0
H202 H 0.93068 0.20142 0.10353 0.0
H203 H 0.03722 0.17032 0.13093 0.0
H204 H 0.10402 0.15963 0.13222 0.0
H205 H 0.19418 0.29905 0.11433 0.0
H206 H 0.12782 0.3104 0.11267 0.0
H207 H 0.94842 0.35012 0.17371 0.0
H208 H 0.94333 0.28634 0.15696 0.0
H209 H 0.06331 0.38089 0.12472 0.0
H210 H 0.06815 0.44503 0.14113 0.0
H211 H 0.06756 0.30649 0.13701 0.0
H212 H 0.95938 0.33549 0.10826 0.0
H213 H 0.89207 0.3454 0.1071 0.0
H214 H 0.80434 0.20865 0.12827 0.0
H215 H 0.87129 0.19816 0.12979 0.0
C216 C 0.03536 0.16346 0.0754 0.0
C217 C 0.00167 0.11682 0.0777 0.0
C218 C 0.03364 0.19619 0.08594 0.0
C219 C -0.00147 0.18302 0.09912 0.0
C220 C 0.96407 0.13668 0.10117 0.0
C221 C 0.96566 0.10376 0.09055 0.0
C222 C 0.99845 0.21796 0.11077 0.0
C223 C 0.96024 0.22389 0.11111 0.0
C224 C 0.03736 0.24765 0.12043 0.0
C225 C 0.07746 0.24109 0.12154 0.0
C226 C 0.07125 0.19861 0.12715 0.0
C227 C 0.10904 0.19245 0.12796 0.0
C228 C 0.1533 0.22861 0.12333 0.0
C229 C 0.15987 0.27106 0.11791 0.0
C230 C 0.12218 0.27739 0.11704 0.0
C231 C 0.97336 0.35746 0.16289 0.0
C232 C 0.00862 0.40274 0.15871 0.0
C233 C 0.97049 0.32094 0.15339 0.0
C234 C 0.00277 0.329 0.13955 0.0
C235 C 0.03814 0.37402 0.1354 0.0
C236 C 0.04094 0.41058 0.14484 0.0
C237 C 0.00016 0.29046 0.12951 0.0
C238 C 0.03786 0.28379 0.12953 0.0
C239 C 0.96071 0.26001 0.12027 0.0
C240 C 0.92042 0.26623 0.11933 0.0
C241 C 0.9258 0.30768 0.11281 0.0
C242 C 0.8877 0.31337 0.11206 0.0
C243 C 0.84397 0.27773 0.11766 0.0
C244 C 0.83824 0.23626 0.12397 0.0
C245 C 0.87625 0.23041 0.12477 0.0
H246 H 0.81452 0.2822 0.11706 0.0
H247 H 0.18252 0.22377 0.12397 0.0
H248 H 0.9246 0.06373 0.39009 0.0
H249 H 0.85683 0.05195 0.40769 0.0
H250 H 0.94402 0.13216 0.44939 0.0
H251 H 0.01192 0.14448 0.43186 0.0
H252 H 0.86376 0.04888 0.46129 0.0
H253 H 0.90798 0.18171 0.42321 0.0
H254 H 0.92579 0.22349 0.39455 0.0
H255 H 0.79138 0.12617 0.37723 0.0
H256 H 0.77294 0.0834 0.40578 0.0
H257 H 0.72182 0.10183 0.5138 0.0
H258 H 0.78415 0.10517 0.49497 0.0
H259 H 0.6918 0.04855 0.45198 0.0
H260 H 0.63012 0.04744 0.47065 0.0
H261 H 0.77094 0.11342 0.43961 0.0
H262 H 0.72263 0.98303 0.47758 0.0
H263 H 0.70227 0.93944 0.50595 0.0
H264 H 0.84003 0.02609 0.52273 0.0
H265 H 0.86106 0.0707 0.49455 0.0
C266 C 0.9293 0.07865 0.40304 0.0
C267 C 0.97357 0.1052 0.40958 0.0
C268 C 0.89061 0.07197 0.41304 0.0
C269 C 0.8956 0.09139 0.42976 0.0
C270 C 0.93958 0.11691 0.4365 0.0
C271 C 0.9783 0.12406 0.42644 0.0
C272 C 0.85516 0.0862 0.44012 0.0
C273 C 0.84358 0.06324 0.45666 0.0
C274 C 0.82812 0.10367 0.43374 0.0
C275 C 0.8393 0.12909 0.41653 0.0
C276 C 0.8824 0.16895 0.41322 0.0
C277 C 0.89256 0.19288 0.397 0.0
C278 C 0.8598 0.17746 0.38403 0.0
C279 C 0.81676 0.13805 0.38727 0.0
C280 C 0.80641 0.11396 0.40347 0.0
C281 C 0.71516 0.09037 0.50029 0.0
C282 C 0.67145 0.07397 0.49361 0.0
C283 C 0.75049 0.09186 0.4896 0.0
C284 C 0.74235 0.07608 0.47219 0.0
C285 C 0.69878 0.06058 0.46541 0.0
C286 C 0.66362 0.05977 0.47603 0.0
C287 C 0.77958 0.07651 0.46099 0.0
C288 C 0.79063 0.09853 0.44425 0.0
C289 C 0.80567 0.05751 0.46709 0.0
C290 C 0.79332 0.03045 0.48399 0.0
C291 C 0.74852 0.99299 0.48736 0.0
C292 C 0.73686 0.96808 0.5034 0.0
C293 C 0.76981 0.98005 0.51615 0.0
C294 C 0.81453 0.01689 0.51285 0.0
C295 C 0.82636 0.04197 0.49683 0.0
H296 H 0.76071 0.96073 0.52857 0.0
H297 H 0.86769 0.19612 0.3715 0.0
H298 H 0.95086 0.98401 0.76817 0.0
H299 H 0.8886 0.9217 0.78615 0.0
H300 H 0.87589 0.82497 0.74665 0.0
H301 H 0.93839 0.88717 0.72855 0.0
H302 H 0.79191 0.81772 0.75747 0.0
H303 H 0.92272 0.82491 0.78382 0.0
H304 H 0.99791 0.86307 0.79767 0.0
H305 H 0.94117 0.90393 0.8407 0.0
H306 H 0.86577 0.86657 0.82697 0.0
H307 H 0.63533 0.61787 0.80837 0.0
H308 H 0.70134 0.67618 0.79019 0.0
H309 H 0.7316 0.77409 0.83144 0.0
H310 H 0.66651 0.71517 0.84979 0.0
H311 H 0.80801 0.77915 0.81924 0.0
H312 H 0.67945 0.7764 0.79336 0.0
H313 H 0.60386 0.7413 0.77989 0.0
H314 H 0.65533 0.69628 0.73646 0.0
H315 H 0.73109 0.73052 0.74982 0.0
C316 C 0.93509 0.94945 0.76335 0.0
C317 C 0.94948 0.94048 0.74693 0.0
C318 C 0.89963 0.9139 0.77367 0.0
C319 C 0.87786 0.86881 0.76773 0.0
C320 C 0.89237 0.85961 0.75143 0.0
C321 C 0.92816 0.89512 0.74117 0.0
C322 C 0.83881 0.8316 0.7783 0.0
C323 C 0.79548 0.80866 0.77088 0.0
C324 C 0.84344 0.82099 0.79594 0.0
C325 C 0.88869 0.84328 0.80428 0.0
C326 C 0.92636 0.84235 0.79616 0.0
C327 C 0.96901 0.86378 0.80401 0.0
C328 C 0.97434 0.88601 0.82003 0.0
C329 C 0.937 0.88674 0.82827 0.0
C330 C 0.89429 0.8654 0.82048 0.0
C331 C 0.65627 0.65192 0.81344 0.0
C332 C 0.64641 0.66239 0.83038 0.0
C333 C 0.69369 0.6852 0.80309 0.0
C334 C 0.72117 0.72964 0.8094 0.0
C335 C 0.71095 0.74004 0.82633 0.0
C336 C 0.6738 0.70663 0.83674 0.0
C337 C 0.76086 0.76521 0.79846 0.0
C338 C 0.80436 0.78794 0.8058 0.0
C339 C 0.75627 0.77605 0.78081 0.0
C340 C 0.71081 0.75562 0.77269 0.0
C341 C 0.67455 0.75871 0.78101 0.0
C342 C 0.63169 0.73901 0.77338 0.0
C343 C 0.62476 0.71647 0.75735 0.0
C344 C 0.66073 0.71369 0.74889 0.0
C345 C 0.70365 0.73325 0.75648 0.0
H346 H 0.59155 0.70126 0.75146 0.0
H347 H 0.00739 0.90258 0.82608 0.0
H348 H 0.07181 0.00922 0.10961 0.0
H349 H 0.06471 0.94455 0.12682 0.0
H350 H 0.06913 0.87944 0.07845 0.0
H351 H 0.07542 0.9435 0.06114 0.0
H352 H -0.00077 0.82097 0.1 0.0
H353 H 0.16055 0.9274 0.10568 0.0
H354 H 0.22889 0.00094 0.1128 0.0
H355 H 0.17785 0.98512 0.16685 0.0
H356 H 0.10887 0.91174 0.16 0.0
H357 H 0.0283 0.64491 0.13739 0.0
H358 H 0.03739 0.71156 0.12068 0.0
H359 H 0.02886 0.77231 0.16973 0.0
H360 H 0.0204 0.70579 0.18637 0.0
H361 H 0.10018 0.83317 0.14832 0.0
H362 H 0.93943 0.72612 0.1427 0.0
H363 H 0.87159 0.65217 0.13562 0.0
H364 H 0.92178 0.66911 0.08141 0.0
H365 H 0.99034 0.74286 0.08822 0.0
C366 C 0.07186 0.98142 0.10263 0.0
C367 C 0.07401 0.98143 0.084 0.0
C368 C 0.0679 0.94451 0.1125 0.0
C369 C 0.06654 0.90723 0.10391 0.0
C370 C 0.06994 0.90777 0.08534 0.0
C371 C 0.0737 0.94451 0.07547 0.0
C372 C 0.0593 0.86661 0.11423 0.0
C373 C 0.02171 0.82355 0.1104 0.0
C374 C 0.08784 0.87019 0.12812 0.0
C375 C 0.12932 0.9143 0.13228 0.0
C376 C 0.16371 0.93979 0.11905 0.0
C377 C 0.2026 0.98141 0.12304 0.0
C378 C 0.20765 0.99775 0.14025 0.0
C379 C 0.17386 0.97245 0.15351 0.0
C380 C 0.13488 0.93082 0.14959 0.0
C381 C 0.02786 0.6724 0.14447 0.0
C382 C 0.02344 0.67066 0.16301 0.0
C383 C 0.033 0.7103 0.13499 0.0
C384 C 0.03348 0.74672 0.14398 0.0
C385 C 0.02858 0.74459 0.16256 0.0
C386 C 0.02349 0.70669 0.17202 0.0
C387 C 0.04032 0.78759 0.134 0.0
C388 C 0.07774 0.83065 0.13792 0.0
C389 C 0.01164 0.78403 0.12018 0.0
C390 C 0.97024 0.73984 0.11601 0.0
C391 C 0.93619 0.71392 0.1293 0.0
C392 C 0.89758 0.67205 0.12533 0.0
C393 C 0.89243 0.6559 0.10809 0.0
C394 C 0.92584 0.68164 0.09477 0.0
C395 C 0.96457 0.7235 0.09867 0.0
H396 H 0.8625 0.62348 0.10504 0.0
H397 H 0.23779 0.02998 0.14332 0.0
H398 H 0.20145 0.14798 0.39672 0.0
H399 H 0.25972 0.14601 0.41442 0.0
H400 H 0.15315 0.02879 0.44433 0.0
H401 H 0.09474 0.03071 0.42686 0.0
H402 H 0.21879 0.08975 0.46562 0.0
H403 H 0.21229 0.01346 0.4115 0.0
H404 H 0.21427 0.00564 0.37909 0.0
H405 H 0.35255 0.1205 0.37506 0.0
H406 H 0.35114 0.12942 0.40745 0.0
H407 H 0.35548 0.01009 0.50285 0.0
H408 H 0.2978 0.01431 0.48562 0.0
H409 H 0.40569 0.1298 0.45535 0.0
H410 H 0.46361 0.12476 0.47208 0.0
H411 H 0.33968 0.07073 0.43437 0.0
H412 H 0.34601 0.14472 0.48931 0.0
H413 H 0.34319 0.14947 0.52186 0.0
H414 H 0.20389 0.03637 0.52454 0.0
H415 H 0.20617 0.03038 0.49202 0.0
C416 C 0.19039 0.12205 0.40717 0.0
C417 C 0.14352 0.08927 0.4103 0.0
C418 C 0.22372 0.12087 0.41722 0.0
C419 C 0.21072 0.08687 0.43052 0.0
C420 C 0.16388 0.05523 0.4341 0.0
C421 C 0.13058 0.0563 0.42405 0.0
C422 C 0.24594 0.08314 0.44027 0.0
C423 C 0.24498 0.08517 0.45882 0.0
C424 C 0.28042 0.07777 0.43134 0.0
C425 C 0.28142 0.07242 0.41187 0.0
C426 C 0.24298 0.0373 0.40369 0.0
C427 C 0.24402 0.03262 0.38532 0.0
C428 C 0.28346 0.06264 0.37501 0.0
C429 C 0.32199 0.09732 0.38306 0.0
C430 C 0.3211 0.10219 0.40142 0.0
C431 C 0.36694 0.03591 0.49234 0.0
C432 C 0.41409 0.06727 0.48889 0.0
C433 C 0.33394 0.03859 0.48263 0.0
C434 C 0.34749 0.07286 0.46941 0.0
C435 C 0.39453 0.10329 0.46558 0.0
C436 C 0.42754 0.10058 0.47524 0.0
C437 C 0.31267 0.07749 0.45973 0.0
C438 C 0.31365 0.07555 0.44118 0.0
C439 C 0.27811 0.08273 0.46869 0.0
C440 C 0.27642 0.08683 0.48823 0.0
C441 C 0.31488 0.12065 0.49685 0.0
C442 C 0.31338 0.12357 0.5153 0.0
C443 C 0.27344 0.09313 0.52527 0.0
C444 C 0.23485 0.05985 0.5168 0.0
C445 C 0.23622 0.05669 0.49836 0.0
H446 H 0.27236 0.09539 0.53956 0.0
H447 H 0.28421 0.05895 0.3608 0.0
H448 H 0.14206 0.06827 0.76396 0.0
H449 H 0.19522 0.13229 0.78173 0.0
H450 H 0.19702 0.22786 0.74338 0.0
H451 H 0.14348 0.16395 0.72553 0.0
H452 H 0.2851 0.24961 0.75375 0.0
H453 H 0.1386 0.21196 0.78017 0.0
H454 H 0.06097 0.16113 0.79373 0.0
H455 H 0.11933 0.12696 0.83654 0.0
H456 H 0.19733 0.17708 0.82308 0.0
H457 H 0.39545 0.44762 0.80632 0.0
H458 H 0.3405 0.38561 0.78816 0.0
H459 H 0.32932 0.28602 0.82684 0.0
H460 H 0.3837 0.34792 0.84521 0.0
H461 H 0.24507 0.26739 0.81594 0.0
H462 H 0.39116 0.30339 0.78937 0.0
H463 H 0.46895 0.35344 0.77581 0.0
H464 H 0.41168 0.38998 0.73331 0.0
H465 H 0.33353 0.34063 0.74678 0.0
C466 C 0.15369 0.1029 0.75931 0.0
C467 C 0.13857 0.11112 0.74336 0.0
C468 C 0.18391 0.13938 0.7695 0.0
C469 C 0.19975 0.18467 0.76388 0.0
C470 C 0.18506 0.19307 0.74791 0.0
C471 C 0.15439 0.15656 0.73779 0.0
C472 C 0.23213 0.22323 0.77463 0.0
C473 C 0.27619 0.254 0.76726 0.0
C474 C 0.22064 0.22808 0.79237 0.0
C475 C 0.17379 0.19792 0.80051 0.0
C476 C 0.13487 0.19328 0.79239 0.0
C477 C 0.0908 0.16466 0.80008 0.0
C478 C 0.08521 0.14073 0.81596 0.0
C479 C 0.12371 0.14547 0.82422 0.0
C480 C 0.16786 0.174 0.81657 0.0
C481 C 0.38111 0.4125 0.81098 0.0
C482 C 0.3939 0.40256 0.82715 0.0
C483 C 0.35001 0.37716 0.80055 0.0
C484 C 0.33117 0.33128 0.80611 0.0
C485 C 0.34359 0.32124 0.82231 0.0
C486 C 0.37489 0.35656 0.8327 0.0
C487 C 0.29818 0.29374 0.79509 0.0
C488 C 0.25398 0.26312 0.80242 0.0
C489 C 0.30958 0.28898 0.77733 0.0
C490 C 0.35653 0.31871 0.7692 0.0
C491 C 0.39518 0.32243 0.77723 0.0
C492 C 0.43933 0.3506 0.76954 0.0
C493 C 0.44527 0.37499 0.75374 0.0
C494 C 0.40703 0.37114 0.74557 0.0
C495 C 0.36279 0.34305 0.75322 0.0
H496 H 0.47948 0.39677 0.7478 0.0
H497 H 0.05106 0.1186 0.8219 0.0
H498 H 0.9647 0.02737 0.66213 0.0
H499 H 0.91104 0.03287 0.64305 0.0
H500 H 0.89371 0.11844 0.68088 0.0
H501 H 0.94716 0.11259 0.7003 0.0
H502 H 0.81195 0.05132 0.66976 0.0
H503 H 0.95544 0.16478 0.64246 0.0
H504 H 0.03417 0.19652 0.62944 0.0
H505 H 0.98265 0.09731 0.58852 0.0
H506 H 0.90364 0.06451 0.60144 0.0
H507 H 0.69156 0.11312 0.61027 0.0
H508 H 0.74862 0.11616 0.63017 0.0
H509 H 0.76696 0.02285 0.59705 0.0
H510 H 0.71013 0.01993 0.57701 0.0
H511 H 0.84971 0.09915 0.60625 0.0
H512 H 0.70688 0.98364 0.63467 0.0
H513 H 0.62827 0.95218 0.64778 0.0
H514 H 0.67931 0.05678 0.68669 0.0
H515 H 0.7582 0.08929 0.67364 0.0
C516 C 0.94973 0.0476 0.6664 0.0
C517 C 0.96019 0.06956 0.68275 0.0
C518 C 0.91922 0.05088 0.65541 0.0
C519 C 0.8988 0.07646 0.66046 0.0
C520 C 0.90925 0.09863 0.67673 0.0
C521 C 0.93986 0.09536 0.68777 0.0
C522 C 0.86525 0.07844 0.64897 0.0
C523 C 0.82043 0.0626 0.65596 0.0
C524 C 0.87615 0.09223 0.63087 0.0
C525 C 0.92363 0.11194 0.62302 0.0
C526 C 0.96092 0.14948 0.63077 0.0
C527 C 0.0056 0.16771 0.62339 0.0
C528 C 0.01342 0.14888 0.60819 0.0
C529 C 0.97655 0.11184 0.60031 0.0
C530 C 0.9318 0.09345 0.60764 0.0
C531 C 0.70784 0.09332 0.60724 0.0
C532 C 0.69647 0.06625 0.59213 0.0
C533 C 0.74018 0.09491 0.61864 0.0
C534 C 0.76176 0.06957 0.61509 0.0
C535 C 0.75057 0.0426 0.6 0.0
C536 C 0.71793 0.04069 0.58866 0.0
C537 C 0.79644 0.07162 0.62702 0.0
C538 C 0.84143 0.08824 0.62009 0.0
C539 C 0.78575 0.0587 0.64518 0.0
C540 C 0.73836 0.03921 0.65305 0.0
C541 C 0.70128 0.0002 0.64592 0.0
C542 C 0.65669 0.98212 0.65336 0.0
C543 C 0.64877 0.00255 0.66802 0.0
C544 C 0.68547 0.04104 0.6753 0.0
C545 C 0.73014 0.05929 0.6679 0.0
H546 H 0.61422 0.9885 0.67377 0.0
H547 H 0.04804 0.16305 0.60249 0.0
H548 H 0.94817 0.04489 0.98688 0.0
H549 H 0.88576 0.98871 0.96918 0.0
H550 H 0.87032 0.87963 0.00372 0.0
H551 H 0.93268 0.93516 0.02129 0.0
H552 H 0.87506 0.861 0.96944 0.0
H553 H 0.79252 0.9152 0.00555 0.0
H554 H 0.77748 0.97374 0.0179 0.0
H555 H 0.76287 0.01281 0.96547 0.0
H556 H 0.77846 0.95487 0.95278 0.0
H557 H 0.66689 0.67334 0.94435 0.0
H558 H 0.72491 0.7358 0.96139 0.0
H559 H 0.72951 0.83441 0.92382 0.0
H560 H 0.67122 0.77195 0.9067 0.0
H561 H 0.73198 0.86205 0.95772 0.0
H562 H 0.81189 0.80686 0.92158 0.0
H563 H 0.82695 0.74861 0.90893 0.0
H564 H 0.84776 0.71267 0.96094 0.0
H565 H 0.83214 0.77027 0.97394 0.0
C566 C 0.93125 0.00897 0.99076 0.0
C567 C 0.9455 0.99448 0.00545 0.0
C568 C 0.89552 0.97695 0.98067 0.0
C569 C 0.87335 0.93004 0.98519 0.0
C570 C 0.88709 0.91566 -1e-05 0.0
C571 C 0.92271 0.94751 0.01003 0.0
C572 C 0.83702 0.89544 0.97418 0.0
C573 C 0.84354 0.86094 0.96705 0.0
C574 C 0.79663 0.8963 0.97059 0.0
C575 C 0.78716 0.93105 0.97821 0.0
C576 C 0.78649 0.93654 0.99665 0.0
C577 C 0.77779 0.96956 0.00371 0.0
C578 C 0.76936 0.99707 0.99248 0.0
C579 C 0.76949 0.99153 0.97415 0.0
C580 C 0.77822 0.95858 0.96702 0.0
C581 C 0.6803 0.70832 0.93971 0.0
C582 C 0.66486 0.71777 0.92412 0.0
C583 C 0.71336 0.74395 0.94946 0.0
C584 C 0.732 0.78968 0.9437 0.0
C585 C 0.71557 0.79934 0.92847 0.0
C586 C 0.68227 0.76366 0.91873 0.0
C587 C 0.76968 0.82714 0.95332 0.0
C588 C 0.76357 0.86225 0.96008 0.0
C589 C 0.81064 0.82704 0.95653 0.0
C590 C 0.82046 0.79263 0.94874 0.0
C591 C 0.81936 0.78632 0.93033 0.0
C592 C 0.82804 0.75345 0.9231 0.0
C593 C 0.83821 0.72689 0.93413 0.0
C594 C 0.83984 0.73324 0.95241 0.0
C595 C 0.83112 0.76602 0.95972 0.0
H596 H 0.84491 0.70145 0.9285 0.0
H597 H 0.76262 0.02261 0.99797 0.0
H598 H 0.0803 0.02593 0.32773 0.0
H599 H 0.07857 0.96679 0.30897 0.0
H600 H 0.96886 0.86218 0.34262 0.0
H601 H 0.97067 0.92126 0.36166 0.0
H602 H 0.03612 0.8425 0.3349 0.0
H603 H 0.94587 0.88816 0.30268 0.0
H604 H 0.92868 0.94261 0.2881 0.0
H605 H 0.04523 0.98604 0.2518 0.0
H606 H 0.06353 0.93229 0.26633 0.0
H607 H 0.97669 0.65887 0.27659 0.0
H608 H 0.97612 0.71644 0.29571 0.0
H609 H 0.08398 0.82388 0.26234 0.0
H610 H 0.08364 0.76641 0.24278 0.0
H611 H 0.01597 0.84115 0.27011 0.0
H612 H 0.10685 0.79627 0.30259 0.0
H613 H 0.12421 0.742 0.31722 0.0
H614 H 0.00654 0.69716 0.35305 0.0
H615 H 0.9881 0.75074 0.33847 0.0
C616 C 0.05562 0.99037 0.33113 0.0
C617 C 0.02556 0.97828 0.34618 0.0
C618 C 0.05458 0.95662 0.32034 0.0
C619 C 0.0233 0.91016 0.32432 0.0
C620 C 0.99321 0.8979 0.33932 0.0
C621 C 0.99419 0.93169 0.35014 0.0
C622 C 0.02288 0.87445 0.313 0.0
C623 C 0.031 0.84172 0.32078 0.0
C624 C 0.01733 0.87425 0.29452 0.0
C625 C 0.00631 0.90649 0.2857 0.0
C626 C 0.96806 0.90958 0.29168 0.0
C627 C 0.95808 0.94027 0.2834 0.0
C628 C 0.98591 0.96784 0.26906 0.0
C629 C 0.02373 0.96469 0.26293 0.0
C630 C 0.03389 0.93409 0.27116 0.0
C631 C 0.00018 0.69476 0.27327 0.0
C632 C 0.03016 0.70811 0.25815 0.0
C633 C 0.00011 0.7276 0.28431 0.0
C634 C 0.03029 0.77441 0.28053 0.0
C635 C 0.06049 0.78789 0.26551 0.0
C636 C 0.06055 0.75504 0.25444 0.0
C637 C 0.02944 0.80931 0.29198 0.0
C638 C 0.02103 0.84187 0.28424 0.0
C639 C 0.03473 0.80935 0.31049 0.0
C640 C 0.04584 0.77721 0.31932 0.0
C641 C 0.08446 0.77458 0.3135 0.0
C642 C 0.09453 0.74399 0.3218 0.0
C643 C 0.06643 0.71606 0.33603 0.0
C644 C 0.02825 0.71876 0.34201 0.0
C645 C 0.018 0.74927 0.33375 0.0
H646 H 0.07428 0.6924 0.34244 0.0
H647 H 0.97813 0.99158 0.26267 0.0
H648 H 0.14854 0.99 0.68357 0.0
H649 H 0.21128 0.99092 0.66591 0.0
H650 H 0.1938 0.06715 0.62413 0.0
H651 H 0.1311 0.06638 0.64164 0.0
H652 H 0.20864 0.99853 0.61151 0.0
H653 H 0.27524 0.12332 0.65198 0.0
H654 H 0.28818 0.15806 0.68137 0.0
H655 H 0.34192 0.07445 0.69874 0.0
H656 H 0.32864 0.0387 0.6695 0.0
H657 H 0.42043 0.08656 0.56321 0.0
H658 H 0.35507 0.08036 0.5809 0.0
H659 H 0.3875 0.02007 0.6244 0.0
H660 H 0.45425 0.02846 0.60692 0.0
H661 H 0.36363 0.07744 0.63652 0.0
H662 H 0.30007 0.95444 0.59564 0.0
H663 H 0.28828 0.92059 0.5661 0.0
H664 H 0.2288 -0.00039 0.54947 0.0
H665 H 0.24099 0.0346 0.57881 0.0
C666 C 0.15768 0.00648 0.67054 0.0
C667 C 0.13517 0.02847 0.66405 0.0
C668 C 0.19359 0.00708 0.66051 0.0
C669 C 0.20741 0.02955 0.64383 0.0
C670 C 0.18365 0.04972 0.63699 0.0
C671 C 0.14798 0.0494 0.64705 0.0
C672 C 0.24813 0.03416 0.63387 0.0
C673 C 0.24263 0.01606 0.61688 0.0
C674 C 0.2922 0.05633 0.64108 0.0
C675 C 0.30047 0.07798 0.65862 0.0
C676 C 0.28945 0.11207 0.66211 0.0
C677 C 0.29691 0.13199 0.67874 0.0
C678 C 0.31573 0.11837 0.69194 0.0
C679 C 0.32726 0.0849 0.68852 0.0
C680 C 0.3198 0.06481 0.67192 0.0
C681 C 0.4136 0.07237 0.57661 0.0
C682 C 0.44157 0.05739 0.58374 0.0
C683 C 0.3762 0.0685 0.58664 0.0
C684 C 0.36573 0.04869 0.60382 0.0
C685 C 0.39472 0.03511 0.61114 0.0
C686 C 0.43258 0.03968 0.60119 0.0
C687 C 0.32431 0.04177 0.61409 0.0
C688 C 0.32965 0.05953 0.63114 0.0
C689 C 0.28006 0.01912 0.60695 0.0
C690 C 0.27174 0.99738 0.5894 0.0
C691 C 0.28468 0.96477 0.58566 0.0
C692 C 0.27795 0.94541 0.56894 0.0
C693 C 0.25792 0.95805 0.55589 0.0
C694 C 0.24441 0.98995 0.55957 0.0
C695 C 0.25117 0.00952 0.57625 0.0
H696 H 0.25278 0.94306 0.54295 0.0
H697 H 0.32149 0.13384 0.7048 0.0
H698 H 0.20753 0.21759 0.03954 0.0
H699 H 0.26038 0.27959 0.01896 0.0
H700 H 0.20533 0.18903 0.9751 0.0
H701 H 0.15234 0.12664 0.9956 0.0
H702 H 0.30032 0.24401 0.97232 0.0
H703 H 0.16872 0.2609 0.98359 0.0
H704 H 0.11142 0.26792 0.00234 0.0
H705 H 0.21925 0.39111 0.02411 0.0
H706 H 0.27731 0.38443 0.00566 0.0
H707 H 0.38439 0.40866 0.90267 0.0
H708 H 0.32967 0.34734 0.92335 0.0
H709 H 0.38298 0.43998 0.96677 0.0
H710 H 0.43731 0.50147 0.94594 0.0
H711 H 0.28909 0.38431 0.96998 0.0
H712 H 0.42074 0.3679 0.95886 0.0
H713 H 0.47842 0.36137 0.94015 0.0
H714 H 0.37125 0.23791 0.91829 0.0
H715 H 0.31282 0.24401 0.93673 0.0
C716 C 0.20697 0.21064 0.02555 0.0
C717 C 0.17549 0.16727 0.01918 0.0
C718 C 0.23706 0.24619 0.0138 0.0
C719 C 0.23621 0.239 0.99551 0.0
C720 C 0.20633 0.19525 0.98918 0.0
C721 C 0.17606 0.15969 0.00091 0.0
C722 C 0.26536 0.27755 0.98293 0.0
C723 C 0.29751 0.27446 0.97165 0.0
C724 C 0.26225 0.31762 0.98236 0.0
C725 C 0.22739 0.32189 0.99338 0.0
C726 C 0.18025 0.28928 0.99248 0.0
C727 C 0.14763 0.29323 0.00304 0.0
C728 C 0.16169 0.32987 0.01445 0.0
C729 C 0.20841 0.36271 0.01529 0.0
C730 C 0.24119 0.35887 0.00477 0.0
C731 C 0.38354 0.4159 0.91659 0.0
C732 C 0.41448 0.45931 0.92287 0.0
C733 C 0.35267 0.381 0.92838 0.0
C734 C 0.35283 0.38901 0.94661 0.0
C735 C 0.3824 0.43315 0.95275 0.0
C736 C 0.41325 0.46812 0.94093 0.0
C737 C 0.32395 0.35072 0.95933 0.0
C738 C 0.29191 0.35388 0.97066 0.0
C739 C 0.32725 0.31076 0.95998 0.0
C740 C 0.36237 0.30664 0.94907 0.0
C741 C 0.40944 0.33951 0.94999 0.0
C742 C 0.44227 0.33586 0.93945 0.0
C743 C 0.4285 0.29933 0.92801 0.0
C744 C 0.38186 0.26624 0.92714 0.0
C745 C 0.34887 0.26973 0.93766 0.0
H746 H 0.45397 0.2966 0.91984 0.0
H747 H 0.13638 0.33287 0.02261 0.0
H748 H 0.10759 0.24647 0.34804 0.0
H749 H 0.10568 0.30723 0.33108 0.0
H750 H 0.01442 0.20744 0.29468 0.0
H751 H 0.01627 0.14675 0.31142 0.0
H752 H 0.08261 0.28819 0.27783 0.0
H753 H 0.97271 0.24084 0.32843 0.0
H754 H 0.95205 0.22884 0.36043 0.0
H755 H 0.04399 0.37201 0.36876 0.0
H756 H 0.06614 0.38464 0.33684 0.0
H757 H 0.98814 0.40116 0.23449 0.0
H758 H 0.99533 0.34532 0.25266 0.0
H759 H 0.06372 0.44775 0.29198 0.0
H760 H 0.05364 0.50257 0.27427 0.0
H761 H 0.01366 0.37025 0.30803 0.0
H762 H 0.12374 0.42184 0.25945 0.0
H763 H 0.15094 0.4389 0.22808 0.0
H764 H 0.06876 0.29616 0.21656 0.0
H765 H 0.04043 0.27831 0.24783 0.0
C766 C 0.08759 0.23759 0.3363 0.0
C767 C 0.06175 0.19177 0.33115 0.0
C768 C 0.08643 0.27228 0.32667 0.0
C769 C 0.05947 0.26164 0.31177 0.0
C770 C 0.03535 0.2163 0.30617 0.0
C771 C 0.03631 0.18165 0.3158 0.0
C772 C 0.05419 0.29704 0.30243 0.0
C773 C 0.06725 0.30596 0.28436 0.0
C774 C 0.03554 0.3212 0.31116 0.0
C775 C 0.02144 0.31359 0.33028 0.0
C776 C 0.98876 0.2697 0.3371 0.0
C777 C 0.97675 0.26279 0.35523 0.0
C778 C 0.99669 0.29965 0.36663 0.0
C779 C 0.02862 0.34349 0.35992 0.0
C780 C 0.04096 0.35053 0.34181 0.0
C781 C 0.00386 0.41124 0.24718 0.0
C782 C 0.021 0.45603 0.25297 0.0
C783 C 0.00844 0.37962 0.25746 0.0
C784 C 0.03146 0.39278 0.27342 0.0
C785 C 0.04629 0.43692 0.27964 0.0
C786 C 0.0407 0.46821 0.26955 0.0
C787 C 0.04144 0.36107 0.28327 0.0
C788 C 0.02933 0.35284 0.30145 0.0
C789 C 0.06201 0.33833 0.27473 0.0
C790 C 0.07968 0.34878 0.25597 0.0
C791 C 0.11129 0.3941 0.25022 0.0
C792 C 0.1269 0.40392 0.23245 0.0
C793 C 0.11153 0.36865 0.22033 0.0
C794 C 0.08061 0.32345 0.22596 0.0
C795 C 0.06478 0.31345 0.24371 0.0
H796 H 0.12362 0.37632 0.20657 0.0
H797 H 0.98745 0.29435 0.38067 0.0
loop_
_geom_bond_atom_site_label_1
_geom_bond_atom_site_label_2
_geom_bond_distance
_geom_bond_site_symmetry_2
_ccdc_geom_bond_type
C0 O1 1.156 1_565 S
C0 O7 1.185 1_565 S
O1 C0 1.156 1_545 S
O2 Zn3 1.899 . S
O2 C10 1.284 . S
Zn3 O2 1.899 . S
Zn3 O4 2.032 . S
Zn3 O7 2.086 . S
Zn3 O12 1.977 . S
O4 Zn3 2.032 . S
O4 C8 1.278 1_455 S
C5 O6 1.203 . S
C5 O12 1.267 . S
O6 C5 1.203 . S
O7 C0 1.185 1_545 S
O7 Zn3 2.086 . S
C8 O4 1.278 1_655 S
C8 O9 1.211 1_655 S
O9 C8 1.211 1_455 S
C10 O2 1.284 . S
C10 O11 1.273 . S
O11 C10 1.273 . S
O12 Zn3 1.977 . S
O12 C5 1.267 . S
C13 O14 1.160 . S
C13 O20 1.185 . S
O14 C13 1.160 . S
O15 Zn16 1.899 . S
O15 C23 1.284 . S
Zn16 O15 1.899 . S
Zn16 O17 2.032 . S
Zn16 O20 2.086 . S
Zn16 O25 1.977 . S
O17 Zn16 2.032 . S
O17 C21 1.278 1_455 S
C18 O19 1.203 . S
C18 O25 1.267 . S
O19 C18 1.203 . S
O20 C13 1.185 . S
O20 Zn16 2.086 . S
C21 O17 1.278 1_655 S
C21 O22 1.211 1_655 S
O22 C21 1.211 1_455 S
C23 O15 1.284 . S
C23 O24 1.273 1_455 S
O24 C23 1.273 1_655 S
O25 Zn16 1.977 . S
O25 C18 1.267 . S
C26 O27 1.160 . S
C26 O33 1.186 1_545 S
O27 C26 1.160 . S
O28 Zn29 1.899 . S
O28 C36 1.284 1_455 S
Zn29 O28 1.899 . S
Zn29 O30 2.032 . S
Zn29 O33 2.088 1_545 S
Zn29 O38 1.977 1_545 S
O30 Zn29 2.032 . S
O30 C34 1.278 . S
C31 O32 1.203 . S
C31 O38 1.267 1_655 S
O32 C31 1.203 . S
O33 C26 1.186 1_565 S
O33 Zn29 2.088 1_565 S
C34 O30 1.278 . S
C34 O35 1.211 . S
O35 C34 1.211 . S
C36 O28 1.284 1_655 S
C36 O37 1.273 1_655 S
O37 C36 1.273 1_455 S
O38 Zn29 1.977 1_565 S
O38 C31 1.267 1_455 S
C39 C40 1.443 . S
C39 N43 1.376 . S
C39 C77 1.389 . S
C40 C39 1.443 . S
C40 C41 1.340 . S
C40 H80 0.951 . S
C41 C40 1.340 . S
C41 C42 1.439 . S
C41 H81 0.950 . S
C42 C41 1.439 . S
C42 N43 1.374 . S
C42 C76 1.395 . S
N43 C39 1.376 . S
N43 C42 1.374 . S
N43 Co44 2.008 . S
Co44 N43 2.008 . S
Co44 N45 1.995 . S
Co44 N50 2.008 1_455 S
Co44 N55 1.995 1_455 S
Co44 N60 2.282 . S
Co44 N66 2.282 . S
N45 Co44 1.995 . S
N45 C46 1.376 . S
N45 C49 1.383 . S
C46 N45 1.376 . S
C46 C47 1.446 . S
C46 C76 1.391 . S
C47 C46 1.446 . S
C47 C48 1.339 . S
C47 H82 0.949 . S
C48 C47 1.339 . S
C48 C49 1.439 . S
C48 H83 0.950 . S
C49 N45 1.383 . S
C49 C48 1.439 . S
C49 C78 1.392 . S
N50 Co44 2.008 1_655 S
N50 C51 1.376 . S
N50 C54 1.374 . S
C51 N50 1.376 . S
C51 C52 1.443 . S
C51 C78 1.389 1_655 S
C52 C51 1.443 . S
C52 C53 1.340 . S
C52 H84 0.951 . S
C53 C52 1.340 . S
C53 C54 1.439 . S
C53 H85 0.950 . S
C54 N50 1.374 . S
C54 C53 1.439 . S
C54 C79 1.395 . S
N55 Co44 1.995 1_655 S
N55 C56 1.376 . S
N55 C59 1.383 . S
C56 N55 1.376 . S
C56 C57 1.446 . S
C56 C79 1.391 . S
C57 C56 1.446 . S
C57 C58 1.339 . S
C57 H86 0.949 . S
C58 C57 1.339 . S
C58 C59 1.439 . S
C58 H87 0.950 . S
C59 N55 1.383 . S
C59 C58 1.439 . S
C59 C77 1.392 1_655 S
N60 Co44 2.282 . S
N60 C63 1.332 1_455 S
N60 C65 1.332 . S
C61 C62 1.386 1_455 S
C61 C64 1.388 . S
C62 C61 1.386 1_655 S
C62 C63 1.382 . S
C62 H88 0.950 . S
C63 N60 1.332 1_655 S
C63 C62 1.382 . S
C63 H74 0.952 . S
C64 C61 1.388 . S
C64 C65 1.382 . S
C64 H89 0.950 . S
C65 N60 1.332 . S
C65 C64 1.382 . S
C65 H75 0.948 . S
N66 Co44 2.282 . S
N66 C70 1.332 . S
N66 C71 1.332 1_455 S
C67 C68 1.388 1_655 S
C67 C71 1.382 . S
C67 H90 0.950 . S
C68 C67 1.388 1_455 S
C68 C69 1.386 . S
C69 C68 1.386 . S
C69 C70 1.382 . S
C69 H91 0.950 . S
C70 N66 1.332 . S
C70 C69 1.382 . S
C70 H72 0.952 . S
C71 N66 1.332 1_655 S
C71 C67 1.382 . S
C71 H73 0.948 . S
H72 C70 0.952 . S
H73 C71 0.948 . S
H74 C63 0.952 . S
H75 C65 0.948 . S
C76 C42 1.395 . S
C76 C46 1.391 . S
C77 C39 1.389 . S
C77 C59 1.392 1_455 S
C78 C49 1.392 . S
C78 C51 1.389 1_455 S
C79 C54 1.395 . S
C79 C56 1.391 . S
H80 C40 0.951 . S
H81 C41 0.950 . S
H82 C47 0.949 . S
H83 C48 0.950 . S
H84 C52 0.951 . S
H85 C53 0.950 . S
H86 C57 0.949 . S
H87 C58 0.950 . S
H88 C62 0.950 . S
H89 C64 0.950 . S
H90 C67 0.950 . S
H91 C69 0.950 . S
C92 C93 1.443 1_545 S
C92 N96 1.376 . S
C92 C130 1.389 . S
C93 C92 1.443 1_565 S
C93 C94 1.340 . S
C93 H133 0.951 . S
C94 C93 1.340 . S
C94 C95 1.439 . S
C94 H134 0.950 . S
C95 C94 1.439 . S
C95 N96 1.374 1_565 S
C95 C129 1.395 . S
N96 C92 1.376 . S
N96 C95 1.374 1_545 S
N96 Co97 2.008 . S
Co97 N96 2.008 . S
Co97 N98 1.995 . S
Co97 N103 2.008 . S
Co97 N108 1.995 . S
Co97 N113 2.282 . S
Co97 N119 2.282 . S
N98 Co97 1.995 . S
N98 C99 1.376 1_545 S
N98 C102 1.383 . S
C99 N98 1.376 1_565 S
C99 C100 1.446 . S
C99 C129 1.391 . S
C100 C99 1.446 . S
C100 C101 1.339 . S
C100 H135 0.949 . S
C101 C100 1.339 . S
C101 C102 1.439 1_565 S
C101 H136 0.950 . S
C102 N98 1.383 . S
C102 C101 1.439 1_545 S
C102 C131 1.392 . S
N103 Co97 2.008 . S
N103 C104 1.376 . S
N103 C107 1.374 . S
C104 N103 1.376 . S
C104 C105 1.443 . S
C104 C131 1.389 . S
C105 C104 1.443 . S
C105 C106 1.340 . S
C105 H137 0.951 . S
C106 C105 1.340 . S
C106 C107 1.439 . S
C106 H138 0.950 . S
C107 N103 1.374 . S
C107 C106 1.439 . S
C107 C132 1.395 . S
N108 Co97 1.995 . S
N108 C109 1.376 . S
N108 C112 1.383 . S
C109 N108 1.376 . S
C109 C110 1.446 . S
C109 C132 1.391 . S
C110 C109 1.446 . S
C110 C111 1.339 . S
C110 H139 0.949 . S
C111 C110 1.339 . S
C111 C112 1.439 . S
C111 H140 0.950 . S
C112 N108 1.383 . S
C112 C111 1.439 . S
C112 C130 1.392 . S
N113 Co97 2.282 . S
N113 C116 1.332 . S
N113 C118 1.332 . S
C114 C115 1.386 . S
C114 C117 1.388 . S
C115 C114 1.386 . S
C115 C116 1.382 . S
C115 H141 0.950 . S
C116 N113 1.332 . S
C116 C115 1.382 . S
C116 H127 0.952 . S
C117 C114 1.388 . S
C117 C118 1.382 . S
C117 H142 0.950 1_545 S
C118 N113 1.332 . S
C118 C117 1.382 . S
C118 H128 0.937 1_545 S
N119 Co97 2.282 . S
N119 C123 1.332 . S
N119 C124 1.332 . S
C120 C121 1.388 . S
C120 C124 1.382 . S
C120 H143 0.950 . S
C121 C120 1.388 . S
C121 C122 1.386 . S
C122 C121 1.386 . S
C122 C123 1.382 . S
C122 H144 0.950 . S
C123 N119 1.332 . S
C123 C122 1.382 . S
C123 H125 0.952 . S
C124 N119 1.332 . S
C124 C120 1.382 . S
C124 H126 0.948 . S
H125 C123 0.952 . S
H126 C124 0.948 . S
H127 C116 0.952 . S
H128 C118 0.937 1_565 S
C129 C95 1.395 . S
C129 C99 1.391 . S
C130 C92 1.389 . S
C130 C112 1.392 . S
C131 C102 1.392 . S
C131 C104 1.389 . S
C132 C107 1.395 . S
C132 C109 1.391 . S
H133 C93 0.951 . S
H134 C94 0.950 . S
H135 C100 0.949 . S
H136 C101 0.950 . S
H137 C105 0.951 . S
H138 C106 0.950 . S
H139 C110 0.949 . S
H140 C111 0.950 . S
H141 C115 0.950 . S
H142 C117 0.950 1_565 S
H143 C120 0.950 . S
H144 C122 0.950 . S
C145 C146 1.443 . S
C145 N149 1.376 . S
C145 C183 1.389 . S
C146 C145 1.443 . S
C146 C147 1.340 . S
C146 H186 0.951 . S
C147 C146 1.340 . S
C147 C148 1.439 . S
C147 H187 0.950 . S
C148 C147 1.439 . S
C148 N149 1.374 . S
C148 C182 1.395 . S
N149 C145 1.376 . S
N149 C148 1.374 . S
N149 Co150 2.008 . S
Co150 N149 2.008 . S
Co150 N151 1.995 . S
Co150 N156 2.008 . S
Co150 N161 1.995 . S
Co150 N166 2.282 . S
Co150 N172 2.282 . S
N151 Co150 1.995 . S
N151 C152 1.376 . S
N151 C155 1.383 . S
C152 N151 1.376 . S
C152 C153 1.446 . S
C152 C182 1.391 . S
C153 C152 1.446 . S
C153 C154 1.339 . S
C153 H188 0.949 . S
C154 C153 1.339 . S
C154 C155 1.439 . S
C154 H189 0.950 . S
C155 N151 1.383 . S
C155 C154 1.439 . S
C155 C184 1.392 . S
N156 Co150 2.008 . S
N156 C157 1.376 . S
N156 C160 1.374 . S
C157 N156 1.376 . S
C157 C158 1.443 . S
C157 C184 1.389 . S
C158 C157 1.443 . S
C158 C159 1.340 . S
C158 H190 0.951 . S
C159 C158 1.340 . S
C159 C160 1.439 . S
C159 H191 0.950 . S
C160 N156 1.374 . S
C160 C159 1.439 . S
C160 C185 1.395 . S
N161 Co150 1.995 . S
N161 C162 1.376 . S
N161 C165 1.383 . S
C162 N161 1.376 . S
C162 C163 1.446 . S
C162 C185 1.391 . S
C163 C162 1.446 . S
C163 C164 1.339 . S
C163 H192 0.949 . S
C164 C163 1.339 . S
C164 C165 1.439 . S
C164 H193 0.950 . S
C165 N161 1.383 . S
C165 C164 1.439 . S
C165 C183 1.392 . S
N166 Co150 2.282 . S
N166 C169 1.332 . S
N166 C171 1.332 . S
C167 C168 1.386 . S
C167 C170 1.388 . S
C168 C167 1.386 . S
C168 C169 1.382 . S
C168 H194 0.950 . S
C169 N166 1.332 . S
C169 C168 1.382 . S
C169 H180 0.952 . S
C170 C167 1.388 . S
C170 C171 1.382 . S
C170 H195 0.950 . S
C171 N166 1.332 . S
C171 C170 1.382 . S
C171 H181 0.948 . S
N172 Co150 2.282 . S
N172 C176 1.332 . S
N172 C177 1.332 . S
C173 C174 1.388 . S
C173 C177 1.382 . S
C173 H196 0.950 . S
C174 C173 1.388 . S
C174 C175 1.386 . S
C175 C174 1.386 . S
C175 C176 1.382 . S
C175 H197 0.950 . S
C176 N172 1.332 . S
C176 C175 1.382 . S
C176 H178 0.952 . S
C177 N172 1.332 . S
C177 C173 1.382 . S
C177 H179 0.948 . S
H178 C176 0.952 . S
H179 C177 0.948 . S
H180 C169 0.952 . S
H181 C171 0.948 . S
C182 C148 1.395 . S
C182 C152 1.391 . S
C183 C145 1.389 . S
C183 C165 1.392 . S
C184 C155 1.392 . S
C184 C157 1.389 . S
C185 C160 1.395 . S
C185 C162 1.391 . S
H186 C146 0.951 . S
H187 C147 0.950 . S
H188 C153 0.949 . S
H189 C154 0.950 . S
H190 C158 0.951 . S
H191 C159 0.950 . S
H192 C163 0.949 . S
H193 C164 0.950 . S
H194 C168 0.950 . S
H195 C170 0.950 . S
H196 C173 0.950 . S
H197 C175 0.950 . S
H198 C216 0.951 . S
H199 C218 0.951 . S
H200 C220 0.950 . S
H201 C221 0.950 . S
H202 C223 0.950 . S
H203 C226 0.950 . S
H204 C227 0.950 . S
H205 C229 0.950 . S
H206 C230 0.950 . S
H207 C231 0.951 . S
H208 C233 0.951 . S
H209 C235 0.950 . S
H210 C236 0.950 . S
H211 C238 0.950 . S
H212 C241 0.950 . S
H213 C242 0.950 . S
H214 C244 0.950 . S
H215 C245 0.950 . S
C216 H198 0.951 . S
C216 C217 1.366 . S
C216 C218 1.388 . S
C217 C216 1.366 . S
C217 C221 1.385 1_455 S
C218 H199 0.951 . S
C218 C216 1.388 . S
C218 C219 1.366 . S
C219 C218 1.366 . S
C219 C220 1.414 1_455 S
C219 C222 1.499 . S
C220 H200 0.950 . S
C220 C219 1.414 1_655 S
C220 C221 1.374 . S
C221 H201 0.950 . S
C221 C217 1.385 1_655 S
C221 C220 1.374 . S
C222 C219 1.499 . S
C222 C223 1.373 1_455 S
C222 C224 1.389 . S
C223 H202 0.950 . S
C223 C222 1.373 1_655 S
C223 C239 1.377 . S
C224 C222 1.389 . S
C224 C225 1.524 . S
C224 C238 1.377 . S
C225 C224 1.524 . S
C225 C226 1.397 . S
C225 C230 1.363 . S
C226 H203 0.950 . S
C226 C225 1.397 . S
C226 C227 1.334 . S
C227 H204 0.950 . S
C227 C226 1.334 . S
C227 C228 1.287 . S
C228 C227 1.287 . S
C228 C229 1.524 . S
C228 H247 0.913 . S
C229 H205 0.950 . S
C229 C228 1.524 . S
C229 C230 1.415 . S
C230 H206 0.950 . S
C230 C225 1.363 . S
C230 C229 1.415 . S
C231 H207 0.951 . S
C231 C232 1.366 1_655 S
C231 C233 1.388 . S
C232 C231 1.366 1_455 S
C232 C236 1.385 . S
C233 H208 0.951 . S
C233 C231 1.388 . S
C233 C234 1.366 1_655 S
C234 C233 1.366 1_455 S
C234 C235 1.414 . S
C234 C237 1.499 . S
C235 H209 0.950 . S
C235 C234 1.414 . S
C235 C236 1.374 . S
C236 H210 0.950 . S
C236 C232 1.385 . S
C236 C235 1.374 . S
C237 C234 1.499 . S
C237 C238 1.373 . S
C237 C239 1.389 1_455 S
C238 H211 0.950 . S
C238 C224 1.377 . S
C238 C237 1.373 . S
C239 C223 1.377 . S
C239 C237 1.389 1_655 S
C239 C240 1.524 . S
C240 C239 1.524 . S
C240 C241 1.397 . S
C240 C245 1.363 . S
C241 H212 0.950 . S
C241 C240 1.397 . S
C241 C242 1.334 . S
C242 H213 0.950 . S
C242 C241 1.334 . S
C242 C243 1.287 . S
C243 C242 1.287 . S
C243 C244 1.524 . S
C243 H246 0.999 . S
C244 H214 0.950 . S
C244 C243 1.524 . S
C244 C245 1.415 . S
C245 H215 0.950 . S
C245 C240 1.363 . S
C245 C244 1.415 . S
H246 C243 0.999 . S
H247 C228 0.913 . S
H248 C266 0.951 . S
H249 C268 0.951 . S
H250 C270 0.950 . S
H251 C271 0.950 . S
H252 C273 0.950 . S
H253 C276 0.950 . S
H254 C277 0.950 . S
H255 C279 0.950 . S
H256 C280 0.950 . S
H257 C281 0.951 . S
H258 C283 0.951 . S
H259 C285 0.950 . S
H260 C286 0.950 . S
H261 C288 0.950 . S
H262 C291 0.950 . S
H263 C292 0.950 . S
H264 C294 0.950 . S
H265 C295 0.950 . S
C266 H248 0.951 . S
C266 C267 1.366 . S
C266 C268 1.388 . S
C267 C266 1.366 . S
C267 C271 1.385 . S
C268 H249 0.951 . S
C268 C266 1.388 . S
C268 C269 1.366 . S
C269 C268 1.366 . S
C269 C270 1.414 . S
C269 C272 1.499 . S
C270 H250 0.950 . S
C270 C269 1.414 . S
C270 C271 1.374 . S
C271 H251 0.950 . S
C271 C267 1.385 . S
C271 C270 1.374 . S
C272 C269 1.499 . S
C272 C273 1.373 . S
C272 C274 1.389 . S
C273 H252 0.950 . S
C273 C272 1.373 . S
C273 C289 1.377 . S
C274 C272 1.389 . S
C274 C275 1.524 . S
C274 C288 1.377 . S
C275 C274 1.524 . S
C275 C276 1.397 . S
C275 C280 1.363 . S
C276 H253 0.950 . S
C276 C275 1.397 . S
C276 C277 1.334 . S
C277 H254 0.950 . S
C277 C276 1.334 . S
C277 C278 1.287 . S
C278 C277 1.287 . S
C278 C279 1.524 . S
C278 H297 0.913 . S
C279 H255 0.950 . S
C279 C278 1.524 . S
C279 C280 1.415 . S
C280 H256 0.950 . S
C280 C275 1.363 . S
C280 C279 1.415 . S
C281 H257 0.951 . S
C281 C282 1.366 . S
C281 C283 1.388 . S
C282 C281 1.366 . S
C282 C286 1.385 . S
C283 H258 0.951 . S
C283 C281 1.388 . S
C283 C284 1.366 . S
C284 C283 1.366 . S
C284 C285 1.414 . S
C284 C287 1.499 . S
C285 H259 0.950 . S
C285 C284 1.414 . S
C285 C286 1.374 . S
C286 H260 0.950 . S
C286 C282 1.385 . S
C286 C285 1.374 . S
C287 C284 1.499 . S
C287 C288 1.373 . S
C287 C289 1.389 . S
C288 H261 0.950 . S
C288 C274 1.377 . S
C288 C287 1.373 . S
C289 C273 1.377 . S
C289 C287 1.389 . S
C289 C290 1.524 . S
C290 C289 1.524 . S
C290 C291 1.397 1_545 S
C290 C295 1.363 . S
C291 H262 0.950 . S
C291 C290 1.397 1_565 S
C291 C292 1.334 . S
C292 H263 0.950 . S
C292 C291 1.334 . S
C292 C293 1.287 . S
C293 C292 1.287 . S
C293 C294 1.524 1_565 S
C293 H296 0.999 . S
C294 H264 0.950 . S
C294 C293 1.524 1_545 S
C294 C295 1.415 . S
C295 H265 0.950 . S
C295 C290 1.363 . S
C295 C294 1.415 . S
H296 C293 0.999 . S
H297 C278 0.913 . S
H298 C316 0.951 . S
H299 C318 0.951 . S
H300 C320 0.950 . S
H301 C321 0.950 . S
H302 C323 0.950 . S
H303 C326 0.950 . S
H304 C327 0.950 . S
H305 C329 0.950 . S
H306 C330 0.950 . S
H307 C331 0.951 . S
H308 C333 0.951 . S
H309 C335 0.950 . S
H310 C336 0.950 . S
H311 C338 0.950 . S
H312 C341 0.950 . S
H313 C342 0.950 . S
H314 C344 0.950 . S
H315 C345 0.950 . S
C316 H298 0.951 . S
C316 C317 1.366 . S
C316 C318 1.388 . S
C317 C316 1.366 . S
C317 C321 1.385 . S
C318 H299 0.951 . S
C318 C316 1.388 . S
C318 C319 1.366 . S
C319 C318 1.366 . S
C319 C320 1.414 . S
C319 C322 1.499 . S
C320 H300 0.950 . S
C320 C319 1.414 . S
C320 C321 1.374 . S
C321 H301 0.950 . S
C321 C317 1.385 . S
C321 C320 1.374 . S
C322 C319 1.499 . S
C322 C323 1.373 . S
C322 C324 1.389 . S
C323 H302 0.950 . S
C323 C322 1.373 . S
C323 C339 1.377 . S
C324 C322 1.389 . S
C324 C325 1.524 . S
C324 C338 1.377 . S
C325 C324 1.524 . S
C325 C326 1.397 . S
C325 C330 1.363 . S
C326 H303 0.950 . S
C326 C325 1.397 . S
C326 C327 1.334 . S
C327 H304 0.950 . S
C327 C326 1.334 . S
C327 C328 1.287 . S
C328 C327 1.287 . S
C328 C329 1.524 . S
C328 H347 0.913 1_655 S
C329 H305 0.950 . S
C329 C328 1.524 . S
C329 C330 1.415 . S
C330 H306 0.950 . S
C330 C325 1.363 . S
C330 C329 1.415 . S
C331 H307 0.951 . S
C331 C332 1.366 . S
C331 C333 1.388 . S
C332 C331 1.366 . S
C332 C336 1.385 . S
C333 H308 0.951 . S
C333 C331 1.388 . S
C333 C334 1.366 . S
C334 C333 1.366 . S
C334 C335 1.414 . S
C334 C337 1.499 . S
C335 H309 0.950 . S
C335 C334 1.414 . S
C335 C336 1.374 . S
C336 H310 0.950 . S
C336 C332 1.385 . S
C336 C335 1.374 . S
C337 C334 1.499 . S
C337 C338 1.373 . S
C337 C339 1.389 . S
C338 H311 0.950 . S
C338 C324 1.377 . S
C338 C337 1.373 . S
C339 C323 1.377 . S
C339 C337 1.389 . S
C339 C340 1.524 . S
C340 C339 1.524 . S
C340 C341 1.397 . S
C340 C345 1.363 . S
C341 H312 0.950 . S
C341 C340 1.397 . S
C341 C342 1.334 . S
C342 H313 0.950 . S
C342 C341 1.334 . S
C342 C343 1.287 . S
C343 C342 1.287 . S
C343 C344 1.524 . S
C343 H346 0.999 . S
C344 H314 0.950 . S
C344 C343 1.524 . S
C344 C345 1.415 . S
C345 H315 0.950 . S
C345 C340 1.363 . S
C345 C344 1.415 . S
H346 C343 0.999 . S
H347 C328 0.913 1_455 S
H348 C366 0.951 . S
H349 C368 0.951 . S
H350 C370 0.950 . S
H351 C371 0.950 . S
H352 C373 0.950 . S
H353 C376 0.950 . S
H354 C377 0.950 . S
H355 C379 0.950 . S
H356 C380 0.950 . S
H357 C381 0.951 . S
H358 C383 0.951 . S
H359 C385 0.950 . S
H360 C386 0.950 . S
H361 C388 0.950 . S
H362 C391 0.950 . S
H363 C392 0.950 . S
H364 C394 0.950 . S
H365 C395 0.956 . S
C366 H348 0.951 . S
C366 C367 1.366 . S
C366 C368 1.388 . S
C367 C366 1.366 . S
C367 C371 1.385 . S
C368 H349 0.951 . S
C368 C366 1.388 . S
C368 C369 1.366 . S
C369 C368 1.366 . S
C369 C370 1.414 . S
C369 C372 1.499 . S
C370 H350 0.950 . S
C370 C369 1.414 . S
C370 C371 1.374 . S
C371 H351 0.950 . S
C371 C367 1.385 . S
C371 C370 1.374 . S
C372 C369 1.499 . S
C372 C373 1.373 . S
C372 C374 1.389 . S
C373 H352 0.950 . S
C373 C372 1.373 . S
C373 C389 1.377 . S
C374 C372 1.389 . S
C374 C375 1.524 . S
C374 C388 1.377 . S
C375 C374 1.524 . S
C375 C376 1.397 . S
C375 C380 1.363 . S
C376 H353 0.950 . S
C376 C375 1.397 . S
C376 C377 1.334 . S
C377 H354 0.950 . S
C377 C376 1.334 . S
C377 C378 1.287 . S
C378 C377 1.287 . S
C378 C379 1.524 . S
C378 H397 0.913 1_565 S
C379 H355 0.950 . S
C379 C378 1.524 . S
C379 C380 1.415 . S
C380 H356 0.950 . S
C380 C375 1.363 . S
C380 C379 1.415 . S
C381 H357 0.951 . S
C381 C382 1.366 . S
C381 C383 1.388 . S
C382 C381 1.366 . S
C382 C386 1.385 . S
C383 H358 0.951 . S
C383 C381 1.388 . S
C383 C384 1.366 . S
C384 C383 1.366 . S
C384 C385 1.414 . S
C384 C387 1.499 . S
C385 H359 0.950 . S
C385 C384 1.414 . S
C385 C386 1.374 . S
C386 H360 0.950 . S
C386 C382 1.385 . S
C386 C385 1.374 . S
C387 C384 1.499 . S
C387 C388 1.373 . S
C387 C389 1.389 . S
C388 H361 0.950 . S
C388 C374 1.377 . S
C388 C387 1.373 . S
C389 C373 1.377 . S
C389 C387 1.389 . S
C389 C390 1.524 1_455 S
C390 C389 1.524 1_655 S
C390 C391 1.397 . S
C390 C395 1.363 . S
C391 H362 0.950 . S
C391 C390 1.397 . S
C391 C392 1.334 . S
C392 H363 0.950 . S
C392 C391 1.334 . S
C392 C393 1.287 . S
C393 C392 1.287 . S
C393 C394 1.524 . S
C393 H396 0.999 . S
C394 H364 0.950 . S
C394 C393 1.524 . S
C394 C395 1.415 . S
C395 H365 0.956 . S
C395 C390 1.363 . S
C395 C394 1.415 . S
H396 C393 0.999 . S
H397 C378 0.913 1_545 S
H398 C416 0.951 . S
H399 C418 0.951 . S
H400 C420 0.950 . S
H401 C421 0.950 . S
H402 C423 0.950 . S
H403 C426 0.950 . S
H404 C427 0.950 . S
H405 C429 0.950 . S
H406 C430 0.950 . S
H407 C431 0.951 . S
H408 C433 0.951 . S
H409 C435 0.950 . S
H410 C436 0.950 . S
H411 C438 0.950 . S
H412 C441 0.950 . S
H413 C442 0.950 . S
H414 C444 0.950 . S
H415 C445 0.950 . S
C416 H398 0.951 . S
C416 C417 1.366 . S
C416 C418 1.388 . S
C417 C416 1.366 . S
C417 C421 1.385 . S
C418 H399 0.951 . S
C418 C416 1.388 . S
C418 C419 1.366 . S
C419 C418 1.366 . S
C419 C420 1.414 . S
C419 C422 1.499 . S
C420 H400 0.950 . S
C420 C419 1.414 . S
C420 C421 1.374 . S
C421 H401 0.950 . S
C421 C417 1.385 . S
C421 C420 1.374 . S
C422 C419 1.499 . S
C422 C423 1.373 . S
C422 C424 1.389 . S
C423 H402 0.950 . S
C423 C422 1.373 . S
C423 C439 1.377 . S
C424 C422 1.389 . S
C424 C425 1.524 . S
C424 C438 1.377 . S
C425 C424 1.524 . S
C425 C426 1.397 . S
C425 C430 1.363 . S
C426 H403 0.950 . S
C426 C425 1.397 . S
C426 C427 1.334 1_545 S
C427 H404 0.950 . S
C427 C426 1.334 1_565 S
C427 C428 1.287 . S
C428 C427 1.287 . S
C428 C429 1.524 . S
C428 H447 0.913 . S
C429 H405 0.950 . S
C429 C428 1.524 . S
C429 C430 1.415 1_565 S
C430 H406 0.950 . S
C430 C425 1.363 . S
C430 C429 1.415 1_545 S
C431 H407 0.951 . S
C431 C432 1.366 . S
C431 C433 1.388 . S
C432 C431 1.366 . S
C432 C436 1.385 . S
C433 H408 0.951 . S
C433 C431 1.388 . S
C433 C434 1.366 . S
C434 C433 1.366 . S
C434 C435 1.414 . S
C434 C437 1.499 . S
C435 H409 0.950 . S
C435 C434 1.414 . S
C435 C436 1.374 . S
C436 H410 0.950 . S
C436 C432 1.385 . S
C436 C435 1.374 . S
C437 C434 1.499 . S
C437 C438 1.373 . S
C437 C439 1.389 . S
C438 H411 0.950 . S
C438 C424 1.377 . S
C438 C437 1.373 . S
C439 C423 1.377 . S
C439 C437 1.389 . S
C439 C440 1.524 . S
C440 C439 1.524 . S
C440 C441 1.397 . S
C440 C445 1.363 . S
C441 H412 0.950 . S
C441 C440 1.397 . S
C441 C442 1.334 . S
C442 H413 0.950 . S
C442 C441 1.334 . S
C442 C443 1.287 . S
C443 C442 1.287 . S
C443 C444 1.524 . S
C443 H446 0.999 . S
C444 H414 0.950 . S
C444 C443 1.524 . S
C444 C445 1.415 . S
C445 H415 0.950 . S
C445 C440 1.363 . S
C445 C444 1.415 . S
H446 C443 0.999 . S
H447 C428 0.913 . S
H448 C466 0.951 . S
H449 C468 0.951 . S
H450 C470 0.950 . S
H451 C471 0.950 . S
H452 C473 0.950 . S
H453 C476 0.950 . S
H454 C477 0.950 . S
H455 C479 0.950 . S
H456 C480 0.950 . S
H457 C481 0.951 . S
H458 C483 0.951 . S
H459 C485 0.950 . S
H460 C486 0.950 . S
H461 C488 0.950 . S
H462 C491 0.950 . S
H463 C492 0.950 . S
H464 C494 0.950 . S
H465 C495 0.950 . S
C466 H448 0.951 . S
C466 C467 1.366 . S
C466 C468 1.388 . S
C467 C466 1.366 . S
C467 C471 1.385 . S
C468 H449 0.951 . S
C468 C466 1.388 . S
C468 C469 1.366 . S
C469 C468 1.366 . S
C469 C470 1.414 . S
C469 C472 1.499 . S
C470 H450 0.950 . S
C470 C469 1.414 . S
C470 C471 1.374 . S
C471 H451 0.950 . S
C471 C467 1.385 . S
C471 C470 1.374 . S
C472 C469 1.499 . S
C472 C473 1.373 . S
C472 C474 1.389 . S
C473 H452 0.950 . S
C473 C472 1.373 . S
C473 C489 1.377 . S
C474 C472 1.389 . S
C474 C475 1.524 . S
C474 C488 1.377 . S
C475 C474 1.524 . S
C475 C476 1.397 . S
C475 C480 1.363 . S
C476 H453 0.950 . S
C476 C475 1.397 . S
C476 C477 1.334 . S
C477 H454 0.950 . S
C477 C476 1.334 . S
C477 C478 1.287 . S
C478 C477 1.287 . S
C478 C479 1.524 . S
C478 H497 0.913 . S
C479 H455 0.950 . S
C479 C478 1.524 . S
C479 C480 1.415 . S
C480 H456 0.950 . S
C480 C475 1.363 . S
C480 C479 1.415 . S
C481 H457 0.951 . S
C481 C482 1.366 . S
C481 C483 1.388 . S
C482 C481 1.366 . S
C482 C486 1.385 . S
C483 H458 0.951 . S
C483 C481 1.388 . S
C483 C484 1.366 . S
C484 C483 1.366 . S
C484 C485 1.414 . S
C484 C487 1.499 . S
C485 H459 0.950 . S
C485 C484 1.414 . S
C485 C486 1.374 . S
C486 H460 0.950 . S
C486 C482 1.385 . S
C486 C485 1.374 . S
C487 C484 1.499 . S
C487 C488 1.373 . S
C487 C489 1.389 . S
C488 H461 0.950 . S
C488 C474 1.377 . S
C488 C487 1.373 . S
C489 C473 1.377 . S
C489 C487 1.389 . S
C489 C490 1.524 . S
C490 C489 1.524 . S
C490 C491 1.397 . S
C490 C495 1.363 . S
C491 H462 0.950 . S
C491 C490 1.397 . S
C491 C492 1.334 . S
C492 H463 0.950 . S
C492 C491 1.334 . S
C492 C493 1.287 . S
C493 C492 1.287 . S
C493 C494 1.524 . S
C493 H496 0.999 . S
C494 H464 0.950 . S
C494 C493 1.524 . S
C494 C495 1.415 . S
C495 H465 0.950 . S
C495 C490 1.363 . S
C495 C494 1.415 . S
H496 C493 0.999 . S
H497 C478 0.913 . S
H498 C516 0.951 . S
H499 C518 0.951 . S
H500 C520 0.950 . S
H501 C521 0.950 . S
H502 C523 0.950 . S
H503 C526 0.950 . S
H504 C527 0.950 1_455 S
H505 C529 0.950 1_455 S
H506 C530 0.950 . S
H507 C531 0.951 . S
H508 C533 0.951 . S
H509 C535 0.950 . S
H510 C536 0.950 . S
H511 C538 0.950 . S
H512 C541 0.950 . S
H513 C542 0.950 . S
H514 C544 0.950 . S
H515 C545 0.950 1_545 S
C516 H498 0.951 . S
C516 C517 1.366 . S
C516 C518 1.388 . S
C517 C516 1.366 . S
C517 C521 1.385 . S
C518 H499 0.951 . S
C518 C516 1.388 . S
C518 C519 1.366 . S
C519 C518 1.366 . S
C519 C520 1.414 . S
C519 C522 1.499 . S
C520 H500 0.950 . S
C520 C519 1.414 . S
C520 C521 1.374 . S
C521 H501 0.950 . S
C521 C517 1.385 . S
C521 C520 1.374 . S
C522 C519 1.499 . S
C522 C523 1.373 . S
C522 C524 1.389 . S
C523 H502 0.950 . S
C523 C522 1.373 . S
C523 C539 1.377 . S
C524 C522 1.389 . S
C524 C525 1.524 . S
C524 C538 1.377 . S
C525 C524 1.524 . S
C525 C526 1.397 . S
C525 C530 1.363 . S
C526 H503 0.950 . S
C526 C525 1.397 . S
C526 C527 1.334 . S
C527 H504 0.950 1_655 S
C527 C526 1.334 . S
C527 C528 1.287 1_655 S
C528 C527 1.287 1_455 S
C528 C529 1.524 1_455 S
C528 H547 0.913 . S
C529 H505 0.950 1_655 S
C529 C528 1.524 1_655 S
C529 C530 1.415 . S
C530 H506 0.950 . S
C530 C525 1.363 . S
C530 C529 1.415 . S
C531 H507 0.951 . S
C531 C532 1.366 . S
C531 C533 1.388 . S
C532 C531 1.366 . S
C532 C536 1.385 . S
C533 H508 0.951 . S
C533 C531 1.388 . S
C533 C534 1.366 . S
C534 C533 1.366 . S
C534 C535 1.414 . S
C534 C537 1.499 . S
C535 H509 0.950 . S
C535 C534 1.414 . S
C535 C536 1.374 . S
C536 H510 0.950 . S
C536 C532 1.385 . S
C536 C535 1.374 . S
C537 C534 1.499 . S
C537 C538 1.373 . S
C537 C539 1.389 . S
C538 H511 0.950 . S
C538 C524 1.377 . S
C538 C537 1.373 . S
C539 C523 1.377 . S
C539 C537 1.389 . S
C539 C540 1.524 1_545 S
C540 C539 1.524 1_565 S
C540 C541 1.397 . S
C540 C545 1.363 . S
C541 H512 0.950 . S
C541 C540 1.397 . S
C541 C542 1.334 . S
C542 H513 0.950 . S
C542 C541 1.334 . S
C542 C543 1.287 . S
C543 C542 1.287 . S
C543 C544 1.524 . S
C543 H546 0.999 . S
C544 H514 0.950 . S
C544 C543 1.524 . S
C544 C545 1.415 . S
C545 H515 0.950 1_565 S
C545 C540 1.363 . S
C545 C544 1.415 . S
H546 C543 0.999 . S
H547 C528 0.913 . S
H548 C566 0.951 1_545 S
H549 C568 0.951 . S
H550 C570 0.950 . S
H551 C571 0.950 . S
H552 C573 0.950 . S
H553 C576 0.950 1_554 S
H554 C577 0.950 1_554 S
H555 C579 0.950 . S
H556 C580 0.950 . S
H557 C581 0.951 . S
H558 C583 0.951 . S
H559 C585 0.950 . S
H560 C586 0.950 . S
H561 C588 0.950 . S
H562 C591 0.950 . S
H563 C592 0.950 . S
H564 C594 0.950 . S
H565 C595 0.950 . S
C566 H548 0.951 1_565 S
C566 C567 1.366 1_556 S
C566 C568 1.388 . S
C567 C566 1.366 1_554 S
C567 C571 1.385 . S
C568 H549 0.951 . S
C568 C566 1.388 . S
C568 C569 1.366 . S
C569 C568 1.366 . S
C569 C570 1.414 1_556 S
C569 C572 1.499 . S
C570 H550 0.950 . S
C570 C569 1.414 1_554 S
C570 C571 1.374 . S
C571 H551 0.950 . S
C571 C567 1.385 . S
C571 C570 1.374 . S
C572 C569 1.499 . S
C572 C573 1.373 . S
C572 C574 1.389 . S
C573 H552 0.950 . S
C573 C572 1.373 . S
C573 C589 1.377 . S
C574 C572 1.389 . S
C574 C575 1.524 . S
C574 C588 1.377 . S
C575 C574 1.524 . S
C575 C576 1.397 . S
C575 C580 1.363 . S
C576 H553 0.950 1_556 S
C576 C575 1.397 . S
C576 C577 1.334 . S
C577 H554 0.950 1_556 S
C577 C576 1.334 . S
C577 C578 1.287 1_565 S
C578 C577 1.287 1_545 S
C578 C579 1.524 . S
C578 H597 0.913 . S
C579 H555 0.950 . S
C579 C578 1.524 . S
C579 C580 1.415 1_545 S
C580 H556 0.950 . S
C580 C575 1.363 . S
C580 C579 1.415 1_565 S
C581 H557 0.951 . S
C581 C582 1.366 . S
C581 C583 1.388 . S
C582 C581 1.366 . S
C582 C586 1.385 . S
C583 H558 0.951 . S
C583 C581 1.388 . S
C583 C584 1.366 . S
C584 C583 1.366 . S
C584 C585 1.414 . S
C584 C587 1.499 . S
C585 H559 0.950 . S
C585 C584 1.414 . S
C585 C586 1.374 . S
C586 H560 0.950 . S
C586 C582 1.385 . S
C586 C585 1.374 . S
C587 C584 1.499 . S
C587 C588 1.373 . S
C587 C589 1.389 . S
C588 H561 0.950 . S
C588 C574 1.377 . S
C588 C587 1.373 . S
C589 C573 1.377 . S
C589 C587 1.389 . S
C589 C590 1.524 . S
C590 C589 1.524 . S
C590 C591 1.397 . S
C590 C595 1.363 . S
C591 H562 0.950 . S
C591 C590 1.397 . S
C591 C592 1.334 . S
C592 H563 0.950 . S
C592 C591 1.334 . S
C592 C593 1.287 . S
C593 C592 1.287 . S
C593 C594 1.524 . S
C593 H596 0.999 . S
C594 H564 0.950 . S
C594 C593 1.524 . S
C594 C595 1.415 . S
C595 H565 0.950 . S
C595 C590 1.363 . S
C595 C594 1.415 . S
H596 C593 0.999 . S
H597 C578 0.913 . S
H598 C616 0.956 . S
H599 C618 0.951 . S
H600 C620 0.950 . S
H601 C621 0.950 . S
H602 C623 0.950 . S
H603 C626 0.950 . S
H604 C627 0.950 . S
H605 C629 0.950 . S
H606 C630 0.950 . S
H607 C631 0.951 . S
H608 C633 0.951 . S
H609 C635 0.950 . S
H610 C636 0.950 . S
H611 C638 0.950 . S
H612 C641 0.950 . S
H613 C642 0.950 . S
H614 C644 0.950 1_655 S
H615 C645 0.950 . S
C616 H598 0.956 . S
C616 C617 1.366 1_545 S
C616 C618 1.382 1_545 S
C617 C616 1.366 1_565 S
C617 C621 1.385 1_455 S
C618 H599 0.951 . S
C618 C616 1.382 1_565 S
C618 C619 1.366 . S
C619 C618 1.366 . S
C619 C620 1.414 1_455 S
C619 C622 1.499 . S
C620 H600 0.950 . S
C620 C619 1.414 1_655 S
C620 C621 1.374 . S
C621 H601 0.950 . S
C621 C617 1.385 1_655 S
C621 C620 1.374 . S
C622 C619 1.499 . S
C622 C623 1.373 . S
C622 C624 1.389 . S
C623 H602 0.950 . S
C623 C622 1.373 . S
C623 C639 1.377 . S
C624 C622 1.389 . S
C624 C625 1.524 . S
C624 C638 1.377 . S
C625 C624 1.524 . S
C625 C626 1.397 1_455 S
C625 C630 1.363 . S
C626 H603 0.950 . S
C626 C625 1.397 1_655 S
C626 C627 1.334 . S
C627 H604 0.950 . S
C627 C626 1.334 . S
C627 C628 1.287 . S
C628 C627 1.287 . S
C628 C629 1.524 1_655 S
C628 H647 0.913 1_565 S
C629 H605 0.950 . S
C629 C628 1.524 1_455 S
C629 C630 1.415 . S
C630 H606 0.950 . S
C630 C625 1.363 . S
C630 C629 1.415 . S
C631 H607 0.951 . S
C631 C632 1.366 1_655 S
C631 C633 1.388 . S
C632 C631 1.366 1_455 S
C632 C636 1.385 . S
C633 H608 0.951 . S
C633 C631 1.388 . S
C633 C634 1.366 1_655 S
C634 C633 1.366 1_455 S
C634 C635 1.414 . S
C634 C637 1.499 . S
C635 H609 0.950 . S
C635 C634 1.414 . S
C635 C636 1.374 . S
C636 H610 0.950 . S
C636 C632 1.385 . S
C636 C635 1.374 . S
C637 C634 1.499 . S
C637 C638 1.373 . S
C637 C639 1.389 . S
C638 H611 0.950 . S
C638 C624 1.377 . S
C638 C637 1.373 . S
C639 C623 1.377 . S
C639 C637 1.389 . S
C639 C640 1.524 . S
C640 C639 1.524 . S
C640 C641 1.397 . S
C640 C645 1.363 1_455 S
C641 H612 0.950 . S
C641 C640 1.397 . S
C641 C642 1.334 . S
C642 H613 0.950 . S
C642 C641 1.334 . S
C642 C643 1.287 . S
C643 C642 1.287 . S
C643 C644 1.524 . S
C643 H646 0.999 . S
C644 H614 0.950 1_455 S
C644 C643 1.524 . S
C644 C645 1.415 1_455 S
C645 H615 0.950 . S
C645 C640 1.363 1_655 S
C645 C644 1.415 1_655 S
H646 C643 0.999 . S
H647 C628 0.913 1_545 S
H648 C666 0.951 . S
H649 C668 0.951 . S
H650 C670 0.950 . S
H651 C671 0.950 . S
H652 C673 0.950 1_565 S
H653 C676 0.950 . S
H654 C677 0.950 . S
H655 C679 0.950 . S
H656 C680 0.950 . S
H657 C681 0.951 . S
H658 C683 0.951 . S
H659 C685 0.950 . S
H660 C686 0.950 . S
H661 C688 0.950 . S
H662 C691 0.950 . S
H663 C692 0.950 . S
H664 C694 0.950 . S
H665 C695 0.950 1_545 S
C666 H648 0.951 . S
C666 C667 1.366 . S
C666 C668 1.388 . S
C667 C666 1.366 . S
C667 C671 1.385 . S
C668 H649 0.951 . S
C668 C666 1.388 . S
C668 C669 1.366 . S
C669 C668 1.366 . S
C669 C670 1.414 . S
C669 C672 1.499 . S
C670 H650 0.950 . S
C670 C669 1.414 . S
C670 C671 1.374 . S
C671 H651 0.950 . S
C671 C667 1.385 . S
C671 C670 1.374 . S
C672 C669 1.499 . S
C672 C673 1.373 . S
C672 C674 1.389 . S
C673 H652 0.950 1_545 S
C673 C672 1.373 . S
C673 C689 1.377 . S
C674 C672 1.389 . S
C674 C675 1.524 . S
C674 C688 1.377 . S
C675 C674 1.524 . S
C675 C676 1.397 . S
C675 C680 1.363 . S
C676 H653 0.950 . S
C676 C675 1.397 . S
C676 C677 1.334 . S
C677 H654 0.950 . S
C677 C676 1.334 . S
C677 C678 1.287 . S
C678 C677 1.287 . S
C678 C679 1.524 . S
C678 H697 0.913 . S
C679 H655 0.950 . S
C679 C678 1.524 . S
C679 C680 1.415 . S
C680 H656 0.950 . S
C680 C675 1.363 . S
C680 C679 1.415 . S
C681 H657 0.951 . S
C681 C682 1.366 . S
C681 C683 1.388 . S
C682 C681 1.366 . S
C682 C686 1.385 . S
C683 H658 0.951 . S
C683 C681 1.388 . S
C683 C684 1.366 . S
C684 C683 1.366 . S
C684 C685 1.414 . S
C684 C687 1.499 . S
C685 H659 0.950 . S
C685 C684 1.414 . S
C685 C686 1.374 . S
C686 H660 0.950 . S
C686 C682 1.385 . S
C686 C685 1.374 . S
C687 C684 1.499 . S
C687 C688 1.373 . S
C687 C689 1.389 . S
C688 H661 0.950 . S
C688 C674 1.377 . S
C688 C687 1.373 . S
C689 C673 1.377 . S
C689 C687 1.389 . S
C689 C690 1.524 1_545 S
C690 C689 1.524 1_565 S
C690 C691 1.397 . S
C690 C695 1.363 . S
C691 H662 0.950 . S
C691 C690 1.397 . S
C691 C692 1.334 . S
C692 H663 0.950 . S
C692 C691 1.334 . S
C692 C693 1.287 . S
C693 C692 1.287 . S
C693 C694 1.524 . S
C693 H696 0.999 . S
C694 H664 0.950 . S
C694 C693 1.524 . S
C694 C695 1.415 . S
C695 H665 0.950 1_565 S
C695 C690 1.363 . S
C695 C694 1.415 . S
H696 C693 0.999 . S
H697 C678 0.913 . S
H698 C716 0.951 . S
H699 C718 0.951 . S
H700 C720 0.950 . S
H701 C721 0.950 . S
H702 C723 0.950 . S
H703 C726 0.950 . S
H704 C727 0.950 . S
H705 C729 0.950 . S
H706 C730 0.950 . S
H707 C731 0.951 . S
H708 C733 0.951 . S
H709 C735 0.950 . S
H710 C736 0.950 . S
H711 C738 0.950 . S
H712 C741 0.950 . S
H713 C742 0.950 . S
H714 C744 0.950 . S
H715 C745 0.950 . S
C716 H698 0.951 . S
C716 C717 1.366 . S
C716 C718 1.388 . S
C717 C716 1.366 . S
C717 C721 1.385 1_554 S
C718 H699 0.951 . S
C718 C716 1.388 . S
C718 C719 1.366 1_554 S
C719 C718 1.366 1_556 S
C719 C720 1.414 . S
C719 C722 1.499 . S
C720 H700 0.950 . S
C720 C719 1.414 . S
C720 C721 1.374 . S
C721 H701 0.950 . S
C721 C717 1.385 1_556 S
C721 C720 1.374 . S
C722 C719 1.499 . S
C722 C723 1.373 . S
C722 C724 1.389 . S
C723 H702 0.950 . S
C723 C722 1.373 . S
C723 C739 1.377 . S
C724 C722 1.389 . S
C724 C725 1.524 . S
C724 C738 1.377 . S
C725 C724 1.524 . S
C725 C726 1.397 . S
C725 C730 1.363 . S
C726 H703 0.950 . S
C726 C725 1.397 . S
C726 C727 1.334 . S
C727 H704 0.950 . S
C727 C726 1.334 . S
C727 C728 1.287 . S
C728 C727 1.287 . S
C728 C729 1.524 . S
C728 H747 0.913 . S
C729 H705 0.950 . S
C729 C728 1.524 . S
C729 C730 1.415 . S
C730 H706 0.950 . S
C730 C725 1.363 . S
C730 C729 1.415 . S
C731 H707 0.951 . S
C731 C732 1.366 . S
C731 C733 1.388 . S
C732 C731 1.366 . S
C732 C736 1.385 . S
C733 H708 0.951 . S
C733 C731 1.388 . S
C733 C734 1.366 . S
C734 C733 1.366 . S
C734 C735 1.414 . S
C734 C737 1.499 . S
C735 H709 0.950 . S
C735 C734 1.414 . S
C735 C736 1.374 . S
C736 H710 0.950 . S
C736 C732 1.385 . S
C736 C735 1.374 . S
C737 C734 1.499 . S
C737 C738 1.373 . S
C737 C739 1.389 . S
C738 H711 0.950 . S
C738 C724 1.377 . S
C738 C737 1.373 . S
C739 C723 1.377 . S
C739 C737 1.389 . S
C739 C740 1.524 . S
C740 C739 1.524 . S
C740 C741 1.397 . S
C740 C745 1.363 . S
C741 H712 0.950 . S
C741 C740 1.397 . S
C741 C742 1.334 . S
C742 H713 0.950 . S
C742 C741 1.334 . S
C742 C743 1.287 . S
C743 C742 1.287 . S
C743 C744 1.524 . S
C743 H746 0.999 . S
C744 H714 0.950 . S
C744 C743 1.524 . S
C744 C745 1.415 . S
C745 H715 0.950 . S
C745 C740 1.363 . S
C745 C744 1.415 . S
H746 C743 0.999 . S
H747 C728 0.913 . S
H748 C766 0.951 . S
H749 C768 0.951 . S
H750 C770 0.945 1_655 S
H751 C771 0.950 . S
H752 C773 0.950 . S
H753 C776 0.950 1_655 S
H754 C777 0.950 . S
H755 C779 0.950 . S
H756 C780 0.950 . S
H757 C781 0.951 . S
H758 C783 0.951 . S
H759 C785 0.950 . S
H760 C786 0.950 . S
H761 C788 0.950 . S
H762 C791 0.950 . S
H763 C792 0.950 . S
H764 C794 0.950 1_655 S
H765 C795 0.950 1_655 S
C766 H748 0.951 . S
C766 C767 1.366 . S
C766 C768 1.388 . S
C767 C766 1.366 . S
C767 C771 1.385 . S
C768 H749 0.951 . S
C768 C766 1.388 . S
C768 C769 1.366 . S
C769 C768 1.366 . S
C769 C770 1.414 . S
C769 C772 1.499 . S
C770 H750 0.945 1_455 S
C770 C769 1.414 . S
C770 C771 1.374 . S
C771 H751 0.950 . S
C771 C767 1.385 . S
C771 C770 1.374 . S
C772 C769 1.499 . S
C772 C773 1.373 . S
C772 C774 1.389 . S
C773 H752 0.950 . S
C773 C772 1.373 . S
C773 C789 1.377 . S
C774 C772 1.389 . S
C774 C775 1.524 . S
C774 C788 1.377 . S
C775 C774 1.524 . S
C775 C776 1.397 . S
C775 C780 1.363 . S
C776 H753 0.950 1_455 S
C776 C775 1.397 . S
C776 C777 1.334 1_455 S
C777 H754 0.950 . S
C777 C776 1.334 1_655 S
C777 C778 1.287 1_655 S
C778 C777 1.287 1_455 S
C778 C779 1.524 . S
C778 H797 0.913 . S
C779 H755 0.950 . S
C779 C778 1.524 . S
C779 C780 1.415 . S
C780 H756 0.950 . S
C780 C775 1.363 . S
C780 C779 1.415 . S
C781 H757 0.951 . S
C781 C782 1.366 1_655 S
C781 C783 1.388 . S
C782 C781 1.366 1_455 S
C782 C786 1.385 . S
C783 H758 0.951 . S
C783 C781 1.388 . S
C783 C784 1.366 1_655 S
C784 C783 1.366 1_455 S
C784 C785 1.414 . S
C784 C787 1.499 . S
C785 H759 0.950 . S
C785 C784 1.414 . S
C785 C786 1.374 . S
C786 H760 0.950 . S
C786 C782 1.385 . S
C786 C785 1.374 . S
C787 C784 1.499 . S
C787 C788 1.373 . S
C787 C789 1.389 . S
C788 H761 0.950 . S
C788 C774 1.377 . S
C788 C787 1.373 . S
C789 C773 1.377 . S
C789 C787 1.389 . S
C789 C790 1.524 . S
C790 C789 1.524 . S
C790 C791 1.397 . S
C790 C795 1.363 . S
C791 H762 0.950 . S
C791 C790 1.397 . S
C791 C792 1.334 . S
C792 H763 0.950 . S
C792 C791 1.334 . S
C792 C793 1.287 . S
C793 C792 1.287 . S
C793 C794 1.524 . S
C793 H796 0.999 . S
C794 H764 0.950 1_455 S
C794 C793 1.524 . S
C794 C795 1.415 . S
C795 H765 0.950 1_455 S
C795 C790 1.363 . S
C795 C794 1.415 . S
H796 C793 0.999 . S
H797 C778 0.913 . S
C232 C61 1.392 . S
C217 C10 1.390 . S
C267 C21 1.407 . S
C282 C131 1.437 . S
C317 C31 1.353 . S
C332 C183 1.416 . S
C367 C0 1.360 . S
C382 C77 1.402 . S
C432 C121 1.419 . S
C417 C18 1.363 . S
C467 C34 1.380 . S
C482 C167 1.407 . S
C532 C114 1.369 . S
C517 C36 1.368 . S
C567 C8 1.380 1_565 S
C582 C174 1.407 . S
C632 C68 1.393 . S
C617 C23 1.392 1_565 S
C682 C130 1.344 . S
C667 C26 1.303 . S
C732 C184 1.419 . S
C717 C5 1.354 . S
C767 C13 1.359 . S
C782 C78 1.403 . S
