# Generated by pormake.
# Topology gar, (4,6)-cn, num edge types: 1
# Building blocks:
#     Node 0, Type 0, BuildingBlock: NAHDIM_clean_sbu_0, # of connection points: 4
#     Node 1, Type 0, BuildingBlock: NAHDIM_clean_sbu_0, # of connection points: 4
#     Node 2, Type 0, BuildingBlock: NAHDIM_clean_sbu_0, # of connection points: 4
#     Node 3, Type 0, BuildingBlock: NAHDIM_clean_sbu_0, # of connection points: 4
#     Node 4, Type 0, BuildingBlock: NAHDIM_clean_sbu_0, # of connection points: 4
#     Node 5, Type 0, BuildingBlock: NAHDIM_clean_sbu_0, # of connection points: 4
#     Node 6, Type 0, BuildingBlock: NAHDIM_clean_sbu_0, # of connection points: 4
#     Node 7, Type 0, BuildingBlock: NAHDIM_clean_sbu_0, # of connection points: 4
#     Node 8, Type 0, BuildingBlock: NAHDIM_clean_sbu_0, # of connection points: 4
#     Node 9, Type 0, BuildingBlock: NAHDIM_clean_sbu_0, # of connection points: 4
#     Node 10, Type 0, BuildingBlock: NAHDIM_clean_sbu_0, # of connection points: 4
#     Node 11, Type 0, BuildingBlock: NAHDIM_clean_sbu_0, # of connection points: 4
#     Node 12, Type 0, BuildingBlock: NAHDIM_clean_sbu_0, # of connection points: 4
#     Node 13, Type 0, BuildingBlock: NAHDIM_clean_sbu_0, # of connection points: 4
#     Node 14, Type 0, BuildingBlock: NAHDIM_clean_sbu_0, # of connection points: 4
#     Node 15, Type 0, BuildingBlock: NAHDIM_clean_sbu_0, # of connection points: 4
#     Node 16, Type 0, BuildingBlock: NAHDIM_clean_sbu_0, # of connection points: 4
#     Node 17, Type 0, BuildingBlock: NAHDIM_clean_sbu_0, # of connection points: 4
#     Node 18, Type 0, BuildingBlock: NAHDIM_clean_sbu_0, # of connection points: 4
#     Node 19, Type 0, BuildingBlock: NAHDIM_clean_sbu_0, # of connection points: 4
#     Node 20, Type 0, BuildingBlock: NAHDIM_clean_sbu_0, # of connection points: 4
#     Node 21, Type 0, BuildingBlock: NAHDIM_clean_sbu_0, # of connection points: 4
#     Node 22, Type 0, BuildingBlock: NAHDIM_clean_sbu_0, # of connection points: 4
#     Node 23, Type 0, BuildingBlock: NAHDIM_clean_sbu_0, # of connection points: 4
#     Node 24, Type 1, BuildingBlock: BETDIP_clean_sbu_0, # of connection points: 6
#     Node 25, Type 1, BuildingBlock: BETDIP_clean_sbu_0, # of connection points: 6
#     Node 26, Type 1, BuildingBlock: BETDIP_clean_sbu_0, # of connection points: 6
#     Node 27, Type 1, BuildingBlock: BETDIP_clean_sbu_0, # of connection points: 6
#     Node 28, Type 1, BuildingBlock: BETDIP_clean_sbu_0, # of connection points: 6
#     Node 29, Type 1, BuildingBlock: BETDIP_clean_sbu_0, # of connection points: 6
#     Node 30, Type 1, BuildingBlock: BETDIP_clean_sbu_0, # of connection points: 6
#     Node 31, Type 1, BuildingBlock: BETDIP_clean_sbu_0, # of connection points: 6
#     Node 32, Type 1, BuildingBlock: BETDIP_clean_sbu_0, # of connection points: 6
#     Node 33, Type 1, BuildingBlock: BETDIP_clean_sbu_0, # of connection points: 6
#     Node 34, Type 1, BuildingBlock: BETDIP_clean_sbu_0, # of connection points: 6
#     Node 35, Type 1, BuildingBlock: BETDIP_clean_sbu_0, # of connection points: 6
#     Node 36, Type 1, BuildingBlock: BETDIP_clean_sbu_0, # of connection points: 6
#     Node 37, Type 1, BuildingBlock: BETDIP_clean_sbu_0, # of connection points: 6
#     Node 38, Type 1, BuildingBlock: BETDIP_clean_sbu_0, # of connection points: 6
#     Node 39, Type 1, BuildingBlock: BETDIP_clean_sbu_0, # of connection points: 6
#     Edge 40, Type (0, 1), BuildingBlock: TEMPAE_clean_linker_10, # of connection points: 2
#     Edge 41, Type (0, 1), BuildingBlock: TEMPAE_clean_linker_10, # of connection points: 2
#     Edge 42, Type (0, 1), BuildingBlock: TEMPAE_clean_linker_10, # of connection points: 2
#     Edge 43, Type (0, 1), BuildingBlock: TEMPAE_clean_linker_10, # of connection points: 2
#     Edge 44, Type (0, 1), BuildingBlock: TEMPAE_clean_linker_10, # of connection points: 2
#     Edge 45, Type (0, 1), BuildingBlock: TEMPAE_clean_linker_10, # of connection points: 2
#     Edge 46, Type (0, 1), BuildingBlock: TEMPAE_clean_linker_10, # of connection points: 2
#     Edge 47, Type (0, 1), BuildingBlock: TEMPAE_clean_linker_10, # of connection points: 2
#     Edge 48, Type (0, 1), BuildingBlock: TEMPAE_clean_linker_10, # of connection points: 2
#     Edge 49, Type (0, 1), BuildingBlock: TEMPAE_clean_linker_10, # of connection points: 2
#     Edge 50, Type (0, 1), BuildingBlock: TEMPAE_clean_linker_10, # of connection points: 2
#     Edge 51, Type (0, 1), BuildingBlock: TEMPAE_clean_linker_10, # of connection points: 2
#     Edge 52, Type (0, 1), BuildingBlock: TEMPAE_clean_linker_10, # of connection points: 2
#     Edge 53, Type (0, 1), BuildingBlock: TEMPAE_clean_linker_10, # of connection points: 2
#     Edge 54, Type (0, 1), BuildingBlock: TEMPAE_clean_linker_10, # of connection points: 2
#     Edge 55, Type (0, 1), BuildingBlock: TEMPAE_clean_linker_10, # of connection points: 2
#     Edge 56, Type (0, 1), BuildingBlock: TEMPAE_clean_linker_10, # of connection points: 2
#     Edge 57, Type (0, 1), BuildingBlock: TEMPAE_clean_linker_10, # of connection points: 2
#     Edge 58, Type (0, 1), BuildingBlock: TEMPAE_clean_linker_10, # of connection points: 2
#     Edge 59, Type (0, 1), BuildingBlock: TEMPAE_clean_linker_10, # of connection points: 2
#     Edge 60, Type (0, 1), BuildingBlock: TEMPAE_clean_linker_10, # of connection points: 2
#     Edge 61, Type (0, 1), BuildingBlock: TEMPAE_clean_linker_10, # of connection points: 2
#     Edge 62, Type (0, 1), BuildingBlock: TEMPAE_clean_linker_10, # of connection points: 2
#     Edge 63, Type (0, 1), BuildingBlock: TEMPAE_clean_linker_10, # of connection points: 2
#     Edge 64, Type (0, 1), BuildingBlock: TEMPAE_clean_linker_10, # of connection points: 2
#     Edge 65, Type (0, 1), BuildingBlock: TEMPAE_clean_linker_10, # of connection points: 2
#     Edge 66, Type (0, 1), BuildingBlock: TEMPAE_clean_linker_10, # of connection points: 2
#     Edge 67, Type (0, 1), BuildingBlock: TEMPAE_clean_linker_10, # of connection points: 2
#     Edge 68, Type (0, 1), BuildingBlock: TEMPAE_clean_linker_10, # of connection points: 2
#     Edge 69, Type (0, 1), BuildingBlock: TEMPAE_clean_linker_10, # of connection points: 2
#     Edge 70, Type (0, 1), BuildingBlock: TEMPAE_clean_linker_10, # of connection points: 2
#     Edge 71, Type (0, 1), BuildingBlock: TEMPAE_clean_linker_10, # of connection points: 2
#     Edge 72, Type (0, 1), BuildingBlock: TEMPAE_clean_linker_10, # of connection points: 2
#     Edge 73, Type (0, 1), BuildingBlock: TEMPAE_clean_linker_10, # of connection points: 2
#     Edge 74, Type (0, 1), BuildingBlock: TEMPAE_clean_linker_10, # of connection points: 2
#     Edge 75, Type (0, 1), BuildingBlock: TEMPAE_clean_linker_10, # of connection points: 2
#     Edge 76, Type (0, 1), BuildingBlock: TEMPAE_clean_linker_10, # of connection points: 2
#     Edge 77, Type (0, 1), BuildingBlock: TEMPAE_clean_linker_10, # of connection points: 2
#     Edge 78, Type (0, 1), BuildingBlock: TEMPAE_clean_linker_10, # of connection points: 2
#     Edge 79, Type (0, 1), BuildingBlock: TEMPAE_clean_linker_10, # of connection points: 2
#     Edge 80, Type (0, 1), BuildingBlock: TEMPAE_clean_linker_10, # of connection points: 2
#     Edge 81, Type (0, 1), BuildingBlock: TEMPAE_clean_linker_10, # of connection points: 2
#     Edge 82, Type (0, 1), BuildingBlock: TEMPAE_clean_linker_10, # of connection points: 2
#     Edge 83, Type (0, 1), BuildingBlock: TEMPAE_clean_linker_10, # of connection points: 2
#     Edge 84, Type (0, 1), BuildingBlock: TEMPAE_clean_linker_10, # of connection points: 2
#     Edge 85, Type (0, 1), BuildingBlock: TEMPAE_clean_linker_10, # of connection points: 2
#     Edge 86, Type (0, 1), BuildingBlock: TEMPAE_clean_linker_10, # of connection points: 2
#     Edge 87, Type (0, 1), BuildingBlock: TEMPAE_clean_linker_10, # of connection points: 2
#     Edge 88, Type (0, 1), BuildingBlock: TEMPAE_clean_linker_10, # of connection points: 2
#     Edge 89, Type (0, 1), BuildingBlock: TEMPAE_clean_linker_10, # of connection points: 2
#     Edge 90, Type (0, 1), BuildingBlock: TEMPAE_clean_linker_10, # of connection points: 2
#     Edge 91, Type (0, 1), BuildingBlock: TEMPAE_clean_linker_10, # of connection points: 2
#     Edge 92, Type (0, 1), BuildingBlock: TEMPAE_clean_linker_10, # of connection points: 2
#     Edge 93, Type (0, 1), BuildingBlock: TEMPAE_clean_linker_10, # of connection points: 2
#     Edge 94, Type (0, 1), BuildingBlock: TEMPAE_clean_linker_10, # of connection points: 2
#     Edge 95, Type (0, 1), BuildingBlock: TEMPAE_clean_linker_10, # of connection points: 2
#     Edge 96, Type (0, 1), BuildingBlock: TEMPAE_clean_linker_10, # of connection points: 2
#     Edge 97, Type (0, 1), BuildingBlock: TEMPAE_clean_linker_10, # of connection points: 2
#     Edge 98, Type (0, 1), BuildingBlock: TEMPAE_clean_linker_10, # of connection points: 2
#     Edge 99, Type (0, 1), BuildingBlock: TEMPAE_clean_linker_10, # of connection points: 2
#     Edge 100, Type (0, 1), BuildingBlock: TEMPAE_clean_linker_10, # of connection points: 2
#     Edge 101, Type (0, 1), BuildingBlock: TEMPAE_clean_linker_10, # of connection points: 2
#     Edge 102, Type (0, 1), BuildingBlock: TEMPAE_clean_linker_10, # of connection points: 2
#     Edge 103, Type (0, 1), BuildingBlock: TEMPAE_clean_linker_10, # of connection points: 2
#     Edge 104, Type (0, 1), BuildingBlock: TEMPAE_clean_linker_10, # of connection points: 2
#     Edge 105, Type (0, 1), BuildingBlock: TEMPAE_clean_linker_10, # of connection points: 2
#     Edge 106, Type (0, 1), BuildingBlock: TEMPAE_clean_linker_10, # of connection points: 2
#     Edge 107, Type (0, 1), BuildingBlock: TEMPAE_clean_linker_10, # of connection points: 2
#     Edge 108, Type (0, 1), BuildingBlock: TEMPAE_clean_linker_10, # of connection points: 2
#     Edge 109, Type (0, 1), BuildingBlock: TEMPAE_clean_linker_10, # of connection points: 2
#     Edge 110, Type (0, 1), BuildingBlock: TEMPAE_clean_linker_10, # of connection points: 2
#     Edge 111, Type (0, 1), BuildingBlock: TEMPAE_clean_linker_10, # of connection points: 2
#     Edge 112, Type (0, 1), BuildingBlock: TEMPAE_clean_linker_10, # of connection points: 2
#     Edge 113, Type (0, 1), BuildingBlock: TEMPAE_clean_linker_10, # of connection points: 2
#     Edge 114, Type (0, 1), BuildingBlock: TEMPAE_clean_linker_10, # of connection points: 2
#     Edge 115, Type (0, 1), BuildingBlock: TEMPAE_clean_linker_10, # of connection points: 2
#     Edge 116, Type (0, 1), BuildingBlock: TEMPAE_clean_linker_10, # of connection points: 2
#     Edge 117, Type (0, 1), BuildingBlock: TEMPAE_clean_linker_10, # of connection points: 2
#     Edge 118, Type (0, 1), BuildingBlock: TEMPAE_clean_linker_10, # of connection points: 2
#     Edge 119, Type (0, 1), BuildingBlock: TEMPAE_clean_linker_10, # of connection points: 2
#     Edge 120, Type (0, 1), BuildingBlock: TEMPAE_clean_linker_10, # of connection points: 2
#     Edge 121, Type (0, 1), BuildingBlock: TEMPAE_clean_linker_10, # of connection points: 2
#     Edge 122, Type (0, 1), BuildingBlock: TEMPAE_clean_linker_10, # of connection points: 2
#     Edge 123, Type (0, 1), BuildingBlock: TEMPAE_clean_linker_10, # of connection points: 2
#     Edge 124, Type (0, 1), BuildingBlock: TEMPAE_clean_linker_10, # of connection points: 2
#     Edge 125, Type (0, 1), BuildingBlock: TEMPAE_clean_linker_10, # of connection points: 2
#     Edge 126, Type (0, 1), BuildingBlock: TEMPAE_clean_linker_10, # of connection points: 2
#     Edge 127, Type (0, 1), BuildingBlock: TEMPAE_clean_linker_10, # of connection points: 2
#     Edge 128, Type (0, 1), BuildingBlock: TEMPAE_clean_linker_10, # of connection points: 2
#     Edge 129, Type (0, 1), BuildingBlock: TEMPAE_clean_linker_10, # of connection points: 2
#     Edge 130, Type (0, 1), BuildingBlock: TEMPAE_clean_linker_10, # of connection points: 2
#     Edge 131, Type (0, 1), BuildingBlock: TEMPAE_clean_linker_10, # of connection points: 2
#     Edge 132, Type (0, 1), BuildingBlock: TEMPAE_clean_linker_10, # of connection points: 2
#     Edge 133, Type (0, 1), BuildingBlock: TEMPAE_clean_linker_10, # of connection points: 2
#     Edge 134, Type (0, 1), BuildingBlock: TEMPAE_clean_linker_10, # of connection points: 2
#     Edge 135, Type (0, 1), BuildingBlock: TEMPAE_clean_linker_10, # of connection points: 2
# Relax obj value: 0.195
# Max RMSD: 0.302
# Mean RMSD: 0.170
data_MOF--net-gar--node1-NAHDIM_clean_sbu_0--node2-BETDIP_clean_sbu_0--edge1-TEMPAE_clean_linker_10
_symmetry_space_group_name_H-M    P1
_symmetry_Int_Tables_number       1
_symmetry_cell_setting            triclinic
loop_
_symmetry_equiv_pos_as_xyz
'x, y, z'
_cell_length_a     65.693732
_cell_length_b     58.121474
_cell_length_c     54.867836
_cell_angle_alpha  97.509485
_cell_angle_beta   99.589916
_cell_angle_gamma 101.73575
loop_
_atom_site_label
_atom_site_type_symbol
_atom_site_fract_x
_atom_site_fract_y
_atom_site_fract_z
_atom_type_partial_charge
C0 C 0.06823 0.31395 0.3668 0.0
O1 O 0.07265 0.31368 0.39101 0.0
O2 O 0.03093 0.28174 0.39493 0.0
Zn3 Zn 0.02951 0.31169 0.38088 0.0
O4 O 0.03775 0.3388 0.40997 0.0
C5 C 0.98892 0.30054 0.3437 0.0
O6 O 0.99835 0.29068 0.32722 0.0
O7 O 0.04949 0.31461 0.35688 0.0
C8 C 0.02517 0.33757 0.42529 0.0
O9 O 0.00886 0.31923 0.42107 0.0
C10 C 0.01475 0.26692 0.39776 0.0
O11 O 0.99575 0.27065 0.3907 0.0
O12 O 0.99944 0.31026 0.36542 0.0
C13 C 0.01255 0.74093 0.72923 0.0
O14 O 0.0081 0.74075 0.70493 0.0
O15 O 0.04937 0.71807 0.69154 0.0
Zn16 Zn 0.05273 0.74707 0.71731 0.0
O17 O 0.04762 0.77345 0.69852 0.0
C18 C 0.09303 0.74109 0.74319 0.0
O19 O 0.08331 0.71847 0.73987 0.0
O20 O 0.03163 0.74242 0.73969 0.0
C21 C 0.06281 0.7897 0.69577 0.0
O22 O 0.08235 0.78965 0.70594 0.0
C23 C 0.06301 0.719 0.67755 0.0
O24 O 0.07838 0.73824 0.6811 0.0
O25 O 0.0826 0.75614 0.73659 0.0
C26 C 0.5693 0.81104 0.8744 0.0
O27 O 0.57122 0.80784 0.89788 0.0
O28 O 0.52656 0.77912 0.8955 0.0
Zn29 Zn 0.52788 0.80961 0.88162 0.0
O30 O 0.5331 0.83639 0.91061 0.0
C31 C 0.49093 0.78959 0.84315 0.0
O32 O 0.49921 0.77082 0.84181 0.0
O33 O 0.5516 0.81342 0.86296 0.0
C34 C 0.51861 0.83722 0.92321 0.0
O35 O 0.50065 0.82106 0.91635 0.0
C36 C 0.50991 0.76612 0.89971 0.0
O37 O 0.49168 0.7722 0.89443 0.0
O38 O 0.50067 0.80841 0.85853 0.0
C39 C 0.51606 0.22472 0.24238 0.0
O40 O 0.51113 0.20678 0.22359 0.0
O41 O 0.54402 0.21401 0.19165 0.0
Zn42 Zn 0.54945 0.2437 0.21683 0.0
O43 O 0.54293 0.26968 0.19853 0.0
C44 C 0.59086 0.25246 0.21201 0.0
O45 O 0.58015 0.25033 0.18904 0.0
O46 O 0.53234 0.24132 0.24379 0.0
C47 C 0.54879 0.29134 0.2092 0.0
O48 O 0.55862 0.2965 0.23282 0.0
C49 C 0.52965 0.20805 0.17195 0.0
O50 O 0.51484 0.22009 0.16841 0.0
O51 O 0.58075 0.25125 0.22984 0.0
C52 C 0.0305 0.79267 0.17416 0.0
O53 O 0.02639 0.79037 0.14957 0.0
O54 O 0.06701 0.76326 0.14264 0.0
Zn55 Zn 0.07298 0.79726 0.16349 0.0
O56 O 0.06993 0.82558 0.14366 0.0
C57 C 0.11875 0.79739 0.17687 0.0
O58 O 0.11598 0.7911 0.15245 0.0
O59 O 0.04982 0.79588 0.1853 0.0
C60 C 0.0809 0.83537 0.12897 0.0
O61 O 0.09697 0.8268 0.12367 0.0
C62 C 0.06666 0.75539 0.11971 0.0
O63 O 0.06983 0.77063 0.10426 0.0
O64 O 0.10308 0.80203 0.1861 0.0
C65 C 0.55352 0.76318 0.42864 0.0
O66 O 0.55789 0.77082 0.45296 0.0
O67 O 0.50951 0.72711 0.45774 0.0
Zn68 Zn 0.51057 0.75666 0.43885 0.0
O69 O 0.51824 0.79071 0.46013 0.0
C70 C 0.46477 0.75595 0.4245 0.0
O71 O 0.46616 0.75732 0.44884 0.0
O72 O 0.53404 0.75596 0.4177 0.0
C73 C 0.51307 0.79897 0.48036 0.0
O74 O 0.50215 0.78418 0.4922 0.0
C75 C 0.51925 0.72629 0.47975 0.0
O76 O 0.53066 0.74626 0.49387 0.0
O77 O 0.48132 0.7545 0.41551 0.0
C78 C 0.53193 0.29335 0.67603 0.0
O79 O 0.52839 0.2932 0.65171 0.0
O80 O 0.56967 0.26305 0.6449 0.0
Zn81 Zn 0.57461 0.29668 0.66639 0.0
O82 O 0.57224 0.3258 0.64772 0.0
C83 C 0.62079 0.29984 0.6813 0.0
O84 O 0.61931 0.29674 0.65686 0.0
O85 O 0.55089 0.29459 0.68727 0.0
C86 C 0.57969 0.33275 0.62913 0.0
O87 O 0.59117 0.32017 0.61818 0.0
C88 C 0.56412 0.25454 0.62151 0.0
O89 O 0.56012 0.26881 0.60556 0.0
O90 O 0.60414 0.30147 0.69001 0.0
C91 C 0.05236 0.25628 0.92463 0.0
O92 O 0.05529 0.25167 0.9476 0.0
O93 O 0.01279 0.22856 0.9551 0.0
Zn94 Zn 0.01094 0.25798 0.93666 0.0
O95 O 0.01797 0.29176 0.95842 0.0
C96 C 0.96414 0.2532 0.92236 0.0
O97 O 0.96507 0.25281 0.94639 0.0
O98 O 0.03424 0.25951 0.91507 0.0
C99 C 0.01126 0.29978 0.97761 0.0
O100 O 0.9988 0.28489 0.98781 0.0
C101 C 1.00443 0.22088 0.97282 0.0
O102 O 0.99214 0.23279 0.98305 0.0
O103 O 0.98121 0.25432 0.91381 0.0
C104 C 0.39166 0.09512 0.27549 0.0
O105 O 0.40161 0.09584 0.25662 0.0
O106 O 0.43108 0.04995 0.25359 0.0
Zn107 Zn 0.41285 0.0485 0.28568 0.0
O108 O 0.43448 0.05216 0.32265 0.0
C109 C 0.37781 1.00229 0.29024 0.0
O110 O 0.36942 0.01711 0.30335 0.0
O111 O 0.39364 0.07814 0.2886 0.0
C112 C 0.43793 0.03441 0.33351 0.0
O113 O 0.42866 0.01287 0.32124 0.0
C114 C 0.43552 0.03212 0.24013 0.0
O115 O 0.42897 0.01089 0.2457 0.0
O116 O 0.39395 0.01129 0.28106 0.0
C117 C 0.30729 0.14225 0.53186 0.0
O118 O 0.31202 0.16568 0.53682 0.0
O119 O 0.27213 0.17211 0.56145 0.0
Zn120 Zn 0.26539 0.15208 0.52617 0.0
O121 O 0.26903 0.17307 0.49855 0.0
C122 C 0.22124 0.13898 0.53266 0.0
O123 O 0.22706 0.16057 0.54593 0.0
O124 O 0.28771 0.13143 0.52626 0.0
C125 C 0.25431 0.17913 0.48426 0.0
O126 O 0.23465 0.17224 0.48712 0.0
C127 C 0.27244 0.19413 0.56741 0.0
O128 O 0.26872 0.20662 0.54953 0.0
O129 O 0.23464 0.13118 0.52133 0.0
C130 C 0.16433 0.0134 0.81239 0.0
O131 O 0.15063 0.01179 0.79151 0.0
O132 O 0.13265 0.05149 0.79228 0.0
Zn133 Zn 0.14961 0.05622 0.828 0.0
O134 O 0.13155 0.05381 0.85495 0.0
C135 C 0.18569 0.09014 0.82244 0.0
O136 O 0.18727 0.07105 0.80784 0.0
O137 O 0.16649 0.03068 0.83014 0.0
C138 C 0.14083 0.05148 0.87653 0.0
O139 O 0.16116 0.05171 0.88012 0.0
C140 C 0.11265 0.04597 0.78437 0.0
O141 O 0.10006 0.04289 0.80051 0.0
O142 O 0.17041 0.08851 0.83416 0.0
C143 C 0.18817 0.8868 0.98831 0.0
O144 O 0.18618 0.86427 0.99049 0.0
O145 O 0.22977 0.86485 0.01154 0.0
Zn146 Zn 0.22888 0.88185 0.98184 0.0
O147 O 0.22738 0.85898 0.95052 0.0
C148 C 0.27215 0.90629 0.00344 0.0
O149 O 0.27052 0.88946 0.01729 0.0
O150 O 0.20449 0.89762 0.98138 0.0
C151 C 0.24027 0.84542 0.95282 0.0
O152 O 0.25281 0.84716 0.97461 0.0
C153 C 0.22227 0.84281 0.01104 0.0
O154 O 0.21256 0.82895 0.98966 0.0
O155 O 0.25615 0.90698 0.98717 0.0
C156 C 0.27876 0.41445 0.07931 0.0
O157 O 0.27432 0.3915 0.0801 0.0
O158 O 0.31913 0.38703 0.11093 0.0
Zn159 Zn 0.32031 0.40414 0.07974 0.0
O160 O 0.31155 0.38137 0.04576 0.0
C161 C 0.36773 0.41959 0.08663 0.0
O162 O 0.36754 0.39952 0.09527 0.0
O163 O 0.29791 0.42465 0.07929 0.0
C164 C 0.32252 0.36788 0.03674 0.0
O165 O 0.34058 0.3667 0.05038 0.0
C166 C 0.32275 0.36662 0.11359 0.0
O167 O 0.32852 0.35428 0.09521 0.0
O168 O 0.35009 0.42538 0.08019 0.0
C169 C 0.85318 0.13018 0.05956 0.0
O170 O 0.84118 0.14447 0.05208 0.0
O171 O 0.88465 0.16265 0.13624 0.0
Zn172 Zn 0.85759 0.15618 0.11032 0.0
O173 O 0.85459 0.18534 0.09553 0.0
C174 C 0.81615 0.15375 0.12191 0.0
O175 O 0.81946 0.1754 0.11654 0.0
O176 O 0.86091 0.13211 0.08277 0.0
C177 C 0.86855 0.19545 0.0845 0.0
O178 O 0.88614 0.18793 0.08494 0.0
C179 C 0.88989 0.17925 0.15512 0.0
O180 O 0.90885 0.18348 0.16936 0.0
O181 O 0.8308 0.14243 0.12186 0.0
C182 C 0.18729 0.4541 0.32183 0.0
O183 O 0.17074 0.44775 0.33202 0.0
O184 O 0.15154 0.50216 0.2783 0.0
Zn185 Zn 0.17164 0.50546 0.31613 0.0
O186 O 0.15297 0.50902 0.34764 0.0
C187 C 0.18683 0.56014 0.31643 0.0
O188 O 0.16627 0.55833 0.31311 0.0
O189 O 0.19017 0.4751 0.31502 0.0
C190 C 0.15159 0.4987 0.36719 0.0
O191 O 0.16247 0.48232 0.37027 0.0
C192 C 0.13565 0.51163 0.27192 0.0
O193 O 0.12893 0.52317 0.29002 0.0
O194 O 0.19343 0.5409 0.31907 0.0
C195 C 0.77839 0.91548 0.56574 0.0
O196 O 0.77441 0.89484 0.55077 0.0
O197 O 0.82131 0.88357 0.60549 0.0
Zn198 Zn 0.82024 0.90405 0.57696 0.0
O199 O 0.81291 0.88362 0.54176 0.0
C200 C 0.86334 0.91852 0.56773 0.0
O201 O 0.85805 0.89635 0.55596 0.0
O202 O 0.79702 0.92354 0.57916 0.0
C203 C 0.81289 0.86167 0.53581 0.0
O204 O 0.81722 0.84937 0.55368 0.0
C205 C 0.8048 0.87524 0.6139 0.0
O206 O 0.7866 0.87925 0.60362 0.0
O207 O 0.85 0.92633 0.57916 0.0
C208 C 0.92217 0.04436 0.27243 0.0
O209 O 0.94292 0.0514 0.27898 0.0
O210 O 0.94523 0.99931 0.23695 0.0
Zn211 Zn 0.9304 0.99678 0.2667 0.0
O212 O 0.94916 1.0016 0.30141 0.0
C213 C 0.91143 0.94461 0.2594 0.0
O214 O 0.93037 0.94141 0.25748 0.0
O215 O 0.91366 0.02218 0.26682 0.0
C216 C 0.96829 0.01298 0.30988 0.0
O217 O 0.9793 0.02332 0.29476 0.0
C218 C 0.96248 0.99409 0.23326 0.0
O219 O 0.97339 0.98502 0.25031 0.0
O220 O 0.90849 0.96568 0.26236 0.0
C221 C 0.37448 0.67499 0.55817 0.0
O222 O 0.38304 0.69428 0.57499 0.0
O223 O 0.34549 0.69687 0.60682 0.0
Zn224 Zn 0.33375 0.67383 0.57479 0.0
O225 O 0.31514 0.68861 0.55237 0.0
C226 C 0.30451 0.6296 0.56202 0.0
O227 O 0.30738 0.63359 0.53966 0.0
O228 O 0.3552 0.66461 0.55629 0.0
C229 C 0.29763 0.69233 0.55692 0.0
O230 O 0.29142 0.68647 0.57728 0.0
C231 C 0.34959 0.71905 0.60599 0.0
O232 O 0.3489 0.72593 0.58405 0.0
O233 O 0.31522 0.64443 0.58119 0.0
C234 C 0.41692 0.55002 0.7842 0.0
O235 O 0.42995 0.55286 0.80587 0.0
O236 O 0.44721 0.50639 0.74226 0.0
Zn237 Zn 0.43098 0.50553 0.77095 0.0
O238 O 0.44865 0.51058 0.80638 0.0
C239 C 0.41151 0.45368 0.76331 0.0
O240 O 0.43041 0.45062 0.76094 0.0
O241 O 0.41508 0.53169 0.76785 0.0
C242 C 0.46748 0.52257 0.81565 0.0
O243 O 0.47872 0.53366 0.80119 0.0
C244 C 0.46498 0.50167 0.74011 0.0
O245 O 0.47573 0.49399 0.75852 0.0
O246 O 0.40856 0.47475 0.76666 0.0
C247 C 0.69024 0.95638 0.82476 0.0
O248 O 0.67834 0.95423 0.84171 0.0
O249 O 0.65144 1.00235 0.77791 0.0
Zn250 Zn 0.67162 1.00501 0.81562 0.0
O251 O 0.65298 1.00449 0.84743 0.0
C252 C 0.68742 0.05967 0.81485 0.0
O253 O 0.66697 0.05756 0.80747 0.0
O254 O 0.68996 0.97459 0.81308 0.0
C255 C 0.64912 0.0224 0.8614 0.0
O256 O 0.65665 0.04376 0.85675 0.0
C257 C 0.63527 0.01136 0.7715 0.0
O258 O 0.6281 0.02232 0.7896 0.0
O259 O 0.69352 0.04071 0.82003 0.0
C260 C 0.80597 0.64132 0.03189 0.0
O261 O 0.8103 0.66449 0.0395 0.0
O262 O 0.76984 0.66978 0.05924 0.0
Zn263 Zn 0.7637 0.6503 0.02384 0.0
O264 O 0.76707 0.67195 0.99658 0.0
C265 C 0.71767 0.63717 0.02319 0.0
O266 O 0.72042 0.66047 0.02804 0.0
O267 O 0.78657 0.63042 0.02379 0.0
C268 C 0.75263 0.67424 0.97893 0.0
O269 O 0.73303 0.66244 0.97737 0.0
C270 C 0.76895 0.69136 0.06562 0.0
O271 O 0.7641 0.70383 0.04808 0.0
O272 O 0.73351 0.62849 0.01952 0.0
C273 C 0.89604 0.59778 0.77919 0.0
O274 O 0.90913 0.60076 0.76359 0.0
O275 O 0.93163 0.5492 0.75444 0.0
Zn276 Zn 0.91368 0.54854 0.78688 0.0
O277 O 0.93614 0.55154 0.82305 0.0
C278 C 0.89841 0.49351 0.78666 0.0
O279 O 0.91899 0.49525 0.7917 0.0
O280 O 0.89535 0.57887 0.78989 0.0
C281 C 0.93246 0.53961 0.84086 0.0
O282 O 0.91366 0.52531 0.83791 0.0
C283 C 0.93549 0.53141 0.74028 0.0
O284 O 0.92798 0.50997 0.7447 0.0
O285 O 0.8921 0.51277 0.78321 0.0
C286 C 0.70464 0.4044 0.51984 0.0
O287 O 0.7079 0.3835 0.52371 0.0
O288 O 0.74777 0.38213 0.51327 0.0
Zn289 Zn 0.73601 0.40224 0.48999 0.0
O290 O 0.72706 0.38436 0.455 0.0
C291 C 0.77606 0.42228 0.48372 0.0
O292 O 0.77461 0.3993 0.47753 0.0
O293 O 0.71362 0.41488 0.50418 0.0
C294 C 0.72094 0.36182 0.44991 0.0
O295 O 0.71692 0.34984 0.46794 0.0
C296 C 0.75731 0.39299 0.53508 0.0
O297 O 0.75904 0.41609 0.54063 0.0
O298 O 0.76019 0.4292 0.48978 0.0
C299 C 0.67329 0.51999 0.30891 0.0
O300 O 0.6738 0.53427 0.29221 0.0
O301 O 0.63102 0.54989 0.2957 0.0
Zn302 Zn 0.65028 0.55209 0.32947 0.0
O303 O 0.63655 0.5513 0.3602 0.0
C304 C 0.67178 0.603 0.33854 0.0
O305 O 0.65333 0.60666 0.34214 0.0
O306 O 0.66382 0.52398 0.32687 0.0
C307 C 0.61797 0.55314 0.36256 0.0
O308 O 0.60495 0.55684 0.34331 0.0
C309 C 0.61389 0.53462 0.28554 0.0
O310 O 0.60563 0.51877 0.29829 0.0
O311 O 0.67392 0.5817 0.33386 0.0
Tb312 Tb 0.02306 0.01274 0.03233 0.0
Tb313 Tb 0.06201 0.04232 0.06591 0.0
C314 C 0.98505 0.99703 0.01051 0.0
C315 C 0.96847 0.00991 0.00359 0.0
C316 C 0.96841 0.03118 0.01891 0.0
C317 C 0.95355 0.04426 0.01201 0.0
C318 C 0.93829 0.03638 0.98966 0.0
C319 C 0.9382 0.01497 0.97433 0.0
C320 C 0.95335 1.0019 0.98119 0.0
C321 C 0.05695 0.01738 0.01199 0.0
C322 C 0.03339 0.07035 0.03687 0.0
C323 C 0.10013 0.05885 0.08703 0.0
C324 C 0.11691 0.0463 0.09431 0.0
C325 C 0.1346 0.04958 0.08283 0.0
C326 C 0.14611 0.03194 0.08096 0.0
C327 C 0.13999 0.01099 0.09064 0.0
C328 C 0.12448 0.00946 0.10541 0.0
C329 C 0.11296 0.02706 0.10729 0.0
C330 C 0.02812 0.03725 0.08652 0.0
C331 C 0.05152 0.98453 0.06153 0.0
O332 O 0.99167 0.9983 0.03464 0.0
O333 O 1.00074 1.00049 0.99856 0.0
O334 O 0.05199 0.03332 0.02623 0.0
O335 O 0.04212 0.998 0.0081 0.0
O336 O 0.01913 0.04967 0.03063 0.0
O337 O 0.05259 0.07166 0.04968 0.0
O338 O 0.0933 0.05594 0.06277 0.0
O339 O 0.08451 0.05653 0.09921 0.0
O340 O 0.03316 0.0216 0.07203 0.0
O341 O 0.04288 0.0567 0.09036 0.0
O342 O 0.06576 1.00531 0.06832 0.0
O343 O 0.03247 0.98317 0.04819 0.0
H344 H 0.97981 0.03773 0.03636 0.0
H345 H 0.95369 0.06031 0.02462 0.0
H346 H 0.9265 1.00844 0.95712 0.0
H347 H 0.95327 0.9856 0.96905 0.0
H348 H 0.13799 0.06436 0.07283 0.0
H349 H 0.15807 0.03343 0.06947 0.0
H350 H 0.11988 0.99353 0.11331 0.0
H351 H 0.09961 0.02426 0.11664 0.0
Tb352 Tb 0.29521 0.76792 0.27842 0.0
Tb353 Tb 0.28806 0.78796 0.32478 0.0
C354 C 0.29655 0.75653 0.23299 0.0
C355 C 0.29069 0.7656 0.20973 0.0
C356 C 0.29758 0.7897 0.20783 0.0
C357 C 0.28986 0.79808 0.18621 0.0
C358 C 0.27495 0.78254 0.16655 0.0
C359 C 0.26842 0.75842 0.16832 0.0
C360 C 0.27636 0.74999 0.18968 0.0
C361 C 0.32449 0.76402 0.31653 0.0
C362 C 0.31187 0.82455 0.29668 0.0
C363 C 0.28469 0.79948 0.36951 0.0
C364 C 0.27237 0.78896 0.38695 0.0
C365 C 0.26918 0.76456 0.38806 0.0
C366 C 0.25911 0.75528 0.40625 0.0
C367 C 0.25202 0.77023 0.42368 0.0
C368 C 0.25406 0.79438 0.42148 0.0
C369 C 0.2642 0.80367 0.40324 0.0
C370 C 0.25922 0.7919 0.2862 0.0
C371 C 0.27091 0.73066 0.30659 0.0
O372 O 0.28052 0.7483 0.24303 0.0
O373 O 0.31283 0.7693 0.24973 0.0
O374 O 0.31678 0.78204 0.31411 0.0
O375 O 0.31627 0.74801 0.29683 0.0
O376 O 0.30331 0.80725 0.277 0.0
O377 O 0.31071 0.81947 0.31928 0.0
O378 O 0.29918 0.78882 0.36303 0.0
O379 O 0.27378 0.80582 0.3505 0.0
O380 O 0.2666 0.77376 0.28909 0.0
O381 O 0.2679 0.80838 0.3054 0.0
O382 O 0.27472 0.74917 0.32515 0.0
O383 O 0.27662 0.73422 0.28516 0.0
H384 H 0.30848 0.80214 0.22317 0.0
H385 H 0.29502 0.81678 0.18514 0.0
H386 H 0.25708 0.74615 0.15322 0.0
H387 H 0.27083 0.73136 0.19087 0.0
H388 H 0.27527 0.75285 0.3756 0.0
H389 H 0.25819 0.73669 0.40765 0.0
H390 H 0.24864 0.80629 0.43452 0.0
H391 H 0.2663 0.82251 0.40241 0.0
Tb392 Tb 0.56443 0.03068 0.54507 0.0
Tb393 Tb 0.52037 0.02299 0.55821 0.0
C394 C 0.60359 0.03335 0.5464 0.0
C395 C 0.6214 0.02194 0.55403 0.0
C396 C 0.61816 0.99759 0.55583 0.0
C397 C 0.63552 0.98682 0.55993 0.0
C398 C 0.65647 1.00012 0.5621 0.0
C399 C 0.65955 0.02465 0.56111 0.0
C400 C 0.64227 0.03537 0.55715 0.0
C401 C 0.53532 0.03377 0.50433 0.0
C402 C 0.53544 0.97839 0.53682 0.0
C403 C 0.48243 0.02358 0.56114 0.0
C404 C 0.46607 0.03782 0.55609 0.0
C405 C 0.45057 0.03142 0.53378 0.0
C406 C 0.4336 0.04273 0.53017 0.0
C407 C 0.43147 0.06068 0.54885 0.0
C408 C 0.44727 0.06746 0.57091 0.0
C409 C 0.46426 0.05617 0.57451 0.0
C410 C 0.55077 0.01449 0.59365 0.0
C411 C 0.54841 0.07639 0.56283 0.0
O412 O 0.59626 0.04477 0.56392 0.0
O413 O 0.58844 0.02132 0.52785 0.0
O414 O 0.53272 0.02973 0.52592 0.0
O415 O 0.55559 0.03679 0.50577 0.0
O416 O 0.55495 0.99194 0.54354 0.0
O417 O 0.51869 0.98767 0.53753 0.0
O418 O 0.48791 0.01247 0.54178 0.0
O419 O 0.49868 0.03243 0.5797 0.0
O420 O 0.55272 0.03053 0.57986 0.0
O421 O 0.53085 1.00358 0.58825 0.0
O422 O 0.52975 0.06205 0.56224 0.0
O423 O 0.56485 0.06805 0.55768 0.0
H424 H 0.60222 0.98677 0.55334 0.0
H425 H 0.63247 0.96789 0.56045 0.0
H426 H 0.67538 0.03559 0.5631 0.0
H427 H 0.6452 0.05415 0.55577 0.0
H428 H 0.4512 0.01713 0.51933 0.0
H429 H 0.42173 0.03677 0.51304 0.0
H430 H 0.44645 0.08144 0.58558 0.0
H431 H 0.47572 0.06149 0.59202 0.0
Tb432 Tb 0.26983 0.28242 0.7974 0.0
Tb433 Tb 0.31656 0.27872 0.80664 0.0
C434 C 0.23067 0.27875 0.79676 0.0
C435 C 0.21355 0.27525 0.81149 0.0
C436 C 0.21674 0.2847 0.83713 0.0
C437 C 0.19958 0.28227 0.8497 0.0
C438 C 0.17884 0.27035 0.83692 0.0
C439 C 0.17594 0.2607 0.81133 0.0
C440 C 0.19302 0.2631 0.79887 0.0
C441 C 0.29764 0.31823 0.78824 0.0
C442 C 0.29851 0.29633 0.85289 0.0
C443 C 0.35567 0.28318 0.80643 0.0
C444 C 0.37152 0.28266 0.78991 0.0
C445 C 0.3751 0.29925 0.77365 0.0
C446 C 0.39193 0.3001 0.76067 0.0
C447 C 0.40565 0.28442 0.76363 0.0
C448 C 0.40169 0.26756 0.77953 0.0
C449 C 0.38492 0.26674 0.79247 0.0
C450 C 0.28879 0.24267 0.81559 0.0
C451 C 0.28786 0.26448 0.75088 0.0
O452 O 0.239 0.26062 0.79105 0.0
O453 O 0.24482 0.29908 0.8021 0.0
O454 O 0.30017 0.30658 0.80577 0.0
O455 O 0.27825 0.31106 0.77575 0.0
O456 O 0.27923 0.28789 0.83872 0.0
O457 O 0.31591 0.29731 0.84345 0.0
O458 O 0.34621 0.30097 0.8073 0.0
O459 O 0.34284 0.26299 0.80733 0.0
O460 O 0.2862 0.25449 0.79817 0.0
O461 O 0.30824 0.24982 0.82796 0.0
O462 O 0.30709 0.27116 0.76542 0.0
O463 O 0.27043 0.26508 0.75994 0.0
H464 H 0.23242 0.29413 0.84736 0.0
H465 H 0.20258 0.28968 0.86946 0.0
H466 H 0.1603 0.25175 0.80063 0.0
H467 H 0.19009 0.2558 0.77906 0.0
H468 H 0.36519 0.3119 0.7713 0.0
H469 H 0.39423 0.31312 0.74837 0.0
H470 H 0.41198 0.25542 0.78268 0.0
H471 H 0.38281 0.25402 0.80515 0.0
Tb472 Tb 0.03902 0.05336 0.55068 0.0
Tb473 Tb 0.04345 1.0043 0.5428 0.0
C474 C 0.04461 0.09784 0.56021 0.0
C475 C 0.0441 0.11583 0.54385 0.0
C476 C 0.0507 0.11273 0.52082 0.0
C477 C 0.04839 0.1288 0.50435 0.0
C478 C 0.03924 0.1481 0.51051 0.0
C479 C 0.03292 0.15128 0.53376 0.0
C480 C 0.03537 0.13527 0.55031 0.0
C481 C 1.00357 0.02138 0.54921 0.0
C482 C 0.02726 0.02758 0.49558 0.0
C483 C 0.03768 0.95977 0.53305 0.0
C484 C 0.03945 0.94185 0.54923 0.0
C485 C 0.02825 0.91816 0.54077 0.0
C486 C 0.0292 0.90129 0.55663 0.0
C487 C 0.04129 0.90799 0.58119 0.0
C488 C 0.05251 0.9318 0.58952 0.0
C489 C 0.05158 0.94858 0.57367 0.0
C490 C 0.07896 0.0363 0.54476 0.0
C491 C 0.05544 0.03028 0.59797 0.0
O492 O 0.06015 0.08688 0.56023 0.0
O493 O 0.02638 0.08315 0.55886 0.0
O494 O 0.02204 0.02092 0.55984 0.0
O495 O 1.0045 0.04074 0.53975 0.0
O496 O 0.03355 0.04869 0.51008 0.0
O497 O 0.02813 1.00788 0.50501 0.0
O498 O 0.02239 0.97071 0.53533 0.0
O499 O 0.05547 0.97452 0.53258 0.0
O500 O 0.06057 0.03675 0.53382 0.0
O501 O 0.07791 0.0169 0.55422 0.0
O502 O 0.04942 0.00915 0.58346 0.0
O503 O 0.05418 0.04991 0.58857 0.0
H504 H 0.0573 0.09767 0.51535 0.0
H505 H 0.05368 0.12604 0.48675 0.0
H506 H 0.02553 0.16575 0.5389 0.0
H507 H 0.02995 0.13772 0.56787 0.0
H508 H 0.01865 0.91278 0.52201 0.0
H509 H 0.02024 0.88311 0.54982 0.0
H510 H 0.0622 0.93741 0.60821 0.0
H511 H 0.06032 0.96683 0.58053 0.0
Tb512 Tb 0.29038 0.75864 0.7628 0.0
Tb513 Tb 0.29855 0.8085 0.79348 0.0
C514 C 0.29239 0.7218 0.73446 0.0
C515 C 0.30629 0.70489 0.73645 0.0
C516 C 0.32775 0.71256 0.74836 0.0
C517 C 0.34023 0.69604 0.75211 0.0
C518 C 0.33143 0.67148 0.74424 0.0
C519 C 0.31007 0.66391 0.73179 0.0
C520 C 0.29764 0.68048 0.72793 0.0
C521 C 0.28537 0.76044 0.80972 0.0
C522 C 0.33713 0.78626 0.79196 0.0
C523 C 0.2974 0.84541 0.82251 0.0
C524 C 0.28306 0.86174 0.82371 0.0
C525 C 0.26154 0.85437 0.81203 0.0
C526 C 0.24834 0.87043 0.81269 0.0
C527 C 0.25652 0.89421 0.82475 0.0
C528 C 0.27803 0.90143 0.83662 0.0
C529 C 0.29115 0.8853 0.83614 0.0
C530 C 0.30431 0.80648 0.74681 0.0
C531 C 0.25172 0.78016 0.76517 0.0
O532 O 0.30121 0.74347 0.73202 0.0
O533 O 0.27985 0.72169 0.75061 0.0
O534 O 0.29923 0.77391 0.80164 0.0
O535 O 0.27456 0.74395 0.79137 0.0
O536 O 0.32502 0.7702 0.77305 0.0
O537 O 0.32917 0.80087 0.80626 0.0
O538 O 0.29007 0.8237 0.826 0.0
O539 O 0.30741 0.84576 0.80384 0.0
O540 O 0.28998 0.79325 0.75455 0.0
O541 O 0.31504 0.82282 0.76537 0.0
O542 O 0.26392 0.79634 0.78396 0.0
O543 O 0.25975 0.76617 0.75028 0.0
H544 H 0.33484 0.73127 0.75517 0.0
H545 H 0.35658 0.70244 0.76191 0.0
H546 H 0.30292 0.64514 0.72522 0.0
H547 H 0.28111 0.67419 0.71874 0.0
H548 H 0.25495 0.83628 0.80227 0.0
H549 H 0.23188 0.8644 0.80322 0.0
H550 H 0.2847 0.91958 0.84626 0.0
H551 H 0.30771 0.8913 0.84527 0.0
Tb552 Tb 0.52192 0.02486 0.03089 0.0
Tb553 Tb 0.5616 0.0292 0.06961 0.0
C554 C 0.48625 1.00831 1.00269 0.0
C555 C 0.46367 1.00579 0.00331 0.0
C556 C 0.45638 1.00533 0.0259 0.0
C557 C 0.43462 0.99981 0.02568 0.0
C558 C 0.41987 0.9946 1.00283 0.0
C559 C 0.4273 0.99629 0.98039 0.0
C560 C 0.44904 1.00181 0.98065 0.0
C561 C 0.54123 0.06873 0.05269 0.0
C562 C 0.51823 0.02616 0.0906 0.0
C563 C 0.59684 0.0463 0.09852 0.0
C564 C 0.61981 0.05179 0.09905 0.0
C565 C 0.62846 0.06372 0.08115 0.0
C566 C 0.65042 0.07194 0.0843 0.0
C567 C 0.66412 0.06827 0.10533 0.0
C568 C 0.65539 0.05523 0.12247 0.0
C569 C 0.63344 0.04717 0.11939 0.0
C570 C 0.54158 0.98552 0.04836 0.0
C571 C 0.56541 0.02774 0.0101 0.0
O572 O 0.49627 0.99585 0.0167 0.0
O573 O 0.49745 0.02994 0.00366 0.0
O574 O 0.53926 0.05013 0.06223 0.0
O575 O 0.53066 0.06314 0.02968 0.0
O576 O 0.50839 0.02245 0.06637 0.0
O577 O 0.53937 0.03021 0.09621 0.0
O578 O 0.58571 0.05908 0.08633 0.0
O579 O 0.58705 0.02377 0.09525 0.0
O580 O 0.54402 1.00387 0.03846 0.0
O581 O 0.55246 0.99092 0.07124 0.0
O582 O 0.57528 0.03219 0.03436 0.0
O583 O 0.54422 0.02294 0.00445 0.0
H584 H 0.46745 1.00829 0.04356 0.0
H585 H 0.42939 0.99844 0.04325 0.0
H586 H 0.4163 0.99267 0.96255 0.0
H587 H 0.45443 1.00217 0.96305 0.0
H588 H 0.61825 0.06749 0.06524 0.0
H589 H 0.65656 0.08207 0.07082 0.0
H590 H 0.6655 0.05168 0.13859 0.0
H591 H 0.62707 0.03797 0.1334 0.0
Tb592 Tb 0.2691 0.25798 0.29015 0.0
Tb593 Tb 0.31122 0.29245 0.31504 0.0
C594 C 0.23283 0.2334 0.2887 0.0
C595 C 0.21167 0.23823 0.28292 0.0
C596 C 0.19562 0.22666 0.29388 0.0
C597 C 0.17705 0.23481 0.29376 0.0
C598 C 0.17417 0.25473 0.28261 0.0
C599 C 0.18981 0.26535 0.27023 0.0
C600 C 0.20847 0.25724 0.27051 0.0
C601 C 0.2846 0.28073 0.25574 0.0
C602 C 0.2704 0.31529 0.3069 0.0
C603 C 0.34944 0.31386 0.32423 0.0
C604 C 0.36767 0.30529 0.31744 0.0
C605 C 0.36595 0.29216 0.29349 0.0
C606 C 0.38229 0.28172 0.28792 0.0
C607 C 0.40061 0.28403 0.30622 0.0
C608 C 0.40238 0.2972 0.33016 0.0
C609 C 0.38603 0.30781 0.3357 0.0
C610 C 0.28876 0.27269 0.34573 0.0
C611 C 0.31059 0.2358 0.29475 0.0
O612 O 0.24485 0.24695 0.30911 0.0
O613 O 0.24298 0.23123 0.27011 0.0
O614 O 0.29248 0.28272 0.27874 0.0
O615 O 0.26711 0.26437 0.25119 0.0
O616 O 0.25907 0.29273 0.29916 0.0
O617 O 0.29157 0.31963 0.31321 0.0
O618 O 0.33551 0.31695 0.3056 0.0
O619 O 0.34046 0.30279 0.34033 0.0
O620 O 0.29108 0.26304 0.3247 0.0
O621 O 0.29987 0.29457 0.35051 0.0
O622 O 0.32165 0.25835 0.30358 0.0
O623 O 0.28937 0.23127 0.2887 0.0
H624 H 0.19801 0.21226 0.30394 0.0
H625 H 0.16562 0.22643 0.30391 0.0
H626 H 0.18803 0.28053 0.26123 0.0
H627 H 0.22086 0.26661 0.26221 0.0
H628 H 0.35175 0.28943 0.27919 0.0
H629 H 0.38041 0.27139 0.26943 0.0
H630 H 0.41643 0.29935 0.34452 0.0
H631 H 0.3875 0.31755 0.35439 0.0
Tb632 Tb 0.54011 0.55283 0.05753 0.0
Tb633 Tb 0.54292 0.50338 0.0438 0.0
C634 C 0.54348 0.59695 0.06032 0.0
C635 C 0.53866 0.6127 0.04246 0.0
C636 C 0.55195 0.63538 0.04531 0.0
C637 C 0.54784 0.65054 0.02832 0.0
C638 C 0.53032 0.64322 0.0082 0.0
C639 C 0.51711 0.62034 0.00529 0.0
C640 C 0.52126 0.60518 0.02228 0.0
C641 C 0.5078 0.52111 0.06537 0.0
C642 C 0.52517 0.52686 0.99997 0.0
C643 C 0.54036 0.45942 0.04145 0.0
C644 C 0.54034 0.44349 0.06007 0.0
C645 C 0.53389 0.44937 0.08278 0.0
C646 C 0.53477 0.43451 0.10078 0.0
C647 C 0.54208 0.41354 0.09632 0.0
C648 C 0.54836 0.40768 0.07345 0.0
C649 C 0.54754 0.42258 0.0555 0.0
C650 C 0.57517 0.53539 0.03626 0.0
C651 C 0.55696 0.52923 0.10118 0.0
O652 O 0.55889 0.5865 0.05698 0.0
O653 O 0.52721 0.58243 0.06514 0.0
O654 O 0.51679 0.51948 0.04674 0.0
O655 O 0.51626 0.54157 0.07962 0.0
O656 O 0.53073 0.54707 0.01629 0.0
O657 O 0.52672 0.50636 0.00706 0.0
O658 O 0.52385 0.46879 0.03755 0.0
O659 O 0.5582 0.47501 0.04337 0.0
O660 O 0.5662 0.5366 0.05491 0.0
O661 O 0.56658 0.51519 0.02156 0.0
O662 O 0.5498 0.50891 0.08517 0.0
O663 O 0.5574 0.54988 0.09363 0.0
H664 H 0.56556 0.64134 0.06064 0.0
H665 H 0.55849 0.66791 0.0308 0.0
H666 H 0.5034 0.61431 0.99011 0.0
H667 H 0.51085 0.58764 0.01971 0.0
H668 H 0.52827 0.46547 0.08666 0.0
H669 H 0.53001 0.4396 0.11831 0.0
H670 H 0.55376 0.39145 0.06933 0.0
H671 H 0.55259 0.41783 0.03808 0.0
Tb672 Tb 0.78612 0.24861 0.27948 0.0
Tb673 Tb 0.79287 0.3011 0.27483 0.0
C674 C 0.78167 0.20432 0.26955 0.0
C675 C 0.79664 0.18869 0.26885 0.0
C676 C 0.81665 0.19666 0.26307 0.0
C677 C 0.83093 0.18183 0.26302 0.0
C678 C 0.82554 0.15892 0.2691 0.0
C679 C 0.80553 0.15105 0.27499 0.0
C680 C 0.79117 0.16581 0.27479 0.0
C681 C 0.77683 0.27619 0.31587 0.0
C682 C 0.83078 0.28155 0.30393 0.0
C683 C 0.79817 0.34547 0.2856 0.0
C684 C 0.78427 0.36188 0.2895 0.0
C685 C 0.76364 0.35354 0.29337 0.0
C686 C 0.75067 0.36945 0.29726 0.0
C687 C 0.75812 0.39394 0.29725 0.0
C688 C 0.77881 0.40209 0.2933 0.0
C689 C 0.79176 0.38619 0.2895 0.0
C690 C 0.80299 0.27327 0.23895 0.0
C691 C 0.74828 0.26838 0.25056 0.0
O692 O 0.78114 0.21807 0.25241 0.0
O693 O 0.7816 0.21561 0.29182 0.0
O694 O 0.77378 0.2777 0.29306 0.0
O695 O 0.78367 0.25713 0.31887 0.0
O696 O 0.81987 0.25939 0.29517 0.0
O697 O 0.82267 0.30013 0.29963 0.0
O698 O 0.80021 0.33157 0.30241 0.0
O699 O 0.79557 0.33412 0.26263 0.0
O700 O 0.80516 0.27214 0.26175 0.0
O701 O 0.79677 0.29264 0.23559 0.0
O702 O 0.7592 0.29043 0.2597 0.0
O703 O 0.75629 0.24965 0.25461 0.0
H704 H 0.8213 0.2144 0.25879 0.0
H705 H 0.84634 0.18841 0.2587 0.0
H706 H 0.80093 0.1334 0.27958 0.0
H707 H 0.77584 0.15942 0.27942 0.0
H708 H 0.75761 0.33476 0.2934 0.0
H709 H 0.7349 0.36263 0.30047 0.0
H710 H 0.7849 0.42075 0.29275 0.0
H711 H 0.80762 0.39288 0.28646 0.0
Tb712 Tb 0.02555 0.52686 0.53434 0.0
Tb713 Tb 0.06394 0.52747 0.57231 0.0
C714 C 0.98947 0.51529 0.50661 0.0
C715 C 0.9676 0.51625 0.50867 0.0
C716 C 0.95734 0.50408 0.52534 0.0
C717 C 0.93585 0.50276 0.52484 0.0
C718 C 0.9242 0.51377 0.50785 0.0
C719 C 0.93485 0.52717 0.49228 0.0
C720 C 0.95633 0.52825 0.49258 0.0
C721 C 0.04776 0.5696 0.55634 0.0
C722 C 0.02106 0.52732 0.59344 0.0
C723 C 0.09994 0.5404 0.60042 0.0
C724 C 0.12198 0.54229 0.59785 0.0
C725 C 0.12707 0.53057 0.57643 0.0
C726 C 0.14803 0.53516 0.57294 0.0
C727 C 0.16397 0.55167 0.5907 0.0
C728 C 0.15886 0.5626 0.61253 0.0
C729 C 0.13801 0.55791 0.61607 0.0
C730 C 0.04176 0.48468 0.55044 0.0
C731 C 0.06806 0.52625 0.51297 0.0
O732 O 0.99798 0.50058 0.51896 0.0
O733 O 1.00274 0.53576 0.50793 0.0
O734 O 0.04403 0.55123 0.56608 0.0
O735 O 0.0374 0.56475 0.53331 0.0
O736 O 0.01145 0.5241 0.56923 0.0
O737 O 0.04214 0.53059 0.59915 0.0
O738 O 0.0904 0.55488 0.58902 0.0
O739 O 0.08795 0.51885 0.59727 0.0
O740 O 0.04542 0.50305 0.54068 0.0
O741 O 0.05228 0.48959 0.57344 0.0
O742 O 0.07788 0.53046 0.5372 0.0
O743 O 0.04695 0.52226 0.50744 0.0
H744 H 0.96565 0.49478 0.53812 0.0
H745 H 0.92818 0.49198 0.53687 0.0
H746 H 0.92645 0.53619 0.47928 0.0
H747 H 0.96398 0.53787 0.47968 0.0
H748 H 0.11479 0.51858 0.56208 0.0
H749 H 0.15161 0.52672 0.55586 0.0
H750 H 0.17094 0.5753 0.62652 0.0
H751 H 0.13426 0.56715 0.63263 0.0
Tb752 Tb 0.76847 0.77689 0.29665 0.0
Tb753 Tb 0.8153 0.77293 0.30598 0.0
C754 C 0.72948 0.77274 0.29749 0.0
C755 C 0.71363 0.77089 0.31424 0.0
C756 C 0.69926 0.749 0.31295 0.0
C757 C 0.68237 0.74749 0.32581 0.0
C758 C 0.67922 0.76789 0.34027 0.0
C759 C 0.69402 0.78967 0.34214 0.0
C760 C 0.71092 0.79117 0.32927 0.0
C761 C 0.79637 0.81235 0.28723 0.0
C762 C 0.79744 0.79117 0.35232 0.0
C763 C 0.85434 0.77692 0.3056 0.0
C764 C 0.87039 0.77707 0.28927 0.0
C765 C 0.87244 0.79233 0.27145 0.0
C766 C 0.8893 0.7938 0.25845 0.0
C767 C 0.9046 0.78014 0.26298 0.0
C768 C 0.90216 0.76459 0.2805 0.0
C769 C 0.88535 0.76311 0.29341 0.0
C770 C 0.78728 0.73737 0.31519 0.0
C771 C 0.78627 0.75873 0.25022 0.0
O772 O 0.73822 0.75463 0.29326 0.0
O773 O 0.74295 0.79323 0.29937 0.0
O774 O 0.79891 0.80079 0.30487 0.0
O775 O 0.77692 0.80531 0.27482 0.0
O776 O 0.77817 0.78377 0.3379 0.0
O777 O 0.81488 0.79111 0.34314 0.0
O778 O 0.84524 0.79497 0.3075 0.0
O779 O 0.84116 0.75662 0.30533 0.0
O780 O 0.78488 0.74905 0.29766 0.0
O781 O 0.80669 0.74439 0.32772 0.0
O782 O 0.80556 0.76553 0.26469 0.0
O783 O 0.76885 0.75919 0.25935 0.0
H784 H 0.70065 0.73307 0.30128 0.0
H785 H 0.67131 0.73043 0.32361 0.0
H786 H 0.69246 0.80572 0.35341 0.0
H787 H 0.72154 0.80839 0.33065 0.0
H788 H 0.86124 0.80342 0.26785 0.0
H789 H 0.89038 0.80569 0.24485 0.0
H790 H 0.91366 0.75402 0.28488 0.0
H791 H 0.88438 0.75145 0.30726 0.0
Tb792 Tb 0.79466 0.2675 0.77761 0.0
Tb793 Tb 0.79044 0.28672 0.82731 0.0
C794 C 0.79311 0.258 0.73122 0.0
C795 C 0.79259 0.27135 0.71027 0.0
C796 C 0.8063 0.29377 0.71223 0.0
C797 C 0.80436 0.30678 0.69261 0.0
C798 C 0.78858 0.29763 0.67092 0.0
C799 C 0.77519 0.27501 0.66885 0.0
C800 C 0.77723 0.26197 0.68835 0.0
C801 C 0.82443 0.26126 0.81371 0.0
C802 C 0.81202 0.32447 0.79747 0.0
C803 C 0.79257 0.29678 0.87385 0.0
C804 C 0.79865 0.2859 0.89574 0.0
C805 C 0.80922 0.26725 0.89385 0.0
C806 C 0.81692 0.25868 0.91534 0.0
C807 C 0.81416 0.26865 0.93901 0.0
C808 C 0.80313 0.28698 0.94066 0.0
C809 C 0.79546 0.29554 0.91916 0.0
C810 C 0.76034 0.29262 0.79126 0.0
C811 C 0.77352 0.22967 0.8073 0.0
O812 O 0.77632 0.25581 0.74137 0.0
O813 O 0.81074 0.26294 0.748 0.0
O814 O 0.81702 0.2796 0.81271 0.0
O815 O 0.81576 0.24606 0.79337 0.0
O816 O 0.80539 0.3068 0.77782 0.0
O817 O 0.80929 0.32008 0.81993 0.0
O818 O 0.80802 0.30409 0.86249 0.0
O819 O 0.7751 0.28559 0.85805 0.0
O820 O 0.768 0.27447 0.79234 0.0
O821 O 0.76868 0.30763 0.81178 0.0
O822 O 0.78088 0.24718 0.82709 0.0
O823 O 0.77547 0.23431 0.7847 0.0
H824 H 0.81822 0.30144 0.72904 0.0
H825 H 0.81475 0.32427 0.69471 0.0
H826 H 0.76303 0.26748 0.6522 0.0
H827 H 0.76651 0.24471 0.68653 0.0
H828 H 0.812 0.25978 0.87588 0.0
H829 H 0.82556 0.24474 0.91351 0.0
H830 H 0.80052 0.29476 0.95858 0.0
H831 H 0.78741 0.31002 0.92089 0.0
Tb832 Tb 0.77394 0.7609 0.78734 0.0
Tb833 Tb 0.8124 0.79344 0.81505 0.0
C834 C 0.73593 0.73843 0.77734 0.0
C835 C 0.71729 0.74702 0.78267 0.0
C836 C 0.71915 0.76318 0.80478 0.0
C837 C 0.70215 0.77278 0.80934 0.0
C838 C 0.68281 0.76629 0.79204 0.0
C839 C 0.6808 0.74991 0.77 0.0
C840 C 0.69802 0.74045 0.76527 0.0
C841 C 0.79668 0.78227 0.75794 0.0
C842 C 0.7726 0.81687 0.80762 0.0
C843 C 0.85021 0.81685 0.82614 0.0
C844 C 0.87059 0.80992 0.8271 0.0
C845 C 0.88572 0.8223 0.8154 0.0
C846 C 0.9035 0.81363 0.8119 0.0
C847 C 0.90659 0.79246 0.82022 0.0
C848 C 0.89197 0.7808 0.83319 0.0
C849 C 0.87404 0.78937 0.83648 0.0
C850 C 0.78916 0.77197 0.84411 0.0
C851 C 0.81381 0.73741 0.79483 0.0
O852 O 0.74948 0.73696 0.79713 0.0
O853 O 0.74533 0.74839 0.76088 0.0
O854 O 0.79363 0.79157 0.77883 0.0
O855 O 0.78636 0.76005 0.75283 0.0
O856 O 0.76212 0.79429 0.79832 0.0
O857 O 0.79361 0.82135 0.81469 0.0
O858 O 0.83849 0.81299 0.80361 0.0
O859 O 0.83916 0.81048 0.84291 0.0
O860 O 0.79264 0.76287 0.82346 0.0
O861 O 0.79959 0.79412 0.84951 0.0
O862 O 0.82422 0.75971 0.80567 0.0
O863 O 0.79298 0.73323 0.7861 0.0
H864 H 0.73381 0.76853 0.81861 0.0
H865 H 0.70403 0.78497 0.82671 0.0
H866 H 0.666 0.74461 0.7564 0.0
H867 H 0.69634 0.72817 0.74803 0.0
H868 H 0.88321 0.83802 0.80779 0.0
H869 H 0.91419 0.82289 0.80146 0.0
H870 H 0.89407 0.76468 0.84017 0.0
H871 H 0.8625 0.77941 0.84547 0.0
Tb872 Tb 0.52698 0.51603 0.54008 0.0
Tb873 Tb 0.56706 0.54401 0.57124 0.0
C874 C 0.48845 0.50196 0.52045 0.0
C875 C 0.47206 0.51593 0.51858 0.0
C876 C 0.46788 0.52803 0.54042 0.0
C877 C 0.45531 0.54454 0.53883 0.0
C878 C 0.44657 0.54933 0.5154 0.0
C879 C 0.4501 0.53669 0.49348 0.0
C880 C 0.46271 0.52002 0.49506 0.0
C881 C 0.55917 0.51968 0.51657 0.0
C882 C 0.53852 0.57277 0.54364 0.0
C883 C 0.60537 0.56101 0.59142 0.0
C884 C 0.62127 0.5511 0.60591 0.0
C885 C 0.64172 0.55492 0.60065 0.0
C886 C 0.65465 0.53939 0.60678 0.0
C887 C 0.64712 0.51989 0.61812 0.0
C888 C 0.62805 0.51842 0.6268 0.0
C889 C 0.61503 0.53379 0.62047 0.0
C890 C 0.53456 0.54026 0.59445 0.0
C891 C 0.55516 0.48635 0.56777 0.0
O892 O 0.49639 0.49912 0.54309 0.0
O893 O 0.50318 0.5077 0.50752 0.0
O894 O 0.55542 0.5358 0.53174 0.0
O895 O 0.54418 0.50063 0.51385 0.0
O896 O 0.52316 0.55345 0.54184 0.0
O897 O 0.55841 0.57217 0.55199 0.0
O898 O 0.59891 0.55031 0.56805 0.0
O899 O 0.58963 0.56483 0.60194 0.0
O900 O 0.53861 0.52428 0.57947 0.0
O901 O 0.54957 0.5593 0.59742 0.0
O902 O 0.5698 0.50682 0.57486 0.0
O903 O 0.53623 0.48575 0.55455 0.0
H904 H 0.47503 0.52561 0.55889 0.0
H905 H 0.45318 0.5543 0.55608 0.0
H906 H 0.44342 0.53997 0.47519 0.0
H907 H 0.46585 0.51102 0.47799 0.0
H908 H 0.64676 0.56823 0.58944 0.0
H909 H 0.66927 0.5409 0.59981 0.0
H910 H 0.62214 0.50377 0.63594 0.0
H911 H 0.59929 0.53057 0.6248 0.0
Tb912 Tb 0.06443 0.53059 0.04621 0.0
Tb913 Tb 0.02007 0.52359 0.05926 0.0
C914 C 0.10357 0.53233 0.0486 0.0
C915 C 0.12012 0.51874 0.0551 0.0
C916 C 0.13875 0.52993 0.07277 0.0
C917 C 0.15582 0.51879 0.07679 0.0
C918 C 0.15479 0.49619 0.06307 0.0
C919 C 0.13584 0.48469 0.04595 0.0
C920 C 0.11875 0.49577 0.04203 0.0
C921 C 0.03523 0.5336 0.00558 0.0
C922 C 0.03471 0.47868 0.03749 0.0
C923 C 0.98223 0.52464 0.06211 0.0
C924 C 0.96597 0.53899 0.05709 0.0
C925 C 0.95297 0.53589 0.03317 0.0
C926 C 0.93589 0.54703 0.02937 0.0
C927 C 0.93117 0.56149 0.0494 0.0
C928 C 0.94457 0.56509 0.07314 0.0
C929 C 0.96163 0.55395 0.07694 0.0
C930 C 0.05033 0.5149 0.09469 0.0
C931 C 0.04863 0.57666 0.06314 0.0
O932 O 0.09595 0.5423 0.06679 0.0
O933 O 0.08886 0.52327 0.02853 0.0
O934 O 0.03284 0.52994 0.02731 0.0
O935 O 0.05544 0.53609 0.00662 0.0
O936 O 0.05436 0.49189 0.04419 0.0
O937 O 0.01812 0.48822 0.0384 0.0
O938 O 0.98765 0.51336 0.0428 0.0
O939 O 0.99849 0.53349 0.08068 0.0
O940 O 0.05238 0.53081 0.08078 0.0
O941 O 0.03035 0.50424 0.08947 0.0
O942 O 0.02982 0.56257 0.06254 0.0
O943 O 0.06507 0.56808 0.0584 0.0
H944 H 0.1404 0.5477 0.08296 0.0
H945 H 0.17013 0.52832 0.09 0.0
H946 H 0.13427 0.46712 0.03535 0.0
H947 H 0.10466 0.48655 0.02827 0.0
H948 H 0.95558 0.52427 0.01746 0.0
H949 H 0.92592 0.54358 0.01086 0.0
H950 H 0.94179 0.57641 0.08896 0.0
H951 H 0.97111 0.5566 0.09565 0.0
C952 C 0.99985 0.19089 1.0022 0.0
C953 C 0.00831 0.19847 0.98188 0.0
C954 C 1.00328 0.16998 0.01111 0.0
C955 C 0.01543 0.15592 0.99946 0.0
C956 C 0.02387 0.16332 0.97879 0.0
C957 C 0.0203 0.18443 0.97035 0.0
C958 C 0.99399 0.16302 0.0332 0.0
C959 C 0.03672 0.1489 0.96555 0.0
C960 C 0.0421 0.11479 0.0368 0.0
C961 C 0.02819 0.0923 0.02801 0.0
C962 C 0.03806 0.13547 0.02786 0.0
C963 C 0.01974 0.13388 0.00931 0.0
C964 C 1.00559 0.11124 1.00039 0.0
C965 C 0.00987 0.09087 0.00993 0.0
C966 C 0.0535 0.15911 0.03827 0.0
C967 C 0.98597 0.10845 0.98052 0.0
H968 H 0.99054 0.20142 0.01135 0.0
H969 H 0.02689 0.18989 0.95461 0.0
H970 H 0.98311 0.1451 0.02776 0.0
H971 H 1.00683 0.16195 0.04865 0.0
H972 H 0.98508 0.17588 0.04038 0.0
H973 H 0.04167 0.15653 0.94934 0.0
H974 H 0.05114 0.14804 0.97886 0.0
H975 H 0.02735 0.13032 0.95876 0.0
H976 H 0.05629 0.1163 0.05075 0.0
H977 H 0.99901 0.07368 1.00281 0.0
H978 H 0.04515 0.17204 0.04652 0.0
H979 H 0.06019 0.16661 0.02295 0.0
H980 H 0.0668 0.15754 0.05291 0.0
H981 H 0.99029 0.11588 0.96396 0.0
H982 H 0.97511 0.11866 0.98789 0.0
H983 H 0.97733 0.08951 0.97429 0.0
C984 C 0.14162 0.79681 0.21884 0.0
C985 C 0.13964 0.79759 0.19308 0.0
C986 C 0.161 0.79536 0.23363 0.0
C987 C 0.1791 0.79508 0.22264 0.0
C988 C 0.17725 0.79629 0.19675 0.0
C989 C 0.15763 0.7973 0.18234 0.0
C990 C 0.16205 0.79383 0.26103 0.0
C991 C 0.19605 0.79653 0.18416 0.0
C992 C 0.23383 0.8142 0.26632 0.0
C993 C 0.2393 0.79234 0.26867 0.0
C994 C 0.21458 0.81533 0.2512 0.0
C995 C 0.20002 0.79404 0.23829 0.0
C996 C 0.20556 0.77187 0.2404 0.0
C997 C 0.22517 0.7713 0.25533 0.0
C998 C 0.20978 0.83941 0.24915 0.0
C999 C 0.19057 0.74869 0.22725 0.0
H1000 H 0.12788 0.79681 0.22736 0.0
H1001 H 0.15641 0.79793 0.16251 0.0
H1002 H 0.16708 0.77739 0.26511 0.0
H1003 H 0.17409 0.80919 0.27276 0.0
H1004 H 0.14656 0.79368 0.2667 0.0
H1005 H 0.19233 0.79859 0.16417 0.0
H1006 H 0.20954 0.81136 0.19413 0.0
H1007 H 0.2014 0.7797 0.18511 0.0
H1008 H 0.24468 0.83058 0.27643 0.0
H1009 H 0.22919 0.75432 0.25709 0.0
H1010 H 0.19529 0.84075 0.25659 0.0
H1011 H 0.20658 0.84155 0.22916 0.0
H1012 H 0.22302 0.85433 0.25959 0.0
H1013 H 0.17525 0.74698 0.23362 0.0
H1014 H 0.19706 0.73296 0.23083 0.0
H1015 H 0.18717 0.74851 0.20672 0.0
C1016 C 0.51473 0.83448 0.51316 0.0
C1017 C 0.51773 0.82536 0.48934 0.0
C1018 C 0.51802 0.85925 0.52139 0.0
C1019 C 0.52418 0.87551 0.50534 0.0
C1020 C 0.52737 0.86642 0.48133 0.0
C1021 C 0.52428 0.84158 0.47373 0.0
C1022 C 0.51474 0.86802 0.54726 0.0
C1023 C 0.5337 0.88294 0.46344 0.0
C1024 C 0.51248 0.93763 0.517 0.0
C1025 C 0.53245 0.95204 0.52893 0.0
C1026 C 0.50961 0.91286 0.50912 0.0
C1027 C 0.52704 0.90195 0.51353 0.0
C1028 C 0.54719 0.91637 0.52577 0.0
C1029 C 0.54967 0.94114 0.53313 0.0
C1030 C 0.4879 0.89836 0.49588 0.0
C1031 C 0.56618 0.90562 0.53123 0.0
H1032 H 0.50974 0.82223 0.52546 0.0
H1033 H 0.52655 0.83485 0.45524 0.0
H1034 H 0.5293 0.88085 0.55814 0.0
H1035 H 0.50175 0.87764 0.54579 0.0
H1036 H 0.51071 0.85324 0.55784 0.0
H1037 H 0.53568 0.87316 0.44551 0.0
H1038 H 0.52147 0.89328 0.45924 0.0
H1039 H 0.54882 0.89595 0.47222 0.0
H1040 H 0.49905 0.94576 0.5135 0.0
H1041 H 0.56517 0.95194 0.54241 0.0
H1042 H 0.48227 0.88426 0.50662 0.0
H1043 H 0.48873 0.88931 0.4771 0.0
H1044 H 0.47603 0.90947 0.49353 0.0
H1045 H 0.56287 0.89162 0.54291 0.0
H1046 H 0.58071 0.91913 0.54116 0.0
H1047 H 0.56935 0.89691 0.51347 0.0
C1048 C 0.49331 0.29093 0.6764 0.0
C1049 C 0.51388 0.29223 0.68967 0.0
C1050 C 0.47594 0.28989 0.68852 0.0
C1051 C 0.47899 0.29015 0.71474 0.0
C1052 C 0.4997 0.2915 0.72833 0.0
C1053 C 0.51686 0.29252 0.71568 0.0
C1054 C 0.45425 0.28846 0.67318 0.0
C1055 C 0.50373 0.29181 0.75627 0.0
C1056 C 0.43661 0.30813 0.74863 0.0
C1057 C 0.42433 0.28594 0.75082 0.0
C1058 C 0.45449 0.30977 0.73726 0.0
C1059 C 0.46042 0.28875 0.72773 0.0
C1060 C 0.4481 0.26631 0.72985 0.0
C1061 C 0.4303 0.26518 0.74128 0.0
C1062 C 0.46707 0.33408 0.73544 0.0
C1063 C 0.45364 0.24341 0.71983 0.0
H1064 H 0.49069 0.29071 0.65633 0.0
H1065 H 0.53261 0.29353 0.72619 0.0
H1066 H 0.44307 0.27193 0.6749 0.0
H1067 H 0.44793 0.30374 0.68042 0.0
H1068 H 0.45449 0.28857 0.653 0.0
H1069 H 0.5207 0.29311 0.76422 0.0
H1070 H 0.49874 0.30713 0.76586 0.0
H1071 H 0.4941 0.27535 0.76051 0.0
H1072 H 0.43245 0.32433 0.7562 0.0
H1073 H 0.42087 0.2479 0.74246 0.0
H1074 H 0.46703 0.33556 0.71548 0.0
H1075 H 0.48384 0.33652 0.74494 0.0
H1076 H 0.46063 0.34873 0.74402 0.0
H1077 H 0.45276 0.24188 0.6993 0.0
H1078 H 0.44287 0.22742 0.72351 0.0
H1079 H 0.47017 0.2435 0.72851 0.0
C1080 C 0.07549 0.82517 0.67651 0.0
C1081 C 0.05862 0.80772 0.68014 0.0
C1082 C 0.07192 0.84168 0.66078 0.0
C1083 C 0.05099 0.8407 0.64842 0.0
C1084 C 0.03383 0.82343 0.65235 0.0
C1085 C 0.03786 0.80712 0.66819 0.0
C1086 C 0.0906 0.85993 0.65706 0.0
C1087 C 0.0113 0.82194 0.63949 0.0
C1088 C 0.0413 0.89604 0.62334 0.0
C1089 C 0.04252 0.89022 0.59808 0.0
C1090 C 0.0436 0.87989 0.63988 0.0
C1091 C 0.04718 0.85741 0.63088 0.0
C1092 C 0.04794 0.85121 0.60528 0.0
C1093 C 0.0456 0.86772 0.58916 0.0
C1094 C 0.04261 0.88704 0.66705 0.0
C1095 C 0.05176 0.82738 0.59506 0.0
H1096 H 0.09157 0.82578 0.68572 0.0
H1097 H 0.02474 0.7937 0.67095 0.0
H1098 H 0.0919 0.85741 0.63703 0.0
H1099 H 0.08819 0.87818 0.66201 0.0
H1100 H 0.10581 0.85871 0.66859 0.0
H1101 H 0.99968 0.80802 0.64526 0.0
H1102 H 1.0071 0.83937 0.64379 0.0
H1103 H 0.0098 0.81786 0.61886 0.0
H1104 H 0.03861 0.91331 0.63019 0.0
H1105 H 0.04676 0.86326 0.56971 0.0
H1106 H 0.05804 0.88748 0.67919 0.0
H1107 H 0.03037 0.87367 0.67256 0.0
H1108 H 0.03892 0.90483 0.67081 0.0
H1109 H 0.06762 0.82575 0.60438 0.0
H1110 H 0.05098 0.82493 0.57448 0.0
H1111 H 0.03985 0.81269 0.59921 0.0
C1112 C 0.46283 0.80815 0.82369 0.0
C1113 C 0.46902 0.7878 0.83041 0.0
C1114 C 0.44145 0.80756 0.81472 0.0
C1115 C 0.42597 0.78634 0.81331 0.0
C1116 C 0.43224 0.76547 0.81915 0.0
C1117 C 0.45381 0.76638 0.82735 0.0
C1118 C 0.43537 0.82988 0.80772 0.0
C1119 C 0.4161 0.74258 0.81804 0.0
C1120 C 0.37165 0.79419 0.82194 0.0
C1121 C 0.3599 0.7869 0.79745 0.0
C1122 C 0.39317 0.79379 0.82737 0.0
C1123 C 0.40316 0.7865 0.80767 0.0
C1124 C 0.39139 0.77945 0.78281 0.0
C1125 C 0.36982 0.77959 0.77803 0.0
C1126 C 0.40513 0.80084 0.85423 0.0
C1127 C 0.40157 0.77222 0.76118 0.0
H1128 H 0.47468 0.82466 0.82591 0.0
H1129 H 0.45863 0.75069 0.83275 0.0
H1130 H 0.4246 0.82575 0.78906 0.0
H1131 H 0.42666 0.83698 0.82153 0.0
H1132 H 0.44943 0.84402 0.80725 0.0
H1133 H 0.42365 0.72765 0.822 0.0
H1134 H 0.406 0.74535 0.83199 0.0
H1135 H 0.40549 0.73733 0.79928 0.0
H1136 H 0.36389 0.79965 0.83695 0.0
H1137 H 0.36075 0.77423 0.75898 0.0
H1138 H 0.4184 0.81656 0.85594 0.0
H1139 H 0.41215 0.78608 0.86001 0.0
H1140 H 0.39482 0.80526 0.86742 0.0
H1141 H 0.41164 0.78835 0.75686 0.0
H1142 H 0.38958 0.76334 0.74401 0.0
H1143 H 0.41198 0.75999 0.76603 0.0
C1144 C 0.55206 0.18952 0.14705 0.0
C1145 C 0.53182 0.19002 0.15175 0.0
C1146 C 0.5549 0.17212 0.12858 0.0
C1147 C 0.53713 0.15434 0.11513 0.0
C1148 C 0.51655 0.15513 0.11937 0.0
C1149 C 0.51409 0.17331 0.13742 0.0
C1150 C 0.577 0.17229 0.12411 0.0
C1151 C 0.49731 0.13606 0.10586 0.0
C1152 C 0.54008 0.11187 0.05762 0.0
C1153 C 0.54365 0.0921 0.06835 0.0
C1154 C 0.53872 0.13277 0.07273 0.0
C1155 C 0.54039 0.13347 0.09891 0.0
C1156 C 0.54479 0.11384 0.10984 0.0
C1157 C 0.54681 0.09363 0.09447 0.0
C1158 C 0.53479 0.15375 0.06063 0.0
C1159 C 0.54636 0.11367 0.13762 0.0
H1160 H 0.56574 0.20279 0.15789 0.0
H1161 H 0.49846 0.17384 0.1411 0.0
H1162 H 0.58243 0.15712 0.13126 0.0
H1163 H 0.57706 0.17004 0.10373 0.0
H1164 H 0.58859 0.18906 0.13364 0.0
H1165 H 0.48232 0.14006 0.11013 0.0
H1166 H 0.49635 0.13401 0.08529 0.0
H1167 H 0.49871 0.11868 0.11145 0.0
H1168 H 0.53773 0.11074 0.03743 0.0
H1169 H 0.54976 0.07848 0.10291 0.0
H1170 H 0.54623 0.17036 0.07077 0.0
H1171 H 0.51864 0.15619 0.06178 0.0
H1172 H 0.53615 0.15133 0.04059 0.0
H1173 H 0.5592 0.12869 0.14855 0.0
H1174 H 0.54955 0.09677 0.14302 0.0
H1175 H 0.53131 0.11611 0.14311 0.0
C1176 C 0.07948 0.3098 0.32517 0.0
C1177 C 0.08389 0.30996 0.35113 0.0
C1178 C 0.09336 0.30332 0.30998 0.0
C1179 C 0.11177 0.29647 0.32101 0.0
C1180 C 0.11674 0.29768 0.34732 0.0
C1181 C 0.10282 0.30455 0.36205 0.0
C1182 C 0.08819 0.30337 0.28215 0.0
C1183 C 0.13643 0.29091 0.35987 0.0
C1184 C 0.13651 0.25161 0.28773 0.0
C1185 C 0.15624 0.26587 0.28672 0.0
C1186 C 0.12112 0.26162 0.29719 0.0
C1187 C 0.12536 0.28658 0.30527 0.0
C1188 C 0.14426 0.30132 0.30177 0.0
C1189 C 0.1596 0.29077 0.29283 0.0
C1190 C 0.10116 0.24524 0.30058 0.0
C1191 C 0.14933 0.32809 0.30929 0.0
H1192 H 0.065 0.31426 0.31664 0.0
H1193 H 0.10647 0.30482 0.38211 0.0
H1194 H 0.10201 0.31392 0.27618 0.0
H1195 H 0.08492 0.2849 0.27173 0.0
H1196 H 0.07418 0.31092 0.27676 0.0
H1197 H 0.13806 0.29297 0.38057 0.0
H1198 H 0.13604 0.27209 0.35243 0.0
H1199 H 0.15074 0.30221 0.35562 0.0
H1200 H 0.13351 0.23242 0.28236 0.0
H1201 H 0.17475 0.30208 0.29227 0.0
H1202 H 0.08699 0.25181 0.29342 0.0
H1203 H 0.10178 0.24496 0.32088 0.0
H1204 H 0.09917 0.22668 0.29086 0.0
H1205 H 0.13505 0.33512 0.31091 0.0
H1206 H 0.15721 0.33674 0.29536 0.0
H1207 H 0.16058 0.3333 0.32764 0.0
C1208 C 0.95792 1.00675 0.19095 0.0
C1209 C 0.97055 0.99923 0.21025 0.0
C1210 C 0.96556 0.0125 0.1695 0.0
C1211 C 0.98643 0.01094 0.16729 0.0
C1212 C 0.99917 1.0031 0.18655 0.0
C1213 C 0.99106 0.99725 0.2077 0.0
C1214 C 0.95138 0.02053 0.14932 0.0
C1215 C 0.02154 1.0013 0.18502 0.0
C1216 C 1.00362 1.00776 0.10409 0.0
C1217 C 0.01506 0.03122 0.10543 0.0
C1218 C 0.99364 1.00105 0.1237 0.0
C1219 C 0.99524 0.01818 0.14526 0.0
C1220 C 1.00608 0.0421 0.14623 0.0
C1221 C 0.01577 0.04835 0.12627 0.0
C1222 C 0.98203 0.97544 0.12173 0.0
C1223 C 0.0082 0.06094 0.16882 0.0
H1224 H 0.94202 1.00825 0.19262 0.0
H1225 H 1.00097 0.99151 0.22246 0.0
H1226 H 0.95853 0.03908 0.14752 0.0
H1227 H 0.94989 0.00914 0.13094 0.0
H1228 H 0.93526 0.01983 0.15333 0.0
H1229 H 0.02928 0.99452 0.20131 0.0
H1230 H 0.02153 0.98925 0.16758 0.0
H1231 H 0.03125 0.0191 0.18423 0.0
H1232 H 1.00301 0.99443 0.08803 0.0
H1233 H 0.02457 0.06651 0.12743 0.0
H1234 H 0.96583 0.97458 0.12548 0.0
H1235 H 0.9905 0.9671 0.13611 0.0
H1236 H 0.98075 0.96478 0.10297 0.0
H1237 H 0.99233 0.06168 0.17286 0.0
H1238 H 0.01623 0.07893 0.16617 0.0
H1239 H 0.01746 0.05627 0.18554 0.0
C1240 C 0.26574 0.70887 0.54417 0.0
C1241 C 0.28474 0.70349 0.53939 0.0
C1242 C 0.25397 0.72021 0.52771 0.0
C1243 C 0.2614 0.72602 0.506 0.0
C1244 C 0.28038 0.7202 0.50095 0.0
C1245 C 0.29176 0.70905 0.51768 0.0
C1246 C 0.23365 0.72575 0.5335 0.0
C1247 C 0.28899 0.7261 0.47801 0.0
C1248 C 0.23542 0.73771 0.44481 0.0
C1249 C 0.24638 0.76141 0.44641 0.0
C1250 C 0.23728 0.72636 0.46582 0.0
C1251 C 0.25037 0.73914 0.48867 0.0
C1252 C 0.25808 0.76408 0.49138 0.0
C1253 C 0.25608 0.77498 0.47009 0.0
C1254 C 0.22798 0.69994 0.46252 0.0
C1255 C 0.27145 0.77855 0.51573 0.0
H1256 H 0.26014 0.70442 0.56085 0.0
H1257 H 0.30635 0.70485 0.51376 0.0
H1258 H 0.23222 0.74369 0.52966 0.0
H1259 H 0.21997 0.71256 0.52126 0.0
H1260 H 0.23249 0.72484 0.55333 0.0
H1261 H 0.30383 0.72003 0.47679 0.0
H1262 H 0.27707 0.71756 0.46073 0.0
H1263 H 0.29237 0.74565 0.47839 0.0
H1264 H 0.22721 0.72738 0.42666 0.0
H1265 H 0.26434 0.79342 0.47166 0.0
H1266 H 0.22257 0.69512 0.47966 0.0
H1267 H 0.24035 0.69013 0.45906 0.0
H1268 H 0.21443 0.69397 0.4463 0.0
H1269 H 0.26531 0.77259 0.53206 0.0
H1270 H 0.272 0.79788 0.51656 0.0
H1271 H 0.28791 0.77609 0.51733 0.0
C1272 C 0.60796 0.02294 0.73927 0.0
C1273 C 0.62456 0.01099 0.74418 0.0
C1274 C 0.59749 0.02361 0.71457 0.0
C1275 C 0.60326 0.01196 0.69322 0.0
C1276 C 0.62006 0.99986 0.69787 0.0
C1277 C 0.63043 0.99957 0.72297 0.0
C1278 C 0.57995 0.03685 0.71138 0.0
C1279 C 0.62701 0.987 0.67619 0.0
C1280 C 0.55991 0.99512 0.63192 0.0
C1281 C 0.56556 0.01342 0.61805 0.0
C1282 C 0.57222 0.99404 0.65554 0.0
C1283 C 0.59107 0.01178 0.66646 0.0
C1284 C 0.59717 0.03008 0.65229 0.0
C1285 C 0.58454 0.03066 0.62851 0.0
C1286 C 0.56468 0.97401 0.66915 0.0
C1287 C 0.61689 0.04954 0.66259 0.0
H1288 H 0.603 0.03204 0.75498 0.0
H1289 H 0.64312 0.99029 0.72594 0.0
H1290 H 0.58355 0.05059 0.69948 0.0
H1291 H 0.56483 0.0243 0.70166 0.0
H1292 H 0.57763 0.0457 0.72959 0.0
H1293 H 0.64048 0.9789 0.68248 0.0
H1294 H 0.61355 0.97272 0.66511 0.0
H1295 H 0.63181 0.99955 0.66347 0.0
H1296 H 0.54545 0.98154 0.62438 0.0
H1297 H 0.58933 0.04497 0.61837 0.0
H1298 H 0.56045 0.98136 0.68684 0.0
H1299 H 0.57758 0.96477 0.6743 0.0
H1300 H 0.55062 0.9607 0.65772 0.0
H1301 H 0.61489 0.0603 0.67992 0.0
H1302 H 0.62045 0.0616 0.64896 0.0
H1303 H 0.6307 0.04167 0.66779 0.0
C1304 C 0.32371 0.33522 1.00262 0.0
C1305 C 0.31617 0.35538 0.01023 0.0
C1306 C 0.31936 0.32432 0.97727 0.0
C1307 C 0.30769 0.33418 0.95886 0.0
C1308 C 0.29969 0.35428 0.96649 0.0
C1309 C 0.30379 0.36443 0.99209 0.0
C1310 C 0.32771 0.30255 0.97012 0.0
C1311 C 0.28761 0.36574 0.94751 0.0
C1312 C 0.31882 0.32303 0.8928 0.0
C1313 C 0.30071 0.30576 0.87999 0.0
C1314 C 0.32106 0.33266 0.91825 0.0
C1315 C 0.30507 0.32441 0.93155 0.0
C1316 C 0.28682 0.30677 0.91878 0.0
C1317 C 0.28472 0.29789 0.89309 0.0
C1318 C 0.34054 0.35184 0.93085 0.0
C1319 C 0.26963 0.29704 0.93234 0.0
H1320 H 0.33317 0.32802 0.01653 0.0
H1321 H 0.29805 0.38012 0.99777 0.0
H1322 H 0.31478 0.28812 0.95827 0.0
H1323 H 0.34009 0.30696 0.9589 0.0
H1324 H 0.33469 0.29572 0.9868 0.0
H1325 H 0.28164 0.3806 0.95651 0.0
H1326 H 0.29809 0.37281 0.93498 0.0
H1327 H 0.27395 0.35233 0.93554 0.0
H1328 H 0.33114 0.32942 0.88276 0.0
H1329 H 0.27071 0.28448 0.88336 0.0
H1330 H 0.34973 0.34554 0.94644 0.0
H1331 H 0.33578 0.36792 0.9391 0.0
H1332 H 0.35108 0.35702 0.91765 0.0
H1333 H 0.27646 0.28913 0.94824 0.0
H1334 H 0.25654 0.28322 0.91983 0.0
H1335 H 0.26292 0.31167 0.94034 0.0
C1336 C 0.96451 0.00968 0.35411 0.0
C1337 C 0.97765 0.01532 0.33697 0.0
C1338 C 0.97293 0.01219 0.37985 0.0
C1339 C 0.99511 0.0202 0.38877 0.0
C1340 C 0.0085 0.02577 0.37157 0.0
C1341 C 0.9996 0.02345 0.34593 0.0
C1342 C 0.95804 1.00637 0.39754 0.0
C1343 C 0.03225 0.03401 0.38024 0.0
C1344 C 0.0148 0.04575 0.45837 0.0
C1345 C 0.01961 0.02592 0.46818 0.0
C1346 C 1.00702 0.04424 0.43258 0.0
C1347 C 1.00422 0.02244 0.41607 0.0
C1348 C 0.00945 1.00251 0.42579 0.0
C1349 C 0.01692 1.00443 0.4517 0.0
C1350 C 1.00141 0.06585 0.42308 0.0
C1351 C 1.00702 0.97905 0.40882 0.0
H1352 H 0.94752 1.00354 0.34745 0.0
H1353 H 0.00989 0.02779 0.33285 0.0
H1354 H 0.96196 0.99171 0.40714 0.0
H1355 H 0.96 0.02211 0.41228 0.0
H1356 H 0.94116 1.00092 0.38774 0.0
H1357 H 0.04049 0.03746 0.36452 0.0
H1358 H 0.03619 0.0506 0.39432 0.0
H1359 H 0.03851 0.02033 0.38953 0.0
H1360 H 0.01678 0.06243 0.47093 0.0
H1361 H 0.02072 0.98905 0.45902 0.0
H1362 H 0.98423 0.06179 0.41469 0.0
H1363 H 0.01017 0.07045 0.40811 0.0
H1364 H 1.0051 0.08166 0.4382 0.0
H1365 H 0.99009 0.97174 0.39985 0.0
H1366 H 0.01275 0.96561 0.4191 0.0
H1367 H 0.01596 0.9818 0.39357 0.0
C1368 C 0.34893 0.7284 0.6515 0.0
C1369 C 0.34977 0.7362 0.62847 0.0
C1370 C 0.34425 0.74269 0.67145 0.0
C1371 C 0.34029 0.76526 0.66823 0.0
C1372 C 0.34294 0.77407 0.64585 0.0
C1373 C 0.34771 0.75942 0.6262 0.0
C1374 C 0.34184 0.73277 0.69518 0.0
C1375 C 0.33912 0.79819 0.64189 0.0
C1376 C 0.30004 0.78341 0.70418 0.0
C1377 C 0.31319 0.79872 0.72515 0.0
C1378 C 0.30869 0.77306 0.68503 0.0
C1379 C 0.33101 0.77822 0.68704 0.0
C1380 C 0.34429 0.79452 0.70773 0.0
C1381 C 0.33517 0.80479 0.72648 0.0
C1382 C 0.29401 0.75566 0.66328 0.0
C1383 C 0.36812 0.80042 0.7105 0.0
H1384 H 0.35077 0.71059 0.65352 0.0
H1385 H 0.34851 0.76567 0.60854 0.0
H1386 H 0.34936 0.74649 0.71204 0.0
H1387 H 0.32472 0.72721 0.6955 0.0
H1388 H 0.34888 0.71701 0.69642 0.0
H1389 H 0.34475 0.80381 0.62511 0.0
H1390 H 0.32188 0.79748 0.63936 0.0
H1391 H 0.3472 0.81194 0.65855 0.0
H1392 H 0.28305 0.77883 0.70327 0.0
H1393 H 0.34536 0.81664 0.7428 0.0
H1394 H 0.29692 0.73756 0.66378 0.0
H1395 H 0.29721 0.76071 0.64523 0.0
H1396 H 0.27703 0.75482 0.6637 0.0
H1397 H 0.37406 0.78383 0.70931 0.0
H1398 H 0.37626 0.81219 0.72858 0.0
H1399 H 0.37257 0.80943 0.69491 0.0
C1400 C 0.63195 0.04182 0.89508 0.0
C1401 C 0.63646 0.02083 0.88301 0.0
C1402 C 0.62083 0.04225 0.91536 0.0
C1403 C 0.61353 0.02116 0.925 0.0
C1404 C 0.61794 0.99977 0.91302 0.0
C1405 C 0.62912 0.99981 0.89248 0.0
C1406 C 0.61684 0.06566 0.92654 0.0
C1407 C 0.61086 0.97663 0.92206 0.0
C1408 C 0.60031 0.0291 0.99285 0.0
C1409 C 0.578 0.02606 0.98853 0.0
C1410 C 0.6118 0.02706 0.97283 0.0
C1411 C 0.60119 0.02181 0.94708 0.0
C1412 C 0.57867 0.01862 0.94266 0.0
C1413 C 0.56759 0.02068 0.96299 0.0
C1414 C 0.63557 0.03067 0.97935 0.0
C1415 C 0.56609 0.0132 0.91615 0.0
H1416 H 0.63717 0.05843 0.88859 0.0
H1417 H 0.63222 0.98331 0.88397 0.0
H1418 H 0.59953 0.06415 0.9249 0.0
H1419 H 0.62413 0.0701 0.94682 0.0
H1420 H 0.62334 0.0806 0.91725 0.0
H1421 H 0.61543 0.96153 0.9114 0.0
H1422 H 0.61792 0.97842 0.94224 0.0
H1423 H 0.59337 0.97236 0.92025 0.0
H1424 H 0.60897 0.03311 0.01209 0.0
H1425 H 0.5505 0.01808 0.9587 0.0
H1426 H 0.64322 0.04627 0.97177 0.0
H1427 H 0.64038 0.01488 0.97049 0.0
H1428 H 0.64164 0.03364 0.99992 0.0
H1429 H 0.57114 0.02813 0.90616 0.0
H1430 H 0.54874 0.01041 0.91542 0.0
H1431 H 0.56926 0.99699 0.90585 0.0
C1432 C 0.32469 0.33417 0.13966 0.0
C1433 C 0.31961 0.35614 0.13666 0.0
C1434 C 0.32074 0.32318 0.16038 0.0
C1435 C 0.31136 0.33423 0.17878 0.0
C1436 C 0.30674 0.35673 0.17627 0.0
C1437 C 0.31092 0.3674 0.15535 0.0
C1438 C 0.32601 0.29926 0.16213 0.0
C1439 C 0.2967 0.36921 0.1953 0.0
C1440 C 0.27841 0.2927 0.21355 0.0
C1441 C 0.29204 0.295 0.2368 0.0
C1442 C 0.2844 0.30558 0.19487 0.0
C1443 C 0.30471 0.32123 0.19924 0.0
C1444 C 0.31861 0.32371 0.22273 0.0
C1445 C 0.31209 0.31061 0.24122 0.0
C1446 C 0.26895 0.30225 0.17029 0.0
C1447 C 0.34044 0.34 0.22822 0.0
H1448 H 0.3315 0.32526 0.12553 0.0
H1449 H 0.30694 0.38435 0.15337 0.0
H1450 H 0.33575 0.2997 0.18083 0.0
H1451 H 0.31116 0.28541 0.16001 0.0
H1452 H 0.33475 0.29387 0.14749 0.0
H1453 H 0.29557 0.38736 0.19185 0.0
H1454 H 0.2805 0.35857 0.19468 0.0
H1455 H 0.30598 0.37065 0.21451 0.0
H1456 H 0.26284 0.28075 0.20988 0.0
H1457 H 0.32279 0.31237 0.25893 0.0
H1458 H 0.27588 0.29506 0.15466 0.0
H1459 H 0.26588 0.31969 0.16665 0.0
H1460 H 0.25357 0.28991 0.17003 0.0
H1461 H 0.34978 0.33413 0.2145 0.0
H1462 H 0.34923 0.34032 0.24745 0.0
H1463 H 0.33921 0.35842 0.22609 0.0
C1464 C 0.16942 0.89477 0.02303 0.0
C1465 C 0.17582 0.90109 1.0012 0.0
C1466 C 0.16201 0.91067 0.03888 0.0
C1467 C 0.16051 0.93308 0.03233 0.0
C1468 C 0.16542 0.93877 0.00933 0.0
C1469 C 0.17336 0.92281 0.99419 0.0
C1470 C 0.15736 0.90413 0.06346 0.0
C1471 C 0.16323 0.96218 1.0013 0.0
C1472 C 0.12912 0.97094 0.06461 0.0
C1473 C 0.14542 0.9891 0.07975 0.0
C1474 C 0.13375 0.95215 0.04951 0.0
C1475 C 0.15517 0.95126 0.05015 0.0
C1476 C 0.17163 0.96873 0.06671 0.0
C1477 C 0.16656 0.98779 0.08102 0.0
C1478 C 0.1158 0.93427 0.03165 0.0
C1479 C 0.19463 0.96784 0.06847 0.0
H1480 H 0.1716 0.87811 0.0287 0.0
H1481 H 0.1783 0.92763 0.97728 0.0
H1482 H 0.17093 0.9135 0.07879 0.0
H1483 H 0.14307 0.90984 0.06782 0.0
H1484 H 0.15502 0.88465 0.06341 0.0
H1485 H 0.16546 0.96272 0.98173 0.0
H1486 H 0.14736 0.96538 1.00278 0.0
H1487 H 0.17524 0.97702 0.01393 0.0
H1488 H 0.11276 0.9723 0.06334 0.0
H1489 H 0.17906 1.00199 0.09266 0.0
H1490 H 0.11773 0.91582 0.03227 0.0
H1491 H 0.11604 0.93752 0.0122 0.0
H1492 H 0.10007 0.93557 0.03587 0.0
H1493 H 0.19679 0.94985 0.07127 0.0
H1494 H 0.20524 0.98127 0.08408 0.0
H1495 H 0.1996 0.97124 0.05066 0.0
C1496 C 0.67827 0.63082 0.02059 0.0
C1497 C 0.69657 0.62162 0.02355 0.0
C1498 C 0.65837 0.61712 0.02228 0.0
C1499 C 0.6566 0.59367 0.02766 0.0
C1500 C 0.67501 0.58424 0.03063 0.0
C1501 C 0.69467 0.59818 0.02827 0.0
C1502 C 0.6392 0.62779 0.01833 0.0
C1503 C 0.67402 0.55952 0.03677 0.0
C1504 C 0.60871 0.56692 0.05501 0.0
C1505 C 0.59555 0.55117 0.03417 0.0
C1506 C 0.62865 0.58064 0.05326 0.0
C1507 C 0.63547 0.57903 0.02997 0.0
C1508 C 0.62193 0.56354 0.00876 0.0
C1509 C 0.60234 0.54968 0.01118 0.0
C1510 C 0.6426 0.59659 0.07646 0.0
C1511 C 0.62814 0.56161 0.98342 0.0
H1512 H 0.67948 0.64885 0.01684 0.0
H1513 H 0.70869 0.59095 0.03084 0.0
H1514 H 0.62669 0.61617 1.00304 0.0
H1515 H 0.63247 0.62889 0.03557 0.0
H1516 H 0.64304 0.64594 0.01347 0.0
H1517 H 0.68973 0.55485 0.03888 0.0
H1518 H 0.66812 0.5582 0.05447 0.0
H1519 H 0.66266 0.54615 0.02178 0.0
H1520 H 0.60365 0.5681 0.07286 0.0
H1521 H 0.59222 0.53764 0.99495 0.0
H1522 H 0.64588 0.61538 0.07343 0.0
H1523 H 0.65808 0.59155 0.08032 0.0
H1524 H 0.63526 0.59553 0.09324 0.0
H1525 H 0.63142 0.57946 0.97782 0.0
H1526 H 0.6156 0.54933 0.96861 0.0
H1527 H 0.64294 0.55507 0.98441 0.0
C1528 C 0.68364 0.48472 0.32505 0.0
C1529 C 0.68422 0.50007 0.30731 0.0
C1530 C 0.69459 0.46632 0.32419 0.0
C1531 C 0.70644 0.46325 0.30519 0.0
C1532 C 0.70681 0.47844 0.287 0.0
C1533 C 0.69568 0.49662 0.28826 0.0
C1534 C 0.69374 0.45041 0.34384 0.0
C1535 C 0.7193 0.47575 0.26646 0.0
C1536 C 0.75283 0.43359 0.31559 0.0
C1537 C 0.74435 0.41098 0.30081 0.0
C1538 C 0.7405 0.45056 0.31766 0.0
C1539 C 0.71911 0.44475 0.30474 0.0
C1540 C 0.71022 0.42169 0.29049 0.0
C1541 C 0.72295 0.40508 0.28865 0.0
C1542 C 0.75054 0.47492 0.33316 0.0
C1543 C 0.68744 0.4148 0.27655 0.0
H1544 H 0.67477 0.48719 0.33979 0.0
H1545 H 0.6962 0.50835 0.27444 0.0
H1546 H 0.68818 0.43143 0.33473 0.0
H1547 H 0.70989 0.45255 0.35512 0.0
H1548 H 0.68308 0.45447 0.35671 0.0
H1549 H 0.71745 0.48855 0.25334 0.0
H1550 H 0.73639 0.47865 0.27484 0.0
H1551 H 0.71411 0.45738 0.25559 0.0
H1552 H 0.76923 0.43812 0.32542 0.0
H1553 H 0.71633 0.38772 0.27704 0.0
H1554 H 0.74109 0.47913 0.3474 0.0
H1555 H 0.75069 0.48868 0.3209 0.0
H1556 H 0.76709 0.47626 0.3429 0.0
H1557 H 0.67671 0.41843 0.28946 0.0
H1558 H 0.68251 0.39567 0.26777 0.0
H1559 H 0.68529 0.42576 0.26162 0.0
C1560 C 0.8149 0.43105 0.48533 0.0
C1561 C 0.7964 0.43943 0.4857 0.0
C1562 C 0.83465 0.44689 0.48879 0.0
C1563 C 0.83589 0.47174 0.49229 0.0
C1564 C 0.81722 0.48036 0.49198 0.0
C1565 C 0.79764 0.46406 0.4889 0.0
C1566 C 0.85425 0.43698 0.48918 0.0
C1567 C 0.81798 0.50673 0.49513 0.0
C1568 C 0.89087 0.5058 0.525 0.0
C1569 C 0.90072 0.50871 0.50444 0.0
C1570 C 0.86915 0.49545 0.52144 0.0
C1571 C 0.85699 0.48836 0.49675 0.0
C1572 C 0.86633 0.4937 0.47613 0.0
C1573 C 0.88816 0.5036 0.48019 0.0
C1574 C 0.85977 0.49001 0.54393 0.0
C1575 C 0.85374 0.48691 0.44956 0.0
H1576 H 0.81405 0.41205 0.48294 0.0
H1577 H 0.78333 0.47059 0.48906 0.0
H1578 H 0.86254 0.44281 0.47423 0.0
H1579 H 0.86544 0.44396 0.50739 0.0
H1580 H 0.8505 0.41718 0.48637 0.0
H1581 H 0.80189 0.51043 0.49276 0.0
H1582 H 0.82705 0.51565 0.51405 0.0
H1583 H 0.82636 0.51487 0.48128 0.0
H1584 H 0.90036 0.51034 0.54385 0.0
H1585 H 0.89553 0.50567 0.46411 0.0
H1586 H 0.85713 0.47058 0.54424 0.0
H1587 H 0.84416 0.49475 0.54281 0.0
H1588 H 0.87036 0.49967 0.56184 0.0
H1589 H 0.85138 0.46745 0.44329 0.0
H1590 H 0.86202 0.49639 0.43639 0.0
H1591 H 0.83783 0.49089 0.44842 0.0
C1592 C 0.37056 0.12023 0.3019 0.0
C1593 C 0.37871 0.1147 0.28004 0.0
C1594 C 0.35975 0.13947 0.30532 0.0
C1595 C 0.35635 0.15412 0.28655 0.0
C1596 C 0.36438 0.14838 0.2645 0.0
C1597 C 0.37523 0.1294 0.26169 0.0
C1598 C 0.35216 0.14438 0.32948 0.0
C1599 C 0.36157 0.1625 0.24349 0.0
C1600 C 0.31148 0.19085 0.28329 0.0
C1601 C 0.32236 0.21491 0.29263 0.0
C1602 C 0.32204 0.17141 0.28157 0.0
C1603 C 0.34453 0.17512 0.28954 0.0
C1604 C 0.3556 0.19937 0.29913 0.0
C1605 C 0.34465 0.21851 0.30042 0.0
C1606 C 0.30894 0.14663 0.27075 0.0
C1607 C 0.37934 0.20536 0.30797 0.0
H1608 H 0.3729 0.10978 0.31665 0.0
H1609 H 0.38109 0.12608 0.24455 0.0
H1610 H 0.35957 0.16301 0.33891 0.0
H1611 H 0.33474 0.14262 0.32548 0.0
H1612 H 0.35598 0.13208 0.34253 0.0
H1613 H 0.36772 0.15555 0.22703 0.0
H1614 H 0.34452 0.16213 0.23732 0.0
H1615 H 0.37001 0.18141 0.25024 0.0
H1616 H 0.29442 0.18705 0.27709 0.0
H1617 H 0.35379 0.23654 0.30774 0.0
H1618 H 0.31119 0.13452 0.2845 0.0
H1619 H 0.31434 0.13957 0.25378 0.0
H1620 H 0.29175 0.14616 0.2656 0.0
H1621 H 0.38417 0.19265 0.31996 0.0
H1622 H 0.38534 0.22378 0.31869 0.0
H1623 H 0.38708 0.20382 0.29153 0.0
C1624 C 0.32062 0.10413 0.52872 0.0
C1625 C 0.32478 0.12916 0.53332 0.0
C1626 C 0.3373 0.09203 0.53057 0.0
C1627 C 0.35872 0.10519 0.53719 0.0
C1628 C 0.36297 0.13043 0.54169 0.0
C1629 C 0.34606 0.14202 0.53971 0.0
C1630 C 0.332 0.06512 0.52557 0.0
C1631 C 0.38545 0.14529 0.54881 0.0
C1632 C 0.40282 0.07698 0.56601 0.0
C1633 C 0.41259 0.07176 0.54566 0.0
C1634 C 0.38513 0.08737 0.56339 0.0
C1635 C 0.37678 0.09277 0.53983 0.0
C1636 C 0.38638 0.08733 0.51914 0.0
C1637 C 0.40408 0.07694 0.52229 0.0
C1638 C 0.37547 0.09278 0.58598 0.0
C1639 C 0.37816 0.09284 0.49371 0.0
H1640 H 0.30431 0.09395 0.52377 0.0
H1641 H 0.34961 0.16134 0.54331 0.0
H1642 H 0.33958 0.05859 0.51026 0.0
H1643 H 0.33843 0.05837 0.54253 0.0
H1644 H 0.31463 0.05744 0.52025 0.0
H1645 H 0.38615 0.16473 0.55137 0.0
H1646 H 0.39361 0.14113 0.56653 0.0
H1647 H 0.39444 0.14088 0.53411 0.0
H1648 H 0.40889 0.07271 0.58405 0.0
H1649 H 0.41151 0.07326 0.50645 0.0
H1650 H 0.35835 0.0839 0.58181 0.0
H1651 H 0.37672 0.11225 0.59049 0.0
H1652 H 0.38334 0.08684 0.60279 0.0
H1653 H 0.361 0.08436 0.48753 0.0
H1654 H 0.3867 0.08658 0.47925 0.0
H1655 H 0.37988 0.11237 0.4949 0.0
C1656 C 0.68769 0.64698 0.34419 0.0
C1657 C 0.68943 0.62335 0.33793 0.0
C1658 C 0.70378 0.6663 0.34216 0.0
C1659 C 0.72199 0.66189 0.33346 0.0
C1660 C 0.72402 0.63811 0.32757 0.0
C1661 C 0.7078 0.61917 0.32998 0.0
C1662 C 0.70109 0.69141 0.3488 0.0
C1663 C 0.74305 0.63261 0.31797 0.0
C1664 C 0.75258 0.70785 0.30154 0.0
C1665 C 0.77057 0.71842 0.32023 0.0
C1666 C 0.73651 0.68973 0.30576 0.0
C1667 C 0.73847 0.68199 0.32929 0.0
C1668 C 0.75654 0.69282 0.34836 0.0
C1669 C 0.77247 0.71083 0.34353 0.0
C1670 C 0.71761 0.67861 0.28486 0.0
C1671 C 0.75908 0.68529 0.37379 0.0
H1672 H 0.67361 0.65042 0.35043 0.0
H1673 H 0.70932 0.60101 0.32504 0.0
H1674 H 0.71511 0.70228 0.36269 0.0
H1675 H 0.70006 0.69995 0.33184 0.0
H1676 H 0.68661 0.69192 0.35663 0.0
H1677 H 0.74257 0.61321 0.315 0.0
H1678 H 0.74379 0.63908 0.29991 0.0
H1679 H 0.75787 0.64207 0.3314 0.0
H1680 H 0.75122 0.71351 0.28339 0.0
H1681 H 0.78635 0.71909 0.35804 0.0
H1682 H 0.70275 0.68041 0.2912 0.0
H1683 H 0.71671 0.65926 0.27976 0.0
H1684 H 0.71835 0.68691 0.2678 0.0
H1685 H 0.74507 0.68688 0.38216 0.0
H1686 H 0.77358 0.69617 0.38693 0.0
H1687 H 0.75993 0.66629 0.37179 0.0
C1688 C 0.89266 0.44928 0.78968 0.0
C1689 C 0.88373 0.46912 0.78633 0.0
C1690 C 0.88032 0.42637 0.79054 0.0
C1691 C 0.85794 0.42227 0.78801 0.0
C1692 C 0.84863 0.44208 0.78435 0.0
C1693 C 0.86147 0.46501 0.78357 0.0
C1694 C 0.89145 0.40646 0.79448 0.0
C1695 C 0.82499 0.43908 0.78149 0.0
C1696 C 0.82596 0.35577 0.77111 0.0
C1697 C 0.82291 0.34972 0.79456 0.0
C1698 C 0.83661 0.37911 0.76859 0.0
C1699 C 0.84474 0.39753 0.78996 0.0
C1700 C 0.84142 0.39159 0.81359 0.0
C1701 C 0.83071 0.36816 0.81557 0.0
C1702 C 0.83947 0.38395 0.74289 0.0
C1703 C 0.84959 0.41 0.83713 0.0
H1704 H 0.90969 0.4516 0.79186 0.0
H1705 H 0.85403 0.47978 0.78103 0.0
H1706 H 0.88869 0.40003 0.81209 0.0
H1707 H 0.88484 0.39116 0.7789 0.0
H1708 H 0.90883 0.4121 0.79559 0.0
H1709 H 0.81987 0.45563 0.77797 0.0
H1710 H 0.81666 0.42444 0.76574 0.0
H1711 H 0.81995 0.43399 0.79874 0.0
H1712 H 0.82011 0.34213 0.75455 0.0
H1713 H 0.82867 0.36425 0.8339 0.0
H1714 H 0.85662 0.3882 0.74233 0.0
H1715 H 0.83326 0.39971 0.73881 0.0
H1716 H 0.8313 0.3685 0.72791 0.0
H1717 H 0.86716 0.41542 0.84046 0.0
H1718 H 0.84493 0.40328 0.85391 0.0
H1719 H 0.84349 0.42621 0.8349 0.0
C1720 C 0.06083 0.86837 0.12615 0.0
C1721 C 0.07613 0.85684 0.11844 0.0
C1722 C 0.05683 0.88898 0.11685 0.0
C1723 C 0.0682 0.89843 0.09913 0.0
C1724 C 0.08351 0.88673 0.09113 0.0
C1725 C 0.08732 0.86631 0.10087 0.0
C1726 C 0.04063 0.90093 0.12633 0.0
C1727 C 0.096 0.89589 0.07229 0.0
C1728 C 0.04463 0.93962 0.05857 0.0
C1729 C 0.05647 0.96248 0.07045 0.0
C1730 C 0.0484 0.91879 0.06749 0.0
C1731 C 0.06424 0.92058 0.08914 0.0
C1732 C 0.07623 0.94362 0.10121 0.0
C1733 C 0.07229 0.96412 0.09169 0.0
C1734 C 0.03533 0.89478 0.05371 0.0
C1735 C 0.09331 0.94677 0.12427 0.0
H1736 H 0.0521 0.86145 0.13975 0.0
H1737 H 0.09919 0.85774 0.09466 0.0
H1738 H 0.04833 0.91956 0.13551 0.0
H1739 H 0.02811 0.90174 0.11039 0.0
H1740 H 0.03302 0.89147 0.13998 0.0
H1741 H 0.10641 0.8841 0.0668 0.0
H1742 H 0.08506 0.89745 0.05517 0.0
H1743 H 0.10599 0.91397 0.08028 0.0
H1744 H 0.03234 0.93797 0.04218 0.0
H1745 H 0.08122 0.98155 0.10138 0.0
H1746 H 0.02638 0.8855 0.06644 0.0
H1747 H 0.0459 0.88346 0.04764 0.0
H1748 H 0.0239 0.89625 0.03695 0.0
H1749 H 0.08809 0.93482 0.13736 0.0
H1750 H 0.0979 0.96543 0.13449 0.0
H1751 H 0.10759 0.94205 0.11859 0.0
C1752 C 0.9426 0.25967 0.88201 0.0
C1753 C 0.9435 0.25362 0.90607 0.0
C1754 C 0.92328 0.2613 0.86729 0.0
C1755 C 0.90419 0.25648 0.87659 0.0
C1756 C 0.90497 0.25007 0.90073 0.0
C1757 C 0.92451 0.24886 0.91513 0.0
C1758 C 0.92331 0.26842 0.84181 0.0
C1759 C 0.88511 0.24443 0.91138 0.0
C1760 C 0.85657 0.27997 0.848 0.0
C1761 C 0.84428 0.26 0.83077 0.0
C1762 C 0.87604 0.27912 0.86297 0.0
C1763 C 0.88338 0.25771 0.86095 0.0
C1764 C 0.87072 0.23737 0.84397 0.0
C1765 C 0.85147 0.2388 0.82908 0.0
C1766 C 0.88892 0.30127 0.88071 0.0
C1767 C 0.87757 0.21405 0.84139 0.0
H1768 H 0.95709 0.26356 0.87482 0.0
H1769 H 0.92488 0.24412 0.93363 0.0
H1770 H 0.91273 0.25407 0.82711 0.0
H1771 H 0.91699 0.28467 0.84096 0.0
H1772 H 0.93944 0.27199 0.83738 0.0
H1773 H 0.8883 0.23966 0.93038 0.0
H1774 H 0.87772 0.25999 0.91251 0.0
H1775 H 0.87334 0.22936 0.89878 0.0
H1776 H 0.85116 0.29642 0.84947 0.0
H1777 H 0.84204 0.22323 0.81593 0.0
H1778 H 0.90479 0.30651 0.87592 0.0
H1779 H 0.89148 0.29763 0.9002 0.0
H1780 H 0.88113 0.3165 0.8801 0.0
H1781 H 0.89293 0.21646 0.83508 0.0
H1782 H 0.86574 0.19971 0.82781 0.0
H1783 H 0.88004 0.20815 0.85988 0.0
C1784 C 0.55624 0.21895 0.58666 0.0
C1785 C 0.56217 0.22852 0.61239 0.0
C1786 C 0.55422 0.19448 0.57786 0.0
C1787 C 0.55819 0.17897 0.59511 0.0
C1788 C 0.56426 0.18854 0.62108 0.0
C1789 C 0.56618 0.21307 0.62937 0.0
C1790 C 0.54773 0.1852 0.55004 0.0
C1791 C 0.56863 0.1728 0.64021 0.0
C1792 C 0.53367 0.11194 0.57592 0.0
C1793 C 0.55087 0.10277 0.57017 0.0
C1794 C 0.53579 0.13655 0.58381 0.0
C1795 C 0.55562 0.1527 0.58608 0.0
C1796 C 0.57299 0.14364 0.58004 0.0
C1797 C 0.57043 0.1189 0.5722 0.0
C1798 C 0.5168 0.14524 0.58998 0.0
C1799 C 0.5944 0.1601 0.5821 0.0
H1800 H 0.55311 0.23058 0.57329 0.0
H1801 H 0.57079 0.22011 0.64927 0.0
H1802 H 0.55991 0.17657 0.54352 0.0
H1803 H 0.53265 0.1714 0.54604 0.0
H1804 H 0.54555 0.19953 0.53899 0.0
H1805 H 0.57347 0.18293 0.65967 0.0
H1806 H 0.55423 0.15858 0.63912 0.0
H1807 H 0.58137 0.16387 0.63609 0.0
H1808 H 0.51845 0.09984 0.57449 0.0
H1809 H 0.58388 0.11219 0.56788 0.0
H1810 H 0.51331 0.15869 0.57828 0.0
H1811 H 0.52031 0.1541 0.60987 0.0
H1812 H 0.50239 0.13053 0.58687 0.0
H1813 H 0.59291 0.17399 0.57027 0.0
H1814 H 0.60622 0.15044 0.57625 0.0
H1815 H 0.6005 0.1694 0.60175 0.0
C1816 C 0.5676 0.7539 0.38895 0.0
C1817 C 0.57131 0.76325 0.41465 0.0
C1818 C 0.58455 0.75397 0.37605 0.0
C1819 C 0.6058 0.76369 0.38904 0.0
C1820 C 0.60958 0.77315 0.41495 0.0
C1821 C 0.59241 0.77277 0.42736 0.0
C1822 C 0.57973 0.74361 0.34848 0.0
C1823 C 0.63184 0.78381 0.42965 0.0
C1824 C 0.65261 0.74673 0.36338 0.0
C1825 C 0.66025 0.76663 0.35261 0.0
C1826 C 0.63476 0.74533 0.37481 0.0
C1827 C 0.62413 0.76429 0.37568 0.0
C1828 C 0.63165 0.78432 0.36471 0.0
C1829 C 0.64949 0.78523 0.35334 0.0
C1830 C 0.62743 0.72365 0.38628 0.0
C1831 C 0.62093 0.80497 0.36513 0.0
H1832 H 0.55144 0.74646 0.37889 0.0
H1833 H 0.59562 0.78009 0.44717 0.0
H1834 H 0.58575 0.75747 0.33766 0.0
H1835 H 0.588 0.72899 0.34518 0.0
H1836 H 0.56246 0.73653 0.34107 0.0
H1837 H 0.63218 0.79036 0.44969 0.0
H1838 H 0.64158 0.77033 0.42863 0.0
H1839 H 0.63943 0.79893 0.42133 0.0
H1840 H 0.6608 0.73233 0.36326 0.0
H1841 H 0.65485 0.8005 0.34473 0.0
H1842 H 0.61044 0.71549 0.37828 0.0
H1843 H 0.6289 0.72898 0.40678 0.0
H1844 H 0.63675 0.70997 0.38313 0.0
H1845 H 0.60391 0.79856 0.35616 0.0
H1846 H 0.62834 0.819 0.35529 0.0
H1847 H 0.6217 0.8131 0.38482 0.0
C1848 C 1.00085 0.23466 0.42067 0.0
C1849 C 0.01757 0.24698 0.41112 0.0
C1850 C 1.00397 0.21734 0.43556 0.0
C1851 C 0.02421 0.2121 0.44072 0.0
C1852 C 0.04088 0.22372 0.4302 0.0
C1853 C 0.03739 0.24114 0.41562 0.0
C1854 C 0.98586 0.20539 0.44662 0.0
C1855 C 0.06259 0.21831 0.43502 0.0
C1856 C 0.03944 0.18909 0.50103 0.0
C1857 C 0.0358 0.16452 0.49249 0.0
C1858 C 0.03567 0.20475 0.48434 0.0
C1859 C 0.02832 0.19562 0.45845 0.0
C1860 C 0.02486 0.1709 0.44962 0.0
C1861 C 0.02854 0.15561 0.46678 0.0
C1862 C 0.03948 0.23104 0.49444 0.0
C1863 C 0.01717 0.1606 0.42209 0.0
H1864 H 0.9855 0.23911 0.41726 0.0
H1865 H 0.05033 0.25047 0.40808 0.0
H1866 H 0.98334 0.18572 0.44223 0.0
H1867 H 0.98982 0.21051 0.46736 0.0
H1868 H 0.97078 0.21039 0.43955 0.0
H1869 H 0.07331 0.2275 0.42383 0.0
H1870 H 0.06998 0.22405 0.45519 0.0
H1871 H 0.06127 0.19883 0.4305 0.0
H1872 H 0.04536 0.19614 0.52081 0.0
H1873 H 0.02538 0.13659 0.46009 0.0
H1874 H 0.02465 0.23724 0.48953 0.0
H1875 H 0.05157 0.24137 0.48569 0.0
H1876 H 0.04497 0.2352 0.51513 0.0
H1877 H 1.00143 0.16422 0.41538 0.0
H1878 H 0.01578 0.14103 0.41823 0.0
H1879 H 0.02822 0.1693 0.41101 0.0
C1880 C 0.62423 0.25288 0.196 0.0
C1881 C 0.614 0.2546 0.21645 0.0
C1882 C 0.64606 0.25416 0.1996 0.0
C1883 C 0.65794 0.25735 0.22424 0.0
C1884 C 0.64777 0.25912 0.245 0.0
C1885 C 0.62586 0.25767 0.24085 0.0
C1886 C 0.65642 0.25224 0.17704 0.0
C1887 C 0.66006 0.2627 0.27159 0.0
C1888 C 0.71181 0.24214 0.2358 0.0
C1889 C 0.72541 0.26486 0.24026 0.0
C1890 C 0.68973 0.23931 0.22987 0.0
C1891 C 0.68119 0.25969 0.22841 0.0
C1892 C 0.69485 0.28252 0.23178 0.0
C1893 C 0.7168 0.28481 0.23756 0.0
C1894 C 0.67554 0.21467 0.22619 0.0
C1895 C 0.68631 0.30466 0.23029 0.0
H1896 H 0.61515 0.25038 0.17706 0.0
H1897 H 0.61803 0.25897 0.25671 0.0
H1898 H 0.66856 0.26885 0.17801 0.0
H1899 H 0.6647 0.23739 0.177 0.0
H1900 H 0.64479 0.24913 0.15908 0.0
H1901 H 0.64971 0.26333 0.28562 0.0
H1902 H 0.66831 0.24803 0.2739 0.0
H1903 H 0.67242 0.2796 0.27567 0.0
H1904 H 0.71834 0.22665 0.23786 0.0
H1905 H 0.72717 0.30246 0.24085 0.0
H1906 H 0.66394 0.21104 0.20818 0.0
H1907 H 0.66636 0.21355 0.2414 0.0
H1908 H 0.68467 0.20054 0.22625 0.0
H1909 H 0.67512 0.30259 0.2122 0.0
H1910 H 0.6991 0.32093 0.23214 0.0
H1911 H 0.67734 0.30731 0.24547 0.0
C1912 C 0.50489 0.85844 0.95733 0.0
C1913 C 0.52162 0.85645 0.94488 0.0
C1914 C 0.50705 0.87749 0.97685 0.0
C1915 C 0.52641 0.89487 0.98406 0.0
C1916 C 0.54367 0.89236 0.97234 0.0
C1917 C 0.54104 0.8732 0.95284 0.0
C1918 C 0.48829 0.87965 0.98885 0.0
C1919 C 0.56459 0.91055 0.97957 0.0
C1920 C 0.52667 0.95892 0.00753 0.0
C1921 C 0.5351 0.96143 0.03318 0.0
C1922 C 0.5229 0.93704 0.99161 0.0
C1923 C 0.5279 0.91717 1.00154 0.0
C1924 C 0.5356 0.91927 0.02764 0.0
C1925 C 0.53908 0.94148 0.04325 0.0
C1926 C 0.51454 0.93557 0.96392 0.0
C1927 C 0.54107 0.89839 0.03882 0.0
H1928 H 0.48986 0.84548 0.95141 0.0
H1929 H 0.55411 0.87164 0.94348 0.0
H1930 H 0.49317 0.88324 0.00959 0.0
H1931 H 0.48204 0.89494 0.98323 0.0
H1932 H 0.47527 0.8633 0.98322 0.0
H1933 H 0.57703 0.90478 0.97045 0.0
H1934 H 0.56246 0.92772 0.974 0.0
H1935 H 0.57027 0.91391 1.0002 0.0
H1936 H 0.52373 0.97433 0.99959 0.0
H1937 H 0.54567 0.94343 0.06308 0.0
H1938 H 0.50055 0.9204 0.95716 0.0
H1939 H 0.5269 0.93234 0.95322 0.0
H1940 H 0.50991 0.95216 0.95959 0.0
H1941 H 0.52781 0.88238 0.03251 0.0
H1942 H 0.54472 0.90222 0.05966 0.0
H1943 H 0.55512 0.89398 0.03222 0.0
C1944 C 0.97751 0.74902 0.73397 0.0
C1945 C 0.99632 0.74315 0.74452 0.0
C1946 C 0.96321 0.75451 0.74883 0.0
C1947 C 0.96764 0.75369 0.7748 0.0
C1948 C 0.98588 0.74624 0.78528 0.0
C1949 C 1.00018 0.74129 0.77004 0.0
C1950 C 0.94385 0.76231 0.73693 0.0
C1951 C 0.99059 0.74421 0.81269 0.0
C1952 C 0.94355 0.79626 0.81254 0.0
C1953 C 0.92389 0.78165 0.81317 0.0
C1954 C 0.95852 0.78705 0.80134 0.0
C1955 C 0.95393 0.76249 0.79105 0.0
C1956 C 0.93498 0.74723 0.79366 0.0
C1957 C 0.92004 0.75703 0.80444 0.0
C1958 C 0.97854 0.80395 0.79886 0.0
C1959 C 0.92965 0.72085 0.78345 0.0
H1960 H 0.97438 0.75041 0.71425 0.0
H1961 H 0.01457 0.73644 0.77823 0.0
H1962 H 0.92928 0.7509 0.74044 0.0
H1963 H 0.94459 0.78092 0.74551 0.0
H1964 H 0.94245 0.76143 0.71635 0.0
H1965 H 1.00418 0.73581 0.81733 0.0
H1966 H 0.99435 0.76219 0.82435 0.0
H1967 H 0.97643 0.73353 0.8179 0.0
H1968 H 0.94686 0.81518 0.81982 0.0
H1969 H 0.90487 0.74554 0.80464 0.0
H1970 H 0.97807 0.80538 0.7788 0.0
H1971 H 0.99266 0.79706 0.80546 0.0
H1972 H 0.98053 0.8221 0.80963 0.0
H1973 H 0.9213 0.71772 0.76358 0.0
H1974 H 0.91898 0.71074 0.79402 0.0
H1975 H 0.94407 0.71361 0.78421 0.0
C1976 C 0.13957 0.04349 0.92015 0.0
C1977 C 0.12906 0.04755 0.89717 0.0
C1978 C 0.12877 0.03895 0.9397 0.0
C1979 C 0.10685 0.03851 0.93637 0.0
C1980 C 0.09616 0.04287 0.91335 0.0
C1981 C 0.10736 0.04729 0.89403 0.0
C1982 C 0.14078 0.03431 0.96385 0.0
C1983 C 0.07281 0.04264 0.90906 0.0
C1984 C 0.07345 1.00422 0.97626 0.0
C1985 C 0.07133 0.02261 0.99424 0.0
C1986 C 0.0852 0.00911 0.95757 0.0
C1987 C 0.09504 0.03301 0.95676 0.0
C1988 C 0.09342 0.05159 0.97532 0.0
C1989 C 0.08165 0.04616 0.99387 0.0
C1990 C 0.08671 0.98873 0.93837 0.0
C1991 C 0.10371 0.07728 0.97522 0.0
H1992 H 0.15632 0.04361 0.92285 0.0
H1993 H 0.09908 0.0504 0.87641 0.0
H1994 H 0.1393 0.04713 0.97995 0.0
H1995 H 0.13386 0.01616 0.96706 0.0
H1996 H 0.15789 0.03582 0.96372 0.0
H1997 H 0.06692 0.04691 0.89039 0.0
H1998 H 0.06356 0.0248 0.9105 0.0
H1999 H 0.06971 0.05575 0.92377 0.0
H2000 H 0.06556 0.98598 0.97649 0.0
H2001 H 0.08004 0.06047 0.00769 0.0
H2002 H 0.10359 0.98876 0.93827 0.0
H2003 H 0.07936 0.99097 0.91936 0.0
H2004 H 0.0787 0.97112 0.94202 0.0
H2005 H 0.12096 0.07934 0.97586 0.0
H2006 H 0.10146 0.08956 0.99133 0.0
H2007 H 0.09691 0.08272 0.95758 0.0
C2008 C 0.77103 0.39084 0.57972 0.0
C2009 C 0.76465 0.37962 0.55457 0.0
C2010 C 0.7764 0.37796 0.59875 0.0
C2011 C 0.77556 0.35336 0.5924 0.0
C2012 C 0.76995 0.34213 0.56695 0.0
C2013 C 0.76445 0.35539 0.54832 0.0
C2014 C 0.78217 0.39049 0.62571 0.0
C2015 C 0.76911 0.31595 0.5595 0.0
C2016 C 0.80271 0.32302 0.64128 0.0
C2017 C 0.78546 0.31194 0.65083 0.0
C2018 C 0.79975 0.33646 0.62206 0.0
C2019 C 0.7791 0.33903 0.6125 0.0
C2020 C 0.76167 0.32804 0.62227 0.0
C2021 C 0.76506 0.31454 0.64126 0.0
C2022 C 0.81865 0.34779 0.6119 0.0
C2023 C 0.73945 0.33065 0.61278 0.0
H2024 H 0.77122 0.40956 0.58468 0.0
H2025 H 0.75969 0.34667 0.52888 0.0
H2026 H 0.76999 0.38291 0.63608 0.0
H2027 H 0.79754 0.38756 0.63503 0.0
H2028 H 0.78333 0.40999 0.62737 0.0
H2029 H 0.76611 0.31039 0.53882 0.0
H2030 H 0.78424 0.3118 0.56785 0.0
H2031 H 0.75629 0.30514 0.56685 0.0
H2032 H 0.81846 0.32087 0.64861 0.0
H2033 H 0.75176 0.30624 0.64892 0.0
H2034 H 0.8205 0.3674 0.61447 0.0
H2035 H 0.81609 0.34123 0.59145 0.0
H2036 H 0.83362 0.3439 0.62124 0.0
H2037 H 0.73902 0.34979 0.61538 0.0
H2038 H 0.72768 0.32112 0.62257 0.0
H2039 H 0.73455 0.32356 0.59239 0.0
C2040 C 0.45554 0.01572 0.36853 0.0
C2041 C 0.45181 0.03661 0.35968 0.0
C2042 C 0.4679 0.01612 0.39254 0.0
C2043 C 0.47721 0.03799 0.4092 0.0
C2044 C 0.47343 0.05924 0.40063 0.0
C2045 C 0.46098 0.05835 0.37625 0.0
C2046 C 0.47127 0.99284 0.39993 0.0
C2047 C 0.48268 0.0831 0.4173 0.0
C2048 C 0.49783 0.03396 0.47966 0.0
C2049 C 0.51969 0.03547 0.48088 0.0
C2050 C 0.48402 0.03547 0.45702 0.0
C2051 C 0.49189 0.03838 0.43453 0.0
C2052 C 0.51397 0.04009 0.43593 0.0
C2053 C 0.52732 0.03873 0.45868 0.0
C2054 C 0.46083 0.03368 0.4571 0.0
C2055 C 0.52359 0.04291 0.41305 0.0
H2056 H 0.4488 0.99862 0.35647 0.0
H2057 H 0.45839 0.07473 0.37024 0.0
H2058 H 0.48842 0.99297 0.40307 0.0
H2059 H 0.46598 0.99062 0.41783 0.0
H2060 H 0.46256 0.9772 0.38543 0.0
H2061 H 0.47756 0.09789 0.40889 0.0
H2062 H 0.47785 0.08288 0.43573 0.0
H2063 H 0.50025 0.08672 0.42089 0.0
H2064 H 0.49146 0.03157 0.49638 0.0
H2065 H 0.54404 0.03998 0.45894 0.0
H2066 H 0.4513 0.0169 0.44493 0.0
H2067 H 0.45561 0.04866 0.44926 0.0
H2068 H 0.45735 0.03385 0.47625 0.0
H2069 H 0.5164 0.02712 0.39816 0.0
H2070 H 0.54105 0.04487 0.41715 0.0
H2071 H 0.5201 0.05876 0.40545 0.0
C2072 C 0.77217 0.72596 0.09996 0.0
C2073 C 0.77253 0.70199 0.09268 0.0
C2074 C 0.7749 0.73598 0.12542 0.0
C2075 C 0.77799 0.7217 0.14416 0.0
C2076 C 0.77858 0.69757 0.13695 0.0
C2077 C 0.7759 0.68805 0.11138 0.0
C2078 C 0.77427 0.76181 0.13226 0.0
C2079 C 0.78176 0.68168 0.15626 0.0
C2080 C 0.80216 0.75125 0.21205 0.0
C2081 C 0.78415 0.74983 0.22295 0.0
C2082 C 0.80039 0.74245 0.18644 0.0
C2083 C 0.78013 0.73181 0.17126 0.0
C2084 C 0.76189 0.73048 0.1821 0.0
C2085 C 0.7641 0.73953 0.20772 0.0
C2086 C 0.82025 0.74439 0.17565 0.0
C2087 C 0.73999 0.71921 0.16668 0.0
H2088 H 0.76963 0.73694 0.08574 0.0
H2089 H 0.77621 0.66951 0.10605 0.0
H2090 H 0.76091 0.7631 0.14194 0.0
H2091 H 0.78908 0.77166 0.1455 0.0
H2092 H 0.77238 0.77072 0.11558 0.0
H2093 H 0.7822 0.66343 0.14767 0.0
H2094 H 0.79681 0.68955 0.16997 0.0
H2095 H 0.76872 0.6803 0.16689 0.0
H2096 H 0.81774 0.75925 0.22353 0.0
H2097 H 0.75005 0.73826 0.21585 0.0
H2098 H 0.81907 0.75425 0.15966 0.0
H2099 H 0.82198 0.72633 0.1683 0.0
H2100 H 0.83476 0.75365 0.18976 0.0
H2101 H 0.73676 0.7285 0.15053 0.0
H2102 H 0.72738 0.7198 0.1778 0.0
H2103 H 0.73906 0.70033 0.15895 0.0
C2104 C 0.11734 0.04445 0.73973 0.0
C2105 C 0.10378 0.04295 0.75703 0.0
C2106 C 0.10931 0.04181 0.71386 0.0
C2107 C 0.08715 0.03764 0.70494 0.0
C2108 C 0.07335 0.03597 0.72225 0.0
C2109 C 0.08181 0.03859 0.74805 0.0
C2110 C 0.12459 0.04362 0.69608 0.0
C2111 C 0.04964 0.03162 0.71353 0.0
C2112 C 0.06872 0.05424 0.64133 0.0
C2113 C 0.06322 0.03204 0.62539 0.0
C2114 C 0.07628 0.05625 0.66723 0.0
C2115 C 0.07851 0.03558 0.67755 0.0
C2116 C 0.0729 0.01309 0.6616 0.0
C2117 C 0.0653 0.01158 0.63576 0.0
C2118 C 0.08202 0.08057 0.68355 0.0
C2119 C 0.07509 0.99061 0.67178 0.0
H2120 H 0.13433 0.04771 0.74639 0.0
H2121 H 0.07118 0.03738 0.7612 0.0
H2122 H 0.12055 0.02714 0.68183 0.0
H2123 H 0.12323 0.05869 0.6859 0.0
H2124 H 0.14133 0.04637 0.70592 0.0
H2125 H 0.04103 0.03039 0.72927 0.0
H2126 H 0.04579 0.04629 0.7039 0.0
H2127 H 0.04371 0.01484 0.69972 0.0
H2128 H 0.06716 0.07017 0.63359 0.0
H2129 H 0.06111 0.99433 0.62368 0.0
H2130 H 0.09907 0.085 0.69259 0.0
H2131 H 0.07281 0.08051 0.69876 0.0
H2132 H 0.07893 0.09481 0.67276 0.0
H2133 H 0.0919 0.99206 0.68047 0.0
H2134 H 0.06972 0.97446 0.65699 0.0
H2135 H 0.06569 0.98826 0.68667 0.0
C2136 C 0.7163 0.32461 0.41895 0.0
C2137 C 0.72385 0.34935 0.42594 0.0
C2138 C 0.72241 0.3121 0.39878 0.0
C2139 C 0.73681 0.32462 0.38586 0.0
C2140 C 0.74346 0.34975 0.39188 0.0
C2141 C 0.73668 0.36184 0.41165 0.0
C2142 C 0.71436 0.28537 0.39219 0.0
C2143 C 0.75902 0.36372 0.37874 0.0
C2144 C 0.77468 0.29166 0.35951 0.0
C2145 C 0.76659 0.28833 0.33379 0.0
C2146 C 0.76507 0.30349 0.37669 0.0
C2147 C 0.74658 0.3114 0.36782 0.0
C2148 C 0.73806 0.30748 0.3418 0.0
C2149 C 0.74839 0.29628 0.32504 0.0
C2150 C 0.77495 0.30796 0.40428 0.0
C2151 C 0.71808 0.31506 0.33167 0.0
H2152 H 0.70622 0.31491 0.42977 0.0
H2153 H 0.74261 0.38098 0.41691 0.0
H2154 H 0.70907 0.2798 0.37159 0.0
H2155 H 0.72738 0.27659 0.39826 0.0
H2156 H 0.70097 0.27885 0.40139 0.0
H2157 H 0.76132 0.38329 0.38432 0.0
H2158 H 0.77462 0.35905 0.38338 0.0
H2159 H 0.75361 0.35907 0.35809 0.0
H2160 H 0.78878 0.28547 0.36611 0.0
H2161 H 0.74197 0.29334 0.30507 0.0
H2162 H 0.76344 0.29936 0.4149 0.0
H2163 H 0.77906 0.32739 0.41165 0.0
H2164 H 0.78953 0.30104 0.40801 0.0
H2165 H 0.70512 0.30759 0.34104 0.0
H2166 H 0.71276 0.30917 0.31107 0.0
H2167 H 0.72078 0.33475 0.33579 0.0
C2168 C 0.4521 0.0126 0.20591 0.0
C2169 C 0.44778 0.03363 0.21816 0.0
C2170 C 0.46307 0.01215 0.1855 0.0
C2171 C 0.47045 0.03326 0.17596 0.0
C2172 C 0.46621 0.05469 0.18808 0.0
C2173 C 0.45512 0.05466 0.20871 0.0
C2174 C 0.46683 0.98869 0.1741 0.0
C2175 C 0.47341 0.07787 0.17916 0.0
C2176 C 0.51619 0.03323 0.13775 0.0
C2177 C 0.50573 0.02803 0.11224 0.0
C2178 C 0.50521 0.03546 0.15814 0.0
C2179 C 0.48272 0.03259 0.15382 0.0
C2180 C 0.47206 0.02759 0.12811 0.0
C2181 C 0.48346 0.02544 0.10803 0.0
C2182 C 0.51785 0.04071 0.18462 0.0
C2183 C 0.44832 0.02431 0.12167 0.0
H2184 H 0.44685 0.99597 0.21236 0.0
H2185 H 0.45219 0.0712 0.21737 0.0
H2186 H 0.45954 0.98446 0.15382 0.0
H2187 H 0.4841 0.99 0.17573 0.0
H2188 H 0.46016 0.97371 0.18324 0.0
H2189 H 0.469 0.093 0.18996 0.0
H2190 H 0.49089 0.08197 0.18086 0.0
H2191 H 0.46629 0.07623 0.15902 0.0
H2192 H 0.53327 0.03557 0.14197 0.0
H2193 H 0.47476 0.02168 0.08884 0.0
H2194 H 0.51274 0.02575 0.19455 0.0
H2195 H 0.5148 0.05695 0.19502 0.0
H2196 H 0.53517 0.04339 0.18528 0.0
H2197 H 0.44052 0.00879 0.12925 0.0
H2198 H 0.4422 0.02141 0.10111 0.0
H2199 H 0.44371 0.04023 0.13058 0.0
C2200 C 0.77892 0.69864 0.95792 0.0
C2201 C 0.75781 0.68942 0.95968 0.0
C2202 C 0.7838 0.71216 0.93917 0.0
C2203 C 0.76723 0.71691 0.92179 0.0
C2204 C 0.74592 0.70794 0.92372 0.0
C2205 C 0.74149 0.69427 0.94245 0.0
C2206 C 0.80673 0.72114 0.93777 0.0
C2207 C 0.72771 0.71271 0.90589 0.0
C2208 C 0.78064 0.76933 0.88688 0.0
C2209 C 0.78224 0.75784 0.86336 0.0
C2210 C 0.77554 0.75628 0.90588 0.0
C2211 C 0.77214 0.73106 0.90148 0.0
C2212 C 0.7735 0.71937 0.87761 0.0
C2213 C 0.77839 0.73284 0.85887 0.0
C2214 C 0.77399 0.76955 0.9308 0.0
C2215 C 0.77015 0.69259 0.872 0.0
H2216 H 0.79169 0.695 0.97099 0.0
H2217 H 0.72512 0.68738 0.94357 0.0
H2218 H 0.80951 0.71389 0.91918 0.0
H2219 H 0.81055 0.74085 0.93964 0.0
H2220 H 0.81779 0.716 0.9526 0.0
H2221 H 0.71206 0.70503 0.9102 0.0
H2222 H 0.72946 0.73221 0.90674 0.0
H2223 H 0.72792 0.70504 0.88636 0.0
H2224 H 0.78356 0.78862 0.89053 0.0
H2225 H 0.77966 0.72378 0.84081 0.0
H2226 H 0.78603 0.76637 0.94594 0.0
H2227 H 0.75818 0.7628 0.93517 0.0
H2228 H 0.77644 0.78907 0.93107 0.0
H2229 H 0.78191 0.68671 0.88531 0.0
H2230 H 0.77169 0.68616 0.85256 0.0
H2231 H 0.75416 0.68396 0.87463 0.0
C2232 C 0.85601 0.11484 0.01555 0.0
C2233 C 0.85985 0.11372 0.04126 0.0
C2234 C 0.86491 0.10131 0.99883 0.0
C2235 C 0.87811 0.08671 0.00824 0.0
C2236 C 0.88097 0.08455 0.03396 0.0
C2237 C 0.87169 0.09792 0.05003 0.0
C2238 C 0.86098 0.10372 0.9715 0.0
C2239 C 0.89486 0.06911 0.04493 0.0
C2240 C 0.90015 0.03796 0.97937 0.0
C2241 C 0.92163 0.04977 0.98426 0.0
C2242 C 0.88462 0.0507 0.98317 0.0
C2243 C 0.89097 0.07547 0.99257 0.0
C2244 C 0.91207 0.08782 0.99347 0.0
C2245 C 0.92717 0.07476 0.98911 0.0
C2246 C 0.86196 0.03721 0.98042 0.0
C2247 C 0.91945 0.11435 1.00272 0.0
H2248 H 0.84673 0.1269 0.00859 0.0
H2249 H 0.87443 0.09665 0.0698 0.0
H2250 H 0.87321 0.11874 0.96853 0.0
H2251 H 0.86177 0.08733 0.95919 0.0
H2252 H 0.84524 0.10777 0.9657 0.0
H2253 H 0.8951 0.06919 0.06523 0.0
H2254 H 0.88914 0.05042 0.03498 0.0
H2255 H 0.91138 0.07551 0.0425 0.0
H2256 H 0.8957 0.01865 0.97511 0.0
H2257 H 0.9437 0.08394 0.9921 0.0
H2258 H 0.85075 0.04806 0.97377 0.0
H2259 H 0.85915 0.0331 0.99893 0.0
H2260 H 0.85851 0.02011 0.96713 0.0
H2261 H 0.90789 0.12389 0.99411 0.0
H2262 H 0.93523 0.1217 0.99852 0.0
H2263 H 0.9207 0.11798 0.02335 0.0
C2264 C 0.38882 0.45478 0.07179 0.0
C2265 C 0.38826 0.4345 0.08331 0.0
C2266 C 0.40812 0.46843 0.06804 0.0
C2267 C 0.42748 0.46181 0.07606 0.0
C2268 C 0.427 0.44137 0.08769 0.0
C2269 C 0.40751 0.42802 0.09112 0.0
C2270 C 0.40779 0.49002 0.05554 0.0
C2271 C 0.44715 0.43364 0.0967 0.0
C2272 C 0.47637 0.48607 0.0491 0.0
C2273 C 0.48763 0.50522 0.068 0.0
C2274 C 0.45682 0.47182 0.0514 0.0
C2275 C 0.4483 0.47671 0.07316 0.0
C2276 C 0.45982 0.49586 0.0924 0.0
C2277 C 0.47922 0.50982 0.08957 0.0
C2278 C 0.44518 0.45162 0.03042 0.0
C2279 C 0.4516 0.50171 0.11602 0.0
H2280 H 0.37414 0.45997 0.06554 0.0
H2281 H 0.40741 0.41242 0.1 0.0
H2282 H 0.41742 0.50627 0.06853 0.0
H2283 H 0.41504 0.48833 0.03871 0.0
H2284 H 0.39146 0.4925 0.04977 0.0
H2285 H 0.44412 0.41709 0.10493 0.0
H2286 H 0.45539 0.43053 0.08092 0.0
H2287 H 0.45811 0.44799 0.11109 0.0
H2288 H 0.48271 0.4824 0.03236 0.0
H2289 H 0.48782 0.52451 0.10433 0.0
H2290 H 0.42925 0.45439 0.02294 0.0
H2291 H 0.44273 0.43452 0.03766 0.0
H2292 H 0.45387 0.45003 0.01479 0.0
H2293 H 0.43587 0.50602 0.11124 0.0
H2294 H 0.46249 0.51704 0.12931 0.0
H2295 H 0.44939 0.486 0.12564 0.0
C2296 C 0.40541 0.58768 0.79689 0.0
C2297 C 0.40469 0.56817 0.77851 0.0
C2298 C 0.39385 0.60492 0.79162 0.0
C2299 C 0.38137 0.60265 0.76738 0.0
C2300 C 0.3807 0.5831 0.74871 0.0
C2301 C 0.39231 0.56608 0.75452 0.0
C2302 C 0.39488 0.62548 0.81205 0.0
C2303 C 0.36766 0.58011 0.7226 0.0
C2304 C 0.33551 0.63346 0.75922 0.0
C2305 C 0.34424 0.6538 0.74989 0.0
C2306 C 0.34747 0.61679 0.76515 0.0
C2307 C 0.36868 0.62047 0.7616 0.0
C2308 C 0.3776 0.64097 0.75219 0.0
C2309 C 0.36529 0.65742 0.74651 0.0
C2310 C 0.33743 0.59525 0.77531 0.0
C2311 C 0.4001 0.64543 0.74798 0.0
H2312 H 0.41492 0.58946 0.81547 0.0
H2313 H 0.3917 0.55113 0.74014 0.0
H2314 H 0.40068 0.64265 0.8059 0.0
H2315 H 0.37877 0.62533 0.81577 0.0
H2316 H 0.40548 0.6248 0.82984 0.0
H2317 H 0.36918 0.56417 0.71008 0.0
H2318 H 0.35068 0.5784 0.72349 0.0
H2319 H 0.37267 0.59612 0.71412 0.0
H2320 H 0.31938 0.63076 0.76227 0.0
H2321 H 0.37206 0.67301 0.73912 0.0
H2322 H 0.34684 0.59482 0.79395 0.0
H2323 H 0.33743 0.57869 0.7627 0.0
H2324 H 0.32085 0.59514 0.77723 0.0
H2325 H 0.41126 0.64619 0.76579 0.0
H2326 H 0.40474 0.66233 0.74077 0.0
H2327 H 0.40194 0.63049 0.73435 0.0
C2328 C 0.2843 0.60545 0.58831 0.0
C2329 C 0.28636 0.61107 0.56463 0.0
C2330 C 0.2653 0.59156 0.59192 0.0
C2331 C 0.24794 0.58347 0.57142 0.0
C2332 C 0.25053 0.58742 0.5471 0.0
C2333 C 0.26982 0.60106 0.54396 0.0
C2334 C 0.26327 0.58728 0.61805 0.0
C2335 C 0.23234 0.57924 0.5248 0.0
C2336 C 0.19714 0.54259 0.57906 0.0
C2337 C 0.18544 0.55928 0.58559 0.0
C2338 C 0.21768 0.5501 0.57453 0.0
C2339 C 0.22636 0.57477 0.57614 0.0
C2340 C 0.21438 0.59158 0.58233 0.0
C2341 C 0.19413 0.58361 0.58713 0.0
C2342 C 0.23017 0.53178 0.5683 0.0
C2343 C 0.22292 0.61803 0.58384 0.0
H2344 H 0.29718 0.61286 0.60429 0.0
H2345 H 0.27135 0.60522 0.52557 0.0
H2346 H 0.25384 0.59918 0.62588 0.0
H2347 H 0.25479 0.56863 0.6177 0.0
H2348 H 0.27899 0.59092 0.63084 0.0
H2349 H 0.23778 0.58034 0.50677 0.0
H2350 H 0.2238 0.56064 0.52447 0.0
H2351 H 0.22083 0.59069 0.52623 0.0
H2352 H 0.19034 0.52376 0.57794 0.0
H2353 H 0.18489 0.59645 0.5918 0.0
H2354 H 0.24504 0.53521 0.58256 0.0
H2355 H 0.23479 0.53321 0.54992 0.0
H2356 H 0.22107 0.51329 0.5676 0.0
H2357 H 0.23758 0.62432 0.59852 0.0
H2358 H 0.21132 0.62864 0.58829 0.0
H2359 H 0.22717 0.62167 0.56575 0.0
C2360 C 0.70349 0.91946 0.83645 0.0
C2361 C 0.70332 0.93688 0.82051 0.0
C2362 C 0.71453 0.90065 0.83377 0.0
C2363 C 0.72632 0.89803 0.81441 0.0
C2364 C 0.72629 0.91543 0.79806 0.0
C2365 C 0.71508 0.93433 0.80126 0.0
C2366 C 0.71363 0.88347 0.85215 0.0
C2367 C 0.73806 0.91396 0.77681 0.0
C2368 C 0.77067 0.86086 0.82258 0.0
C2369 C 0.76069 0.83762 0.80924 0.0
C2370 C 0.76002 0.88021 0.82416 0.0
C2371 C 0.73849 0.87733 0.81172 0.0
C2372 C 0.72841 0.85399 0.79791 0.0
C2373 C 0.7393 0.8348 0.79705 0.0
C2374 C 0.77196 0.90396 0.83959 0.0
C2375 C 0.70591 0.84924 0.78356 0.0
H2376 H 0.69482 0.92045 0.85156 0.0
H2377 H 0.71544 0.94701 0.78843 0.0
H2378 H 0.70814 0.86482 0.842 0.0
H2379 H 0.72979 0.88526 0.86326 0.0
H2380 H 0.70292 0.88661 0.86527 0.0
H2381 H 0.73661 0.92823 0.76543 0.0
H2382 H 0.75511 0.91538 0.78431 0.0
H2383 H 0.73184 0.89636 0.76441 0.0
H2384 H 0.78703 0.864 0.83223 0.0
H2385 H 0.73096 0.81744 0.7864 0.0
H2386 H 0.76372 0.90873 0.85495 0.0
H2387 H 0.77221 0.91808 0.82779 0.0
H2388 H 0.78856 0.9039 0.84793 0.0
H2389 H 0.69541 0.85416 0.79622 0.0
H2390 H 0.6997 0.83026 0.77456 0.0
H2391 H 0.70517 0.86055 0.76879 0.0
C2392 C 0.76381 0.94975 0.58387 0.0
C2393 C 0.76109 0.92868 0.56668 0.0
C2394 C 0.74727 0.96192 0.58459 0.0
C2395 C 0.72752 0.95296 0.56762 0.0
C2396 C 0.72473 0.93171 0.55028 0.0
C2397 C 0.74141 0.91988 0.55008 0.0
C2398 C 0.75094 0.98442 0.60346 0.0
C2399 C 0.70411 0.92149 0.5317 0.0
C2400 C 0.6767 0.97123 0.5798 0.0
C2401 C 0.67498 0.98845 0.5643 0.0
C2402 C 0.69395 0.96005 0.58162 0.0
C2403 C 0.70987 0.96595 0.56741 0.0
C2404 C 0.70826 0.98341 0.55185 0.0
C2405 C 0.69097 0.99443 0.55055 0.0
C2406 C 0.69502 0.94169 0.59858 0.0
C2407 C 0.7246 0.99011 0.53608 0.0
H2408 H 0.77885 0.95673 0.59684 0.0
H2409 H 0.739 0.90367 0.53666 0.0
H2410 H 0.74926 0.99962 0.5936 0.0
H2411 H 0.73879 0.98252 0.61534 0.0
H2412 H 0.76692 0.98878 0.6158 0.0
H2413 H 0.70436 0.90473 0.51956 0.0
H2414 H 0.69081 0.91779 0.54178 0.0
H2415 H 0.70076 0.93467 0.51957 0.0
H2416 H 0.66462 0.96661 0.59071 0.0
H2417 H 0.68972 1.0074 0.5382 0.0
H2418 H 0.71048 0.94653 0.61197 0.0
H2419 H 0.69396 0.92406 0.58726 0.0
H2420 H 0.68207 0.93995 0.60937 0.0
H2421 H 0.74069 0.99588 0.5481 0.0
H2422 H 0.72159 1.00466 0.52572 0.0
H2423 H 0.72457 0.97432 0.5223 0.0
C2424 C 0.39667 0.40955 0.75896 0.0
C2425 C 0.39421 0.43302 0.76419 0.0
C2426 C 0.38087 0.39002 0.76123 0.0
C2427 C 0.36227 0.39405 0.76922 0.0
C2428 C 0.35955 0.41766 0.7741 0.0
C2429 C 0.37546 0.4368 0.77139 0.0
C2430 C 0.38432 0.36511 0.75566 0.0
C2431 C 0.34009 0.42279 0.78292 0.0
C2432 C 0.31247 0.34418 0.75943 0.0
C2433 C 0.31424 0.33721 0.78303 0.0
C2434 C 0.32828 0.36222 0.7544 0.0
C2435 C 0.34604 0.3738 0.77361 0.0
C2436 C 0.34786 0.36668 0.79746 0.0
C2437 C 0.33199 0.34841 0.80183 0.0
C2438 C 0.32594 0.36896 0.72861 0.0
C2439 C 0.36638 0.37868 0.81855 0.0
H2440 H 0.41106 0.40641 0.75333 0.0
H2441 H 0.37338 0.45483 0.77554 0.0
H2442 H 0.38657 0.3577 0.77329 0.0
H2443 H 0.37019 0.35318 0.74282 0.0
H2444 H 0.39845 0.36474 0.74708 0.0
H2445 H 0.34011 0.44207 0.78529 0.0
H2446 H 0.32555 0.41277 0.76933 0.0
H2447 H 0.3392 0.4167 0.80114 0.0
H2448 H 0.29881 0.33539 0.74482 0.0
H2449 H 0.33329 0.34316 0.82017 0.0
H2450 H 0.34024 0.36754 0.72076 0.0
H2451 H 0.32464 0.38779 0.72984 0.0
H2452 H 0.31175 0.35749 0.71541 0.0
H2453 H 0.3815 0.37717 0.81274 0.0
H2454 H 0.36558 0.37084 0.83588 0.0
H2455 H 0.36677 0.39797 0.82298 0.0
C2456 C 0.1915 0.60355 0.31034 0.0
C2457 C 0.20104 0.58467 0.31621 0.0
C2458 C 0.2034 0.62671 0.30963 0.0
C2459 C 0.22592 0.63215 0.31508 0.0
C2460 C 0.23583 0.61332 0.32119 0.0
C2461 C 0.22343 0.59003 0.32159 0.0
C2462 C 0.19164 0.64545 0.30272 0.0
C2463 C 0.25966 0.6178 0.32735 0.0
C2464 C 0.25473 0.68633 0.28892 0.0
C2465 C 0.25992 0.7054 0.30937 0.0
C2466 C 0.24431 0.66274 0.2907 0.0
C2467 C 0.23872 0.65723 0.3136 0.0
C2468 C 0.24416 0.67631 0.33445 0.0
C2469 C 0.25448 0.69985 0.3321 0.0
C2470 C 0.23889 0.64366 0.26767 0.0
C2471 C 0.23885 0.67193 0.35939 0.0
H2472 H 0.17435 0.60023 0.30601 0.0
H2473 H 0.23133 0.57607 0.32621 0.0
H2474 H 0.19619 0.66112 0.31804 0.0
H2475 H 0.1961 0.65174 0.28567 0.0
H2476 H 0.17415 0.63872 0.2991 0.0
H2477 H 0.26517 0.60189 0.33244 0.0
H2478 H 0.2663 0.62298 0.31103 0.0
H2479 H 0.26614 0.63289 0.3432 0.0
H2480 H 0.25864 0.68985 0.27114 0.0
H2481 H 0.25824 0.71398 0.34821 0.0
H2482 H 0.22142 0.63703 0.26217 0.0
H2483 H 0.24565 0.62827 0.27181 0.0
H2484 H 0.24491 0.65025 0.25151 0.0
H2485 H 0.22139 0.66651 0.3575 0.0
H2486 H 0.24506 0.68798 0.37422 0.0
H2487 H 0.24552 0.65706 0.36549 0.0
C2488 C 0.5122 0.68094 0.47271 0.0
C2489 C 0.51908 0.70298 0.48908 0.0
C2490 C 0.51381 0.65924 0.48118 0.0
C2491 C 0.52225 0.65927 0.50679 0.0
C2492 C 0.52844 0.68137 0.52353 0.0
C2493 C 0.52696 0.70278 0.51451 0.0
C2494 C 0.5071 0.63629 0.46251 0.0
C2495 C 0.53712 0.68249 0.55103 0.0
C2496 C 0.514 0.60037 0.53325 0.0
C2497 C 0.53388 0.59467 0.5342 0.0
C2498 C 0.51001 0.62131 0.52465 0.0
C2499 C 0.52594 0.6366 0.51582 0.0
C2500 C 0.54584 0.63052 0.51622 0.0
C2501 C 0.54962 0.60999 0.52565 0.0
C2502 C 0.48878 0.62721 0.52525 0.0
C2503 C 0.56325 0.64576 0.50664 0.0
H2504 H 0.50612 0.6807 0.45304 0.0
H2505 H 0.53221 0.71953 0.5275 0.0
H2506 H 0.52095 0.62827 0.46145 0.0
H2507 H 0.49506 0.62325 0.46873 0.0
H2508 H 0.50038 0.63903 0.44343 0.0
H2509 H 0.5396 0.70064 0.56202 0.0
H2510 H 0.52613 0.66978 0.55901 0.0
H2511 H 0.55251 0.67714 0.55335 0.0
H2512 H 0.50168 0.58872 0.53972 0.0
H2513 H 0.56495 0.60568 0.5259 0.0
H2514 H 0.48053 0.62701 0.50587 0.0
H2515 H 0.49098 0.64545 0.53582 0.0
H2516 H 0.47852 0.61443 0.534 0.0
H2517 H 0.55733 0.64792 0.48711 0.0
H2518 H 0.57741 0.63802 0.50698 0.0
H2519 H 0.56819 0.66382 0.51825 0.0
C2520 C 0.6424 0.29598 0.72282 0.0
C2521 C 0.64141 0.29991 0.69797 0.0
C2522 C 0.66162 0.29445 0.73788 0.0
C2523 C 0.68054 0.2973 0.72812 0.0
C2524 C 0.67968 0.30171 0.7032 0.0
C2525 C 0.66022 0.30276 0.68847 0.0
C2526 C 0.66164 0.28946 0.76419 0.0
C2527 C 0.69937 0.30533 0.69202 0.0
C2528 C 0.7339 0.31529 0.7746 0.0
C2529 C 0.74038 0.29368 0.77422 0.0
C2530 C 0.71469 0.31674 0.75961 0.0
C2531 C 0.70126 0.29599 0.744 0.0
C2532 C 0.7078 0.27411 0.74344 0.0
C2533 C 0.72731 0.27326 0.75835 0.0
C2534 C 0.70876 0.34056 0.76054 0.0
C2535 C 0.69402 0.25147 0.72733 0.0
H2536 H 0.62802 0.29355 0.73037 0.0
H2537 H 0.65977 0.30587 0.66936 0.0
H2538 H 0.66727 0.27294 0.76633 0.0
H2539 H 0.67279 0.30421 0.7779 0.0
H2540 H 0.64565 0.28733 0.76896 0.0
H2541 H 0.69621 0.30908 0.67258 0.0
H2542 H 0.71174 0.3204 0.70377 0.0
H2543 H 0.70596 0.2892 0.69178 0.0
H2544 H 0.74392 0.33119 0.7867 0.0
H2545 H 0.73212 0.25647 0.75796 0.0
H2546 H 0.69359 0.33958 0.76716 0.0
H2547 H 0.70627 0.34518 0.74144 0.0
H2548 H 0.7211 0.35513 0.77315 0.0
H2549 H 0.67824 0.24772 0.7326 0.0
H2550 H 0.70114 0.23585 0.72918 0.0
H2551 H 0.6914 0.25365 0.70734 0.0
C2552 C 0.01144 0.33473 0.01028 0.0
C2553 C 0.01598 0.32606 0.98714 0.0
C2554 C 0.01478 0.35941 0.01897 0.0
C2555 C 0.02255 0.37605 0.00405 0.0
C2556 C 0.02726 0.36742 0.98072 0.0
C2557 C 0.02409 0.34264 0.97267 0.0
C2558 C 0.00987 0.36768 0.04413 0.0
C2559 C 0.03531 0.38438 0.964 0.0
C2560 C 0.01171 0.43857 0.01564 0.0
C2561 C 0.03142 0.45238 0.02918 0.0
C2562 C 0.00867 0.41388 0.00719 0.0
C2563 C 0.0256 0.40242 0.01276 0.0
C2564 C 0.04546 0.41623 0.02669 0.0
C2565 C 0.04817 0.44095 0.03449 0.0
C2566 C 0.98735 0.40005 0.99205 0.0
C2567 C 0.06387 0.40485 0.0335 0.0
H2568 H 1.00521 0.32218 0.0217 0.0
H2569 H 0.02754 0.33625 0.95469 0.0
H2570 H 0.0241 0.38008 0.05631 0.0
H2571 H 0.99717 0.37766 0.04166 0.0
H2572 H 1.00466 0.35261 0.0539 0.0
H2573 H 0.03823 0.37492 0.94643 0.0
H2574 H 0.02361 0.39518 0.95902 0.0
H2575 H 0.0503 0.39695 0.97411 0.0
H2576 H 0.99869 0.44716 0.01125 0.0
H2577 H 0.06345 0.45132 0.04503 0.0
H2578 H 0.98052 0.38569 1.00182 0.0
H2579 H 0.98924 0.39137 0.97357 0.0
H2580 H 0.97591 0.41157 0.98888 0.0
H2581 H 0.05931 0.39048 0.04437 0.0
H2582 H 0.07816 0.41791 0.04477 0.0
H2583 H 0.06805 0.39649 0.01623 0.0
C2584 C 0.01605 0.79388 0.21438 0.0
C2585 C 0.0126 0.79141 0.18811 0.0
C2586 C 0.99899 0.79254 0.22724 0.0
C2587 C 0.97786 0.7886 0.21359 0.0
C2588 C 0.97434 0.78619 0.1871 0.0
C2589 C 0.99162 0.78762 0.17478 0.0
C2590 C 1.00355 0.79523 0.25547 0.0
C2591 C 0.95221 0.78195 0.17166 0.0
C2592 C 0.93092 0.76223 0.24241 0.0
C2593 C 0.92326 0.78235 0.25006 0.0
C2594 C 0.94874 0.76406 0.23092 0.0
C2595 C 0.95936 0.78659 0.22679 0.0
C2596 C 0.95172 0.80699 0.23441 0.0
C2597 C 0.93385 0.80464 0.24587 0.0
C2598 C 0.95609 0.74177 0.22297 0.0
C2599 C 0.96244 0.83136 0.23043 0.0
H2600 H 0.03211 0.79682 0.22494 0.0
H2601 H 0.9886 0.78568 0.15451 0.0
H2602 H 0.99735 0.81022 0.2637 0.0
H2603 H 0.99527 0.77884 0.26128 0.0
H2604 H 0.02078 0.79857 0.26343 0.0
H2605 H 0.95209 0.78069 0.15126 0.0
H2606 H 0.94226 0.76517 0.17483 0.0
H2607 H 0.9447 0.79663 0.1776 0.0
H2608 H 0.92281 0.74484 0.24512 0.0
H2609 H 0.92839 0.82041 0.25195 0.0
H2610 H 0.97298 0.74392 0.23181 0.0
H2611 H 0.95498 0.73876 0.20236 0.0
H2612 H 0.94656 0.7257 0.22812 0.0
H2613 H 0.97939 0.83582 0.23988 0.0
H2614 H 0.95485 0.84553 0.23773 0.0
H2615 H 0.96195 0.83141 0.21012 0.0
C2616 C 0.5538 0.33453 0.20555 0.0
C2617 C 0.54606 0.31047 0.19451 0.0
C2618 C 0.55267 0.35271 0.19121 0.0
C2619 C 0.54362 0.34661 0.16529 0.0
C2620 C 0.53521 0.32241 0.15423 0.0
C2621 C 0.53651 0.30463 0.16898 0.0
C2622 C 0.56169 0.37837 0.20362 0.0
C2623 C 0.52544 0.31522 0.12662 0.0
C2624 C 0.52618 0.39205 0.12783 0.0
C2625 C 0.54304 0.39766 0.11533 0.0
C2626 C 0.52643 0.37601 0.14482 0.0
C2627 C 0.54392 0.36533 0.1493 0.0
C2628 C 0.56125 0.37145 0.13729 0.0
C2629 C 0.56061 0.38758 0.12048 0.0
C2630 C 0.50771 0.36992 0.15735 0.0
C2631 C 0.58022 0.36046 0.14167 0.0
H2632 H 0.56114 0.33918 0.22528 0.0
H2633 H 0.53041 0.28609 0.16032 0.0
H2634 H 0.57554 0.38604 0.19573 0.0
H2635 H 0.54973 0.38911 0.19974 0.0
H2636 H 0.56685 0.38022 0.22426 0.0
H2637 H 0.51871 0.2957 0.1212 0.0
H2638 H 0.51265 0.32464 0.12162 0.0
H2639 H 0.53762 0.32049 0.11536 0.0
H2640 H 0.51249 0.39966 0.12376 0.0
H2641 H 0.57384 0.39222 0.11121 0.0
H2642 H 0.51315 0.37222 0.17796 0.0
H2643 H 0.49944 0.35093 0.15071 0.0
H2644 H 0.49614 0.38113 0.15335 0.0
H2645 H 0.58707 0.36331 0.16202 0.0
H2646 H 0.59281 0.36799 0.13179 0.0
H2647 H 0.57519 0.34092 0.13502 0.0
C2648 C 0.95544 0.30369 0.35811 0.0
C2649 C 0.96578 0.29865 0.3383 0.0
C2650 C 0.93344 0.30123 0.35385 0.0
C2651 C 0.92149 0.29386 0.32913 0.0
C2652 C 0.93179 0.28898 0.30896 0.0
C2653 C 0.95386 0.29127 0.31382 0.0
C2654 C 0.92296 0.30622 0.37586 0.0
C2655 C 0.91948 0.2813 0.2823 0.0
C2656 C 0.86263 0.26622 0.31888 0.0
C2657 C 0.85381 0.2855 0.31362 0.0
C2658 C 0.88467 0.2688 0.3244 0.0
C2659 C 0.89816 0.29114 0.32444 0.0
C2660 C 0.88939 0.31085 0.3199 0.0
C2661 C 0.86729 0.30783 0.31472 0.0
C2662 C 0.89348 0.24748 0.32957 0.0
C2663 C 0.90333 0.3349 0.31965 0.0
H2664 H 0.96449 0.30921 0.37714 0.0
H2665 H 0.96177 0.28738 0.29846 0.0
H2666 H 0.91434 0.32053 0.37319 0.0
H2667 H 0.9111 0.29005 0.37708 0.0
H2668 H 0.93456 0.31173 0.39396 0.0
H2669 H 0.92994 0.27886 0.26866 0.0
H2670 H 0.9077 0.26425 0.28066 0.0
H2671 H 0.91053 0.29477 0.27706 0.0
H2672 H 0.85232 0.2489 0.31808 0.0
H2673 H 0.86061 0.32278 0.31049 0.0
H2674 H 0.90495 0.25194 0.34774 0.0
H2675 H 0.90221 0.24253 0.31479 0.0
H2676 H 0.88086 0.23172 0.33015 0.0
H2677 H 0.91477 0.34126 0.33775 0.0
H2678 H 0.89401 0.34854 0.31633 0.0
H2679 H 0.9127 0.33331 0.30471 0.0
C2680 C 0.04353 0.68018 0.65065 0.0
C2681 C 0.06181 0.69872 0.65769 0.0
C2682 C 0.04238 0.66058 0.63222 0.0
C2683 C 0.06005 0.65939 0.62083 0.0
C2684 C 0.07841 0.67823 0.62754 0.0
C2685 C 0.07903 0.69777 0.64582 0.0
C2686 C 0.02243 0.64087 0.62538 0.0
C2687 C 0.09764 0.67738 0.61603 0.0
C2688 C 0.06258 0.59625 0.59726 0.0
C2689 C 0.05405 0.59363 0.57162 0.0
C2690 C 0.06572 0.61802 0.61323 0.0
C2691 C 0.05977 0.63752 0.60338 0.0
C2692 C 0.052 0.63533 0.57729 0.0
C2693 C 0.04937 0.61335 0.56162 0.0
C2694 C 0.07433 0.61971 0.64087 0.0
C2695 C 0.04534 0.65572 0.5662 0.0
H2696 H 0.0301 0.68093 0.6596 0.0
H2697 H 0.09322 0.71205 0.65121 0.0
H2698 H 0.01658 0.63715 0.60477 0.0
H2699 H 0.02595 0.62423 0.63105 0.0
H2700 H 0.00958 0.64535 0.63461 0.0
H2701 H 0.11012 0.69418 0.62205 0.0
H2702 H 0.10447 0.66242 0.62154 0.0
H2703 H 0.09307 0.674 0.59527 0.0
H2704 H 0.06601 0.58099 0.60512 0.0
H2705 H 0.04266 0.61131 0.54181 0.0
H2706 H 0.06162 0.62137 0.65156 0.0
H2707 H 0.0874 0.63583 0.6478 0.0
H2708 H 0.08032 0.6038 0.64501 0.0
H2709 H 0.03098 0.65907 0.57286 0.0
H2710 H 0.04168 0.65195 0.54536 0.0
H2711 H 0.05796 0.67232 0.57253 0.0
C2712 C 0.58447 0.81203 0.83552 0.0
C2713 C 0.58651 0.80884 0.86066 0.0
C2714 C 0.59973 0.80748 0.82158 0.0
C2715 C 0.61724 0.79937 0.83304 0.0
C2716 C 0.6198 0.79701 0.85866 0.0
C2717 C 0.60444 0.80189 0.87219 0.0
C2718 C 0.5968 0.81069 0.79445 0.0
C2719 C 0.63836 0.78848 0.87156 0.0
C2720 C 0.64504 0.76004 0.7966 0.0
C2721 C 0.66463 0.7757 0.79811 0.0
C2722 C 0.62889 0.76791 0.80662 0.0
C2723 C 0.63242 0.79203 0.81815 0.0
C2724 C 0.65157 0.80831 0.81797 0.0
C2725 C 0.66755 0.79988 0.80811 0.0
C2726 C 0.60867 0.75001 0.80651 0.0
C2727 C 0.65584 0.83424 0.82972 0.0
H2728 H 0.57072 0.81759 0.82655 0.0
H2729 H 0.60618 0.79947 0.89162 0.0
H2730 H 0.61145 0.82198 0.79094 0.0
H2731 H 0.59389 0.79312 0.78219 0.0
H2732 H 0.5833 0.81899 0.78895 0.0
H2733 H 0.63834 0.78829 0.89178 0.0
H2734 H 0.6379 0.77016 0.86233 0.0
H2735 H 0.6535 0.80012 0.86985 0.0
H2736 H 0.64283 0.74131 0.78904 0.0
H2737 H 0.68266 0.81205 0.80912 0.0
H2738 H 0.59463 0.75694 0.79964 0.0
H2739 H 0.60803 0.74696 0.82595 0.0
H2740 H 0.60751 0.73261 0.79461 0.0
H2741 H 0.64143 0.84138 0.8258 0.0
H2742 H 0.6688 0.84538 0.82285 0.0
H2743 H 0.66064 0.83601 0.85036 0.0
C2744 C 0.49442 0.50348 0.71582 0.0
C2745 C 0.4739 0.50614 0.71743 0.0
C2746 C 0.50334 0.50874 0.695 0.0
C2747 C 0.49145 0.51679 0.67517 0.0
C2748 C 0.4706 0.51911 0.67647 0.0
C2749 C 0.46211 0.51382 0.69754 0.0
C2750 C 0.52563 0.50603 0.6944 0.0
C2751 C 0.45733 0.52748 0.65571 0.0
C2752 C 0.52276 0.55243 0.63435 0.0
C2753 C 0.52164 0.53495 0.61367 0.0
C2754 C 0.51266 0.54688 0.65423 0.0
C2755 C 0.50106 0.52328 0.65339 0.0
C2756 C 0.49923 0.50578 0.63208 0.0
C2757 C 0.50956 0.51182 0.61251 0.0
C2758 C 0.51498 0.5661 0.67653 0.0
C2759 C 0.4869 0.48049 0.63028 0.0
H2760 H 0.5037 0.49759 0.73103 0.0
H2761 H 0.44622 0.5159 0.69848 0.0
H2762 H 0.52571 0.49367 0.67722 0.0
H2763 H 0.53593 0.52352 0.6937 0.0
H2764 H 0.53264 0.49915 0.71102 0.0
H2765 H 0.44115 0.52759 0.65913 0.0
H2766 H 0.4652 0.54578 0.65385 0.0
H2767 H 0.4559 0.51578 0.63754 0.0
H2768 H 0.53205 0.57034 0.63536 0.0
H2769 H 0.50863 0.49822 0.59657 0.0
H2770 H 0.52357 0.56124 0.69357 0.0
H2771 H 0.49913 0.5677 0.68001 0.0
H2772 H 0.52376 0.58376 0.67387 0.0
H2773 H 0.49458 0.47216 0.64528 0.0
H2774 H 0.48593 0.46937 0.61185 0.0
H2775 H 0.47057 0.48034 0.63319 0.0
C2776 C 0.87638 0.21921 0.05094 0.0
C2777 C 0.86302 0.21179 0.06726 0.0
C2778 C 0.86961 0.23105 0.03149 0.0
C2779 C 0.84902 0.23552 0.02833 0.0
C2780 C 0.83605 0.22953 0.04577 0.0
C2781 C 0.84323 0.21778 0.06508 0.0
C2782 C 0.88399 0.23744 0.0134 0.0
C2783 C 0.81404 0.23415 0.04313 0.0
C2784 C 0.83374 0.27666 0.98365 0.0
C2785 C 0.82308 0.26025 0.96196 0.0
C2786 C 0.84238 0.26894 0.00543 0.0
C2787 C 0.84026 0.24423 0.00547 0.0
C2788 C 0.82952 0.22759 0.98364 0.0
C2789 C 0.82108 0.23581 0.96214 0.0
C2790 C 0.85382 0.28717 0.02833 0.0
C2791 C 0.82685 0.20107 0.98302 0.0
H2792 H 0.89176 0.21481 0.0526 0.0
H2793 H 0.83287 0.21232 0.07776 0.0
H2794 H 0.87744 0.22572 0.99493 0.0
H2795 H 0.88483 0.25609 0.01043 0.0
H2796 H 0.90033 0.23536 0.0201 0.0
H2797 H 0.80692 0.23082 0.05971 0.0
H2798 H 0.81439 0.25281 0.0405 0.0
H2799 H 0.80359 0.22232 0.02625 0.0
H2800 H 0.83559 0.2956 0.98348 0.0
H2801 H 0.81265 0.22307 0.94552 0.0
H2802 H 0.87041 0.28541 0.03366 0.0
H2803 H 0.84606 0.28395 0.04444 0.0
H2804 H 0.85406 0.30572 0.02522 0.0
H2805 H 0.84261 0.19674 0.98729 0.0
H2806 H 0.81815 0.19052 0.96452 0.0
H2807 H 0.81805 0.19539 0.99763 0.0
C2808 C 0.13027 0.49927 0.2234 0.0
C2809 C 0.12479 0.51113 0.24464 0.0
C2810 C 0.11979 0.49953 0.19834 0.0
C2811 C 0.10328 0.51204 0.19378 0.0
C2812 C 0.0979 0.52413 0.21517 0.0
C2813 C 0.10848 0.52349 0.23982 0.0
C2814 C 0.12632 0.4862 0.17661 0.0
C2815 C 0.08069 0.53783 0.21207 0.0
C2816 C 0.08445 0.5306 0.12908 0.0
C2817 C 0.06522 0.51369 0.11895 0.0
C2818 C 0.09722 0.52992 0.15272 0.0
C2819 C 0.09096 0.51186 0.1671 0.0
C2820 C 0.07185 0.49444 0.15652 0.0
C2821 C 0.05941 0.4956 0.13301 0.0
C2822 C 0.11725 0.54903 0.16265 0.0
C2823 C 0.06413 0.47468 0.17039 0.0
H2824 H 0.14274 0.48967 0.2263 0.0
H2825 H 0.10382 0.53295 0.25556 0.0
H2826 H 0.11261 0.4721 0.16574 0.0
H2827 H 0.13122 0.49852 0.16371 0.0
H2828 H 0.1396 0.47779 0.18282 0.0
H2829 H 0.07866 0.54697 0.23029 0.0
H2830 H 0.08443 0.55139 0.20001 0.0
H2831 H 0.06537 0.52553 0.20257 0.0
H2832 H 0.08935 0.54476 0.11879 0.0
H2833 H 0.04476 0.48227 0.12572 0.0
H2834 H 0.13084 0.54083 0.16787 0.0
H2835 H 0.11556 0.56017 0.17991 0.0
H2836 H 0.12095 0.56078 0.14879 0.0
H2837 H 0.07683 0.46515 0.17545 0.0
H2838 H 0.04984 0.46156 0.15919 0.0
H2839 H 0.06019 0.48235 0.18814 0.0
C2840 C 0.8068 0.86431 0.48983 0.0
C2841 C 0.80946 0.85059 0.5089 0.0
C2842 C 0.80451 0.85437 0.46443 0.0
C2843 C 0.80478 0.83006 0.45776 0.0
C2844 C 0.80714 0.81602 0.47686 0.0
C2845 C 0.80948 0.82644 0.50214 0.0
C2846 C 0.80205 0.87001 0.44473 0.0
C2847 C 0.80742 0.79002 0.47062 0.0
C2848 C 0.78121 0.79966 0.39001 0.0
C2849 C 0.79939 0.80043 0.3795 0.0
C2850 C 0.78273 0.80898 0.41543 0.0
C2851 C 0.80292 0.81945 0.43085 0.0
C2852 C 0.82133 0.8201 0.42043 0.0
C2853 C 0.81936 0.81057 0.39497 0.0
C2854 C 0.76269 0.80781 0.42573 0.0
C2855 C 0.84316 0.83112 0.43614 0.0
H2856 H 0.80678 0.88297 0.49475 0.0
H2857 H 0.8115 0.81563 0.51664 0.0
H2858 H 0.81533 0.87087 0.43449 0.0
H2859 H 0.78713 0.86226 0.43076 0.0
H2860 H 0.8018 0.88846 0.45289 0.0
H2861 H 0.80886 0.78138 0.48752 0.0
H2862 H 0.79268 0.78025 0.45721 0.0
H2863 H 0.82092 0.78823 0.46134 0.0
H2864 H 0.76568 0.79185 0.37835 0.0
H2865 H 0.83353 0.81133 0.38714 0.0
H2866 H 0.76124 0.82609 0.43269 0.0
H2867 H 0.76336 0.79818 0.44192 0.0
H2868 H 0.74824 0.7987 0.41145 0.0
H2869 H 0.84435 0.85017 0.44343 0.0
H2870 H 0.85592 0.82995 0.42537 0.0
H2871 H 0.84592 0.8221 0.45259 0.0
C2872 C 0.49818 0.53276 0.85241 0.0
C2873 C 0.47634 0.52433 0.8428 0.0
C2874 C 0.50668 0.53405 0.87801 0.0
C2875 C 0.493 0.52708 0.89451 0.0
C2876 C 0.47091 0.519 0.88498 0.0
C2877 C 0.46289 0.51755 0.85928 0.0
C2878 C 0.53035 0.54246 0.88731 0.0
C2879 C 0.45572 0.51171 0.90194 0.0
C2880 C 0.51459 0.5068 0.9549 0.0
C2881 C 0.51716 0.52718 0.973 0.0
C2882 C 0.50712 0.50671 0.92934 0.0
C2883 C 0.5018 0.5274 0.92155 0.0
C2884 C 0.50441 0.54807 0.93968 0.0
C2885 C 0.51218 0.54776 0.96512 0.0
C2886 C 0.50486 0.48438 0.91064 0.0
C2887 C 0.49875 0.57044 0.93224 0.0
H2888 H 0.5087 0.538 0.83985 0.0
H2889 H 0.44597 0.51121 0.85212 0.0
H2890 H 0.53392 0.55799 0.90269 0.0
H2891 H 0.53672 0.5281 0.89513 0.0
H2892 H 0.5388 0.54763 0.87222 0.0
H2893 H 0.43891 0.50684 0.89185 0.0
H2894 H 0.45939 0.49621 0.91013 0.0
H2895 H 0.4576 0.52648 0.91775 0.0
H2896 H 0.51854 0.49085 0.96067 0.0
H2897 H 0.51412 0.56361 0.97887 0.0
H2898 H 0.51407 0.48851 0.89591 0.0
H2899 H 0.488 0.47749 0.90117 0.0
H2900 H 0.5104 0.47008 0.91958 0.0
H2901 H 0.50805 0.5768 0.91833 0.0
H2902 H 0.50178 0.58504 0.94855 0.0
H2903 H 0.48173 0.56653 0.92316 0.0
C2904 C 0.87976 0.21802 0.16247 0.0
C2905 C 0.87484 0.19332 0.16146 0.0
C2906 C 0.86648 0.23194 0.17112 0.0
C2907 C 0.84819 0.22079 0.17934 0.0
C2908 C 0.84281 0.19566 0.17739 0.0
C2909 C 0.8563 0.18221 0.16849 0.0
C2910 C 0.87273 0.25867 0.17294 0.0
C2911 C 0.82359 0.18315 0.18625 0.0
C2912 C 0.83288 0.25454 0.23423 0.0
C2913 C 0.8148 0.26128 0.22282 0.0
C2914 C 0.84401 0.24175 0.22016 0.0
C2915 C 0.83688 0.23549 0.19388 0.0
C2916 C 0.8189 0.24272 0.18205 0.0
C2917 C 0.80806 0.25577 0.19675 0.0
C2918 C 0.86327 0.23471 0.23357 0.0
C2919 C 0.81088 0.23618 0.15406 0.0
H2920 H 0.89423 0.22645 0.15705 0.0
H2921 H 0.8529 0.1631 0.16814 0.0
H2922 H 0.85883 0.26566 0.16564 0.0
H2923 H 0.87855 0.26712 0.19291 0.0
H2924 H 0.88546 0.26415 0.16242 0.0
H2925 H 0.82075 0.16343 0.18165 0.0
H2926 H 0.82579 0.1883 0.20688 0.0
H2927 H 0.80925 0.18869 0.17761 0.0
H2928 H 0.83836 0.2592 0.25437 0.0
H2929 H 0.79407 0.26104 0.18802 0.0
H2930 H 0.87757 0.24305 0.22685 0.0
H2931 H 0.86134 0.2151 0.22935 0.0
H2932 H 0.86613 0.24021 0.25426 0.0
H2933 H 0.82394 0.24162 0.14403 0.0
H2934 H 0.7977 0.24462 0.14754 0.0
H2935 H 0.80515 0.21654 0.14876 0.0
C2936 C 0.13124 0.52551 0.39177 0.0
C2937 C 0.1382 0.50415 0.38717 0.0
C2938 C 0.12025 0.53034 0.41186 0.0
C2939 C 0.11545 0.51346 0.42813 0.0
C2940 C 0.12211 0.49178 0.42316 0.0
C2941 C 0.13329 0.48761 0.40338 0.0
C2942 C 0.11403 0.55388 0.41594 0.0
C2943 C 0.11738 0.47265 0.43889 0.0
C2944 C 0.10289 0.53033 0.49524 0.0
C2945 C 0.08048 0.52387 0.49137 0.0
C2946 C 0.11423 0.52773 0.47516 0.0
C2947 C 0.10337 0.51799 0.44993 0.0
C2948 C 0.08077 0.51138 0.446 0.0
C2949 C 0.06984 0.51451 0.4663 0.0
C2950 C 0.1381 0.53541 0.48109 0.0
C2951 C 0.06795 0.50042 0.42017 0.0
H2952 H 0.13479 0.5388 0.38002 0.0
H2953 H 0.13823 0.47093 0.40059 0.0
H2954 H 0.09658 0.55084 0.41424 0.0
H2955 H 0.12141 0.5635 0.43523 0.0
H2956 H 0.11892 0.5654 0.40231 0.0
H2957 H 0.12292 0.45647 0.43252 0.0
H2958 H 0.12516 0.47962 0.45877 0.0
H2959 H 0.10005 0.46743 0.4382 0.0
H2960 H 0.11172 0.53755 0.51414 0.0
H2961 H 0.05268 0.50913 0.46244 0.0
H2962 H 0.14354 0.54833 0.469 0.0
H2963 H 0.14499 0.51978 0.47695 0.0
H2964 H 0.14438 0.54376 0.50106 0.0
H2965 H 0.07156 0.51257 0.40667 0.0
H2966 H 0.0506 0.49654 0.4197 0.0
H2967 H 0.07235 0.48355 0.41365 0.0
C2968 C 0.82493 0.8575 0.64755 0.0
C2969 C 0.80576 0.86164 0.63534 0.0
C2970 C 0.82563 0.84495 0.66799 0.0
C2971 C 0.80674 0.83625 0.67654 0.0
C2972 C 0.78739 0.84038 0.66425 0.0
C2973 C 0.78715 0.85293 0.64396 0.0
C2974 C 0.8466 0.84099 0.68047 0.0
C2975 C 0.76682 0.83149 0.67255 0.0
C2976 C 0.80064 0.78452 0.71342 0.0
C2977 C 0.802 0.79624 0.73791 0.0
C2978 C 0.80304 0.79734 0.69354 0.0
C2979 C 0.8069 0.82259 0.69809 0.0
C2980 C 0.80919 0.83455 0.72301 0.0
C2981 C 0.80674 0.82128 0.74256 0.0
C2982 C 0.80052 0.78373 0.66742 0.0
C2983 C 0.81335 0.86139 0.72888 0.0
H2984 H 0.83943 0.86412 0.64118 0.0
H2985 H 0.7722 0.85594 0.63482 0.0
H2986 H 0.85018 0.84891 0.70067 0.0
H2987 H 0.84573 0.8216 0.6793 0.0
H2988 H 0.85989 0.84893 0.67178 0.0
H2989 H 0.75313 0.83623 0.66116 0.0
H2990 H 0.76353 0.81181 0.67108 0.0
H2991 H 0.76813 0.83914 0.69251 0.0
H2992 H 0.79706 0.7652 0.70961 0.0
H2993 H 0.80784 0.83053 0.76139 0.0
H2994 H 0.81413 0.7909 0.65889 0.0
H2995 H 0.78596 0.78599 0.65539 0.0
H2996 H 0.79934 0.76437 0.66726 0.0
H2997 H 0.82706 0.86963 0.72109 0.0
H2998 H 0.81657 0.86813 0.74937 0.0
H2999 H 0.79935 0.86734 0.71989 0.0
C3000 C 0.68939 0.43913 0.53145 0.0
C3001 C 0.69413 0.41767 0.53674 0.0
C3002 C 0.68182 0.4535 0.54864 0.0
C3003 C 0.679 0.44626 0.57176 0.0
C3004 C 0.68327 0.42436 0.57703 0.0
C3005 C 0.69074 0.41022 0.55937 0.0
C3006 C 0.67705 0.47659 0.54212 0.0
C3007 C 0.68045 0.41619 0.60152 0.0
C3008 C 0.67719 0.49952 0.61787 0.0
C3009 C 0.65535 0.49827 0.61342 0.0
C3010 C 0.6852 0.4812 0.60638 0.0
C3011 C 0.67097 0.46163 0.58981 0.0
C3012 C 0.64886 0.45937 0.5871 0.0
C3013 C 0.64133 0.47771 0.59902 0.0
C3014 C 0.7089 0.48401 0.60997 0.0
C3015 C 0.63321 0.43898 0.56935 0.0
H3016 H 0.69193 0.44492 0.51397 0.0
H3017 H 0.69457 0.39373 0.56367 0.0
H3018 H 0.66025 0.47668 0.54265 0.0
H3019 H 0.68709 0.49187 0.55616 0.0
H3020 H 0.6799 0.47944 0.52323 0.0
H3021 H 0.68397 0.39838 0.60246 0.0
H3022 H 0.69112 0.42925 0.61736 0.0
H3023 H 0.66397 0.41538 0.60421 0.0
H3024 H 0.68802 0.51551 0.62888 0.0
H3025 H 0.62449 0.47701 0.59492 0.0
H3026 H 0.71438 0.4899 0.59324 0.0
H3027 H 0.71322 0.46677 0.61191 0.0
H3028 H 0.71746 0.49746 0.62674 0.0
H3029 H 0.63498 0.44015 0.54976 0.0
H3030 H 0.61656 0.43914 0.57065 0.0
H3031 H 0.6364 0.4217 0.57334 0.0
C3032 C 0.1873 0.13181 0.54887 0.0
C3033 C 0.19973 0.12396 0.53241 0.0
C3034 C 0.16733 0.11794 0.54997 0.0
C3035 C 0.15919 0.09558 0.534 0.0
C3036 C 0.17141 0.0877 0.51693 0.0
C3037 C 0.19155 0.10186 0.51646 0.0
C3038 C 0.15516 0.12702 0.56873 0.0
C3039 C 0.16328 0.06416 0.49933 0.0
C3040 C 0.1186 0.04953 0.55553 0.0
C3041 C 0.09923 0.05185 0.54201 0.0
C3042 C 0.1381 0.06345 0.55293 0.0
C3043 C 0.13842 0.08009 0.53617 0.0
C3044 C 0.11885 0.08248 0.5224 0.0
C3045 C 0.09952 0.06845 0.52558 0.0
C3046 C 0.1584 0.06052 0.56839 0.0
C3047 C 0.11834 0.09982 0.50423 0.0
H3048 H 0.19335 0.14877 0.5614 0.0
H3049 H 0.20089 0.0956 0.5036 0.0
H3050 H 0.13916 0.12781 0.55903 0.0
H3051 H 0.15292 0.11454 0.58224 0.0
H3052 H 0.16338 0.14503 0.57939 0.0
H3053 H 0.17403 0.06113 0.48622 0.0
H3054 H 0.16156 0.04937 0.51029 0.0
H3055 H 0.14734 0.06341 0.48824 0.0
H3056 H 0.11854 0.0368 0.56832 0.0
H3057 H 0.08464 0.07029 0.51498 0.0
H3058 H 0.16695 0.07771 0.58053 0.0
H3059 H 0.169 0.05545 0.5559 0.0
H3060 H 0.1555 0.04674 0.58046 0.0
H3061 H 0.12576 0.11823 0.51427 0.0
H3062 H 0.10193 0.0993 0.49461 0.0
H3063 H 0.12773 0.09571 0.48986 0.0
C3064 C 0.17669 0.97804 0.79446 0.0
C3065 C 0.17733 0.99545 0.81504 0.0
C3066 C 0.18923 0.96123 0.79648 0.0
C3067 C 0.20264 0.96172 0.81968 0.0
C3068 C 0.20313 0.97901 0.84063 0.0
C3069 C 0.19054 0.99573 0.83804 0.0
C3070 C 0.18835 0.94316 0.77366 0.0
C3071 C 0.21712 0.97998 0.86572 0.0
C3072 C 0.22235 0.90573 0.82921 0.0
C3073 C 0.24285 0.91166 0.8242 0.0
C3074 C 0.20918 0.92197 0.82819 0.0
C3075 C 0.21662 0.94458 0.82176 0.0
C3076 C 0.23734 0.95067 0.81679 0.0
C3077 C 0.25022 0.93418 0.81816 0.0
C3078 C 0.18727 0.91492 0.83386 0.0
C3079 C 0.24579 0.97449 0.80963 0.0
H3080 H 0.16655 0.97768 0.77662 0.0
H3081 H 0.19106 0.00904 0.85407 0.0
H3082 H 0.20426 0.94537 0.76873 0.0
H3083 H 0.18388 0.92483 0.77779 0.0
H3084 H 0.17681 0.94489 0.75712 0.0
H3085 H 0.2151 0.99395 0.8804 0.0
H3086 H 0.21351 0.96248 0.87201 0.0
H3087 H 0.23401 0.98366 0.86395 0.0
H3088 H 0.21669 0.88841 0.83412 0.0
H3089 H 0.26595 0.93872 0.81396 0.0
H3090 H 0.17513 0.91497 0.81719 0.0
H3091 H 0.18533 0.92809 0.84936 0.0
H3092 H 0.18409 0.89694 0.83923 0.0
H3093 H 0.23561 0.9765 0.79211 0.0
H3094 H 0.26235 0.9766 0.80669 0.0
H3095 H 0.2453 0.98917 0.82448 0.0
C3096 C 0.29488 0.94126 0.99108 0.0
C3097 C 0.29291 0.92284 0.00532 0.0
C3098 C 0.31484 0.95569 0.99119 0.0
C3099 C 0.3332 0.95142 0.0057 0.0
C3100 C 0.33121 0.93345 0.02081 0.0
C3101 C 0.31108 0.91946 0.02052 0.0
C3102 C 0.31636 0.97489 0.97508 0.0
C3103 C 0.35043 0.92825 0.03643 0.0
C3104 C 0.38573 0.96499 0.9847 0.0
C3105 C 0.39701 0.98521 1.0022 0.0
C3106 C 0.3647 0.95433 0.98514 0.0
C3107 C 0.35465 0.96418 0.00349 0.0
C3108 C 0.36565 0.9851 0.02067 0.0
C3109 C 0.38679 0.99532 0.0199 0.0
C3110 C 0.35356 0.93192 0.96662 0.0
C3111 C 0.35534 0.99621 0.04031 0.0
H3112 H 0.28089 0.9441 0.97942 0.0
H3113 H 0.30971 0.90533 0.03165 0.0
H3114 H 0.32625 0.99203 0.98616 0.0
H3115 H 0.3242 0.96993 0.95941 0.0
H3116 H 0.30053 0.97763 0.96705 0.0
H3117 H 0.34607 0.91471 0.04835 0.0
H3118 H 0.3604 0.92159 0.02393 0.0
H3119 H 0.36029 0.9448 0.04871 0.0
H3120 H 0.39365 0.95687 0.97124 0.0
H3121 H 0.39541 0.01108 0.03332 0.0
H3122 H 0.33817 0.93402 0.95643 0.0
H3123 H 0.35011 0.91674 0.97681 0.0
H3124 H 0.3632 0.92732 0.95268 0.0
H3125 H 0.33973 0.99893 0.0315 0.0
H3126 H 0.36533 0.01361 0.05073 0.0
H3127 H 0.35239 0.98401 0.05394 0.0
C3128 C 0.88458 0.63607 0.76895 0.0
C3129 C 0.88285 0.6172 0.78314 0.0
C3130 C 0.87345 0.6548 0.77142 0.0
C3131 C 0.85954 0.65581 0.78868 0.0
C3132 C 0.85761 0.63692 0.80322 0.0
C3133 C 0.86901 0.61817 0.80033 0.0
C3134 C 0.87656 0.67368 0.75508 0.0
C3135 C 0.84346 0.63657 0.82218 0.0
C3136 C 0.84588 0.71825 0.80808 0.0
C3137 C 0.82553 0.7165 0.79339 0.0
C3138 C 0.85655 0.69888 0.80735 0.0
C3139 C 0.84734 0.67647 0.79115 0.0
C3140 C 0.82683 0.67464 0.77625 0.0
C3141 C 0.81633 0.69412 0.77772 0.0
C3142 C 0.87781 0.70237 0.82441 0.0
C3143 C 0.81588 0.65192 0.75829 0.0
H3144 H 0.89489 0.63633 0.75546 0.0
H3145 H 0.86711 0.60431 0.81174 0.0
H3146 H 0.8614 0.67249 0.74202 0.0
H3147 H 0.88109 0.69172 0.76673 0.0
H3148 H 0.88894 0.67183 0.74389 0.0
H3149 H 0.84341 0.62116 0.83221 0.0
H3150 H 0.84881 0.6533 0.83614 0.0
H3151 H 0.82698 0.63581 0.81273 0.0
H3152 H 0.85352 0.73485 0.82064 0.0
H3153 H 0.80076 0.6918 0.76613 0.0
H3154 H 0.88966 0.6981 0.81341 0.0
H3155 H 0.87656 0.68988 0.83803 0.0
H3156 H 0.88369 0.72084 0.83497 0.0
H3157 H 0.8257 0.64842 0.74421 0.0
H3158 H 0.79993 0.65265 0.74828 0.0
H3159 H 0.81417 0.63663 0.76856 0.0
C3160 C 0.8446 0.64122 0.04368 0.0
C3161 C 0.82366 0.62853 0.0333 0.0
C3162 C 0.86165 0.62985 0.04561 0.0
C3163 C 0.85789 0.60503 0.03688 0.0
C3164 C 0.83682 0.59207 0.02621 0.0
C3165 C 0.81998 0.60392 0.02459 0.0
C3166 C 0.88373 0.64446 0.05722 0.0
C3167 C 0.83206 0.56563 0.01657 0.0
C3168 C 0.90592 0.58108 0.02377 0.0
C3169 C 0.91208 0.57218 0.0458 0.0
C3170 C 0.88811 0.59128 0.02037 0.0
C3171 C 0.87604 0.59276 0.03944 0.0
C3172 C 0.88199 0.58356 0.06156 0.0
C3173 C 0.89981 0.5734 0.06443 0.0
C3174 C 0.88244 0.60087 0.99649 0.0
C3175 C 0.86967 0.58471 0.08241 0.0
H3176 H 0.84776 0.66021 0.05052 0.0
H3177 H 0.80394 0.59389 0.0165 0.0
H3178 H 0.89018 0.63751 0.07404 0.0
H3179 H 0.89446 0.64292 0.04377 0.0
H3180 H 0.88409 0.66363 0.06286 0.0
H3181 H 0.81497 0.55814 0.00837 0.0
H3182 H 0.84145 0.56199 1.00206 0.0
H3183 H 0.83684 0.55613 0.03208 0.0
H3184 H 0.91528 0.58051 0.00929 0.0
H3185 H 0.90402 0.56619 0.08132 0.0
H3186 H 0.88408 0.62042 1.00091 0.0
H3187 H 0.86564 0.59279 0.98742 0.0
H3188 H 0.89267 0.59727 0.98291 0.0
H3189 H 0.87036 0.6036 0.08991 0.0
H3190 H 0.8759 0.57614 0.0981 0.0
H3191 H 0.85273 0.57582 0.07508 0.0
C3192 C 0.19788 0.13465 0.83625 0.0
C3193 C 0.20106 0.11321 0.82416 0.0
C3194 C 0.21188 0.15661 0.83663 0.0
C3195 C 0.22953 0.15712 0.82479 0.0
C3196 C 0.23305 0.13548 0.81308 0.0
C3197 C 0.21878 0.11387 0.81286 0.0
C3198 C 0.20754 0.17931 0.84921 0.0
C3199 C 0.2517 0.13518 0.80032 0.0
C3200 C 0.25455 0.21236 0.80066 0.0
C3201 C 0.27312 0.22168 0.81887 0.0
C3202 C 0.23985 0.1919 0.80286 0.0
C3203 C 0.24394 0.18024 0.82366 0.0
C3204 C 0.26252 0.18983 0.84235 0.0
C3205 C 0.2769 0.21046 0.83973 0.0
C3206 C 0.22025 0.18235 0.78252 0.0
C3207 C 0.26749 0.17793 0.86477 0.0
H3208 H 0.18423 0.13434 0.845 0.0
H3209 H 0.22147 0.09743 0.80358 0.0
H3210 H 0.22166 0.1894 0.86343 0.0
H3211 H 0.20443 0.19088 0.83512 0.0
H3212 H 0.19371 0.17583 0.8585 0.0
H3213 H 0.25267 0.11679 0.79293 0.0
H3214 H 0.25042 0.14524 0.7845 0.0
H3215 H 0.26671 0.14413 0.81366 0.0
H3216 H 0.25173 0.22073 0.78428 0.0
H3217 H 0.29124 0.21764 0.85386 0.0
H3218 H 0.20585 0.17968 0.79084 0.0
H3219 H 0.2209 0.16472 0.77253 0.0
H3220 H 0.21862 0.19446 0.7686 0.0
H3221 H 0.25389 0.17535 0.87449 0.0
H3222 H 0.28186 0.18842 0.87841 0.0
H3223 H 0.27007 0.16 0.85845 0.0
C3224 C 0.38006 0.95788 0.28282 0.0
C3225 C 0.36851 0.97539 0.2877 0.0
C3226 C 0.37164 0.93315 0.28303 0.0
C3227 C 0.35087 0.92507 0.28783 0.0
C3228 C 0.33901 0.94264 0.29202 0.0
C3229 C 0.34791 0.96714 0.29214 0.0
C3230 C 0.38529 0.91567 0.27878 0.0
C3231 C 0.31681 0.93559 0.29681 0.0
C3232 C 0.32055 0.85787 0.27049 0.0
C3233 C 0.32245 0.84991 0.29382 0.0
C3234 C 0.3298 0.8818 0.26817 0.0
C3235 C 0.34176 0.89872 0.28955 0.0
C3236 C 0.34406 0.89057 0.31302 0.0
C3237 C 0.3344 0.86673 0.31486 0.0
C3238 C 0.32637 0.88912 0.24272 0.0
C3239 C 0.35667 0.90723 0.3365 0.0
H3240 H 0.396 0.96358 0.27959 0.0
H3241 H 0.33853 0.98005 0.29591 0.0
H3242 H 0.38848 0.9075 0.29579 0.0
H3243 H 0.37682 0.90101 0.26311 0.0
H3244 H 0.40068 0.92423 0.27442 0.0
H3245 H 0.30903 0.95085 0.29818 0.0
H3246 H 0.30693 0.9213 0.28153 0.0
H3247 H 0.31725 0.92832 0.31455 0.0
H3248 H 0.31143 0.84548 0.25394 0.0
H3249 H 0.3363 0.86123 0.33307 0.0
H3250 H 0.34186 0.89654 0.23792 0.0
H3251 H 0.31746 0.90342 0.24308 0.0
H3252 H 0.31744 0.874 0.22773 0.0
H3253 H 0.37278 0.91515 0.33367 0.0
H3254 H 0.35822 0.89809 0.35304 0.0
H3255 H 0.34888 0.92212 0.34064 0.0
C3256 C 0.58318 0.36193 0.59878 0.0
C3257 C 0.57569 0.35508 0.61993 0.0
C3258 C 0.57986 0.38286 0.58984 0.0
C3259 C 0.56882 0.39781 0.60235 0.0
C3260 C 0.56093 0.39083 0.62353 0.0
C3261 C 0.56447 0.36971 0.63204 0.0
C3262 C 0.58806 0.38817 0.56659 0.0
C3263 C 0.54855 0.40562 0.63715 0.0
C3264 C 0.57703 0.46384 0.59458 0.0
C3265 C 0.55929 0.4637 0.57615 0.0
C3266 C 0.58023 0.44268 0.6033 0.0
C3267 C 0.56546 0.42062 0.59343 0.0
C3268 C 0.54769 0.42033 0.57467 0.0
C3269 C 0.5448 0.4417 0.56639 0.0
C3270 C 0.59956 0.44379 0.623 0.0
C3271 C 0.53172 0.39732 0.56318 0.0
H3272 H 0.59169 0.35084 0.58893 0.0
H3273 H 0.55843 0.3647 0.64827 0.0
H3274 H 0.57945 0.37392 0.55055 0.0
H3275 H 0.58623 0.40556 0.56152 0.0
H3276 H 0.60508 0.38766 0.56915 0.0
H3277 H 0.54312 0.39767 0.65296 0.0
H3278 H 0.55848 0.42383 0.6446 0.0
H3279 H 0.53448 0.40746 0.62389 0.0
H3280 H 0.5883 0.48057 0.60247 0.0
H3281 H 0.53104 0.44109 0.55213 0.0
H3282 H 0.61001 0.43344 0.61486 0.0
H3283 H 0.59489 0.43551 0.63894 0.0
H3284 H 0.60873 0.46231 0.63038 0.0
H3285 H 0.53964 0.38481 0.55339 0.0
H3286 H 0.51828 0.40005 0.54953 0.0
H3287 H 0.52534 0.3887 0.57809 0.0
C3288 C 0.42582 0.75575 0.4185 0.0
C3289 C 0.44427 0.75715 0.40835 0.0
C3290 C 0.40643 0.7575 0.40418 0.0
C3291 C 0.40521 0.761 0.37894 0.0
C3292 C 0.42378 0.76255 0.36856 0.0
C3293 C 0.44298 0.76049 0.38328 0.0
C3294 C 0.38714 0.75538 0.41607 0.0
C3295 C 0.42336 0.76643 0.34184 0.0
C3296 C 0.35097 0.74202 0.33434 0.0
C3297 C 0.34469 0.76367 0.3336 0.0
C3298 C 0.37043 0.74095 0.34898 0.0
C3299 C 0.38434 0.76209 0.36323 0.0
C3300 C 0.37802 0.78405 0.36271 0.0
C3301 C 0.35825 0.78456 0.34808 0.0
C3302 C 0.37613 0.71707 0.34915 0.0
C3303 C 0.39228 0.80707 0.37741 0.0
H3304 H 0.42647 0.75315 0.43779 0.0
H3305 H 0.45706 0.76177 0.3752 0.0
H3306 H 0.38078 0.7716 0.41529 0.0
H3307 H 0.37446 0.74001 0.40544 0.0
H3308 H 0.39068 0.75291 0.43595 0.0
H3309 H 0.43919 0.76803 0.33672 0.0
H3310 H 0.41197 0.75135 0.3288 0.0
H3311 H 0.4178 0.78286 0.33904 0.0
H3312 H 0.3406 0.72576 0.3233 0.0
H3313 H 0.35362 0.80139 0.34756 0.0
H3314 H 0.37894 0.71338 0.36862 0.0
H3315 H 0.39107 0.71734 0.34217 0.0
H3316 H 0.36352 0.70222 0.33736 0.0
H3317 H 0.39545 0.80595 0.39767 0.0
H3318 H 0.38528 0.82267 0.37491 0.0
H3319 H 0.40779 0.81009 0.37141 0.0
C3320 C 0.06122 0.72005 0.08519 0.0
C3321 C 0.06359 0.72917 0.11079 0.0
C3322 C 0.05871 0.69545 0.07662 0.0
C3323 C 0.05873 0.6794 0.094 0.0
C3324 C 0.06113 0.6885 0.11986 0.0
C3325 C 0.06342 0.71314 0.12788 0.0
C3326 C 0.056 0.68663 0.04889 0.0
C3327 C 0.0614 0.6722 0.13913 0.0
C3328 C 0.03353 0.61284 0.07177 0.0
C3329 C 0.05125 0.60309 0.06997 0.0
C3330 C 0.0357 0.63753 0.07916 0.0
C3331 C 0.05614 0.65311 0.0852 0.0
C3332 C 0.07409 0.64344 0.08322 0.0
C3333 C 0.07144 0.61867 0.07556 0.0
C3334 C 0.01607 0.64692 0.08071 0.0
C3335 C 0.09618 0.65925 0.08961 0.0
H3336 H 0.06128 0.73214 0.07174 0.0
H3337 H 0.06532 0.71986 0.1477 0.0
H3338 H 0.06892 0.67775 0.04538 0.0
H3339 H 0.0408 0.67313 0.04209 0.0
H3340 H 0.0561 0.70126 0.03773 0.0
H3341 H 0.06361 0.682 0.15852 0.0
H3342 H 0.04631 0.65842 0.13499 0.0
H3343 H 0.0744 0.66275 0.13823 0.0
H3344 H 0.01782 0.60114 0.06745 0.0
H3345 H 0.08529 0.61148 0.07439 0.0
H3346 H 0.01523 0.66083 0.06876 0.0
H3347 H 0.01683 0.65542 0.10026 0.0
H3348 H 1.00128 0.63266 0.07468 0.0
H3349 H 0.09733 0.67341 0.07784 0.0
H3350 H 0.10849 0.64913 0.08681 0.0
H3351 H 0.09968 0.66824 0.10946 0.0
C3352 C 0.06932 0.26678 0.88799 0.0
C3353 C 0.07028 0.25802 0.91074 0.0
C3354 C 0.08666 0.2691 0.87555 0.0
C3355 C 0.10541 0.26233 0.88591 0.0
C3356 C 0.10632 0.25324 0.9087 0.0
C3357 C 0.08889 0.25129 0.92079 0.0
C3358 C 0.08496 0.27895 0.85137 0.0
C3359 C 0.1258 0.24558 0.92042 0.0
C3360 C 0.14381 0.2474 0.84409 0.0
C3361 C 0.16019 0.26824 0.84984 0.0
C3362 C 0.12587 0.24539 0.85535 0.0
C3363 C 0.12409 0.26461 0.87303 0.0
C3364 C 0.14057 0.28565 0.87903 0.0
C3365 C 0.15833 0.28721 0.86743 0.0
C3366 C 0.10886 0.22254 0.84845 0.0
C3367 C 0.13944 0.30658 0.89776 0.0
H3368 H 0.05512 0.27212 0.88004 0.0
H3369 H 0.0899 0.2444 0.93827 0.0
H3370 H 0.09771 0.29527 0.85341 0.0
H3371 H 0.08722 0.26578 0.83609 0.0
H3372 H 0.06939 0.28343 0.84571 0.0
H3373 H 0.12397 0.23864 0.93806 0.0
H3374 H 0.1292 0.23147 0.90707 0.0
H3375 H 0.13978 0.26087 0.9246 0.0
H3376 H 0.14508 0.23243 0.8309 0.0
H3377 H 0.17062 0.30353 0.87185 0.0
H3378 H 0.09329 0.22641 0.84138 0.0
H3379 H 0.10738 0.21421 0.86533 0.0
H3380 H 0.11226 0.20949 0.83389 0.0
H3381 H 0.12476 0.3127 0.89167 0.0
H3382 H 0.15331 0.32182 0.90014 0.0
H3383 H 0.13868 0.30109 0.91627 0.0
C3384 C 0.53102 0.73902 0.91779 0.0
C3385 C 0.51145 0.74525 0.91207 0.0
C3386 C 0.53325 0.72068 0.93152 0.0
C3387 C 0.51548 0.70832 0.93973 0.0
C3388 C 0.49546 0.71378 0.93308 0.0
C3389 C 0.49368 0.73221 0.91929 0.0
C3390 C 0.55484 0.71529 0.9382 0.0
C3391 C 0.47616 0.70085 0.94144 0.0
C3392 C 0.51993 0.65123 0.96461 0.0
C3393 C 0.52578 0.65958 0.99053 0.0
C3394 C 0.51614 0.66679 0.94776 0.0
C3395 C 0.51832 0.69122 0.95713 0.0
C3396 C 0.52392 0.69966 0.98329 0.0
C3397 C 0.52753 0.68372 0.99967 0.0
C3398 C 0.51018 0.6572 0.91996 0.0
C3399 C 0.52638 0.72561 0.99398 0.0
H3400 H 0.5448 0.74887 0.91209 0.0
H3401 H 0.47847 0.73683 0.91481 0.0
H3402 H 0.56081 0.72029 0.95876 0.0
H3403 H 0.55376 0.69591 0.93313 0.0
H3404 H 0.5666 0.72513 0.92861 0.0
H3405 H 0.46141 0.70566 0.93276 0.0
H3406 H 0.47416 0.68127 0.93663 0.0
H3407 H 0.47829 0.70533 0.96213 0.0
H3408 H 0.51875 0.63262 0.95746 0.0
H3409 H 0.53168 0.69015 0.01971 0.0
H3410 H 0.52271 0.66559 0.9105 0.0
H3411 H 0.49525 0.66184 0.9117 0.0
H3412 H 0.50805 0.63753 0.91583 0.0
H3413 H 0.53908 0.73685 0.98684 0.0
H3414 H 0.5304 0.72916 0.01482 0.0
H3415 H 0.51147 0.73126 0.98781 0.0
C3416 C 0.12692 0.77071 0.7458 0.0
C3417 C 0.11642 0.74849 0.7501 0.0
C3418 C 0.14905 0.77691 0.74901 0.0
C3419 C 0.16099 0.7607 0.75717 0.0
C3420 C 0.1506 0.73875 0.76276 0.0
C3421 C 0.12837 0.73278 0.75892 0.0
C3422 C 0.1596 0.80046 0.74281 0.0
C3423 C 0.16294 0.72132 0.77214 0.0
C3424 C 0.21497 0.76383 0.74009 0.0
C3425 C 0.22852 0.7765 0.76232 0.0
C3426 C 0.19289 0.75883 0.73807 0.0
C3427 C 0.18429 0.76637 0.75893 0.0
C3428 C 0.1979 0.77938 0.78134 0.0
C3429 C 0.21987 0.78435 0.78274 0.0
C3430 C 0.17878 0.74533 0.71369 0.0
C3431 C 0.18935 0.78745 0.80409 0.0
H3432 H 0.11783 0.78297 0.73898 0.0
H3433 H 0.12034 0.71566 0.7624 0.0
H3434 H 0.17168 0.81093 0.75919 0.0
H3435 H 0.16796 0.79724 0.72716 0.0
H3436 H 0.14806 0.81134 0.73731 0.0
H3437 H 0.1526 0.70577 0.7772 0.0
H3438 H 0.1711 0.71471 0.75745 0.0
H3439 H 0.17537 0.73034 0.78883 0.0
H3440 H 0.22162 0.75774 0.7243 0.0
H3441 H 0.23028 0.79378 0.80017 0.0
H3442 H 0.16742 0.75582 0.70657 0.0
H3443 H 0.16932 0.72826 0.71685 0.0
H3444 H 0.18796 0.74137 0.69903 0.0
H3445 H 0.17618 0.79627 0.79887 0.0
H3446 H 0.20178 0.80001 0.81878 0.0
H3447 H 0.18289 0.77168 0.81222 0.0
C3448 C 0.01172 0.35728 0.46047 0.0
C3449 C 0.02781 0.35706 0.44657 0.0
C3450 C 0.01309 0.37647 0.47947 0.0
C3451 C 0.03106 0.39577 0.48485 0.0
C3452 C 0.04777 0.39521 0.47162 0.0
C3453 C 0.04589 0.37588 0.45252 0.0
C3454 C 0.99485 0.3766 0.49298 0.0
C3455 C 0.0673 0.41541 0.47703 0.0
C3456 C 0.02648 0.45787 0.50976 0.0
C3457 C 0.03609 0.46072 0.53508 0.0
C3458 C 0.02397 0.43643 0.49347 0.0
C3459 C 0.03159 0.4175 0.50267 0.0
C3460 C 0.04055 0.4199 0.52846 0.0
C3461 C 0.04256 0.44152 0.54448 0.0
C3462 C 0.01402 0.43446 0.46616 0.0
C3463 C 0.04902 0.40014 0.53884 0.0
H3464 H 0.99769 0.34278 0.45602 0.0
H3465 H 0.05845 0.37572 0.44198 0.0
H3466 H 1.00073 0.38036 0.51358 0.0
H3467 H 0.98698 0.39101 0.48806 0.0
H3468 H 0.98283 0.35939 0.48804 0.0
H3469 H 0.07965 0.41126 0.46671 0.0
H3470 H 0.06291 0.43174 0.47155 0.0
H3471 H 0.07419 0.41952 0.49742 0.0
H3472 H 0.02163 0.47275 0.5024 0.0
H3473 H 0.05015 0.44377 0.56403 0.0
H3474 H 1.0012 0.41801 0.45998 0.0
H3475 H 0.02612 0.43321 0.45446 0.0
H3476 H 1.00729 0.45003 0.46253 0.0
H3477 H 0.03689 0.38306 0.53339 0.0
H3478 H 0.05389 0.40405 0.55962 0.0
H3479 H 0.06297 0.39758 0.53078 0.0
C3480 C 0.50515 0.24901 0.27672 0.0
C3481 C 0.50061 0.22842 0.25844 0.0
C3482 C 0.4892 0.2558 0.28807 0.0
C3483 C 0.46827 0.24156 0.28105 0.0
C3484 C 0.46405 0.21955 0.26455 0.0
C3485 C 0.48031 0.21322 0.25337 0.0
C3486 C 0.49439 0.27933 0.30574 0.0
C3487 C 0.44199 0.20368 0.25696 0.0
C3488 C 0.42698 0.25922 0.31606 0.0
C3489 C 0.41786 0.2729 0.30003 0.0
C3490 C 0.44313 0.24835 0.30995 0.0
C3491 C 0.45045 0.25164 0.28752 0.0
C3492 C 0.44123 0.26544 0.27131 0.0
C3493 C 0.425 0.27582 0.27773 0.0
C3494 C 0.4524 0.23348 0.32746 0.0
C3495 C 0.44869 0.26952 0.24728 0.0
H3496 H 0.52088 0.26068 0.28107 0.0
H3497 H 0.47672 0.19711 0.23951 0.0
H3498 H 0.48776 0.29258 0.29603 0.0
H3499 H 0.48707 0.2775 0.32241 0.0
H3500 H 0.51177 0.28644 0.31215 0.0
H3501 H 0.44211 0.18544 0.24799 0.0
H3502 H 0.43428 0.20236 0.2734 0.0
H3503 H 0.43212 0.2115 0.24335 0.0
H3504 H 0.42127 0.25677 0.33319 0.0
H3505 H 0.41808 0.28659 0.26545 0.0
H3506 H 0.46949 0.24162 0.33483 0.0
H3507 H 0.45123 0.21537 0.31715 0.0
H3508 H 0.44426 0.23179 0.34356 0.0
H3509 H 0.46574 0.2787 0.25156 0.0
H3510 H 0.43964 0.28047 0.23663 0.0
H3511 H 0.44703 0.25218 0.23507 0.0
C3512 C 0.58993 0.5502 0.38887 0.0
C3513 C 0.61082 0.54983 0.38653 0.0
C3514 C 0.58272 0.54597 0.411 0.0
C3515 C 0.59671 0.54128 0.43139 0.0
C3516 C 0.61792 0.54133 0.42933 0.0
C3517 C 0.6247 0.54558 0.40698 0.0
C3518 C 0.55998 0.54611 0.4124 0.0
C3519 C 0.63337 0.5365 0.45062 0.0
C3520 C 0.58101 0.5484 0.49538 0.0
C3521 C 0.57112 0.52487 0.49647 0.0
C3522 C 0.58984 0.55397 0.4746 0.0
C3523 C 0.58889 0.53555 0.45449 0.0
C3524 C 0.57969 0.51164 0.45602 0.0
C3525 C 0.57092 0.5066 0.47697 0.0
C3526 C 0.59952 0.57968 0.4738 0.0
C3527 C 0.57845 0.49143 0.43512 0.0
H3528 H 0.57905 0.55347 0.37326 0.0
H3529 H 0.64089 0.5453 0.40546 0.0
H3530 H 0.55156 0.52827 0.41494 0.0
H3531 H 0.55944 0.55908 0.42888 0.0
H3532 H 0.55129 0.55079 0.39527 0.0
H3533 H 0.64954 0.53808 0.44646 0.0
H3534 H 0.63439 0.54915 0.468 0.0
H3535 H 0.62766 0.51826 0.45444 0.0
H3536 H 0.58121 0.56263 0.51038 0.0
H3537 H 0.56334 0.48838 0.47772 0.0
H3538 H 0.5902 0.58561 0.45802 0.0
H3539 H 0.61591 0.58153 0.47038 0.0
H3540 H 0.59998 0.59174 0.49145 0.0
H3541 H 0.5683 0.49378 0.41775 0.0
H3542 H 0.57181 0.47373 0.43973 0.0
H3543 H 0.59444 0.49157 0.43101 0.0
C3544 C 0.2305 0.84756 0.05752 0.0
C3545 C 0.22634 0.83275 0.03411 0.0
C3546 C 0.23667 0.83903 0.07964 0.0
C3547 C 0.23911 0.8153 0.07816 0.0
C3548 C 0.2342 0.80001 0.05464 0.0
C3549 C 0.22765 0.8089 0.03283 0.0
C3550 C 0.24134 0.85567 0.10447 0.0
C3551 C 0.23686 0.77467 0.0524 0.0
C3552 C 0.27909 0.80326 0.1302 0.0
C3553 C 0.26582 0.79143 0.14431 0.0
C3554 C 0.27054 0.81095 0.10843 0.0
C3555 C 0.24823 0.80703 0.10103 0.0
C3556 C 0.23477 0.79541 0.11552 0.0
C3557 C 0.24376 0.78757 0.13697 0.0
C3558 C 0.28535 0.82303 0.09322 0.0
C3559 C 0.21094 0.79143 0.10847 0.0
H3560 H 0.22927 0.86597 0.05851 0.0
H3561 H 0.22452 0.79748 0.0147 0.0
H3562 H 0.23288 0.84709 0.11801 0.0
H3563 H 0.25857 0.85968 0.11256 0.0
H3564 H 0.23665 0.87277 0.10257 0.0
H3565 H 0.23115 0.7647 0.03293 0.0
H3566 H 0.25387 0.77473 0.05833 0.0
H3567 H 0.22811 0.765 0.06504 0.0
H3568 H 0.29615 0.80603 0.13594 0.0
H3569 H 0.23359 0.77858 0.14818 0.0
H3570 H 0.28311 0.84131 0.09217 0.0
H3571 H 0.28162 0.81307 0.07374 0.0
H3572 H 0.30228 0.82424 0.10131 0.0
H3573 H 0.20647 0.80886 0.1088 0.0
H3574 H 0.20274 0.78149 0.12138 0.0
H3575 H 0.20511 0.78137 0.08909 0.0
C3576 C 0.94743 0.51943 0.87593 0.0
C3577 C 0.94872 0.54002 0.86459 0.0
C3578 C 0.96095 0.51882 0.89885 0.0
C3579 C 0.97625 0.53954 0.91202 0.0
C3580 C 0.97763 0.56054 0.90081 0.0
C3581 C 0.9642 0.56047 0.87732 0.0
C3582 C 0.95889 0.49567 0.90891 0.0
C3583 C 0.99309 0.58336 0.91397 0.0
C3584 C 0.99922 0.53971 0.98287 0.0
C3585 C 0.0193 0.53481 0.98228 0.0
C3586 C 0.98543 0.54201 0.9606 0.0
C3587 C 0.99128 0.53868 0.93662 0.0
C3588 C 0.0114 0.53334 0.93609 0.0
C3589 C 0.02504 0.53187 0.95858 0.0
C3590 C 0.96451 0.5481 0.96283 0.0
C3591 C 0.01853 0.52873 0.9115 0.0
H3592 H 0.93572 0.50337 0.86664 0.0
H3593 H 0.9654 0.57668 0.86936 0.0
H3594 H 0.97439 0.49054 0.91154 0.0
H3595 H 0.95439 0.49793 0.92752 0.0
H3596 H 0.94683 0.48086 0.89624 0.0
H3597 H 0.99172 0.59848 0.90382 0.0
H3598 H 0.99032 0.58803 0.93323 0.0
H3599 H 0.00955 0.58092 0.91582 0.0
H3600 H 0.99444 0.54226 1.00081 0.0
H3601 H 0.04037 0.52804 0.95751 0.0
H3602 H 0.95142 0.53219 0.95494 0.0
H3603 H 0.96187 0.56239 0.95193 0.0
H3604 H 0.96365 0.55402 0.98265 0.0
H3605 H 1.00686 0.51369 0.89871 0.0
H3606 H 0.03437 0.52438 0.91394 0.0
H3607 H 0.01923 0.54461 0.90219 0.0
C3608 C 0.27798 0.19138 0.61334 0.0
C3609 C 0.27569 0.20518 0.5943 0.0
C3610 C 0.28025 0.20133 0.63873 0.0
C3611 C 0.28032 0.22574 0.6454 0.0
C3612 C 0.27828 0.23984 0.62632 0.0
C3613 C 0.27597 0.22941 0.60106 0.0
C3614 C 0.28236 0.18561 0.65842 0.0
C3615 C 0.27835 0.26594 0.63257 0.0
C3616 C 0.26586 0.24554 0.70816 0.0
C3617 C 0.28587 0.25531 0.72369 0.0
C3618 C 0.26384 0.23606 0.68268 0.0
C3619 C 0.28224 0.23638 0.6723 0.0
C3620 C 0.30247 0.24651 0.68777 0.0
C3621 C 0.30404 0.25579 0.7132 0.0
C3622 C 0.24197 0.22542 0.66691 0.0
C3623 C 0.3225 0.24734 0.6775 0.0
H3624 H 0.27777 0.17264 0.60842 0.0
H3625 H 0.27424 0.24028 0.58657 0.0
H3626 H 0.29731 0.19311 0.6724 0.0
H3627 H 0.2691 0.18507 0.66864 0.0
H3628 H 0.28231 0.16707 0.65024 0.0
H3629 H 0.27707 0.27461 0.61567 0.0
H3630 H 0.2649 0.268 0.64185 0.0
H3631 H 0.29315 0.27551 0.64598 0.0
H3632 H 0.2517 0.24501 0.71596 0.0
H3633 H 0.3196 0.26335 0.7249 0.0
H3634 H 0.24049 0.2063 0.65962 0.0
H3635 H 0.23944 0.23449 0.65046 0.0
H3636 H 0.22922 0.22689 0.67763 0.0
H3637 H 0.32374 0.22896 0.67062 0.0
H3638 H 0.33698 0.25632 0.69178 0.0
H3639 H 0.32198 0.25691 0.66127 0.0
C3640 C 0.61756 0.54223 0.24246 0.0
C3641 C 0.60462 0.53336 0.25865 0.0
C3642 C 0.60942 0.54039 0.21675 0.0
C3643 C 0.58765 0.52998 0.20698 0.0
C3644 C 0.57444 0.52119 0.22328 0.0
C3645 C 0.58315 0.52269 0.24885 0.0
C3646 C 0.62418 0.5495 0.2 0.0
C3647 C 0.55105 0.51052 0.21376 0.0
C3648 C 0.56497 0.54875 0.14622 0.0
C3649 C 0.56418 0.5289 0.12823 0.0
C3650 C 0.5719 0.54898 0.17191 0.0
C3651 C 0.57869 0.52908 0.17988 0.0
C3652 C 0.57776 0.50886 0.16183 0.0
C3653 C 0.57029 0.50891 0.13625 0.0
C3654 C 0.57211 0.57065 0.19052 0.0
C3655 C 0.5852 0.48744 0.16945 0.0
H3656 H 0.63423 0.55021 0.24982 0.0
H3657 H 0.57308 0.51583 0.26127 0.0
H3658 H 0.62351 0.53514 0.18422 0.0
H3659 H 0.61907 0.56434 0.19174 0.0
H3660 H 0.64089 0.556 0.21025 0.0
H3661 H 0.54292 0.50456 0.22882 0.0
H3662 H 0.54336 0.52385 0.20558 0.0
H3663 H 0.54869 0.49504 0.1986 0.0
H3664 H 0.56 0.56415 0.14023 0.0
H3665 H 0.56972 0.4935 0.12247 0.0
H3666 H 0.58866 0.57938 0.20005 0.0
H3667 H 0.56328 0.56526 0.20521 0.0
H3668 H 0.56495 0.58393 0.18147 0.0
H3669 H 0.60237 0.49274 0.17796 0.0
H3670 H 0.58261 0.47277 0.15329 0.0
H3671 H 0.57677 0.48058 0.18386 0.0
C3672 C 0.24049 0.8355 0.90742 0.0
C3673 C 0.24238 0.82897 0.93119 0.0
C3674 C 0.24582 0.8217 0.88758 0.0
C3675 C 0.25261 0.80063 0.89161 0.0
C3676 C 0.25304 0.79311 0.91514 0.0
C3677 C 0.24824 0.80762 0.93483 0.0
C3678 C 0.24575 0.83068 0.86297 0.0
C3679 C 0.25958 0.77039 0.91988 0.0
C3680 C 0.256 0.76025 0.83306 0.0
C3681 C 0.27754 0.76761 0.83239 0.0
C3682 C 0.24768 0.77024 0.85275 0.0
C3683 C 0.26131 0.78789 0.87206 0.0
C3684 C 0.28329 0.7944 0.87205 0.0
C3685 C 0.29119 0.78389 0.85231 0.0
C3686 C 0.22425 0.76256 0.85247 0.0
C3687 C 0.29827 0.81349 0.89206 0.0
H3688 H 0.2361 0.85214 0.90473 0.0
H3689 H 0.24947 0.80251 0.95324 0.0
H3690 H 0.26237 0.83768 0.86128 0.0
H3691 H 0.23846 0.81605 0.84688 0.0
H3692 H 0.23715 0.84522 0.86159 0.0
H3693 H 0.25635 0.76549 0.938 0.0
H3694 H 0.25109 0.75543 0.90453 0.0
H3695 H 0.27681 0.77262 0.92024 0.0
H3696 H 0.24546 0.74755 0.81761 0.0
H3697 H 0.30787 0.7894 0.85172 0.0
H3698 H 0.21704 0.77824 0.85333 0.0
H3699 H 0.22191 0.75445 0.86931 0.0
H3700 H 0.21565 0.74944 0.83546 0.0
H3701 H 0.29365 0.83076 0.89129 0.0
H3702 H 0.31502 0.81581 0.88977 0.0
H3703 H 0.29724 0.80909 0.91094 0.0
C3704 C 0.95624 0.55451 0.71013 0.0
C3705 C 0.94828 0.53324 0.71883 0.0
C3706 C 0.96775 0.55483 0.68989 0.0
C3707 C 0.97187 0.53346 0.67746 0.0
C3708 C 0.96392 0.51211 0.68629 0.0
C3709 C 0.95249 0.51227 0.70629 0.0
C3710 C 0.97553 0.57823 0.68169 0.0
C3711 C 0.96755 0.48869 0.67456 0.0
C3712 C 0.98606 0.5268 0.61012 0.0
C3713 C 0.0083 0.52909 0.6148 0.0
C3714 C 0.97431 0.5287 0.62988 0.0
C3715 C 0.98457 0.53308 0.65572 0.0
C3716 C 1.00702 0.53558 0.66051 0.0
C3717 C 0.01837 0.53362 0.64042 0.0
C3718 C 0.95064 0.52581 0.62298 0.0
C3719 C 0.01923 0.54011 0.68715 0.0
H3720 H 0.95341 0.57101 0.71904 0.0
H3721 H 0.94681 0.49547 0.71219 0.0
H3722 H 0.99305 0.58212 0.68391 0.0
H3723 H 0.96885 0.57708 0.6615 0.0
H3724 H 0.97109 0.59328 0.69261 0.0
H3725 H 0.96049 0.47352 0.68321 0.0
H3726 H 0.96058 0.48492 0.65419 0.0
H3727 H 0.98481 0.48976 0.67653 0.0
H3728 H 0.97766 0.52343 0.59079 0.0
H3729 H 0.0354 0.53564 0.64496 0.0
H3730 H 0.94608 0.54164 0.63218 0.0
H3731 H 0.94246 0.51006 0.62992 0.0
H3732 H 0.94488 0.5235 0.60239 0.0
H3733 H 0.01623 0.55625 0.69781 0.0
H3734 H 0.03659 0.54257 0.68819 0.0
H3735 H 0.01369 0.5249 0.69656 0.0
C3736 C 0.27973 0.19938 0.45941 0.0
C3737 C 0.25908 0.19329 0.46408 0.0
C3738 C 0.28419 0.21227 0.44007 0.0
C3739 C 0.26767 0.21945 0.42495 0.0
C3740 C 0.24683 0.21347 0.42967 0.0
C3741 C 0.24281 0.20051 0.44905 0.0
C3742 C 0.30662 0.21814 0.43575 0.0
C3743 C 0.22872 0.22076 0.41419 0.0
C3744 C 0.28295 0.27112 0.38973 0.0
C3745 C 0.28187 0.25918 0.36543 0.0
C3746 C 0.27816 0.25848 0.40912 0.0
C3747 C 0.27217 0.23319 0.40424 0.0
C3748 C 0.27068 0.22108 0.37958 0.0
C3749 C 0.27549 0.23418 0.36053 0.0
C3750 C 0.27982 0.27222 0.43497 0.0
C3751 C 0.26437 0.19421 0.3734 0.0
H3752 H 0.29246 0.19393 0.47078 0.0
H3753 H 0.22679 0.19599 0.45238 0.0
H3754 H 0.30704 0.21035 0.41631 0.0
H3755 H 0.31239 0.23774 0.4378 0.0
H3756 H 0.3177 0.21132 0.44903 0.0
H3757 H 0.21346 0.2149 0.42026 0.0
H3758 H 0.23225 0.24044 0.41557 0.0
H3759 H 0.2268 0.21301 0.39413 0.0
H3760 H 0.28786 0.29041 0.39372 0.0
H3761 H 0.27467 0.22477 0.34185 0.0
H3762 H 0.29202 0.2673 0.44858 0.0
H3763 H 0.26453 0.2675 0.44123 0.0
H3764 H 0.2841 0.29182 0.4356 0.0
H3765 H 0.276 0.18654 0.38489 0.0
H3766 H 0.26352 0.18747 0.35327 0.0
H3767 H 0.24868 0.18762 0.37813 0.0
C3768 C 0.40894 0.66487 0.55371 0.0
C3769 C 0.38748 0.66288 0.54384 0.0
C3770 C 0.41975 0.64857 0.54377 0.0
C3771 C 0.40876 0.63018 0.52348 0.0
C3772 C 0.38798 0.63016 0.51149 0.0
C3773 C 0.37751 0.64647 0.52194 0.0
C3774 C 0.44207 0.64935 0.55679 0.0
C3775 C 0.37585 0.61121 0.48949 0.0
C3776 C 0.43912 0.58589 0.4995 0.0
C3777 C 0.43472 0.56837 0.51444 0.0
C3778 C 0.43026 0.60594 0.50151 0.0
C3779 C 0.41687 0.60837 0.51892 0.0
C3780 C 0.41155 0.59008 0.53302 0.0
C3781 C 0.42043 0.57024 0.53045 0.0
C3782 C 0.43578 0.62486 0.48576 0.0
C3783 C 0.39707 0.59181 0.55159 0.0
H3784 H 0.41674 0.67774 0.57048 0.0
H3785 H 0.36101 0.6453 0.51392 0.0
H3786 H 0.44177 0.63485 0.56814 0.0
H3787 H 0.45213 0.64638 0.54289 0.0
H3788 H 0.44949 0.66663 0.56944 0.0
H3789 H 0.36239 0.61692 0.47879 0.0
H3790 H 0.38633 0.60673 0.47659 0.0
H3791 H 0.36934 0.59473 0.49647 0.0
H3792 H 0.45026 0.58451 0.48716 0.0
H3793 H 0.41666 0.55643 0.54158 0.0
H3794 H 0.44523 0.64161 0.49803 0.0
H3795 H 0.42114 0.62892 0.47578 0.0
H3796 H 0.44505 0.61939 0.47174 0.0
H3797 H 0.4041 0.60769 0.56642 0.0
H3798 H 0.3943 0.5758 0.56072 0.0
H3799 H 0.38151 0.59405 0.54203 0.0
C3800 C 0.89245 0.95644 0.5817 0.0
C3801 C 0.88427 0.93397 0.56647 0.0
C3802 C 0.91223 0.97076 0.58016 0.0
C3803 C 0.92404 0.96266 0.5627 0.0
C3804 C 0.91581 0.94002 0.54731 0.0
C3805 C 0.89624 0.92599 0.54949 0.0
C3806 C 0.92047 0.99463 0.59716 0.0
C3807 C 0.92753 0.9307 0.52815 0.0
C3808 C 0.96388 1.00816 0.53943 0.0
C3809 C 0.98344 1.00599 0.55259 0.0
C3810 C 0.94455 0.99436 0.54267 0.0
C3811 C 0.94461 0.97806 0.55978 0.0
C3812 C 0.96436 0.97585 0.57322 0.0
C3813 C 0.98351 0.98969 0.56934 0.0
C3814 C 0.92403 0.99706 0.52754 0.0
C3815 C 0.96527 0.95889 0.59176 0.0
H3816 H 0.88347 0.9628 0.59494 0.0
H3817 H 0.89015 0.90875 0.53748 0.0
H3818 H 0.93653 0.99559 0.60808 0.0
H3819 H 0.92199 0.00909 0.58578 0.0
H3820 H 0.90993 0.99799 0.61044 0.0
H3821 H 0.91913 0.91265 0.51774 0.0
H3822 H 0.9295 0.94303 0.51445 0.0
H3823 H 0.94364 0.9299 0.53748 0.0
H3824 H 0.96368 0.02066 0.5264 0.0
H3825 H 0.99854 0.98794 0.57966 0.0
H3826 H 0.91367 1.00234 0.54025 0.0
H3827 H 0.91535 0.97971 0.51577 0.0
H3828 H 0.92663 0.01057 0.51512 0.0
H3829 H 0.95586 0.96297 0.60611 0.0
H3830 H 0.98177 0.95984 0.60139 0.0
H3831 H 0.95811 0.94033 0.58201 0.0
C3832 C 0.88691 0.05447 0.26135 0.0
C3833 C 0.90874 0.06198 0.27138 0.0
C3834 C 0.87389 0.07082 0.26037 0.0
C3835 C 0.88285 0.09529 0.26984 0.0
C3836 C 0.90489 0.10305 0.27983 0.0
C3837 C 0.91759 0.08631 0.28038 0.0
C3838 C 0.85048 0.06187 0.24942 0.0
C3839 C 0.91497 0.12898 0.29027 0.0
C3840 C 0.85115 0.13983 0.24949 0.0
C3841 C 0.8408 0.14331 0.26958 0.0
C3842 C 0.8651 0.12446 0.24941 0.0
C3843 C 0.86895 0.11255 0.27007 0.0
C3844 C 0.85889 0.11646 0.29064 0.0
C3845 C 0.84483 0.13169 0.29007 0.0
C3846 C 0.87534 0.12055 0.22701 0.0
C3847 C 0.8628 0.10436 0.31315 0.0
H3848 H 0.87994 0.03573 0.25421 0.0
H3849 H 0.93444 0.09227 0.28816 0.0
H3850 H 0.84114 0.06545 0.264 0.0
H3851 H 0.84575 0.07153 0.23404 0.0
H3852 H 0.84614 0.04244 0.24194 0.0
H3853 H 0.93241 0.13221 0.29681 0.0
H3854 H 0.91176 0.14014 0.27579 0.0
H3855 H 0.90789 0.13501 0.30627 0.0
H3856 H 0.84792 0.14871 0.23356 0.0
H3857 H 0.83706 0.13463 0.30577 0.0
H3858 H 0.87014 0.10155 0.21791 0.0
H3859 H 0.89284 0.12457 0.23309 0.0
H3860 H 0.87126 0.13179 0.21288 0.0
H3861 H 0.85734 0.08474 0.30736 0.0
H3862 H 0.85446 0.11012 0.32807 0.0
H3863 H 0.88004 0.10828 0.32116 0.0
C3864 C 0.77806 0.15334 0.12177 0.0
C3865 C 0.79477 0.14165 0.12473 0.0
C3866 C 0.75712 0.14113 0.12074 0.0
C3867 C 0.75282 0.1167 0.12295 0.0
C3868 C 0.76976 0.10518 0.12745 0.0
C3869 C 0.79056 0.11779 0.12824 0.0
C3870 C 0.73948 0.15409 0.11604 0.0
C3871 C 0.76582 0.07925 0.13032 0.0
C3872 C 0.69824 0.08996 0.13446 0.0
C3873 C 0.68726 0.07922 0.1101 0.0
C3874 C 0.71976 0.10167 0.13908 0.0
C3875 C 0.73049 0.1029 0.11882 0.0
C3876 C 0.71965 0.09172 0.09428 0.0
C3877 C 0.6982 0.07993 0.09024 0.0
C3878 C 0.73083 0.11325 0.16552 0.0
C3879 C 0.73057 0.09268 0.07217 0.0
H3880 H 0.78119 0.17184 0.11928 0.0
H3881 H 0.80342 0.10868 0.13077 0.0
H3882 H 0.72924 0.14634 0.09737 0.0
H3883 H 0.72934 0.15182 0.13022 0.0
H3884 H 0.74561 0.17347 0.11656 0.0
H3885 H 0.78081 0.0736 0.13618 0.0
H3886 H 0.75571 0.07585 0.14436 0.0
H3887 H 0.75718 0.06796 0.11221 0.0
H3888 H 0.68987 0.08984 0.14989 0.0
H3889 H 0.68993 0.07138 0.07145 0.0
H3890 H 0.73528 0.13288 0.16669 0.0
H3891 H 0.74571 0.10725 0.17075 0.0
H3892 H 0.72072 0.10913 0.17943 0.0
H3893 H 0.73593 0.11149 0.06984 0.0
H3894 H 0.72005 0.08258 0.0544 0.0
H3895 H 0.74488 0.08528 0.07557 0.0
C3896 C 0.21478 0.43422 0.30127 0.0
C3897 C 0.20172 0.43583 0.31927 0.0
C3898 C 0.22612 0.41542 0.29834 0.0
C3899 C 0.22518 0.39735 0.31393 0.0
C3900 C 0.21239 0.3993 0.33237 0.0
C3901 C 0.20099 0.41783 0.33454 0.0
C3902 C 0.23882 0.41458 0.27793 0.0
C3903 C 0.21056 0.38151 0.35005 0.0
C3904 C 0.23775 0.33407 0.29575 0.0
C3905 C 0.25893 0.33642 0.30839 0.0
C3906 C 0.22711 0.35346 0.2967 0.0
C3907 C 0.23718 0.37651 0.31121 0.0
C3908 C 0.25851 0.37891 0.32414 0.0
C3909 C 0.26897 0.3594 0.32234 0.0
C3910 C 0.20486 0.34922 0.28181 0.0
C3911 C 0.27034 0.40225 0.34051 0.0
H3912 H 0.2157 0.44727 0.28886 0.0
H3913 H 0.19125 0.41815 0.34863 0.0
H3914 H 0.25565 0.41561 0.28616 0.0
H3915 H 0.2328 0.39732 0.26487 0.0
H3916 H 0.23807 0.42934 0.26707 0.0
H3917 H 0.20131 0.386 0.36447 0.0
H3918 H 0.20269 0.36347 0.33933 0.0
H3919 H 0.22658 0.38068 0.35967 0.0
H3920 H 0.22938 0.31692 0.28465 0.0
H3921 H 0.28515 0.36216 0.33243 0.0
H3922 H 0.20426 0.36201 0.26851 0.0
H3923 H 0.19396 0.35249 0.29458 0.0
H3924 H 0.19905 0.33079 0.27107 0.0
H3925 H 0.27136 0.41679 0.32923 0.0
H3926 H 0.28665 0.40172 0.34951 0.0
H3927 H 0.26156 0.40676 0.3554 0.0
C3928 C 0.265 0.45178 0.07518 0.0
C3929 C 0.26137 0.42767 0.0779 0.0
C3930 C 0.24833 0.46388 0.07318 0.0
C3931 C 0.22747 0.45166 0.07398 0.0
C3932 C 0.2238 0.42742 0.077 0.0
C3933 C 0.24068 0.41579 0.07888 0.0
C3934 C 0.25299 0.48969 0.06995 0.0
C3935 C 0.20193 0.41363 0.07802 0.0
C3936 C 0.18617 0.48626 0.0897 0.0
C3937 C 0.17359 0.48503 0.06597 0.0
C3938 C 0.20386 0.47584 0.09256 0.0
C3939 C 0.20933 0.46393 0.07118 0.0
C3940 C 0.19685 0.46287 0.04717 0.0
C3941 C 0.1792 0.47333 0.04487 0.0
C3942 C 0.21652 0.47726 0.11854 0.0
C3943 C 0.20207 0.45052 0.02383 0.0
H3944 H 0.28085 0.46118 0.07438 0.0
H3945 H 0.23757 0.39721 0.08103 0.0
H3946 H 0.24352 0.49165 0.05193 0.0
H3947 H 0.24825 0.50071 0.08515 0.0
H3948 H 0.27005 0.49683 0.07015 0.0
H3949 H 0.20175 0.39506 0.08102 0.0
H3950 H 0.19588 0.42274 0.09341 0.0
H3951 H 0.19077 0.413 0.06025 0.0
H3952 H 0.18196 0.49503 0.10618 0.0
H3953 H 0.1699 0.47259 0.02639 0.0
H3954 H 0.23348 0.48546 0.11942 0.0
H3955 H 0.21565 0.45903 0.12296 0.0
H3956 H 0.21072 0.48781 0.13317 0.0
H3957 H 0.21862 0.45837 0.02247 0.0
H3958 H 0.19127 0.45189 0.00646 0.0
H3959 H 0.20093 0.43137 0.02485 0.0
C3960 C 0.87518 0.92828 0.26713 0.0
C3961 C 0.894 0.92416 0.26042 0.0
C3962 C 0.85914 0.90944 0.2701 0.0
C3963 C 0.86179 0.88576 0.26598 0.0
C3964 C 0.88044 0.88134 0.25841 0.0
C3965 C 0.89638 0.9006 0.25588 0.0
C3966 C 0.83963 0.91498 0.27846 0.0
C3967 C 0.88379 0.85634 0.25362 0.0
C3968 C 0.83104 0.84198 0.30002 0.0
C3969 C 0.8132 0.83062 0.28142 0.0
C3970 C 0.84714 0.85961 0.29509 0.0
C3971 C 0.84547 0.8659 0.27087 0.0
C3972 C 0.82765 0.85409 0.25184 0.0
C3973 C 0.8116 0.83672 0.25742 0.0
C3974 C 0.86572 0.87191 0.316 0.0
C3975 C 0.82548 0.85993 0.22566 0.0
H3976 H 0.87315 0.94638 0.27073 0.0
H3977 H 0.91082 0.89721 0.25062 0.0
H3978 H 0.82513 0.90473 0.26495 0.0
H3979 H 0.83861 0.90946 0.29692 0.0
H3980 H 0.8397 0.93426 0.28019 0.0
H3981 H 0.89794 0.8556 0.24518 0.0
H3982 H 0.88596 0.84942 0.27155 0.0
H3983 H 0.86966 0.84425 0.24096 0.0
H3984 H 0.83221 0.83737 0.31865 0.0
H3985 H 0.79788 0.82777 0.24296 0.0
H3986 H 0.86622 0.89126 0.31988 0.0
H3987 H 0.8808 0.87003 0.31031 0.0
H3988 H 0.86486 0.86458 0.33362 0.0
H3989 H 0.82419 0.87871 0.22614 0.0
H3990 H 0.81134 0.84817 0.21264 0.0
H3991 H 0.83984 0.85816 0.2181 0.0
C3992 C 0.69321 0.10405 0.81276 0.0
C3993 C 0.70217 0.08425 0.81626 0.0
C3994 C 0.70558 0.12711 0.81252 0.0
C3995 C 0.72802 0.13141 0.8158 0.0
C3996 C 0.73736 0.11167 0.8197 0.0
C3997 C 0.7245 0.08859 0.81993 0.0
C3998 C 0.69441 0.14695 0.80836 0.0
C3999 C 0.76107 0.11486 0.8233 0.0
C4000 C 0.75545 0.18589 0.78901 0.0
C4001 C 0.76285 0.2043 0.8101 0.0
C4002 C 0.74488 0.16235 0.79075 0.0
C4003 C 0.74122 0.15626 0.81421 0.0
C4004 C 0.74894 0.17464 0.83568 0.0
C4005 C 0.75952 0.19811 0.83341 0.0
C4006 C 0.73721 0.14397 0.76713 0.0
C4007 C 0.74564 0.16963 0.86118 0.0
H4008 H 0.67614 0.10157 0.80995 0.0
H4009 H 0.73196 0.07386 0.8226 0.0
H4010 H 0.70077 0.16223 0.824 0.0
H4011 H 0.69741 0.15346 0.79086 0.0
H4012 H 0.67699 0.1412 0.80689 0.0
H4013 H 0.7662 0.09839 0.8271 0.0
H4014 H 0.76647 0.11997 0.80624 0.0
H4015 H 0.76906 0.12957 0.83912 0.0
H4016 H 0.75773 0.18991 0.77079 0.0
H4017 H 0.765 0.21175 0.85002 0.0
H4018 H 0.71964 0.13845 0.76329 0.0
H4019 H 0.74334 0.12781 0.76959 0.0
H4020 H 0.74224 0.15079 0.75056 0.0
H4021 H 0.72842 0.16533 0.86134 0.0
H4022 H 0.7536 0.18503 0.87631 0.0
H4023 H 0.75179 0.15386 0.86537 0.0
loop_
_geom_bond_atom_site_label_1
_geom_bond_atom_site_label_2
_geom_bond_distance
_geom_bond_site_symmetry_2
_ccdc_geom_bond_type
C0 O1 1.160 . S
C0 O7 1.185 . S
O1 C0 1.160 . S
O2 Zn3 1.899 . S
O2 C10 1.284 . S
Zn3 O2 1.899 . S
Zn3 O4 2.032 . S
Zn3 O7 2.086 . S
Zn3 O12 1.977 1_455 S
O4 Zn3 2.032 . S
O4 C8 1.278 . S
C5 O6 1.203 . S
C5 O12 1.267 . S
O6 C5 1.203 . S
O7 C0 1.185 . S
O7 Zn3 2.086 . S
C8 O4 1.278 . S
C8 O9 1.211 1_455 S
O9 C8 1.211 1_655 S
C10 O2 1.284 . S
C10 O11 1.273 1_455 S
O11 C10 1.273 1_655 S
O12 Zn3 1.977 1_655 S
O12 C5 1.267 . S
C13 O14 1.160 . S
C13 O20 1.185 . S
O14 C13 1.160 . S
O15 Zn16 1.899 . S
O15 C23 1.284 . S
Zn16 O15 1.899 . S
Zn16 O17 2.032 . S
Zn16 O20 2.086 . S
Zn16 O25 1.977 . S
O17 Zn16 2.032 . S
O17 C21 1.278 . S
C18 O19 1.203 . S
C18 O25 1.267 . S
O19 C18 1.203 . S
O20 C13 1.185 . S
O20 Zn16 2.086 . S
C21 O17 1.278 . S
C21 O22 1.211 . S
O22 C21 1.211 . S
C23 O15 1.284 . S
C23 O24 1.273 . S
O24 C23 1.273 . S
O25 Zn16 1.977 . S
O25 C18 1.267 . S
C26 O27 1.160 . S
C26 O33 1.185 . S
O27 C26 1.160 . S
O28 Zn29 1.899 . S
O28 C36 1.284 . S
Zn29 O28 1.899 . S
Zn29 O30 2.032 . S
Zn29 O33 2.086 . S
Zn29 O38 1.977 . S
O30 Zn29 2.032 . S
O30 C34 1.278 . S
C31 O32 1.203 . S
C31 O38 1.267 . S
O32 C31 1.203 . S
O33 C26 1.185 . S
O33 Zn29 2.086 . S
C34 O30 1.278 . S
C34 O35 1.211 . S
O35 C34 1.211 . S
C36 O28 1.284 . S
C36 O37 1.273 . S
O37 C36 1.273 . S
O38 Zn29 1.977 . S
O38 C31 1.267 . S
C39 O40 1.160 . S
C39 O46 1.185 . S
O40 C39 1.160 . S
O41 Zn42 1.899 . S
O41 C49 1.284 . S
Zn42 O41 1.899 . S
Zn42 O43 2.032 . S
Zn42 O46 2.086 . S
Zn42 O51 1.977 . S
O43 Zn42 2.032 . S
O43 C47 1.278 . S
C44 O45 1.203 . S
C44 O51 1.267 . S
O45 C44 1.203 . S
O46 C39 1.185 . S
O46 Zn42 2.086 . S
C47 O43 1.278 . S
C47 O48 1.211 . S
O48 C47 1.211 . S
C49 O41 1.284 . S
C49 O50 1.273 . S
O50 C49 1.273 . S
O51 Zn42 1.977 . S
O51 C44 1.267 . S
C52 O53 1.160 . S
C52 O59 1.185 . S
O53 C52 1.160 . S
O54 Zn55 1.899 . S
O54 C62 1.284 . S
Zn55 O54 1.899 . S
Zn55 O56 2.032 . S
Zn55 O59 2.086 . S
Zn55 O64 1.977 . S
O56 Zn55 2.032 . S
O56 C60 1.278 . S
C57 O58 1.203 . S
C57 O64 1.267 . S
O58 C57 1.203 . S
O59 C52 1.185 . S
O59 Zn55 2.086 . S
C60 O56 1.278 . S
C60 O61 1.211 . S
O61 C60 1.211 . S
C62 O54 1.284 . S
C62 O63 1.273 . S
O63 C62 1.273 . S
O64 Zn55 1.977 . S
O64 C57 1.267 . S
C65 O66 1.160 . S
C65 O72 1.185 . S
O66 C65 1.160 . S
O67 Zn68 1.899 . S
O67 C75 1.284 . S
Zn68 O67 1.899 . S
Zn68 O69 2.032 . S
Zn68 O72 2.086 . S
Zn68 O77 1.977 . S
O69 Zn68 2.032 . S
O69 C73 1.278 . S
C70 O71 1.203 . S
C70 O77 1.267 . S
O71 C70 1.203 . S
O72 C65 1.185 . S
O72 Zn68 2.086 . S
C73 O69 1.278 . S
C73 O74 1.211 . S
O74 C73 1.211 . S
C75 O67 1.284 . S
C75 O76 1.273 . S
O76 C75 1.273 . S
O77 Zn68 1.977 . S
O77 C70 1.267 . S
C78 O79 1.160 . S
C78 O85 1.185 . S
O79 C78 1.160 . S
O80 Zn81 1.899 . S
O80 C88 1.284 . S
Zn81 O80 1.899 . S
Zn81 O82 2.032 . S
Zn81 O85 2.086 . S
Zn81 O90 1.977 . S
O82 Zn81 2.032 . S
O82 C86 1.278 . S
C83 O84 1.203 . S
C83 O90 1.267 . S
O84 C83 1.203 . S
O85 C78 1.185 . S
O85 Zn81 2.086 . S
C86 O82 1.278 . S
C86 O87 1.211 . S
O87 C86 1.211 . S
C88 O80 1.284 . S
C88 O89 1.273 . S
O89 C88 1.273 . S
O90 Zn81 1.977 . S
O90 C83 1.267 . S
C91 O92 1.160 . S
C91 O98 1.185 . S
O92 C91 1.160 . S
O93 Zn94 1.899 . S
O93 C101 1.284 . S
Zn94 O93 1.899 . S
Zn94 O95 2.032 . S
Zn94 O98 2.086 . S
Zn94 O103 1.977 1_455 S
O95 Zn94 2.032 . S
O95 C99 1.278 . S
C96 O97 1.203 . S
C96 O103 1.267 . S
O97 C96 1.203 . S
O98 C91 1.185 . S
O98 Zn94 2.086 . S
C99 O95 1.278 . S
C99 O100 1.211 1_455 S
O100 C99 1.211 1_655 S
C101 O93 1.284 . S
C101 O102 1.273 . S
O102 C101 1.273 . S
O103 Zn94 1.977 1_655 S
O103 C96 1.267 . S
C104 O105 1.160 . S
C104 O111 1.185 . S
O105 C104 1.160 . S
O106 Zn107 1.899 . S
O106 C114 1.284 . S
Zn107 O106 1.899 . S
Zn107 O108 2.032 . S
Zn107 O111 2.086 . S
Zn107 O116 1.977 1_545 S
O108 Zn107 2.032 . S
O108 C112 1.278 . S
C109 O110 1.203 . S
C109 O116 1.267 . S
O110 C109 1.203 . S
O111 C104 1.185 . S
O111 Zn107 2.086 . S
C112 O108 1.278 . S
C112 O113 1.211 . S
O113 C112 1.211 . S
C114 O106 1.284 . S
C114 O115 1.273 . S
O115 C114 1.273 . S
O116 Zn107 1.977 1_565 S
O116 C109 1.267 . S
C117 O118 1.160 . S
C117 O124 1.185 . S
O118 C117 1.160 . S
O119 Zn120 1.899 . S
O119 C127 1.284 . S
Zn120 O119 1.899 . S
Zn120 O121 2.032 . S
Zn120 O124 2.086 . S
Zn120 O129 1.977 . S
O121 Zn120 2.032 . S
O121 C125 1.278 . S
C122 O123 1.203 . S
C122 O129 1.267 . S
O123 C122 1.203 . S
O124 C117 1.185 . S
O124 Zn120 2.086 . S
C125 O121 1.278 . S
C125 O126 1.211 . S
O126 C125 1.211 . S
C127 O119 1.284 . S
C127 O128 1.273 . S
O128 C127 1.273 . S
O129 Zn120 1.977 . S
O129 C122 1.267 . S
C130 O131 1.160 . S
C130 O137 1.185 1_565 S
O131 C130 1.160 . S
O132 Zn133 1.899 . S
O132 C140 1.284 . S
Zn133 O132 1.899 . S
Zn133 O134 2.032 . S
Zn133 O137 2.086 . S
Zn133 O142 1.977 . S
O134 Zn133 2.032 . S
O134 C138 1.278 . S
C135 O136 1.203 . S
C135 O142 1.267 . S
O136 C135 1.203 . S
O137 C130 1.185 1_545 S
O137 Zn133 2.086 . S
C138 O134 1.278 . S
C138 O139 1.211 . S
O139 C138 1.211 . S
C140 O132 1.284 . S
C140 O141 1.273 . S
O141 C140 1.273 . S
O142 Zn133 1.977 . S
O142 C135 1.267 . S
C143 O144 1.160 . S
C143 O150 1.185 1_554 S
O144 C143 1.160 . S
O145 Zn146 1.899 . S
O145 C153 1.284 . S
Zn146 O145 1.899 . S
Zn146 O147 2.032 1_554 S
Zn146 O150 2.086 1_554 S
Zn146 O155 1.977 . S
O147 Zn146 2.032 1_556 S
O147 C151 1.278 . S
C148 O149 1.203 . S
C148 O155 1.267 . S
O149 C148 1.203 . S
O150 C143 1.185 1_556 S
O150 Zn146 2.086 1_556 S
C151 O147 1.278 . S
C151 O152 1.211 . S
O152 C151 1.211 . S
C153 O145 1.284 . S
C153 O154 1.273 . S
O154 C153 1.273 . S
O155 Zn146 1.977 . S
O155 C148 1.267 . S
C156 O157 1.160 . S
C156 O163 1.185 . S
O157 C156 1.160 . S
O158 Zn159 1.899 . S
O158 C166 1.284 . S
Zn159 O158 1.899 . S
Zn159 O160 2.032 . S
Zn159 O163 2.086 . S
Zn159 O168 1.977 . S
O160 Zn159 2.032 . S
O160 C164 1.278 . S
C161 O162 1.203 . S
C161 O168 1.267 . S
O162 C161 1.203 . S
O163 C156 1.185 . S
O163 Zn159 2.086 . S
C164 O160 1.278 . S
C164 O165 1.211 . S
O165 C164 1.211 . S
C166 O158 1.284 . S
C166 O167 1.273 . S
O167 C166 1.273 . S
O168 Zn159 1.977 . S
O168 C161 1.267 . S
C169 O170 1.160 . S
C169 O176 1.185 . S
O170 C169 1.160 . S
O171 Zn172 1.899 . S
O171 C179 1.284 . S
Zn172 O171 1.899 . S
Zn172 O173 2.032 . S
Zn172 O176 2.086 . S
Zn172 O181 1.977 . S
O173 Zn172 2.032 . S
O173 C177 1.278 . S
C174 O175 1.203 . S
C174 O181 1.267 . S
O175 C174 1.203 . S
O176 C169 1.185 . S
O176 Zn172 2.086 . S
C177 O173 1.278 . S
C177 O178 1.211 . S
O178 C177 1.211 . S
C179 O171 1.284 . S
C179 O180 1.273 . S
O180 C179 1.273 . S
O181 Zn172 1.977 . S
O181 C174 1.267 . S
C182 O183 1.160 . S
C182 O189 1.185 . S
O183 C182 1.160 . S
O184 Zn185 1.899 . S
O184 C192 1.284 . S
Zn185 O184 1.899 . S
Zn185 O186 2.032 . S
Zn185 O189 2.086 . S
Zn185 O194 1.977 . S
O186 Zn185 2.032 . S
O186 C190 1.278 . S
C187 O188 1.203 . S
C187 O194 1.267 . S
O188 C187 1.203 . S
O189 C182 1.185 . S
O189 Zn185 2.086 . S
C190 O186 1.278 . S
C190 O191 1.211 . S
O191 C190 1.211 . S
C192 O184 1.284 . S
C192 O193 1.273 . S
O193 C192 1.273 . S
O194 Zn185 1.977 . S
O194 C187 1.267 . S
C195 O196 1.160 . S
C195 O202 1.185 . S
O196 C195 1.160 . S
O197 Zn198 1.899 . S
O197 C205 1.284 . S
Zn198 O197 1.899 . S
Zn198 O199 2.032 . S
Zn198 O202 2.086 . S
Zn198 O207 1.977 . S
O199 Zn198 2.032 . S
O199 C203 1.278 . S
C200 O201 1.203 . S
C200 O207 1.267 . S
O201 C200 1.203 . S
O202 C195 1.185 . S
O202 Zn198 2.086 . S
C203 O199 1.278 . S
C203 O204 1.211 . S
O204 C203 1.211 . S
C205 O197 1.284 . S
C205 O206 1.273 . S
O206 C205 1.273 . S
O207 Zn198 1.977 . S
O207 C200 1.267 . S
C208 O209 1.160 . S
C208 O215 1.185 . S
O209 C208 1.160 . S
O210 Zn211 1.897 . S
O210 C218 1.270 1_545 S
Zn211 O210 1.897 . S
Zn211 O212 2.032 . S
Zn211 O215 2.086 . S
Zn211 O220 1.977 1_545 S
O212 Zn211 2.032 . S
O212 C216 1.278 . S
C213 O214 1.203 . S
C213 O220 1.267 . S
O214 C213 1.203 . S
O215 C208 1.185 . S
O215 Zn211 2.086 . S
C216 O212 1.278 . S
C216 O217 1.211 1_545 S
O217 C216 1.211 1_565 S
C218 O210 1.270 1_565 S
C218 O219 1.273 . S
O219 C218 1.273 . S
O220 Zn211 1.977 1_565 S
O220 C213 1.267 . S
C221 O222 1.160 . S
C221 O228 1.185 . S
O222 C221 1.160 . S
O223 Zn224 1.899 . S
O223 C231 1.284 . S
Zn224 O223 1.899 . S
Zn224 O225 2.032 . S
Zn224 O228 2.086 . S
Zn224 O233 1.977 . S
O225 Zn224 2.032 . S
O225 C229 1.278 . S
C226 O227 1.203 . S
C226 O233 1.267 . S
O227 C226 1.203 . S
O228 C221 1.185 . S
O228 Zn224 2.086 . S
C229 O225 1.278 . S
C229 O230 1.211 . S
O230 C229 1.211 . S
C231 O223 1.284 . S
C231 O232 1.273 . S
O232 C231 1.273 . S
O233 Zn224 1.977 . S
O233 C226 1.267 . S
C234 O235 1.160 . S
C234 O241 1.185 . S
O235 C234 1.160 . S
O236 Zn237 1.899 . S
O236 C244 1.284 . S
Zn237 O236 1.899 . S
Zn237 O238 2.032 . S
Zn237 O241 2.086 . S
Zn237 O246 1.977 . S
O238 Zn237 2.032 . S
O238 C242 1.278 . S
C239 O240 1.203 . S
C239 O246 1.267 . S
O240 C239 1.203 . S
O241 C234 1.185 . S
O241 Zn237 2.086 . S
C242 O238 1.278 . S
C242 O243 1.211 . S
O243 C242 1.211 . S
C244 O236 1.284 . S
C244 O245 1.273 . S
O245 C244 1.273 . S
O246 Zn237 1.977 . S
O246 C239 1.267 . S
C247 O248 1.160 . S
C247 O254 1.185 . S
O248 C247 1.160 . S
O249 Zn250 1.899 . S
O249 C257 1.284 . S
Zn250 O249 1.899 . S
Zn250 O251 2.032 . S
Zn250 O254 2.086 1_545 S
Zn250 O259 1.977 . S
O251 Zn250 2.032 . S
O251 C255 1.278 . S
C252 O253 1.203 . S
C252 O259 1.267 . S
O253 C252 1.203 . S
O254 C247 1.185 . S
O254 Zn250 2.086 1_565 S
C255 O251 1.278 . S
C255 O256 1.211 . S
O256 C255 1.211 . S
C257 O249 1.284 . S
C257 O258 1.273 . S
O258 C257 1.273 . S
O259 Zn250 1.977 . S
O259 C252 1.267 . S
C260 O261 1.160 . S
C260 O267 1.185 . S
O261 C260 1.160 . S
O262 Zn263 1.899 . S
O262 C270 1.284 . S
Zn263 O262 1.899 . S
Zn263 O264 2.032 . S
Zn263 O267 2.086 . S
Zn263 O272 1.977 . S
O264 Zn263 2.032 . S
O264 C268 1.278 . S
C265 O266 1.203 . S
C265 O272 1.267 . S
O266 C265 1.203 . S
O267 C260 1.185 . S
O267 Zn263 2.086 . S
C268 O264 1.278 . S
C268 O269 1.211 . S
O269 C268 1.211 . S
C270 O262 1.284 . S
C270 O271 1.273 . S
O271 C270 1.273 . S
O272 Zn263 1.977 . S
O272 C265 1.267 . S
C273 O274 1.160 . S
C273 O280 1.185 . S
O274 C273 1.160 . S
O275 Zn276 1.899 . S
O275 C283 1.284 . S
Zn276 O275 1.899 . S
Zn276 O277 2.032 . S
Zn276 O280 2.086 . S
Zn276 O285 1.977 . S
O277 Zn276 2.032 . S
O277 C281 1.278 . S
C278 O279 1.203 . S
C278 O285 1.267 . S
O279 C278 1.203 . S
O280 C273 1.185 . S
O280 Zn276 2.086 . S
C281 O277 1.278 . S
C281 O282 1.211 . S
O282 C281 1.211 . S
C283 O275 1.284 . S
C283 O284 1.273 . S
O284 C283 1.273 . S
O285 Zn276 1.977 . S
O285 C278 1.267 . S
C286 O287 1.160 . S
C286 O293 1.185 . S
O287 C286 1.160 . S
O288 Zn289 1.899 . S
O288 C296 1.284 . S
Zn289 O288 1.899 . S
Zn289 O290 2.032 . S
Zn289 O293 2.086 . S
Zn289 O298 1.977 . S
O290 Zn289 2.032 . S
O290 C294 1.278 . S
C291 O292 1.203 . S
C291 O298 1.267 . S
O292 C291 1.203 . S
O293 C286 1.185 . S
O293 Zn289 2.086 . S
C294 O290 1.278 . S
C294 O295 1.211 . S
O295 C294 1.211 . S
C296 O288 1.284 . S
C296 O297 1.273 . S
O297 C296 1.273 . S
O298 Zn289 1.977 . S
O298 C291 1.267 . S
C299 O300 1.160 . S
C299 O306 1.185 . S
O300 C299 1.160 . S
O301 Zn302 1.899 . S
O301 C309 1.284 . S
Zn302 O301 1.899 . S
Zn302 O303 2.032 . S
Zn302 O306 2.086 . S
Zn302 O311 1.977 . S
O303 Zn302 2.032 . S
O303 C307 1.278 . S
C304 O305 1.203 . S
C304 O311 1.267 . S
O305 C304 1.203 . S
O306 C299 1.185 . S
O306 Zn302 2.086 . S
C307 O303 1.278 . S
C307 O308 1.211 . S
O308 C307 1.211 . S
C309 O301 1.284 . S
C309 O310 1.273 . S
O310 C309 1.273 . S
O311 Zn302 1.977 . S
O311 C304 1.267 . S
Tb312 C314 2.809 . S
Tb312 O332 2.484 . S
Tb312 O333 2.441 . S
Tb312 O334 2.658 1_655 S
Tb312 O335 2.409 1_654 S
Tb312 O336 2.378 1_655 S
Tb312 O340 2.325 1_655 S
Tb312 O343 2.341 1_645 S
Tb313 C323 2.809 1_545 S
Tb313 O334 2.325 . S
Tb313 O337 2.341 . S
Tb313 O338 2.484 1_545 S
Tb313 O339 2.440 . S
Tb313 O340 2.658 . S
Tb313 O341 2.409 . S
Tb313 O342 2.378 1_545 S
C314 Tb312 2.809 . S
C314 C315 1.514 . S
C314 O332 1.248 . S
C314 O333 1.267 . S
C315 C314 1.514 . S
C315 C316 1.359 . S
C315 C320 1.348 1_554 S
C316 C315 1.359 . S
C316 C317 1.380 . S
C316 H344 0.929 . S
C317 C316 1.380 . S
C317 C318 1.347 . S
C317 H345 0.931 . S
C318 C317 1.347 . S
C318 C319 1.369 1_554 S
C319 C318 1.369 1_556 S
C319 C320 1.408 . S
C319 H346 0.930 . S
C320 C315 1.348 1_556 S
C320 C319 1.408 . S
C320 H347 0.930 . S
C321 O334 1.281 1_556 S
C321 O335 1.254 . S
C322 O336 1.236 . S
C322 O337 1.266 . S
C323 Tb313 2.809 1_565 S
C323 C324 1.514 . S
C323 O338 1.248 . S
C323 O339 1.266 1_565 S
C324 C323 1.514 . S
C324 C325 1.359 . S
C324 C329 1.348 . S
C325 C324 1.359 . S
C325 C326 1.380 . S
C325 H348 0.929 . S
C326 C325 1.380 . S
C326 C327 1.347 . S
C326 H349 0.931 . S
C327 C326 1.347 . S
C327 C328 1.369 . S
C328 C327 1.369 . S
C328 C329 1.408 . S
C328 H350 0.930 . S
C329 C324 1.348 . S
C329 C328 1.408 . S
C329 H351 0.930 . S
C330 O340 1.281 . S
C330 O341 1.254 . S
C331 O342 1.236 . S
C331 O343 1.266 . S
O332 Tb312 2.484 . S
O332 C314 1.248 . S
O333 Tb312 2.441 . S
O333 C314 1.267 . S
O334 Tb312 2.658 1_455 S
O334 Tb313 2.325 . S
O334 C321 1.281 1_554 S
O335 Tb312 2.409 1_456 S
O335 C321 1.254 . S
O336 Tb312 2.378 1_455 S
O336 C322 1.236 . S
O337 Tb313 2.341 . S
O337 C322 1.266 . S
O338 Tb313 2.484 1_565 S
O338 C323 1.248 . S
O339 Tb313 2.440 . S
O339 C323 1.266 1_545 S
O340 Tb312 2.325 1_455 S
O340 Tb313 2.658 . S
O340 C330 1.281 . S
O341 Tb313 2.409 . S
O341 C330 1.254 . S
O342 Tb313 2.378 1_565 S
O342 C331 1.236 . S
O343 Tb312 2.341 1_465 S
O343 C331 1.266 . S
H344 C316 0.929 . S
H345 C317 0.931 . S
H346 C319 0.930 . S
H347 C320 0.930 . S
H348 C325 0.929 . S
H349 C326 0.931 . S
H350 C328 0.930 . S
H351 C329 0.930 . S
Tb352 C354 2.809 . S
Tb352 O372 2.484 . S
Tb352 O373 2.440 . S
Tb352 O374 2.658 . S
Tb352 O375 2.409 . S
Tb352 O376 2.378 . S
Tb352 O380 2.325 . S
Tb352 O383 2.341 . S
Tb353 C363 2.809 . S
Tb353 O374 2.325 . S
Tb353 O377 2.341 . S
Tb353 O378 2.484 . S
Tb353 O379 2.440 . S
Tb353 O380 2.658 . S
Tb353 O381 2.409 . S
Tb353 O382 2.378 . S
C354 Tb352 2.809 . S
C354 C355 1.514 . S
C354 O372 1.248 . S
C354 O373 1.266 . S
C355 C354 1.514 . S
C355 C356 1.359 . S
C355 C360 1.348 . S
C356 C355 1.359 . S
C356 C357 1.380 . S
C356 H384 0.929 . S
C357 C356 1.380 . S
C357 C358 1.347 . S
C357 H385 0.931 . S
C358 C357 1.347 . S
C358 C359 1.369 . S
C359 C358 1.369 . S
C359 C360 1.408 . S
C359 H386 0.930 . S
C360 C355 1.348 . S
C360 C359 1.408 . S
C360 H387 0.930 . S
C361 O374 1.281 . S
C361 O375 1.254 . S
C362 O376 1.236 . S
C362 O377 1.266 . S
C363 Tb353 2.809 . S
C363 C364 1.514 . S
C363 O378 1.248 . S
C363 O379 1.266 . S
C364 C363 1.514 . S
C364 C365 1.359 . S
C364 C369 1.348 . S
C365 C364 1.359 . S
C365 C366 1.380 . S
C365 H388 0.929 . S
C366 C365 1.380 . S
C366 C367 1.347 . S
C366 H389 0.931 . S
C367 C366 1.347 . S
C367 C368 1.369 . S
C368 C367 1.369 . S
C368 C369 1.408 . S
C368 H390 0.930 . S
C369 C364 1.348 . S
C369 C368 1.408 . S
C369 H391 0.930 . S
C370 O380 1.281 . S
C370 O381 1.254 . S
C371 O382 1.236 . S
C371 O383 1.266 . S
O372 Tb352 2.484 . S
O372 C354 1.248 . S
O373 Tb352 2.440 . S
O373 C354 1.266 . S
O374 Tb352 2.658 . S
O374 Tb353 2.325 . S
O374 C361 1.281 . S
O375 Tb352 2.409 . S
O375 C361 1.254 . S
O376 Tb352 2.378 . S
O376 C362 1.236 . S
O377 Tb353 2.341 . S
O377 C362 1.266 . S
O378 Tb353 2.484 . S
O378 C363 1.248 . S
O379 Tb353 2.440 . S
O379 C363 1.266 . S
O380 Tb352 2.325 . S
O380 Tb353 2.658 . S
O380 C370 1.281 . S
O381 Tb353 2.409 . S
O381 C370 1.254 . S
O382 Tb353 2.378 . S
O382 C371 1.236 . S
O383 Tb352 2.341 . S
O383 C371 1.266 . S
H384 C356 0.929 . S
H385 C357 0.931 . S
H386 C359 0.930 . S
H387 C360 0.930 . S
H388 C365 0.929 . S
H389 C366 0.931 . S
H390 C368 0.930 . S
H391 C369 0.930 . S
Tb392 C394 2.808 . S
Tb392 O412 2.484 . S
Tb392 O413 2.440 . S
Tb392 O414 2.658 . S
Tb392 O415 2.409 . S
Tb392 O416 2.378 1_545 S
Tb392 O420 2.325 . S
Tb392 O423 2.341 . S
Tb393 C403 2.809 . S
Tb393 O414 2.325 . S
Tb393 O417 2.341 1_545 S
Tb393 O418 2.484 . S
Tb393 O419 2.440 . S
Tb393 O420 2.658 . S
Tb393 O421 2.409 . S
Tb393 O422 2.378 . S
C394 Tb392 2.808 . S
C394 C395 1.514 1_545 S
C394 O412 1.248 . S
C394 O413 1.265 . S
C395 C394 1.514 1_565 S
C395 C396 1.359 . S
C395 C400 1.348 . S
C396 C395 1.359 . S
C396 C397 1.380 . S
C396 H424 0.929 . S
C397 C396 1.380 . S
C397 C398 1.347 . S
C397 H425 0.931 . S
C398 C397 1.347 . S
C398 C399 1.369 . S
C399 C398 1.369 . S
C399 C400 1.408 . S
C399 H426 0.930 . S
C400 C395 1.348 . S
C400 C399 1.408 . S
C400 H427 0.930 . S
C401 O414 1.281 . S
C401 O415 1.254 . S
C402 O416 1.236 . S
C402 O417 1.266 . S
C403 Tb393 2.809 . S
C403 C404 1.514 . S
C403 O418 1.248 . S
C403 O419 1.266 . S
C404 C403 1.514 . S
C404 C405 1.359 . S
C404 C409 1.348 . S
C405 C404 1.359 . S
C405 C406 1.380 . S
C405 H428 0.929 . S
C406 C405 1.380 . S
C406 C407 1.347 . S
C406 H429 0.931 . S
C407 C406 1.347 . S
C407 C408 1.369 . S
C408 C407 1.369 . S
C408 C409 1.408 . S
C408 H430 0.930 . S
C409 C404 1.348 . S
C409 C408 1.408 . S
C409 H431 0.930 . S
C410 O420 1.281 . S
C410 O421 1.254 . S
C411 O422 1.236 . S
C411 O423 1.266 . S
O412 Tb392 2.484 . S
O412 C394 1.248 . S
O413 Tb392 2.440 . S
O413 C394 1.265 . S
O414 Tb392 2.658 . S
O414 Tb393 2.325 . S
O414 C401 1.281 . S
O415 Tb392 2.409 . S
O415 C401 1.254 . S
O416 Tb392 2.378 1_565 S
O416 C402 1.236 . S
O417 Tb393 2.341 1_565 S
O417 C402 1.266 . S
O418 Tb393 2.484 . S
O418 C403 1.248 . S
O419 Tb393 2.440 . S
O419 C403 1.266 . S
O420 Tb392 2.325 . S
O420 Tb393 2.658 . S
O420 C410 1.281 . S
O421 Tb393 2.409 . S
O421 C410 1.254 . S
O422 Tb393 2.378 . S
O422 C411 1.236 . S
O423 Tb392 2.341 . S
O423 C411 1.266 . S
H424 C396 0.929 . S
H425 C397 0.931 . S
H426 C399 0.930 . S
H427 C400 0.930 . S
H428 C405 0.929 . S
H429 C406 0.931 . S
H430 C408 0.930 . S
H431 C409 0.930 . S
Tb432 C434 2.809 . S
Tb432 O452 2.484 . S
Tb432 O453 2.440 . S
Tb432 O454 2.658 . S
Tb432 O455 2.409 . S
Tb432 O456 2.378 . S
Tb432 O460 2.325 . S
Tb432 O463 2.341 . S
Tb433 C443 2.809 . S
Tb433 O454 2.325 . S
Tb433 O457 2.341 . S
Tb433 O458 2.484 . S
Tb433 O459 2.440 . S
Tb433 O460 2.658 . S
Tb433 O461 2.409 . S
Tb433 O462 2.378 . S
C434 Tb432 2.809 . S
C434 C435 1.514 . S
C434 O452 1.248 . S
C434 O453 1.266 . S
C435 C434 1.514 . S
C435 C436 1.359 . S
C435 C440 1.348 . S
C436 C435 1.359 . S
C436 C437 1.380 . S
C436 H464 0.929 . S
C437 C436 1.380 . S
C437 C438 1.347 . S
C437 H465 0.931 . S
C438 C437 1.347 . S
C438 C439 1.369 . S
C439 C438 1.369 . S
C439 C440 1.408 . S
C439 H466 0.930 . S
C440 C435 1.348 . S
C440 C439 1.408 . S
C440 H467 0.930 . S
C441 O454 1.281 . S
C441 O455 1.254 . S
C442 O456 1.236 . S
C442 O457 1.266 . S
C443 Tb433 2.809 . S
C443 C444 1.514 . S
C443 O458 1.248 . S
C443 O459 1.266 . S
C444 C443 1.514 . S
C444 C445 1.359 . S
C444 C449 1.348 . S
C445 C444 1.359 . S
C445 C446 1.380 . S
C445 H468 0.929 . S
C446 C445 1.380 . S
C446 C447 1.347 . S
C446 H469 0.931 . S
C447 C446 1.347 . S
C447 C448 1.369 . S
C448 C447 1.369 . S
C448 C449 1.408 . S
C448 H470 0.930 . S
C449 C444 1.348 . S
C449 C448 1.408 . S
C449 H471 0.930 . S
C450 O460 1.281 . S
C450 O461 1.254 . S
C451 O462 1.236 . S
C451 O463 1.266 . S
O452 Tb432 2.484 . S
O452 C434 1.248 . S
O453 Tb432 2.440 . S
O453 C434 1.266 . S
O454 Tb432 2.658 . S
O454 Tb433 2.325 . S
O454 C441 1.281 . S
O455 Tb432 2.409 . S
O455 C441 1.254 . S
O456 Tb432 2.378 . S
O456 C442 1.236 . S
O457 Tb433 2.341 . S
O457 C442 1.266 . S
O458 Tb433 2.484 . S
O458 C443 1.248 . S
O459 Tb433 2.440 . S
O459 C443 1.266 . S
O460 Tb432 2.325 . S
O460 Tb433 2.658 . S
O460 C450 1.281 . S
O461 Tb433 2.409 . S
O461 C450 1.254 . S
O462 Tb433 2.378 . S
O462 C451 1.236 . S
O463 Tb432 2.341 . S
O463 C451 1.266 . S
H464 C436 0.929 . S
H465 C437 0.931 . S
H466 C439 0.930 . S
H467 C440 0.930 . S
H468 C445 0.929 . S
H469 C446 0.931 . S
H470 C448 0.930 . S
H471 C449 0.930 . S
Tb472 C474 2.809 . S
Tb472 O492 2.484 . S
Tb472 O493 2.440 . S
Tb472 O494 2.658 . S
Tb472 O495 2.409 1_455 S
Tb472 O496 2.378 . S
Tb472 O500 2.325 . S
Tb472 O503 2.341 . S
Tb473 C483 2.809 . S
Tb473 O494 2.325 1_565 S
Tb473 O497 2.333 1_565 S
Tb473 O498 2.484 . S
Tb473 O499 2.440 . S
Tb473 O500 2.658 1_565 S
Tb473 O501 2.409 1_565 S
Tb473 O502 2.378 1_565 S
C474 Tb472 2.809 . S
C474 C475 1.514 . S
C474 O492 1.248 . S
C474 O493 1.266 . S
C475 C474 1.514 . S
C475 C476 1.359 . S
C475 C480 1.348 1_455 S
C476 C475 1.359 . S
C476 C477 1.380 . S
C476 H504 0.929 . S
C477 C476 1.380 . S
C477 C478 1.363 . S
C477 H505 0.931 . S
C478 C477 1.363 . S
C478 C479 1.357 1_455 S
C479 C478 1.357 1_655 S
C479 C480 1.408 . S
C479 H506 0.930 . S
C480 C475 1.348 1_655 S
C480 C479 1.408 . S
C480 H507 0.930 . S
C481 O494 1.281 1_655 S
C481 O495 1.254 . S
C482 O496 1.236 . S
C482 O497 1.282 . S
C483 Tb473 2.809 . S
C483 C484 1.514 . S
C483 O498 1.248 . S
C483 O499 1.266 . S
C484 C483 1.514 . S
C484 C485 1.359 . S
C484 C489 1.348 . S
C485 C484 1.359 . S
C485 C486 1.380 . S
C485 H508 0.929 . S
C486 C485 1.380 . S
C486 C487 1.347 . S
C486 H509 0.931 . S
C487 C486 1.347 . S
C487 C488 1.369 . S
C488 C487 1.369 . S
C488 C489 1.408 . S
C488 H510 0.930 . S
C489 C484 1.348 . S
C489 C488 1.408 . S
C489 H511 0.930 . S
C490 O500 1.281 . S
C490 O501 1.254 . S
C491 O502 1.236 . S
C491 O503 1.266 . S
O492 Tb472 2.484 . S
O492 C474 1.248 . S
O493 Tb472 2.440 . S
O493 C474 1.266 . S
O494 Tb472 2.658 . S
O494 Tb473 2.325 1_545 S
O494 C481 1.281 1_455 S
O495 Tb472 2.409 1_655 S
O495 C481 1.254 . S
O496 Tb472 2.378 . S
O496 C482 1.236 . S
O497 Tb473 2.333 1_545 S
O497 C482 1.282 . S
O498 Tb473 2.484 . S
O498 C483 1.248 . S
O499 Tb473 2.440 . S
O499 C483 1.266 . S
O500 Tb472 2.325 . S
O500 Tb473 2.658 1_545 S
O500 C490 1.281 . S
O501 Tb473 2.409 1_545 S
O501 C490 1.254 . S
O502 Tb473 2.378 1_545 S
O502 C491 1.236 . S
O503 Tb472 2.341 . S
O503 C491 1.266 . S
H504 C476 0.929 . S
H505 C477 0.931 . S
H506 C479 0.930 . S
H507 C480 0.930 . S
H508 C485 0.929 . S
H509 C486 0.931 . S
H510 C488 0.930 . S
H511 C489 0.930 . S
Tb512 C514 2.809 . S
Tb512 O532 2.484 . S
Tb512 O533 2.440 . S
Tb512 O534 2.658 . S
Tb512 O535 2.409 . S
Tb512 O536 2.378 . S
Tb512 O540 2.325 . S
Tb512 O543 2.341 . S
Tb513 C523 2.809 . S
Tb513 O534 2.325 . S
Tb513 O537 2.341 . S
Tb513 O538 2.484 . S
Tb513 O539 2.440 . S
Tb513 O540 2.658 . S
Tb513 O541 2.409 . S
Tb513 O542 2.378 . S
C514 Tb512 2.809 . S
C514 C515 1.514 . S
C514 O532 1.248 . S
C514 O533 1.266 . S
C515 C514 1.514 . S
C515 C516 1.359 . S
C515 C520 1.348 . S
C516 C515 1.359 . S
C516 C517 1.380 . S
C516 H544 0.929 . S
C517 C516 1.380 . S
C517 C518 1.347 . S
C517 H545 0.931 . S
C518 C517 1.347 . S
C518 C519 1.369 . S
C519 C518 1.369 . S
C519 C520 1.408 . S
C519 H546 0.930 . S
C520 C515 1.348 . S
C520 C519 1.408 . S
C520 H547 0.930 . S
C521 O534 1.281 . S
C521 O535 1.254 . S
C522 O536 1.236 . S
C522 O537 1.266 . S
C523 Tb513 2.809 . S
C523 C524 1.514 . S
C523 O538 1.248 . S
C523 O539 1.266 . S
C524 C523 1.514 . S
C524 C525 1.359 . S
C524 C529 1.348 . S
C525 C524 1.359 . S
C525 C526 1.380 . S
C525 H548 0.929 . S
C526 C525 1.380 . S
C526 C527 1.347 . S
C526 H549 0.931 . S
C527 C526 1.347 . S
C527 C528 1.369 . S
C528 C527 1.369 . S
C528 C529 1.408 . S
C528 H550 0.930 . S
C529 C524 1.348 . S
C529 C528 1.408 . S
C529 H551 0.930 . S
C530 O540 1.281 . S
C530 O541 1.254 . S
C531 O542 1.236 . S
C531 O543 1.266 . S
O532 Tb512 2.484 . S
O532 C514 1.248 . S
O533 Tb512 2.440 . S
O533 C514 1.266 . S
O534 Tb512 2.658 . S
O534 Tb513 2.325 . S
O534 C521 1.281 . S
O535 Tb512 2.409 . S
O535 C521 1.254 . S
O536 Tb512 2.378 . S
O536 C522 1.236 . S
O537 Tb513 2.341 . S
O537 C522 1.266 . S
O538 Tb513 2.484 . S
O538 C523 1.248 . S
O539 Tb513 2.440 . S
O539 C523 1.266 . S
O540 Tb512 2.325 . S
O540 Tb513 2.658 . S
O540 C530 1.281 . S
O541 Tb513 2.409 . S
O541 C530 1.254 . S
O542 Tb513 2.378 . S
O542 C531 1.236 . S
O543 Tb512 2.341 . S
O543 C531 1.266 . S
H544 C516 0.929 . S
H545 C517 0.931 . S
H546 C519 0.930 . S
H547 C520 0.930 . S
H548 C525 0.929 . S
H549 C526 0.931 . S
H550 C528 0.930 . S
H551 C529 0.930 . S
Tb552 C554 2.809 1_545 S
Tb552 O572 2.484 1_545 S
Tb552 O573 2.440 . S
Tb552 O574 2.658 . S
Tb552 O575 2.409 . S
Tb552 O576 2.378 . S
Tb552 O580 2.325 1_545 S
Tb552 O583 2.341 . S
Tb553 C563 2.809 . S
Tb553 O574 2.325 . S
Tb553 O577 2.341 . S
Tb553 O578 2.484 . S
Tb553 O579 2.440 . S
Tb553 O580 2.658 1_545 S
Tb553 O581 2.409 1_545 S
Tb553 O582 2.378 . S
C554 Tb552 2.809 1_565 S
C554 C555 1.514 . S
C554 O572 1.248 . S
C554 O573 1.266 1_565 S
C555 C554 1.514 . S
C555 C556 1.359 . S
C555 C560 1.348 1_565 S
C556 C555 1.359 . S
C556 C557 1.380 . S
C556 H584 0.929 . S
C557 C556 1.380 . S
C557 C558 1.347 . S
C557 H585 0.931 . S
C558 C557 1.347 . S
C558 C559 1.369 . S
C559 C558 1.369 . S
C559 C560 1.408 1_565 S
C559 H586 0.930 1_565 S
C560 C555 1.348 1_545 S
C560 C559 1.408 1_545 S
C560 H587 0.930 . S
C561 O574 1.281 . S
C561 O575 1.254 . S
C562 O576 1.236 . S
C562 O577 1.266 . S
C563 Tb553 2.809 . S
C563 C564 1.514 . S
C563 O578 1.248 . S
C563 O579 1.266 . S
C564 C563 1.514 . S
C564 C565 1.359 . S
C564 C569 1.348 . S
C565 C564 1.359 . S
C565 C566 1.380 . S
C565 H588 0.929 . S
C566 C565 1.380 . S
C566 C567 1.347 . S
C566 H589 0.931 . S
C567 C566 1.347 . S
C567 C568 1.369 . S
C568 C567 1.369 . S
C568 C569 1.408 . S
C568 H590 0.930 . S
C569 C564 1.348 . S
C569 C568 1.408 . S
C569 H591 0.930 . S
C570 O580 1.281 . S
C570 O581 1.254 . S
C571 O582 1.236 . S
C571 O583 1.266 . S
O572 Tb552 2.484 1_565 S
O572 C554 1.248 . S
O573 Tb552 2.440 . S
O573 C554 1.266 1_545 S
O574 Tb552 2.658 . S
O574 Tb553 2.325 . S
O574 C561 1.281 . S
O575 Tb552 2.409 . S
O575 C561 1.254 . S
O576 Tb552 2.378 . S
O576 C562 1.236 . S
O577 Tb553 2.341 . S
O577 C562 1.266 . S
O578 Tb553 2.484 . S
O578 C563 1.248 . S
O579 Tb553 2.440 . S
O579 C563 1.266 . S
O580 Tb552 2.325 1_565 S
O580 Tb553 2.658 1_565 S
O580 C570 1.281 . S
O581 Tb553 2.409 1_565 S
O581 C570 1.254 . S
O582 Tb553 2.378 . S
O582 C571 1.236 . S
O583 Tb552 2.341 . S
O583 C571 1.266 . S
H584 C556 0.929 . S
H585 C557 0.931 . S
H586 C559 0.930 1_545 S
H587 C560 0.930 . S
H588 C565 0.929 . S
H589 C566 0.931 . S
H590 C568 0.930 . S
H591 C569 0.930 . S
Tb592 C594 2.809 . S
Tb592 O612 2.484 . S
Tb592 O613 2.440 . S
Tb592 O614 2.658 . S
Tb592 O615 2.409 . S
Tb592 O616 2.378 . S
Tb592 O620 2.325 . S
Tb592 O623 2.341 . S
Tb593 C603 2.809 . S
Tb593 O614 2.325 . S
Tb593 O617 2.341 . S
Tb593 O618 2.484 . S
Tb593 O619 2.440 . S
Tb593 O620 2.658 . S
Tb593 O621 2.409 . S
Tb593 O622 2.378 . S
C594 Tb592 2.809 . S
C594 C595 1.514 . S
C594 O612 1.248 . S
C594 O613 1.266 . S
C595 C594 1.514 . S
C595 C596 1.359 . S
C595 C600 1.348 . S
C596 C595 1.359 . S
C596 C597 1.380 . S
C596 H624 0.929 . S
C597 C596 1.380 . S
C597 C598 1.347 . S
C597 H625 0.931 . S
C598 C597 1.347 . S
C598 C599 1.369 . S
C599 C598 1.369 . S
C599 C600 1.408 . S
C599 H626 0.930 . S
C600 C595 1.348 . S
C600 C599 1.408 . S
C600 H627 0.930 . S
C601 O614 1.281 . S
C601 O615 1.254 . S
C602 O616 1.236 . S
C602 O617 1.266 . S
C603 Tb593 2.809 . S
C603 C604 1.514 . S
C603 O618 1.248 . S
C603 O619 1.266 . S
C604 C603 1.514 . S
C604 C605 1.359 . S
C604 C609 1.348 . S
C605 C604 1.359 . S
C605 C606 1.380 . S
C605 H628 0.929 . S
C606 C605 1.380 . S
C606 C607 1.347 . S
C606 H629 0.931 . S
C607 C606 1.347 . S
C607 C608 1.369 . S
C608 C607 1.369 . S
C608 C609 1.408 . S
C608 H630 0.930 . S
C609 C604 1.348 . S
C609 C608 1.408 . S
C609 H631 0.930 . S
C610 O620 1.281 . S
C610 O621 1.254 . S
C611 O622 1.236 . S
C611 O623 1.266 . S
O612 Tb592 2.484 . S
O612 C594 1.248 . S
O613 Tb592 2.440 . S
O613 C594 1.266 . S
O614 Tb592 2.658 . S
O614 Tb593 2.325 . S
O614 C601 1.281 . S
O615 Tb592 2.409 . S
O615 C601 1.254 . S
O616 Tb592 2.378 . S
O616 C602 1.236 . S
O617 Tb593 2.341 . S
O617 C602 1.266 . S
O618 Tb593 2.484 . S
O618 C603 1.248 . S
O619 Tb593 2.440 . S
O619 C603 1.266 . S
O620 Tb592 2.325 . S
O620 Tb593 2.658 . S
O620 C610 1.281 . S
O621 Tb593 2.409 . S
O621 C610 1.254 . S
O622 Tb593 2.378 . S
O622 C611 1.236 . S
O623 Tb592 2.341 . S
O623 C611 1.266 . S
H624 C596 0.929 . S
H625 C597 0.931 . S
H626 C599 0.930 . S
H627 C600 0.930 . S
H628 C605 0.929 . S
H629 C606 0.931 . S
H630 C608 0.930 . S
H631 C609 0.930 . S
Tb632 C634 2.809 . S
Tb632 O652 2.484 . S
Tb632 O653 2.440 . S
Tb632 O654 2.658 . S
Tb632 O655 2.409 . S
Tb632 O656 2.378 . S
Tb632 O660 2.325 . S
Tb632 O663 2.341 . S
Tb633 C643 2.809 . S
Tb633 O654 2.325 . S
Tb633 O657 2.341 . S
Tb633 O658 2.484 . S
Tb633 O659 2.440 . S
Tb633 O660 2.658 . S
Tb633 O661 2.409 . S
Tb633 O662 2.378 . S
C634 Tb632 2.809 . S
C634 C635 1.514 . S
C634 O652 1.248 . S
C634 O653 1.266 . S
C635 C634 1.514 . S
C635 C636 1.359 1_554 S
C635 C640 1.348 . S
C636 C635 1.359 1_556 S
C636 C637 1.380 . S
C636 H664 0.929 . S
C637 C636 1.380 . S
C637 C638 1.347 . S
C637 H665 0.931 . S
C638 C637 1.347 . S
C638 C639 1.369 . S
C639 C638 1.369 . S
C639 C640 1.408 1_556 S
C639 H666 0.930 . S
C640 C635 1.348 . S
C640 C639 1.408 1_554 S
C640 H667 0.930 . S
C641 O654 1.281 . S
C641 O655 1.254 . S
C642 O656 1.236 1_556 S
C642 O657 1.266 1_556 S
C643 Tb633 2.809 . S
C643 C644 1.514 . S
C643 O658 1.248 . S
C643 O659 1.266 . S
C644 C643 1.514 . S
C644 C645 1.359 . S
C644 C649 1.348 . S
C645 C644 1.359 . S
C645 C646 1.380 . S
C645 H668 0.929 . S
C646 C645 1.380 . S
C646 C647 1.347 . S
C646 H669 0.931 . S
C647 C646 1.347 . S
C647 C648 1.369 . S
C648 C647 1.369 . S
C648 C649 1.408 . S
C648 H670 0.930 . S
C649 C644 1.348 . S
C649 C648 1.408 . S
C649 H671 0.930 . S
C650 O660 1.281 . S
C650 O661 1.254 . S
C651 O662 1.236 . S
C651 O663 1.266 . S
O652 Tb632 2.484 . S
O652 C634 1.248 . S
O653 Tb632 2.440 . S
O653 C634 1.266 . S
O654 Tb632 2.658 . S
O654 Tb633 2.325 . S
O654 C641 1.281 . S
O655 Tb632 2.409 . S
O655 C641 1.254 . S
O656 Tb632 2.378 . S
O656 C642 1.236 1_554 S
O657 Tb633 2.341 . S
O657 C642 1.266 1_554 S
O658 Tb633 2.484 . S
O658 C643 1.248 . S
O659 Tb633 2.440 . S
O659 C643 1.266 . S
O660 Tb632 2.325 . S
O660 Tb633 2.658 . S
O660 C650 1.281 . S
O661 Tb633 2.409 . S
O661 C650 1.254 . S
O662 Tb633 2.378 . S
O662 C651 1.236 . S
O663 Tb632 2.341 . S
O663 C651 1.266 . S
H664 C636 0.929 . S
H665 C637 0.931 . S
H666 C639 0.930 . S
H667 C640 0.930 . S
H668 C645 0.929 . S
H669 C646 0.931 . S
H670 C648 0.930 . S
H671 C649 0.930 . S
Tb672 C674 2.809 . S
Tb672 O692 2.484 . S
Tb672 O693 2.440 . S
Tb672 O694 2.658 . S
Tb672 O695 2.409 . S
Tb672 O696 2.378 . S
Tb672 O700 2.325 . S
Tb672 O703 2.341 . S
Tb673 C683 2.809 . S
Tb673 O694 2.325 . S
Tb673 O697 2.341 . S
Tb673 O698 2.484 . S
Tb673 O699 2.440 . S
Tb673 O700 2.658 . S
Tb673 O701 2.409 . S
Tb673 O702 2.378 . S
C674 Tb672 2.809 . S
C674 C675 1.514 . S
C674 O692 1.248 . S
C674 O693 1.266 . S
C675 C674 1.514 . S
C675 C676 1.359 . S
C675 C680 1.348 . S
C676 C675 1.359 . S
C676 C677 1.380 . S
C676 H704 0.929 . S
C677 C676 1.380 . S
C677 C678 1.347 . S
C677 H705 0.931 . S
C678 C677 1.347 . S
C678 C679 1.369 . S
C679 C678 1.369 . S
C679 C680 1.408 . S
C679 H706 0.930 . S
C680 C675 1.348 . S
C680 C679 1.408 . S
C680 H707 0.930 . S
C681 O694 1.281 . S
C681 O695 1.254 . S
C682 O696 1.236 . S
C682 O697 1.266 . S
C683 Tb673 2.809 . S
C683 C684 1.514 . S
C683 O698 1.248 . S
C683 O699 1.266 . S
C684 C683 1.514 . S
C684 C685 1.359 . S
C684 C689 1.348 . S
C685 C684 1.359 . S
C685 C686 1.380 . S
C685 H708 0.929 . S
C686 C685 1.380 . S
C686 C687 1.347 . S
C686 H709 0.931 . S
C687 C686 1.347 . S
C687 C688 1.369 . S
C688 C687 1.369 . S
C688 C689 1.408 . S
C688 H710 0.930 . S
C689 C684 1.348 . S
C689 C688 1.408 . S
C689 H711 0.930 . S
C690 O700 1.281 . S
C690 O701 1.254 . S
C691 O702 1.236 . S
C691 O703 1.266 . S
O692 Tb672 2.484 . S
O692 C674 1.248 . S
O693 Tb672 2.440 . S
O693 C674 1.266 . S
O694 Tb672 2.658 . S
O694 Tb673 2.325 . S
O694 C681 1.281 . S
O695 Tb672 2.409 . S
O695 C681 1.254 . S
O696 Tb672 2.378 . S
O696 C682 1.236 . S
O697 Tb673 2.341 . S
O697 C682 1.266 . S
O698 Tb673 2.484 . S
O698 C683 1.248 . S
O699 Tb673 2.440 . S
O699 C683 1.266 . S
O700 Tb672 2.325 . S
O700 Tb673 2.658 . S
O700 C690 1.281 . S
O701 Tb673 2.409 . S
O701 C690 1.254 . S
O702 Tb673 2.378 . S
O702 C691 1.236 . S
O703 Tb672 2.341 . S
O703 C691 1.266 . S
H704 C676 0.929 . S
H705 C677 0.931 . S
H706 C679 0.930 . S
H707 C680 0.930 . S
H708 C685 0.929 . S
H709 C686 0.931 . S
H710 C688 0.930 . S
H711 C689 0.930 . S
Tb712 C714 2.809 1_455 S
Tb712 O732 2.484 1_455 S
Tb712 O733 2.440 1_455 S
Tb712 O734 2.658 . S
Tb712 O735 2.409 . S
Tb712 O736 2.378 . S
Tb712 O740 2.325 . S
Tb712 O743 2.341 . S
Tb713 C723 2.809 . S
Tb713 O734 2.325 . S
Tb713 O737 2.341 . S
Tb713 O738 2.484 . S
Tb713 O739 2.440 . S
Tb713 O740 2.658 . S
Tb713 O741 2.409 . S
Tb713 O742 2.378 . S
C714 Tb712 2.809 1_655 S
C714 C715 1.514 . S
C714 O732 1.248 . S
C714 O733 1.266 . S
C715 C714 1.514 . S
C715 C716 1.359 . S
C715 C720 1.348 . S
C716 C715 1.359 . S
C716 C717 1.380 . S
C716 H744 0.929 . S
C717 C716 1.380 . S
C717 C718 1.347 . S
C717 H745 0.931 . S
C718 C717 1.347 . S
C718 C719 1.369 . S
C719 C718 1.369 . S
C719 C720 1.408 . S
C719 H746 0.930 . S
C720 C715 1.348 . S
C720 C719 1.408 . S
C720 H747 0.930 . S
C721 O734 1.281 . S
C721 O735 1.254 . S
C722 O736 1.236 . S
C722 O737 1.266 . S
C723 Tb713 2.809 . S
C723 C724 1.514 . S
C723 O738 1.248 . S
C723 O739 1.266 . S
C724 C723 1.514 . S
C724 C725 1.359 . S
C724 C729 1.348 . S
C725 C724 1.359 . S
C725 C726 1.380 . S
C725 H748 0.929 . S
C726 C725 1.380 . S
C726 C727 1.347 . S
C726 H749 0.931 . S
C727 C726 1.347 . S
C727 C728 1.369 . S
C728 C727 1.369 . S
C728 C729 1.408 . S
C728 H750 0.930 . S
C729 C724 1.348 . S
C729 C728 1.408 . S
C729 H751 0.930 . S
C730 O740 1.281 . S
C730 O741 1.254 . S
C731 O742 1.236 . S
C731 O743 1.266 . S
O732 Tb712 2.484 1_655 S
O732 C714 1.248 . S
O733 Tb712 2.440 1_655 S
O733 C714 1.266 . S
O734 Tb712 2.658 . S
O734 Tb713 2.325 . S
O734 C721 1.281 . S
O735 Tb712 2.409 . S
O735 C721 1.254 . S
O736 Tb712 2.378 . S
O736 C722 1.236 . S
O737 Tb713 2.341 . S
O737 C722 1.266 . S
O738 Tb713 2.484 . S
O738 C723 1.248 . S
O739 Tb713 2.440 . S
O739 C723 1.266 . S
O740 Tb712 2.325 . S
O740 Tb713 2.658 . S
O740 C730 1.281 . S
O741 Tb713 2.409 . S
O741 C730 1.254 . S
O742 Tb713 2.378 . S
O742 C731 1.236 . S
O743 Tb712 2.341 . S
O743 C731 1.266 . S
H744 C716 0.929 . S
H745 C717 0.931 . S
H746 C719 0.930 . S
H747 C720 0.930 . S
H748 C725 0.929 . S
H749 C726 0.931 . S
H750 C728 0.930 . S
H751 C729 0.930 . S
Tb752 C754 2.809 . S
Tb752 O772 2.484 . S
Tb752 O773 2.440 . S
Tb752 O774 2.658 . S
Tb752 O775 2.409 . S
Tb752 O776 2.378 . S
Tb752 O780 2.325 . S
Tb752 O783 2.341 . S
Tb753 C763 2.809 . S
Tb753 O774 2.325 . S
Tb753 O777 2.341 . S
Tb753 O778 2.484 . S
Tb753 O779 2.440 . S
Tb753 O780 2.658 . S
Tb753 O781 2.409 . S
Tb753 O782 2.378 . S
C754 Tb752 2.809 . S
C754 C755 1.514 . S
C754 O772 1.248 . S
C754 O773 1.266 . S
C755 C754 1.514 . S
C755 C756 1.359 . S
C755 C760 1.348 . S
C756 C755 1.359 . S
C756 C757 1.380 . S
C756 H784 0.929 . S
C757 C756 1.380 . S
C757 C758 1.347 . S
C757 H785 0.931 . S
C758 C757 1.347 . S
C758 C759 1.369 . S
C759 C758 1.369 . S
C759 C760 1.408 . S
C759 H786 0.930 . S
C760 C755 1.348 . S
C760 C759 1.408 . S
C760 H787 0.930 . S
C761 O774 1.281 . S
C761 O775 1.254 . S
C762 O776 1.236 . S
C762 O777 1.266 . S
C763 Tb753 2.809 . S
C763 C764 1.514 . S
C763 O778 1.248 . S
C763 O779 1.266 . S
C764 C763 1.514 . S
C764 C765 1.359 . S
C764 C769 1.348 . S
C765 C764 1.359 . S
C765 C766 1.380 . S
C765 H788 0.929 . S
C766 C765 1.380 . S
C766 C767 1.347 . S
C766 H789 0.931 . S
C767 C766 1.347 . S
C767 C768 1.369 . S
C768 C767 1.369 . S
C768 C769 1.408 . S
C768 H790 0.930 . S
C769 C764 1.348 . S
C769 C768 1.408 . S
C769 H791 0.930 . S
C770 O780 1.281 . S
C770 O781 1.254 . S
C771 O782 1.236 . S
C771 O783 1.266 . S
O772 Tb752 2.484 . S
O772 C754 1.248 . S
O773 Tb752 2.440 . S
O773 C754 1.266 . S
O774 Tb752 2.658 . S
O774 Tb753 2.325 . S
O774 C761 1.281 . S
O775 Tb752 2.409 . S
O775 C761 1.254 . S
O776 Tb752 2.378 . S
O776 C762 1.236 . S
O777 Tb753 2.341 . S
O777 C762 1.266 . S
O778 Tb753 2.484 . S
O778 C763 1.248 . S
O779 Tb753 2.440 . S
O779 C763 1.266 . S
O780 Tb752 2.325 . S
O780 Tb753 2.658 . S
O780 C770 1.281 . S
O781 Tb753 2.409 . S
O781 C770 1.254 . S
O782 Tb753 2.378 . S
O782 C771 1.236 . S
O783 Tb752 2.341 . S
O783 C771 1.266 . S
H784 C756 0.929 . S
H785 C757 0.931 . S
H786 C759 0.930 . S
H787 C760 0.930 . S
H788 C765 0.929 . S
H789 C766 0.931 . S
H790 C768 0.930 . S
H791 C769 0.930 . S
Tb792 C794 2.809 . S
Tb792 O812 2.484 . S
Tb792 O813 2.440 . S
Tb792 O814 2.658 . S
Tb792 O815 2.409 . S
Tb792 O816 2.378 . S
Tb792 O820 2.325 . S
Tb792 O823 2.341 . S
Tb793 C803 2.809 . S
Tb793 O814 2.325 . S
Tb793 O817 2.341 . S
Tb793 O818 2.484 . S
Tb793 O819 2.440 . S
Tb793 O820 2.658 . S
Tb793 O821 2.409 . S
Tb793 O822 2.378 . S
C794 Tb792 2.809 . S
C794 C795 1.514 . S
C794 O812 1.248 . S
C794 O813 1.266 . S
C795 C794 1.514 . S
C795 C796 1.359 . S
C795 C800 1.348 . S
C796 C795 1.359 . S
C796 C797 1.380 . S
C796 H824 0.929 . S
C797 C796 1.380 . S
C797 C798 1.347 . S
C797 H825 0.931 . S
C798 C797 1.347 . S
C798 C799 1.369 . S
C799 C798 1.369 . S
C799 C800 1.408 . S
C799 H826 0.930 . S
C800 C795 1.348 . S
C800 C799 1.408 . S
C800 H827 0.930 . S
C801 O814 1.281 . S
C801 O815 1.254 . S
C802 O816 1.236 . S
C802 O817 1.266 . S
C803 Tb793 2.809 . S
C803 C804 1.514 . S
C803 O818 1.248 . S
C803 O819 1.266 . S
C804 C803 1.514 . S
C804 C805 1.359 . S
C804 C809 1.348 . S
C805 C804 1.359 . S
C805 C806 1.380 . S
C805 H828 0.929 . S
C806 C805 1.380 . S
C806 C807 1.347 . S
C806 H829 0.931 . S
C807 C806 1.347 . S
C807 C808 1.369 . S
C808 C807 1.369 . S
C808 C809 1.408 . S
C808 H830 0.930 . S
C809 C804 1.348 . S
C809 C808 1.408 . S
C809 H831 0.930 . S
C810 O820 1.281 . S
C810 O821 1.254 . S
C811 O822 1.236 . S
C811 O823 1.266 . S
O812 Tb792 2.484 . S
O812 C794 1.248 . S
O813 Tb792 2.440 . S
O813 C794 1.266 . S
O814 Tb792 2.658 . S
O814 Tb793 2.325 . S
O814 C801 1.281 . S
O815 Tb792 2.409 . S
O815 C801 1.254 . S
O816 Tb792 2.378 . S
O816 C802 1.236 . S
O817 Tb793 2.341 . S
O817 C802 1.266 . S
O818 Tb793 2.484 . S
O818 C803 1.248 . S
O819 Tb793 2.440 . S
O819 C803 1.266 . S
O820 Tb792 2.325 . S
O820 Tb793 2.658 . S
O820 C810 1.281 . S
O821 Tb793 2.409 . S
O821 C810 1.254 . S
O822 Tb793 2.378 . S
O822 C811 1.236 . S
O823 Tb792 2.341 . S
O823 C811 1.266 . S
H824 C796 0.929 . S
H825 C797 0.931 . S
H826 C799 0.930 . S
H827 C800 0.930 . S
H828 C805 0.929 . S
H829 C806 0.931 . S
H830 C808 0.930 . S
H831 C809 0.930 . S
Tb832 C834 2.809 . S
Tb832 O852 2.484 . S
Tb832 O853 2.440 . S
Tb832 O854 2.658 . S
Tb832 O855 2.409 . S
Tb832 O856 2.378 . S
Tb832 O860 2.325 . S
Tb832 O863 2.341 . S
Tb833 C843 2.809 . S
Tb833 O854 2.325 . S
Tb833 O857 2.341 . S
Tb833 O858 2.484 . S
Tb833 O859 2.440 . S
Tb833 O860 2.658 . S
Tb833 O861 2.409 . S
Tb833 O862 2.378 . S
C834 Tb832 2.809 . S
C834 C835 1.514 . S
C834 O852 1.248 . S
C834 O853 1.266 . S
C835 C834 1.514 . S
C835 C836 1.359 . S
C835 C840 1.348 . S
C836 C835 1.359 . S
C836 C837 1.380 . S
C836 H864 0.929 . S
C837 C836 1.380 . S
C837 C838 1.347 . S
C837 H865 0.931 . S
C838 C837 1.347 . S
C838 C839 1.369 . S
C839 C838 1.369 . S
C839 C840 1.408 . S
C839 H866 0.930 . S
C840 C835 1.348 . S
C840 C839 1.408 . S
C840 H867 0.930 . S
C841 O854 1.281 . S
C841 O855 1.254 . S
C842 O856 1.236 . S
C842 O857 1.266 . S
C843 Tb833 2.809 . S
C843 C844 1.514 . S
C843 O858 1.248 . S
C843 O859 1.266 . S
C844 C843 1.514 . S
C844 C845 1.359 . S
C844 C849 1.348 . S
C845 C844 1.359 . S
C845 C846 1.380 . S
C845 H868 0.929 . S
C846 C845 1.380 . S
C846 C847 1.347 . S
C846 H869 0.931 . S
C847 C846 1.347 . S
C847 C848 1.369 . S
C848 C847 1.369 . S
C848 C849 1.408 . S
C848 H870 0.930 . S
C849 C844 1.348 . S
C849 C848 1.408 . S
C849 H871 0.930 . S
C850 O860 1.281 . S
C850 O861 1.254 . S
C851 O862 1.236 . S
C851 O863 1.266 . S
O852 Tb832 2.484 . S
O852 C834 1.248 . S
O853 Tb832 2.440 . S
O853 C834 1.266 . S
O854 Tb832 2.658 . S
O854 Tb833 2.325 . S
O854 C841 1.281 . S
O855 Tb832 2.409 . S
O855 C841 1.254 . S
O856 Tb832 2.378 . S
O856 C842 1.236 . S
O857 Tb833 2.341 . S
O857 C842 1.266 . S
O858 Tb833 2.484 . S
O858 C843 1.248 . S
O859 Tb833 2.440 . S
O859 C843 1.266 . S
O860 Tb832 2.325 . S
O860 Tb833 2.658 . S
O860 C850 1.281 . S
O861 Tb833 2.409 . S
O861 C850 1.254 . S
O862 Tb833 2.378 . S
O862 C851 1.236 . S
O863 Tb832 2.341 . S
O863 C851 1.266 . S
H864 C836 0.929 . S
H865 C837 0.931 . S
H866 C839 0.930 . S
H867 C840 0.930 . S
H868 C845 0.929 . S
H869 C846 0.931 . S
H870 C848 0.930 . S
H871 C849 0.930 . S
Tb872 C874 2.809 . S
Tb872 O892 2.484 . S
Tb872 O893 2.440 . S
Tb872 O894 2.658 . S
Tb872 O895 2.409 . S
Tb872 O896 2.378 . S
Tb872 O900 2.325 . S
Tb872 O903 2.341 . S
Tb873 C883 2.809 . S
Tb873 O894 2.325 . S
Tb873 O897 2.341 . S
Tb873 O898 2.484 . S
Tb873 O899 2.440 . S
Tb873 O900 2.658 . S
Tb873 O901 2.409 . S
Tb873 O902 2.378 . S
C874 Tb872 2.809 . S
C874 C875 1.514 . S
C874 O892 1.248 . S
C874 O893 1.266 . S
C875 C874 1.514 . S
C875 C876 1.359 . S
C875 C880 1.348 . S
C876 C875 1.359 . S
C876 C877 1.380 . S
C876 H904 0.929 . S
C877 C876 1.380 . S
C877 C878 1.347 . S
C877 H905 0.931 . S
C878 C877 1.347 . S
C878 C879 1.369 . S
C879 C878 1.369 . S
C879 C880 1.408 . S
C879 H906 0.930 . S
C880 C875 1.348 . S
C880 C879 1.408 . S
C880 H907 0.930 . S
C881 O894 1.281 . S
C881 O895 1.254 . S
C882 O896 1.236 . S
C882 O897 1.266 . S
C883 Tb873 2.809 . S
C883 C884 1.514 . S
C883 O898 1.248 . S
C883 O899 1.266 . S
C884 C883 1.514 . S
C884 C885 1.359 . S
C884 C889 1.348 . S
C885 C884 1.359 . S
C885 C886 1.380 . S
C885 H908 0.929 . S
C886 C885 1.380 . S
C886 C887 1.347 . S
C886 H909 0.931 . S
C887 C886 1.347 . S
C887 C888 1.369 . S
C888 C887 1.369 . S
C888 C889 1.408 . S
C888 H910 0.930 . S
C889 C884 1.348 . S
C889 C888 1.408 . S
C889 H911 0.930 . S
C890 O900 1.281 . S
C890 O901 1.254 . S
C891 O902 1.236 . S
C891 O903 1.266 . S
O892 Tb872 2.484 . S
O892 C874 1.248 . S
O893 Tb872 2.440 . S
O893 C874 1.266 . S
O894 Tb872 2.658 . S
O894 Tb873 2.325 . S
O894 C881 1.281 . S
O895 Tb872 2.409 . S
O895 C881 1.254 . S
O896 Tb872 2.378 . S
O896 C882 1.236 . S
O897 Tb873 2.341 . S
O897 C882 1.266 . S
O898 Tb873 2.484 . S
O898 C883 1.248 . S
O899 Tb873 2.440 . S
O899 C883 1.266 . S
O900 Tb872 2.325 . S
O900 Tb873 2.658 . S
O900 C890 1.281 . S
O901 Tb873 2.409 . S
O901 C890 1.254 . S
O902 Tb873 2.378 . S
O902 C891 1.236 . S
O903 Tb872 2.341 . S
O903 C891 1.266 . S
H904 C876 0.929 . S
H905 C877 0.931 . S
H906 C879 0.930 . S
H907 C880 0.930 . S
H908 C885 0.929 . S
H909 C886 0.931 . S
H910 C888 0.930 . S
H911 C889 0.930 . S
Tb912 C914 2.809 . S
Tb912 O932 2.484 . S
Tb912 O933 2.440 . S
Tb912 O934 2.658 . S
Tb912 O935 2.409 1_554 S
Tb912 O936 2.378 . S
Tb912 O940 2.325 . S
Tb912 O943 2.341 . S
Tb913 C923 2.809 1_455 S
Tb913 O934 2.325 . S
Tb913 O937 2.341 . S
Tb913 O938 2.484 1_455 S
Tb913 O939 2.440 1_455 S
Tb913 O940 2.658 . S
Tb913 O941 2.409 . S
Tb913 O942 2.378 . S
C914 Tb912 2.809 . S
C914 C915 1.514 . S
C914 O932 1.248 . S
C914 O933 1.266 . S
C915 C914 1.514 . S
C915 C916 1.359 . S
C915 C920 1.348 1_554 S
C916 C915 1.359 . S
C916 C917 1.380 . S
C916 H944 0.929 . S
C917 C916 1.380 . S
C917 C918 1.347 . S
C917 H945 0.931 . S
C918 C917 1.347 . S
C918 C919 1.369 1_554 S
C919 C918 1.369 1_556 S
C919 C920 1.408 . S
C919 H946 0.930 . S
C920 C915 1.348 1_556 S
C920 C919 1.408 . S
C920 H947 0.930 . S
C921 O934 1.281 1_556 S
C921 O935 1.254 . S
C922 O936 1.236 . S
C922 O937 1.266 . S
C923 Tb913 2.809 1_655 S
C923 C924 1.514 . S
C923 O938 1.248 . S
C923 O939 1.266 . S
C924 C923 1.514 . S
C924 C925 1.359 . S
C924 C929 1.348 . S
C925 C924 1.359 . S
C925 C926 1.380 . S
C925 H948 0.929 . S
C926 C925 1.380 . S
C926 C927 1.347 . S
C926 H949 0.931 . S
C927 C926 1.347 . S
C927 C928 1.369 . S
C928 C927 1.369 . S
C928 C929 1.408 . S
C928 H950 0.930 . S
C929 C924 1.348 . S
C929 C928 1.408 . S
C929 H951 0.930 . S
C930 O940 1.281 . S
C930 O941 1.254 . S
C931 O942 1.236 . S
C931 O943 1.266 . S
O932 Tb912 2.484 . S
O932 C914 1.248 . S
O933 Tb912 2.440 . S
O933 C914 1.266 . S
O934 Tb912 2.658 . S
O934 Tb913 2.325 . S
O934 C921 1.281 1_554 S
O935 Tb912 2.409 1_556 S
O935 C921 1.254 . S
O936 Tb912 2.378 . S
O936 C922 1.236 . S
O937 Tb913 2.341 . S
O937 C922 1.266 . S
O938 Tb913 2.484 1_655 S
O938 C923 1.248 . S
O939 Tb913 2.440 1_655 S
O939 C923 1.266 . S
O940 Tb912 2.325 . S
O940 Tb913 2.658 . S
O940 C930 1.281 . S
O941 Tb913 2.409 . S
O941 C930 1.254 . S
O942 Tb913 2.378 . S
O942 C931 1.236 . S
O943 Tb912 2.341 . S
O943 C931 1.266 . S
H944 C916 0.929 . S
H945 C917 0.931 . S
H946 C919 0.930 . S
H947 C920 0.930 . S
H948 C925 0.929 . S
H949 C926 0.931 . S
H950 C928 0.930 . S
H951 C929 0.930 . S
C952 C953 1.391 1_554 S
C952 C954 1.394 . S
C952 H968 0.931 . S
C953 C952 1.391 1_556 S
C953 C957 1.371 1_455 S
C954 C952 1.394 . S
C954 C955 1.369 . S
C954 C958 1.531 . S
C955 C954 1.369 . S
C955 C956 1.435 1_554 S
C955 C963 1.503 . S
C956 C955 1.435 1_556 S
C956 C957 1.381 1_455 S
C956 C959 1.498 1_455 S
C957 C953 1.371 1_655 S
C957 C956 1.381 1_655 S
C957 H969 0.937 . S
C958 C954 1.531 . S
C958 H970 0.960 . S
C958 H971 0.962 . S
C958 H972 0.960 . S
C959 C956 1.498 1_655 S
C959 H973 0.961 . S
C959 H974 0.961 . S
C959 H975 0.961 . S
C960 C961 1.370 . S
C960 C962 1.363 . S
C960 H976 0.931 . S
C961 C960 1.370 . S
C961 C965 1.408 . S
C962 C960 1.363 . S
C962 C963 1.370 . S
C962 C966 1.524 1_554 S
C963 C955 1.503 . S
C963 C962 1.370 . S
C963 C964 1.403 . S
C964 C963 1.403 . S
C964 C965 1.404 . S
C964 C967 1.539 1_455 S
C965 C961 1.408 . S
C965 C964 1.404 . S
C965 H977 0.930 . S
C966 C962 1.524 1_556 S
C966 H978 0.956 1_556 S
C966 H979 0.961 . S
C966 H980 0.961 . S
C967 C964 1.539 1_655 S
C967 H981 0.958 . S
C967 H982 0.961 . S
C967 H983 0.960 . S
H968 C952 0.931 . S
H969 C957 0.937 . S
H970 C958 0.960 . S
H971 C958 0.962 . S
H972 C958 0.960 . S
H973 C959 0.961 . S
H974 C959 0.961 . S
H975 C959 0.961 . S
H976 C960 0.931 . S
H977 C965 0.930 . S
H978 C966 0.956 1_554 S
H979 C966 0.961 . S
H980 C966 0.961 . S
H981 C967 0.958 . S
H982 C967 0.961 . S
H983 C967 0.960 . S
C984 C985 1.391 . S
C984 C986 1.394 . S
C984 H1000 0.931 . S
C985 C984 1.391 . S
C985 C989 1.376 . S
C986 C984 1.394 . S
C986 C987 1.369 . S
C986 C990 1.531 . S
C987 C986 1.369 . S
C987 C988 1.410 . S
C987 C995 1.503 . S
C988 C987 1.410 . S
C988 C989 1.392 . S
C988 C991 1.511 . S
C989 C985 1.376 . S
C989 C988 1.392 . S
C989 H1001 0.929 . S
C990 C986 1.531 . S
C990 H1002 0.960 . S
C990 H1003 0.962 . S
C990 H1004 0.960 . S
C991 C988 1.511 . S
C991 H1005 0.961 . S
C991 H1006 0.961 . S
C991 H1007 0.961 . S
C992 C993 1.370 . S
C992 C994 1.363 . S
C992 H1008 0.931 . S
C993 C992 1.370 . S
C993 C997 1.408 . S
C994 C992 1.363 . S
C994 C995 1.370 . S
C994 C998 1.524 . S
C995 C987 1.503 . S
C995 C994 1.370 . S
C995 C996 1.403 . S
C996 C995 1.403 . S
C996 C997 1.404 . S
C996 C999 1.539 . S
C997 C993 1.408 . S
C997 C996 1.404 . S
C997 H1009 0.930 . S
C998 C994 1.524 . S
C998 H1010 0.956 . S
C998 H1011 0.961 . S
C998 H1012 0.961 . S
C999 C996 1.539 . S
C999 H1013 0.958 . S
C999 H1014 0.961 . S
C999 H1015 0.960 . S
H1000 C984 0.931 . S
H1001 C989 0.929 . S
H1002 C990 0.960 . S
H1003 C990 0.962 . S
H1004 C990 0.960 . S
H1005 C991 0.961 . S
H1006 C991 0.961 . S
H1007 C991 0.961 . S
H1008 C992 0.931 . S
H1009 C997 0.930 . S
H1010 C998 0.956 . S
H1011 C998 0.961 . S
H1012 C998 0.961 . S
H1013 C999 0.958 . S
H1014 C999 0.961 . S
H1015 C999 0.960 . S
C1016 C1017 1.391 . S
C1016 C1018 1.394 . S
C1016 H1032 0.931 . S
C1017 C1016 1.391 . S
C1017 C1021 1.376 . S
C1018 C1016 1.394 . S
C1018 C1019 1.369 . S
C1018 C1022 1.531 . S
C1019 C1018 1.369 . S
C1019 C1020 1.410 . S
C1019 C1027 1.503 . S
C1020 C1019 1.410 . S
C1020 C1021 1.392 . S
C1020 C1023 1.511 . S
C1021 C1017 1.376 . S
C1021 C1020 1.392 . S
C1021 H1033 0.929 . S
C1022 C1018 1.531 . S
C1022 H1034 0.960 . S
C1022 H1035 0.962 . S
C1022 H1036 0.960 . S
C1023 C1020 1.511 . S
C1023 H1037 0.961 . S
C1023 H1038 0.961 . S
C1023 H1039 0.961 . S
C1024 C1025 1.370 . S
C1024 C1026 1.363 . S
C1024 H1040 0.931 . S
C1025 C1024 1.370 . S
C1025 C1029 1.408 . S
C1026 C1024 1.363 . S
C1026 C1027 1.370 . S
C1026 C1030 1.524 . S
C1027 C1019 1.503 . S
C1027 C1026 1.370 . S
C1027 C1028 1.403 . S
C1028 C1027 1.403 . S
C1028 C1029 1.404 . S
C1028 C1031 1.539 . S
C1029 C1025 1.408 . S
C1029 C1028 1.404 . S
C1029 H1041 0.930 . S
C1030 C1026 1.524 . S
C1030 H1042 0.956 . S
C1030 H1043 0.961 . S
C1030 H1044 0.961 . S
C1031 C1028 1.539 . S
C1031 H1045 0.958 . S
C1031 H1046 0.961 . S
C1031 H1047 0.960 . S
H1032 C1016 0.931 . S
H1033 C1021 0.929 . S
H1034 C1022 0.960 . S
H1035 C1022 0.962 . S
H1036 C1022 0.960 . S
H1037 C1023 0.961 . S
H1038 C1023 0.961 . S
H1039 C1023 0.961 . S
H1040 C1024 0.931 . S
H1041 C1029 0.930 . S
H1042 C1030 0.956 . S
H1043 C1030 0.961 . S
H1044 C1030 0.961 . S
H1045 C1031 0.958 . S
H1046 C1031 0.961 . S
H1047 C1031 0.960 . S
C1048 C1049 1.391 . S
C1048 C1050 1.394 . S
C1048 H1064 0.931 . S
C1049 C1048 1.391 . S
C1049 C1053 1.376 . S
C1050 C1048 1.394 . S
C1050 C1051 1.369 . S
C1050 C1054 1.531 . S
C1051 C1050 1.369 . S
C1051 C1052 1.410 . S
C1051 C1059 1.503 . S
C1052 C1051 1.410 . S
C1052 C1053 1.392 . S
C1052 C1055 1.511 . S
C1053 C1049 1.376 . S
C1053 C1052 1.392 . S
C1053 H1065 0.929 . S
C1054 C1050 1.531 . S
C1054 H1066 0.960 . S
C1054 H1067 0.962 . S
C1054 H1068 0.960 . S
C1055 C1052 1.511 . S
C1055 H1069 0.961 . S
C1055 H1070 0.961 . S
C1055 H1071 0.961 . S
C1056 C1057 1.370 . S
C1056 C1058 1.363 . S
C1056 H1072 0.931 . S
C1057 C1056 1.370 . S
C1057 C1061 1.408 . S
C1058 C1056 1.363 . S
C1058 C1059 1.370 . S
C1058 C1062 1.524 . S
C1059 C1051 1.503 . S
C1059 C1058 1.370 . S
C1059 C1060 1.403 . S
C1060 C1059 1.403 . S
C1060 C1061 1.404 . S
C1060 C1063 1.539 . S
C1061 C1057 1.408 . S
C1061 C1060 1.404 . S
C1061 H1073 0.930 . S
C1062 C1058 1.524 . S
C1062 H1074 0.956 . S
C1062 H1075 0.961 . S
C1062 H1076 0.961 . S
C1063 C1060 1.539 . S
C1063 H1077 0.958 . S
C1063 H1078 0.961 . S
C1063 H1079 0.960 . S
H1064 C1048 0.931 . S
H1065 C1053 0.929 . S
H1066 C1054 0.960 . S
H1067 C1054 0.962 . S
H1068 C1054 0.960 . S
H1069 C1055 0.961 . S
H1070 C1055 0.961 . S
H1071 C1055 0.961 . S
H1072 C1056 0.931 . S
H1073 C1061 0.930 . S
H1074 C1062 0.956 . S
H1075 C1062 0.961 . S
H1076 C1062 0.961 . S
H1077 C1063 0.958 . S
H1078 C1063 0.961 . S
H1079 C1063 0.960 . S
C1080 C1081 1.391 . S
C1080 C1082 1.394 . S
C1080 H1096 0.931 . S
C1081 C1080 1.391 . S
C1081 C1085 1.376 . S
C1082 C1080 1.394 . S
C1082 C1083 1.369 . S
C1082 C1086 1.531 . S
C1083 C1082 1.369 . S
C1083 C1084 1.410 . S
C1083 C1091 1.503 . S
C1084 C1083 1.410 . S
C1084 C1085 1.392 . S
C1084 C1087 1.511 . S
C1085 C1081 1.376 . S
C1085 C1084 1.392 . S
C1085 H1097 0.929 . S
C1086 C1082 1.531 . S
C1086 H1098 0.960 . S
C1086 H1099 0.962 . S
C1086 H1100 0.960 . S
C1087 C1084 1.511 . S
C1087 H1101 0.961 . S
C1087 H1102 0.961 . S
C1087 H1103 0.961 . S
C1088 C1089 1.370 . S
C1088 C1090 1.363 . S
C1088 H1104 0.931 . S
C1089 C1088 1.370 . S
C1089 C1093 1.408 . S
C1090 C1088 1.363 . S
C1090 C1091 1.370 . S
C1090 C1094 1.524 . S
C1091 C1083 1.503 . S
C1091 C1090 1.370 . S
C1091 C1092 1.403 . S
C1092 C1091 1.403 . S
C1092 C1093 1.404 . S
C1092 C1095 1.539 . S
C1093 C1089 1.408 . S
C1093 C1092 1.404 . S
C1093 H1105 0.930 . S
C1094 C1090 1.524 . S
C1094 H1106 0.956 . S
C1094 H1107 0.961 . S
C1094 H1108 0.961 . S
C1095 C1092 1.539 . S
C1095 H1109 0.958 . S
C1095 H1110 0.961 . S
C1095 H1111 0.960 . S
H1096 C1080 0.931 . S
H1097 C1085 0.929 . S
H1098 C1086 0.960 . S
H1099 C1086 0.962 . S
H1100 C1086 0.960 . S
H1101 C1087 0.961 . S
H1102 C1087 0.961 . S
H1103 C1087 0.961 . S
H1104 C1088 0.931 . S
H1105 C1093 0.930 . S
H1106 C1094 0.956 . S
H1107 C1094 0.961 . S
H1108 C1094 0.961 . S
H1109 C1095 0.958 . S
H1110 C1095 0.961 . S
H1111 C1095 0.960 . S
C1112 C1113 1.391 . S
C1112 C1114 1.394 . S
C1112 H1128 0.931 . S
C1113 C1112 1.391 . S
C1113 C1117 1.376 . S
C1114 C1112 1.394 . S
C1114 C1115 1.369 . S
C1114 C1118 1.531 . S
C1115 C1114 1.369 . S
C1115 C1116 1.410 . S
C1115 C1123 1.503 . S
C1116 C1115 1.410 . S
C1116 C1117 1.392 . S
C1116 C1119 1.511 . S
C1117 C1113 1.376 . S
C1117 C1116 1.392 . S
C1117 H1129 0.929 . S
C1118 C1114 1.531 . S
C1118 H1130 0.960 . S
C1118 H1131 0.962 . S
C1118 H1132 0.960 . S
C1119 C1116 1.511 . S
C1119 H1133 0.961 . S
C1119 H1134 0.961 . S
C1119 H1135 0.961 . S
C1120 C1121 1.370 . S
C1120 C1122 1.363 . S
C1120 H1136 0.931 . S
C1121 C1120 1.370 . S
C1121 C1125 1.408 . S
C1122 C1120 1.363 . S
C1122 C1123 1.370 . S
C1122 C1126 1.524 . S
C1123 C1115 1.503 . S
C1123 C1122 1.370 . S
C1123 C1124 1.403 . S
C1124 C1123 1.403 . S
C1124 C1125 1.404 . S
C1124 C1127 1.539 . S
C1125 C1121 1.408 . S
C1125 C1124 1.404 . S
C1125 H1137 0.930 . S
C1126 C1122 1.524 . S
C1126 H1138 0.956 . S
C1126 H1139 0.961 . S
C1126 H1140 0.961 . S
C1127 C1124 1.539 . S
C1127 H1141 0.958 . S
C1127 H1142 0.961 . S
C1127 H1143 0.960 . S
H1128 C1112 0.931 . S
H1129 C1117 0.929 . S
H1130 C1118 0.960 . S
H1131 C1118 0.962 . S
H1132 C1118 0.960 . S
H1133 C1119 0.961 . S
H1134 C1119 0.961 . S
H1135 C1119 0.961 . S
H1136 C1120 0.931 . S
H1137 C1125 0.930 . S
H1138 C1126 0.956 . S
H1139 C1126 0.961 . S
H1140 C1126 0.961 . S
H1141 C1127 0.958 . S
H1142 C1127 0.961 . S
H1143 C1127 0.960 . S
C1144 C1145 1.391 . S
C1144 C1146 1.394 . S
C1144 H1160 0.931 . S
C1145 C1144 1.391 . S
C1145 C1149 1.376 . S
C1146 C1144 1.394 . S
C1146 C1147 1.369 . S
C1146 C1150 1.531 . S
C1147 C1146 1.369 . S
C1147 C1148 1.410 . S
C1147 C1155 1.503 . S
C1148 C1147 1.410 . S
C1148 C1149 1.392 . S
C1148 C1151 1.511 . S
C1149 C1145 1.376 . S
C1149 C1148 1.392 . S
C1149 H1161 0.929 . S
C1150 C1146 1.531 . S
C1150 H1162 0.960 . S
C1150 H1163 0.962 . S
C1150 H1164 0.960 . S
C1151 C1148 1.511 . S
C1151 H1165 0.961 . S
C1151 H1166 0.961 . S
C1151 H1167 0.961 . S
C1152 C1153 1.370 . S
C1152 C1154 1.363 . S
C1152 H1168 0.931 . S
C1153 C1152 1.370 . S
C1153 C1157 1.408 . S
C1154 C1152 1.363 . S
C1154 C1155 1.370 . S
C1154 C1158 1.524 . S
C1155 C1147 1.503 . S
C1155 C1154 1.370 . S
C1155 C1156 1.403 . S
C1156 C1155 1.403 . S
C1156 C1157 1.404 . S
C1156 C1159 1.539 . S
C1157 C1153 1.408 . S
C1157 C1156 1.404 . S
C1157 H1169 0.930 . S
C1158 C1154 1.524 . S
C1158 H1170 0.956 . S
C1158 H1171 0.961 . S
C1158 H1172 0.961 . S
C1159 C1156 1.539 . S
C1159 H1173 0.958 . S
C1159 H1174 0.961 . S
C1159 H1175 0.960 . S
H1160 C1144 0.931 . S
H1161 C1149 0.929 . S
H1162 C1150 0.960 . S
H1163 C1150 0.962 . S
H1164 C1150 0.960 . S
H1165 C1151 0.961 . S
H1166 C1151 0.961 . S
H1167 C1151 0.961 . S
H1168 C1152 0.931 . S
H1169 C1157 0.930 . S
H1170 C1158 0.956 . S
H1171 C1158 0.961 . S
H1172 C1158 0.961 . S
H1173 C1159 0.958 . S
H1174 C1159 0.961 . S
H1175 C1159 0.960 . S
C1176 C1177 1.391 . S
C1176 C1178 1.394 . S
C1176 H1192 0.931 . S
C1177 C1176 1.391 . S
C1177 C1181 1.376 . S
C1178 C1176 1.394 . S
C1178 C1179 1.369 . S
C1178 C1182 1.531 . S
C1179 C1178 1.369 . S
C1179 C1180 1.410 . S
C1179 C1187 1.503 . S
C1180 C1179 1.410 . S
C1180 C1181 1.392 . S
C1180 C1183 1.511 . S
C1181 C1177 1.376 . S
C1181 C1180 1.392 . S
C1181 H1193 0.929 . S
C1182 C1178 1.531 . S
C1182 H1194 0.960 . S
C1182 H1195 0.962 . S
C1182 H1196 0.960 . S
C1183 C1180 1.511 . S
C1183 H1197 0.961 . S
C1183 H1198 0.961 . S
C1183 H1199 0.961 . S
C1184 C1185 1.370 . S
C1184 C1186 1.363 . S
C1184 H1200 0.931 . S
C1185 C1184 1.370 . S
C1185 C1189 1.408 . S
C1186 C1184 1.363 . S
C1186 C1187 1.370 . S
C1186 C1190 1.524 . S
C1187 C1179 1.503 . S
C1187 C1186 1.370 . S
C1187 C1188 1.403 . S
C1188 C1187 1.403 . S
C1188 C1189 1.404 . S
C1188 C1191 1.539 . S
C1189 C1185 1.408 . S
C1189 C1188 1.404 . S
C1189 H1201 0.930 . S
C1190 C1186 1.524 . S
C1190 H1202 0.956 . S
C1190 H1203 0.961 . S
C1190 H1204 0.961 . S
C1191 C1188 1.539 . S
C1191 H1205 0.958 . S
C1191 H1206 0.961 . S
C1191 H1207 0.960 . S
H1192 C1176 0.931 . S
H1193 C1181 0.929 . S
H1194 C1182 0.960 . S
H1195 C1182 0.962 . S
H1196 C1182 0.960 . S
H1197 C1183 0.961 . S
H1198 C1183 0.961 . S
H1199 C1183 0.961 . S
H1200 C1184 0.931 . S
H1201 C1189 0.930 . S
H1202 C1190 0.956 . S
H1203 C1190 0.961 . S
H1204 C1190 0.961 . S
H1205 C1191 0.958 . S
H1206 C1191 0.961 . S
H1207 C1191 0.960 . S
C1208 C1209 1.391 . S
C1208 C1210 1.394 . S
C1208 H1224 0.931 . S
C1209 C1208 1.391 . S
C1209 C1213 1.376 1_545 S
C1210 C1208 1.394 . S
C1210 C1211 1.369 . S
C1210 C1214 1.531 . S
C1211 C1210 1.369 . S
C1211 C1212 1.410 1_545 S
C1211 C1219 1.503 . S
C1212 C1211 1.410 1_565 S
C1212 C1213 1.392 . S
C1212 C1215 1.511 1_655 S
C1213 C1209 1.376 1_565 S
C1213 C1212 1.392 . S
C1213 H1225 0.929 . S
C1214 C1210 1.531 . S
C1214 H1226 0.960 . S
C1214 H1227 0.962 . S
C1214 H1228 0.960 . S
C1215 C1212 1.511 1_455 S
C1215 H1229 0.961 . S
C1215 H1230 0.961 . S
C1215 H1231 0.961 . S
C1216 C1217 1.370 1_655 S
C1216 C1218 1.362 1_545 S
C1216 H1232 0.931 1_545 S
C1217 C1216 1.370 1_455 S
C1217 C1221 1.408 . S
C1218 C1216 1.362 1_565 S
C1218 C1219 1.368 1_565 S
C1218 C1222 1.527 . S
C1219 C1211 1.503 . S
C1219 C1218 1.368 1_545 S
C1219 C1220 1.403 1_655 S
C1220 C1219 1.403 1_455 S
C1220 C1221 1.404 . S
C1220 C1223 1.539 . S
C1221 C1217 1.408 . S
C1221 C1220 1.404 . S
C1221 H1233 0.930 . S
C1222 C1218 1.527 . S
C1222 H1234 0.956 . S
C1222 H1235 0.961 . S
C1222 H1236 0.961 . S
C1223 C1220 1.539 . S
C1223 H1237 0.958 . S
C1223 H1238 0.961 . S
C1223 H1239 0.960 . S
H1224 C1208 0.931 . S
H1225 C1213 0.929 . S
H1226 C1214 0.960 . S
H1227 C1214 0.962 . S
H1228 C1214 0.960 . S
H1229 C1215 0.961 . S
H1230 C1215 0.961 . S
H1231 C1215 0.961 . S
H1232 C1216 0.931 1_565 S
H1233 C1221 0.930 . S
H1234 C1222 0.956 . S
H1235 C1222 0.961 . S
H1236 C1222 0.961 . S
H1237 C1223 0.958 . S
H1238 C1223 0.961 . S
H1239 C1223 0.960 . S
C1240 C1241 1.391 . S
C1240 C1242 1.394 . S
C1240 H1256 0.931 . S
C1241 C1240 1.391 . S
C1241 C1245 1.376 . S
C1242 C1240 1.394 . S
C1242 C1243 1.369 . S
C1242 C1246 1.531 . S
C1243 C1242 1.369 . S
C1243 C1244 1.410 . S
C1243 C1251 1.503 . S
C1244 C1243 1.410 . S
C1244 C1245 1.392 . S
C1244 C1247 1.511 . S
C1245 C1241 1.376 . S
C1245 C1244 1.392 . S
C1245 H1257 0.929 . S
C1246 C1242 1.531 . S
C1246 H1258 0.960 . S
C1246 H1259 0.962 . S
C1246 H1260 0.960 . S
C1247 C1244 1.511 . S
C1247 H1261 0.961 . S
C1247 H1262 0.961 . S
C1247 H1263 0.961 . S
C1248 C1249 1.370 . S
C1248 C1250 1.363 . S
C1248 H1264 0.931 . S
C1249 C1248 1.370 . S
C1249 C1253 1.408 . S
C1250 C1248 1.363 . S
C1250 C1251 1.370 . S
C1250 C1254 1.524 . S
C1251 C1243 1.503 . S
C1251 C1250 1.370 . S
C1251 C1252 1.403 . S
C1252 C1251 1.403 . S
C1252 C1253 1.404 . S
C1252 C1255 1.539 . S
C1253 C1249 1.408 . S
C1253 C1252 1.404 . S
C1253 H1265 0.930 . S
C1254 C1250 1.524 . S
C1254 H1266 0.956 . S
C1254 H1267 0.961 . S
C1254 H1268 0.961 . S
C1255 C1252 1.539 . S
C1255 H1269 0.958 . S
C1255 H1270 0.961 . S
C1255 H1271 0.960 . S
H1256 C1240 0.931 . S
H1257 C1245 0.929 . S
H1258 C1246 0.960 . S
H1259 C1246 0.962 . S
H1260 C1246 0.960 . S
H1261 C1247 0.961 . S
H1262 C1247 0.961 . S
H1263 C1247 0.961 . S
H1264 C1248 0.931 . S
H1265 C1253 0.930 . S
H1266 C1254 0.956 . S
H1267 C1254 0.961 . S
H1268 C1254 0.961 . S
H1269 C1255 0.958 . S
H1270 C1255 0.961 . S
H1271 C1255 0.960 . S
C1272 C1273 1.391 . S
C1272 C1274 1.394 . S
C1272 H1288 0.931 . S
C1273 C1272 1.391 . S
C1273 C1277 1.376 . S
C1274 C1272 1.394 . S
C1274 C1275 1.369 . S
C1274 C1278 1.531 . S
C1275 C1274 1.369 . S
C1275 C1276 1.410 . S
C1275 C1283 1.503 . S
C1276 C1275 1.410 . S
C1276 C1277 1.392 . S
C1276 C1279 1.511 1_545 S
C1277 C1273 1.376 . S
C1277 C1276 1.392 . S
C1277 H1289 0.929 1_545 S
C1278 C1274 1.531 . S
C1278 H1290 0.960 . S
C1278 H1291 0.962 . S
C1278 H1292 0.960 . S
C1279 C1276 1.511 1_565 S
C1279 H1293 0.961 . S
C1279 H1294 0.961 . S
C1279 H1295 0.970 . S
C1280 C1281 1.370 . S
C1280 C1282 1.363 . S
C1280 H1296 0.931 1_545 S
C1281 C1280 1.370 . S
C1281 C1285 1.408 . S
C1282 C1280 1.363 . S
C1282 C1283 1.370 . S
C1282 C1286 1.524 1_545 S
C1283 C1275 1.503 . S
C1283 C1282 1.370 . S
C1283 C1284 1.403 . S
C1284 C1283 1.403 . S
C1284 C1285 1.404 . S
C1284 C1287 1.539 . S
C1285 C1281 1.408 . S
C1285 C1284 1.404 . S
C1285 H1297 0.930 . S
C1286 C1282 1.524 1_565 S
C1286 H1298 0.956 . S
C1286 H1299 0.961 . S
C1286 H1300 0.961 . S
C1287 C1284 1.539 . S
C1287 H1301 0.958 . S
C1287 H1302 0.961 . S
C1287 H1303 0.960 . S
H1288 C1272 0.931 . S
H1289 C1277 0.929 1_565 S
H1290 C1278 0.960 . S
H1291 C1278 0.962 . S
H1292 C1278 0.960 . S
H1293 C1279 0.961 . S
H1294 C1279 0.961 . S
H1295 C1279 0.970 . S
H1296 C1280 0.931 1_565 S
H1297 C1285 0.930 . S
H1298 C1286 0.956 . S
H1299 C1286 0.961 . S
H1300 C1286 0.961 . S
H1301 C1287 0.958 . S
H1302 C1287 0.961 . S
H1303 C1287 0.960 . S
C1304 C1305 1.391 . S
C1304 C1306 1.394 . S
C1304 H1320 0.931 . S
C1305 C1304 1.391 . S
C1305 C1309 1.376 . S
C1306 C1304 1.394 . S
C1306 C1307 1.369 . S
C1306 C1310 1.531 . S
C1307 C1306 1.369 . S
C1307 C1308 1.410 . S
C1307 C1315 1.503 . S
C1308 C1307 1.410 . S
C1308 C1309 1.392 . S
C1308 C1311 1.511 . S
C1309 C1305 1.376 . S
C1309 C1308 1.392 . S
C1309 H1321 0.929 . S
C1310 C1306 1.531 . S
C1310 H1322 0.960 . S
C1310 H1323 0.962 . S
C1310 H1324 0.960 . S
C1311 C1308 1.511 . S
C1311 H1325 0.961 . S
C1311 H1326 0.961 . S
C1311 H1327 0.961 . S
C1312 C1313 1.370 . S
C1312 C1314 1.363 . S
C1312 H1328 0.931 . S
C1313 C1312 1.370 . S
C1313 C1317 1.408 . S
C1314 C1312 1.363 . S
C1314 C1315 1.370 . S
C1314 C1318 1.524 . S
C1315 C1307 1.503 . S
C1315 C1314 1.370 . S
C1315 C1316 1.403 . S
C1316 C1315 1.403 . S
C1316 C1317 1.404 . S
C1316 C1319 1.539 . S
C1317 C1313 1.408 . S
C1317 C1316 1.404 . S
C1317 H1329 0.930 . S
C1318 C1314 1.524 . S
C1318 H1330 0.956 . S
C1318 H1331 0.961 . S
C1318 H1332 0.961 . S
C1319 C1316 1.539 . S
C1319 H1333 0.958 . S
C1319 H1334 0.961 . S
C1319 H1335 0.960 . S
H1320 C1304 0.931 . S
H1321 C1309 0.929 . S
H1322 C1310 0.960 . S
H1323 C1310 0.962 . S
H1324 C1310 0.960 . S
H1325 C1311 0.961 . S
H1326 C1311 0.961 . S
H1327 C1311 0.961 . S
H1328 C1312 0.931 . S
H1329 C1317 0.930 . S
H1330 C1318 0.956 . S
H1331 C1318 0.961 . S
H1332 C1318 0.961 . S
H1333 C1319 0.958 . S
H1334 C1319 0.961 . S
H1335 C1319 0.960 . S
C1336 C1337 1.391 . S
C1336 C1338 1.394 . S
C1336 H1352 0.930 . S
C1337 C1336 1.391 . S
C1337 C1341 1.376 . S
C1338 C1336 1.394 . S
C1338 C1339 1.369 . S
C1338 C1342 1.531 1_545 S
C1339 C1338 1.369 . S
C1339 C1340 1.453 . S
C1339 C1347 1.503 . S
C1340 C1339 1.453 . S
C1340 C1341 1.407 . S
C1340 C1343 1.456 1_655 S
C1341 C1337 1.376 . S
C1341 C1340 1.407 . S
C1341 H1353 0.936 . S
C1342 C1338 1.531 1_565 S
C1342 H1354 0.960 . S
C1342 H1355 0.962 1_565 S
C1342 H1356 0.960 . S
C1343 C1340 1.456 1_455 S
C1343 H1357 0.961 . S
C1343 H1358 0.961 . S
C1343 H1359 0.965 1_545 S
C1344 C1345 1.370 . S
C1344 C1346 1.363 1_455 S
C1344 H1360 0.931 . S
C1345 C1344 1.370 . S
C1345 C1349 1.408 1_545 S
C1346 C1344 1.363 1_655 S
C1346 C1347 1.370 . S
C1346 C1350 1.524 . S
C1347 C1339 1.503 . S
C1347 C1346 1.370 . S
C1347 C1348 1.403 1_545 S
C1348 C1347 1.403 1_565 S
C1348 C1349 1.404 1_655 S
C1348 C1351 1.539 . S
C1349 C1345 1.408 1_565 S
C1349 C1348 1.404 1_455 S
C1349 H1361 0.930 . S
C1350 C1346 1.524 . S
C1350 H1362 0.956 . S
C1350 H1363 0.961 1_655 S
C1350 H1364 0.961 1_655 S
C1351 C1348 1.539 . S
C1351 H1365 0.958 . S
C1351 H1366 0.961 1_655 S
C1351 H1367 0.960 . S
H1352 C1336 0.930 . S
H1353 C1341 0.936 . S
H1354 C1342 0.960 . S
H1355 C1342 0.962 1_545 S
H1356 C1342 0.960 . S
H1357 C1343 0.961 . S
H1358 C1343 0.961 . S
H1359 C1343 0.965 1_565 S
H1360 C1344 0.931 . S
H1361 C1349 0.930 . S
H1362 C1350 0.956 . S
H1363 C1350 0.961 1_455 S
H1364 C1350 0.961 1_455 S
H1365 C1351 0.958 . S
H1366 C1351 0.961 1_455 S
H1367 C1351 0.960 . S
C1368 C1369 1.391 . S
C1368 C1370 1.394 . S
C1368 H1384 0.931 . S
C1369 C1368 1.391 . S
C1369 C1373 1.376 . S
C1370 C1368 1.394 . S
C1370 C1371 1.369 . S
C1370 C1374 1.531 . S
C1371 C1370 1.369 . S
C1371 C1372 1.410 . S
C1371 C1379 1.503 . S
C1372 C1371 1.410 . S
C1372 C1373 1.392 . S
C1372 C1375 1.511 . S
C1373 C1369 1.376 . S
C1373 C1372 1.392 . S
C1373 H1385 0.929 . S
C1374 C1370 1.531 . S
C1374 H1386 0.960 . S
C1374 H1387 0.962 . S
C1374 H1388 0.960 . S
C1375 C1372 1.511 . S
C1375 H1389 0.961 . S
C1375 H1390 0.961 . S
C1375 H1391 0.961 . S
C1376 C1377 1.370 . S
C1376 C1378 1.363 . S
C1376 H1392 0.931 . S
C1377 C1376 1.370 . S
C1377 C1381 1.408 . S
C1378 C1376 1.363 . S
C1378 C1379 1.370 . S
C1378 C1382 1.524 . S
C1379 C1371 1.503 . S
C1379 C1378 1.370 . S
C1379 C1380 1.403 . S
C1380 C1379 1.403 . S
C1380 C1381 1.404 . S
C1380 C1383 1.539 . S
C1381 C1377 1.408 . S
C1381 C1380 1.404 . S
C1381 H1393 0.930 . S
C1382 C1378 1.524 . S
C1382 H1394 0.956 . S
C1382 H1395 0.961 . S
C1382 H1396 0.961 . S
C1383 C1380 1.539 . S
C1383 H1397 0.958 . S
C1383 H1398 0.961 . S
C1383 H1399 0.960 . S
H1384 C1368 0.931 . S
H1385 C1373 0.929 . S
H1386 C1374 0.960 . S
H1387 C1374 0.962 . S
H1388 C1374 0.960 . S
H1389 C1375 0.961 . S
H1390 C1375 0.961 . S
H1391 C1375 0.961 . S
H1392 C1376 0.931 . S
H1393 C1381 0.930 . S
H1394 C1382 0.956 . S
H1395 C1382 0.961 . S
H1396 C1382 0.961 . S
H1397 C1383 0.958 . S
H1398 C1383 0.961 . S
H1399 C1383 0.960 . S
C1400 C1401 1.391 . S
C1400 C1402 1.394 . S
C1400 H1416 0.931 . S
C1401 C1400 1.391 . S
C1401 C1405 1.343 1_545 S
C1402 C1400 1.394 . S
C1402 C1403 1.369 . S
C1402 C1406 1.531 . S
C1403 C1402 1.369 . S
C1403 C1404 1.410 . S
C1403 C1411 1.503 . S
C1404 C1403 1.410 . S
C1404 C1405 1.387 1_545 S
C1404 C1407 1.511 1_545 S
C1405 C1401 1.343 1_565 S
C1405 C1404 1.387 1_565 S
C1405 H1417 0.969 . S
C1406 C1402 1.531 . S
C1406 H1418 0.960 . S
C1406 H1419 0.962 . S
C1406 H1420 0.960 . S
C1407 C1404 1.511 1_565 S
C1407 H1421 0.961 . S
C1407 H1422 0.961 . S
C1407 H1423 0.961 . S
C1408 C1409 1.370 . S
C1408 C1410 1.363 . S
C1408 H1424 0.931 1_556 S
C1409 C1408 1.370 . S
C1409 C1413 1.408 . S
C1410 C1408 1.363 . S
C1410 C1411 1.370 . S
C1410 C1414 1.524 . S
C1411 C1403 1.503 . S
C1411 C1410 1.370 . S
C1411 C1412 1.403 . S
C1412 C1411 1.403 . S
C1412 C1413 1.404 . S
C1412 C1415 1.539 . S
C1413 C1409 1.408 . S
C1413 C1412 1.404 . S
C1413 H1425 0.930 . S
C1414 C1410 1.524 . S
C1414 H1426 0.956 . S
C1414 H1427 0.961 . S
C1414 H1428 0.961 . S
C1415 C1412 1.539 . S
C1415 H1429 0.958 . S
C1415 H1430 0.961 . S
C1415 H1431 0.960 . S
H1416 C1400 0.931 . S
H1417 C1405 0.969 . S
H1418 C1406 0.960 . S
H1419 C1406 0.962 . S
H1420 C1406 0.960 . S
H1421 C1407 0.961 . S
H1422 C1407 0.961 . S
H1423 C1407 0.961 . S
H1424 C1408 0.931 1_554 S
H1425 C1413 0.930 . S
H1426 C1414 0.956 . S
H1427 C1414 0.961 . S
H1428 C1414 0.961 . S
H1429 C1415 0.958 . S
H1430 C1415 0.961 . S
H1431 C1415 0.960 . S
C1432 C1433 1.391 . S
C1432 C1434 1.394 . S
C1432 H1448 0.931 . S
C1433 C1432 1.391 . S
C1433 C1437 1.376 . S
C1434 C1432 1.394 . S
C1434 C1435 1.369 . S
C1434 C1438 1.531 . S
C1435 C1434 1.369 . S
C1435 C1436 1.410 . S
C1435 C1443 1.503 . S
C1436 C1435 1.410 . S
C1436 C1437 1.392 . S
C1436 C1439 1.511 . S
C1437 C1433 1.376 . S
C1437 C1436 1.392 . S
C1437 H1449 0.929 . S
C1438 C1434 1.531 . S
C1438 H1450 0.960 . S
C1438 H1451 0.962 . S
C1438 H1452 0.960 . S
C1439 C1436 1.511 . S
C1439 H1453 0.961 . S
C1439 H1454 0.961 . S
C1439 H1455 0.961 . S
C1440 C1441 1.370 . S
C1440 C1442 1.363 . S
C1440 H1456 0.931 . S
C1441 C1440 1.370 . S
C1441 C1445 1.408 . S
C1442 C1440 1.363 . S
C1442 C1443 1.370 . S
C1442 C1446 1.524 . S
C1443 C1435 1.503 . S
C1443 C1442 1.370 . S
C1443 C1444 1.403 . S
C1444 C1443 1.403 . S
C1444 C1445 1.404 . S
C1444 C1447 1.539 . S
C1445 C1441 1.408 . S
C1445 C1444 1.404 . S
C1445 H1457 0.930 . S
C1446 C1442 1.524 . S
C1446 H1458 0.956 . S
C1446 H1459 0.961 . S
C1446 H1460 0.961 . S
C1447 C1444 1.539 . S
C1447 H1461 0.958 . S
C1447 H1462 0.961 . S
C1447 H1463 0.960 . S
H1448 C1432 0.931 . S
H1449 C1437 0.929 . S
H1450 C1438 0.960 . S
H1451 C1438 0.962 . S
H1452 C1438 0.960 . S
H1453 C1439 0.961 . S
H1454 C1439 0.961 . S
H1455 C1439 0.961 . S
H1456 C1440 0.931 . S
H1457 C1445 0.930 . S
H1458 C1446 0.956 . S
H1459 C1446 0.961 . S
H1460 C1446 0.961 . S
H1461 C1447 0.958 . S
H1462 C1447 0.961 . S
H1463 C1447 0.960 . S
C1464 C1465 1.391 . S
C1464 C1466 1.394 . S
C1464 H1480 0.931 . S
C1465 C1464 1.391 . S
C1465 C1469 1.365 1_554 S
C1466 C1464 1.394 . S
C1466 C1467 1.369 . S
C1466 C1470 1.531 . S
C1467 C1466 1.369 . S
C1467 C1468 1.410 . S
C1467 C1475 1.503 . S
C1468 C1467 1.410 . S
C1468 C1469 1.372 1_554 S
C1468 C1471 1.511 . S
C1469 C1465 1.365 1_556 S
C1469 C1468 1.372 1_556 S
C1469 H1481 0.962 . S
C1470 C1466 1.531 . S
C1470 H1482 0.960 . S
C1470 H1483 0.962 . S
C1470 H1484 0.960 . S
C1471 C1468 1.511 . S
C1471 H1485 0.961 1_554 S
C1471 H1486 0.961 . S
C1471 H1487 0.961 . S
C1472 C1473 1.370 . S
C1472 C1474 1.363 . S
C1472 H1488 0.931 . S
C1473 C1472 1.370 . S
C1473 C1477 1.408 . S
C1474 C1472 1.363 . S
C1474 C1475 1.370 . S
C1474 C1478 1.524 . S
C1475 C1467 1.503 . S
C1475 C1474 1.370 . S
C1475 C1476 1.403 . S
C1476 C1475 1.403 . S
C1476 C1477 1.404 . S
C1476 C1479 1.539 . S
C1477 C1473 1.408 . S
C1477 C1476 1.404 . S
C1477 H1489 0.930 . S
C1478 C1474 1.524 . S
C1478 H1490 0.956 . S
C1478 H1491 0.961 1_554 S
C1478 H1492 0.961 . S
C1479 C1476 1.539 . S
C1479 H1493 0.958 . S
C1479 H1494 0.961 . S
C1479 H1495 0.960 . S
H1480 C1464 0.931 . S
H1481 C1469 0.962 . S
H1482 C1470 0.960 . S
H1483 C1470 0.962 . S
H1484 C1470 0.960 . S
H1485 C1471 0.961 1_556 S
H1486 C1471 0.961 . S
H1487 C1471 0.961 . S
H1488 C1472 0.931 . S
H1489 C1477 0.930 . S
H1490 C1478 0.956 . S
H1491 C1478 0.961 1_556 S
H1492 C1478 0.961 . S
H1493 C1479 0.958 . S
H1494 C1479 0.961 . S
H1495 C1479 0.960 . S
C1496 C1497 1.391 . S
C1496 C1498 1.394 . S
C1496 H1512 0.931 . S
C1497 C1496 1.391 . S
C1497 C1501 1.376 . S
C1498 C1496 1.394 . S
C1498 C1499 1.369 . S
C1498 C1502 1.531 . S
C1499 C1498 1.369 . S
C1499 C1500 1.410 . S
C1499 C1507 1.503 . S
C1500 C1499 1.410 . S
C1500 C1501 1.392 . S
C1500 C1503 1.511 . S
C1501 C1497 1.376 . S
C1501 C1500 1.392 . S
C1501 H1513 0.929 . S
C1502 C1498 1.531 . S
C1502 H1514 0.960 . S
C1502 H1515 0.962 . S
C1502 H1516 0.960 . S
C1503 C1500 1.511 . S
C1503 H1517 0.961 . S
C1503 H1518 0.961 . S
C1503 H1519 0.961 . S
C1504 C1505 1.370 . S
C1504 C1506 1.363 . S
C1504 H1520 0.931 . S
C1505 C1504 1.370 . S
C1505 C1509 1.408 . S
C1506 C1504 1.363 . S
C1506 C1507 1.370 . S
C1506 C1510 1.524 . S
C1507 C1499 1.503 . S
C1507 C1506 1.370 . S
C1507 C1508 1.403 . S
C1508 C1507 1.403 . S
C1508 C1509 1.404 . S
C1508 C1511 1.539 1_554 S
C1509 C1505 1.408 . S
C1509 C1508 1.404 . S
C1509 H1521 0.930 . S
C1510 C1506 1.524 . S
C1510 H1522 0.956 . S
C1510 H1523 0.961 . S
C1510 H1524 0.961 . S
C1511 C1508 1.539 1_556 S
C1511 H1525 0.958 . S
C1511 H1526 0.961 . S
C1511 H1527 0.960 . S
H1512 C1496 0.931 . S
H1513 C1501 0.929 . S
H1514 C1502 0.960 . S
H1515 C1502 0.962 . S
H1516 C1502 0.960 . S
H1517 C1503 0.961 . S
H1518 C1503 0.961 . S
H1519 C1503 0.961 . S
H1520 C1504 0.931 . S
H1521 C1509 0.930 . S
H1522 C1510 0.956 . S
H1523 C1510 0.961 . S
H1524 C1510 0.961 . S
H1525 C1511 0.958 . S
H1526 C1511 0.961 . S
H1527 C1511 0.960 . S
C1528 C1529 1.391 . S
C1528 C1530 1.394 . S
C1528 H1544 0.931 . S
C1529 C1528 1.391 . S
C1529 C1533 1.376 . S
C1530 C1528 1.394 . S
C1530 C1531 1.369 . S
C1530 C1534 1.531 . S
C1531 C1530 1.369 . S
C1531 C1532 1.410 . S
C1531 C1539 1.503 . S
C1532 C1531 1.410 . S
C1532 C1533 1.392 . S
C1532 C1535 1.511 . S
C1533 C1529 1.376 . S
C1533 C1532 1.392 . S
C1533 H1545 0.929 . S
C1534 C1530 1.531 . S
C1534 H1546 0.960 . S
C1534 H1547 0.962 . S
C1534 H1548 0.960 . S
C1535 C1532 1.511 . S
C1535 H1549 0.961 . S
C1535 H1550 0.961 . S
C1535 H1551 0.961 . S
C1536 C1537 1.370 . S
C1536 C1538 1.363 . S
C1536 H1552 0.931 . S
C1537 C1536 1.370 . S
C1537 C1541 1.408 . S
C1538 C1536 1.363 . S
C1538 C1539 1.370 . S
C1538 C1542 1.524 . S
C1539 C1531 1.503 . S
C1539 C1538 1.370 . S
C1539 C1540 1.403 . S
C1540 C1539 1.403 . S
C1540 C1541 1.404 . S
C1540 C1543 1.539 . S
C1541 C1537 1.408 . S
C1541 C1540 1.404 . S
C1541 H1553 0.930 . S
C1542 C1538 1.524 . S
C1542 H1554 0.956 . S
C1542 H1555 0.961 . S
C1542 H1556 0.961 . S
C1543 C1540 1.539 . S
C1543 H1557 0.958 . S
C1543 H1558 0.961 . S
C1543 H1559 0.960 . S
H1544 C1528 0.931 . S
H1545 C1533 0.929 . S
H1546 C1534 0.960 . S
H1547 C1534 0.962 . S
H1548 C1534 0.960 . S
H1549 C1535 0.961 . S
H1550 C1535 0.961 . S
H1551 C1535 0.961 . S
H1552 C1536 0.931 . S
H1553 C1541 0.930 . S
H1554 C1542 0.956 . S
H1555 C1542 0.961 . S
H1556 C1542 0.961 . S
H1557 C1543 0.958 . S
H1558 C1543 0.961 . S
H1559 C1543 0.960 . S
C1560 C1561 1.391 . S
C1560 C1562 1.394 . S
C1560 H1576 0.931 . S
C1561 C1560 1.391 . S
C1561 C1565 1.376 . S
C1562 C1560 1.394 . S
C1562 C1563 1.369 . S
C1562 C1566 1.531 . S
C1563 C1562 1.369 . S
C1563 C1564 1.410 . S
C1563 C1571 1.503 . S
C1564 C1563 1.410 . S
C1564 C1565 1.392 . S
C1564 C1567 1.511 . S
C1565 C1561 1.376 . S
C1565 C1564 1.392 . S
C1565 H1577 0.929 . S
C1566 C1562 1.531 . S
C1566 H1578 0.960 . S
C1566 H1579 0.962 . S
C1566 H1580 0.960 . S
C1567 C1564 1.511 . S
C1567 H1581 0.961 . S
C1567 H1582 0.961 . S
C1567 H1583 0.961 . S
C1568 C1569 1.370 . S
C1568 C1570 1.363 . S
C1568 H1584 0.931 . S
C1569 C1568 1.370 . S
C1569 C1573 1.408 . S
C1570 C1568 1.363 . S
C1570 C1571 1.370 . S
C1570 C1574 1.524 . S
C1571 C1563 1.503 . S
C1571 C1570 1.370 . S
C1571 C1572 1.403 . S
C1572 C1571 1.403 . S
C1572 C1573 1.404 . S
C1572 C1575 1.539 . S
C1573 C1569 1.408 . S
C1573 C1572 1.404 . S
C1573 H1585 0.930 . S
C1574 C1570 1.524 . S
C1574 H1586 0.956 . S
C1574 H1587 0.961 . S
C1574 H1588 0.961 . S
C1575 C1572 1.539 . S
C1575 H1589 0.958 . S
C1575 H1590 0.961 . S
C1575 H1591 0.960 . S
H1576 C1560 0.931 . S
H1577 C1565 0.929 . S
H1578 C1566 0.960 . S
H1579 C1566 0.962 . S
H1580 C1566 0.960 . S
H1581 C1567 0.961 . S
H1582 C1567 0.961 . S
H1583 C1567 0.961 . S
H1584 C1568 0.931 . S
H1585 C1573 0.930 . S
H1586 C1574 0.956 . S
H1587 C1574 0.961 . S
H1588 C1574 0.961 . S
H1589 C1575 0.958 . S
H1590 C1575 0.961 . S
H1591 C1575 0.960 . S
C1592 C1593 1.391 . S
C1592 C1594 1.394 . S
C1592 H1608 0.931 . S
C1593 C1592 1.391 . S
C1593 C1597 1.376 . S
C1594 C1592 1.394 . S
C1594 C1595 1.369 . S
C1594 C1598 1.531 . S
C1595 C1594 1.369 . S
C1595 C1596 1.410 . S
C1595 C1603 1.503 . S
C1596 C1595 1.410 . S
C1596 C1597 1.392 . S
C1596 C1599 1.511 . S
C1597 C1593 1.376 . S
C1597 C1596 1.392 . S
C1597 H1609 0.929 . S
C1598 C1594 1.531 . S
C1598 H1610 0.960 . S
C1598 H1611 0.962 . S
C1598 H1612 0.960 . S
C1599 C1596 1.511 . S
C1599 H1613 0.961 . S
C1599 H1614 0.961 . S
C1599 H1615 0.961 . S
C1600 C1601 1.370 . S
C1600 C1602 1.363 . S
C1600 H1616 0.931 . S
C1601 C1600 1.370 . S
C1601 C1605 1.408 . S
C1602 C1600 1.363 . S
C1602 C1603 1.370 . S
C1602 C1606 1.524 . S
C1603 C1595 1.503 . S
C1603 C1602 1.370 . S
C1603 C1604 1.403 . S
C1604 C1603 1.403 . S
C1604 C1605 1.404 . S
C1604 C1607 1.539 . S
C1605 C1601 1.408 . S
C1605 C1604 1.404 . S
C1605 H1617 0.930 . S
C1606 C1602 1.524 . S
C1606 H1618 0.956 . S
C1606 H1619 0.961 . S
C1606 H1620 0.961 . S
C1607 C1604 1.539 . S
C1607 H1621 0.958 . S
C1607 H1622 0.961 . S
C1607 H1623 0.960 . S
H1608 C1592 0.931 . S
H1609 C1597 0.929 . S
H1610 C1598 0.960 . S
H1611 C1598 0.962 . S
H1612 C1598 0.960 . S
H1613 C1599 0.961 . S
H1614 C1599 0.961 . S
H1615 C1599 0.961 . S
H1616 C1600 0.931 . S
H1617 C1605 0.930 . S
H1618 C1606 0.956 . S
H1619 C1606 0.961 . S
H1620 C1606 0.961 . S
H1621 C1607 0.958 . S
H1622 C1607 0.961 . S
H1623 C1607 0.960 . S
C1624 C1625 1.391 . S
C1624 C1626 1.394 . S
C1624 H1640 0.931 . S
C1625 C1624 1.391 . S
C1625 C1629 1.376 . S
C1626 C1624 1.394 . S
C1626 C1627 1.369 . S
C1626 C1630 1.531 . S
C1627 C1626 1.369 . S
C1627 C1628 1.410 . S
C1627 C1635 1.503 . S
C1628 C1627 1.410 . S
C1628 C1629 1.392 . S
C1628 C1631 1.511 . S
C1629 C1625 1.376 . S
C1629 C1628 1.392 . S
C1629 H1641 0.929 . S
C1630 C1626 1.531 . S
C1630 H1642 0.960 . S
C1630 H1643 0.962 . S
C1630 H1644 0.960 . S
C1631 C1628 1.511 . S
C1631 H1645 0.961 . S
C1631 H1646 0.961 . S
C1631 H1647 0.961 . S
C1632 C1633 1.370 . S
C1632 C1634 1.363 . S
C1632 H1648 0.931 . S
C1633 C1632 1.370 . S
C1633 C1637 1.408 . S
C1634 C1632 1.363 . S
C1634 C1635 1.370 . S
C1634 C1638 1.524 . S
C1635 C1627 1.503 . S
C1635 C1634 1.370 . S
C1635 C1636 1.403 . S
C1636 C1635 1.403 . S
C1636 C1637 1.404 . S
C1636 C1639 1.539 . S
C1637 C1633 1.408 . S
C1637 C1636 1.404 . S
C1637 H1649 0.930 . S
C1638 C1634 1.524 . S
C1638 H1650 0.956 . S
C1638 H1651 0.961 . S
C1638 H1652 0.961 . S
C1639 C1636 1.539 . S
C1639 H1653 0.958 . S
C1639 H1654 0.961 . S
C1639 H1655 0.960 . S
H1640 C1624 0.931 . S
H1641 C1629 0.929 . S
H1642 C1630 0.960 . S
H1643 C1630 0.962 . S
H1644 C1630 0.960 . S
H1645 C1631 0.961 . S
H1646 C1631 0.961 . S
H1647 C1631 0.961 . S
H1648 C1632 0.931 . S
H1649 C1637 0.930 . S
H1650 C1638 0.956 . S
H1651 C1638 0.961 . S
H1652 C1638 0.961 . S
H1653 C1639 0.958 . S
H1654 C1639 0.961 . S
H1655 C1639 0.960 . S
C1656 C1657 1.391 . S
C1656 C1658 1.394 . S
C1656 H1672 0.931 . S
C1657 C1656 1.391 . S
C1657 C1661 1.376 . S
C1658 C1656 1.394 . S
C1658 C1659 1.369 . S
C1658 C1662 1.531 . S
C1659 C1658 1.369 . S
C1659 C1660 1.410 . S
C1659 C1667 1.503 . S
C1660 C1659 1.410 . S
C1660 C1661 1.392 . S
C1660 C1663 1.511 . S
C1661 C1657 1.376 . S
C1661 C1660 1.392 . S
C1661 H1673 0.929 . S
C1662 C1658 1.531 . S
C1662 H1674 0.960 . S
C1662 H1675 0.962 . S
C1662 H1676 0.960 . S
C1663 C1660 1.511 . S
C1663 H1677 0.961 . S
C1663 H1678 0.961 . S
C1663 H1679 0.961 . S
C1664 C1665 1.370 . S
C1664 C1666 1.363 . S
C1664 H1680 0.931 . S
C1665 C1664 1.370 . S
C1665 C1669 1.408 . S
C1666 C1664 1.363 . S
C1666 C1667 1.370 . S
C1666 C1670 1.524 . S
C1667 C1659 1.503 . S
C1667 C1666 1.370 . S
C1667 C1668 1.403 . S
C1668 C1667 1.403 . S
C1668 C1669 1.404 . S
C1668 C1671 1.539 . S
C1669 C1665 1.408 . S
C1669 C1668 1.404 . S
C1669 H1681 0.930 . S
C1670 C1666 1.524 . S
C1670 H1682 0.956 . S
C1670 H1683 0.961 . S
C1670 H1684 0.961 . S
C1671 C1668 1.539 . S
C1671 H1685 0.958 . S
C1671 H1686 0.961 . S
C1671 H1687 0.960 . S
H1672 C1656 0.931 . S
H1673 C1661 0.929 . S
H1674 C1662 0.960 . S
H1675 C1662 0.962 . S
H1676 C1662 0.960 . S
H1677 C1663 0.961 . S
H1678 C1663 0.961 . S
H1679 C1663 0.961 . S
H1680 C1664 0.931 . S
H1681 C1669 0.930 . S
H1682 C1670 0.956 . S
H1683 C1670 0.961 . S
H1684 C1670 0.961 . S
H1685 C1671 0.958 . S
H1686 C1671 0.961 . S
H1687 C1671 0.960 . S
C1688 C1689 1.391 . S
C1688 C1690 1.394 . S
C1688 H1704 0.931 . S
C1689 C1688 1.391 . S
C1689 C1693 1.376 . S
C1690 C1688 1.394 . S
C1690 C1691 1.369 . S
C1690 C1694 1.531 . S
C1691 C1690 1.369 . S
C1691 C1692 1.410 . S
C1691 C1699 1.503 . S
C1692 C1691 1.410 . S
C1692 C1693 1.392 . S
C1692 C1695 1.511 . S
C1693 C1689 1.376 . S
C1693 C1692 1.392 . S
C1693 H1705 0.929 . S
C1694 C1690 1.531 . S
C1694 H1706 0.960 . S
C1694 H1707 0.962 . S
C1694 H1708 0.960 . S
C1695 C1692 1.511 . S
C1695 H1709 0.961 . S
C1695 H1710 0.961 . S
C1695 H1711 0.961 . S
C1696 C1697 1.370 . S
C1696 C1698 1.363 . S
C1696 H1712 0.931 . S
C1697 C1696 1.370 . S
C1697 C1701 1.408 . S
C1698 C1696 1.363 . S
C1698 C1699 1.370 . S
C1698 C1702 1.524 . S
C1699 C1691 1.503 . S
C1699 C1698 1.370 . S
C1699 C1700 1.403 . S
C1700 C1699 1.403 . S
C1700 C1701 1.404 . S
C1700 C1703 1.539 . S
C1701 C1697 1.408 . S
C1701 C1700 1.404 . S
C1701 H1713 0.930 . S
C1702 C1698 1.524 . S
C1702 H1714 0.956 . S
C1702 H1715 0.961 . S
C1702 H1716 0.961 . S
C1703 C1700 1.539 . S
C1703 H1717 0.958 . S
C1703 H1718 0.961 . S
C1703 H1719 0.960 . S
H1704 C1688 0.931 . S
H1705 C1693 0.929 . S
H1706 C1694 0.960 . S
H1707 C1694 0.962 . S
H1708 C1694 0.960 . S
H1709 C1695 0.961 . S
H1710 C1695 0.961 . S
H1711 C1695 0.961 . S
H1712 C1696 0.931 . S
H1713 C1701 0.930 . S
H1714 C1702 0.956 . S
H1715 C1702 0.961 . S
H1716 C1702 0.961 . S
H1717 C1703 0.958 . S
H1718 C1703 0.961 . S
H1719 C1703 0.960 . S
C1720 C1721 1.391 . S
C1720 C1722 1.394 . S
C1720 H1736 0.931 . S
C1721 C1720 1.391 . S
C1721 C1725 1.376 . S
C1722 C1720 1.394 . S
C1722 C1723 1.369 . S
C1722 C1726 1.531 . S
C1723 C1722 1.369 . S
C1723 C1724 1.410 . S
C1723 C1731 1.503 . S
C1724 C1723 1.410 . S
C1724 C1725 1.392 . S
C1724 C1727 1.511 . S
C1725 C1721 1.376 . S
C1725 C1724 1.392 . S
C1725 H1737 0.929 . S
C1726 C1722 1.531 . S
C1726 H1738 0.960 . S
C1726 H1739 0.973 . S
C1726 H1740 0.960 . S
C1727 C1724 1.511 . S
C1727 H1741 0.961 . S
C1727 H1742 0.961 . S
C1727 H1743 0.961 . S
C1728 C1729 1.370 . S
C1728 C1730 1.363 . S
C1728 H1744 0.931 . S
C1729 C1728 1.370 . S
C1729 C1733 1.408 . S
C1730 C1728 1.363 . S
C1730 C1731 1.370 . S
C1730 C1734 1.524 . S
C1731 C1723 1.503 . S
C1731 C1730 1.370 . S
C1731 C1732 1.403 . S
C1732 C1731 1.403 . S
C1732 C1733 1.404 . S
C1732 C1735 1.539 . S
C1733 C1729 1.408 . S
C1733 C1732 1.404 . S
C1733 H1745 0.930 . S
C1734 C1730 1.524 . S
C1734 H1746 0.956 . S
C1734 H1747 0.961 . S
C1734 H1748 0.961 . S
C1735 C1732 1.539 . S
C1735 H1749 0.958 . S
C1735 H1750 0.961 . S
C1735 H1751 0.960 . S
H1736 C1720 0.931 . S
H1737 C1725 0.929 . S
H1738 C1726 0.960 . S
H1739 C1726 0.973 . S
H1740 C1726 0.960 . S
H1741 C1727 0.961 . S
H1742 C1727 0.961 . S
H1743 C1727 0.961 . S
H1744 C1728 0.931 . S
H1745 C1733 0.930 . S
H1746 C1734 0.956 . S
H1747 C1734 0.961 . S
H1748 C1734 0.961 . S
H1749 C1735 0.958 . S
H1750 C1735 0.961 . S
H1751 C1735 0.960 . S
C1752 C1753 1.391 . S
C1752 C1754 1.394 . S
C1752 H1768 0.931 . S
C1753 C1752 1.391 . S
C1753 C1757 1.376 . S
C1754 C1752 1.394 . S
C1754 C1755 1.369 . S
C1754 C1758 1.531 . S
C1755 C1754 1.369 . S
C1755 C1756 1.410 . S
C1755 C1763 1.503 . S
C1756 C1755 1.410 . S
C1756 C1757 1.392 . S
C1756 C1759 1.511 . S
C1757 C1753 1.376 . S
C1757 C1756 1.392 . S
C1757 H1769 0.929 . S
C1758 C1754 1.531 . S
C1758 H1770 0.960 . S
C1758 H1771 0.962 . S
C1758 H1772 0.960 . S
C1759 C1756 1.511 . S
C1759 H1773 0.961 . S
C1759 H1774 0.961 . S
C1759 H1775 0.961 . S
C1760 C1761 1.370 . S
C1760 C1762 1.363 . S
C1760 H1776 0.931 . S
C1761 C1760 1.370 . S
C1761 C1765 1.408 . S
C1762 C1760 1.363 . S
C1762 C1763 1.370 . S
C1762 C1766 1.524 . S
C1763 C1755 1.503 . S
C1763 C1762 1.370 . S
C1763 C1764 1.403 . S
C1764 C1763 1.403 . S
C1764 C1765 1.404 . S
C1764 C1767 1.539 . S
C1765 C1761 1.408 . S
C1765 C1764 1.404 . S
C1765 H1777 0.930 . S
C1766 C1762 1.524 . S
C1766 H1778 0.956 . S
C1766 H1779 0.961 . S
C1766 H1780 0.961 . S
C1767 C1764 1.539 . S
C1767 H1781 0.958 . S
C1767 H1782 0.961 . S
C1767 H1783 0.960 . S
H1768 C1752 0.931 . S
H1769 C1757 0.929 . S
H1770 C1758 0.960 . S
H1771 C1758 0.962 . S
H1772 C1758 0.960 . S
H1773 C1759 0.961 . S
H1774 C1759 0.961 . S
H1775 C1759 0.961 . S
H1776 C1760 0.931 . S
H1777 C1765 0.930 . S
H1778 C1766 0.956 . S
H1779 C1766 0.961 . S
H1780 C1766 0.961 . S
H1781 C1767 0.958 . S
H1782 C1767 0.961 . S
H1783 C1767 0.960 . S
C1784 C1785 1.391 . S
C1784 C1786 1.394 . S
C1784 H1800 0.931 . S
C1785 C1784 1.391 . S
C1785 C1789 1.376 . S
C1786 C1784 1.394 . S
C1786 C1787 1.369 . S
C1786 C1790 1.531 . S
C1787 C1786 1.369 . S
C1787 C1788 1.410 . S
C1787 C1795 1.503 . S
C1788 C1787 1.410 . S
C1788 C1789 1.392 . S
C1788 C1791 1.511 . S
C1789 C1785 1.376 . S
C1789 C1788 1.392 . S
C1789 H1801 0.929 . S
C1790 C1786 1.531 . S
C1790 H1802 0.960 . S
C1790 H1803 0.962 . S
C1790 H1804 0.960 . S
C1791 C1788 1.511 . S
C1791 H1805 0.961 . S
C1791 H1806 0.961 . S
C1791 H1807 0.961 . S
C1792 C1793 1.370 . S
C1792 C1794 1.363 . S
C1792 H1808 0.931 . S
C1793 C1792 1.370 . S
C1793 C1797 1.408 . S
C1794 C1792 1.363 . S
C1794 C1795 1.370 . S
C1794 C1798 1.524 . S
C1795 C1787 1.503 . S
C1795 C1794 1.370 . S
C1795 C1796 1.403 . S
C1796 C1795 1.403 . S
C1796 C1797 1.404 . S
C1796 C1799 1.539 . S
C1797 C1793 1.408 . S
C1797 C1796 1.404 . S
C1797 H1809 0.930 . S
C1798 C1794 1.524 . S
C1798 H1810 0.956 . S
C1798 H1811 0.961 . S
C1798 H1812 0.961 . S
C1799 C1796 1.539 . S
C1799 H1813 0.958 . S
C1799 H1814 0.961 . S
C1799 H1815 0.960 . S
H1800 C1784 0.931 . S
H1801 C1789 0.929 . S
H1802 C1790 0.960 . S
H1803 C1790 0.962 . S
H1804 C1790 0.960 . S
H1805 C1791 0.961 . S
H1806 C1791 0.961 . S
H1807 C1791 0.961 . S
H1808 C1792 0.931 . S
H1809 C1797 0.930 . S
H1810 C1798 0.956 . S
H1811 C1798 0.961 . S
H1812 C1798 0.961 . S
H1813 C1799 0.958 . S
H1814 C1799 0.961 . S
H1815 C1799 0.960 . S
C1816 C1817 1.391 . S
C1816 C1818 1.394 . S
C1816 H1832 0.931 . S
C1817 C1816 1.391 . S
C1817 C1821 1.376 . S
C1818 C1816 1.394 . S
C1818 C1819 1.369 . S
C1818 C1822 1.531 . S
C1819 C1818 1.369 . S
C1819 C1820 1.410 . S
C1819 C1827 1.503 . S
C1820 C1819 1.410 . S
C1820 C1821 1.392 . S
C1820 C1823 1.511 . S
C1821 C1817 1.376 . S
C1821 C1820 1.392 . S
C1821 H1833 0.929 . S
C1822 C1818 1.531 . S
C1822 H1834 0.960 . S
C1822 H1835 0.962 . S
C1822 H1836 0.960 . S
C1823 C1820 1.511 . S
C1823 H1837 0.961 . S
C1823 H1838 0.961 . S
C1823 H1839 0.961 . S
C1824 C1825 1.370 . S
C1824 C1826 1.363 . S
C1824 H1840 0.931 . S
C1825 C1824 1.370 . S
C1825 C1829 1.408 . S
C1826 C1824 1.363 . S
C1826 C1827 1.370 . S
C1826 C1830 1.524 . S
C1827 C1819 1.503 . S
C1827 C1826 1.370 . S
C1827 C1828 1.403 . S
C1828 C1827 1.403 . S
C1828 C1829 1.404 . S
C1828 C1831 1.539 . S
C1829 C1825 1.408 . S
C1829 C1828 1.404 . S
C1829 H1841 0.930 . S
C1830 C1826 1.524 . S
C1830 H1842 0.956 . S
C1830 H1843 0.961 . S
C1830 H1844 0.961 . S
C1831 C1828 1.539 . S
C1831 H1845 0.958 . S
C1831 H1846 0.961 . S
C1831 H1847 0.960 . S
H1832 C1816 0.931 . S
H1833 C1821 0.929 . S
H1834 C1822 0.960 . S
H1835 C1822 0.962 . S
H1836 C1822 0.960 . S
H1837 C1823 0.961 . S
H1838 C1823 0.961 . S
H1839 C1823 0.961 . S
H1840 C1824 0.931 . S
H1841 C1829 0.930 . S
H1842 C1830 0.956 . S
H1843 C1830 0.961 . S
H1844 C1830 0.961 . S
H1845 C1831 0.958 . S
H1846 C1831 0.961 . S
H1847 C1831 0.960 . S
C1848 C1849 1.380 1_655 S
C1848 C1850 1.394 . S
C1848 H1864 0.931 . S
C1849 C1848 1.380 1_455 S
C1849 C1853 1.389 . S
C1850 C1848 1.394 . S
C1850 C1851 1.374 . S
C1850 C1854 1.531 . S
C1851 C1850 1.374 . S
C1851 C1852 1.405 1_655 S
C1851 C1859 1.507 . S
C1852 C1851 1.405 1_455 S
C1852 C1853 1.392 . S
C1852 C1855 1.511 . S
C1853 C1849 1.389 . S
C1853 C1852 1.392 . S
C1853 H1865 0.929 . S
C1854 C1850 1.531 . S
C1854 H1866 0.960 . S
C1854 H1867 0.962 . S
C1854 H1868 0.960 . S
C1855 C1852 1.511 . S
C1855 H1869 0.961 . S
C1855 H1870 0.961 . S
C1855 H1871 0.961 . S
C1856 C1857 1.370 . S
C1856 C1858 1.363 . S
C1856 H1872 0.931 . S
C1857 C1856 1.370 . S
C1857 C1861 1.408 1_655 S
C1858 C1856 1.363 . S
C1858 C1859 1.387 . S
C1858 C1862 1.524 . S
C1859 C1851 1.507 . S
C1859 C1858 1.387 . S
C1859 C1860 1.384 1_655 S
C1860 C1859 1.384 1_455 S
C1860 C1861 1.404 . S
C1860 C1863 1.539 . S
C1861 C1857 1.408 1_455 S
C1861 C1860 1.404 . S
C1861 H1873 0.930 . S
C1862 C1858 1.524 . S
C1862 H1874 0.956 . S
C1862 H1875 0.961 1_655 S
C1862 H1876 0.961 . S
C1863 C1860 1.539 . S
C1863 H1877 0.958 1_455 S
C1863 H1878 0.961 . S
C1863 H1879 0.960 . S
H1864 C1848 0.931 . S
H1865 C1853 0.929 . S
H1866 C1854 0.960 . S
H1867 C1854 0.962 . S
H1868 C1854 0.960 . S
H1869 C1855 0.961 . S
H1870 C1855 0.961 . S
H1871 C1855 0.961 . S
H1872 C1856 0.931 . S
H1873 C1861 0.930 . S
H1874 C1862 0.956 . S
H1875 C1862 0.961 1_455 S
H1876 C1862 0.961 . S
H1877 C1863 0.958 1_655 S
H1878 C1863 0.961 . S
H1879 C1863 0.960 . S
C1880 C1881 1.391 . S
C1880 C1882 1.394 . S
C1880 H1896 0.931 . S
C1881 C1880 1.391 . S
C1881 C1885 1.376 . S
C1882 C1880 1.394 . S
C1882 C1883 1.369 . S
C1882 C1886 1.531 . S
C1883 C1882 1.369 . S
C1883 C1884 1.410 . S
C1883 C1891 1.503 . S
C1884 C1883 1.410 . S
C1884 C1885 1.392 . S
C1884 C1887 1.511 . S
C1885 C1881 1.376 . S
C1885 C1884 1.392 . S
C1885 H1897 0.929 . S
C1886 C1882 1.531 . S
C1886 H1898 0.960 . S
C1886 H1899 0.962 . S
C1886 H1900 0.960 . S
C1887 C1884 1.511 . S
C1887 H1901 0.961 . S
C1887 H1902 0.961 . S
C1887 H1903 0.961 . S
C1888 C1889 1.370 . S
C1888 C1890 1.363 . S
C1888 H1904 0.931 . S
C1889 C1888 1.370 . S
C1889 C1893 1.408 . S
C1890 C1888 1.363 . S
C1890 C1891 1.370 . S
C1890 C1894 1.524 . S
C1891 C1883 1.503 . S
C1891 C1890 1.370 . S
C1891 C1892 1.403 . S
C1892 C1891 1.403 . S
C1892 C1893 1.404 . S
C1892 C1895 1.539 . S
C1893 C1889 1.408 . S
C1893 C1892 1.404 . S
C1893 H1905 0.930 . S
C1894 C1890 1.524 . S
C1894 H1906 0.956 . S
C1894 H1907 0.961 . S
C1894 H1908 0.961 . S
C1895 C1892 1.539 . S
C1895 H1909 0.958 . S
C1895 H1910 0.961 . S
C1895 H1911 0.960 . S
H1896 C1880 0.931 . S
H1897 C1885 0.929 . S
H1898 C1886 0.960 . S
H1899 C1886 0.962 . S
H1900 C1886 0.960 . S
H1901 C1887 0.961 . S
H1902 C1887 0.961 . S
H1903 C1887 0.961 . S
H1904 C1888 0.931 . S
H1905 C1893 0.930 . S
H1906 C1894 0.956 . S
H1907 C1894 0.961 . S
H1908 C1894 0.961 . S
H1909 C1895 0.958 . S
H1910 C1895 0.961 . S
H1911 C1895 0.960 . S
C1912 C1913 1.391 . S
C1912 C1914 1.394 . S
C1912 H1928 0.931 . S
C1913 C1912 1.391 . S
C1913 C1917 1.376 . S
C1914 C1912 1.394 . S
C1914 C1915 1.369 . S
C1914 C1918 1.531 . S
C1915 C1914 1.369 . S
C1915 C1916 1.410 . S
C1915 C1923 1.503 . S
C1916 C1915 1.410 . S
C1916 C1917 1.392 . S
C1916 C1919 1.511 . S
C1917 C1913 1.376 . S
C1917 C1916 1.392 . S
C1917 H1929 0.929 . S
C1918 C1914 1.531 . S
C1918 H1930 0.948 1_556 S
C1918 H1931 0.962 . S
C1918 H1932 0.960 . S
C1919 C1916 1.511 . S
C1919 H1933 0.961 . S
C1919 H1934 0.961 . S
C1919 H1935 0.961 . S
C1920 C1921 1.370 1_556 S
C1920 C1922 1.363 . S
C1920 H1936 0.931 . S
C1921 C1920 1.370 1_554 S
C1921 C1925 1.408 . S
C1922 C1920 1.363 . S
C1922 C1923 1.370 . S
C1922 C1926 1.524 . S
C1923 C1915 1.503 . S
C1923 C1922 1.370 . S
C1923 C1924 1.403 1_556 S
C1924 C1923 1.403 1_554 S
C1924 C1925 1.404 . S
C1924 C1927 1.539 . S
C1925 C1921 1.408 . S
C1925 C1924 1.404 . S
C1925 H1937 0.930 . S
C1926 C1922 1.524 . S
C1926 H1938 0.956 . S
C1926 H1939 0.961 . S
C1926 H1940 0.961 . S
C1927 C1924 1.539 . S
C1927 H1941 0.958 . S
C1927 H1942 0.961 . S
C1927 H1943 0.960 . S
H1928 C1912 0.931 . S
H1929 C1917 0.929 . S
H1930 C1918 0.948 1_554 S
H1931 C1918 0.962 . S
H1932 C1918 0.960 . S
H1933 C1919 0.961 . S
H1934 C1919 0.961 . S
H1935 C1919 0.961 . S
H1936 C1920 0.931 . S
H1937 C1925 0.930 . S
H1938 C1926 0.956 . S
H1939 C1926 0.961 . S
H1940 C1926 0.961 . S
H1941 C1927 0.958 . S
H1942 C1927 0.961 . S
H1943 C1927 0.960 . S
C1944 C1945 1.391 1_655 S
C1944 C1946 1.394 . S
C1944 H1960 0.931 . S
C1945 C1944 1.391 1_455 S
C1945 C1949 1.376 . S
C1946 C1944 1.394 . S
C1946 C1947 1.369 . S
C1946 C1950 1.531 . S
C1947 C1946 1.369 . S
C1947 C1948 1.379 1_655 S
C1947 C1955 1.503 . S
C1948 C1947 1.379 1_455 S
C1948 C1949 1.428 . S
C1948 C1951 1.507 . S
C1949 C1945 1.376 . S
C1949 C1948 1.428 . S
C1949 H1961 0.929 . S
C1950 C1946 1.531 . S
C1950 H1962 0.960 . S
C1950 H1963 0.962 . S
C1950 H1964 0.960 . S
C1951 C1948 1.507 . S
C1951 H1965 0.961 . S
C1951 H1966 0.961 1_455 S
C1951 H1967 0.961 . S
C1952 C1953 1.370 . S
C1952 C1954 1.363 . S
C1952 H1968 0.931 . S
C1953 C1952 1.370 . S
C1953 C1957 1.408 . S
C1954 C1952 1.363 . S
C1954 C1955 1.370 . S
C1954 C1958 1.524 . S
C1955 C1947 1.503 . S
C1955 C1954 1.370 . S
C1955 C1956 1.403 . S
C1956 C1955 1.403 . S
C1956 C1957 1.404 . S
C1956 C1959 1.539 . S
C1957 C1953 1.408 . S
C1957 C1956 1.404 . S
C1957 H1969 0.930 . S
C1958 C1954 1.524 . S
C1958 H1970 0.956 . S
C1958 H1971 0.961 . S
C1958 H1972 0.961 . S
C1959 C1956 1.539 . S
C1959 H1973 0.958 . S
C1959 H1974 0.961 . S
C1959 H1975 0.960 . S
H1960 C1944 0.931 . S
H1961 C1949 0.929 . S
H1962 C1950 0.960 . S
H1963 C1950 0.962 . S
H1964 C1950 0.960 . S
H1965 C1951 0.961 . S
H1966 C1951 0.961 1_655 S
H1967 C1951 0.961 . S
H1968 C1952 0.931 . S
H1969 C1957 0.930 . S
H1970 C1958 0.956 . S
H1971 C1958 0.961 . S
H1972 C1958 0.961 . S
H1973 C1959 0.958 . S
H1974 C1959 0.961 . S
H1975 C1959 0.960 . S
C1976 C1977 1.391 . S
C1976 C1978 1.394 . S
C1976 H1992 0.931 . S
C1977 C1976 1.391 . S
C1977 C1981 1.376 . S
C1978 C1976 1.394 . S
C1978 C1979 1.369 . S
C1978 C1982 1.531 . S
C1979 C1978 1.369 . S
C1979 C1980 1.410 . S
C1979 C1987 1.503 . S
C1980 C1979 1.410 . S
C1980 C1981 1.392 . S
C1980 C1983 1.493 1_545 S
C1981 C1977 1.376 . S
C1981 C1980 1.392 . S
C1981 H1993 0.929 . S
C1982 C1978 1.531 . S
C1982 H1994 0.960 . S
C1982 H1995 0.962 . S
C1982 H1996 0.960 . S
C1983 C1980 1.493 1_565 S
C1983 H1997 0.987 . S
C1983 H1998 0.983 . S
C1983 H1999 0.933 1_565 S
C1984 C1985 1.370 . S
C1984 C1986 1.363 . S
C1984 H2000 0.931 1_545 S
C1985 C1984 1.370 . S
C1985 C1989 1.408 . S
C1986 C1984 1.363 . S
C1986 C1987 1.370 . S
C1986 C1990 1.524 1_545 S
C1987 C1979 1.503 . S
C1987 C1986 1.370 . S
C1987 C1988 1.403 . S
C1988 C1987 1.403 . S
C1988 C1989 1.404 . S
C1988 C1991 1.539 . S
C1989 C1985 1.408 . S
C1989 C1988 1.404 . S
C1989 H2001 0.930 . S
C1990 C1986 1.524 1_565 S
C1990 H2002 0.956 1_565 S
C1990 H2003 0.961 . S
C1990 H2004 0.961 . S
C1991 C1988 1.539 . S
C1991 H2005 0.958 . S
C1991 H2006 0.961 . S
C1991 H2007 0.960 . S
H1992 C1976 0.931 . S
H1993 C1981 0.929 . S
H1994 C1982 0.960 . S
H1995 C1982 0.962 . S
H1996 C1982 0.960 . S
H1997 C1983 0.987 . S
H1998 C1983 0.983 . S
H1999 C1983 0.933 1_545 S
H2000 C1984 0.931 1_565 S
H2001 C1989 0.930 . S
H2002 C1990 0.956 1_545 S
H2003 C1990 0.961 . S
H2004 C1990 0.961 . S
H2005 C1991 0.958 . S
H2006 C1991 0.961 . S
H2007 C1991 0.960 . S
C2008 C2009 1.391 . S
C2008 C2010 1.394 . S
C2008 H2024 0.931 . S
C2009 C2008 1.391 . S
C2009 C2013 1.376 . S
C2010 C2008 1.394 . S
C2010 C2011 1.369 . S
C2010 C2014 1.531 . S
C2011 C2010 1.369 . S
C2011 C2012 1.410 . S
C2011 C2019 1.503 . S
C2012 C2011 1.410 . S
C2012 C2013 1.392 . S
C2012 C2015 1.511 . S
C2013 C2009 1.376 . S
C2013 C2012 1.392 . S
C2013 H2025 0.929 . S
C2014 C2010 1.531 . S
C2014 H2026 0.960 . S
C2014 H2027 0.962 . S
C2014 H2028 0.960 . S
C2015 C2012 1.511 . S
C2015 H2029 0.961 . S
C2015 H2030 0.961 . S
C2015 H2031 0.961 . S
C2016 C2017 1.370 . S
C2016 C2018 1.363 . S
C2016 H2032 0.931 . S
C2017 C2016 1.370 . S
C2017 C2021 1.408 . S
C2018 C2016 1.363 . S
C2018 C2019 1.370 . S
C2018 C2022 1.524 . S
C2019 C2011 1.503 . S
C2019 C2018 1.370 . S
C2019 C2020 1.403 . S
C2020 C2019 1.403 . S
C2020 C2021 1.404 . S
C2020 C2023 1.539 . S
C2021 C2017 1.408 . S
C2021 C2020 1.404 . S
C2021 H2033 0.930 . S
C2022 C2018 1.524 . S
C2022 H2034 0.956 . S
C2022 H2035 0.961 . S
C2022 H2036 0.961 . S
C2023 C2020 1.539 . S
C2023 H2037 0.958 . S
C2023 H2038 0.961 . S
C2023 H2039 0.960 . S
H2024 C2008 0.931 . S
H2025 C2013 0.929 . S
H2026 C2014 0.960 . S
H2027 C2014 0.962 . S
H2028 C2014 0.960 . S
H2029 C2015 0.961 . S
H2030 C2015 0.961 . S
H2031 C2015 0.961 . S
H2032 C2016 0.931 . S
H2033 C2021 0.930 . S
H2034 C2022 0.956 . S
H2035 C2022 0.961 . S
H2036 C2022 0.961 . S
H2037 C2023 0.958 . S
H2038 C2023 0.961 . S
H2039 C2023 0.960 . S
C2040 C2041 1.391 . S
C2040 C2042 1.394 . S
C2040 H2056 0.931 . S
C2041 C2040 1.391 . S
C2041 C2045 1.376 . S
C2042 C2040 1.394 . S
C2042 C2043 1.369 . S
C2042 C2046 1.531 . S
C2043 C2042 1.369 . S
C2043 C2044 1.410 . S
C2043 C2051 1.503 . S
C2044 C2043 1.410 . S
C2044 C2045 1.392 . S
C2044 C2047 1.511 . S
C2045 C2041 1.376 . S
C2045 C2044 1.392 . S
C2045 H2057 0.929 . S
C2046 C2042 1.531 . S
C2046 H2058 0.960 1_545 S
C2046 H2059 0.962 . S
C2046 H2060 0.960 1_545 S
C2047 C2044 1.511 . S
C2047 H2061 0.961 . S
C2047 H2062 0.961 . S
C2047 H2063 0.961 . S
C2048 C2049 1.370 . S
C2048 C2050 1.363 . S
C2048 H2064 0.931 . S
C2049 C2048 1.370 . S
C2049 C2053 1.408 . S
C2050 C2048 1.363 . S
C2050 C2051 1.370 . S
C2050 C2054 1.524 . S
C2051 C2043 1.503 . S
C2051 C2050 1.370 . S
C2051 C2052 1.403 . S
C2052 C2051 1.403 . S
C2052 C2053 1.404 . S
C2052 C2055 1.539 1_545 S
C2053 C2049 1.408 . S
C2053 C2052 1.404 . S
C2053 H2065 0.930 1_545 S
C2054 C2050 1.524 . S
C2054 H2066 0.956 . S
C2054 H2067 0.961 . S
C2054 H2068 0.961 . S
C2055 C2052 1.539 1_565 S
C2055 H2069 0.958 . S
C2055 H2070 0.961 . S
C2055 H2071 0.960 . S
H2056 C2040 0.931 . S
H2057 C2045 0.929 . S
H2058 C2046 0.960 1_565 S
H2059 C2046 0.962 . S
H2060 C2046 0.960 1_565 S
H2061 C2047 0.961 . S
H2062 C2047 0.961 . S
H2063 C2047 0.961 . S
H2064 C2048 0.931 . S
H2065 C2053 0.930 1_565 S
H2066 C2054 0.956 . S
H2067 C2054 0.961 . S
H2068 C2054 0.961 . S
H2069 C2055 0.958 . S
H2070 C2055 0.961 . S
H2071 C2055 0.960 . S
C2072 C2073 1.391 . S
C2072 C2074 1.394 . S
C2072 H2088 0.931 . S
C2073 C2072 1.391 . S
C2073 C2077 1.376 . S
C2074 C2072 1.394 . S
C2074 C2075 1.369 . S
C2074 C2078 1.531 . S
C2075 C2074 1.369 . S
C2075 C2076 1.410 . S
C2075 C2083 1.503 . S
C2076 C2075 1.410 . S
C2076 C2077 1.392 . S
C2076 C2079 1.511 . S
C2077 C2073 1.376 . S
C2077 C2076 1.392 . S
C2077 H2089 0.929 . S
C2078 C2074 1.531 . S
C2078 H2090 0.960 . S
C2078 H2091 0.962 . S
C2078 H2092 0.960 . S
C2079 C2076 1.511 . S
C2079 H2093 0.961 . S
C2079 H2094 0.961 . S
C2079 H2095 0.961 . S
C2080 C2081 1.370 . S
C2080 C2082 1.363 . S
C2080 H2096 0.931 . S
C2081 C2080 1.370 . S
C2081 C2085 1.408 . S
C2082 C2080 1.363 . S
C2082 C2083 1.370 . S
C2082 C2086 1.524 . S
C2083 C2075 1.503 . S
C2083 C2082 1.370 . S
C2083 C2084 1.403 . S
C2084 C2083 1.403 . S
C2084 C2085 1.404 . S
C2084 C2087 1.539 . S
C2085 C2081 1.408 . S
C2085 C2084 1.404 . S
C2085 H2097 0.930 . S
C2086 C2082 1.524 . S
C2086 H2098 0.956 . S
C2086 H2099 0.961 . S
C2086 H2100 0.961 . S
C2087 C2084 1.539 . S
C2087 H2101 0.958 . S
C2087 H2102 0.961 . S
C2087 H2103 0.960 . S
H2088 C2072 0.931 . S
H2089 C2077 0.929 . S
H2090 C2078 0.960 . S
H2091 C2078 0.962 . S
H2092 C2078 0.960 . S
H2093 C2079 0.961 . S
H2094 C2079 0.961 . S
H2095 C2079 0.961 . S
H2096 C2080 0.931 . S
H2097 C2085 0.930 . S
H2098 C2086 0.956 . S
H2099 C2086 0.961 . S
H2100 C2086 0.961 . S
H2101 C2087 0.958 . S
H2102 C2087 0.961 . S
H2103 C2087 0.960 . S
C2104 C2105 1.391 . S
C2104 C2106 1.394 . S
C2104 H2120 0.931 . S
C2105 C2104 1.391 . S
C2105 C2109 1.376 . S
C2106 C2104 1.394 . S
C2106 C2107 1.369 . S
C2106 C2110 1.531 . S
C2107 C2106 1.369 . S
C2107 C2108 1.410 . S
C2107 C2115 1.503 . S
C2108 C2107 1.410 . S
C2108 C2109 1.392 . S
C2108 C2111 1.511 . S
C2109 C2105 1.376 . S
C2109 C2108 1.392 . S
C2109 H2121 0.929 . S
C2110 C2106 1.531 . S
C2110 H2122 0.960 . S
C2110 H2123 0.962 . S
C2110 H2124 0.960 . S
C2111 C2108 1.511 . S
C2111 H2125 0.961 . S
C2111 H2126 0.961 . S
C2111 H2127 0.961 . S
C2112 C2113 1.370 . S
C2112 C2114 1.363 . S
C2112 H2128 0.931 . S
C2113 C2112 1.370 . S
C2113 C2117 1.407 . S
C2114 C2112 1.363 . S
C2114 C2115 1.370 . S
C2114 C2118 1.524 . S
C2115 C2107 1.503 . S
C2115 C2114 1.370 . S
C2115 C2116 1.422 . S
C2116 C2115 1.422 . S
C2116 C2117 1.410 . S
C2116 C2119 1.514 1_545 S
C2117 C2113 1.407 . S
C2117 C2116 1.410 . S
C2117 H2129 0.931 1_545 S
C2118 C2114 1.524 . S
C2118 H2130 0.956 . S
C2118 H2131 0.961 . S
C2118 H2132 0.961 . S
C2119 C2116 1.514 1_565 S
C2119 H2133 0.958 . S
C2119 H2134 0.961 . S
C2119 H2135 0.960 . S
H2120 C2104 0.931 . S
H2121 C2109 0.929 . S
H2122 C2110 0.960 . S
H2123 C2110 0.962 . S
H2124 C2110 0.960 . S
H2125 C2111 0.961 . S
H2126 C2111 0.961 . S
H2127 C2111 0.961 . S
H2128 C2112 0.931 . S
H2129 C2117 0.931 1_565 S
H2130 C2118 0.956 . S
H2131 C2118 0.961 . S
H2132 C2118 0.961 . S
H2133 C2119 0.958 . S
H2134 C2119 0.961 . S
H2135 C2119 0.960 . S
C2136 C2137 1.391 . S
C2136 C2138 1.394 . S
C2136 H2152 0.931 . S
C2137 C2136 1.391 . S
C2137 C2141 1.376 . S
C2138 C2136 1.394 . S
C2138 C2139 1.369 . S
C2138 C2142 1.531 . S
C2139 C2138 1.369 . S
C2139 C2140 1.410 . S
C2139 C2147 1.503 . S
C2140 C2139 1.410 . S
C2140 C2141 1.392 . S
C2140 C2143 1.511 . S
C2141 C2137 1.376 . S
C2141 C2140 1.392 . S
C2141 H2153 0.929 . S
C2142 C2138 1.531 . S
C2142 H2154 0.960 . S
C2142 H2155 0.962 . S
C2142 H2156 0.960 . S
C2143 C2140 1.511 . S
C2143 H2157 0.961 . S
C2143 H2158 0.961 . S
C2143 H2159 0.961 . S
C2144 C2145 1.370 . S
C2144 C2146 1.363 . S
C2144 H2160 0.931 . S
C2145 C2144 1.370 . S
C2145 C2149 1.408 . S
C2146 C2144 1.363 . S
C2146 C2147 1.370 . S
C2146 C2150 1.524 . S
C2147 C2139 1.503 . S
C2147 C2146 1.370 . S
C2147 C2148 1.403 . S
C2148 C2147 1.403 . S
C2148 C2149 1.404 . S
C2148 C2151 1.539 . S
C2149 C2145 1.408 . S
C2149 C2148 1.404 . S
C2149 H2161 0.930 . S
C2150 C2146 1.524 . S
C2150 H2162 0.956 . S
C2150 H2163 0.961 . S
C2150 H2164 0.961 . S
C2151 C2148 1.539 . S
C2151 H2165 0.958 . S
C2151 H2166 0.961 . S
C2151 H2167 0.960 . S
H2152 C2136 0.931 . S
H2153 C2141 0.929 . S
H2154 C2142 0.960 . S
H2155 C2142 0.962 . S
H2156 C2142 0.960 . S
H2157 C2143 0.961 . S
H2158 C2143 0.961 . S
H2159 C2143 0.961 . S
H2160 C2144 0.931 . S
H2161 C2149 0.930 . S
H2162 C2150 0.956 . S
H2163 C2150 0.961 . S
H2164 C2150 0.961 . S
H2165 C2151 0.958 . S
H2166 C2151 0.961 . S
H2167 C2151 0.960 . S
C2168 C2169 1.391 1_565 S
C2168 C2170 1.394 . S
C2168 H2184 0.931 . S
C2169 C2168 1.391 1_545 S
C2169 C2173 1.376 . S
C2170 C2168 1.394 . S
C2170 C2171 1.369 1_565 S
C2170 C2174 1.531 . S
C2171 C2170 1.369 1_545 S
C2171 C2172 1.410 . S
C2171 C2179 1.503 . S
C2172 C2171 1.410 . S
C2172 C2173 1.392 . S
C2172 C2175 1.511 . S
C2173 C2169 1.376 . S
C2173 C2172 1.392 . S
C2173 H2185 0.929 . S
C2174 C2170 1.531 . S
C2174 H2186 0.960 . S
C2174 H2187 0.962 . S
C2174 H2188 0.960 . S
C2175 C2172 1.511 . S
C2175 H2189 0.961 . S
C2175 H2190 0.961 . S
C2175 H2191 0.961 . S
C2176 C2177 1.370 . S
C2176 C2178 1.363 . S
C2176 H2192 0.931 . S
C2177 C2176 1.370 . S
C2177 C2181 1.408 1_545 S
C2178 C2176 1.363 . S
C2178 C2179 1.370 . S
C2178 C2182 1.524 . S
C2179 C2171 1.503 . S
C2179 C2178 1.370 . S
C2179 C2180 1.403 1_545 S
C2180 C2179 1.403 1_565 S
C2180 C2181 1.404 . S
C2180 C2183 1.539 . S
C2181 C2177 1.408 1_565 S
C2181 C2180 1.404 . S
C2181 H2193 0.930 . S
C2182 C2178 1.524 . S
C2182 H2194 0.956 . S
C2182 H2195 0.961 . S
C2182 H2196 0.961 . S
C2183 C2180 1.539 . S
C2183 H2197 0.958 . S
C2183 H2198 0.961 . S
C2183 H2199 0.960 . S
H2184 C2168 0.931 . S
H2185 C2173 0.929 . S
H2186 C2174 0.960 . S
H2187 C2174 0.962 . S
H2188 C2174 0.960 . S
H2189 C2175 0.961 . S
H2190 C2175 0.961 . S
H2191 C2175 0.961 . S
H2192 C2176 0.931 . S
H2193 C2181 0.930 . S
H2194 C2182 0.956 . S
H2195 C2182 0.961 . S
H2196 C2182 0.961 . S
H2197 C2183 0.958 . S
H2198 C2183 0.961 . S
H2199 C2183 0.960 . S
C2200 C2201 1.391 . S
C2200 C2202 1.394 . S
C2200 H2216 0.931 . S
C2201 C2200 1.391 . S
C2201 C2205 1.376 . S
C2202 C2200 1.394 . S
C2202 C2203 1.369 . S
C2202 C2206 1.531 . S
C2203 C2202 1.369 . S
C2203 C2204 1.410 . S
C2203 C2211 1.503 . S
C2204 C2203 1.410 . S
C2204 C2205 1.392 . S
C2204 C2207 1.511 . S
C2205 C2201 1.376 . S
C2205 C2204 1.392 . S
C2205 H2217 0.929 . S
C2206 C2202 1.531 . S
C2206 H2218 0.960 . S
C2206 H2219 0.962 . S
C2206 H2220 0.960 . S
C2207 C2204 1.511 . S
C2207 H2221 0.961 . S
C2207 H2222 0.961 . S
C2207 H2223 0.961 . S
C2208 C2209 1.370 . S
C2208 C2210 1.363 . S
C2208 H2224 0.931 . S
C2209 C2208 1.370 . S
C2209 C2213 1.408 . S
C2210 C2208 1.363 . S
C2210 C2211 1.370 . S
C2210 C2214 1.524 . S
C2211 C2203 1.503 . S
C2211 C2210 1.370 . S
C2211 C2212 1.403 . S
C2212 C2211 1.403 . S
C2212 C2213 1.404 . S
C2212 C2215 1.539 . S
C2213 C2209 1.408 . S
C2213 C2212 1.404 . S
C2213 H2225 0.930 . S
C2214 C2210 1.524 . S
C2214 H2226 0.956 . S
C2214 H2227 0.961 . S
C2214 H2228 0.961 . S
C2215 C2212 1.539 . S
C2215 H2229 0.958 . S
C2215 H2230 0.961 . S
C2215 H2231 0.960 . S
H2216 C2200 0.931 . S
H2217 C2205 0.929 . S
H2218 C2206 0.960 . S
H2219 C2206 0.962 . S
H2220 C2206 0.960 . S
H2221 C2207 0.961 . S
H2222 C2207 0.961 . S
H2223 C2207 0.961 . S
H2224 C2208 0.931 . S
H2225 C2213 0.930 . S
H2226 C2214 0.956 . S
H2227 C2214 0.961 . S
H2228 C2214 0.961 . S
H2229 C2215 0.958 . S
H2230 C2215 0.961 . S
H2231 C2215 0.960 . S
C2232 C2233 1.391 . S
C2232 C2234 1.394 . S
C2232 H2248 0.931 . S
C2233 C2232 1.391 . S
C2233 C2237 1.376 . S
C2234 C2232 1.394 . S
C2234 C2235 1.369 . S
C2234 C2238 1.531 . S
C2235 C2234 1.369 . S
C2235 C2236 1.410 . S
C2235 C2243 1.503 . S
C2236 C2235 1.410 . S
C2236 C2237 1.392 . S
C2236 C2239 1.511 . S
C2237 C2233 1.376 . S
C2237 C2236 1.392 . S
C2237 H2249 0.929 . S
C2238 C2234 1.531 . S
C2238 H2250 0.960 . S
C2238 H2251 0.962 . S
C2238 H2252 0.960 . S
C2239 C2236 1.511 . S
C2239 H2253 0.961 . S
C2239 H2254 0.961 . S
C2239 H2255 0.961 . S
C2240 C2241 1.370 . S
C2240 C2242 1.363 . S
C2240 H2256 0.931 . S
C2241 C2240 1.370 . S
C2241 C2245 1.408 . S
C2242 C2240 1.363 . S
C2242 C2243 1.370 . S
C2242 C2246 1.524 . S
C2243 C2235 1.503 . S
C2243 C2242 1.370 . S
C2243 C2244 1.403 . S
C2244 C2243 1.403 . S
C2244 C2245 1.404 . S
C2244 C2247 1.539 . S
C2245 C2241 1.408 . S
C2245 C2244 1.404 . S
C2245 H2257 0.930 . S
C2246 C2242 1.524 . S
C2246 H2258 0.956 . S
C2246 H2259 0.961 . S
C2246 H2260 0.961 . S
C2247 C2244 1.539 . S
C2247 H2261 0.958 . S
C2247 H2262 0.961 . S
C2247 H2263 0.960 . S
H2248 C2232 0.931 . S
H2249 C2237 0.929 . S
H2250 C2238 0.960 . S
H2251 C2238 0.962 . S
H2252 C2238 0.960 . S
H2253 C2239 0.961 . S
H2254 C2239 0.961 . S
H2255 C2239 0.961 . S
H2256 C2240 0.931 . S
H2257 C2245 0.930 . S
H2258 C2246 0.956 . S
H2259 C2246 0.961 . S
H2260 C2246 0.961 . S
H2261 C2247 0.958 . S
H2262 C2247 0.961 . S
H2263 C2247 0.960 . S
C2264 C2265 1.391 . S
C2264 C2266 1.394 . S
C2264 H2280 0.931 . S
C2265 C2264 1.391 . S
C2265 C2269 1.376 . S
C2266 C2264 1.394 . S
C2266 C2267 1.369 . S
C2266 C2270 1.531 . S
C2267 C2266 1.369 . S
C2267 C2268 1.410 . S
C2267 C2275 1.503 . S
C2268 C2267 1.410 . S
C2268 C2269 1.392 . S
C2268 C2271 1.511 . S
C2269 C2265 1.376 . S
C2269 C2268 1.392 . S
C2269 H2281 0.929 . S
C2270 C2266 1.531 . S
C2270 H2282 0.960 . S
C2270 H2283 0.962 . S
C2270 H2284 0.960 . S
C2271 C2268 1.511 . S
C2271 H2285 0.961 . S
C2271 H2286 0.961 . S
C2271 H2287 0.961 . S
C2272 C2273 1.370 . S
C2272 C2274 1.363 . S
C2272 H2288 0.931 . S
C2273 C2272 1.370 . S
C2273 C2277 1.408 . S
C2274 C2272 1.363 . S
C2274 C2275 1.370 . S
C2274 C2278 1.524 . S
C2275 C2267 1.503 . S
C2275 C2274 1.370 . S
C2275 C2276 1.403 . S
C2276 C2275 1.403 . S
C2276 C2277 1.404 . S
C2276 C2279 1.539 . S
C2277 C2273 1.408 . S
C2277 C2276 1.404 . S
C2277 H2289 0.930 . S
C2278 C2274 1.524 . S
C2278 H2290 0.956 . S
C2278 H2291 0.961 . S
C2278 H2292 0.961 1_554 S
C2279 C2276 1.539 . S
C2279 H2293 0.958 . S
C2279 H2294 0.961 . S
C2279 H2295 0.960 . S
H2280 C2264 0.931 . S
H2281 C2269 0.929 . S
H2282 C2270 0.960 . S
H2283 C2270 0.962 . S
H2284 C2270 0.960 . S
H2285 C2271 0.961 . S
H2286 C2271 0.961 . S
H2287 C2271 0.961 . S
H2288 C2272 0.931 . S
H2289 C2277 0.930 . S
H2290 C2278 0.956 . S
H2291 C2278 0.961 . S
H2292 C2278 0.961 1_556 S
H2293 C2279 0.958 . S
H2294 C2279 0.961 . S
H2295 C2279 0.960 . S
C2296 C2297 1.391 . S
C2296 C2298 1.394 . S
C2296 H2312 0.931 . S
C2297 C2296 1.391 . S
C2297 C2301 1.376 . S
C2298 C2296 1.394 . S
C2298 C2299 1.369 . S
C2298 C2302 1.531 . S
C2299 C2298 1.369 . S
C2299 C2300 1.410 . S
C2299 C2307 1.503 . S
C2300 C2299 1.410 . S
C2300 C2301 1.392 . S
C2300 C2303 1.511 . S
C2301 C2297 1.376 . S
C2301 C2300 1.392 . S
C2301 H2313 0.929 . S
C2302 C2298 1.531 . S
C2302 H2314 0.960 . S
C2302 H2315 0.962 . S
C2302 H2316 0.960 . S
C2303 C2300 1.511 . S
C2303 H2317 0.961 . S
C2303 H2318 0.961 . S
C2303 H2319 0.961 . S
C2304 C2305 1.370 . S
C2304 C2306 1.363 . S
C2304 H2320 0.931 . S
C2305 C2304 1.370 . S
C2305 C2309 1.408 . S
C2306 C2304 1.363 . S
C2306 C2307 1.370 . S
C2306 C2310 1.524 . S
C2307 C2299 1.503 . S
C2307 C2306 1.370 . S
C2307 C2308 1.403 . S
C2308 C2307 1.403 . S
C2308 C2309 1.404 . S
C2308 C2311 1.539 . S
C2309 C2305 1.408 . S
C2309 C2308 1.404 . S
C2309 H2321 0.930 . S
C2310 C2306 1.524 . S
C2310 H2322 0.956 . S
C2310 H2323 0.961 . S
C2310 H2324 0.961 . S
C2311 C2308 1.539 . S
C2311 H2325 0.958 . S
C2311 H2326 0.961 . S
C2311 H2327 0.960 . S
H2312 C2296 0.931 . S
H2313 C2301 0.929 . S
H2314 C2302 0.960 . S
H2315 C2302 0.962 . S
H2316 C2302 0.960 . S
H2317 C2303 0.961 . S
H2318 C2303 0.961 . S
H2319 C2303 0.961 . S
H2320 C2304 0.931 . S
H2321 C2309 0.930 . S
H2322 C2310 0.956 . S
H2323 C2310 0.961 . S
H2324 C2310 0.961 . S
H2325 C2311 0.958 . S
H2326 C2311 0.961 . S
H2327 C2311 0.960 . S
C2328 C2329 1.391 . S
C2328 C2330 1.394 . S
C2328 H2344 0.931 . S
C2329 C2328 1.391 . S
C2329 C2333 1.376 . S
C2330 C2328 1.394 . S
C2330 C2331 1.369 . S
C2330 C2334 1.531 . S
C2331 C2330 1.369 . S
C2331 C2332 1.410 . S
C2331 C2339 1.503 . S
C2332 C2331 1.410 . S
C2332 C2333 1.392 . S
C2332 C2335 1.511 . S
C2333 C2329 1.376 . S
C2333 C2332 1.392 . S
C2333 H2345 0.929 . S
C2334 C2330 1.531 . S
C2334 H2346 0.960 . S
C2334 H2347 0.962 . S
C2334 H2348 0.960 . S
C2335 C2332 1.511 . S
C2335 H2349 0.961 . S
C2335 H2350 0.961 . S
C2335 H2351 0.961 . S
C2336 C2337 1.370 . S
C2336 C2338 1.363 . S
C2336 H2352 0.931 . S
C2337 C2336 1.370 . S
C2337 C2341 1.408 . S
C2338 C2336 1.363 . S
C2338 C2339 1.370 . S
C2338 C2342 1.524 . S
C2339 C2331 1.503 . S
C2339 C2338 1.370 . S
C2339 C2340 1.403 . S
C2340 C2339 1.403 . S
C2340 C2341 1.404 . S
C2340 C2343 1.539 . S
C2341 C2337 1.408 . S
C2341 C2340 1.404 . S
C2341 H2353 0.930 . S
C2342 C2338 1.524 . S
C2342 H2354 0.956 . S
C2342 H2355 0.961 . S
C2342 H2356 0.961 . S
C2343 C2340 1.539 . S
C2343 H2357 0.958 . S
C2343 H2358 0.961 . S
C2343 H2359 0.960 . S
H2344 C2328 0.931 . S
H2345 C2333 0.929 . S
H2346 C2334 0.960 . S
H2347 C2334 0.962 . S
H2348 C2334 0.960 . S
H2349 C2335 0.961 . S
H2350 C2335 0.961 . S
H2351 C2335 0.961 . S
H2352 C2336 0.931 . S
H2353 C2341 0.930 . S
H2354 C2342 0.956 . S
H2355 C2342 0.961 . S
H2356 C2342 0.961 . S
H2357 C2343 0.958 . S
H2358 C2343 0.961 . S
H2359 C2343 0.960 . S
C2360 C2361 1.391 . S
C2360 C2362 1.394 . S
C2360 H2376 0.931 . S
C2361 C2360 1.391 . S
C2361 C2365 1.376 . S
C2362 C2360 1.394 . S
C2362 C2363 1.369 . S
C2362 C2366 1.531 . S
C2363 C2362 1.369 . S
C2363 C2364 1.410 . S
C2363 C2371 1.503 . S
C2364 C2363 1.410 . S
C2364 C2365 1.392 . S
C2364 C2367 1.511 . S
C2365 C2361 1.376 . S
C2365 C2364 1.392 . S
C2365 H2377 0.929 . S
C2366 C2362 1.531 . S
C2366 H2378 0.960 . S
C2366 H2379 0.962 . S
C2366 H2380 0.960 . S
C2367 C2364 1.511 . S
C2367 H2381 0.961 . S
C2367 H2382 0.961 . S
C2367 H2383 0.961 . S
C2368 C2369 1.370 . S
C2368 C2370 1.363 . S
C2368 H2384 0.931 . S
C2369 C2368 1.370 . S
C2369 C2373 1.408 . S
C2370 C2368 1.363 . S
C2370 C2371 1.370 . S
C2370 C2374 1.524 . S
C2371 C2363 1.503 . S
C2371 C2370 1.370 . S
C2371 C2372 1.403 . S
C2372 C2371 1.403 . S
C2372 C2373 1.404 . S
C2372 C2375 1.539 . S
C2373 C2369 1.408 . S
C2373 C2372 1.404 . S
C2373 H2385 0.930 . S
C2374 C2370 1.524 . S
C2374 H2386 0.956 . S
C2374 H2387 0.961 . S
C2374 H2388 0.961 . S
C2375 C2372 1.539 . S
C2375 H2389 0.958 . S
C2375 H2390 0.961 . S
C2375 H2391 0.960 . S
H2376 C2360 0.931 . S
H2377 C2365 0.929 . S
H2378 C2366 0.960 . S
H2379 C2366 0.962 . S
H2380 C2366 0.960 . S
H2381 C2367 0.961 . S
H2382 C2367 0.961 . S
H2383 C2367 0.961 . S
H2384 C2368 0.931 . S
H2385 C2373 0.930 . S
H2386 C2374 0.956 . S
H2387 C2374 0.961 . S
H2388 C2374 0.961 . S
H2389 C2375 0.958 . S
H2390 C2375 0.961 . S
H2391 C2375 0.960 . S
C2392 C2393 1.391 . S
C2392 C2394 1.394 . S
C2392 H2408 0.931 . S
C2393 C2392 1.391 . S
C2393 C2397 1.376 . S
C2394 C2392 1.394 . S
C2394 C2395 1.369 . S
C2394 C2398 1.531 . S
C2395 C2394 1.369 . S
C2395 C2396 1.410 . S
C2395 C2403 1.503 . S
C2396 C2395 1.410 . S
C2396 C2397 1.392 . S
C2396 C2399 1.511 . S
C2397 C2393 1.376 . S
C2397 C2396 1.392 . S
C2397 H2409 0.929 . S
C2398 C2394 1.531 . S
C2398 H2410 0.960 . S
C2398 H2411 0.962 . S
C2398 H2412 0.960 . S
C2399 C2396 1.511 . S
C2399 H2413 0.961 . S
C2399 H2414 0.961 . S
C2399 H2415 0.961 . S
C2400 C2401 1.370 . S
C2400 C2402 1.363 . S
C2400 H2416 0.931 . S
C2401 C2400 1.370 . S
C2401 C2405 1.408 . S
C2402 C2400 1.363 . S
C2402 C2403 1.370 . S
C2402 C2406 1.524 . S
C2403 C2395 1.503 . S
C2403 C2402 1.370 . S
C2403 C2404 1.403 . S
C2404 C2403 1.403 . S
C2404 C2405 1.404 . S
C2404 C2407 1.539 . S
C2405 C2401 1.408 . S
C2405 C2404 1.404 . S
C2405 H2417 0.930 . S
C2406 C2402 1.524 . S
C2406 H2418 0.956 . S
C2406 H2419 0.961 . S
C2406 H2420 0.961 . S
C2407 C2404 1.539 . S
C2407 H2421 0.958 . S
C2407 H2422 0.961 . S
C2407 H2423 0.960 . S
H2408 C2392 0.931 . S
H2409 C2397 0.929 . S
H2410 C2398 0.960 . S
H2411 C2398 0.962 . S
H2412 C2398 0.960 . S
H2413 C2399 0.961 . S
H2414 C2399 0.961 . S
H2415 C2399 0.961 . S
H2416 C2400 0.931 . S
H2417 C2405 0.930 . S
H2418 C2406 0.956 . S
H2419 C2406 0.961 . S
H2420 C2406 0.961 . S
H2421 C2407 0.958 . S
H2422 C2407 0.961 . S
H2423 C2407 0.960 . S
C2424 C2425 1.391 . S
C2424 C2426 1.394 . S
C2424 H2440 0.931 . S
C2425 C2424 1.391 . S
C2425 C2429 1.376 . S
C2426 C2424 1.394 . S
C2426 C2427 1.369 . S
C2426 C2430 1.531 . S
C2427 C2426 1.369 . S
C2427 C2428 1.410 . S
C2427 C2435 1.503 . S
C2428 C2427 1.410 . S
C2428 C2429 1.392 . S
C2428 C2431 1.511 . S
C2429 C2425 1.376 . S
C2429 C2428 1.392 . S
C2429 H2441 0.929 . S
C2430 C2426 1.531 . S
C2430 H2442 0.960 . S
C2430 H2443 0.962 . S
C2430 H2444 0.960 . S
C2431 C2428 1.511 . S
C2431 H2445 0.961 . S
C2431 H2446 0.961 . S
C2431 H2447 0.961 . S
C2432 C2433 1.370 . S
C2432 C2434 1.363 . S
C2432 H2448 0.931 . S
C2433 C2432 1.370 . S
C2433 C2437 1.408 . S
C2434 C2432 1.363 . S
C2434 C2435 1.370 . S
C2434 C2438 1.524 . S
C2435 C2427 1.503 . S
C2435 C2434 1.370 . S
C2435 C2436 1.403 . S
C2436 C2435 1.403 . S
C2436 C2437 1.404 . S
C2436 C2439 1.539 . S
C2437 C2433 1.408 . S
C2437 C2436 1.404 . S
C2437 H2449 0.930 . S
C2438 C2434 1.524 . S
C2438 H2450 0.956 . S
C2438 H2451 0.961 . S
C2438 H2452 0.961 . S
C2439 C2436 1.539 . S
C2439 H2453 0.958 . S
C2439 H2454 0.961 . S
C2439 H2455 0.960 . S
H2440 C2424 0.931 . S
H2441 C2429 0.929 . S
H2442 C2430 0.960 . S
H2443 C2430 0.962 . S
H2444 C2430 0.960 . S
H2445 C2431 0.961 . S
H2446 C2431 0.961 . S
H2447 C2431 0.961 . S
H2448 C2432 0.931 . S
H2449 C2437 0.930 . S
H2450 C2438 0.956 . S
H2451 C2438 0.961 . S
H2452 C2438 0.961 . S
H2453 C2439 0.958 . S
H2454 C2439 0.961 . S
H2455 C2439 0.960 . S
C2456 C2457 1.391 . S
C2456 C2458 1.394 . S
C2456 H2472 0.931 . S
C2457 C2456 1.391 . S
C2457 C2461 1.376 . S
C2458 C2456 1.394 . S
C2458 C2459 1.369 . S
C2458 C2462 1.531 . S
C2459 C2458 1.369 . S
C2459 C2460 1.410 . S
C2459 C2467 1.503 . S
C2460 C2459 1.410 . S
C2460 C2461 1.392 . S
C2460 C2463 1.511 . S
C2461 C2457 1.376 . S
C2461 C2460 1.392 . S
C2461 H2473 0.929 . S
C2462 C2458 1.531 . S
C2462 H2474 0.960 . S
C2462 H2475 0.962 . S
C2462 H2476 0.960 . S
C2463 C2460 1.511 . S
C2463 H2477 0.961 . S
C2463 H2478 0.961 . S
C2463 H2479 0.961 . S
C2464 C2465 1.370 . S
C2464 C2466 1.363 . S
C2464 H2480 0.931 . S
C2465 C2464 1.370 . S
C2465 C2469 1.408 . S
C2466 C2464 1.363 . S
C2466 C2467 1.370 . S
C2466 C2470 1.524 . S
C2467 C2459 1.503 . S
C2467 C2466 1.370 . S
C2467 C2468 1.403 . S
C2468 C2467 1.403 . S
C2468 C2469 1.404 . S
C2468 C2471 1.539 . S
C2469 C2465 1.408 . S
C2469 C2468 1.404 . S
C2469 H2481 0.930 . S
C2470 C2466 1.524 . S
C2470 H2482 0.956 . S
C2470 H2483 0.961 . S
C2470 H2484 0.961 . S
C2471 C2468 1.539 . S
C2471 H2485 0.958 . S
C2471 H2486 0.961 . S
C2471 H2487 0.960 . S
H2472 C2456 0.931 . S
H2473 C2461 0.929 . S
H2474 C2462 0.960 . S
H2475 C2462 0.962 . S
H2476 C2462 0.960 . S
H2477 C2463 0.961 . S
H2478 C2463 0.961 . S
H2479 C2463 0.961 . S
H2480 C2464 0.931 . S
H2481 C2469 0.930 . S
H2482 C2470 0.956 . S
H2483 C2470 0.961 . S
H2484 C2470 0.961 . S
H2485 C2471 0.958 . S
H2486 C2471 0.961 . S
H2487 C2471 0.960 . S
C2488 C2489 1.391 . S
C2488 C2490 1.394 . S
C2488 H2504 0.931 . S
C2489 C2488 1.391 . S
C2489 C2493 1.376 . S
C2490 C2488 1.394 . S
C2490 C2491 1.369 . S
C2490 C2494 1.531 . S
C2491 C2490 1.369 . S
C2491 C2492 1.410 . S
C2491 C2499 1.503 . S
C2492 C2491 1.410 . S
C2492 C2493 1.392 . S
C2492 C2495 1.511 . S
C2493 C2489 1.376 . S
C2493 C2492 1.392 . S
C2493 H2505 0.929 . S
C2494 C2490 1.531 . S
C2494 H2506 0.960 . S
C2494 H2507 0.962 . S
C2494 H2508 0.960 . S
C2495 C2492 1.511 . S
C2495 H2509 0.961 . S
C2495 H2510 0.961 . S
C2495 H2511 0.961 . S
C2496 C2497 1.370 . S
C2496 C2498 1.363 . S
C2496 H2512 0.931 . S
C2497 C2496 1.370 . S
C2497 C2501 1.408 . S
C2498 C2496 1.363 . S
C2498 C2499 1.370 . S
C2498 C2502 1.524 . S
C2499 C2491 1.503 . S
C2499 C2498 1.370 . S
C2499 C2500 1.403 . S
C2500 C2499 1.403 . S
C2500 C2501 1.404 . S
C2500 C2503 1.539 . S
C2501 C2497 1.408 . S
C2501 C2500 1.404 . S
C2501 H2513 0.930 . S
C2502 C2498 1.524 . S
C2502 H2514 0.956 . S
C2502 H2515 0.961 . S
C2502 H2516 0.961 . S
C2503 C2500 1.539 . S
C2503 H2517 0.958 . S
C2503 H2518 0.961 . S
C2503 H2519 0.960 . S
H2504 C2488 0.931 . S
H2505 C2493 0.929 . S
H2506 C2494 0.960 . S
H2507 C2494 0.962 . S
H2508 C2494 0.960 . S
H2509 C2495 0.961 . S
H2510 C2495 0.961 . S
H2511 C2495 0.961 . S
H2512 C2496 0.931 . S
H2513 C2501 0.930 . S
H2514 C2502 0.956 . S
H2515 C2502 0.961 . S
H2516 C2502 0.961 . S
H2517 C2503 0.958 . S
H2518 C2503 0.961 . S
H2519 C2503 0.960 . S
C2520 C2521 1.391 . S
C2520 C2522 1.394 . S
C2520 H2536 0.931 . S
C2521 C2520 1.391 . S
C2521 C2525 1.376 . S
C2522 C2520 1.394 . S
C2522 C2523 1.369 . S
C2522 C2526 1.531 . S
C2523 C2522 1.369 . S
C2523 C2524 1.410 . S
C2523 C2531 1.503 . S
C2524 C2523 1.410 . S
C2524 C2525 1.392 . S
C2524 C2527 1.511 . S
C2525 C2521 1.376 . S
C2525 C2524 1.392 . S
C2525 H2537 0.929 . S
C2526 C2522 1.531 . S
C2526 H2538 0.960 . S
C2526 H2539 0.962 . S
C2526 H2540 0.960 . S
C2527 C2524 1.511 . S
C2527 H2541 0.961 . S
C2527 H2542 0.961 . S
C2527 H2543 0.961 . S
C2528 C2529 1.370 . S
C2528 C2530 1.363 . S
C2528 H2544 0.931 . S
C2529 C2528 1.370 . S
C2529 C2533 1.408 . S
C2530 C2528 1.363 . S
C2530 C2531 1.370 . S
C2530 C2534 1.524 . S
C2531 C2523 1.503 . S
C2531 C2530 1.370 . S
C2531 C2532 1.403 . S
C2532 C2531 1.403 . S
C2532 C2533 1.404 . S
C2532 C2535 1.539 . S
C2533 C2529 1.408 . S
C2533 C2532 1.404 . S
C2533 H2545 0.930 . S
C2534 C2530 1.524 . S
C2534 H2546 0.956 . S
C2534 H2547 0.961 . S
C2534 H2548 0.961 . S
C2535 C2532 1.539 . S
C2535 H2549 0.958 . S
C2535 H2550 0.961 . S
C2535 H2551 0.960 . S
H2536 C2520 0.931 . S
H2537 C2525 0.929 . S
H2538 C2526 0.960 . S
H2539 C2526 0.962 . S
H2540 C2526 0.960 . S
H2541 C2527 0.961 . S
H2542 C2527 0.961 . S
H2543 C2527 0.961 . S
H2544 C2528 0.931 . S
H2545 C2533 0.930 . S
H2546 C2534 0.956 . S
H2547 C2534 0.961 . S
H2548 C2534 0.961 . S
H2549 C2535 0.958 . S
H2550 C2535 0.961 . S
H2551 C2535 0.960 . S
C2552 C2553 1.391 1_554 S
C2552 C2554 1.394 . S
C2552 H2568 0.931 . S
C2553 C2552 1.391 1_556 S
C2553 C2557 1.376 . S
C2554 C2552 1.394 . S
C2554 C2555 1.369 . S
C2554 C2558 1.531 . S
C2555 C2554 1.369 . S
C2555 C2556 1.410 1_554 S
C2555 C2563 1.503 . S
C2556 C2555 1.410 1_556 S
C2556 C2557 1.392 . S
C2556 C2559 1.511 . S
C2557 C2553 1.376 . S
C2557 C2556 1.392 . S
C2557 H2569 0.929 . S
C2558 C2554 1.531 . S
C2558 H2570 0.960 . S
C2558 H2571 0.962 . S
C2558 H2572 0.960 . S
C2559 C2556 1.511 . S
C2559 H2573 0.961 . S
C2559 H2574 0.961 . S
C2559 H2575 0.961 . S
C2560 C2561 1.370 . S
C2560 C2562 1.363 . S
C2560 H2576 0.931 . S
C2561 C2560 1.370 . S
C2561 C2565 1.408 . S
C2562 C2560 1.363 . S
C2562 C2563 1.370 . S
C2562 C2566 1.524 1_454 S
C2563 C2555 1.503 . S
C2563 C2562 1.370 . S
C2563 C2564 1.403 . S
C2564 C2563 1.403 . S
C2564 C2565 1.404 . S
C2564 C2567 1.539 . S
C2565 C2561 1.408 . S
C2565 C2564 1.404 . S
C2565 H2577 0.930 . S
C2566 C2562 1.524 1_656 S
C2566 H2578 0.956 . S
C2566 H2579 0.961 . S
C2566 H2580 0.961 . S
C2567 C2564 1.539 . S
C2567 H2581 0.958 . S
C2567 H2582 0.961 . S
C2567 H2583 0.960 . S
H2568 C2552 0.931 . S
H2569 C2557 0.929 . S
H2570 C2558 0.960 . S
H2571 C2558 0.962 . S
H2572 C2558 0.960 . S
H2573 C2559 0.961 . S
H2574 C2559 0.961 . S
H2575 C2559 0.961 . S
H2576 C2560 0.931 . S
H2577 C2565 0.930 . S
H2578 C2566 0.956 . S
H2579 C2566 0.961 . S
H2580 C2566 0.961 . S
H2581 C2567 0.958 . S
H2582 C2567 0.961 . S
H2583 C2567 0.960 . S
C2584 C2585 1.391 . S
C2584 C2586 1.394 . S
C2584 H2600 0.931 1_655 S
C2585 C2584 1.391 . S
C2585 C2589 1.376 . S
C2586 C2584 1.394 . S
C2586 C2587 1.369 . S
C2586 C2590 1.531 . S
C2587 C2586 1.369 . S
C2587 C2588 1.410 . S
C2587 C2595 1.503 . S
C2588 C2587 1.410 . S
C2588 C2589 1.392 . S
C2588 C2591 1.511 . S
C2589 C2585 1.376 . S
C2589 C2588 1.392 . S
C2589 H2601 0.929 . S
C2590 C2586 1.531 . S
C2590 H2602 0.960 . S
C2590 H2603 0.962 . S
C2590 H2604 0.960 . S
C2591 C2588 1.511 . S
C2591 H2605 0.961 . S
C2591 H2606 0.961 . S
C2591 H2607 0.961 . S
C2592 C2593 1.370 . S
C2592 C2594 1.363 . S
C2592 H2608 0.931 . S
C2593 C2592 1.370 . S
C2593 C2597 1.408 . S
C2594 C2592 1.363 . S
C2594 C2595 1.370 . S
C2594 C2598 1.524 . S
C2595 C2587 1.503 . S
C2595 C2594 1.370 . S
C2595 C2596 1.403 . S
C2596 C2595 1.403 . S
C2596 C2597 1.404 . S
C2596 C2599 1.539 . S
C2597 C2593 1.408 . S
C2597 C2596 1.404 . S
C2597 H2609 0.930 . S
C2598 C2594 1.524 . S
C2598 H2610 0.956 . S
C2598 H2611 0.961 . S
C2598 H2612 0.961 . S
C2599 C2596 1.539 . S
C2599 H2613 0.958 . S
C2599 H2614 0.961 . S
C2599 H2615 0.960 . S
H2600 C2584 0.931 1_455 S
H2601 C2589 0.929 . S
H2602 C2590 0.960 . S
H2603 C2590 0.962 . S
H2604 C2590 0.960 . S
H2605 C2591 0.961 . S
H2606 C2591 0.961 . S
H2607 C2591 0.961 . S
H2608 C2592 0.931 . S
H2609 C2597 0.930 . S
H2610 C2598 0.956 . S
H2611 C2598 0.961 . S
H2612 C2598 0.961 . S
H2613 C2599 0.958 . S
H2614 C2599 0.961 . S
H2615 C2599 0.960 . S
C2616 C2617 1.391 . S
C2616 C2618 1.394 . S
C2616 H2632 0.931 . S
C2617 C2616 1.391 . S
C2617 C2621 1.376 . S
C2618 C2616 1.394 . S
C2618 C2619 1.369 . S
C2618 C2622 1.531 . S
C2619 C2618 1.369 . S
C2619 C2620 1.410 . S
C2619 C2627 1.503 . S
C2620 C2619 1.410 . S
C2620 C2621 1.392 . S
C2620 C2623 1.511 . S
C2621 C2617 1.376 . S
C2621 C2620 1.392 . S
C2621 H2633 0.929 . S
C2622 C2618 1.531 . S
C2622 H2634 0.960 . S
C2622 H2635 0.962 . S
C2622 H2636 0.960 . S
C2623 C2620 1.511 . S
C2623 H2637 0.961 . S
C2623 H2638 0.961 . S
C2623 H2639 0.961 . S
C2624 C2625 1.370 . S
C2624 C2626 1.363 . S
C2624 H2640 0.931 . S
C2625 C2624 1.370 . S
C2625 C2629 1.408 . S
C2626 C2624 1.363 . S
C2626 C2627 1.370 . S
C2626 C2630 1.524 . S
C2627 C2619 1.503 . S
C2627 C2626 1.370 . S
C2627 C2628 1.403 . S
C2628 C2627 1.403 . S
C2628 C2629 1.404 . S
C2628 C2631 1.539 . S
C2629 C2625 1.408 . S
C2629 C2628 1.404 . S
C2629 H2641 0.930 . S
C2630 C2626 1.524 . S
C2630 H2642 0.956 . S
C2630 H2643 0.961 . S
C2630 H2644 0.961 . S
C2631 C2628 1.539 . S
C2631 H2645 0.958 . S
C2631 H2646 0.961 . S
C2631 H2647 0.960 . S
H2632 C2616 0.931 . S
H2633 C2621 0.929 . S
H2634 C2622 0.960 . S
H2635 C2622 0.962 . S
H2636 C2622 0.960 . S
H2637 C2623 0.961 . S
H2638 C2623 0.961 . S
H2639 C2623 0.961 . S
H2640 C2624 0.931 . S
H2641 C2629 0.930 . S
H2642 C2630 0.956 . S
H2643 C2630 0.961 . S
H2644 C2630 0.961 . S
H2645 C2631 0.958 . S
H2646 C2631 0.961 . S
H2647 C2631 0.960 . S
C2648 C2649 1.391 . S
C2648 C2650 1.394 . S
C2648 H2664 0.931 . S
C2649 C2648 1.391 . S
C2649 C2653 1.376 . S
C2650 C2648 1.394 . S
C2650 C2651 1.369 . S
C2650 C2654 1.531 . S
C2651 C2650 1.369 . S
C2651 C2652 1.410 . S
C2651 C2659 1.503 . S
C2652 C2651 1.410 . S
C2652 C2653 1.392 . S
C2652 C2655 1.511 . S
C2653 C2649 1.376 . S
C2653 C2652 1.392 . S
C2653 H2665 0.929 . S
C2654 C2650 1.531 . S
C2654 H2666 0.960 . S
C2654 H2667 0.962 . S
C2654 H2668 0.960 . S
C2655 C2652 1.511 . S
C2655 H2669 0.961 . S
C2655 H2670 0.961 . S
C2655 H2671 0.961 . S
C2656 C2657 1.370 . S
C2656 C2658 1.363 . S
C2656 H2672 0.931 . S
C2657 C2656 1.370 . S
C2657 C2661 1.408 . S
C2658 C2656 1.363 . S
C2658 C2659 1.370 . S
C2658 C2662 1.524 . S
C2659 C2651 1.503 . S
C2659 C2658 1.370 . S
C2659 C2660 1.403 . S
C2660 C2659 1.403 . S
C2660 C2661 1.404 . S
C2660 C2663 1.539 . S
C2661 C2657 1.408 . S
C2661 C2660 1.404 . S
C2661 H2673 0.930 . S
C2662 C2658 1.524 . S
C2662 H2674 0.956 . S
C2662 H2675 0.961 . S
C2662 H2676 0.961 . S
C2663 C2660 1.539 . S
C2663 H2677 0.958 . S
C2663 H2678 0.961 . S
C2663 H2679 0.960 . S
H2664 C2648 0.931 . S
H2665 C2653 0.929 . S
H2666 C2654 0.960 . S
H2667 C2654 0.962 . S
H2668 C2654 0.960 . S
H2669 C2655 0.961 . S
H2670 C2655 0.961 . S
H2671 C2655 0.961 . S
H2672 C2656 0.931 . S
H2673 C2661 0.930 . S
H2674 C2662 0.956 . S
H2675 C2662 0.961 . S
H2676 C2662 0.961 . S
H2677 C2663 0.958 . S
H2678 C2663 0.961 . S
H2679 C2663 0.960 . S
C2680 C2681 1.391 . S
C2680 C2682 1.394 . S
C2680 H2696 0.931 . S
C2681 C2680 1.391 . S
C2681 C2685 1.376 . S
C2682 C2680 1.394 . S
C2682 C2683 1.369 . S
C2682 C2686 1.531 . S
C2683 C2682 1.369 . S
C2683 C2684 1.410 . S
C2683 C2691 1.503 . S
C2684 C2683 1.410 . S
C2684 C2685 1.392 . S
C2684 C2687 1.511 . S
C2685 C2681 1.376 . S
C2685 C2684 1.392 . S
C2685 H2697 0.929 . S
C2686 C2682 1.531 . S
C2686 H2698 0.960 . S
C2686 H2699 0.962 . S
C2686 H2700 0.960 . S
C2687 C2684 1.511 . S
C2687 H2701 0.961 . S
C2687 H2702 0.961 . S
C2687 H2703 0.961 . S
C2688 C2689 1.370 . S
C2688 C2690 1.363 . S
C2688 H2704 0.931 . S
C2689 C2688 1.370 . S
C2689 C2693 1.408 . S
C2690 C2688 1.363 . S
C2690 C2691 1.370 . S
C2690 C2694 1.524 . S
C2691 C2683 1.503 . S
C2691 C2690 1.370 . S
C2691 C2692 1.403 . S
C2692 C2691 1.403 . S
C2692 C2693 1.404 . S
C2692 C2695 1.539 . S
C2693 C2689 1.408 . S
C2693 C2692 1.404 . S
C2693 H2705 0.930 . S
C2694 C2690 1.524 . S
C2694 H2706 0.956 . S
C2694 H2707 0.961 . S
C2694 H2708 0.961 . S
C2695 C2692 1.539 . S
C2695 H2709 0.958 . S
C2695 H2710 0.961 . S
C2695 H2711 0.960 . S
H2696 C2680 0.931 . S
H2697 C2685 0.929 . S
H2698 C2686 0.960 . S
H2699 C2686 0.962 . S
H2700 C2686 0.960 . S
H2701 C2687 0.961 . S
H2702 C2687 0.961 . S
H2703 C2687 0.961 . S
H2704 C2688 0.931 . S
H2705 C2693 0.930 . S
H2706 C2694 0.956 . S
H2707 C2694 0.961 . S
H2708 C2694 0.961 . S
H2709 C2695 0.958 . S
H2710 C2695 0.961 . S
H2711 C2695 0.960 . S
C2712 C2713 1.391 . S
C2712 C2714 1.394 . S
C2712 H2728 0.931 . S
C2713 C2712 1.391 . S
C2713 C2717 1.376 . S
C2714 C2712 1.394 . S
C2714 C2715 1.369 . S
C2714 C2718 1.531 . S
C2715 C2714 1.369 . S
C2715 C2716 1.410 . S
C2715 C2723 1.503 . S
C2716 C2715 1.410 . S
C2716 C2717 1.392 . S
C2716 C2719 1.511 . S
C2717 C2713 1.376 . S
C2717 C2716 1.392 . S
C2717 H2729 0.929 . S
C2718 C2714 1.531 . S
C2718 H2730 0.960 . S
C2718 H2731 0.962 . S
C2718 H2732 0.960 . S
C2719 C2716 1.511 . S
C2719 H2733 0.961 . S
C2719 H2734 0.961 . S
C2719 H2735 0.961 . S
C2720 C2721 1.370 . S
C2720 C2722 1.363 . S
C2720 H2736 0.931 . S
C2721 C2720 1.370 . S
C2721 C2725 1.408 . S
C2722 C2720 1.363 . S
C2722 C2723 1.370 . S
C2722 C2726 1.524 . S
C2723 C2715 1.503 . S
C2723 C2722 1.370 . S
C2723 C2724 1.403 . S
C2724 C2723 1.403 . S
C2724 C2725 1.404 . S
C2724 C2727 1.539 . S
C2725 C2721 1.408 . S
C2725 C2724 1.404 . S
C2725 H2737 0.930 . S
C2726 C2722 1.524 . S
C2726 H2738 0.956 . S
C2726 H2739 0.961 . S
C2726 H2740 0.961 . S
C2727 C2724 1.539 . S
C2727 H2741 0.958 . S
C2727 H2742 0.961 . S
C2727 H2743 0.960 . S
H2728 C2712 0.931 . S
H2729 C2717 0.929 . S
H2730 C2718 0.960 . S
H2731 C2718 0.962 . S
H2732 C2718 0.960 . S
H2733 C2719 0.961 . S
H2734 C2719 0.961 . S
H2735 C2719 0.961 . S
H2736 C2720 0.931 . S
H2737 C2725 0.930 . S
H2738 C2726 0.956 . S
H2739 C2726 0.961 . S
H2740 C2726 0.961 . S
H2741 C2727 0.958 . S
H2742 C2727 0.961 . S
H2743 C2727 0.960 . S
C2744 C2745 1.391 . S
C2744 C2746 1.394 . S
C2744 H2760 0.931 . S
C2745 C2744 1.391 . S
C2745 C2749 1.376 . S
C2746 C2744 1.394 . S
C2746 C2747 1.369 . S
C2746 C2750 1.531 . S
C2747 C2746 1.369 . S
C2747 C2748 1.410 . S
C2747 C2755 1.503 . S
C2748 C2747 1.410 . S
C2748 C2749 1.392 . S
C2748 C2751 1.511 . S
C2749 C2745 1.376 . S
C2749 C2748 1.392 . S
C2749 H2761 0.929 . S
C2750 C2746 1.531 . S
C2750 H2762 0.960 . S
C2750 H2763 0.962 . S
C2750 H2764 0.960 . S
C2751 C2748 1.511 . S
C2751 H2765 0.961 . S
C2751 H2766 0.961 . S
C2751 H2767 0.961 . S
C2752 C2753 1.370 . S
C2752 C2754 1.363 . S
C2752 H2768 0.931 . S
C2753 C2752 1.370 . S
C2753 C2757 1.408 . S
C2754 C2752 1.363 . S
C2754 C2755 1.370 . S
C2754 C2758 1.524 . S
C2755 C2747 1.503 . S
C2755 C2754 1.370 . S
C2755 C2756 1.403 . S
C2756 C2755 1.403 . S
C2756 C2757 1.404 . S
C2756 C2759 1.539 . S
C2757 C2753 1.408 . S
C2757 C2756 1.404 . S
C2757 H2769 0.930 . S
C2758 C2754 1.524 . S
C2758 H2770 0.956 . S
C2758 H2771 0.961 . S
C2758 H2772 0.961 . S
C2759 C2756 1.539 . S
C2759 H2773 0.958 . S
C2759 H2774 0.961 . S
C2759 H2775 0.960 . S
H2760 C2744 0.931 . S
H2761 C2749 0.929 . S
H2762 C2750 0.960 . S
H2763 C2750 0.962 . S
H2764 C2750 0.960 . S
H2765 C2751 0.961 . S
H2766 C2751 0.961 . S
H2767 C2751 0.961 . S
H2768 C2752 0.931 . S
H2769 C2757 0.930 . S
H2770 C2758 0.956 . S
H2771 C2758 0.961 . S
H2772 C2758 0.961 . S
H2773 C2759 0.958 . S
H2774 C2759 0.961 . S
H2775 C2759 0.960 . S
C2776 C2777 1.391 . S
C2776 C2778 1.394 . S
C2776 H2792 0.931 . S
C2777 C2776 1.391 . S
C2777 C2781 1.376 . S
C2778 C2776 1.394 . S
C2778 C2779 1.369 . S
C2778 C2782 1.559 . S
C2779 C2778 1.369 . S
C2779 C2780 1.410 . S
C2779 C2787 1.503 1_554 S
C2780 C2779 1.410 . S
C2780 C2781 1.392 . S
C2780 C2783 1.511 . S
C2781 C2777 1.376 . S
C2781 C2780 1.392 . S
C2781 H2793 0.929 . S
C2782 C2778 1.559 . S
C2782 H2794 0.926 1_554 S
C2782 H2795 0.966 . S
C2782 H2796 0.964 . S
C2783 C2780 1.511 . S
C2783 H2797 0.961 . S
C2783 H2798 0.961 1_554 S
C2783 H2799 0.963 . S
C2784 C2785 1.370 . S
C2784 C2786 1.363 . S
C2784 H2800 0.931 . S
C2785 C2784 1.370 . S
C2785 C2789 1.408 . S
C2786 C2784 1.363 . S
C2786 C2787 1.370 . S
C2786 C2790 1.524 1_556 S
C2787 C2779 1.503 1_556 S
C2787 C2786 1.370 . S
C2787 C2788 1.403 . S
C2788 C2787 1.403 . S
C2788 C2789 1.404 . S
C2788 C2791 1.539 . S
C2789 C2785 1.408 . S
C2789 C2788 1.404 . S
C2789 H2801 0.930 . S
C2790 C2786 1.524 1_554 S
C2790 H2802 0.956 . S
C2790 H2803 0.961 . S
C2790 H2804 0.960 1_554 S
C2791 C2788 1.539 . S
C2791 H2805 0.958 . S
C2791 H2806 0.961 . S
C2791 H2807 0.960 . S
H2792 C2776 0.931 . S
H2793 C2781 0.929 . S
H2794 C2782 0.926 1_556 S
H2795 C2782 0.966 . S
H2796 C2782 0.964 . S
H2797 C2783 0.961 . S
H2798 C2783 0.961 1_556 S
H2799 C2783 0.963 . S
H2800 C2784 0.931 . S
H2801 C2789 0.930 . S
H2802 C2790 0.956 . S
H2803 C2790 0.961 . S
H2804 C2790 0.960 1_556 S
H2805 C2791 0.958 . S
H2806 C2791 0.961 . S
H2807 C2791 0.960 . S
C2808 C2809 1.391 . S
C2808 C2810 1.394 . S
C2808 H2824 0.931 . S
C2809 C2808 1.391 . S
C2809 C2813 1.376 . S
C2810 C2808 1.394 . S
C2810 C2811 1.369 . S
C2810 C2814 1.531 . S
C2811 C2810 1.369 . S
C2811 C2812 1.410 . S
C2811 C2819 1.503 . S
C2812 C2811 1.410 . S
C2812 C2813 1.392 . S
C2812 C2815 1.511 . S
C2813 C2809 1.376 . S
C2813 C2812 1.392 . S
C2813 H2825 0.929 . S
C2814 C2810 1.531 . S
C2814 H2826 0.960 . S
C2814 H2827 0.962 . S
C2814 H2828 0.960 . S
C2815 C2812 1.511 . S
C2815 H2829 0.961 . S
C2815 H2830 0.961 . S
C2815 H2831 0.961 . S
C2816 C2817 1.370 . S
C2816 C2818 1.363 . S
C2816 H2832 0.931 . S
C2817 C2816 1.370 . S
C2817 C2821 1.408 . S
C2818 C2816 1.363 . S
C2818 C2819 1.370 . S
C2818 C2822 1.524 . S
C2819 C2811 1.503 . S
C2819 C2818 1.370 . S
C2819 C2820 1.403 . S
C2820 C2819 1.403 . S
C2820 C2821 1.404 . S
C2820 C2823 1.539 . S
C2821 C2817 1.408 . S
C2821 C2820 1.404 . S
C2821 H2833 0.930 . S
C2822 C2818 1.524 . S
C2822 H2834 0.956 . S
C2822 H2835 0.961 . S
C2822 H2836 0.961 . S
C2823 C2820 1.539 . S
C2823 H2837 0.958 . S
C2823 H2838 0.961 . S
C2823 H2839 0.960 . S
H2824 C2808 0.931 . S
H2825 C2813 0.929 . S
H2826 C2814 0.960 . S
H2827 C2814 0.962 . S
H2828 C2814 0.960 . S
H2829 C2815 0.961 . S
H2830 C2815 0.961 . S
H2831 C2815 0.961 . S
H2832 C2816 0.931 . S
H2833 C2821 0.930 . S
H2834 C2822 0.956 . S
H2835 C2822 0.961 . S
H2836 C2822 0.961 . S
H2837 C2823 0.958 . S
H2838 C2823 0.961 . S
H2839 C2823 0.960 . S
C2840 C2841 1.391 . S
C2840 C2842 1.394 . S
C2840 H2856 0.931 . S
C2841 C2840 1.391 . S
C2841 C2845 1.376 . S
C2842 C2840 1.394 . S
C2842 C2843 1.369 . S
C2842 C2846 1.531 . S
C2843 C2842 1.369 . S
C2843 C2844 1.410 . S
C2843 C2851 1.503 . S
C2844 C2843 1.410 . S
C2844 C2845 1.392 . S
C2844 C2847 1.511 . S
C2845 C2841 1.376 . S
C2845 C2844 1.392 . S
C2845 H2857 0.929 . S
C2846 C2842 1.531 . S
C2846 H2858 0.960 . S
C2846 H2859 0.962 . S
C2846 H2860 0.960 . S
C2847 C2844 1.511 . S
C2847 H2861 0.961 . S
C2847 H2862 0.961 . S
C2847 H2863 0.961 . S
C2848 C2849 1.370 . S
C2848 C2850 1.363 . S
C2848 H2864 0.931 . S
C2849 C2848 1.370 . S
C2849 C2853 1.408 . S
C2850 C2848 1.363 . S
C2850 C2851 1.370 . S
C2850 C2854 1.524 . S
C2851 C2843 1.503 . S
C2851 C2850 1.370 . S
C2851 C2852 1.403 . S
C2852 C2851 1.403 . S
C2852 C2853 1.404 . S
C2852 C2855 1.539 . S
C2853 C2849 1.408 . S
C2853 C2852 1.404 . S
C2853 H2865 0.930 . S
C2854 C2850 1.524 . S
C2854 H2866 0.956 . S
C2854 H2867 0.961 . S
C2854 H2868 0.961 . S
C2855 C2852 1.539 . S
C2855 H2869 0.958 . S
C2855 H2870 0.961 . S
C2855 H2871 0.960 . S
H2856 C2840 0.931 . S
H2857 C2845 0.929 . S
H2858 C2846 0.960 . S
H2859 C2846 0.962 . S
H2860 C2846 0.960 . S
H2861 C2847 0.961 . S
H2862 C2847 0.961 . S
H2863 C2847 0.961 . S
H2864 C2848 0.931 . S
H2865 C2853 0.930 . S
H2866 C2854 0.956 . S
H2867 C2854 0.961 . S
H2868 C2854 0.961 . S
H2869 C2855 0.958 . S
H2870 C2855 0.961 . S
H2871 C2855 0.960 . S
C2872 C2873 1.391 . S
C2872 C2874 1.394 . S
C2872 H2888 0.931 . S
C2873 C2872 1.391 . S
C2873 C2877 1.376 . S
C2874 C2872 1.394 . S
C2874 C2875 1.369 . S
C2874 C2878 1.531 . S
C2875 C2874 1.369 . S
C2875 C2876 1.410 . S
C2875 C2883 1.503 . S
C2876 C2875 1.410 . S
C2876 C2877 1.392 . S
C2876 C2879 1.511 . S
C2877 C2873 1.376 . S
C2877 C2876 1.392 . S
C2877 H2889 0.929 . S
C2878 C2874 1.531 . S
C2878 H2890 0.960 . S
C2878 H2891 0.962 . S
C2878 H2892 0.960 . S
C2879 C2876 1.511 . S
C2879 H2893 0.961 . S
C2879 H2894 0.961 . S
C2879 H2895 0.961 . S
C2880 C2881 1.370 . S
C2880 C2882 1.363 . S
C2880 H2896 0.931 . S
C2881 C2880 1.370 . S
C2881 C2885 1.408 . S
C2882 C2880 1.363 . S
C2882 C2883 1.370 . S
C2882 C2886 1.524 . S
C2883 C2875 1.503 . S
C2883 C2882 1.370 . S
C2883 C2884 1.403 . S
C2884 C2883 1.403 . S
C2884 C2885 1.404 . S
C2884 C2887 1.539 . S
C2885 C2881 1.408 . S
C2885 C2884 1.404 . S
C2885 H2897 0.930 . S
C2886 C2882 1.524 . S
C2886 H2898 0.956 . S
C2886 H2899 0.961 . S
C2886 H2900 0.961 . S
C2887 C2884 1.539 . S
C2887 H2901 0.958 . S
C2887 H2902 0.961 . S
C2887 H2903 0.960 . S
H2888 C2872 0.931 . S
H2889 C2877 0.929 . S
H2890 C2878 0.960 . S
H2891 C2878 0.962 . S
H2892 C2878 0.960 . S
H2893 C2879 0.961 . S
H2894 C2879 0.961 . S
H2895 C2879 0.961 . S
H2896 C2880 0.931 . S
H2897 C2885 0.930 . S
H2898 C2886 0.956 . S
H2899 C2886 0.961 . S
H2900 C2886 0.961 . S
H2901 C2887 0.958 . S
H2902 C2887 0.961 . S
H2903 C2887 0.960 . S
C2904 C2905 1.391 . S
C2904 C2906 1.394 . S
C2904 H2920 0.931 . S
C2905 C2904 1.391 . S
C2905 C2909 1.376 . S
C2906 C2904 1.394 . S
C2906 C2907 1.369 . S
C2906 C2910 1.531 . S
C2907 C2906 1.369 . S
C2907 C2908 1.410 . S
C2907 C2915 1.503 . S
C2908 C2907 1.410 . S
C2908 C2909 1.392 . S
C2908 C2911 1.511 . S
C2909 C2905 1.376 . S
C2909 C2908 1.392 . S
C2909 H2921 0.929 . S
C2910 C2906 1.531 . S
C2910 H2922 0.960 . S
C2910 H2923 0.962 . S
C2910 H2924 0.960 . S
C2911 C2908 1.511 . S
C2911 H2925 0.961 . S
C2911 H2926 0.961 . S
C2911 H2927 0.961 . S
C2912 C2913 1.370 . S
C2912 C2914 1.363 . S
C2912 H2928 0.931 . S
C2913 C2912 1.370 . S
C2913 C2917 1.408 . S
C2914 C2912 1.363 . S
C2914 C2915 1.370 . S
C2914 C2918 1.524 . S
C2915 C2907 1.503 . S
C2915 C2914 1.370 . S
C2915 C2916 1.403 . S
C2916 C2915 1.403 . S
C2916 C2917 1.404 . S
C2916 C2919 1.539 . S
C2917 C2913 1.408 . S
C2917 C2916 1.404 . S
C2917 H2929 0.930 . S
C2918 C2914 1.524 . S
C2918 H2930 0.956 . S
C2918 H2931 0.961 . S
C2918 H2932 0.961 . S
C2919 C2916 1.539 . S
C2919 H2933 0.958 . S
C2919 H2934 0.961 . S
C2919 H2935 0.960 . S
H2920 C2904 0.931 . S
H2921 C2909 0.929 . S
H2922 C2910 0.960 . S
H2923 C2910 0.962 . S
H2924 C2910 0.960 . S
H2925 C2911 0.961 . S
H2926 C2911 0.961 . S
H2927 C2911 0.961 . S
H2928 C2912 0.931 . S
H2929 C2917 0.930 . S
H2930 C2918 0.956 . S
H2931 C2918 0.961 . S
H2932 C2918 0.961 . S
H2933 C2919 0.958 . S
H2934 C2919 0.961 . S
H2935 C2919 0.960 . S
C2936 C2937 1.391 . S
C2936 C2938 1.394 . S
C2936 H2952 0.931 . S
C2937 C2936 1.391 . S
C2937 C2941 1.376 . S
C2938 C2936 1.394 . S
C2938 C2939 1.369 . S
C2938 C2942 1.531 . S
C2939 C2938 1.369 . S
C2939 C2940 1.410 . S
C2939 C2947 1.503 . S
C2940 C2939 1.410 . S
C2940 C2941 1.392 . S
C2940 C2943 1.511 . S
C2941 C2937 1.376 . S
C2941 C2940 1.392 . S
C2941 H2953 0.929 . S
C2942 C2938 1.531 . S
C2942 H2954 0.960 . S
C2942 H2955 0.962 . S
C2942 H2956 0.960 . S
C2943 C2940 1.511 . S
C2943 H2957 0.961 . S
C2943 H2958 0.961 . S
C2943 H2959 0.961 . S
C2944 C2945 1.370 . S
C2944 C2946 1.363 . S
C2944 H2960 0.931 . S
C2945 C2944 1.370 . S
C2945 C2949 1.408 . S
C2946 C2944 1.363 . S
C2946 C2947 1.370 . S
C2946 C2950 1.524 . S
C2947 C2939 1.503 . S
C2947 C2946 1.370 . S
C2947 C2948 1.403 . S
C2948 C2947 1.403 . S
C2948 C2949 1.404 . S
C2948 C2951 1.539 . S
C2949 C2945 1.408 . S
C2949 C2948 1.404 . S
C2949 H2961 0.930 . S
C2950 C2946 1.524 . S
C2950 H2962 0.956 . S
C2950 H2963 0.961 . S
C2950 H2964 0.961 . S
C2951 C2948 1.539 . S
C2951 H2965 0.958 . S
C2951 H2966 0.961 . S
C2951 H2967 0.960 . S
H2952 C2936 0.931 . S
H2953 C2941 0.929 . S
H2954 C2942 0.960 . S
H2955 C2942 0.962 . S
H2956 C2942 0.960 . S
H2957 C2943 0.961 . S
H2958 C2943 0.961 . S
H2959 C2943 0.961 . S
H2960 C2944 0.931 . S
H2961 C2949 0.930 . S
H2962 C2950 0.956 . S
H2963 C2950 0.961 . S
H2964 C2950 0.961 . S
H2965 C2951 0.958 . S
H2966 C2951 0.961 . S
H2967 C2951 0.960 . S
C2968 C2969 1.391 . S
C2968 C2970 1.394 . S
C2968 H2984 0.931 . S
C2969 C2968 1.391 . S
C2969 C2973 1.376 . S
C2970 C2968 1.394 . S
C2970 C2971 1.369 . S
C2970 C2974 1.531 . S
C2971 C2970 1.369 . S
C2971 C2972 1.410 . S
C2971 C2979 1.503 . S
C2972 C2971 1.410 . S
C2972 C2973 1.392 . S
C2972 C2975 1.511 . S
C2973 C2969 1.376 . S
C2973 C2972 1.392 . S
C2973 H2985 0.929 . S
C2974 C2970 1.531 . S
C2974 H2986 0.960 . S
C2974 H2987 0.962 . S
C2974 H2988 0.960 . S
C2975 C2972 1.511 . S
C2975 H2989 0.961 . S
C2975 H2990 0.961 . S
C2975 H2991 0.961 . S
C2976 C2977 1.370 . S
C2976 C2978 1.363 . S
C2976 H2992 0.931 . S
C2977 C2976 1.370 . S
C2977 C2981 1.408 . S
C2978 C2976 1.363 . S
C2978 C2979 1.370 . S
C2978 C2982 1.524 . S
C2979 C2971 1.503 . S
C2979 C2978 1.370 . S
C2979 C2980 1.403 . S
C2980 C2979 1.403 . S
C2980 C2981 1.404 . S
C2980 C2983 1.539 . S
C2981 C2977 1.408 . S
C2981 C2980 1.404 . S
C2981 H2993 0.930 . S
C2982 C2978 1.524 . S
C2982 H2994 0.956 . S
C2982 H2995 0.961 . S
C2982 H2996 0.961 . S
C2983 C2980 1.539 . S
C2983 H2997 0.958 . S
C2983 H2998 0.961 . S
C2983 H2999 0.960 . S
H2984 C2968 0.931 . S
H2985 C2973 0.929 . S
H2986 C2974 0.960 . S
H2987 C2974 0.962 . S
H2988 C2974 0.960 . S
H2989 C2975 0.961 . S
H2990 C2975 0.961 . S
H2991 C2975 0.961 . S
H2992 C2976 0.931 . S
H2993 C2981 0.930 . S
H2994 C2982 0.956 . S
H2995 C2982 0.961 . S
H2996 C2982 0.961 . S
H2997 C2983 0.958 . S
H2998 C2983 0.961 . S
H2999 C2983 0.960 . S
C3000 C3001 1.391 . S
C3000 C3002 1.394 . S
C3000 H3016 0.931 . S
C3001 C3000 1.391 . S
C3001 C3005 1.376 . S
C3002 C3000 1.394 . S
C3002 C3003 1.369 . S
C3002 C3006 1.531 . S
C3003 C3002 1.369 . S
C3003 C3004 1.410 . S
C3003 C3011 1.503 . S
C3004 C3003 1.410 . S
C3004 C3005 1.392 . S
C3004 C3007 1.511 . S
C3005 C3001 1.376 . S
C3005 C3004 1.392 . S
C3005 H3017 0.929 . S
C3006 C3002 1.531 . S
C3006 H3018 0.960 . S
C3006 H3019 0.962 . S
C3006 H3020 0.960 . S
C3007 C3004 1.511 . S
C3007 H3021 0.961 . S
C3007 H3022 0.961 . S
C3007 H3023 0.961 . S
C3008 C3009 1.370 . S
C3008 C3010 1.363 . S
C3008 H3024 0.931 . S
C3009 C3008 1.370 . S
C3009 C3013 1.408 . S
C3010 C3008 1.363 . S
C3010 C3011 1.370 . S
C3010 C3014 1.524 . S
C3011 C3003 1.503 . S
C3011 C3010 1.370 . S
C3011 C3012 1.403 . S
C3012 C3011 1.403 . S
C3012 C3013 1.404 . S
C3012 C3015 1.539 . S
C3013 C3009 1.408 . S
C3013 C3012 1.404 . S
C3013 H3025 0.930 . S
C3014 C3010 1.524 . S
C3014 H3026 0.956 . S
C3014 H3027 0.961 . S
C3014 H3028 0.961 . S
C3015 C3012 1.539 . S
C3015 H3029 0.958 . S
C3015 H3030 0.961 . S
C3015 H3031 0.960 . S
H3016 C3000 0.931 . S
H3017 C3005 0.929 . S
H3018 C3006 0.960 . S
H3019 C3006 0.962 . S
H3020 C3006 0.960 . S
H3021 C3007 0.961 . S
H3022 C3007 0.961 . S
H3023 C3007 0.961 . S
H3024 C3008 0.931 . S
H3025 C3013 0.930 . S
H3026 C3014 0.956 . S
H3027 C3014 0.961 . S
H3028 C3014 0.961 . S
H3029 C3015 0.958 . S
H3030 C3015 0.961 . S
H3031 C3015 0.960 . S
C3032 C3033 1.391 . S
C3032 C3034 1.394 . S
C3032 H3048 0.931 . S
C3033 C3032 1.391 . S
C3033 C3037 1.376 . S
C3034 C3032 1.394 . S
C3034 C3035 1.369 . S
C3034 C3038 1.531 . S
C3035 C3034 1.369 . S
C3035 C3036 1.410 . S
C3035 C3043 1.503 . S
C3036 C3035 1.410 . S
C3036 C3037 1.392 . S
C3036 C3039 1.511 . S
C3037 C3033 1.376 . S
C3037 C3036 1.392 . S
C3037 H3049 0.929 . S
C3038 C3034 1.531 . S
C3038 H3050 0.960 . S
C3038 H3051 0.962 . S
C3038 H3052 0.960 . S
C3039 C3036 1.511 . S
C3039 H3053 0.961 . S
C3039 H3054 0.961 . S
C3039 H3055 0.961 . S
C3040 C3041 1.370 . S
C3040 C3042 1.363 . S
C3040 H3056 0.931 . S
C3041 C3040 1.370 . S
C3041 C3045 1.408 . S
C3042 C3040 1.363 . S
C3042 C3043 1.370 . S
C3042 C3046 1.524 . S
C3043 C3035 1.503 . S
C3043 C3042 1.370 . S
C3043 C3044 1.403 . S
C3044 C3043 1.403 . S
C3044 C3045 1.404 . S
C3044 C3047 1.539 . S
C3045 C3041 1.408 . S
C3045 C3044 1.404 . S
C3045 H3057 0.930 . S
C3046 C3042 1.524 . S
C3046 H3058 0.956 . S
C3046 H3059 0.961 . S
C3046 H3060 0.961 . S
C3047 C3044 1.539 . S
C3047 H3061 0.958 . S
C3047 H3062 0.961 . S
C3047 H3063 0.960 . S
H3048 C3032 0.931 . S
H3049 C3037 0.929 . S
H3050 C3038 0.960 . S
H3051 C3038 0.962 . S
H3052 C3038 0.960 . S
H3053 C3039 0.961 . S
H3054 C3039 0.961 . S
H3055 C3039 0.961 . S
H3056 C3040 0.931 . S
H3057 C3045 0.930 . S
H3058 C3046 0.956 . S
H3059 C3046 0.961 . S
H3060 C3046 0.961 . S
H3061 C3047 0.958 . S
H3062 C3047 0.961 . S
H3063 C3047 0.960 . S
C3064 C3065 1.391 . S
C3064 C3066 1.394 . S
C3064 H3080 0.931 . S
C3065 C3064 1.391 . S
C3065 C3069 1.376 . S
C3066 C3064 1.394 . S
C3066 C3067 1.369 . S
C3066 C3070 1.531 . S
C3067 C3066 1.369 . S
C3067 C3068 1.410 . S
C3067 C3075 1.503 . S
C3068 C3067 1.410 . S
C3068 C3069 1.392 . S
C3068 C3071 1.511 . S
C3069 C3065 1.376 . S
C3069 C3068 1.392 . S
C3069 H3081 0.929 1_565 S
C3070 C3066 1.531 . S
C3070 H3082 0.960 . S
C3070 H3083 0.962 . S
C3070 H3084 0.960 . S
C3071 C3068 1.511 . S
C3071 H3085 0.961 . S
C3071 H3086 0.961 . S
C3071 H3087 0.961 . S
C3072 C3073 1.370 . S
C3072 C3074 1.363 . S
C3072 H3088 0.931 . S
C3073 C3072 1.370 . S
C3073 C3077 1.408 . S
C3074 C3072 1.363 . S
C3074 C3075 1.370 . S
C3074 C3078 1.524 . S
C3075 C3067 1.503 . S
C3075 C3074 1.370 . S
C3075 C3076 1.403 . S
C3076 C3075 1.403 . S
C3076 C3077 1.404 . S
C3076 C3079 1.539 . S
C3077 C3073 1.408 . S
C3077 C3076 1.404 . S
C3077 H3089 0.930 . S
C3078 C3074 1.524 . S
C3078 H3090 0.956 . S
C3078 H3091 0.961 . S
C3078 H3092 0.961 . S
C3079 C3076 1.539 . S
C3079 H3093 0.958 . S
C3079 H3094 0.961 . S
C3079 H3095 0.960 . S
H3080 C3064 0.931 . S
H3081 C3069 0.929 1_545 S
H3082 C3070 0.960 . S
H3083 C3070 0.962 . S
H3084 C3070 0.960 . S
H3085 C3071 0.961 . S
H3086 C3071 0.961 . S
H3087 C3071 0.961 . S
H3088 C3072 0.931 . S
H3089 C3077 0.930 . S
H3090 C3078 0.956 . S
H3091 C3078 0.961 . S
H3092 C3078 0.961 . S
H3093 C3079 0.958 . S
H3094 C3079 0.961 . S
H3095 C3079 0.960 . S
C3096 C3097 1.391 . S
C3096 C3098 1.394 . S
C3096 H3112 0.931 . S
C3097 C3096 1.391 . S
C3097 C3101 1.349 1_554 S
C3098 C3096 1.394 . S
C3098 C3099 1.369 . S
C3098 C3102 1.531 . S
C3099 C3098 1.369 . S
C3099 C3100 1.410 . S
C3099 C3107 1.503 . S
C3100 C3099 1.410 . S
C3100 C3101 1.396 1_554 S
C3100 C3103 1.511 1_554 S
C3101 C3097 1.349 1_556 S
C3101 C3100 1.396 1_556 S
C3101 H3113 0.955 . S
C3102 C3098 1.531 . S
C3102 H3114 0.960 . S
C3102 H3115 0.962 . S
C3102 H3116 0.960 . S
C3103 C3100 1.511 1_556 S
C3103 H3117 0.961 . S
C3103 H3118 0.961 . S
C3103 H3119 0.973 . S
C3104 C3105 1.370 . S
C3104 C3106 1.363 . S
C3104 H3120 0.931 . S
C3105 C3104 1.370 . S
C3105 C3109 1.408 . S
C3106 C3104 1.363 . S
C3106 C3107 1.370 . S
C3106 C3110 1.524 1_554 S
C3107 C3099 1.503 . S
C3107 C3106 1.370 . S
C3107 C3108 1.403 . S
C3108 C3107 1.403 . S
C3108 C3109 1.404 . S
C3108 C3111 1.539 . S
C3109 C3105 1.408 . S
C3109 C3108 1.404 . S
C3109 H3121 0.930 . S
C3110 C3106 1.524 1_556 S
C3110 H3122 0.956 . S
C3110 H3123 0.961 . S
C3110 H3124 0.961 . S
C3111 C3108 1.539 . S
C3111 H3125 0.958 . S
C3111 H3126 0.961 . S
C3111 H3127 0.960 . S
H3112 C3096 0.931 . S
H3113 C3101 0.955 . S
H3114 C3102 0.960 . S
H3115 C3102 0.962 . S
H3116 C3102 0.960 . S
H3117 C3103 0.961 . S
H3118 C3103 0.961 . S
H3119 C3103 0.973 . S
H3120 C3104 0.931 . S
H3121 C3109 0.930 . S
H3122 C3110 0.956 . S
H3123 C3110 0.961 . S
H3124 C3110 0.961 . S
H3125 C3111 0.958 . S
H3126 C3111 0.961 . S
H3127 C3111 0.960 . S
C3128 C3129 1.391 . S
C3128 C3130 1.394 . S
C3128 H3144 0.931 . S
C3129 C3128 1.391 . S
C3129 C3133 1.376 . S
C3130 C3128 1.394 . S
C3130 C3131 1.369 . S
C3130 C3134 1.531 . S
C3131 C3130 1.369 . S
C3131 C3132 1.410 . S
C3131 C3139 1.503 . S
C3132 C3131 1.410 . S
C3132 C3133 1.392 . S
C3132 C3135 1.511 . S
C3133 C3129 1.376 . S
C3133 C3132 1.392 . S
C3133 H3145 0.929 . S
C3134 C3130 1.531 . S
C3134 H3146 0.960 . S
C3134 H3147 0.962 . S
C3134 H3148 0.960 . S
C3135 C3132 1.511 . S
C3135 H3149 0.961 . S
C3135 H3150 0.961 . S
C3135 H3151 0.961 . S
C3136 C3137 1.370 . S
C3136 C3138 1.363 . S
C3136 H3152 0.931 . S
C3137 C3136 1.370 . S
C3137 C3141 1.408 . S
C3138 C3136 1.363 . S
C3138 C3139 1.370 . S
C3138 C3142 1.524 . S
C3139 C3131 1.503 . S
C3139 C3138 1.370 . S
C3139 C3140 1.403 . S
C3140 C3139 1.403 . S
C3140 C3141 1.404 . S
C3140 C3143 1.539 . S
C3141 C3137 1.408 . S
C3141 C3140 1.404 . S
C3141 H3153 0.930 . S
C3142 C3138 1.524 . S
C3142 H3154 0.956 . S
C3142 H3155 0.961 . S
C3142 H3156 0.961 . S
C3143 C3140 1.539 . S
C3143 H3157 0.958 . S
C3143 H3158 0.961 . S
C3143 H3159 0.960 . S
H3144 C3128 0.931 . S
H3145 C3133 0.929 . S
H3146 C3134 0.960 . S
H3147 C3134 0.962 . S
H3148 C3134 0.960 . S
H3149 C3135 0.961 . S
H3150 C3135 0.961 . S
H3151 C3135 0.961 . S
H3152 C3136 0.931 . S
H3153 C3141 0.930 . S
H3154 C3142 0.956 . S
H3155 C3142 0.961 . S
H3156 C3142 0.961 . S
H3157 C3143 0.958 . S
H3158 C3143 0.961 . S
H3159 C3143 0.960 . S
C3160 C3161 1.391 . S
C3160 C3162 1.394 . S
C3160 H3176 0.931 . S
C3161 C3160 1.391 . S
C3161 C3165 1.376 . S
C3162 C3160 1.394 . S
C3162 C3163 1.369 . S
C3162 C3166 1.531 . S
C3163 C3162 1.369 . S
C3163 C3164 1.410 . S
C3163 C3171 1.503 . S
C3164 C3163 1.410 . S
C3164 C3165 1.392 . S
C3164 C3167 1.511 . S
C3165 C3161 1.376 . S
C3165 C3164 1.392 . S
C3165 H3177 0.929 . S
C3166 C3162 1.531 . S
C3166 H3178 0.960 . S
C3166 H3179 0.962 . S
C3166 H3180 0.960 . S
C3167 C3164 1.511 . S
C3167 H3181 0.961 1_554 S
C3167 H3182 0.961 . S
C3167 H3183 0.961 . S
C3168 C3169 1.370 . S
C3168 C3170 1.363 . S
C3168 H3184 0.931 . S
C3169 C3168 1.370 . S
C3169 C3173 1.408 . S
C3170 C3168 1.363 . S
C3170 C3171 1.370 . S
C3170 C3174 1.524 . S
C3171 C3163 1.503 . S
C3171 C3170 1.370 . S
C3171 C3172 1.403 . S
C3172 C3171 1.403 . S
C3172 C3173 1.404 . S
C3172 C3175 1.539 . S
C3173 C3169 1.408 . S
C3173 C3172 1.404 . S
C3173 H3185 0.930 . S
C3174 C3170 1.524 . S
C3174 H3186 0.956 . S
C3174 H3187 0.961 . S
C3174 H3188 0.961 . S
C3175 C3172 1.539 . S
C3175 H3189 0.958 . S
C3175 H3190 0.961 . S
C3175 H3191 0.960 . S
H3176 C3160 0.931 . S
H3177 C3165 0.929 . S
H3178 C3166 0.960 . S
H3179 C3166 0.962 . S
H3180 C3166 0.960 . S
H3181 C3167 0.961 1_556 S
H3182 C3167 0.961 . S
H3183 C3167 0.961 . S
H3184 C3168 0.931 . S
H3185 C3173 0.930 . S
H3186 C3174 0.956 . S
H3187 C3174 0.961 . S
H3188 C3174 0.961 . S
H3189 C3175 0.958 . S
H3190 C3175 0.961 . S
H3191 C3175 0.960 . S
C3192 C3193 1.391 . S
C3192 C3194 1.394 . S
C3192 H3208 0.931 . S
C3193 C3192 1.391 . S
C3193 C3197 1.376 . S
C3194 C3192 1.394 . S
C3194 C3195 1.369 . S
C3194 C3198 1.531 . S
C3195 C3194 1.369 . S
C3195 C3196 1.410 . S
C3195 C3203 1.503 . S
C3196 C3195 1.410 . S
C3196 C3197 1.392 . S
C3196 C3199 1.511 . S
C3197 C3193 1.376 . S
C3197 C3196 1.392 . S
C3197 H3209 0.929 . S
C3198 C3194 1.531 . S
C3198 H3210 0.960 . S
C3198 H3211 0.962 . S
C3198 H3212 0.960 . S
C3199 C3196 1.511 . S
C3199 H3213 0.961 . S
C3199 H3214 0.961 . S
C3199 H3215 0.961 . S
C3200 C3201 1.370 . S
C3200 C3202 1.363 . S
C3200 H3216 0.931 . S
C3201 C3200 1.370 . S
C3201 C3205 1.408 . S
C3202 C3200 1.363 . S
C3202 C3203 1.370 . S
C3202 C3206 1.524 . S
C3203 C3195 1.503 . S
C3203 C3202 1.370 . S
C3203 C3204 1.403 . S
C3204 C3203 1.403 . S
C3204 C3205 1.404 . S
C3204 C3207 1.539 . S
C3205 C3201 1.408 . S
C3205 C3204 1.404 . S
C3205 H3217 0.930 . S
C3206 C3202 1.524 . S
C3206 H3218 0.956 . S
C3206 H3219 0.961 . S
C3206 H3220 0.961 . S
C3207 C3204 1.539 . S
C3207 H3221 0.958 . S
C3207 H3222 0.961 . S
C3207 H3223 0.960 . S
H3208 C3192 0.931 . S
H3209 C3197 0.929 . S
H3210 C3198 0.960 . S
H3211 C3198 0.962 . S
H3212 C3198 0.960 . S
H3213 C3199 0.961 . S
H3214 C3199 0.961 . S
H3215 C3199 0.961 . S
H3216 C3200 0.931 . S
H3217 C3205 0.930 . S
H3218 C3206 0.956 . S
H3219 C3206 0.961 . S
H3220 C3206 0.961 . S
H3221 C3207 0.958 . S
H3222 C3207 0.961 . S
H3223 C3207 0.960 . S
C3224 C3225 1.391 . S
C3224 C3226 1.394 . S
C3224 H3240 0.931 . S
C3225 C3224 1.391 . S
C3225 C3229 1.376 . S
C3226 C3224 1.394 . S
C3226 C3227 1.369 . S
C3226 C3230 1.531 . S
C3227 C3226 1.369 . S
C3227 C3228 1.410 . S
C3227 C3235 1.503 . S
C3228 C3227 1.410 . S
C3228 C3229 1.392 . S
C3228 C3231 1.511 . S
C3229 C3225 1.376 . S
C3229 C3228 1.392 . S
C3229 H3241 0.929 . S
C3230 C3226 1.531 . S
C3230 H3242 0.960 . S
C3230 H3243 0.962 . S
C3230 H3244 0.960 . S
C3231 C3228 1.511 . S
C3231 H3245 0.961 . S
C3231 H3246 0.961 . S
C3231 H3247 0.961 . S
C3232 C3233 1.370 . S
C3232 C3234 1.363 . S
C3232 H3248 0.931 . S
C3233 C3232 1.370 . S
C3233 C3237 1.408 . S
C3234 C3232 1.363 . S
C3234 C3235 1.370 . S
C3234 C3238 1.524 . S
C3235 C3227 1.503 . S
C3235 C3234 1.370 . S
C3235 C3236 1.403 . S
C3236 C3235 1.403 . S
C3236 C3237 1.404 . S
C3236 C3239 1.539 . S
C3237 C3233 1.408 . S
C3237 C3236 1.404 . S
C3237 H3249 0.930 . S
C3238 C3234 1.524 . S
C3238 H3250 0.956 . S
C3238 H3251 0.961 . S
C3238 H3252 0.961 . S
C3239 C3236 1.539 . S
C3239 H3253 0.958 . S
C3239 H3254 0.961 . S
C3239 H3255 0.960 . S
H3240 C3224 0.931 . S
H3241 C3229 0.929 . S
H3242 C3230 0.960 . S
H3243 C3230 0.962 . S
H3244 C3230 0.960 . S
H3245 C3231 0.961 . S
H3246 C3231 0.961 . S
H3247 C3231 0.961 . S
H3248 C3232 0.931 . S
H3249 C3237 0.930 . S
H3250 C3238 0.956 . S
H3251 C3238 0.961 . S
H3252 C3238 0.961 . S
H3253 C3239 0.958 . S
H3254 C3239 0.961 . S
H3255 C3239 0.960 . S
C3256 C3257 1.391 . S
C3256 C3258 1.394 . S
C3256 H3272 0.931 . S
C3257 C3256 1.391 . S
C3257 C3261 1.376 . S
C3258 C3256 1.394 . S
C3258 C3259 1.369 . S
C3258 C3262 1.531 . S
C3259 C3258 1.369 . S
C3259 C3260 1.410 . S
C3259 C3267 1.503 . S
C3260 C3259 1.410 . S
C3260 C3261 1.392 . S
C3260 C3263 1.511 . S
C3261 C3257 1.376 . S
C3261 C3260 1.392 . S
C3261 H3273 0.929 . S
C3262 C3258 1.531 . S
C3262 H3274 0.960 . S
C3262 H3275 0.962 . S
C3262 H3276 0.960 . S
C3263 C3260 1.511 . S
C3263 H3277 0.961 . S
C3263 H3278 0.961 . S
C3263 H3279 0.961 . S
C3264 C3265 1.370 . S
C3264 C3266 1.363 . S
C3264 H3280 0.931 . S
C3265 C3264 1.370 . S
C3265 C3269 1.408 . S
C3266 C3264 1.363 . S
C3266 C3267 1.370 . S
C3266 C3270 1.524 . S
C3267 C3259 1.503 . S
C3267 C3266 1.370 . S
C3267 C3268 1.403 . S
C3268 C3267 1.403 . S
C3268 C3269 1.404 . S
C3268 C3271 1.539 . S
C3269 C3265 1.408 . S
C3269 C3268 1.404 . S
C3269 H3281 0.930 . S
C3270 C3266 1.524 . S
C3270 H3282 0.956 . S
C3270 H3283 0.961 . S
C3270 H3284 0.961 . S
C3271 C3268 1.539 . S
C3271 H3285 0.958 . S
C3271 H3286 0.961 . S
C3271 H3287 0.960 . S
H3272 C3256 0.931 . S
H3273 C3261 0.929 . S
H3274 C3262 0.960 . S
H3275 C3262 0.962 . S
H3276 C3262 0.960 . S
H3277 C3263 0.961 . S
H3278 C3263 0.961 . S
H3279 C3263 0.961 . S
H3280 C3264 0.931 . S
H3281 C3269 0.930 . S
H3282 C3270 0.956 . S
H3283 C3270 0.961 . S
H3284 C3270 0.961 . S
H3285 C3271 0.958 . S
H3286 C3271 0.961 . S
H3287 C3271 0.960 . S
C3288 C3289 1.391 . S
C3288 C3290 1.394 . S
C3288 H3304 0.931 . S
C3289 C3288 1.391 . S
C3289 C3293 1.376 . S
C3290 C3288 1.394 . S
C3290 C3291 1.369 . S
C3290 C3294 1.531 . S
C3291 C3290 1.369 . S
C3291 C3292 1.410 . S
C3291 C3299 1.503 . S
C3292 C3291 1.410 . S
C3292 C3293 1.392 . S
C3292 C3295 1.511 . S
C3293 C3289 1.376 . S
C3293 C3292 1.392 . S
C3293 H3305 0.929 . S
C3294 C3290 1.531 . S
C3294 H3306 0.960 . S
C3294 H3307 0.962 . S
C3294 H3308 0.960 . S
C3295 C3292 1.511 . S
C3295 H3309 0.961 . S
C3295 H3310 0.961 . S
C3295 H3311 0.961 . S
C3296 C3297 1.370 . S
C3296 C3298 1.363 . S
C3296 H3312 0.931 . S
C3297 C3296 1.370 . S
C3297 C3301 1.408 . S
C3298 C3296 1.363 . S
C3298 C3299 1.370 . S
C3298 C3302 1.524 . S
C3299 C3291 1.503 . S
C3299 C3298 1.370 . S
C3299 C3300 1.403 . S
C3300 C3299 1.403 . S
C3300 C3301 1.404 . S
C3300 C3303 1.539 . S
C3301 C3297 1.408 . S
C3301 C3300 1.404 . S
C3301 H3313 0.930 . S
C3302 C3298 1.524 . S
C3302 H3314 0.956 . S
C3302 H3315 0.961 . S
C3302 H3316 0.961 . S
C3303 C3300 1.539 . S
C3303 H3317 0.958 . S
C3303 H3318 0.961 . S
C3303 H3319 0.960 . S
H3304 C3288 0.931 . S
H3305 C3293 0.929 . S
H3306 C3294 0.960 . S
H3307 C3294 0.962 . S
H3308 C3294 0.960 . S
H3309 C3295 0.961 . S
H3310 C3295 0.961 . S
H3311 C3295 0.961 . S
H3312 C3296 0.931 . S
H3313 C3301 0.930 . S
H3314 C3302 0.956 . S
H3315 C3302 0.961 . S
H3316 C3302 0.961 . S
H3317 C3303 0.958 . S
H3318 C3303 0.961 . S
H3319 C3303 0.960 . S
C3320 C3321 1.391 . S
C3320 C3322 1.394 . S
C3320 H3336 0.931 . S
C3321 C3320 1.391 . S
C3321 C3325 1.376 . S
C3322 C3320 1.394 . S
C3322 C3323 1.369 . S
C3322 C3326 1.531 . S
C3323 C3322 1.369 . S
C3323 C3324 1.410 . S
C3323 C3331 1.503 . S
C3324 C3323 1.410 . S
C3324 C3325 1.392 . S
C3324 C3327 1.511 . S
C3325 C3321 1.376 . S
C3325 C3324 1.392 . S
C3325 H3337 0.929 . S
C3326 C3322 1.531 . S
C3326 H3338 0.960 . S
C3326 H3339 0.962 . S
C3326 H3340 0.960 . S
C3327 C3324 1.511 . S
C3327 H3341 0.961 . S
C3327 H3342 0.961 . S
C3327 H3343 0.961 . S
C3328 C3329 1.370 . S
C3328 C3330 1.363 . S
C3328 H3344 0.931 . S
C3329 C3328 1.370 . S
C3329 C3333 1.408 . S
C3330 C3328 1.363 . S
C3330 C3331 1.370 . S
C3330 C3334 1.524 . S
C3331 C3323 1.503 . S
C3331 C3330 1.370 . S
C3331 C3332 1.403 . S
C3332 C3331 1.403 . S
C3332 C3333 1.404 . S
C3332 C3335 1.539 . S
C3333 C3329 1.408 . S
C3333 C3332 1.404 . S
C3333 H3345 0.930 . S
C3334 C3330 1.524 . S
C3334 H3346 0.956 . S
C3334 H3347 0.961 . S
C3334 H3348 0.961 . S
C3335 C3332 1.539 . S
C3335 H3349 0.958 . S
C3335 H3350 0.961 . S
C3335 H3351 0.960 . S
H3336 C3320 0.931 . S
H3337 C3325 0.929 . S
H3338 C3326 0.960 . S
H3339 C3326 0.962 . S
H3340 C3326 0.960 . S
H3341 C3327 0.961 . S
H3342 C3327 0.961 . S
H3343 C3327 0.961 . S
H3344 C3328 0.931 . S
H3345 C3333 0.930 . S
H3346 C3334 0.956 . S
H3347 C3334 0.961 . S
H3348 C3334 0.961 . S
H3349 C3335 0.958 . S
H3350 C3335 0.961 . S
H3351 C3335 0.960 . S
C3352 C3353 1.391 . S
C3352 C3354 1.394 . S
C3352 H3368 0.931 . S
C3353 C3352 1.391 . S
C3353 C3357 1.376 . S
C3354 C3352 1.394 . S
C3354 C3355 1.369 . S
C3354 C3358 1.531 . S
C3355 C3354 1.369 . S
C3355 C3356 1.410 . S
C3355 C3363 1.503 . S
C3356 C3355 1.410 . S
C3356 C3357 1.392 . S
C3356 C3359 1.511 . S
C3357 C3353 1.376 . S
C3357 C3356 1.392 . S
C3357 H3369 0.929 . S
C3358 C3354 1.531 . S
C3358 H3370 0.960 . S
C3358 H3371 0.962 . S
C3358 H3372 0.960 . S
C3359 C3356 1.511 . S
C3359 H3373 0.961 . S
C3359 H3374 0.961 . S
C3359 H3375 0.961 . S
C3360 C3361 1.370 . S
C3360 C3362 1.363 . S
C3360 H3376 0.931 . S
C3361 C3360 1.370 . S
C3361 C3365 1.408 . S
C3362 C3360 1.363 . S
C3362 C3363 1.370 . S
C3362 C3366 1.524 . S
C3363 C3355 1.503 . S
C3363 C3362 1.370 . S
C3363 C3364 1.403 . S
C3364 C3363 1.403 . S
C3364 C3365 1.404 . S
C3364 C3367 1.539 . S
C3365 C3361 1.408 . S
C3365 C3364 1.404 . S
C3365 H3377 0.930 . S
C3366 C3362 1.524 . S
C3366 H3378 0.956 . S
C3366 H3379 0.961 . S
C3366 H3380 0.961 . S
C3367 C3364 1.539 . S
C3367 H3381 0.958 . S
C3367 H3382 0.961 . S
C3367 H3383 0.960 . S
H3368 C3352 0.931 . S
H3369 C3357 0.929 . S
H3370 C3358 0.960 . S
H3371 C3358 0.962 . S
H3372 C3358 0.960 . S
H3373 C3359 0.961 . S
H3374 C3359 0.961 . S
H3375 C3359 0.961 . S
H3376 C3360 0.931 . S
H3377 C3365 0.930 . S
H3378 C3366 0.956 . S
H3379 C3366 0.961 . S
H3380 C3366 0.961 . S
H3381 C3367 0.958 . S
H3382 C3367 0.961 . S
H3383 C3367 0.960 . S
C3384 C3385 1.391 . S
C3384 C3386 1.394 . S
C3384 H3400 0.931 . S
C3385 C3384 1.391 . S
C3385 C3389 1.376 . S
C3386 C3384 1.394 . S
C3386 C3387 1.369 . S
C3386 C3390 1.531 . S
C3387 C3386 1.369 . S
C3387 C3388 1.410 . S
C3387 C3395 1.503 . S
C3388 C3387 1.410 . S
C3388 C3389 1.392 . S
C3388 C3391 1.511 . S
C3389 C3385 1.376 . S
C3389 C3388 1.392 . S
C3389 H3401 0.929 . S
C3390 C3386 1.531 . S
C3390 H3402 0.960 . S
C3390 H3403 0.962 . S
C3390 H3404 0.960 . S
C3391 C3388 1.511 . S
C3391 H3405 0.961 . S
C3391 H3406 0.961 . S
C3391 H3407 0.961 . S
C3392 C3393 1.370 . S
C3392 C3394 1.363 . S
C3392 H3408 0.931 . S
C3393 C3392 1.370 . S
C3393 C3397 1.408 . S
C3394 C3392 1.363 . S
C3394 C3395 1.370 . S
C3394 C3398 1.524 . S
C3395 C3387 1.503 . S
C3395 C3394 1.370 . S
C3395 C3396 1.403 . S
C3396 C3395 1.403 . S
C3396 C3397 1.404 . S
C3396 C3399 1.539 . S
C3397 C3393 1.408 . S
C3397 C3396 1.404 . S
C3397 H3409 0.930 . S
C3398 C3394 1.524 . S
C3398 H3410 0.956 . S
C3398 H3411 0.961 . S
C3398 H3412 0.961 . S
C3399 C3396 1.539 . S
C3399 H3413 0.958 . S
C3399 H3414 0.961 1_556 S
C3399 H3415 0.960 . S
H3400 C3384 0.931 . S
H3401 C3389 0.929 . S
H3402 C3390 0.960 . S
H3403 C3390 0.962 . S
H3404 C3390 0.960 . S
H3405 C3391 0.961 . S
H3406 C3391 0.961 . S
H3407 C3391 0.961 . S
H3408 C3392 0.931 . S
H3409 C3397 0.930 . S
H3410 C3398 0.956 . S
H3411 C3398 0.961 . S
H3412 C3398 0.961 . S
H3413 C3399 0.958 . S
H3414 C3399 0.961 1_554 S
H3415 C3399 0.960 . S
C3416 C3417 1.391 . S
C3416 C3418 1.394 . S
C3416 H3432 0.931 . S
C3417 C3416 1.391 . S
C3417 C3421 1.376 . S
C3418 C3416 1.394 . S
C3418 C3419 1.369 . S
C3418 C3422 1.531 . S
C3419 C3418 1.369 . S
C3419 C3420 1.410 . S
C3419 C3427 1.503 . S
C3420 C3419 1.410 . S
C3420 C3421 1.392 . S
C3420 C3423 1.511 . S
C3421 C3417 1.376 . S
C3421 C3420 1.392 . S
C3421 H3433 0.929 . S
C3422 C3418 1.531 . S
C3422 H3434 0.960 . S
C3422 H3435 0.962 . S
C3422 H3436 0.960 . S
C3423 C3420 1.511 . S
C3423 H3437 0.961 . S
C3423 H3438 0.961 . S
C3423 H3439 0.961 . S
C3424 C3425 1.370 . S
C3424 C3426 1.363 . S
C3424 H3440 0.931 . S
C3425 C3424 1.370 . S
C3425 C3429 1.408 . S
C3426 C3424 1.363 . S
C3426 C3427 1.370 . S
C3426 C3430 1.524 . S
C3427 C3419 1.503 . S
C3427 C3426 1.370 . S
C3427 C3428 1.403 . S
C3428 C3427 1.403 . S
C3428 C3429 1.404 . S
C3428 C3431 1.539 . S
C3429 C3425 1.408 . S
C3429 C3428 1.404 . S
C3429 H3441 0.930 . S
C3430 C3426 1.524 . S
C3430 H3442 0.956 . S
C3430 H3443 0.961 . S
C3430 H3444 0.961 . S
C3431 C3428 1.539 . S
C3431 H3445 0.958 . S
C3431 H3446 0.961 . S
C3431 H3447 0.960 . S
H3432 C3416 0.931 . S
H3433 C3421 0.929 . S
H3434 C3422 0.960 . S
H3435 C3422 0.962 . S
H3436 C3422 0.960 . S
H3437 C3423 0.961 . S
H3438 C3423 0.961 . S
H3439 C3423 0.961 . S
H3440 C3424 0.931 . S
H3441 C3429 0.930 . S
H3442 C3430 0.956 . S
H3443 C3430 0.961 . S
H3444 C3430 0.961 . S
H3445 C3431 0.958 . S
H3446 C3431 0.961 . S
H3447 C3431 0.960 . S
C3448 C3449 1.391 . S
C3448 C3450 1.394 . S
C3448 H3464 0.931 1_455 S
C3449 C3448 1.391 . S
C3449 C3453 1.376 . S
C3450 C3448 1.394 . S
C3450 C3451 1.369 . S
C3450 C3454 1.531 1_455 S
C3451 C3450 1.369 . S
C3451 C3452 1.410 . S
C3451 C3459 1.503 . S
C3452 C3451 1.410 . S
C3452 C3453 1.392 . S
C3452 C3455 1.511 . S
C3453 C3449 1.376 . S
C3453 C3452 1.392 . S
C3453 H3465 0.929 . S
C3454 C3450 1.531 1_655 S
C3454 H3466 0.971 . S
C3454 H3467 0.962 . S
C3454 H3468 0.960 . S
C3455 C3452 1.511 . S
C3455 H3469 0.961 . S
C3455 H3470 0.961 . S
C3455 H3471 0.961 . S
C3456 C3457 1.370 . S
C3456 C3458 1.363 . S
C3456 H3472 0.931 . S
C3457 C3456 1.370 . S
C3457 C3461 1.408 . S
C3458 C3456 1.363 . S
C3458 C3459 1.370 . S
C3458 C3462 1.524 . S
C3459 C3451 1.503 . S
C3459 C3458 1.370 . S
C3459 C3460 1.403 . S
C3460 C3459 1.403 . S
C3460 C3461 1.404 . S
C3460 C3463 1.539 . S
C3461 C3457 1.408 . S
C3461 C3460 1.404 . S
C3461 H3473 0.930 . S
C3462 C3458 1.524 . S
C3462 H3474 0.956 1_455 S
C3462 H3475 0.961 . S
C3462 H3476 0.961 . S
C3463 C3460 1.539 . S
C3463 H3477 0.958 . S
C3463 H3478 0.961 . S
C3463 H3479 0.960 . S
H3464 C3448 0.931 1_655 S
H3465 C3453 0.929 . S
H3466 C3454 0.971 . S
H3467 C3454 0.962 . S
H3468 C3454 0.960 . S
H3469 C3455 0.961 . S
H3470 C3455 0.961 . S
H3471 C3455 0.961 . S
H3472 C3456 0.931 . S
H3473 C3461 0.930 . S
H3474 C3462 0.956 1_655 S
H3475 C3462 0.961 . S
H3476 C3462 0.961 . S
H3477 C3463 0.958 . S
H3478 C3463 0.961 . S
H3479 C3463 0.960 . S
C3480 C3481 1.391 . S
C3480 C3482 1.394 . S
C3480 H3496 0.931 . S
C3481 C3480 1.391 . S
C3481 C3485 1.376 . S
C3482 C3480 1.394 . S
C3482 C3483 1.369 . S
C3482 C3486 1.531 . S
C3483 C3482 1.369 . S
C3483 C3484 1.410 . S
C3483 C3491 1.503 . S
C3484 C3483 1.410 . S
C3484 C3485 1.392 . S
C3484 C3487 1.511 . S
C3485 C3481 1.376 . S
C3485 C3484 1.392 . S
C3485 H3497 0.929 . S
C3486 C3482 1.531 . S
C3486 H3498 0.960 . S
C3486 H3499 0.962 . S
C3486 H3500 0.960 . S
C3487 C3484 1.511 . S
C3487 H3501 0.961 . S
C3487 H3502 0.961 . S
C3487 H3503 0.961 . S
C3488 C3489 1.370 . S
C3488 C3490 1.363 . S
C3488 H3504 0.931 . S
C3489 C3488 1.370 . S
C3489 C3493 1.408 . S
C3490 C3488 1.363 . S
C3490 C3491 1.370 . S
C3490 C3494 1.524 . S
C3491 C3483 1.503 . S
C3491 C3490 1.370 . S
C3491 C3492 1.403 . S
C3492 C3491 1.403 . S
C3492 C3493 1.404 . S
C3492 C3495 1.539 . S
C3493 C3489 1.408 . S
C3493 C3492 1.404 . S
C3493 H3505 0.930 . S
C3494 C3490 1.524 . S
C3494 H3506 0.956 . S
C3494 H3507 0.961 . S
C3494 H3508 0.961 . S
C3495 C3492 1.539 . S
C3495 H3509 0.958 . S
C3495 H3510 0.961 . S
C3495 H3511 0.960 . S
H3496 C3480 0.931 . S
H3497 C3485 0.929 . S
H3498 C3486 0.960 . S
H3499 C3486 0.962 . S
H3500 C3486 0.960 . S
H3501 C3487 0.961 . S
H3502 C3487 0.961 . S
H3503 C3487 0.961 . S
H3504 C3488 0.931 . S
H3505 C3493 0.930 . S
H3506 C3494 0.956 . S
H3507 C3494 0.961 . S
H3508 C3494 0.961 . S
H3509 C3495 0.958 . S
H3510 C3495 0.961 . S
H3511 C3495 0.960 . S
C3512 C3513 1.391 . S
C3512 C3514 1.394 . S
C3512 H3528 0.931 . S
C3513 C3512 1.391 . S
C3513 C3517 1.376 . S
C3514 C3512 1.394 . S
C3514 C3515 1.369 . S
C3514 C3518 1.531 . S
C3515 C3514 1.369 . S
C3515 C3516 1.410 . S
C3515 C3523 1.503 . S
C3516 C3515 1.410 . S
C3516 C3517 1.392 . S
C3516 C3519 1.511 . S
C3517 C3513 1.376 . S
C3517 C3516 1.392 . S
C3517 H3529 0.929 . S
C3518 C3514 1.531 . S
C3518 H3530 0.960 . S
C3518 H3531 0.962 . S
C3518 H3532 0.960 . S
C3519 C3516 1.511 . S
C3519 H3533 0.961 . S
C3519 H3534 0.961 . S
C3519 H3535 0.961 . S
C3520 C3521 1.370 . S
C3520 C3522 1.363 . S
C3520 H3536 0.931 . S
C3521 C3520 1.370 . S
C3521 C3525 1.408 . S
C3522 C3520 1.363 . S
C3522 C3523 1.370 . S
C3522 C3526 1.524 . S
C3523 C3515 1.503 . S
C3523 C3522 1.370 . S
C3523 C3524 1.403 . S
C3524 C3523 1.403 . S
C3524 C3525 1.404 . S
C3524 C3527 1.539 . S
C3525 C3521 1.408 . S
C3525 C3524 1.404 . S
C3525 H3537 0.930 . S
C3526 C3522 1.524 . S
C3526 H3538 0.956 . S
C3526 H3539 0.961 . S
C3526 H3540 0.961 . S
C3527 C3524 1.539 . S
C3527 H3541 0.958 . S
C3527 H3542 0.961 . S
C3527 H3543 0.960 . S
H3528 C3512 0.931 . S
H3529 C3517 0.929 . S
H3530 C3518 0.960 . S
H3531 C3518 0.962 . S
H3532 C3518 0.960 . S
H3533 C3519 0.961 . S
H3534 C3519 0.961 . S
H3535 C3519 0.961 . S
H3536 C3520 0.931 . S
H3537 C3525 0.930 . S
H3538 C3526 0.956 . S
H3539 C3526 0.961 . S
H3540 C3526 0.961 . S
H3541 C3527 0.958 . S
H3542 C3527 0.961 . S
H3543 C3527 0.960 . S
C3544 C3545 1.391 . S
C3544 C3546 1.394 . S
C3544 H3560 0.931 . S
C3545 C3544 1.391 . S
C3545 C3549 1.376 . S
C3546 C3544 1.394 . S
C3546 C3547 1.369 . S
C3546 C3550 1.531 . S
C3547 C3546 1.369 . S
C3547 C3548 1.410 . S
C3547 C3555 1.503 . S
C3548 C3547 1.410 . S
C3548 C3549 1.392 . S
C3548 C3551 1.511 . S
C3549 C3545 1.376 . S
C3549 C3548 1.392 . S
C3549 H3561 0.929 . S
C3550 C3546 1.531 . S
C3550 H3562 0.960 . S
C3550 H3563 0.962 . S
C3550 H3564 0.960 . S
C3551 C3548 1.511 . S
C3551 H3565 0.961 . S
C3551 H3566 0.961 . S
C3551 H3567 0.961 . S
C3552 C3553 1.370 . S
C3552 C3554 1.363 . S
C3552 H3568 0.931 . S
C3553 C3552 1.370 . S
C3553 C3557 1.408 . S
C3554 C3552 1.363 . S
C3554 C3555 1.370 . S
C3554 C3558 1.524 . S
C3555 C3547 1.503 . S
C3555 C3554 1.370 . S
C3555 C3556 1.403 . S
C3556 C3555 1.403 . S
C3556 C3557 1.404 . S
C3556 C3559 1.539 . S
C3557 C3553 1.408 . S
C3557 C3556 1.404 . S
C3557 H3569 0.930 . S
C3558 C3554 1.524 . S
C3558 H3570 0.956 . S
C3558 H3571 0.961 . S
C3558 H3572 0.961 . S
C3559 C3556 1.539 . S
C3559 H3573 0.958 . S
C3559 H3574 0.961 . S
C3559 H3575 0.960 . S
H3560 C3544 0.931 . S
H3561 C3549 0.929 . S
H3562 C3550 0.960 . S
H3563 C3550 0.962 . S
H3564 C3550 0.960 . S
H3565 C3551 0.961 . S
H3566 C3551 0.961 . S
H3567 C3551 0.961 . S
H3568 C3552 0.931 . S
H3569 C3557 0.930 . S
H3570 C3558 0.956 . S
H3571 C3558 0.961 . S
H3572 C3558 0.961 . S
H3573 C3559 0.958 . S
H3574 C3559 0.961 . S
H3575 C3559 0.960 . S
C3576 C3577 1.391 . S
C3576 C3578 1.394 . S
C3576 H3592 0.931 . S
C3577 C3576 1.391 . S
C3577 C3581 1.376 . S
C3578 C3576 1.394 . S
C3578 C3579 1.369 . S
C3578 C3582 1.531 . S
C3579 C3578 1.369 . S
C3579 C3580 1.410 . S
C3579 C3587 1.503 . S
C3580 C3579 1.410 . S
C3580 C3581 1.392 . S
C3580 C3583 1.511 . S
C3581 C3577 1.376 . S
C3581 C3580 1.392 . S
C3581 H3593 0.929 . S
C3582 C3578 1.531 . S
C3582 H3594 0.960 . S
C3582 H3595 0.962 . S
C3582 H3596 0.960 . S
C3583 C3580 1.511 . S
C3583 H3597 0.961 . S
C3583 H3598 0.961 . S
C3583 H3599 0.961 . S
C3584 C3585 1.370 1_655 S
C3584 C3586 1.363 . S
C3584 H3600 0.931 . S
C3585 C3584 1.370 1_455 S
C3585 C3589 1.408 . S
C3586 C3584 1.363 . S
C3586 C3587 1.370 . S
C3586 C3590 1.524 . S
C3587 C3579 1.503 . S
C3587 C3586 1.370 . S
C3587 C3588 1.403 1_655 S
C3588 C3587 1.403 1_455 S
C3588 C3589 1.404 . S
C3588 C3591 1.539 . S
C3589 C3585 1.408 . S
C3589 C3588 1.404 . S
C3589 H3601 0.930 . S
C3590 C3586 1.524 . S
C3590 H3602 0.956 . S
C3590 H3603 0.961 . S
C3590 H3604 0.961 . S
C3591 C3588 1.539 . S
C3591 H3605 0.958 . S
C3591 H3606 0.961 . S
C3591 H3607 0.960 . S
H3592 C3576 0.931 . S
H3593 C3581 0.929 . S
H3594 C3582 0.960 . S
H3595 C3582 0.962 . S
H3596 C3582 0.960 . S
H3597 C3583 0.961 . S
H3598 C3583 0.961 . S
H3599 C3583 0.961 . S
H3600 C3584 0.931 . S
H3601 C3589 0.930 . S
H3602 C3590 0.956 . S
H3603 C3590 0.961 . S
H3604 C3590 0.961 . S
H3605 C3591 0.958 . S
H3606 C3591 0.961 . S
H3607 C3591 0.960 . S
C3608 C3609 1.391 . S
C3608 C3610 1.394 . S
C3608 H3624 0.931 . S
C3609 C3608 1.391 . S
C3609 C3613 1.376 . S
C3610 C3608 1.394 . S
C3610 C3611 1.369 . S
C3610 C3614 1.531 . S
C3611 C3610 1.369 . S
C3611 C3612 1.410 . S
C3611 C3619 1.503 . S
C3612 C3611 1.410 . S
C3612 C3613 1.392 . S
C3612 C3615 1.511 . S
C3613 C3609 1.376 . S
C3613 C3612 1.392 . S
C3613 H3625 0.929 . S
C3614 C3610 1.531 . S
C3614 H3626 0.960 . S
C3614 H3627 0.962 . S
C3614 H3628 0.960 . S
C3615 C3612 1.511 . S
C3615 H3629 0.961 . S
C3615 H3630 0.961 . S
C3615 H3631 0.961 . S
C3616 C3617 1.370 . S
C3616 C3618 1.363 . S
C3616 H3632 0.931 . S
C3617 C3616 1.370 . S
C3617 C3621 1.408 . S
C3618 C3616 1.363 . S
C3618 C3619 1.370 . S
C3618 C3622 1.524 . S
C3619 C3611 1.503 . S
C3619 C3618 1.370 . S
C3619 C3620 1.403 . S
C3620 C3619 1.403 . S
C3620 C3621 1.404 . S
C3620 C3623 1.539 . S
C3621 C3617 1.408 . S
C3621 C3620 1.404 . S
C3621 H3633 0.930 . S
C3622 C3618 1.524 . S
C3622 H3634 0.956 . S
C3622 H3635 0.961 . S
C3622 H3636 0.961 . S
C3623 C3620 1.539 . S
C3623 H3637 0.958 . S
C3623 H3638 0.961 . S
C3623 H3639 0.960 . S
H3624 C3608 0.931 . S
H3625 C3613 0.929 . S
H3626 C3614 0.960 . S
H3627 C3614 0.962 . S
H3628 C3614 0.960 . S
H3629 C3615 0.961 . S
H3630 C3615 0.961 . S
H3631 C3615 0.961 . S
H3632 C3616 0.931 . S
H3633 C3621 0.930 . S
H3634 C3622 0.956 . S
H3635 C3622 0.961 . S
H3636 C3622 0.961 . S
H3637 C3623 0.958 . S
H3638 C3623 0.961 . S
H3639 C3623 0.960 . S
C3640 C3641 1.391 . S
C3640 C3642 1.394 . S
C3640 H3656 0.931 . S
C3641 C3640 1.391 . S
C3641 C3645 1.376 . S
C3642 C3640 1.394 . S
C3642 C3643 1.369 . S
C3642 C3646 1.531 . S
C3643 C3642 1.369 . S
C3643 C3644 1.410 . S
C3643 C3651 1.503 . S
C3644 C3643 1.410 . S
C3644 C3645 1.392 . S
C3644 C3647 1.511 . S
C3645 C3641 1.376 . S
C3645 C3644 1.392 . S
C3645 H3657 0.929 . S
C3646 C3642 1.531 . S
C3646 H3658 0.960 . S
C3646 H3659 0.962 . S
C3646 H3660 0.960 . S
C3647 C3644 1.511 . S
C3647 H3661 0.961 . S
C3647 H3662 0.961 . S
C3647 H3663 0.961 . S
C3648 C3649 1.370 . S
C3648 C3650 1.363 . S
C3648 H3664 0.931 . S
C3649 C3648 1.370 . S
C3649 C3653 1.408 . S
C3650 C3648 1.363 . S
C3650 C3651 1.370 . S
C3650 C3654 1.524 . S
C3651 C3643 1.503 . S
C3651 C3650 1.370 . S
C3651 C3652 1.403 . S
C3652 C3651 1.403 . S
C3652 C3653 1.404 . S
C3652 C3655 1.539 . S
C3653 C3649 1.408 . S
C3653 C3652 1.404 . S
C3653 H3665 0.930 . S
C3654 C3650 1.524 . S
C3654 H3666 0.956 . S
C3654 H3667 0.961 . S
C3654 H3668 0.961 . S
C3655 C3652 1.539 . S
C3655 H3669 0.958 . S
C3655 H3670 0.961 . S
C3655 H3671 0.960 . S
H3656 C3640 0.931 . S
H3657 C3645 0.929 . S
H3658 C3646 0.960 . S
H3659 C3646 0.962 . S
H3660 C3646 0.960 . S
H3661 C3647 0.961 . S
H3662 C3647 0.961 . S
H3663 C3647 0.961 . S
H3664 C3648 0.931 . S
H3665 C3653 0.930 . S
H3666 C3654 0.956 . S
H3667 C3654 0.961 . S
H3668 C3654 0.961 . S
H3669 C3655 0.958 . S
H3670 C3655 0.961 . S
H3671 C3655 0.960 . S
C3672 C3673 1.391 . S
C3672 C3674 1.394 . S
C3672 H3688 0.931 . S
C3673 C3672 1.391 . S
C3673 C3677 1.376 . S
C3674 C3672 1.394 . S
C3674 C3675 1.369 . S
C3674 C3678 1.531 . S
C3675 C3674 1.369 . S
C3675 C3676 1.410 . S
C3675 C3683 1.503 . S
C3676 C3675 1.410 . S
C3676 C3677 1.392 . S
C3676 C3679 1.511 . S
C3677 C3673 1.376 . S
C3677 C3676 1.392 . S
C3677 H3689 0.929 . S
C3678 C3674 1.531 . S
C3678 H3690 0.960 . S
C3678 H3691 0.962 . S
C3678 H3692 0.960 . S
C3679 C3676 1.511 . S
C3679 H3693 0.961 . S
C3679 H3694 0.961 . S
C3679 H3695 0.961 . S
C3680 C3681 1.370 . S
C3680 C3682 1.363 . S
C3680 H3696 0.931 . S
C3681 C3680 1.370 . S
C3681 C3685 1.408 . S
C3682 C3680 1.363 . S
C3682 C3683 1.370 . S
C3682 C3686 1.524 . S
C3683 C3675 1.503 . S
C3683 C3682 1.370 . S
C3683 C3684 1.403 . S
C3684 C3683 1.403 . S
C3684 C3685 1.404 . S
C3684 C3687 1.539 . S
C3685 C3681 1.408 . S
C3685 C3684 1.404 . S
C3685 H3697 0.930 . S
C3686 C3682 1.524 . S
C3686 H3698 0.956 . S
C3686 H3699 0.961 . S
C3686 H3700 0.961 . S
C3687 C3684 1.539 . S
C3687 H3701 0.958 . S
C3687 H3702 0.961 . S
C3687 H3703 0.960 . S
H3688 C3672 0.931 . S
H3689 C3677 0.929 . S
H3690 C3678 0.960 . S
H3691 C3678 0.962 . S
H3692 C3678 0.960 . S
H3693 C3679 0.961 . S
H3694 C3679 0.961 . S
H3695 C3679 0.961 . S
H3696 C3680 0.931 . S
H3697 C3685 0.930 . S
H3698 C3686 0.956 . S
H3699 C3686 0.961 . S
H3700 C3686 0.961 . S
H3701 C3687 0.958 . S
H3702 C3687 0.961 . S
H3703 C3687 0.960 . S
C3704 C3705 1.391 . S
C3704 C3706 1.394 . S
C3704 H3720 0.931 . S
C3705 C3704 1.391 . S
C3705 C3709 1.376 . S
C3706 C3704 1.394 . S
C3706 C3707 1.369 . S
C3706 C3710 1.531 . S
C3707 C3706 1.369 . S
C3707 C3708 1.410 . S
C3707 C3715 1.503 . S
C3708 C3707 1.410 . S
C3708 C3709 1.392 . S
C3708 C3711 1.511 . S
C3709 C3705 1.376 . S
C3709 C3708 1.392 . S
C3709 H3721 0.929 . S
C3710 C3706 1.531 . S
C3710 H3722 0.960 . S
C3710 H3723 0.962 . S
C3710 H3724 0.960 . S
C3711 C3708 1.511 . S
C3711 H3725 0.961 . S
C3711 H3726 0.961 . S
C3711 H3727 0.961 1_655 S
C3712 C3713 1.411 . S
C3712 C3714 1.363 . S
C3712 H3728 0.931 . S
C3713 C3712 1.411 . S
C3713 C3717 1.410 1_655 S
C3714 C3712 1.363 . S
C3714 C3715 1.370 . S
C3714 C3718 1.524 . S
C3715 C3707 1.503 . S
C3715 C3714 1.370 . S
C3715 C3716 1.403 . S
C3716 C3715 1.403 . S
C3716 C3717 1.404 1_655 S
C3716 C3719 1.539 1_655 S
C3717 C3713 1.410 1_455 S
C3717 C3716 1.404 1_455 S
C3717 H3729 0.930 . S
C3718 C3714 1.524 . S
C3718 H3730 0.956 . S
C3718 H3731 0.961 . S
C3718 H3732 0.961 . S
C3719 C3716 1.539 1_455 S
C3719 H3733 0.929 1_455 S
C3719 H3734 1.015 . S
C3719 H3735 0.939 1_455 S
H3720 C3704 0.931 . S
H3721 C3709 0.929 . S
H3722 C3710 0.960 . S
H3723 C3710 0.962 . S
H3724 C3710 0.960 . S
H3725 C3711 0.961 . S
H3726 C3711 0.961 . S
H3727 C3711 0.961 1_455 S
H3728 C3712 0.931 . S
H3729 C3717 0.930 . S
H3730 C3718 0.956 . S
H3731 C3718 0.961 . S
H3732 C3718 0.961 . S
H3733 C3719 0.929 1_655 S
H3734 C3719 1.015 . S
H3735 C3719 0.939 1_655 S
C3736 C3737 1.391 . S
C3736 C3738 1.394 . S
C3736 H3752 0.931 . S
C3737 C3736 1.391 . S
C3737 C3741 1.376 . S
C3738 C3736 1.394 . S
C3738 C3739 1.369 . S
C3738 C3742 1.531 . S
C3739 C3738 1.369 . S
C3739 C3740 1.410 . S
C3739 C3747 1.503 . S
C3740 C3739 1.410 . S
C3740 C3741 1.392 . S
C3740 C3743 1.511 . S
C3741 C3737 1.376 . S
C3741 C3740 1.392 . S
C3741 H3753 0.929 . S
C3742 C3738 1.531 . S
C3742 H3754 0.960 . S
C3742 H3755 0.962 . S
C3742 H3756 0.960 . S
C3743 C3740 1.511 . S
C3743 H3757 0.961 . S
C3743 H3758 0.961 . S
C3743 H3759 0.961 . S
C3744 C3745 1.370 . S
C3744 C3746 1.363 . S
C3744 H3760 0.931 . S
C3745 C3744 1.370 . S
C3745 C3749 1.408 . S
C3746 C3744 1.363 . S
C3746 C3747 1.370 . S
C3746 C3750 1.524 . S
C3747 C3739 1.503 . S
C3747 C3746 1.370 . S
C3747 C3748 1.403 . S
C3748 C3747 1.403 . S
C3748 C3749 1.404 . S
C3748 C3751 1.539 . S
C3749 C3745 1.408 . S
C3749 C3748 1.404 . S
C3749 H3761 0.930 . S
C3750 C3746 1.524 . S
C3750 H3762 0.956 . S
C3750 H3763 0.961 . S
C3750 H3764 0.961 . S
C3751 C3748 1.539 . S
C3751 H3765 0.958 . S
C3751 H3766 0.961 . S
C3751 H3767 0.960 . S
H3752 C3736 0.931 . S
H3753 C3741 0.929 . S
H3754 C3742 0.960 . S
H3755 C3742 0.962 . S
H3756 C3742 0.960 . S
H3757 C3743 0.961 . S
H3758 C3743 0.961 . S
H3759 C3743 0.961 . S
H3760 C3744 0.931 . S
H3761 C3749 0.930 . S
H3762 C3750 0.956 . S
H3763 C3750 0.961 . S
H3764 C3750 0.961 . S
H3765 C3751 0.958 . S
H3766 C3751 0.961 . S
H3767 C3751 0.960 . S
C3768 C3769 1.391 . S
C3768 C3770 1.394 . S
C3768 H3784 0.931 . S
C3769 C3768 1.391 . S
C3769 C3773 1.376 . S
C3770 C3768 1.394 . S
C3770 C3771 1.369 . S
C3770 C3774 1.531 . S
C3771 C3770 1.369 . S
C3771 C3772 1.410 . S
C3771 C3779 1.503 . S
C3772 C3771 1.410 . S
C3772 C3773 1.392 . S
C3772 C3775 1.511 . S
C3773 C3769 1.376 . S
C3773 C3772 1.392 . S
C3773 H3785 0.929 . S
C3774 C3770 1.531 . S
C3774 H3786 0.960 . S
C3774 H3787 0.962 . S
C3774 H3788 0.960 . S
C3775 C3772 1.511 . S
C3775 H3789 0.961 . S
C3775 H3790 0.961 . S
C3775 H3791 0.961 . S
C3776 C3777 1.370 . S
C3776 C3778 1.363 . S
C3776 H3792 0.931 . S
C3777 C3776 1.370 . S
C3777 C3781 1.408 . S
C3778 C3776 1.363 . S
C3778 C3779 1.370 . S
C3778 C3782 1.524 . S
C3779 C3771 1.503 . S
C3779 C3778 1.370 . S
C3779 C3780 1.403 . S
C3780 C3779 1.403 . S
C3780 C3781 1.404 . S
C3780 C3783 1.539 . S
C3781 C3777 1.408 . S
C3781 C3780 1.404 . S
C3781 H3793 0.930 . S
C3782 C3778 1.524 . S
C3782 H3794 0.956 . S
C3782 H3795 0.961 . S
C3782 H3796 0.961 . S
C3783 C3780 1.539 . S
C3783 H3797 0.958 . S
C3783 H3798 0.961 . S
C3783 H3799 0.960 . S
H3784 C3768 0.931 . S
H3785 C3773 0.929 . S
H3786 C3774 0.960 . S
H3787 C3774 0.962 . S
H3788 C3774 0.960 . S
H3789 C3775 0.961 . S
H3790 C3775 0.961 . S
H3791 C3775 0.961 . S
H3792 C3776 0.931 . S
H3793 C3781 0.930 . S
H3794 C3782 0.956 . S
H3795 C3782 0.961 . S
H3796 C3782 0.961 . S
H3797 C3783 0.958 . S
H3798 C3783 0.961 . S
H3799 C3783 0.960 . S
C3800 C3801 1.391 . S
C3800 C3802 1.394 . S
C3800 H3816 0.931 . S
C3801 C3800 1.391 . S
C3801 C3805 1.376 . S
C3802 C3800 1.394 . S
C3802 C3803 1.369 . S
C3802 C3806 1.531 . S
C3803 C3802 1.369 . S
C3803 C3804 1.410 . S
C3803 C3811 1.503 . S
C3804 C3803 1.410 . S
C3804 C3805 1.392 . S
C3804 C3807 1.511 . S
C3805 C3801 1.376 . S
C3805 C3804 1.392 . S
C3805 H3817 0.929 . S
C3806 C3802 1.531 . S
C3806 H3818 0.960 . S
C3806 H3819 0.962 . S
C3806 H3820 0.960 . S
C3807 C3804 1.511 . S
C3807 H3821 0.961 . S
C3807 H3822 0.961 . S
C3807 H3823 0.961 . S
C3808 C3809 1.370 . S
C3808 C3810 1.363 . S
C3808 H3824 0.931 1_565 S
C3809 C3808 1.370 . S
C3809 C3813 1.408 . S
C3810 C3808 1.363 . S
C3810 C3811 1.370 . S
C3810 C3814 1.524 . S
C3811 C3803 1.503 . S
C3811 C3810 1.370 . S
C3811 C3812 1.403 . S
C3812 C3811 1.403 . S
C3812 C3813 1.404 . S
C3812 C3815 1.539 . S
C3813 C3809 1.408 . S
C3813 C3812 1.404 . S
C3813 H3825 0.930 . S
C3814 C3810 1.524 . S
C3814 H3826 0.956 . S
C3814 H3827 0.961 . S
C3814 H3828 0.961 . S
C3815 C3812 1.539 . S
C3815 H3829 0.958 . S
C3815 H3830 0.961 . S
C3815 H3831 0.960 . S
H3816 C3800 0.931 . S
H3817 C3805 0.929 . S
H3818 C3806 0.960 . S
H3819 C3806 0.962 . S
H3820 C3806 0.960 . S
H3821 C3807 0.961 . S
H3822 C3807 0.961 . S
H3823 C3807 0.961 . S
H3824 C3808 0.931 1_545 S
H3825 C3813 0.930 . S
H3826 C3814 0.956 . S
H3827 C3814 0.961 . S
H3828 C3814 0.961 . S
H3829 C3815 0.958 . S
H3830 C3815 0.961 . S
H3831 C3815 0.960 . S
C3832 C3833 1.391 . S
C3832 C3834 1.394 . S
C3832 H3848 0.931 . S
C3833 C3832 1.391 . S
C3833 C3837 1.376 . S
C3834 C3832 1.394 . S
C3834 C3835 1.369 . S
C3834 C3838 1.531 . S
C3835 C3834 1.369 . S
C3835 C3836 1.410 . S
C3835 C3843 1.503 . S
C3836 C3835 1.410 . S
C3836 C3837 1.392 . S
C3836 C3839 1.511 . S
C3837 C3833 1.376 . S
C3837 C3836 1.392 . S
C3837 H3849 0.929 . S
C3838 C3834 1.531 . S
C3838 H3850 0.960 . S
C3838 H3851 0.962 . S
C3838 H3852 0.960 . S
C3839 C3836 1.511 . S
C3839 H3853 0.961 . S
C3839 H3854 0.961 . S
C3839 H3855 0.961 . S
C3840 C3841 1.370 . S
C3840 C3842 1.363 . S
C3840 H3856 0.931 . S
C3841 C3840 1.370 . S
C3841 C3845 1.408 . S
C3842 C3840 1.363 . S
C3842 C3843 1.370 . S
C3842 C3846 1.524 . S
C3843 C3835 1.503 . S
C3843 C3842 1.370 . S
C3843 C3844 1.403 . S
C3844 C3843 1.403 . S
C3844 C3845 1.404 . S
C3844 C3847 1.539 . S
C3845 C3841 1.408 . S
C3845 C3844 1.404 . S
C3845 H3857 0.930 . S
C3846 C3842 1.524 . S
C3846 H3858 0.956 . S
C3846 H3859 0.961 . S
C3846 H3860 0.961 . S
C3847 C3844 1.539 . S
C3847 H3861 0.958 . S
C3847 H3862 0.961 . S
C3847 H3863 0.960 . S
H3848 C3832 0.931 . S
H3849 C3837 0.929 . S
H3850 C3838 0.960 . S
H3851 C3838 0.962 . S
H3852 C3838 0.960 . S
H3853 C3839 0.961 . S
H3854 C3839 0.961 . S
H3855 C3839 0.961 . S
H3856 C3840 0.931 . S
H3857 C3845 0.930 . S
H3858 C3846 0.956 . S
H3859 C3846 0.961 . S
H3860 C3846 0.961 . S
H3861 C3847 0.958 . S
H3862 C3847 0.961 . S
H3863 C3847 0.960 . S
C3864 C3865 1.391 . S
C3864 C3866 1.394 . S
C3864 H3880 0.931 . S
C3865 C3864 1.391 . S
C3865 C3869 1.376 . S
C3866 C3864 1.394 . S
C3866 C3867 1.369 . S
C3866 C3870 1.531 . S
C3867 C3866 1.369 . S
C3867 C3868 1.410 . S
C3867 C3875 1.503 . S
C3868 C3867 1.410 . S
C3868 C3869 1.392 . S
C3868 C3871 1.511 . S
C3869 C3865 1.376 . S
C3869 C3868 1.392 . S
C3869 H3881 0.929 . S
C3870 C3866 1.531 . S
C3870 H3882 0.960 . S
C3870 H3883 0.962 . S
C3870 H3884 0.960 . S
C3871 C3868 1.511 . S
C3871 H3885 0.961 . S
C3871 H3886 0.961 . S
C3871 H3887 0.961 . S
C3872 C3873 1.370 . S
C3872 C3874 1.363 . S
C3872 H3888 0.931 . S
C3873 C3872 1.370 . S
C3873 C3877 1.408 . S
C3874 C3872 1.363 . S
C3874 C3875 1.370 . S
C3874 C3878 1.524 . S
C3875 C3867 1.503 . S
C3875 C3874 1.370 . S
C3875 C3876 1.403 . S
C3876 C3875 1.403 . S
C3876 C3877 1.404 . S
C3876 C3879 1.539 . S
C3877 C3873 1.408 . S
C3877 C3876 1.404 . S
C3877 H3889 0.930 . S
C3878 C3874 1.524 . S
C3878 H3890 0.956 . S
C3878 H3891 0.961 . S
C3878 H3892 0.961 . S
C3879 C3876 1.539 . S
C3879 H3893 0.958 . S
C3879 H3894 0.961 . S
C3879 H3895 0.960 . S
H3880 C3864 0.931 . S
H3881 C3869 0.929 . S
H3882 C3870 0.960 . S
H3883 C3870 0.962 . S
H3884 C3870 0.960 . S
H3885 C3871 0.961 . S
H3886 C3871 0.961 . S
H3887 C3871 0.961 . S
H3888 C3872 0.931 . S
H3889 C3877 0.930 . S
H3890 C3878 0.956 . S
H3891 C3878 0.961 . S
H3892 C3878 0.961 . S
H3893 C3879 0.958 . S
H3894 C3879 0.961 . S
H3895 C3879 0.960 . S
C3896 C3897 1.391 . S
C3896 C3898 1.394 . S
C3896 H3912 0.931 . S
C3897 C3896 1.391 . S
C3897 C3901 1.376 . S
C3898 C3896 1.394 . S
C3898 C3899 1.369 . S
C3898 C3902 1.531 . S
C3899 C3898 1.369 . S
C3899 C3900 1.410 . S
C3899 C3907 1.503 . S
C3900 C3899 1.410 . S
C3900 C3901 1.392 . S
C3900 C3903 1.511 . S
C3901 C3897 1.376 . S
C3901 C3900 1.392 . S
C3901 H3913 0.929 . S
C3902 C3898 1.531 . S
C3902 H3914 0.960 . S
C3902 H3915 0.962 . S
C3902 H3916 0.960 . S
C3903 C3900 1.511 . S
C3903 H3917 0.961 . S
C3903 H3918 0.961 . S
C3903 H3919 0.961 . S
C3904 C3905 1.370 . S
C3904 C3906 1.363 . S
C3904 H3920 0.931 . S
C3905 C3904 1.370 . S
C3905 C3909 1.408 . S
C3906 C3904 1.363 . S
C3906 C3907 1.370 . S
C3906 C3910 1.524 . S
C3907 C3899 1.503 . S
C3907 C3906 1.370 . S
C3907 C3908 1.403 . S
C3908 C3907 1.403 . S
C3908 C3909 1.404 . S
C3908 C3911 1.539 . S
C3909 C3905 1.408 . S
C3909 C3908 1.404 . S
C3909 H3921 0.930 . S
C3910 C3906 1.524 . S
C3910 H3922 0.956 . S
C3910 H3923 0.961 . S
C3910 H3924 0.961 . S
C3911 C3908 1.539 . S
C3911 H3925 0.958 . S
C3911 H3926 0.961 . S
C3911 H3927 0.960 . S
H3912 C3896 0.931 . S
H3913 C3901 0.929 . S
H3914 C3902 0.960 . S
H3915 C3902 0.962 . S
H3916 C3902 0.960 . S
H3917 C3903 0.961 . S
H3918 C3903 0.961 . S
H3919 C3903 0.961 . S
H3920 C3904 0.931 . S
H3921 C3909 0.930 . S
H3922 C3910 0.956 . S
H3923 C3910 0.961 . S
H3924 C3910 0.961 . S
H3925 C3911 0.958 . S
H3926 C3911 0.961 . S
H3927 C3911 0.960 . S
C3928 C3929 1.391 . S
C3928 C3930 1.394 . S
C3928 H3944 0.931 . S
C3929 C3928 1.391 . S
C3929 C3933 1.376 . S
C3930 C3928 1.394 . S
C3930 C3931 1.369 . S
C3930 C3934 1.531 . S
C3931 C3930 1.369 . S
C3931 C3932 1.410 . S
C3931 C3939 1.503 . S
C3932 C3931 1.410 . S
C3932 C3933 1.392 . S
C3932 C3935 1.511 . S
C3933 C3929 1.376 . S
C3933 C3932 1.392 . S
C3933 H3945 0.929 . S
C3934 C3930 1.531 . S
C3934 H3946 0.960 . S
C3934 H3947 0.962 . S
C3934 H3948 0.960 . S
C3935 C3932 1.511 . S
C3935 H3949 0.961 . S
C3935 H3950 0.961 . S
C3935 H3951 0.961 1_554 S
C3936 C3937 1.370 . S
C3936 C3938 1.363 . S
C3936 H3952 0.931 . S
C3937 C3936 1.370 . S
C3937 C3941 1.408 1_554 S
C3938 C3936 1.363 . S
C3938 C3939 1.370 . S
C3938 C3942 1.524 . S
C3939 C3931 1.503 . S
C3939 C3938 1.370 . S
C3939 C3940 1.403 1_554 S
C3940 C3939 1.403 1_556 S
C3940 C3941 1.404 . S
C3940 C3943 1.539 . S
C3941 C3937 1.408 1_556 S
C3941 C3940 1.404 . S
C3941 H3953 0.930 . S
C3942 C3938 1.524 . S
C3942 H3954 0.956 . S
C3942 H3955 0.961 . S
C3942 H3956 0.961 . S
C3943 C3940 1.539 . S
C3943 H3957 0.958 . S
C3943 H3958 0.961 . S
C3943 H3959 0.960 . S
H3944 C3928 0.931 . S
H3945 C3933 0.929 . S
H3946 C3934 0.960 . S
H3947 C3934 0.962 . S
H3948 C3934 0.960 . S
H3949 C3935 0.961 . S
H3950 C3935 0.961 . S
H3951 C3935 0.961 1_556 S
H3952 C3936 0.931 . S
H3953 C3941 0.930 . S
H3954 C3942 0.956 . S
H3955 C3942 0.961 . S
H3956 C3942 0.961 . S
H3957 C3943 0.958 . S
H3958 C3943 0.961 . S
H3959 C3943 0.960 . S
C3960 C3961 1.391 . S
C3960 C3962 1.394 . S
C3960 H3976 0.931 . S
C3961 C3960 1.391 . S
C3961 C3965 1.376 . S
C3962 C3960 1.394 . S
C3962 C3963 1.369 . S
C3962 C3966 1.531 . S
C3963 C3962 1.369 . S
C3963 C3964 1.410 . S
C3963 C3971 1.503 . S
C3964 C3963 1.410 . S
C3964 C3965 1.392 . S
C3964 C3967 1.511 . S
C3965 C3961 1.376 . S
C3965 C3964 1.392 . S
C3965 H3977 0.929 . S
C3966 C3962 1.531 . S
C3966 H3978 0.960 . S
C3966 H3979 0.962 . S
C3966 H3980 0.960 . S
C3967 C3964 1.511 . S
C3967 H3981 0.961 . S
C3967 H3982 0.961 . S
C3967 H3983 0.961 . S
C3968 C3969 1.370 . S
C3968 C3970 1.363 . S
C3968 H3984 0.931 . S
C3969 C3968 1.370 . S
C3969 C3973 1.408 . S
C3970 C3968 1.363 . S
C3970 C3971 1.370 . S
C3970 C3974 1.524 . S
C3971 C3963 1.503 . S
C3971 C3970 1.370 . S
C3971 C3972 1.403 . S
C3972 C3971 1.403 . S
C3972 C3973 1.404 . S
C3972 C3975 1.539 . S
C3973 C3969 1.408 . S
C3973 C3972 1.404 . S
C3973 H3985 0.930 . S
C3974 C3970 1.524 . S
C3974 H3986 0.956 . S
C3974 H3987 0.961 . S
C3974 H3988 0.961 . S
C3975 C3972 1.539 . S
C3975 H3989 0.958 . S
C3975 H3990 0.961 . S
C3975 H3991 0.960 . S
H3976 C3960 0.931 . S
H3977 C3965 0.929 . S
H3978 C3966 0.960 . S
H3979 C3966 0.962 . S
H3980 C3966 0.960 . S
H3981 C3967 0.961 . S
H3982 C3967 0.961 . S
H3983 C3967 0.961 . S
H3984 C3968 0.931 . S
H3985 C3973 0.930 . S
H3986 C3974 0.956 . S
H3987 C3974 0.961 . S
H3988 C3974 0.961 . S
H3989 C3975 0.958 . S
H3990 C3975 0.961 . S
H3991 C3975 0.960 . S
C3992 C3993 1.391 . S
C3992 C3994 1.394 . S
C3992 H4008 0.931 . S
C3993 C3992 1.391 . S
C3993 C3997 1.376 . S
C3994 C3992 1.394 . S
C3994 C3995 1.369 . S
C3994 C3998 1.531 . S
C3995 C3994 1.369 . S
C3995 C3996 1.410 . S
C3995 C4003 1.503 . S
C3996 C3995 1.410 . S
C3996 C3997 1.392 . S
C3996 C3999 1.511 . S
C3997 C3993 1.376 . S
C3997 C3996 1.392 . S
C3997 H4009 0.929 . S
C3998 C3994 1.531 . S
C3998 H4010 0.960 . S
C3998 H4011 0.962 . S
C3998 H4012 0.960 . S
C3999 C3996 1.511 . S
C3999 H4013 0.961 . S
C3999 H4014 0.961 . S
C3999 H4015 0.961 . S
C4000 C4001 1.370 . S
C4000 C4002 1.363 . S
C4000 H4016 0.931 . S
C4001 C4000 1.370 . S
C4001 C4005 1.408 . S
C4002 C4000 1.363 . S
C4002 C4003 1.370 . S
C4002 C4006 1.524 . S
C4003 C3995 1.503 . S
C4003 C4002 1.370 . S
C4003 C4004 1.403 . S
C4004 C4003 1.403 . S
C4004 C4005 1.404 . S
C4004 C4007 1.539 . S
C4005 C4001 1.408 . S
C4005 C4004 1.404 . S
C4005 H4017 0.930 . S
C4006 C4002 1.524 . S
C4006 H4018 0.956 . S
C4006 H4019 0.961 . S
C4006 H4020 0.961 . S
C4007 C4004 1.539 . S
C4007 H4021 0.958 . S
C4007 H4022 0.961 . S
C4007 H4023 0.960 . S
H4008 C3992 0.931 . S
H4009 C3997 0.929 . S
H4010 C3998 0.960 . S
H4011 C3998 0.962 . S
H4012 C3998 0.960 . S
H4013 C3999 0.961 . S
H4014 C3999 0.961 . S
H4015 C3999 0.961 . S
H4016 C4000 0.931 . S
H4017 C4005 0.930 . S
H4018 C4006 0.956 . S
H4019 C4006 0.961 . S
H4020 C4006 0.961 . S
H4021 C4007 0.958 . S
H4022 C4007 0.961 . S
H4023 C4007 0.960 . S
C953 C101 2.337 . S
C961 C322 2.286 . S
C985 C57 2.011 . S
C993 C370 2.077 . S
C1017 C73 1.380 . S
C1025 C402 1.415 . S
C1057 C447 1.560 . S
C1049 C78 1.478 . S
C1081 C21 1.009 . S
C1089 C487 0.978 . S
C1121 C522 1.065 . S
C1113 C31 1.041 . S
C1153 C561 1.189 . S
C1145 C49 1.212 . S
C1177 C0 1.168 . S
C1185 C598 1.178 . S
C1217 C330 2.041 . S
C1209 C218 2.035 1_545 S
C1241 C229 0.749 . S
C1249 C367 0.439 . S
C1281 C410 2.403 . S
C1273 C257 2.418 . S
C1313 C442 1.149 . S
C1305 C164 1.137 1_556 S
C1337 C216 1.215 . S
C1345 C482 1.283 . S
C1377 C530 0.428 . S
C1369 C231 0.525 . S
C1409 C571 1.997 1_556 S
C1401 C255 2.020 . S
C1441 C601 1.984 . S
C1433 C166 2.000 . S
C1473 C327 1.294 . S
C1465 C143 1.187 . S
C1497 C265 2.146 . S
C1505 C650 2.153 . S
C1537 C687 1.144 . S
C1529 C299 1.101 . S
C1569 C718 0.555 . S
C1561 C291 0.542 . S
C1593 C104 2.681 . S
C1601 C611 2.664 . S
C1625 C117 1.366 . S
C1633 C407 1.378 . S
C1657 C304 1.676 . S
C1665 C770 1.678 . S
C1697 C802 1.799 . S
C1689 C278 1.774 . S
C1729 C331 2.261 . S
C1721 C60 2.306 . S
C1761 C801 1.953 . S
C1753 C96 1.965 . S
C1785 C88 1.314 . S
C1793 C411 1.306 . S
C1817 C65 1.544 . S
C1825 C758 1.500 . S
C1857 C478 0.902 1_655 S
C1849 C10 0.915 . S
C1881 C44 0.951 . S
C1889 C691 0.934 . S
C1921 C570 1.175 . S
C1913 C34 1.181 . S
C1953 C847 1.137 . S
C1945 C13 1.134 . S
C1985 C321 1.987 . S
C1977 C138 1.982 . S
C2017 C798 0.488 . S
C2009 C296 0.405 . S
C2041 C112 2.246 . S
C2049 C401 2.328 . S
C2073 C270 1.035 . S
C2081 C771 1.033 . S
C2105 C140 1.185 . S
C2113 C491 1.179 . S
C2145 C681 0.337 . S
C2137 C294 0.728 . S
C2169 C114 1.973 . S
C2177 C562 1.909 . S
C2201 C268 1.940 1_556 S
C2209 C850 1.969 . S
C2233 C169 1.428 . S
C2241 C318 1.317 . S
C2265 C161 2.059 . S
C2273 C641 2.059 . S
C2297 C234 1.133 . S
C2305 C518 1.113 . S
C2329 C226 0.503 . S
C2337 C727 0.555 . S
C2369 C842 2.604 . S
C2361 C247 2.595 . S
C2393 C195 1.335 . S
C2401 C398 1.339 . S
C2433 C441 1.607 . S
C2425 C239 1.609 . S
C2465 C371 1.712 . S
C2457 C187 1.677 . S
C2489 C75 2.329 . S
C2497 C882 2.274 . S
C2529 C810 2.077 . S
C2521 C83 2.013 . S
C2553 C99 1.378 . S
C2561 C922 1.413 . S
C2585 C52 1.543 1_655 S
C2593 C767 1.537 . S
C2617 C47 0.952 . S
C2625 C647 0.991 . S
C2657 C682 1.063 . S
C2649 C5 1.062 . S
C2689 C721 1.188 . S
C2681 C23 1.179 . S
C2721 C838 1.169 . S
C2713 C26 1.136 . S
C2753 C890 2.047 . S
C2745 C244 2.055 . S
C2777 C177 0.668 . S
C2785 C807 0.471 . S
C2817 C930 2.392 . S
C2809 C192 2.422 . S
C2849 C762 1.132 . S
C2841 C203 1.052 . S
C2881 C642 1.292 . S
C2873 C242 1.279 . S
C2905 C179 0.412 . S
C2913 C690 0.460 . S
C2945 C731 1.986 . S
C2937 C190 2.044 . S
C2969 C205 1.994 . S
C2977 C841 1.977 . S
C3009 C887 1.262 . S
C3001 C286 1.278 . S
C3033 C122 2.139 . S
C3041 C490 2.156 . S
C3073 C527 1.151 . S
C3065 C130 1.070 . S
C3105 C558 0.522 . S
C3097 C148 0.482 . S
C3137 C851 2.671 . S
C3129 C273 2.672 . S
C3161 C260 1.350 . S
C3169 C927 1.384 . S
C3201 C450 1.676 . S
C3193 C135 1.678 . S
C3233 C362 1.804 . S
C3225 C109 1.792 . S
C3257 C86 2.326 . S
C3265 C891 2.268 . S
C3297 C361 1.960 . S
C3289 C70 1.953 . S
C3321 C62 1.313 . S
C3329 C931 1.305 . S
C3353 C91 1.514 . S
C3361 C438 1.499 . S
C3385 C36 0.898 . S
C3393 C638 0.897 . S
C3425 C531 0.932 . S
C3417 C18 0.947 . S
C3449 C8 1.185 . S
C3457 C730 1.174 . S
C3481 C39 1.118 . S
C3489 C607 1.123 . S
C3521 C881 1.995 . S
C3513 C307 1.992 . S
C3545 C153 0.477 . S
C3553 C358 0.439 . S
C3585 C921 2.324 . S
C3577 C281 2.269 . S
C3609 C127 1.046 . S
C3617 C451 1.030 . S
C3641 C309 1.184 . S
C3649 C651 1.181 . S
C3681 C521 0.407 . S
C3673 C151 0.498 . S
C3705 C283 1.960 . S
C3713 C722 1.855 1_655 S
C3745 C610 1.969 . S
C3737 C125 1.939 . S
C3777 C878 1.315 . S
C3769 C221 1.432 . S
C3809 C481 2.065 1_565 S
C3801 C200 2.047 . S
C3833 C208 1.146 . S
C3841 C678 1.134 . S
C3873 C567 0.577 . S
C3865 C174 0.562 . S
C3897 C182 2.612 . S
C3905 C602 2.610 . S
C3929 C156 1.356 . S
C3937 C918 1.341 . S
C3969 C761 1.602 . S
C3961 C213 1.613 . S
C4001 C811 1.719 . S
C3993 C252 1.688 . S
