# Generated by pormake.
# Topology bcu-b, (8,8)-cn, num edge types: 1
# Building blocks:
#     Node 0, Type 0, BuildingBlock: TAGTUT_clean_sbu_1, # of connection points: 8
#     Node 1, Type 1, BuildingBlock: VETTIZ_charged_sbu_0, # of connection points: 8
#     Edge 2, Type (0, 1), BuildingBlock: MIFKUJ_clean_linker_0, # of connection points: 2
#     Edge 3, Type (0, 1), BuildingBlock: MIFKUJ_clean_linker_0, # of connection points: 2
#     Edge 4, Type (0, 1), BuildingBlock: MIFKUJ_clean_linker_0, # of connection points: 2
#     Edge 5, Type (0, 1), BuildingBlock: MIFKUJ_clean_linker_0, # of connection points: 2
#     Edge 6, Type (0, 1), BuildingBlock: MIFKUJ_clean_linker_0, # of connection points: 2
#     Edge 7, Type (0, 1), BuildingBlock: MIFKUJ_clean_linker_0, # of connection points: 2
#     Edge 8, Type (0, 1), BuildingBlock: MIFKUJ_clean_linker_0, # of connection points: 2
#     Edge 9, Type (0, 1), BuildingBlock: MIFKUJ_clean_linker_0, # of connection points: 2
# Relax obj value: 0.029
# Max RMSD: 0.124
# Mean RMSD: 0.087
data_MOF--net-bcu-b--node1-TAGTUT_clean_sbu_1--node2-VETTIZ_charged_sbu_0--edge1-MIFKUJ_clean_linker_0
_symmetry_space_group_name_H-M    P1
_symmetry_Int_Tables_number       1
_symmetry_cell_setting            triclinic
loop_
_symmetry_equiv_pos_as_xyz
'x, y, z'
_cell_length_a     25.295564
_cell_length_b     24.078616
_cell_length_c     25.65741
_cell_angle_alpha  90.688908
_cell_angle_beta   91.782192
_cell_angle_gamma 97.765897
loop_
_atom_site_label
_atom_site_type_symbol
_atom_site_fract_x
_atom_site_fract_y
_atom_site_fract_z
_atom_type_partial_charge
C0 C 0.86475 0.13675 0.07366 0.0
C1 C 0.92311 0.14276 0.91748 0.0
C2 C 0.91648 0.91884 0.9338 0.0
Mg3 Mg 0.9766 0.13746 0.02601 0.0
O4 O 0.95539 0.05978 0.02956 0.0
Mg5 Mg 0.88586 0.02973 0.99272 0.0
Mg6 Mg 1.00233 0.0087 0.99861 0.0
O7 O 0.04932 0.95796 0.96726 0.0
Mg8 Mg 0.02919 0.88023 0.96655 0.0
Mg9 Mg 0.11923 0.98766 0.00281 0.0
C10 C 0.08903 0.09871 0.06168 0.0
C11 C 0.0853 0.08328 0.92362 0.0
O12 O 0.84764 0.09196 0.04677 0.0
O13 O 0.91342 0.1602 0.07299 0.0
O14 O 0.89412 0.09727 0.92937 0.0
O15 O 0.96158 0.16484 0.94755 0.0
O16 O 0.05922 0.13755 0.05484 0.0
O17 O 0.07262 0.04677 0.05101 0.0
C18 C 0.91822 0.93556 0.0734 0.0
O19 O 0.96717 0.94505 0.06007 0.0
O20 O 0.88197 0.96226 0.05392 0.0
O21 O 0.15739 0.92598 0.94755 0.0
O22 O 0.09111 0.86037 0.91699 0.0
O23 O 0.11218 0.9182 0.06541 0.0
C24 C 0.14005 0.88295 0.91836 0.0
O25 O 0.0473 0.84909 0.04258 0.0
O26 O 0.94634 0.87992 0.93932 0.0
C27 C 0.08459 0.87081 0.0742 0.0
O28 O 0.93268 0.97049 0.94566 0.0
O29 O 0.03678 0.07274 0.93787 0.0
O30 O 0.12203 0.05626 0.94181 0.0
Fe31 Fe 0.51297 0.62285 0.46269 0.0
O32 O 0.49976 0.5407 0.46669 0.0
Fe33 Fe 0.56043 0.50044 0.50064 0.0
Fe34 Fe 0.43827 0.49842 0.50256 0.0
O35 O 0.5048 0.54087 0.46692 0.0
O36 O 0.49931 0.45943 0.53779 0.0
O37 O 0.49415 0.45932 0.53765 0.0
Fe38 Fe 0.48758 0.3776 0.54324 0.0
C39 C 0.44786 0.60851 0.56278 0.0
O40 O 0.44488 0.61003 0.41557 0.0
O41 O 0.38743 0.54594 0.46041 0.0
O42 O 0.53999 0.36392 0.48533 0.0
O43 O 0.55084 0.44292 0.44025 0.0
O44 O 0.61743 0.54927 0.45582 0.0
O45 O 0.56821 0.6072 0.40883 0.0
O46 O 0.42902 0.44033 0.44198 0.0
O47 O 0.42557 0.36302 0.48909 0.0
C48 C 0.61055 0.58298 0.41744 0.0
O49 O 0.55467 0.3932 0.59172 0.0
O50 O 0.61147 0.45258 0.54213 0.0
O51 O 0.46328 0.63702 0.52309 0.0
O52 O 0.44546 0.55542 0.56345 0.0
C53 C 0.39781 0.58431 0.42526 0.0
C54 C 0.41825 0.38739 0.44629 0.0
C55 C 0.38723 0.41607 0.58536 0.0
O56 O 0.38098 0.44912 0.54633 0.0
O57 O 0.42984 0.39249 0.59499 0.0
C58 C 0.55266 0.39062 0.44393 0.0
O59 O 0.57206 0.5577 0.56095 0.0
O60 O 0.5771 0.63563 0.51479 0.0
C61 C 0.60194 0.41696 0.57983 0.0
C62 C 0.58691 0.60981 0.55613 0.0
H63 H 0.14535 0.0384 0.12737 0.0
H64 H 0.22175 0.07673 0.18404 0.0
H65 H 0.23011 0.23465 0.10518 0.0
H66 H 0.15344 0.19703 0.04912 0.0
H67 H 0.3349 0.20278 0.14867 0.0
H68 H 0.15134 0.22761 0.19398 0.0
H69 H 0.05737 0.18929 0.20747 0.0
H70 H 0.10729 0.07767 0.32277 0.0
H71 H 0.20167 0.11482 0.30924 0.0
H72 H 0.40684 0.41801 0.34395 0.0
H73 H 0.36775 0.35817 0.27065 0.0
H74 H 0.3397 0.21782 0.37372 0.0
H75 H 0.37814 0.27665 0.44667 0.0
H76 H 0.25153 0.23207 0.31775 0.0
H77 H 0.43205 0.21557 0.28681 0.0
H78 H 0.52752 0.24593 0.27381 0.0
H79 H 0.4888 0.33354 0.13598 0.0
H80 H 0.39277 0.30388 0.14837 0.0
C81 C 0.1648 0.08054 0.12085 0.0
C82 C 0.14295 0.11527 0.08483 0.0
C83 C 0.20849 0.10229 0.15308 0.0
C84 C 0.23105 0.15862 0.14897 0.0
C85 C 0.21328 0.19108 0.10879 0.0
C86 C 0.16917 0.16971 0.07719 0.0
C87 C 0.26352 0.18713 0.19276 0.0
C88 C 0.31693 0.20946 0.18566 0.0
C89 C 0.24006 0.19481 0.24115 0.0
C90 C 0.18341 0.17352 0.25023 0.0
C91 C 0.14223 0.19466 0.22196 0.0
C92 C 0.08893 0.17318 0.22962 0.0
C93 C 0.07637 0.13097 0.26587 0.0
C94 C 0.11709 0.1103 0.29465 0.0
C95 C 0.17047 0.13154 0.28701 0.0
C96 C 0.39238 0.3744 0.35091 0.0
C97 C 0.39513 0.35233 0.40127 0.0
C98 C 0.37058 0.34016 0.30896 0.0
C99 C 0.35115 0.28352 0.31683 0.0
C100 C 0.35453 0.26138 0.36685 0.0
C101 C 0.37645 0.29527 0.40854 0.0
C102 C 0.32332 0.24823 0.27407 0.0
C103 C 0.27022 0.22498 0.2812 0.0
C104 C 0.34756 0.23922 0.22627 0.0
C105 C 0.40514 0.25798 0.21884 0.0
C106 C 0.44381 0.2418 0.25401 0.0
C107 C 0.49808 0.25875 0.24667 0.0
C108 C 0.51428 0.29184 0.20419 0.0
C109 C 0.47618 0.30796 0.16891 0.0
C110 C 0.42181 0.29098 0.17601 0.0
H111 H 0.55635 0.30481 0.19851 0.0
H112 H 0.03509 0.11436 0.27173 0.0
H113 H 0.89032 0.21177 0.15397 0.0
H114 H 0.83011 0.2529 0.21065 0.0
H115 H 0.69461 0.16278 0.12561 0.0
H116 H 0.75501 0.11961 0.06974 0.0
H117 H 0.76109 0.31961 0.19768 0.0
H118 H 0.58969 0.13474 0.20621 0.0
H119 H 0.57591 0.03141 0.19939 0.0
H120 H 0.73903 0.02711 0.24889 0.0
H121 H 0.75355 0.13028 0.25664 0.0
H122 H 0.55948 0.42136 0.34171 0.0
H123 H 0.60315 0.37643 0.27209 0.0
H124 H 0.64172 0.24976 0.37912 0.0
H125 H 0.59633 0.29311 0.44807 0.0
H126 H 0.6187 0.20237 0.29078 0.0
H127 H 0.73275 0.36961 0.34762 0.0
H128 H 0.7559 0.47086 0.36641 0.0
H129 H 0.72461 0.50683 0.20578 0.0
H130 H 0.70055 0.40573 0.18615 0.0
C131 C 0.8477 0.20057 0.14722 0.0
C132 C 0.82752 0.16213 0.1074 0.0
C133 C 0.81323 0.22437 0.17963 0.0
C134 C 0.75768 0.21078 0.17283 0.0
C135 C 0.73729 0.17323 0.13238 0.0
C136 C 0.77187 0.14866 0.10034 0.0
C137 C 0.72169 0.23562 0.20874 0.0
C138 C 0.72978 0.2939 0.21779 0.0
C139 C 0.68116 0.20229 0.23568 0.0
C140 C 0.67285 0.14024 0.23126 0.0
C141 C 0.62257 0.1117 0.21567 0.0
C142 C 0.61464 0.05317 0.21167 0.0
C143 C 0.65663 0.02273 0.22347 0.0
C144 C 0.7066 0.05074 0.23951 0.0
C145 C 0.71472 0.10924 0.24365 0.0
C146 C 0.57688 0.38363 0.35021 0.0
C147 C 0.57495 0.3611 0.40054 0.0
C148 C 0.60205 0.3581 0.31043 0.0
C149 C 0.62684 0.31031 0.32052 0.0
C150 C 0.62302 0.28659 0.37024 0.0
C151 C 0.59712 0.31152 0.40974 0.0
C152 C 0.65872 0.28613 0.28032 0.0
C153 C 0.64961 0.2281 0.27019 0.0
C154 C 0.69972 0.3194 0.25393 0.0
C155 C 0.7144 0.38017 0.26552 0.0
C156 C 0.7305 0.39914 0.31637 0.0
C157 C 0.7438 0.45647 0.32717 0.0
C158 C 0.74169 0.49522 0.28732 0.0
C159 C 0.7262 0.47673 0.2366 0.0
C160 C 0.71275 0.41943 0.2256 0.0
H161 H 0.75231 0.53953 0.29572 0.0
H162 H 0.65041 0.97743 0.22034 0.0
H163 H 0.95844 0.91925 0.17179 0.0
H164 H 0.91718 0.85368 0.23637 0.0
H165 H 0.79849 0.78473 0.11999 0.0
H166 H 0.83732 0.85238 0.05736 0.0
H167 H 0.75176 0.80934 0.20318 0.0
H168 H 0.91039 0.71236 0.17426 0.0
H169 H 0.00835 0.71751 0.17473 0.0
H170 H 0.01816 0.77087 0.33549 0.0
H171 H 0.92005 0.76548 0.33602 0.0
H172 H 0.60934 0.58087 0.31206 0.0
H173 H 0.67553 0.6321 0.25666 0.0
H174 H 0.77695 0.68117 0.3924 0.0
H175 H 0.71161 0.62729 0.44762 0.0
H176 H 0.83724 0.67424 0.31073 0.0
H177 H 0.68783 0.76512 0.34834 0.0
H178 H 0.59276 0.77555 0.35617 0.0
H179 H 0.56792 0.75214 0.19061 0.0
H180 H 0.66272 0.74062 0.18188 0.0
C181 C 0.92417 0.88922 0.16011 0.0
C182 C 0.90092 0.89053 0.10983 0.0
C183 C 0.90066 0.85165 0.19687 0.0
C184 C 0.85469 0.81383 0.18311 0.0
C185 C 0.8336 0.81356 0.13183 0.0
C186 C 0.856 0.85193 0.09588 0.0
C187 C 0.82536 0.77717 0.22207 0.0
C188 C 0.77043 0.77918 0.22596 0.0
C189 C 0.84998 0.74023 0.25448 0.0
C190 C 0.90818 0.73895 0.25503 0.0
C191 C 0.93351 0.72488 0.20973 0.0
C192 C 0.98905 0.728 0.20982 0.0
C193 C 0.01952 0.74524 0.25497 0.0
C194 C 0.99448 0.75783 0.30052 0.0
C195 C 0.93893 0.75446 0.30073 0.0
C196 C 0.64663 0.60103 0.32969 0.0
C197 C 0.65553 0.60063 0.38386 0.0
C198 C 0.68419 0.63066 0.2982 0.0
C199 C 0.73034 0.66209 0.32063 0.0
C200 C 0.74146 0.65763 0.3743 0.0
C201 C 0.70427 0.62677 0.40577 0.0
C202 C 0.76318 0.70409 0.28896 0.0
C203 C 0.81858 0.70388 0.28732 0.0
C204 C 0.73929 0.74409 0.25959 0.0
C205 C 0.6823 0.75153 0.26453 0.0
C206 C 0.66203 0.76184 0.31364 0.0
C207 C 0.60819 0.76797 0.31824 0.0
C208 C 0.5743 0.7644 0.27393 0.0
C209 C 0.59422 0.75483 0.2249 0.0
C210 C 0.64801 0.74853 0.2201 0.0
H211 H 0.53263 0.76915 0.27756 0.0
H212 H 0.06249 0.74923 0.25476 0.0
H213 H 0.14312 0.90721 0.16252 0.0
H214 H 0.1863 0.85002 0.22462 0.0
H215 H 0.11282 0.69979 0.14386 0.0
H216 H 0.06804 0.75666 0.08263 0.0
H217 H 0.11843 0.68181 0.24709 0.0
H218 H 0.23906 0.75339 0.11827 0.0
H219 H 0.28721 0.82505 0.06287 0.0
H220 H 0.36251 0.91088 0.19896 0.0
H221 H 0.31413 0.84019 0.25525 0.0
H222 H 0.31591 0.52539 0.36572 0.0
H223 H 0.2525 0.56598 0.30734 0.0
H224 H 0.31733 0.7318 0.3634 0.0
H225 H 0.38122 0.69167 0.41958 0.0
H226 H 0.31504 0.73049 0.26288 0.0
H227 H 0.18903 0.66318 0.39331 0.0
H228 H 0.1394 0.59203 0.4482 0.0
H229 H 0.07393 0.5003 0.3112 0.0
H230 H 0.12376 0.57058 0.25548 0.0
C231 C 0.13521 0.86197 0.15864 0.0
C232 C 0.10235 0.83657 0.11744 0.0
C233 C 0.16022 0.82928 0.19394 0.0
C234 C 0.15389 0.77057 0.18814 0.0
C235 C 0.11867 0.74495 0.14892 0.0
C236 C 0.09293 0.77762 0.11404 0.0
C237 C 0.18663 0.73668 0.22103 0.0
C238 C 0.16137 0.69262 0.25061 0.0
C239 C 0.24291 0.74943 0.22476 0.0
C240 C 0.27262 0.79171 0.19101 0.0
C241 C 0.26563 0.78774 0.13641 0.0
C242 C 0.29298 0.82817 0.10484 0.0
C243 C 0.32782 0.87255 0.12739 0.0
C244 C 0.33548 0.8765 0.18155 0.0
C245 C 0.30813 0.83623 0.21331 0.0
C246 C 0.31559 0.57033 0.36608 0.0
C247 C 0.35332 0.60555 0.39683 0.0
C248 C 0.27948 0.59356 0.33279 0.0
C249 C 0.28017 0.65214 0.33074 0.0
C250 C 0.31624 0.68666 0.36371 0.0
C251 C 0.35257 0.6637 0.39602 0.0
C252 C 0.24647 0.6787 0.29222 0.0
C253 C 0.2719 0.72056 0.26034 0.0
C254 C 0.19041 0.66413 0.28683 0.0
C255 C 0.16066 0.62174 0.32026 0.0
C256 C 0.16445 0.62756 0.37491 0.0
C257 C 0.1362 0.58745 0.40616 0.0
C258 C 0.10368 0.54157 0.38321 0.0
C259 C 0.09923 0.53579 0.32893 0.0
C260 C 0.12745 0.57575 0.2975 0.0
H261 H 0.08182 0.51057 0.40748 0.0
H262 H 0.34896 0.90382 0.10289 0.0
H263 H 0.12002 0.83415 0.82242 0.0
H264 H 0.18007 0.78688 0.77018 0.0
H265 H 0.30363 0.82191 0.89066 0.0
H266 H 0.24445 0.87256 0.94138 0.0
H267 H 0.34903 0.83317 0.80787 0.0
H268 H 0.2247 0.68579 0.86751 0.0
H269 H 0.13751 0.63135 0.88506 0.0
H270 H 0.10061 0.61481 0.72066 0.0
H271 H 0.1873 0.66982 0.70212 0.0
H272 H 0.40909 0.56161 0.65314 0.0
H273 H 0.36982 0.60737 0.72476 0.0
H274 H 0.4035 0.76664 0.64899 0.0
H275 H 0.44361 0.72124 0.57732 0.0
H276 H 0.28476 0.65084 0.72045 0.0
H277 H 0.41247 0.8737 0.73323 0.0
H278 H 0.50519 0.91824 0.75051 0.0
H279 H 0.54729 0.76282 0.80805 0.0
H280 H 0.45502 0.71721 0.79052 0.0
C281 C 0.16017 0.83205 0.83752 0.0
C282 C 0.17765 0.85702 0.8859 0.0
C283 C 0.19436 0.80444 0.80789 0.0
C284 C 0.24621 0.79933 0.82681 0.0
C285 C 0.26391 0.82505 0.87498 0.0
C286 C 0.23013 0.85408 0.904 0.0
C287 C 0.28217 0.76833 0.79583 0.0
C288 C 0.33483 0.79331 0.78871 0.0
C289 C 0.26483 0.71498 0.77257 0.0
C290 C 0.2123 0.68246 0.78346 0.0
C291 C 0.1978 0.67098 0.83511 0.0
C292 C 0.1485 0.63992 0.84523 0.0
C293 C 0.11348 0.61976 0.80401 0.0
C294 C 0.12774 0.63053 0.75256 0.0
C295 C 0.17697 0.66161 0.74222 0.0
C296 C 0.40893 0.60654 0.65188 0.0
C297 C 0.42893 0.63752 0.60885 0.0
C298 C 0.38645 0.63273 0.69308 0.0
C299 C 0.38352 0.69058 0.6925 0.0
C300 C 0.40575 0.72211 0.65085 0.0
C301 C 0.42827 0.69591 0.60952 0.0
C302 C 0.3513 0.71642 0.7315 0.0
C303 C 0.29904 0.69063 0.73971 0.0
C304 C 0.37 0.76741 0.75819 0.0
C305 C 0.42698 0.79196 0.76008 0.0
C306 C 0.44176 0.84883 0.74876 0.0
C307 C 0.4941 0.87437 0.75898 0.0
C308 C 0.53187 0.84357 0.78105 0.0
C309 C 0.51782 0.78672 0.79139 0.0
C310 C 0.46569 0.76083 0.78067 0.0
H311 H 0.57225 0.86355 0.78945 0.0
H312 H 0.07534 0.59571 0.81192 0.0
H313 H 0.02092 0.13521 0.85647 0.0
H314 H 0.04876 0.21344 0.79818 0.0
H315 H 0.21218 0.21463 0.85204 0.0
H316 H 0.18495 0.13771 0.91004 0.0
H317 H 0.18253 0.32244 0.84539 0.0
H318 H 0.16157 0.14482 0.74013 0.0
H319 H 0.1055 0.0623 0.70053 0.0
H320 H 0.00645 0.16995 0.62374 0.0
H321 H 0.06135 0.25294 0.66373 0.0
H322 H 0.39187 0.37824 0.68459 0.0
H323 H 0.31802 0.34539 0.7396 0.0
H324 H 0.20593 0.38777 0.62132 0.0
H325 H 0.28043 0.42093 0.56532 0.0
H326 H 0.17852 0.28229 0.65511 0.0
H327 H 0.21142 0.45826 0.73501 0.0
H328 H 0.2623 0.54537 0.77142 0.0
H329 H 0.32842 0.45217 0.89309 0.0
H330 H 0.27847 0.36436 0.85712 0.0
C331 C 0.06266 0.15258 0.85609 0.0
C332 C 0.10072 0.13006 0.88773 0.0
C333 C 0.07848 0.19717 0.82279 0.0
C334 C 0.13255 0.21996 0.82093 0.0
C335 C 0.17022 0.19802 0.8531 0.0
C336 C 0.1546 0.15353 0.88589 0.0
C337 C 0.15188 0.26432 0.78378 0.0
C338 C 0.18137 0.31407 0.80371 0.0
C339 C 0.14778 0.25494 0.72918 0.0
C340 C 0.1151 0.20492 0.70536 0.0
C341 C 0.12755 0.15078 0.71515 0.0
C342 C 0.09599 0.10394 0.69264 0.0
C343 C 0.05228 0.11084 0.65983 0.0
C344 C 0.04014 0.1646 0.64934 0.0
C345 C 0.07141 0.21153 0.67195 0.0
C346 C 0.35163 0.38127 0.67031 0.0
C347 C 0.34207 0.40185 0.62038 0.0
C348 C 0.30934 0.36292 0.70209 0.0
C349 C 0.25638 0.36465 0.68486 0.0
C350 C 0.24651 0.38641 0.6355 0.0
C351 C 0.2891 0.40543 0.60367 0.0
C352 C 0.21237 0.33846 0.71717 0.0
C353 C 0.17815 0.29218 0.69645 0.0
C354 C 0.21096 0.35189 0.77088 0.0
C355 C 0.24113 0.40456 0.79324 0.0
C356 C 0.23701 0.45623 0.76939 0.0
C357 C 0.26567 0.50578 0.78997 0.0
C358 C 0.29859 0.50428 0.83452 0.0
C359 C 0.30282 0.45326 0.85863 0.0
C360 C 0.2742 0.40358 0.83823 0.0
H361 H 0.3208 0.54267 0.85036 0.0
H362 H 0.02791 0.07454 0.6424 0.0
H363 H 0.83429 0.11611 0.85479 0.0
H364 H 0.80053 0.17163 0.78655 0.0
H365 H 0.94139 0.2941 0.80408 0.0
H366 H 0.97473 0.23938 0.8751 0.0
H367 H 0.85742 0.34603 0.79863 0.0
H368 H 0.91583 0.20545 0.69311 0.0
H369 H 0.92822 0.10948 0.66634 0.0
H370 H 0.75895 0.06636 0.64245 0.0
H371 H 0.74517 0.16142 0.67044 0.0
H372 H 0.708 0.46454 0.58448 0.0
H373 H 0.78283 0.42806 0.63035 0.0
H374 H 0.67407 0.28931 0.6852 0.0
H375 H 0.59996 0.32504 0.64082 0.0
H376 H 0.7676 0.25897 0.63735 0.0
H377 H 0.71313 0.39328 0.76417 0.0
H378 H 0.7009 0.48886 0.79242 0.0
H379 H 0.86739 0.54458 0.77214 0.0
H380 H 0.88042 0.44942 0.74288 0.0
C381 C 0.85878 0.15435 0.84383 0.0
C382 C 0.90736 0.17314 0.87063 0.0
C383 C 0.83944 0.18608 0.8043 0.0
C384 C 0.86871 0.23678 0.78924 0.0
C385 C 0.9181 0.25505 0.81478 0.0
C386 C 0.93724 0.22356 0.85519 0.0
C387 C 0.84508 0.27171 0.74948 0.0
C388 C 0.83911 0.32739 0.76262 0.0
C389 C 0.82126 0.24783 0.70218 0.0
C390 C 0.82947 0.19082 0.68393 0.0
C391 C 0.88118 0.17552 0.68231 0.0
C392 C 0.88847 0.12124 0.66695 0.0
C393 C 0.84447 0.08198 0.65254 0.0
C394 C 0.79303 0.09688 0.65348 0.0
C395 C 0.78544 0.15099 0.66907 0.0
C396 C 0.70011 0.42642 0.60655 0.0
C397 C 0.6478 0.39791 0.60895 0.0
C398 C 0.74286 0.40568 0.63266 0.0
C399 C 0.73392 0.3558 0.66086 0.0
C400 C 0.68189 0.32767 0.66339 0.0
C401 C 0.6394 0.34854 0.63815 0.0
C402 C 0.77779 0.33153 0.68818 0.0
C403 C 0.78763 0.27797 0.67247 0.0
C404 C 0.80549 0.35751 0.73265 0.0
C405 C 0.79758 0.41448 0.75057 0.0
C406 C 0.74702 0.42604 0.7652 0.0
C407 C 0.73996 0.48011 0.78149 0.0
C408 C 0.78329 0.52283 0.78383 0.0
C409 C 0.83383 0.51149 0.77011 0.0
C410 C 0.84107 0.45751 0.75366 0.0
H411 H 0.77772 0.56465 0.79639 0.0
H412 H 0.85023 0.03998 0.6407 0.0
H413 H 0.8421 0.83473 0.96306 0.0
H414 H 0.76841 0.78825 0.90785 0.0
H415 H 0.80214 0.91534 0.79174 0.0
H416 H 0.87345 0.96404 0.84887 0.0
H417 H 0.701 0.87192 0.78214 0.0
H418 H 0.8685 0.79915 0.79737 0.0
H419 H 0.94325 0.76151 0.84237 0.0
H420 H 0.83525 0.62222 0.8956 0.0
H421 H 0.75967 0.65973 0.85183 0.0
H422 H 0.64985 0.71032 0.55026 0.0
H423 H 0.69666 0.76596 0.62185 0.0
H424 H 0.6396 0.63772 0.73037 0.0
H425 H 0.59351 0.58093 0.65857 0.0
H426 H 0.74425 0.67994 0.7483 0.0
H427 H 0.58053 0.74978 0.70497 0.0
H428 H 0.51618 0.78981 0.64794 0.0
H429 H 0.62676 0.9401 0.63381 0.0
H430 H 0.69295 0.90026 0.68914 0.0
C431 C 0.83185 0.85415 0.92694 0.0
C432 C 0.86328 0.90252 0.9098 0.0
C433 C 0.79015 0.82737 0.8952 0.0
C434 C 0.7812 0.84716 0.84487 0.0
C435 C 0.80869 0.89901 0.83022 0.0
C436 C 0.84937 0.92686 0.86283 0.0
C437 C 0.75053 0.80979 0.80499 0.0
C438 C 0.71048 0.83005 0.77444 0.0
C439 C 0.76299 0.755 0.79515 0.0
C440 C 0.80834 0.73267 0.82196 0.0
C441 C 0.86063 0.7608 0.81911 0.0
C442 C 0.90315 0.73947 0.84437 0.0
C443 C 0.89398 0.68962 0.872 0.0
C444 C 0.84227 0.66096 0.87438 0.0
C445 C 0.79956 0.68229 0.84944 0.0
C446 C 0.64737 0.69383 0.58934 0.0
C447 C 0.61751 0.64161 0.59903 0.0
C448 C 0.67414 0.72567 0.63011 0.0
C449 C 0.67053 0.70639 0.68136 0.0
C450 C 0.64242 0.65338 0.691 0.0
C451 C 0.61612 0.6211 0.65006 0.0
C452 C 0.6951 0.74217 0.72509 0.0
C453 C 0.73411 0.72153 0.75632 0.0
C454 C 0.68277 0.79717 0.73403 0.0
C455 C 0.64225 0.8216 0.70121 0.0
C456 C 0.59178 0.79097 0.68908 0.0
C457 C 0.55483 0.81365 0.65693 0.0
C458 C 0.56739 0.86739 0.63713 0.0
C459 C 0.61704 0.89846 0.64925 0.0
C460 C 0.65436 0.87577 0.681 0.0
H461 H 0.53857 0.88501 0.61253 0.0
H462 H 0.92697 0.6731 0.89141 0.0
loop_
_geom_bond_atom_site_label_1
_geom_bond_atom_site_label_2
_geom_bond_distance
_geom_bond_site_symmetry_2
_ccdc_geom_bond_type
C0 O12 1.241 . S
C0 O13 1.280 . S
C1 O14 1.277 . S
C1 O15 1.245 . S
C2 O26 1.247 . S
C2 O28 1.289 . S
Mg3 O4 1.926 . S
Mg3 O13 1.984 . S
Mg3 O15 1.988 1_554 S
Mg3 O16 2.061 1_655 S
O4 Mg3 1.926 . S
O4 Mg5 1.988 . S
O4 Mg6 1.917 1_655 S
Mg5 O4 1.988 . S
Mg5 O12 2.047 . S
Mg5 O14 2.036 1_554 S
Mg5 O20 2.044 1_545 S
Mg5 O28 2.234 1_544 S
Mg6 O4 1.917 1_455 S
Mg6 O7 1.917 1_544 S
Mg6 O17 2.106 . S
Mg6 O19 2.079 1_445 S
Mg6 O28 2.106 1_444 S
Mg6 O29 2.079 1_554 S
O7 Mg6 1.917 1_566 S
O7 Mg8 1.926 . S
O7 Mg9 1.987 . S
Mg8 O7 1.926 . S
Mg8 O22 1.984 . S
Mg8 O25 1.988 1_556 S
Mg8 O26 2.061 1_455 S
Mg9 O7 1.987 . S
Mg9 O17 2.237 1_566 S
Mg9 O21 2.043 . S
Mg9 O23 2.040 1_556 S
Mg9 O30 2.040 1_565 S
C10 O16 1.247 . S
C10 O17 1.289 . S
C11 O29 1.245 . S
C11 O30 1.274 . S
O12 C0 1.241 . S
O12 Mg5 2.047 . S
O13 C0 1.280 . S
O13 Mg3 1.984 . S
O14 C1 1.277 . S
O14 Mg5 2.036 1_556 S
O15 C1 1.245 . S
O15 Mg3 1.988 1_556 S
O16 Mg3 2.061 1_455 S
O16 C10 1.247 . S
O17 Mg6 2.106 . S
O17 Mg9 2.237 1_544 S
O17 C10 1.289 . S
C18 O19 1.245 . S
C18 O20 1.274 . S
O19 Mg6 2.079 1_665 S
O19 C18 1.245 . S
O20 Mg5 2.044 1_565 S
O20 C18 1.274 . S
O21 Mg9 2.043 . S
O21 C24 1.241 . S
O22 Mg8 1.984 . S
O22 C24 1.280 . S
O23 Mg9 2.040 1_554 S
O23 C27 1.277 . S
C24 O21 1.241 . S
C24 O22 1.280 . S
O25 Mg8 1.988 1_554 S
O25 C27 1.245 . S
O26 C2 1.247 . S
O26 Mg8 2.061 1_655 S
C27 O23 1.277 . S
C27 O25 1.245 . S
O28 C2 1.289 . S
O28 Mg5 2.234 1_566 S
O28 Mg6 2.106 1_666 S
O29 Mg6 2.079 1_556 S
O29 C11 1.245 . S
O30 Mg9 2.040 1_545 S
O30 C11 1.274 . S
Fe31 O32 1.886 . S
Fe31 O35 1.715 . S
Fe31 O40 2.077 . S
Fe31 O45 1.935 . S
Fe31 O51 2.077 . S
Fe31 O60 1.935 . S
O32 Fe31 1.886 . S
O32 Fe34 1.715 . S
Fe33 O35 1.886 . S
Fe33 O36 1.715 . S
Fe33 O43 1.935 . S
Fe33 O44 2.077 . S
Fe33 O50 1.935 . S
Fe33 O59 2.077 . S
Fe34 O32 1.715 . S
Fe34 O37 1.886 . S
Fe34 O41 1.935 . S
Fe34 O46 2.077 . S
Fe34 O52 1.935 . S
Fe34 O56 2.077 . S
O35 Fe31 1.715 . S
O35 Fe33 1.886 . S
O36 Fe33 1.715 . S
O36 Fe38 1.886 . S
O37 Fe34 1.886 . S
O37 Fe38 1.715 . S
Fe38 O36 1.886 . S
Fe38 O37 1.715 . S
Fe38 O42 2.077 . S
Fe38 O47 1.935 . S
Fe38 O49 2.077 . S
Fe38 O57 1.935 . S
C39 O51 1.381 . S
C39 O52 1.421 . S
O40 Fe31 2.077 . S
O40 C53 1.381 . S
O41 Fe34 1.935 . S
O41 C53 1.421 . S
O42 Fe38 2.077 . S
O42 C58 1.381 . S
O43 Fe33 1.935 . S
O43 C58 1.421 . S
O44 Fe33 2.077 . S
O44 C48 1.381 . S
O45 Fe31 1.935 . S
O45 C48 1.421 . S
O46 Fe34 2.077 . S
O46 C54 1.381 . S
O47 Fe38 1.935 . S
O47 C54 1.421 . S
C48 O44 1.381 . S
C48 O45 1.421 . S
O49 Fe38 2.077 . S
O49 C61 1.381 . S
O50 Fe33 1.935 . S
O50 C61 1.421 . S
O51 Fe31 2.077 . S
O51 C39 1.381 . S
O52 Fe34 1.935 . S
O52 C39 1.421 . S
C53 O40 1.381 . S
C53 O41 1.421 . S
C54 O46 1.381 . S
C54 O47 1.421 . S
C55 O56 1.381 . S
C55 O57 1.421 . S
O56 Fe34 2.077 . S
O56 C55 1.381 . S
O57 Fe38 1.935 . S
O57 C55 1.421 . S
C58 O42 1.381 . S
C58 O43 1.421 . S
O59 Fe33 2.077 . S
O59 C62 1.381 . S
O60 Fe31 1.935 . S
O60 C62 1.421 . S
C61 O49 1.381 . S
C61 O50 1.421 . S
C62 O59 1.381 . S
C62 O60 1.421 . S
H63 C81 0.951 . S
H64 C83 0.951 . S
H65 C85 0.950 . S
H66 C86 0.950 . S
H67 C88 0.950 . S
H68 C91 0.950 . S
H69 C92 0.950 . S
H70 C94 0.950 . S
H71 C95 0.950 . S
H72 C96 0.951 . S
H73 C98 0.951 . S
H74 C100 0.950 . S
H75 C101 0.950 . S
H76 C103 0.950 . S
H77 C106 0.950 . S
H78 C107 0.950 . S
H79 C109 0.950 . S
H80 C110 0.950 . S
C81 H63 0.951 . S
C81 C82 1.366 . S
C81 C83 1.388 . S
C82 C81 1.366 . S
C82 C86 1.385 . S
C83 H64 0.951 . S
C83 C81 1.388 . S
C83 C84 1.366 . S
C84 C83 1.366 . S
C84 C85 1.414 . S
C84 C87 1.499 . S
C85 H65 0.950 . S
C85 C84 1.414 . S
C85 C86 1.374 . S
C86 H66 0.950 . S
C86 C82 1.385 . S
C86 C85 1.374 . S
C87 C84 1.499 . S
C87 C88 1.373 . S
C87 C89 1.389 . S
C88 H67 0.950 . S
C88 C87 1.373 . S
C88 C104 1.377 . S
C89 C87 1.389 . S
C89 C90 1.524 . S
C89 C103 1.377 . S
C90 C89 1.524 . S
C90 C91 1.397 . S
C90 C95 1.363 . S
C91 H68 0.950 . S
C91 C90 1.397 . S
C91 C92 1.334 . S
C92 H69 0.950 . S
C92 C91 1.334 . S
C92 C93 1.287 . S
C93 C92 1.287 . S
C93 C94 1.524 . S
C93 H112 0.913 1_455 S
C94 H70 0.950 . S
C94 C93 1.524 . S
C94 C95 1.415 . S
C95 H71 0.950 . S
C95 C90 1.363 . S
C95 C94 1.415 . S
C96 H72 0.951 . S
C96 C97 1.366 . S
C96 C98 1.388 . S
C97 C96 1.366 . S
C97 C101 1.385 . S
C98 H73 0.951 . S
C98 C96 1.388 . S
C98 C99 1.366 . S
C99 C98 1.366 . S
C99 C100 1.414 . S
C99 C102 1.499 . S
C100 H74 0.950 . S
C100 C99 1.414 . S
C100 C101 1.374 . S
C101 H75 0.950 . S
C101 C97 1.385 . S
C101 C100 1.374 . S
C102 C99 1.499 . S
C102 C103 1.373 . S
C102 C104 1.389 . S
C103 H76 0.950 . S
C103 C89 1.377 . S
C103 C102 1.373 . S
C104 C88 1.377 . S
C104 C102 1.389 . S
C104 C105 1.524 . S
C105 C104 1.524 . S
C105 C106 1.397 . S
C105 C110 1.363 . S
C106 H77 0.950 . S
C106 C105 1.397 . S
C106 C107 1.334 . S
C107 H78 0.950 . S
C107 C106 1.334 . S
C107 C108 1.287 . S
C108 C107 1.287 . S
C108 C109 1.524 . S
C108 H111 0.999 . S
C109 H79 0.950 . S
C109 C108 1.524 . S
C109 C110 1.415 . S
C110 H80 0.950 . S
C110 C105 1.363 . S
C110 C109 1.415 . S
H111 C108 0.999 . S
H112 C93 0.913 1_655 S
H113 C131 0.951 . S
H114 C133 0.951 . S
H115 C135 0.950 . S
H116 C136 0.950 . S
H117 C138 0.950 . S
H118 C141 0.950 . S
H119 C142 0.950 . S
H120 C144 0.950 . S
H121 C145 0.950 . S
H122 C146 0.951 . S
H123 C148 0.951 . S
H124 C150 0.950 . S
H125 C151 0.950 . S
H126 C153 0.950 . S
H127 C156 0.950 . S
H128 C157 0.950 . S
H129 C159 0.950 . S
H130 C160 0.950 . S
C131 H113 0.951 . S
C131 C132 1.366 . S
C131 C133 1.388 . S
C132 C131 1.366 . S
C132 C136 1.385 . S
C133 H114 0.951 . S
C133 C131 1.388 . S
C133 C134 1.366 . S
C134 C133 1.366 . S
C134 C135 1.414 . S
C134 C137 1.499 . S
C135 H115 0.950 . S
C135 C134 1.414 . S
C135 C136 1.374 . S
C136 H116 0.950 . S
C136 C132 1.385 . S
C136 C135 1.374 . S
C137 C134 1.499 . S
C137 C138 1.373 . S
C137 C139 1.389 . S
C138 H117 0.950 . S
C138 C137 1.373 . S
C138 C154 1.377 . S
C139 C137 1.389 . S
C139 C140 1.524 . S
C139 C153 1.377 . S
C140 C139 1.524 . S
C140 C141 1.397 . S
C140 C145 1.363 . S
C141 H118 0.950 . S
C141 C140 1.397 . S
C141 C142 1.334 . S
C142 H119 0.950 . S
C142 C141 1.334 . S
C142 C143 1.287 . S
C143 C142 1.287 . S
C143 C144 1.524 . S
C143 H162 0.913 . S
C144 H120 0.950 . S
C144 C143 1.524 . S
C144 C145 1.415 . S
C145 H121 0.950 . S
C145 C140 1.363 . S
C145 C144 1.415 . S
C146 H122 0.951 . S
C146 C147 1.366 . S
C146 C148 1.388 . S
C147 C146 1.366 . S
C147 C151 1.385 . S
C148 H123 0.951 . S
C148 C146 1.388 . S
C148 C149 1.366 . S
C149 C148 1.366 . S
C149 C150 1.414 . S
C149 C152 1.499 . S
C150 H124 0.950 . S
C150 C149 1.414 . S
C150 C151 1.374 . S
C151 H125 0.950 . S
C151 C147 1.385 . S
C151 C150 1.374 . S
C152 C149 1.499 . S
C152 C153 1.373 . S
C152 C154 1.389 . S
C153 H126 0.950 . S
C153 C139 1.377 . S
C153 C152 1.373 . S
C154 C138 1.377 . S
C154 C152 1.389 . S
C154 C155 1.524 . S
C155 C154 1.524 . S
C155 C156 1.397 . S
C155 C160 1.363 . S
C156 H127 0.950 . S
C156 C155 1.397 . S
C156 C157 1.334 . S
C157 H128 0.950 . S
C157 C156 1.334 . S
C157 C158 1.287 . S
C158 C157 1.287 . S
C158 C159 1.524 . S
C158 H161 0.999 . S
C159 H129 0.950 . S
C159 C158 1.524 . S
C159 C160 1.415 . S
C160 H130 0.950 . S
C160 C155 1.363 . S
C160 C159 1.415 . S
H161 C158 0.999 . S
H162 C143 0.913 . S
H163 C181 0.951 . S
H164 C183 0.951 . S
H165 C185 0.950 . S
H166 C186 0.950 . S
H167 C188 0.950 . S
H168 C191 0.950 . S
H169 C192 0.950 . S
H170 C194 0.950 . S
H171 C195 0.950 . S
H172 C196 0.951 . S
H173 C198 0.951 . S
H174 C200 0.950 . S
H175 C201 0.950 . S
H176 C203 0.950 . S
H177 C206 0.950 . S
H178 C207 0.950 . S
H179 C209 0.950 . S
H180 C210 0.950 . S
C181 H163 0.951 . S
C181 C182 1.366 . S
C181 C183 1.388 . S
C182 C181 1.366 . S
C182 C186 1.385 . S
C183 H164 0.951 . S
C183 C181 1.388 . S
C183 C184 1.366 . S
C184 C183 1.366 . S
C184 C185 1.414 . S
C184 C187 1.499 . S
C185 H165 0.950 . S
C185 C184 1.414 . S
C185 C186 1.374 . S
C186 H166 0.950 . S
C186 C182 1.385 . S
C186 C185 1.374 . S
C187 C184 1.499 . S
C187 C188 1.373 . S
C187 C189 1.389 . S
C188 H167 0.950 . S
C188 C187 1.373 . S
C188 C204 1.377 . S
C189 C187 1.389 . S
C189 C190 1.524 . S
C189 C203 1.377 . S
C190 C189 1.524 . S
C190 C191 1.397 . S
C190 C195 1.363 . S
C191 H168 0.950 . S
C191 C190 1.397 . S
C191 C192 1.334 . S
C192 H169 0.950 . S
C192 C191 1.334 . S
C192 C193 1.287 . S
C193 C192 1.287 . S
C193 C194 1.524 . S
C193 H212 0.913 1_655 S
C194 H170 0.950 . S
C194 C193 1.524 . S
C194 C195 1.415 . S
C195 H171 0.950 . S
C195 C190 1.363 . S
C195 C194 1.415 . S
C196 H172 0.951 . S
C196 C197 1.366 . S
C196 C198 1.388 . S
C197 C196 1.366 . S
C197 C201 1.385 . S
C198 H173 0.951 . S
C198 C196 1.388 . S
C198 C199 1.366 . S
C199 C198 1.366 . S
C199 C200 1.414 . S
C199 C202 1.499 . S
C200 H174 0.950 . S
C200 C199 1.414 . S
C200 C201 1.374 . S
C201 H175 0.950 . S
C201 C197 1.385 . S
C201 C200 1.374 . S
C202 C199 1.499 . S
C202 C203 1.373 . S
C202 C204 1.389 . S
C203 H176 0.950 . S
C203 C189 1.377 . S
C203 C202 1.373 . S
C204 C188 1.377 . S
C204 C202 1.389 . S
C204 C205 1.524 . S
C205 C204 1.524 . S
C205 C206 1.397 . S
C205 C210 1.363 . S
C206 H177 0.950 . S
C206 C205 1.397 . S
C206 C207 1.334 . S
C207 H178 0.950 . S
C207 C206 1.334 . S
C207 C208 1.287 . S
C208 C207 1.287 . S
C208 C209 1.524 . S
C208 H211 0.999 . S
C209 H179 0.950 . S
C209 C208 1.524 . S
C209 C210 1.415 . S
C210 H180 0.950 . S
C210 C205 1.363 . S
C210 C209 1.415 . S
H211 C208 0.999 . S
H212 C193 0.913 1_455 S
H213 C231 0.951 . S
H214 C233 0.951 . S
H215 C235 0.950 . S
H216 C236 0.950 . S
H217 C238 0.950 . S
H218 C241 0.950 . S
H219 C242 0.950 . S
H220 C244 0.950 . S
H221 C245 0.950 . S
H222 C246 0.951 . S
H223 C248 0.951 . S
H224 C250 0.950 . S
H225 C251 0.950 . S
H226 C253 0.950 . S
H227 C256 0.950 . S
H228 C257 0.950 . S
H229 C259 0.950 . S
H230 C260 0.950 . S
C231 H213 0.951 . S
C231 C232 1.366 . S
C231 C233 1.388 . S
C232 C231 1.366 . S
C232 C236 1.385 . S
C233 H214 0.951 . S
C233 C231 1.388 . S
C233 C234 1.366 . S
C234 C233 1.366 . S
C234 C235 1.414 . S
C234 C237 1.499 . S
C235 H215 0.950 . S
C235 C234 1.414 . S
C235 C236 1.374 . S
C236 H216 0.950 . S
C236 C232 1.385 . S
C236 C235 1.374 . S
C237 C234 1.499 . S
C237 C238 1.373 . S
C237 C239 1.389 . S
C238 H217 0.950 . S
C238 C237 1.373 . S
C238 C254 1.377 . S
C239 C237 1.389 . S
C239 C240 1.524 . S
C239 C253 1.377 . S
C240 C239 1.524 . S
C240 C241 1.397 . S
C240 C245 1.363 . S
C241 H218 0.950 . S
C241 C240 1.397 . S
C241 C242 1.334 . S
C242 H219 0.950 . S
C242 C241 1.334 . S
C242 C243 1.287 . S
C243 C242 1.287 . S
C243 C244 1.524 . S
C243 H262 0.913 . S
C244 H220 0.950 . S
C244 C243 1.524 . S
C244 C245 1.415 . S
C245 H221 0.950 . S
C245 C240 1.363 . S
C245 C244 1.415 . S
C246 H222 0.951 . S
C246 C247 1.366 . S
C246 C248 1.388 . S
C247 C246 1.366 . S
C247 C251 1.385 . S
C248 H223 0.951 . S
C248 C246 1.388 . S
C248 C249 1.366 . S
C249 C248 1.366 . S
C249 C250 1.414 . S
C249 C252 1.499 . S
C250 H224 0.950 . S
C250 C249 1.414 . S
C250 C251 1.374 . S
C251 H225 0.950 . S
C251 C247 1.385 . S
C251 C250 1.374 . S
C252 C249 1.499 . S
C252 C253 1.373 . S
C252 C254 1.389 . S
C253 H226 0.950 . S
C253 C239 1.377 . S
C253 C252 1.373 . S
C254 C238 1.377 . S
C254 C252 1.389 . S
C254 C255 1.524 . S
C255 C254 1.524 . S
C255 C256 1.397 . S
C255 C260 1.363 . S
C256 H227 0.950 . S
C256 C255 1.397 . S
C256 C257 1.334 . S
C257 H228 0.950 . S
C257 C256 1.334 . S
C257 C258 1.287 . S
C258 C257 1.287 . S
C258 C259 1.524 . S
C258 H261 0.999 . S
C259 H229 0.950 . S
C259 C258 1.524 . S
C259 C260 1.415 . S
C260 H230 0.950 . S
C260 C255 1.363 . S
C260 C259 1.415 . S
H261 C258 0.999 . S
H262 C243 0.913 . S
H263 C281 0.951 . S
H264 C283 0.951 . S
H265 C285 0.950 . S
H266 C286 0.950 . S
H267 C288 0.950 . S
H268 C291 0.950 . S
H269 C292 0.950 . S
H270 C294 0.950 . S
H271 C295 0.950 . S
H272 C296 0.951 . S
H273 C298 0.951 . S
H274 C300 0.950 . S
H275 C301 0.950 . S
H276 C303 0.950 . S
H277 C306 0.950 . S
H278 C307 0.950 . S
H279 C309 0.950 . S
H280 C310 0.950 . S
C281 H263 0.951 . S
C281 C282 1.366 . S
C281 C283 1.388 . S
C282 C281 1.366 . S
C282 C286 1.385 . S
C283 H264 0.951 . S
C283 C281 1.388 . S
C283 C284 1.366 . S
C284 C283 1.366 . S
C284 C285 1.414 . S
C284 C287 1.499 . S
C285 H265 0.950 . S
C285 C284 1.414 . S
C285 C286 1.374 . S
C286 H266 0.950 . S
C286 C282 1.385 . S
C286 C285 1.374 . S
C287 C284 1.499 . S
C287 C288 1.373 . S
C287 C289 1.389 . S
C288 H267 0.950 . S
C288 C287 1.373 . S
C288 C304 1.377 . S
C289 C287 1.389 . S
C289 C290 1.524 . S
C289 C303 1.377 . S
C290 C289 1.524 . S
C290 C291 1.397 . S
C290 C295 1.363 . S
C291 H268 0.950 . S
C291 C290 1.397 . S
C291 C292 1.334 . S
C292 H269 0.950 . S
C292 C291 1.334 . S
C292 C293 1.287 . S
C293 C292 1.287 . S
C293 C294 1.524 . S
C293 H312 0.913 . S
C294 H270 0.950 . S
C294 C293 1.524 . S
C294 C295 1.415 . S
C295 H271 0.950 . S
C295 C290 1.363 . S
C295 C294 1.415 . S
C296 H272 0.951 . S
C296 C297 1.366 . S
C296 C298 1.388 . S
C297 C296 1.366 . S
C297 C301 1.385 . S
C298 H273 0.951 . S
C298 C296 1.388 . S
C298 C299 1.366 . S
C299 C298 1.366 . S
C299 C300 1.414 . S
C299 C302 1.499 . S
C300 H274 0.950 . S
C300 C299 1.414 . S
C300 C301 1.374 . S
C301 H275 0.950 . S
C301 C297 1.385 . S
C301 C300 1.374 . S
C302 C299 1.499 . S
C302 C303 1.373 . S
C302 C304 1.389 . S
C303 H276 0.950 . S
C303 C289 1.377 . S
C303 C302 1.373 . S
C304 C288 1.377 . S
C304 C302 1.389 . S
C304 C305 1.524 . S
C305 C304 1.524 . S
C305 C306 1.397 . S
C305 C310 1.363 . S
C306 H277 0.950 . S
C306 C305 1.397 . S
C306 C307 1.334 . S
C307 H278 0.950 . S
C307 C306 1.334 . S
C307 C308 1.287 . S
C308 C307 1.287 . S
C308 C309 1.524 . S
C308 H311 0.999 . S
C309 H279 0.950 . S
C309 C308 1.524 . S
C309 C310 1.415 . S
C310 H280 0.950 . S
C310 C305 1.363 . S
C310 C309 1.415 . S
H311 C308 0.999 . S
H312 C293 0.913 . S
H313 C331 0.951 . S
H314 C333 0.951 . S
H315 C335 0.950 . S
H316 C336 0.950 . S
H317 C338 0.950 . S
H318 C341 0.950 . S
H319 C342 0.950 . S
H320 C344 0.950 . S
H321 C345 0.950 . S
H322 C346 0.951 . S
H323 C348 0.951 . S
H324 C350 0.950 . S
H325 C351 0.950 . S
H326 C353 0.950 . S
H327 C356 0.950 . S
H328 C357 0.950 . S
H329 C359 0.950 . S
H330 C360 0.950 . S
C331 H313 0.951 . S
C331 C332 1.366 . S
C331 C333 1.388 . S
C332 C331 1.366 . S
C332 C336 1.385 . S
C333 H314 0.951 . S
C333 C331 1.388 . S
C333 C334 1.366 . S
C334 C333 1.366 . S
C334 C335 1.414 . S
C334 C337 1.499 . S
C335 H315 0.950 . S
C335 C334 1.414 . S
C335 C336 1.374 . S
C336 H316 0.950 . S
C336 C332 1.385 . S
C336 C335 1.374 . S
C337 C334 1.499 . S
C337 C338 1.373 . S
C337 C339 1.389 . S
C338 H317 0.950 . S
C338 C337 1.373 . S
C338 C354 1.377 . S
C339 C337 1.389 . S
C339 C340 1.524 . S
C339 C353 1.377 . S
C340 C339 1.524 . S
C340 C341 1.397 . S
C340 C345 1.363 . S
C341 H318 0.950 . S
C341 C340 1.397 . S
C341 C342 1.334 . S
C342 H319 0.950 . S
C342 C341 1.334 . S
C342 C343 1.287 . S
C343 C342 1.287 . S
C343 C344 1.524 . S
C343 H362 0.913 1_455 S
C344 H320 0.950 . S
C344 C343 1.524 . S
C344 C345 1.415 . S
C345 H321 0.950 . S
C345 C340 1.363 . S
C345 C344 1.415 . S
C346 H322 0.951 . S
C346 C347 1.366 . S
C346 C348 1.388 . S
C347 C346 1.366 . S
C347 C351 1.385 . S
C348 H323 0.951 . S
C348 C346 1.388 . S
C348 C349 1.366 . S
C349 C348 1.366 . S
C349 C350 1.414 . S
C349 C352 1.499 . S
C350 H324 0.950 . S
C350 C349 1.414 . S
C350 C351 1.374 . S
C351 H325 0.950 . S
C351 C347 1.385 . S
C351 C350 1.374 . S
C352 C349 1.499 . S
C352 C353 1.373 . S
C352 C354 1.389 . S
C353 H326 0.950 . S
C353 C339 1.377 . S
C353 C352 1.373 . S
C354 C338 1.377 . S
C354 C352 1.389 . S
C354 C355 1.524 . S
C355 C354 1.524 . S
C355 C356 1.397 . S
C355 C360 1.363 . S
C356 H327 0.950 . S
C356 C355 1.397 . S
C356 C357 1.334 . S
C357 H328 0.950 . S
C357 C356 1.334 . S
C357 C358 1.287 . S
C358 C357 1.287 . S
C358 C359 1.524 . S
C358 H361 0.999 . S
C359 H329 0.950 . S
C359 C358 1.524 . S
C359 C360 1.415 . S
C360 H330 0.950 . S
C360 C355 1.363 . S
C360 C359 1.415 . S
H361 C358 0.999 . S
H362 C343 0.913 1_655 S
H363 C381 0.951 . S
H364 C383 0.951 . S
H365 C385 0.950 . S
H366 C386 0.950 . S
H367 C388 0.950 . S
H368 C391 0.950 . S
H369 C392 0.950 . S
H370 C394 0.950 . S
H371 C395 0.950 . S
H372 C396 0.951 . S
H373 C398 0.951 . S
H374 C400 0.950 . S
H375 C401 0.950 . S
H376 C403 0.950 . S
H377 C406 0.950 . S
H378 C407 0.950 . S
H379 C409 0.950 . S
H380 C410 0.950 . S
C381 H363 0.951 . S
C381 C382 1.366 . S
C381 C383 1.388 . S
C382 C381 1.366 . S
C382 C386 1.385 . S
C383 H364 0.951 . S
C383 C381 1.388 . S
C383 C384 1.366 . S
C384 C383 1.366 . S
C384 C385 1.414 . S
C384 C387 1.499 . S
C385 H365 0.950 . S
C385 C384 1.414 . S
C385 C386 1.374 . S
C386 H366 0.950 . S
C386 C382 1.385 . S
C386 C385 1.374 . S
C387 C384 1.499 . S
C387 C388 1.373 . S
C387 C389 1.389 . S
C388 H367 0.950 . S
C388 C387 1.373 . S
C388 C404 1.377 . S
C389 C387 1.389 . S
C389 C390 1.524 . S
C389 C403 1.377 . S
C390 C389 1.524 . S
C390 C391 1.397 . S
C390 C395 1.363 . S
C391 H368 0.950 . S
C391 C390 1.397 . S
C391 C392 1.334 . S
C392 H369 0.950 . S
C392 C391 1.334 . S
C392 C393 1.287 . S
C393 C392 1.287 . S
C393 C394 1.524 . S
C393 H412 0.913 . S
C394 H370 0.950 . S
C394 C393 1.524 . S
C394 C395 1.415 . S
C395 H371 0.950 . S
C395 C390 1.363 . S
C395 C394 1.415 . S
C396 H372 0.951 . S
C396 C397 1.366 . S
C396 C398 1.388 . S
C397 C396 1.366 . S
C397 C401 1.385 . S
C398 H373 0.951 . S
C398 C396 1.388 . S
C398 C399 1.366 . S
C399 C398 1.366 . S
C399 C400 1.414 . S
C399 C402 1.499 . S
C400 H374 0.950 . S
C400 C399 1.414 . S
C400 C401 1.374 . S
C401 H375 0.950 . S
C401 C397 1.385 . S
C401 C400 1.374 . S
C402 C399 1.499 . S
C402 C403 1.373 . S
C402 C404 1.389 . S
C403 H376 0.950 . S
C403 C389 1.377 . S
C403 C402 1.373 . S
C404 C388 1.377 . S
C404 C402 1.389 . S
C404 C405 1.524 . S
C405 C404 1.524 . S
C405 C406 1.397 . S
C405 C410 1.363 . S
C406 H377 0.950 . S
C406 C405 1.397 . S
C406 C407 1.334 . S
C407 H378 0.950 . S
C407 C406 1.334 . S
C407 C408 1.287 . S
C408 C407 1.287 . S
C408 C409 1.524 . S
C408 H411 0.999 . S
C409 H379 0.950 . S
C409 C408 1.524 . S
C409 C410 1.415 . S
C410 H380 0.950 . S
C410 C405 1.363 . S
C410 C409 1.415 . S
H411 C408 0.999 . S
H412 C393 0.913 . S
H413 C431 0.951 . S
H414 C433 0.951 . S
H415 C435 0.950 . S
H416 C436 0.950 . S
H417 C438 0.950 . S
H418 C441 0.950 . S
H419 C442 0.950 . S
H420 C444 0.950 . S
H421 C445 0.950 . S
H422 C446 0.951 . S
H423 C448 0.951 . S
H424 C450 0.950 . S
H425 C451 0.950 . S
H426 C453 0.950 . S
H427 C456 0.950 . S
H428 C457 0.950 . S
H429 C459 0.950 . S
H430 C460 0.950 . S
C431 H413 0.951 . S
C431 C432 1.366 . S
C431 C433 1.388 . S
C432 C431 1.366 . S
C432 C436 1.385 . S
C433 H414 0.951 . S
C433 C431 1.388 . S
C433 C434 1.366 . S
C434 C433 1.366 . S
C434 C435 1.414 . S
C434 C437 1.499 . S
C435 H415 0.950 . S
C435 C434 1.414 . S
C435 C436 1.374 . S
C436 H416 0.950 . S
C436 C432 1.385 . S
C436 C435 1.374 . S
C437 C434 1.499 . S
C437 C438 1.373 . S
C437 C439 1.389 . S
C438 H417 0.950 . S
C438 C437 1.373 . S
C438 C454 1.377 . S
C439 C437 1.389 . S
C439 C440 1.524 . S
C439 C453 1.377 . S
C440 C439 1.524 . S
C440 C441 1.397 . S
C440 C445 1.363 . S
C441 H418 0.950 . S
C441 C440 1.397 . S
C441 C442 1.334 . S
C442 H419 0.950 . S
C442 C441 1.334 . S
C442 C443 1.287 . S
C443 C442 1.287 . S
C443 C444 1.524 . S
C443 H462 0.913 . S
C444 H420 0.950 . S
C444 C443 1.524 . S
C444 C445 1.415 . S
C445 H421 0.950 . S
C445 C440 1.363 . S
C445 C444 1.415 . S
C446 H422 0.951 . S
C446 C447 1.366 . S
C446 C448 1.388 . S
C447 C446 1.366 . S
C447 C451 1.385 . S
C448 H423 0.951 . S
C448 C446 1.388 . S
C448 C449 1.366 . S
C449 C448 1.366 . S
C449 C450 1.414 . S
C449 C452 1.499 . S
C450 H424 0.950 . S
C450 C449 1.414 . S
C450 C451 1.374 . S
C451 H425 0.950 . S
C451 C447 1.385 . S
C451 C450 1.374 . S
C452 C449 1.499 . S
C452 C453 1.373 . S
C452 C454 1.389 . S
C453 H426 0.950 . S
C453 C439 1.377 . S
C453 C452 1.373 . S
C454 C438 1.377 . S
C454 C452 1.389 . S
C454 C455 1.524 . S
C455 C454 1.524 . S
C455 C456 1.397 . S
C455 C460 1.363 . S
C456 H427 0.950 . S
C456 C455 1.397 . S
C456 C457 1.334 . S
C457 H428 0.950 . S
C457 C456 1.334 . S
C457 C458 1.287 . S
C458 C457 1.287 . S
C458 C459 1.524 . S
C458 H461 0.999 . S
C459 H429 0.950 . S
C459 C458 1.524 . S
C459 C460 1.415 . S
C460 H430 0.950 . S
C460 C455 1.363 . S
C460 C459 1.415 . S
H461 C458 0.999 . S
H462 C443 0.913 . S
C82 C10 1.079 . S
C97 C54 1.088 . S
C132 C0 1.564 . S
C147 C58 1.565 . S
C182 C18 1.468 . S
C197 C48 1.495 . S
C232 C27 1.646 . S
C247 C53 1.634 . S
C282 C24 1.565 . S
C297 C39 1.569 . S
C347 C55 1.494 . S
C332 C11 1.468 . S
C382 C1 1.646 . S
C397 C61 1.636 . S
C447 C62 1.091 . S
C432 C2 1.083 . S
