# Generated by pormake.
# Topology zzz, (3,6)-cn, num edge types: 1
# Building blocks:
#     Node 0, Type 0, BuildingBlock: OLANEW_clean_sbu_2, # of connection points: 3
#     Node 1, Type 0, BuildingBlock: OLANEW_clean_sbu_2, # of connection points: 3
#     Node 2, Type 0, BuildingBlock: OLANEW_clean_sbu_2, # of connection points: 3
#     Node 3, Type 0, BuildingBlock: OLANEW_clean_sbu_2, # of connection points: 3
#     Node 4, Type 0, BuildingBlock: OLANEW_clean_sbu_2, # of connection points: 3
#     Node 5, Type 0, BuildingBlock: OLANEW_clean_sbu_2, # of connection points: 3
#     Node 6, Type 0, BuildingBlock: OLANEW_clean_sbu_2, # of connection points: 3
#     Node 7, Type 0, BuildingBlock: OLANEW_clean_sbu_2, # of connection points: 3
#     Node 8, Type 1, BuildingBlock: BETFAJ_clean_sbu_0, # of connection points: 6
#     Node 9, Type 1, BuildingBlock: BETFAJ_clean_sbu_0, # of connection points: 6
#     Node 10, Type 1, BuildingBlock: BETFAJ_clean_sbu_0, # of connection points: 6
#     Node 11, Type 1, BuildingBlock: BETFAJ_clean_sbu_0, # of connection points: 6
#     Edge 12, Type (0, 1), BuildingBlock: XUDNAN_clean_linker_2, # of connection points: 2
#     Edge 13, Type (0, 1), BuildingBlock: XUDNAN_clean_linker_2, # of connection points: 2
#     Edge 14, Type (0, 1), BuildingBlock: XUDNAN_clean_linker_2, # of connection points: 2
#     Edge 15, Type (0, 1), BuildingBlock: XUDNAN_clean_linker_2, # of connection points: 2
#     Edge 16, Type (0, 1), BuildingBlock: XUDNAN_clean_linker_2, # of connection points: 2
#     Edge 17, Type (0, 1), BuildingBlock: XUDNAN_clean_linker_2, # of connection points: 2
#     Edge 18, Type (0, 1), BuildingBlock: XUDNAN_clean_linker_2, # of connection points: 2
#     Edge 19, Type (0, 1), BuildingBlock: XUDNAN_clean_linker_2, # of connection points: 2
#     Edge 20, Type (0, 1), BuildingBlock: XUDNAN_clean_linker_2, # of connection points: 2
#     Edge 21, Type (0, 1), BuildingBlock: XUDNAN_clean_linker_2, # of connection points: 2
#     Edge 22, Type (0, 1), BuildingBlock: XUDNAN_clean_linker_2, # of connection points: 2
#     Edge 23, Type (0, 1), BuildingBlock: XUDNAN_clean_linker_2, # of connection points: 2
#     Edge 24, Type (0, 1), BuildingBlock: XUDNAN_clean_linker_2, # of connection points: 2
#     Edge 25, Type (0, 1), BuildingBlock: XUDNAN_clean_linker_2, # of connection points: 2
#     Edge 26, Type (0, 1), BuildingBlock: XUDNAN_clean_linker_2, # of connection points: 2
#     Edge 27, Type (0, 1), BuildingBlock: XUDNAN_clean_linker_2, # of connection points: 2
#     Edge 28, Type (0, 1), BuildingBlock: XUDNAN_clean_linker_2, # of connection points: 2
#     Edge 29, Type (0, 1), BuildingBlock: XUDNAN_clean_linker_2, # of connection points: 2
#     Edge 30, Type (0, 1), BuildingBlock: XUDNAN_clean_linker_2, # of connection points: 2
#     Edge 31, Type (0, 1), BuildingBlock: XUDNAN_clean_linker_2, # of connection points: 2
#     Edge 32, Type (0, 1), BuildingBlock: XUDNAN_clean_linker_2, # of connection points: 2
#     Edge 33, Type (0, 1), BuildingBlock: XUDNAN_clean_linker_2, # of connection points: 2
#     Edge 34, Type (0, 1), BuildingBlock: XUDNAN_clean_linker_2, # of connection points: 2
#     Edge 35, Type (0, 1), BuildingBlock: XUDNAN_clean_linker_2, # of connection points: 2
# Relax obj value: 0.252
# Max RMSD: 0.191
# Mean RMSD: 0.173
data_MOF--net-zzz--node1-OLANEW_clean_sbu_2--node2-BETFAJ_clean_sbu_0--edge1-XUDNAN_clean_linker_2
_symmetry_space_group_name_H-M    P1
_symmetry_Int_Tables_number       1
_symmetry_cell_setting            triclinic
loop_
_symmetry_equiv_pos_as_xyz
'x, y, z'
_cell_length_a     56.646143
_cell_length_b     56.55321
_cell_length_c     15.089337
_cell_angle_alpha  89.828849
_cell_angle_beta   89.908081
_cell_angle_gamma 90.000503
loop_
_atom_site_label
_atom_site_type_symbol
_atom_site_fract_x
_atom_site_fract_y
_atom_site_fract_z
_atom_type_partial_charge
O0 O 0.72417 0.44128 0.20331 0.0
Cd1 Cd 0.6891 0.43061 0.28866 0.0
O2 O 0.7379 0.45813 0.32289 0.0
Cd3 Cd 0.76307 0.47924 0.39716 0.0
O4 O 0.79325 0.49652 0.45712 0.0
C5 C 0.80243 0.51429 0.41871 0.0
O6 O 0.79259 0.5225 0.34606 0.0
C7 C 0.74049 0.45267 0.24177 0.0
C8 C 0.64892 0.44798 0.20517 0.0
O9 O 0.65965 0.46027 0.2639 0.0
O10 O 0.65704 0.42739 0.18713 0.0
O11 O 0.90769 0.73041 0.14908 0.0
Cd12 Cd 0.88622 0.69361 0.17604 0.0
O13 O 0.92778 0.72321 0.27026 0.0
Cd14 Cd 0.95305 0.73411 0.37122 0.0
O15 O 0.97605 0.76217 0.41805 0.0
C16 C 0.97061 0.77456 0.48505 0.0
O17 O 0.95177 0.76896 0.53147 0.0
C18 C 0.92391 0.73621 0.20278 0.0
C19 C 0.91244 0.6556 0.11199 0.0
O20 O 0.89798 0.66687 0.06211 0.0
O21 O 0.91426 0.66206 0.19304 0.0
O22 O 0.77552 0.93779 0.19782 0.0
Cd23 Cd 0.81206 0.9192 0.25017 0.0
O24 O 0.78118 0.96712 0.29048 0.0
Cd25 Cd 0.76581 0.99761 0.3568 0.0
O26 O 0.72983 0.00861 0.38435 0.0
C27 C 0.71981 0.00212 0.4557 0.0
O28 O 0.73223 0.99098 0.51629 0.0
C29 C 0.76877 0.95729 0.23083 0.0
C30 C 0.84828 0.92174 0.12485 0.0
O31 O 0.83353 0.90455 0.12497 0.0
O32 O 0.84594 0.93774 0.18424 0.0
O33 O 0.5132 0.75303 0.28923 0.0
Cd34 Cd 0.52191 0.79523 0.31262 0.0
O35 O 0.5025 0.75106 0.42875 0.0
Cd36 Cd 0.48812 0.73415 0.54878 0.0
O37 O 0.47381 0.73276 0.68358 0.0
C38 C 0.47019 0.71567 0.737 0.0
O39 O 0.46261 0.72059 0.81721 0.0
C40 C 0.5062 0.74079 0.35514 0.0
C41 C 0.52346 0.82447 0.16246 0.0
O42 O 0.54096 0.81121 0.18327 0.0
O43 O 0.50492 0.82352 0.21117 0.0
O44 O 0.28815 0.59358 0.15904 0.0
Cd45 Cd 0.3286 0.59096 0.10435 0.0
O46 O 0.28272 0.5571 0.11494 0.0
Cd47 Cd 0.26018 0.52686 0.08466 0.0
O48 O 0.22825 0.5077 0.04942 0.0
C49 C 0.21822 0.51329 0.97715 0.0
O50 O 0.22832 0.52908 0.92547 0.0
C51 C 0.27481 0.57562 0.15242 0.0
C52 C 0.35496 0.56487 0.22534 0.0
O53 O 0.35308 0.58737 0.23223 0.0
O54 O 0.34481 0.55475 0.15976 0.0
O55 O 0.05281 0.26034 0.19649 0.0
Cd56 Cd 0.07397 0.29597 0.15002 0.0
O57 O 0.05852 0.24442 0.06586 0.0
Cd58 Cd 0.05433 0.21874 0.95799 0.0
O59 O 0.0544 0.21726 0.8123 0.0
C60 C 0.04942 0.20238 0.75186 0.0
O61 O 0.0522 0.2091 0.66904 0.0
C62 C 0.05038 0.24294 0.14423 0.0
C63 C 0.05776 0.33634 0.23668 0.0
O64 O 0.04979 0.33066 0.16018 0.0
O65 O 0.07334 0.32292 0.27221 0.0
O66 O 0.24701 0.10074 0.31811 0.0
Cd67 Cd 0.20657 0.11503 0.29843 0.0
O68 O 0.25278 0.10326 0.17413 0.0
Cd69 Cd 0.27665 0.09533 0.06386 0.0
O70 O 0.30769 0.0789 0.00363 0.0
C71 C 0.30503 0.06012 0.95878 0.0
O72 O 0.28363 0.05178 0.9469 0.0
C73 C 0.26052 0.09863 0.2513 0.0
C74 C 0.17244 0.08376 0.36288 0.0
O75 O 0.17987 0.08247 0.28275 0.0
O76 O 0.1813 0.09974 0.41289 0.0
O77 O 0.42181 0.24342 0.2287 0.0
Cd78 Cd 0.41026 0.20156 0.2181 0.0
O79 O 0.45025 0.24059 0.12985 0.0
Cd80 Cd 0.47673 0.25665 0.04252 0.0
O81 O 0.50486 0.25968 0.94346 0.0
C82 C 0.51068 0.27665 0.8923 0.0
O83 O 0.52769 0.27307 0.83459 0.0
C84 C 0.43804 0.25301 0.18269 0.0
C85 C 0.43736 0.16739 0.30602 0.0
O86 O 0.44209 0.17375 0.22629 0.0
O87 O 0.42031 0.17785 0.34584 0.0
Sm88 Sm 0.01328 0.97853 0.78372 0.0
Sm89 Sm 0.00132 0.99181 0.58931 0.0
C90 C 0.01337 0.95852 0.94239 0.0
C91 C 0.00507 0.93579 0.97813 0.0
C92 C 0.98929 0.92168 0.92985 0.0
C93 C 0.98244 0.89952 0.96234 0.0
C94 C 0.99135 0.89108 0.04354 0.0
C95 C 0.00676 0.90557 0.09236 0.0
C96 C 0.01357 0.92772 0.05982 0.0
C97 C 0.0508 0.99369 0.68312 0.0
C98 C 0.01044 0.93742 0.6274 0.0
C99 C 0.99752 0.01251 0.43312 0.0
C100 C 0.00138 0.03697 0.40217 0.0
C101 C 0.02296 0.04864 0.41669 0.0
C102 C 0.02561 0.07241 0.39313 0.0
C103 C 0.00665 0.08501 0.35604 0.0
C104 C 0.98519 0.07326 0.34085 0.0
C105 C 0.98264 0.04942 0.36327 0.0
C106 C 0.96464 0.97415 0.68803 0.0
C107 C 0.00873 0.03376 0.74083 0.0
O108 O 0.99694 0.97317 0.91581 0.0
O109 O 0.03135 0.95743 0.88789 0.0
O110 O 0.0344 0.98036 0.65785 0.0
O111 O 0.04888 0.99836 0.76721 0.0
O112 O 0.00687 0.9428 0.71181 0.0
O113 O 0.01266 0.95383 0.56566 0.0
O114 O 0.0162 0.00041 0.45701 0.0
O115 O 0.97956 0.00954 0.4867 0.0
O116 O 0.97986 0.98876 0.7146 0.0
O117 O 0.96758 0.9694 0.60457 0.0
O118 O 0.00948 0.02746 0.65658 0.0
O119 O 0.00701 0.01804 0.80538 0.0
H120 H 0.98254 0.92765 0.86648 0.0
H121 H 0.97072 0.88875 0.92267 0.0
H122 H 0.01362 0.89978 0.15576 0.0
H123 H 0.02569 0.93843 0.09802 0.0
H124 H 0.03767 0.0396 0.44765 0.0
H125 H 0.0423 0.08109 0.40581 0.0
H126 H 0.9704 0.0825 0.31134 0.0
H127 H 0.96584 0.04081 0.35178 0.0
Sm128 Sm 0.5146 0.00149 0.78099 0.0
Sm129 Sm 0.49591 0.98487 0.59956 0.0
C130 C 0.53785 0.00424 0.93291 0.0
C131 C 0.5625 0.00285 0.96419 0.0
C132 C 0.56759 0.99064 0.04296 0.0
C133 C 0.59082 0.98905 0.07389 0.0
C134 C 0.6094 0.9998 0.02682 0.0
C135 C 0.60425 0.01195 0.94764 0.0
C136 C 0.58105 0.01334 0.91629 0.0
C137 C 0.50088 0.03702 0.66774 0.0
C138 C 0.55191 0.99228 0.6131 0.0
C139 C 0.47259 0.98077 0.4486 0.0
C140 C 0.45038 0.99101 0.41582 0.0
C141 C 0.44853 0.99815 0.32707 0.0
C142 C 0.42869 0.0107 0.29813 0.0
C143 C 0.41043 0.01639 0.35776 0.0
C144 C 0.41209 0.00858 0.44605 0.0
C145 C 0.43187 0.99604 0.4747 0.0
C146 C 0.51065 0.94936 0.71042 0.0
C147 C 0.45859 1.00017 0.75917 0.0
O148 O 0.52865 0.98456 0.9033 0.0
O149 O 0.53198 0.02276 0.88555 0.0
O150 O 0.51201 0.0186 0.64718 0.0
O151 O 0.49767 0.03821 0.75308 0.0
O152 O 0.54894 0.99413 0.70004 0.0
O153 O 0.53395 0.99048 0.55828 0.0
O154 O 0.48962 0.99603 0.46052 0.0
O155 O 0.47094 0.96532 0.51315 0.0
O156 O 0.49881 0.96722 0.73343 0.0
O157 O 0.5141 0.9491 0.62523 0.0
O158 O 0.46284 0.99829 0.67335 0.0
O159 O 0.47556 0.9993 0.81883 0.0
H160 H 0.55354 0.98235 0.08073 0.0
H161 H 0.59419 0.97972 0.13538 0.0
H162 H 0.61821 0.02017 0.90937 0.0
H163 H 0.57765 0.02259 0.85466 0.0
H164 H 0.46272 0.99458 0.28077 0.0
H165 H 0.42779 0.01621 0.22941 0.0
H166 H 0.39853 0.01293 0.49402 0.0
H167 H 0.43299 0.9909 0.54356 0.0
Sm168 Sm 0.47093 0.50062 0.86984 0.0
Sm169 Sm 0.48386 0.48614 0.67717 0.0
C170 C 0.46846 0.51051 0.0406 0.0
C171 C 0.47047 0.53253 0.09235 0.0
C172 C 0.4876 0.53422 0.15902 0.0
C173 C 0.49126 0.55559 0.20325 0.0
C174 C 0.47772 0.5757 0.18215 0.0
C175 C 0.46011 0.57373 0.1169 0.0
C176 C 0.45662 0.55244 0.07213 0.0
C177 C 0.43462 0.50116 0.74979 0.0
C178 C 0.48168 0.54289 0.7323 0.0
C179 C 0.4866 0.47734 0.50515 0.0
C180 C 0.48425 0.45592 0.45109 0.0
C181 C 0.47784 0.45776 0.36169 0.0
C182 C 0.47349 0.43737 0.31199 0.0
C183 C 0.47552 0.41484 0.35109 0.0
C184 C 0.48256 0.41312 0.44026 0.0
C185 C 0.48679 0.43349 0.48989 0.0
C186 C 0.52041 0.48621 0.7957 0.0
C187 C 0.47311 0.44389 0.81614 0.0
O188 O 0.48789 0.50333 0.00203 0.0
O189 O 0.44978 0.50819 0.99032 0.0
O190 O 0.45038 0.48552 0.75573 0.0
O191 O 0.43693 0.51677 0.81217 0.0
O192 O 0.48229 0.53666 0.81665 0.0
O193 O 0.48008 0.52703 0.66809 0.0
O194 O 0.46723 0.4844 0.5442 0.0
O195 O 0.50508 0.47838 0.55689 0.0
O196 O 0.50443 0.50164 0.79074 0.0
O197 O 0.51828 0.47058 0.73338 0.0
O198 O 0.47331 0.44974 0.73122 0.0
O199 O 0.4741 0.45993 0.87973 0.0
H200 H 0.49861 0.51915 0.17527 0.0
H201 H 0.50522 0.55648 0.25206 0.0
H202 H 0.44906 0.58869 0.09988 0.0
H203 H 0.44333 0.55173 0.02067 0.0
H204 H 0.47569 0.47496 0.33089 0.0
H205 H 0.46825 0.43924 0.24333 0.0
H206 H 0.48389 0.39607 0.47278 0.0
H207 H 0.49148 0.43174 0.5592 0.0
Sm208 Sm 0.99824 0.49241 0.78006 0.0
Sm209 Sm 0.02101 0.51727 0.61904 0.0
C210 C 0.97201 0.47981 0.91793 0.0
C211 C 0.94691 0.47987 0.94315 0.0
C212 C 0.9314 0.49736 0.91179 0.0
C213 C 0.9075 0.49675 0.93523 0.0
C214 C 0.89865 0.47856 0.98982 0.0
C215 C 0.91433 0.46114 0.02111 0.0
C216 C 0.93822 0.46183 0.99801 0.0
C217 C 0.01182 0.4633 0.64408 0.0
C218 C 0.96479 0.51519 0.622 0.0
C219 C 0.0466 0.52823 0.47788 0.0
C220 C 0.07075 0.53576 0.45396 0.0
C221 C 0.08373 0.52235 0.39286 0.0
C222 C 0.10607 0.52981 0.36503 0.0
C223 C 0.11578 0.55098 0.39725 0.0
C224 C 0.10296 0.56418 0.45974 0.0
C225 C 0.08069 0.55661 0.48811 0.0
C226 C 0.00654 0.54688 0.75158 0.0
C227 C 0.05488 0.49656 0.78204 0.0
O228 O 0.98241 0.5004 0.91116 0.0
O229 O 0.978 0.46519 0.85482 0.0
O230 O 0.00169 0.48298 0.63535 0.0
O231 O 0.01451 0.4578 0.72712 0.0
O232 O 0.96667 0.50965 0.70695 0.0
O233 O 0.98323 0.51532 0.56861 0.0
O234 O 0.04402 0.5065 0.50657 0.0
O235 O 0.03328 0.54347 0.51988 0.0
O236 O 0.01664 0.52724 0.76265 0.0
O237 O 0.0055 0.55244 0.66811 0.0
O238 O 0.05326 0.50436 0.69946 0.0
O239 O 0.03608 0.49254 0.83164 0.0
H240 H 0.93774 0.51145 0.86914 0.0
H241 H 0.896 0.51064 0.91128 0.0
H242 H 0.90807 0.4467 0.06217 0.0
H243 H 0.9499 0.44811 0.02238 0.0
H244 H 0.0764 0.50627 0.36538 0.0
H245 H 0.11544 0.51938 0.31621 0.0
H246 H 0.11013 0.58041 0.48647 0.0
H247 H 0.07116 0.56727 0.53579 0.0
H248 H 0.15269 0.08239 0.52929 0.0
H249 H 0.15034 0.04831 0.27191 0.0
H250 H 0.11924 0.02139 0.32662 0.0
H251 H 0.14403 0.03 0.66129 0.0
H252 H 0.12561 0.04457 0.74195 0.0
H253 H 0.14777 0.06113 0.68267 0.0
H254 H 0.11577 0.09065 0.63001 0.0
H255 H 0.0933 0.07411 0.68776 0.0
H256 H 0.09044 0.07977 0.5706 0.0
H257 H 0.0882 0.99846 0.4085 0.0
H258 H 0.05948 0.98081 0.5127 0.0
H259 H 0.08196 0.02967 0.71698 0.0
C260 C 0.14571 0.06921 0.48444 0.0
C261 C 0.154 0.06743 0.39628 0.0
C262 C 0.14431 0.05001 0.3397 0.0
C263 C 0.12663 0.03463 0.37017 0.0
C264 C 0.11885 0.03688 0.45736 0.0
C265 C 0.12807 0.0537 0.51376 0.0
C266 C 0.11643 0.05254 0.60417 0.0
C267 C 0.13454 0.04671 0.67679 0.0
C268 C 0.1032 0.07565 0.62437 0.0
C269 C 0.09939 0.03228 0.59008 0.0
C270 C 0.101 0.02358 0.50476 0.0
C271 C 0.08682 0.00508 0.47552 0.0
C272 C 0.07055 0.99521 0.53508 0.0
C273 C 0.06861 0.00386 0.62275 0.0
C274 C 0.08326 0.02259 0.65053 0.0
H275 H 0.43248 0.1502 0.47647 0.0
H276 H 0.47161 0.13976 0.23191 0.0
H277 H 0.49189 0.10553 0.29863 0.0
H278 H 0.48025 0.13481 0.62556 0.0
H279 H 0.46131 0.11989 0.7039 0.0
H280 H 0.44987 0.14378 0.63743 0.0
H281 H 0.41665 0.11634 0.57978 0.0
H282 H 0.42806 0.09236 0.64586 0.0
H283 H 0.42434 0.08869 0.5281 0.0
H284 H 0.50664 0.07154 0.38818 0.0
H285 H 0.51703 0.04121 0.49915 0.0
H286 H 0.46968 0.074 0.68883 0.0
C287 C 0.44545 0.14082 0.43716 0.0
C288 C 0.45047 0.14773 0.34883 0.0
C289 C 0.4675 0.13491 0.29967 0.0
C290 C 0.47908 0.11537 0.33691 0.0
C291 C 0.47356 0.10891 0.42363 0.0
C292 C 0.4573 0.12131 0.47354 0.0
C293 C 0.45472 0.11055 0.5654 0.0
C294 C 0.46198 0.12832 0.63731 0.0
C295 C 0.42944 0.10145 0.58064 0.0
C296 C 0.47215 0.09026 0.55928 0.0
C297 C 0.48261 0.08955 0.47649 0.0
C298 C 0.49874 0.07203 0.45348 0.0
C299 C 0.50448 0.05486 0.51692 0.0
C300 C 0.49432 0.05543 0.6027 0.0
C301 C 0.47793 0.07336 0.62408 0.0
H302 H 0.37469 0.58105 0.3791 0.0
H303 H 0.36346 0.51714 0.22608 0.0
H304 H 0.38239 0.49362 0.34454 0.0
H305 H 0.43187 0.56443 0.47135 0.0
H306 H 0.42547 0.57814 0.57637 0.0
H307 H 0.41239 0.58959 0.47646 0.0
H308 H 0.37095 0.58482 0.54859 0.0
H309 H 0.38414 0.57279 0.64739 0.0
H310 H 0.3619 0.55619 0.58914 0.0
H311 H 0.40193 0.47702 0.48157 0.0
H312 H 0.42136 0.46889 0.62553 0.0
H313 H 0.41858 0.54358 0.68894 0.0
C314 C 0.37641 0.56213 0.36995 0.0
C315 C 0.36762 0.55092 0.29328 0.0
C316 C 0.37008 0.52611 0.28423 0.0
C317 C 0.38079 0.5126 0.35117 0.0
C318 C 0.3889 0.52419 0.42658 0.0
C319 C 0.38694 0.54841 0.43608 0.0
C320 C 0.3966 0.55653 0.52432 0.0
C321 C 0.41785 0.57314 0.51127 0.0
C322 C 0.37723 0.56827 0.58066 0.0
C323 C 0.40409 0.53307 0.56342 0.0
C324 C 0.39964 0.51461 0.50593 0.0
C325 C 0.40543 0.49132 0.5272 0.0
C326 C 0.41634 0.48685 0.60897 0.0
C327 C 0.42119 0.50558 0.66812 0.0
C328 C 0.41473 0.52889 0.64537 0.0
H329 H 0.06357 0.34792 0.41152 0.0
H330 H 0.03259 0.37311 0.16582 0.0
H331 H 0.01852 0.40901 0.2425 0.0
H332 H 0.01671 0.36758 0.55263 0.0
H333 H 0.03597 0.3756 0.64261 0.0
H334 H 0.04441 0.3524 0.56751 0.0
H335 H 0.08353 0.3744 0.53315 0.0
H336 H 0.07519 0.3977 0.60807 0.0
H337 H 0.08256 0.40459 0.49466 0.0
H338 H 0.00812 0.44229 0.34579 0.0
H339 H 2e-05 0.46941 0.47038 0.0
H340 H 0.03641 0.42169 0.64965 0.0
C341 C 0.05394 0.36104 0.37369 0.0
C342 C 0.04927 0.3578 0.28258 0.0
C343 C 0.03636 0.37524 0.23568 0.0
C344 C 0.02836 0.39572 0.27857 0.0
C345 C 0.03327 0.39836 0.36847 0.0
C346 C 0.0456 0.38143 0.41566 0.0
C347 C 0.04779 0.38815 0.51239 0.0
C348 C 0.03548 0.36985 0.5723 0.0
C349 C 0.07382 0.39141 0.53857 0.0
C350 C 0.03474 0.41149 0.51231 0.0
C351 C 0.02668 0.41718 0.42847 0.0
C352 C 0.01427 0.43799 0.41176 0.0
C353 C 0.00978 0.45327 0.48282 0.0
C354 C 0.01749 0.44753 0.56946 0.0
C355 C 0.03022 0.42644 0.58409 0.0
H356 H 0.8843 0.95412 0.11437 0.0
H357 H 0.85423 0.89347 0.97967 0.0
H358 H 0.8832 0.89835 0.8587 0.0
H359 H 0.89353 0.98923 0.9305 0.0
H360 H 0.92141 0.0014 0.96534 0.0
H361 H 0.90041 0.99148 0.04682 0.0
H362 H 0.93188 0.96352 0.11476 0.0
H363 H 0.95308 0.97342 0.03349 0.0
H364 H 0.94666 0.94235 0.04488 0.0
H365 H 0.91236 0.91233 0.74523 0.0
H366 H 0.94052 0.93386 0.64927 0.0
H367 H 0.95191 0.98515 0.85798 0.0
C368 C 0.88405 0.94163 0.06016 0.0
C369 C 0.86694 0.92346 0.05634 0.0
C370 C 0.86717 0.90752 0.98411 0.0
C371 C 0.8836 0.9101 0.91515 0.0
C372 C 0.89989 0.9285 0.92001 0.0
C373 C 0.90046 0.94383 0.99116 0.0
C374 C 0.91898 0.96286 0.97802 0.0
C375 C 0.90791 0.9877 0.98027 0.0
C376 C 0.93882 0.96038 0.04688 0.0
C377 C 0.92776 0.95665 0.88622 0.0
C378 C 0.91684 0.93651 0.85461 0.0
C379 C 0.92122 0.92795 0.76967 0.0
C380 C 0.93708 0.94039 0.71546 0.0
C381 C 0.94828 0.96115 0.74641 0.0
C382 C 0.94372 0.9692 0.83313 0.0
H383 H 0.49783 0.86496 0.13365 0.0
H384 H 0.55272 0.82108 0.019 0.0
H385 H 0.5558 0.84861 0.89193 0.0
H386 H 0.4694 0.88204 0.93101 0.0
H387 H 0.46377 0.91196 0.966 0.0
H388 H 0.46559 0.88859 0.04702 0.0
H389 H 0.49825 0.91168 0.13018 0.0
H390 H 0.49657 0.93508 0.04916 0.0
H391 H 0.52441 0.92082 0.0711 0.0
H392 H 0.55191 0.88012 0.77493 0.0
H393 H 0.54256 0.91444 0.67925 0.0
H394 H 0.49209 0.93927 0.87435 0.0
C395 C 0.51039 0.86108 0.08149 0.0
C396 C 0.52491 0.84077 0.08569 0.0
C397 C 0.5414 0.83651 0.01696 0.0
C398 C 0.54327 0.85203 0.94456 0.0
C399 C 0.52878 0.87195 0.94258 0.0
C400 C 0.5128 0.87665 0.00957 0.0
C401 C 0.49974 0.89962 0.9924 0.0
C402 C 0.47304 0.89528 0.98356 0.0
C403 C 0.50507 0.91787 0.06504 0.0
C404 C 0.5106 0.9069 0.90462 0.0
C405 C 0.52724 0.89063 0.8769 0.0
C406 C 0.53906 0.89307 0.79629 0.0
C407 C 0.53362 0.91257 0.74239 0.0
C408 C 0.51673 0.92949 0.76974 0.0
C409 C 0.50526 0.9267 0.8523 0.0
H410 H 0.62447 0.42711 0.07027 0.0
H411 H 0.62672 0.49051 0.23158 0.0
H412 H 0.59321 0.50701 0.14673 0.0
H413 H 0.61243 0.45563 0.8667 0.0
H414 H 0.59301 0.43282 0.82648 0.0
H415 H 0.61619 0.42548 0.9032 0.0
H416 H 0.58547 0.40698 0.01054 0.0
H417 H 0.56219 0.41417 0.93385 0.0
H418 H 0.56063 0.42441 0.0467 0.0
H419 H 0.56016 0.51706 0.04041 0.0
H420 H 0.53033 0.51969 0.92088 0.0
H421 H 0.55047 0.44986 0.82977 0.0
C422 C 0.61781 0.44436 0.08843 0.0
C423 C 0.62818 0.4575 0.15764 0.0
C424 C 0.61901 0.4801 0.17881 0.0
C425 C 0.59999 0.48963 0.13111 0.0
C426 C 0.59035 0.47629 0.06258 0.0
C427 C 0.59893 0.45412 0.0415 0.0
C428 C 0.58598 0.44365 0.96331 0.0
C429 C 0.60291 0.43914 0.88533 0.0
C430 C 0.57278 0.42096 0.99024 0.0
C431 C 0.56898 0.46352 0.94286 0.0
C432 C 0.57162 0.48214 0.00113 0.0
C433 C 0.5579 0.50255 0.99461 0.0
C434 C 0.54105 0.5039 0.92668 0.0
C435 C 0.5382 0.48498 0.86646 0.0
C436 C 0.55236 0.46461 0.87483 0.0
H437 H 0.91717 0.64269 0.93854 0.0
H438 H 0.9413 0.62513 0.20355 0.0
H439 H 0.96728 0.59415 0.14125 0.0
H440 H 0.9178 0.58271 0.85033 0.0
H441 H 0.92804 0.59226 0.74292 0.0
H442 H 0.91022 0.61173 0.80956 0.0
H443 H 0.94267 0.64399 0.79879 0.0
H444 H 0.96062 0.62459 0.73263 0.0
H445 H 0.97235 0.63705 0.83316 0.0
H446 H 0.99142 0.56555 0.04795 0.0
H447 H 0.01235 0.54283 0.93133 0.0
H448 H 0.9731 0.5807 0.72935 0.0
C449 C 0.92769 0.63216 0.98377 0.0
C450 C 0.92714 0.63625 0.07597 0.0
C451 C 0.94141 0.62226 0.13267 0.0
C452 C 0.95618 0.60461 0.09789 0.0
C453 C 0.95649 0.60124 0.00641 0.0
C454 C 0.9426 0.61466 0.95023 0.0
C455 C 0.94686 0.60835 0.85423 0.0
C456 C 0.92439 0.59816 0.8118 0.0
C457 C 0.95619 0.62977 0.80166 0.0
C458 C 0.96562 0.58958 0.86489 0.0
C459 C 0.97077 0.58544 0.95308 0.0
C460 C 0.98753 0.56868 0.97872 0.0
C461 C 0.99932 0.5559 0.91229 0.0
C462 C 0.99442 0.56022 0.82177 0.0
C463 C 0.97736 0.57724 0.79815 0.0
H464 H 0.06643 0.19778 0.1294 0.0
H465 H 0.00913 0.23984 0.2357 0.0
H466 H 0.99136 0.20384 0.30191 0.0
H467 H 0.03339 0.14358 0.08509 0.0
H468 H 0.05779 0.12526 0.11847 0.0
H469 H 0.06326 0.15426 0.07282 0.0
H470 H 0.08716 0.16365 0.21745 0.0
H471 H 0.07996 0.13507 0.26308 0.0
H472 H 0.07245 0.16151 0.32326 0.0
H473 H 0.9797 0.1631 0.35384 0.0
H474 H 0.97599 0.12088 0.39478 0.0
H475 H 0.04286 0.1062 0.26571 0.0
C476 C 0.04991 0.19923 0.16521 0.0
C477 C 0.03875 0.22131 0.17616 0.0
C478 C 0.01764 0.22289 0.22589 0.0
C479 C 0.00751 0.20261 0.26379 0.0
C480 C 0.01913 0.18108 0.25311 0.0
C481 C 0.03999 0.1793 0.20584 0.0
C482 C 0.04968 0.15436 0.20898 0.0
C483 C 0.05118 0.14375 0.11564 0.0
C484 C 0.07374 0.15362 0.256 0.0
C485 C 0.03076 0.14229 0.26359 0.0
C486 C 0.01322 0.15797 0.28798 0.0
C487 C 0.99338 0.15069 0.33547 0.0
C488 C 0.99136 0.12669 0.3579 0.0
C489 C 0.00917 0.11037 0.33355 0.0
C490 C 0.02917 0.11838 0.28636 0.0
H491 H 0.27634 0.06082 0.34814 0.0
H492 H 0.29976 0.11831 0.17895 0.0
H493 H 0.34069 0.10328 0.18621 0.0
H494 H 0.32837 0.05895 0.4894 0.0
H495 H 0.32822 0.02716 0.49851 0.0
H496 H 0.30093 0.04292 0.48219 0.0
H497 H 0.29232 0.01761 0.34294 0.0
H498 H 0.31966 0.0019 0.35848 0.0
H499 H 0.31377 0.01656 0.25462 0.0
H500 H 0.37873 0.08178 0.20979 0.0
H501 H 0.41183 0.05566 0.25123 0.0
H502 H 0.36359 0.01145 0.40227 0.0
C503 C 0.2902 0.07033 0.31367 0.0
C504 C 0.28504 0.09053 0.2622 0.0
C505 C 0.30346 0.10257 0.21756 0.0
C506 C 0.3267 0.09422 0.22152 0.0
C507 C 0.33119 0.0739 0.27094 0.0
C508 C 0.31352 0.06215 0.31661 0.0
C509 C 0.32308 0.04045 0.36339 0.0
C510 C 0.31997 0.04251 0.46436 0.0
C511 C 0.31152 0.01779 0.32769 0.0
C512 C 0.34885 0.04191 0.33702 0.0
C513 C 0.35314 0.06133 0.28372 0.0
C514 C 0.3756 0.06647 0.25136 0.0
C515 C 0.39425 0.05141 0.27463 0.0
C516 C 0.39031 0.03144 0.32962 0.0
C517 C 0.36722 0.02666 0.36065 0.0
H518 H 0.47621 0.27666 0.24772 0.0
H519 H 0.40733 0.28675 0.12943 0.0
H520 H 0.41188 0.33017 0.14259 0.0
H521 H 0.46879 0.32016 0.41047 0.0
H522 H 0.49904 0.33 0.4104 0.0
H523 H 0.4921 0.30014 0.37913 0.0
H524 H 0.51347 0.30618 0.22802 0.0
H525 H 0.52076 0.33593 0.2608 0.0
H526 H 0.50528 0.33081 0.15854 0.0
H527 H 0.42262 0.3719 0.1778 0.0
H528 H 0.4369 0.40893 0.24506 0.0
H529 H 0.4981 0.37179 0.34794 0.0
C530 C 0.46237 0.28815 0.22317 0.0
C531 C 0.44154 0.27869 0.18668 0.0
C532 C 0.42343 0.29394 0.15707 0.0
C533 C 0.42594 0.31852 0.16389 0.0
C534 C 0.44654 0.32743 0.20155 0.0
C535 C 0.46439 0.31274 0.23133 0.0
C536 C 0.48351 0.3267 0.27798 0.0
C537 C 0.48599 0.31878 0.37523 0.0
C538 C 0.50714 0.32479 0.22833 0.0
C539 C 0.47339 0.35144 0.2712 0.0
C540 C 0.45232 0.35152 0.2252 0.0
C541 C 0.4392 0.37211 0.21333 0.0
C542 C 0.44752 0.39309 0.2514 0.0
C543 C 0.46862 0.39326 0.30164 0.0
C544 C 0.48188 0.37219 0.31007 0.0
H545 H 0.24909 0.53989 0.22958 0.0
H546 H 0.24576 0.61403 0.15622 0.0
H547 H 0.20501 0.61619 0.21492 0.0
H548 H 0.1898 0.52514 0.17059 0.0
H549 H 0.18493 0.50532 0.26259 0.0
H550 H 0.21424 0.5092 0.21895 0.0
H551 H 0.23005 0.52131 0.37201 0.0
H552 H 0.20107 0.51693 0.41856 0.0
H553 H 0.21586 0.54491 0.43189 0.0
H554 H 0.16446 0.61005 0.27975 0.0
H555 H 0.12679 0.59589 0.34359 0.0
H556 H 0.15656 0.52561 0.37264 0.0
C557 C 0.2396 0.55642 0.22383 0.0
C558 C 0.25033 0.57666 0.18623 0.0
C559 C 0.23775 0.59828 0.18415 0.0
C560 C 0.21463 0.59967 0.21725 0.0
C561 C 0.20446 0.57932 0.25297 0.0
C562 C 0.21654 0.55811 0.2566 0.0
C563 C 0.20162 0.53887 0.29873 0.0
C564 C 0.19739 0.51843 0.23376 0.0
C565 C 0.21282 0.52999 0.38545 0.0
C566 C 0.1791 0.55245 0.31656 0.0
C567 C 0.18117 0.57581 0.29057 0.0
C568 C 0.16266 0.59181 0.30054 0.0
C569 C 0.14139 0.58364 0.33728 0.0
C570 C 0.13878 0.55967 0.36304 0.0
C571 C 0.15799 0.54398 0.35285 0.0
H572 H 0.90886 0.77824 0.13141 0.0
H573 H 0.97105 0.74249 0.23203 0.0
H574 H 0.99454 0.77871 0.20852 0.0
H575 H 0.93901 0.80976 0.95747 0.0
H576 H 0.92128 0.83607 0.96778 0.0
H577 H 0.90901 0.8077 0.99684 0.0
H578 H 0.89862 0.82343 0.1534 0.0
H579 H 0.91088 0.85183 0.12458 0.0
H580 H 0.92152 0.83621 0.22086 0.0
H581 H 0.01139 0.8185 0.17249 0.0
H582 H 0.02097 0.85875 0.12036 0.0
H583 H 0.94813 0.86866 0.039 0.0
C584 C 0.9274 0.77812 0.14882 0.0
C585 C 0.93796 0.75786 0.18688 0.0
C586 C 0.96235 0.75818 0.20707 0.0
C587 C 0.97591 0.77858 0.19284 0.0
C588 C 0.96488 0.79841 0.15691 0.0
C589 C 0.94123 0.79833 0.13447 0.0
C590 C 0.93393 0.82182 0.09423 0.0
C591 C 0.9253 0.81864 0.99839 0.0
C592 C 0.91512 0.83404 0.15172 0.0
C593 C 0.95719 0.83502 0.09711 0.0
C594 C 0.97477 0.82123 0.134 0.0
C595 C 0.99777 0.8295 0.14365 0.0
C596 C 0.00299 0.85246 0.11437 0.0
C597 C 0.98531 0.86694 0.07585 0.0
C598 C 0.9621 0.85799 0.06739 0.0
H599 H 0.7259 0.93571 0.20787 0.0
H600 H 0.76137 0.00341 0.18762 0.0
H601 H 0.7241 0.02209 0.13847 0.0
H602 H 0.68882 0.94179 0.01924 0.0
H603 H 0.66352 0.92786 0.06984 0.0
H604 H 0.69282 0.92003 0.10552 0.0
H605 H 0.68166 0.93062 0.26737 0.0
H606 H 0.65232 0.93857 0.23211 0.0
H607 H 0.67013 0.95959 0.29165 0.0
H608 H 0.68349 0.03292 0.0849 0.0
H609 H 0.64207 0.03544 0.03454 0.0
H610 H 0.63259 0.9609 0.09343 0.0
C611 C 0.72573 0.95446 0.19306 0.0
C612 C 0.74639 0.96822 0.20181 0.0
C613 C 0.7456 0.99269 0.18222 0.0
C614 C 0.72455 0.00341 0.15413 0.0
C615 C 0.70441 0.98941 0.14667 0.0
C616 C 0.70475 0.96552 0.16622 0.0
C617 C 0.6806 0.95453 0.15293 0.0
C618 C 0.6815 0.9349 0.08269 0.0
C619 C 0.67059 0.94529 0.24127 0.0
C620 C 0.66684 0.97581 0.12023 0.0
C621 C 0.68087 0.99578 0.11756 0.0
C622 C 0.6723 0.01742 0.08712 0.0
C623 C 0.6488 0.01865 0.05814 0.0
C624 C 0.63409 0.99838 0.05997 0.0
C625 C 0.64329 0.97676 0.09224 0.0
H626 H 0.49187 0.71632 0.20825 0.0
H627 H 0.51457 0.70693 0.48048 0.0
H628 H 0.50912 0.66385 0.46684 0.0
H629 H 0.4473 0.67096 0.20553 0.0
H630 H 0.45417 0.66123 0.09481 0.0
H631 H 0.45945 0.69148 0.12597 0.0
H632 H 0.5031 0.68746 0.07806 0.0
H633 H 0.49817 0.65711 0.04757 0.0
H634 H 0.52106 0.66435 0.12556 0.0
H635 H 0.49988 0.62198 0.42548 0.0
H636 H 0.49023 0.58377 0.35582 0.0
H637 H 0.47611 0.62016 0.10738 0.0
C638 C 0.49545 0.70517 0.26518 0.0
C639 C 0.5028 0.71501 0.34649 0.0
C640 C 0.50781 0.69988 0.41898 0.0
C641 C 0.50496 0.67536 0.41164 0.0
C642 C 0.49706 0.66625 0.3314 0.0
C643 C 0.49259 0.68064 0.25912 0.0
C644 C 0.48512 0.66624 0.17951 0.0
C645 C 0.46002 0.67287 0.14974 0.0
C646 C 0.50294 0.66897 0.10319 0.0
C647 C 0.48586 0.64156 0.21869 0.0
C648 C 0.49273 0.64197 0.30639 0.0
C649 C 0.49453 0.62137 0.35674 0.0
C650 C 0.4892 0.59973 0.31625 0.0
C651 C 0.48247 0.5988 0.2258 0.0
C652 C 0.48081 0.62014 0.17687 0.0
H653 H 0.78657 0.45227 0.29853 0.0
H654 H 0.74255 0.46752 0.07059 0.0
H655 H 0.77811 0.47739 0.98267 0.0
H656 H 0.83135 0.49732 0.26089 0.0
H657 H 0.85554 0.4786 0.29369 0.0
H658 H 0.82676 0.47401 0.34123 0.0
H659 H 0.82698 0.43053 0.2902 0.0
H660 H 0.8559 0.43468 0.24293 0.0
H661 H 0.83212 0.42383 0.17503 0.0
H662 H 0.81845 0.48474 0.91866 0.0
H663 H 0.86081 0.48746 0.88132 0.0
H664 H 0.87867 0.46679 0.15035 0.0
C665 C 0.78443 0.45823 0.23078 0.0
C666 C 0.76183 0.45962 0.19163 0.0
C667 C 0.75974 0.46654 0.10177 0.0
C668 C 0.7798 0.47222 0.05148 0.0
C669 C 0.80186 0.47057 0.09174 0.0
C670 C 0.80434 0.46361 0.17919 0.0
C671 C 0.83017 0.46175 0.20455 0.0
C672 C 0.8363 0.47896 0.27957 0.0
C673 C 0.83666 0.43618 0.22963 0.0
C674 C 0.84176 0.46909 0.11824 0.0
C675 C 0.82514 0.47414 0.05406 0.0
C676 C 0.83162 0.48098 0.9686 0.0
C677 C 0.85574 0.48263 0.94818 0.0
C678 C 0.87312 0.47745 0.01291 0.0
C679 C 0.86588 0.47068 0.09909 0.0
H680 H 0.04135 0.1674 0.63185 0.0
H681 H 0.03811 0.18195 0.91404 0.0
H682 H 0.02483 0.14088 0.94067 0.0
H683 H 0.99003 0.12862 0.62454 0.0
H684 H 0.00309 0.10915 0.54386 0.0
H685 H 0.0109 0.14005 0.54488 0.0
H686 H 0.0547 0.12899 0.55705 0.0
H687 H 0.04783 0.09793 0.5589 0.0
H688 H 0.06464 0.11081 0.64789 0.0
H689 H 0.01515 0.09717 0.93877 0.0
H690 H 0.00773 0.05503 0.90493 0.0
H691 H 0.01713 0.07002 0.62455 0.0
C692 C 0.03783 0.16212 0.69964 0.0
C693 C 0.04101 0.17802 0.77091 0.0
C694 C 0.03614 0.1702 0.8583 0.0
C695 C 0.02859 0.14689 0.87431 0.0
C696 C 0.02608 0.13163 0.80269 0.0
C697 C 0.03036 0.13903 0.71692 0.0
C698 C 0.02689 0.11912 0.65146 0.0
C699 C 0.00651 0.12458 0.58742 0.0
C700 C 0.04988 0.1139 0.60082 0.0
C701 C 0.02053 0.09918 0.71412 0.0
C702 C 0.01997 0.10672 0.80107 0.0
C703 C 0.01527 0.09114 0.87077 0.0
C704 C 0.0111 0.06723 0.85093 0.0
C705 C 0.0117 0.05916 0.76212 0.0
C706 C 0.01631 0.07553 0.69318 0.0
H707 H 0.35194 0.06643 1.00005 0.0
H708 H 0.30482 0.02523 0.83431 0.0
H709 H 0.33903 0.00404 0.7718 0.0
H710 H 0.39844 0.07291 0.84138 0.0
H711 H 0.42184 0.07004 0.92147 0.0
H712 H 0.39361 0.08166 0.95479 0.0
H713 H 0.39053 0.04953 0.07659 0.0
H714 H 0.41876 0.03774 0.04388 0.0
H715 H 0.39318 0.01879 0.04726 0.0
H716 H 0.378 0.98872 0.72195 0.0
H717 H 0.41971 0.97972 0.68894 0.0
H718 H 0.44197 0.02966 0.88965 0.0
C719 C 0.34883 0.05296 0.95056 0.0
C720 C 0.3257 0.04754 0.92174 0.0
C721 C 0.32236 0.02966 0.85745 0.0
C722 C 0.34167 0.01751 0.8216 0.0
C723 C 0.36421 0.02325 0.85142 0.0
C724 C 0.36793 0.04046 0.91463 0.0
C725 C 0.39404 0.0433 0.93428 0.0
C726 C 0.40247 0.06847 0.91159 0.0
C727 C 0.39945 0.03694 0.03126 0.0
C728 C 0.40441 0.02524 0.87121 0.0
C729 C 0.38682 0.0139 0.82412 0.0
C730 C 0.39192 0.99733 0.75883 0.0
C731 C 0.41562 0.99243 0.74023 0.0
C732 C 0.43393 0.00396 0.78688 0.0
C733 C 0.42825 0.02029 0.85423 0.0
H734 H 0.50761 0.3088 0.75864 0.0
H735 H 0.48861 0.29797 0.03442 0.0
H736 H 0.47322 0.33888 0.04101 0.0
H737 H 0.52876 0.36612 0.78144 0.0
H738 H 0.51779 0.3767 0.67647 0.0
H739 H 0.52465 0.34587 0.69067 0.0
H740 H 0.48221 0.33469 0.64235 0.0
H741 H 0.47528 0.36555 0.62778 0.0
H742 H 0.45732 0.34741 0.69953 0.0
H743 H 0.4647 0.38252 0.02246 0.0
H744 H 0.46161 0.42448 0.97743 0.0
H745 H 0.48528 0.40613 0.71273 0.0
C746 C 0.4998 0.31486 0.82009 0.0
C747 C 0.49902 0.30007 0.89569 0.0
C748 C 0.48887 0.30873 0.97504 0.0
C749 C 0.48023 0.33201 0.97959 0.0
C750 C 0.4817 0.34626 0.90411 0.0
C751 C 0.49098 0.33789 0.82551 0.0
C752 C 0.49176 0.35703 0.75513 0.0
C753 C 0.51725 0.3617 0.72418 0.0
C754 C 0.47568 0.35079 0.67657 0.0
C755 C 0.48205 0.3777 0.80705 0.0
C756 C 0.4763 0.37117 0.89282 0.0
C757 C 0.46871 0.38772 0.95498 0.0
C758 C 0.46709 0.41152 0.92886 0.0
C759 C 0.47293 0.41855 0.84124 0.0
C760 C 0.48019 0.40128 0.77957 0.0
H761 H 0.19204 0.52233 0.82871 0.0
H762 H 0.19025 0.48436 0.07915 0.0
H763 H 0.14869 0.47348 0.05179 0.0
H764 H 0.136 0.54686 0.84228 0.0
H765 H 0.12916 0.54397 0.72618 0.0
H766 H 0.15938 0.5467 0.76103 0.0
H767 H 0.16979 0.50761 0.68065 0.0
H768 H 0.13957 0.50487 0.64502 0.0
H769 H 0.15334 0.48114 0.70594 0.0
H770 H 0.10614 0.4705 0.00448 0.0
H771 H 0.06655 0.47384 0.93692 0.0
H772 H 0.09685 0.51275 0.71579 0.0
C773 C 0.18308 0.51135 0.87711 0.0
C774 C 0.19437 0.50429 0.95627 0.0
C775 C 0.18195 0.49002 0.01807 0.0
C776 C 0.15835 0.48372 0.00307 0.0
C777 C 0.14756 0.49151 0.92536 0.0
C778 C 0.15963 0.50475 0.86284 0.0
C779 C 0.14373 0.51186 0.7868 0.0
C780 C 0.14197 0.53895 0.77868 0.0
C781 C 0.15211 0.50069 0.69944 0.0
C782 C 0.12066 0.50115 0.81756 0.0
C783 C 0.12322 0.48939 0.89737 0.0
C784 C 0.104 0.47934 0.94129 0.0
C785 C 0.08157 0.48142 0.90262 0.0
C786 C 0.07861 0.49342 0.82085 0.0
C787 C 0.09853 0.50316 0.77771 0.0
H788 H 0.96527 0.80453 0.62656 0.0
H789 H 0.00392 0.7956 0.38003 0.0
H790 H 0.02124 0.83522 0.39767 0.0
H791 H 0.95007 0.86324 0.59507 0.0
H792 H 0.95359 0.87225 0.70877 0.0
H793 H 0.94638 0.84204 0.68352 0.0
H794 H 0.98306 0.82774 0.77087 0.0
H795 H 0.9903 0.85796 0.79686 0.0
H796 H 0.01179 0.83935 0.74309 0.0
H797 H 0.03009 0.87729 0.43052 0.0
H798 H 0.03188 0.91864 0.48205 0.0
H799 H 0.9889 0.90013 0.71029 0.0
C800 C 0.97781 0.81069 0.57742 0.0
C801 C 0.98331 0.79692 0.50214 0.0
C802 C -0.00041 0.80571 0.43869 0.0
C803 C 0.00953 0.82822 0.44807 0.0
C804 C 0.00331 0.84156 0.52189 0.0
C805 C 0.98809 0.83306 0.58621 0.0
C806 C 0.98323 0.8516 0.6563 0.0
C807 C 0.95675 0.85763 0.66112 0.0
C808 C 0.99267 0.84369 0.74715 0.0
C809 C 0.99744 0.87208 0.61946 0.0
C810 C 0.00896 0.86586 0.54213 0.0
C811 C 0.02158 0.88227 0.49196 0.0
C812 C 0.02239 0.90571 0.52143 0.0
C813 C 0.01075 0.91243 0.6005 0.0
C814 C 0.9984 0.89532 0.65064 0.0
H815 H 0.69311 0.99683 0.60645 0.0
H816 H 0.688 0.01071 0.32384 0.0
H817 H 0.64462 0.00955 0.33436 0.0
H818 H 0.64533 0.95662 0.62217 0.0
H819 H 0.63482 0.9672 0.72768 0.0
H820 H 0.66559 0.96993 0.69938 0.0
H821 H 0.66364 0.01504 0.72732 0.0
H822 H 0.63287 0.01244 0.75595 0.0
H823 H 0.64194 0.03261 0.66974 0.0
H824 H 0.60231 0.00448 0.37305 0.0
H825 H 0.563 0.99922 0.43915 0.0
H826 H 0.59491 0.99012 0.69883 0.0
C827 C 0.68284 0.99992 0.54707 0.0
C828 C 0.69391 0.00389 0.46436 0.0
C829 C 0.6799 0.00783 0.38803 0.0
C830 C 0.65524 0.00711 0.39326 0.0
C831 C 0.64489 0.00277 0.47549 0.0
C832 C 0.65816 0.99959 0.55132 0.0
C833 C 0.64251 0.99523 0.63137 0.0
C834 C 0.64736 0.97079 0.67253 0.0
C835 C 0.64542 0.01502 0.70014 0.0
C836 C 0.61839 0.99612 0.58832 0.0
C837 C 0.62026 0.00038 0.49832 0.0
C838 C 0.60057 0.00135 0.44356 0.0
C839 C 0.5783 0.9982 0.48189 0.0
C840 C 0.57582 0.99426 0.57434 0.0
C841 C 0.59621 0.99317 0.62809 0.0
H842 H 0.48203 0.67981 0.84792 0.0
H843 H 0.46678 0.69498 0.57205 0.0
H844 H 0.46965 0.65217 0.53784 0.0
H845 H 0.52453 0.63158 0.80769 0.0
H846 H 0.51445 0.61591 0.90486 0.0
H847 H 0.51297 0.64772 0.90073 0.0
H848 H 0.46774 0.64457 0.93712 0.0
H849 H 0.46982 0.61283 0.93741 0.0
H850 H 0.4491 0.62742 0.86515 0.0
H851 H 0.47191 0.60686 0.53742 0.0
H852 H 0.47445 0.56401 0.56966 0.0
H853 H 0.48867 0.57979 0.8459 0.0
C854 C 0.47967 0.6742 0.77991 0.0
C855 C 0.47439 0.69071 0.71244 0.0
C856 C 0.47129 0.68267 0.62442 0.0
C857 C 0.47279 0.6584 0.60454 0.0
C858 C 0.47787 0.64255 0.67307 0.0
C859 C 0.48147 0.65025 0.75886 0.0
C860 C 0.48601 0.62983 0.82147 0.0
C861 C 0.51096 0.63134 0.86104 0.0
C862 C 0.46704 0.6286 0.89458 0.0
C863 C 0.48394 0.6093 0.7581 0.0
C864 C 0.47936 0.61688 0.67266 0.0
C865 C 0.47599 0.60083 0.60373 0.0
C866 C 0.47742 0.5765 0.62274 0.0
C867 C 0.48192 0.56847 0.7102 0.0
C868 C 0.48536 0.58523 0.77818 0.0
H869 H 0.8261 0.50321 0.57126 0.0
H870 H 0.83238 0.54329 0.32654 0.0
H871 H 0.87423 0.55124 0.35999 0.0
H872 H 0.8678 0.54097 0.70279 0.0
H873 H 0.8794 0.51577 0.76156 0.0
H874 H 0.84906 0.51591 0.72583 0.0
H875 H 0.85572 0.47669 0.64186 0.0
H876 H 0.88598 0.47623 0.67741 0.0
H877 H 0.8791 0.47478 0.56091 0.0
H878 H 0.91638 0.54919 0.407 0.0
H879 H 0.95542 0.54043 0.47171 0.0
H880 H 0.9215 0.50323 0.68938 0.0
C881 C 0.8361 0.51421 0.52591 0.0
C882 C 0.82601 0.5226 0.44623 0.0
C883 C 0.8397 0.5368 0.38826 0.0
C884 C 0.8635 0.54139 0.40661 0.0
C885 C 0.87314 0.53209 0.4841 0.0
C886 C 0.85977 0.51921 0.54381 0.0
C887 C 0.87473 0.50999 0.61949 0.0
C888 C 0.86729 0.52135 0.70763 0.0
C889 C 0.87383 0.48282 0.62514 0.0
C890 C 0.89881 0.51862 0.59049 0.0
C891 C 0.89748 0.53151 0.51264 0.0
C892 C 0.91762 0.53959 0.46896 0.0
C893 C 0.9397 0.53436 0.50583 0.0
C894 C 0.94142 0.52125 0.58564 0.0
C895 C 0.92068 0.5136 0.62898 0.0
loop_
_geom_bond_atom_site_label_1
_geom_bond_atom_site_label_2
_geom_bond_distance
_geom_bond_site_symmetry_2
_ccdc_geom_bond_type
O0 Cd1 2.300 . S
O0 C7 1.275 . S
Cd1 O0 2.300 . S
Cd1 O9 2.381 . S
Cd1 O10 2.378 . S
O2 Cd3 2.385 . S
O2 C7 1.255 . S
Cd3 O2 2.385 . S
Cd3 O4 2.317 . S
O4 Cd3 2.317 . S
O4 C5 1.232 . S
C5 O4 1.232 . S
C5 O6 1.218 . S
O6 C5 1.218 . S
C7 O0 1.275 . S
C7 O2 1.255 . S
C8 O9 1.258 . S
C8 O10 1.256 . S
O9 Cd1 2.381 . S
O9 C8 1.258 . S
O10 Cd1 2.378 . S
O10 C8 1.256 . S
O11 Cd12 2.300 1_655 S
O11 C18 1.275 1_655 S
Cd12 O11 2.300 1_455 S
Cd12 O20 2.381 1_455 S
Cd12 O21 2.378 . S
O13 Cd14 2.385 . S
O13 C18 1.255 . S
Cd14 O13 2.385 . S
Cd14 O15 2.317 . S
O15 Cd14 2.317 . S
O15 C16 1.232 . S
C16 O15 1.232 . S
C16 O17 1.218 . S
O17 C16 1.218 . S
C18 O11 1.275 1_455 S
C18 O13 1.255 . S
C19 O20 1.258 1_455 S
C19 O21 1.256 . S
O20 Cd12 2.381 1_655 S
O20 C19 1.258 1_655 S
O21 Cd12 2.378 . S
O21 C19 1.256 . S
O22 Cd23 2.300 1_565 S
O22 C29 1.275 1_565 S
Cd23 O22 2.300 1_545 S
Cd23 O31 2.381 1_545 S
Cd23 O32 2.378 . S
O24 Cd25 2.385 . S
O24 C29 1.255 . S
Cd25 O24 2.385 . S
Cd25 O26 2.317 . S
O26 Cd25 2.317 . S
O26 C27 1.232 . S
C27 O26 1.232 . S
C27 O28 1.218 . S
O28 C27 1.218 . S
C29 O22 1.275 1_545 S
C29 O24 1.255 . S
C30 O31 1.258 1_545 S
C30 O32 1.256 . S
O31 Cd23 2.381 1_565 S
O31 C30 1.258 1_565 S
O32 Cd23 2.378 . S
O32 C30 1.256 . S
O33 Cd34 2.300 . S
O33 C40 1.275 . S
Cd34 O33 2.300 . S
Cd34 O42 2.381 . S
Cd34 O43 2.378 . S
O35 Cd36 2.385 . S
O35 C40 1.255 . S
Cd36 O35 2.385 . S
Cd36 O37 2.317 . S
O37 Cd36 2.317 . S
O37 C38 1.232 . S
C38 O37 1.232 . S
C38 O39 1.218 . S
O39 C38 1.218 . S
C40 O33 1.275 . S
C40 O35 1.255 . S
C41 O42 1.258 . S
C41 O43 1.256 . S
O42 Cd34 2.381 . S
O42 C41 1.258 . S
O43 Cd34 2.378 . S
O43 C41 1.256 . S
O44 Cd45 2.300 . S
O44 C51 1.275 . S
Cd45 O44 2.300 . S
Cd45 O53 2.381 . S
Cd45 O54 2.378 . S
O46 Cd47 2.385 1_554 S
O46 C51 1.255 . S
Cd47 O46 2.385 1_556 S
Cd47 O48 2.317 . S
O48 Cd47 2.317 . S
O48 C49 1.232 . S
C49 O48 1.232 . S
C49 O50 1.218 . S
O50 C49 1.218 . S
C51 O44 1.275 . S
C51 O46 1.255 . S
C52 O53 1.258 . S
C52 O54 1.256 . S
O53 Cd45 2.381 . S
O53 C52 1.258 . S
O54 Cd45 2.378 . S
O54 C52 1.256 . S
O55 Cd56 2.300 1_655 S
O55 C62 1.275 1_655 S
Cd56 O55 2.300 1_455 S
Cd56 O64 2.381 1_455 S
Cd56 O65 2.378 . S
O57 Cd58 2.385 1_554 S
O57 C62 1.255 . S
Cd58 O57 2.385 1_556 S
Cd58 O59 2.317 . S
O59 Cd58 2.317 . S
O59 C60 1.232 . S
C60 O59 1.232 . S
C60 O61 1.218 . S
O61 C60 1.218 . S
C62 O55 1.275 1_455 S
C62 O57 1.255 . S
C63 O64 1.258 1_455 S
C63 O65 1.256 . S
O64 Cd56 2.381 1_655 S
O64 C63 1.258 1_655 S
O65 Cd56 2.378 . S
O65 C63 1.256 . S
O66 Cd67 2.300 1_565 S
O66 C73 1.275 1_565 S
Cd67 O66 2.300 1_545 S
Cd67 O75 2.381 1_545 S
Cd67 O76 2.378 . S
O68 Cd69 2.385 1_554 S
O68 C73 1.255 . S
Cd69 O68 2.385 1_556 S
Cd69 O70 2.317 . S
O70 Cd69 2.317 . S
O70 C71 1.232 . S
C71 O70 1.232 . S
C71 O72 1.218 . S
O72 C71 1.218 . S
C73 O66 1.275 1_545 S
C73 O68 1.255 . S
C74 O75 1.258 1_545 S
C74 O76 1.256 . S
O75 Cd67 2.381 1_565 S
O75 C74 1.258 1_565 S
O76 Cd67 2.378 . S
O76 C74 1.256 . S
O77 Cd78 2.300 . S
O77 C84 1.275 . S
Cd78 O77 2.300 . S
Cd78 O86 2.381 . S
Cd78 O87 2.378 . S
O79 Cd80 2.385 1_554 S
O79 C84 1.255 . S
Cd80 O79 2.385 1_556 S
Cd80 O81 2.317 . S
O81 Cd80 2.317 . S
O81 C82 1.232 . S
C82 O81 1.232 . S
C82 O83 1.218 . S
O83 C82 1.218 . S
C84 O77 1.275 . S
C84 O79 1.255 . S
C85 O86 1.258 . S
C85 O87 1.256 . S
O86 Cd78 2.381 . S
O86 C85 1.258 . S
O87 Cd78 2.378 . S
O87 C85 1.256 . S
Sm88 C90 2.846 . S
Sm88 O108 2.543 . S
Sm88 O109 2.450 . S
Sm88 O110 2.681 1_565 S
Sm88 O111 2.464 . S
Sm88 O112 2.396 . S
Sm88 O116 2.386 1_455 S
Sm88 O119 2.408 1_565 S
Sm89 C99 2.846 . S
Sm89 O110 2.386 1_655 S
Sm89 O113 2.408 1_545 S
Sm89 O114 2.562 . S
Sm89 O115 2.450 . S
Sm89 O116 2.681 1_545 S
Sm89 O117 2.464 . S
Sm89 O118 2.396 . S
C90 Sm88 2.846 . S
C90 C91 1.506 . S
C90 O108 1.261 . S
C90 O109 1.242 . S
C91 C90 1.506 . S
C91 C92 1.358 . S
C91 C96 1.382 . S
C92 C91 1.358 . S
C92 C93 1.385 1_556 S
C92 H120 0.930 1_455 S
C93 C92 1.385 1_554 S
C93 C94 1.395 . S
C93 H121 0.929 1_455 S
C94 C93 1.395 . S
C94 C95 1.335 1_554 S
C95 C94 1.335 1_556 S
C95 C96 1.398 . S
C95 H122 0.930 1_556 S
C96 C91 1.382 . S
C96 C95 1.398 . S
C96 H123 0.929 . S
C97 O110 1.271 1_565 S
C97 O111 1.251 . S
C98 O112 1.252 1_655 S
C98 O113 1.272 . S
C99 Sm89 2.846 . S
C99 C100 1.506 . S
C99 O114 1.307 . S
C99 O115 1.242 . S
C100 C99 1.506 . S
C100 C101 1.358 . S
C100 C105 1.382 . S
C101 C100 1.358 . S
C101 C102 1.385 . S
C101 H124 0.930 1_655 S
C102 C101 1.385 . S
C102 C103 1.395 . S
C102 H125 0.929 1_655 S
C103 C102 1.395 . S
C103 C104 1.335 . S
C104 C103 1.335 . S
C104 C105 1.398 . S
C104 H126 0.930 . S
C105 C100 1.382 . S
C105 C104 1.398 . S
C105 H127 0.929 . S
C106 O116 1.271 1_545 S
C106 O117 1.251 . S
C107 O118 1.252 1_455 S
C107 O119 1.272 . S
O108 Sm88 2.543 . S
O108 C90 1.261 . S
O109 Sm88 2.450 . S
O109 C90 1.242 . S
O110 Sm88 2.681 1_545 S
O110 Sm89 2.386 1_455 S
O110 C97 1.271 1_545 S
O111 Sm88 2.464 . S
O111 C97 1.251 . S
O112 Sm88 2.396 . S
O112 C98 1.252 1_455 S
O113 Sm89 2.408 1_565 S
O113 C98 1.272 . S
O114 Sm89 2.562 . S
O114 C99 1.307 . S
O115 Sm89 2.450 . S
O115 C99 1.242 . S
O116 Sm88 2.386 1_655 S
O116 Sm89 2.681 1_565 S
O116 C106 1.271 1_565 S
O117 Sm89 2.464 . S
O117 C106 1.251 . S
O118 Sm89 2.396 . S
O118 C107 1.252 1_655 S
O119 Sm88 2.408 1_545 S
O119 C107 1.272 . S
H120 C92 0.930 1_655 S
H121 C93 0.929 1_655 S
H122 C95 0.930 1_554 S
H123 C96 0.929 . S
H124 C101 0.930 1_455 S
H125 C102 0.929 1_455 S
H126 C104 0.930 . S
H127 C105 0.929 . S
Sm128 C130 2.846 . S
Sm128 O148 2.543 . S
Sm128 O149 2.450 . S
Sm128 O150 2.681 . S
Sm128 O151 2.464 . S
Sm128 O152 2.396 . S
Sm128 O156 2.386 1_545 S
Sm128 O159 2.408 . S
Sm129 C139 2.846 . S
Sm129 O150 2.386 1_565 S
Sm129 O153 2.408 . S
Sm129 O154 2.560 . S
Sm129 O155 2.450 . S
Sm129 O156 2.681 . S
Sm129 O157 2.464 . S
Sm129 O158 2.396 . S
C130 Sm128 2.846 . S
C130 C131 1.506 . S
C130 O148 1.261 . S
C130 O149 1.242 . S
C131 C130 1.506 . S
C131 C132 1.358 . S
C131 C136 1.382 . S
C132 C131 1.358 . S
C132 C133 1.385 1_556 S
C132 H160 0.930 1_545 S
C133 C132 1.385 1_554 S
C133 C134 1.395 . S
C133 H161 0.929 1_545 S
C134 C133 1.395 . S
C134 C135 1.335 1_554 S
C135 C134 1.335 1_556 S
C135 C136 1.398 . S
C135 H162 0.930 1_556 S
C136 C131 1.382 . S
C136 C135 1.398 . S
C136 H163 0.929 . S
C137 O150 1.271 . S
C137 O151 1.251 . S
C138 O152 1.252 1_565 S
C138 O153 1.272 . S
C139 Sm129 2.846 . S
C139 C140 1.506 . S
C139 O154 1.304 . S
C139 O155 1.242 . S
C140 C139 1.506 . S
C140 C141 1.358 . S
C140 C145 1.382 . S
C141 C140 1.358 . S
C141 C142 1.385 . S
C141 H164 0.930 1_565 S
C142 C141 1.385 . S
C142 C143 1.395 . S
C142 H165 0.929 1_565 S
C143 C142 1.395 . S
C143 C144 1.335 . S
C144 C143 1.335 . S
C144 C145 1.398 . S
C144 H166 0.930 . S
C145 C140 1.382 . S
C145 C144 1.398 . S
C145 H167 0.929 . S
C146 O156 1.271 . S
C146 O157 1.251 . S
C147 O158 1.252 1_545 S
C147 O159 1.272 . S
O148 Sm128 2.543 . S
O148 C130 1.261 . S
O149 Sm128 2.450 . S
O149 C130 1.242 . S
O150 Sm128 2.681 . S
O150 Sm129 2.386 1_545 S
O150 C137 1.271 . S
O151 Sm128 2.464 . S
O151 C137 1.251 . S
O152 Sm128 2.396 . S
O152 C138 1.252 1_545 S
O153 Sm129 2.408 . S
O153 C138 1.272 . S
O154 Sm129 2.560 . S
O154 C139 1.304 . S
O155 Sm129 2.450 . S
O155 C139 1.242 . S
O156 Sm128 2.386 1_565 S
O156 Sm129 2.681 . S
O156 C146 1.271 . S
O157 Sm129 2.464 . S
O157 C146 1.251 . S
O158 Sm129 2.396 . S
O158 C147 1.252 1_565 S
O159 Sm128 2.408 . S
O159 C147 1.272 . S
H160 C132 0.930 1_565 S
H161 C133 0.929 1_565 S
H162 C135 0.930 1_554 S
H163 C136 0.929 . S
H164 C141 0.930 1_545 S
H165 C142 0.929 1_545 S
H166 C144 0.930 . S
H167 C145 0.929 . S
Sm168 C170 2.846 . S
Sm168 O188 2.543 . S
Sm168 O189 2.450 . S
Sm168 O190 2.681 . S
Sm168 O191 2.464 . S
Sm168 O192 2.396 . S
Sm168 O196 2.386 . S
Sm168 O199 2.408 . S
Sm169 C179 2.846 . S
Sm169 O190 2.386 . S
Sm169 O193 2.408 . S
Sm169 O194 2.543 . S
Sm169 O195 2.450 . S
Sm169 O196 2.681 . S
Sm169 O197 2.464 . S
Sm169 O198 2.396 . S
C170 Sm168 2.846 . S
C170 C171 1.506 . S
C170 O188 1.261 . S
C170 O189 1.242 . S
C171 C170 1.506 . S
C171 C172 1.358 . S
C171 C176 1.382 . S
C172 C171 1.358 . S
C172 C173 1.385 1_556 S
C172 H200 0.930 . S
C173 C172 1.385 1_554 S
C173 C174 1.395 . S
C173 H201 0.929 . S
C174 C173 1.395 . S
C174 C175 1.335 1_554 S
C175 C174 1.335 1_556 S
C175 C176 1.398 . S
C175 H202 0.930 1_556 S
C176 C171 1.382 . S
C176 C175 1.398 . S
C176 H203 0.929 . S
C177 O190 1.271 . S
C177 O191 1.251 . S
C178 O192 1.252 . S
C178 O193 1.272 . S
C179 Sm169 2.846 . S
C179 C180 1.506 . S
C179 O194 1.261 . S
C179 O195 1.242 . S
C180 C179 1.506 . S
C180 C181 1.358 . S
C180 C185 1.382 . S
C181 C180 1.358 . S
C181 C182 1.385 . S
C181 H204 0.930 . S
C182 C181 1.385 . S
C182 C183 1.395 . S
C182 H205 0.929 . S
C183 C182 1.395 . S
C183 C184 1.335 . S
C184 C183 1.335 . S
C184 C185 1.398 . S
C184 H206 0.930 . S
C185 C180 1.382 . S
C185 C184 1.398 . S
C185 H207 0.929 . S
C186 O196 1.271 . S
C186 O197 1.251 . S
C187 O198 1.252 . S
C187 O199 1.272 . S
O188 Sm168 2.543 . S
O188 C170 1.261 . S
O189 Sm168 2.450 . S
O189 C170 1.242 . S
O190 Sm168 2.681 . S
O190 Sm169 2.386 . S
O190 C177 1.271 . S
O191 Sm168 2.464 . S
O191 C177 1.251 . S
O192 Sm168 2.396 . S
O192 C178 1.252 . S
O193 Sm169 2.408 . S
O193 C178 1.272 . S
O194 Sm169 2.543 . S
O194 C179 1.261 . S
O195 Sm169 2.450 . S
O195 C179 1.242 . S
O196 Sm168 2.386 . S
O196 Sm169 2.681 . S
O196 C186 1.271 . S
O197 Sm169 2.464 . S
O197 C186 1.251 . S
O198 Sm169 2.396 . S
O198 C187 1.252 . S
O199 Sm168 2.408 . S
O199 C187 1.272 . S
H200 C172 0.930 . S
H201 C173 0.929 . S
H202 C175 0.930 1_554 S
H203 C176 0.929 . S
H204 C181 0.930 . S
H205 C182 0.929 . S
H206 C184 0.930 . S
H207 C185 0.929 . S
Sm208 C210 2.846 . S
Sm208 O228 2.543 . S
Sm208 O229 2.450 . S
Sm208 O230 2.681 1_655 S
Sm208 O231 2.464 . S
Sm208 O232 2.396 . S
Sm208 O236 2.386 . S
Sm208 O239 2.408 1_655 S
Sm209 C219 2.846 . S
Sm209 O230 2.386 . S
Sm209 O233 2.408 1_455 S
Sm209 O234 2.543 . S
Sm209 O235 2.450 . S
Sm209 O236 2.681 1_455 S
Sm209 O237 2.464 . S
Sm209 O238 2.396 . S
C210 Sm208 2.846 . S
C210 C211 1.506 . S
C210 O228 1.261 . S
C210 O229 1.242 . S
C211 C210 1.506 . S
C211 C212 1.358 . S
C211 C216 1.382 . S
C212 C211 1.358 . S
C212 C213 1.385 1_556 S
C212 H240 0.930 . S
C213 C212 1.385 1_554 S
C213 C214 1.395 . S
C213 H241 0.929 . S
C214 C213 1.395 . S
C214 C215 1.335 1_554 S
C215 C214 1.335 1_556 S
C215 C216 1.398 . S
C215 H242 0.930 1_556 S
C216 C211 1.382 . S
C216 C215 1.398 . S
C216 H243 0.929 . S
C217 O230 1.258 1_655 S
C217 O231 1.275 . S
C218 O232 1.252 . S
C218 O233 1.272 . S
C219 Sm209 2.846 . S
C219 C220 1.506 . S
C219 O234 1.261 . S
C219 O235 1.242 . S
C220 C219 1.506 . S
C220 C221 1.358 . S
C220 C225 1.382 . S
C221 C220 1.358 . S
C221 C222 1.385 . S
C221 H244 0.930 . S
C222 C221 1.385 . S
C222 C223 1.395 . S
C222 H245 0.929 . S
C223 C222 1.395 . S
C223 C224 1.335 . S
C224 C223 1.335 . S
C224 C225 1.398 . S
C224 H246 0.930 . S
C225 C220 1.382 . S
C225 C224 1.398 . S
C225 H247 0.929 . S
C226 O236 1.271 1_455 S
C226 O237 1.251 . S
C227 O238 1.252 . S
C227 O239 1.272 . S
O228 Sm208 2.543 . S
O228 C210 1.261 . S
O229 Sm208 2.450 . S
O229 C210 1.242 . S
O230 Sm208 2.681 1_455 S
O230 Sm209 2.386 . S
O230 C217 1.258 1_455 S
O231 Sm208 2.464 . S
O231 C217 1.275 . S
O232 Sm208 2.396 . S
O232 C218 1.252 . S
O233 Sm209 2.408 1_655 S
O233 C218 1.272 . S
O234 Sm209 2.543 . S
O234 C219 1.261 . S
O235 Sm209 2.450 . S
O235 C219 1.242 . S
O236 Sm208 2.386 . S
O236 Sm209 2.681 1_655 S
O236 C226 1.271 1_655 S
O237 Sm209 2.464 . S
O237 C226 1.251 . S
O238 Sm209 2.396 . S
O238 C227 1.252 . S
O239 Sm208 2.408 1_455 S
O239 C227 1.272 . S
H240 C212 0.930 . S
H241 C213 0.929 . S
H242 C215 0.930 1_554 S
H243 C216 0.929 . S
H244 C221 0.930 . S
H245 C222 0.929 . S
H246 C224 0.930 . S
H247 C225 0.929 . S
H248 C260 0.930 . S
H249 C262 0.930 . S
H250 C263 0.930 . S
H251 C267 0.959 . S
H252 C267 0.959 . S
H253 C267 0.961 . S
H254 C268 0.960 . S
H255 C268 0.961 . S
H256 C268 0.959 . S
H257 C271 0.929 . S
H258 C272 0.931 . S
H259 C274 0.930 . S
C260 H248 0.930 . S
C260 C261 1.369 1_545 S
C260 C265 1.399 . S
C261 C260 1.369 1_565 S
C261 C262 1.413 . S
C262 H249 0.930 . S
C262 C261 1.413 . S
C262 C263 1.388 . S
C263 H250 0.930 . S
C263 C262 1.388 . S
C263 C264 1.390 . S
C264 C263 1.390 . S
C264 C265 1.394 1_565 S
C264 C270 1.465 . S
C265 C260 1.399 . S
C265 C264 1.394 1_545 S
C265 C266 1.516 . S
C266 C265 1.516 . S
C266 C267 1.502 . S
C266 C268 1.561 . S
C266 C269 1.526 . S
C267 H251 0.959 . S
C267 H252 0.959 . S
C267 H253 0.961 . S
C267 C266 1.502 . S
C268 H254 0.960 . S
C268 H255 0.961 . S
C268 H256 0.959 . S
C268 C266 1.561 . S
C269 C266 1.526 . S
C269 C270 1.396 1_545 S
C269 C274 1.390 . S
C270 C264 1.465 . S
C270 C269 1.396 1_565 S
C270 C271 1.399 . S
C271 H257 0.929 . S
C271 C270 1.399 . S
C271 C272 1.385 . S
C272 H258 0.931 . S
C272 C271 1.385 . S
C272 C273 1.407 . S
C273 C272 1.407 . S
C273 C274 1.372 1_565 S
C274 H259 0.930 . S
C274 C269 1.390 . S
C274 C273 1.372 1_545 S
H275 C287 0.930 . S
H276 C289 0.930 . S
H277 C290 0.930 . S
H278 C294 0.959 . S
H279 C294 0.959 . S
H280 C294 0.961 . S
H281 C295 0.960 . S
H282 C295 0.961 . S
H283 C295 0.959 . S
H284 C298 0.929 . S
H285 C299 0.931 . S
H286 C301 0.930 . S
C287 H275 0.930 . S
C287 C288 1.399 . S
C287 C292 1.399 . S
C288 C287 1.399 . S
C288 C289 1.376 . S
C289 H276 0.930 . S
C289 C288 1.376 . S
C289 C290 1.388 . S
C290 H277 0.930 . S
C290 C289 1.388 . S
C290 C291 1.390 . S
C291 C290 1.390 . S
C291 C292 1.394 . S
C291 C297 1.465 . S
C292 C287 1.399 . S
C292 C291 1.394 . S
C292 C293 1.516 . S
C293 C292 1.516 . S
C293 C294 1.502 . S
C293 C295 1.561 . S
C293 C296 1.526 . S
C294 H278 0.959 . S
C294 H279 0.959 . S
C294 H280 0.961 . S
C294 C293 1.502 . S
C295 H281 0.960 . S
C295 H282 0.961 . S
C295 H283 0.959 . S
C295 C293 1.561 . S
C296 C293 1.526 . S
C296 C297 1.396 . S
C296 C301 1.390 . S
C297 C291 1.465 . S
C297 C296 1.396 . S
C297 C298 1.399 . S
C298 H284 0.929 . S
C298 C297 1.399 . S
C298 C299 1.385 . S
C299 H285 0.931 . S
C299 C298 1.385 . S
C299 C300 1.389 . S
C300 C299 1.389 . S
C300 C301 1.387 . S
C301 H286 0.930 . S
C301 C296 1.390 . S
C301 C300 1.387 . S
H302 C314 0.930 . S
H303 C316 0.930 . S
H304 C317 0.930 . S
H305 C321 0.959 . S
H306 C321 0.959 . S
H307 C321 0.961 . S
H308 C322 0.960 . S
H309 C322 0.961 . S
H310 C322 0.959 . S
H311 C325 0.929 . S
H312 C326 0.931 . S
H313 C328 0.930 . S
C314 H302 0.930 . S
C314 C315 1.399 . S
C314 C319 1.399 . S
C315 C314 1.399 . S
C315 C316 1.376 . S
C316 H303 0.930 . S
C316 C315 1.376 . S
C316 C317 1.388 . S
C317 H304 0.930 . S
C317 C316 1.388 . S
C317 C318 1.390 . S
C318 C317 1.390 . S
C318 C319 1.394 . S
C318 C324 1.465 . S
C319 C314 1.399 . S
C319 C318 1.394 . S
C319 C320 1.516 . S
C320 C319 1.516 . S
C320 C321 1.502 . S
C320 C322 1.561 . S
C320 C323 1.526 . S
C321 H305 0.959 . S
C321 H306 0.959 . S
C321 H307 0.961 . S
C321 C320 1.502 . S
C322 H308 0.960 . S
C322 H309 0.961 . S
C322 H310 0.959 . S
C322 C320 1.561 . S
C323 C320 1.526 . S
C323 C324 1.396 . S
C323 C328 1.390 . S
C324 C318 1.465 . S
C324 C323 1.396 . S
C324 C325 1.399 . S
C325 H311 0.929 . S
C325 C324 1.399 . S
C325 C326 1.385 . S
C326 H312 0.931 . S
C326 C325 1.385 . S
C326 C327 1.389 . S
C327 C326 1.389 . S
C327 C328 1.387 . S
C328 H313 0.930 . S
C328 C323 1.390 . S
C328 C327 1.387 . S
H329 C341 0.930 . S
H330 C343 0.930 . S
H331 C344 0.930 . S
H332 C348 0.959 . S
H333 C348 0.959 . S
H334 C348 0.961 . S
H335 C349 0.960 . S
H336 C349 0.961 . S
H337 C349 0.959 . S
H338 C352 0.929 . S
H339 C353 0.931 . S
H340 C355 0.930 . S
C341 H329 0.930 . S
C341 C342 1.399 1_655 S
C341 C346 1.399 . S
C342 C341 1.399 1_455 S
C342 C343 1.376 . S
C343 H330 0.930 . S
C343 C342 1.376 . S
C343 C344 1.388 . S
C344 H331 0.930 . S
C344 C343 1.388 . S
C344 C345 1.390 . S
C345 C344 1.390 . S
C345 C346 1.394 1_455 S
C345 C351 1.465 . S
C346 C341 1.399 . S
C346 C345 1.394 1_655 S
C346 C347 1.516 . S
C347 C346 1.516 . S
C347 C348 1.502 . S
C347 C349 1.561 1_655 S
C347 C350 1.535 . S
C348 H332 0.959 . S
C348 H333 0.959 . S
C348 H334 0.961 . S
C348 C347 1.502 . S
C349 H335 0.960 . S
C349 H336 0.961 . S
C349 H337 0.959 . S
C349 C347 1.561 1_455 S
C350 C347 1.535 . S
C350 C351 1.381 1_655 S
C350 C355 1.395 . S
C351 C345 1.465 . S
C351 C350 1.381 1_455 S
C351 C352 1.399 . S
C352 H338 0.929 . S
C352 C351 1.399 . S
C352 C353 1.385 . S
C353 H339 0.931 . S
C353 C352 1.385 . S
C353 C354 1.389 . S
C354 C353 1.389 . S
C354 C355 1.387 1_455 S
C355 H340 0.930 . S
C355 C350 1.395 . S
C355 C354 1.387 1_655 S
H356 C368 0.930 . S
H357 C370 0.930 . S
H358 C371 0.930 . S
H359 C375 0.959 1_556 S
H360 C375 0.959 1_556 S
H361 C375 0.961 . S
H362 C376 0.960 . S
H363 C376 0.961 . S
H364 C376 0.959 . S
H365 C379 0.929 . S
H366 C380 0.931 . S
H367 C382 0.930 . S
C368 H356 0.930 . S
C368 C369 1.399 1_545 S
C368 C373 1.399 . S
C369 C368 1.399 1_565 S
C369 C370 1.376 . S
C370 H357 0.930 . S
C370 C369 1.376 . S
C370 C371 1.388 . S
C371 H358 0.930 . S
C371 C370 1.388 . S
C371 C372 1.390 . S
C372 C371 1.390 . S
C372 C373 1.394 1_565 S
C372 C378 1.465 . S
C373 C368 1.399 . S
C373 C372 1.394 1_545 S
C373 C374 1.516 . S
C374 C373 1.516 . S
C374 C375 1.502 . S
C374 C376 1.561 . S
C374 C377 1.526 1_554 S
C375 H359 0.959 1_554 S
C375 H360 0.959 1_554 S
C375 H361 0.961 . S
C375 C374 1.502 . S
C376 H362 0.960 . S
C376 H363 0.961 . S
C376 H364 0.959 . S
C376 C374 1.561 . S
C377 C374 1.526 1_556 S
C377 C378 1.396 1_546 S
C377 C382 1.390 . S
C378 C372 1.465 . S
C378 C377 1.396 1_564 S
C378 C379 1.399 1_554 S
C379 H365 0.929 . S
C379 C378 1.399 1_556 S
C379 C380 1.385 . S
C380 H366 0.931 . S
C380 C379 1.385 . S
C380 C381 1.389 . S
C381 C380 1.389 . S
C381 C382 1.387 1_565 S
C382 H367 0.930 . S
C382 C377 1.390 . S
C382 C381 1.387 1_545 S
H383 C395 0.930 . S
H384 C397 0.930 . S
H385 C398 0.930 . S
H386 C402 0.959 1_556 S
H387 C402 0.959 . S
H388 C402 0.961 . S
H389 C403 0.960 . S
H390 C403 0.961 . S
H391 C403 0.959 . S
H392 C406 0.929 . S
H393 C407 0.931 . S
H394 C409 0.930 . S
C395 H383 0.930 . S
C395 C396 1.399 . S
C395 C400 1.399 . S
C396 C395 1.399 . S
C396 C397 1.376 . S
C397 H384 0.930 . S
C397 C396 1.376 . S
C397 C398 1.388 . S
C398 H385 0.930 . S
C398 C397 1.388 . S
C398 C399 1.390 . S
C399 C398 1.390 . S
C399 C400 1.394 . S
C399 C405 1.465 . S
C400 C395 1.399 . S
C400 C399 1.394 . S
C400 C401 1.516 . S
C401 C400 1.516 . S
C401 C402 1.502 . S
C401 C403 1.561 . S
C401 C404 1.526 . S
C402 H386 0.959 1_554 S
C402 H387 0.959 . S
C402 H388 0.961 . S
C402 C401 1.502 . S
C403 H389 0.960 . S
C403 H390 0.961 . S
C403 H391 0.959 . S
C403 C401 1.561 . S
C404 C401 1.526 . S
C404 C405 1.396 . S
C404 C409 1.390 1_554 S
C405 C399 1.465 . S
C405 C404 1.396 . S
C405 C406 1.399 1_554 S
C406 H392 0.929 . S
C406 C405 1.399 1_556 S
C406 C407 1.385 . S
C407 H393 0.931 . S
C407 C406 1.385 . S
C407 C408 1.389 . S
C408 C407 1.389 . S
C408 C409 1.387 . S
C409 H394 0.930 . S
C409 C404 1.390 1_556 S
C409 C408 1.387 . S
H410 C422 0.930 . S
H411 C424 0.930 . S
H412 C425 0.930 . S
H413 C429 0.959 . S
H414 C429 0.959 . S
H415 C429 0.961 . S
H416 C430 0.960 . S
H417 C430 0.961 . S
H418 C430 0.959 . S
H419 C433 0.929 . S
H420 C434 0.931 . S
H421 C436 0.930 . S
C422 H410 0.930 . S
C422 C423 1.399 . S
C422 C427 1.399 . S
C423 C422 1.399 . S
C423 C424 1.376 . S
C424 H411 0.930 . S
C424 C423 1.376 . S
C424 C425 1.388 . S
C425 H412 0.930 . S
C425 C424 1.388 . S
C425 C426 1.390 . S
C426 C425 1.390 . S
C426 C427 1.394 . S
C426 C432 1.465 . S
C427 C422 1.399 . S
C427 C426 1.394 . S
C427 C428 1.516 . S
C428 C427 1.516 . S
C428 C429 1.502 1_554 S
C428 C430 1.561 . S
C428 C431 1.526 1_554 S
C429 H413 0.959 . S
C429 H414 0.959 . S
C429 H415 0.961 . S
C429 C428 1.502 1_556 S
C430 H416 0.960 . S
C430 H417 0.961 . S
C430 H418 0.959 . S
C430 C428 1.561 . S
C431 C428 1.526 1_556 S
C431 C432 1.396 1_556 S
C431 C436 1.390 . S
C432 C426 1.465 . S
C432 C431 1.396 1_554 S
C432 C433 1.399 . S
C433 H419 0.929 . S
C433 C432 1.399 . S
C433 C434 1.385 1_554 S
C434 H420 0.931 . S
C434 C433 1.385 1_556 S
C434 C435 1.389 . S
C435 C434 1.389 . S
C435 C436 1.387 . S
C436 H421 0.930 . S
C436 C431 1.390 . S
C436 C435 1.387 . S
H437 C449 0.930 . S
H438 C451 0.930 . S
H439 C452 0.930 . S
H440 C456 0.959 1_554 S
H441 C456 0.959 . S
H442 C456 0.963 . S
H443 C457 0.963 . S
H444 C457 0.961 1_655 S
H445 C457 0.959 . S
H446 C460 0.929 . S
H447 C461 0.931 . S
H448 C463 0.930 . S
C449 H437 0.930 . S
C449 C450 1.399 1_655 S
C449 C454 1.399 . S
C450 C449 1.399 1_455 S
C450 C451 1.376 . S
C451 H438 0.930 . S
C451 C450 1.376 . S
C451 C452 1.388 . S
C452 H439 0.930 . S
C452 C451 1.388 . S
C452 C453 1.390 . S
C453 C452 1.390 . S
C453 C454 1.394 1_455 S
C453 C459 1.465 . S
C454 C449 1.399 . S
C454 C453 1.394 1_655 S
C454 C455 1.516 1_554 S
C455 C454 1.516 1_556 S
C455 C456 1.502 . S
C455 C457 1.561 1_655 S
C455 C458 1.526 . S
C456 H440 0.959 1_556 S
C456 H441 0.959 . S
C456 H442 0.963 . S
C456 C455 1.502 . S
C457 H443 0.963 . S
C457 H444 0.961 1_455 S
C457 H445 0.959 . S
C457 C455 1.561 1_455 S
C458 C455 1.526 . S
C458 C459 1.396 1_656 S
C458 C463 1.390 . S
C459 C453 1.465 . S
C459 C458 1.396 1_454 S
C459 C460 1.399 . S
C460 H446 0.929 . S
C460 C459 1.399 . S
C460 C461 1.385 1_554 S
C461 H447 0.931 . S
C461 C460 1.385 1_556 S
C461 C462 1.388 . S
C462 C461 1.388 . S
C462 C463 1.388 1_455 S
C463 H448 0.930 . S
C463 C458 1.390 . S
C463 C462 1.388 1_655 S
H464 C476 0.930 . S
H465 C478 0.930 . S
H466 C479 0.930 . S
H467 C483 0.959 . S
H468 C483 0.959 . S
H469 C483 0.961 . S
H470 C484 0.960 . S
H471 C484 0.961 . S
H472 C484 0.959 . S
H473 C487 0.929 . S
H474 C488 0.931 . S
H475 C490 0.930 . S
C476 H464 0.930 . S
C476 C477 1.385 1_455 S
C476 C481 1.403 . S
C477 C476 1.385 1_655 S
C477 C478 1.404 . S
C478 H465 0.930 . S
C478 C477 1.404 . S
C478 C479 1.388 . S
C479 H466 0.930 . S
C479 C478 1.388 . S
C479 C480 1.390 . S
C480 C479 1.390 . S
C480 C481 1.386 1_655 S
C480 C486 1.465 . S
C481 C476 1.403 . S
C481 C480 1.386 1_455 S
C481 C482 1.519 . S
C482 C481 1.519 . S
C482 C483 1.502 . S
C482 C484 1.561 . S
C482 C485 1.526 1_455 S
C483 H467 0.959 . S
C483 H468 0.959 . S
C483 H469 0.961 . S
C483 C482 1.502 . S
C484 H470 0.960 . S
C484 H471 0.961 . S
C484 H472 0.959 . S
C484 C482 1.561 . S
C485 C482 1.526 1_655 S
C485 C486 1.396 . S
C485 C490 1.390 . S
C486 C480 1.465 . S
C486 C485 1.396 . S
C486 C487 1.399 . S
C487 H473 0.929 . S
C487 C486 1.399 . S
C487 C488 1.385 . S
C488 H474 0.931 . S
C488 C487 1.385 . S
C488 C489 1.389 . S
C489 C488 1.389 . S
C489 C490 1.387 . S
C490 H475 0.930 . S
C490 C485 1.390 . S
C490 C489 1.387 . S
H491 C503 0.930 . S
H492 C505 0.930 . S
H493 C506 0.930 . S
H494 C510 0.959 . S
H495 C510 0.959 . S
H496 C510 0.961 . S
H497 C511 0.960 . S
H498 C511 0.961 . S
H499 C511 0.959 . S
H500 C514 0.929 . S
H501 C515 0.931 1_545 S
H502 C517 0.930 . S
C503 H491 0.930 . S
C503 C504 1.399 1_565 S
C503 C508 1.399 . S
C504 C503 1.399 1_545 S
C504 C505 1.376 . S
C505 H492 0.930 . S
C505 C504 1.376 . S
C505 C506 1.388 . S
C506 H493 0.930 . S
C506 C505 1.388 . S
C506 C507 1.347 1_545 S
C507 C506 1.347 1_565 S
C507 C508 1.433 . S
C507 C513 1.479 . S
C508 C503 1.399 . S
C508 C507 1.433 . S
C508 C509 1.516 . S
C509 C508 1.516 . S
C509 C510 1.502 . S
C509 C511 1.561 . S
C509 C512 1.526 . S
C510 H494 0.959 . S
C510 H495 0.959 . S
C510 H496 0.961 . S
C510 C509 1.502 . S
C511 H497 0.960 . S
C511 H498 0.961 . S
C511 H499 0.959 . S
C511 C509 1.561 . S
C512 C509 1.526 . S
C512 C513 1.396 . S
C512 C517 1.390 . S
C513 C507 1.479 . S
C513 C512 1.396 . S
C513 C514 1.399 1_565 S
C514 H500 0.929 . S
C514 C513 1.399 1_545 S
C514 C515 1.385 1_545 S
C515 H501 0.931 1_565 S
C515 C514 1.385 1_565 S
C515 C516 1.389 . S
C516 C515 1.389 . S
C516 C517 1.387 . S
C517 H502 0.930 . S
C517 C512 1.390 . S
C517 C516 1.387 . S
H518 C530 0.930 . S
H519 C532 0.930 . S
H520 C533 0.930 . S
H521 C537 0.959 . S
H522 C537 0.959 . S
H523 C537 0.961 . S
H524 C538 0.960 . S
H525 C538 0.961 . S
H526 C538 0.959 . S
H527 C541 0.929 . S
H528 C542 0.931 . S
H529 C544 0.930 . S
C530 H518 0.930 . S
C530 C531 1.399 . S
C530 C535 1.399 . S
C531 C530 1.399 . S
C531 C532 1.376 . S
C532 H519 0.930 . S
C532 C531 1.376 . S
C532 C533 1.388 . S
C533 H520 0.930 . S
C533 C532 1.388 . S
C533 C534 1.390 . S
C534 C533 1.390 . S
C534 C535 1.394 . S
C534 C540 1.465 . S
C535 C530 1.399 . S
C535 C534 1.394 . S
C535 C536 1.516 . S
C536 C535 1.516 . S
C536 C537 1.502 . S
C536 C538 1.561 . S
C536 C539 1.526 . S
C537 H521 0.959 . S
C537 H522 0.959 . S
C537 H523 0.961 . S
C537 C536 1.502 . S
C538 H524 0.960 . S
C538 H525 0.961 . S
C538 H526 0.959 . S
C538 C536 1.561 . S
C539 C536 1.526 . S
C539 C540 1.396 . S
C539 C544 1.390 . S
C540 C534 1.465 . S
C540 C539 1.396 . S
C540 C541 1.399 . S
C541 H527 0.929 . S
C541 C540 1.399 . S
C541 C542 1.385 . S
C542 H528 0.931 . S
C542 C541 1.385 . S
C542 C543 1.389 . S
C543 C542 1.389 . S
C543 C544 1.387 . S
C544 H529 0.930 . S
C544 C539 1.390 . S
C544 C543 1.387 . S
H545 C557 0.930 . S
H546 C559 0.930 . S
H547 C560 0.930 . S
H548 C564 0.959 . S
H549 C564 0.959 . S
H550 C564 0.961 . S
H551 C565 0.960 . S
H552 C565 0.961 . S
H553 C565 0.959 . S
H554 C568 0.929 . S
H555 C569 0.931 . S
H556 C571 0.930 . S
C557 H545 0.930 . S
C557 C558 1.399 . S
C557 C562 1.399 . S
C558 C557 1.399 . S
C558 C559 1.376 . S
C559 H546 0.930 . S
C559 C558 1.376 . S
C559 C560 1.388 . S
C560 H547 0.930 . S
C560 C559 1.388 . S
C560 C561 1.390 . S
C561 C560 1.390 . S
C561 C562 1.394 . S
C561 C567 1.465 . S
C562 C557 1.399 . S
C562 C561 1.394 . S
C562 C563 1.516 . S
C563 C562 1.516 . S
C563 C564 1.502 . S
C563 C565 1.561 . S
C563 C566 1.526 . S
C564 H548 0.959 . S
C564 H549 0.959 . S
C564 H550 0.961 . S
C564 C563 1.502 . S
C565 H551 0.960 . S
C565 H552 0.961 . S
C565 H553 0.959 . S
C565 C563 1.561 . S
C566 C563 1.526 . S
C566 C567 1.396 . S
C566 C571 1.390 . S
C567 C561 1.465 . S
C567 C566 1.396 . S
C567 C568 1.399 . S
C568 H554 0.929 . S
C568 C567 1.399 . S
C568 C569 1.385 . S
C569 H555 0.931 . S
C569 C568 1.385 . S
C569 C570 1.389 . S
C570 C569 1.389 . S
C570 C571 1.387 . S
C571 H556 0.930 . S
C571 C566 1.390 . S
C571 C570 1.387 . S
H572 C584 0.930 . S
H573 C586 0.930 . S
H574 C587 0.930 . S
H575 C591 0.959 . S
H576 C591 0.959 . S
H577 C591 0.961 . S
H578 C592 0.960 . S
H579 C592 0.961 . S
H580 C592 0.959 . S
H581 C595 0.929 . S
H582 C596 0.931 1_556 S
H583 C598 0.930 . S
C584 H572 0.930 . S
C584 C585 1.399 1_655 S
C584 C589 1.399 1_655 S
C585 C584 1.399 1_455 S
C585 C586 1.376 . S
C586 H573 0.930 . S
C586 C585 1.376 . S
C586 C587 1.388 . S
C587 H574 0.930 . S
C587 C586 1.388 . S
C587 C588 1.390 . S
C588 C587 1.390 . S
C588 C589 1.394 . S
C588 C594 1.465 . S
C589 C584 1.399 1_455 S
C589 C588 1.394 . S
C589 C590 1.518 . S
C590 C589 1.518 . S
C590 C591 1.489 1_455 S
C590 C592 1.566 . S
C590 C593 1.534 . S
C591 H575 0.959 . S
C591 H576 0.959 . S
C591 H577 0.961 . S
C591 C590 1.489 1_655 S
C592 H578 0.960 . S
C592 H579 0.961 . S
C592 H580 0.959 . S
C592 C590 1.566 . S
C593 C590 1.534 . S
C593 C594 1.396 . S
C593 C598 1.390 . S
C594 C588 1.465 . S
C594 C593 1.396 . S
C594 C595 1.399 . S
C595 H581 0.929 . S
C595 C594 1.399 . S
C595 C596 1.385 . S
C596 H582 0.931 1_554 S
C596 C595 1.385 . S
C596 C597 1.389 . S
C597 C596 1.389 . S
C597 C598 1.387 . S
C598 H583 0.930 . S
C598 C593 1.390 . S
C598 C597 1.387 . S
H599 C611 0.930 . S
H600 C613 0.930 . S
H601 C614 0.930 . S
H602 C618 0.959 1_556 S
H603 C618 0.959 1_556 S
H604 C618 0.961 . S
H605 C619 0.960 . S
H606 C619 0.961 . S
H607 C619 0.959 . S
H608 C622 0.929 . S
H609 C623 0.931 . S
H610 C625 0.930 . S
C611 H599 0.930 . S
C611 C612 1.377 1_565 S
C611 C616 1.401 . S
C612 C611 1.377 1_545 S
C612 C613 1.418 . S
C613 H600 0.930 . S
C613 C612 1.418 . S
C613 C614 1.388 . S
C614 H601 0.930 . S
C614 C613 1.388 . S
C614 C615 1.390 . S
C615 C614 1.390 . S
C615 C616 1.389 1_545 S
C615 C621 1.465 . S
C616 C611 1.401 . S
C616 C615 1.389 1_565 S
C616 C617 1.518 . S
C617 C616 1.518 . S
C617 C618 1.502 . S
C617 C619 1.561 . S
C617 C620 1.526 1_565 S
C618 H602 0.959 1_554 S
C618 H603 0.959 1_554 S
C618 H604 0.961 . S
C618 C617 1.502 . S
C619 H605 0.960 . S
C619 H606 0.961 . S
C619 H607 0.959 . S
C619 C617 1.561 . S
C620 C617 1.526 1_545 S
C620 C621 1.396 . S
C620 C625 1.390 . S
C621 C615 1.465 . S
C621 C620 1.396 . S
C621 C622 1.399 . S
C622 H608 0.929 . S
C622 C621 1.399 . S
C622 C623 1.385 . S
C623 H609 0.931 . S
C623 C622 1.385 . S
C623 C624 1.389 . S
C624 C623 1.389 . S
C624 C625 1.387 . S
C625 H610 0.930 . S
C625 C620 1.390 . S
C625 C624 1.387 . S
H626 C638 0.930 . S
H627 C640 0.930 . S
H628 C641 0.930 . S
H629 C645 0.959 . S
H630 C645 0.959 1_556 S
H631 C645 0.961 . S
H632 C646 0.960 . S
H633 C646 0.961 . S
H634 C646 0.959 1_554 S
H635 C649 0.929 . S
H636 C650 0.931 . S
H637 C652 0.930 1_556 S
C638 H626 0.930 . S
C638 C639 1.399 . S
C638 C643 1.399 . S
C639 C638 1.399 . S
C639 C640 1.376 . S
C640 H627 0.930 . S
C640 C639 1.376 . S
C640 C641 1.388 . S
C641 H628 0.930 . S
C641 C640 1.388 . S
C641 C642 1.390 . S
C642 C641 1.390 . S
C642 C643 1.394 . S
C642 C648 1.465 . S
C643 C638 1.399 . S
C643 C642 1.394 . S
C643 C644 1.516 . S
C644 C643 1.516 . S
C644 C645 1.502 . S
C644 C646 1.561 1_554 S
C644 C647 1.526 . S
C645 H629 0.959 . S
C645 H630 0.959 1_554 S
C645 H631 0.961 . S
C645 C644 1.502 . S
C646 H632 0.960 . S
C646 H633 0.961 . S
C646 H634 0.959 1_556 S
C646 C644 1.561 1_556 S
C647 C644 1.526 . S
C647 C648 1.396 . S
C647 C652 1.390 . S
C648 C642 1.465 . S
C648 C647 1.396 . S
C648 C649 1.399 . S
C649 H635 0.929 . S
C649 C648 1.399 . S
C649 C650 1.385 . S
C650 H636 0.931 . S
C650 C649 1.385 . S
C650 C651 1.389 . S
C651 C650 1.389 . S
C651 C652 1.387 . S
C652 H637 0.930 1_554 S
C652 C647 1.390 . S
C652 C651 1.387 . S
H653 C665 0.930 . S
H654 C667 0.930 . S
H655 C668 0.930 . S
H656 C672 0.959 . S
H657 C672 0.959 . S
H658 C672 0.961 . S
H659 C673 0.960 . S
H660 C673 0.961 . S
H661 C673 0.959 . S
H662 C676 0.929 . S
H663 C677 0.931 . S
H664 C679 0.930 . S
C665 H653 0.930 . S
C665 C666 1.399 . S
C665 C670 1.399 . S
C666 C665 1.399 . S
C666 C667 1.376 . S
C667 H654 0.930 . S
C667 C666 1.376 . S
C667 C668 1.388 . S
C668 H655 0.930 . S
C668 C667 1.388 . S
C668 C669 1.390 . S
C669 C668 1.390 . S
C669 C670 1.394 . S
C669 C675 1.465 . S
C670 C665 1.399 . S
C670 C669 1.394 . S
C670 C671 1.516 . S
C671 C670 1.516 . S
C671 C672 1.502 . S
C671 C673 1.561 . S
C671 C674 1.526 . S
C672 H656 0.959 . S
C672 H657 0.959 . S
C672 H658 0.961 . S
C672 C671 1.502 . S
C673 H659 0.960 . S
C673 H660 0.961 . S
C673 H661 0.959 . S
C673 C671 1.561 . S
C674 C671 1.526 . S
C674 C675 1.396 . S
C674 C679 1.390 . S
C675 C669 1.465 . S
C675 C674 1.396 . S
C675 C676 1.399 . S
C676 H662 0.929 . S
C676 C675 1.399 . S
C676 C677 1.385 . S
C677 H663 0.931 . S
C677 C676 1.385 . S
C677 C678 1.389 . S
C678 C677 1.389 . S
C678 C679 1.387 . S
C679 H664 0.930 . S
C679 C674 1.390 . S
C679 C678 1.387 . S
H680 C692 0.930 . S
H681 C694 0.930 . S
H682 C695 0.930 . S
H683 C699 0.959 . S
H684 C699 0.959 . S
H685 C699 0.961 . S
H686 C700 0.960 . S
H687 C700 0.961 . S
H688 C700 0.959 1_455 S
H689 C703 0.929 . S
H690 C704 0.931 . S
H691 C706 0.961 . S
C692 H680 0.930 . S
C692 C693 1.399 1_655 S
C692 C697 1.399 . S
C693 C692 1.399 1_455 S
C693 C694 1.376 . S
C694 H681 0.930 . S
C694 C693 1.376 . S
C694 C695 1.388 . S
C695 H682 0.930 . S
C695 C694 1.388 . S
C695 C696 1.390 . S
C696 C695 1.390 . S
C696 C697 1.394 1_455 S
C696 C702 1.465 . S
C697 C692 1.399 . S
C697 C696 1.394 1_655 S
C697 C698 1.516 . S
C698 C697 1.516 . S
C698 C699 1.502 . S
C698 C700 1.561 . S
C698 C701 1.526 1_655 S
C699 H683 0.959 . S
C699 H684 0.959 . S
C699 H685 0.961 . S
C699 C698 1.502 . S
C700 H686 0.960 . S
C700 H687 0.961 . S
C700 H688 0.959 1_655 S
C700 C698 1.561 . S
C701 C698 1.526 1_455 S
C701 C702 1.396 . S
C701 C706 1.386 1_455 S
C702 C696 1.465 . S
C702 C701 1.396 . S
C702 C703 1.399 . S
C703 H689 0.929 . S
C703 C702 1.399 . S
C703 C704 1.385 . S
C704 H690 0.931 . S
C704 C703 1.385 . S
C704 C705 1.389 . S
C705 C704 1.389 . S
C705 C706 1.361 1_455 S
C706 H691 0.961 . S
C706 C701 1.386 1_655 S
C706 C705 1.361 1_655 S
H707 C719 0.930 . S
H708 C721 0.930 . S
H709 C722 0.930 . S
H710 C726 0.959 . S
H711 C726 0.959 . S
H712 C726 0.961 . S
H713 C727 0.961 1_554 S
H714 C727 0.961 1_544 S
H715 C727 0.959 . S
H716 C730 0.929 . S
H717 C731 0.931 . S
H718 C733 0.930 . S
C719 H707 0.930 . S
C719 C720 1.400 1_545 S
C719 C724 1.399 . S
C720 C719 1.400 1_565 S
C720 C721 1.375 . S
C721 H708 0.930 . S
C721 C720 1.375 . S
C721 C722 1.388 . S
C722 H709 0.930 . S
C722 C721 1.388 . S
C722 C723 1.390 . S
C723 C722 1.390 . S
C723 C724 1.394 1_565 S
C723 C729 1.465 . S
C724 C719 1.399 . S
C724 C723 1.394 1_545 S
C724 C725 1.516 . S
C725 C724 1.516 . S
C725 C726 1.502 . S
C725 C727 1.561 1_545 S
C725 C728 1.526 . S
C726 H710 0.959 . S
C726 H711 0.959 . S
C726 H712 0.961 . S
C726 C725 1.502 . S
C727 H713 0.961 1_556 S
C727 H714 0.961 1_566 S
C727 H715 0.959 . S
C727 C725 1.561 1_565 S
C728 C725 1.526 . S
C728 C729 1.394 1_545 S
C728 C733 1.390 . S
C729 C723 1.465 . S
C729 C728 1.394 1_565 S
C729 C730 1.400 . S
C730 H716 0.929 . S
C730 C729 1.400 . S
C730 C731 1.385 . S
C731 H717 0.931 . S
C731 C730 1.385 . S
C731 C732 1.389 1_565 S
C732 C731 1.389 1_545 S
C732 C733 1.387 . S
C733 H718 0.930 . S
C733 C728 1.390 . S
C733 C732 1.387 . S
H734 C746 0.930 . S
H735 C748 0.930 . S
H736 C749 0.930 . S
H737 C753 0.959 . S
H738 C753 0.959 . S
H739 C753 0.961 . S
H740 C754 0.960 . S
H741 C754 0.961 . S
H742 C754 0.959 . S
H743 C757 0.929 . S
H744 C758 0.931 . S
H745 C760 0.930 . S
C746 H734 0.930 . S
C746 C747 1.399 . S
C746 C751 1.399 . S
C747 C746 1.399 . S
C747 C748 1.376 . S
C748 H735 0.930 . S
C748 C747 1.376 . S
C748 C749 1.388 . S
C749 H736 0.930 . S
C749 C748 1.388 . S
C749 C750 1.390 . S
C750 C749 1.390 . S
C750 C751 1.394 . S
C750 C756 1.465 . S
C751 C746 1.399 . S
C751 C750 1.394 . S
C751 C752 1.516 . S
C752 C751 1.516 . S
C752 C753 1.502 . S
C752 C754 1.561 . S
C752 C755 1.526 . S
C753 H737 0.959 . S
C753 H738 0.959 . S
C753 H739 0.961 . S
C753 C752 1.502 . S
C754 H740 0.960 . S
C754 H741 0.961 . S
C754 H742 0.959 . S
C754 C752 1.561 . S
C755 C752 1.526 . S
C755 C756 1.396 . S
C755 C760 1.390 . S
C756 C750 1.465 . S
C756 C755 1.396 . S
C756 C757 1.399 . S
C757 H743 0.929 . S
C757 C756 1.399 . S
C757 C758 1.385 . S
C758 H744 0.931 . S
C758 C757 1.385 . S
C758 C759 1.389 . S
C759 C758 1.389 . S
C759 C760 1.387 . S
C760 H745 0.930 . S
C760 C755 1.390 . S
C760 C759 1.387 . S
H761 C773 0.930 . S
H762 C775 0.930 . S
H763 C776 0.930 . S
H764 C780 0.959 . S
H765 C780 0.959 . S
H766 C780 0.961 . S
H767 C781 0.960 . S
H768 C781 0.961 . S
H769 C781 0.959 . S
H770 C784 0.929 . S
H771 C785 0.931 . S
H772 C787 0.930 . S
C773 H761 0.930 . S
C773 C774 1.399 . S
C773 C778 1.399 . S
C774 C773 1.399 . S
C774 C775 1.376 . S
C775 H762 0.930 . S
C775 C774 1.376 . S
C775 C776 1.388 . S
C776 H763 0.930 . S
C776 C775 1.388 . S
C776 C777 1.390 . S
C777 C776 1.390 . S
C777 C778 1.394 . S
C777 C783 1.465 . S
C778 C773 1.399 . S
C778 C777 1.394 . S
C778 C779 1.516 . S
C779 C778 1.516 . S
C779 C780 1.502 . S
C779 C781 1.561 . S
C779 C782 1.526 . S
C780 H764 0.959 . S
C780 H765 0.959 . S
C780 H766 0.961 . S
C780 C779 1.502 . S
C781 H767 0.960 . S
C781 H768 0.961 . S
C781 H769 0.959 . S
C781 C779 1.561 . S
C782 C779 1.526 . S
C782 C783 1.396 . S
C782 C787 1.390 . S
C783 C777 1.465 . S
C783 C782 1.396 . S
C783 C784 1.399 . S
C784 H770 0.929 . S
C784 C783 1.399 . S
C784 C785 1.385 . S
C785 H771 0.931 . S
C785 C784 1.385 . S
C785 C786 1.389 . S
C786 C785 1.389 . S
C786 C787 1.387 . S
C787 H772 0.930 . S
C787 C782 1.390 . S
C787 C786 1.387 . S
H788 C800 0.930 . S
H789 C802 0.930 . S
H790 C803 0.930 . S
H791 C807 0.959 . S
H792 C807 0.959 . S
H793 C807 0.961 . S
H794 C808 0.960 . S
H795 C808 0.961 . S
H796 C808 0.959 . S
H797 C811 0.929 . S
H798 C812 0.924 1_455 S
H799 C814 0.930 . S
C800 H788 0.930 . S
C800 C801 1.400 . S
C800 C805 1.399 . S
C801 C800 1.400 . S
C801 C802 1.375 1_655 S
C802 H789 0.930 . S
C802 C801 1.375 1_455 S
C802 C803 1.388 . S
C803 H790 0.930 . S
C803 C802 1.388 . S
C803 C804 1.390 . S
C804 C803 1.390 . S
C804 C805 1.394 1_455 S
C804 C810 1.465 1_455 S
C805 C800 1.399 . S
C805 C804 1.394 1_655 S
C805 C806 1.516 . S
C806 C805 1.516 . S
C806 C807 1.502 . S
C806 C808 1.561 1_655 S
C806 C809 1.526 . S
C807 H791 0.959 . S
C807 H792 0.959 . S
C807 H793 0.961 . S
C807 C806 1.502 . S
C808 H794 0.960 . S
C808 H795 0.961 . S
C808 H796 0.959 . S
C808 C806 1.561 1_455 S
C809 C806 1.526 . S
C809 C810 1.396 . S
C809 C814 1.390 . S
C810 C804 1.465 1_655 S
C810 C809 1.396 . S
C810 C811 1.399 1_655 S
C811 H797 0.929 . S
C811 C810 1.399 1_455 S
C811 C812 1.378 1_455 S
C812 H798 0.924 1_655 S
C812 C811 1.378 1_655 S
C812 C813 1.405 . S
C813 C812 1.405 . S
C813 C814 1.387 . S
C814 H799 0.930 . S
C814 C809 1.390 . S
C814 C813 1.387 . S
H815 C827 0.930 1_545 S
H816 C829 0.930 . S
H817 C830 0.930 . S
H818 C834 0.959 . S
H819 C834 0.959 . S
H820 C834 0.961 . S
H821 C835 0.960 . S
H822 C835 0.961 . S
H823 C835 0.959 . S
H824 C838 0.929 . S
H825 C839 0.931 . S
H826 C841 0.930 . S
C827 H815 0.930 1_565 S
C827 C828 1.398 . S
C827 C832 1.399 . S
C828 C827 1.398 . S
C828 C829 1.381 . S
C829 H816 0.930 . S
C829 C828 1.381 . S
C829 C830 1.388 . S
C830 H817 0.930 . S
C830 C829 1.388 . S
C830 C831 1.390 . S
C831 C830 1.390 . S
C831 C832 1.394 . S
C831 C837 1.465 . S
C832 C827 1.399 . S
C832 C831 1.394 . S
C832 C833 1.515 1_565 S
C833 C832 1.515 1_545 S
C833 C834 1.490 1_545 S
C833 C835 1.578 . S
C833 C836 1.523 1_545 S
C834 H818 0.959 . S
C834 H819 0.959 . S
C834 H820 0.961 . S
C834 C833 1.490 1_565 S
C835 H821 0.960 . S
C835 H822 0.961 . S
C835 H823 0.959 . S
C835 C833 1.578 . S
C836 C833 1.523 1_565 S
C836 C837 1.396 . S
C836 C841 1.390 . S
C837 C831 1.465 . S
C837 C836 1.396 . S
C837 C838 1.399 . S
C838 H824 0.929 . S
C838 C837 1.399 . S
C838 C839 1.385 . S
C839 H825 0.931 . S
C839 C838 1.385 . S
C839 C840 1.389 . S
C840 C839 1.389 . S
C840 C841 1.387 . S
C841 H826 0.930 . S
C841 C836 1.390 . S
C841 C840 1.387 . S
H842 C854 0.930 . S
H843 C856 0.930 . S
H844 C857 0.930 . S
H845 C861 0.959 . S
H846 C861 0.959 . S
H847 C861 0.961 . S
H848 C862 0.960 . S
H849 C862 0.961 . S
H850 C862 0.959 . S
H851 C865 0.929 . S
H852 C866 0.931 . S
H853 C868 0.930 . S
C854 H842 0.930 . S
C854 C855 1.399 . S
C854 C859 1.399 . S
C855 C854 1.399 . S
C855 C856 1.376 . S
C856 H843 0.930 . S
C856 C855 1.376 . S
C856 C857 1.388 . S
C857 H844 0.930 . S
C857 C856 1.388 . S
C857 C858 1.390 . S
C858 C857 1.390 . S
C858 C859 1.394 . S
C858 C864 1.465 . S
C859 C854 1.399 . S
C859 C858 1.394 . S
C859 C860 1.516 . S
C860 C859 1.516 . S
C860 C861 1.502 . S
C860 C862 1.561 . S
C860 C863 1.526 . S
C861 H845 0.959 . S
C861 H846 0.959 . S
C861 H847 0.961 . S
C861 C860 1.502 . S
C862 H848 0.960 . S
C862 H849 0.961 . S
C862 H850 0.959 . S
C862 C860 1.561 . S
C863 C860 1.526 . S
C863 C864 1.396 . S
C863 C868 1.390 . S
C864 C858 1.465 . S
C864 C863 1.396 . S
C864 C865 1.399 . S
C865 H851 0.929 . S
C865 C864 1.399 . S
C865 C866 1.385 . S
C866 H852 0.931 . S
C866 C865 1.385 . S
C866 C867 1.389 . S
C867 C866 1.389 . S
C867 C868 1.387 . S
C868 H853 0.930 . S
C868 C863 1.390 . S
C868 C867 1.387 . S
H869 C881 0.930 . S
H870 C883 0.930 . S
H871 C884 0.930 . S
H872 C888 0.959 . S
H873 C888 0.959 . S
H874 C888 0.961 . S
H875 C889 0.960 . S
H876 C889 0.961 . S
H877 C889 0.959 . S
H878 C892 0.929 . S
H879 C893 0.931 . S
H880 C895 0.930 . S
C881 H869 0.930 . S
C881 C882 1.399 . S
C881 C886 1.399 . S
C882 C881 1.399 . S
C882 C883 1.376 . S
C883 H870 0.930 . S
C883 C882 1.376 . S
C883 C884 1.388 . S
C884 H871 0.930 . S
C884 C883 1.388 . S
C884 C885 1.390 . S
C885 C884 1.390 . S
C885 C886 1.394 . S
C885 C891 1.465 . S
C886 C881 1.399 . S
C886 C885 1.394 . S
C886 C887 1.516 . S
C887 C886 1.516 . S
C887 C888 1.502 . S
C887 C889 1.561 . S
C887 C890 1.526 . S
C888 H872 0.959 . S
C888 H873 0.959 . S
C888 H874 0.961 . S
C888 C887 1.502 . S
C889 H875 0.960 . S
C889 H876 0.961 . S
C889 H877 0.959 . S
C889 C887 1.561 . S
C890 C887 1.526 . S
C890 C891 1.396 . S
C890 C895 1.390 . S
C891 C885 1.465 . S
C891 C890 1.396 . S
C891 C892 1.399 . S
C892 H878 0.929 . S
C892 C891 1.399 . S
C892 C893 1.385 . S
C893 H879 0.931 . S
C893 C892 1.385 . S
C893 C894 1.389 . S
C894 C893 1.389 . S
C894 C895 1.387 . S
C895 H880 0.930 . S
C895 C890 1.390 . S
C895 C894 1.387 . S
C261 C74 1.803 1_565 S
C273 C97 1.859 . S
C300 C137 1.863 . S
C288 C85 1.805 . S
C327 C177 1.883 . S
C315 C52 1.739 . S
C354 C217 1.873 1_455 S
C342 C63 1.788 . S
C381 C106 1.880 1_565 S
C369 C30 1.801 1_565 S
C396 C41 1.796 . S
C408 C146 1.885 . S
C423 C8 1.813 . S
C435 C186 1.883 . S
C450 C19 1.784 . S
C462 C226 1.865 . S
C489 C103 0.672 . S
C477 C62 0.557 1_655 S
C516 C143 0.534 . S
C504 C73 0.597 . S
C543 C183 0.555 . S
C531 C84 0.576 . S
C558 C51 0.591 . S
C570 C223 0.676 . S
C585 C18 0.520 . S
C597 C94 0.666 . S
C624 C134 0.672 . S
C612 C29 0.597 . S
C651 C174 0.589 . S
C639 C40 0.710 . S
C666 C7 0.706 . S
C678 C214 0.538 . S
C693 C60 1.645 . S
C705 C107 2.246 . S
C720 C71 1.766 1_565 S
C732 C147 2.216 . S
C759 C187 2.243 . S
C747 C82 1.634 . S
C786 C227 2.251 . S
C774 C49 1.641 . S
C801 C16 1.719 1_655 S
C813 C98 2.234 . S
C840 C138 2.230 . S
C828 C27 1.704 1_565 S
C867 C178 2.216 . S
C855 C38 1.714 . S
C882 C5 1.794 . S
C894 C218 2.255 . S
