# Generated by pormake.
# Topology gar, (4,6)-cn, num edge types: 1
# Building blocks:
#     Node 0, Type 0, BuildingBlock: KUFVIS_clean_sbu_0, # of connection points: 4
#     Node 1, Type 0, BuildingBlock: KUFVIS_clean_sbu_0, # of connection points: 4
#     Node 2, Type 0, BuildingBlock: KUFVIS_clean_sbu_0, # of connection points: 4
#     Node 3, Type 0, BuildingBlock: KUFVIS_clean_sbu_0, # of connection points: 4
#     Node 4, Type 0, BuildingBlock: KUFVIS_clean_sbu_0, # of connection points: 4
#     Node 5, Type 0, BuildingBlock: KUFVIS_clean_sbu_0, # of connection points: 4
#     Node 6, Type 0, BuildingBlock: KUFVIS_clean_sbu_0, # of connection points: 4
#     Node 7, Type 0, BuildingBlock: KUFVIS_clean_sbu_0, # of connection points: 4
#     Node 8, Type 0, BuildingBlock: KUFVIS_clean_sbu_0, # of connection points: 4
#     Node 9, Type 0, BuildingBlock: KUFVIS_clean_sbu_0, # of connection points: 4
#     Node 10, Type 0, BuildingBlock: KUFVIS_clean_sbu_0, # of connection points: 4
#     Node 11, Type 0, BuildingBlock: KUFVIS_clean_sbu_0, # of connection points: 4
#     Node 12, Type 0, BuildingBlock: KUFVIS_clean_sbu_0, # of connection points: 4
#     Node 13, Type 0, BuildingBlock: KUFVIS_clean_sbu_0, # of connection points: 4
#     Node 14, Type 0, BuildingBlock: KUFVIS_clean_sbu_0, # of connection points: 4
#     Node 15, Type 0, BuildingBlock: KUFVIS_clean_sbu_0, # of connection points: 4
#     Node 16, Type 0, BuildingBlock: KUFVIS_clean_sbu_0, # of connection points: 4
#     Node 17, Type 0, BuildingBlock: KUFVIS_clean_sbu_0, # of connection points: 4
#     Node 18, Type 0, BuildingBlock: KUFVIS_clean_sbu_0, # of connection points: 4
#     Node 19, Type 0, BuildingBlock: KUFVIS_clean_sbu_0, # of connection points: 4
#     Node 20, Type 0, BuildingBlock: KUFVIS_clean_sbu_0, # of connection points: 4
#     Node 21, Type 0, BuildingBlock: KUFVIS_clean_sbu_0, # of connection points: 4
#     Node 22, Type 0, BuildingBlock: KUFVIS_clean_sbu_0, # of connection points: 4
#     Node 23, Type 0, BuildingBlock: KUFVIS_clean_sbu_0, # of connection points: 4
#     Node 24, Type 1, BuildingBlock: HISSIN_clean_sbu_0, # of connection points: 6
#     Node 25, Type 1, BuildingBlock: HISSIN_clean_sbu_0, # of connection points: 6
#     Node 26, Type 1, BuildingBlock: HISSIN_clean_sbu_0, # of connection points: 6
#     Node 27, Type 1, BuildingBlock: HISSIN_clean_sbu_0, # of connection points: 6
#     Node 28, Type 1, BuildingBlock: HISSIN_clean_sbu_0, # of connection points: 6
#     Node 29, Type 1, BuildingBlock: HISSIN_clean_sbu_0, # of connection points: 6
#     Node 30, Type 1, BuildingBlock: HISSIN_clean_sbu_0, # of connection points: 6
#     Node 31, Type 1, BuildingBlock: HISSIN_clean_sbu_0, # of connection points: 6
#     Node 32, Type 1, BuildingBlock: HISSIN_clean_sbu_0, # of connection points: 6
#     Node 33, Type 1, BuildingBlock: HISSIN_clean_sbu_0, # of connection points: 6
#     Node 34, Type 1, BuildingBlock: HISSIN_clean_sbu_0, # of connection points: 6
#     Node 35, Type 1, BuildingBlock: HISSIN_clean_sbu_0, # of connection points: 6
#     Node 36, Type 1, BuildingBlock: HISSIN_clean_sbu_0, # of connection points: 6
#     Node 37, Type 1, BuildingBlock: HISSIN_clean_sbu_0, # of connection points: 6
#     Node 38, Type 1, BuildingBlock: HISSIN_clean_sbu_0, # of connection points: 6
#     Node 39, Type 1, BuildingBlock: HISSIN_clean_sbu_0, # of connection points: 6
#     Edge 40, Type (0, 1), BuildingBlock: OJICUG_clean_linker_0, # of connection points: 2
#     Edge 41, Type (0, 1), BuildingBlock: OJICUG_clean_linker_0, # of connection points: 2
#     Edge 42, Type (0, 1), BuildingBlock: OJICUG_clean_linker_0, # of connection points: 2
#     Edge 43, Type (0, 1), BuildingBlock: OJICUG_clean_linker_0, # of connection points: 2
#     Edge 44, Type (0, 1), BuildingBlock: OJICUG_clean_linker_0, # of connection points: 2
#     Edge 45, Type (0, 1), BuildingBlock: OJICUG_clean_linker_0, # of connection points: 2
#     Edge 46, Type (0, 1), BuildingBlock: OJICUG_clean_linker_0, # of connection points: 2
#     Edge 47, Type (0, 1), BuildingBlock: OJICUG_clean_linker_0, # of connection points: 2
#     Edge 48, Type (0, 1), BuildingBlock: OJICUG_clean_linker_0, # of connection points: 2
#     Edge 49, Type (0, 1), BuildingBlock: OJICUG_clean_linker_0, # of connection points: 2
#     Edge 50, Type (0, 1), BuildingBlock: OJICUG_clean_linker_0, # of connection points: 2
#     Edge 51, Type (0, 1), BuildingBlock: OJICUG_clean_linker_0, # of connection points: 2
#     Edge 52, Type (0, 1), BuildingBlock: OJICUG_clean_linker_0, # of connection points: 2
#     Edge 53, Type (0, 1), BuildingBlock: OJICUG_clean_linker_0, # of connection points: 2
#     Edge 54, Type (0, 1), BuildingBlock: OJICUG_clean_linker_0, # of connection points: 2
#     Edge 55, Type (0, 1), BuildingBlock: OJICUG_clean_linker_0, # of connection points: 2
#     Edge 56, Type (0, 1), BuildingBlock: OJICUG_clean_linker_0, # of connection points: 2
#     Edge 57, Type (0, 1), BuildingBlock: OJICUG_clean_linker_0, # of connection points: 2
#     Edge 58, Type (0, 1), BuildingBlock: OJICUG_clean_linker_0, # of connection points: 2
#     Edge 59, Type (0, 1), BuildingBlock: OJICUG_clean_linker_0, # of connection points: 2
#     Edge 60, Type (0, 1), BuildingBlock: OJICUG_clean_linker_0, # of connection points: 2
#     Edge 61, Type (0, 1), BuildingBlock: OJICUG_clean_linker_0, # of connection points: 2
#     Edge 62, Type (0, 1), BuildingBlock: OJICUG_clean_linker_0, # of connection points: 2
#     Edge 63, Type (0, 1), BuildingBlock: OJICUG_clean_linker_0, # of connection points: 2
#     Edge 64, Type (0, 1), BuildingBlock: OJICUG_clean_linker_0, # of connection points: 2
#     Edge 65, Type (0, 1), BuildingBlock: OJICUG_clean_linker_0, # of connection points: 2
#     Edge 66, Type (0, 1), BuildingBlock: OJICUG_clean_linker_0, # of connection points: 2
#     Edge 67, Type (0, 1), BuildingBlock: OJICUG_clean_linker_0, # of connection points: 2
#     Edge 68, Type (0, 1), BuildingBlock: OJICUG_clean_linker_0, # of connection points: 2
#     Edge 69, Type (0, 1), BuildingBlock: OJICUG_clean_linker_0, # of connection points: 2
#     Edge 70, Type (0, 1), BuildingBlock: OJICUG_clean_linker_0, # of connection points: 2
#     Edge 71, Type (0, 1), BuildingBlock: OJICUG_clean_linker_0, # of connection points: 2
#     Edge 72, Type (0, 1), BuildingBlock: OJICUG_clean_linker_0, # of connection points: 2
#     Edge 73, Type (0, 1), BuildingBlock: OJICUG_clean_linker_0, # of connection points: 2
#     Edge 74, Type (0, 1), BuildingBlock: OJICUG_clean_linker_0, # of connection points: 2
#     Edge 75, Type (0, 1), BuildingBlock: OJICUG_clean_linker_0, # of connection points: 2
#     Edge 76, Type (0, 1), BuildingBlock: OJICUG_clean_linker_0, # of connection points: 2
#     Edge 77, Type (0, 1), BuildingBlock: OJICUG_clean_linker_0, # of connection points: 2
#     Edge 78, Type (0, 1), BuildingBlock: OJICUG_clean_linker_0, # of connection points: 2
#     Edge 79, Type (0, 1), BuildingBlock: OJICUG_clean_linker_0, # of connection points: 2
#     Edge 80, Type (0, 1), BuildingBlock: OJICUG_clean_linker_0, # of connection points: 2
#     Edge 81, Type (0, 1), BuildingBlock: OJICUG_clean_linker_0, # of connection points: 2
#     Edge 82, Type (0, 1), BuildingBlock: OJICUG_clean_linker_0, # of connection points: 2
#     Edge 83, Type (0, 1), BuildingBlock: OJICUG_clean_linker_0, # of connection points: 2
#     Edge 84, Type (0, 1), BuildingBlock: OJICUG_clean_linker_0, # of connection points: 2
#     Edge 85, Type (0, 1), BuildingBlock: OJICUG_clean_linker_0, # of connection points: 2
#     Edge 86, Type (0, 1), BuildingBlock: OJICUG_clean_linker_0, # of connection points: 2
#     Edge 87, Type (0, 1), BuildingBlock: OJICUG_clean_linker_0, # of connection points: 2
#     Edge 88, Type (0, 1), BuildingBlock: OJICUG_clean_linker_0, # of connection points: 2
#     Edge 89, Type (0, 1), BuildingBlock: OJICUG_clean_linker_0, # of connection points: 2
#     Edge 90, Type (0, 1), BuildingBlock: OJICUG_clean_linker_0, # of connection points: 2
#     Edge 91, Type (0, 1), BuildingBlock: OJICUG_clean_linker_0, # of connection points: 2
#     Edge 92, Type (0, 1), BuildingBlock: OJICUG_clean_linker_0, # of connection points: 2
#     Edge 93, Type (0, 1), BuildingBlock: OJICUG_clean_linker_0, # of connection points: 2
#     Edge 94, Type (0, 1), BuildingBlock: OJICUG_clean_linker_0, # of connection points: 2
#     Edge 95, Type (0, 1), BuildingBlock: OJICUG_clean_linker_0, # of connection points: 2
#     Edge 96, Type (0, 1), BuildingBlock: OJICUG_clean_linker_0, # of connection points: 2
#     Edge 97, Type (0, 1), BuildingBlock: OJICUG_clean_linker_0, # of connection points: 2
#     Edge 98, Type (0, 1), BuildingBlock: OJICUG_clean_linker_0, # of connection points: 2
#     Edge 99, Type (0, 1), BuildingBlock: OJICUG_clean_linker_0, # of connection points: 2
#     Edge 100, Type (0, 1), BuildingBlock: OJICUG_clean_linker_0, # of connection points: 2
#     Edge 101, Type (0, 1), BuildingBlock: OJICUG_clean_linker_0, # of connection points: 2
#     Edge 102, Type (0, 1), BuildingBlock: OJICUG_clean_linker_0, # of connection points: 2
#     Edge 103, Type (0, 1), BuildingBlock: OJICUG_clean_linker_0, # of connection points: 2
#     Edge 104, Type (0, 1), BuildingBlock: OJICUG_clean_linker_0, # of connection points: 2
#     Edge 105, Type (0, 1), BuildingBlock: OJICUG_clean_linker_0, # of connection points: 2
#     Edge 106, Type (0, 1), BuildingBlock: OJICUG_clean_linker_0, # of connection points: 2
#     Edge 107, Type (0, 1), BuildingBlock: OJICUG_clean_linker_0, # of connection points: 2
#     Edge 108, Type (0, 1), BuildingBlock: OJICUG_clean_linker_0, # of connection points: 2
#     Edge 109, Type (0, 1), BuildingBlock: OJICUG_clean_linker_0, # of connection points: 2
#     Edge 110, Type (0, 1), BuildingBlock: OJICUG_clean_linker_0, # of connection points: 2
#     Edge 111, Type (0, 1), BuildingBlock: OJICUG_clean_linker_0, # of connection points: 2
#     Edge 112, Type (0, 1), BuildingBlock: OJICUG_clean_linker_0, # of connection points: 2
#     Edge 113, Type (0, 1), BuildingBlock: OJICUG_clean_linker_0, # of connection points: 2
#     Edge 114, Type (0, 1), BuildingBlock: OJICUG_clean_linker_0, # of connection points: 2
#     Edge 115, Type (0, 1), BuildingBlock: OJICUG_clean_linker_0, # of connection points: 2
#     Edge 116, Type (0, 1), BuildingBlock: OJICUG_clean_linker_0, # of connection points: 2
#     Edge 117, Type (0, 1), BuildingBlock: OJICUG_clean_linker_0, # of connection points: 2
#     Edge 118, Type (0, 1), BuildingBlock: OJICUG_clean_linker_0, # of connection points: 2
#     Edge 119, Type (0, 1), BuildingBlock: OJICUG_clean_linker_0, # of connection points: 2
#     Edge 120, Type (0, 1), BuildingBlock: OJICUG_clean_linker_0, # of connection points: 2
#     Edge 121, Type (0, 1), BuildingBlock: OJICUG_clean_linker_0, # of connection points: 2
#     Edge 122, Type (0, 1), BuildingBlock: OJICUG_clean_linker_0, # of connection points: 2
#     Edge 123, Type (0, 1), BuildingBlock: OJICUG_clean_linker_0, # of connection points: 2
#     Edge 124, Type (0, 1), BuildingBlock: OJICUG_clean_linker_0, # of connection points: 2
#     Edge 125, Type (0, 1), BuildingBlock: OJICUG_clean_linker_0, # of connection points: 2
#     Edge 126, Type (0, 1), BuildingBlock: OJICUG_clean_linker_0, # of connection points: 2
#     Edge 127, Type (0, 1), BuildingBlock: OJICUG_clean_linker_0, # of connection points: 2
#     Edge 128, Type (0, 1), BuildingBlock: OJICUG_clean_linker_0, # of connection points: 2
#     Edge 129, Type (0, 1), BuildingBlock: OJICUG_clean_linker_0, # of connection points: 2
#     Edge 130, Type (0, 1), BuildingBlock: OJICUG_clean_linker_0, # of connection points: 2
#     Edge 131, Type (0, 1), BuildingBlock: OJICUG_clean_linker_0, # of connection points: 2
#     Edge 132, Type (0, 1), BuildingBlock: OJICUG_clean_linker_0, # of connection points: 2
#     Edge 133, Type (0, 1), BuildingBlock: OJICUG_clean_linker_0, # of connection points: 2
#     Edge 134, Type (0, 1), BuildingBlock: OJICUG_clean_linker_0, # of connection points: 2
#     Edge 135, Type (0, 1), BuildingBlock: OJICUG_clean_linker_0, # of connection points: 2
# Relax obj value: 0.239
# Max RMSD: 0.332
# Mean RMSD: 0.155
data_MOF--net-gar--node1-KUFVIS_clean_sbu_0--node2-HISSIN_clean_sbu_0--edge1-OJICUG_clean_linker_0
_symmetry_space_group_name_H-M    P1
_symmetry_Int_Tables_number       1
_symmetry_cell_setting            triclinic
loop_
_symmetry_equiv_pos_as_xyz
'x, y, z'
_cell_length_a     44.116047
_cell_length_b     44.159604
_cell_length_c     43.79993
_cell_angle_alpha  100.1016
_cell_angle_beta   92.52903
_cell_angle_gamma 100.629
loop_
_atom_site_label
_atom_site_type_symbol
_atom_site_fract_x
_atom_site_fract_y
_atom_site_fract_z
_atom_type_partial_charge
Mn0 Mn 0.1456 0.35855 0.4115 0.0
Mn1 Mn 0.15391 0.39725 0.35124 0.0
C2 C 0.10371 0.3723 0.38814 0.0
C3 C 0.13579 0.31493 0.43611 0.0
C4 C 0.16415 0.42984 0.41743 0.0
O5 O 0.18675 0.34982 0.39664 0.0
O6 O 0.19208 0.38388 0.36377 0.0
C7 C 0.16081 0.34112 0.30553 0.0
N8 N 0.14692 0.36614 0.31387 0.0
C9 C 0.11739 0.35483 0.26429 0.0
C10 C 0.13159 0.32914 0.25514 0.0
C11 C 0.15324 0.32213 0.27595 0.0
C12 C 0.1254 0.37252 0.29433 0.0
H13 H 0.17754 0.33559 0.32121 0.0
C14 C 0.2024 0.36473 0.37821 0.0
O15 O 0.1514 0.34188 0.45031 0.0
O16 O 0.12738 0.31264 0.40682 0.0
N17 N 0.11996 0.41253 0.33484 0.0
C18 C 0.10943 0.43903 0.34656 0.0
C19 C 0.08862 0.45007 0.32816 0.0
C20 C 0.07939 0.43426 0.29757 0.0
C21 C 0.09092 0.40739 0.28571 0.0
C22 C 0.11174 0.39757 0.30513 0.0
H23 H 0.11687 0.45174 0.3698 0.0
O24 O 0.10359 0.36803 0.41671 0.0
O25 O 0.128 0.368 0.3734 0.0
O26 O 0.16473 0.40481 0.42803 0.0
O27 O 0.15971 0.43014 0.38855 0.0
C28 C 0.08291 0.39025 0.25523 0.0
C29 C 0.09582 0.36375 0.24467 0.0
H30 H 0.12606 0.31465 0.2322 0.0
H31 H 0.16425 0.30228 0.26914 0.0
H32 H 0.07992 0.47089 0.33744 0.0
H33 H 0.06353 0.44302 0.28337 0.0
H34 H 0.06679 0.39723 0.23972 0.0
H35 H 0.08932 0.35063 0.22126 0.0
Mn36 Mn 0.04919 0.7654 0.65969 0.0
Mn37 Mn 0.08607 0.82366 0.716 0.0
C38 C 0.10045 0.76837 0.67505 0.0
C39 C 1.02497 0.71397 0.64153 0.0
C40 C 0.06982 0.83278 0.65046 0.0
O41 O 1.01371 0.77956 0.68272 0.0
O42 O 0.04075 0.81677 0.72147 0.0
C43 C 0.07382 0.79368 0.77089 0.0
N44 N 0.09429 0.80704 0.75238 0.0
C45 C 0.13753 0.79962 0.78378 0.0
C46 C 0.11692 0.78595 0.80325 0.0
C47 C 0.08493 0.78288 0.7967 0.0
C48 C 0.12512 0.80982 0.75831 0.0
H49 H 0.0492 0.79119 0.76598 0.0
C50 C 1.01535 0.79932 0.70823 0.0
O51 O 1.02209 0.73586 0.62589 0.0
O52 O 0.03791 0.72292 0.66963 0.0
N53 N 0.13 0.83093 0.71327 0.0
C54 C 0.14682 0.84322 0.6914 0.0
C55 C 0.1792 0.84713 0.6942 0.0
C56 C 0.19399 0.83846 0.71943 0.0
C57 C 0.17624 0.82591 0.74166 0.0
C58 C 0.14403 0.8226 0.7377 0.0
H59 H 0.13567 0.84994 0.67192 0.0
O60 O 0.08962 0.75479 0.64701 0.0
O61 O 0.08138 0.78158 0.69183 0.0
O62 O 0.05731 0.80429 0.64003 0.0
O63 O 0.07997 0.84292 0.67892 0.0
C64 C 0.18923 0.81633 0.76744 0.0
C65 C 0.1699 0.80331 0.78854 0.0
H66 H 0.12539 0.77756 0.82316 0.0
H67 H 0.06886 0.77221 0.81153 0.0
H68 H 0.19274 0.85679 0.67691 0.0
H69 H 0.21897 0.84139 0.72143 0.0
H70 H 0.21406 0.81876 0.77116 0.0
H71 H 0.18017 0.79607 0.8083 0.0
Mn72 Mn 0.64957 0.85762 0.91766 0.0
Mn73 Mn 0.65672 0.89828 0.85882 0.0
C74 C 0.60694 0.87001 0.89427 0.0
C75 C 0.64079 0.81302 0.94055 0.0
C76 C 0.66585 0.92917 0.9259 0.0
O77 O 0.69134 0.85074 0.90264 0.0
O78 O 0.69542 0.88507 0.87 0.0
C79 C 0.66455 0.84431 0.81079 0.0
N80 N 0.65001 0.86858 0.82047 0.0
C81 C 0.62046 0.85907 0.77105 0.0
C82 C 0.63533 0.83419 0.76053 0.0
C83 C 0.6573 0.82663 0.78059 0.0
C84 C 0.62817 0.87543 0.80164 0.0
H85 H 0.68157 0.83841 0.82588 0.0
C86 C 0.70626 0.86575 0.88381 0.0
O87 O 0.65572 0.83988 0.95568 0.0
O88 O 0.63277 0.81142 0.91129 0.0
N89 N 0.6219 0.91328 0.84388 0.0
C90 C 0.61025 0.93858 0.85715 0.0
C91 C 0.58827 0.94942 0.83995 0.0
C92 C 0.5792 0.93484 0.80894 0.0
C93 C 0.59217 0.90949 0.79542 0.0
C94 C 0.61377 0.89952 0.8138 0.0
H95 H 0.61765 0.95045 0.88072 0.0
O96 O 0.6068 0.8651 0.92263 0.0
O97 O 0.6318 0.86742 0.87994 0.0
O98 O 0.66664 0.90397 0.93608 0.0
O99 O 0.66226 0.93001 0.89706 0.0
C100 C 0.58475 0.89395 0.7643 0.0
C101 C 0.59854 0.86846 0.75226 0.0
H102 H 0.63006 0.82074 0.7371 0.0
H103 H 0.66882 0.80739 0.77271 0.0
H104 H 0.57858 0.96918 0.85048 0.0
H105 H 0.56237 0.9434 0.79569 0.0
H106 H 0.56831 0.90128 0.74945 0.0
H107 H 0.59235 0.85646 0.72842 0.0
Mn108 Mn 0.55608 0.28906 0.1669 0.0
Mn109 Mn 0.50427 0.25338 0.10683 0.0
C110 C 0.55102 0.23574 0.1482 0.0
C111 C 0.60335 0.31636 0.19046 0.0
C112 C 0.48696 0.27517 0.17234 0.0
O113 O 0.54874 0.32494 0.14618 0.0
O114 O 0.51715 0.29863 0.10418 0.0
C115 C 0.54247 0.25924 0.05334 0.0
N116 N 0.52433 0.24091 0.07013 0.0
C117 C 0.52889 0.19399 0.03466 0.0
C118 C 0.54749 0.21239 1.01697 0.0
C119 C 0.55434 0.24514 0.02639 0.0
C120 C 0.51755 0.20935 0.06122 0.0
H121 H 0.54794 0.28442 0.06045 0.0
C122 C 0.53459 0.32363 0.11975 0.0
O123 O 0.57784 0.31818 0.2034 0.0
O124 O 0.60141 0.29961 0.16253 0.0
N125 N 0.4916 0.20936 0.10637 0.0
C126 C 0.4756 0.19477 0.12737 0.0
C127 C 0.46784 0.16189 0.12195 0.0
C128 C 0.4767 0.14432 0.09509 0.0
C129 C 0.49346 0.1598 0.07397 0.0
C130 C 0.50027 0.19264 0.08044 0.0
H131 H 0.46895 0.20808 0.14819 0.0
O132 O 0.56147 0.2475 0.17687 0.0
O133 O 0.54294 0.25535 0.13204 0.0
O134 O 0.51446 0.28458 0.18385 0.0
O135 O 0.48004 0.26402 0.14341 0.0
C136 C 0.50414 0.14391 0.04705 0.0
C137 C 0.52183 0.16099 0.02741 0.0
H138 H 0.5569 0.20159 0.9963 0.0
H139 H 0.56881 0.2595 1.01294 0.0
H140 H 0.45514 0.1501 0.1385 0.0
H141 H 0.47077 0.11898 0.09112 0.0
H142 H 0.49922 0.11857 0.04139 0.0
H143 H 0.53028 0.14846 1.00704 0.0
Mn144 Mn 0.1664 0.80343 0.1542 0.0
Mn145 Mn 0.12616 0.77276 0.08479 0.0
C146 C 0.1528 0.74983 0.13883 0.0
C147 C 0.2109 0.82478 0.18572 0.0
C148 C 0.09727 0.80052 0.14189 0.0
O149 O 0.17166 0.84033 0.13206 0.0
O150 O 0.14795 0.8159 0.0854 0.0
C151 C 0.17968 0.77085 0.04647 0.0
N152 N 0.15278 0.75614 0.05592 0.0
C153 C 0.15351 0.70872 0.01962 0.0
C154 C 0.18115 0.72335 1.00934 0.0
C155 C 0.19442 0.75449 0.02301 0.0
C156 C 0.14027 0.72599 0.04353 0.0
H157 H 0.18972 0.79489 0.0567 0.0
C158 C 0.16393 0.83977 0.10363 0.0
O159 O 0.18438 0.83094 0.19333 0.0
O160 O 0.21191 0.80659 0.15909 0.0
N161 N 0.10353 0.7308 0.07969 0.0
C162 C 0.07689 0.72021 0.09238 0.0
C163 C 0.06004 0.68994 0.08067 0.0
C164 C 0.07054 0.67109 0.05579 0.0
C165 C 0.09809 0.68235 0.0431 0.0
C166 C 0.11374 0.71282 0.0556 0.0
H167 H 0.06848 0.73475 0.11122 0.0
O168 O 0.15979 0.76225 0.16798 0.0
O169 O 0.15472 0.76895 0.11924 0.0
O170 O 0.12187 0.80634 0.15975 0.0
O171 O 0.096 0.78858 0.113 0.0
C172 C 0.11051 0.6648 0.0184 0.0
C173 C 0.13842 0.67779 1.00697 0.0
H174 H 0.19237 0.71091 0.99099 0.0
H175 H 0.21577 0.76593 1.01526 0.0
H176 H 0.03884 0.68129 0.09057 0.0
H177 H 0.05712 0.6481 0.04674 0.0
H178 H 0.09892 0.64132 1.00795 0.0
H179 H 0.14788 0.6639 0.98821 0.0
Mn180 Mn 0.56388 0.8533 0.44795 0.0
Mn181 Mn 0.55695 0.88785 0.38544 0.0
C182 C 0.52485 0.83063 0.4096 0.0
C183 C 0.58638 0.82448 0.4781 0.0
C184 C 0.53077 0.90809 0.44648 0.0
O185 O 0.60486 0.88392 0.45122 0.0
O186 O 0.59768 0.90413 0.40883 0.0
C187 C 0.60502 0.85956 0.35211 0.0
N188 N 0.57573 0.8654 0.35246 0.0
C189 C 0.56362 0.83924 0.29919 0.0
C190 C 0.59371 0.83321 0.29817 0.0
C191 C 0.61445 0.84327 0.32483 0.0
C192 C 0.55538 0.85506 0.32725 0.0
H193 H 0.62112 0.86719 0.37247 0.0
C194 C 0.61447 0.90167 0.43236 0.0
O195 O 0.57312 0.847 0.4901 0.0
O196 O 0.58653 0.81814 0.44786 0.0
N197 N 0.51989 0.87579 0.35844 0.0
C198 C 0.49312 0.88676 0.36215 0.0
C199 C 0.47089 0.88105 0.33689 0.0
C200 C 0.47628 0.86418 0.30807 0.0
C201 C 0.5044 0.85419 0.30437 0.0
C202 C 0.52612 0.86136 0.33013 0.0
H203 H 0.48904 0.90043 0.38401 0.0
O204 O 0.52422 0.82336 0.43705 0.0
O205 O 0.54981 0.84945 0.40421 0.0
O206 O 0.54067 0.88814 0.45975 0.0
O207 O 0.53627 0.91137 0.41866 0.0
C208 C 0.51208 0.83826 0.27587 0.0
C209 C 0.54158 0.83048 0.27337 0.0
H210 H 0.60114 0.82094 0.27705 0.0
H211 H 0.6377 0.83865 0.32431 0.0
H212 H 0.44997 0.89015 0.33952 0.0
H213 H 0.45899 0.85951 0.28873 0.0
H214 H 0.49556 0.83216 0.25566 0.0
H215 H 0.54728 0.8183 0.25134 0.0
Mn216 Mn 0.66451 0.3013 0.64844 0.0
Mn217 Mn 0.62492 0.26995 0.57888 0.0
C218 C 0.64986 0.24762 0.63428 0.0
C219 C 0.70864 0.32289 0.68056 0.0
C220 C 0.59593 0.3001 0.63481 0.0
O221 O 0.67091 0.3374 0.62519 0.0
O222 O 0.64805 0.31236 0.57837 0.0
C223 C 0.67848 0.26482 0.54113 0.0
N224 N 0.65117 0.2514 0.55083 0.0
C225 C 0.65062 0.20267 0.51605 0.0
C226 C 0.67871 0.21594 0.50556 0.0
C227 C 0.69281 0.2471 0.51833 0.0
C228 C 0.6378 0.22128 0.53924 0.0
H229 H 0.68914 0.28889 0.55063 0.0
C230 C 0.66392 0.33639 0.59648 0.0
O231 O 0.68209 0.32957 0.68722 0.0
O232 O 0.70995 0.3039 0.65449 0.0
N233 N 0.60109 0.2287 0.5749 0.0
C234 C 0.57431 0.21948 0.58794 0.0
C235 C 0.55671 0.18942 0.57721 0.0
C236 C 0.56662 0.16929 0.55294 0.0
C237 C 0.59441 0.17913 0.53994 0.0
C238 C 0.61084 0.20951 0.55147 0.0
H239 H 0.56643 0.23491 0.60642 0.0
O240 O 0.65672 0.26067 0.6633 0.0
O241 O 0.65263 0.26617 0.61411 0.0
O242 O 0.62014 0.30528 0.6531 0.0
O243 O 0.59494 0.28775 0.60605 0.0
C244 C 0.60643 0.1602 0.51597 0.0
C245 C 0.63471 0.1718 0.50431 0.0
H246 H 0.68964 0.20245 0.48774 0.0
H247 H 0.7145 0.25751 0.51038 0.0
H248 H 0.53548 0.18196 0.58756 0.0
H249 H 0.55265 0.14643 0.54467 0.0
H250 H 0.59426 0.13671 0.50632 0.0
H251 H 0.64386 0.15688 0.48614 0.0
Mn252 Mn 0.05702 0.34715 0.94724 0.0
Mn253 Mn 0.05219 0.38067 0.88367 0.0
C254 C 1.01686 0.3263 0.90974 0.0
C255 C 0.07663 0.31699 0.97793 0.0
C256 C 0.02921 0.40533 0.94508 0.0
O257 O 0.09976 0.3745 0.94901 0.0
O258 O 0.09346 0.39455 0.90625 0.0
C259 C 0.09694 0.3477 0.84972 0.0
N260 N 0.06857 0.35576 0.85059 0.0
C261 C 0.05428 0.32952 0.79763 0.0
C262 C 0.08337 0.32105 0.7961 0.0
C263 C 0.10474 0.33007 0.82233 0.0
C264 C 0.04762 0.34657 0.82578 0.0
H265 H 0.11354 0.35467 0.86972 0.0
C266 C 0.10995 0.39157 0.92975 0.0
O267 O 0.06566 0.34124 0.98965 0.0
O268 O 0.07624 0.30974 0.9477 0.0
N269 N 1.01459 0.37077 0.85754 0.0
C270 C 0.98905 0.38383 0.86177 0.0
C271 C 0.96657 0.37946 0.83694 0.0
C272 C 0.97048 0.3618 0.80798 0.0
C273 C 0.99734 0.34946 0.80379 0.0
C274 C 1.01941 0.35534 0.82915 0.0
H275 H 0.98617 0.39812 0.88371 0.0
O276 O 1.01566 0.32012 0.93761 0.0
O277 O 0.04272 0.3431 0.90354 0.0
O278 O 0.03735 0.38474 0.95871 0.0
O279 O 0.03421 0.40705 0.91683 0.0
C280 C 1.00345 0.33234 0.77521 0.0
C281 C 0.03178 0.32206 0.77223 0.0
H282 H 0.08957 0.30774 0.77489 0.0
H283 H 0.12725 0.32365 0.82137 0.0
H284 H 0.94662 0.39021 0.83998 0.0
H285 H 0.95304 0.35828 0.78895 0.0
H286 H 0.98661 0.32718 0.75531 0.0
H287 H 0.03628 0.30895 0.75013 0.0
Mn288 Mn 0.45117 0.0499 0.34845 0.0
Mn289 Mn 0.39817 0.05586 0.40102 0.0
C290 C 0.42989 1.00683 0.36871 0.0
C291 C 0.4656 0.04264 0.29805 0.0
C292 C 0.46684 0.08243 0.4156 0.0
O293 O 0.43576 0.08915 0.34284 0.0
O294 O 0.39659 0.08777 0.37441 0.0
C295 C 0.33959 0.03845 0.36067 0.0
N296 N 0.35809 0.03302 0.38406 0.0
C297 C 0.32035 0.98846 0.39118 0.0
C298 C 0.30088 0.99368 0.36727 0.0
C299 C 0.31055 1.01879 0.35197 0.0
C300 C 0.34887 1.00911 0.39918 0.0
H301 H 0.34695 0.05756 0.34864 0.0
C302 C 0.41169 0.09845 0.35292 0.0
O303 O 0.4845 0.05876 0.32112 0.0
O304 O 0.43788 0.03043 0.30408 0.0
N305 N 0.39723 1.02481 0.42673 0.0
C306 C 0.41975 1.02133 0.44744 0.0
C307 C 0.41431 0.99636 0.46366 0.0
C308 C 0.38582 0.9752 0.45843 0.0
C309 C 0.36302 0.97918 0.43696 0.0
C310 C 0.36966 1.00465 0.42164 0.0
H311 H 0.44182 0.03728 0.4514 0.0
O312 O 0.45665 1.00831 0.35712 0.0
O313 O 0.41679 0.03074 0.36829 0.0
O314 O 0.47494 0.07145 0.38923 0.0
O315 O 0.43857 0.07969 0.42186 0.0
C316 C 0.33427 0.9584 0.42962 0.0
C317 C 0.31293 0.96308 0.40679 0.0
H318 H 0.27861 0.97834 0.36024 0.0
H319 H 0.29572 1.02287 0.33338 0.0
H320 H 0.43212 0.99331 0.48001 0.0
H321 H 0.38182 0.95578 0.47077 0.0
H322 H 0.32851 0.93849 0.44107 0.0
H323 H 0.29108 0.94669 0.40105 0.0
Mn324 Mn 0.29949 0.22904 0.52115 0.0
Mn325 Mn 0.29604 0.162 0.46827 0.0
C326 C 0.25129 0.19459 0.50448 0.0
C327 C 0.30647 0.2529 0.57647 0.0
C328 C 0.31008 0.2271 0.45011 0.0
O329 O 0.34352 0.22106 0.52361 0.0
O330 O 0.33685 0.17313 0.4928 0.0
C331 C 0.29967 0.11561 0.50897 0.0
N332 N 0.28423 0.12545 0.48611 0.0
C333 C 0.24401 0.0793 0.47925 0.0
C334 C 0.25951 0.06869 0.50269 0.0
C335 C 0.28744 0.08694 0.51762 0.0
C336 C 0.25749 0.10791 0.47136 0.0
H337 H 0.32114 0.12954 0.52055 0.0
C338 C 0.35281 0.19576 0.51292 0.0
O339 O 0.31132 0.26943 0.55469 0.0
O340 O 0.29695 0.22325 0.56624 0.0
N341 N 0.25691 0.14881 0.44441 0.0
C342 C 0.24344 0.16375 0.42442 0.0
C343 C 0.21443 0.1495 0.40891 0.0
C344 C 0.19959 0.12005 0.41407 0.0
C345 C 0.21386 0.10516 0.43481 0.0
C346 C 0.24285 0.12044 0.44951 0.0
H347 H 0.25462 0.18646 0.42048 0.0
O348 O 0.25248 0.22394 0.51631 0.0
O349 O 0.27817 0.18701 0.50168 0.0
O350 O 0.30581 0.24329 0.47681 0.0
O351 O 0.30805 0.19742 0.44623 0.0
C352 C 0.20012 0.0761 0.44202 0.0
C353 C 0.21523 0.06313 0.46414 0.0
H354 H 0.24999 0.04675 0.50967 0.0
H355 H 0.29948 0.07896 0.5358 0.0
H356 H 0.20348 0.16122 0.39307 0.0
H357 H 0.17711 0.10925 0.40224 0.0
H358 H 0.1777 0.06376 0.43104 0.0
H359 H 0.20419 0.04103 0.46985 0.0
Mn360 Mn 0.20928 0.05438 0.77362 0.0
Mn361 Mn 0.26801 0.07122 0.83045 0.0
C362 C 0.23978 0.11064 0.78911 0.0
C363 C 0.18314 0.04775 0.71709 0.0
C364 C 0.19888 0.05867 0.84827 0.0
O365 O 0.22542 1.00742 0.77278 0.0
O366 O 0.26366 1.02371 0.81104 0.0
C367 C 0.32042 0.06148 0.79213 0.0
N368 N 0.30723 0.08025 0.8135 0.0
C369 C 0.35153 0.12226 0.81811 0.0
C370 C 0.36583 0.10308 0.79671 0.0
C371 C 0.35012 0.07261 0.78355 0.0
C372 C 0.32202 0.10976 0.82607 0.0
H373 H 0.30832 0.03826 0.78147 0.0
C374 C 0.24865 1.00095 0.78968 0.0
O375 O 0.16919 0.04079 0.74109 0.0
O376 O 0.21278 0.05498 0.72466 0.0
N377 N 0.2769 0.11444 0.85056 0.0
C378 C 0.25856 0.13121 0.86794 0.0
C379 C 0.27005 0.16284 0.88112 0.0
C380 C 0.30021 0.17697 0.87627 0.0
C381 C 0.31856 0.15939 0.85807 0.0
C382 C 0.30593 0.12789 0.84564 0.0
H383 H 0.23522 0.12071 0.8715 0.0
O384 O 0.21108 0.10301 0.77836 0.0
O385 O 0.24946 0.08472 0.79296 0.0
O386 O 0.18805 0.0537 0.81909 0.0
O387 O 0.22853 0.064 0.85391 0.0
C388 C 0.34853 0.17219 0.85102 0.0
C389 C 0.36501 0.15363 0.83108 0.0
H390 H 0.38861 0.1117 0.78978 0.0
H391 H 0.36081 0.05782 0.76666 0.0
H392 H 0.25562 0.17634 0.89487 0.0
H393 H 0.30889 0.20146 0.88625 0.0
H394 H 0.35887 0.19647 0.86031 0.0
H395 H 0.38779 0.16391 0.82534 0.0
Mn396 Mn 0.3385 0.98157 0.02174 0.0
Mn397 Mn 0.34491 0.0337 0.97504 0.0
C398 C 0.38966 1.00567 1.01141 0.0
C399 C 0.33625 0.96668 0.07014 0.0
C400 C 0.333 0.96246 0.95007 0.0
O401 O 0.2937 0.99284 0.02191 0.0
O402 O 0.30041 0.02725 0.98987 0.0
C403 C 0.33812 0.08811 0.02297 0.0
N404 N 0.35495 0.07452 1.00104 0.0
C405 C 0.39744 0.11869 1.01382 0.0
C406 C 0.38036 0.13322 0.03619 0.0
C407 C 0.35059 0.11784 0.04079 0.0
C408 C 0.38379 0.08904 0.99666 0.0
H409 H 0.31549 0.07631 0.0272 0.0
C410 C 0.2831 1.01257 1.008 0.0
O411 O 0.32532 0.94708 0.04477 0.0
O412 O 0.346 0.9957 0.06772 0.0
N413 N 0.38505 0.04426 0.96007 0.0
C414 C 0.39838 0.0276 0.93701 0.0
C415 C 0.42801 0.04011 0.92914 0.0
C416 C 0.44372 0.0696 0.94509 0.0
C417 C 0.42939 0.0866 0.96832 0.0
C418 C 0.39958 0.07318 0.97478 0.0
H419 H 0.38675 1.00479 0.92492 0.0
O420 O 0.38398 0.97895 0.02034 0.0
O421 O 0.36468 1.01788 1.00895 0.0
O422 O 0.33047 0.95561 0.97707 0.0
O423 O 0.33699 0.99113 0.9461 0.0
C424 C 0.44349 0.11642 0.98521 0.0
C425 C 0.42759 0.1324 1.00805 0.0
H426 H 0.38996 0.15609 0.0501 0.0
H427 H 0.33734 0.12878 0.05822 0.0
H428 H 0.43886 0.02686 0.91108 0.0
H429 H 0.46673 0.079 0.93923 0.0
H430 H 0.46655 0.12729 0.98078 0.0
H431 H 0.43873 0.15526 0.02099 0.0
Mn432 Mn 0.37569 0.39332 0.05392 0.0
Mn433 Mn 0.3805 0.45548 1.01608 0.0
C434 C 0.42433 0.42753 0.0521 0.0
C435 C 0.36491 0.37201 0.10147 0.0
C436 C 0.36997 0.38747 0.98139 0.0
O437 O 0.3307 0.39956 0.04912 0.0
O438 O 0.33866 0.44447 0.02991 0.0
C439 C 0.37294 0.50497 0.06863 0.0
N440 N 0.38926 0.4945 0.04466 0.0
C441 C 0.4244 0.54425 0.05191 0.0
C442 C 0.40795 0.55564 0.07667 0.0
C443 C 0.38222 0.53585 0.08517 0.0
C444 C 0.41425 0.51319 0.03652 0.0
H445 H 0.35293 0.48988 0.07491 0.0
C446 C 0.32136 0.42271 0.04037 0.0
O447 O 0.36169 0.35455 0.07394 0.0
O448 O 0.37501 0.40155 0.10154 0.0
N449 N 0.4197 0.4692 1.00084 0.0
C450 C 0.43401 0.45402 0.97761 0.0
C451 C 0.46061 0.47027 0.96679 0.0
C452 C 0.47187 0.50208 0.97953 0.0
C453 C 0.45651 0.51731 1.00314 0.0
C454 C 0.43018 0.49989 1.01303 0.0
H455 H 0.4251 0.42975 0.96732 0.0
O456 O 0.42301 0.39954 0.05818 0.0
O457 O 0.39753 0.43457 0.0472 0.0
O458 O 0.37311 0.37442 1.00529 0.0
O459 O 0.37154 0.41697 0.98397 0.0
C460 C 0.46657 0.54895 1.0176 0.0
C461 C 0.45067 0.56235 0.04212 0.0
H462 H 0.41497 0.57947 0.08941 0.0
H463 H 0.36946 0.54445 0.10429 0.0
H464 H 0.47229 0.45836 0.94852 0.0
H465 H 0.49242 0.51452 0.97116 0.0
H466 H 0.48681 0.56304 1.01043 0.0
H467 H 0.45899 0.58651 0.05346 0.0
Mn468 Mn 0.85318 0.1458 0.07461 0.0
Mn469 Mn 0.83428 0.07692 0.02453 0.0
C470 C 0.79924 0.12139 0.06258 0.0
C471 C 0.86181 0.18094 0.12383 0.0
C472 C 0.84624 0.1384 1.00325 0.0
O473 O 0.89733 0.13178 0.07165 0.0
O474 O 0.88136 0.08949 0.03413 0.0
C475 C 0.8532 0.03937 0.06917 0.0
N476 N 0.83109 0.0452 0.04952 0.0
C477 C 0.79338 1.00298 0.06152 0.0
C478 C 0.81582 0.99643 0.08174 0.0
C479 C 0.84584 1.01474 0.08562 0.0
C480 C 0.80206 0.02787 0.04581 0.0
H481 H 0.87627 0.05343 0.07235 0.0
C482 C 0.90365 0.10896 0.05139 0.0
O483 O 0.87099 0.18946 0.0984 0.0
O484 O 0.85179 0.15096 0.12159 0.0
N485 N 0.79128 0.06066 1.01232 0.0
C486 C 0.77253 0.0694 0.99125 0.0
C487 C 0.74171 0.05334 0.98465 0.0
C488 C 0.73065 0.02807 0.99929 0.0
C489 C 0.75059 1.01892 0.02018 0.0
C490 C 0.78108 0.03583 0.02587 0.0
H491 H 0.78087 0.08879 0.97993 0.0
O492 O 0.80852 0.15102 0.07291 0.0
O493 O 0.82223 0.10586 0.06005 0.0
O494 O 0.85595 0.15404 0.03032 0.0
O495 O 0.8359 0.10881 0.99774 0.0
C496 C 0.74138 0.99375 0.03568 0.0
C497 C 0.76274 0.98583 0.05639 0.0
H498 H 0.81024 0.97745 0.09447 0.0
H499 H 0.86325 1.0099 0.10126 0.0
H500 H 0.72649 0.06046 0.96839 0.0
H501 H 0.70684 1.01585 0.9943 0.0
H502 H 0.71791 0.98034 0.03185 0.0
H503 H 0.75538 0.96646 0.06823 0.0
Mn504 Mn 0.23828 0.60193 0.25048 0.0
Mn505 Mn 0.31062 0.62226 0.28752 0.0
C506 C 0.26983 0.64854 0.24537 0.0
C507 C 0.20071 0.57509 0.211 0.0
C508 C 0.25368 0.63257 0.31951 0.0
O509 O 0.24487 0.56088 0.26217 0.0
O510 O 0.29237 0.57804 0.28647 0.0
C511 C 0.33841 0.58323 0.23865 0.0
N512 N 0.33877 0.61136 0.25747 0.0
C513 C 0.38671 0.63423 0.23919 0.0
C514 C 0.38698 0.60547 0.21971 0.0
C515 C 0.36259 0.57992 0.21928 0.0
C516 C 0.36158 0.6363 0.25736 0.0
H517 H 0.31985 0.56348 0.23849 0.0
C518 C 0.26848 0.55681 0.27741 0.0
O519 O 0.19409 0.58372 0.23926 0.0
O520 O 0.22972 0.58165 0.20537 0.0
N521 N 0.3334 0.66416 0.29192 0.0
C522 C 0.3309 0.68934 0.31393 0.0
C523 C 0.35481 0.71586 0.31951 0.0
C524 C 0.381 0.71649 0.30237 0.0
C525 C 0.38336 0.6902 0.28022 0.0
C526 C 0.35929 0.66397 0.27641 0.0
H527 H 0.31125 0.68886 0.32781 0.0
O528 O 0.24009 0.64376 0.23937 0.0
O529 O 0.28103 0.6252 0.25292 0.0
O530 O 0.23495 0.62056 0.29574 0.0
O531 O 0.28292 0.63454 0.31984 0.0
C532 C 0.40905 0.68867 0.26241 0.0
C533 C 0.41052 0.66082 0.24157 0.0
H534 H 0.40581 0.60273 0.20506 0.0
H535 H 0.36258 0.55765 0.20428 0.0
H536 H 0.35315 0.73581 0.33706 0.0
H537 H 0.39929 0.73715 0.30667 0.0
H538 H 0.42786 0.70873 0.26466 0.0
H539 H 0.43033 0.65992 0.22793 0.0
Mn540 Mn 0.87375 0.8973 0.5576 0.0
Mn541 Mn 0.87728 0.95735 0.51701 0.0
C542 C 0.92185 0.93121 0.554 0.0
C543 C 0.86506 0.87805 0.60657 0.0
C544 C 0.86706 0.8886 0.48464 0.0
O545 O 0.82853 0.90319 0.55318 0.0
O546 O 0.83559 0.94654 0.53135 0.0
C547 C 0.86978 1.00809 0.56834 0.0
N548 N 0.88602 0.99703 0.54456 0.0
C549 C 0.92155 0.0465 0.55106 0.0
C550 C 0.90516 0.05849 0.57559 0.0
C551 C 0.87927 0.03915 0.58437 0.0
C552 C 0.91116 1.0153 0.53615 0.0
H553 H 0.84971 0.99333 0.57491 0.0
C554 C 0.8187 0.92549 0.54315 0.0
O555 O 0.86102 0.85965 0.5795 0.0
O556 O 0.87437 0.9074 0.60531 0.0
N557 N 0.91629 0.97069 0.50119 0.0
C558 C 0.93035 0.95505 0.47805 0.0
C559 C 0.95696 0.97088 0.46686 0.0
C560 C 0.96853 1.00272 0.4792 0.0
C561 C 0.95342 1.01844 0.5027 0.0
C562 C 0.92698 1.00145 0.51289 0.0
H563 H 0.92127 0.93073 0.46811 0.0
O564 O 0.92095 0.90365 0.56102 0.0
O565 O 0.89492 0.93794 0.54905 0.0
O566 O 0.87041 0.87669 0.50928 0.0
O567 O 0.86838 0.91794 0.48596 0.0
C568 C 0.96381 0.05015 0.51677 0.0
C569 C 0.948 0.06411 0.54107 0.0
H570 H 0.91236 0.08245 0.58796 0.0
H571 H 0.86657 0.04822 0.60334 0.0
H572 H 0.96844 0.95861 0.44866 0.0
H573 H 0.98912 1.01482 0.4706 0.0
H574 H 0.98423 0.06385 0.50946 0.0
H575 H 0.95654 0.08834 0.55208 0.0
Mn576 Mn 0.96743 0.07199 0.26997 0.0
Mn577 Mn 0.91056 0.0677 0.32143 0.0
C578 C 0.93692 1.01823 0.27703 0.0
C579 C 0.99473 0.074 0.21669 0.0
C580 C 0.98006 0.07838 0.34565 0.0
O581 O 0.95189 0.11978 0.27577 0.0
O582 O 0.91557 0.11183 0.30922 0.0
C583 C 0.85737 0.07057 0.27883 0.0
N584 N 0.87049 0.0559 0.29934 0.0
C585 C 0.82409 1.01654 0.29574 0.0
C586 C 0.81001 0.0315 0.27494 0.0
C587 C 0.82678 0.05853 0.26633 0.0
C588 C 0.85464 0.02965 0.3075 0.0
H589 H 0.8701 0.09128 0.27196 0.0
C590 C 0.92959 0.13017 0.29188 0.0
O591 O 1.00762 0.08434 0.2446 0.0
O592 O 0.96533 0.06426 0.2191 0.0
N593 N 0.90038 0.02855 0.33555 0.0
C594 C 0.91798 1.0153 0.35381 0.0
C595 C 0.90494 0.98736 0.36342 0.0
C596 C 0.87387 0.9734 0.35444 0.0
C597 C 0.85613 0.98745 0.33579 0.0
C598 C 0.87036 1.01535 0.32693 0.0
H599 H 0.94186 1.02575 0.36096 0.0
O600 O 0.96415 1.02294 0.2665 0.0
O601 O 0.92796 0.04555 0.28346 0.0
O602 O 0.98979 0.07787 0.31776 0.0
O603 O 0.95118 0.07837 0.34903 0.0
C604 C 0.82516 0.97433 0.32488 0.0
C605 C 0.80918 0.98881 0.30481 0.0
H606 H 0.78645 1.02223 0.26516 0.0
H607 H 0.81616 0.07006 0.25008 0.0
H608 H 0.91883 0.97661 0.37772 0.0
H609 H 0.86397 0.95172 0.3617 0.0
H610 H 0.8136 0.95276 0.33131 0.0
H611 H 0.78554 0.97819 0.29614 0.0
Mn612 Mn 0.35045 0.64524 0.57781 0.0
Mn613 Mn 0.33227 0.57541 0.52885 0.0
C614 C 0.29655 0.61986 0.56585 0.0
C615 C 0.3584 0.68196 0.62636 0.0
C616 C 0.34433 0.6361 0.50625 0.0
O617 O 0.39506 0.63165 0.57516 0.0
O618 O 0.37923 0.58849 0.5386 0.0
C619 C 0.35112 0.53921 0.57481 0.0
N620 N 0.32906 0.54447 0.55473 0.0
C621 C 0.29124 0.50298 0.56784 0.0
C622 C 0.31362 0.49701 0.58853 0.0
C623 C 0.34367 0.51525 0.59206 0.0
C624 C 0.29999 0.52723 0.55135 0.0
H625 H 0.3742 0.55324 0.57773 0.0
C626 C 0.4015 0.6085 0.5553 0.0
O627 O 0.36768 0.68956 0.60062 0.0
O628 O 0.34878 0.65202 0.625 0.0
N629 N 0.28941 0.55876 0.5165 0.0
C630 C 0.2709 0.56658 0.49457 0.0
C631 C 0.24013 0.55038 0.48802 0.0
C632 C 0.22889 0.5259 0.5036 0.0
C633 C 0.24865 0.51758 0.52531 0.0
C634 C 0.2791 0.53457 0.53087 0.0
H635 H 0.27941 0.58535 0.4825 0.0
O636 O 0.30542 0.64964 0.57557 0.0
O637 O 0.31991 0.60484 0.56378 0.0
O638 O 0.35332 0.65228 0.53324 0.0
O639 O 0.33402 0.60652 0.50117 0.0
C640 C 0.23933 0.49308 0.54164 0.0
C641 C 0.26059 0.48584 0.56295 0.0
H642 H 0.30799 0.47854 0.60187 0.0
H643 H 0.36105 0.51085 0.60806 0.0
H644 H 0.22508 0.55679 0.47107 0.0
H645 H 0.20513 0.51361 0.49862 0.0
H646 H 0.21587 0.47963 0.53794 0.0
H647 H 0.25315 0.46696 0.57539 0.0
Mn648 Mn 0.46714 0.57538 0.76989 0.0
Mn649 Mn 0.41012 0.5709 0.821 0.0
C650 C 0.43669 0.52153 0.77659 0.0
C651 C 0.49424 0.57708 0.71657 0.0
C652 C 0.47956 0.58138 0.84561 0.0
O653 O 0.45161 0.62325 0.77572 0.0
O654 O 0.41522 0.61524 0.80906 0.0
C655 C 0.35723 0.57412 0.77817 0.0
N656 N 0.37016 0.55928 0.79864 0.0
C657 C 0.32379 0.51977 0.79432 0.0
C658 C 0.30989 0.53491 0.77357 0.0
C659 C 0.32675 0.56211 0.76535 0.0
C660 C 0.35424 0.53287 0.80644 0.0
H661 H 0.37003 0.59493 0.77156 0.0
C662 C 0.42928 0.63366 0.79179 0.0
O663 O 0.50726 0.58752 0.74443 0.0
O664 O 0.46483 0.56755 0.71907 0.0
N665 N 0.39975 0.53159 0.83479 0.0
C666 C 0.41721 0.51814 0.85299 0.0
C667 C 0.40409 0.49001 0.86219 0.0
C668 C 0.37309 0.47605 0.85286 0.0
C669 C 0.3555 0.49028 0.83426 0.0
C670 C 0.3698 0.51838 0.82583 0.0
H671 H 0.44105 0.52858 0.86039 0.0
O672 O 0.46401 0.52637 0.76629 0.0
O673 O 0.42763 0.54881 0.78307 0.0
O674 O 0.48941 0.58113 0.81777 0.0
O675 O 0.45063 0.5813 0.84884 0.0
C676 C 0.32463 0.47715 0.82297 0.0
C677 C 0.30881 0.49184 0.80296 0.0
H678 H 0.28642 0.52566 0.76352 0.0
H679 H 0.31627 0.57378 0.74913 0.0
H680 H 0.41787 0.4791 0.87645 0.0
H681 H 0.36313 0.45421 0.8598 0.0
H682 H 0.31302 0.45542 0.82904 0.0
H683 H 0.28526 0.48122 0.79399 0.0
Mn684 Mn 0.73222 0.10606 0.74774 0.0
Mn685 Mn 0.80595 0.12457 0.78133 0.0
C686 C 0.76419 0.15148 0.74027 0.0
C687 C 0.69371 0.07807 0.70986 0.0
C688 C 0.75063 0.13661 0.81596 0.0
O689 O 0.73805 0.06565 0.7613 0.0
O690 O 0.78811 0.08009 0.77904 0.0
C691 C 0.83244 0.08739 0.72999 0.0
N692 N 0.83317 0.11494 0.74993 0.0
C693 C 0.88054 0.1388 0.73135 0.0
C694 C 0.88041 0.11065 0.71066 0.0
C695 C 0.85611 0.0849 0.70982 0.0
C696 C 0.85586 0.1401 0.75025 0.0
H697 H 0.81396 0.06749 0.72957 0.0
C698 C 0.76292 0.0601 0.77278 0.0
O699 O 0.68772 0.08843 0.73799 0.0
O700 O 0.72253 0.08383 0.70342 0.0
N701 N 0.82839 0.1667 0.78664 0.0
C702 C 0.82636 0.19111 0.80978 0.0
C703 C 0.85039 0.21753 0.81601 0.0
C704 C 0.87616 0.2189 0.79823 0.0
C705 C 0.87802 0.19341 0.77484 0.0
C706 C 0.85392 0.16717 0.7705 0.0
H707 H 0.80706 0.19004 0.82415 0.0
O708 O 0.73442 0.14705 0.73466 0.0
O709 O 0.77508 0.12818 0.7483 0.0
O710 O 0.73085 0.1269 0.79265 0.0
O711 O 0.77933 0.13562 0.81518 0.0
C712 C 0.90329 0.19264 0.75632 0.0
C713 C 0.90432 0.16549 0.73425 0.0
H714 H 0.89888 0.10852 0.6954 0.0
H715 H 0.85581 0.06311 0.69391 0.0
H716 H 0.84915 0.23678 0.83458 0.0
H717 H 0.89456 0.23946 0.80301 0.0
H718 H 0.92211 0.21273 0.75897 0.0
H719 H 0.9238 0.16517 0.72007 0.0
Mn720 Mn 0.80164 0.72963 0.0244 0.0
Mn721 Mn 0.7943 0.6642 0.96853 0.0
C722 C 0.75212 0.69726 1.00782 0.0
C723 C 0.80953 0.75207 0.07994 0.0
C724 C 0.81173 0.73054 0.95369 0.0
O725 O 0.845 0.71901 0.02528 0.0
O726 O 0.8355 0.67243 0.99186 0.0
C727 C 0.79639 0.61476 1.00593 0.0
N728 N 0.78115 0.62675 0.98457 0.0
C729 C 0.73901 0.58224 0.97678 0.0
C730 C 0.75426 0.56945 0.9987 0.0
C731 C 0.78306 0.58579 1.01333 0.0
C732 C 0.75358 0.61104 0.97009 0.0
H733 H 0.81853 0.6272 1.01725 0.0
C734 C 0.85287 0.69347 1.0125 0.0
O735 O 0.81518 0.76905 0.05865 0.0
O736 O 0.79906 0.72264 0.06915 0.0
N737 N 0.75461 0.65395 0.94567 0.0
C738 C 0.74173 0.67082 0.92725 0.0
C739 C 0.71209 0.65861 0.91226 0.0
C740 C 0.69603 0.62921 0.91635 0.0
C741 C 0.70972 0.61231 0.93549 0.0
C742 C 0.73936 0.62561 0.94974 0.0
H743 H 0.75389 0.6935 0.92415 0.0
O744 O 0.75469 0.72658 0.0206 0.0
O745 O 0.77841 0.68869 1.00379 0.0
O746 O 0.80841 0.74582 0.98109 0.0
O747 O 0.80774 0.70064 0.94818 0.0
C748 C 0.69482 0.58312 0.94154 0.0
C749 C 0.7095 0.56804 0.96208 0.0
H750 H 0.74391 0.54727 1.00472 0.0
H751 H 0.79493 0.57611 0.03033 0.0
H752 H 0.7016 0.67187 0.89767 0.0
H753 H 0.67307 0.61998 0.90492 0.0
H754 H 0.67186 0.57229 0.93089 0.0
H755 H 0.6976 0.54586 0.96692 0.0
Mn756 Mn 0.95882 0.54488 0.84882 0.0
Mn757 Mn 0.90531 0.55793 0.89957 0.0
C758 C 0.93346 0.50473 0.87109 0.0
C759 C 0.97497 0.53179 0.79937 0.0
C760 C 0.97429 0.5806 0.9152 0.0
O761 O 0.94679 0.58471 0.83958 0.0
O762 O 0.90821 0.58885 0.87149 0.0
C763 C 0.84798 0.54381 0.85755 0.0
N764 N 0.86462 0.53777 0.88197 0.0
C765 C 0.82309 0.49681 0.88976 0.0
C766 C 0.8055 0.50267 0.86476 0.0
C767 C 0.81801 0.52628 0.84861 0.0
C768 C 0.85267 0.51533 0.89791 0.0
H769 H 0.85752 0.56179 0.84492 0.0
C770 C 0.92432 0.5972 0.84959 0.0
O771 O 0.99364 0.54855 0.82232 0.0
O772 O 0.9462 0.52315 0.80479 0.0
N773 N 0.90035 0.5281 0.92677 0.0
C774 C 0.92118 0.52373 0.94871 0.0
C775 C 0.91277 0.50002 0.96605 0.0
C776 C 0.88308 0.48105 0.96065 0.0
C777 C 0.86206 0.48594 0.93791 0.0
C778 C 0.87165 0.51009 0.92151 0.0
H779 H 0.94414 0.53801 0.9528 0.0
O780 O 0.96055 0.50367 0.86087 0.0
O781 O 0.92259 0.52958 0.86858 0.0
O782 O 0.98233 0.56787 0.88942 0.0
O783 O 0.94605 0.57937 0.921 0.0
C784 C 0.83221 0.46734 0.9304 0.0
C785 C 0.81272 0.47281 0.90639 0.0
H786 H 0.7825 0.48898 0.85757 0.0
H787 H 0.80463 0.53085 0.8292 0.0
H788 H 0.92921 0.49627 0.98342 0.0
H789 H 0.87677 0.46261 0.97389 0.0
H790 H 0.82416 0.44849 0.94269 0.0
H791 H 0.78997 0.45808 0.90057 0.0
Mn792 Mn 0.83436 0.47888 0.52004 0.0
Mn793 Mn 0.84192 0.52923 0.47156 0.0
C794 C 0.88606 0.501 0.50955 0.0
C795 C 0.83192 0.46569 0.56917 0.0
C796 C 0.82897 0.4578 0.44863 0.0
O797 O 0.79016 0.49109 0.51988 0.0
O798 O 0.79744 0.52432 0.48676 0.0
C799 C 0.83579 0.58592 0.51667 0.0
N800 N 0.85206 0.57116 0.49499 0.0
C801 C 0.8923 0.61723 0.50095 0.0
C802 C 0.87566 0.63303 0.52289 0.0
C803 C 0.84734 0.61726 0.53086 0.0
C804 C 0.87948 0.58607 0.48733 0.0
H805 H 0.81424 0.57392 0.52331 0.0
C806 C 0.77997 0.51058 0.50543 0.0
O807 O 0.82047 0.44554 0.5443 0.0
O808 O 0.84215 0.49432 0.56579 0.0
N809 N 0.88193 0.53834 0.45601 0.0
C810 C 0.89675 0.51898 0.43694 0.0
C811 C 0.92605 0.5308 0.42788 0.0
C812 C 0.93995 0.56237 0.43857 0.0
C813 C 0.92451 0.58179 0.45846 0.0
C814 C 0.8952 0.56876 0.46655 0.0
H815 H 0.88662 0.49456 0.42915 0.0
O816 O 0.87897 0.47459 0.51889 0.0
O817 O 0.86185 0.51446 0.50648 0.0
O818 O 0.82595 0.45152 0.47581 0.0
O819 O 0.83346 0.48621 0.44415 0.0
C820 C 0.93751 0.61328 0.47138 0.0
C821 C 0.92141 0.63099 0.4926 0.0
H822 H 0.88461 0.65713 0.53408 0.0
H823 H 0.83452 0.62918 0.54804 0.0
H824 H 0.93802 0.51553 0.41289 0.0
H825 H 0.96272 0.57131 0.43181 0.0
H826 H 0.96013 0.62395 0.46557 0.0
H827 H 0.93187 0.65503 0.50274 0.0
Mn828 Mn 0.7087 0.55073 0.27278 0.0
Mn829 Mn 0.76685 0.56724 0.33028 0.0
C830 C 0.73919 0.60708 0.28889 0.0
C831 C 0.68295 0.5444 0.21589 0.0
C832 C 0.69746 0.55516 0.34742 0.0
O833 O 0.72487 0.5036 0.27195 0.0
O834 O 0.7624 0.51965 0.31088 0.0
C835 C 0.81969 0.55701 0.29273 0.0
N836 N 0.80633 0.57599 0.31376 0.0
C837 C 0.85099 0.61768 0.31892 0.0
C838 C 0.86539 0.59834 0.29778 0.0
C839 C 0.84961 0.56793 0.28454 0.0
C840 C 0.82125 0.6054 0.32648 0.0
H841 H 0.80762 0.53377 0.2821 0.0
C842 C 0.7478 0.49695 0.2892 0.0
O843 O 0.66883 0.53741 0.23978 0.0
O844 O 0.71254 0.55152 0.22377 0.0
N845 N 0.77593 0.61044 0.35049 0.0
C846 C 0.75759 0.62736 0.36768 0.0
C847 C 0.76926 0.6589 0.38103 0.0
C848 C 0.79961 0.6728 0.37655 0.0
C849 C 0.81796 0.65507 0.35853 0.0
C850 C 0.80514 0.62366 0.34589 0.0
H851 H 0.73412 0.61705 0.37095 0.0
O852 O 0.71062 0.59943 0.27772 0.0
O853 O 0.74879 0.58109 0.29269 0.0
O854 O 0.68694 0.55007 0.3181 0.0
O855 O 0.72707 0.56034 0.35334 0.0
C856 C 0.84813 0.66764 0.35184 0.0
C857 C 0.86464 0.64895 0.33207 0.0
H858 H 0.88836 0.60677 0.29117 0.0
H859 H 0.86042 0.55299 0.26791 0.0
H860 H 0.75483 0.67253 0.39463 0.0
H861 H 0.80843 0.69723 0.38666 0.0
H862 H 0.85862 0.69184 0.36128 0.0
H863 H 0.8876 0.65905 0.32665 0.0
Eu864 Eu 0.11234 0.09897 0.04333 0.0
Eu865 Eu 0.07835 0.03359 0.0186 0.0
C866 C 0.12158 0.06521 0.96741 0.0
C867 C 0.13585 0.18849 0.07003 0.0
C868 C 0.15988 0.21333 0.0677 0.0
C869 C 0.0987 0.22202 0.06771 0.0
C870 C 0.15296 0.24152 0.06234 0.0
C871 C 0.10563 0.1937 0.07286 0.0
C872 C 0.12201 0.2448 0.05959 0.0
C873 C 0.14061 0.15707 0.058 0.0
O874 O 0.12978 1.02608 0.02616 0.0
O875 O 0.15505 0.07575 0.04456 0.0
C876 C 0.15645 0.04627 0.03394 0.0
O877 O 0.09116 0.08983 0.09074 0.0
O878 O 0.07127 0.98807 0.9869 0.0
O879 O 0.04575 0.9929 0.02749 0.0
O880 O 0.06009 0.0435 0.06984 0.0
C881 C 0.0678 0.06707 0.0944 0.0
O882 O 0.05988 0.10422 0.04145 0.0
O883 O 0.03727 0.05785 1.01087 0.0
O884 O 0.09637 0.04428 0.97045 0.0
O885 O 0.14066 0.13739 0.0771 0.0
O886 O 0.12552 0.14434 0.03103 0.0
O887 O 0.13143 0.08724 0.99283 0.0
C888 C 0.0766 0.95555 0.02229 0.0
C889 C 0.09535 0.97096 0.04937 0.0
C890 C 0.1023 0.91154 0.02057 0.0
C891 C 0.11785 0.95738 0.06143 0.0
C892 C 0.08027 0.92581 1.00772 0.0
C893 C 0.12139 0.92736 0.04754 0.0
C894 C 0.05779 0.97389 1.00774 0.0
C895 C 0.03417 0.08499 0.02765 0.0
H896 H 0.18335 0.20954 0.06555 0.0
H897 H 0.07466 0.22422 0.06581 0.0
H898 H 0.17124 0.2591 0.0565 0.0
H899 H 0.08686 0.17457 0.07458 0.0
H900 H 0.09347 0.99429 0.06079 0.0
H901 H 0.10402 0.88801 1.00964 0.0
H902 H 0.13246 0.97053 0.08172 0.0
H903 H 0.06647 0.91389 0.98649 0.0
Eu904 Eu 0.38392 0.83748 0.27765 0.0
Eu905 Eu 0.33767 0.81165 0.32936 0.0
C906 C 0.31252 0.84179 0.27438 0.0
C907 C 0.40536 0.8805 0.21267 0.0
C908 C 0.4057 0.91292 0.21969 0.0
C909 C 0.38096 0.87888 0.16132 0.0
C910 C 0.39303 0.92794 0.19818 0.0
C911 C 0.39335 0.86376 0.18302 0.0
C912 C 0.3801 0.91107 0.16881 0.0
C913 C 0.41522 0.86422 0.23718 0.0
O914 O 0.35359 0.77363 0.29724 0.0
O915 O 0.35131 0.79327 0.25351 0.0
C916 C 0.3466 0.76915 0.26737 0.0
O917 O 0.41283 0.81155 0.30388 0.0
O918 O 0.30081 0.77459 0.33815 0.0
O919 O 0.32207 0.81221 0.37593 0.0
O920 O 0.38641 0.81454 0.3483 0.0
C921 C 0.41119 0.81042 0.33368 0.0
O922 O 0.39418 0.86953 0.32435 0.0
O923 O 0.34565 0.86414 0.34128 0.0
O924 O 0.30626 0.82058 0.29193 0.0
O925 O 0.41326 0.87814 0.26563 0.0
O926 O 0.40563 0.83383 0.23338 0.0
O927 O 0.34071 0.8563 0.27183 0.0
C928 C 0.31149 0.76086 0.38612 0.0
C929 C 0.34223 0.76118 0.39607 0.0
C930 C 0.29495 0.71383 0.40741 0.0
C931 C 0.3493 0.73816 0.41161 0.0
C932 C 0.28792 0.73679 0.39142 0.0
C933 C 0.32573 0.71457 0.41805 0.0
C934 C 0.30464 0.78427 0.36819 0.0
C935 C 0.3737 0.88035 0.34169 0.0
H936 H 0.41497 0.92665 0.24225 0.0
H937 H 0.37209 0.86525 0.13864 0.0
H938 H 0.39272 0.95266 0.20497 0.0
H939 H 0.393 0.83885 0.17671 0.0
H940 H 0.36094 0.77902 0.39146 0.0
H941 H 0.27623 0.69613 0.41222 0.0
H942 H 0.37329 0.73899 0.4188 0.0
H943 H 0.26413 0.73585 0.38337 0.0
Eu944 Eu 0.5977 0.05111 0.54687 0.0
Eu945 Eu 0.53764 0.06626 0.58807 0.0
C946 C 0.59305 0.03979 0.61616 0.0
C947 C 0.66511 1.01079 0.52286 0.0
C948 C 0.6647 0.99587 0.54871 0.0
C949 C 0.70899 0.98795 0.50589 0.0
C950 C 0.68665 0.97753 0.55341 0.0
C951 C 0.68734 1.00661 0.50148 0.0
C952 C 0.70896 0.97321 0.53194 0.0
C953 C 0.64112 0.02869 0.51668 0.0
O954 O 0.57016 0.11189 0.58908 0.0
O955 O 0.61661 0.09636 0.57999 0.0
C956 C 0.60055 0.11753 0.59102 0.0
O957 O 0.57574 0.08068 0.51839 0.0
O958 O 0.51797 0.09276 0.62662 0.0
O959 O 0.48781 0.05734 0.5928 0.0
O960 O 0.53016 0.08154 0.54268 0.0
C961 C 0.54772 0.08724 0.52006 0.0
O962 O 0.55271 0.02661 0.52126 0.0
O963 O 0.52691 1.01581 0.563 0.0
O964 O 0.57267 0.05767 0.62245 0.0
O965 O 0.61273 1.01355 0.51603 0.0
O966 O 0.64476 0.05773 0.53139 0.0
O967 O 0.59564 1.02622 0.58755 0.0
C968 C 0.47317 0.10594 0.60578 0.0
C969 C 0.48718 0.126 0.58666 0.0
C970 C 0.42607 0.12635 0.60041 0.0
C971 C 0.47059 0.14525 0.57368 0.0
C972 C 0.44264 0.10659 0.61307 0.0
C973 C 0.43973 0.14517 0.57992 0.0
C974 C 0.48967 0.08216 0.61441 0.0
C975 C 0.52998 1.01028 0.53299 0.0
H976 H 0.6471 0.99796 0.56495 0.0
H977 H 0.7261 0.98545 0.48911 0.0
H978 H 0.68584 0.96632 0.57353 0.0
H979 H 0.68779 1.01754 0.48116 0.0
H980 H 0.51069 0.12581 0.58072 0.0
H981 H 0.40214 0.12575 0.60533 0.0
H982 H 0.48158 0.15955 0.558 0.0
H983 H 0.43131 0.09109 0.62752 0.0
Eu984 Eu 0.30664 0.32583 0.78139 0.0
Eu985 Eu 0.37019 0.30481 0.77995 0.0
C986 C 0.30812 0.24849 0.78542 0.0
C987 C 0.24203 0.36124 0.81737 0.0
C988 C 0.25431 0.36232 0.84779 0.0
C989 C 0.20388 0.39046 0.83838 0.0
C990 C 0.24096 0.37669 0.8734 0.0
C991 C 0.21729 0.37612 0.81282 0.0
C992 C 0.21503 0.39018 0.86899 0.0
C993 C 0.25359 0.34291 0.79057 0.0
O994 O 0.3536 0.2954 0.72797 0.0
O995 O 0.30696 0.31096 0.72865 0.0
C996 C 0.32827 0.29912 0.71308 0.0
O997 O 0.33861 0.37437 0.77745 0.0
O998 O 0.39845 0.27062 0.76357 0.0
O999 O 0.42017 0.31516 0.79183 0.0
O1000 O 0.38536 0.3597 0.77931 0.0
C1001 C 0.36937 0.38261 0.77812 0.0
O1002 O 0.32787 0.34235 0.83132 0.0
O1003 O 0.36492 0.31293 0.83251 0.0
O1004 O 0.33882 0.25665 0.7856 0.0
O1005 O 0.2751 0.35801 0.7764 0.0
O1006 O 0.25944 0.31605 0.79474 0.0
O1007 O 0.29203 0.27117 0.78341 0.0
C1008 C 0.44766 0.29373 0.75142 0.0
C1009 C 0.43914 0.29678 0.72095 0.0
C1010 C 0.50115 0.29937 0.73923 0.0
C1011 C 0.46155 0.30087 0.69964 0.0
C1012 C 0.47875 0.29507 0.7604 0.0
C1013 C 0.49282 0.3024 0.70866 0.0
C1014 C 0.42443 0.28962 0.77409 0.0
C1015 C 0.34835 0.3319 0.84728 0.0
H1016 H 0.27339 0.35087 0.8518 0.0
H1017 H 0.18353 0.40003 0.83405 0.0
H1018 H 0.25013 0.37613 0.8966 0.0
H1019 H 0.2075 0.3755 0.78954 0.0
H1020 H 0.41519 0.29602 0.71365 0.0
H1021 H 0.52501 0.2999 0.74669 0.0
H1022 H 0.45452 0.30325 0.67631 0.0
H1023 H 0.4857 0.29276 0.78379 0.0
Eu1024 Eu 0.07297 0.09222 0.54516 0.0
Eu1025 Eu 0.09959 0.0347 0.51248 0.0
C1026 C 0.13969 0.10239 0.51149 0.0
C1027 C 0.06673 0.1723 0.54249 0.0
C1028 C 0.07383 0.1641 0.51151 0.0
C1029 C 0.08131 0.22736 0.53845 0.0
C1030 C 0.08458 0.18707 0.49423 0.0
C1031 C 0.0705 0.20418 0.55584 0.0
C1032 C 0.0887 0.21907 0.50742 0.0
C1033 C 0.05909 0.14724 0.56103 0.0
O1034 O 0.12221 0.04369 0.56442 0.0
O1035 O 0.09591 0.07885 0.58996 0.0
C1036 C 0.11633 0.06005 0.59141 0.0
O1037 O 0.03733 0.05363 0.55898 0.0
O1038 O 0.13451 1.00509 0.50911 0.0
O1039 O 0.08931 0.98673 0.48563 0.0
O1040 O 0.05219 1.01428 0.52568 0.0
C1041 C 0.03315 1.02389 0.54561 0.0
O1042 O 0.0483 0.08132 0.49417 0.0
O1043 O 0.07728 0.04933 0.46782 0.0
O1044 O 0.13766 0.07218 0.502 0.0
O1045 O 0.03875 0.12257 0.54759 0.0
O1046 O 0.08305 0.13937 0.57372 0.0
O1047 O 0.11835 0.11346 0.52741 0.0
C1048 C 0.10828 0.95678 0.51856 0.0
C1049 C 0.09565 0.96581 0.54683 0.0
C1050 C 0.10839 0.90566 0.53221 0.0
C1051 C 0.08969 0.94539 0.56764 0.0
C1052 C 0.11455 0.92644 0.51124 0.0
C1053 C 0.0961 0.9151 0.5608 0.0
C1054 C 0.11412 0.97982 0.49768 0.0
C1055 C 0.05527 0.06656 0.46685 0.0
H1056 H 0.07197 0.13978 0.50079 0.0
H1057 H 0.08395 0.25178 0.54935 0.0
H1058 H 0.09059 0.17962 0.47076 0.0
H1059 H 0.06568 0.21113 0.57982 0.0
H1060 H 0.09023 0.98884 0.55298 0.0
H1061 H 0.11363 0.88243 0.5263 0.0
H1062 H 0.07965 0.95327 0.58903 0.0
H1063 H 0.12418 0.91889 0.48953 0.0
Eu1064 Eu 0.36798 0.83592 0.77809 0.0
Eu1065 Eu 0.30995 0.79938 0.79837 0.0
C1066 C 0.34667 0.8581 0.84877 0.0
C1067 C 0.44865 0.88222 0.78407 0.0
C1068 C 0.44713 0.88856 0.81646 0.0
C1069 C 0.50378 0.88645 0.79126 0.0
C1070 C 0.47371 0.89187 0.83617 0.0
C1071 C 0.4773 0.88315 0.77162 0.0
C1072 C 0.50191 0.8888 0.82354 0.0
C1073 C 0.42124 0.86525 0.76436 0.0
O1074 O 0.29235 0.84708 0.78963 0.0
O1075 O 0.33624 0.87468 0.7757 0.0
C1076 C 0.3068 0.8745 0.78251 0.0
O1077 O 0.3464 0.80848 0.73115 0.0
O1078 O 0.26027 0.79089 0.79274 0.0
O1079 O 0.28238 0.76544 0.82249 0.0
O1080 O 0.31759 0.77037 0.75152 0.0
C1081 C 0.3325 0.77908 0.72824 0.0
O1082 O 0.38518 0.78746 0.78545 0.0
O1083 O 0.34203 0.7608 0.80175 0.0
O1084 O 0.32645 0.83163 0.84478 0.0
O1085 O 0.41501 0.83572 0.76586 0.0
O1086 O 0.39665 0.87753 0.76579 0.0
O1087 O 0.3663 0.86305 0.82754 0.0
C1088 C 0.23482 0.74067 0.7931 0.0
C1089 C 0.24024 0.72745 0.76276 0.0
C1090 C 0.17993 0.72777 0.77918 0.0
C1091 C 0.21563 0.71809 0.73987 0.0
C1092 C 0.20454 0.73718 0.80195 0.0
C1093 C 0.18573 0.7217 0.74752 0.0
C1094 C 0.25646 0.76862 0.80902 0.0
C1095 C 0.37105 0.76032 0.79351 0.0
H1096 H 0.42505 0.88768 0.82642 0.0
H1097 H 0.52521 0.88445 0.78089 0.0
H1098 H 0.47151 0.89375 0.86093 0.0
H1099 H 0.47878 0.87801 0.74667 0.0
H1100 H 0.26363 0.72934 0.75568 0.0
H1101 H 0.15716 0.73015 0.78626 0.0
H1102 H 0.22064 0.71202 0.71582 0.0
H1103 H 0.19996 0.74686 0.8254 0.0
Eu1104 Eu 0.59183 0.05224 0.06686 0.0
Eu1105 Eu 0.59364 0.09087 1.0111 0.0
C1106 C 0.58034 0.12237 0.07992 0.0
C1107 C 0.56041 1.01998 0.13419 0.0
C1108 C 0.54432 0.04479 0.13905 0.0
C1109 C 0.53448 0.99827 0.1754 0.0
C1110 C 0.52416 0.04686 0.16256 0.0
C1111 C 0.55494 0.99634 0.15194 0.0
C1112 C 0.51957 1.02397 0.18133 0.0
C1113 C 0.58273 1.0192 0.11049 0.0
O1114 O 0.64477 0.10197 0.03187 0.0
O1115 O 0.64473 0.06557 0.06341 0.0
C1116 C 0.66023 0.08706 0.0492 0.0
O1117 O 0.60215 1.01876 0.02526 0.0
O1118 O 0.60138 0.13702 0.99857 0.0
O1119 O 0.58709 0.09552 0.96253 0.0
O1120 O 0.61865 0.05276 0.99282 0.0
C1121 C 0.61688 1.02555 1.00118 0.0
O1122 O 0.54063 0.05402 0.05394 0.0
O1123 O 0.54432 0.05993 1.0036 0.0
O1124 O 0.5737 0.11901 0.05 0.0
O1125 O 0.57052 1.00934 0.082 0.0
O1126 O 0.60411 0.04449 0.11319 0.0
O1127 O 0.5924 0.10164 0.09179 0.0
C1128 C 0.62409 0.13669 0.95115 0.0
C1129 C 0.65469 0.14072 0.96386 0.0
C1130 C 0.64328 0.14837 0.90278 0.0
C1131 C 0.67947 0.14813 0.94599 0.0
C1132 C 0.61854 0.14109 0.92073 0.0
C1133 C 0.67402 0.15142 0.91502 0.0
C1134 C 0.5981 0.1257 0.96876 0.0
C1135 C 0.52691 0.05262 0.02612 0.0
H1136 H 0.54795 0.06298 0.12514 0.0
H1137 H 0.53146 0.98054 0.18985 0.0
H1138 H 0.51283 0.06682 0.16669 0.0
H1139 H 0.56698 0.97689 0.14815 0.0
H1140 H 0.65944 0.13734 0.98734 0.0
H1141 H 0.63818 0.15008 0.8788 0.0
H1142 H 0.70281 0.15051 0.95617 0.0
H1143 H 0.59508 0.13785 0.91052 0.0
Eu1144 Eu 0.35766 0.33413 0.2944 0.0
Eu1145 Eu 0.31637 0.2671 0.25797 0.0
C1146 C 0.3385 0.32381 0.21898 0.0
C1147 C 0.36343 0.41676 0.31291 0.0
C1148 C 0.34341 0.40984 0.28575 0.0
C1149 C 0.34458 0.46495 0.32832 0.0
C1150 C 0.32359 0.42964 0.28023 0.0
C1151 C 0.36401 0.44449 0.33422 0.0
C1152 C 0.32378 0.45747 0.30139 0.0
C1153 C 0.37888 0.39198 0.3204 0.0
O1154 O 0.36488 0.26522 0.24728 0.0
O1155 O 0.39494 0.30656 0.28135 0.0
C1156 C 0.39184 0.28235 0.25829 0.0
O1157 O 0.34542 0.30733 0.33396 0.0
O1158 O 0.30635 0.22898 0.21743 0.0
O1159 O 0.27911 0.22647 0.25669 0.0
O1160 O 0.33201 0.25728 0.30584 0.0
C1161 C 0.33689 0.27692 0.33307 0.0
O1162 O 0.30835 0.33834 0.28532 0.0
O1163 O 0.28453 0.28953 0.28836 0.0
O1164 O 0.3164 0.2996 0.22153 0.0
O1165 O 0.36182 0.37227 0.33451 0.0
O1166 O 0.3918 0.37755 0.29745 0.0
O1167 O 0.35805 0.33787 0.24309 0.0
C1168 C 0.30204 0.18338 0.23937 0.0
C1169 C 0.33226 0.18097 0.2317 0.0
C1170 C 0.30614 0.15017 0.27751 0.0
C1171 C 0.34995 0.16543 0.24839 0.0
C1172 C 0.2885 0.16613 0.26102 0.0
C1173 C 0.33762 0.15125 0.27263 0.0
C1174 C 0.28933 0.21049 0.23281 0.0
C1175 C 0.28619 0.31963 0.29542 0.0
H1176 H 0.34208 0.38832 0.26919 0.0
H1177 H 0.34586 0.48653 0.34488 0.0
H1178 H 0.30762 0.42259 0.25963 0.0
H1179 H 0.37889 0.44996 0.35559 0.0
H1180 H 0.34351 0.19374 0.21499 0.0
H1181 H 0.29554 0.13844 0.29522 0.0
H1182 H 0.37402 0.16674 0.24376 0.0
H1183 H 0.26522 0.1674 0.2673 0.0
Eu1184 Eu 0.57292 0.5913 0.04428 0.0
Eu1185 Eu 0.60055 0.53565 1.01081 0.0
C1186 C 0.63988 0.60437 1.01382 0.0
C1187 C 0.56602 0.67168 0.0457 0.0
C1188 C 0.56656 0.66412 1.01321 0.0
C1189 C 0.58813 0.72595 0.04336 0.0
C1190 C 0.57827 0.68686 0.99607 0.0
C1191 C 0.57666 0.7029 0.06063 0.0
C1192 C 0.58962 0.71809 1.01084 0.0
C1193 C 0.55971 0.64596 0.06359 0.0
O1194 O 0.62126 0.53962 0.06268 0.0
O1195 O 0.5982 0.57782 0.08806 0.0
C1196 C 0.61695 0.5573 0.08957 0.0
O1197 O 0.5362 0.55171 0.05506 0.0
O1198 O 0.63568 0.50676 1.00141 0.0
O1199 O 0.58966 0.49038 0.97888 0.0
O1200 O 0.55724 0.51188 0.02947 0.0
C1201 C 0.53537 0.52152 0.04559 0.0
O1202 O 0.54645 0.58118 0.99434 0.0
O1203 O 0.57804 0.55293 0.96757 0.0
O1204 O 0.64167 0.57486 1.01187 0.0
O1205 O 0.53868 0.62156 0.0508 0.0
O1206 O 0.58449 0.63772 0.07411 0.0
O1207 O 0.61372 0.61345 0.01972 0.0
C1208 C 0.60929 0.45599 1.00584 0.0
C1209 C 0.6182 0.46174 0.03787 0.0
C1210 C 0.57685 0.40657 1.01152 0.0
C1211 C 0.60561 0.44102 0.05667 0.0
C1212 C 0.589 0.42782 0.99272 0.0
C1213 C 0.5843 0.41333 0.04398 0.0
C1214 C 0.6148 0.48229 0.98862 0.0
C1215 C 0.55462 0.56846 0.9668 0.0
H1216 H 0.55922 0.64021 1.00101 0.0
H1217 H 0.5962 0.74982 0.05559 0.0
H1218 H 0.5795 0.67952 0.97132 0.0
H1219 H 0.57703 0.70928 0.0857 0.0
H1220 H 0.63354 0.48327 0.04898 0.0
H1221 H 0.56113 0.38519 1.00062 0.0
H1222 H 0.61172 0.44765 0.08146 0.0
H1223 H 0.58134 0.42298 0.96821 0.0
Eu1224 Eu 0.86808 0.33197 0.27818 0.0
Eu1225 Eu 0.81007 0.29457 0.29632 0.0
C1226 C 0.84451 0.35444 0.34743 0.0
C1227 C 0.94607 0.38567 0.28173 0.0
C1228 C 0.94531 0.39491 0.31402 0.0
C1229 C 1.00166 0.39547 0.28757 0.0
C1230 C 0.97268 0.40118 0.33324 0.0
C1231 C 0.97439 0.38916 0.26847 0.0
C1232 C 1.00071 0.39859 0.32001 0.0
C1233 C 0.92133 0.3611 0.26502 0.0
O1234 O 0.79154 0.34126 0.28498 0.0
O1235 O 0.83711 0.37195 0.27933 0.0
C1236 C 0.80663 0.37024 0.28208 0.0
O1237 O 0.84733 0.30447 0.23097 0.0
O1238 O 0.77908 0.27475 0.32856 0.0
O1239 O 0.76521 0.26642 0.27903 0.0
O1240 O 0.82196 0.26498 0.25172 0.0
C1241 C 0.83544 0.27456 0.2281 0.0
O1242 O 0.88471 0.28274 0.28361 0.0
O1243 O 0.84296 0.25762 0.30335 0.0
O1244 O 0.82409 0.32809 0.34254 0.0
O1245 O 0.91734 0.33599 0.27727 0.0
O1246 O 0.8953 0.36848 0.25677 0.0
O1247 O 0.86502 0.35957 0.32705 0.0
C1248 C 0.7284 0.27811 0.31192 0.0
C1249 C 0.73189 0.311 0.31796 0.0
C1250 C 0.67995 0.27378 0.28246 0.0
C1251 C 0.71119 0.32514 0.30311 0.0
C1252 C 0.7007 0.2597 0.29711 0.0
C1253 C 0.68679 0.30623 0.28308 0.0
C1254 C 0.75625 0.2652 0.30691 0.0
C1255 C 0.87136 0.25643 0.2936 0.0
H1256 H 0.92346 0.39245 0.32459 0.0
H1257 H 1.02292 0.39386 0.2767 0.0
H1258 H 0.97127 0.40391 0.35816 0.0
H1259 H 0.97536 0.38222 0.24359 0.0
H1260 H 0.75304 0.32562 0.32978 0.0
H1261 H 0.66063 0.25899 0.26756 0.0
H1262 H 0.71634 0.35029 0.30431 0.0
H1263 H 0.69755 0.23434 0.29241 0.0
Eu1264 Eu 0.08858 0.54305 0.56385 0.0
Eu1265 Eu 0.09163 0.58814 0.51171 0.0
C1266 C 0.06833 0.61007 0.5779 0.0
C1267 C 0.06186 0.50313 0.63037 0.0
C1268 C 0.03517 0.51626 0.63154 0.0
C1269 C 0.05127 0.48594 0.67899 0.0
C1270 C 1.01714 0.51509 0.65693 0.0
C1271 C 0.06922 0.48707 0.65363 0.0
C1272 C 1.02579 0.501 0.68146 0.0
C1273 C 0.084 0.50933 0.60724 0.0
O1274 O 0.14329 0.59259 0.52644 0.0
O1275 O 0.14094 0.56682 0.56777 0.0
C1276 C 0.1575 0.5831 0.54922 0.0
O1277 O 0.11207 0.51792 0.52638 0.0
O1278 O 0.10211 0.63506 0.50112 0.0
O1279 O 0.08355 0.59558 0.46415 0.0
O1280 O 0.10514 0.54417 0.48648 0.0
C1281 C 0.11535 0.52196 0.49777 0.0
O1282 O 0.04019 0.52789 0.53664 0.0
O1283 O 0.03892 0.57047 0.51355 0.0
O1284 O 0.08599 0.61867 0.55656 0.0
O1285 O 0.07426 0.49797 0.57815 0.0
O1286 O 0.09934 0.53822 0.61142 0.0
O1287 O 0.06381 0.58148 0.58324 0.0
C1288 C 0.12317 0.63467 0.45275 0.0
C1289 C 0.15388 0.63997 0.46565 0.0
C1290 C 0.1422 0.64258 0.40313 0.0
C1291 C 0.17856 0.64617 0.44735 0.0
C1292 C 0.11752 0.63647 0.42151 0.0
C1293 C 0.17301 0.64703 0.41573 0.0
C1294 C 0.09723 0.62506 0.47116 0.0
C1295 C 1.02422 0.54484 0.52239 0.0
H1296 H 0.02929 0.52886 0.61371 0.0
H1297 H 0.05825 0.47471 0.69751 0.0
H1298 H 0.99779 0.5271 0.6584 0.0
H1299 H 0.08974 0.47681 0.65299 0.0
H1300 H 0.15884 0.63866 0.48974 0.0
H1301 H 0.13705 0.64245 0.3787 0.0
H1302 H 0.20196 0.6497 0.45781 0.0
H1303 H 0.09402 0.6322 0.41109 0.0
Eu1304 Eu 0.80617 0.82343 0.28432 0.0
Eu1305 Eu 0.86977 0.80258 0.28428 0.0
C1306 C 0.80744 0.74586 0.28797 0.0
C1307 C 0.74045 0.85729 0.3202 0.0
C1308 C 0.71957 0.84005 0.33701 0.0
C1309 C 0.73757 0.90496 0.35688 0.0
C1310 C 0.70804 0.85489 0.36346 0.0
C1311 C 0.7495 0.88996 0.33046 0.0
C1312 C 0.71677 0.8875 0.37369 0.0
C1313 C 0.75306 0.84049 0.29284 0.0
O1314 O 0.85408 0.79302 0.23207 0.0
O1315 O 0.80764 0.80902 0.23174 0.0
C1316 C 0.82915 0.79701 0.21668 0.0
O1317 O 0.8384 0.87178 0.28005 0.0
O1318 O 0.89819 0.76823 0.26898 0.0
O1319 O 0.91956 0.81296 0.29708 0.0
O1320 O 0.88512 0.85711 0.28233 0.0
C1321 C 0.86918 0.87995 0.28068 0.0
O1322 O 0.82542 0.83936 0.33496 0.0
O1323 O 0.86429 0.81216 0.33685 0.0
O1324 O 0.8382 0.75427 0.28924 0.0
O1325 O 0.77522 0.85624 0.27992 0.0
O1326 O 0.75813 0.81285 0.29516 0.0
O1327 O 0.79139 0.76849 0.28549 0.0
C1328 C 0.94766 0.79118 0.25752 0.0
C1329 C 0.93972 0.79505 0.22719 0.0
C1330 C 1.00126 0.79598 0.24595 0.0
C1331 C 0.96248 0.79918 0.20627 0.0
C1332 C 0.9785 0.79165 0.26674 0.0
C1333 C 0.99352 0.79991 0.21555 0.0
C1334 C 0.92406 0.78727 0.2798 0.0
C1335 C 0.8466 0.83017 0.35124 0.0
H1336 H 0.71195 0.81494 0.32959 0.0
H1337 H 0.74432 0.93017 0.36398 0.0
H1338 H 0.69124 0.84088 0.37523 0.0
H1339 H 0.76558 0.90395 0.31802 0.0
H1340 H 0.91597 0.79498 0.21974 0.0
H1341 H 1.02494 0.79592 0.25357 0.0
H1342 H 0.95592 0.80228 0.18306 0.0
H1343 H 0.98498 0.7887 0.29004 0.0
Eu1344 Eu 0.87964 0.3393 0.77723 0.0
Eu1345 Eu 0.83181 0.3134 0.82795 0.0
C1346 C 0.80811 0.34372 0.77248 0.0
C1347 C 0.90286 0.3819 0.71259 0.0
C1348 C 0.90549 0.41467 0.71826 0.0
C1349 C 0.87609 0.37928 0.66214 0.0
C1350 C 0.89266 0.42946 0.69663 0.0
C1351 C 0.88853 0.36443 0.68402 0.0
C1352 C 0.87736 0.41193 0.66842 0.0
C1353 C 0.91225 0.36631 0.73783 0.0
O1354 O 0.84746 0.27555 0.79533 0.0
O1355 O 0.8469 0.29592 0.75185 0.0
C1356 C 0.84109 0.27166 0.76539 0.0
O1357 O 0.90706 0.31187 0.80324 0.0
O1358 O 0.7953 0.27581 0.83645 0.0
O1359 O 0.81519 0.31403 0.87416 0.0
O1360 O 0.88002 0.31496 0.84722 0.0
C1361 C 0.90475 0.31021 0.83286 0.0
O1362 O 0.89007 0.37025 0.82446 0.0
O1363 O 0.8413 0.36594 0.84081 0.0
O1364 O 0.80115 0.32285 0.79027 0.0
O1365 O 0.90877 0.38041 0.76582 0.0
O1366 O 0.90348 0.33583 0.73425 0.0
O1367 O 0.8365 0.3581 0.77048 0.0
C1368 C 0.80633 0.26278 0.8847 0.0
C1369 C 0.83734 0.26396 0.89443 0.0
C1370 C 0.79142 0.21589 0.90668 0.0
C1371 C 0.84533 0.2415 0.91023 0.0
C1372 C 0.78343 0.23835 0.89051 0.0
C1373 C 0.82247 0.21749 0.91702 0.0
C1374 C 0.79863 0.28567 0.86647 0.0
C1375 C 0.86979 0.38136 0.84186 0.0
H1376 H 0.91653 0.42887 0.74 0.0
H1377 H 0.86539 0.36504 0.64032 0.0
H1378 H 0.89405 0.45455 0.70254 0.0
H1379 H 0.8863 0.33918 0.67877 0.0
H1380 H 0.85555 0.28212 0.88953 0.0
H1381 H 0.77323 0.19782 0.91179 0.0
H1382 H 0.8695 0.24304 0.91724 0.0
H1383 H 0.75945 0.23673 0.88267 0.0
Eu1384 Eu 0.86074 0.845 0.80313 0.0
Eu1385 Eu 0.82834 0.77582 0.76486 0.0
C1386 C 0.84534 0.83341 0.72693 0.0
C1387 C 0.85747 0.92618 0.82081 0.0
C1388 C 0.83952 0.91767 0.79227 0.0
C1389 C 0.83432 0.97203 0.83324 0.0
C1390 C 0.81872 0.93563 0.7845 0.0
C1391 C 0.85476 0.95342 0.84138 0.0
C1392 C 0.81588 0.96313 0.80474 0.0
C1393 C 0.87458 0.90338 0.83002 0.0
O1394 O 0.87919 0.78112 0.75851 0.0
O1395 O 0.90232 0.82263 0.79668 0.0
C1396 C 0.90399 0.79981 0.7735 0.0
O1397 O 0.84802 0.81665 0.84173 0.0
O1398 O 0.82451 0.73966 0.72307 0.0
O1399 O 0.79556 0.73131 0.76015 0.0
O1400 O 0.84219 0.76683 0.81344 0.0
C1401 C 0.84309 0.78602 0.84059 0.0
O1402 O 0.81101 0.84279 0.78876 0.0
O1403 O 0.79191 0.79336 0.79314 0.0
O1404 O 0.82466 0.80814 0.72927 0.0
O1405 O 0.85767 0.88203 0.84239 0.0
O1406 O 0.89091 0.89116 0.80877 0.0
O1407 O 0.86386 0.84862 0.75155 0.0
C1408 C 0.82242 0.69191 0.7407 0.0
C1409 C 0.85365 0.69248 0.73482 0.0
C1410 C 0.82551 0.65347 0.77343 0.0
C1411 C 0.87108 0.67527 0.74973 0.0
C1412 C 0.80805 0.67071 0.75851 0.0
C1413 C 0.85754 0.65706 0.77057 0.0
C1414 C 0.80801 0.71851 0.736 0.0
C1415 C 0.79008 0.82285 0.79888 0.0
H1416 H 0.84076 0.89641 0.77627 0.0
H1417 H 0.83315 0.99342 0.84917 0.0
H1418 H 0.80458 0.92761 0.76271 0.0
H1419 H 0.86799 0.96 0.86376 0.0
H1420 H 0.86548 0.70838 0.72101 0.0
H1421 H 0.81432 0.63877 0.78867 0.0
H1422 H 0.89565 0.67828 0.74686 0.0
H1423 H 0.78401 0.66965 0.76326 0.0
Eu1424 Eu 0.61035 0.59888 0.54181 0.0
Eu1425 Eu 0.57608 0.53332 0.51829 0.0
C1426 C 0.61939 0.56361 0.46626 0.0
C1427 C 0.6373 0.68926 0.56557 0.0
C1428 C 0.66316 0.71201 0.56277 0.0
C1429 C 0.6044 0.72709 0.56441 0.0
C1430 C 0.65922 0.7414 0.55792 0.0
C1431 C 0.60832 0.69755 0.56892 0.0
C1432 C 0.6294 0.74804 0.55624 0.0
C1433 C 0.63919 0.65679 0.55418 0.0
O1434 O 0.62762 0.52599 0.52486 0.0
O1435 O 0.65304 0.57557 0.54329 0.0
C1436 C 0.65434 0.54609 0.53252 0.0
O1437 O 0.58985 0.59078 0.58976 0.0
O1438 O 0.56687 0.48771 0.48652 0.0
O1439 O 0.54547 0.49265 0.52973 0.0
O1440 O 0.55856 0.54428 0.56972 0.0
C1441 C 0.56654 0.56819 0.59393 0.0
O1442 O 0.55779 0.60413 0.54126 0.0
O1443 O 0.53463 0.55748 0.5115 0.0
O1444 O 0.59419 0.54284 0.46971 0.0
O1445 O 0.63989 0.63787 0.57398 0.0
O1446 O 0.62232 0.64376 0.52823 0.0
O1447 O 0.62919 0.58609 0.49132 0.0
C1448 C 0.57578 0.45497 0.5209 0.0
C1449 C 0.59602 0.46984 0.54711 0.0
C1450 C 0.60102 0.41041 0.51652 0.0
C1451 C 0.61901 0.45577 0.55738 0.0
C1452 C 0.57852 0.42524 0.50538 0.0
C1453 C 0.62154 0.42567 0.54269 0.0
C1454 C 0.55571 0.47357 0.50844 0.0
C1455 C 0.5318 0.58475 0.52828 0.0
H1456 H 0.68568 0.7058 0.56013 0.0
H1457 H 0.58118 0.73183 0.56324 0.0
H1458 H 0.67878 0.75745 0.55197 0.0
H1459 H 0.58814 0.68004 0.57094 0.0
H1460 H 0.59474 0.49306 0.55939 0.0
H1461 H 0.60188 0.38684 0.50499 0.0
H1462 H 0.63471 0.4686 0.57702 0.0
H1463 H 0.56347 0.41367 0.48482 0.0
Eu1464 Eu 0.10622 0.55456 0.04664 0.0
Eu1465 Eu 0.04545 0.56736 0.08746 0.0
C1466 C 0.10139 0.54148 0.11531 0.0
C1467 C 0.1734 0.51486 0.02223 0.0
C1468 C 0.17154 0.4989 0.04736 0.0
C1469 C 0.21614 0.49029 1.00506 0.0
C1470 C 0.19217 0.47912 0.05161 0.0
C1471 C 0.19578 0.51036 1.0011 0.0
C1472 C 0.21459 0.47443 0.03037 0.0
C1473 C 0.15059 0.53413 1.01646 0.0
O1474 O 0.07703 0.61366 0.08973 0.0
O1475 O 0.12406 0.59959 0.08037 0.0
C1476 C 0.10739 0.61999 0.09188 0.0
O1477 O 0.08397 0.5848 0.01931 0.0
O1478 O 1.02386 0.59528 0.12338 0.0
O1479 O 0.99627 0.55421 0.09397 0.0
O1480 O 0.03735 0.58239 0.04213 0.0
C1481 C 0.05532 0.58971 0.0203 0.0
O1482 O 0.06204 0.52899 0.02011 0.0
O1483 O 0.03585 0.51732 0.06133 0.0
O1484 O 0.08064 0.5589 0.12189 0.0
O1485 O 0.12191 0.51935 1.01335 0.0
O1486 O 0.15411 0.56216 0.03351 0.0
O1487 O 0.10428 0.52858 0.08653 0.0
C1488 C 0.97499 0.60026 0.10166 0.0
C1489 C 0.94842 0.58583 0.08182 0.0
C1490 C 0.9657 0.65127 0.09358 0.0
C1491 C 0.93128 0.60375 0.06738 0.0
C1492 C 0.98304 0.63328 0.10791 0.0
C1493 C 0.94004 0.63664 0.07257 0.0
C1494 C 0.99599 0.58079 0.1124 0.0
C1495 C 0.03936 0.51218 0.03141 0.0
H1496 H 0.15377 0.5013 0.06337 0.0
H1497 H 0.23344 0.48753 0.98853 0.0
H1498 H 0.19028 0.46711 0.07119 0.0
H1499 H 0.19732 0.52213 0.98133 0.0
H1500 H 0.94142 0.56051 0.07659 0.0
H1501 H 0.97299 0.67655 0.09814 0.0
H1502 H 0.9112 0.59177 0.05188 0.0
H1503 H 1.00336 0.64526 0.12306 0.0
C1504 C 0.11027 0.28013 0.9891 0.0
C1505 C 0.08917 0.29916 0.99893 0.0
H1506 H 0.13798 0.24857 1.00144 0.0
C1507 C 0.08059 0.30207 0.02974 0.0
H1508 H 0.11737 0.27777 0.96557 0.0
C1509 C 0.09229 0.28545 0.0502 0.0
C1510 C 0.1132 0.26626 0.0403 0.0
H1511 H 0.06429 0.31668 0.03788 0.0
H1512 H 0.0846 0.28709 0.07348 0.0
C1513 C 0.12238 0.26394 1.00975 0.0
C1514 C 0.23314 0.83996 0.24022 0.0
C1515 C 0.23781 0.83512 0.20834 0.0
H1516 H 0.25374 0.8457 0.28656 0.0
C1517 C 0.26791 0.83742 0.1988 0.0
H1518 H 0.21006 0.83828 0.24812 0.0
C1519 C 0.29294 0.84277 0.22094 0.0
C1520 C 0.28786 0.84487 0.25261 0.0
H1521 H 0.27195 0.83394 0.17432 0.0
H1522 H 0.31593 0.84283 0.21314 0.0
C1523 C 0.25799 0.84428 0.26221 0.0
C1524 C 0.51182 0.95858 0.45729 0.0
C1525 C 0.51595 0.93072 0.46649 0.0
H1526 H 0.51076 1.00693 0.47287 0.0
C1527 C 0.51152 0.9273 0.49757 0.0
H1528 H 0.51386 0.9616 0.4334 0.0
C1529 C 0.51012 0.95334 0.52022 0.0
C1530 C 0.51267 0.98263 0.51167 0.0
H1531 H 0.51307 0.90554 0.50519 0.0
H1532 H 0.51177 0.95132 0.54451 0.0
C1533 C 0.50975 0.98444 0.4799 0.0
C1534 C 0.57029 0.32668 0.67819 0.0
C1535 C 0.56746 0.30618 0.64931 0.0
H1536 H 0.54873 0.34185 0.7193 0.0
C1537 C 0.53817 0.28832 0.63768 0.0
H1538 H 0.59236 0.34136 0.68751 0.0
C1539 C 0.51309 0.28837 0.65626 0.0
C1540 C 0.51697 0.30654 0.68647 0.0
H1541 H 0.53507 0.27275 0.61529 0.0
H1542 H 0.4913 0.2727 0.64778 0.0
C1543 C 0.54535 0.32686 0.69653 0.0
C1544 C 0.06772 0.84287 0.59563 0.0
C1545 C 0.07519 0.85431 0.62774 0.0
H1546 H 0.06863 0.85285 0.54943 0.0
C1547 C 0.0899 0.88585 0.63746 0.0
H1548 H 0.05658 0.81867 0.58713 0.0
C1549 C 0.09696 0.90534 0.61572 0.0
C1550 C 0.08963 0.89383 0.58365 0.0
H1551 H 0.09634 0.89546 0.66187 0.0
H1552 H 0.10854 0.92944 0.62404 0.0
C1553 C 0.07495 0.86234 0.57388 0.0
C1554 C 0.56132 0.89545 0.89088 0.0
C1555 C 0.57872 0.87359 0.87788 0.0
H1556 H 0.52376 0.91856 0.88313 0.0
C1557 C 0.5694 0.85514 0.84848 0.0
H1558 H 0.56811 0.90953 0.91386 0.0
C1559 C 0.54418 0.85995 0.83119 0.0
C1560 C 0.52792 0.88344 0.84297 0.0
H1561 H 0.5821 0.83747 0.83857 0.0
H1562 H 0.53763 0.8454 0.8084 0.0
C1563 C 0.53614 0.9006 0.87334 0.0
C1564 C 0.57458 0.20673 0.10511 0.0
C1565 C 0.55914 0.2063 0.13237 0.0
H1566 H 0.59289 0.18038 0.06716 0.0
C1567 C 0.55329 0.17846 0.14437 0.0
H1568 H 0.58058 0.2282 0.09608 0.0
C1569 C 0.56115 0.15093 0.12807 0.0
C1570 C 0.57491 0.1512 0.09972 0.0
H1571 H 0.54201 0.17783 0.16578 0.0
H1572 H 0.55553 0.12935 0.13695 0.0
C1573 C 0.58192 0.17944 0.08873 0.0
C1574 C 0.23031 0.32245 0.35847 0.0
C1575 C 0.23007 0.35458 0.36572 0.0
H1576 H 0.24735 0.28613 0.32961 0.0
C1577 C 0.25087 0.37553 0.35206 0.0
H1578 H 0.21428 0.30574 0.36826 0.0
C1579 C 0.26934 0.36432 0.32933 0.0
C1580 C 0.26736 0.33196 0.31991 0.0
H1581 H 0.25107 0.40049 0.3572 0.0
H1582 H 0.28425 0.38094 0.31839 0.0
C1583 C 0.24864 0.31122 0.33561 0.0
C1584 C 1.00136 0.05292 0.15546 0.0
C1585 C 1.01305 0.07242 0.18498 0.0
H1586 H 1.0074 0.03518 0.10666 0.0
C1587 C 0.04372 0.08981 0.18339 0.0
H1588 H 0.97845 0.03853 0.15379 0.0
C1589 C 0.06065 0.08828 0.1553 0.0
C1590 C 0.04919 0.06845 0.12591 0.0
H1591 H 0.05502 0.10532 0.20431 0.0
H1592 H 0.08346 0.10289 0.15694 0.0
C1593 C 1.01863 0.05081 0.12755 0.0
C1594 C 0.32313 0.64164 0.45366 0.0
C1595 C 0.3432 0.65375 0.48065 0.0
H1596 H 0.30197 0.65143 0.41237 0.0
C1597 C 0.35951 0.68488 0.48505 0.0
H1598 H 0.31028 0.61774 0.44954 0.0
C1599 C 0.35445 0.70409 0.46415 0.0
C1600 C 0.33314 0.69267 0.43807 0.0
H1601 H 0.37532 0.69495 0.50545 0.0
H1602 H 0.36625 0.7284 0.46935 0.0
C1603 C 0.31808 0.66101 0.43258 0.0
C1604 C 0.67362 0.05358 0.65484 0.0
C1605 C 0.66813 0.0624 0.68616 0.0
H1606 H 0.65379 0.03917 0.60795 0.0
C1607 C 0.6374 0.0586 0.69453 0.0
H1608 H 0.69701 0.05619 0.64769 0.0
C1609 C 0.61267 0.04862 0.67181 0.0
C1610 C 0.61813 0.04182 0.6403 0.0
H1611 H 0.63234 0.0649 0.71852 0.0
H1612 H 0.58931 0.04783 0.67876 0.0
C1613 C 0.6488 0.04334 0.6321 0.0
C1614 C 0.34227 0.37936 0.92834 0.0
C1615 C 0.36246 0.36905 0.94838 0.0
H1616 H 0.32235 0.37648 0.88233 0.0
C1617 C 0.37736 0.34479 0.93495 0.0
H1618 H 0.33032 0.39797 0.9374 0.0
C1619 C 0.3728 0.33223 0.90239 0.0
C1620 C 0.35303 0.34336 0.88238 0.0
H1621 H 0.39345 0.33644 0.94927 0.0
H1622 H 0.38517 0.31417 0.89285 0.0
C1623 C 0.33763 0.36686 0.89633 0.0
C1624 C 0.99203 0.08474 0.40691 0.0
C1625 C 1.00152 0.07709 0.3761 0.0
H1626 H 0.99971 0.08834 0.45694 0.0
C1627 C 0.02984 0.0655 0.37609 0.0
H1628 H 0.97067 0.09332 0.40967 0.0
C1629 C 0.04676 0.06179 0.40426 0.0
C1630 C 0.03715 0.06976 0.43506 0.0
H1631 H 0.03886 0.05843 0.35393 0.0
H1632 H 0.06779 0.05258 0.40171 0.0
C1633 C 1.00912 0.08164 0.4349 0.0
C1634 C 0.33608 0.6987 0.6782 0.0
C1635 C 0.35348 0.70671 0.65351 0.0
H1636 H 0.31536 0.71452 0.72014 0.0
C1637 C 0.36306 0.73904 0.65327 0.0
H1638 H 0.32779 0.67427 0.67924 0.0
C1639 C 0.35568 0.76236 0.67676 0.0
C1640 C 0.33807 0.75436 0.70133 0.0
H1641 H 0.37614 0.74646 0.63463 0.0
H1642 H 0.36397 0.78678 0.6757 0.0
C1643 C 0.32852 0.722 0.70157 0.0
C1644 C 0.74181 0.13265 0.87075 0.0
C1645 C 0.73847 0.14767 0.84553 0.0
H1646 H 0.72356 0.12185 0.91278 0.0
C1647 C 0.71806 0.1686 0.84636 0.0
H1648 H 0.75729 0.11619 0.87031 0.0
C1649 C 0.69903 0.17223 0.87074 0.0
C1650 C 0.69968 0.15444 0.89431 0.0
H1651 H 0.7154 0.18056 0.8271 0.0
H1652 H 0.68237 0.18735 0.87003 0.0
C1653 C 0.72243 0.13592 0.895 0.0
C1654 C 0.36634 0.37814 0.16091 0.0
C1655 C 0.35714 0.35931 0.13125 0.0
H1656 H 0.36795 0.38222 0.21067 0.0
C1657 C 0.34027 0.32858 0.1308 0.0
H1658 H 0.37922 0.40185 0.16277 0.0
C1659 C 0.33311 0.31729 0.15876 0.0
C1660 C 0.34296 0.33605 0.18842 0.0
H1661 H 0.33249 0.31313 0.10871 0.0
H1662 H 0.32051 0.2935 0.15707 0.0
C1663 C 0.35972 0.36673 0.18869 0.0
C1664 C 0.22542 0.99908 0.02377 0.0
C1665 C 0.25014 1.02031 1.01432 0.0
H1666 H 0.17777 0.98919 0.03624 0.0
C1667 C 0.24291 0.04993 1.0119 0.0
H1668 H 0.22899 0.97598 0.02619 0.0
C1669 C 0.21359 0.05801 0.01899 0.0
C1670 C 0.18873 0.0368 0.02803 0.0
H1671 H 0.26034 0.06748 1.00488 0.0
H1672 H 0.21018 0.0812 1.01669 0.0
C1673 C 0.19553 1.00681 0.02975 0.0
C1674 C 0.69375 0.67773 0.99701 0.0
C1675 C 0.72286 0.67385 1.00845 0.0
H1676 H 0.64467 0.65887 0.98947 0.0
C1677 C 0.72389 0.64777 0.02262 0.0
H1678 H 0.69192 0.69797 0.98674 0.0
C1679 C 0.69723 0.62503 0.02336 0.0
C1680 C 0.66823 0.62824 1.01119 0.0
H1681 H 0.74557 0.64483 0.03314 0.0
H1682 H 0.69926 0.60514 0.03415 0.0
C1683 C 0.66671 0.65526 0.9985 0.0
C1684 C 0.74466 0.43115 0.27402 0.0
C1685 C 0.7611 0.46316 0.28523 0.0
H1686 H 0.74297 0.38002 0.26457 0.0
C1687 C 0.79269 0.46214 0.29502 0.0
H1688 H 0.72048 0.42784 0.26614 0.0
C1689 C 0.8063 0.43373 0.29335 0.0
C1690 C 0.7901 0.40179 0.28269 0.0
H1691 H 0.80796 0.48431 0.30433 0.0
H1692 H 0.83047 0.43719 0.30139 0.0
C1693 C 0.75817 0.40238 0.27325 0.0
C1694 C 0.93529 0.54639 0.51832 0.0
C1695 C 0.92096 0.51443 0.50868 0.0
H1696 H 0.97793 0.58115 0.52891 0.0
C1697 C 0.94158 0.4932 0.5032 0.0
H1698 H 0.92113 0.56366 0.52482 0.0
C1699 C 0.9743 0.50298 0.50737 0.0
C1700 C 0.98866 0.53481 0.5165 0.0
H1701 H 0.93227 0.4683 0.49648 0.0
H1702 H 0.98848 0.4853 0.50345 0.0
C1703 C 0.96831 0.55642 0.52131 0.0
C1704 C 0.40192 0.11517 0.30264 0.0
C1705 C 0.39655 0.11707 0.33426 0.0
H1706 H 0.38666 0.12266 0.2582 0.0
C1707 C 0.37263 0.13171 0.34584 0.0
H1708 H 0.41976 0.1035 0.29275 0.0
C1709 C 0.35379 0.14317 0.32595 0.0
C1710 C 0.35808 0.13969 0.29394 0.0
H1711 H 0.36786 0.13343 0.37007 0.0
H1712 H 0.33568 0.1545 0.33569 0.0
C1713 C 0.38273 0.12602 0.28268 0.0
C1714 C 0.38488 0.19747 0.56174 0.0
C1715 C 0.38016 0.1889 0.52912 0.0
H1716 H 0.40699 0.18962 0.60358 0.0
C1717 C 0.39747 0.16826 0.51337 0.0
H1718 H 0.37143 0.21286 0.57457 0.0
C1719 C 0.41803 0.15536 0.52997 0.0
C1720 C 0.42107 0.16222 0.56265 0.0
H1721 H 0.39401 0.16095 0.48832 0.0
H1722 H 0.43028 0.13862 0.51734 0.0
C1723 C 0.40486 0.18389 0.57839 0.0
C1724 C 0.74345 0.66918 0.29543 0.0
C1725 C 0.75834 0.64261 0.29095 0.0
H1726 H 0.74499 0.71931 0.29825 0.0
C1727 C 0.79009 0.6514 0.28476 0.0
H1728 H 0.71913 0.6652 0.29945 0.0
C1729 C 0.80561 0.68364 0.28454 0.0
C1730 C 0.79061 0.71019 0.28922 0.0
H1731 H 0.80317 0.63305 0.27906 0.0
H1732 H 0.82975 0.68756 0.27981 0.0
C1733 C 0.75871 0.70123 0.2946 0.0
C1734 C 0.88386 0.46766 0.85496 0.0
C1735 C 0.91256 0.47516 0.87253 0.0
H1736 H 0.84633 0.43133 0.83307 0.0
C1737 C 0.92339 0.45193 0.88546 0.0
H1738 H 0.87572 0.4848 0.84349 0.0
C1739 C 0.90682 0.42109 0.87881 0.0
C1740 C 0.87936 0.41334 0.85923 0.0
H1741 H 0.94572 0.45713 0.8986 0.0
H1742 H 0.91684 0.40284 0.88659 0.0
C1743 C 0.86701 0.43703 0.8489 0.0
C1744 C 0.16957 0.86833 0.06011 0.0
C1745 C 0.16723 0.86912 0.09209 0.0
H1746 H 0.15716 0.88704 0.02059 0.0
C1747 C 0.15746 0.89432 0.11025 0.0
H1748 H 0.17752 0.84915 0.04581 0.0
C1749 C 0.14477 0.9152 0.09578 0.0
C1750 C 0.14257 0.91151 0.06309 0.0
H1751 H 0.15544 0.89532 0.13496 0.0
H1752 H 0.13376 0.93193 0.1101 0.0
C1753 C 0.15737 0.88957 0.04565 0.0
C1754 C 0.98556 0.30232 0.85905 0.0
C1755 C 0.98805 0.31905 0.88971 0.0
H1756 H 0.95669 0.28647 0.81619 0.0
C1757 C 0.96195 0.32828 0.90247 0.0
H1758 H 1.00527 0.29389 0.84931 0.0
C1759 C 0.93441 0.32346 0.88417 0.0
C1760 C 0.93239 0.30936 0.85259 0.0
H1761 H 0.96319 0.34048 0.92637 0.0
H1762 H 0.91525 0.33248 0.89452 0.0
C1763 C 0.95785 0.29784 0.84033 0.0
C1764 C 0.61512 0.19847 0.63964 0.0
C1765 C 0.63995 0.21358 0.62559 0.0
H1766 H 0.58274 0.15587 0.63897 0.0
C1767 C 0.65492 0.19599 0.60334 0.0
H1768 H 0.60381 0.21164 0.65739 0.0
C1769 C 0.64336 0.1639 0.59326 0.0
C1770 C 0.61654 0.14945 0.60513 0.0
H1771 H 0.67476 0.20729 0.593 0.0
H1772 H 0.65414 0.15096 0.57488 0.0
C1773 C 0.60315 0.16671 0.6291 0.0
C1774 C 0.65879 0.93117 0.40982 0.0
C1775 C 0.64827 0.91187 0.43113 0.0
H1776 H 0.68939 0.93811 0.37406 0.0
C1777 C 0.6681 0.89348 0.44128 0.0
H1778 H 0.64448 0.94632 0.40217 0.0
C1779 C 0.69395 0.88877 0.42508 0.0
C1780 C 0.7004 0.90284 0.39905 0.0
H1781 H 0.66123 0.87893 0.45826 0.0
H1782 H 0.70652 0.87123 0.43046 0.0
C1783 C 0.6846 0.92642 0.39358 0.0
C1784 C 0.10457 0.26192 0.43943 0.0
C1785 C 0.12546 0.28933 0.4536 0.0
H1786 H 0.07608 0.2188 0.44523 0.0
C1787 C 0.13449 0.29326 0.48551 0.0
H1788 H 0.09687 0.25825 0.415 0.0
C1789 C 0.1226 0.27062 0.50291 0.0
C1790 C 0.1013 0.24339 0.48891 0.0
H1791 H 0.15053 0.31411 0.49724 0.0
H1792 H 0.13031 0.2744 0.52734 0.0
C1793 C 0.09264 0.23928 0.45684 0.0
C1794 C 0.63216 0.34278 0.24066 0.0
C1795 C 0.63241 0.32568 0.21032 0.0
H1796 H 0.64946 0.34943 0.28846 0.0
C1797 C 0.65642 0.30951 0.20323 0.0
H1798 H 0.61415 0.35598 0.24656 0.0
C1799 C 0.67635 0.30576 0.22719 0.0
C1800 C 0.67257 0.31845 0.2582 0.0
H1801 H 0.65741 0.29646 0.18003 0.0
H1802 H 0.6928 0.29051 0.22186 0.0
C1803 C 0.65211 0.33895 0.26468 0.0
C1804 C 0.65095 0.95305 0.97769 0.0
C1805 C 0.66094 0.9568 0.94825 0.0
H1806 H 0.62851 0.97141 1.01711 0.0
C1807 C 0.65923 0.98492 0.93799 0.0
H1808 H 0.65189 0.93173 0.98642 0.0
C1809 C 0.64548 1.00751 0.9555 0.0
C1810 C 0.63308 1.00246 0.98362 0.0
H1811 H 0.66686 0.98869 0.91554 0.0
H1812 H 0.64355 0.02839 0.94635 0.0
C1813 C 0.63699 0.97556 0.99509 0.0
C1814 C 0.96092 0.77561 0.71647 0.0
C1815 C 0.98699 0.79976 0.72527 0.0
H1816 H 0.91509 0.75591 0.72547 0.0
C1817 C 0.98648 0.82262 0.75201 0.0
H1818 H 0.96061 0.75719 0.69649 0.0
C1819 C 0.96017 0.82185 0.7689 0.0
C1820 C 0.93387 0.79804 0.75959 0.0
H1821 H 1.00633 0.84134 0.75977 0.0
H1822 H 0.96015 0.84041 0.78867 0.0
C1823 C 0.93485 0.77466 0.73346 0.0
C1824 C 0.1454 0.04617 0.87754 0.0
C1825 C 0.17763 0.05998 0.8779 0.0
H1826 H 0.10372 0.03578 0.90236 0.0
C1827 C 0.18999 0.07558 0.90874 0.0
H1828 H 0.1335 0.0336 0.85556 0.0
C1829 C 0.17225 0.07764 0.93612 0.0
C1830 C 0.14026 0.06358 0.93602 0.0
H1831 H 0.21415 0.08688 0.91203 0.0
H1832 H 0.18429 0.09019 0.95805 0.0
C1833 C 0.12776 0.04748 0.90529 0.0
C1834 C 0.86479 0.47155 0.6184 0.0
C1835 C 0.83927 0.45488 0.59817 0.0
H1836 H 0.89762 0.47077 0.65538 0.0
C1837 C 0.82459 0.42527 0.60298 0.0
H1838 H 0.87688 0.49425 0.61499 0.0
C1839 C 0.83614 0.41192 0.6266 0.0
C1840 C 0.86306 0.42759 0.64551 0.0
H1841 H 0.80484 0.4119 0.58774 0.0
H1842 H 0.82431 0.38895 0.62948 0.0
C1843 C 0.87674 0.45797 0.6416 0.0
C1844 C 0.52138 0.08745 0.43745 0.0
C1845 C 0.49138 0.09363 0.4414 0.0
H1846 H 0.56332 0.08085 0.45965 0.0
C1847 C 0.4838 0.10526 0.47136 0.0
H1848 H 0.52822 0.07887 0.4146 0.0
C1849 C 0.50412 0.10668 0.49706 0.0
C1850 C 0.5323 0.0963 0.49336 0.0
H1851 H 0.4612 0.11082 0.47522 0.0
H1852 H 0.4965 0.11333 0.51996 0.0
C1853 C 0.54167 0.08868 0.46328 0.0
C1854 C 0.82923 0.74805 0.13438 0.0
C1855 C 0.81552 0.76477 0.11472 0.0
H1856 H 0.84515 0.74535 0.18091 0.0
C1857 C 0.80676 0.79275 0.12905 0.0
H1858 H 0.83634 0.72645 0.12447 0.0
C1859 C 0.81075 0.80304 0.16187 0.0
C1860 C 0.82483 0.78645 0.18146 0.0
H1861 H 0.79597 0.80627 0.11495 0.0
H1862 H 0.80309 0.82428 0.1719 0.0
C1863 C 0.83436 0.75898 0.16693 0.0
C1864 C 0.13562 0.05726 0.68201 0.0
C1865 C 0.16598 0.0502 0.68456 0.0
H1866 H 0.0975 0.06669 0.65391 0.0
C1867 C 0.17935 0.0467 0.65527 0.0
H1868 H 0.12349 0.06059 0.70292 0.0
C1869 C 0.16358 0.04931 0.62616 0.0
C1870 C 0.13345 0.05696 0.62374 0.0
H1871 H 0.20235 0.04144 0.65458 0.0
H1872 H 0.17561 0.04573 0.60521 0.0
C1873 C 0.12032 0.061 0.65312 0.0
C1874 C 0.84424 0.43701 0.39419 0.0
C1875 C 0.83102 0.43113 0.4219 0.0
H1876 H 0.85991 0.41823 0.35023 0.0
C1877 C 0.82275 0.39931 0.42489 0.0
H1878 H 0.85087 0.46083 0.39043 0.0
C1879 C 0.82741 0.37458 0.40125 0.0
C1880 C 0.84155 0.38062 0.37407 0.0
H1881 H 0.81262 0.39339 0.44567 0.0
H1882 H 0.82012 0.35061 0.40441 0.0
C1883 C 0.84979 0.41236 0.37104 0.0
C1884 C 0.49875 0.06218 0.25897 0.0
C1885 C 0.47601 0.0386 0.26651 0.0
H1886 H 0.52998 0.07594 0.22582 0.0
C1887 C 0.46569 1.01069 0.24483 0.0
H1888 H 0.50696 0.08395 0.2753 0.0
C1889 C 0.47932 1.00587 0.21654 0.0
C1890 C 0.50273 0.02927 0.20949 0.0
H1891 H 0.44824 0.99215 0.25032 0.0
H1892 H 0.47198 0.98381 0.20043 0.0
C1893 C 0.5118 0.05767 0.23064 0.0
C1894 C 0.82355 0.72744 0.89658 0.0
C1895 C 0.82045 0.74634 0.92567 0.0
H1896 H 0.83295 0.72424 0.84844 0.0
C1897 C 0.82589 0.77907 0.92643 0.0
H1898 H 0.81977 0.70218 0.89414 0.0
C1899 C 0.83378 0.79196 0.89939 0.0
C1900 C 0.83664 0.77276 0.87039 0.0
H1901 H 0.82391 0.7948 0.94786 0.0
H1902 H 0.83727 0.81715 0.90119 0.0
C1903 C 0.83135 0.74021 0.86984 0.0
C1904 C 0.94326 0.07751 0.02482 0.0
C1905 C 0.93767 0.10385 0.04617 0.0
H1906 H 0.97559 0.05117 1.00236 0.0
C1907 C 0.96509 0.12459 0.06081 0.0
H1908 H 0.92376 0.0605 1.01257 0.0
C1909 C 0.99573 0.11915 0.05451 0.0
C1910 C 1.0011 0.09266 0.03313 0.0
H1911 H 0.96298 0.14528 0.0773 0.0
H1912 H 1.01542 0.13582 0.06686 0.0
C1913 C 0.97368 0.07207 0.01866 0.0
C1914 C 0.45855 0.48091 0.07176 0.0
C1915 C 0.4543 0.45052 0.05356 0.0
H1916 H 0.4869 0.5273 0.08351 0.0
C1917 C 0.4787 0.4427 0.03627 0.0
H1918 H 0.44066 0.48735 0.08631 0.0
C1919 C 0.50529 0.46547 0.03482 0.0
C1920 C 0.50851 0.4968 0.05087 0.0
H1921 H 0.47659 0.41936 0.02259 0.0
H1922 H 0.52283 0.45864 0.02 0.0
C1923 C 0.48516 0.50383 0.07027 0.0
C1924 C 0.38784 0.6729 0.80484 0.0
C1925 C 0.41618 0.66715 0.79129 0.0
H1926 H 0.35277 0.70161 0.81622 0.0
C1927 C 0.42933 0.69436 0.77839 0.0
H1928 H 0.37509 0.65456 0.81537 0.0
C1929 C 0.41593 0.7232 0.77937 0.0
C1930 C 0.3874 0.72862 0.79296 0.0
H1931 H 0.45069 0.69374 0.76729 0.0
H1932 H 0.4284 0.74164 0.76877 0.0
C1933 C 0.37433 0.70129 0.80541 0.0
C1934 C 0.24334 0.62117 0.541 0.0
C1935 C 0.26149 0.60658 0.55917 0.0
H1936 H 0.19832 0.62534 0.5232 0.0
C1937 C 0.24468 0.58404 0.5747 0.0
H1938 H 0.25475 0.6392 0.52921 0.0
C1939 C 0.21148 0.57641 0.5718 0.0
C1940 C 0.19341 0.59098 0.55329 0.0
H1941 H 0.25717 0.5728 0.58982 0.0
H1942 H 0.19997 0.55902 0.58424 0.0
C1943 C 0.21046 0.61326 0.53772 0.0
C1944 C 0.7649 1.02368 0.80881 0.0
C1945 C 0.76463 0.0289 0.77817 0.0
H1946 H 0.78078 0.99798 0.84131 0.0
C1947 C 0.77705 1.00938 0.75547 0.0
H1948 H 0.75602 0.03914 0.82676 0.0
C1949 C 0.79234 0.98684 0.76388 0.0
C1950 C 0.7951 0.98322 0.79514 0.0
H1951 H 0.77782 1.01377 0.7319 0.0
H1952 H 0.80407 0.97412 0.74622 0.0
C1953 C 0.77979 1.00073 0.81722 0.0
C1954 C 0.77595 0.94605 0.56938 0.0
C1955 C 0.78593 0.92794 0.54357 0.0
H1956 H 0.74352 0.97463 0.58597 0.0
C1957 C 0.76796 0.92124 0.51508 0.0
H1958 H 0.79001 0.95239 0.5913 0.0
C1959 C 0.74168 0.93426 0.51182 0.0
C1960 C 0.73297 0.95448 0.53698 0.0
H1961 H 0.77568 0.90799 0.49465 0.0
H1962 H 0.72916 0.9299 0.48914 0.0
C1963 C 0.74952 0.95905 0.56619 0.0
C1964 C 0.4338 0.46277 0.78636 0.0
C1965 C 0.41841 0.48644 0.77809 0.0
H1966 H 0.43257 0.41476 0.79322 0.0
C1967 C 0.38637 0.47409 0.76846 0.0
H1968 H 0.45835 0.46925 0.79321 0.0
C1969 C 0.37096 0.4419 0.76888 0.0
C1970 C 0.38632 0.41842 0.77776 0.0
H1971 H 0.37279 0.48939 0.76003 0.0
H1972 H 0.34652 0.43528 0.76157 0.0
C1973 C 0.41858 0.43049 0.78627 0.0
C1974 C 0.31581 0.68486 0.2313 0.0
C1975 C 0.28818 0.68002 0.2461 0.0
H1976 H 0.35689 0.71807 0.2265 0.0
C1977 C 0.27722 0.70595 0.2615 0.0
H1978 H 0.32386 0.66519 0.21805 0.0
C1979 C 0.29527 0.73589 0.26521 0.0
C1980 C 0.32457 0.74038 0.2537 0.0
H1981 H 0.25543 0.70287 0.27217 0.0
H1982 H 0.28717 0.75528 0.27886 0.0
C1983 C 0.33427 0.71501 0.23551 0.0
C1984 C 0.59281 0.81023 0.52998 0.0
C1985 C 0.60008 0.80699 0.49874 0.0
H1986 H 0.59682 0.7941 0.57308 0.0
C1987 C 0.61997 0.78694 0.48782 0.0
H1988 H 0.57758 0.82569 0.53908 0.0
C1989 C 0.63146 0.76946 0.50759 0.0
C1990 C 0.6229 0.77158 0.53836 0.0
H1991 H 0.6261 0.78428 0.46395 0.0
H1992 H 0.64565 0.75297 0.4983 0.0
C1993 C 0.60391 0.79243 0.54957 0.0
C1994 C 0.76551 0.33545 0.69503 0.0
C1995 C 0.73515 0.33393 0.70366 0.0
H1996 H 0.81321 0.34139 0.71092 0.0
C1997 C 0.72973 0.34068 0.7353 0.0
H1998 H 0.77014 0.33053 0.67075 0.0
C1999 C 0.75405 0.34617 0.75809 0.0
C2000 C 0.78416 0.34604 0.74951 0.0
H2001 H 0.70645 0.33966 0.74254 0.0
H2002 H 0.74918 0.34902 0.78236 0.0
C2003 C 0.79003 0.34197 0.71792 0.0
C2004 C 1.01811 0.45939 0.95553 0.0
C2005 C 1.01788 0.43071 0.96507 0.0
H2006 H 1.02381 0.50891 0.97041 0.0
C2007 C 1.01321 0.42864 0.9964 0.0
H2008 H 1.02062 0.4616 0.93148 0.0
C2009 C 1.01542 0.45578 0.01877 0.0
C2010 C 1.0218 0.48493 1.00972 0.0
H2011 H 1.0116 0.40652 1.0043 0.0
H2012 H 1.01622 0.45407 0.04316 0.0
C2013 C 1.01988 0.48645 0.97786 0.0
C2014 C 0.07144 0.82502 0.18634 0.0
C2015 C 0.06876 0.80545 0.15693 0.0
H2016 H 0.04959 0.83887 0.22763 0.0
C2017 C 0.03958 0.78764 0.14487 0.0
H2018 H 0.09342 0.83964 0.19604 0.0
C2019 C 1.01437 0.78701 0.1633 0.0
C2020 C 1.01804 0.80441 0.19383 0.0
H2021 H 0.03664 0.7727 0.12213 0.0
H2022 H 0.99262 0.77151 0.15436 0.0
C2023 C 0.04639 0.8245 0.20456 0.0
C2024 C 0.57373 0.36918 0.11123 0.0
C2025 C 0.54424 0.35009 0.10331 0.0
H2026 H 0.61004 0.40212 0.09822 0.0
C2027 C 0.52716 0.35309 0.0765 0.0
H2028 H 0.58792 0.3671 0.13129 0.0
C2029 C 0.5397 0.37409 0.05764 0.0
C2030 C 0.56994 0.39201 0.06472 0.0
H2031 H 0.50445 0.33859 0.06964 0.0
H2032 H 0.52575 0.37594 0.03734 0.0
C2033 C 0.58653 0.38943 0.09204 0.0
C2034 C 0.06517 0.35997 0.34324 0.0
C2035 C 0.07612 0.37814 0.37239 0.0
H2036 H 0.03279 0.35237 0.30391 0.0
C2037 C 0.06094 0.40189 0.38575 0.0
H2038 H 0.07607 0.34091 0.33307 0.0
C2039 C 0.03637 0.40897 0.36881 0.0
C2040 C 1.02666 0.39202 0.33863 0.0
H2041 H 0.06896 0.41577 0.40857 0.0
H2042 H 1.02553 0.42807 0.37892 0.0
C2043 C 0.04066 0.36681 0.32651 0.0
C2044 C 0.03431 0.65988 0.64128 0.0
C2045 C 1.02527 0.68195 0.62491 0.0
H2046 H 0.0554 0.61945 0.63903 0.0
C2047 C 1.02567 0.67667 0.59238 0.0
H2048 H 0.03416 0.66326 0.66637 0.0
C2049 C 0.03889 0.65252 0.57713 0.0
C2050 C 0.05098 0.6326 0.59397 0.0
H2051 H 1.01868 0.693 0.57898 0.0
H2052 H 0.04083 0.65021 0.55228 0.0
C2053 C 0.04687 0.63512 0.62579 0.0
C2054 C 0.75398 0.87705 0.85665 0.0
C2055 C 0.73364 0.85571 0.87027 0.0
H2056 H 0.78678 0.88344 0.82274 0.0
C2057 C 0.73396 0.82359 0.86214 0.0
H2058 H 0.75408 0.90197 0.86231 0.0
C2059 C 0.75225 0.81288 0.83885 0.0
C2060 C 0.77068 0.83411 0.82346 0.0
H2061 H 0.71815 0.80655 0.87177 0.0
H2062 H 0.75121 0.78787 0.8323 0.0
C2063 C 0.7722 0.86638 0.83344 0.0
C2064 C 0.50046 0.55534 0.65547 0.0
C2065 C 0.5124 0.57507 0.68479 0.0
H2066 H 0.50616 0.53701 0.60673 0.0
C2067 C 0.54311 0.59219 0.68294 0.0
H2068 H 0.47749 0.54113 0.65402 0.0
C2069 C 0.55989 0.59021 0.65476 0.0
C2070 C 0.54817 0.57014 0.62556 0.0
H2071 H 0.55458 0.60783 0.70371 0.0
H2072 H 0.58276 0.60464 0.65615 0.0
C2073 C 0.51756 0.55277 0.62748 0.0
C2074 C 0.85873 0.18826 0.98313 0.0
C2075 C 0.84378 0.15662 0.97822 0.0
H2076 H 0.86321 0.23216 0.96824 0.0
C2077 C 0.82359 0.14429 0.95134 0.0
H2078 H 0.87452 0.19858 1.00349 0.0
C2079 C 0.81713 0.16376 0.93086 0.0
C2080 C 0.83096 0.19578 0.93678 0.0
H2081 H 0.81175 0.12001 0.94679 0.0
H2082 H 0.80098 0.1539 0.91072 0.0
C2083 C 0.85233 0.20757 0.96277 0.0
C2084 C 0.1815 0.55361 0.15505 0.0
C2085 C 0.17549 0.56073 0.18642 0.0
H2086 H 0.16243 0.5416 0.10777 0.0
C2087 C 0.14454 0.55667 0.19419 0.0
H2088 H 0.20505 0.55651 0.14833 0.0
C2089 C 0.12017 0.54802 0.17101 0.0
C2090 C 0.12617 0.54275 0.13958 0.0
H2091 H 0.13904 0.56171 0.21818 0.0
H2092 H 0.09668 0.54693 0.17765 0.0
C2093 C 0.15702 0.54463 0.13182 0.0
C2094 C 0.83709 0.87613 0.43226 0.0
C2095 C 0.85964 0.86887 0.45216 0.0
H2096 H 0.81521 0.86997 0.3864 0.0
C2097 C 0.87718 0.84696 0.43874 0.0
H2098 H 0.82319 0.89299 0.44136 0.0
C2099 C 0.87286 0.83377 0.40633 0.0
C2100 C 0.85073 0.84191 0.38637 0.0
H2101 H 0.8952 0.84113 0.45293 0.0
H2102 H 0.88739 0.81775 0.3968 0.0
C2103 C 0.83259 0.86289 0.40034 0.0
C2104 C 0.49087 0.58617 0.90687 0.0
C2105 C 0.50093 0.57983 0.87612 0.0
H2106 H 0.49799 0.58847 0.95679 0.0
C2107 C 0.52984 0.56933 0.87619 0.0
H2108 H 0.46906 0.59385 0.90961 0.0
C2109 C 0.54677 0.56544 0.90432 0.0
C2110 C 0.53657 0.57206 0.93506 0.0
H2111 H 0.5394 0.56331 0.8541 0.0
H2112 H 0.56828 0.55713 0.90177 0.0
C2113 C 0.50792 0.58283 0.93483 0.0
C2114 C 0.84113 0.19575 0.17673 0.0
C2115 C 0.85727 0.20486 0.15172 0.0
H2116 H 0.82127 0.20997 0.2196 0.0
C2117 C 0.86573 0.23737 0.15193 0.0
H2118 H 0.83377 0.17111 0.17745 0.0
C2119 C 0.85825 0.25987 0.17612 0.0
C2120 C 0.84176 0.25074 0.20094 0.0
H2121 H 0.87785 0.24556 0.13305 0.0
H2122 H 0.86544 0.28451 0.17532 0.0
C2123 C 0.83354 0.21822 0.20084 0.0
C2124 C 0.24287 0.62941 0.3741 0.0
C2125 C 0.23971 0.64336 0.3481 0.0
H2126 H 0.22382 0.61941 0.4161 0.0
C2127 C 0.218 0.66275 0.34706 0.0
H2128 H 0.25922 0.61399 0.37501 0.0
C2129 C 0.19789 0.6661 0.37053 0.0
C2130 C 0.19881 0.64964 0.39513 0.0
H2131 H 0.21534 0.67375 0.3271 0.0
H2132 H 0.18044 0.68013 0.36846 0.0
C2133 C 0.2225 0.63249 0.39751 0.0
C2134 C 0.86982 0.88612 0.66632 0.0
C2135 C 0.85931 0.86647 0.63726 0.0
H2136 H 0.87405 0.89158 0.71632 0.0
C2137 C 0.84322 0.83581 0.63823 0.0
H2138 H 0.88225 0.90983 0.66707 0.0
C2139 C 0.83791 0.82538 0.66689 0.0
C2140 C 0.84893 0.84492 0.69593 0.0
H2141 H 0.83454 0.81975 0.6167 0.0
H2142 H 0.82563 0.80163 0.66621 0.0
C2143 C 0.86503 0.87553 0.69487 0.0
C2144 C 0.74054 0.54884 0.50969 0.0
C2145 C 0.7473 0.51897 0.51181 0.0
H2146 H 0.70834 0.5807 0.5151 0.0
C2147 C 0.72244 0.498 0.52134 0.0
H2148 H 0.75815 0.56623 0.50268 0.0
C2149 C 0.69282 0.50617 0.52766 0.0
C2150 C 0.68645 0.53637 0.5263 0.0
H2151 H 0.72567 0.47475 0.52355 0.0
H2152 H 0.67494 0.48869 0.53413 0.0
C2153 C 0.71145 0.55737 0.51717 0.0
C2154 C 0.19353 0.17379 0.49201 0.0
C2155 C 0.22248 0.17057 0.50445 0.0
H2156 H 0.14456 0.15458 0.4842 0.0
C2157 C 0.22353 0.14503 0.51945 0.0
H2158 H 0.1917 0.19368 0.48116 0.0
C2159 C 0.19696 0.12218 0.52018 0.0
C2160 C 0.16816 0.12496 0.50725 0.0
H2161 H 0.24504 0.14279 0.53088 0.0
H2162 H 0.19877 0.10281 0.53185 0.0
C2163 C 0.16661 0.15133 0.4936 0.0
C2164 C 0.2941 0.96638 0.79206 0.0
C2165 C 0.26182 0.96724 0.78547 0.0
H2166 H 0.3323 0.94138 0.79569 0.0
C2167 C 0.24453 0.93524 0.77763 0.0
H2168 H 0.30999 0.98863 0.79881 0.0
C2169 C 0.25798 0.90654 0.777 0.0
C2170 C 0.29056 0.90605 0.78302 0.0
H2171 H 0.21978 0.93196 0.77259 0.0
H2172 H 0.24217 0.88414 0.77136 0.0
C2173 C 0.30759 0.93795 0.79032 0.0
C2174 C 0.4385 0.04431 0.03826 0.0
C2175 C 0.42373 1.02219 1.01202 0.0
H2176 H 0.48138 0.06988 0.06387 0.0
C2177 C 0.44374 1.01053 0.9904 0.0
H2178 H 0.42466 0.053 0.05638 0.0
C2179 C 0.47648 1.02148 0.99395 0.0
C2180 C 0.49129 0.04297 0.02058 0.0
H2181 H 0.43402 0.9923 0.97071 0.0
H2182 H 0.4904 1.01179 0.97644 0.0
C2183 C 0.4714 0.05392 0.04271 0.0
C2184 C 0.88917 0.63408 0.84283 0.0
C2185 C 0.91214 0.61798 0.83127 0.0
H2186 H 0.85401 0.65902 0.83265 0.0
C2187 C 0.91888 0.61713 0.80006 0.0
H2188 H 0.88355 0.63535 0.8668 0.0
C2189 C 0.90147 0.63019 0.78031 0.0
C2190 C 0.87715 0.6444 0.79147 0.0
H2191 H 0.93625 0.60469 0.79032 0.0
H2192 H 0.9062 0.628 0.75605 0.0
C2193 C 0.87189 0.64717 0.82315 0.0
C2194 C 0.8926 0.69677 0.05662 0.0
C2195 C 0.88086 0.68448 0.02561 0.0
H2196 H 0.92033 0.69106 0.09598 0.0
C2197 C 0.89216 0.65904 1.00923 0.0
H2198 H 0.88423 0.71615 0.07004 0.0
C2199 C 0.91257 0.64459 0.02414 0.0
C2200 C 0.92228 0.65519 0.05582 0.0
H2201 H 0.88387 0.6491 0.98526 0.0
H2202 H 0.91986 0.62432 1.01111 0.0
C2203 C 0.91314 0.68226 0.07158 0.0
C2204 C 0.29054 0.15434 0.78349 0.0
C2205 C 0.259 0.14595 0.79048 0.0
H2206 H 0.33008 0.19004 0.77726 0.0
C2207 C 0.24433 0.17265 0.7951 0.0
H2208 H 0.30338 0.1358 0.77764 0.0
C2209 C 0.25963 0.20449 0.79363 0.0
C2210 C 0.29133 0.21306 0.7874 0.0
H2211 H 0.22016 0.16893 0.79972 0.0
H2212 H 0.24611 0.22273 0.79745 0.0
C2213 C 0.30611 0.18638 0.7826 0.0
C2214 C 0.38243 0.96646 0.35325 0.0
C2215 C 0.41147 0.97601 0.37014 0.0
H2216 H 0.34644 0.92791 0.33252 0.0
C2217 C 0.4248 0.95407 0.38279 0.0
H2218 H 0.37234 0.98274 0.34216 0.0
C2219 C 0.41016 0.92256 0.37677 0.0
C2220 C 0.38223 0.91283 0.35796 0.0
H2221 H 0.44739 0.96093 0.39548 0.0
H2222 H 0.42182 0.90545 0.38467 0.0
C2223 C 0.36758 0.93512 0.34771 0.0
C2224 C 0.65989 0.39172 0.60331 0.0
C2225 C 0.66753 0.3656 0.58454 0.0
H2226 H 0.63777 0.43054 0.6047 0.0
C2227 C 0.66807 0.36435 0.5523 0.0
H2228 H 0.6594 0.39323 0.62825 0.0
C2229 C 0.65592 0.38611 0.53853 0.0
C2230 C 0.643 0.40907 0.55693 0.0
H2231 H 0.67448 0.34455 0.53747 0.0
H2232 H 0.65426 0.38327 0.51341 0.0
C2233 C 0.64724 0.41309 0.58958 0.0
C2234 C 0.46932 0.83032 0.40282 0.0
C2235 C 0.49587 0.82263 0.38967 0.0
H2236 H 0.42187 0.8322 0.39552 0.0
C2237 C 0.49363 0.80641 0.35883 0.0
H2238 H 0.47039 0.84209 0.42685 0.0
C2239 C 0.46555 0.80081 0.34043 0.0
C2240 C 0.43948 0.81071 0.35312 0.0
H2241 H 0.51372 0.79916 0.34874 0.0
H2242 H 0.46453 0.78982 0.31617 0.0
C2243 C 0.44145 0.8244 0.38482 0.0
C2244 C 0.15948 0.69965 0.10638 0.0
C2245 C 0.14404 0.71585 0.12926 0.0
H2246 H 0.15996 0.65569 0.07649 0.0
C2247 C 0.11978 0.69942 0.14296 0.0
H2248 H 0.1789 0.71203 0.09628 0.0
C2249 C 0.10877 0.66766 0.13151 0.0
C2250 C 0.12259 0.6518 0.10693 0.0
H2251 H 0.10812 0.71155 0.16115 0.0
H2252 H 0.08873 0.65575 0.14112 0.0
C2253 C 0.14891 0.66757 0.09535 0.0
C2254 C 0.16266 0.38005 0.93313 0.0
C2255 C 0.14364 0.40135 0.92854 0.0
H2256 H 0.2006 0.35948 0.91712 0.0
C2257 C 0.15452 0.4253 0.91213 0.0
H2258 H 0.15501 0.36141 0.94582 0.0
C2259 C 0.18073 0.42421 0.89557 0.0
C2260 C 0.19639 0.39921 0.89533 0.0
H2261 H 0.14055 0.44239 0.90871 0.0
H2262 H 0.1867 0.44092 0.88036 0.0
C2263 C 0.18882 0.37883 0.91641 0.0
C2264 C 0.64187 0.78812 0.98775 0.0
C2265 C 0.62991 0.787 0.95719 0.0
H2266 H 0.63915 0.7672 0.02834 0.0
C2267 C 0.60515 0.76269 0.9441 0.0
H2268 H 0.66095 0.80659 0.99854 0.0
C2269 C 0.59203 0.74056 0.9615 0.0
C2270 C 0.60361 0.74187 0.99233 0.0
H2271 H 0.59508 0.76142 0.92079 0.0
H2272 H 0.57225 0.72289 0.95092 0.0
C2273 C 0.62904 0.76575 1.00502 0.0
C2274 C 0.15369 0.75852 0.68469 0.0
C2275 C 0.1225 0.75403 0.69061 0.0
H2276 H 0.19862 0.75204 0.69859 0.0
C2277 C 0.11142 0.73447 0.71134 0.0
H2278 H 0.16241 0.77312 0.6683 0.0
C2279 C 0.1316 0.72108 0.72754 0.0
C2280 C 0.16345 0.72774 0.724 0.0
H2281 H 0.0871 0.73001 0.71547 0.0
H2282 H 0.12241 0.70679 0.74399 0.0
C2283 C 0.17418 0.74586 0.70164 0.0
C2284 C 0.15645 0.45545 0.47103 0.0
C2285 C 0.16029 0.45783 0.43981 0.0
H2286 H 0.13859 0.47323 0.51342 0.0
C2287 C 0.15307 0.48408 0.42906 0.0
H2288 H 0.16218 0.43588 0.48037 0.0
C2289 C 0.13892 0.50539 0.448 0.0
C2290 C 0.13219 0.50103 0.47814 0.0
H2291 H 0.15643 0.4871 0.40536 0.0
H2292 H 0.13235 0.52458 0.43863 0.0
C2293 C 0.14241 0.47669 0.48991 0.0
C2294 C 0.43423 0.25549 0.18848 0.0
C2295 C 0.4627 0.27639 0.19456 0.0
H2296 H 0.39035 0.23966 0.20458 0.0
C2297 C 0.46894 0.2973 0.22343 0.0
H2298 H 0.42889 0.23879 0.16678 0.0
C2299 C 0.44675 0.29808 0.24526 0.0
C2300 C 0.41796 0.27762 0.23892 0.0
H2301 H 0.49086 0.31361 0.22895 0.0
H2302 H 0.4518 0.31538 0.26657 0.0
C2303 C 0.41231 0.25581 0.21053 0.0
C2304 C 0.68817 0.57273 0.40774 0.0
C2305 C 0.67595 0.55687 0.37692 0.0
H2306 H 0.68226 0.58796 0.4569 0.0
C2307 C 0.64365 0.54327 0.37652 0.0
H2308 H 0.71237 0.5839 0.4111 0.0
C2309 C 0.62584 0.54501 0.40419 0.0
C2310 C 0.63821 0.56138 0.43489 0.0
H2311 H 0.63181 0.53054 0.35457 0.0
H2312 H 0.60176 0.53343 0.40121 0.0
C2313 C 0.67028 0.57522 0.43501 0.0
C2314 C 0.36737 0.97203 0.12047 0.0
C2315 C 0.34311 0.95504 0.09881 0.0
H2316 H 0.39884 0.97125 0.15868 0.0
C2317 C 0.32923 0.92461 0.10206 0.0
H2318 H 0.37882 0.99538 0.11832 0.0
C2319 C 0.34041 0.91084 0.12552 0.0
C2320 C 0.36611 0.92697 0.14595 0.0
H2321 H 0.31043 0.91099 0.08574 0.0
H2322 H 0.3293 0.88724 0.12714 0.0
C2323 C 0.37891 0.95808 0.14363 0.0
C2324 C 0.02896 0.58753 0.93744 0.0
C2325 C 0.99865 0.59282 0.94104 0.0
H2326 H 0.07138 0.5829 0.96021 0.0
C2327 C 0.99078 0.60505 0.97076 0.0
H2328 H 0.03604 0.57864 0.91477 0.0
C2329 C 1.01124 0.60781 0.9967 0.0
C2330 C 0.03983 0.59822 0.9934 0.0
H2331 H 0.96793 0.61004 0.97433 0.0
H2332 H 1.00347 0.61479 0.01955 0.0
C2333 C 0.04942 0.59016 0.96348 0.0
C2334 C 0.32759 0.24997 0.63071 0.0
C2335 C 0.31292 0.26611 0.61117 0.0
H2336 H 0.34474 0.24794 0.67703 0.0
C2337 C 0.30372 0.29383 0.6256 0.0
H2338 H 0.33505 0.22858 0.62077 0.0
C2339 C 0.30825 0.30438 0.65841 0.0
C2340 C 0.32328 0.28833 0.67786 0.0
H2341 H 0.29219 0.30692 0.61163 0.0
H2342 H 0.30023 0.32538 0.66853 0.0
C2343 C 0.33322 0.26116 0.66319 0.0
C2344 C 0.63623 0.5554 0.18058 0.0
C2345 C 0.66601 0.547 0.18317 0.0
H2346 H 0.59883 0.56607 0.1524 0.0
C2347 C 0.67898 0.5422 0.1537 0.0
H2348 H 0.6244 0.55978 0.20156 0.0
C2349 C 0.66336 0.54484 0.12447 0.0
C2350 C 0.63384 0.55387 0.122 0.0
H2351 H 0.70152 0.53584 0.15296 0.0
H2352 H 0.67507 0.54023 0.10344 0.0
C2353 C 0.62116 0.55922 0.15156 0.0
C2354 C 0.34723 0.9413 0.89502 0.0
C2355 C 0.33464 0.93578 0.92311 0.0
H2356 H 0.3619 0.92193 0.85072 0.0
C2357 C 0.32657 0.90401 0.92646 0.0
H2358 H 0.3536 0.96501 0.89093 0.0
C2359 C 0.33085 0.87904 0.90292 0.0
C2360 C 0.34434 0.88468 0.87535 0.0
H2361 H 0.31688 0.89829 0.94749 0.0
H2362 H 0.32374 0.85518 0.90648 0.0
C2363 C 0.35234 0.91635 0.87187 0.0
C2364 C 1.01903 0.52629 0.76705 0.0
C2365 C 0.9869 0.52235 0.76894 0.0
H2366 H 0.05619 0.52241 0.73806 0.0
C2367 C 0.96711 0.50973 0.74186 0.0
H2368 H 0.03492 0.53576 0.7875 0.0
C2369 C 0.97949 0.5021 0.71318 0.0
C2370 C 1.01173 0.5064 0.71148 0.0
H2371 H 0.94224 0.50635 0.74272 0.0
H2372 H 0.96397 0.49299 0.69241 0.0
C2373 C 0.03126 0.51831 0.73874 0.0
C2374 C 0.32425 0.27385 0.42054 0.0
C2375 C 0.31718 0.24136 0.42086 0.0
H2376 H 0.33621 0.31041 0.39363 0.0
C2377 C 0.31741 0.22114 0.39177 0.0
H2378 H 0.32451 0.29052 0.4419 0.0
C2379 C 0.32411 0.23249 0.36402 0.0
C2380 C 0.33129 0.26483 0.36359 0.0
H2381 H 0.31213 0.19594 0.39012 0.0
H2382 H 0.32352 0.21564 0.3427 0.0
C2383 C 0.33121 0.28529 0.39256 0.0
C2384 C 0.44087 0.57687 0.52838 0.0
C2385 C 0.43557 0.60352 0.54952 0.0
H2386 H 0.47274 0.55033 0.50528 0.0
C2387 C 0.46323 0.62459 0.5631 0.0
H2388 H 0.42122 0.55955 0.51686 0.0
C2389 C 0.49376 0.61918 0.55599 0.0
C2390 C 0.4988 0.59239 0.53475 0.0
H2391 H 0.46142 0.64556 0.57935 0.0
H2392 H 0.51363 0.63614 0.56756 0.0
C2393 C 0.47114 0.57147 0.52138 0.0
C2394 C 0.95626 0.98463 0.57272 0.0
C2395 C 0.95161 0.95413 0.55466 0.0
H2396 H 0.9852 0.03076 0.58411 0.0
C2397 C 0.97553 0.94595 0.53691 0.0
H2398 H 0.93866 0.99133 0.58752 0.0
C2399 C 1.00212 0.96841 0.53495 0.0
C2400 C 1.00592 0.99977 0.55104 0.0
H2401 H 0.97305 0.92252 0.52332 0.0
H2402 H 1.01935 0.96122 0.5199 0.0
C2403 C 0.98302 1.00723 0.57087 0.0
C2404 C 0.88878 0.16972 0.30597 0.0
C2405 C 0.91651 0.16358 0.29142 0.0
H2406 H 0.8542 0.19878 0.31823 0.0
C2407 C 0.92904 0.19025 0.2775 0.0
H2408 H 0.87655 0.15176 0.31732 0.0
C2409 C 0.91559 0.21901 0.27844 0.0
C2410 C 0.88769 0.22483 0.29307 0.0
H2411 H 0.94988 0.18922 0.26555 0.0
H2412 H 0.92749 0.23705 0.26698 0.0
C2413 C 0.87525 0.19806 0.30658 0.0
C2414 C 0.74582 0.12537 0.04045 0.0
C2415 C 0.76409 0.10881 0.05622 0.0
H2416 H 0.70063 0.13186 0.02555 0.0
C2417 C 0.74746 0.08479 0.07004 0.0
H2418 H 0.75716 0.14456 0.03007 0.0
C2419 C 0.7143 0.07758 0.06774 0.0
C2420 C 0.69609 0.0943 0.05187 0.0
H2421 H 0.76006 0.07203 0.08341 0.0
H2422 H 0.70292 0.05896 0.0788 0.0
C2423 C 0.71292 0.11814 0.03802 0.0
C2424 C 0.28047 0.50535 0.25769 0.0
C2425 C 0.27138 0.52564 0.28226 0.0
H2426 H 0.30553 0.46899 0.24445 0.0
C2427 C 0.27574 0.52083 0.31281 0.0
H2428 H 0.27817 0.5094 0.23407 0.0
C2429 C 0.29109 0.49735 0.31896 0.0
C2430 C 0.30306 0.4789 0.29468 0.0
H2431 H 0.26939 0.53679 0.33212 0.0
H2432 H 0.29489 0.49475 0.34288 0.0
C2433 C 0.29646 0.48237 0.26383 0.0
C2434 C 0.27918 0.44353 0.0671 0.0
C2435 C 0.28876 0.42553 0.04097 0.0
H2436 H 0.24789 0.4732 0.08424 0.0
C2437 C 0.27094 0.41984 1.01248 0.0
H2438 H 0.29318 0.44905 0.08904 0.0
C2439 C 0.24538 0.43399 1.00952 0.0
C2440 C 0.23729 0.45425 0.03501 0.0
H2441 H 0.27841 0.40671 0.99183 0.0
H2442 H 0.23306 0.43055 0.98684 0.0
C2443 C 0.25347 0.45762 0.06421 0.0
C2444 C 0.93389 0.95971 0.28762 0.0
C2445 C 0.91858 0.98329 0.27898 0.0
H2446 H 0.93247 0.91193 0.29526 0.0
C2447 C 0.88649 0.97098 0.26955 0.0
H2448 H 0.95845 0.96616 0.29437 0.0
C2449 C 0.87096 0.93895 0.27048 0.0
C2450 C 0.88623 0.91559 0.27975 0.0
H2451 H 0.87296 0.98621 0.2609 0.0
H2452 H 0.84649 0.93236 0.26328 0.0
C2453 C 0.91854 0.92758 0.28806 0.0
C2454 C 0.77179 0.20849 0.75824 0.0
C2455 C 0.78253 0.183 0.74164 0.0
H2456 H 0.78194 0.25743 0.7773 0.0
C2457 C 0.80985 0.18838 0.72646 0.0
H2458 H 0.75019 0.205 0.76923 0.0
C2459 C 0.82836 0.21855 0.7315 0.0
C2460 C 0.81895 0.24333 0.75096 0.0
H2461 H 0.81767 0.16907 0.7123 0.0
H2462 H 0.85082 0.22199 0.72218 0.0
C2463 C 0.78984 0.23843 0.76278 0.0
loop_
_geom_bond_atom_site_label_1
_geom_bond_atom_site_label_2
_geom_bond_distance
_geom_bond_site_symmetry_2
_ccdc_geom_bond_type
Mn0 O5 2.095 . S
Mn0 O15 2.162 . S
Mn0 O16 2.297 . S
Mn0 O24 2.385 . S
Mn0 O25 2.209 . S
Mn0 O26 2.094 . S
Mn1 O6 2.121 . S
Mn1 N8 2.257 . S
Mn1 N17 2.282 . S
Mn1 O25 2.215 . S
Mn1 O27 2.117 . S
C2 O24 1.234 . S
C2 O25 1.283 . S
C3 O15 1.281 . S
C3 O16 1.236 . S
C4 O26 1.240 . S
C4 O27 1.264 . S
O5 Mn0 2.095 . S
O5 C14 1.250 . S
O6 Mn1 2.121 . S
O6 C14 1.258 . S
C7 N8 1.326 . S
C7 C11 1.460 . S
C7 H13 0.929 . S
N8 Mn1 2.257 . S
N8 C7 1.326 . S
N8 C12 1.362 . S
C9 C10 1.258 . S
C9 C12 1.431 . S
C9 C29 1.449 . S
C10 C9 1.258 . S
C10 C11 1.477 . S
C10 H30 0.931 . S
C11 C7 1.460 . S
C11 C10 1.477 . S
C11 H31 0.930 . S
C12 N8 1.362 . S
C12 C9 1.431 . S
C12 C22 1.476 . S
H13 C7 0.929 . S
C14 O5 1.250 . S
C14 O6 1.258 . S
O15 Mn0 2.162 . S
O15 C3 1.281 . S
O16 Mn0 2.297 . S
O16 C3 1.236 . S
N17 Mn1 2.282 . S
N17 C18 1.328 . S
N17 C22 1.318 . S
C18 N17 1.328 . S
C18 C19 1.457 . S
C18 H23 0.929 . S
C19 C18 1.457 . S
C19 C20 1.291 . S
C19 H32 0.931 . S
C20 C19 1.291 . S
C20 C21 1.373 . S
C20 H33 0.929 . S
C21 C20 1.373 . S
C21 C22 1.396 . S
C21 C28 1.403 . S
C22 C12 1.476 . S
C22 N17 1.318 . S
C22 C21 1.396 . S
H23 C18 0.929 . S
O24 Mn0 2.385 . S
O24 C2 1.234 . S
O25 Mn0 2.209 . S
O25 Mn1 2.215 . S
O25 C2 1.283 . S
O26 Mn0 2.094 . S
O26 C4 1.240 . S
O27 Mn1 2.117 . S
O27 C4 1.264 . S
C28 C21 1.403 . S
C28 C29 1.399 . S
C28 H34 0.929 . S
C29 C9 1.449 . S
C29 C28 1.399 . S
C29 H35 0.930 . S
H30 C10 0.931 . S
H31 C11 0.930 . S
H32 C19 0.931 . S
H33 C20 0.929 . S
H34 C28 0.929 . S
H35 C29 0.930 . S
Mn36 O41 2.081 1_455 S
Mn36 O51 2.162 1_455 S
Mn36 O52 2.299 1_455 S
Mn36 O60 2.400 . S
Mn36 O61 2.214 . S
Mn36 O62 2.093 . S
Mn37 O42 2.121 1_455 S
Mn37 N44 2.257 . S
Mn37 N53 2.282 . S
Mn37 O61 2.215 . S
Mn37 O63 2.117 . S
C38 O60 1.234 . S
C38 O61 1.283 . S
C39 O51 1.281 . S
C39 O52 1.236 . S
C40 O62 1.240 . S
C40 O63 1.264 . S
O41 Mn36 2.081 1_655 S
O41 C50 1.250 . S
O42 Mn37 2.121 1_655 S
O42 C50 1.258 . S
C43 N44 1.326 . S
C43 C47 1.460 . S
C43 H49 0.929 1_455 S
N44 Mn37 2.257 . S
N44 C43 1.326 . S
N44 C48 1.362 . S
C45 C46 1.258 . S
C45 C48 1.431 . S
C45 C65 1.449 . S
C46 C45 1.258 . S
C46 C47 1.477 . S
C46 H66 0.931 . S
C47 C43 1.460 . S
C47 C46 1.477 . S
C47 H67 0.930 . S
C48 N44 1.362 . S
C48 C45 1.431 . S
C48 C58 1.476 . S
H49 C43 0.929 1_655 S
C50 O41 1.250 . S
C50 O42 1.258 . S
O51 Mn36 2.162 1_655 S
O51 C39 1.281 . S
O52 Mn36 2.299 1_655 S
O52 C39 1.236 . S
N53 Mn37 2.282 . S
N53 C54 1.328 . S
N53 C58 1.318 . S
C54 N53 1.328 . S
C54 C55 1.457 . S
C54 H59 0.929 . S
C55 C54 1.457 . S
C55 C56 1.291 . S
C55 H68 0.931 . S
C56 C55 1.291 . S
C56 C57 1.373 . S
C56 H69 0.929 . S
C57 C56 1.373 . S
C57 C58 1.396 . S
C57 C64 1.403 . S
C58 C48 1.476 . S
C58 N53 1.318 . S
C58 C57 1.396 . S
H59 C54 0.929 . S
O60 Mn36 2.400 . S
O60 C38 1.234 . S
O61 Mn36 2.214 . S
O61 Mn37 2.215 . S
O61 C38 1.283 . S
O62 Mn36 2.093 . S
O62 C40 1.240 . S
O63 Mn37 2.117 . S
O63 C40 1.264 . S
C64 C57 1.403 . S
C64 C65 1.399 . S
C64 H70 0.929 . S
C65 C45 1.449 . S
C65 C64 1.399 . S
C65 H71 0.930 . S
H66 C46 0.931 . S
H67 C47 0.930 . S
H68 C55 0.931 . S
H69 C56 0.929 . S
H70 C64 0.929 . S
H71 C65 0.930 . S
Mn72 O77 2.095 . S
Mn72 O87 2.162 . S
Mn72 O88 2.297 . S
Mn72 O96 2.385 . S
Mn72 O97 2.209 . S
Mn72 O98 2.094 . S
Mn73 O78 2.121 . S
Mn73 N80 2.257 . S
Mn73 N89 2.282 . S
Mn73 O97 2.215 . S
Mn73 O99 2.117 . S
C74 O96 1.234 . S
C74 O97 1.283 . S
C75 O87 1.281 . S
C75 O88 1.236 . S
C76 O98 1.240 . S
C76 O99 1.264 . S
O77 Mn72 2.095 . S
O77 C86 1.250 . S
O78 Mn73 2.121 . S
O78 C86 1.258 . S
C79 N80 1.326 . S
C79 C83 1.460 . S
C79 H85 0.929 . S
N80 Mn73 2.257 . S
N80 C79 1.326 . S
N80 C84 1.362 . S
C81 C82 1.258 . S
C81 C84 1.431 . S
C81 C101 1.449 . S
C82 C81 1.258 . S
C82 C83 1.477 . S
C82 H102 0.931 . S
C83 C79 1.460 . S
C83 C82 1.477 . S
C83 H103 0.930 . S
C84 N80 1.362 . S
C84 C81 1.431 . S
C84 C94 1.476 . S
H85 C79 0.929 . S
C86 O77 1.250 . S
C86 O78 1.258 . S
O87 Mn72 2.162 . S
O87 C75 1.281 . S
O88 Mn72 2.297 . S
O88 C75 1.236 . S
N89 Mn73 2.282 . S
N89 C90 1.328 . S
N89 C94 1.318 . S
C90 N89 1.328 . S
C90 C91 1.457 . S
C90 H95 0.929 . S
C91 C90 1.457 . S
C91 C92 1.291 . S
C91 H104 0.931 . S
C92 C91 1.291 . S
C92 C93 1.373 . S
C92 H105 0.929 . S
C93 C92 1.373 . S
C93 C94 1.396 . S
C93 C100 1.403 . S
C94 C84 1.476 . S
C94 N89 1.318 . S
C94 C93 1.396 . S
H95 C90 0.929 . S
O96 Mn72 2.385 . S
O96 C74 1.234 . S
O97 Mn72 2.209 . S
O97 Mn73 2.215 . S
O97 C74 1.283 . S
O98 Mn72 2.094 . S
O98 C76 1.240 . S
O99 Mn73 2.117 . S
O99 C76 1.264 . S
C100 C93 1.403 . S
C100 C101 1.399 . S
C100 H106 0.929 . S
C101 C81 1.449 . S
C101 C100 1.399 . S
C101 H107 0.930 . S
H102 C82 0.931 . S
H103 C83 0.930 . S
H104 C91 0.931 . S
H105 C92 0.929 . S
H106 C100 0.929 . S
H107 C101 0.930 . S
Mn108 O113 2.095 . S
Mn108 O123 2.162 . S
Mn108 O124 2.297 . S
Mn108 O132 2.385 . S
Mn108 O133 2.209 . S
Mn108 O134 2.094 . S
Mn109 O114 2.121 . S
Mn109 N116 2.257 . S
Mn109 N125 2.282 . S
Mn109 O133 2.215 . S
Mn109 O135 2.117 . S
C110 O132 1.234 . S
C110 O133 1.283 . S
C111 O123 1.281 . S
C111 O124 1.236 . S
C112 O134 1.240 . S
C112 O135 1.264 . S
O113 Mn108 2.095 . S
O113 C122 1.250 . S
O114 Mn109 2.121 . S
O114 C122 1.258 . S
C115 N116 1.326 . S
C115 C119 1.460 1_554 S
C115 H121 0.929 . S
N116 Mn109 2.257 . S
N116 C115 1.326 . S
N116 C120 1.362 . S
C117 C118 1.258 . S
C117 C120 1.431 1_556 S
C117 C137 1.449 . S
C118 C117 1.258 . S
C118 C119 1.477 . S
C118 H138 0.931 . S
C119 C115 1.460 1_556 S
C119 C118 1.477 . S
C119 H139 0.930 . S
C120 N116 1.362 . S
C120 C117 1.431 1_554 S
C120 C130 1.476 . S
H121 C115 0.929 . S
C122 O113 1.250 . S
C122 O114 1.258 . S
O123 Mn108 2.162 . S
O123 C111 1.281 . S
O124 Mn108 2.297 . S
O124 C111 1.236 . S
N125 Mn109 2.282 . S
N125 C126 1.328 . S
N125 C130 1.318 . S
C126 N125 1.328 . S
C126 C127 1.457 . S
C126 H131 0.929 . S
C127 C126 1.457 . S
C127 C128 1.291 . S
C127 H140 0.931 . S
C128 C127 1.291 . S
C128 C129 1.373 . S
C128 H141 0.929 . S
C129 C128 1.373 . S
C129 C130 1.396 . S
C129 C136 1.403 . S
C130 C120 1.476 . S
C130 N125 1.318 . S
C130 C129 1.396 . S
H131 C126 0.929 . S
O132 Mn108 2.385 . S
O132 C110 1.234 . S
O133 Mn108 2.209 . S
O133 Mn109 2.215 . S
O133 C110 1.283 . S
O134 Mn108 2.094 . S
O134 C112 1.240 . S
O135 Mn109 2.117 . S
O135 C112 1.264 . S
C136 C129 1.403 . S
C136 C137 1.399 1_554 S
C136 H142 0.929 1_554 S
C137 C117 1.449 . S
C137 C136 1.399 1_556 S
C137 H143 0.930 . S
H138 C118 0.931 . S
H139 C119 0.930 . S
H140 C127 0.931 . S
H141 C128 0.929 . S
H142 C136 0.929 1_556 S
H143 C137 0.930 . S
Mn144 O149 2.095 . S
Mn144 O159 2.162 . S
Mn144 O160 2.297 . S
Mn144 O168 2.385 . S
Mn144 O169 2.209 . S
Mn144 O170 2.094 . S
Mn145 O150 2.121 . S
Mn145 N152 2.257 . S
Mn145 N161 2.282 . S
Mn145 O169 2.215 . S
Mn145 O171 2.117 . S
C146 O168 1.234 . S
C146 O169 1.283 . S
C147 O159 1.281 . S
C147 O160 1.236 . S
C148 O170 1.240 . S
C148 O171 1.264 . S
O149 Mn144 2.095 . S
O149 C158 1.250 . S
O150 Mn145 2.121 . S
O150 C158 1.258 . S
C151 N152 1.326 . S
C151 C155 1.460 1_554 S
C151 H157 0.929 . S
N152 Mn145 2.257 . S
N152 C151 1.326 . S
N152 C156 1.362 . S
C153 C154 1.258 . S
C153 C156 1.431 1_556 S
C153 C173 1.449 . S
C154 C153 1.258 . S
C154 C155 1.477 . S
C154 H174 0.931 . S
C155 C151 1.460 1_556 S
C155 C154 1.477 . S
C155 H175 0.930 . S
C156 N152 1.362 . S
C156 C153 1.431 1_554 S
C156 C166 1.476 . S
H157 C151 0.929 . S
C158 O149 1.250 . S
C158 O150 1.258 . S
O159 Mn144 2.162 . S
O159 C147 1.281 . S
O160 Mn144 2.297 . S
O160 C147 1.236 . S
N161 Mn145 2.282 . S
N161 C162 1.328 . S
N161 C166 1.318 . S
C162 N161 1.328 . S
C162 C163 1.457 . S
C162 H167 0.929 . S
C163 C162 1.457 . S
C163 C164 1.291 . S
C163 H176 0.934 . S
C164 C163 1.291 . S
C164 C165 1.373 . S
C164 H177 0.929 1_455 S
C165 C164 1.373 . S
C165 C166 1.396 . S
C165 C172 1.403 1_554 S
C166 C156 1.476 . S
C166 N161 1.318 . S
C166 C165 1.396 . S
H167 C162 0.929 . S
O168 Mn144 2.385 . S
O168 C146 1.234 . S
O169 Mn144 2.209 . S
O169 Mn145 2.215 . S
O169 C146 1.283 . S
O170 Mn144 2.094 . S
O170 C148 1.240 . S
O171 Mn145 2.117 . S
O171 C148 1.264 . S
C172 C165 1.403 1_556 S
C172 C173 1.399 . S
C172 H178 0.929 . S
C173 C153 1.449 . S
C173 C172 1.399 . S
C173 H179 0.930 . S
H174 C154 0.931 . S
H175 C155 0.930 . S
H176 C163 0.934 . S
H177 C164 0.929 1_655 S
H178 C172 0.929 . S
H179 C173 0.930 . S
Mn180 O185 2.095 . S
Mn180 O195 2.162 . S
Mn180 O196 2.297 . S
Mn180 O204 2.385 . S
Mn180 O205 2.209 . S
Mn180 O206 2.094 . S
Mn181 O186 2.121 . S
Mn181 N188 2.257 . S
Mn181 N197 2.282 . S
Mn181 O205 2.215 . S
Mn181 O207 2.117 . S
C182 O204 1.234 . S
C182 O205 1.283 . S
C183 O195 1.281 . S
C183 O196 1.236 . S
C184 O206 1.240 . S
C184 O207 1.264 . S
O185 Mn180 2.095 . S
O185 C194 1.250 . S
O186 Mn181 2.121 . S
O186 C194 1.258 . S
C187 N188 1.326 . S
C187 C191 1.460 . S
C187 H193 0.929 . S
N188 Mn181 2.257 . S
N188 C187 1.326 . S
N188 C192 1.362 . S
C189 C190 1.258 . S
C189 C192 1.431 . S
C189 C209 1.449 . S
C190 C189 1.258 . S
C190 C191 1.477 . S
C190 H210 0.931 . S
C191 C187 1.460 . S
C191 C190 1.477 . S
C191 H211 0.930 . S
C192 N188 1.362 . S
C192 C189 1.431 . S
C192 C202 1.476 . S
H193 C187 0.929 . S
C194 O185 1.250 . S
C194 O186 1.258 . S
O195 Mn180 2.162 . S
O195 C183 1.281 . S
O196 Mn180 2.297 . S
O196 C183 1.236 . S
N197 Mn181 2.282 . S
N197 C198 1.328 . S
N197 C202 1.318 . S
C198 N197 1.328 . S
C198 C199 1.457 . S
C198 H203 0.929 . S
C199 C198 1.457 . S
C199 C200 1.291 . S
C199 H212 0.931 . S
C200 C199 1.291 . S
C200 C201 1.373 . S
C200 H213 0.929 . S
C201 C200 1.373 . S
C201 C202 1.396 . S
C201 C208 1.403 . S
C202 C192 1.476 . S
C202 N197 1.318 . S
C202 C201 1.396 . S
H203 C198 0.929 . S
O204 Mn180 2.385 . S
O204 C182 1.234 . S
O205 Mn180 2.209 . S
O205 Mn181 2.215 . S
O205 C182 1.283 . S
O206 Mn180 2.094 . S
O206 C184 1.240 . S
O207 Mn181 2.117 . S
O207 C184 1.264 . S
C208 C201 1.403 . S
C208 C209 1.399 . S
C208 H214 0.929 . S
C209 C189 1.449 . S
C209 C208 1.399 . S
C209 H215 0.930 . S
H210 C190 0.931 . S
H211 C191 0.930 . S
H212 C199 0.931 . S
H213 C200 0.929 . S
H214 C208 0.929 . S
H215 C209 0.930 . S
Mn216 O221 2.095 . S
Mn216 O231 2.162 . S
Mn216 O232 2.297 . S
Mn216 O240 2.385 . S
Mn216 O241 2.209 . S
Mn216 O242 2.094 . S
Mn217 O222 2.121 . S
Mn217 N224 2.257 . S
Mn217 N233 2.282 . S
Mn217 O241 2.215 . S
Mn217 O243 2.117 . S
C218 O240 1.234 . S
C218 O241 1.283 . S
C219 O231 1.281 . S
C219 O232 1.236 . S
C220 O242 1.240 . S
C220 O243 1.264 . S
O221 Mn216 2.095 . S
O221 C230 1.250 . S
O222 Mn217 2.121 . S
O222 C230 1.258 . S
C223 N224 1.326 . S
C223 C227 1.460 . S
C223 H229 0.929 . S
N224 Mn217 2.257 . S
N224 C223 1.326 . S
N224 C228 1.362 . S
C225 C226 1.258 . S
C225 C228 1.431 . S
C225 C245 1.449 . S
C226 C225 1.258 . S
C226 C227 1.477 . S
C226 H246 0.931 . S
C227 C223 1.460 . S
C227 C226 1.477 . S
C227 H247 0.930 . S
C228 N224 1.362 . S
C228 C225 1.431 . S
C228 C238 1.476 . S
H229 C223 0.929 . S
C230 O221 1.250 . S
C230 O222 1.258 . S
O231 Mn216 2.162 . S
O231 C219 1.281 . S
O232 Mn216 2.297 . S
O232 C219 1.236 . S
N233 Mn217 2.282 . S
N233 C234 1.328 . S
N233 C238 1.318 . S
C234 N233 1.328 . S
C234 C235 1.457 . S
C234 H239 0.929 . S
C235 C234 1.457 . S
C235 C236 1.291 . S
C235 H248 0.931 . S
C236 C235 1.291 . S
C236 C237 1.373 . S
C236 H249 0.929 . S
C237 C236 1.373 . S
C237 C238 1.396 . S
C237 C244 1.403 . S
C238 C228 1.476 . S
C238 N233 1.318 . S
C238 C237 1.396 . S
H239 C234 0.929 . S
O240 Mn216 2.385 . S
O240 C218 1.234 . S
O241 Mn216 2.209 . S
O241 Mn217 2.215 . S
O241 C218 1.283 . S
O242 Mn216 2.094 . S
O242 C220 1.240 . S
O243 Mn217 2.117 . S
O243 C220 1.264 . S
C244 C237 1.403 . S
C244 C245 1.399 . S
C244 H250 0.929 . S
C245 C225 1.449 . S
C245 C244 1.399 . S
C245 H251 0.930 . S
H246 C226 0.931 . S
H247 C227 0.930 . S
H248 C235 0.931 . S
H249 C236 0.929 . S
H250 C244 0.929 . S
H251 C245 0.930 . S
Mn252 O257 2.095 . S
Mn252 O267 2.162 . S
Mn252 O268 2.297 . S
Mn252 O276 2.385 1_455 S
Mn252 O277 2.202 1_455 S
Mn252 O278 2.094 . S
Mn253 O258 2.121 . S
Mn253 N260 2.257 . S
Mn253 N269 2.282 1_455 S
Mn253 O277 2.210 1_455 S
Mn253 O279 2.117 . S
C254 O276 1.234 . S
C254 O277 1.298 . S
C255 O267 1.281 . S
C255 O268 1.236 . S
C256 O278 1.240 . S
C256 O279 1.264 . S
O257 Mn252 2.095 . S
O257 C266 1.250 . S
O258 Mn253 2.121 . S
O258 C266 1.258 . S
C259 N260 1.326 . S
C259 C263 1.460 . S
C259 H265 0.929 . S
N260 Mn253 2.257 . S
N260 C259 1.326 . S
N260 C264 1.362 1_455 S
C261 C262 1.258 . S
C261 C264 1.431 . S
C261 C281 1.449 . S
C262 C261 1.258 . S
C262 C263 1.477 1_655 S
C262 H282 0.931 . S
C263 C259 1.460 . S
C263 C262 1.477 1_455 S
C263 H283 0.930 . S
C264 N260 1.362 1_655 S
C264 C261 1.431 . S
C264 C274 1.476 . S
H265 C259 0.929 . S
C266 O257 1.250 . S
C266 O258 1.258 . S
O267 Mn252 2.162 . S
O267 C255 1.281 . S
O268 Mn252 2.297 . S
O268 C255 1.236 . S
N269 Mn253 2.282 1_655 S
N269 C270 1.328 . S
N269 C274 1.318 . S
C270 N269 1.328 . S
C270 C271 1.457 . S
C270 H275 0.929 . S
C271 C270 1.457 . S
C271 C272 1.291 . S
C271 H284 0.931 . S
C272 C271 1.291 . S
C272 C273 1.373 . S
C272 H285 0.929 . S
C273 C272 1.373 . S
C273 C274 1.396 . S
C273 C280 1.403 . S
C274 C264 1.476 . S
C274 N269 1.318 . S
C274 C273 1.396 . S
H275 C270 0.929 . S
O276 Mn252 2.385 1_655 S
O276 C254 1.234 . S
O277 Mn252 2.202 1_655 S
O277 Mn253 2.210 1_655 S
O277 C254 1.298 . S
O278 Mn252 2.094 . S
O278 C256 1.240 . S
O279 Mn253 2.117 . S
O279 C256 1.264 . S
C280 C273 1.403 . S
C280 C281 1.399 . S
C280 H286 0.929 . S
C281 C261 1.449 . S
C281 C280 1.399 . S
C281 H287 0.930 . S
H282 C262 0.931 . S
H283 C263 0.930 . S
H284 C271 0.931 . S
H285 C272 0.929 . S
H286 C280 0.929 . S
H287 C281 0.930 . S
Mn288 O293 2.095 . S
Mn288 O303 2.162 . S
Mn288 O304 2.297 1_545 S
Mn288 O312 2.385 1_545 S
Mn288 O313 2.209 1_545 S
Mn288 O314 2.094 . S
Mn289 O294 2.121 1_565 S
Mn289 N296 2.257 . S
Mn289 N305 2.282 . S
Mn289 O313 2.215 . S
Mn289 O315 2.117 1_565 S
C290 O312 1.234 . S
C290 O313 1.283 . S
C291 O303 1.282 1_565 S
C291 O304 1.236 . S
C292 O314 1.240 . S
C292 O315 1.264 . S
O293 Mn288 2.095 . S
O293 C302 1.250 . S
O294 Mn289 2.121 1_545 S
O294 C302 1.258 . S
C295 N296 1.326 . S
C295 C299 1.460 . S
C295 H301 0.905 1_565 S
N296 Mn289 2.257 . S
N296 C295 1.326 . S
N296 C300 1.362 . S
C297 C298 1.258 . S
C297 C300 1.431 . S
C297 C317 1.449 . S
C298 C297 1.258 . S
C298 C299 1.477 . S
C298 H318 0.931 . S
C299 C295 1.460 . S
C299 C298 1.477 . S
C299 H319 0.930 . S
C300 N296 1.362 . S
C300 C297 1.431 . S
C300 C310 1.476 . S
H301 C295 0.905 1_545 S
C302 O293 1.250 . S
C302 O294 1.258 . S
O303 Mn288 2.162 . S
O303 C291 1.282 1_545 S
O304 Mn288 2.297 1_565 S
O304 C291 1.236 . S
N305 Mn289 2.282 . S
N305 C306 1.328 . S
N305 C310 1.318 . S
C306 N305 1.328 . S
C306 C307 1.457 . S
C306 H311 0.929 . S
C307 C306 1.457 . S
C307 C308 1.291 . S
C307 H320 0.931 . S
C308 C307 1.291 . S
C308 C309 1.373 . S
C308 H321 0.929 . S
C309 C308 1.373 . S
C309 C310 1.396 . S
C309 C316 1.403 . S
C310 C300 1.476 . S
C310 N305 1.318 . S
C310 C309 1.396 . S
H311 C306 0.929 . S
O312 Mn288 2.385 1_565 S
O312 C290 1.234 . S
O313 Mn288 2.209 1_565 S
O313 Mn289 2.215 . S
O313 C290 1.283 . S
O314 Mn288 2.094 . S
O314 C292 1.240 . S
O315 Mn289 2.117 1_545 S
O315 C292 1.264 . S
C316 C309 1.403 . S
C316 C317 1.399 . S
C316 H322 0.929 . S
C317 C297 1.449 . S
C317 C316 1.399 . S
C317 H323 0.930 . S
H318 C298 0.931 . S
H319 C299 0.930 . S
H320 C307 0.931 . S
H321 C308 0.929 . S
H322 C316 0.929 . S
H323 C317 0.930 . S
Mn324 O329 2.095 . S
Mn324 O339 2.162 . S
Mn324 O340 2.297 . S
Mn324 O348 2.385 . S
Mn324 O349 2.209 . S
Mn324 O350 2.094 . S
Mn325 O330 2.121 . S
Mn325 N332 2.257 . S
Mn325 N341 2.282 . S
Mn325 O349 2.215 . S
Mn325 O351 2.117 . S
C326 O348 1.234 . S
C326 O349 1.283 . S
C327 O339 1.281 . S
C327 O340 1.236 . S
C328 O350 1.240 . S
C328 O351 1.264 . S
O329 Mn324 2.095 . S
O329 C338 1.250 . S
O330 Mn325 2.121 . S
O330 C338 1.258 . S
C331 N332 1.326 . S
C331 C335 1.460 . S
C331 H337 0.929 . S
N332 Mn325 2.257 . S
N332 C331 1.326 . S
N332 C336 1.362 . S
C333 C334 1.258 . S
C333 C336 1.431 . S
C333 C353 1.449 . S
C334 C333 1.258 . S
C334 C335 1.477 . S
C334 H354 0.931 . S
C335 C331 1.460 . S
C335 C334 1.477 . S
C335 H355 0.930 . S
C336 N332 1.362 . S
C336 C333 1.431 . S
C336 C346 1.476 . S
H337 C331 0.929 . S
C338 O329 1.250 . S
C338 O330 1.258 . S
O339 Mn324 2.162 . S
O339 C327 1.281 . S
O340 Mn324 2.297 . S
O340 C327 1.236 . S
N341 Mn325 2.282 . S
N341 C342 1.328 . S
N341 C346 1.318 . S
C342 N341 1.328 . S
C342 C343 1.457 . S
C342 H347 0.929 . S
C343 C342 1.457 . S
C343 C344 1.291 . S
C343 H356 0.931 . S
C344 C343 1.291 . S
C344 C345 1.373 . S
C344 H357 0.929 . S
C345 C344 1.373 . S
C345 C346 1.396 . S
C345 C352 1.403 . S
C346 C336 1.476 . S
C346 N341 1.318 . S
C346 C345 1.396 . S
H347 C342 0.929 . S
O348 Mn324 2.385 . S
O348 C326 1.234 . S
O349 Mn324 2.209 . S
O349 Mn325 2.215 . S
O349 C326 1.283 . S
O350 Mn324 2.094 . S
O350 C328 1.240 . S
O351 Mn325 2.117 . S
O351 C328 1.264 . S
C352 C345 1.403 . S
C352 C353 1.399 . S
C352 H358 0.929 . S
C353 C333 1.449 . S
C353 C352 1.399 . S
C353 H359 0.930 . S
H354 C334 0.931 . S
H355 C335 0.930 . S
H356 C343 0.931 . S
H357 C344 0.929 . S
H358 C352 0.929 . S
H359 C353 0.930 . S
Mn360 O365 2.095 1_545 S
Mn360 O375 2.162 . S
Mn360 O376 2.297 . S
Mn360 O384 2.385 . S
Mn360 O385 2.209 . S
Mn360 O386 2.094 . S
Mn361 O366 2.121 1_545 S
Mn361 N368 2.257 . S
Mn361 N377 2.282 . S
Mn361 O385 2.215 . S
Mn361 O387 2.117 . S
C362 O384 1.234 . S
C362 O385 1.283 . S
C363 O375 1.281 . S
C363 O376 1.236 . S
C364 O386 1.240 . S
C364 O387 1.264 . S
O365 Mn360 2.095 1_565 S
O365 C374 1.250 . S
O366 Mn361 2.121 1_565 S
O366 C374 1.258 . S
C367 N368 1.326 . S
C367 C371 1.460 . S
C367 H373 0.929 . S
N368 Mn361 2.257 . S
N368 C367 1.326 . S
N368 C372 1.362 . S
C369 C370 1.258 . S
C369 C372 1.431 . S
C369 C389 1.449 . S
C370 C369 1.258 . S
C370 C371 1.477 . S
C370 H390 0.931 . S
C371 C367 1.460 . S
C371 C370 1.477 . S
C371 H391 0.930 . S
C372 N368 1.362 . S
C372 C369 1.431 . S
C372 C382 1.476 . S
H373 C367 0.929 . S
C374 O365 1.250 . S
C374 O366 1.258 . S
O375 Mn360 2.162 . S
O375 C363 1.281 . S
O376 Mn360 2.297 . S
O376 C363 1.236 . S
N377 Mn361 2.282 . S
N377 C378 1.328 . S
N377 C382 1.318 . S
C378 N377 1.328 . S
C378 C379 1.457 . S
C378 H383 0.929 . S
C379 C378 1.457 . S
C379 C380 1.291 . S
C379 H392 0.931 . S
C380 C379 1.291 . S
C380 C381 1.373 . S
C380 H393 0.929 . S
C381 C380 1.373 . S
C381 C382 1.396 . S
C381 C388 1.403 . S
C382 C372 1.476 . S
C382 N377 1.318 . S
C382 C381 1.396 . S
H383 C378 0.929 . S
O384 Mn360 2.385 . S
O384 C362 1.234 . S
O385 Mn360 2.209 . S
O385 Mn361 2.215 . S
O385 C362 1.283 . S
O386 Mn360 2.094 . S
O386 C364 1.240 . S
O387 Mn361 2.117 . S
O387 C364 1.264 . S
C388 C381 1.403 . S
C388 C389 1.399 . S
C388 H394 0.929 . S
C389 C369 1.449 . S
C389 C388 1.399 . S
C389 H395 0.930 . S
H390 C370 0.931 . S
H391 C371 0.930 . S
H392 C379 0.931 . S
H393 C380 0.929 . S
H394 C388 0.929 . S
H395 C389 0.930 . S
Mn396 O401 2.095 1_554 S
Mn396 O411 2.162 . S
Mn396 O412 2.297 . S
Mn396 O420 2.385 . S
Mn396 O421 2.209 . S
Mn396 O422 2.094 1_554 S
Mn397 O402 2.121 1_565 S
Mn397 N404 2.257 1_565 S
Mn397 N413 2.282 1_565 S
Mn397 O421 2.215 1_556 S
Mn397 O423 2.117 . S
C398 O420 1.234 . S
C398 O421 1.283 . S
C399 O411 1.281 . S
C399 O412 1.236 . S
C400 O422 1.240 . S
C400 O423 1.264 . S
O401 Mn396 2.095 1_556 S
O401 C410 1.245 . S
O402 Mn397 2.121 1_545 S
O402 C410 1.277 1_545 S
C403 N404 1.326 . S
C403 C407 1.460 1_556 S
C403 H409 0.929 1_556 S
N404 Mn397 2.257 1_545 S
N404 C403 1.326 . S
N404 C408 1.362 . S
C405 C406 1.258 . S
C405 C408 1.431 . S
C405 C425 1.449 . S
C406 C405 1.258 . S
C406 C407 1.477 1_556 S
C406 H426 0.931 . S
C407 C403 1.460 1_554 S
C407 C406 1.477 1_554 S
C407 H427 0.930 . S
C408 N404 1.362 . S
C408 C405 1.431 . S
C408 C418 1.476 . S
H409 C403 0.929 1_554 S
C410 O401 1.245 . S
C410 O402 1.277 1_565 S
O411 Mn396 2.162 . S
O411 C399 1.281 . S
O412 Mn396 2.297 . S
O412 C399 1.236 . S
N413 Mn397 2.282 1_545 S
N413 C414 1.328 1_545 S
N413 C418 1.318 . S
C414 N413 1.328 1_565 S
C414 C415 1.457 . S
C414 H419 0.929 . S
C415 C414 1.457 . S
C415 C416 1.291 1_565 S
C415 H428 0.931 . S
C416 C415 1.291 1_545 S
C416 C417 1.373 . S
C416 H429 0.929 . S
C417 C416 1.373 . S
C417 C418 1.396 . S
C417 C424 1.403 . S
C418 C408 1.476 . S
C418 N413 1.318 . S
C418 C417 1.396 . S
H419 C414 0.929 . S
O420 Mn396 2.385 . S
O420 C398 1.234 . S
O421 Mn396 2.209 . S
O421 Mn397 2.215 1_554 S
O421 C398 1.283 . S
O422 Mn396 2.094 1_556 S
O422 C400 1.240 . S
O423 Mn397 2.117 . S
O423 C400 1.264 . S
C424 C417 1.403 . S
C424 C425 1.399 . S
C424 H430 0.929 . S
C425 C405 1.449 . S
C425 C424 1.399 . S
C425 H431 0.930 . S
H426 C406 0.931 . S
H427 C407 0.930 . S
H428 C415 0.931 . S
H429 C416 0.929 . S
H430 C424 0.929 . S
H431 C425 0.930 . S
Mn432 O437 2.095 . S
Mn432 O447 2.162 . S
Mn432 O448 2.297 . S
Mn432 O456 2.385 . S
Mn432 O457 2.209 . S
Mn432 O458 2.094 1_554 S
Mn433 O438 2.121 1_556 S
Mn433 N440 2.257 1_556 S
Mn433 N449 2.282 . S
Mn433 O457 2.215 1_556 S
Mn433 O459 2.117 . S
C434 O456 1.234 . S
C434 O457 1.283 . S
C435 O447 1.281 . S
C435 O448 1.236 . S
C436 O458 1.240 . S
C436 O459 1.264 . S
O437 Mn432 2.095 . S
O437 C446 1.250 . S
O438 Mn433 2.121 1_554 S
O438 C446 1.258 . S
C439 N440 1.326 . S
C439 C443 1.460 . S
C439 H445 0.929 . S
N440 Mn433 2.257 1_554 S
N440 C439 1.326 . S
N440 C444 1.362 1_554 S
C441 C442 1.258 . S
C441 C444 1.431 1_554 S
C441 C461 1.449 1_554 S
C442 C441 1.258 . S
C442 C443 1.477 . S
C442 H462 0.931 . S
C443 C439 1.460 . S
C443 C442 1.477 . S
C443 H463 0.930 . S
C444 N440 1.362 1_556 S
C444 C441 1.431 1_556 S
C444 C454 1.476 . S
H445 C439 0.929 . S
C446 O437 1.250 . S
C446 O438 1.258 . S
O447 Mn432 2.162 . S
O447 C435 1.281 . S
O448 Mn432 2.297 . S
O448 C435 1.236 . S
N449 Mn433 2.282 . S
N449 C450 1.328 . S
N449 C454 1.318 . S
C450 N449 1.328 . S
C450 C451 1.457 . S
C450 H455 0.929 . S
C451 C450 1.457 . S
C451 C452 1.291 . S
C451 H464 0.931 . S
C452 C451 1.291 . S
C452 C453 1.373 . S
C452 H465 0.929 . S
C453 C452 1.373 . S
C453 C454 1.396 . S
C453 C460 1.403 . S
C454 C444 1.476 . S
C454 N449 1.318 . S
C454 C453 1.396 . S
H455 C450 0.929 . S
O456 Mn432 2.385 . S
O456 C434 1.234 . S
O457 Mn432 2.209 . S
O457 Mn433 2.215 1_554 S
O457 C434 1.283 . S
O458 Mn432 2.094 1_556 S
O458 C436 1.240 . S
O459 Mn433 2.117 . S
O459 C436 1.264 . S
C460 C453 1.403 . S
C460 C461 1.399 . S
C460 H466 0.929 . S
C461 C441 1.449 1_556 S
C461 C460 1.399 . S
C461 H467 0.930 . S
H462 C442 0.931 . S
H463 C443 0.930 . S
H464 C451 0.931 . S
H465 C452 0.929 . S
H466 C460 0.929 . S
H467 C461 0.930 . S
Mn468 O473 2.095 . S
Mn468 O483 2.162 . S
Mn468 O484 2.297 . S
Mn468 O492 2.385 . S
Mn468 O493 2.209 . S
Mn468 O494 2.094 . S
Mn469 O474 2.121 1_556 S
Mn469 N476 2.257 . S
Mn469 N485 2.282 . S
Mn469 O493 2.215 1_556 S
Mn469 O495 2.117 . S
C470 O492 1.234 . S
C470 O493 1.283 . S
C471 O483 1.281 . S
C471 O484 1.236 . S
C472 O494 1.240 1_556 S
C472 O495 1.264 . S
O473 Mn468 2.095 . S
O473 C482 1.250 . S
O474 Mn469 2.121 1_554 S
O474 C482 1.258 . S
C475 N476 1.326 . S
C475 C479 1.460 1_545 S
C475 H481 0.929 1_556 S
N476 Mn469 2.257 . S
N476 C475 1.326 . S
N476 C480 1.362 . S
C477 C478 1.258 . S
C477 C480 1.431 1_565 S
C477 C497 1.449 . S
C478 C477 1.258 . S
C478 C479 1.477 . S
C478 H498 0.931 . S
C479 C475 1.460 1_565 S
C479 C478 1.477 . S
C479 H499 0.930 . S
C480 N476 1.362 . S
C480 C477 1.431 1_545 S
C480 C490 1.476 . S
H481 C475 0.929 1_554 S
C482 O473 1.250 . S
C482 O474 1.258 . S
O483 Mn468 2.162 . S
O483 C471 1.281 . S
O484 Mn468 2.297 . S
O484 C471 1.236 . S
N485 Mn469 2.282 . S
N485 C486 1.328 . S
N485 C490 1.318 . S
C486 N485 1.328 . S
C486 C487 1.457 . S
C486 H491 0.929 . S
C487 C486 1.457 . S
C487 C488 1.291 . S
C487 H500 0.931 . S
C488 C487 1.291 . S
C488 C489 1.373 . S
C488 H501 0.929 . S
C489 C488 1.373 . S
C489 C490 1.396 . S
C489 C496 1.403 1_545 S
C490 C480 1.476 . S
C490 N485 1.318 . S
C490 C489 1.396 . S
H491 C486 0.929 . S
O492 Mn468 2.385 . S
O492 C470 1.234 . S
O493 Mn468 2.209 . S
O493 Mn469 2.215 1_554 S
O493 C470 1.283 . S
O494 Mn468 2.094 . S
O494 C472 1.240 1_554 S
O495 Mn469 2.117 . S
O495 C472 1.264 . S
C496 C489 1.403 1_565 S
C496 C497 1.399 . S
C496 H502 0.929 . S
C497 C477 1.449 . S
C497 C496 1.399 . S
C497 H503 0.930 . S
H498 C478 0.931 . S
H499 C479 0.930 . S
H500 C487 0.931 . S
H501 C488 0.929 . S
H502 C496 0.929 . S
H503 C497 0.930 . S
Mn504 O509 2.095 . S
Mn504 O519 2.162 . S
Mn504 O520 2.297 . S
Mn504 O528 2.385 . S
Mn504 O529 2.209 . S
Mn504 O530 2.094 . S
Mn505 O510 2.121 . S
Mn505 N512 2.257 . S
Mn505 N521 2.282 . S
Mn505 O529 2.215 . S
Mn505 O531 2.117 . S
C506 O528 1.234 . S
C506 O529 1.283 . S
C507 O519 1.281 . S
C507 O520 1.236 . S
C508 O530 1.240 . S
C508 O531 1.264 . S
O509 Mn504 2.095 . S
O509 C518 1.250 . S
O510 Mn505 2.121 . S
O510 C518 1.258 . S
C511 N512 1.326 . S
C511 C515 1.460 . S
C511 H517 0.929 . S
N512 Mn505 2.257 . S
N512 C511 1.326 . S
N512 C516 1.362 . S
C513 C514 1.258 . S
C513 C516 1.431 . S
C513 C533 1.449 . S
C514 C513 1.258 . S
C514 C515 1.477 . S
C514 H534 0.931 . S
C515 C511 1.460 . S
C515 C514 1.477 . S
C515 H535 0.930 . S
C516 N512 1.362 . S
C516 C513 1.431 . S
C516 C526 1.476 . S
H517 C511 0.929 . S
C518 O509 1.250 . S
C518 O510 1.258 . S
O519 Mn504 2.162 . S
O519 C507 1.281 . S
O520 Mn504 2.297 . S
O520 C507 1.236 . S
N521 Mn505 2.282 . S
N521 C522 1.328 . S
N521 C526 1.318 . S
C522 N521 1.328 . S
C522 C523 1.457 . S
C522 H527 0.929 . S
C523 C522 1.457 . S
C523 C524 1.291 . S
C523 H536 0.931 . S
C524 C523 1.291 . S
C524 C525 1.373 . S
C524 H537 0.929 . S
C525 C524 1.373 . S
C525 C526 1.396 . S
C525 C532 1.403 . S
C526 C516 1.476 . S
C526 N521 1.318 . S
C526 C525 1.396 . S
H527 C522 0.929 . S
O528 Mn504 2.385 . S
O528 C506 1.234 . S
O529 Mn504 2.209 . S
O529 Mn505 2.215 . S
O529 C506 1.283 . S
O530 Mn504 2.094 . S
O530 C508 1.240 . S
O531 Mn505 2.117 . S
O531 C508 1.264 . S
C532 C525 1.403 . S
C532 C533 1.399 . S
C532 H538 0.929 . S
C533 C513 1.449 . S
C533 C532 1.399 . S
C533 H539 0.930 . S
H534 C514 0.931 . S
H535 C515 0.930 . S
H536 C523 0.931 . S
H537 C524 0.929 . S
H538 C532 0.929 . S
H539 C533 0.930 . S
Mn540 O545 2.095 . S
Mn540 O555 2.162 . S
Mn540 O556 2.297 . S
Mn540 O564 2.385 . S
Mn540 O565 2.209 . S
Mn540 O566 2.094 . S
Mn541 O546 2.121 . S
Mn541 N548 2.257 . S
Mn541 N557 2.282 . S
Mn541 O565 2.215 . S
Mn541 O567 2.117 . S
C542 O564 1.234 . S
C542 O565 1.283 . S
C543 O555 1.281 . S
C543 O556 1.236 . S
C544 O566 1.240 . S
C544 O567 1.264 . S
O545 Mn540 2.095 . S
O545 C554 1.250 . S
O546 Mn541 2.121 . S
O546 C554 1.258 . S
C547 N548 1.326 . S
C547 C551 1.460 1_565 S
C547 H553 0.929 . S
N548 Mn541 2.257 . S
N548 C547 1.326 . S
N548 C552 1.362 . S
C549 C550 1.258 . S
C549 C552 1.431 1_545 S
C549 C569 1.449 . S
C550 C549 1.258 . S
C550 C551 1.477 . S
C550 H570 0.931 . S
C551 C547 1.460 1_545 S
C551 C550 1.477 . S
C551 H571 0.930 . S
C552 N548 1.362 . S
C552 C549 1.431 1_565 S
C552 C562 1.476 . S
H553 C547 0.929 . S
C554 O545 1.250 . S
C554 O546 1.258 . S
O555 Mn540 2.162 . S
O555 C543 1.281 . S
O556 Mn540 2.297 . S
O556 C543 1.236 . S
N557 Mn541 2.282 . S
N557 C558 1.328 . S
N557 C562 1.318 . S
C558 N557 1.328 . S
C558 C559 1.457 . S
C558 H563 0.929 . S
C559 C558 1.457 . S
C559 C560 1.291 . S
C559 H572 0.931 . S
C560 C559 1.291 . S
C560 C561 1.373 . S
C560 H573 0.929 . S
C561 C560 1.373 . S
C561 C562 1.396 . S
C561 C568 1.403 . S
C562 C552 1.476 . S
C562 N557 1.318 . S
C562 C561 1.396 . S
H563 C558 0.929 . S
O564 Mn540 2.385 . S
O564 C542 1.234 . S
O565 Mn540 2.209 . S
O565 Mn541 2.215 . S
O565 C542 1.283 . S
O566 Mn540 2.094 . S
O566 C544 1.240 . S
O567 Mn541 2.117 . S
O567 C544 1.264 . S
C568 C561 1.403 . S
C568 C569 1.399 1_565 S
C568 H574 0.929 1_565 S
C569 C549 1.449 . S
C569 C568 1.399 1_545 S
C569 H575 0.930 . S
H570 C550 0.931 . S
H571 C551 0.930 . S
H572 C559 0.931 . S
H573 C560 0.929 . S
H574 C568 0.929 1_545 S
H575 C569 0.930 . S
Mn576 O581 2.095 . S
Mn576 O591 2.187 . S
Mn576 O592 2.297 . S
Mn576 O600 2.385 . S
Mn576 O601 2.209 . S
Mn576 O602 2.094 . S
Mn577 O582 2.121 . S
Mn577 N584 2.257 . S
Mn577 N593 2.282 . S
Mn577 O601 2.215 . S
Mn577 O603 2.117 . S
C578 O600 1.234 . S
C578 O601 1.283 . S
C579 O591 1.300 . S
C579 O592 1.236 . S
C580 O602 1.240 . S
C580 O603 1.264 . S
O581 Mn576 2.095 . S
O581 C590 1.250 . S
O582 Mn577 2.121 . S
O582 C590 1.258 . S
C583 N584 1.326 . S
C583 C587 1.460 . S
C583 H589 0.929 . S
N584 Mn577 2.257 . S
N584 C583 1.326 . S
N584 C588 1.362 . S
C585 C586 1.258 1_565 S
C585 C588 1.431 1_565 S
C585 C605 1.449 . S
C586 C585 1.258 1_545 S
C586 C587 1.477 . S
C586 H606 0.931 1_545 S
C587 C583 1.460 . S
C587 C586 1.477 . S
C587 H607 0.930 . S
C588 N584 1.362 . S
C588 C585 1.431 1_545 S
C588 C598 1.476 1_545 S
H589 C583 0.929 . S
C590 O581 1.250 . S
C590 O582 1.258 . S
O591 Mn576 2.187 . S
O591 C579 1.300 . S
O592 Mn576 2.297 . S
O592 C579 1.236 . S
N593 Mn577 2.282 . S
N593 C594 1.352 . S
N593 C598 1.318 1_545 S
C594 N593 1.352 . S
C594 C595 1.423 1_545 S
C594 H599 0.939 . S
C595 C594 1.423 1_565 S
C595 C596 1.291 . S
C595 H608 0.931 . S
C596 C595 1.291 . S
C596 C597 1.373 . S
C596 H609 0.929 . S
C597 C596 1.373 . S
C597 C598 1.396 . S
C597 C604 1.403 . S
C598 C588 1.476 1_565 S
C598 N593 1.318 1_565 S
C598 C597 1.396 . S
H599 C594 0.939 . S
O600 Mn576 2.385 . S
O600 C578 1.234 . S
O601 Mn576 2.209 . S
O601 Mn577 2.215 . S
O601 C578 1.283 . S
O602 Mn576 2.094 . S
O602 C580 1.240 . S
O603 Mn577 2.117 . S
O603 C580 1.264 . S
C604 C597 1.403 . S
C604 C605 1.399 . S
C604 H610 0.929 . S
C605 C585 1.449 . S
C605 C604 1.399 . S
C605 H611 0.930 . S
H606 C586 0.931 1_565 S
H607 C587 0.930 . S
H608 C595 0.931 . S
H609 C596 0.929 . S
H610 C604 0.929 . S
H611 C605 0.930 . S
Mn612 O617 2.095 . S
Mn612 O627 2.162 . S
Mn612 O628 2.297 . S
Mn612 O636 2.385 . S
Mn612 O637 2.209 . S
Mn612 O638 2.094 . S
Mn613 O618 2.121 . S
Mn613 N620 2.257 . S
Mn613 N629 2.282 . S
Mn613 O637 2.215 . S
Mn613 O639 2.117 . S
C614 O636 1.234 . S
C614 O637 1.283 . S
C615 O627 1.281 . S
C615 O628 1.236 . S
C616 O638 1.240 . S
C616 O639 1.264 . S
O617 Mn612 2.095 . S
O617 C626 1.250 . S
O618 Mn613 2.121 . S
O618 C626 1.258 . S
C619 N620 1.326 . S
C619 C623 1.460 . S
C619 H625 0.929 . S
N620 Mn613 2.257 . S
N620 C619 1.326 . S
N620 C624 1.362 . S
C621 C622 1.258 . S
C621 C624 1.431 . S
C621 C641 1.449 . S
C622 C621 1.258 . S
C622 C623 1.477 . S
C622 H642 0.931 . S
C623 C619 1.460 . S
C623 C622 1.477 . S
C623 H643 0.930 . S
C624 N620 1.362 . S
C624 C621 1.431 . S
C624 C634 1.476 . S
H625 C619 0.929 . S
C626 O617 1.250 . S
C626 O618 1.258 . S
O627 Mn612 2.162 . S
O627 C615 1.281 . S
O628 Mn612 2.297 . S
O628 C615 1.236 . S
N629 Mn613 2.282 . S
N629 C630 1.328 . S
N629 C634 1.318 . S
C630 N629 1.328 . S
C630 C631 1.457 . S
C630 H635 0.929 . S
C631 C630 1.457 . S
C631 C632 1.291 . S
C631 H644 0.931 . S
C632 C631 1.291 . S
C632 C633 1.373 . S
C632 H645 0.929 . S
C633 C632 1.373 . S
C633 C634 1.396 . S
C633 C640 1.403 . S
C634 C624 1.476 . S
C634 N629 1.318 . S
C634 C633 1.396 . S
H635 C630 0.929 . S
O636 Mn612 2.385 . S
O636 C614 1.234 . S
O637 Mn612 2.209 . S
O637 Mn613 2.215 . S
O637 C614 1.283 . S
O638 Mn612 2.094 . S
O638 C616 1.240 . S
O639 Mn613 2.117 . S
O639 C616 1.264 . S
C640 C633 1.403 . S
C640 C641 1.399 . S
C640 H646 0.929 . S
C641 C621 1.449 . S
C641 C640 1.399 . S
C641 H647 0.930 . S
H642 C622 0.931 . S
H643 C623 0.930 . S
H644 C631 0.931 . S
H645 C632 0.929 . S
H646 C640 0.929 . S
H647 C641 0.930 . S
Mn648 O653 2.095 . S
Mn648 O663 2.162 . S
Mn648 O664 2.297 . S
Mn648 O672 2.385 . S
Mn648 O673 2.209 . S
Mn648 O674 2.094 . S
Mn649 O654 2.121 . S
Mn649 N656 2.257 . S
Mn649 N665 2.282 . S
Mn649 O673 2.215 . S
Mn649 O675 2.117 . S
C650 O672 1.234 . S
C650 O673 1.283 . S
C651 O663 1.281 . S
C651 O664 1.236 . S
C652 O674 1.240 . S
C652 O675 1.264 . S
O653 Mn648 2.095 . S
O653 C662 1.250 . S
O654 Mn649 2.121 . S
O654 C662 1.258 . S
C655 N656 1.326 . S
C655 C659 1.460 . S
C655 H661 0.929 . S
N656 Mn649 2.257 . S
N656 C655 1.326 . S
N656 C660 1.362 . S
C657 C658 1.258 . S
C657 C660 1.431 . S
C657 C677 1.449 . S
C658 C657 1.258 . S
C658 C659 1.477 . S
C658 H678 0.931 . S
C659 C655 1.460 . S
C659 C658 1.477 . S
C659 H679 0.930 . S
C660 N656 1.362 . S
C660 C657 1.431 . S
C660 C670 1.476 . S
H661 C655 0.929 . S
C662 O653 1.250 . S
C662 O654 1.258 . S
O663 Mn648 2.162 . S
O663 C651 1.281 . S
O664 Mn648 2.297 . S
O664 C651 1.236 . S
N665 Mn649 2.282 . S
N665 C666 1.328 . S
N665 C670 1.318 . S
C666 N665 1.328 . S
C666 C667 1.457 . S
C666 H671 0.929 . S
C667 C666 1.457 . S
C667 C668 1.291 . S
C667 H680 0.931 . S
C668 C667 1.291 . S
C668 C669 1.373 . S
C668 H681 0.929 . S
C669 C668 1.373 . S
C669 C670 1.396 . S
C669 C676 1.403 . S
C670 C660 1.476 . S
C670 N665 1.318 . S
C670 C669 1.396 . S
H671 C666 0.929 . S
O672 Mn648 2.385 . S
O672 C650 1.234 . S
O673 Mn648 2.209 . S
O673 Mn649 2.215 . S
O673 C650 1.283 . S
O674 Mn648 2.094 . S
O674 C652 1.240 . S
O675 Mn649 2.117 . S
O675 C652 1.264 . S
C676 C669 1.403 . S
C676 C677 1.399 . S
C676 H682 0.929 . S
C677 C657 1.449 . S
C677 C676 1.399 . S
C677 H683 0.930 . S
H678 C658 0.931 . S
H679 C659 0.930 . S
H680 C667 0.931 . S
H681 C668 0.929 . S
H682 C676 0.929 . S
H683 C677 0.930 . S
Mn684 O689 2.095 . S
Mn684 O699 2.162 . S
Mn684 O700 2.297 . S
Mn684 O708 2.385 . S
Mn684 O709 2.209 . S
Mn684 O710 2.094 . S
Mn685 O690 2.121 . S
Mn685 N692 2.257 . S
Mn685 N701 2.282 . S
Mn685 O709 2.215 . S
Mn685 O711 2.117 . S
C686 O708 1.234 . S
C686 O709 1.283 . S
C687 O699 1.281 . S
C687 O700 1.236 . S
C688 O710 1.240 . S
C688 O711 1.264 . S
O689 Mn684 2.095 . S
O689 C698 1.250 . S
O690 Mn685 2.121 . S
O690 C698 1.258 . S
C691 N692 1.326 . S
C691 C695 1.460 . S
C691 H697 0.929 . S
N692 Mn685 2.257 . S
N692 C691 1.326 . S
N692 C696 1.362 . S
C693 C694 1.258 . S
C693 C696 1.431 . S
C693 C713 1.449 . S
C694 C693 1.258 . S
C694 C695 1.477 . S
C694 H714 0.931 . S
C695 C691 1.460 . S
C695 C694 1.477 . S
C695 H715 0.930 . S
C696 N692 1.362 . S
C696 C693 1.431 . S
C696 C706 1.476 . S
H697 C691 0.929 . S
C698 O689 1.250 . S
C698 O690 1.258 . S
O699 Mn684 2.162 . S
O699 C687 1.281 . S
O700 Mn684 2.297 . S
O700 C687 1.236 . S
N701 Mn685 2.282 . S
N701 C702 1.328 . S
N701 C706 1.318 . S
C702 N701 1.328 . S
C702 C703 1.457 . S
C702 H707 0.929 . S
C703 C702 1.457 . S
C703 C704 1.291 . S
C703 H716 0.931 . S
C704 C703 1.291 . S
C704 C705 1.373 . S
C704 H717 0.929 . S
C705 C704 1.373 . S
C705 C706 1.396 . S
C705 C712 1.403 . S
C706 C696 1.476 . S
C706 N701 1.318 . S
C706 C705 1.396 . S
H707 C702 0.929 . S
O708 Mn684 2.385 . S
O708 C686 1.234 . S
O709 Mn684 2.209 . S
O709 Mn685 2.215 . S
O709 C686 1.283 . S
O710 Mn684 2.094 . S
O710 C688 1.240 . S
O711 Mn685 2.117 . S
O711 C688 1.264 . S
C712 C705 1.403 . S
C712 C713 1.399 . S
C712 H718 0.929 . S
C713 C693 1.449 . S
C713 C712 1.399 . S
C713 H719 0.930 . S
H714 C694 0.931 . S
H715 C695 0.930 . S
H716 C703 0.931 . S
H717 C704 0.929 . S
H718 C712 0.929 . S
H719 C713 0.930 . S
Mn720 O725 2.095 . S
Mn720 O735 2.162 . S
Mn720 O736 2.297 . S
Mn720 O744 2.385 . S
Mn720 O745 2.209 . S
Mn720 O746 2.094 1_554 S
Mn721 O726 2.121 . S
Mn721 N728 2.257 . S
Mn721 N737 2.282 . S
Mn721 O745 2.215 1_556 S
Mn721 O747 2.117 . S
C722 O744 1.234 . S
C722 O745 1.283 . S
C723 O735 1.281 . S
C723 O736 1.236 . S
C724 O746 1.240 . S
C724 O747 1.264 . S
O725 Mn720 2.095 . S
O725 C734 1.250 . S
O726 Mn721 2.121 . S
O726 C734 1.258 1_556 S
C727 N728 1.326 . S
C727 C731 1.460 . S
C727 H733 0.929 . S
N728 Mn721 2.257 . S
N728 C727 1.326 . S
N728 C732 1.362 . S
C729 C730 1.258 . S
C729 C732 1.431 . S
C729 C749 1.449 . S
C730 C729 1.258 . S
C730 C731 1.477 . S
C730 H750 0.931 . S
C731 C727 1.460 . S
C731 C730 1.477 . S
C731 H751 0.930 . S
C732 N728 1.362 . S
C732 C729 1.431 . S
C732 C742 1.476 . S
H733 C727 0.929 . S
C734 O725 1.250 . S
C734 O726 1.258 1_554 S
O735 Mn720 2.162 . S
O735 C723 1.281 . S
O736 Mn720 2.297 . S
O736 C723 1.236 . S
N737 Mn721 2.282 . S
N737 C738 1.328 . S
N737 C742 1.318 . S
C738 N737 1.328 . S
C738 C739 1.457 . S
C738 H743 0.929 . S
C739 C738 1.457 . S
C739 C740 1.291 . S
C739 H752 0.931 . S
C740 C739 1.291 . S
C740 C741 1.373 . S
C740 H753 0.929 . S
C741 C740 1.373 . S
C741 C742 1.396 . S
C741 C748 1.403 . S
C742 C732 1.476 . S
C742 N737 1.318 . S
C742 C741 1.396 . S
H743 C738 0.929 . S
O744 Mn720 2.385 . S
O744 C722 1.234 . S
O745 Mn720 2.209 . S
O745 Mn721 2.215 1_554 S
O745 C722 1.283 . S
O746 Mn720 2.094 1_556 S
O746 C724 1.240 . S
O747 Mn721 2.117 . S
O747 C724 1.264 . S
C748 C741 1.403 . S
C748 C749 1.399 . S
C748 H754 0.929 . S
C749 C729 1.449 . S
C749 C748 1.399 . S
C749 H755 0.930 . S
H750 C730 0.931 . S
H751 C731 0.930 . S
H752 C739 0.931 . S
H753 C740 0.929 . S
H754 C748 0.929 . S
H755 C749 0.930 . S
Mn756 O761 2.095 . S
Mn756 O771 2.162 . S
Mn756 O772 2.297 . S
Mn756 O780 2.385 . S
Mn756 O781 2.209 . S
Mn756 O782 2.094 . S
Mn757 O762 2.121 . S
Mn757 N764 2.257 . S
Mn757 N773 2.282 . S
Mn757 O781 2.215 . S
Mn757 O783 2.117 . S
C758 O780 1.234 . S
C758 O781 1.283 . S
C759 O771 1.281 . S
C759 O772 1.236 . S
C760 O782 1.240 . S
C760 O783 1.264 . S
O761 Mn756 2.095 . S
O761 C770 1.250 . S
O762 Mn757 2.121 . S
O762 C770 1.258 . S
C763 N764 1.326 . S
C763 C767 1.460 . S
C763 H769 0.929 . S
N764 Mn757 2.257 . S
N764 C763 1.326 . S
N764 C768 1.362 . S
C765 C766 1.258 . S
C765 C768 1.431 . S
C765 C785 1.449 . S
C766 C765 1.258 . S
C766 C767 1.477 . S
C766 H786 0.931 . S
C767 C763 1.460 . S
C767 C766 1.477 . S
C767 H787 0.930 . S
C768 N764 1.362 . S
C768 C765 1.431 . S
C768 C778 1.476 . S
H769 C763 0.929 . S
C770 O761 1.250 . S
C770 O762 1.258 . S
O771 Mn756 2.162 . S
O771 C759 1.281 . S
O772 Mn756 2.297 . S
O772 C759 1.236 . S
N773 Mn757 2.282 . S
N773 C774 1.328 . S
N773 C778 1.318 . S
C774 N773 1.328 . S
C774 C775 1.457 . S
C774 H779 0.929 . S
C775 C774 1.457 . S
C775 C776 1.291 . S
C775 H788 0.931 . S
C776 C775 1.291 . S
C776 C777 1.373 . S
C776 H789 0.929 . S
C777 C776 1.373 . S
C777 C778 1.396 . S
C777 C784 1.403 . S
C778 C768 1.476 . S
C778 N773 1.318 . S
C778 C777 1.396 . S
H779 C774 0.929 . S
O780 Mn756 2.385 . S
O780 C758 1.234 . S
O781 Mn756 2.209 . S
O781 Mn757 2.215 . S
O781 C758 1.283 . S
O782 Mn756 2.094 . S
O782 C760 1.240 . S
O783 Mn757 2.117 . S
O783 C760 1.264 . S
C784 C777 1.403 . S
C784 C785 1.399 . S
C784 H790 0.929 . S
C785 C765 1.449 . S
C785 C784 1.399 . S
C785 H791 0.930 . S
H786 C766 0.931 . S
H787 C767 0.930 . S
H788 C775 0.931 . S
H789 C776 0.929 . S
H790 C784 0.929 . S
H791 C785 0.930 . S
Mn792 O797 2.095 . S
Mn792 O807 2.162 . S
Mn792 O808 2.297 . S
Mn792 O816 2.385 . S
Mn792 O817 2.209 . S
Mn792 O818 2.094 . S
Mn793 O798 2.121 . S
Mn793 N800 2.257 . S
Mn793 N809 2.282 . S
Mn793 O817 2.215 . S
Mn793 O819 2.117 . S
C794 O816 1.234 . S
C794 O817 1.283 . S
C795 O807 1.281 . S
C795 O808 1.236 . S
C796 O818 1.240 . S
C796 O819 1.264 . S
O797 Mn792 2.095 . S
O797 C806 1.250 . S
O798 Mn793 2.121 . S
O798 C806 1.258 . S
C799 N800 1.326 . S
C799 C803 1.460 . S
C799 H805 0.929 . S
N800 Mn793 2.257 . S
N800 C799 1.326 . S
N800 C804 1.362 . S
C801 C802 1.258 . S
C801 C804 1.431 . S
C801 C821 1.449 . S
C802 C801 1.258 . S
C802 C803 1.477 . S
C802 H822 0.931 . S
C803 C799 1.460 . S
C803 C802 1.477 . S
C803 H823 0.930 . S
C804 N800 1.362 . S
C804 C801 1.431 . S
C804 C814 1.476 . S
H805 C799 0.929 . S
C806 O797 1.250 . S
C806 O798 1.258 . S
O807 Mn792 2.162 . S
O807 C795 1.281 . S
O808 Mn792 2.297 . S
O808 C795 1.236 . S
N809 Mn793 2.282 . S
N809 C810 1.328 . S
N809 C814 1.318 . S
C810 N809 1.328 . S
C810 C811 1.457 . S
C810 H815 0.929 . S
C811 C810 1.457 . S
C811 C812 1.291 . S
C811 H824 0.931 . S
C812 C811 1.291 . S
C812 C813 1.373 . S
C812 H825 0.929 . S
C813 C812 1.373 . S
C813 C814 1.396 . S
C813 C820 1.403 . S
C814 C804 1.476 . S
C814 N809 1.318 . S
C814 C813 1.396 . S
H815 C810 0.929 . S
O816 Mn792 2.385 . S
O816 C794 1.234 . S
O817 Mn792 2.209 . S
O817 Mn793 2.215 . S
O817 C794 1.283 . S
O818 Mn792 2.094 . S
O818 C796 1.240 . S
O819 Mn793 2.117 . S
O819 C796 1.264 . S
C820 C813 1.403 . S
C820 C821 1.399 . S
C820 H826 0.929 . S
C821 C801 1.449 . S
C821 C820 1.399 . S
C821 H827 0.930 . S
H822 C802 0.931 . S
H823 C803 0.930 . S
H824 C811 0.931 . S
H825 C812 0.929 . S
H826 C820 0.929 . S
H827 C821 0.930 . S
Mn828 O833 2.095 . S
Mn828 O843 2.162 . S
Mn828 O844 2.297 . S
Mn828 O852 2.385 . S
Mn828 O853 2.209 . S
Mn828 O854 2.094 . S
Mn829 O834 2.121 . S
Mn829 N836 2.257 . S
Mn829 N845 2.282 . S
Mn829 O853 2.215 . S
Mn829 O855 2.117 . S
C830 O852 1.234 . S
C830 O853 1.283 . S
C831 O843 1.281 . S
C831 O844 1.236 . S
C832 O854 1.240 . S
C832 O855 1.264 . S
O833 Mn828 2.095 . S
O833 C842 1.250 . S
O834 Mn829 2.121 . S
O834 C842 1.258 . S
C835 N836 1.326 . S
C835 C839 1.460 . S
C835 H841 0.929 . S
N836 Mn829 2.257 . S
N836 C835 1.326 . S
N836 C840 1.362 . S
C837 C838 1.258 . S
C837 C840 1.431 . S
C837 C857 1.449 . S
C838 C837 1.258 . S
C838 C839 1.477 . S
C838 H858 0.931 . S
C839 C835 1.460 . S
C839 C838 1.477 . S
C839 H859 0.930 . S
C840 N836 1.362 . S
C840 C837 1.431 . S
C840 C850 1.476 . S
H841 C835 0.929 . S
C842 O833 1.250 . S
C842 O834 1.258 . S
O843 Mn828 2.162 . S
O843 C831 1.281 . S
O844 Mn828 2.297 . S
O844 C831 1.236 . S
N845 Mn829 2.282 . S
N845 C846 1.328 . S
N845 C850 1.318 . S
C846 N845 1.328 . S
C846 C847 1.457 . S
C846 H851 0.929 . S
C847 C846 1.457 . S
C847 C848 1.291 . S
C847 H860 0.931 . S
C848 C847 1.291 . S
C848 C849 1.373 . S
C848 H861 0.929 . S
C849 C848 1.373 . S
C849 C850 1.396 . S
C849 C856 1.403 . S
C850 C840 1.476 . S
C850 N845 1.318 . S
C850 C849 1.396 . S
H851 C846 0.929 . S
O852 Mn828 2.385 . S
O852 C830 1.234 . S
O853 Mn828 2.209 . S
O853 Mn829 2.215 . S
O853 C830 1.283 . S
O854 Mn828 2.094 . S
O854 C832 1.240 . S
O855 Mn829 2.117 . S
O855 C832 1.264 . S
C856 C849 1.403 . S
C856 C857 1.399 . S
C856 H862 0.929 . S
C857 C837 1.449 . S
C857 C856 1.399 . S
C857 H863 0.930 . S
H858 C838 0.931 . S
H859 C839 0.930 . S
H860 C847 0.931 . S
H861 C848 0.929 . S
H862 C856 0.929 . S
H863 C857 0.930 . S
Eu864 C873 2.828 . S
Eu864 O875 2.392 . S
Eu864 O877 2.418 . S
Eu864 O882 2.373 . S
Eu864 O885 2.488 . S
Eu864 O886 2.471 1_554 S
Eu864 O887 2.349 1_554 S
Eu865 O874 2.373 1_565 S
Eu865 O878 2.488 1_554 S
Eu865 O879 2.471 . S
Eu865 O880 2.349 1_565 S
Eu865 O883 2.394 1_565 S
Eu865 O884 2.418 1_554 S
Eu865 C894 2.828 . S
C866 O884 1.244 1_545 S
C866 O887 1.265 . S
C867 C868 1.379 1_554 S
C867 C871 1.373 . S
C867 C873 1.505 . S
C868 C867 1.379 1_556 S
C868 C870 1.369 . S
C868 H896 0.930 . S
C869 C871 1.383 . S
C869 C872 1.382 1_554 S
C869 H897 0.930 . S
C870 C868 1.369 . S
C870 C872 1.392 . S
C870 H898 0.930 . S
C871 C867 1.373 . S
C871 C869 1.383 . S
C871 H899 0.931 . S
C872 C869 1.382 1_556 S
C872 C870 1.392 . S
C873 Eu864 2.828 . S
C873 C867 1.505 . S
C873 O885 1.249 . S
C873 O886 1.244 1_554 S
O874 Eu865 2.373 1_545 S
O874 C876 1.258 . S
O875 Eu864 2.392 . S
O875 C876 1.242 . S
C876 O874 1.258 . S
C876 O875 1.242 . S
O877 Eu864 2.418 . S
O877 C881 1.244 . S
O878 Eu865 2.488 1_556 S
O878 C894 1.249 1_556 S
O879 Eu865 2.471 . S
O879 C894 1.244 . S
O880 Eu865 2.349 1_545 S
O880 C881 1.265 . S
C881 O877 1.244 . S
C881 O880 1.265 . S
O882 Eu864 2.373 . S
O882 C895 1.258 . S
O883 Eu865 2.394 1_545 S
O883 C895 1.242 . S
O884 Eu865 2.418 1_556 S
O884 C866 1.244 1_565 S
O885 Eu864 2.488 . S
O885 C873 1.249 . S
O886 Eu864 2.471 1_556 S
O886 C873 1.244 1_556 S
O887 Eu864 2.349 1_556 S
O887 C866 1.265 . S
C888 C889 1.379 . S
C888 C892 1.373 . S
C888 C894 1.505 . S
C889 C888 1.379 . S
C889 C891 1.369 . S
C889 H900 0.930 . S
C890 C892 1.383 . S
C890 C893 1.382 . S
C890 H901 0.930 . S
C891 C889 1.369 . S
C891 C893 1.392 . S
C891 H902 0.930 . S
C892 C888 1.373 . S
C892 C890 1.383 . S
C892 H903 0.931 1_554 S
C893 C890 1.382 . S
C893 C891 1.392 . S
C894 Eu865 2.828 . S
C894 O878 1.249 1_554 S
C894 O879 1.244 . S
C894 C888 1.505 . S
C895 O882 1.258 . S
C895 O883 1.242 . S
H896 C868 0.930 . S
H897 C869 0.930 . S
H898 C870 0.930 . S
H899 C871 0.931 . S
H900 C889 0.930 . S
H901 C890 0.930 . S
H902 C891 0.930 . S
H903 C892 0.931 1_556 S
Eu904 C913 2.828 . S
Eu904 O915 2.392 . S
Eu904 O917 2.418 . S
Eu904 O922 2.373 . S
Eu904 O925 2.488 . S
Eu904 O926 2.471 . S
Eu904 O927 2.349 . S
Eu905 O914 2.373 . S
Eu905 O918 2.488 . S
Eu905 O919 2.471 . S
Eu905 O920 2.349 . S
Eu905 O923 2.392 . S
Eu905 O924 2.418 . S
Eu905 C934 2.828 . S
C906 O924 1.244 . S
C906 O927 1.265 . S
C907 C908 1.379 . S
C907 C911 1.373 . S
C907 C913 1.505 . S
C908 C907 1.379 . S
C908 C910 1.369 . S
C908 H936 0.930 . S
C909 C911 1.383 . S
C909 C912 1.382 . S
C909 H937 0.930 . S
C910 C908 1.369 . S
C910 C912 1.392 . S
C910 H938 0.930 . S
C911 C907 1.373 . S
C911 C909 1.383 . S
C911 H939 0.931 . S
C912 C909 1.382 . S
C912 C910 1.392 . S
C913 Eu904 2.828 . S
C913 C907 1.505 . S
C913 O925 1.249 . S
C913 O926 1.244 . S
O914 Eu905 2.373 . S
O914 C916 1.258 . S
O915 Eu904 2.392 . S
O915 C916 1.242 . S
C916 O914 1.258 . S
C916 O915 1.242 . S
O917 Eu904 2.418 . S
O917 C921 1.244 . S
O918 Eu905 2.488 . S
O918 C934 1.249 . S
O919 Eu905 2.471 . S
O919 C934 1.244 . S
O920 Eu905 2.349 . S
O920 C921 1.265 . S
C921 O917 1.244 . S
C921 O920 1.265 . S
O922 Eu904 2.373 . S
O922 C935 1.258 . S
O923 Eu905 2.392 . S
O923 C935 1.242 . S
O924 Eu905 2.418 . S
O924 C906 1.244 . S
O925 Eu904 2.488 . S
O925 C913 1.249 . S
O926 Eu904 2.471 . S
O926 C913 1.244 . S
O927 Eu904 2.349 . S
O927 C906 1.265 . S
C928 C929 1.379 . S
C928 C932 1.373 . S
C928 C934 1.505 . S
C929 C928 1.379 . S
C929 C931 1.369 . S
C929 H940 0.930 . S
C930 C932 1.383 . S
C930 C933 1.382 . S
C930 H941 0.930 . S
C931 C929 1.369 . S
C931 C933 1.392 . S
C931 H942 0.930 . S
C932 C928 1.373 . S
C932 C930 1.383 . S
C932 H943 0.931 . S
C933 C930 1.382 . S
C933 C931 1.392 . S
C934 Eu905 2.828 . S
C934 O918 1.249 . S
C934 O919 1.244 . S
C934 C928 1.505 . S
C935 O922 1.258 . S
C935 O923 1.242 . S
H936 C908 0.930 . S
H937 C909 0.930 . S
H938 C910 0.930 . S
H939 C911 0.931 . S
H940 C929 0.930 . S
H941 C930 0.930 . S
H942 C931 0.930 . S
H943 C932 0.931 . S
Eu944 C953 2.828 . S
Eu944 O955 2.392 . S
Eu944 O957 2.418 . S
Eu944 O962 2.373 . S
Eu944 O965 2.488 . S
Eu944 O966 2.471 . S
Eu944 O967 2.349 . S
Eu945 O954 2.373 . S
Eu945 O958 2.488 . S
Eu945 O959 2.471 . S
Eu945 O960 2.349 . S
Eu945 O963 2.392 1_545 S
Eu945 O964 2.418 . S
Eu945 C974 2.828 . S
C946 O964 1.244 . S
C946 O967 1.265 . S
C947 C948 1.397 . S
C947 C951 1.374 . S
C947 C953 1.487 1_565 S
C948 C947 1.397 . S
C948 C950 1.369 . S
C948 H976 0.930 . S
C949 C951 1.383 . S
C949 C952 1.382 . S
C949 H977 0.930 . S
C950 C948 1.369 . S
C950 C952 1.392 . S
C950 H978 0.930 . S
C951 C947 1.374 . S
C951 C949 1.383 . S
C951 H979 0.931 1_565 S
C952 C949 1.382 . S
C952 C950 1.392 . S
C953 Eu944 2.828 . S
C953 C947 1.487 1_545 S
C953 O965 1.249 . S
C953 O966 1.244 . S
O954 Eu945 2.373 . S
O954 C956 1.258 . S
O955 Eu944 2.392 . S
O955 C956 1.242 . S
C956 O954 1.258 . S
C956 O955 1.242 . S
O957 Eu944 2.418 . S
O957 C961 1.244 . S
O958 Eu945 2.488 . S
O958 C974 1.249 . S
O959 Eu945 2.471 . S
O959 C974 1.244 . S
O960 Eu945 2.349 . S
O960 C961 1.265 . S
C961 O957 1.244 . S
C961 O960 1.265 . S
O962 Eu944 2.373 . S
O962 C975 1.258 1_545 S
O963 Eu945 2.392 1_565 S
O963 C975 1.242 . S
O964 Eu945 2.418 . S
O964 C946 1.244 . S
O965 Eu944 2.488 . S
O965 C953 1.249 . S
O966 Eu944 2.471 . S
O966 C953 1.244 . S
O967 Eu944 2.349 . S
O967 C946 1.265 . S
C968 C969 1.379 . S
C968 C972 1.373 . S
C968 C974 1.505 . S
C969 C968 1.379 . S
C969 C971 1.369 . S
C969 H980 0.930 . S
C970 C972 1.383 . S
C970 C973 1.382 . S
C970 H981 0.930 . S
C971 C969 1.369 . S
C971 C973 1.392 . S
C971 H982 0.930 . S
C972 C968 1.373 . S
C972 C970 1.383 . S
C972 H983 0.931 . S
C973 C970 1.382 . S
C973 C971 1.392 . S
C974 Eu945 2.828 . S
C974 O958 1.249 . S
C974 O959 1.244 . S
C974 C968 1.505 . S
C975 O962 1.258 1_565 S
C975 O963 1.242 . S
H976 C948 0.930 . S
H977 C949 0.930 . S
H978 C950 0.930 . S
H979 C951 0.931 1_545 S
H980 C969 0.930 . S
H981 C970 0.930 . S
H982 C971 0.930 . S
H983 C972 0.931 . S
Eu984 C993 2.828 . S
Eu984 O995 2.392 . S
Eu984 O997 2.418 . S
Eu984 O1002 2.373 . S
Eu984 O1005 2.488 . S
Eu984 O1006 2.471 . S
Eu984 O1007 2.349 . S
Eu985 O994 2.373 . S
Eu985 O998 2.488 . S
Eu985 O999 2.471 . S
Eu985 O1000 2.349 . S
Eu985 O1003 2.392 . S
Eu985 O1004 2.418 . S
Eu985 C1014 2.828 . S
C986 O1004 1.244 . S
C986 O1007 1.265 . S
C987 C988 1.379 . S
C987 C991 1.373 . S
C987 C993 1.505 . S
C988 C987 1.379 . S
C988 C990 1.369 . S
C988 H1016 0.930 . S
C989 C991 1.383 . S
C989 C992 1.382 . S
C989 H1017 0.930 . S
C990 C988 1.369 . S
C990 C992 1.392 . S
C990 H1018 0.930 . S
C991 C987 1.373 . S
C991 C989 1.383 . S
C991 H1019 0.931 . S
C992 C989 1.382 . S
C992 C990 1.392 . S
C993 Eu984 2.828 . S
C993 C987 1.505 . S
C993 O1005 1.249 . S
C993 O1006 1.244 . S
O994 Eu985 2.373 . S
O994 C996 1.258 . S
O995 Eu984 2.392 . S
O995 C996 1.242 . S
C996 O994 1.258 . S
C996 O995 1.242 . S
O997 Eu984 2.418 . S
O997 C1001 1.244 . S
O998 Eu985 2.488 . S
O998 C1014 1.249 . S
O999 Eu985 2.471 . S
O999 C1014 1.244 . S
O1000 Eu985 2.349 . S
O1000 C1001 1.265 . S
C1001 O997 1.244 . S
C1001 O1000 1.265 . S
O1002 Eu984 2.373 . S
O1002 C1015 1.258 . S
O1003 Eu985 2.392 . S
O1003 C1015 1.242 . S
O1004 Eu985 2.418 . S
O1004 C986 1.244 . S
O1005 Eu984 2.488 . S
O1005 C993 1.249 . S
O1006 Eu984 2.471 . S
O1006 C993 1.244 . S
O1007 Eu984 2.349 . S
O1007 C986 1.265 . S
C1008 C1009 1.379 . S
C1008 C1012 1.373 . S
C1008 C1014 1.505 . S
C1009 C1008 1.379 . S
C1009 C1011 1.369 . S
C1009 H1020 0.930 . S
C1010 C1012 1.383 . S
C1010 C1013 1.382 . S
C1010 H1021 0.930 . S
C1011 C1009 1.369 . S
C1011 C1013 1.392 . S
C1011 H1022 0.930 . S
C1012 C1008 1.373 . S
C1012 C1010 1.383 . S
C1012 H1023 0.931 . S
C1013 C1010 1.382 . S
C1013 C1011 1.392 . S
C1014 Eu985 2.828 . S
C1014 O998 1.249 . S
C1014 O999 1.244 . S
C1014 C1008 1.505 . S
C1015 O1002 1.258 . S
C1015 O1003 1.242 . S
H1016 C988 0.930 . S
H1017 C989 0.930 . S
H1018 C990 0.930 . S
H1019 C991 0.931 . S
H1020 C1009 0.930 . S
H1021 C1010 0.930 . S
H1022 C1011 0.930 . S
H1023 C1012 0.931 . S
Eu1024 C1033 2.828 . S
Eu1024 O1035 2.392 . S
Eu1024 O1037 2.418 . S
Eu1024 O1042 2.373 . S
Eu1024 O1045 2.488 . S
Eu1024 O1046 2.471 . S
Eu1024 O1047 2.349 . S
Eu1025 O1034 2.376 . S
Eu1025 O1038 2.459 1_545 S
Eu1025 O1039 2.442 1_545 S
Eu1025 O1040 2.365 . S
Eu1025 O1043 2.416 . S
Eu1025 O1044 2.431 . S
Eu1025 C1054 2.795 1_545 S
C1026 O1044 1.244 . S
C1026 O1047 1.265 . S
C1027 C1028 1.379 . S
C1027 C1031 1.373 . S
C1027 C1033 1.505 . S
C1028 C1027 1.379 . S
C1028 C1030 1.369 . S
C1028 H1056 0.930 . S
C1029 C1031 1.383 . S
C1029 C1032 1.382 . S
C1029 H1057 0.930 . S
C1030 C1028 1.369 . S
C1030 C1032 1.392 . S
C1030 H1058 0.930 . S
C1031 C1027 1.373 . S
C1031 C1029 1.383 . S
C1031 H1059 0.931 . S
C1032 C1029 1.382 . S
C1032 C1030 1.392 . S
C1033 Eu1024 2.828 . S
C1033 C1027 1.505 . S
C1033 O1045 1.249 . S
C1033 O1046 1.244 . S
O1034 Eu1025 2.376 . S
O1034 C1036 1.258 . S
O1035 Eu1024 2.392 . S
O1035 C1036 1.242 . S
C1036 O1034 1.258 . S
C1036 O1035 1.242 . S
O1037 Eu1024 2.418 . S
O1037 C1041 1.244 . S
O1038 Eu1025 2.459 1_565 S
O1038 C1054 1.249 . S
O1039 Eu1025 2.442 1_565 S
O1039 C1054 1.244 . S
O1040 Eu1025 2.365 . S
O1040 C1041 1.265 . S
C1041 O1037 1.244 . S
C1041 O1040 1.265 . S
O1042 Eu1024 2.373 . S
O1042 C1055 1.258 . S
O1043 Eu1025 2.416 . S
O1043 C1055 1.242 . S
O1044 Eu1025 2.431 . S
O1044 C1026 1.244 . S
O1045 Eu1024 2.488 . S
O1045 C1033 1.249 . S
O1046 Eu1024 2.471 . S
O1046 C1033 1.244 . S
O1047 Eu1024 2.349 . S
O1047 C1026 1.265 . S
C1048 C1049 1.379 . S
C1048 C1052 1.373 . S
C1048 C1054 1.505 . S
C1049 C1048 1.379 . S
C1049 C1051 1.369 . S
C1049 H1060 0.930 . S
C1050 C1052 1.383 . S
C1050 C1053 1.382 . S
C1050 H1061 0.930 . S
C1051 C1049 1.369 . S
C1051 C1053 1.392 . S
C1051 H1062 0.930 . S
C1052 C1048 1.373 . S
C1052 C1050 1.383 . S
C1052 H1063 0.931 . S
C1053 C1050 1.382 . S
C1053 C1051 1.392 . S
C1054 Eu1025 2.795 1_565 S
C1054 O1038 1.249 . S
C1054 O1039 1.244 . S
C1054 C1048 1.505 . S
C1055 O1042 1.258 . S
C1055 O1043 1.242 . S
H1056 C1028 0.930 . S
H1057 C1029 0.930 . S
H1058 C1030 0.930 . S
H1059 C1031 0.931 . S
H1060 C1049 0.930 . S
H1061 C1050 0.930 . S
H1062 C1051 0.930 . S
H1063 C1052 0.931 . S
Eu1064 C1073 2.828 . S
Eu1064 O1075 2.392 . S
Eu1064 O1077 2.418 . S
Eu1064 O1082 2.373 . S
Eu1064 O1085 2.488 . S
Eu1064 O1086 2.471 . S
Eu1064 O1087 2.349 . S
Eu1065 O1074 2.373 . S
Eu1065 O1078 2.488 . S
Eu1065 O1079 2.471 . S
Eu1065 O1080 2.349 . S
Eu1065 O1083 2.392 . S
Eu1065 O1084 2.418 . S
Eu1065 C1094 2.828 . S
C1066 O1084 1.244 . S
C1066 O1087 1.265 . S
C1067 C1068 1.379 . S
C1067 C1071 1.373 . S
C1067 C1073 1.505 . S
C1068 C1067 1.379 . S
C1068 C1070 1.369 . S
C1068 H1096 0.930 . S
C1069 C1071 1.383 . S
C1069 C1072 1.382 . S
C1069 H1097 0.930 . S
C1070 C1068 1.369 . S
C1070 C1072 1.392 . S
C1070 H1098 0.930 . S
C1071 C1067 1.373 . S
C1071 C1069 1.383 . S
C1071 H1099 0.931 . S
C1072 C1069 1.382 . S
C1072 C1070 1.392 . S
C1073 Eu1064 2.828 . S
C1073 C1067 1.505 . S
C1073 O1085 1.249 . S
C1073 O1086 1.244 . S
O1074 Eu1065 2.373 . S
O1074 C1076 1.258 . S
O1075 Eu1064 2.392 . S
O1075 C1076 1.242 . S
C1076 O1074 1.258 . S
C1076 O1075 1.242 . S
O1077 Eu1064 2.418 . S
O1077 C1081 1.244 . S
O1078 Eu1065 2.488 . S
O1078 C1094 1.249 . S
O1079 Eu1065 2.471 . S
O1079 C1094 1.244 . S
O1080 Eu1065 2.349 . S
O1080 C1081 1.265 . S
C1081 O1077 1.244 . S
C1081 O1080 1.265 . S
O1082 Eu1064 2.373 . S
O1082 C1095 1.258 . S
O1083 Eu1065 2.392 . S
O1083 C1095 1.242 . S
O1084 Eu1065 2.418 . S
O1084 C1066 1.244 . S
O1085 Eu1064 2.488 . S
O1085 C1073 1.249 . S
O1086 Eu1064 2.471 . S
O1086 C1073 1.244 . S
O1087 Eu1064 2.349 . S
O1087 C1066 1.265 . S
C1088 C1089 1.379 . S
C1088 C1092 1.373 . S
C1088 C1094 1.505 . S
C1089 C1088 1.379 . S
C1089 C1091 1.369 . S
C1089 H1100 0.930 . S
C1090 C1092 1.383 . S
C1090 C1093 1.382 . S
C1090 H1101 0.930 . S
C1091 C1089 1.369 . S
C1091 C1093 1.392 . S
C1091 H1102 0.930 . S
C1092 C1088 1.373 . S
C1092 C1090 1.383 . S
C1092 H1103 0.931 . S
C1093 C1090 1.382 . S
C1093 C1091 1.392 . S
C1094 Eu1065 2.828 . S
C1094 O1078 1.249 . S
C1094 O1079 1.244 . S
C1094 C1088 1.505 . S
C1095 O1082 1.258 . S
C1095 O1083 1.242 . S
H1096 C1068 0.930 . S
H1097 C1069 0.930 . S
H1098 C1070 0.930 . S
H1099 C1071 0.931 . S
H1100 C1089 0.930 . S
H1101 C1090 0.930 . S
H1102 C1091 0.930 . S
H1103 C1092 0.931 . S
Eu1104 C1113 2.828 . S
Eu1104 O1115 2.392 . S
Eu1104 O1117 2.418 1_545 S
Eu1104 O1122 2.373 . S
Eu1104 O1125 2.488 . S
Eu1104 O1126 2.471 . S
Eu1104 O1127 2.349 . S
Eu1105 O1114 2.373 1_556 S
Eu1105 O1118 2.488 . S
Eu1105 O1119 2.471 . S
Eu1105 O1120 2.365 . S
Eu1105 O1123 2.391 1_556 S
Eu1105 O1124 2.418 1_556 S
Eu1105 C1134 2.828 . S
C1106 O1124 1.244 . S
C1106 O1127 1.265 . S
C1107 C1108 1.379 . S
C1107 C1111 1.373 1_545 S
C1107 C1113 1.505 . S
C1108 C1107 1.379 . S
C1108 C1110 1.369 . S
C1108 H1136 0.930 . S
C1109 C1111 1.383 . S
C1109 C1112 1.382 . S
C1109 H1137 0.930 . S
C1110 C1108 1.369 . S
C1110 C1112 1.392 1_545 S
C1110 H1138 0.930 . S
C1111 C1107 1.373 1_565 S
C1111 C1109 1.383 . S
C1111 H1139 0.931 . S
C1112 C1109 1.382 . S
C1112 C1110 1.392 1_565 S
C1113 Eu1104 2.828 . S
C1113 C1107 1.505 . S
C1113 O1125 1.249 . S
C1113 O1126 1.244 . S
O1114 Eu1105 2.373 1_554 S
O1114 C1116 1.258 . S
O1115 Eu1104 2.392 . S
O1115 C1116 1.242 . S
C1116 O1114 1.258 . S
C1116 O1115 1.242 . S
O1117 Eu1104 2.418 1_565 S
O1117 C1121 1.244 . S
O1118 Eu1105 2.488 . S
O1118 C1134 1.249 . S
O1119 Eu1105 2.471 . S
O1119 C1134 1.244 . S
O1120 Eu1105 2.365 . S
O1120 C1121 1.253 1_546 S
C1121 O1117 1.244 . S
C1121 O1120 1.253 1_564 S
O1122 Eu1104 2.373 . S
O1122 C1135 1.258 . S
O1123 Eu1105 2.391 1_554 S
O1123 C1135 1.244 . S
O1124 Eu1105 2.418 1_554 S
O1124 C1106 1.244 . S
O1125 Eu1104 2.488 . S
O1125 C1113 1.249 . S
O1126 Eu1104 2.471 . S
O1126 C1113 1.244 . S
O1127 Eu1104 2.349 . S
O1127 C1106 1.265 . S
C1128 C1129 1.379 . S
C1128 C1132 1.373 . S
C1128 C1134 1.505 . S
C1129 C1128 1.379 . S
C1129 C1131 1.369 . S
C1129 H1140 0.930 . S
C1130 C1132 1.383 . S
C1130 C1133 1.382 . S
C1130 H1141 0.930 . S
C1131 C1129 1.369 . S
C1131 C1133 1.392 . S
C1131 H1142 0.930 . S
C1132 C1128 1.373 . S
C1132 C1130 1.383 . S
C1132 H1143 0.931 . S
C1133 C1130 1.382 . S
C1133 C1131 1.392 . S
C1134 Eu1105 2.828 . S
C1134 O1118 1.249 . S
C1134 O1119 1.244 . S
C1134 C1128 1.505 . S
C1135 O1122 1.258 . S
C1135 O1123 1.244 . S
H1136 C1108 0.930 . S
H1137 C1109 0.930 . S
H1138 C1110 0.930 . S
H1139 C1111 0.931 . S
H1140 C1129 0.930 . S
H1141 C1130 0.930 . S
H1142 C1131 0.930 . S
H1143 C1132 0.931 . S
Eu1144 C1153 2.828 . S
Eu1144 O1155 2.392 . S
Eu1144 O1157 2.418 . S
Eu1144 O1162 2.373 . S
Eu1144 O1165 2.488 . S
Eu1144 O1166 2.471 . S
Eu1144 O1167 2.349 . S
Eu1145 O1154 2.373 . S
Eu1145 O1158 2.488 . S
Eu1145 O1159 2.471 . S
Eu1145 O1160 2.349 . S
Eu1145 O1163 2.392 . S
Eu1145 O1164 2.418 . S
Eu1145 C1174 2.828 . S
C1146 O1164 1.244 . S
C1146 O1167 1.265 . S
C1147 C1148 1.379 . S
C1147 C1151 1.373 . S
C1147 C1153 1.505 . S
C1148 C1147 1.379 . S
C1148 C1150 1.369 . S
C1148 H1176 0.930 . S
C1149 C1151 1.383 . S
C1149 C1152 1.382 . S
C1149 H1177 0.930 . S
C1150 C1148 1.369 . S
C1150 C1152 1.392 . S
C1150 H1178 0.930 . S
C1151 C1147 1.373 . S
C1151 C1149 1.383 . S
C1151 H1179 0.931 . S
C1152 C1149 1.382 . S
C1152 C1150 1.392 . S
C1153 Eu1144 2.828 . S
C1153 C1147 1.505 . S
C1153 O1165 1.249 . S
C1153 O1166 1.244 . S
O1154 Eu1145 2.373 . S
O1154 C1156 1.258 . S
O1155 Eu1144 2.392 . S
O1155 C1156 1.242 . S
C1156 O1154 1.258 . S
C1156 O1155 1.242 . S
O1157 Eu1144 2.418 . S
O1157 C1161 1.244 . S
O1158 Eu1145 2.488 . S
O1158 C1174 1.249 . S
O1159 Eu1145 2.471 . S
O1159 C1174 1.244 . S
O1160 Eu1145 2.349 . S
O1160 C1161 1.265 . S
C1161 O1157 1.244 . S
C1161 O1160 1.265 . S
O1162 Eu1144 2.373 . S
O1162 C1175 1.258 . S
O1163 Eu1145 2.392 . S
O1163 C1175 1.242 . S
O1164 Eu1145 2.418 . S
O1164 C1146 1.244 . S
O1165 Eu1144 2.488 . S
O1165 C1153 1.249 . S
O1166 Eu1144 2.471 . S
O1166 C1153 1.244 . S
O1167 Eu1144 2.349 . S
O1167 C1146 1.265 . S
C1168 C1169 1.379 . S
C1168 C1172 1.373 . S
C1168 C1174 1.505 . S
C1169 C1168 1.379 . S
C1169 C1171 1.369 . S
C1169 H1180 0.930 . S
C1170 C1172 1.383 . S
C1170 C1173 1.382 . S
C1170 H1181 0.930 . S
C1171 C1169 1.369 . S
C1171 C1173 1.392 . S
C1171 H1182 0.930 . S
C1172 C1168 1.373 . S
C1172 C1170 1.383 . S
C1172 H1183 0.931 . S
C1173 C1170 1.382 . S
C1173 C1171 1.392 . S
C1174 Eu1145 2.828 . S
C1174 O1158 1.249 . S
C1174 O1159 1.244 . S
C1174 C1168 1.505 . S
C1175 O1162 1.258 . S
C1175 O1163 1.242 . S
H1176 C1148 0.930 . S
H1177 C1149 0.930 . S
H1178 C1150 0.930 . S
H1179 C1151 0.931 . S
H1180 C1169 0.930 . S
H1181 C1170 0.930 . S
H1182 C1171 0.930 . S
H1183 C1172 0.931 . S
Eu1184 C1193 2.828 . S
Eu1184 O1195 2.392 . S
Eu1184 O1197 2.418 . S
Eu1184 O1202 2.373 1_554 S
Eu1184 O1205 2.488 . S
Eu1184 O1206 2.471 . S
Eu1184 O1207 2.349 . S
Eu1185 O1194 2.373 . S
Eu1185 O1198 2.488 . S
Eu1185 O1199 2.471 . S
Eu1185 O1200 2.349 . S
Eu1185 O1203 2.392 1_554 S
Eu1185 O1204 2.418 . S
Eu1185 C1214 2.828 . S
C1186 O1204 1.244 . S
C1186 O1207 1.265 . S
C1187 C1188 1.379 1_554 S
C1187 C1191 1.373 . S
C1187 C1193 1.505 . S
C1188 C1187 1.379 1_556 S
C1188 C1190 1.369 . S
C1188 H1216 0.930 . S
C1189 C1191 1.383 1_556 S
C1189 C1192 1.382 . S
C1189 H1217 0.930 . S
C1190 C1188 1.369 . S
C1190 C1192 1.392 . S
C1190 H1218 0.930 . S
C1191 C1187 1.373 . S
C1191 C1189 1.383 1_554 S
C1191 H1219 0.931 . S
C1192 C1189 1.382 . S
C1192 C1190 1.392 . S
C1193 Eu1184 2.828 . S
C1193 C1187 1.505 . S
C1193 O1205 1.249 . S
C1193 O1206 1.244 . S
O1194 Eu1185 2.373 . S
O1194 C1196 1.258 . S
O1195 Eu1184 2.392 . S
O1195 C1196 1.242 . S
C1196 O1194 1.258 . S
C1196 O1195 1.242 . S
O1197 Eu1184 2.418 . S
O1197 C1201 1.244 . S
O1198 Eu1185 2.488 . S
O1198 C1214 1.249 . S
O1199 Eu1185 2.471 . S
O1199 C1214 1.244 . S
O1200 Eu1185 2.349 . S
O1200 C1201 1.265 . S
C1201 O1197 1.244 . S
C1201 O1200 1.265 . S
O1202 Eu1184 2.373 1_556 S
O1202 C1215 1.258 . S
O1203 Eu1185 2.392 1_556 S
O1203 C1215 1.242 . S
O1204 Eu1185 2.418 . S
O1204 C1186 1.244 . S
O1205 Eu1184 2.488 . S
O1205 C1193 1.249 . S
O1206 Eu1184 2.471 . S
O1206 C1193 1.244 . S
O1207 Eu1184 2.349 . S
O1207 C1186 1.265 . S
C1208 C1209 1.379 . S
C1208 C1212 1.373 . S
C1208 C1214 1.505 . S
C1209 C1208 1.379 . S
C1209 C1211 1.369 . S
C1209 H1220 0.930 . S
C1210 C1212 1.383 . S
C1210 C1213 1.382 . S
C1210 H1221 0.930 . S
C1211 C1209 1.369 . S
C1211 C1213 1.392 . S
C1211 H1222 0.930 . S
C1212 C1208 1.373 . S
C1212 C1210 1.383 . S
C1212 H1223 0.931 . S
C1213 C1210 1.382 . S
C1213 C1211 1.392 . S
C1214 Eu1185 2.828 . S
C1214 O1198 1.249 . S
C1214 O1199 1.244 . S
C1214 C1208 1.505 . S
C1215 O1202 1.258 . S
C1215 O1203 1.242 . S
H1216 C1188 0.930 . S
H1217 C1189 0.930 . S
H1218 C1190 0.930 . S
H1219 C1191 0.931 . S
H1220 C1209 0.930 . S
H1221 C1210 0.930 . S
H1222 C1211 0.930 . S
H1223 C1212 0.931 . S
Eu1224 C1233 2.828 . S
Eu1224 O1235 2.392 . S
Eu1224 O1237 2.418 . S
Eu1224 O1242 2.373 . S
Eu1224 O1245 2.488 . S
Eu1224 O1246 2.471 . S
Eu1224 O1247 2.349 . S
Eu1225 O1234 2.373 . S
Eu1225 O1238 2.488 . S
Eu1225 O1239 2.471 . S
Eu1225 O1240 2.349 . S
Eu1225 O1243 2.392 . S
Eu1225 O1244 2.418 . S
Eu1225 C1254 2.828 . S
C1226 O1244 1.244 . S
C1226 O1247 1.265 . S
C1227 C1228 1.379 . S
C1227 C1231 1.373 . S
C1227 C1233 1.505 . S
C1228 C1227 1.379 . S
C1228 C1230 1.369 . S
C1228 H1256 0.930 . S
C1229 C1231 1.383 1_455 S
C1229 C1232 1.382 . S
C1229 H1257 0.930 . S
C1230 C1228 1.369 . S
C1230 C1232 1.392 1_655 S
C1230 H1258 0.930 . S
C1231 C1227 1.373 . S
C1231 C1229 1.383 1_655 S
C1231 H1259 0.931 . S
C1232 C1229 1.382 . S
C1232 C1230 1.392 1_455 S
C1233 Eu1224 2.828 . S
C1233 C1227 1.505 . S
C1233 O1245 1.249 . S
C1233 O1246 1.244 . S
O1234 Eu1225 2.373 . S
O1234 C1236 1.258 . S
O1235 Eu1224 2.392 . S
O1235 C1236 1.242 . S
C1236 O1234 1.258 . S
C1236 O1235 1.242 . S
O1237 Eu1224 2.418 . S
O1237 C1241 1.244 . S
O1238 Eu1225 2.488 . S
O1238 C1254 1.249 . S
O1239 Eu1225 2.471 . S
O1239 C1254 1.244 . S
O1240 Eu1225 2.349 . S
O1240 C1241 1.265 . S
C1241 O1237 1.244 . S
C1241 O1240 1.265 . S
O1242 Eu1224 2.373 . S
O1242 C1255 1.258 . S
O1243 Eu1225 2.392 . S
O1243 C1255 1.242 . S
O1244 Eu1225 2.418 . S
O1244 C1226 1.244 . S
O1245 Eu1224 2.488 . S
O1245 C1233 1.249 . S
O1246 Eu1224 2.471 . S
O1246 C1233 1.244 . S
O1247 Eu1224 2.349 . S
O1247 C1226 1.265 . S
C1248 C1249 1.379 . S
C1248 C1252 1.373 . S
C1248 C1254 1.505 . S
C1249 C1248 1.379 . S
C1249 C1251 1.369 . S
C1249 H1260 0.930 . S
C1250 C1252 1.383 . S
C1250 C1253 1.382 . S
C1250 H1261 0.930 . S
C1251 C1249 1.369 . S
C1251 C1253 1.392 . S
C1251 H1262 0.930 . S
C1252 C1248 1.373 . S
C1252 C1250 1.383 . S
C1252 H1263 0.931 . S
C1253 C1250 1.382 . S
C1253 C1251 1.392 . S
C1254 Eu1225 2.828 . S
C1254 O1238 1.249 . S
C1254 O1239 1.244 . S
C1254 C1248 1.505 . S
C1255 O1242 1.258 . S
C1255 O1243 1.242 . S
H1256 C1228 0.930 . S
H1257 C1229 0.930 . S
H1258 C1230 0.930 . S
H1259 C1231 0.931 . S
H1260 C1249 0.930 . S
H1261 C1250 0.930 . S
H1262 C1251 0.930 . S
H1263 C1252 0.931 . S
Eu1264 C1273 2.828 . S
Eu1264 O1275 2.392 . S
Eu1264 O1277 2.418 . S
Eu1264 O1282 2.373 . S
Eu1264 O1285 2.488 . S
Eu1264 O1286 2.471 . S
Eu1264 O1287 2.349 . S
Eu1265 O1274 2.373 . S
Eu1265 O1278 2.488 . S
Eu1265 O1279 2.471 . S
Eu1265 O1280 2.349 . S
Eu1265 O1283 2.392 . S
Eu1265 O1284 2.418 . S
Eu1265 C1294 2.828 . S
C1266 O1284 1.244 . S
C1266 O1287 1.265 . S
C1267 C1268 1.379 . S
C1267 C1271 1.373 . S
C1267 C1273 1.505 . S
C1268 C1267 1.379 . S
C1268 C1270 1.369 1_455 S
C1268 H1296 0.930 . S
C1269 C1271 1.383 . S
C1269 C1272 1.382 1_455 S
C1269 H1297 0.930 . S
C1270 C1268 1.369 1_655 S
C1270 C1272 1.392 . S
C1270 H1298 0.930 . S
C1271 C1267 1.373 . S
C1271 C1269 1.383 . S
C1271 H1299 0.931 . S
C1272 C1269 1.382 1_655 S
C1272 C1270 1.392 . S
C1273 Eu1264 2.828 . S
C1273 C1267 1.505 . S
C1273 O1285 1.249 . S
C1273 O1286 1.244 . S
O1274 Eu1265 2.373 . S
O1274 C1276 1.258 . S
O1275 Eu1264 2.392 . S
O1275 C1276 1.242 . S
C1276 O1274 1.258 . S
C1276 O1275 1.242 . S
O1277 Eu1264 2.418 . S
O1277 C1281 1.244 . S
O1278 Eu1265 2.488 . S
O1278 C1294 1.249 . S
O1279 Eu1265 2.471 . S
O1279 C1294 1.244 . S
O1280 Eu1265 2.349 . S
O1280 C1281 1.265 . S
C1281 O1277 1.244 . S
C1281 O1280 1.265 . S
O1282 Eu1264 2.373 . S
O1282 C1295 1.258 . S
O1283 Eu1265 2.392 . S
O1283 C1295 1.242 . S
O1284 Eu1265 2.418 . S
O1284 C1266 1.244 . S
O1285 Eu1264 2.488 . S
O1285 C1273 1.249 . S
O1286 Eu1264 2.471 . S
O1286 C1273 1.244 . S
O1287 Eu1264 2.349 . S
O1287 C1266 1.265 . S
C1288 C1289 1.379 . S
C1288 C1292 1.373 . S
C1288 C1294 1.505 . S
C1289 C1288 1.379 . S
C1289 C1291 1.369 . S
C1289 H1300 0.930 . S
C1290 C1292 1.383 . S
C1290 C1293 1.382 . S
C1290 H1301 0.930 . S
C1291 C1289 1.369 . S
C1291 C1293 1.392 . S
C1291 H1302 0.930 . S
C1292 C1288 1.373 . S
C1292 C1290 1.383 . S
C1292 H1303 0.931 . S
C1293 C1290 1.382 . S
C1293 C1291 1.392 . S
C1294 Eu1265 2.828 . S
C1294 O1278 1.249 . S
C1294 O1279 1.244 . S
C1294 C1288 1.505 . S
C1295 O1282 1.258 . S
C1295 O1283 1.242 . S
H1296 C1268 0.930 . S
H1297 C1269 0.930 . S
H1298 C1270 0.930 . S
H1299 C1271 0.931 . S
H1300 C1289 0.930 . S
H1301 C1290 0.930 . S
H1302 C1291 0.930 . S
H1303 C1292 0.931 . S
Eu1304 C1313 2.828 . S
Eu1304 O1315 2.392 . S
Eu1304 O1317 2.418 . S
Eu1304 O1322 2.373 . S
Eu1304 O1325 2.488 . S
Eu1304 O1326 2.471 . S
Eu1304 O1327 2.349 . S
Eu1305 O1314 2.373 . S
Eu1305 O1318 2.488 . S
Eu1305 O1319 2.471 . S
Eu1305 O1320 2.349 . S
Eu1305 O1323 2.392 . S
Eu1305 O1324 2.418 . S
Eu1305 C1334 2.828 . S
C1306 O1324 1.244 . S
C1306 O1327 1.265 . S
C1307 C1308 1.379 . S
C1307 C1311 1.373 . S
C1307 C1313 1.505 . S
C1308 C1307 1.379 . S
C1308 C1310 1.369 . S
C1308 H1336 0.930 . S
C1309 C1311 1.383 . S
C1309 C1312 1.382 . S
C1309 H1337 0.930 . S
C1310 C1308 1.369 . S
C1310 C1312 1.392 . S
C1310 H1338 0.930 . S
C1311 C1307 1.373 . S
C1311 C1309 1.383 . S
C1311 H1339 0.931 . S
C1312 C1309 1.382 . S
C1312 C1310 1.392 . S
C1313 Eu1304 2.828 . S
C1313 C1307 1.505 . S
C1313 O1325 1.249 . S
C1313 O1326 1.244 . S
O1314 Eu1305 2.373 . S
O1314 C1316 1.258 . S
O1315 Eu1304 2.392 . S
O1315 C1316 1.242 . S
C1316 O1314 1.258 . S
C1316 O1315 1.242 . S
O1317 Eu1304 2.418 . S
O1317 C1321 1.244 . S
O1318 Eu1305 2.488 . S
O1318 C1334 1.249 . S
O1319 Eu1305 2.471 . S
O1319 C1334 1.244 . S
O1320 Eu1305 2.349 . S
O1320 C1321 1.265 . S
C1321 O1317 1.244 . S
C1321 O1320 1.265 . S
O1322 Eu1304 2.373 . S
O1322 C1335 1.258 . S
O1323 Eu1305 2.392 . S
O1323 C1335 1.242 . S
O1324 Eu1305 2.418 . S
O1324 C1306 1.244 . S
O1325 Eu1304 2.488 . S
O1325 C1313 1.249 . S
O1326 Eu1304 2.471 . S
O1326 C1313 1.244 . S
O1327 Eu1304 2.349 . S
O1327 C1306 1.265 . S
C1328 C1329 1.379 . S
C1328 C1332 1.373 . S
C1328 C1334 1.505 . S
C1329 C1328 1.379 . S
C1329 C1331 1.369 . S
C1329 H1340 0.930 . S
C1330 C1332 1.383 . S
C1330 C1333 1.382 . S
C1330 H1341 0.930 . S
C1331 C1329 1.369 . S
C1331 C1333 1.392 . S
C1331 H1342 0.930 . S
C1332 C1328 1.373 . S
C1332 C1330 1.383 . S
C1332 H1343 0.931 . S
C1333 C1330 1.382 . S
C1333 C1331 1.392 . S
C1334 Eu1305 2.828 . S
C1334 O1318 1.249 . S
C1334 O1319 1.244 . S
C1334 C1328 1.505 . S
C1335 O1322 1.258 . S
C1335 O1323 1.242 . S
H1336 C1308 0.930 . S
H1337 C1309 0.930 . S
H1338 C1310 0.930 . S
H1339 C1311 0.931 . S
H1340 C1329 0.930 . S
H1341 C1330 0.930 . S
H1342 C1331 0.930 . S
H1343 C1332 0.931 . S
Eu1344 C1353 2.828 . S
Eu1344 O1355 2.392 . S
Eu1344 O1357 2.418 . S
Eu1344 O1362 2.373 . S
Eu1344 O1365 2.488 . S
Eu1344 O1366 2.471 . S
Eu1344 O1367 2.349 . S
Eu1345 O1354 2.373 . S
Eu1345 O1358 2.488 . S
Eu1345 O1359 2.471 . S
Eu1345 O1360 2.349 . S
Eu1345 O1363 2.392 . S
Eu1345 O1364 2.418 . S
Eu1345 C1374 2.828 . S
C1346 O1364 1.244 . S
C1346 O1367 1.265 . S
C1347 C1348 1.379 . S
C1347 C1351 1.373 . S
C1347 C1353 1.505 . S
C1348 C1347 1.379 . S
C1348 C1350 1.369 . S
C1348 H1376 0.930 . S
C1349 C1351 1.383 . S
C1349 C1352 1.382 . S
C1349 H1377 0.930 . S
C1350 C1348 1.369 . S
C1350 C1352 1.392 . S
C1350 H1378 0.930 . S
C1351 C1347 1.373 . S
C1351 C1349 1.383 . S
C1351 H1379 0.931 . S
C1352 C1349 1.382 . S
C1352 C1350 1.392 . S
C1353 Eu1344 2.828 . S
C1353 C1347 1.505 . S
C1353 O1365 1.249 . S
C1353 O1366 1.244 . S
O1354 Eu1345 2.373 . S
O1354 C1356 1.258 . S
O1355 Eu1344 2.392 . S
O1355 C1356 1.242 . S
C1356 O1354 1.258 . S
C1356 O1355 1.242 . S
O1357 Eu1344 2.418 . S
O1357 C1361 1.244 . S
O1358 Eu1345 2.488 . S
O1358 C1374 1.249 . S
O1359 Eu1345 2.471 . S
O1359 C1374 1.244 . S
O1360 Eu1345 2.349 . S
O1360 C1361 1.265 . S
C1361 O1357 1.244 . S
C1361 O1360 1.265 . S
O1362 Eu1344 2.373 . S
O1362 C1375 1.258 . S
O1363 Eu1345 2.392 . S
O1363 C1375 1.242 . S
O1364 Eu1345 2.418 . S
O1364 C1346 1.244 . S
O1365 Eu1344 2.488 . S
O1365 C1353 1.249 . S
O1366 Eu1344 2.471 . S
O1366 C1353 1.244 . S
O1367 Eu1344 2.349 . S
O1367 C1346 1.265 . S
C1368 C1369 1.379 . S
C1368 C1372 1.373 . S
C1368 C1374 1.505 . S
C1369 C1368 1.379 . S
C1369 C1371 1.369 . S
C1369 H1380 0.930 . S
C1370 C1372 1.383 . S
C1370 C1373 1.382 . S
C1370 H1381 0.930 . S
C1371 C1369 1.369 . S
C1371 C1373 1.392 . S
C1371 H1382 0.930 . S
C1372 C1368 1.373 . S
C1372 C1370 1.383 . S
C1372 H1383 0.931 . S
C1373 C1370 1.382 . S
C1373 C1371 1.392 . S
C1374 Eu1345 2.828 . S
C1374 O1358 1.249 . S
C1374 O1359 1.244 . S
C1374 C1368 1.505 . S
C1375 O1362 1.258 . S
C1375 O1363 1.242 . S
H1376 C1348 0.930 . S
H1377 C1349 0.930 . S
H1378 C1350 0.930 . S
H1379 C1351 0.931 . S
H1380 C1369 0.930 . S
H1381 C1370 0.930 . S
H1382 C1371 0.930 . S
H1383 C1372 0.931 . S
Eu1384 C1393 2.828 . S
Eu1384 O1395 2.392 . S
Eu1384 O1397 2.418 . S
Eu1384 O1402 2.373 . S
Eu1384 O1405 2.488 . S
Eu1384 O1406 2.471 . S
Eu1384 O1407 2.349 . S
Eu1385 O1394 2.373 . S
Eu1385 O1398 2.488 . S
Eu1385 O1399 2.471 . S
Eu1385 O1400 2.349 . S
Eu1385 O1403 2.392 . S
Eu1385 O1404 2.418 . S
Eu1385 C1414 2.828 . S
C1386 O1404 1.244 . S
C1386 O1407 1.265 . S
C1387 C1388 1.379 . S
C1387 C1391 1.373 . S
C1387 C1393 1.505 . S
C1388 C1387 1.379 . S
C1388 C1390 1.369 . S
C1388 H1416 0.930 . S
C1389 C1391 1.383 . S
C1389 C1392 1.382 . S
C1389 H1417 0.930 . S
C1390 C1388 1.369 . S
C1390 C1392 1.392 . S
C1390 H1418 0.930 . S
C1391 C1387 1.373 . S
C1391 C1389 1.383 . S
C1391 H1419 0.931 . S
C1392 C1389 1.382 . S
C1392 C1390 1.392 . S
C1393 Eu1384 2.828 . S
C1393 C1387 1.505 . S
C1393 O1405 1.249 . S
C1393 O1406 1.244 . S
O1394 Eu1385 2.373 . S
O1394 C1396 1.258 . S
O1395 Eu1384 2.392 . S
O1395 C1396 1.242 . S
C1396 O1394 1.258 . S
C1396 O1395 1.242 . S
O1397 Eu1384 2.418 . S
O1397 C1401 1.244 . S
O1398 Eu1385 2.488 . S
O1398 C1414 1.249 . S
O1399 Eu1385 2.471 . S
O1399 C1414 1.244 . S
O1400 Eu1385 2.349 . S
O1400 C1401 1.265 . S
C1401 O1397 1.244 . S
C1401 O1400 1.265 . S
O1402 Eu1384 2.373 . S
O1402 C1415 1.258 . S
O1403 Eu1385 2.392 . S
O1403 C1415 1.242 . S
O1404 Eu1385 2.418 . S
O1404 C1386 1.244 . S
O1405 Eu1384 2.488 . S
O1405 C1393 1.249 . S
O1406 Eu1384 2.471 . S
O1406 C1393 1.244 . S
O1407 Eu1384 2.349 . S
O1407 C1386 1.265 . S
C1408 C1409 1.379 . S
C1408 C1412 1.373 . S
C1408 C1414 1.505 . S
C1409 C1408 1.379 . S
C1409 C1411 1.369 . S
C1409 H1420 0.930 . S
C1410 C1412 1.383 . S
C1410 C1413 1.382 . S
C1410 H1421 0.930 . S
C1411 C1409 1.369 . S
C1411 C1413 1.392 . S
C1411 H1422 0.930 . S
C1412 C1408 1.373 . S
C1412 C1410 1.383 . S
C1412 H1423 0.931 . S
C1413 C1410 1.382 . S
C1413 C1411 1.392 . S
C1414 Eu1385 2.828 . S
C1414 O1398 1.249 . S
C1414 O1399 1.244 . S
C1414 C1408 1.505 . S
C1415 O1402 1.258 . S
C1415 O1403 1.242 . S
H1416 C1388 0.930 . S
H1417 C1389 0.930 . S
H1418 C1390 0.930 . S
H1419 C1391 0.931 . S
H1420 C1409 0.930 . S
H1421 C1410 0.930 . S
H1422 C1411 0.930 . S
H1423 C1412 0.931 . S
Eu1424 C1433 2.828 . S
Eu1424 O1435 2.392 . S
Eu1424 O1437 2.418 . S
Eu1424 O1442 2.373 . S
Eu1424 O1445 2.488 . S
Eu1424 O1446 2.471 . S
Eu1424 O1447 2.349 . S
Eu1425 O1434 2.373 . S
Eu1425 O1438 2.488 . S
Eu1425 O1439 2.471 . S
Eu1425 O1440 2.349 . S
Eu1425 O1443 2.392 . S
Eu1425 O1444 2.418 . S
Eu1425 C1454 2.828 . S
C1426 O1444 1.244 . S
C1426 O1447 1.265 . S
C1427 C1428 1.379 . S
C1427 C1431 1.373 . S
C1427 C1433 1.505 . S
C1428 C1427 1.379 . S
C1428 C1430 1.369 . S
C1428 H1456 0.930 . S
C1429 C1431 1.383 . S
C1429 C1432 1.382 . S
C1429 H1457 0.930 . S
C1430 C1428 1.369 . S
C1430 C1432 1.392 . S
C1430 H1458 0.930 . S
C1431 C1427 1.373 . S
C1431 C1429 1.383 . S
C1431 H1459 0.931 . S
C1432 C1429 1.382 . S
C1432 C1430 1.392 . S
C1433 Eu1424 2.828 . S
C1433 C1427 1.505 . S
C1433 O1445 1.249 . S
C1433 O1446 1.244 . S
O1434 Eu1425 2.373 . S
O1434 C1436 1.258 . S
O1435 Eu1424 2.392 . S
O1435 C1436 1.242 . S
C1436 O1434 1.258 . S
C1436 O1435 1.242 . S
O1437 Eu1424 2.418 . S
O1437 C1441 1.244 . S
O1438 Eu1425 2.488 . S
O1438 C1454 1.249 . S
O1439 Eu1425 2.471 . S
O1439 C1454 1.244 . S
O1440 Eu1425 2.349 . S
O1440 C1441 1.265 . S
C1441 O1437 1.244 . S
C1441 O1440 1.265 . S
O1442 Eu1424 2.373 . S
O1442 C1455 1.258 . S
O1443 Eu1425 2.392 . S
O1443 C1455 1.242 . S
O1444 Eu1425 2.418 . S
O1444 C1426 1.244 . S
O1445 Eu1424 2.488 . S
O1445 C1433 1.249 . S
O1446 Eu1424 2.471 . S
O1446 C1433 1.244 . S
O1447 Eu1424 2.349 . S
O1447 C1426 1.265 . S
C1448 C1449 1.379 . S
C1448 C1452 1.373 . S
C1448 C1454 1.505 . S
C1449 C1448 1.379 . S
C1449 C1451 1.369 . S
C1449 H1460 0.930 . S
C1450 C1452 1.383 . S
C1450 C1453 1.382 . S
C1450 H1461 0.930 . S
C1451 C1449 1.369 . S
C1451 C1453 1.392 . S
C1451 H1462 0.930 . S
C1452 C1448 1.373 . S
C1452 C1450 1.383 . S
C1452 H1463 0.931 . S
C1453 C1450 1.382 . S
C1453 C1451 1.392 . S
C1454 Eu1425 2.828 . S
C1454 O1438 1.249 . S
C1454 O1439 1.244 . S
C1454 C1448 1.505 . S
C1455 O1442 1.258 . S
C1455 O1443 1.242 . S
H1456 C1428 0.930 . S
H1457 C1429 0.930 . S
H1458 C1430 0.930 . S
H1459 C1431 0.931 . S
H1460 C1449 0.930 . S
H1461 C1450 0.930 . S
H1462 C1451 0.930 . S
H1463 C1452 0.931 . S
Eu1464 C1473 2.828 1_554 S
Eu1464 O1475 2.392 . S
Eu1464 O1477 2.418 1_554 S
Eu1464 O1482 2.373 1_554 S
Eu1464 O1485 2.488 1_554 S
Eu1464 O1486 2.471 . S
Eu1464 O1487 2.349 . S
Eu1465 O1474 2.373 . S
Eu1465 O1478 2.504 . S
Eu1465 O1479 2.471 1_455 S
Eu1465 O1480 2.349 1_554 S
Eu1465 O1483 2.392 . S
Eu1465 O1484 2.418 . S
Eu1465 C1494 2.828 1_455 S
C1466 O1484 1.244 . S
C1466 O1487 1.265 . S
C1467 C1468 1.379 1_556 S
C1467 C1471 1.373 . S
C1467 C1473 1.505 . S
C1468 C1467 1.379 1_554 S
C1468 C1470 1.369 . S
C1468 H1496 0.930 . S
C1469 C1471 1.383 . S
C1469 C1472 1.382 . S
C1469 H1497 0.930 . S
C1470 C1468 1.369 . S
C1470 C1472 1.392 1_554 S
C1470 H1498 0.930 . S
C1471 C1467 1.373 . S
C1471 C1469 1.383 . S
C1471 H1499 0.931 . S
C1472 C1469 1.382 . S
C1472 C1470 1.392 1_556 S
C1473 Eu1464 2.828 1_556 S
C1473 C1467 1.505 . S
C1473 O1485 1.249 . S
C1473 O1486 1.244 1_556 S
O1474 Eu1465 2.373 . S
O1474 C1476 1.258 . S
O1475 Eu1464 2.392 . S
O1475 C1476 1.242 . S
C1476 O1474 1.258 . S
C1476 O1475 1.242 . S
O1477 Eu1464 2.418 1_556 S
O1477 C1481 1.244 . S
O1478 Eu1465 2.504 . S
O1478 C1494 1.241 1_455 S
O1479 Eu1465 2.471 1_655 S
O1479 C1494 1.244 . S
O1480 Eu1465 2.349 1_556 S
O1480 C1481 1.265 . S
C1481 O1477 1.244 . S
C1481 O1480 1.265 . S
O1482 Eu1464 2.373 1_556 S
O1482 C1495 1.258 1_556 S
O1483 Eu1465 2.392 . S
O1483 C1495 1.242 . S
O1484 Eu1465 2.418 . S
O1484 C1466 1.244 . S
O1485 Eu1464 2.488 1_556 S
O1485 C1473 1.249 . S
O1486 Eu1464 2.471 . S
O1486 C1473 1.244 1_554 S
O1487 Eu1464 2.349 . S
O1487 C1466 1.265 . S
C1488 C1489 1.379 . S
C1488 C1492 1.373 . S
C1488 C1494 1.505 . S
C1489 C1488 1.379 . S
C1489 C1491 1.369 . S
C1489 H1500 0.930 . S
C1490 C1492 1.383 . S
C1490 C1493 1.382 . S
C1490 H1501 0.930 . S
C1491 C1489 1.369 . S
C1491 C1493 1.392 . S
C1491 H1502 0.930 . S
C1492 C1488 1.373 . S
C1492 C1490 1.383 . S
C1492 H1503 0.931 . S
C1493 C1490 1.382 . S
C1493 C1491 1.392 . S
C1494 Eu1465 2.828 1_655 S
C1494 O1478 1.241 1_655 S
C1494 O1479 1.244 . S
C1494 C1488 1.505 . S
C1495 O1482 1.258 1_554 S
C1495 O1483 1.242 . S
H1496 C1468 0.930 . S
H1497 C1469 0.930 . S
H1498 C1470 0.930 . S
H1499 C1471 0.931 . S
H1500 C1489 0.930 . S
H1501 C1490 0.930 . S
H1502 C1491 0.930 . S
H1503 C1492 0.931 . S
C1504 C1505 1.387 . S
C1504 H1508 0.950 1_455 S
C1504 C1513 1.390 . S
C1505 C1504 1.387 . S
C1505 C1507 1.387 . S
H1506 C1513 0.950 . S
C1507 C1505 1.387 . S
C1507 C1509 1.390 . S
C1507 H1511 0.950 . S
H1508 C1504 0.950 1_655 S
C1509 C1507 1.390 . S
C1509 C1510 1.387 . S
C1509 H1512 0.950 1_556 S
C1510 C1509 1.387 . S
C1510 C1513 1.387 . S
H1511 C1507 0.950 . S
H1512 C1509 0.950 1_554 S
C1513 C1504 1.390 . S
C1513 H1506 0.950 . S
C1513 C1510 1.387 . S
C1514 C1515 1.387 . S
C1514 H1518 0.950 . S
C1514 C1523 1.390 . S
C1515 C1514 1.387 . S
C1515 C1517 1.387 . S
H1516 C1523 0.950 . S
C1517 C1515 1.387 . S
C1517 C1519 1.390 . S
C1517 H1521 0.950 . S
H1518 C1514 0.950 . S
C1519 C1517 1.390 . S
C1519 C1520 1.387 . S
C1519 H1522 0.950 . S
C1520 C1519 1.387 . S
C1520 C1523 1.387 . S
H1521 C1517 0.950 . S
H1522 C1519 0.950 . S
C1523 C1514 1.390 . S
C1523 H1516 0.950 . S
C1523 C1520 1.387 . S
C1524 C1525 1.387 . S
C1524 H1528 0.950 . S
C1524 C1533 1.390 . S
C1525 C1524 1.387 . S
C1525 C1527 1.387 . S
H1526 C1533 0.950 . S
C1527 C1525 1.387 . S
C1527 C1529 1.390 . S
C1527 H1531 0.950 . S
H1528 C1524 0.950 . S
C1529 C1527 1.390 . S
C1529 C1530 1.387 . S
C1529 H1532 0.950 . S
C1530 C1529 1.387 . S
C1530 C1533 1.387 . S
H1531 C1527 0.950 . S
H1532 C1529 0.950 . S
C1533 C1524 1.390 . S
C1533 H1526 0.950 . S
C1533 C1530 1.387 . S
C1534 C1535 1.387 . S
C1534 H1538 0.950 . S
C1534 C1543 1.390 . S
C1535 C1534 1.387 . S
C1535 C1537 1.387 . S
H1536 C1543 0.950 . S
C1537 C1535 1.387 . S
C1537 C1539 1.390 . S
C1537 H1541 0.950 . S
H1538 C1534 0.950 . S
C1539 C1537 1.390 . S
C1539 C1540 1.387 . S
C1539 H1542 0.950 . S
C1540 C1539 1.387 . S
C1540 C1543 1.387 . S
H1541 C1537 0.950 . S
H1542 C1539 0.950 . S
C1543 C1534 1.390 . S
C1543 H1536 0.950 . S
C1543 C1540 1.387 . S
C1544 C1545 1.387 . S
C1544 H1548 0.950 . S
C1544 C1553 1.390 . S
C1545 C1544 1.387 . S
C1545 C1547 1.387 . S
H1546 C1553 0.950 . S
C1547 C1545 1.387 . S
C1547 C1549 1.390 . S
C1547 H1551 0.950 . S
H1548 C1544 0.950 . S
C1549 C1547 1.390 . S
C1549 C1550 1.387 . S
C1549 H1552 0.950 . S
C1550 C1549 1.387 . S
C1550 C1553 1.387 . S
H1551 C1547 0.950 . S
H1552 C1549 0.950 . S
C1553 C1544 1.390 . S
C1553 H1546 0.950 . S
C1553 C1550 1.387 . S
C1554 C1555 1.387 . S
C1554 H1558 0.950 . S
C1554 C1563 1.390 . S
C1555 C1554 1.387 . S
C1555 C1557 1.387 . S
H1556 C1563 0.950 . S
C1557 C1555 1.387 . S
C1557 C1559 1.390 . S
C1557 H1561 0.950 . S
H1558 C1554 0.950 . S
C1559 C1557 1.390 . S
C1559 C1560 1.387 . S
C1559 H1562 0.950 . S
C1560 C1559 1.387 . S
C1560 C1563 1.387 . S
H1561 C1557 0.950 . S
H1562 C1559 0.950 . S
C1563 C1554 1.390 . S
C1563 H1556 0.950 . S
C1563 C1560 1.387 . S
C1564 C1565 1.387 . S
C1564 H1568 0.950 . S
C1564 C1573 1.390 . S
C1565 C1564 1.387 . S
C1565 C1567 1.387 . S
H1566 C1573 0.950 . S
C1567 C1565 1.387 . S
C1567 C1569 1.390 . S
C1567 H1571 0.950 . S
H1568 C1564 0.950 . S
C1569 C1567 1.390 . S
C1569 C1570 1.387 . S
C1569 H1572 0.950 . S
C1570 C1569 1.387 . S
C1570 C1573 1.387 . S
H1571 C1567 0.950 . S
H1572 C1569 0.950 . S
C1573 C1564 1.390 . S
C1573 H1566 0.950 . S
C1573 C1570 1.387 . S
C1574 C1575 1.387 . S
C1574 H1578 0.950 . S
C1574 C1583 1.390 . S
C1575 C1574 1.387 . S
C1575 C1577 1.387 . S
H1576 C1583 0.950 . S
C1577 C1575 1.387 . S
C1577 C1579 1.390 . S
C1577 H1581 0.950 . S
H1578 C1574 0.950 . S
C1579 C1577 1.390 . S
C1579 C1580 1.387 . S
C1579 H1582 0.950 . S
C1580 C1579 1.387 . S
C1580 C1583 1.387 . S
H1581 C1577 0.950 . S
H1582 C1579 0.950 . S
C1583 C1574 1.390 . S
C1583 H1576 0.950 . S
C1583 C1580 1.387 . S
C1584 C1585 1.387 . S
C1584 H1588 0.954 . S
C1584 C1593 1.390 . S
C1585 C1584 1.387 . S
C1585 C1587 1.387 . S
H1586 C1593 0.950 . S
C1587 C1585 1.387 . S
C1587 C1589 1.390 . S
C1587 H1591 0.950 . S
H1588 C1584 0.954 . S
C1589 C1587 1.390 . S
C1589 C1590 1.387 . S
C1589 H1592 0.950 . S
C1590 C1589 1.387 . S
C1590 C1593 1.387 . S
H1591 C1587 0.950 . S
H1592 C1589 0.950 . S
C1593 C1584 1.390 . S
C1593 H1586 0.950 . S
C1593 C1590 1.387 . S
C1594 C1595 1.387 . S
C1594 H1598 0.950 . S
C1594 C1603 1.390 . S
C1595 C1594 1.387 . S
C1595 C1597 1.387 . S
H1596 C1603 0.950 . S
C1597 C1595 1.387 . S
C1597 C1599 1.390 . S
C1597 H1601 0.950 . S
H1598 C1594 0.950 . S
C1599 C1597 1.390 . S
C1599 C1600 1.387 . S
C1599 H1602 0.950 . S
C1600 C1599 1.387 . S
C1600 C1603 1.387 . S
H1601 C1597 0.950 . S
H1602 C1599 0.950 . S
C1603 C1594 1.390 . S
C1603 H1596 0.950 . S
C1603 C1600 1.387 . S
C1604 C1605 1.387 . S
C1604 H1608 0.950 . S
C1604 C1613 1.390 . S
C1605 C1604 1.387 . S
C1605 C1607 1.387 . S
H1606 C1613 0.950 . S
C1607 C1605 1.387 . S
C1607 C1609 1.390 . S
C1607 H1611 0.950 . S
H1608 C1604 0.950 . S
C1609 C1607 1.390 . S
C1609 C1610 1.387 . S
C1609 H1612 0.950 . S
C1610 C1609 1.387 . S
C1610 C1613 1.387 . S
H1611 C1607 0.950 . S
H1612 C1609 0.950 . S
C1613 C1604 1.390 . S
C1613 H1606 0.950 . S
C1613 C1610 1.387 . S
C1614 C1615 1.387 . S
C1614 H1618 0.950 . S
C1614 C1623 1.390 . S
C1615 C1614 1.387 . S
C1615 C1617 1.387 . S
H1616 C1623 0.950 . S
C1617 C1615 1.387 . S
C1617 C1619 1.390 . S
C1617 H1621 0.950 . S
H1618 C1614 0.950 . S
C1619 C1617 1.390 . S
C1619 C1620 1.387 . S
C1619 H1622 0.950 . S
C1620 C1619 1.387 . S
C1620 C1623 1.387 . S
H1621 C1617 0.950 . S
H1622 C1619 0.950 . S
C1623 C1614 1.390 . S
C1623 H1616 0.950 . S
C1623 C1620 1.387 . S
C1624 C1625 1.387 . S
C1624 H1628 0.950 . S
C1624 C1633 1.390 . S
C1625 C1624 1.387 . S
C1625 C1627 1.386 . S
H1626 C1633 0.950 . S
C1627 C1625 1.386 . S
C1627 C1629 1.401 . S
C1627 H1631 0.942 1_455 S
H1628 C1624 0.950 . S
C1629 C1627 1.401 . S
C1629 C1630 1.387 . S
C1629 H1632 0.950 . S
C1630 C1629 1.387 . S
C1630 C1633 1.387 . S
H1631 C1627 0.942 1_655 S
H1632 C1629 0.950 . S
C1633 C1624 1.390 . S
C1633 H1626 0.950 . S
C1633 C1630 1.387 . S
C1634 C1635 1.387 . S
C1634 H1638 0.950 . S
C1634 C1643 1.390 . S
C1635 C1634 1.387 . S
C1635 C1637 1.387 . S
H1636 C1643 0.950 . S
C1637 C1635 1.387 . S
C1637 C1639 1.390 . S
C1637 H1641 0.950 . S
H1638 C1634 0.950 . S
C1639 C1637 1.390 . S
C1639 C1640 1.387 . S
C1639 H1642 0.950 . S
C1640 C1639 1.387 . S
C1640 C1643 1.387 . S
H1641 C1637 0.950 . S
H1642 C1639 0.950 . S
C1643 C1634 1.390 . S
C1643 H1636 0.950 . S
C1643 C1640 1.387 . S
C1644 C1645 1.387 . S
C1644 H1648 0.950 . S
C1644 C1653 1.390 . S
C1645 C1644 1.387 . S
C1645 C1647 1.387 . S
H1646 C1653 0.950 . S
C1647 C1645 1.387 . S
C1647 C1649 1.390 . S
C1647 H1651 0.950 . S
H1648 C1644 0.950 . S
C1649 C1647 1.390 . S
C1649 C1650 1.387 . S
C1649 H1652 0.950 . S
C1650 C1649 1.387 . S
C1650 C1653 1.387 . S
H1651 C1647 0.950 . S
H1652 C1649 0.950 . S
C1653 C1644 1.390 . S
C1653 H1646 0.950 . S
C1653 C1650 1.387 . S
C1654 C1655 1.387 . S
C1654 H1658 0.950 . S
C1654 C1663 1.390 . S
C1655 C1654 1.387 . S
C1655 C1657 1.387 . S
H1656 C1663 0.950 . S
C1657 C1655 1.387 . S
C1657 C1659 1.390 . S
C1657 H1661 0.950 . S
H1658 C1654 0.950 . S
C1659 C1657 1.390 . S
C1659 C1660 1.387 . S
C1659 H1662 0.950 . S
C1660 C1659 1.387 . S
C1660 C1663 1.387 . S
H1661 C1657 0.950 . S
H1662 C1659 0.950 . S
C1663 C1654 1.390 . S
C1663 H1656 0.950 . S
C1663 C1660 1.387 . S
C1664 C1665 1.387 1_556 S
C1664 H1668 0.950 . S
C1664 C1673 1.390 1_556 S
C1665 C1664 1.387 1_554 S
C1665 C1667 1.387 1_565 S
H1666 C1673 0.950 1_556 S
C1667 C1665 1.387 1_545 S
C1667 C1669 1.390 . S
C1667 H1671 0.950 . S
H1668 C1664 0.950 . S
C1669 C1667 1.390 . S
C1669 C1670 1.387 . S
C1669 H1672 0.950 . S
C1670 C1669 1.387 . S
C1670 C1673 1.387 1_545 S
H1671 C1667 0.950 . S
H1672 C1669 0.950 . S
C1673 C1664 1.390 1_554 S
C1673 H1666 0.950 1_554 S
C1673 C1670 1.387 1_565 S
C1674 C1675 1.387 1_556 S
C1674 H1678 0.950 . S
C1674 C1683 1.390 . S
C1675 C1674 1.387 1_554 S
C1675 C1677 1.387 . S
H1676 C1683 0.950 . S
C1677 C1675 1.387 . S
C1677 C1679 1.390 . S
C1677 H1681 0.950 . S
H1678 C1674 0.950 . S
C1679 C1677 1.390 . S
C1679 C1680 1.387 . S
C1679 H1682 0.950 . S
C1680 C1679 1.387 . S
C1680 C1683 1.387 1_554 S
H1681 C1677 0.950 . S
H1682 C1679 0.950 . S
C1683 C1674 1.390 . S
C1683 H1676 0.950 . S
C1683 C1680 1.387 1_556 S
C1684 C1685 1.387 . S
C1684 H1688 0.950 . S
C1684 C1693 1.390 . S
C1685 C1684 1.387 . S
C1685 C1687 1.387 . S
H1686 C1693 0.950 . S
C1687 C1685 1.387 . S
C1687 C1689 1.390 . S
C1687 H1691 0.950 . S
H1688 C1684 0.950 . S
C1689 C1687 1.390 . S
C1689 C1690 1.387 . S
C1689 H1692 0.950 . S
C1690 C1689 1.387 . S
C1690 C1693 1.387 . S
H1691 C1687 0.950 . S
H1692 C1689 0.950 . S
C1693 C1684 1.390 . S
C1693 H1686 0.950 . S
C1693 C1690 1.387 . S
C1694 C1695 1.387 . S
C1694 H1698 0.950 . S
C1694 C1703 1.390 . S
C1695 C1694 1.387 . S
C1695 C1697 1.387 . S
H1696 C1703 0.950 . S
C1697 C1695 1.387 . S
C1697 C1699 1.390 . S
C1697 H1701 0.950 . S
H1698 C1694 0.950 . S
C1699 C1697 1.390 . S
C1699 C1700 1.387 . S
C1699 H1702 0.950 . S
C1700 C1699 1.387 . S
C1700 C1703 1.387 . S
H1701 C1697 0.950 . S
H1702 C1699 0.950 . S
C1703 C1694 1.390 . S
C1703 H1696 0.950 . S
C1703 C1700 1.387 . S
C1704 C1705 1.387 . S
C1704 H1708 0.950 . S
C1704 C1713 1.390 . S
C1705 C1704 1.387 . S
C1705 C1707 1.387 . S
H1706 C1713 0.950 . S
C1707 C1705 1.387 . S
C1707 C1709 1.390 . S
C1707 H1711 0.950 . S
H1708 C1704 0.950 . S
C1709 C1707 1.390 . S
C1709 C1710 1.387 . S
C1709 H1712 0.950 . S
C1710 C1709 1.387 . S
C1710 C1713 1.387 . S
H1711 C1707 0.950 . S
H1712 C1709 0.950 . S
C1713 C1704 1.390 . S
C1713 H1706 0.950 . S
C1713 C1710 1.387 . S
C1714 C1715 1.387 . S
C1714 H1718 0.950 . S
C1714 C1723 1.390 . S
C1715 C1714 1.387 . S
C1715 C1717 1.387 . S
H1716 C1723 0.950 . S
C1717 C1715 1.387 . S
C1717 C1719 1.390 . S
C1717 H1721 0.950 . S
H1718 C1714 0.950 . S
C1719 C1717 1.390 . S
C1719 C1720 1.387 . S
C1719 H1722 0.950 . S
C1720 C1719 1.387 . S
C1720 C1723 1.387 . S
H1721 C1717 0.950 . S
H1722 C1719 0.950 . S
C1723 C1714 1.390 . S
C1723 H1716 0.950 . S
C1723 C1720 1.387 . S
C1724 C1725 1.387 . S
C1724 H1728 0.950 . S
C1724 C1733 1.390 . S
C1725 C1724 1.387 . S
C1725 C1727 1.387 . S
H1726 C1733 0.950 . S
C1727 C1725 1.387 . S
C1727 C1729 1.390 . S
C1727 H1731 0.950 . S
H1728 C1724 0.950 . S
C1729 C1727 1.390 . S
C1729 C1730 1.387 . S
C1729 H1732 0.950 . S
C1730 C1729 1.387 . S
C1730 C1733 1.387 . S
H1731 C1727 0.950 . S
H1732 C1729 0.950 . S
C1733 C1724 1.390 . S
C1733 H1726 0.950 . S
C1733 C1730 1.387 . S
C1734 C1735 1.387 . S
C1734 H1738 0.950 . S
C1734 C1743 1.390 . S
C1735 C1734 1.387 . S
C1735 C1737 1.387 . S
H1736 C1743 0.950 . S
C1737 C1735 1.387 . S
C1737 C1739 1.390 . S
C1737 H1741 0.950 . S
H1738 C1734 0.950 . S
C1739 C1737 1.390 . S
C1739 C1740 1.387 . S
C1739 H1742 0.950 . S
C1740 C1739 1.387 . S
C1740 C1743 1.387 . S
H1741 C1737 0.950 . S
H1742 C1739 0.950 . S
C1743 C1734 1.390 . S
C1743 H1736 0.950 . S
C1743 C1740 1.387 . S
C1744 C1745 1.387 . S
C1744 H1748 0.950 . S
C1744 C1753 1.390 . S
C1745 C1744 1.387 . S
C1745 C1747 1.387 . S
H1746 C1753 0.950 . S
C1747 C1745 1.387 . S
C1747 C1749 1.390 . S
C1747 H1751 0.950 . S
H1748 C1744 0.950 . S
C1749 C1747 1.390 . S
C1749 C1750 1.387 . S
C1749 H1752 0.950 . S
C1750 C1749 1.387 . S
C1750 C1753 1.387 . S
H1751 C1747 0.950 . S
H1752 C1749 0.950 . S
C1753 C1744 1.390 . S
C1753 H1746 0.950 . S
C1753 C1750 1.387 . S
C1754 C1755 1.387 . S
C1754 H1758 0.950 . S
C1754 C1763 1.390 . S
C1755 C1754 1.387 . S
C1755 C1757 1.387 . S
H1756 C1763 0.950 . S
C1757 C1755 1.387 . S
C1757 C1759 1.390 . S
C1757 H1761 0.950 . S
H1758 C1754 0.950 . S
C1759 C1757 1.390 . S
C1759 C1760 1.387 . S
C1759 H1762 0.950 . S
C1760 C1759 1.387 . S
C1760 C1763 1.387 . S
H1761 C1757 0.950 . S
H1762 C1759 0.950 . S
C1763 C1754 1.390 . S
C1763 H1756 0.950 . S
C1763 C1760 1.387 . S
C1764 C1765 1.387 . S
C1764 H1768 0.950 . S
C1764 C1773 1.390 . S
C1765 C1764 1.387 . S
C1765 C1767 1.387 . S
H1766 C1773 0.950 . S
C1767 C1765 1.387 . S
C1767 C1769 1.390 . S
C1767 H1771 0.950 . S
H1768 C1764 0.950 . S
C1769 C1767 1.390 . S
C1769 C1770 1.387 . S
C1769 H1772 0.950 . S
C1770 C1769 1.387 . S
C1770 C1773 1.387 . S
H1771 C1767 0.950 . S
H1772 C1769 0.950 . S
C1773 C1764 1.390 . S
C1773 H1766 0.950 . S
C1773 C1770 1.387 . S
C1774 C1775 1.387 . S
C1774 H1778 0.950 . S
C1774 C1783 1.390 . S
C1775 C1774 1.387 . S
C1775 C1777 1.387 . S
H1776 C1783 0.950 . S
C1777 C1775 1.387 . S
C1777 C1779 1.390 . S
C1777 H1781 0.950 . S
H1778 C1774 0.950 . S
C1779 C1777 1.390 . S
C1779 C1780 1.387 . S
C1779 H1782 0.950 . S
C1780 C1779 1.387 . S
C1780 C1783 1.387 . S
H1781 C1777 0.950 . S
H1782 C1779 0.950 . S
C1783 C1774 1.390 . S
C1783 H1776 0.950 . S
C1783 C1780 1.387 . S
C1784 C1785 1.387 . S
C1784 H1788 0.950 . S
C1784 C1793 1.390 . S
C1785 C1784 1.387 . S
C1785 C1787 1.387 . S
H1786 C1793 0.950 . S
C1787 C1785 1.387 . S
C1787 C1789 1.390 . S
C1787 H1791 0.950 . S
H1788 C1784 0.950 . S
C1789 C1787 1.390 . S
C1789 C1790 1.387 . S
C1789 H1792 0.950 . S
C1790 C1789 1.387 . S
C1790 C1793 1.387 . S
H1791 C1787 0.950 . S
H1792 C1789 0.950 . S
C1793 C1784 1.390 . S
C1793 H1786 0.950 . S
C1793 C1790 1.387 . S
C1794 C1795 1.387 . S
C1794 H1798 0.950 . S
C1794 C1803 1.390 . S
C1795 C1794 1.387 . S
C1795 C1797 1.387 . S
H1796 C1803 0.950 . S
C1797 C1795 1.387 . S
C1797 C1799 1.390 . S
C1797 H1801 0.950 . S
H1798 C1794 0.950 . S
C1799 C1797 1.390 . S
C1799 C1800 1.387 . S
C1799 H1802 0.950 . S
C1800 C1799 1.387 . S
C1800 C1803 1.387 . S
H1801 C1797 0.950 . S
H1802 C1799 0.950 . S
C1803 C1794 1.390 . S
C1803 H1796 0.950 . S
C1803 C1800 1.387 . S
C1804 C1805 1.387 . S
C1804 H1808 0.950 . S
C1804 C1813 1.390 . S
C1805 C1804 1.387 . S
C1805 C1807 1.387 . S
H1806 C1813 0.950 1_554 S
C1807 C1805 1.387 . S
C1807 C1809 1.390 . S
C1807 H1811 0.950 . S
H1808 C1804 0.950 . S
C1809 C1807 1.390 . S
C1809 C1810 1.387 . S
C1809 H1812 0.950 . S
C1810 C1809 1.387 . S
C1810 C1813 1.387 . S
H1811 C1807 0.950 . S
H1812 C1809 0.950 . S
C1813 C1804 1.390 . S
C1813 H1806 0.950 1_556 S
C1813 C1810 1.387 . S
C1814 C1815 1.387 . S
C1814 H1818 0.950 . S
C1814 C1823 1.390 . S
C1815 C1814 1.387 . S
C1815 C1817 1.387 . S
H1816 C1823 0.950 . S
C1817 C1815 1.387 . S
C1817 C1819 1.390 . S
C1817 H1821 0.950 . S
H1818 C1814 0.950 . S
C1819 C1817 1.390 . S
C1819 C1820 1.387 . S
C1819 H1822 0.950 . S
C1820 C1819 1.387 . S
C1820 C1823 1.387 . S
H1821 C1817 0.950 . S
H1822 C1819 0.950 . S
C1823 C1814 1.390 . S
C1823 H1816 0.950 . S
C1823 C1820 1.387 . S
C1824 C1825 1.387 1_565 S
C1824 H1828 0.950 . S
C1824 C1833 1.390 . S
C1825 C1824 1.387 1_545 S
C1825 C1827 1.387 . S
H1826 C1833 0.950 . S
C1827 C1825 1.387 . S
C1827 C1829 1.390 . S
C1827 H1831 0.950 . S
H1828 C1824 0.950 . S
C1829 C1827 1.390 . S
C1829 C1830 1.387 . S
C1829 H1832 0.950 . S
C1830 C1829 1.387 . S
C1830 C1833 1.387 1_545 S
H1831 C1827 0.950 . S
H1832 C1829 0.950 . S
C1833 C1824 1.390 . S
C1833 H1826 0.950 . S
C1833 C1830 1.387 1_565 S
C1834 C1835 1.387 . S
C1834 H1838 0.950 . S
C1834 C1843 1.390 . S
C1835 C1834 1.387 . S
C1835 C1837 1.387 . S
H1836 C1843 0.950 . S
C1837 C1835 1.387 . S
C1837 C1839 1.390 . S
C1837 H1841 0.950 . S
H1838 C1834 0.950 . S
C1839 C1837 1.390 . S
C1839 C1840 1.387 . S
C1839 H1842 0.950 . S
C1840 C1839 1.387 . S
C1840 C1843 1.387 . S
H1841 C1837 0.950 . S
H1842 C1839 0.950 . S
C1843 C1834 1.390 . S
C1843 H1836 0.950 . S
C1843 C1840 1.387 . S
C1844 C1845 1.387 . S
C1844 H1848 0.950 . S
C1844 C1853 1.390 . S
C1845 C1844 1.387 . S
C1845 C1847 1.387 . S
H1846 C1853 0.950 . S
C1847 C1845 1.387 . S
C1847 C1849 1.390 . S
C1847 H1851 0.950 1_545 S
H1848 C1844 0.950 . S
C1849 C1847 1.390 . S
C1849 C1850 1.387 . S
C1849 H1852 0.952 1_545 S
C1850 C1849 1.387 . S
C1850 C1853 1.387 . S
H1851 C1847 0.950 1_565 S
H1852 C1849 0.952 1_565 S
C1853 C1844 1.390 . S
C1853 H1846 0.950 . S
C1853 C1850 1.387 . S
C1854 C1855 1.387 . S
C1854 H1858 0.950 . S
C1854 C1863 1.390 . S
C1855 C1854 1.387 . S
C1855 C1857 1.387 . S
H1856 C1863 0.950 . S
C1857 C1855 1.387 . S
C1857 C1859 1.390 . S
C1857 H1861 0.950 . S
H1858 C1854 0.950 . S
C1859 C1857 1.390 . S
C1859 C1860 1.387 . S
C1859 H1862 0.950 . S
C1860 C1859 1.387 . S
C1860 C1863 1.387 . S
H1861 C1857 0.950 . S
H1862 C1859 0.950 . S
C1863 C1854 1.390 . S
C1863 H1856 0.950 . S
C1863 C1860 1.387 . S
C1864 C1865 1.387 . S
C1864 H1868 0.950 . S
C1864 C1873 1.390 . S
C1865 C1864 1.387 . S
C1865 C1867 1.387 1_545 S
H1866 C1873 0.950 . S
C1867 C1865 1.387 1_565 S
C1867 C1869 1.404 . S
C1867 H1871 0.950 . S
H1868 C1864 0.950 . S
C1869 C1867 1.404 . S
C1869 C1870 1.364 1_565 S
C1869 H1872 0.961 . S
C1870 C1869 1.364 1_545 S
C1870 C1873 1.387 . S
H1871 C1867 0.950 . S
H1872 C1869 0.961 . S
C1873 C1864 1.390 . S
C1873 H1866 0.950 . S
C1873 C1870 1.387 . S
C1874 C1875 1.387 . S
C1874 H1878 0.950 . S
C1874 C1883 1.390 . S
C1875 C1874 1.387 . S
C1875 C1877 1.387 . S
H1876 C1883 0.950 . S
C1877 C1875 1.387 . S
C1877 C1879 1.390 . S
C1877 H1881 0.950 . S
H1878 C1874 0.950 . S
C1879 C1877 1.390 . S
C1879 C1880 1.387 . S
C1879 H1882 0.950 . S
C1880 C1879 1.387 . S
C1880 C1883 1.387 . S
H1881 C1877 0.950 . S
H1882 C1879 0.950 . S
C1883 C1874 1.390 . S
C1883 H1876 0.950 . S
C1883 C1880 1.387 . S
C1884 C1885 1.387 1_545 S
C1884 H1888 0.950 . S
C1884 C1893 1.390 . S
C1885 C1884 1.387 1_565 S
C1885 C1887 1.387 . S
H1886 C1893 0.950 . S
C1887 C1885 1.387 . S
C1887 C1889 1.390 . S
C1887 H1891 0.950 . S
H1888 C1884 0.950 . S
C1889 C1887 1.390 . S
C1889 C1890 1.387 . S
C1889 H1892 0.950 . S
C1890 C1889 1.387 . S
C1890 C1893 1.387 1_565 S
H1891 C1887 0.950 . S
H1892 C1889 0.950 . S
C1893 C1884 1.390 . S
C1893 H1886 0.950 . S
C1893 C1890 1.387 1_545 S
C1894 C1895 1.387 . S
C1894 H1898 0.950 . S
C1894 C1903 1.390 . S
C1895 C1894 1.387 . S
C1895 C1897 1.387 . S
H1896 C1903 0.950 . S
C1897 C1895 1.387 . S
C1897 C1899 1.390 . S
C1897 H1901 0.950 . S
H1898 C1894 0.950 . S
C1899 C1897 1.390 . S
C1899 C1900 1.387 . S
C1899 H1902 0.950 . S
C1900 C1899 1.387 . S
C1900 C1903 1.387 . S
H1901 C1897 0.950 . S
H1902 C1899 0.950 . S
C1903 C1894 1.390 . S
C1903 H1896 0.950 . S
C1903 C1900 1.387 . S
C1904 C1905 1.390 1_556 S
C1904 H1908 0.948 . S
C1904 C1913 1.390 . S
C1905 C1904 1.390 1_554 S
C1905 C1907 1.387 . S
H1906 C1913 0.950 . S
C1907 C1905 1.387 . S
C1907 C1909 1.390 . S
C1907 H1911 0.950 . S
H1908 C1904 0.948 . S
C1909 C1907 1.390 . S
C1909 C1910 1.387 . S
C1909 H1912 0.950 . S
C1910 C1909 1.387 . S
C1910 C1913 1.387 1_554 S
H1911 C1907 0.950 . S
H1912 C1909 0.950 . S
C1913 C1904 1.390 . S
C1913 H1906 0.950 . S
C1913 C1910 1.387 1_556 S
C1914 C1915 1.387 . S
C1914 H1918 0.950 . S
C1914 C1923 1.390 . S
C1915 C1914 1.387 . S
C1915 C1917 1.387 . S
H1916 C1923 0.950 . S
C1917 C1915 1.387 . S
C1917 C1919 1.390 . S
C1917 H1921 0.950 1_554 S
H1918 C1914 0.950 . S
C1919 C1917 1.390 . S
C1919 C1920 1.387 . S
C1919 H1922 0.950 1_554 S
C1920 C1919 1.387 . S
C1920 C1923 1.387 . S
H1921 C1917 0.950 1_556 S
H1922 C1919 0.950 1_556 S
C1923 C1914 1.390 . S
C1923 H1916 0.950 . S
C1923 C1920 1.387 . S
C1924 C1925 1.387 . S
C1924 H1928 0.950 . S
C1924 C1933 1.390 . S
C1925 C1924 1.387 . S
C1925 C1927 1.387 . S
H1926 C1933 0.950 . S
C1927 C1925 1.387 . S
C1927 C1929 1.390 . S
C1927 H1931 0.950 . S
H1928 C1924 0.950 . S
C1929 C1927 1.390 . S
C1929 C1930 1.387 . S
C1929 H1932 0.950 . S
C1930 C1929 1.387 . S
C1930 C1933 1.387 . S
H1931 C1927 0.950 . S
H1932 C1929 0.950 . S
C1933 C1924 1.390 . S
C1933 H1926 0.950 . S
C1933 C1930 1.387 . S
C1934 C1935 1.387 . S
C1934 H1938 0.950 . S
C1934 C1943 1.390 . S
C1935 C1934 1.387 . S
C1935 C1937 1.387 . S
H1936 C1943 0.950 . S
C1937 C1935 1.387 . S
C1937 C1939 1.390 . S
C1937 H1941 0.950 . S
H1938 C1934 0.950 . S
C1939 C1937 1.390 . S
C1939 C1940 1.387 . S
C1939 H1942 0.950 . S
C1940 C1939 1.387 . S
C1940 C1943 1.387 . S
H1941 C1937 0.950 . S
H1942 C1939 0.950 . S
C1943 C1934 1.390 . S
C1943 H1936 0.950 . S
C1943 C1940 1.387 . S
C1944 C1945 1.387 . S
C1944 H1948 0.950 . S
C1944 C1953 1.390 . S
C1945 C1944 1.387 . S
C1945 C1947 1.387 1_545 S
H1946 C1953 0.950 . S
C1947 C1945 1.387 1_565 S
C1947 C1949 1.390 . S
C1947 H1951 0.950 . S
H1948 C1944 0.950 . S
C1949 C1947 1.390 . S
C1949 C1950 1.387 . S
C1949 H1952 0.950 . S
C1950 C1949 1.387 . S
C1950 C1953 1.387 1_565 S
H1951 C1947 0.950 . S
H1952 C1949 0.950 . S
C1953 C1944 1.390 . S
C1953 H1946 0.950 . S
C1953 C1950 1.387 1_545 S
C1954 C1955 1.387 . S
C1954 H1958 0.950 . S
C1954 C1963 1.390 . S
C1955 C1954 1.387 . S
C1955 C1957 1.387 . S
H1956 C1963 0.950 . S
C1957 C1955 1.387 . S
C1957 C1959 1.390 . S
C1957 H1961 0.950 . S
H1958 C1954 0.950 . S
C1959 C1957 1.390 . S
C1959 C1960 1.387 . S
C1959 H1962 0.950 . S
C1960 C1959 1.387 . S
C1960 C1963 1.387 . S
H1961 C1957 0.950 . S
H1962 C1959 0.950 . S
C1963 C1954 1.390 . S
C1963 H1956 0.950 . S
C1963 C1960 1.387 . S
C1964 C1965 1.387 . S
C1964 H1968 0.950 . S
C1964 C1973 1.390 . S
C1965 C1964 1.387 . S
C1965 C1967 1.387 . S
H1966 C1973 0.950 . S
C1967 C1965 1.387 . S
C1967 C1969 1.390 . S
C1967 H1971 0.950 . S
H1968 C1964 0.950 . S
C1969 C1967 1.390 . S
C1969 C1970 1.387 . S
C1969 H1972 0.950 . S
C1970 C1969 1.387 . S
C1970 C1973 1.387 . S
H1971 C1967 0.950 . S
H1972 C1969 0.950 . S
C1973 C1964 1.390 . S
C1973 H1966 0.950 . S
C1973 C1970 1.387 . S
C1974 C1975 1.387 . S
C1974 H1978 0.950 . S
C1974 C1983 1.390 . S
C1975 C1974 1.387 . S
C1975 C1977 1.387 . S
H1976 C1983 0.950 . S
C1977 C1975 1.387 . S
C1977 C1979 1.390 . S
C1977 H1981 0.950 . S
H1978 C1974 0.950 . S
C1979 C1977 1.390 . S
C1979 C1980 1.387 . S
C1979 H1982 0.950 . S
C1980 C1979 1.387 . S
C1980 C1983 1.387 . S
H1981 C1977 0.950 . S
H1982 C1979 0.950 . S
C1983 C1974 1.390 . S
C1983 H1976 0.950 . S
C1983 C1980 1.387 . S
C1984 C1985 1.387 . S
C1984 H1988 0.950 . S
C1984 C1993 1.390 . S
C1985 C1984 1.387 . S
C1985 C1987 1.387 . S
H1986 C1993 0.950 . S
C1987 C1985 1.387 . S
C1987 C1989 1.390 . S
C1987 H1991 0.950 . S
H1988 C1984 0.950 . S
C1989 C1987 1.390 . S
C1989 C1990 1.387 . S
C1989 H1992 0.950 . S
C1990 C1989 1.387 . S
C1990 C1993 1.387 . S
H1991 C1987 0.950 . S
H1992 C1989 0.950 . S
C1993 C1984 1.390 . S
C1993 H1986 0.950 . S
C1993 C1990 1.387 . S
C1994 C1995 1.387 . S
C1994 H1998 0.950 . S
C1994 C2003 1.390 . S
C1995 C1994 1.387 . S
C1995 C1997 1.387 . S
H1996 C2003 0.950 . S
C1997 C1995 1.387 . S
C1997 C1999 1.390 . S
C1997 H2001 0.950 . S
H1998 C1994 0.950 . S
C1999 C1997 1.390 . S
C1999 C2000 1.387 . S
C1999 H2002 0.950 . S
C2000 C1999 1.387 . S
C2000 C2003 1.387 . S
H2001 C1997 0.950 . S
H2002 C1999 0.950 . S
C2003 C1994 1.390 . S
C2003 H1996 0.950 . S
C2003 C2000 1.387 . S
C2004 C2005 1.387 . S
C2004 H2008 0.950 . S
C2004 C2013 1.390 1_556 S
C2005 C2004 1.387 . S
C2005 C2007 1.387 . S
H2006 C2013 0.950 . S
C2007 C2005 1.387 . S
C2007 C2009 1.390 . S
C2007 H2011 0.950 . S
H2008 C2004 0.950 . S
C2009 C2007 1.390 . S
C2009 C2010 1.387 . S
C2009 H2012 0.950 . S
C2010 C2009 1.387 . S
C2010 C2013 1.387 1_556 S
H2011 C2007 0.950 . S
H2012 C2009 0.950 . S
C2013 C2004 1.390 1_554 S
C2013 H2006 0.950 . S
C2013 C2010 1.387 1_554 S
C2014 C2015 1.387 . S
C2014 H2018 0.950 . S
C2014 C2023 1.390 1_455 S
C2015 C2014 1.387 . S
C2015 C2017 1.387 . S
H2016 C2023 0.950 . S
C2017 C2015 1.387 . S
C2017 C2019 1.390 1_455 S
C2017 H2021 0.950 . S
H2018 C2014 0.950 . S
C2019 C2017 1.390 1_655 S
C2019 C2020 1.387 . S
C2019 H2022 0.950 . S
C2020 C2019 1.387 . S
C2020 C2023 1.387 . S
H2021 C2017 0.950 . S
H2022 C2019 0.950 . S
C2023 C2014 1.390 1_655 S
C2023 H2016 0.950 . S
C2023 C2020 1.387 . S
C2024 C2025 1.387 . S
C2024 H2028 0.950 . S
C2024 C2033 1.390 . S
C2025 C2024 1.387 . S
C2025 C2027 1.387 . S
H2026 C2033 0.950 . S
C2027 C2025 1.387 . S
C2027 C2029 1.390 . S
C2027 H2031 0.950 . S
H2028 C2024 0.950 . S
C2029 C2027 1.390 . S
C2029 C2030 1.387 . S
C2029 H2032 0.950 . S
C2030 C2029 1.387 . S
C2030 C2033 1.387 . S
H2031 C2027 0.950 . S
H2032 C2029 0.950 . S
C2033 C2024 1.390 . S
C2033 H2026 0.950 . S
C2033 C2030 1.387 . S
C2034 C2035 1.387 . S
C2034 H2038 0.950 . S
C2034 C2043 1.390 . S
C2035 C2034 1.387 . S
C2035 C2037 1.387 . S
H2036 C2043 0.950 . S
C2037 C2035 1.387 . S
C2037 C2039 1.390 . S
C2037 H2041 0.950 . S
H2038 C2034 0.950 . S
C2039 C2037 1.390 . S
C2039 C2040 1.387 . S
C2039 H2042 0.950 . S
C2040 C2039 1.387 . S
C2040 C2043 1.387 . S
H2041 C2037 0.950 . S
H2042 C2039 0.950 . S
C2043 C2034 1.390 . S
C2043 H2036 0.950 . S
C2043 C2040 1.387 . S
C2044 C2045 1.387 . S
C2044 H2048 0.950 . S
C2044 C2053 1.390 . S
C2045 C2044 1.387 . S
C2045 C2047 1.387 . S
H2046 C2053 0.950 . S
C2047 C2045 1.387 . S
C2047 C2049 1.390 . S
C2047 H2051 0.950 . S
H2048 C2044 0.950 . S
C2049 C2047 1.390 . S
C2049 C2050 1.387 . S
C2049 H2052 0.950 . S
C2050 C2049 1.387 . S
C2050 C2053 1.387 . S
H2051 C2047 0.950 . S
H2052 C2049 0.950 . S
C2053 C2044 1.390 . S
C2053 H2046 0.950 . S
C2053 C2050 1.387 . S
C2054 C2055 1.387 . S
C2054 H2058 0.950 . S
C2054 C2063 1.390 . S
C2055 C2054 1.387 . S
C2055 C2057 1.387 . S
H2056 C2063 0.950 . S
C2057 C2055 1.387 . S
C2057 C2059 1.390 . S
C2057 H2061 0.950 . S
H2058 C2054 0.950 . S
C2059 C2057 1.390 . S
C2059 C2060 1.387 . S
C2059 H2062 0.950 . S
C2060 C2059 1.387 . S
C2060 C2063 1.387 . S
H2061 C2057 0.950 . S
H2062 C2059 0.950 . S
C2063 C2054 1.390 . S
C2063 H2056 0.950 . S
C2063 C2060 1.387 . S
C2064 C2065 1.387 . S
C2064 H2068 0.950 . S
C2064 C2073 1.390 . S
C2065 C2064 1.387 . S
C2065 C2067 1.387 . S
H2066 C2073 0.950 . S
C2067 C2065 1.387 . S
C2067 C2069 1.390 . S
C2067 H2071 0.950 . S
H2068 C2064 0.950 . S
C2069 C2067 1.390 . S
C2069 C2070 1.387 . S
C2069 H2072 0.950 . S
C2070 C2069 1.387 . S
C2070 C2073 1.387 . S
H2071 C2067 0.950 . S
H2072 C2069 0.950 . S
C2073 C2064 1.390 . S
C2073 H2066 0.950 . S
C2073 C2070 1.387 . S
C2074 C2075 1.387 . S
C2074 H2078 0.935 1_556 S
C2074 C2083 1.390 . S
C2075 C2074 1.387 . S
C2075 C2077 1.387 . S
H2076 C2083 0.950 . S
C2077 C2075 1.387 . S
C2077 C2079 1.390 . S
C2077 H2081 0.950 . S
H2078 C2074 0.935 1_554 S
C2079 C2077 1.390 . S
C2079 C2080 1.387 . S
C2079 H2082 0.950 . S
C2080 C2079 1.387 . S
C2080 C2083 1.387 . S
H2081 C2077 0.950 . S
H2082 C2079 0.950 . S
C2083 C2074 1.390 . S
C2083 H2076 0.950 . S
C2083 C2080 1.387 . S
C2084 C2085 1.387 . S
C2084 H2088 0.950 . S
C2084 C2093 1.390 . S
C2085 C2084 1.387 . S
C2085 C2087 1.387 . S
H2086 C2093 0.950 . S
C2087 C2085 1.387 . S
C2087 C2089 1.390 . S
C2087 H2091 0.950 . S
H2088 C2084 0.950 . S
C2089 C2087 1.390 . S
C2089 C2090 1.387 . S
C2089 H2092 0.950 . S
C2090 C2089 1.387 . S
C2090 C2093 1.387 . S
H2091 C2087 0.950 . S
H2092 C2089 0.950 . S
C2093 C2084 1.390 . S
C2093 H2086 0.950 . S
C2093 C2090 1.387 . S
C2094 C2095 1.387 . S
C2094 H2098 0.950 . S
C2094 C2103 1.390 . S
C2095 C2094 1.387 . S
C2095 C2097 1.387 . S
H2096 C2103 0.950 . S
C2097 C2095 1.387 . S
C2097 C2099 1.390 . S
C2097 H2101 0.950 . S
H2098 C2094 0.950 . S
C2099 C2097 1.390 . S
C2099 C2100 1.387 . S
C2099 H2102 0.950 . S
C2100 C2099 1.387 . S
C2100 C2103 1.387 . S
H2101 C2097 0.950 . S
H2102 C2099 0.950 . S
C2103 C2094 1.390 . S
C2103 H2096 0.950 . S
C2103 C2100 1.387 . S
C2104 C2105 1.387 . S
C2104 H2108 0.950 . S
C2104 C2113 1.390 . S
C2105 C2104 1.387 . S
C2105 C2107 1.387 . S
H2106 C2113 0.950 . S
C2107 C2105 1.387 . S
C2107 C2109 1.390 . S
C2107 H2111 0.950 . S
H2108 C2104 0.950 . S
C2109 C2107 1.390 . S
C2109 C2110 1.387 . S
C2109 H2112 0.950 . S
C2110 C2109 1.387 . S
C2110 C2113 1.387 . S
H2111 C2107 0.950 . S
H2112 C2109 0.950 . S
C2113 C2104 1.390 . S
C2113 H2106 0.950 . S
C2113 C2110 1.387 . S
C2114 C2115 1.387 . S
C2114 H2118 0.950 . S
C2114 C2123 1.390 . S
C2115 C2114 1.387 . S
C2115 C2117 1.387 . S
H2116 C2123 0.950 . S
C2117 C2115 1.387 . S
C2117 C2119 1.390 . S
C2117 H2121 0.950 . S
H2118 C2114 0.950 . S
C2119 C2117 1.390 . S
C2119 C2120 1.387 . S
C2119 H2122 0.950 . S
C2120 C2119 1.387 . S
C2120 C2123 1.387 . S
H2121 C2117 0.950 . S
H2122 C2119 0.950 . S
C2123 C2114 1.390 . S
C2123 H2116 0.950 . S
C2123 C2120 1.387 . S
C2124 C2125 1.387 . S
C2124 H2128 0.950 . S
C2124 C2133 1.390 . S
C2125 C2124 1.387 . S
C2125 C2127 1.387 . S
H2126 C2133 0.950 . S
C2127 C2125 1.387 . S
C2127 C2129 1.390 . S
C2127 H2131 0.950 . S
H2128 C2124 0.950 . S
C2129 C2127 1.390 . S
C2129 C2130 1.387 . S
C2129 H2132 0.950 . S
C2130 C2129 1.387 . S
C2130 C2133 1.387 . S
H2131 C2127 0.950 . S
H2132 C2129 0.950 . S
C2133 C2124 1.390 . S
C2133 H2126 0.950 . S
C2133 C2130 1.387 . S
C2134 C2135 1.387 . S
C2134 H2138 0.950 . S
C2134 C2143 1.390 . S
C2135 C2134 1.387 . S
C2135 C2137 1.387 . S
H2136 C2143 0.950 . S
C2137 C2135 1.387 . S
C2137 C2139 1.390 . S
C2137 H2141 0.950 . S
H2138 C2134 0.950 . S
C2139 C2137 1.390 . S
C2139 C2140 1.387 . S
C2139 H2142 0.950 . S
C2140 C2139 1.387 . S
C2140 C2143 1.387 . S
H2141 C2137 0.950 . S
H2142 C2139 0.950 . S
C2143 C2134 1.390 . S
C2143 H2136 0.950 . S
C2143 C2140 1.387 . S
C2144 C2145 1.387 . S
C2144 H2148 0.950 . S
C2144 C2153 1.390 . S
C2145 C2144 1.387 . S
C2145 C2147 1.387 . S
H2146 C2153 0.950 . S
C2147 C2145 1.387 . S
C2147 C2149 1.390 . S
C2147 H2151 0.950 . S
H2148 C2144 0.950 . S
C2149 C2147 1.390 . S
C2149 C2150 1.387 . S
C2149 H2152 0.950 . S
C2150 C2149 1.387 . S
C2150 C2153 1.387 . S
H2151 C2147 0.950 . S
H2152 C2149 0.950 . S
C2153 C2144 1.390 . S
C2153 H2146 0.950 . S
C2153 C2150 1.387 . S
C2154 C2155 1.387 . S
C2154 H2158 0.950 . S
C2154 C2163 1.390 . S
C2155 C2154 1.387 . S
C2155 C2157 1.387 . S
H2156 C2163 0.950 . S
C2157 C2155 1.387 . S
C2157 C2159 1.390 . S
C2157 H2161 0.950 . S
H2158 C2154 0.950 . S
C2159 C2157 1.390 . S
C2159 C2160 1.387 . S
C2159 H2162 0.950 . S
C2160 C2159 1.387 . S
C2160 C2163 1.387 . S
H2161 C2157 0.950 . S
H2162 C2159 0.950 . S
C2163 C2154 1.390 . S
C2163 H2156 0.950 . S
C2163 C2160 1.387 . S
C2164 C2165 1.387 . S
C2164 H2168 0.950 . S
C2164 C2173 1.390 . S
C2165 C2164 1.387 . S
C2165 C2167 1.387 . S
H2166 C2173 0.950 . S
C2167 C2165 1.387 . S
C2167 C2169 1.390 . S
C2167 H2171 0.950 . S
H2168 C2164 0.950 . S
C2169 C2167 1.390 . S
C2169 C2170 1.387 . S
C2169 H2172 0.950 . S
C2170 C2169 1.387 . S
C2170 C2173 1.387 . S
H2171 C2167 0.950 . S
H2172 C2169 0.950 . S
C2173 C2164 1.390 . S
C2173 H2166 0.950 . S
C2173 C2170 1.387 . S
C2174 C2175 1.387 1_545 S
C2174 H2178 0.950 . S
C2174 C2183 1.390 . S
C2175 C2174 1.387 1_565 S
C2175 C2177 1.387 1_554 S
H2176 C2183 0.950 . S
C2177 C2175 1.387 1_556 S
C2177 C2179 1.390 . S
C2177 H2181 0.950 . S
H2178 C2174 0.950 . S
C2179 C2177 1.390 . S
C2179 C2180 1.387 1_566 S
C2179 H2182 0.950 . S
C2180 C2179 1.387 1_544 S
C2180 C2183 1.387 . S
H2181 C2177 0.950 . S
H2182 C2179 0.950 . S
C2183 C2174 1.390 . S
C2183 H2176 0.950 . S
C2183 C2180 1.387 . S
C2184 C2185 1.387 . S
C2184 H2188 0.950 . S
C2184 C2193 1.390 . S
C2185 C2184 1.387 . S
C2185 C2187 1.387 . S
H2186 C2193 0.950 . S
C2187 C2185 1.387 . S
C2187 C2189 1.390 . S
C2187 H2191 0.950 . S
H2188 C2184 0.950 . S
C2189 C2187 1.390 . S
C2189 C2190 1.387 . S
C2189 H2192 0.950 . S
C2190 C2189 1.387 . S
C2190 C2193 1.387 . S
H2191 C2187 0.950 . S
H2192 C2189 0.950 . S
C2193 C2184 1.390 . S
C2193 H2186 0.950 . S
C2193 C2190 1.387 . S
C2194 C2195 1.387 . S
C2194 H2198 0.950 . S
C2194 C2203 1.390 . S
C2195 C2194 1.387 . S
C2195 C2197 1.387 . S
H2196 C2203 0.950 . S
C2197 C2195 1.387 . S
C2197 C2199 1.390 . S
C2197 H2201 0.950 . S
H2198 C2194 0.950 . S
C2199 C2197 1.390 . S
C2199 C2200 1.387 . S
C2199 H2202 0.950 . S
C2200 C2199 1.387 . S
C2200 C2203 1.387 . S
H2201 C2197 0.950 . S
H2202 C2199 0.950 . S
C2203 C2194 1.390 . S
C2203 H2196 0.950 . S
C2203 C2200 1.387 . S
C2204 C2205 1.387 . S
C2204 H2208 0.950 . S
C2204 C2213 1.390 . S
C2205 C2204 1.387 . S
C2205 C2207 1.387 . S
H2206 C2213 0.950 . S
C2207 C2205 1.387 . S
C2207 C2209 1.390 . S
C2207 H2211 0.950 . S
H2208 C2204 0.950 . S
C2209 C2207 1.390 . S
C2209 C2210 1.387 . S
C2209 H2212 0.950 . S
C2210 C2209 1.387 . S
C2210 C2213 1.387 . S
H2211 C2207 0.950 . S
H2212 C2209 0.950 . S
C2213 C2204 1.390 . S
C2213 H2206 0.950 . S
C2213 C2210 1.387 . S
C2214 C2215 1.387 . S
C2214 H2218 0.950 . S
C2214 C2223 1.390 . S
C2215 C2214 1.387 . S
C2215 C2217 1.387 . S
H2216 C2223 0.950 . S
C2217 C2215 1.387 . S
C2217 C2219 1.390 . S
C2217 H2221 0.950 . S
H2218 C2214 0.950 . S
C2219 C2217 1.390 . S
C2219 C2220 1.387 . S
C2219 H2222 0.950 . S
C2220 C2219 1.387 . S
C2220 C2223 1.387 . S
H2221 C2217 0.950 . S
H2222 C2219 0.950 . S
C2223 C2214 1.390 . S
C2223 H2216 0.950 . S
C2223 C2220 1.387 . S
C2224 C2225 1.387 . S
C2224 H2228 0.950 . S
C2224 C2233 1.390 . S
C2225 C2224 1.387 . S
C2225 C2227 1.387 . S
H2226 C2233 0.950 . S
C2227 C2225 1.387 . S
C2227 C2229 1.390 . S
C2227 H2231 0.950 . S
H2228 C2224 0.950 . S
C2229 C2227 1.390 . S
C2229 C2230 1.387 . S
C2229 H2232 0.950 . S
C2230 C2229 1.387 . S
C2230 C2233 1.387 . S
H2231 C2227 0.950 . S
H2232 C2229 0.950 . S
C2233 C2224 1.390 . S
C2233 H2226 0.950 . S
C2233 C2230 1.387 . S
C2234 C2235 1.387 . S
C2234 H2238 0.950 . S
C2234 C2243 1.390 . S
C2235 C2234 1.387 . S
C2235 C2237 1.387 . S
H2236 C2243 0.950 . S
C2237 C2235 1.387 . S
C2237 C2239 1.390 . S
C2237 H2241 0.950 . S
H2238 C2234 0.950 . S
C2239 C2237 1.390 . S
C2239 C2240 1.387 . S
C2239 H2242 0.950 . S
C2240 C2239 1.387 . S
C2240 C2243 1.387 . S
H2241 C2237 0.950 . S
H2242 C2239 0.950 . S
C2243 C2234 1.390 . S
C2243 H2236 0.950 . S
C2243 C2240 1.387 . S
C2244 C2245 1.387 . S
C2244 H2248 0.950 . S
C2244 C2253 1.390 . S
C2245 C2244 1.387 . S
C2245 C2247 1.387 . S
H2246 C2253 0.950 . S
C2247 C2245 1.387 . S
C2247 C2249 1.390 . S
C2247 H2251 0.950 . S
H2248 C2244 0.950 . S
C2249 C2247 1.390 . S
C2249 C2250 1.387 . S
C2249 H2252 0.950 . S
C2250 C2249 1.387 . S
C2250 C2253 1.387 . S
H2251 C2247 0.950 . S
H2252 C2249 0.950 . S
C2253 C2244 1.390 . S
C2253 H2246 0.950 . S
C2253 C2250 1.387 . S
C2254 C2255 1.387 . S
C2254 H2258 0.950 . S
C2254 C2263 1.390 . S
C2255 C2254 1.387 . S
C2255 C2257 1.387 . S
H2256 C2263 0.950 . S
C2257 C2255 1.387 . S
C2257 C2259 1.390 . S
C2257 H2261 0.950 . S
H2258 C2254 0.950 . S
C2259 C2257 1.390 . S
C2259 C2260 1.387 . S
C2259 H2262 0.950 . S
C2260 C2259 1.387 . S
C2260 C2263 1.387 . S
H2261 C2257 0.950 . S
H2262 C2259 0.950 . S
C2263 C2254 1.390 . S
C2263 H2256 0.950 . S
C2263 C2260 1.387 . S
C2264 C2265 1.387 . S
C2264 H2268 0.950 . S
C2264 C2273 1.390 . S
C2265 C2264 1.387 . S
C2265 C2267 1.387 . S
H2266 C2273 0.950 . S
C2267 C2265 1.387 . S
C2267 C2269 1.390 . S
C2267 H2271 0.950 . S
H2268 C2264 0.950 . S
C2269 C2267 1.390 . S
C2269 C2270 1.387 . S
C2269 H2272 0.950 . S
C2270 C2269 1.387 . S
C2270 C2273 1.387 . S
H2271 C2267 0.950 . S
H2272 C2269 0.950 . S
C2273 C2264 1.390 . S
C2273 H2266 0.950 . S
C2273 C2270 1.387 . S
C2274 C2275 1.387 . S
C2274 H2278 0.950 . S
C2274 C2283 1.390 . S
C2275 C2274 1.387 . S
C2275 C2277 1.387 . S
H2276 C2283 0.950 . S
C2277 C2275 1.387 . S
C2277 C2279 1.390 . S
C2277 H2281 0.950 . S
H2278 C2274 0.950 . S
C2279 C2277 1.390 . S
C2279 C2280 1.387 . S
C2279 H2282 0.950 . S
C2280 C2279 1.387 . S
C2280 C2283 1.387 . S
H2281 C2277 0.950 . S
H2282 C2279 0.950 . S
C2283 C2274 1.390 . S
C2283 H2276 0.950 . S
C2283 C2280 1.387 . S
C2284 C2285 1.387 . S
C2284 H2288 0.950 . S
C2284 C2293 1.390 . S
C2285 C2284 1.387 . S
C2285 C2287 1.387 . S
H2286 C2293 0.950 . S
C2287 C2285 1.387 . S
C2287 C2289 1.390 . S
C2287 H2291 0.950 . S
H2288 C2284 0.950 . S
C2289 C2287 1.390 . S
C2289 C2290 1.387 . S
C2289 H2292 0.950 . S
C2290 C2289 1.387 . S
C2290 C2293 1.387 . S
H2291 C2287 0.950 . S
H2292 C2289 0.950 . S
C2293 C2284 1.390 . S
C2293 H2286 0.950 . S
C2293 C2290 1.387 . S
C2294 C2295 1.387 . S
C2294 H2298 0.950 . S
C2294 C2303 1.390 . S
C2295 C2294 1.387 . S
C2295 C2297 1.387 . S
H2296 C2303 0.950 . S
C2297 C2295 1.387 . S
C2297 C2299 1.390 . S
C2297 H2301 0.950 . S
H2298 C2294 0.950 . S
C2299 C2297 1.390 . S
C2299 C2300 1.387 . S
C2299 H2302 0.950 . S
C2300 C2299 1.387 . S
C2300 C2303 1.387 . S
H2301 C2297 0.950 . S
H2302 C2299 0.950 . S
C2303 C2294 1.390 . S
C2303 H2296 0.950 . S
C2303 C2300 1.387 . S
C2304 C2305 1.387 . S
C2304 H2308 0.950 . S
C2304 C2313 1.390 . S
C2305 C2304 1.387 . S
C2305 C2307 1.387 . S
H2306 C2313 0.950 . S
C2307 C2305 1.387 . S
C2307 C2309 1.390 . S
C2307 H2311 0.950 . S
H2308 C2304 0.950 . S
C2309 C2307 1.390 . S
C2309 C2310 1.387 . S
C2309 H2312 0.950 . S
C2310 C2309 1.387 . S
C2310 C2313 1.387 . S
H2311 C2307 0.950 . S
H2312 C2309 0.950 . S
C2313 C2304 1.390 . S
C2313 H2306 0.950 . S
C2313 C2310 1.387 . S
C2314 C2315 1.387 . S
C2314 H2318 0.950 . S
C2314 C2323 1.390 . S
C2315 C2314 1.387 . S
C2315 C2317 1.387 . S
H2316 C2323 0.950 . S
C2317 C2315 1.387 . S
C2317 C2319 1.390 . S
C2317 H2321 0.950 . S
H2318 C2314 0.950 . S
C2319 C2317 1.390 . S
C2319 C2320 1.387 . S
C2319 H2322 0.950 . S
C2320 C2319 1.387 . S
C2320 C2323 1.387 . S
H2321 C2317 0.950 . S
H2322 C2319 0.950 . S
C2323 C2314 1.390 . S
C2323 H2316 0.950 . S
C2323 C2320 1.387 . S
C2324 C2325 1.387 . S
C2324 H2328 0.950 . S
C2324 C2333 1.390 1_655 S
C2325 C2324 1.387 . S
C2325 C2327 1.387 1_655 S
H2326 C2333 0.950 . S
C2327 C2325 1.387 1_455 S
C2327 C2329 1.390 . S
C2327 H2331 0.950 1_455 S
H2328 C2324 0.950 . S
C2329 C2327 1.390 . S
C2329 C2330 1.387 . S
C2329 H2332 0.950 . S
C2330 C2329 1.387 . S
C2330 C2333 1.387 . S
H2331 C2327 0.950 1_655 S
H2332 C2329 0.950 . S
C2333 C2324 1.390 1_455 S
C2333 H2326 0.950 . S
C2333 C2330 1.387 . S
C2334 C2335 1.387 . S
C2334 H2338 0.950 . S
C2334 C2343 1.390 . S
C2335 C2334 1.387 . S
C2335 C2337 1.387 . S
H2336 C2343 0.950 . S
C2337 C2335 1.387 . S
C2337 C2339 1.390 . S
C2337 H2341 0.950 . S
H2338 C2334 0.950 . S
C2339 C2337 1.390 . S
C2339 C2340 1.387 . S
C2339 H2342 0.950 . S
C2340 C2339 1.387 . S
C2340 C2343 1.387 . S
H2341 C2337 0.950 . S
H2342 C2339 0.950 . S
C2343 C2334 1.390 . S
C2343 H2336 0.950 . S
C2343 C2340 1.387 . S
C2344 C2345 1.387 . S
C2344 H2348 0.950 . S
C2344 C2353 1.390 . S
C2345 C2344 1.387 . S
C2345 C2347 1.387 . S
H2346 C2353 0.950 . S
C2347 C2345 1.387 . S
C2347 C2349 1.390 . S
C2347 H2351 0.950 . S
H2348 C2344 0.950 . S
C2349 C2347 1.390 . S
C2349 C2350 1.387 . S
C2349 H2352 0.950 . S
C2350 C2349 1.387 . S
C2350 C2353 1.387 . S
H2351 C2347 0.950 . S
H2352 C2349 0.950 . S
C2353 C2344 1.390 . S
C2353 H2346 0.950 . S
C2353 C2350 1.387 . S
C2354 C2355 1.387 . S
C2354 H2358 0.950 . S
C2354 C2363 1.390 . S
C2355 C2354 1.387 . S
C2355 C2357 1.387 . S
H2356 C2363 0.950 . S
C2357 C2355 1.387 . S
C2357 C2359 1.390 . S
C2357 H2361 0.950 . S
H2358 C2354 0.950 . S
C2359 C2357 1.390 . S
C2359 C2360 1.387 . S
C2359 H2362 0.950 . S
C2360 C2359 1.387 . S
C2360 C2363 1.387 . S
H2361 C2357 0.950 . S
H2362 C2359 0.950 . S
C2363 C2354 1.390 . S
C2363 H2356 0.950 . S
C2363 C2360 1.387 . S
C2364 C2365 1.387 . S
C2364 H2368 0.950 . S
C2364 C2373 1.390 . S
C2365 C2364 1.387 . S
C2365 C2367 1.387 . S
H2366 C2373 0.950 . S
C2367 C2365 1.387 . S
C2367 C2369 1.390 . S
C2367 H2371 0.950 . S
H2368 C2364 0.950 . S
C2369 C2367 1.390 . S
C2369 C2370 1.387 . S
C2369 H2372 0.950 . S
C2370 C2369 1.387 . S
C2370 C2373 1.387 . S
H2371 C2367 0.950 . S
H2372 C2369 0.950 . S
C2373 C2364 1.390 . S
C2373 H2366 0.950 . S
C2373 C2370 1.387 . S
C2374 C2375 1.387 . S
C2374 H2378 0.950 . S
C2374 C2383 1.390 . S
C2375 C2374 1.387 . S
C2375 C2377 1.387 . S
H2376 C2383 0.950 . S
C2377 C2375 1.387 . S
C2377 C2379 1.390 . S
C2377 H2381 0.950 . S
H2378 C2374 0.950 . S
C2379 C2377 1.390 . S
C2379 C2380 1.387 . S
C2379 H2382 0.950 . S
C2380 C2379 1.387 . S
C2380 C2383 1.387 . S
H2381 C2377 0.950 . S
H2382 C2379 0.950 . S
C2383 C2374 1.390 . S
C2383 H2376 0.950 . S
C2383 C2380 1.387 . S
C2384 C2385 1.387 . S
C2384 H2388 0.950 . S
C2384 C2393 1.390 . S
C2385 C2384 1.387 . S
C2385 C2387 1.387 . S
H2386 C2393 0.950 . S
C2387 C2385 1.387 . S
C2387 C2389 1.390 . S
C2387 H2391 0.950 . S
H2388 C2384 0.950 . S
C2389 C2387 1.390 . S
C2389 C2390 1.387 . S
C2389 H2392 0.950 . S
C2390 C2389 1.387 . S
C2390 C2393 1.387 . S
H2391 C2387 0.950 . S
H2392 C2389 0.950 . S
C2393 C2384 1.390 . S
C2393 H2386 0.950 . S
C2393 C2390 1.387 . S
C2394 C2395 1.387 . S
C2394 H2398 0.950 . S
C2394 C2403 1.390 . S
C2395 C2394 1.387 . S
C2395 C2397 1.387 . S
H2396 C2403 0.950 1_545 S
C2397 C2395 1.387 . S
C2397 C2399 1.390 . S
C2397 H2401 0.950 . S
H2398 C2394 0.950 . S
C2399 C2397 1.390 . S
C2399 C2400 1.387 . S
C2399 H2402 0.950 . S
C2400 C2399 1.387 . S
C2400 C2403 1.387 . S
H2401 C2397 0.950 . S
H2402 C2399 0.950 . S
C2403 C2394 1.390 . S
C2403 H2396 0.950 1_565 S
C2403 C2400 1.387 . S
C2404 C2405 1.387 . S
C2404 H2408 0.950 . S
C2404 C2413 1.390 . S
C2405 C2404 1.387 . S
C2405 C2407 1.387 . S
H2406 C2413 0.950 . S
C2407 C2405 1.387 . S
C2407 C2409 1.390 . S
C2407 H2411 0.950 . S
H2408 C2404 0.950 . S
C2409 C2407 1.390 . S
C2409 C2410 1.387 . S
C2409 H2412 0.950 . S
C2410 C2409 1.387 . S
C2410 C2413 1.387 . S
H2411 C2407 0.950 . S
H2412 C2409 0.950 . S
C2413 C2404 1.390 . S
C2413 H2406 0.950 . S
C2413 C2410 1.387 . S
C2414 C2415 1.387 . S
C2414 H2418 0.950 1_554 S
C2414 C2423 1.390 . S
C2415 C2414 1.387 . S
C2415 C2417 1.387 . S
H2416 C2423 0.950 1_556 S
C2417 C2415 1.387 . S
C2417 C2419 1.390 . S
C2417 H2421 0.950 . S
H2418 C2414 0.950 1_556 S
C2419 C2417 1.390 . S
C2419 C2420 1.387 . S
C2419 H2422 0.950 . S
C2420 C2419 1.387 . S
C2420 C2423 1.387 . S
H2421 C2417 0.950 . S
H2422 C2419 0.950 . S
C2423 C2414 1.390 . S
C2423 H2416 0.950 1_554 S
C2423 C2420 1.387 . S
C2424 C2425 1.387 . S
C2424 H2428 0.950 . S
C2424 C2433 1.390 . S
C2425 C2424 1.387 . S
C2425 C2427 1.387 . S
H2426 C2433 0.950 . S
C2427 C2425 1.387 . S
C2427 C2429 1.390 . S
C2427 H2431 0.950 . S
H2428 C2424 0.950 . S
C2429 C2427 1.390 . S
C2429 C2430 1.387 . S
C2429 H2432 0.950 . S
C2430 C2429 1.387 . S
C2430 C2433 1.387 . S
H2431 C2427 0.950 . S
H2432 C2429 0.950 . S
C2433 C2424 1.390 . S
C2433 H2426 0.950 . S
C2433 C2430 1.387 . S
C2434 C2435 1.387 . S
C2434 H2438 0.950 . S
C2434 C2443 1.390 . S
C2435 C2434 1.387 . S
C2435 C2437 1.387 1_554 S
H2436 C2443 0.950 . S
C2437 C2435 1.387 1_556 S
C2437 C2439 1.390 . S
C2437 H2441 0.950 . S
H2438 C2434 0.950 . S
C2439 C2437 1.390 . S
C2439 C2440 1.387 . S
C2439 H2442 0.950 . S
C2440 C2439 1.387 . S
C2440 C2443 1.387 1_556 S
H2441 C2437 0.950 . S
H2442 C2439 0.950 . S
C2443 C2434 1.390 . S
C2443 H2436 0.950 . S
C2443 C2440 1.387 1_554 S
C2444 C2445 1.387 . S
C2444 H2448 0.950 . S
C2444 C2453 1.390 . S
C2445 C2444 1.387 . S
C2445 C2447 1.387 . S
H2446 C2453 0.950 . S
C2447 C2445 1.387 . S
C2447 C2449 1.390 . S
C2447 H2451 0.950 . S
H2448 C2444 0.950 . S
C2449 C2447 1.390 . S
C2449 C2450 1.387 . S
C2449 H2452 0.950 . S
C2450 C2449 1.387 . S
C2450 C2453 1.387 . S
H2451 C2447 0.950 . S
H2452 C2449 0.950 . S
C2453 C2444 1.390 . S
C2453 H2446 0.950 . S
C2453 C2450 1.387 . S
C2454 C2455 1.387 . S
C2454 H2458 0.950 . S
C2454 C2463 1.390 . S
C2455 C2454 1.387 . S
C2455 C2457 1.387 . S
H2456 C2463 0.950 . S
C2457 C2455 1.387 . S
C2457 C2459 1.390 . S
C2457 H2461 0.950 . S
H2458 C2454 0.950 . S
C2459 C2457 1.390 . S
C2459 C2460 1.387 . S
C2459 H2462 0.950 . S
C2460 C2459 1.387 . S
C2460 C2463 1.387 . S
H2461 C2457 0.950 . S
H2462 C2459 0.950 . S
C2463 C2454 1.390 . S
C2463 H2456 0.950 . S
C2463 C2460 1.387 . S
C1505 C255 1.141 . S
C1510 C872 1.168 . S
C1515 C147 1.466 . S
C1520 C906 1.497 . S
C1525 C184 0.777 . S
C1530 C975 0.776 . S
C1540 C1013 0.969 . S
C1535 C220 0.973 . S
C1545 C40 1.710 . S
C1550 C1053 1.666 . S
C1560 C1072 0.602 . S
C1555 C74 0.589 . S
C1570 C1106 1.557 . S
C1565 C110 1.502 . S
C1575 C14 1.837 . S
C1580 C1175 1.820 . S
C1590 C881 2.485 . S
C1585 C579 2.526 1_455 S
C1595 C616 1.321 . S
C1600 C933 1.304 . S
C1610 C946 1.431 . S
C1605 C687 1.419 . S
C1620 C1015 1.621 . S
C1615 C436 1.580 . S
C1625 C580 2.060 1_455 S
C1630 C1055 2.106 . S
C1640 C1081 1.876 . S
C1635 C615 1.900 . S
C1650 C1133 0.585 . S
C1645 C688 0.567 . S
C1660 C1146 2.372 . S
C1655 C435 2.376 . S
C1670 C876 2.499 . S
C1665 C410 2.531 1_554 S
C1675 C722 2.082 . S
C1680 C1186 2.091 . S
C1690 C1236 2.796 . S
C1685 C842 2.755 . S
C1700 C1295 1.800 1_655 S
C1695 C794 1.721 . S
C1705 C302 1.991 . S
C1710 C1173 1.849 . S
C1715 C338 1.621 . S
C1720 C973 1.527 . S
C1725 C830 2.551 . S
C1730 C1306 2.534 . S
C1740 C1375 0.999 . S
C1735 C758 1.023 . S
C1750 C893 1.179 . S
C1745 C158 1.069 . S
C1760 C1361 1.534 . S
C1755 C254 1.540 . S
C1765 C218 0.757 . S
C1770 C956 0.759 . S
C1775 C194 0.942 . S
C1780 C1312 0.932 . S
C1790 C1032 1.699 . S
C1785 C3 1.785 . S
C1795 C111 0.549 . S
C1800 C1253 0.554 . S
C1810 C1121 1.524 1_556 S
C1805 C76 1.439 . S
C1820 C1396 1.878 . S
C1815 C50 1.727 . S
C1830 C866 2.476 . S
C1825 C364 2.520 . S
C1840 C1352 1.440 . S
C1835 C795 1.490 . S
C1845 C292 1.419 . S
C1850 C961 1.410 . S
C1855 C723 1.576 . S
C1860 C1316 1.587 . S
C1865 C363 2.090 . S
C1870 C1036 2.105 . S
C1880 C1226 1.882 . S
C1875 C796 1.923 . S
C1885 C291 0.519 . S
C1890 C1112 0.558 . S
C1895 C724 2.388 . S
C1900 C1401 2.374 . S
C1905 C482 2.400 . S
C1910 C895 2.466 1_655 S
C1915 C434 2.024 . S
C1920 C1201 2.043 . S
C1925 C662 2.712 . S
C1930 C1095 2.762 . S
C1935 C614 1.712 . S
C1940 C1276 1.783 . S
C1950 C1392 1.784 . S
C1945 C698 1.585 . S
C1955 C554 1.427 . S
C1960 C952 1.575 . S
C1970 C1001 2.478 . S
C1965 C650 2.484 . S
C1980 C916 1.026 . S
C1975 C506 1.087 . S
C1985 C183 1.139 . S
C1990 C1432 1.169 . S
C2000 C1346 1.500 . S
C1995 C219 1.469 . S
C2005 C256 0.778 . S
C2010 C1495 0.777 1_556 S
C2015 C148 0.968 . S
C2020 C1333 0.964 . S
C2025 C122 1.898 . S
C2030 C1213 1.727 . S
C2040 C1232 0.572 . S
C2035 C2 0.560 . S
C2050 C1266 1.498 . S
C2045 C39 1.437 1_455 S
C2060 C1415 1.854 . S
C2055 C86 1.869 . S
C2070 C1441 2.498 . S
C2065 C651 2.540 . S
C2075 C472 1.326 . S
C2080 C1373 1.309 . S
C2090 C1466 1.417 . S
C2085 C507 1.405 . S
C2100 C1335 1.620 . S
C2095 C544 1.579 . S
C2110 C1215 2.119 . S
C2105 C652 2.071 . S
C2115 C471 1.885 . S
C2120 C1241 1.865 . S
C2130 C1293 0.577 . S
C2125 C508 0.563 . S
C2135 C543 2.383 . S
C2140 C1386 2.379 . S
C2150 C1436 2.518 . S
C2145 C806 2.562 . S
C2155 C326 2.039 . S
C2160 C1026 2.048 . S
C2170 C1076 2.772 . S
C2165 C374 2.734 . S
C2180 C1135 1.808 . S
C2175 C398 1.734 . S
C2190 C1413 1.799 . S
C2185 C770 1.936 . S
C2195 C734 1.609 . S
C2200 C1493 1.511 . S
C2210 C986 2.523 . S
C2205 C362 2.538 . S
C2220 C935 1.014 . S
C2215 C290 1.038 . S
C2225 C230 1.066 . S
C2230 C1453 1.175 . S
C2240 C921 1.545 . S
C2235 C182 1.552 . S
C2245 C146 0.745 . S
C2250 C1476 0.746 . S
C2255 C266 0.935 . S
C2260 C992 0.924 . S
C2265 C75 1.792 . S
C2270 C1192 1.708 . S
C2280 C1093 0.589 . S
C2275 C38 0.574 . S
C2285 C4 1.384 . S
C2290 C1281 1.478 . S
C2295 C112 1.908 . S
C2300 C1156 1.851 . S
C2310 C1426 2.481 . S
C2305 C832 2.525 . S
C2315 C399 1.520 . S
C2320 C912 1.469 . S
C2330 C1481 1.398 . S
C2325 C760 1.409 . S
C2335 C327 1.569 . S
C2340 C996 1.580 . S
C2345 C831 2.120 . S
C2350 C1196 2.134 . S
C2360 C1066 1.889 . S
C2355 C400 1.928 . S
C2365 C759 0.527 . S
C2370 C1272 0.573 . S
C2380 C1161 2.372 . S
C2375 C328 2.384 . S
C2390 C1455 2.478 . S
C2385 C626 2.411 . S
C2400 C1041 2.053 1_665 S
C2395 C542 2.035 . S
C2405 C590 2.682 . S
C2410 C1255 2.730 . S
C2420 C1116 1.805 . S
C2415 C470 1.731 . S
C2425 C518 1.547 . S
C2430 C1152 1.742 . S
C2435 C446 1.413 . S
C2440 C1472 1.558 . S
C2450 C1321 2.489 . S
C2445 C578 2.496 1_565 S
C2460 C1356 1.010 . S
C2455 C686 1.062 . S
