# Generated by pormake.
# Topology bcu-b, (8,8)-cn, num edge types: 1
# Building blocks:
#     Node 0, Type 0, BuildingBlock: TAGTUT_clean_sbu_3, # of connection points: 8
#     Node 1, Type 1, BuildingBlock: VETTIZ_charged_sbu_0, # of connection points: 8
#     Edge 2, Type (0, 1), BuildingBlock: XUDNAN_clean_linker_2, # of connection points: 2
#     Edge 3, Type (0, 1), BuildingBlock: XUDNAN_clean_linker_2, # of connection points: 2
#     Edge 4, Type (0, 1), BuildingBlock: XUDNAN_clean_linker_2, # of connection points: 2
#     Edge 5, Type (0, 1), BuildingBlock: XUDNAN_clean_linker_2, # of connection points: 2
#     Edge 6, Type (0, 1), BuildingBlock: XUDNAN_clean_linker_2, # of connection points: 2
#     Edge 7, Type (0, 1), BuildingBlock: XUDNAN_clean_linker_2, # of connection points: 2
#     Edge 8, Type (0, 1), BuildingBlock: XUDNAN_clean_linker_2, # of connection points: 2
#     Edge 9, Type (0, 1), BuildingBlock: XUDNAN_clean_linker_2, # of connection points: 2
# Relax obj value: 0.021
# Max RMSD: 0.102
# Mean RMSD: 0.075
data_MOF--net-bcu-b--node1-TAGTUT_clean_sbu_3--node2-VETTIZ_charged_sbu_0--edge1-XUDNAN_clean_linker_2
_symmetry_space_group_name_H-M    P1
_symmetry_Int_Tables_number       1
_symmetry_cell_setting            triclinic
loop_
_symmetry_equiv_pos_as_xyz
'x, y, z'
_cell_length_a     19.266001
_cell_length_b     20.207093
_cell_length_c     20.339042
_cell_angle_alpha  90.689576
_cell_angle_beta   90.480238
_cell_angle_gamma 98.504241
loop_
_atom_site_label
_atom_site_type_symbol
_atom_site_fract_x
_atom_site_fract_y
_atom_site_fract_z
_atom_type_partial_charge
C0 C 0.12498 0.07923 0.09585 0.0
C1 C 0.19031 0.83562 0.085 0.0
C2 C 0.1325 0.8453 0.88015 0.0
Mg3 Mg 1.00273 0.14121 0.01362 0.0
Mg4 Mg 0.8631 0.04297 0.9555 0.0
O5 O 0.96131 0.06159 0.9584 0.0
Mg6 Mg 0.01578 -0.00729 0.99281 0.0
O7 O 0.07581 0.92809 0.02709 0.0
Mg8 Mg 0.16908 0.96943 0.99233 0.0
Mg9 Mg 0.0497 0.83612 0.00922 0.0
C10 C 0.89879 0.90896 0.89002 0.0
O11 O 0.92766 0.94058 0.05671 0.0
O12 O 0.93797 0.2043 0.94583 0.0
O13 O 0.94142 0.83191 0.04399 0.0
O14 O 0.91057 0.12841 0.08695 0.0
O15 O 0.84866 0.13109 0.90287 0.0
O16 O 0.82282 0.0509 0.0529 0.0
O17 O 0.10783 0.03914 0.93192 0.0
O18 O 0.09477 0.14708 0.94199 0.0
C19 C 0.12815 0.101 0.92007 0.0
C20 C 0.88367 0.18998 0.90799 0.0
O21 O 0.96289 0.92019 0.91099 0.0
O22 O 0.21528 0.89176 0.05856 0.0
O23 O 0.85313 0.94656 0.90569 0.0
O24 O 0.16637 0.89862 0.90494 0.0
O25 O 0.12747 0.80647 0.07408 0.0
O26 O 0.08104 0.81169 0.90998 0.0
O27 O 0.06196 0.06886 0.07267 0.0
O28 O 0.17077 0.04373 0.07645 0.0
C29 C 0.8505 0.09335 0.09592 0.0
C30 C 0.90677 0.87782 0.06484 0.0
Fe31 Fe 0.5279 0.56664 0.49436 0.0
O32 O 0.46757 0.49087 0.53709 0.0
Fe33 Fe 0.67454 0.49647 0.44784 0.0
Fe34 Fe 0.36424 0.48352 0.53653 0.0
O35 O 0.57321 0.49414 0.45248 0.0
O36 O 0.57155 0.48735 0.45048 0.0
O37 O 0.46585 0.4841 0.53505 0.0
Fe38 Fe 0.5122 0.41168 0.49433 0.0
C39 C 0.42241 0.61928 0.59162 0.0
O40 O 0.46144 0.55979 0.41589 0.0
O41 O 0.35921 0.5569 0.46546 0.0
O42 O 0.56948 0.34522 0.44504 0.0
O43 O 0.65174 0.41469 0.3861 0.0
O44 O 0.6637 0.57076 0.38194 0.0
O45 O 0.59542 0.63629 0.43944 0.0
O46 O 0.34282 0.41176 0.46478 0.0
O47 O 0.44329 0.40075 0.41488 0.0
C48 C 0.63598 0.62512 0.39065 0.0
O49 O 0.58067 0.41923 0.57371 0.0
O50 O 0.68271 0.42803 0.52101 0.0
O51 O 0.46959 0.63288 0.54573 0.0
O52 O 0.38769 0.56051 0.60206 0.0
C53 C 0.39977 0.57386 0.41732 0.0
C54 C 0.37647 0.39456 0.41564 0.0
C55 C 0.3998 0.35226 0.59333 0.0
O56 O 0.37084 0.4061 0.60033 0.0
O57 O 0.44444 0.34209 0.54791 0.0
C58 C 0.61742 0.35634 0.39996 0.0
O59 O 0.69596 0.57204 0.51687 0.0
O60 O 0.59747 0.576 0.57269 0.0
C61 C 0.64608 0.41582 0.57241 0.0
C62 C 0.66415 0.58607 0.56865 0.0
H63 H 0.25299 0.10513 0.15593 0.0
H64 H 0.05376 0.1805 0.14028 0.0
H65 H 0.10067 0.27554 0.21425 0.0
H66 H 0.28499 0.14418 0.32473 0.0
H67 H 0.37847 0.1659 0.31493 0.0
H68 H 0.32909 0.106 0.25977 0.0
H69 H 0.37719 0.17749 0.16055 0.0
H70 H 0.42608 0.23796 0.21566 0.0
H71 H 0.36507 0.26416 0.15721 0.0
H72 H 0.16949 0.36007 0.29251 0.0
H73 H 0.25055 0.42346 0.37329 0.0
H74 H 0.40501 0.29238 0.33456 0.0
C75 C 0.21883 0.14156 0.16753 0.0
C76 C 0.14953 0.13541 0.14192 0.0
C77 C 0.10689 0.18412 0.15922 0.0
C78 C 0.1333 0.23837 0.20087 0.0
C79 C 0.2023 0.24301 0.22439 0.0
C80 C 0.24423 0.1956 0.20848 0.0
C81 C 0.31565 0.21016 0.24166 0.0
C82 C 0.32771 0.15319 0.28803 0.0
C83 C 0.37445 0.22324 0.19071 0.0
C84 C 0.30754 0.27322 0.2796 0.0
C85 C 0.24192 0.29156 0.26874 0.0
C86 C 0.22099 0.34631 0.30096 0.0
C87 C 0.26742 0.38194 0.34671 0.0
C88 C 0.33409 0.36284 0.35982 0.0
C89 C 0.35496 0.30878 0.32457 0.0
H90 H 0.88727 0.19066 0.18894 0.0
H91 H 0.718 0.03393 0.13125 0.0
H92 H 0.6414 0.07613 0.21405 0.0
H93 H 0.84247 0.19994 0.36698 0.0
H94 H 0.86659 0.28959 0.36816 0.0
H95 H 0.91094 0.23867 0.31405 0.0
H96 H 0.87897 0.30808 0.21488 0.0
H97 H 0.83374 0.35848 0.2682 0.0
H98 H 0.78818 0.31517 0.19883 0.0
H99 H 0.57836 0.14672 0.29324 0.0
H100 H 0.53769 0.23712 0.36024 0.0
H101 H 0.74892 0.34669 0.36052 0.0
C102 C 0.83485 0.16368 0.19491 0.0
C103 C 0.80877 0.109 0.15347 0.0
C104 C 0.73933 0.07592 0.16252 0.0
C105 C 0.6954 0.0995 0.20951 0.0
C106 C 0.7219 0.15578 0.24736 0.0
C107 C 0.79046 0.1868 0.2409 0.0
C108 C 0.80479 0.25035 0.28167 0.0
C109 C 0.85942 0.24423 0.33595 0.0
C110 C 0.82772 0.31157 0.23829 0.0
C111 C 0.73296 0.25189 0.31014 0.0
C112 C 0.68581 0.19653 0.29112 0.0
C113 C 0.61522 0.18973 0.30915 0.0
C114 C 0.5925 0.24117 0.34705 0.0
C115 C 0.6401 0.2989 0.36499 0.0
C116 C 0.71118 0.30333 0.34705 0.0
H117 H 0.82986 0.7538 0.07126 0.0
H118 H 0.8449 0.95482 0.15255 0.0
H119 H 0.75654 0.91448 0.23562 0.0
H120 H 0.63688 0.69896 0.11094 0.0
H121 H 0.65455 0.61611 0.12989 0.0
H122 H 0.70437 0.66404 0.06736 0.0
H123 H 0.81966 0.6487 0.12814 0.0
H124 H 0.77053 0.6017 0.19095 0.0
H125 H 0.83177 0.67508 0.21301 0.0
H126 H 0.68619 0.84767 0.32349 0.0
H127 H 0.6399 0.76175 0.40441 0.0
H128 H 0.67217 0.60592 0.26441 0.0
C129 C 0.81283 0.78977 0.10512 0.0
C130 C 0.84415 0.85734 0.10538 0.0
C131 C 0.82095 0.90288 0.15085 0.0
C132 C 0.77075 0.88037 0.19834 0.0
C133 C 0.74351 0.81249 0.1989 0.0
C134 C 0.76295 0.76813 0.15253 0.0
C135 C 0.73356 0.69667 0.16815 0.0
C136 C 0.67909 0.66723 0.11598 0.0
C137 C 0.79238 0.65307 0.17554 0.0
C138 C 0.69906 0.70714 0.23305 0.0
C139 C 0.70343 0.7742 0.24944 0.0
C140 C 0.68102 0.79508 0.31044 0.0
C141 C 0.65502 0.74607 0.35617 0.0
C142 C 0.65319 0.67734 0.3408 0.0
C143 C 0.67333 0.65814 0.27771 0.0
H144 H 0.14634 0.74139 0.17725 0.0
H145 H 0.3338 0.85756 0.0975 0.0
H146 H 0.40683 0.80233 0.17396 0.0
H147 H 0.20647 0.74851 0.34569 0.0
H148 H 0.16544 0.66471 0.36361 0.0
H149 H 0.1279 0.71239 0.30194 0.0
H150 H 0.13403 0.61742 0.21639 0.0
H151 H 0.17172 0.56946 0.27773 0.0
H152 H 0.21684 0.58873 0.2015 0.0
H153 H 0.45903 0.73252 0.25554 0.0
H154 H 0.48835 0.65768 0.34227 0.0
H155 H 0.26665 0.58965 0.37374 0.0
C156 C 0.2028 0.75511 0.1756 0.0
C157 C 0.23452 0.80353 0.13104 0.0
C158 C 0.30844 0.82069 0.13117 0.0
C159 C 0.35028 0.78948 0.17427 0.0
C160 C 0.31723 0.74188 0.21731 0.0
C161 C 0.24521 0.72514 0.21879 0.0
C162 C 0.22287 0.67339 0.2709 0.0
C163 C 0.17803 0.70145 0.32366 0.0
C164 C 0.18408 0.60841 0.23975 0.0
C165 C 0.29379 0.66329 0.29835 0.0
C166 C 0.34737 0.70301 0.26622 0.0
C167 C 0.41755 0.70149 0.28124 0.0
C168 C 0.43356 0.65844 0.33053 0.0
C169 C 0.3797 0.61771 0.36492 0.0
C170 C 0.30881 0.62048 0.34868 0.0
H171 H 0.17531 0.72423 0.868 0.0
H172 H 0.16725 0.90936 0.76535 0.0
H173 H 0.24876 0.8764 0.68144 0.0
H174 H 0.356 0.72726 0.84986 0.0
H175 H 0.35217 0.638 0.84028 0.0
H176 H 0.28581 0.67139 0.88671 0.0
H177 H 0.18767 0.60713 0.81227 0.0
H178 H 0.25358 0.57151 0.76735 0.0
H179 H 0.19312 0.61614 0.7243 0.0
H180 H 0.33601 0.82258 0.61028 0.0
H181 H 0.4112 0.74892 0.55543 0.0
H182 H 0.37111 0.60806 0.71466 0.0
C183 C 0.18833 0.75633 0.82623 0.0
C184 C 0.16333 0.81813 0.8216 0.0
C185 C 0.18448 0.86082 0.76838 0.0
C186 C 0.23135 0.84286 0.72105 0.0
C187 C 0.25774 0.78274 0.72863 0.0
C188 C 0.23647 0.74002 0.77978 0.0
C189 C 0.2756 0.68056 0.77984 0.0
C190 C 0.32001 0.67928 0.84292 0.0
C191 C 0.22446 0.61497 0.77033 0.0
C192 C 0.3216 0.69592 0.72046 0.0
C193 C 0.31083 0.75484 0.69114 0.0
C194 C 0.34523 0.77657 0.63321 0.0
C195 C 0.38874 0.73506 0.60283 0.0
C196 C 0.39742 0.67305 0.63093 0.0
C197 C 0.36594 0.65541 0.69207 0.0
H198 H 0.20628 0.22348 0.9126 0.0
H199 H 0.18467 0.02285 0.82947 0.0
H200 H 0.27135 0.06255 0.74424 0.0
H201 H 0.20299 0.30415 0.77149 0.0
H202 H 0.26601 0.37618 0.79374 0.0
H203 H 0.21679 0.32924 0.85655 0.0
H204 H 0.33213 0.31068 0.91546 0.0
H205 H 0.38205 0.35849 0.85293 0.0
H206 H 0.39796 0.27476 0.87044 0.0
H207 H 0.34232 0.1293 0.65642 0.0
H208 H 0.39092 0.21571 0.57678 0.0
H209 H 0.36369 0.37081 0.7193 0.0
C210 C 0.22139 0.18743 0.87769 0.0
C211 C 0.18883 0.12033 0.87727 0.0
C212 C 0.20956 0.07453 0.83077 0.0
C213 C 0.25879 0.09663 0.78229 0.0
C214 C 0.2875 0.16421 0.78213 0.0
C215 C 0.27026 0.20861 0.82951 0.0
C216 C 0.30094 0.27984 0.81464 0.0
C217 C 0.24324 0.32491 0.80871 0.0
C218 C 0.35659 0.30755 0.86644 0.0
C219 C 0.33408 0.26938 0.74919 0.0
C220 C 0.32767 0.2024 0.73171 0.0
C221 C 0.34903 0.18175 0.67028 0.0
C222 C 0.37635 0.231 0.62535 0.0
C223 C 0.38038 0.29965 0.642 0.0
C224 C 0.36085 0.31859 0.70526 0.0
H225 H 0.86946 0.18752 0.77584 0.0
H226 H 0.84038 0.3064 0.94919 0.0
H227 H 0.77862 0.38139 0.88124 0.0
H228 H 0.8986 0.33042 0.66045 0.0
H229 H 0.85384 0.28097 0.59424 0.0
H230 H 0.90057 0.24156 0.65614 0.0
H231 H 0.78734 0.15918 0.67953 0.0
H232 H 0.73996 0.19904 0.61869 0.0
H233 H 0.70845 0.1918 0.70187 0.0
H234 H 0.70504 0.43242 0.79576 0.0
H235 H 0.64174 0.4657 0.69743 0.0
H236 H 0.72849 0.31836 0.57967 0.0
C237 C 0.85175 0.23054 0.79897 0.0
C238 C 0.85983 0.24198 0.86726 0.0
C239 C 0.83541 0.29786 0.89657 0.0
C240 C 0.79997 0.34022 0.85845 0.0
C241 C 0.79098 0.32643 0.79119 0.0
C242 C 0.8179 0.2739 0.76151 0.0
C243 C 0.80032 0.26862 0.68883 0.0
C244 C 0.86732 0.28117 0.64748 0.0
C245 C 0.75641 0.20064 0.67125 0.0
C246 C 0.75741 0.32508 0.68237 0.0
C247 C 0.75195 0.35763 0.74192 0.0
C248 C 0.71018 0.40814 0.74871 0.0
C249 C 0.674 0.4263 0.69298 0.0
C250 C 0.68089 0.39464 0.63149 0.0
C251 C 0.7233 0.34377 0.62619 0.0
H252 H 0.76427 0.86014 0.8506 0.0
H253 H 0.98038 0.82683 0.82828 0.0
H254 H 0.94101 0.73152 0.7533 0.0
H255 H 0.68262 0.68391 0.84133 0.0
H256 H 0.60824 0.70281 0.79461 0.0
H257 H 0.65249 0.76361 0.85226 0.0
H258 H 0.67196 0.85129 0.75969 0.0
H259 H 0.62766 0.79089 0.702 0.0
H260 H 0.71542 0.8314 0.68541 0.0
H261 H 0.87954 0.64604 0.67473 0.0
H262 H 0.80173 0.57962 0.59387 0.0
H263 H 0.62517 0.66969 0.6653 0.0
C264 C 0.80346 0.83243 0.83067 0.0
C265 C 0.87561 0.85052 0.84624 0.0
C266 C 0.92489 0.81317 0.81835 0.0
C267 C 0.90294 0.75901 0.77555 0.0
C268 C 0.8315 0.74281 0.76119 0.0
C269 C 0.78248 0.77849 0.78778 0.0
C270 C 0.70949 0.75397 0.76074 0.0
C271 C 0.66031 0.7243 0.81551 0.0
C272 C 0.67941 0.81023 0.72482 0.0
C273 C 0.72539 0.70008 0.71324 0.0
C274 C 0.79595 0.6939 0.71504 0.0
C275 C 0.82416 0.65007 0.67326 0.0
C276 C 0.77952 0.61276 0.62733 0.0
C277 C 0.70743 0.61967 0.62318 0.0
C278 C 0.6798 0.66276 0.66787 0.0
loop_
_geom_bond_atom_site_label_1
_geom_bond_atom_site_label_2
_geom_bond_distance
_geom_bond_site_symmetry_2
_ccdc_geom_bond_type
C0 O27 1.312 . S
C0 O28 1.208 . S
C1 O22 1.331 . S
C1 O25 1.244 . S
C2 O24 1.264 . S
C2 O26 1.273 . S
Mg3 O5 1.936 . S
Mg3 O12 2.081 . S
Mg3 O14 2.023 1_556 S
Mg3 O18 2.031 1_655 S
Mg3 O27 2.291 1_656 S
Mg4 O5 1.963 . S
Mg4 O15 1.942 . S
Mg4 O16 1.955 1_556 S
Mg4 O23 1.986 1_545 S
O5 Mg3 1.936 . S
O5 Mg4 1.963 . S
O5 Mg6 1.915 1_656 S
Mg6 O5 1.915 1_454 S
Mg6 O7 1.915 1_545 S
Mg6 O11 2.010 1_445 S
Mg6 O17 2.117 1_554 S
Mg6 O21 2.010 1_444 S
Mg6 O27 2.117 . S
O7 Mg6 1.915 1_565 S
O7 Mg8 1.936 . S
O7 Mg9 1.963 . S
Mg8 O7 1.936 . S
Mg8 O17 2.291 1_564 S
Mg8 O22 2.081 . S
Mg8 O24 2.023 1_554 S
Mg8 O28 2.031 1_565 S
Mg9 O7 1.963 . S
Mg9 O13 1.986 1_455 S
Mg9 O25 1.942 . S
Mg9 O26 1.955 1_554 S
C10 O21 1.191 . S
C10 O23 1.307 . S
O11 Mg6 2.010 1_665 S
O11 C30 1.191 . S
O12 Mg3 2.081 . S
O12 C20 1.331 . S
O13 Mg9 1.986 1_655 S
O13 C30 1.307 . S
O14 Mg3 2.023 1_554 S
O14 C29 1.264 . S
O15 Mg4 1.942 . S
O15 C20 1.244 . S
O16 Mg4 1.955 1_554 S
O16 C29 1.273 . S
O17 Mg6 2.117 1_556 S
O17 Mg8 2.291 1_546 S
O17 C19 1.312 . S
O18 Mg3 2.031 1_455 S
O18 C19 1.208 . S
C19 O17 1.312 . S
C19 O18 1.208 . S
C20 O12 1.331 . S
C20 O15 1.244 . S
O21 Mg6 2.010 1_666 S
O21 C10 1.191 . S
O22 C1 1.331 . S
O22 Mg8 2.081 . S
O23 Mg4 1.986 1_565 S
O23 C10 1.307 . S
O24 C2 1.264 . S
O24 Mg8 2.023 1_556 S
O25 C1 1.244 . S
O25 Mg9 1.942 . S
O26 C2 1.273 . S
O26 Mg9 1.955 1_556 S
O27 C0 1.312 . S
O27 Mg3 2.291 1_454 S
O27 Mg6 2.117 . S
O28 C0 1.208 . S
O28 Mg8 2.031 1_545 S
C29 O14 1.264 . S
C29 O16 1.273 . S
C30 O11 1.191 . S
C30 O13 1.307 . S
Fe31 O32 1.886 . S
Fe31 O35 1.715 . S
Fe31 O40 2.077 . S
Fe31 O45 1.935 . S
Fe31 O51 2.077 . S
Fe31 O60 1.935 . S
O32 Fe31 1.886 . S
O32 Fe34 1.715 . S
Fe33 O35 1.886 . S
Fe33 O36 1.715 . S
Fe33 O43 1.935 . S
Fe33 O44 2.077 . S
Fe33 O50 1.935 . S
Fe33 O59 2.077 . S
Fe34 O32 1.715 . S
Fe34 O37 1.886 . S
Fe34 O41 1.935 . S
Fe34 O46 2.077 . S
Fe34 O52 1.935 . S
Fe34 O56 2.077 . S
O35 Fe31 1.715 . S
O35 Fe33 1.886 . S
O36 Fe33 1.715 . S
O36 Fe38 1.886 . S
O37 Fe34 1.886 . S
O37 Fe38 1.715 . S
Fe38 O36 1.886 . S
Fe38 O37 1.715 . S
Fe38 O42 2.077 . S
Fe38 O47 1.935 . S
Fe38 O49 2.077 . S
Fe38 O57 1.935 . S
C39 O51 1.381 . S
C39 O52 1.421 . S
O40 Fe31 2.077 . S
O40 C53 1.381 . S
O41 Fe34 1.935 . S
O41 C53 1.421 . S
O42 Fe38 2.077 . S
O42 C58 1.381 . S
O43 Fe33 1.935 . S
O43 C58 1.421 . S
O44 Fe33 2.077 . S
O44 C48 1.381 . S
O45 Fe31 1.935 . S
O45 C48 1.421 . S
O46 Fe34 2.077 . S
O46 C54 1.381 . S
O47 Fe38 1.935 . S
O47 C54 1.421 . S
C48 O44 1.381 . S
C48 O45 1.421 . S
O49 Fe38 2.077 . S
O49 C61 1.381 . S
O50 Fe33 1.935 . S
O50 C61 1.421 . S
O51 Fe31 2.077 . S
O51 C39 1.381 . S
O52 Fe34 1.935 . S
O52 C39 1.421 . S
C53 O40 1.381 . S
C53 O41 1.421 . S
C54 O46 1.381 . S
C54 O47 1.421 . S
C55 O56 1.381 . S
C55 O57 1.421 . S
O56 Fe34 2.077 . S
O56 C55 1.381 . S
O57 Fe38 1.935 . S
O57 C55 1.421 . S
C58 O42 1.381 . S
C58 O43 1.421 . S
O59 Fe33 2.077 . S
O59 C62 1.381 . S
O60 Fe31 1.935 . S
O60 C62 1.421 . S
C61 O49 1.381 . S
C61 O50 1.421 . S
C62 O59 1.381 . S
C62 O60 1.421 . S
H63 C75 0.930 . S
H64 C77 0.930 . S
H65 C78 0.930 . S
H66 C82 0.959 . S
H67 C82 0.959 . S
H68 C82 0.961 . S
H69 C83 0.960 . S
H70 C83 0.961 . S
H71 C83 0.959 . S
H72 C86 0.929 . S
H73 C87 0.931 . S
H74 C89 0.930 . S
C75 H63 0.930 . S
C75 C76 1.399 . S
C75 C80 1.399 . S
C76 C75 1.399 . S
C76 C77 1.376 . S
C77 H64 0.930 . S
C77 C76 1.376 . S
C77 C78 1.388 . S
C78 H65 0.930 . S
C78 C77 1.388 . S
C78 C79 1.390 . S
C79 C78 1.390 . S
C79 C80 1.394 . S
C79 C85 1.465 . S
C80 C75 1.399 . S
C80 C79 1.394 . S
C80 C81 1.516 . S
C81 C80 1.516 . S
C81 C82 1.502 . S
C81 C83 1.561 . S
C81 C84 1.526 . S
C82 H66 0.959 . S
C82 H67 0.959 . S
C82 H68 0.961 . S
C82 C81 1.502 . S
C83 H69 0.960 . S
C83 H70 0.961 . S
C83 H71 0.959 . S
C83 C81 1.561 . S
C84 C81 1.526 . S
C84 C85 1.396 . S
C84 C89 1.390 . S
C85 C79 1.465 . S
C85 C84 1.396 . S
C85 C86 1.399 . S
C86 H72 0.929 . S
C86 C85 1.399 . S
C86 C87 1.385 . S
C87 H73 0.931 . S
C87 C86 1.385 . S
C87 C88 1.389 . S
C88 C87 1.389 . S
C88 C89 1.387 . S
C89 H74 0.930 . S
C89 C84 1.390 . S
C89 C88 1.387 . S
H90 C102 0.930 . S
H91 C104 0.930 . S
H92 C105 0.930 . S
H93 C109 0.959 . S
H94 C109 0.959 . S
H95 C109 0.961 . S
H96 C110 0.960 . S
H97 C110 0.961 . S
H98 C110 0.959 . S
H99 C113 0.929 . S
H100 C114 0.931 . S
H101 C116 0.930 . S
C102 H90 0.930 . S
C102 C103 1.399 . S
C102 C107 1.399 . S
C103 C102 1.399 . S
C103 C104 1.376 . S
C104 H91 0.930 . S
C104 C103 1.376 . S
C104 C105 1.388 . S
C105 H92 0.930 . S
C105 C104 1.388 . S
C105 C106 1.390 . S
C106 C105 1.390 . S
C106 C107 1.394 . S
C106 C112 1.465 . S
C107 C102 1.399 . S
C107 C106 1.394 . S
C107 C108 1.516 . S
C108 C107 1.516 . S
C108 C109 1.502 . S
C108 C110 1.561 . S
C108 C111 1.526 . S
C109 H93 0.959 . S
C109 H94 0.959 . S
C109 H95 0.961 . S
C109 C108 1.502 . S
C110 H96 0.960 . S
C110 H97 0.961 . S
C110 H98 0.959 . S
C110 C108 1.561 . S
C111 C108 1.526 . S
C111 C112 1.396 . S
C111 C116 1.390 . S
C112 C106 1.465 . S
C112 C111 1.396 . S
C112 C113 1.399 . S
C113 H99 0.929 . S
C113 C112 1.399 . S
C113 C114 1.385 . S
C114 H100 0.931 . S
C114 C113 1.385 . S
C114 C115 1.389 . S
C115 C114 1.389 . S
C115 C116 1.387 . S
C116 H101 0.930 . S
C116 C111 1.390 . S
C116 C115 1.387 . S
H117 C129 0.930 . S
H118 C131 0.930 . S
H119 C132 0.930 . S
H120 C136 0.959 . S
H121 C136 0.959 . S
H122 C136 0.961 . S
H123 C137 0.960 . S
H124 C137 0.961 . S
H125 C137 0.959 . S
H126 C140 0.929 . S
H127 C141 0.931 . S
H128 C143 0.930 . S
C129 H117 0.930 . S
C129 C130 1.399 . S
C129 C134 1.399 . S
C130 C129 1.399 . S
C130 C131 1.376 . S
C131 H118 0.930 . S
C131 C130 1.376 . S
C131 C132 1.388 . S
C132 H119 0.930 . S
C132 C131 1.388 . S
C132 C133 1.390 . S
C133 C132 1.390 . S
C133 C134 1.394 . S
C133 C139 1.465 . S
C134 C129 1.399 . S
C134 C133 1.394 . S
C134 C135 1.516 . S
C135 C134 1.516 . S
C135 C136 1.502 . S
C135 C137 1.561 . S
C135 C138 1.526 . S
C136 H120 0.959 . S
C136 H121 0.959 . S
C136 H122 0.961 . S
C136 C135 1.502 . S
C137 H123 0.960 . S
C137 H124 0.961 . S
C137 H125 0.959 . S
C137 C135 1.561 . S
C138 C135 1.526 . S
C138 C139 1.396 . S
C138 C143 1.390 . S
C139 C133 1.465 . S
C139 C138 1.396 . S
C139 C140 1.399 . S
C140 H126 0.929 . S
C140 C139 1.399 . S
C140 C141 1.385 . S
C141 H127 0.931 . S
C141 C140 1.385 . S
C141 C142 1.389 . S
C142 C141 1.389 . S
C142 C143 1.387 . S
C143 H128 0.930 . S
C143 C138 1.390 . S
C143 C142 1.387 . S
H144 C156 0.930 . S
H145 C158 0.930 . S
H146 C159 0.930 . S
H147 C163 0.959 . S
H148 C163 0.959 . S
H149 C163 0.961 . S
H150 C164 0.960 . S
H151 C164 0.961 . S
H152 C164 0.959 . S
H153 C167 0.929 . S
H154 C168 0.931 . S
H155 C170 0.930 . S
C156 H144 0.930 . S
C156 C157 1.399 . S
C156 C161 1.399 . S
C157 C156 1.399 . S
C157 C158 1.376 . S
C158 H145 0.930 . S
C158 C157 1.376 . S
C158 C159 1.388 . S
C159 H146 0.930 . S
C159 C158 1.388 . S
C159 C160 1.390 . S
C160 C159 1.390 . S
C160 C161 1.394 . S
C160 C166 1.465 . S
C161 C156 1.399 . S
C161 C160 1.394 . S
C161 C162 1.516 . S
C162 C161 1.516 . S
C162 C163 1.502 . S
C162 C164 1.561 . S
C162 C165 1.526 . S
C163 H147 0.959 . S
C163 H148 0.959 . S
C163 H149 0.961 . S
C163 C162 1.502 . S
C164 H150 0.960 . S
C164 H151 0.961 . S
C164 H152 0.959 . S
C164 C162 1.561 . S
C165 C162 1.526 . S
C165 C166 1.396 . S
C165 C170 1.390 . S
C166 C160 1.465 . S
C166 C165 1.396 . S
C166 C167 1.399 . S
C167 H153 0.929 . S
C167 C166 1.399 . S
C167 C168 1.385 . S
C168 H154 0.931 . S
C168 C167 1.385 . S
C168 C169 1.389 . S
C169 C168 1.389 . S
C169 C170 1.387 . S
C170 H155 0.930 . S
C170 C165 1.390 . S
C170 C169 1.387 . S
H171 C183 0.930 . S
H172 C185 0.930 . S
H173 C186 0.930 . S
H174 C190 0.959 . S
H175 C190 0.959 . S
H176 C190 0.961 . S
H177 C191 0.960 . S
H178 C191 0.961 . S
H179 C191 0.959 . S
H180 C194 0.929 . S
H181 C195 0.931 . S
H182 C197 0.930 . S
C183 H171 0.930 . S
C183 C184 1.399 . S
C183 C188 1.399 . S
C184 C183 1.399 . S
C184 C185 1.376 . S
C185 H172 0.930 . S
C185 C184 1.376 . S
C185 C186 1.388 . S
C186 H173 0.930 . S
C186 C185 1.388 . S
C186 C187 1.390 . S
C187 C186 1.390 . S
C187 C188 1.394 . S
C187 C193 1.465 . S
C188 C183 1.399 . S
C188 C187 1.394 . S
C188 C189 1.516 . S
C189 C188 1.516 . S
C189 C190 1.502 . S
C189 C191 1.561 . S
C189 C192 1.526 . S
C190 H174 0.959 . S
C190 H175 0.959 . S
C190 H176 0.961 . S
C190 C189 1.502 . S
C191 H177 0.960 . S
C191 H178 0.961 . S
C191 H179 0.959 . S
C191 C189 1.561 . S
C192 C189 1.526 . S
C192 C193 1.396 . S
C192 C197 1.390 . S
C193 C187 1.465 . S
C193 C192 1.396 . S
C193 C194 1.399 . S
C194 H180 0.929 . S
C194 C193 1.399 . S
C194 C195 1.385 . S
C195 H181 0.931 . S
C195 C194 1.385 . S
C195 C196 1.389 . S
C196 C195 1.389 . S
C196 C197 1.387 . S
C197 H182 0.930 . S
C197 C192 1.390 . S
C197 C196 1.387 . S
H198 C210 0.930 . S
H199 C212 0.930 . S
H200 C213 0.930 . S
H201 C217 0.959 . S
H202 C217 0.959 . S
H203 C217 0.961 . S
H204 C218 0.960 . S
H205 C218 0.961 . S
H206 C218 0.959 . S
H207 C221 0.929 . S
H208 C222 0.931 . S
H209 C224 0.930 . S
C210 H198 0.930 . S
C210 C211 1.399 . S
C210 C215 1.399 . S
C211 C210 1.399 . S
C211 C212 1.376 . S
C212 H199 0.930 . S
C212 C211 1.376 . S
C212 C213 1.388 . S
C213 H200 0.930 . S
C213 C212 1.388 . S
C213 C214 1.390 . S
C214 C213 1.390 . S
C214 C215 1.394 . S
C214 C220 1.465 . S
C215 C210 1.399 . S
C215 C214 1.394 . S
C215 C216 1.516 . S
C216 C215 1.516 . S
C216 C217 1.502 . S
C216 C218 1.561 . S
C216 C219 1.526 . S
C217 H201 0.959 . S
C217 H202 0.959 . S
C217 H203 0.961 . S
C217 C216 1.502 . S
C218 H204 0.960 . S
C218 H205 0.961 . S
C218 H206 0.959 . S
C218 C216 1.561 . S
C219 C216 1.526 . S
C219 C220 1.396 . S
C219 C224 1.390 . S
C220 C214 1.465 . S
C220 C219 1.396 . S
C220 C221 1.399 . S
C221 H207 0.929 . S
C221 C220 1.399 . S
C221 C222 1.385 . S
C222 H208 0.931 . S
C222 C221 1.385 . S
C222 C223 1.389 . S
C223 C222 1.389 . S
C223 C224 1.387 . S
C224 H209 0.930 . S
C224 C219 1.390 . S
C224 C223 1.387 . S
H225 C237 0.930 . S
H226 C239 0.930 . S
H227 C240 0.930 . S
H228 C244 0.959 . S
H229 C244 0.959 . S
H230 C244 0.961 . S
H231 C245 0.960 . S
H232 C245 0.961 . S
H233 C245 0.959 . S
H234 C248 0.929 . S
H235 C249 0.931 . S
H236 C251 0.930 . S
C237 H225 0.930 . S
C237 C238 1.399 . S
C237 C242 1.399 . S
C238 C237 1.399 . S
C238 C239 1.376 . S
C239 H226 0.930 . S
C239 C238 1.376 . S
C239 C240 1.388 . S
C240 H227 0.930 . S
C240 C239 1.388 . S
C240 C241 1.390 . S
C241 C240 1.390 . S
C241 C242 1.394 . S
C241 C247 1.465 . S
C242 C237 1.399 . S
C242 C241 1.394 . S
C242 C243 1.516 . S
C243 C242 1.516 . S
C243 C244 1.502 . S
C243 C245 1.561 . S
C243 C246 1.526 . S
C244 H228 0.959 . S
C244 H229 0.959 . S
C244 H230 0.961 . S
C244 C243 1.502 . S
C245 H231 0.960 . S
C245 H232 0.961 . S
C245 H233 0.959 . S
C245 C243 1.561 . S
C246 C243 1.526 . S
C246 C247 1.396 . S
C246 C251 1.390 . S
C247 C241 1.465 . S
C247 C246 1.396 . S
C247 C248 1.399 . S
C248 H234 0.929 . S
C248 C247 1.399 . S
C248 C249 1.385 . S
C249 H235 0.931 . S
C249 C248 1.385 . S
C249 C250 1.389 . S
C250 C249 1.389 . S
C250 C251 1.387 . S
C251 H236 0.930 . S
C251 C246 1.390 . S
C251 C250 1.387 . S
H252 C264 0.930 . S
H253 C266 0.930 . S
H254 C267 0.930 . S
H255 C271 0.959 . S
H256 C271 0.959 . S
H257 C271 0.961 . S
H258 C272 0.960 . S
H259 C272 0.961 . S
H260 C272 0.959 . S
H261 C275 0.929 . S
H262 C276 0.931 . S
H263 C278 0.930 . S
C264 H252 0.930 . S
C264 C265 1.399 . S
C264 C269 1.399 . S
C265 C264 1.399 . S
C265 C266 1.376 . S
C266 H253 0.930 . S
C266 C265 1.376 . S
C266 C267 1.388 . S
C267 H254 0.930 . S
C267 C266 1.388 . S
C267 C268 1.390 . S
C268 C267 1.390 . S
C268 C269 1.394 . S
C268 C274 1.465 . S
C269 C264 1.399 . S
C269 C268 1.394 . S
C269 C270 1.516 . S
C270 C269 1.516 . S
C270 C271 1.502 . S
C270 C272 1.561 . S
C270 C273 1.526 . S
C271 H255 0.959 . S
C271 H256 0.959 . S
C271 H257 0.961 . S
C271 C270 1.502 . S
C272 H258 0.960 . S
C272 H259 0.961 . S
C272 H260 0.959 . S
C272 C270 1.561 . S
C273 C270 1.526 . S
C273 C274 1.396 . S
C273 C278 1.390 . S
C274 C268 1.465 . S
C274 C273 1.396 . S
C274 C275 1.399 . S
C275 H261 0.929 . S
C275 C274 1.399 . S
C275 C276 1.385 . S
C276 H262 0.931 . S
C276 C275 1.385 . S
C276 C277 1.389 . S
C277 C276 1.389 . S
C277 C278 1.387 . S
C278 H263 0.930 . S
C278 C273 1.390 . S
C278 C277 1.387 . S
C76 C0 1.328 . S
C88 C54 1.407 . S
C103 C29 1.570 . S
C115 C58 1.587 . S
C130 C30 1.358 . S
C142 C48 1.292 . S
C157 C1 1.534 . S
C169 C53 1.498 . S
C184 C2 1.587 . S
C196 C39 1.582 . S
C223 C55 1.345 . S
C211 C19 1.398 . S
C238 C20 1.489 . S
C250 C61 1.540 . S
C277 C62 1.336 . S
C265 C10 1.363 . S
