# Generated by pormake.
# Topology rtl, (3,6)-cn, num edge types: 1
# Building blocks:
#     Node 0, Type 0, BuildingBlock: WUSLED_clean_sbu_0, # of connection points: 3
#     Node 1, Type 0, BuildingBlock: WUSLED_clean_sbu_0, # of connection points: 3
#     Node 2, Type 0, BuildingBlock: WUSLED_clean_sbu_0, # of connection points: 3
#     Node 3, Type 0, BuildingBlock: WUSLED_clean_sbu_0, # of connection points: 3
#     Node 4, Type 1, BuildingBlock: FUNLAD_clean_sbu_0, # of connection points: 6
#     Node 5, Type 1, BuildingBlock: FUNLAD_clean_sbu_0, # of connection points: 6
#     Edge 6, Type (0, 1), BuildingBlock: TEMPAE_clean_linker_10, # of connection points: 2
#     Edge 7, Type (0, 1), BuildingBlock: TEMPAE_clean_linker_10, # of connection points: 2
#     Edge 8, Type (0, 1), BuildingBlock: TEMPAE_clean_linker_10, # of connection points: 2
#     Edge 9, Type (0, 1), BuildingBlock: TEMPAE_clean_linker_10, # of connection points: 2
#     Edge 10, Type (0, 1), BuildingBlock: TEMPAE_clean_linker_10, # of connection points: 2
#     Edge 11, Type (0, 1), BuildingBlock: TEMPAE_clean_linker_10, # of connection points: 2
#     Edge 12, Type (0, 1), BuildingBlock: TEMPAE_clean_linker_10, # of connection points: 2
#     Edge 13, Type (0, 1), BuildingBlock: TEMPAE_clean_linker_10, # of connection points: 2
#     Edge 14, Type (0, 1), BuildingBlock: TEMPAE_clean_linker_10, # of connection points: 2
#     Edge 15, Type (0, 1), BuildingBlock: TEMPAE_clean_linker_10, # of connection points: 2
#     Edge 16, Type (0, 1), BuildingBlock: TEMPAE_clean_linker_10, # of connection points: 2
#     Edge 17, Type (0, 1), BuildingBlock: TEMPAE_clean_linker_10, # of connection points: 2
# Relax obj value: 0.025
# Max RMSD: 0.086
# Mean RMSD: 0.073
data_MOF--net-rtl--node1-WUSLED_clean_sbu_0--node2-FUNLAD_clean_sbu_0--edge1-TEMPAE_clean_linker_10
_symmetry_space_group_name_H-M    P1
_symmetry_Int_Tables_number       1
_symmetry_cell_setting            triclinic
loop_
_symmetry_equiv_pos_as_xyz
'x, y, z'
_cell_length_a     52.26522
_cell_length_b     43.263485
_cell_length_c     30.324427
_cell_angle_alpha  90.304548
_cell_angle_beta   91.166215
_cell_angle_gamma 90.373042
loop_
_atom_site_label
_atom_site_type_symbol
_atom_site_fract_x
_atom_site_fract_y
_atom_site_fract_z
_atom_type_partial_charge
C0 C 0.15293 0.8233 0.14558 0.0
C1 C 0.14287 0.853 0.13941 0.0
C2 C 0.12432 0.85177 0.21249 0.0
C3 C 0.12888 0.86716 0.17259 0.0
C4 C 0.13422 0.82182 0.21828 0.0
C5 C 0.14843 0.80776 0.18514 0.0
U6 U 0.16606 0.81234 0.02442 0.0
O7 O 0.20206 0.81038 0.98835 0.0
O8 O 0.17544 0.77093 0.98555 0.0
C9 C 0.19806 0.78178 0.97501 0.0
C10 C 0.16769 0.80826 0.11066 0.0
C11 C 0.21973 0.76075 0.98178 0.0
C12 C 0.24947 0.73323 0.02986 0.0
C13 C 0.22805 0.75223 0.02426 0.0
C14 C 0.25421 0.73095 0.95058 0.0
C15 C 0.26294 0.7226 0.99304 0.0
C16 C 0.23282 0.74985 0.94505 0.0
C17 C 0.12405 0.85915 0.9432 0.0
C18 C 0.11137 0.84867 0.86687 0.0
C19 C 0.11054 0.90107 0.89529 0.0
C20 C 0.1193 0.89061 0.93635 0.0
C21 C 0.10614 0.8802 0.86016 0.0
C22 C 0.1203 0.83823 0.908 0.0
C23 C 0.13197 0.84888 0.9877 0.0
O24 O 0.15467 0.78879 0.08533 0.0
O25 O 0.18277 0.82668 0.08842 0.0
O26 O 0.15456 0.85863 1.00189 0.0
O27 O 0.12724 0.81987 0.99759 0.0
H28 H 0.14593 0.86536 0.10896 0.0
H29 H 0.12195 0.89039 0.16713 0.0
H30 H 0.13078 0.80907 0.24824 0.0
H31 H 0.15583 0.7847 0.19034 0.0
H32 H 0.25582 0.72743 0.06299 0.0
H33 H 0.21819 0.76058 0.05301 0.0
H34 H 0.26388 0.72278 0.92153 0.0
H35 H 0.22662 0.75619 0.91202 0.0
H36 H 0.10802 0.83194 0.84066 0.0
H37 H 0.10722 0.92557 0.89109 0.0
H38 H 0.12215 0.90715 0.96299 0.0
H39 H 0.1239 0.8138 0.91238 0.0
C40 C 0.65226 0.69665 0.65453 0.0
C41 C 0.64183 0.66688 0.64887 0.0
C42 C 0.62459 0.66864 0.72288 0.0
C43 C 0.62832 0.65295 0.68276 0.0
C44 C 0.63487 0.69865 0.7282 0.0
C45 C 0.64862 0.71248 0.69433 0.0
U46 U 0.6632 0.70575 0.53271 0.0
O47 O 0.67197 0.74656 0.49247 0.0
O48 O 0.69843 0.70737 0.49453 0.0
C49 C 0.69433 0.73574 0.48096 0.0
C50 C 0.66642 0.71141 0.61873 0.0
C51 C 0.71618 0.75699 0.48654 0.0
C52 C 0.74769 0.78374 0.53305 0.0
C53 C 0.72596 0.76479 0.5286 0.0
C54 C 0.74976 0.78752 0.45348 0.0
C55 C 0.76 0.79506 0.49548 0.0
C56 C 0.72807 0.76864 0.4491 0.0
C57 C 0.62029 0.65714 0.45407 0.0
C58 C 0.60986 0.61401 0.40514 0.0
C59 C 0.60455 0.66648 0.37927 0.0
C60 C 0.61341 0.67773 0.42019 0.0
C61 C 0.60248 0.63447 0.37136 0.0
C62 C 0.61855 0.62525 0.44606 0.0
C63 C 0.62857 0.6681 0.49832 0.0
O64 O 0.68112 0.69287 0.59606 0.0
O65 O 0.65294 0.73024 0.59371 0.0
O66 O 0.62394 0.69717 0.50808 0.0
O67 O 0.65129 0.65889 0.51196 0.0
H68 H 0.64423 0.6543 0.61825 0.0
H69 H 0.62109 0.62966 0.67765 0.0
H70 H 0.63207 0.7116 0.75836 0.0
H71 H 0.65631 0.7356 0.69912 0.0
H72 H 0.75521 0.78891 0.56582 0.0
H73 H 0.71702 0.75585 0.55787 0.0
H74 H 0.75853 0.79626 0.42394 0.0
H75 H 0.72072 0.76285 0.41639 0.0
H76 H 0.60898 0.58923 0.39997 0.0
H77 H 0.5988 0.68288 0.35415 0.0
H78 H 0.61458 0.70249 0.42539 0.0
H79 H 0.62379 0.60894 0.47165 0.0
C80 C 0.87141 0.19375 0.13852 0.0
C81 C 0.89591 0.18199 0.131 0.0
C82 C 0.89901 0.164 0.20696 0.0
C83 C 0.90963 0.16739 0.16494 0.0
C84 C 0.87446 0.176 0.21428 0.0
C85 C 0.86082 0.19076 0.18035 0.0
U86 U 0.85887 0.20483 0.0163 0.0
O87 O 0.82286 0.20566 0.97763 0.0
O88 O 0.84842 0.2461 0.97796 0.0
C89 C 0.82601 0.23459 0.96581 0.0
C90 C 0.85643 0.208 0.10251 0.0
C91 C 0.80395 0.25478 0.97289 0.0
C92 C 0.77359 0.27927 0.02144 0.0
C93 C 0.79505 0.26062 0.01546 0.0
C94 C 0.76992 0.2866 0.9424 0.0
C95 C 0.76067 0.29235 0.98492 0.0
C96 C 0.79134 0.26798 0.93649 0.0
C97 C 0.90275 0.1604 0.93728 0.0
C98 C 0.91589 0.17146 0.86241 0.0
C99 C 0.91706 0.11895 0.88959 0.0
C100 C 0.9079 0.12906 0.93008 0.0
C101 C 0.92147 0.14004 0.85538 0.0
C102 C 0.90658 0.18157 0.90299 0.0
C103 C 0.89426 0.17021 0.98128 0.0
O104 O 0.86878 0.22841 0.07883 0.0
O105 O 0.84259 0.18857 0.07846 0.0
O106 O 0.87193 0.15935 0.99329 0.0
O107 O 0.89802 0.19936 0.99229 0.0
H108 H 0.90436 0.18392 0.09879 0.0
H109 H 0.92858 0.15881 0.15825 0.0
H110 H 0.86553 0.17341 0.24597 0.0
H111 H 0.84183 0.19946 0.18661 0.0
H112 H 0.76683 0.28298 0.05457 0.0
H113 H 0.80457 0.25053 0.04395 0.0
H114 H 0.76069 0.29669 0.91365 0.0
H115 H 0.79802 0.26377 0.90341 0.0
H116 H 0.91923 0.18835 0.8369 0.0
H117 H 0.92062 0.09451 0.88509 0.0
H118 H 0.90501 0.11233 0.95602 0.0
H119 H 0.90269 0.20591 0.90765 0.0
C120 C 0.3725 0.31815 0.38019 0.0
C121 C 0.3824 0.34822 0.38532 0.0
C122 C 0.39996 0.34612 0.31157 0.0
C123 C 0.39581 0.36213 0.35129 0.0
C124 C 0.39018 0.31584 0.30675 0.0
C125 C 0.37653 0.30203 0.34076 0.0
U126 U 0.36249 0.30893 0.5022 0.0
O127 O 0.32758 0.3075 0.54124 0.0
O128 O 0.35387 0.26814 0.54256 0.0
C129 C 0.33161 0.27904 0.55447 0.0
C130 C 0.35857 0.30336 0.41624 0.0
C131 C 0.30966 0.25797 0.54871 0.0
C132 C 0.27824 0.23146 0.50174 0.0
C133 C 0.30006 0.25022 0.50651 0.0
C134 C 0.27571 0.22776 0.58126 0.0
C135 C 0.26567 0.22027 0.5391 0.0
C136 C 0.29749 0.24647 0.58597 0.0
C137 C 0.40623 0.35727 0.5795 0.0
C138 C 0.41666 0.34823 0.65686 0.0
C139 C 0.42228 0.39927 0.62591 0.0
C140 C 0.41347 0.3883 0.58494 0.0
C141 C 0.42422 0.37933 0.66232 0.0
C142 C 0.40766 0.3373 0.61583 0.0
C143 C 0.39756 0.34643 0.53555 0.0
O144 O 0.37218 0.28443 0.44089 0.0
O145 O 0.34406 0.32189 0.43931 0.0
O146 O 0.37473 0.35573 0.52266 0.0
O147 O 0.40194 0.31728 0.52596 0.0
H148 H 0.37972 0.36104 0.41565 0.0
H149 H 0.40264 0.38562 0.35599 0.0
H150 H 0.39331 0.30266 0.27691 0.0
H151 H 0.36924 0.27868 0.33638 0.0
H152 H 0.27087 0.22634 0.46885 0.0
H153 H 0.30921 0.25906 0.47738 0.0
H154 H 0.26672 0.21914 0.61066 0.0
H155 H 0.30469 0.25224 0.61877 0.0
H156 H 0.4181 0.33218 0.68407 0.0
H157 H 0.42743 0.42348 0.62908 0.0
H158 H 0.41234 0.4041 0.55736 0.0
H159 H 0.40204 0.31325 0.61246 0.0
C160 C 0.03433 0.97216 0.44959 0.0
N161 N 0.06098 0.0525 0.51422 0.0
C162 C 0.08435 0.03882 0.51469 0.0
C163 C 0.10665 0.05673 0.5158 0.0
C164 C 0.10498 0.08911 0.5165 0.0
C165 C 0.0806 0.10265 0.51562 0.0
C166 C 0.05874 0.08382 0.51451 0.0
Zn167 Zn 0.02909 0.02474 0.5138 0.0
C168 C 0.98956 0.04415 0.44869 0.0
N169 N 0.96389 0.96454 0.51356 0.0
C170 C 0.96621 0.93323 0.5135 0.0
C171 C 0.94048 0.97813 0.51346 0.0
C172 C 0.91822 0.96012 0.51309 0.0
C173 C 0.91998 0.92774 0.51279 0.0
C174 C 0.94441 0.91431 0.51314 0.0
Zn175 Zn 0.99576 0.99235 0.51378 0.0
O176 O 0.04538 0.99641 0.46453 0.0
C177 C 0.03506 0.9733 0.57946 0.0
O178 O 0.01265 0.96441 0.46446 0.0
H179 H 0.93903 0.00305 0.51367 0.0
H180 H 0.08573 0.01389 0.51434 0.0
H181 H 0.985 0.9229 0.51354 0.0
O182 O 0.04599 0.99718 0.56419 0.0
O183 O 0.01328 0.96517 0.56379 0.0
H184 H 0.03997 0.09422 0.51421 0.0
O185 O 0.9796 0.02051 0.56337 0.0
O186 O 0.01226 0.05259 0.56318 0.0
O187 O 0.97865 0.02021 0.46387 0.0
O188 O 0.01158 0.05192 0.46372 0.0
C189 C 0.99074 0.04464 0.57852 0.0
H190 H 0.12502 0.0453 0.5158 0.0
H191 H 0.07841 0.12752 0.51659 0.0
H192 H 0.89982 0.97148 0.51346 0.0
H193 H 0.94666 0.88945 0.51241 0.0
C194 C 0.49129 0.47465 0.94663 0.0
N195 N 0.56057 0.46359 0.01715 0.0
C196 C 0.5578 0.43238 0.0134 0.0
C197 C 0.57932 0.41338 0.01208 0.0
C198 C 0.60395 0.4266 0.01453 0.0
C199 C 0.60619 0.45886 0.0188 0.0
C200 C 0.58419 0.47697 0.02007 0.0
Zn201 Zn 0.5289 0.49138 0.01728 0.0
C202 C 0.53602 0.54639 0.95871 0.0
N203 N 0.4638 0.55105 0.01705 0.0
C204 C 0.44025 0.53754 0.01354 0.0
C205 C 0.46642 0.58231 0.02022 0.0
C206 C 0.44483 0.60125 0.01967 0.0
C207 C 0.42027 0.58793 0.01583 0.0
C208 C 0.41819 0.55558 0.01291 0.0
Zn209 Zn 0.49552 0.52333 0.01718 0.0
O210 O 0.51255 0.46622 0.96356 0.0
C211 C 0.48841 0.46829 0.07567 0.0
O212 O 0.47996 0.49793 0.9627 0.0
H213 H 0.48531 0.5926 0.02292 0.0
H214 H 0.53887 0.4222 0.01099 0.0
H215 H 0.43854 0.51266 0.01116 0.0
O216 O 0.51056 0.46151 0.06218 0.0
O217 O 0.47767 0.49279 0.06185 0.0
H218 H 0.586 0.5018 0.02317 0.0
O219 O 0.51165 0.54817 0.0714 0.0
O220 O 0.54469 0.51711 0.07123 0.0
O221 O 0.51404 0.55343 0.97274 0.0
O222 O 0.5466 0.52167 0.97209 0.0
C223 C 0.53315 0.54008 0.08781 0.0
H224 H 0.57669 0.38865 0.00827 0.0
H225 H 0.62478 0.47002 0.02138 0.0
H226 H 0.44739 0.62609 0.02147 0.0
H227 H 0.39967 0.54425 0.01054 0.0
C228 C 0.22115 0.20679 0.56188 0.0
C229 C 0.24191 0.20132 0.53433 0.0
C230 C 0.1987 0.18892 0.55831 0.0
C231 C 0.19692 0.16498 0.52638 0.0
C232 C 0.21769 0.15949 0.49817 0.0
C233 C 0.23994 0.17775 0.50247 0.0
C234 C 0.17693 0.19556 0.58887 0.0
C235 C 0.21653 0.1341 0.46383 0.0
C236 C 0.14923 0.10016 0.54631 0.0
C237 C 0.12858 0.10854 0.51868 0.0
C238 C 0.17164 0.11817 0.54882 0.0
C239 C 0.17347 0.1453 0.52316 0.0
C240 C 0.15274 0.15389 0.49513 0.0
C241 C 0.13054 0.13541 0.49323 0.0
C242 C 0.19328 0.1083 0.57925 0.0
C243 C 0.15401 0.18262 0.4672 0.0
H244 H 0.22237 0.22529 0.58608 0.0
H245 H 0.256 0.1732 0.48137 0.0
H246 H 0.15933 0.20092 0.56939 0.0
H247 H 0.17273 0.17482 0.6089 0.0
H248 H 0.18124 0.21526 0.61154 0.0
H249 H 0.23406 0.13332 0.44375 0.0
H250 H 0.21405 0.1114 0.48009 0.0
H251 H 0.19973 0.13742 0.44144 0.0
H252 H 0.14772 0.07969 0.56657 0.0
H253 H 0.11481 0.14182 0.47139 0.0
H254 H 0.1971 0.12647 0.60454 0.0
H255 H 0.21107 0.10545 0.56034 0.0
H256 H 0.18904 0.08624 0.59629 0.0
H257 H 0.157 0.20326 0.48862 0.0
H258 H 0.13633 0.18596 0.44687 0.0
H259 H 0.17056 0.18132 0.44495 0.0
C260 C 0.28681 0.67886 0.029 0.0
C261 C 0.28621 0.70322 0.99864 0.0
C262 C 0.30848 0.65996 0.03356 0.0
C263 C 0.33007 0.66561 0.00723 0.0
C264 C 0.3297 0.69043 0.97699 0.0
C265 C 0.3078 0.7089 0.97307 0.0
C266 C 0.30811 0.63366 0.06606 0.0
C267 C 0.35238 0.69734 0.94849 0.0
C268 C 0.39504 0.63359 0.04192 0.0
C269 C 0.39697 0.60759 0.01432 0.0
C270 C 0.37327 0.65248 0.04035 0.0
C271 C 0.3529 0.64522 0.0105 0.0
C272 C 0.35462 0.61888 0.98284 0.0
C273 C 0.37662 0.60045 0.98502 0.0
C274 C 0.37214 0.68034 0.07043 0.0
C275 C 0.33334 0.61038 0.95048 0.0
H276 H 0.27012 0.67415 0.04856 0.0
H277 H 0.30765 0.72799 0.95007 0.0
H278 H 0.3102 0.61135 0.04834 0.0
H279 H 0.32454 0.63583 0.08965 0.0
H280 H 0.29014 0.63289 0.08499 0.0
H281 H 0.3492 0.71781 0.92716 0.0
H282 H 0.36969 0.70155 0.9695 0.0
H283 H 0.35639 0.67711 0.92713 0.0
H284 H 0.4105 0.63904 0.06509 0.0
H285 H 0.37806 0.58069 0.96312 0.0
H286 H 0.35499 0.67885 0.09129 0.0
H287 H 0.37033 0.70168 0.05051 0.0
H288 H 0.3894 0.68254 0.09226 0.0
H289 H 0.31506 0.60761 0.96804 0.0
H290 H 0.33728 0.58862 0.93229 0.0
H291 H 0.33065 0.62924 0.92621 0.0
C292 C 0.80428 0.80888 0.47187 0.0
C293 C 0.78368 0.81419 0.49983 0.0
C294 C 0.82661 0.82701 0.47485 0.0
C295 C 0.82844 0.85106 0.5066 0.0
C296 C 0.80784 0.85636 0.53527 0.0
C297 C 0.78571 0.83783 0.53157 0.0
C298 C 0.84819 0.82053 0.44381 0.0
C299 C 0.80906 0.88186 0.56945 0.0
C300 C 0.89489 0.88147 0.53754 0.0
C301 C 0.89644 0.90819 0.51168 0.0
C302 C 0.87279 0.86281 0.53657 0.0
C303 C 0.85172 0.87106 0.50907 0.0
C304 C 0.85311 0.89808 0.48308 0.0
C305 C 0.87544 0.91627 0.48466 0.0
C306 C 0.872 0.8342 0.56483 0.0
C307 C 0.8311 0.90759 0.45321 0.0
H308 H 0.80302 0.79031 0.44777 0.0
H309 H 0.76978 0.84225 0.55299 0.0
H310 H 0.85201 0.84124 0.42348 0.0
H311 H 0.866 0.81552 0.46292 0.0
H312 H 0.8439 0.80068 0.42142 0.0
H313 H 0.79172 0.88243 0.59001 0.0
H314 H 0.8261 0.87886 0.59139 0.0
H315 H 0.81114 0.90455 0.55298 0.0
H316 H 0.91089 0.87529 0.55894 0.0
H317 H 0.87661 0.93663 0.4641 0.0
H318 H 0.86906 0.81343 0.54368 0.0
H319 H 0.8556 0.83538 0.58742 0.0
H320 H 0.88985 0.83121 0.58481 0.0
H321 H 0.82723 0.88933 0.42809 0.0
H322 H 0.83497 0.92968 0.43598 0.0
H323 H 0.81347 0.91023 0.4726 0.0
C324 C 0.7163 0.30843 0.96213 0.0
C325 C 0.73752 0.31171 0.99093 0.0
C326 C 0.6945 0.32687 0.96675 0.0
C327 C 0.69382 0.34913 1.00108 0.0
C328 C 0.71504 0.35238 0.03056 0.0
C329 C 0.73663 0.33364 0.02513 0.0
C330 C 0.67224 0.32262 0.93471 0.0
C331 C 0.71506 0.3759 0.06752 0.0
C332 C 0.64792 0.4163 0.98636 0.0
C333 C 0.62717 0.40697 0.01187 0.0
C334 C 0.66981 0.39786 0.98294 0.0
C335 C 0.67103 0.36935 0.00558 0.0
C336 C 0.65025 0.35988 0.03167 0.0
C337 C 0.62857 0.37878 0.03446 0.0
C338 C 0.6915 0.40871 0.95461 0.0
C339 C 0.65087 0.32972 0.05646 0.0
H340 H 0.71664 0.29121 0.93607 0.0
H341 H 0.75304 0.33657 0.04723 0.0
H342 H 0.65465 0.31677 0.95286 0.0
H343 H 0.66854 0.34453 0.91691 0.0
H344 H 0.67569 0.3041 0.91006 0.0
H345 H 0.73278 0.37499 0.08831 0.0
H346 H 0.71323 0.39949 0.05369 0.0
H347 H 0.69835 0.37198 0.08882 0.0
H348 H 0.64686 0.43783 0.96832 0.0
H349 H 0.61276 0.3716 0.05469 0.0
H350 H 0.69448 0.39191 0.92746 0.0
H351 H 0.70955 0.40989 0.97447 0.0
H352 H 0.68785 0.43181 0.94003 0.0
H353 H 0.65286 0.31018 0.03297 0.0
H354 H 0.63335 0.32593 0.07589 0.0
H355 H 0.66775 0.32926 0.07923 0.0
C356 C 0.08856 0.88592 0.23736 0.0
C357 C 0.10963 0.8672 0.24799 0.0
C358 C 0.07545 0.90204 0.27016 0.0
C359 C 0.08335 0.89909 0.31486 0.0
C360 C 0.10407 0.87952 0.32603 0.0
C361 C 0.11705 0.86397 0.29249 0.0
C362 C 0.05352 0.92278 0.25687 0.0
C363 C 0.11293 0.87557 0.37336 0.0
C364 C 0.06841 0.96466 0.39387 0.0
C365 C 0.04672 0.9533 0.41518 0.0
C366 C 0.08041 0.94728 0.36113 0.0
C367 C 0.0707 0.91762 0.34966 0.0
C368 C 0.04892 0.9059 0.37121 0.0
C369 C 0.0371 0.92395 0.40354 0.0
C370 C 0.10342 0.96076 0.33861 0.0
C371 C 0.03819 0.87424 0.36021 0.0
H372 H 0.08231 0.88811 0.20324 0.0
H373 H 0.13346 0.8499 0.30112 0.0
H374 H 0.036 0.91607 0.27461 0.0
H375 H 0.05814 0.94703 0.2663 0.0
H376 H 0.04929 0.92188 0.22083 0.0
H377 H 0.12817 0.85792 0.37686 0.0
H378 H 0.12044 0.8979 0.38653 0.0
H379 H 0.0966 0.86871 0.39406 0.0
H380 H 0.07594 0.98735 0.40252 0.0
H381 H 0.02042 0.91495 0.41998 0.0
H382 H 0.09962 0.96213 0.30254 0.0
H383 H 0.12019 0.94551 0.34365 0.0
H384 H 0.10848 0.98424 0.35113 0.0
H385 H 0.03241 0.87307 0.32484 0.0
H386 H 0.02134 0.86833 0.38034 0.0
H387 H 0.05311 0.85648 0.36575 0.0
C388 C 0.61852 0.65686 0.80318 0.0
C389 C 0.61033 0.65345 0.75902 0.0
C390 C 0.60601 0.64134 0.83723 0.0
C391 C 0.585 0.62161 0.82686 0.0
C392 C 0.57629 0.61855 0.78255 0.0
C393 C 0.58892 0.63467 0.74927 0.0
C394 C 0.61569 0.64543 0.88416 0.0
C395 C 0.55401 0.59764 0.77012 0.0
C396 C 0.57057 0.55537 0.90434 0.0
C397 C 0.54896 0.56622 0.92617 0.0
C398 C 0.58254 0.57327 0.8722 0.0
C399 C 0.57289 0.60294 0.86198 0.0
C400 C 0.55139 0.6143 0.88447 0.0
C401 C 0.53957 0.59572 0.91612 0.0
C402 C 0.60526 0.56017 0.8486 0.0
C403 C 0.54076 0.64598 0.87487 0.0
H404 H 0.63518 0.67102 0.81111 0.0
H405 H 0.58207 0.63238 0.71544 0.0
H406 H 0.59974 0.652 0.90583 0.0
H407 H 0.62345 0.62323 0.89657 0.0
H408 H 0.63097 0.66334 0.88712 0.0
H409 H 0.54915 0.59848 0.73431 0.0
H410 H 0.55865 0.57342 0.77897 0.0
H411 H 0.53687 0.60423 0.78886 0.0
H412 H 0.57791 0.53257 0.91178 0.0
H413 H 0.52295 0.60433 0.93301 0.0
H414 H 0.62204 0.5758 0.85292 0.0
H415 H 0.60089 0.55853 0.81269 0.0
H416 H 0.61058 0.53686 0.86077 0.0
H417 H 0.55601 0.66375 0.87942 0.0
H418 H 0.52457 0.6519 0.89645 0.0
H419 H 0.53403 0.64713 0.83999 0.0
C420 C 0.91267 0.15808 0.28646 0.0
C421 C 0.91323 0.14744 0.24267 0.0
C422 C 0.92542 0.14214 0.32056 0.0
C423 C 0.93921 0.11501 0.31066 0.0
C424 C 0.94017 0.10438 0.2665 0.0
C425 C 0.9271 0.12062 0.23312 0.0
C426 C 0.9239 0.15417 0.36727 0.0
C427 C 0.95473 0.07557 0.25458 0.0
C428 C 0.98973 0.08668 0.39279 0.0
C429 C 0.97668 0.06263 0.41379 0.0
C430 C 0.97777 0.10399 0.35924 0.0
C431 C 0.95209 0.09724 0.34662 0.0
C432 C 0.93875 0.0732 0.36799 0.0
C433 C 0.95122 0.05613 0.40117 0.0
C434 C 0.99268 0.1293 0.337 0.0
C435 C 0.91129 0.06543 0.35571 0.0
H436 H 0.90235 0.17901 0.29411 0.0
H437 H 0.92735 0.11192 0.19956 0.0
H438 H 0.91491 0.13649 0.38844 0.0
H439 H 0.94342 0.15868 0.38095 0.0
H440 H 0.91266 0.17581 0.3694 0.0
H441 H 0.95444 0.07105 0.21848 0.0
H442 H 0.97493 0.07768 0.26621 0.0
H443 H 0.94632 0.05528 0.27133 0.0
H444 H 0.00941 0.09184 0.40227 0.0
H445 H 0.94093 0.03768 0.41733 0.0
H446 H 0.98267 0.15168 0.34052 0.0
H447 H 0.99386 0.12431 0.30117 0.0
H448 H 0.01242 0.13184 0.3509 0.0
H449 H 0.89914 0.08614 0.35984 0.0
H450 H 0.90348 0.04644 0.37606 0.0
H451 H 0.90985 0.05845 0.32049 0.0
C452 C 0.45477 0.41215 0.70737 0.0
C453 C 0.43422 0.39109 0.70563 0.0
C454 C 0.46383 0.42446 0.74765 0.0
C455 C 0.45229 0.41524 0.78734 0.0
C456 C 0.43195 0.39346 0.78603 0.0
C457 C 0.42308 0.38174 0.74517 0.0
C458 C 0.48554 0.44768 0.74765 0.0
C459 C 0.41931 0.38292 0.82773 0.0
C460 C 0.4911 0.43065 0.89258 0.0
C461 C 0.4803 0.4583 0.90753 0.0
C462 C 0.48167 0.41583 0.85421 0.0
C463 C 0.46114 0.42917 0.83 0.0
C464 C 0.44982 0.45673 0.84541 0.0
C465 C 0.45945 0.47087 0.8841 0.0
C466 C 0.49402 0.38627 0.83909 0.0
C467 C 0.42803 0.4718 0.82031 0.0
H468 H 0.46385 0.41902 0.67712 0.0
H469 H 0.40705 0.36573 0.74417 0.0
H470 H 0.47916 0.46986 0.76215 0.0
H471 H 0.50174 0.43928 0.76843 0.0
H472 H 0.49259 0.45218 0.71395 0.0
H473 H 0.40463 0.36467 0.82128 0.0
H474 H 0.43388 0.37384 0.85133 0.0
H475 H 0.41002 0.40283 0.84394 0.0
H476 H 0.50711 0.42067 0.91065 0.0
H477 H 0.451 0.49224 0.89539 0.0
H478 H 0.50328 0.39003 0.80695 0.0
H479 H 0.4793 0.36793 0.83399 0.0
H480 H 0.50869 0.37786 0.8631 0.0
H481 H 0.43451 0.47885 0.78721 0.0
H482 H 0.42069 0.49252 0.83763 0.0
H483 H 0.41203 0.4551 0.81524 0.0
C484 C 0.5757 0.59669 0.32728 0.0
C485 C 0.59231 0.62232 0.3284 0.0
C486 C 0.5663 0.58447 0.28716 0.0
C487 C 0.57348 0.59835 0.24707 0.0
C488 C 0.58993 0.62448 0.24787 0.0
C489 C 0.59921 0.63611 0.28852 0.0
C490 C 0.54878 0.55657 0.2877 0.0
C491 C 0.59792 0.63995 0.20576 0.0
C492 C 0.56792 0.54739 0.14496 0.0
C493 C 0.54423 0.55645 0.12685 0.0
C494 C 0.57798 0.56141 0.18344 0.0
C495 C 0.56401 0.58506 0.20437 0.0
C496 C 0.54042 0.59488 0.18565 0.0
C497 C 0.53081 0.58046 0.14711 0.0
C498 C 0.60323 0.55033 0.20236 0.0
C499 C 0.52501 0.62009 0.20696 0.0
H500 H 0.56986 0.58625 0.35791 0.0
H501 H 0.61224 0.6557 0.28902 0.0
H502 H 0.53027 0.56205 0.27107 0.0
H503 H 0.55744 0.53725 0.26911 0.0
H504 H 0.54494 0.5486 0.32171 0.0
H505 H 0.61018 0.66064 0.21209 0.0
H506 H 0.60861 0.62338 0.18517 0.0
H507 H 0.58077 0.64706 0.1863 0.0
H508 H 0.57849 0.52895 0.12946 0.0
H509 H 0.51252 0.58768 0.1333 0.0
H510 H 0.60026 0.53997 0.23527 0.0
H511 H 0.61665 0.5701 0.20705 0.0
H512 H 0.61233 0.53284 0.1809 0.0
H513 H 0.5188 0.61246 0.23996 0.0
H514 H 0.50776 0.62624 0.18696 0.0
H515 H 0.53697 0.64114 0.21194 0.0
C516 C 0.95133 0.10658 0.8128 0.0
C517 C 0.93212 0.12911 0.81288 0.0
C518 C 0.96078 0.09482 0.77319 0.0
C519 C 0.95102 0.10604 0.73249 0.0
C520 C 0.93216 0.1294 0.73222 0.0
C521 C 0.92287 0.14059 0.77243 0.0
C522 C 0.9809 0.06991 0.77494 0.0
C523 C 0.9214 0.14206 0.68948 0.0
C524 C 0.99144 0.08883 0.63251 0.0
C525 C 0.97939 0.06213 0.61541 0.0
C526 C 0.98188 0.10408 0.66969 0.0
C527 C 0.95987 0.09224 0.69041 0.0
C528 C 0.94719 0.06589 0.67248 0.0
C529 C 0.95704 0.05123 0.63516 0.0
C530 C 0.99579 0.1323 0.68761 0.0
C531 C 0.92372 0.05246 0.69367 0.0
H532 H 0.959 0.09804 0.84385 0.0
H533 H 0.9079 0.15781 0.77212 0.0
H534 H 0.97338 0.04858 0.75869 0.0
H535 H 0.99801 0.07735 0.75662 0.0
H536 H 0.98693 0.06421 0.80927 0.0
H537 H 0.90805 0.16153 0.69489 0.0
H538 H 0.93714 0.15017 0.66834 0.0
H539 H 0.91099 0.1235 0.67104 0.0
H540 H 0.00864 0.09751 0.61736 0.0
H541 H 0.94755 0.03067 0.62217 0.0
H542 H 1.00427 0.12711 0.72056 0.0
H543 H 0.98221 0.15162 0.69194 0.0
H544 H 0.01134 0.14003 0.66571 0.0
H545 H 0.92882 0.04403 0.72719 0.0
H546 H 0.91527 0.03294 0.67426 0.0
H547 H 0.90895 0.07053 0.69744 0.0
C548 C 0.43528 0.38056 0.28512 0.0
C549 C 0.4142 0.36124 0.27537 0.0
C550 C 0.44786 0.39664 0.25175 0.0
C551 C 0.43945 0.39298 0.20737 0.0
C552 C 0.4188 0.3727 0.19703 0.0
C553 C 0.40632 0.35723 0.23115 0.0
C554 C 0.46974 0.41816 0.26416 0.0
C555 C 0.40946 0.36796 0.15002 0.0
C556 C 0.45348 0.45891 0.12917 0.0
C557 C 0.47544 0.44839 0.10808 0.0
C558 C 0.44148 0.44097 0.16124 0.0
C559 C 0.45149 0.41159 0.17214 0.0
C560 C 0.47334 0.40053 0.15033 0.0
C561 C 0.48516 0.41915 0.11874 0.0
C562 C 0.41838 0.45374 0.18408 0.0
C563 C 0.48435 0.36915 0.16068 0.0
H564 H 0.44191 0.38331 0.31901 0.0
H565 H 0.38992 0.34264 0.22323 0.0
H566 H 0.48711 0.41177 0.24587 0.0
H567 H 0.46479 0.44218 0.25473 0.0
H568 H 0.4744 0.41778 0.30007 0.0
H569 H 0.39449 0.34967 0.14714 0.0
H570 H 0.40143 0.38985 0.13704 0.0
H571 H 0.42565 0.36157 0.12876 0.0
H572 H 0.44587 0.48151 0.12123 0.0
H573 H 0.50205 0.41078 0.10241 0.0
H574 H 0.42247 0.45584 0.22003 0.0
H575 H 0.40188 0.43768 0.17974 0.0
H576 H 0.41275 0.4768 0.17132 0.0
H577 H 0.49094 0.36845 0.19567 0.0
H578 H 0.50074 0.36338 0.13945 0.0
H579 H 0.46938 0.35104 0.15624 0.0
C580 C 0.07663 0.91407 0.81596 0.0
C581 C 0.09571 0.89139 0.81708 0.0
C582 C 0.06709 0.9257 0.77584 0.0
C583 C 0.07665 0.91419 0.73567 0.0
C584 C 0.09551 0.89084 0.73641 0.0
C585 C 0.10488 0.87978 0.77711 0.0
C586 C 0.04698 0.95062 0.7765 0.0
C587 C 0.10606 0.8779 0.69423 0.0
C588 C 0.03521 0.92979 0.63382 0.0
C589 C 0.04693 0.95637 0.61694 0.0
C590 C 0.04521 0.91511 0.67156 0.0
C591 C 0.06735 0.92741 0.69308 0.0
C592 C 0.07971 0.95364 0.67539 0.0
C593 C 0.06941 0.96773 0.63749 0.0
C594 C 0.03162 0.88701 0.6892 0.0
C595 C 0.1033 0.96754 0.69745 0.0
H596 H 0.06903 0.92273 0.8466 0.0
H597 H 0.11977 0.86247 0.7776 0.0
H598 H 0.05429 0.97173 0.76022 0.0
H599 H 0.02967 0.94289 0.75766 0.0
H600 H 0.04134 0.95681 0.81053 0.0
H601 H 0.11973 0.85876 0.70038 0.0
H602 H 0.09022 0.86921 0.67252 0.0
H603 H 0.11603 0.89644 0.67603 0.0
H604 H 0.0179 0.92076 0.61805 0.0
H605 H 0.07865 0.98821 0.62468 0.0
H606 H 0.02346 0.89253 0.72178 0.0
H607 H 0.04535 0.86784 0.69423 0.0
H608 H 0.01587 0.87889 0.66677 0.0
H609 H 0.09844 0.97642 0.73062 0.0
H610 H 0.11149 0.98683 0.67813 0.0
H611 H 0.11819 0.94964 0.70216 0.0
loop_
_geom_bond_atom_site_label_1
_geom_bond_atom_site_label_2
_geom_bond_distance
_geom_bond_site_symmetry_2
_ccdc_geom_bond_type
C0 C1 1.264 . S
C0 C5 1.479 . S
C0 C10 1.465 . S
C1 C0 1.264 . S
C1 C3 1.339 . S
C1 H28 0.931 . S
C2 C3 1.395 . S
C2 C4 1.320 . S
C3 C1 1.339 . S
C3 C2 1.395 . S
C3 H29 0.929 . S
C4 C2 1.320 . S
C4 C5 1.405 . S
C4 H30 0.930 . S
C5 C0 1.479 . S
C5 C4 1.405 . S
C5 H31 0.931 . S
U6 O7 2.454 . S
U6 O8 2.458 1_554 S
U6 C9 2.984 . S
U6 C10 2.847 . S
U6 C23 2.882 1_554 S
U6 O24 2.441 . S
U6 O25 2.420 . S
U6 O26 2.455 1_554 S
U6 O27 2.449 1_554 S
O7 U6 2.454 . S
O7 C9 1.353 . S
O8 U6 2.458 1_556 S
O8 C9 1.286 1_556 S
C9 U6 2.984 . S
C9 O7 1.353 . S
C9 O8 1.286 1_554 S
C9 C11 1.363 . S
C10 C0 1.465 . S
C10 U6 2.847 . S
C10 O24 1.249 . S
C10 O25 1.202 . S
C11 C9 1.363 . S
C11 C13 1.408 . S
C11 C16 1.342 1_554 S
C12 C13 1.310 . S
C12 C15 1.461 . S
C12 H32 0.932 . S
C13 C11 1.408 . S
C13 C12 1.310 . S
C13 H33 0.930 . S
C14 C15 1.474 1_556 S
C14 C16 1.285 . S
C14 H34 0.929 . S
C15 C12 1.461 . S
C15 C14 1.474 1_554 S
C16 C11 1.342 1_556 S
C16 C14 1.285 . S
C16 H35 0.930 . S
C17 C20 1.424 . S
C17 C22 1.245 . S
C17 C23 1.428 . S
C18 C21 1.260 . S
C18 C22 1.477 . S
C18 H36 0.932 . S
C19 C20 1.384 . S
C19 C21 1.479 . S
C19 H37 0.929 . S
C20 C17 1.424 . S
C20 C19 1.384 . S
C20 H38 0.928 . S
C21 C18 1.260 . S
C21 C19 1.479 . S
C22 C17 1.245 . S
C22 C18 1.477 . S
C22 H39 0.932 . S
C23 U6 2.882 1_556 S
C23 C17 1.428 . S
C23 O26 1.301 . S
C23 O27 1.282 . S
O24 U6 2.441 . S
O24 C10 1.249 . S
O25 U6 2.420 . S
O25 C10 1.202 . S
O26 U6 2.455 1_556 S
O26 C23 1.301 . S
O27 U6 2.449 1_556 S
O27 C23 1.282 . S
H28 C1 0.931 . S
H29 C3 0.929 . S
H30 C4 0.930 . S
H31 C5 0.931 . S
H32 C12 0.932 . S
H33 C13 0.930 . S
H34 C14 0.929 . S
H35 C16 0.930 . S
H36 C18 0.932 . S
H37 C19 0.929 . S
H38 C20 0.928 . S
H39 C22 0.932 . S
C40 C41 1.264 . S
C40 C45 1.479 . S
C40 C50 1.465 . S
C41 C40 1.264 . S
C41 C43 1.339 . S
C41 H68 0.931 . S
C42 C43 1.395 . S
C42 C44 1.320 . S
C43 C41 1.339 . S
C43 C42 1.395 . S
C43 H69 0.929 . S
C44 C42 1.320 . S
C44 C45 1.405 . S
C44 H70 0.930 . S
C45 C40 1.479 . S
C45 C44 1.405 . S
C45 H71 0.931 . S
U46 O47 2.454 . S
U46 O48 2.458 . S
U46 C49 2.984 . S
U46 C50 2.847 . S
U46 C63 2.882 . S
U46 O64 2.441 . S
U46 O65 2.420 . S
U46 O66 2.455 . S
U46 O67 2.449 . S
O47 U46 2.454 . S
O47 C49 1.353 . S
O48 U46 2.458 . S
O48 C49 1.286 . S
C49 U46 2.984 . S
C49 O47 1.353 . S
C49 O48 1.286 . S
C49 C51 1.363 . S
C50 C40 1.465 . S
C50 U46 2.847 . S
C50 O64 1.249 . S
C50 O65 1.202 . S
C51 C49 1.363 . S
C51 C53 1.408 . S
C51 C56 1.342 . S
C52 C53 1.310 . S
C52 C55 1.461 . S
C52 H72 0.932 . S
C53 C51 1.408 . S
C53 C52 1.310 . S
C53 H73 0.930 . S
C54 C55 1.474 . S
C54 C56 1.285 . S
C54 H74 0.929 . S
C55 C52 1.461 . S
C55 C54 1.474 . S
C56 C51 1.342 . S
C56 C54 1.285 . S
C56 H75 0.930 . S
C57 C60 1.424 . S
C57 C62 1.245 . S
C57 C63 1.428 . S
C58 C61 1.260 . S
C58 C62 1.477 . S
C58 H76 0.932 . S
C59 C60 1.384 . S
C59 C61 1.479 . S
C59 H77 0.929 . S
C60 C57 1.424 . S
C60 C59 1.384 . S
C60 H78 0.928 . S
C61 C58 1.260 . S
C61 C59 1.479 . S
C62 C57 1.245 . S
C62 C58 1.477 . S
C62 H79 0.932 . S
C63 U46 2.882 . S
C63 C57 1.428 . S
C63 O66 1.301 . S
C63 O67 1.282 . S
O64 U46 2.441 . S
O64 C50 1.249 . S
O65 U46 2.420 . S
O65 C50 1.202 . S
O66 U46 2.455 . S
O66 C63 1.301 . S
O67 U46 2.449 . S
O67 C63 1.282 . S
H68 C41 0.931 . S
H69 C43 0.929 . S
H70 C44 0.930 . S
H71 C45 0.931 . S
H72 C52 0.932 . S
H73 C53 0.930 . S
H74 C54 0.929 . S
H75 C56 0.930 . S
H76 C58 0.932 . S
H77 C59 0.929 . S
H78 C60 0.928 . S
H79 C62 0.932 . S
C80 C81 1.264 . S
C80 C85 1.479 . S
C80 C90 1.465 . S
C81 C80 1.264 . S
C81 C83 1.339 . S
C81 H108 0.931 . S
C82 C83 1.395 . S
C82 C84 1.320 . S
C83 C81 1.339 . S
C83 C82 1.395 . S
C83 H109 0.929 . S
C84 C82 1.320 . S
C84 C85 1.405 . S
C84 H110 0.930 . S
C85 C80 1.479 . S
C85 C84 1.405 . S
C85 H111 0.931 . S
U86 O87 2.454 . S
U86 O88 2.458 1_554 S
U86 C89 2.984 . S
U86 C90 2.847 . S
U86 C103 2.882 1_554 S
U86 O104 2.441 . S
U86 O105 2.420 . S
U86 O106 2.455 1_554 S
U86 O107 2.449 1_554 S
O87 U86 2.454 . S
O87 C89 1.353 . S
O88 U86 2.458 1_556 S
O88 C89 1.286 1_556 S
C89 U86 2.984 . S
C89 O87 1.353 . S
C89 O88 1.286 1_554 S
C89 C91 1.363 . S
C90 C80 1.465 . S
C90 U86 2.847 . S
C90 O104 1.249 . S
C90 O105 1.202 . S
C91 C89 1.363 . S
C91 C93 1.408 . S
C91 C96 1.342 1_554 S
C92 C93 1.310 . S
C92 C95 1.461 . S
C92 H112 0.932 . S
C93 C91 1.408 . S
C93 C92 1.310 . S
C93 H113 0.930 . S
C94 C95 1.474 1_556 S
C94 C96 1.285 . S
C94 H114 0.929 . S
C95 C92 1.461 . S
C95 C94 1.474 1_554 S
C96 C91 1.342 1_556 S
C96 C94 1.285 . S
C96 H115 0.930 . S
C97 C100 1.424 . S
C97 C102 1.245 . S
C97 C103 1.428 . S
C98 C101 1.260 . S
C98 C102 1.477 . S
C98 H116 0.932 . S
C99 C100 1.384 . S
C99 C101 1.479 . S
C99 H117 0.929 . S
C100 C97 1.424 . S
C100 C99 1.384 . S
C100 H118 0.928 . S
C101 C98 1.260 . S
C101 C99 1.479 . S
C102 C97 1.245 . S
C102 C98 1.477 . S
C102 H119 0.932 . S
C103 U86 2.882 1_556 S
C103 C97 1.428 . S
C103 O106 1.301 . S
C103 O107 1.282 . S
O104 U86 2.441 . S
O104 C90 1.249 . S
O105 U86 2.420 . S
O105 C90 1.202 . S
O106 U86 2.455 1_556 S
O106 C103 1.301 . S
O107 U86 2.449 1_556 S
O107 C103 1.282 . S
H108 C81 0.931 . S
H109 C83 0.929 . S
H110 C84 0.930 . S
H111 C85 0.931 . S
H112 C92 0.932 . S
H113 C93 0.930 . S
H114 C94 0.929 . S
H115 C96 0.930 . S
H116 C98 0.932 . S
H117 C99 0.929 . S
H118 C100 0.928 . S
H119 C102 0.932 . S
C120 C121 1.264 . S
C120 C125 1.479 . S
C120 C130 1.465 . S
C121 C120 1.264 . S
C121 C123 1.339 . S
C121 H148 0.931 . S
C122 C123 1.395 . S
C122 C124 1.320 . S
C123 C121 1.339 . S
C123 C122 1.395 . S
C123 H149 0.929 . S
C124 C122 1.320 . S
C124 C125 1.405 . S
C124 H150 0.930 . S
C125 C120 1.479 . S
C125 C124 1.405 . S
C125 H151 0.931 . S
U126 O127 2.454 . S
U126 O128 2.458 . S
U126 C129 2.984 . S
U126 C130 2.847 . S
U126 C143 2.882 . S
U126 O144 2.441 . S
U126 O145 2.420 . S
U126 O146 2.455 . S
U126 O147 2.449 . S
O127 U126 2.454 . S
O127 C129 1.353 . S
O128 U126 2.458 . S
O128 C129 1.286 . S
C129 U126 2.984 . S
C129 O127 1.353 . S
C129 O128 1.286 . S
C129 C131 1.363 . S
C130 C120 1.465 . S
C130 U126 2.847 . S
C130 O144 1.249 . S
C130 O145 1.202 . S
C131 C129 1.363 . S
C131 C133 1.408 . S
C131 C136 1.342 . S
C132 C133 1.310 . S
C132 C135 1.461 . S
C132 H152 0.932 . S
C133 C131 1.408 . S
C133 C132 1.310 . S
C133 H153 0.930 . S
C134 C135 1.474 . S
C134 C136 1.285 . S
C134 H154 0.929 . S
C135 C132 1.461 . S
C135 C134 1.474 . S
C136 C131 1.342 . S
C136 C134 1.285 . S
C136 H155 0.930 . S
C137 C140 1.424 . S
C137 C142 1.245 . S
C137 C143 1.428 . S
C138 C141 1.260 . S
C138 C142 1.477 . S
C138 H156 0.932 . S
C139 C140 1.384 . S
C139 C141 1.479 . S
C139 H157 0.929 . S
C140 C137 1.424 . S
C140 C139 1.384 . S
C140 H158 0.928 . S
C141 C138 1.260 . S
C141 C139 1.479 . S
C142 C137 1.245 . S
C142 C138 1.477 . S
C142 H159 0.932 . S
C143 U126 2.882 . S
C143 C137 1.428 . S
C143 O146 1.301 . S
C143 O147 1.282 . S
O144 U126 2.441 . S
O144 C130 1.249 . S
O145 U126 2.420 . S
O145 C130 1.202 . S
O146 U126 2.455 . S
O146 C143 1.301 . S
O147 U126 2.449 . S
O147 C143 1.282 . S
H148 C121 0.931 . S
H149 C123 0.929 . S
H150 C124 0.930 . S
H151 C125 0.931 . S
H152 C132 0.932 . S
H153 C133 0.930 . S
H154 C134 0.929 . S
H155 C136 0.930 . S
H156 C138 0.932 . S
H157 C139 0.929 . S
H158 C140 0.928 . S
H159 C142 0.932 . S
C160 O176 1.251 . S
C160 O178 1.254 . S
N161 C162 1.333 . S
N161 C166 1.307 . S
N161 Zn167 2.020 . S
C162 N161 1.333 . S
C162 C163 1.379 . S
C162 H180 0.952 . S
C163 C162 1.379 . S
C163 C164 1.390 . S
C163 H190 0.949 . S
C164 C163 1.390 . S
C164 C165 1.357 . S
C165 C164 1.357 . S
C165 C166 1.370 . S
C165 H191 0.950 . S
C166 N161 1.307 . S
C166 C165 1.370 . S
C166 H184 0.948 . S
Zn167 N161 2.020 . S
Zn167 O176 2.039 1_545 S
Zn167 O182 2.034 1_545 S
Zn167 O186 2.025 . S
Zn167 O188 2.024 . S
C168 O187 1.246 . S
C168 O188 1.249 1_655 S
N169 C170 1.307 . S
N169 C171 1.333 . S
N169 Zn175 2.020 . S
C170 N169 1.307 . S
C170 C174 1.370 . S
C170 H181 0.948 . S
C171 N169 1.333 . S
C171 C172 1.379 . S
C171 H179 0.952 1_565 S
C172 C171 1.379 . S
C172 C173 1.390 . S
C172 H192 0.949 . S
C173 C172 1.390 . S
C173 C174 1.357 . S
C174 C170 1.370 . S
C174 C173 1.357 . S
C174 H193 0.950 . S
Zn175 N169 2.020 . S
Zn175 O178 2.025 1_655 S
Zn175 O183 2.024 1_655 S
Zn175 O185 2.039 1_565 S
Zn175 O187 2.034 1_565 S
O176 C160 1.251 . S
O176 Zn167 2.039 1_565 S
C177 O182 1.246 . S
C177 O183 1.249 . S
O178 C160 1.254 . S
O178 Zn175 2.025 1_455 S
H179 C171 0.952 1_545 S
H180 C162 0.952 . S
H181 C170 0.948 . S
O182 Zn167 2.034 1_565 S
O182 C177 1.246 . S
O183 Zn175 2.024 1_455 S
O183 C177 1.249 . S
H184 C166 0.948 . S
O185 Zn175 2.039 1_545 S
O185 C189 1.251 . S
O186 Zn167 2.025 . S
O186 C189 1.254 1_455 S
O187 C168 1.246 . S
O187 Zn175 2.034 1_545 S
O188 Zn167 2.024 . S
O188 C168 1.249 1_455 S
C189 O185 1.251 . S
C189 O186 1.254 1_655 S
H190 C163 0.949 . S
H191 C165 0.950 . S
H192 C172 0.949 . S
H193 C174 0.950 . S
C194 O210 1.251 . S
C194 O212 1.254 . S
N195 C196 1.328 1_554 S
N195 C200 1.307 . S
N195 Zn201 2.020 . S
C196 N195 1.328 1_556 S
C196 C197 1.380 . S
C196 H214 0.956 . S
C197 C196 1.380 . S
C197 C198 1.390 1_556 S
C197 H224 0.949 . S
C198 C197 1.390 1_554 S
C198 C199 1.357 . S
C199 C198 1.357 . S
C199 C200 1.370 . S
C199 H225 0.950 . S
C200 N195 1.307 . S
C200 C199 1.370 . S
C200 H218 0.948 . S
Zn201 N195 2.020 . S
Zn201 O210 2.039 1_554 S
Zn201 O216 2.034 . S
Zn201 O220 2.025 . S
Zn201 O222 2.024 1_554 S
C202 O221 1.246 . S
C202 O222 1.249 . S
N203 C204 1.307 . S
N203 C205 1.333 . S
N203 Zn209 2.020 . S
C204 N203 1.307 . S
C204 C208 1.370 . S
C204 H215 0.948 1_554 S
C205 N203 1.333 . S
C205 C206 1.379 . S
C205 H213 0.952 . S
C206 C205 1.379 . S
C206 C207 1.390 . S
C206 H226 0.949 . S
C207 C206 1.390 . S
C207 C208 1.360 . S
C208 C204 1.370 . S
C208 C207 1.360 . S
C208 H227 0.947 1_554 S
Zn209 N203 2.020 . S
Zn209 O212 2.025 1_554 S
Zn209 O217 2.024 . S
Zn209 O219 2.039 . S
Zn209 O221 2.034 1_554 S
O210 C194 1.251 . S
O210 Zn201 2.039 1_556 S
C211 O216 1.246 . S
C211 O217 1.249 . S
O212 C194 1.254 . S
O212 Zn209 2.025 1_556 S
H213 C205 0.952 . S
H214 C196 0.956 . S
H215 C204 0.948 1_556 S
O216 Zn201 2.034 . S
O216 C211 1.246 . S
O217 Zn209 2.024 . S
O217 C211 1.249 . S
H218 C200 0.948 . S
O219 Zn209 2.039 . S
O219 C223 1.251 . S
O220 Zn201 2.025 . S
O220 C223 1.254 . S
O221 C202 1.246 . S
O221 Zn209 2.034 1_556 S
O222 Zn201 2.024 1_556 S
O222 C202 1.249 . S
C223 O219 1.251 . S
C223 O220 1.254 . S
H224 C197 0.949 . S
H225 C199 0.950 . S
H226 C206 0.949 . S
H227 C208 0.947 1_556 S
C228 C229 1.391 . S
C228 C230 1.394 . S
C228 H244 0.931 . S
C229 C228 1.391 . S
C229 C233 1.376 . S
C230 C228 1.394 . S
C230 C231 1.369 . S
C230 C234 1.531 . S
C231 C230 1.369 . S
C231 C232 1.410 . S
C231 C239 1.503 . S
C232 C231 1.410 . S
C232 C233 1.392 . S
C232 C235 1.511 . S
C233 C229 1.376 . S
C233 C232 1.392 . S
C233 H245 0.929 . S
C234 C230 1.531 . S
C234 H246 0.960 . S
C234 H247 0.962 . S
C234 H248 0.960 . S
C235 C232 1.511 . S
C235 H249 0.961 . S
C235 H250 0.961 . S
C235 H251 0.961 . S
C236 C237 1.370 . S
C236 C238 1.363 . S
C236 H252 0.931 . S
C237 C236 1.370 . S
C237 C241 1.408 . S
C238 C236 1.363 . S
C238 C239 1.370 . S
C238 C242 1.524 . S
C239 C231 1.503 . S
C239 C238 1.370 . S
C239 C240 1.403 . S
C240 C239 1.403 . S
C240 C241 1.404 . S
C240 C243 1.539 . S
C241 C237 1.408 . S
C241 C240 1.404 . S
C241 H253 0.930 . S
C242 C238 1.524 . S
C242 H254 0.956 . S
C242 H255 0.961 . S
C242 H256 0.961 . S
C243 C240 1.539 . S
C243 H257 0.958 . S
C243 H258 0.961 . S
C243 H259 0.960 . S
H244 C228 0.931 . S
H245 C233 0.929 . S
H246 C234 0.960 . S
H247 C234 0.962 . S
H248 C234 0.960 . S
H249 C235 0.961 . S
H250 C235 0.961 . S
H251 C235 0.961 . S
H252 C236 0.931 . S
H253 C241 0.930 . S
H254 C242 0.956 . S
H255 C242 0.961 . S
H256 C242 0.961 . S
H257 C243 0.958 . S
H258 C243 0.961 . S
H259 C243 0.960 . S
C260 C261 1.391 . S
C260 C262 1.394 . S
C260 H276 0.931 . S
C261 C260 1.391 . S
C261 C265 1.376 1_554 S
C262 C260 1.394 . S
C262 C263 1.369 . S
C262 C266 1.531 . S
C263 C262 1.369 . S
C263 C264 1.410 1_554 S
C263 C271 1.503 . S
C264 C263 1.410 1_556 S
C264 C265 1.392 . S
C264 C267 1.511 . S
C265 C261 1.376 1_556 S
C265 C264 1.392 . S
C265 H277 0.929 . S
C266 C262 1.531 . S
C266 H278 0.960 . S
C266 H279 0.962 . S
C266 H280 0.960 . S
C267 C264 1.511 . S
C267 H281 0.961 . S
C267 H282 0.961 . S
C267 H283 0.961 . S
C268 C269 1.370 . S
C268 C270 1.363 . S
C268 H284 0.931 . S
C269 C268 1.370 . S
C269 C273 1.408 1_554 S
C270 C268 1.363 . S
C270 C271 1.370 . S
C270 C274 1.524 . S
C271 C263 1.503 . S
C271 C270 1.370 . S
C271 C272 1.403 1_554 S
C272 C271 1.403 1_556 S
C272 C273 1.404 . S
C272 C275 1.539 . S
C273 C269 1.408 1_556 S
C273 C272 1.404 . S
C273 H285 0.930 . S
C274 C270 1.524 . S
C274 H286 0.956 . S
C274 H287 0.961 . S
C274 H288 0.961 . S
C275 C272 1.539 . S
C275 H289 0.958 . S
C275 H290 0.961 . S
C275 H291 0.960 . S
H276 C260 0.931 . S
H277 C265 0.929 . S
H278 C266 0.960 . S
H279 C266 0.962 . S
H280 C266 0.960 . S
H281 C267 0.961 . S
H282 C267 0.961 . S
H283 C267 0.961 . S
H284 C268 0.931 . S
H285 C273 0.930 . S
H286 C274 0.956 . S
H287 C274 0.961 . S
H288 C274 0.961 . S
H289 C275 0.958 . S
H290 C275 0.961 . S
H291 C275 0.960 . S
C292 C293 1.391 . S
C292 C294 1.394 . S
C292 H308 0.931 . S
C293 C292 1.391 . S
C293 C297 1.376 . S
C294 C292 1.394 . S
C294 C295 1.369 . S
C294 C298 1.531 . S
C295 C294 1.369 . S
C295 C296 1.410 . S
C295 C303 1.503 . S
C296 C295 1.410 . S
C296 C297 1.392 . S
C296 C299 1.511 . S
C297 C293 1.376 . S
C297 C296 1.392 . S
C297 H309 0.929 . S
C298 C294 1.531 . S
C298 H310 0.960 . S
C298 H311 0.962 . S
C298 H312 0.960 . S
C299 C296 1.511 . S
C299 H313 0.961 . S
C299 H314 0.961 . S
C299 H315 0.961 . S
C300 C301 1.370 . S
C300 C302 1.363 . S
C300 H316 0.931 . S
C301 C300 1.370 . S
C301 C305 1.408 . S
C302 C300 1.363 . S
C302 C303 1.370 . S
C302 C306 1.524 . S
C303 C295 1.503 . S
C303 C302 1.370 . S
C303 C304 1.403 . S
C304 C303 1.403 . S
C304 C305 1.404 . S
C304 C307 1.539 . S
C305 C301 1.408 . S
C305 C304 1.404 . S
C305 H317 0.930 . S
C306 C302 1.524 . S
C306 H318 0.956 . S
C306 H319 0.961 . S
C306 H320 0.961 . S
C307 C304 1.539 . S
C307 H321 0.958 . S
C307 H322 0.961 . S
C307 H323 0.960 . S
H308 C292 0.931 . S
H309 C297 0.929 . S
H310 C298 0.960 . S
H311 C298 0.962 . S
H312 C298 0.960 . S
H313 C299 0.961 . S
H314 C299 0.961 . S
H315 C299 0.961 . S
H316 C300 0.931 . S
H317 C305 0.930 . S
H318 C306 0.956 . S
H319 C306 0.961 . S
H320 C306 0.961 . S
H321 C307 0.958 . S
H322 C307 0.961 . S
H323 C307 0.960 . S
C324 C325 1.391 1_556 S
C324 C326 1.394 1_556 S
C324 H340 0.931 . S
C325 C324 1.391 1_554 S
C325 C329 1.376 . S
C326 C324 1.394 1_554 S
C326 C327 1.369 . S
C326 C330 1.531 1_554 S
C327 C326 1.369 . S
C327 C328 1.410 . S
C327 C335 1.503 . S
C328 C327 1.410 . S
C328 C329 1.392 . S
C328 C331 1.511 . S
C329 C325 1.376 . S
C329 C328 1.392 . S
C329 H341 0.929 . S
C330 C326 1.531 1_556 S
C330 H342 0.960 1_556 S
C330 H343 0.962 . S
C330 H344 0.960 . S
C331 C328 1.511 . S
C331 H345 0.961 . S
C331 H346 0.961 . S
C331 H347 0.961 . S
C332 C333 1.370 1_556 S
C332 C334 1.363 . S
C332 H348 0.931 . S
C333 C332 1.370 1_554 S
C333 C337 1.408 . S
C334 C332 1.363 . S
C334 C335 1.370 1_556 S
C334 C338 1.524 . S
C335 C327 1.503 . S
C335 C334 1.370 1_554 S
C335 C336 1.403 . S
C336 C335 1.403 . S
C336 C337 1.404 . S
C336 C339 1.539 . S
C337 C333 1.408 . S
C337 C336 1.404 . S
C337 H349 0.930 . S
C338 C334 1.524 . S
C338 H350 0.956 . S
C338 H351 0.961 . S
C338 H352 0.961 . S
C339 C336 1.539 . S
C339 H353 0.958 . S
C339 H354 0.961 . S
C339 H355 0.960 . S
H340 C324 0.931 . S
H341 C329 0.929 . S
H342 C330 0.960 1_554 S
H343 C330 0.962 . S
H344 C330 0.960 . S
H345 C331 0.961 . S
H346 C331 0.961 . S
H347 C331 0.961 . S
H348 C332 0.931 . S
H349 C337 0.930 . S
H350 C338 0.956 . S
H351 C338 0.961 . S
H352 C338 0.961 . S
H353 C339 0.958 . S
H354 C339 0.961 . S
H355 C339 0.960 . S
C356 C357 1.391 . S
C356 C358 1.394 . S
C356 H372 0.931 . S
C357 C356 1.391 . S
C357 C361 1.376 . S
C358 C356 1.394 . S
C358 C359 1.369 . S
C358 C362 1.531 . S
C359 C358 1.369 . S
C359 C360 1.410 . S
C359 C367 1.503 . S
C360 C359 1.410 . S
C360 C361 1.392 . S
C360 C363 1.511 . S
C361 C357 1.376 . S
C361 C360 1.392 . S
C361 H373 0.929 . S
C362 C358 1.531 . S
C362 H374 0.960 . S
C362 H375 0.962 . S
C362 H376 0.960 . S
C363 C360 1.511 . S
C363 H377 0.961 . S
C363 H378 0.961 . S
C363 H379 0.961 . S
C364 C365 1.370 . S
C364 C366 1.363 . S
C364 H380 0.931 . S
C365 C364 1.370 . S
C365 C369 1.408 . S
C366 C364 1.363 . S
C366 C367 1.370 . S
C366 C370 1.524 . S
C367 C359 1.503 . S
C367 C366 1.370 . S
C367 C368 1.403 . S
C368 C367 1.403 . S
C368 C369 1.404 . S
C368 C371 1.539 . S
C369 C365 1.408 . S
C369 C368 1.404 . S
C369 H381 0.930 . S
C370 C366 1.524 . S
C370 H382 0.956 . S
C370 H383 0.961 . S
C370 H384 0.961 . S
C371 C368 1.539 . S
C371 H385 0.958 1_455 S
C371 H386 0.961 . S
C371 H387 0.960 . S
H372 C356 0.931 . S
H373 C361 0.929 . S
H374 C362 0.960 . S
H375 C362 0.962 . S
H376 C362 0.960 . S
H377 C363 0.961 . S
H378 C363 0.961 . S
H379 C363 0.961 . S
H380 C364 0.931 . S
H381 C369 0.930 . S
H382 C370 0.956 . S
H383 C370 0.961 . S
H384 C370 0.961 . S
H385 C371 0.958 1_655 S
H386 C371 0.961 . S
H387 C371 0.960 . S
C388 C389 1.391 . S
C388 C390 1.394 . S
C388 H404 0.931 . S
C389 C388 1.391 . S
C389 C393 1.376 . S
C390 C388 1.394 . S
C390 C391 1.369 . S
C390 C394 1.531 . S
C391 C390 1.369 . S
C391 C392 1.410 . S
C391 C399 1.503 . S
C392 C391 1.410 . S
C392 C393 1.392 . S
C392 C395 1.511 . S
C393 C389 1.376 . S
C393 C392 1.392 . S
C393 H405 0.929 . S
C394 C390 1.531 . S
C394 H406 0.960 . S
C394 H407 0.962 . S
C394 H408 0.960 . S
C395 C392 1.511 . S
C395 H409 0.961 . S
C395 H410 0.961 . S
C395 H411 0.961 . S
C396 C397 1.370 . S
C396 C398 1.363 . S
C396 H412 0.931 . S
C397 C396 1.370 . S
C397 C401 1.408 . S
C398 C396 1.363 . S
C398 C399 1.370 . S
C398 C402 1.524 . S
C399 C391 1.503 . S
C399 C398 1.370 . S
C399 C400 1.403 . S
C400 C399 1.403 . S
C400 C401 1.404 . S
C400 C403 1.539 . S
C401 C397 1.408 . S
C401 C400 1.404 . S
C401 H413 0.930 . S
C402 C398 1.524 . S
C402 H414 0.956 . S
C402 H415 0.961 . S
C402 H416 0.961 . S
C403 C400 1.539 . S
C403 H417 0.958 . S
C403 H418 0.961 . S
C403 H419 0.960 . S
H404 C388 0.931 . S
H405 C393 0.929 . S
H406 C394 0.960 . S
H407 C394 0.962 . S
H408 C394 0.960 . S
H409 C395 0.961 . S
H410 C395 0.961 . S
H411 C395 0.961 . S
H412 C396 0.931 . S
H413 C401 0.930 . S
H414 C402 0.956 . S
H415 C402 0.961 . S
H416 C402 0.961 . S
H417 C403 0.958 . S
H418 C403 0.961 . S
H419 C403 0.960 . S
C420 C421 1.391 . S
C420 C422 1.394 . S
C420 H436 0.931 . S
C421 C420 1.391 . S
C421 C425 1.376 . S
C422 C420 1.394 . S
C422 C423 1.369 . S
C422 C426 1.531 . S
C423 C422 1.369 . S
C423 C424 1.410 . S
C423 C431 1.503 . S
C424 C423 1.410 . S
C424 C425 1.392 . S
C424 C427 1.511 . S
C425 C421 1.376 . S
C425 C424 1.392 . S
C425 H437 0.929 . S
C426 C422 1.531 . S
C426 H438 0.960 . S
C426 H439 0.962 . S
C426 H440 0.960 . S
C427 C424 1.511 . S
C427 H441 0.961 . S
C427 H442 0.961 . S
C427 H443 0.961 . S
C428 C429 1.368 . S
C428 C430 1.362 . S
C428 H444 0.934 1_655 S
C429 C428 1.368 . S
C429 C433 1.408 . S
C430 C428 1.362 . S
C430 C431 1.370 . S
C430 C434 1.524 1_655 S
C431 C423 1.503 . S
C431 C430 1.370 . S
C431 C432 1.403 . S
C432 C431 1.403 . S
C432 C433 1.404 . S
C432 C435 1.539 . S
C433 C429 1.408 . S
C433 C432 1.404 . S
C433 H445 0.930 . S
C434 C430 1.524 1_455 S
C434 H446 0.956 . S
C434 H447 0.961 . S
C434 H448 0.961 . S
C435 C432 1.539 . S
C435 H449 0.958 . S
C435 H450 0.961 . S
C435 H451 0.960 . S
H436 C420 0.931 . S
H437 C425 0.929 . S
H438 C426 0.960 . S
H439 C426 0.962 . S
H440 C426 0.960 . S
H441 C427 0.961 . S
H442 C427 0.961 . S
H443 C427 0.961 . S
H444 C428 0.934 1_455 S
H445 C433 0.930 . S
H446 C434 0.956 . S
H447 C434 0.961 . S
H448 C434 0.961 . S
H449 C435 0.958 . S
H450 C435 0.961 . S
H451 C435 0.960 . S
C452 C453 1.391 . S
C452 C454 1.394 . S
C452 H468 0.931 . S
C453 C452 1.391 . S
C453 C457 1.376 . S
C454 C452 1.394 . S
C454 C455 1.369 . S
C454 C458 1.531 . S
C455 C454 1.369 . S
C455 C456 1.410 . S
C455 C463 1.503 . S
C456 C455 1.410 . S
C456 C457 1.392 . S
C456 C459 1.511 . S
C457 C453 1.376 . S
C457 C456 1.392 . S
C457 H469 0.929 . S
C458 C454 1.531 . S
C458 H470 0.960 . S
C458 H471 0.962 . S
C458 H472 0.960 . S
C459 C456 1.511 . S
C459 H473 0.961 . S
C459 H474 0.961 . S
C459 H475 0.961 . S
C460 C461 1.370 . S
C460 C462 1.363 . S
C460 H476 0.931 . S
C461 C460 1.370 . S
C461 C465 1.408 . S
C462 C460 1.363 . S
C462 C463 1.370 . S
C462 C466 1.524 . S
C463 C455 1.503 . S
C463 C462 1.370 . S
C463 C464 1.403 . S
C464 C463 1.403 . S
C464 C465 1.404 . S
C464 C467 1.539 . S
C465 C461 1.408 . S
C465 C464 1.404 . S
C465 H477 0.930 . S
C466 C462 1.524 . S
C466 H478 0.956 . S
C466 H479 0.961 . S
C466 H480 0.961 . S
C467 C464 1.539 . S
C467 H481 0.958 . S
C467 H482 0.961 . S
C467 H483 0.960 . S
H468 C452 0.931 . S
H469 C457 0.929 . S
H470 C458 0.960 . S
H471 C458 0.962 . S
H472 C458 0.960 . S
H473 C459 0.961 . S
H474 C459 0.961 . S
H475 C459 0.961 . S
H476 C460 0.931 . S
H477 C465 0.930 . S
H478 C466 0.956 . S
H479 C466 0.961 . S
H480 C466 0.961 . S
H481 C467 0.958 . S
H482 C467 0.961 . S
H483 C467 0.960 . S
C484 C485 1.391 . S
C484 C486 1.394 . S
C484 H500 0.931 . S
C485 C484 1.391 . S
C485 C489 1.376 . S
C486 C484 1.394 . S
C486 C487 1.369 . S
C486 C490 1.531 . S
C487 C486 1.369 . S
C487 C488 1.410 . S
C487 C495 1.503 . S
C488 C487 1.410 . S
C488 C489 1.392 . S
C488 C491 1.511 . S
C489 C485 1.376 . S
C489 C488 1.392 . S
C489 H501 0.929 . S
C490 C486 1.531 . S
C490 H502 0.960 . S
C490 H503 0.962 . S
C490 H504 0.960 . S
C491 C488 1.511 . S
C491 H505 0.961 . S
C491 H506 0.961 . S
C491 H507 0.961 . S
C492 C493 1.370 . S
C492 C494 1.363 . S
C492 H508 0.931 . S
C493 C492 1.370 . S
C493 C497 1.408 . S
C494 C492 1.363 . S
C494 C495 1.370 . S
C494 C498 1.524 . S
C495 C487 1.503 . S
C495 C494 1.370 . S
C495 C496 1.403 . S
C496 C495 1.403 . S
C496 C497 1.404 . S
C496 C499 1.539 . S
C497 C493 1.408 . S
C497 C496 1.404 . S
C497 H509 0.930 . S
C498 C494 1.524 . S
C498 H510 0.956 . S
C498 H511 0.961 . S
C498 H512 0.961 . S
C499 C496 1.539 . S
C499 H513 0.958 . S
C499 H514 0.961 . S
C499 H515 0.960 . S
H500 C484 0.931 . S
H501 C489 0.929 . S
H502 C490 0.960 . S
H503 C490 0.962 . S
H504 C490 0.960 . S
H505 C491 0.961 . S
H506 C491 0.961 . S
H507 C491 0.961 . S
H508 C492 0.931 . S
H509 C497 0.930 . S
H510 C498 0.956 . S
H511 C498 0.961 . S
H512 C498 0.961 . S
H513 C499 0.958 . S
H514 C499 0.961 . S
H515 C499 0.960 . S
C516 C517 1.391 . S
C516 C518 1.394 . S
C516 H532 0.931 . S
C517 C516 1.391 . S
C517 C521 1.376 . S
C518 C516 1.394 . S
C518 C519 1.369 . S
C518 C522 1.531 1_655 S
C519 C518 1.369 . S
C519 C520 1.410 . S
C519 C527 1.503 . S
C520 C519 1.410 . S
C520 C521 1.392 . S
C520 C523 1.511 . S
C521 C517 1.376 . S
C521 C520 1.392 . S
C521 H533 0.929 . S
C522 C518 1.531 1_455 S
C522 H534 0.960 . S
C522 H535 0.962 . S
C522 H536 0.960 . S
C523 C520 1.511 . S
C523 H537 0.961 . S
C523 H538 0.961 . S
C523 H539 0.961 . S
C524 C525 1.370 . S
C524 C526 1.363 . S
C524 H540 0.931 . S
C525 C524 1.370 . S
C525 C529 1.408 . S
C526 C524 1.363 . S
C526 C527 1.370 . S
C526 C530 1.524 . S
C527 C519 1.503 . S
C527 C526 1.370 . S
C527 C528 1.403 . S
C528 C527 1.403 . S
C528 C529 1.404 . S
C528 C531 1.539 . S
C529 C525 1.408 . S
C529 C528 1.404 . S
C529 H541 0.930 . S
C530 C526 1.524 . S
C530 H542 0.985 . S
C530 H543 0.961 . S
C530 H544 0.961 . S
C531 C528 1.539 . S
C531 H545 0.958 . S
C531 H546 0.961 . S
C531 H547 0.960 . S
H532 C516 0.931 . S
H533 C521 0.929 . S
H534 C522 0.960 . S
H535 C522 0.962 . S
H536 C522 0.960 . S
H537 C523 0.961 . S
H538 C523 0.961 . S
H539 C523 0.961 . S
H540 C524 0.931 . S
H541 C529 0.930 . S
H542 C530 0.985 . S
H543 C530 0.961 . S
H544 C530 0.961 . S
H545 C531 0.958 . S
H546 C531 0.961 . S
H547 C531 0.960 . S
C548 C549 1.391 . S
C548 C550 1.394 . S
C548 H564 0.931 . S
C549 C548 1.391 . S
C549 C553 1.376 . S
C550 C548 1.394 . S
C550 C551 1.369 . S
C550 C554 1.531 . S
C551 C550 1.369 . S
C551 C552 1.410 . S
C551 C559 1.503 . S
C552 C551 1.410 . S
C552 C553 1.392 . S
C552 C555 1.511 . S
C553 C549 1.376 . S
C553 C552 1.392 . S
C553 H565 0.929 . S
C554 C550 1.531 . S
C554 H566 0.960 . S
C554 H567 0.962 . S
C554 H568 0.960 . S
C555 C552 1.511 . S
C555 H569 0.961 . S
C555 H570 0.961 . S
C555 H571 0.961 . S
C556 C557 1.370 . S
C556 C558 1.363 . S
C556 H572 0.931 . S
C557 C556 1.370 . S
C557 C561 1.408 . S
C558 C556 1.363 . S
C558 C559 1.370 . S
C558 C562 1.524 . S
C559 C551 1.503 . S
C559 C558 1.370 . S
C559 C560 1.403 . S
C560 C559 1.403 . S
C560 C561 1.404 . S
C560 C563 1.539 . S
C561 C557 1.408 . S
C561 C560 1.404 . S
C561 H573 0.930 . S
C562 C558 1.524 . S
C562 H574 0.956 . S
C562 H575 0.961 . S
C562 H576 0.961 . S
C563 C560 1.539 . S
C563 H577 0.958 . S
C563 H578 0.961 . S
C563 H579 0.960 . S
H564 C548 0.931 . S
H565 C553 0.929 . S
H566 C554 0.960 . S
H567 C554 0.962 . S
H568 C554 0.960 . S
H569 C555 0.961 . S
H570 C555 0.961 . S
H571 C555 0.961 . S
H572 C556 0.931 . S
H573 C561 0.930 . S
H574 C562 0.956 . S
H575 C562 0.961 . S
H576 C562 0.961 . S
H577 C563 0.958 . S
H578 C563 0.961 . S
H579 C563 0.960 . S
C580 C581 1.391 . S
C580 C582 1.394 . S
C580 H596 0.931 . S
C581 C580 1.391 . S
C581 C585 1.376 . S
C582 C580 1.394 . S
C582 C583 1.369 . S
C582 C586 1.531 . S
C583 C582 1.369 . S
C583 C584 1.410 . S
C583 C591 1.503 . S
C584 C583 1.410 . S
C584 C585 1.392 . S
C584 C587 1.511 . S
C585 C581 1.376 . S
C585 C584 1.392 . S
C585 H597 0.929 . S
C586 C582 1.531 . S
C586 H598 0.960 . S
C586 H599 0.962 1_455 S
C586 H600 0.950 1_455 S
C587 C584 1.511 . S
C587 H601 0.961 . S
C587 H602 0.961 . S
C587 H603 0.961 . S
C588 C589 1.370 . S
C588 C590 1.363 . S
C588 H604 0.931 . S
C589 C588 1.370 . S
C589 C593 1.408 . S
C590 C588 1.363 . S
C590 C591 1.370 . S
C590 C594 1.524 . S
C591 C583 1.503 . S
C591 C590 1.370 . S
C591 C592 1.403 . S
C592 C591 1.403 . S
C592 C593 1.404 . S
C592 C595 1.539 . S
C593 C589 1.408 . S
C593 C592 1.404 . S
C593 H605 0.930 . S
C594 C590 1.524 . S
C594 H606 0.956 . S
C594 H607 0.961 . S
C594 H608 0.961 . S
C595 C592 1.539 . S
C595 H609 0.958 . S
C595 H610 0.961 . S
C595 H611 0.960 . S
H596 C580 0.931 . S
H597 C585 0.929 . S
H598 C586 0.960 . S
H599 C586 0.962 1_655 S
H600 C586 0.950 1_655 S
H601 C587 0.961 . S
H602 C587 0.961 . S
H603 C587 0.961 . S
H604 C588 0.931 . S
H605 C593 0.930 . S
H606 C594 0.956 . S
H607 C594 0.961 . S
H608 C594 0.961 . S
H609 C595 0.958 . S
H610 C595 0.961 . S
H611 C595 0.960 . S
C237 C164 1.693 . S
C229 C135 1.644 . S
C261 C15 1.584 . S
C269 C207 1.591 . S
C293 C55 1.665 . S
C301 C173 1.687 . S
C325 C95 1.567 . S
C333 C198 1.595 . S
C365 C160 1.643 . S
C357 C2 1.603 . S
C397 C202 1.764 . S
C389 C42 1.774 . S
C421 C82 1.531 . S
C429 C168 1.638 . S
C453 C141 1.622 . S
C461 C194 1.765 . S
C493 C223 1.786 . S
C485 C61 1.759 . S
C525 C189 1.695 . S
C517 C101 1.564 . S
C557 C211 1.787 . S
C549 C122 1.723 . S
C581 C21 1.559 . S
C589 C177 1.681 . S
