# Generated by pormake.
# Topology apo, (3,6)-cn, num edge types: 1
# Building blocks:
#     Node 0, Type 0, BuildingBlock: WUSLED_clean_sbu_0, # of connection points: 3
#     Node 1, Type 0, BuildingBlock: WUSLED_clean_sbu_0, # of connection points: 3
#     Node 2, Type 0, BuildingBlock: WUSLED_clean_sbu_0, # of connection points: 3
#     Node 3, Type 0, BuildingBlock: WUSLED_clean_sbu_0, # of connection points: 3
#     Node 4, Type 0, BuildingBlock: WUSLED_clean_sbu_0, # of connection points: 3
#     Node 5, Type 0, BuildingBlock: WUSLED_clean_sbu_0, # of connection points: 3
#     Node 6, Type 0, BuildingBlock: WUSLED_clean_sbu_0, # of connection points: 3
#     Node 7, Type 0, BuildingBlock: WUSLED_clean_sbu_0, # of connection points: 3
#     Node 8, Type 1, BuildingBlock: KUMBOL_clean_sbu_1, # of connection points: 6
#     Node 9, Type 1, BuildingBlock: KUMBOL_clean_sbu_1, # of connection points: 6
#     Node 10, Type 1, BuildingBlock: KUMBOL_clean_sbu_1, # of connection points: 6
#     Node 11, Type 1, BuildingBlock: KUMBOL_clean_sbu_1, # of connection points: 6
#     Edge 12, Type (0, 1), BuildingBlock: XIVTED_clean_linker_0, # of connection points: 2
#     Edge 13, Type (0, 1), BuildingBlock: XIVTED_clean_linker_0, # of connection points: 2
#     Edge 14, Type (0, 1), BuildingBlock: XIVTED_clean_linker_0, # of connection points: 2
#     Edge 15, Type (0, 1), BuildingBlock: XIVTED_clean_linker_0, # of connection points: 2
#     Edge 16, Type (0, 1), BuildingBlock: XIVTED_clean_linker_0, # of connection points: 2
#     Edge 17, Type (0, 1), BuildingBlock: XIVTED_clean_linker_0, # of connection points: 2
#     Edge 18, Type (0, 1), BuildingBlock: XIVTED_clean_linker_0, # of connection points: 2
#     Edge 19, Type (0, 1), BuildingBlock: XIVTED_clean_linker_0, # of connection points: 2
#     Edge 20, Type (0, 1), BuildingBlock: XIVTED_clean_linker_0, # of connection points: 2
#     Edge 21, Type (0, 1), BuildingBlock: XIVTED_clean_linker_0, # of connection points: 2
#     Edge 22, Type (0, 1), BuildingBlock: XIVTED_clean_linker_0, # of connection points: 2
#     Edge 23, Type (0, 1), BuildingBlock: XIVTED_clean_linker_0, # of connection points: 2
#     Edge 24, Type (0, 1), BuildingBlock: XIVTED_clean_linker_0, # of connection points: 2
#     Edge 25, Type (0, 1), BuildingBlock: XIVTED_clean_linker_0, # of connection points: 2
#     Edge 26, Type (0, 1), BuildingBlock: XIVTED_clean_linker_0, # of connection points: 2
#     Edge 27, Type (0, 1), BuildingBlock: XIVTED_clean_linker_0, # of connection points: 2
#     Edge 28, Type (0, 1), BuildingBlock: XIVTED_clean_linker_0, # of connection points: 2
#     Edge 29, Type (0, 1), BuildingBlock: XIVTED_clean_linker_0, # of connection points: 2
#     Edge 30, Type (0, 1), BuildingBlock: XIVTED_clean_linker_0, # of connection points: 2
#     Edge 31, Type (0, 1), BuildingBlock: XIVTED_clean_linker_0, # of connection points: 2
#     Edge 32, Type (0, 1), BuildingBlock: XIVTED_clean_linker_0, # of connection points: 2
#     Edge 33, Type (0, 1), BuildingBlock: XIVTED_clean_linker_0, # of connection points: 2
#     Edge 34, Type (0, 1), BuildingBlock: XIVTED_clean_linker_0, # of connection points: 2
#     Edge 35, Type (0, 1), BuildingBlock: XIVTED_clean_linker_0, # of connection points: 2
# Relax obj value: 0.010
# Max RMSD: 0.099
# Mean RMSD: 0.075
data_MOF--net-apo--node1-WUSLED_clean_sbu_0--node2-KUMBOL_clean_sbu_1--edge1-XIVTED_clean_linker_0
_symmetry_space_group_name_H-M    P1
_symmetry_Int_Tables_number       1
_symmetry_cell_setting            triclinic
loop_
_symmetry_equiv_pos_as_xyz
'x, y, z'
_cell_length_a     31.73827
_cell_length_b     55.566721
_cell_length_c     66.3762
_cell_angle_alpha  90.141169
_cell_angle_beta   90.116373
_cell_angle_gamma 90.180394
loop_
_atom_site_label
_atom_site_type_symbol
_atom_site_fract_x
_atom_site_fract_y
_atom_site_fract_z
_atom_type_partial_charge
C0 C 0.31256 0.42701 0.37675 0.0
C1 C 0.35158 0.436 0.38344 0.0
C2 C 0.34711 0.46914 0.35948 0.0
C3 C 0.36877 0.45681 0.37483 0.0
C4 C 0.3076 0.46036 0.35318 0.0
C5 C 0.2906 0.43947 0.36169 0.0
U6 U 0.29158 0.3816 0.41931 0.0
O7 O 0.23456 0.36027 0.42555 0.0
O8 O 0.29389 0.34199 0.41848 0.0
C9 C 0.2532 0.3397 0.42157 0.0
C10 C 0.29477 0.40436 0.38469 0.0
C11 C 0.2308 0.32351 0.40751 0.0
C12 C 0.19526 0.3159 0.37559 0.0
C13 C 0.21641 0.33165 0.38872 0.0
C14 C 0.20306 0.2837 0.39982 0.0
C15 C 0.18838 0.29169 0.38097 0.0
C16 C 0.224 0.29946 0.41294 0.0
C17 C 0.33332 0.39544 0.47284 0.0
C18 C 0.31338 0.37445 0.50352 0.0
C19 C 0.37019 0.40363 0.50428 0.0
C20 C 0.36462 0.40777 0.48367 0.0
C21 C 0.34445 0.38706 0.51455 0.0
C22 C 0.30789 0.3786 0.48285 0.0
C23 C 0.32725 0.40096 0.45131 0.0
O24 O 0.32205 0.3878 0.39008 0.0
O25 O 0.26329 0.40659 0.39738 0.0
O26 O 0.28841 0.40561 0.44564 0.0
O27 O 0.34758 0.38719 0.4385 0.0
H28 H 0.36899 0.42682 0.39517 0.0
H29 H 0.399 0.46328 0.38021 0.0
H30 H 0.29029 0.46926 0.34128 0.0
H31 H 0.26049 0.43282 0.35629 0.0
H32 H 0.18482 0.32259 0.36111 0.0
H33 H 0.22163 0.35014 0.38419 0.0
H34 H 0.19787 0.2653 0.40457 0.0
H35 H 0.23486 0.29286 0.42739 0.0
H36 H 0.29267 0.36175 0.51093 0.0
H37 H 0.39488 0.41336 0.51214 0.0
H38 H 0.38468 0.42078 0.47618 0.0
H39 H 0.28351 0.36888 0.47474 0.0
C40 C 0.20641 0.15293 0.98307 0.0
C41 C 0.17604 0.1354 0.98773 0.0
C42 C 0.18225 0.145 0.02358 0.0
C43 C 0.164 0.13152 1.00777 0.0
C44 C 0.21264 0.16257 1.01873 0.0
C45 C 0.22453 0.16648 0.99869 0.0
U46 U 0.21423 0.13382 0.92767 0.0
O47 O 0.20604 0.15507 0.89993 0.0
O48 O 0.26654 0.13754 0.90621 0.0
C49 C 0.24542 0.15212 0.89435 0.0
C50 C 0.21969 0.15722 0.96208 0.0
C51 C 0.26778 0.17375 0.88679 0.0
C52 C 0.32933 0.2001 0.8855 0.0
C53 C 0.30725 0.18098 0.8944 0.0
C54 C 0.27253 0.2054 0.86157 0.0
C55 C 0.31238 0.21242 0.86885 0.0
C56 C 0.25061 0.18628 0.87039 0.0
C57 C 0.16725 0.07268 0.91119 0.0
C58 C 0.13409 0.05947 0.87988 0.0
C59 C 0.16775 0.03035 0.90161 0.0
C60 C 0.17862 0.04876 0.91509 0.0
C61 C 0.14489 0.03538 0.88392 0.0
C62 C 0.1452 0.07792 0.89334 0.0
C63 C 0.17717 0.09147 0.92636 0.0
O64 O 0.24953 0.14302 0.95528 0.0
O65 O 0.18915 0.16055 0.94898 0.0
O66 O 0.15666 0.11193 0.92488 0.0
O67 O 0.21723 0.09436 0.93084 0.0
H68 H 0.16165 0.12473 0.97587 0.0
H69 H 0.14013 0.11807 1.01083 0.0
H70 H 0.22793 0.17303 0.03045 0.0
H71 H 0.24815 0.18002 0.9954 0.0
H72 H 0.35971 0.2052 0.89165 0.0
H73 H 0.32143 0.17166 0.90701 0.0
H74 H 0.25872 0.2142 0.84861 0.0
H75 H 0.22052 0.18089 0.86406 0.0
H76 H 0.1161 0.06406 0.86657 0.0
H77 H 0.17736 0.01215 0.90509 0.0
H78 H 0.19565 0.04425 0.92873 0.0
H79 H 0.13595 0.09619 0.88988 0.0
C80 C 0.81578 0.09432 0.66187 0.0
C81 C 0.85327 0.08365 0.65516 0.0
C82 C 0.84732 0.05268 0.6811 0.0
C83 C 0.86891 0.06302 0.6647 0.0
C84 C 0.80935 0.06327 0.68744 0.0
C85 C 0.79386 0.08386 0.67794 0.0
U86 U 0.79887 0.14006 0.61855 0.0
O87 O 0.74138 0.16067 0.61167 0.0
O88 O 0.79963 0.17959 0.62007 0.0
C89 C 0.75895 0.18132 0.61656 0.0
C90 C 0.79945 0.11676 0.653 0.0
C91 C 0.73461 0.19662 0.63057 0.0
C92 C 0.72442 0.2154 0.66339 0.0
C93 C 0.74753 0.20031 0.65061 0.0
C94 C 0.67461 0.22283 0.63647 0.0
C95 C 0.68771 0.22698 0.65647 0.0
C96 C 0.69788 0.20789 0.62368 0.0
C97 C 0.84353 0.12903 0.56531 0.0
C98 C 0.85796 0.15874 0.53926 0.0
C99 C 0.85284 0.11653 0.53043 0.0
C100 C 0.84492 0.11088 0.55061 0.0
C101 C 0.85976 0.14052 0.52449 0.0
C102 C 0.84976 0.15307 0.55946 0.0
C103 C 0.83662 0.1223 0.5866 0.0
O104 O 0.82749 0.13324 0.64818 0.0
O105 O 0.76937 0.11433 0.63951 0.0
O106 O 0.79769 0.11681 0.59156 0.0
O107 O 0.856 0.13551 0.60026 0.0
H108 H 0.87072 0.09143 0.64276 0.0
H109 H 0.89841 0.05551 0.6595 0.0
H110 H 0.79142 0.0556 0.69973 0.0
H111 H 0.76479 0.09178 0.6833 0.0
H112 H 0.73584 0.21832 0.67858 0.0
H113 H 0.77567 0.19172 0.65635 0.0
H114 H 0.64614 0.23098 0.63067 0.0
H115 H 0.68717 0.20517 0.60832 0.0
H116 H 0.8626 0.17742 0.53519 0.0
H117 H 0.85447 0.10202 0.51955 0.0
H118 H 0.84031 0.09222 0.5548 0.0
H119 H 0.84856 0.16744 0.5705 0.0
C120 C 0.69253 0.35656 0.05812 0.0
C121 C 0.69005 0.3793 0.04899 0.0
C122 C 0.6692 0.36077 1.01707 0.0
C123 C 0.67868 0.38137 0.02865 0.0
C124 C 0.67064 0.3381 0.02647 0.0
C125 C 0.68229 0.33604 0.04676 0.0
U126 U 0.70241 0.37925 0.11256 0.0
O127 O 0.69768 0.35984 0.14132 0.0
O128 O 0.75652 0.37845 0.13344 0.0
C129 C 0.73705 0.36437 0.14633 0.0
C130 C 0.70683 0.35378 0.07921 0.0
C131 C 0.76191 0.34433 0.15486 0.0
C132 C 0.77347 0.3017 0.16138 0.0
C133 C 0.75137 0.32006 0.15148 0.0
C134 C 0.8175 0.33158 0.17774 0.0
C135 C 0.80644 0.30726 0.17489 0.0
C136 C 0.79545 0.34984 0.16788 0.0
C137 C 0.65348 0.44011 0.12662 0.0
C138 C 0.66519 0.46052 0.15862 0.0
C139 C 0.6136 0.47597 0.13507 0.0
C140 C 0.62296 0.45727 0.1217 0.0
C141 C 0.63471 0.47795 0.15369 0.0
C142 C 0.67446 0.44175 0.14521 0.0
C143 C 0.66294 0.42076 0.11213 0.0
O144 O 0.73667 0.36865 0.08521 0.0
O145 O 0.67705 0.35073 0.09271 0.0
O146 O 0.64382 0.40013 0.11535 0.0
O147 O 0.70281 0.4183 0.10723 0.0
H148 H 0.69742 0.39544 0.0575 0.0
H149 H 0.67739 0.39911 0.02197 0.0
H150 H 0.66401 0.32185 1.01799 0.0
H151 H 0.68398 0.31833 0.0535 0.0
H152 H 0.76388 0.28321 0.1589 0.0
H153 H 0.72556 0.31528 0.14152 0.0
H154 H 0.84318 0.33656 0.18769 0.0
H155 H 0.80416 0.36842 0.17074 0.0
H156 H 0.68234 0.46157 0.17272 0.0
H157 H 0.58941 0.48873 0.13089 0.0
H158 H 0.60627 0.4562 0.10746 0.0
H159 H 0.69812 0.42861 0.14929 0.0
C160 C 0.68824 0.59271 0.6585 0.0
C161 C 0.68682 0.57075 0.64796 0.0
C162 C 0.65311 0.55124 0.6767 0.0
C163 C 0.66951 0.55018 0.65701 0.0
C164 C 0.65432 0.57338 0.68704 0.0
C165 C 0.67171 0.59382 0.67804 0.0
U166 U 0.71782 0.63693 0.61551 0.0
O167 O 0.71969 0.67646 0.6164 0.0
O168 O 0.77802 0.65628 0.6113 0.0
C169 C 0.76099 0.67737 0.615 0.0
C170 C 0.70831 0.61447 0.65005 0.0
C171 C 0.78321 0.69273 0.62993 0.0
C172 C 0.78529 0.71469 0.66176 0.0
C173 C 0.76445 0.69918 0.64834 0.0
C174 C 0.84452 0.71701 0.63892 0.0
C175 C 0.8255 0.72391 0.65717 0.0
C176 C 0.82351 0.70167 0.62543 0.0
C177 C 0.68072 0.62514 0.56043 0.0
C178 C 0.70998 0.62552 0.52646 0.0
C179 C 0.63628 0.63461 0.53147 0.0
C180 C 0.64136 0.63142 0.55227 0.0
C181 C 0.67039 0.63142 0.51822 0.0
C182 C 0.71508 0.6224 0.54727 0.0
C183 C 0.68428 0.6194 0.58225 0.0
O184 O 0.74069 0.61111 0.63805 0.0
O185 O 0.68278 0.63148 0.64381 0.0
O186 O 0.66376 0.63348 0.59478 0.0
O187 O 0.72157 0.61305 0.58908 0.0
H188 H 0.69933 0.56945 0.63283 0.0
H189 H 0.66867 0.53351 0.64854 0.0
H190 H 0.64257 0.57482 0.70231 0.0
H191 H 0.67275 0.61053 0.6865 0.0
H192 H 0.76999 0.71938 0.67579 0.0
H193 H 0.73353 0.69243 0.65232 0.0
H194 H 0.87525 0.72394 0.63483 0.0
H195 H 0.83859 0.697 0.61133 0.0
H196 H 0.73689 0.62252 0.51679 0.0
H197 H 0.60546 0.63945 0.52578 0.0
H198 H 0.61417 0.63342 0.56196 0.0
H199 H 0.74578 0.61728 0.55294 0.0
C200 C 0.80053 0.86614 0.05618 0.0
C201 C 0.82686 0.88574 0.05173 0.0
C202 C 0.82703 0.87457 1.0161 0.0
C203 C 0.84 0.88991 0.0319 0.0
C204 C 0.80071 0.85489 0.02073 0.0
C205 C 0.78761 0.85075 0.04057 0.0
U206 U 0.79513 0.88424 0.11161 0.0
O207 O 0.74198 0.88342 0.13297 0.0
O208 O 0.79913 0.8625 0.13918 0.0
C209 C 0.7606 0.86782 0.14487 0.0
C210 C 0.78605 0.86174 0.07695 0.0
C211 C 0.73433 0.84776 0.15234 0.0
C212 C 0.7141 0.80545 0.15303 0.0
C213 C 0.73729 0.82436 0.14443 0.0
C214 C 0.68408 0.83323 0.17716 0.0
C215 C 0.68745 0.80962 0.16964 0.0
C216 C 0.70726 0.85204 0.16861 0.0
C217 C 0.85248 0.94231 0.12806 0.0
C218 C 0.90147 0.97374 0.13833 0.0
C219 C 0.84033 0.96509 0.15887 0.0
C220 C 0.82823 0.94694 0.14531 0.0
C221 C 0.87689 0.97892 0.15542 0.0
C222 C 0.88934 0.95566 0.12481 0.0
C223 C 0.83957 0.92421 0.11296 0.0
O224 O 0.8157 0.85647 0.09007 0.0
O225 O 0.75857 0.87729 0.08396 0.0
O226 O 0.79925 0.92354 0.10842 0.0
O227 O 0.85632 0.90274 0.1149 0.0
H228 H 0.83724 0.89781 0.0636 0.0
H229 H 0.86071 0.90502 0.02899 0.0
H230 H 0.78962 0.84289 1.00898 0.0
H231 H 0.76714 0.83558 0.04371 0.0
H232 H 0.71708 0.78757 0.14667 0.0
H233 H 0.75791 0.82063 0.13183 0.0
H234 H 0.66445 0.83713 0.19008 0.0
H235 H 0.7047 0.86993 0.17503 0.0
H236 H 0.93022 0.98367 0.13538 0.0
H237 H 0.82048 0.96869 0.17178 0.0
H238 H 0.79967 0.93677 0.14814 0.0
H239 H 0.90862 0.95225 0.11166 0.0
C240 C 0.19005 0.92186 0.37737 0.0
C241 C 0.15087 0.93103 0.38344 0.0
C242 C 0.15702 0.96377 0.3591 0.0
C243 C 0.13449 0.95175 0.37437 0.0
C244 C 0.19667 0.95473 0.35344 0.0
C245 C 0.2129 0.93399 0.36245 0.0
U246 U 0.2088 0.876 0.42013 0.0
O247 O 0.20728 0.83637 0.41863 0.0
O248 O 0.26577 0.85508 0.42692 0.0
C249 C 0.24783 0.83443 0.4223 0.0
C250 C 0.20714 0.89927 0.3857 0.0
C251 C 0.27151 0.81885 0.40835 0.0
C252 C 0.31248 0.81298 0.37779 0.0
C253 C 0.28957 0.82805 0.39067 0.0
C254 C 0.299 0.77929 0.39996 0.0
C255 C 0.31761 0.78838 0.38229 0.0
C256 C 0.27626 0.79439 0.41284 0.0
C257 C 0.16548 0.88783 0.47349 0.0
C258 C 0.1537 0.85838 0.5 0.0
C259 C 0.15504 0.90088 0.50813 0.0
C260 C 0.16247 0.90627 0.48787 0.0
C261 C 0.15028 0.87688 0.51446 0.0
C262 C 0.16139 0.8638 0.47972 0.0
C263 C 0.17197 0.89425 0.45213 0.0
O264 O 0.23788 0.90155 0.39887 0.0
O265 O 0.17949 0.88264 0.39064 0.0
O266 O 0.15216 0.8809 0.43871 0.0
O267 O 0.21087 0.89948 0.44694 0.0
H268 H 0.13265 0.92199 0.39496 0.0
H269 H 0.10371 0.95801 0.379 0.0
H270 H 0.21534 0.9637 0.34206 0.0
H271 H 0.24326 0.92727 0.3576 0.0
H272 H 0.3267 0.82072 0.36448 0.0
H273 H 0.28617 0.84691 0.3869 0.0
H274 H 0.30155 0.76042 0.40376 0.0
H275 H 0.26234 0.78692 0.42636 0.0
H276 H 0.15073 0.83969 0.50439 0.0
H277 H 0.15212 0.91558 0.51877 0.0
H278 H 0.16545 0.92493 0.48337 0.0
H279 H 0.16389 0.84924 0.4689 0.0
C280 C 0.31971 0.66167 0.97838 0.0
C281 C 0.31686 0.63922 0.988 0.0
C282 C 0.34075 0.65713 0.01966 0.0
C283 C 0.32708 0.63701 1.00846 0.0
C284 C 0.34463 0.67941 1.0098 0.0
C285 C 0.3341 0.68165 0.98939 0.0
U286 U 0.31016 0.63865 0.92406 0.0
O287 O 0.25834 0.64168 0.90221 0.0
O288 O 0.32009 0.6575 0.89523 0.0
C289 C 0.28065 0.6547 0.88958 0.0
C290 C 0.30706 0.66475 0.95709 0.0
C291 C 0.25971 0.67594 0.88078 0.0
C292 C 0.20761 0.70801 0.88187 0.0
C293 C 0.22935 0.68924 0.89138 0.0
C294 C 0.2471 0.70081 0.85129 0.0
C295 C 0.21579 0.71381 0.86158 0.0
C296 C 0.26871 0.6821 0.86078 0.0
C297 C 0.35192 0.57577 0.9112 0.0
C298 C 0.34167 0.55637 0.87866 0.0
C299 C 0.38713 0.53808 0.90363 0.0
C300 C 0.37881 0.55704 0.91691 0.0
C301 C 0.36862 0.53743 0.88433 0.0
C302 C 0.33344 0.57539 0.89198 0.0
C303 C 0.34386 0.59554 0.92547 0.0
O304 O 0.33799 0.66629 0.94401 0.0
O305 O 0.27564 0.65119 0.95076 0.0
O306 O 0.30406 0.59977 0.92958 0.0
O307 O 0.36594 0.61525 0.92254 0.0
H308 H 0.30626 0.62345 0.97978 0.0
H309 H 0.32422 0.61953 1.01553 0.0
H310 H 0.3546 0.69532 1.01799 0.0
H311 H 0.33659 0.69912 0.98226 0.0
H312 H 0.18354 0.7175 0.89023 0.0
H313 H 0.22184 0.68482 0.90685 0.0
H314 H 0.25489 0.70503 0.83581 0.0
H315 H 0.29206 0.6721 0.85233 0.0
H316 H 0.32654 0.55637 0.86403 0.0
H317 H 0.40863 0.52411 0.90841 0.0
H318 H 0.39355 0.55713 0.93164 0.0
H319 H 0.31261 0.58975 0.88731 0.0
C320 C 0.85935 0.13438 0.2719 0.0
C321 C 0.84359 0.09192 0.27576 0.0
C322 C 0.87105 0.11168 0.27825 0.0
C323 C 0.80528 0.09508 0.26548 0.0
C324 C 0.81973 0.13795 0.26273 0.0
C325 C 0.79341 0.11806 0.25893 0.0
N326 N 0.88495 0.15326 0.27645 0.0
C327 C 0.87067 0.17628 0.27437 0.0
C328 C 0.80689 0.16152 0.25864 0.0
C329 C 0.83211 0.18079 0.26489 0.0
Gd330 Gd 0.04648 0.1454 0.24942 0.0
Gd331 Gd 0.95104 0.14359 0.29047 0.0
N332 N 0.90816 0.10928 0.28818 0.0
C333 C 0.85469 0.06987 0.28445 0.0
C334 C 0.91788 0.08836 0.29788 0.0
C335 C 0.89157 0.06823 0.29593 0.0
H336 H 0.94659 0.08715 0.30662 0.0
H337 H 0.89984 0.05146 0.30317 0.0
H338 H 0.01655 0.1905 0.2182 0.0
H339 H 0.8889 0.19124 0.28011 0.0
H340 H 0.03217 0.23354 0.21349 0.0
H341 H 0.83436 0.05426 0.28295 0.0
H342 H 0.78395 0.08006 0.26317 0.0
H343 H 0.12785 0.12233 0.27408 0.0
H344 H 0.77672 0.16505 0.25159 0.0
H345 H 0.82157 0.19911 0.26271 0.0
H346 H 0.15192 0.24797 0.25616 0.0
H347 H 0.76307 0.12041 0.25169 0.0
H348 H 0.21363 0.17959 0.28877 0.0
H349 H 0.19424 0.13641 0.29008 0.0
N350 N 0.11025 0.15723 0.26428 0.0
C351 C 0.12142 0.18069 0.26239 0.0
C352 C 0.13646 0.14115 0.27342 0.0
C353 C 0.18473 0.17347 0.28168 0.0
C354 C 0.1739 0.14907 0.28245 0.0
C355 C 0.15862 0.18959 0.27136 0.0
H356 H 0.19694 0.22137 0.27649 0.0
N357 N 0.06179 0.18589 0.2416 0.0
C358 C 0.09595 0.19559 0.251 0.0
C359 C 0.08289 0.23392 0.23511 0.0
C360 C 0.10718 0.21993 0.2482 0.0
C361 C 0.0405 0.19887 0.22743 0.0
C362 C 0.04993 0.22319 0.22437 0.0
O363 O 0.95843 0.11262 0.26813 0.0
O364 O 0.98189 0.13262 0.24038 0.0
O365 O 0.07711 0.14713 0.21961 0.0
O366 O 0.07392 0.11342 0.23648 0.0
O367 O 0.00846 0.12127 0.29829 0.0
O368 O 0.04536 0.11192 0.26888 0.0
O369 O 0.05557 0.1564 0.28219 0.0
O370 O 0.99428 0.17578 0.2893 0.0
O371 O 0.96746 0.13986 0.32213 0.0
O372 O 0.90716 0.15448 0.31391 0.0
O373 O 0.98363 0.16206 0.24073 0.0
O374 O 0.95866 0.17698 0.27083 0.0
C375 C 0.96375 0.11385 0.24853 0.0
C376 C 0.03505 0.10788 0.28787 0.0
C377 C 0.11036 0.11135 0.20455 0.0
C378 C 0.13286 0.10565 0.16955 0.0
C379 C 0.155 0.07758 0.19558 0.0
C380 C 0.13265 0.09054 0.20997 0.0
C381 C 0.1551 0.08499 0.17555 0.0
C382 C 0.11091 0.11907 0.18429 0.0
C383 C 0.08652 0.12438 0.22028 0.0
C384 C 0.14308 0.22925 0.25794 0.0
C385 C 0.1688 0.21409 0.26947 0.0
H386 H 0.09043 0.25269 0.23255 0.0
C387 C 0.03522 0.17391 0.29118 0.0
C388 C 0.96093 0.17767 0.25101 0.0
C389 C 0.93741 0.16789 0.34447 0.0
C390 C 0.93266 0.17932 0.38008 0.0
C391 C 0.95636 0.2083 0.35495 0.0
C392 C 0.95161 0.1911 0.33976 0.0
C393 C 0.94691 0.20255 0.37493 0.0
C394 C 0.92805 0.16204 0.36459 0.0
C395 C 0.93279 0.14952 0.3286 0.0
H396 H 0.17229 0.06166 0.19996 0.0
H397 H 0.13301 0.08432 0.22543 0.0
H398 H 0.17297 0.07458 0.16473 0.0
H399 H 0.09346 0.13496 0.17993 0.0
H400 H 0.96725 0.22623 0.35121 0.0
H401 H 0.95891 0.19588 0.32435 0.0
H402 H 0.95021 0.21644 0.38629 0.0
H403 H 0.91776 0.14393 0.36815 0.0
C404 C 0.62358 0.40686 0.76988 0.0
C405 C 0.61476 0.4471 0.78347 0.0
C406 C 0.60076 0.42307 0.78154 0.0
C407 C 0.65073 0.45476 0.77296 0.0
C408 C 0.66017 0.41437 0.75962 0.0
C409 C 0.6734 0.43845 0.7611 0.0
N410 N 0.60913 0.38388 0.76804 0.0
C411 C 0.63077 0.36721 0.75708 0.0
C412 C 0.68206 0.39751 0.74797 0.0
C413 C 0.66742 0.3738 0.74679 0.0
Gd414 Gd 0.44481 0.37568 0.74987 0.0
Gd415 Gd 0.54784 0.37451 0.786 0.0
N416 N 0.56568 0.41523 0.7914 0.0
C417 C 0.59281 0.46259 0.79633 0.0
C418 C 0.54705 0.4296 0.80548 0.0
C419 C 0.55936 0.45364 0.80771 0.0
H420 H 0.52375 0.42248 0.81559 0.0
H421 H 0.54367 0.46509 0.81855 0.0
H422 H 0.45978 0.31708 0.73866 0.0
H423 H 0.61973 0.34884 0.75632 0.0
H424 H 0.42119 0.2788 0.74162 0.0
H425 H 0.60255 0.48116 0.79823 0.0
H426 H 0.66167 0.47321 0.77414 0.0
H427 H 0.37874 0.41861 0.76545 0.0
H428 H 0.71031 0.40259 0.73987 0.0
H429 H 0.68435 0.3606 0.73797 0.0
H430 H 0.28755 0.30128 0.76954 0.0
H431 H 0.70124 0.4446 0.75319 0.0
H432 H 0.2633 0.38484 0.78335 0.0
H433 H 0.30669 0.42158 0.77929 0.0
N434 N 0.37643 0.38057 0.76236 0.0
C435 C 0.353 0.36018 0.76424 0.0
C436 C 0.36028 0.40245 0.76752 0.0
C437 C 0.29497 0.38341 0.77741 0.0
C438 C 0.3194 0.4042 0.77518 0.0
C439 C 0.31161 0.36105 0.77186 0.0
H440 H 0.25644 0.33997 0.77963 0.0
N441 N 0.41106 0.33803 0.75176 0.0
C442 C 0.37063 0.33829 0.75861 0.0
C443 C 0.36591 0.29518 0.75441 0.0
C444 C 0.34719 0.31682 0.76037 0.0
C445 C 0.42883 0.31713 0.7452 0.0
C446 C 0.40676 0.29538 0.74663 0.0
O447 O 0.55001 0.39046 0.75428 0.0
O448 O 0.48606 0.40856 0.75096 0.0
O449 O 0.44988 0.37021 0.71746 0.0
O450 O 0.40218 0.39392 0.72932 0.0
O451 O 0.48681 0.39009 0.79848 0.0
O452 O 0.45492 0.40732 0.77074 0.0
O453 O 0.43824 0.35577 0.77946 0.0
O454 O 0.50401 0.34264 0.78983 0.0
O455 O 0.56394 0.37582 0.81837 0.0
O456 O 0.59946 0.35332 0.79745 0.0
O457 O 0.50275 0.35548 0.73905 0.0
O458 O 0.53946 0.3414 0.76683 0.0
C459 C 0.52676 0.40837 0.74784 0.0
C460 C 0.4608 0.40586 0.79035 0.0
C461 C 0.38576 0.37261 0.69937 0.0
C462 C 0.36073 0.36498 0.66497 0.0
C463 C 0.32233 0.349 0.69371 0.0
C464 C 0.35147 0.35941 0.70684 0.0
C465 C 0.32684 0.35171 0.67295 0.0
C466 C 0.39021 0.37546 0.67838 0.0
C467 C 0.41697 0.3833 0.71334 0.0
C468 C 0.30598 0.31762 0.76801 0.0
C469 C 0.28826 0.33966 0.77376 0.0
H470 H 0.34895 0.27829 0.75553 0.0
C471 C 0.46259 0.34151 0.79012 0.0
C472 C 0.52977 0.34061 0.74756 0.0
C473 C 0.62347 0.35248 0.83213 0.0
C474 C 0.64683 0.35187 0.86732 0.0
C475 C 0.68677 0.33067 0.84169 0.0
C476 C 0.6582 0.33804 0.82701 0.0
C477 C 0.68133 0.33764 0.86167 0.0
C478 C 0.61758 0.35918 0.8525 0.0
C479 C 0.59507 0.3609 0.81585 0.0
H480 H 0.29593 0.3389 0.69966 0.0
H481 H 0.34696 0.35727 0.72281 0.0
H482 H 0.30326 0.34377 0.66314 0.0
H483 H 0.41671 0.3856 0.67253 0.0
H484 H 0.71344 0.31964 0.83753 0.0
H485 H 0.66367 0.33259 0.81156 0.0
H486 H 0.70405 0.33178 0.87283 0.0
H487 H 0.59109 0.37034 0.85674 0.0
C488 C 0.8878 0.83512 0.77789 0.0
C489 C 0.90389 0.7958 0.79148 0.0
C490 C 0.91449 0.82023 0.78866 0.0
C491 C 0.8672 0.78642 0.78248 0.0
C492 C 0.85001 0.8261 0.76958 0.0
C493 C 0.84027 0.80156 0.77159 0.0
N494 N 0.89857 0.85863 0.77581 0.0
C495 C 0.87165 0.87458 0.767 0.0
C496 C 0.82295 0.84213 0.75974 0.0
C497 C 0.8336 0.86653 0.75866 0.0
Gd498 Gd 0.05583 0.87585 0.74825 0.0
Gd499 Gd 0.96276 0.87082 0.79002 0.0
N500 N 0.94943 0.82997 0.79737 0.0
C501 C 0.92966 0.78175 0.80385 0.0
C502 C 0.97231 0.81687 0.81089 0.0
C503 C 0.96355 0.79247 0.81391 0.0
H504 H 0.99683 0.82524 0.81974 0.0
H505 H 0.98248 0.78206 0.82428 0.0
H506 H 0.04707 0.93183 0.73136 0.0
H507 H 0.87999 0.89343 0.76617 0.0
H508 H 0.08567 0.97062 0.73391 0.0
H509 H 0.92263 0.76291 0.80641 0.0
H510 H 0.85879 0.76764 0.78432 0.0
H511 H 0.12672 0.83318 0.76137 0.0
H512 H 0.79357 0.83592 0.75318 0.0
H513 H 0.8126 0.87911 0.75136 0.0
H514 H 0.20799 0.95158 0.77357 0.0
H515 H 0.81163 0.7942 0.76511 0.0
H516 H 0.23241 0.86845 0.78859 0.0
H517 H 0.1947 0.83101 0.77924 0.0
N518 N 0.12299 0.87137 0.763 0.0
C519 C 0.14471 0.89207 0.76657 0.0
C520 C 0.1416 0.84962 0.76638 0.0
C521 C 0.20189 0.8695 0.78131 0.0
C522 C 0.18067 0.84833 0.77609 0.0
C523 C 0.18458 0.89174 0.776 0.0
H524 H 0.23704 0.91356 0.78644 0.0
N525 N 0.09083 0.91301 0.74966 0.0
C526 C 0.12851 0.9135 0.75934 0.0
C527 C 0.13536 0.95598 0.75235 0.0
C528 C 0.15146 0.93513 0.76132 0.0
C529 C 0.0761 0.93286 0.73985 0.0
C530 C 0.09787 0.95474 0.74127 0.0
O531 O 0.95269 0.85842 0.75764 0.0
O532 O 0.0162 0.84209 0.74929 0.0
O533 O 0.04151 0.87938 0.71633 0.0
O534 O 0.10199 0.86588 0.72559 0.0
O535 O 0.02695 0.85518 0.79785 0.0
O536 O 0.05333 0.84192 0.76739 0.0
O537 O 0.04552 0.90589 0.7711 0.0
O538 O 0.02648 0.8851 0.79922 0.0
O539 O 0.93564 0.86745 0.82009 0.0
O540 O 0.93036 0.90087 0.8039 0.0
O541 O 0.99403 0.89391 0.74061 0.0
O542 O 0.9615 0.90461 0.77074 0.0
C543 C 0.97495 0.8421 0.74811 0.0
C544 C 0.05061 0.84043 0.78718 0.0
C545 C 0.07447 0.85148 0.69482 0.0
C546 C 0.08053 0.83951 0.6594 0.0
C547 C 0.06061 0.81018 0.68497 0.0
C548 C 0.06333 0.82785 0.69989 0.0
C549 C 0.06922 0.81589 0.6649 0.0
C550 C 0.08299 0.85728 0.67461 0.0
C551 C 0.07709 0.87023 0.71047 0.0
C552 C 0.1901 0.93509 0.77166 0.0
C553 C 0.20659 0.91344 0.77903 0.0
H554 H 0.1521 0.97295 0.75348 0.0
C555 C 0.04468 0.90368 0.79077 0.0
C556 C 0.96904 0.90791 0.75133 0.0
C557 C 0.9376 0.90329 0.83942 0.0
C558 C 0.9314 0.91034 0.87579 0.0
C559 C 0.97891 0.93481 0.85554 0.0
C560 C 0.96704 0.92217 0.83827 0.0
C561 C 0.96131 0.92899 0.87415 0.0
C562 C 0.91996 0.89737 0.85827 0.0
C563 C 0.92486 0.88996 0.82104 0.0
H564 H 0.05206 0.79194 0.689 0.0
H565 H 0.05695 0.82309 0.71539 0.0
H566 H 0.06764 0.80166 0.65375 0.0
H567 H 0.09105 0.87566 0.67077 0.0
H568 H 0.00178 0.94925 0.85451 0.0
H569 H 0.98079 0.92725 0.82399 0.0
H570 H 0.97142 0.93902 0.88732 0.0
H571 H 0.8968 0.88304 0.85919 0.0
C572 C 0.64373 0.67221 0.27003 0.0
C573 C 0.63875 0.71304 0.28279 0.0
C574 C 0.62215 0.68952 0.2811 0.0
C575 C 0.67616 0.71906 0.27268 0.0
C576 C 0.68153 0.67812 0.26004 0.0
C577 C 0.69748 0.70166 0.26135 0.0
N578 N 0.62678 0.64977 0.26839 0.0
C579 C 0.64656 0.6322 0.2576 0.0
C580 C 0.7018 0.66026 0.24876 0.0
C581 C 0.68429 0.63719 0.24759 0.0
Gd582 Gd 0.45856 0.64595 0.25099 0.0
Gd583 Gd 0.56376 0.643 0.28577 0.0
N584 N 0.58557 0.68328 0.29051 0.0
C585 C 0.61777 0.7297 0.29496 0.0
C586 C 0.56738 0.69886 0.30381 0.0
C587 C 0.5824 0.72242 0.30582 0.0
H588 H 0.54231 0.69315 0.31356 0.0
H589 H 0.56723 0.7348 0.3161 0.0
H590 H 0.47712 0.59701 0.22147 0.0
H591 H 0.63326 0.61431 0.25681 0.0
H592 H 0.45134 0.55556 0.21805 0.0
H593 H 0.62953 0.74792 0.29668 0.0
H594 H 0.68913 0.73709 0.27372 0.0
H595 H 0.38893 0.67459 0.27994 0.0
H596 H 0.73088 0.66411 0.24086 0.0
H597 H 0.69983 0.62326 0.23897 0.0
H598 H 0.33056 0.55266 0.26116 0.0
H599 H 0.72634 0.70658 0.25368 0.0
H600 H 0.29079 0.62503 0.29551 0.0
H601 H 0.3225 0.66569 0.29786 0.0
N602 N 0.39529 0.63925 0.26825 0.0
C603 C 0.37778 0.617 0.26621 0.0
C604 C 0.37567 0.65674 0.27916 0.0
C605 C 0.31997 0.62885 0.28768 0.0
C606 C 0.33787 0.65179 0.28913 0.0
C607 C 0.33984 0.61112 0.27609 0.0
H608 H 0.29433 0.58285 0.28194 0.0
N609 N 0.43519 0.60616 0.24522 0.0
C610 C 0.39871 0.59987 0.25469 0.0
C611 C 0.40167 0.5602 0.23974 0.0
C612 C 0.38144 0.57657 0.25247 0.0
C613 C 0.45243 0.591 0.2313 0.0
C614 C 0.43682 0.56763 0.22879 0.0
O615 O 0.56762 0.65994 0.2547 0.0
O616 O 0.50324 0.67772 0.25019 0.0
O617 O 0.44642 0.64702 0.21825 0.0
O618 O 0.4088 0.66829 0.23925 0.0
O619 O 0.50461 0.65983 0.29908 0.0
O620 O 0.47076 0.67722 0.27193 0.0
O621 O 0.45486 0.62755 0.28157 0.0
O622 O 0.52022 0.61087 0.28648 0.0
O623 O 0.57673 0.64286 0.3185 0.0
O624 O 0.61374 0.62099 0.29774 0.0
O625 O 0.51707 0.62813 0.23792 0.0
O626 O 0.55267 0.61132 0.265 0.0
C627 C 0.54402 0.67698 0.24704 0.0
C628 C 0.47822 0.67572 0.2914 0.0
C629 C 0.38941 0.67198 0.20406 0.0
C630 C 0.36668 0.67295 0.1688 0.0
C631 C 0.33174 0.69794 0.19371 0.0
C632 C 0.35823 0.68906 0.20868 0.0
C633 C 0.33568 0.68985 0.17394 0.0
C634 C 0.39396 0.66416 0.1839 0.0
C635 C 0.41534 0.66202 0.22066 0.0
C636 C 0.34403 0.57053 0.26258 0.0
C637 C 0.32328 0.58775 0.27433 0.0
H638 H 0.3894 0.54215 0.23762 0.0
C639 C 0.47914 0.61045 0.28868 0.0
C640 C 0.54276 0.61191 0.24571 0.0
C641 C 0.63411 0.61821 0.33285 0.0
C642 C 0.65733 0.61762 0.3681 0.0
C643 C 0.69236 0.59265 0.34317 0.0
C644 C 0.66555 0.60128 0.32824 0.0
C645 C 0.6885 0.60083 0.36291 0.0
C646 C 0.62969 0.62615 0.35301 0.0
C647 C 0.60769 0.62776 0.31623 0.0
H648 H 0.30781 0.71102 0.19748 0.0
H649 H 0.35396 0.69548 0.22396 0.0
H650 H 0.31458 0.69693 0.16257 0.0
H651 H 0.41767 0.65094 0.18006 0.0
H652 H 0.71644 0.57965 0.3394 0.0
H653 H 0.66975 0.59476 0.31299 0.0
H654 H 0.70982 0.59386 0.37425 0.0
H655 H 0.60578 0.63925 0.35684 0.0
H656 H 0.11075 1.00071 0.37569 0.0
H657 H 0.08872 0.07385 0.2722 0.0
H658 H 0.16219 0.97627 0.31909 0.0
H659 H 0.02513 0.09376 0.32722 0.0
H660 H 0.11866 0.03906 0.28948 0.0
H661 H 0.08139 0.03571 0.35849 0.0
C662 C 0.11575 1.00258 0.35964 0.0
C663 C 0.13911 0.98539 0.34889 0.0
C664 C 0.09815 0.05106 0.29777 0.0
C665 C 0.10591 0.02577 0.32908 0.0
C666 C 0.08105 0.07099 0.2879 0.0
C667 C 0.05422 0.08686 0.29821 0.0
C668 C 0.08857 0.04691 0.31813 0.0
C669 C 0.04556 0.08209 0.31859 0.0
C670 C 0.09914 0.02269 0.34984 0.0
C671 C 0.14504 0.98915 0.32813 0.0
N672 N 0.06266 0.0626 0.32785 0.0
N673 N 0.12859 0.00887 0.31894 0.0
H674 H 0.37756 0.48938 0.8931 0.0
H675 H 0.43293 0.4507 0.77982 0.0
H676 H 0.38082 0.53917 0.84329 0.0
H677 H 0.4457 0.40341 0.83091 0.0
H678 H 0.40674 0.48223 0.80227 0.0
H679 H 0.39625 0.45683 0.87006 0.0
C680 C 0.3823 0.49353 0.87733 0.0
C681 C 0.37789 0.5172 0.87022 0.0
C682 C 0.41502 0.46492 0.80856 0.0
C683 C 0.39882 0.47976 0.84361 0.0
C684 C 0.42972 0.44684 0.79573 0.0
C685 C 0.44161 0.42439 0.80352 0.0
C686 C 0.41199 0.46052 0.82935 0.0
C687 C 0.43713 0.4205 0.82429 0.0
C688 C 0.39277 0.47487 0.86415 0.0
C689 C 0.3835 0.52125 0.84949 0.0
N690 N 0.42283 0.4384 0.83648 0.0
N691 N 0.39381 0.50277 0.83696 0.0
H692 H 0.68236 0.50458 0.67584 0.0
H693 H 0.49888 0.45455 0.74755 0.0
H694 H 0.58238 0.54823 0.70024 0.0
H695 H 0.5985 0.40964 0.72464 0.0
H696 H 0.52981 0.48898 0.73023 0.0
H697 H 0.65267 0.46951 0.69318 0.0
C698 C 0.65402 0.50679 0.68471 0.0
C699 C 0.63494 0.52948 0.68659 0.0
C700 C 0.54509 0.47164 0.72897 0.0
C701 C 0.60101 0.4894 0.70664 0.0
C702 C 0.52732 0.45194 0.73881 0.0
C703 C 0.54623 0.42922 0.73756 0.0
C704 C 0.58199 0.46867 0.71758 0.0
C705 C 0.58322 0.42693 0.72617 0.0
C706 C 0.63727 0.48677 0.69472 0.0
C707 C 0.59859 0.53124 0.69854 0.0
N708 N 0.59989 0.44641 0.71658 0.0
N709 N 0.58289 0.51153 0.70806 0.0
H710 H 0.90837 0.02333 0.14546 0.0
H711 H 0.93696 0.06858 0.25936 0.0
H712 H 0.87287 0.98052 0.19691 0.0
H713 H 0.95988 0.11304 0.20734 0.0
H714 H 0.91418 0.03591 0.23707 0.0
H715 H 0.92907 0.05589 0.16813 0.0
C716 C 0.90513 0.02069 0.16154 0.0
C717 C 0.88901 0.99901 0.16924 0.0
C718 C 0.92399 0.05286 0.23054 0.0
C719 C 0.91228 0.03656 0.19541 0.0
C720 C 0.93668 0.07161 0.2433 0.0
C721 C 0.94972 0.09377 0.2353 0.0
C722 C 0.92477 0.05617 0.20956 0.0
C723 C 0.94996 0.09634 0.21425 0.0
C724 C 0.9167 0.03941 0.1745 0.0
C725 C 0.88479 0.99693 0.19025 0.0
N726 N 0.93775 0.0778 0.20216 0.0
N727 N 0.89647 0.01542 0.20259 0.0
H728 H 0.84672 0.04297 0.72173 0.0
H729 H 0.97067 0.91833 0.71101 0.0
H730 H 0.88704 0.01315 0.66486 0.0
H731 H 0.92211 0.94481 0.76759 0.0
H732 H 0.94056 0.95308 0.69406 0.0
H733 H 0.87424 1.00745 0.73883 0.0
C734 C 0.86108 0.02891 0.71278 0.0
C735 C 0.86438 0.03114 0.69174 0.0
C736 C 0.93633 0.9513 0.71017 0.0
C737 C 0.89659 0.9904 0.71139 0.0
C738 C 0.95356 0.9314 0.71992 0.0
C739 C 0.94907 0.92856 0.74085 0.0
C740 C 0.91442 0.96869 0.72134 0.0
C741 C 0.92641 0.94617 0.75146 0.0
C742 C 0.87702 1.00865 0.72261 0.0
C743 C 0.88417 0.01245 0.68109 0.0
N744 N 0.91007 0.9655 0.7416 0.0
N745 N 0.89947 0.99293 0.69101 0.0
H746 H 0.62896 0.47682 0.19509 0.0
H747 H 0.55153 0.61345 0.20469 0.0
H748 H 0.61766 0.52516 0.14457 0.0
H749 H 0.57441 0.56774 0.25599 0.0
H750 H 0.57665 0.5814 0.18252 0.0
H751 H 0.61037 0.50991 0.21772 0.0
C752 C 0.62294 0.4944 0.18874 0.0
C753 C 0.62472 0.49808 0.16781 0.0
C754 C 0.5764 0.57839 0.19863 0.0
C755 C 0.60284 0.53607 0.19371 0.0
C756 C 0.56202 0.59669 0.2113 0.0
C757 C 0.56058 0.59322 0.23222 0.0
C758 C 0.5894 0.55635 0.20689 0.0
C759 C 0.57495 0.57121 0.23995 0.0
C760 C 0.6121 0.51328 0.20169 0.0
C761 C 0.61596 0.52127 0.16051 0.0
N762 N 0.58847 0.55356 0.22728 0.0
N763 N 0.6053 0.53929 0.1734 0.0
H764 H 0.30859 0.51156 0.34892 0.0
H765 H 0.51275 0.56586 0.29466 0.0
H766 H 0.42893 0.47569 0.34745 0.0
H767 H 0.4024 0.60818 0.30771 0.0
H768 H 0.48078 0.53178 0.31216 0.0
H769 H 0.34034 0.54615 0.33181 0.0
C770 C 0.34167 0.51094 0.34499 0.0
C771 C 0.36613 0.49067 0.34967 0.0
C772 C 0.46346 0.5485 0.31116 0.0
C773 C 0.40267 0.53024 0.33009 0.0
C774 C 0.48173 0.568 0.3012 0.0
C775 C 0.45995 0.58984 0.29947 0.0
C776 C 0.423 0.55076 0.31948 0.0
C777 C 0.41982 0.5915 0.30821 0.0
C778 C 0.35981 0.53075 0.33531 0.0
C779 C 0.40896 0.49101 0.34438 0.0
N780 N 0.40255 0.5722 0.31777 0.0
N781 N 0.42577 0.51039 0.33481 0.0
H782 H 0.11847 0.98968 0.89369 0.0
H783 H 0.06055 0.95077 0.78102 0.0
H784 H 0.14046 0.03564 0.84238 0.0
H785 H 0.06753 0.90071 0.83043 0.0
H786 H 0.08725 0.98259 0.8032 0.0
H787 H 0.09663 0.9575 0.87088 0.0
C788 C 0.11916 0.993 0.87763 0.0
C789 C 0.13162 0.01553 0.87004 0.0
C790 C 0.08323 0.9646 0.80916 0.0
C791 C 0.1058 0.97862 0.84372 0.0
C792 C 0.06831 0.94638 0.79644 0.0
C793 C 0.0622 0.92298 0.80379 0.0
C794 C 0.09162 0.95949 0.8295 0.0
C795 C 0.07172 0.9185 0.8241 0.0
C796 C 0.10643 0.97459 0.8646 0.0
C797 C 0.13069 0.01876 0.84902 0.0
N798 N 0.08574 0.93658 0.83625 0.0
N799 N 0.11796 1.00056 0.83664 0.0
H800 H 0.1731 0.17767 0.05471 0.0
H801 H 0.12229 0.07625 0.13689 0.0
H802 H 0.16467 0.10165 0.04167 0.0
H803 H 0.14372 0.15064 0.15266 0.0
H804 H 0.13065 0.0864 0.10144 0.0
H805 H 0.15664 0.16917 0.09001 0.0
C806 C 0.16788 0.15919 0.05921 0.0
C807 C 0.17048 0.14035 0.04505 0.0
C808 C 0.13338 0.10059 0.11258 0.0
C809 C 0.15098 0.13057 0.08554 0.0
C810 C 0.12866 0.09479 0.13288 0.0
C811 C 0.1329 0.11256 0.14785 0.0
C812 C 0.14247 0.1244 0.10701 0.0
C813 C 0.1402 0.13637 0.14165 0.0
C814 C 0.15822 0.15439 0.07939 0.0
C815 C 0.16253 0.11684 0.05184 0.0
N816 N 0.14513 0.14157 0.12171 0.0
N817 N 0.15332 0.11266 0.07152 0.0
H818 H 0.33896 0.34466 0.53578 0.0
H819 H 0.3805 0.40595 0.64371 0.0
H820 H 0.36204 0.42066 0.54397 0.0
H821 H 0.34841 0.33107 0.63545 0.0
H822 H 0.37957 0.41118 0.60705 0.0
H823 H 0.34651 0.33898 0.5721 0.0
C824 C 0.34545 0.36019 0.54519 0.0
C825 C 0.34972 0.3832 0.53669 0.0
C826 C 0.37292 0.39357 0.61326 0.0
C827 C 0.35898 0.37674 0.57845 0.0
C828 C 0.37377 0.39054 0.6342 0.0
C829 C 0.3642 0.36808 0.64272 0.0
C830 C 0.3626 0.37398 0.60071 0.0
C831 C 0.35529 0.34881 0.6296 0.0
C832 C 0.35004 0.3569 0.56595 0.0
C833 C 0.35896 0.40253 0.54972 0.0
N834 N 0.35456 0.35222 0.60932 0.0
N835 N 0.36315 0.39888 0.56989 0.0
H836 H 0.60899 0.33655 0.9949 0.0
H837 H 0.7007 0.37953 0.88922 0.0
H838 H 0.70823 0.38929 0.98901 0.0
H839 H 0.58546 0.3389 0.89424 0.0
H840 H 0.70169 0.38482 0.92582 0.0
H841 H 0.598 0.33798 0.95836 0.0
C842 C 0.62837 0.3485 0.98595 0.0
C843 C 0.65976 0.36273 0.99509 0.0
C844 C 0.67575 0.37507 0.91898 0.0
C845 C 0.64727 0.36447 0.95319 0.0
C846 C 0.67512 0.37216 0.89809 0.0
C847 C 0.64282 0.35891 0.88878 0.0
C848 C 0.64427 0.36421 0.93077 0.0
C849 C 0.61065 0.34945 0.90089 0.0
C850 C 0.62188 0.34942 0.96509 0.0
C851 C 0.68347 0.37812 0.98272 0.0
N852 N 0.61247 0.352 0.92131 0.0
N853 N 0.67702 0.3784 0.96245 0.0
H854 H 0.82353 0.12173 0.4902 0.0
H855 H 0.97397 0.19406 0.4145 0.0
H856 H 0.91831 0.17251 0.5098 0.0
H857 H 0.86838 0.15082 0.39473 0.0
H858 H 0.95579 0.18508 0.4494 0.0
H859 H 0.8414 0.13072 0.45517 0.0
C860 C 0.84819 0.13473 0.48716 0.0
C861 C 0.86945 0.14635 0.50305 0.0
C862 C 0.93656 0.17756 0.43743 0.0
C863 C 0.89002 0.15682 0.46284 0.0
C864 C 0.9468 0.18277 0.41744 0.0
C865 C 0.9226 0.17331 0.40149 0.0
C866 C 0.90191 0.16264 0.44168 0.0
C867 C 0.88833 0.15834 0.40641 0.0
C868 C 0.85824 0.13994 0.46713 0.0
C869 C 0.90073 0.16329 0.49811 0.0
N870 N 0.87902 0.1535 0.42601 0.0
N871 N 0.91015 0.16793 0.47849 0.0
H872 H 0.84977 0.84168 0.98692 0.0
H873 H 0.90395 0.9422 0.9044 0.0
H874 H 0.83526 0.91802 0.99673 0.0
H875 H 0.91537 0.86605 0.8929 0.0
H876 H 0.8773 0.93333 0.93801 0.0
H877 H 0.87214 0.84986 0.95234 0.0
C878 C 0.851 0.86016 0.98181 0.0
C879 C 0.84064 0.87918 0.9949 0.0
C880 C 0.88549 0.91851 0.92817 0.0
C881 C 0.86671 0.88868 0.95523 0.0
C882 C 0.90092 0.92357 0.90895 0.0
C883 C 0.91234 0.90485 0.8958 0.0
C884 C 0.88142 0.8945 0.93447 0.0
C885 C 0.9068 0.88106 0.90246 0.0
C886 C 0.864 0.86481 0.96205 0.0
C887 C 0.84352 0.90276 0.9874 0.0
N888 N 0.892 0.87657 0.92136 0.0
N889 N 0.85628 0.90681 0.96814 0.0
H890 H 0.60236 0.61693 0.4952 0.0
H891 H 0.7199 0.63783 0.39054 0.0
H892 H 0.72503 0.65013 0.49005 0.0
H893 H 0.59025 0.61509 0.39418 0.0
H894 H 0.72045 0.64468 0.42691 0.0
H895 H 0.59538 0.61806 0.45853 0.0
C896 C 0.62766 0.62475 0.48644 0.0
C897 C 0.66453 0.63331 0.4959 0.0
C898 C 0.69162 0.6385 0.41981 0.0
C899 C 0.65685 0.6343 0.45366 0.0
C900 C 0.69129 0.63467 0.39902 0.0
C901 C 0.65499 0.62587 0.38938 0.0
C902 C 0.65555 0.63316 0.4312 0.0
C903 C 0.61878 0.62203 0.40105 0.0
C904 C 0.62367 0.62528 0.46544 0.0
C905 C 0.69638 0.64287 0.48355 0.0
N906 N 0.62012 0.62539 0.42141 0.0
N907 N 0.69191 0.64294 0.46316 0.0
H908 H 0.29446 0.63286 0.04794 0.0
H909 H 0.43264 0.67749 0.14241 0.0
H910 H 0.40554 0.67718 0.04179 0.0
H911 H 0.3054 0.65083 0.14686 0.0
H912 H 0.43041 0.67031 0.10577 0.0
H913 H 0.3053 0.63225 0.0844 0.0
C914 C 0.32148 0.64221 0.05422 0.0
C915 C 0.34898 0.65521 0.04174 0.0
C916 C 0.40323 0.66572 0.11483 0.0
C917 C 0.36143 0.65471 0.08362 0.0
C918 C 0.40466 0.6696 0.1357 0.0
C919 C 0.36915 0.66472 0.14756 0.0
C920 C 0.36614 0.65669 0.10589 0.0
C921 C 0.3334 0.65484 0.13818 0.0
C922 C 0.3275 0.64198 0.07507 0.0
C923 C 0.38319 0.66721 0.05084 0.0
N924 N 0.33275 0.65124 0.11792 0.0
N925 N 0.38838 0.66673 0.07121 0.0
H926 H 0.18478 0.89751 0.54841 0.0
H927 H 0.04098 0.82258 0.62525 0.0
H928 H 0.09461 0.84361 0.52967 0.0
H929 H 0.14163 0.8699 0.64435 0.0
H930 H 0.05844 0.83125 0.59022 0.0
H931 H 0.16756 0.88893 0.58358 0.0
C932 C 0.16127 0.88391 0.55167 0.0
C933 C 0.1411 0.87129 0.53599 0.0
C934 C 0.07674 0.83975 0.60206 0.0
C935 C 0.12129 0.8613 0.57635 0.0
C936 C 0.06691 0.83471 0.62213 0.0
C937 C 0.08996 0.8454 0.63792 0.0
C938 C 0.10982 0.8557 0.59759 0.0
C939 C 0.12261 0.86141 0.63278 0.0
C940 C 0.15159 0.87894 0.57178 0.0
C941 C 0.11132 0.85362 0.54121 0.0
N942 N 0.13157 0.86603 0.61311 0.0
N943 N 0.10224 0.84923 0.5609 0.0
H944 H 0.11826 0.30027 0.35767 0.0
H945 H 0.10929 0.16682 0.31138 0.0
H946 H 0.20735 0.24453 0.37253 0.0
H947 H 0.01331 0.22008 0.30091 0.0
H948 H 0.14755 0.19572 0.33246 0.0
H949 H 0.08138 0.27194 0.33545 0.0
C950 C 0.13026 0.28213 0.35617 0.0
C951 C 0.16597 0.27481 0.36707 0.0
C952 C 0.11813 0.20114 0.32557 0.0
C953 C 0.12362 0.24216 0.34171 0.0
C954 C 0.09643 0.18468 0.31342 0.0
C955 C 0.0583 0.19113 0.30424 0.0
C956 C 0.10152 0.22427 0.32866 0.0
C957 C 0.04259 0.21435 0.30775 0.0
C958 C 0.109 0.26591 0.34357 0.0
C959 C 0.17966 0.25093 0.36468 0.0
N960 N 0.06428 0.23009 0.31964 0.0
N961 N 0.15854 0.23552 0.35228 0.0
H962 H 0.39726 0.21462 0.86042 0.0
H963 H 0.3808 0.34094 0.80293 0.0
H964 H 0.28226 0.25512 0.85395 0.0
H965 H 0.49629 0.30043 0.80685 0.0
H966 H 0.34521 0.31007 0.82251 0.0
H967 H 0.43507 0.24635 0.84228 0.0
C968 C 0.37999 0.23027 0.85537 0.0
C969 C 0.33638 0.2321 0.8587 0.0
C970 C 0.37834 0.30785 0.81914 0.0
C971 C 0.3795 0.26842 0.83768 0.0
C972 C 0.39872 0.32546 0.80779 0.0
C973 C 0.44155 0.32316 0.80291 0.0
C974 C 0.40088 0.28772 0.82591 0.0
C975 C 0.46323 0.30295 0.8102 0.0
C976 C 0.40159 0.24831 0.84488 0.0
C977 C 0.31568 0.25269 0.85151 0.0
N978 N 0.44264 0.28597 0.82127 0.0
N979 N 0.33737 0.26995 0.84136 0.0
H980 H 0.64735 0.26905 0.64642 0.0
H981 H 0.5785 0.30211 0.759 0.0
H982 H 0.67282 0.22301 0.69731 0.0
H983 H 0.53126 0.33864 0.70629 0.0
H984 H 0.61629 0.27409 0.73704 0.0
H985 H 0.60767 0.29578 0.66845 0.0
C986 C 0.64438 0.26438 0.66218 0.0
C987 C 0.6635 0.24355 0.6699 0.0
C988 C 0.59752 0.28819 0.7303 0.0
C989 C 0.61848 0.27458 0.69543 0.0
C990 C 0.57595 0.30423 0.74283 0.0
C991 C 0.55164 0.32284 0.73452 0.0
C992 C 0.59509 0.29085 0.70928 0.0
C993 C 0.5495 0.3246 0.71343 0.0
C994 C 0.62184 0.2798 0.6748 0.0
C995 C 0.65922 0.23895 0.69064 0.0
N996 N 0.57107 0.30892 0.70158 0.0
N997 N 0.63727 0.25433 0.70265 0.0
H998 H 0.8327 0.30816 0.21435 0.0
H999 H 0.9323 0.17572 0.21219 0.0
H1000 H 0.83065 0.26221 0.16183 0.0
H1001 H 0.93678 0.22244 0.26412 0.0
H1002 H 0.89435 0.20689 0.19363 0.0
H1003 H 0.86999 0.27684 0.23285 0.0
C1004 C 0.84031 0.29155 0.20663 0.0
C1005 C 0.82864 0.28798 0.18639 0.0
C1006 C 0.90351 0.21035 0.2091 0.0
C1007 C 0.87109 0.25172 0.20771 0.0
C1008 C 0.92527 0.19256 0.21969 0.0
C1009 C 0.93753 0.19644 0.23977 0.0
C1010 C 0.89397 0.23228 0.2186 0.0
C1011 C 0.92749 0.21858 0.24874 0.0
C1012 C 0.86142 0.27358 0.21728 0.0
C1013 C 0.83863 0.26577 0.17742 0.0
N1014 N 0.90633 0.23565 0.23811 0.0
N1015 N 0.85932 0.24855 0.18811 0.0
H1016 H 0.79142 0.76221 0.67751 0.0
H1017 H 0.00483 0.79867 0.73476 0.0
H1018 H 0.90886 0.72481 0.6686 0.0
H1019 H 0.89651 0.84507 0.73104 0.0
H1020 H 0.96885 0.76963 0.71279 0.0
H1021 H 0.82757 0.79061 0.6999 0.0
C1022 C 0.82477 0.75986 0.68037 0.0
C1023 C 0.8471 0.74105 0.67113 0.0
C1024 C 0.9529 0.78614 0.71684 0.0
C1025 C 0.88883 0.77368 0.69672 0.0
C1026 C 0.97348 0.80277 0.72932 0.0
C1027 C 0.95351 0.82429 0.73489 0.0
C1028 C 0.91185 0.79094 0.70999 0.0
C1029 C 0.91274 0.82852 0.72752 0.0
C1030 C 0.84546 0.7762 0.69305 0.0
C1031 C 0.89044 0.73915 0.67521 0.0
N1032 N 0.89321 0.81199 0.71554 0.0
N1033 N 0.90984 0.75519 0.68773 0.0
H1034 H 0.60696 0.80963 0.18499 0.0
H1035 H 0.61909 0.67461 0.22693 0.0
H1036 H 0.715 0.76358 0.17719 0.0
H1037 H 0.51443 0.72207 0.23809 0.0
H1038 H 0.65352 0.7064 0.2076 0.0
H1039 H 0.57132 0.77725 0.20314 0.0
C1040 C 0.62327 0.79273 0.18709 0.0
C1041 C 0.66425 0.78946 0.17958 0.0
C1042 C 0.62302 0.70991 0.21425 0.0
C1043 C 0.62327 0.75209 0.20031 0.0
C1044 C 0.60347 0.6918 0.22544 0.0
C1045 C 0.56415 0.6958 0.23447 0.0
C1046 C 0.60294 0.73222 0.21182 0.0
C1047 C 0.5448 0.7182 0.23146 0.0
C1048 C 0.60278 0.77419 0.19741 0.0
C1049 C 0.68333 0.76693 0.18249 0.0
N1050 N 0.56443 0.73557 0.22045 0.0
N1051 N 0.66278 0.7492 0.19267 0.0
H1052 H 0.32048 0.78848 0.34081 0.0
H1053 H 0.47148 0.67352 0.33261 0.0
H1054 H 0.37092 0.75134 0.39254 0.0
H1055 H 0.43431 0.7165 0.28154 0.0
H1056 H 0.43346 0.70115 0.35477 0.0
H1057 H 0.36065 0.76175 0.31886 0.0
C1058 C 0.34019 0.77484 0.34761 0.0
C1059 C 0.34216 0.77226 0.36865 0.0
C1060 C 0.43369 0.70457 0.33872 0.0
C1061 C 0.38796 0.74122 0.34345 0.0
C1062 C 0.45545 0.68879 0.32605 0.0
C1063 C 0.45606 0.69261 0.30514 0.0
C1064 C 0.41216 0.7243 0.33047 0.0
C1065 C 0.43457 0.71273 0.29753 0.0
C1066 C 0.36299 0.75946 0.33502 0.0
C1067 C 0.36778 0.75386 0.37645 0.0
N1068 N 0.41343 0.72773 0.31016 0.0
N1069 N 0.38955 0.73908 0.36388 0.0
H1070 H 0.18892 0.75764 0.8762 0.0
H1071 H 0.07866 0.79724 0.7725 0.0
H1072 H 0.18618 0.71341 0.82265 0.0
H1073 H 0.07814 0.84092 0.8263 0.0
H1074 H 0.1189 0.76656 0.79056 0.0
H1075 H 0.1486 0.78839 0.85828 0.0
C1076 C 0.17973 0.75431 0.86072 0.0
C1077 C 0.19121 0.73285 0.85095 0.0
C1078 C 0.11003 0.78285 0.79844 0.0
C1079 C 0.14523 0.76819 0.83023 0.0
C1080 C 0.08717 0.8004 0.7881 0.0
C1081 C 0.07512 0.82169 0.79789 0.0
C1082 C 0.12097 0.78655 0.81876 0.0
C1083 C 0.08664 0.82473 0.81818 0.0
C1084 C 0.15687 0.77196 0.85045 0.0
C1085 C 0.17876 0.72978 0.83076 0.0
N1086 N 0.10891 0.80739 0.82793 0.0
N1087 N 0.15652 0.74719 0.82111 0.0
loop_
_geom_bond_atom_site_label_1
_geom_bond_atom_site_label_2
_geom_bond_distance
_geom_bond_site_symmetry_2
_ccdc_geom_bond_type
C0 C1 1.264 . S
C0 C5 1.479 . S
C0 C10 1.465 . S
C1 C0 1.264 . S
C1 C3 1.339 . S
C1 H28 0.931 . S
C2 C3 1.395 . S
C2 C4 1.320 . S
C3 C1 1.339 . S
C3 C2 1.395 . S
C3 H29 0.929 . S
C4 C2 1.320 . S
C4 C5 1.405 . S
C4 H30 0.930 . S
C5 C0 1.479 . S
C5 C4 1.405 . S
C5 H31 0.931 . S
U6 O7 2.454 . S
U6 O8 2.458 . S
U6 C9 2.984 . S
U6 C10 2.847 . S
U6 C23 2.882 . S
U6 O24 2.441 . S
U6 O25 2.420 . S
U6 O26 2.455 . S
U6 O27 2.449 . S
O7 U6 2.454 . S
O7 C9 1.353 . S
O8 U6 2.458 . S
O8 C9 1.286 . S
C9 U6 2.984 . S
C9 O7 1.353 . S
C9 O8 1.286 . S
C9 C11 1.363 . S
C10 C0 1.465 . S
C10 U6 2.847 . S
C10 O24 1.249 . S
C10 O25 1.202 . S
C11 C9 1.363 . S
C11 C13 1.408 . S
C11 C16 1.342 . S
C12 C13 1.310 . S
C12 C15 1.461 . S
C12 H32 0.932 . S
C13 C11 1.408 . S
C13 C12 1.310 . S
C13 H33 0.930 . S
C14 C15 1.474 . S
C14 C16 1.285 . S
C14 H34 0.929 . S
C15 C12 1.461 . S
C15 C14 1.474 . S
C16 C11 1.342 . S
C16 C14 1.285 . S
C16 H35 0.930 . S
C17 C20 1.424 . S
C17 C22 1.245 . S
C17 C23 1.428 . S
C18 C21 1.260 . S
C18 C22 1.477 . S
C18 H36 0.932 . S
C19 C20 1.384 . S
C19 C21 1.479 . S
C19 H37 0.929 . S
C20 C17 1.424 . S
C20 C19 1.384 . S
C20 H38 0.928 . S
C21 C18 1.260 . S
C21 C19 1.479 . S
C22 C17 1.245 . S
C22 C18 1.477 . S
C22 H39 0.932 . S
C23 U6 2.882 . S
C23 C17 1.428 . S
C23 O26 1.301 . S
C23 O27 1.282 . S
O24 U6 2.441 . S
O24 C10 1.249 . S
O25 U6 2.420 . S
O25 C10 1.202 . S
O26 U6 2.455 . S
O26 C23 1.301 . S
O27 U6 2.449 . S
O27 C23 1.282 . S
H28 C1 0.931 . S
H29 C3 0.929 . S
H30 C4 0.930 . S
H31 C5 0.931 . S
H32 C12 0.932 . S
H33 C13 0.930 . S
H34 C14 0.929 . S
H35 C16 0.930 . S
H36 C18 0.932 . S
H37 C19 0.929 . S
H38 C20 0.928 . S
H39 C22 0.932 . S
C40 C41 1.264 . S
C40 C45 1.479 . S
C40 C50 1.465 . S
C41 C40 1.264 . S
C41 C43 1.339 . S
C41 H68 0.931 . S
C42 C43 1.395 1_554 S
C42 C44 1.320 . S
C43 C41 1.339 . S
C43 C42 1.395 1_556 S
C43 H69 0.929 1_556 S
C44 C42 1.320 . S
C44 C45 1.405 1_554 S
C44 H70 0.930 . S
C45 C40 1.479 . S
C45 C44 1.405 1_556 S
C45 H71 0.931 . S
U46 O47 2.454 . S
U46 O48 2.458 . S
U46 C49 2.984 . S
U46 C50 2.847 . S
U46 C63 2.882 . S
U46 O64 2.441 . S
U46 O65 2.420 . S
U46 O66 2.455 . S
U46 O67 2.449 . S
O47 U46 2.454 . S
O47 C49 1.353 . S
O48 U46 2.458 . S
O48 C49 1.286 . S
C49 U46 2.984 . S
C49 O47 1.353 . S
C49 O48 1.286 . S
C49 C51 1.363 . S
C50 C40 1.465 . S
C50 U46 2.847 . S
C50 O64 1.249 . S
C50 O65 1.202 . S
C51 C49 1.363 . S
C51 C53 1.408 . S
C51 C56 1.342 . S
C52 C53 1.310 . S
C52 C55 1.461 . S
C52 H72 0.932 . S
C53 C51 1.408 . S
C53 C52 1.310 . S
C53 H73 0.930 . S
C54 C55 1.474 . S
C54 C56 1.285 . S
C54 H74 0.929 . S
C55 C52 1.461 . S
C55 C54 1.474 . S
C56 C51 1.342 . S
C56 C54 1.285 . S
C56 H75 0.930 . S
C57 C60 1.424 . S
C57 C62 1.245 . S
C57 C63 1.428 . S
C58 C61 1.260 . S
C58 C62 1.477 . S
C58 H76 0.932 . S
C59 C60 1.384 . S
C59 C61 1.479 . S
C59 H77 0.929 . S
C60 C57 1.424 . S
C60 C59 1.384 . S
C60 H78 0.928 . S
C61 C58 1.260 . S
C61 C59 1.479 . S
C62 C57 1.245 . S
C62 C58 1.477 . S
C62 H79 0.932 . S
C63 U46 2.882 . S
C63 C57 1.428 . S
C63 O66 1.301 . S
C63 O67 1.282 . S
O64 U46 2.441 . S
O64 C50 1.249 . S
O65 U46 2.420 . S
O65 C50 1.202 . S
O66 U46 2.455 . S
O66 C63 1.301 . S
O67 U46 2.449 . S
O67 C63 1.282 . S
H68 C41 0.931 . S
H69 C43 0.929 1_554 S
H70 C44 0.930 . S
H71 C45 0.931 . S
H72 C52 0.932 . S
H73 C53 0.930 . S
H74 C54 0.929 . S
H75 C56 0.930 . S
H76 C58 0.932 . S
H77 C59 0.929 . S
H78 C60 0.928 . S
H79 C62 0.932 . S
C80 C81 1.264 . S
C80 C85 1.479 . S
C80 C90 1.465 . S
C81 C80 1.264 . S
C81 C83 1.339 . S
C81 H108 0.931 . S
C82 C83 1.395 . S
C82 C84 1.320 . S
C83 C81 1.339 . S
C83 C82 1.395 . S
C83 H109 0.929 . S
C84 C82 1.320 . S
C84 C85 1.405 . S
C84 H110 0.930 . S
C85 C80 1.479 . S
C85 C84 1.405 . S
C85 H111 0.931 . S
U86 O87 2.454 . S
U86 O88 2.458 . S
U86 C89 2.984 . S
U86 C90 2.847 . S
U86 C103 2.882 . S
U86 O104 2.441 . S
U86 O105 2.420 . S
U86 O106 2.455 . S
U86 O107 2.449 . S
O87 U86 2.454 . S
O87 C89 1.353 . S
O88 U86 2.458 . S
O88 C89 1.286 . S
C89 U86 2.984 . S
C89 O87 1.353 . S
C89 O88 1.286 . S
C89 C91 1.363 . S
C90 C80 1.465 . S
C90 U86 2.847 . S
C90 O104 1.249 . S
C90 O105 1.202 . S
C91 C89 1.363 . S
C91 C93 1.408 . S
C91 C96 1.342 . S
C92 C93 1.310 . S
C92 C95 1.461 . S
C92 H112 0.932 . S
C93 C91 1.408 . S
C93 C92 1.310 . S
C93 H113 0.930 . S
C94 C95 1.474 . S
C94 C96 1.285 . S
C94 H114 0.929 . S
C95 C92 1.461 . S
C95 C94 1.474 . S
C96 C91 1.342 . S
C96 C94 1.285 . S
C96 H115 0.930 . S
C97 C100 1.424 . S
C97 C102 1.245 . S
C97 C103 1.428 . S
C98 C101 1.260 . S
C98 C102 1.477 . S
C98 H116 0.932 . S
C99 C100 1.384 . S
C99 C101 1.479 . S
C99 H117 0.929 . S
C100 C97 1.424 . S
C100 C99 1.384 . S
C100 H118 0.928 . S
C101 C98 1.260 . S
C101 C99 1.479 . S
C102 C97 1.245 . S
C102 C98 1.477 . S
C102 H119 0.932 . S
C103 U86 2.882 . S
C103 C97 1.428 . S
C103 O106 1.301 . S
C103 O107 1.282 . S
O104 U86 2.441 . S
O104 C90 1.249 . S
O105 U86 2.420 . S
O105 C90 1.202 . S
O106 U86 2.455 . S
O106 C103 1.301 . S
O107 U86 2.449 . S
O107 C103 1.282 . S
H108 C81 0.931 . S
H109 C83 0.929 . S
H110 C84 0.930 . S
H111 C85 0.931 . S
H112 C92 0.932 . S
H113 C93 0.930 . S
H114 C94 0.929 . S
H115 C96 0.930 . S
H116 C98 0.932 . S
H117 C99 0.929 . S
H118 C100 0.928 . S
H119 C102 0.932 . S
C120 C121 1.264 . S
C120 C125 1.479 . S
C120 C130 1.465 . S
C121 C120 1.264 . S
C121 C123 1.339 . S
C121 H148 0.931 . S
C122 C123 1.395 1_556 S
C122 C124 1.320 1_556 S
C123 C121 1.339 . S
C123 C122 1.395 1_554 S
C123 H149 0.929 . S
C124 C122 1.320 1_554 S
C124 C125 1.405 . S
C124 H150 0.930 1_554 S
C125 C120 1.479 . S
C125 C124 1.405 . S
C125 H151 0.931 . S
U126 O127 2.454 . S
U126 O128 2.458 . S
U126 C129 2.984 . S
U126 C130 2.847 . S
U126 C143 2.882 . S
U126 O144 2.441 . S
U126 O145 2.420 . S
U126 O146 2.455 . S
U126 O147 2.449 . S
O127 U126 2.454 . S
O127 C129 1.353 . S
O128 U126 2.458 . S
O128 C129 1.286 . S
C129 U126 2.984 . S
C129 O127 1.353 . S
C129 O128 1.286 . S
C129 C131 1.363 . S
C130 C120 1.465 . S
C130 U126 2.847 . S
C130 O144 1.249 . S
C130 O145 1.202 . S
C131 C129 1.363 . S
C131 C133 1.408 . S
C131 C136 1.342 . S
C132 C133 1.310 . S
C132 C135 1.461 . S
C132 H152 0.932 . S
C133 C131 1.408 . S
C133 C132 1.310 . S
C133 H153 0.930 . S
C134 C135 1.474 . S
C134 C136 1.285 . S
C134 H154 0.929 . S
C135 C132 1.461 . S
C135 C134 1.474 . S
C136 C131 1.342 . S
C136 C134 1.285 . S
C136 H155 0.930 . S
C137 C140 1.424 . S
C137 C142 1.245 . S
C137 C143 1.428 . S
C138 C141 1.260 . S
C138 C142 1.477 . S
C138 H156 0.932 . S
C139 C140 1.384 . S
C139 C141 1.479 . S
C139 H157 0.929 . S
C140 C137 1.424 . S
C140 C139 1.384 . S
C140 H158 0.928 . S
C141 C138 1.260 . S
C141 C139 1.479 . S
C142 C137 1.245 . S
C142 C138 1.477 . S
C142 H159 0.932 . S
C143 U126 2.882 . S
C143 C137 1.428 . S
C143 O146 1.301 . S
C143 O147 1.282 . S
O144 U126 2.441 . S
O144 C130 1.249 . S
O145 U126 2.420 . S
O145 C130 1.202 . S
O146 U126 2.455 . S
O146 C143 1.301 . S
O147 U126 2.449 . S
O147 C143 1.282 . S
H148 C121 0.931 . S
H149 C123 0.929 . S
H150 C124 0.930 1_556 S
H151 C125 0.931 . S
H152 C132 0.932 . S
H153 C133 0.930 . S
H154 C134 0.929 . S
H155 C136 0.930 . S
H156 C138 0.932 . S
H157 C139 0.929 . S
H158 C140 0.928 . S
H159 C142 0.932 . S
C160 C161 1.264 . S
C160 C165 1.479 . S
C160 C170 1.465 . S
C161 C160 1.264 . S
C161 C163 1.339 . S
C161 H188 0.931 . S
C162 C163 1.395 . S
C162 C164 1.320 . S
C163 C161 1.339 . S
C163 C162 1.395 . S
C163 H189 0.929 . S
C164 C162 1.320 . S
C164 C165 1.405 . S
C164 H190 0.930 . S
C165 C160 1.479 . S
C165 C164 1.405 . S
C165 H191 0.931 . S
U166 O167 2.454 . S
U166 O168 2.458 . S
U166 C169 2.984 . S
U166 C170 2.847 . S
U166 C183 2.882 . S
U166 O184 2.441 . S
U166 O185 2.420 . S
U166 O186 2.455 . S
U166 O187 2.449 . S
O167 U166 2.454 . S
O167 C169 1.353 . S
O168 U166 2.458 . S
O168 C169 1.286 . S
C169 U166 2.984 . S
C169 O167 1.353 . S
C169 O168 1.286 . S
C169 C171 1.363 . S
C170 C160 1.465 . S
C170 U166 2.847 . S
C170 O184 1.249 . S
C170 O185 1.202 . S
C171 C169 1.363 . S
C171 C173 1.408 . S
C171 C176 1.342 . S
C172 C173 1.310 . S
C172 C175 1.461 . S
C172 H192 0.932 . S
C173 C171 1.408 . S
C173 C172 1.310 . S
C173 H193 0.930 . S
C174 C175 1.474 . S
C174 C176 1.285 . S
C174 H194 0.929 . S
C175 C172 1.461 . S
C175 C174 1.474 . S
C176 C171 1.342 . S
C176 C174 1.285 . S
C176 H195 0.930 . S
C177 C180 1.424 . S
C177 C182 1.245 . S
C177 C183 1.428 . S
C178 C181 1.260 . S
C178 C182 1.477 . S
C178 H196 0.932 . S
C179 C180 1.384 . S
C179 C181 1.479 . S
C179 H197 0.929 . S
C180 C177 1.424 . S
C180 C179 1.384 . S
C180 H198 0.928 . S
C181 C178 1.260 . S
C181 C179 1.479 . S
C182 C177 1.245 . S
C182 C178 1.477 . S
C182 H199 0.932 . S
C183 U166 2.882 . S
C183 C177 1.428 . S
C183 O186 1.301 . S
C183 O187 1.282 . S
O184 U166 2.441 . S
O184 C170 1.249 . S
O185 U166 2.420 . S
O185 C170 1.202 . S
O186 U166 2.455 . S
O186 C183 1.301 . S
O187 U166 2.449 . S
O187 C183 1.282 . S
H188 C161 0.931 . S
H189 C163 0.929 . S
H190 C164 0.930 . S
H191 C165 0.931 . S
H192 C172 0.932 . S
H193 C173 0.930 . S
H194 C174 0.929 . S
H195 C176 0.930 . S
H196 C178 0.932 . S
H197 C179 0.929 . S
H198 C180 0.928 . S
H199 C182 0.932 . S
C200 C201 1.264 . S
C200 C205 1.479 . S
C200 C210 1.465 . S
C201 C200 1.264 . S
C201 C203 1.391 . S
C201 H228 0.931 . S
C202 C203 1.365 1_556 S
C202 C204 1.320 . S
C203 C201 1.391 . S
C203 C202 1.365 1_554 S
C203 H229 0.907 1_554 S
C204 C202 1.320 . S
C204 C205 1.405 1_556 S
C204 H230 0.930 . S
C205 C200 1.479 . S
C205 C204 1.405 1_554 S
C205 H231 0.931 . S
U206 O207 2.454 . S
U206 O208 2.458 . S
U206 C209 2.984 . S
U206 C210 2.847 . S
U206 C223 2.882 . S
U206 O224 2.441 . S
U206 O225 2.420 . S
U206 O226 2.455 . S
U206 O227 2.449 . S
O207 U206 2.454 . S
O207 C209 1.353 . S
O208 U206 2.458 . S
O208 C209 1.286 . S
C209 U206 2.984 . S
C209 O207 1.353 . S
C209 O208 1.286 . S
C209 C211 1.363 . S
C210 C200 1.465 . S
C210 U206 2.847 . S
C210 O224 1.249 . S
C210 O225 1.202 . S
C211 C209 1.363 . S
C211 C213 1.408 . S
C211 C216 1.342 . S
C212 C213 1.310 . S
C212 C215 1.461 . S
C212 H232 0.932 . S
C213 C211 1.408 . S
C213 C212 1.310 . S
C213 H233 0.930 . S
C214 C215 1.474 . S
C214 C216 1.285 . S
C214 H234 0.929 . S
C215 C212 1.461 . S
C215 C214 1.474 . S
C216 C211 1.342 . S
C216 C214 1.285 . S
C216 H235 0.930 . S
C217 C220 1.424 . S
C217 C222 1.245 . S
C217 C223 1.428 . S
C218 C221 1.260 . S
C218 C222 1.477 . S
C218 H236 0.932 . S
C219 C220 1.384 . S
C219 C221 1.479 . S
C219 H237 0.929 . S
C220 C217 1.424 . S
C220 C219 1.384 . S
C220 H238 0.928 . S
C221 C218 1.260 . S
C221 C219 1.479 . S
C222 C217 1.245 . S
C222 C218 1.477 . S
C222 H239 0.932 . S
C223 U206 2.882 . S
C223 C217 1.428 . S
C223 O226 1.301 . S
C223 O227 1.282 . S
O224 U206 2.441 . S
O224 C210 1.249 . S
O225 U206 2.420 . S
O225 C210 1.202 . S
O226 U206 2.455 . S
O226 C223 1.301 . S
O227 U206 2.449 . S
O227 C223 1.282 . S
H228 C201 0.931 . S
H229 C203 0.907 1_556 S
H230 C204 0.930 . S
H231 C205 0.931 . S
H232 C212 0.932 . S
H233 C213 0.930 . S
H234 C214 0.929 . S
H235 C216 0.930 . S
H236 C218 0.932 . S
H237 C219 0.929 . S
H238 C220 0.928 . S
H239 C222 0.932 . S
C240 C241 1.264 . S
C240 C245 1.479 . S
C240 C250 1.465 . S
C241 C240 1.264 . S
C241 C243 1.339 . S
C241 H268 0.931 . S
C242 C243 1.395 . S
C242 C244 1.320 . S
C243 C241 1.339 . S
C243 C242 1.395 . S
C243 H269 0.929 . S
C244 C242 1.320 . S
C244 C245 1.405 . S
C244 H270 0.930 . S
C245 C240 1.479 . S
C245 C244 1.405 . S
C245 H271 0.931 . S
U246 O247 2.454 . S
U246 O248 2.458 . S
U246 C249 2.984 . S
U246 C250 2.847 . S
U246 C263 2.882 . S
U246 O264 2.441 . S
U246 O265 2.420 . S
U246 O266 2.455 . S
U246 O267 2.449 . S
O247 U246 2.454 . S
O247 C249 1.353 . S
O248 U246 2.458 . S
O248 C249 1.286 . S
C249 U246 2.984 . S
C249 O247 1.353 . S
C249 O248 1.286 . S
C249 C251 1.363 . S
C250 C240 1.465 . S
C250 U246 2.847 . S
C250 O264 1.249 . S
C250 O265 1.202 . S
C251 C249 1.363 . S
C251 C253 1.408 . S
C251 C256 1.342 . S
C252 C253 1.310 . S
C252 C255 1.461 . S
C252 H272 0.932 . S
C253 C251 1.408 . S
C253 C252 1.310 . S
C253 H273 0.930 . S
C254 C255 1.474 . S
C254 C256 1.285 . S
C254 H274 0.929 . S
C255 C252 1.461 . S
C255 C254 1.474 . S
C256 C251 1.342 . S
C256 C254 1.285 . S
C256 H275 0.930 . S
C257 C260 1.424 . S
C257 C262 1.245 . S
C257 C263 1.428 . S
C258 C261 1.260 . S
C258 C262 1.477 . S
C258 H276 0.932 . S
C259 C260 1.384 . S
C259 C261 1.479 . S
C259 H277 0.929 . S
C260 C257 1.424 . S
C260 C259 1.384 . S
C260 H278 0.928 . S
C261 C258 1.260 . S
C261 C259 1.479 . S
C262 C257 1.245 . S
C262 C258 1.477 . S
C262 H279 0.932 . S
C263 U246 2.882 . S
C263 C257 1.428 . S
C263 O266 1.301 . S
C263 O267 1.282 . S
O264 U246 2.441 . S
O264 C250 1.249 . S
O265 U246 2.420 . S
O265 C250 1.202 . S
O266 U246 2.455 . S
O266 C263 1.301 . S
O267 U246 2.449 . S
O267 C263 1.282 . S
H268 C241 0.931 . S
H269 C243 0.929 . S
H270 C244 0.930 . S
H271 C245 0.931 . S
H272 C252 0.932 . S
H273 C253 0.930 . S
H274 C254 0.929 . S
H275 C256 0.930 . S
H276 C258 0.932 . S
H277 C259 0.929 . S
H278 C260 0.928 . S
H279 C262 0.932 . S
C280 C281 1.264 . S
C280 C285 1.479 . S
C280 C290 1.465 . S
C281 C280 1.264 . S
C281 C283 1.339 . S
C281 H308 0.931 . S
C282 C283 1.395 1_554 S
C282 C284 1.306 1_554 S
C283 C281 1.339 . S
C283 C282 1.395 1_556 S
C283 H309 0.929 1_556 S
C284 C282 1.306 1_556 S
C284 C285 1.438 . S
C284 H310 0.911 1_556 S
C285 C280 1.479 . S
C285 C284 1.438 . S
C285 H311 0.931 . S
U286 O287 2.454 . S
U286 O288 2.458 . S
U286 C289 2.984 . S
U286 C290 2.847 . S
U286 C303 2.882 . S
U286 O304 2.441 . S
U286 O305 2.420 . S
U286 O306 2.455 . S
U286 O307 2.449 . S
O287 U286 2.454 . S
O287 C289 1.353 . S
O288 U286 2.458 . S
O288 C289 1.286 . S
C289 U286 2.984 . S
C289 O287 1.353 . S
C289 O288 1.286 . S
C289 C291 1.363 . S
C290 C280 1.465 . S
C290 U286 2.847 . S
C290 O304 1.249 . S
C290 O305 1.202 . S
C291 C289 1.363 . S
C291 C293 1.408 . S
C291 C296 1.342 . S
C292 C293 1.310 . S
C292 C295 1.461 . S
C292 H312 0.932 . S
C293 C291 1.408 . S
C293 C292 1.310 . S
C293 H313 0.930 . S
C294 C295 1.474 . S
C294 C296 1.285 . S
C294 H314 0.929 . S
C295 C292 1.461 . S
C295 C294 1.474 . S
C296 C291 1.342 . S
C296 C294 1.285 . S
C296 H315 0.930 . S
C297 C300 1.424 . S
C297 C302 1.245 . S
C297 C303 1.428 . S
C298 C301 1.260 . S
C298 C302 1.477 . S
C298 H316 0.932 . S
C299 C300 1.384 . S
C299 C301 1.479 . S
C299 H317 0.929 . S
C300 C297 1.424 . S
C300 C299 1.384 . S
C300 H318 0.928 . S
C301 C298 1.260 . S
C301 C299 1.479 . S
C302 C297 1.245 . S
C302 C298 1.477 . S
C302 H319 0.932 . S
C303 U286 2.882 . S
C303 C297 1.428 . S
C303 O306 1.301 . S
C303 O307 1.282 . S
O304 U286 2.441 . S
O304 C290 1.249 . S
O305 U286 2.420 . S
O305 C290 1.202 . S
O306 U286 2.455 . S
O306 C303 1.301 . S
O307 U286 2.449 . S
O307 C303 1.282 . S
H308 C281 0.931 . S
H309 C283 0.929 1_554 S
H310 C284 0.911 1_554 S
H311 C285 0.931 . S
H312 C292 0.932 . S
H313 C293 0.930 . S
H314 C294 0.929 . S
H315 C296 0.930 . S
H316 C298 0.932 . S
H317 C299 0.929 . S
H318 C300 0.928 . S
H319 C302 0.932 . S
C320 C322 1.422 . S
C320 C324 1.415 . S
C320 N326 1.369 . S
C321 C322 1.421 . S
C321 C323 1.417 . S
C321 C333 1.422 . S
C322 C320 1.422 . S
C322 C321 1.421 . S
C322 N332 1.359 . S
C323 C321 1.417 . S
C323 C325 1.329 . S
C323 H342 0.930 . S
C324 C320 1.415 . S
C324 C325 1.437 . S
C324 C328 1.413 . S
C325 C323 1.329 . S
C325 C324 1.437 . S
C325 H347 0.929 . S
N326 C320 1.369 . S
N326 C327 1.338 . S
N326 Gd331 2.622 . S
C327 N326 1.338 . S
C327 C329 1.378 . S
C327 H339 0.929 . S
C328 C324 1.413 . S
C328 C329 1.348 . S
C328 H344 0.931 . S
C329 C327 1.378 . S
C329 C328 1.348 . S
C329 H345 0.930 . S
Gd330 N350 2.622 . S
Gd330 N357 2.570 . S
Gd330 O364 2.353 . S
Gd330 O365 2.468 . S
Gd330 O366 2.427 . S
Gd330 O368 2.388 . S
Gd330 O369 2.386 . S
Gd330 O373 2.320 . S
Gd330 C383 2.805 . S
Gd331 N326 2.622 . S
Gd331 N332 2.570 . S
Gd331 O363 2.386 . S
Gd331 O367 2.307 1_655 S
Gd331 O370 2.338 1_655 S
Gd331 O371 2.468 . S
Gd331 O372 2.427 . S
Gd331 O374 2.388 . S
Gd331 C395 2.805 . S
N332 C322 1.359 . S
N332 Gd331 2.570 . S
N332 C334 1.343 . S
C333 C321 1.422 . S
C333 C335 1.321 . S
C333 H341 0.931 . S
C334 N332 1.343 . S
C334 C335 1.390 . S
C334 H336 0.931 . S
C335 C333 1.321 . S
C335 C334 1.390 . S
C335 H337 0.930 . S
H336 C334 0.931 . S
H337 C335 0.930 . S
H338 C361 0.931 . S
H339 C327 0.929 . S
H340 C362 0.930 . S
H341 C333 0.931 . S
H342 C323 0.930 . S
H343 C352 0.929 . S
H344 C328 0.931 . S
H345 C329 0.930 . S
H346 C384 0.930 . S
H347 C325 0.929 . S
H348 C353 0.931 . S
H349 C354 0.930 . S
N350 Gd330 2.622 . S
N350 C351 1.369 . S
N350 C352 1.338 . S
C351 N350 1.369 . S
C351 C355 1.415 . S
C351 C358 1.422 . S
C352 H343 0.929 . S
C352 N350 1.338 . S
C352 C354 1.378 . S
C353 H348 0.931 . S
C353 C354 1.348 . S
C353 C355 1.413 . S
C354 H349 0.930 . S
C354 C352 1.378 . S
C354 C353 1.348 . S
C355 C351 1.415 . S
C355 C353 1.413 . S
C355 C385 1.437 . S
H356 C385 0.929 . S
N357 Gd330 2.570 . S
N357 C358 1.359 . S
N357 C361 1.343 . S
C358 C351 1.422 . S
C358 N357 1.359 . S
C358 C360 1.421 . S
C359 C360 1.422 . S
C359 C362 1.321 . S
C359 H386 0.931 . S
C360 C358 1.421 . S
C360 C359 1.422 . S
C360 C384 1.417 . S
C361 H338 0.931 . S
C361 N357 1.343 . S
C361 C362 1.390 . S
C362 H340 0.930 . S
C362 C359 1.321 . S
C362 C361 1.390 . S
O363 Gd331 2.386 . S
O363 C375 1.265 . S
O364 Gd330 2.353 . S
O364 C375 1.242 1_455 S
O365 Gd330 2.468 . S
O365 C383 1.263 . S
O366 Gd330 2.427 . S
O366 C383 1.252 . S
O367 Gd331 2.307 1_455 S
O367 C376 1.261 . S
O368 Gd330 2.388 . S
O368 C376 1.252 . S
O369 Gd330 2.386 . S
O369 C387 1.265 . S
O370 Gd331 2.338 1_455 S
O370 C387 1.261 . S
O371 Gd331 2.468 . S
O371 C395 1.263 . S
O372 Gd331 2.427 . S
O372 C395 1.252 . S
O373 Gd330 2.320 . S
O373 C388 1.246 1_455 S
O374 Gd331 2.388 . S
O374 C388 1.252 . S
C375 O363 1.265 . S
C375 O364 1.242 1_655 S
C376 O367 1.261 . S
C376 O368 1.252 . S
C377 C380 1.394 . S
C377 C382 1.370 . S
C377 C383 1.500 . S
C378 C381 1.383 . S
C378 C382 1.395 . S
C379 C380 1.396 . S
C379 C381 1.365 . S
C379 H396 0.929 . S
C380 C377 1.394 . S
C380 C379 1.396 . S
C380 H397 0.930 . S
C381 C378 1.383 . S
C381 C379 1.365 . S
C381 H398 0.931 . S
C382 C377 1.370 . S
C382 C378 1.395 . S
C382 H399 0.930 . S
C383 Gd330 2.805 . S
C383 O365 1.263 . S
C383 O366 1.252 . S
C383 C377 1.500 . S
C384 H346 0.930 . S
C384 C360 1.417 . S
C384 C385 1.329 . S
C385 C355 1.437 . S
C385 H356 0.929 . S
C385 C384 1.329 . S
H386 C359 0.931 . S
C387 O369 1.265 . S
C387 O370 1.261 . S
C388 O373 1.246 1_655 S
C388 O374 1.252 . S
C389 C392 1.394 . S
C389 C394 1.370 . S
C389 C395 1.500 . S
C390 C393 1.383 . S
C390 C394 1.395 . S
C391 C392 1.396 . S
C391 C393 1.365 . S
C391 H400 0.929 . S
C392 C389 1.394 . S
C392 C391 1.396 . S
C392 H401 0.930 . S
C393 C390 1.383 . S
C393 C391 1.365 . S
C393 H402 0.931 . S
C394 C389 1.370 . S
C394 C390 1.395 . S
C394 H403 0.930 . S
C395 Gd331 2.805 . S
C395 O371 1.263 . S
C395 O372 1.252 . S
C395 C389 1.500 . S
H396 C379 0.929 . S
H397 C380 0.930 . S
H398 C381 0.931 . S
H399 C382 0.930 . S
H400 C391 0.929 . S
H401 C392 0.930 . S
H402 C393 0.931 . S
H403 C394 0.930 . S
C404 C406 1.422 . S
C404 C408 1.415 . S
C404 N410 1.369 . S
C405 C406 1.421 . S
C405 C407 1.417 . S
C405 C417 1.422 . S
C406 C404 1.422 . S
C406 C405 1.421 . S
C406 N416 1.359 . S
C407 C405 1.417 . S
C407 C409 1.329 . S
C407 H426 0.930 . S
C408 C404 1.415 . S
C408 C409 1.437 . S
C408 C412 1.413 . S
C409 C407 1.329 . S
C409 C408 1.437 . S
C409 H431 0.929 . S
N410 C404 1.369 . S
N410 C411 1.338 . S
N410 Gd415 2.622 . S
C411 N410 1.338 . S
C411 C413 1.378 . S
C411 H423 0.929 . S
C412 C408 1.413 . S
C412 C413 1.348 . S
C412 H428 0.931 . S
C413 C411 1.378 . S
C413 C412 1.348 . S
C413 H429 0.930 . S
Gd414 N434 2.622 . S
Gd414 N441 2.570 . S
Gd414 O448 2.353 . S
Gd414 O449 2.468 . S
Gd414 O450 2.427 . S
Gd414 O452 2.388 . S
Gd414 O453 2.386 . S
Gd414 O457 2.307 . S
Gd414 C467 2.805 . S
Gd415 N410 2.622 . S
Gd415 N416 2.570 . S
Gd415 O447 2.386 . S
Gd415 O451 2.307 . S
Gd415 O454 2.353 . S
Gd415 O455 2.468 . S
Gd415 O456 2.427 . S
Gd415 O458 2.388 . S
Gd415 C479 2.805 . S
N416 C406 1.359 . S
N416 Gd415 2.570 . S
N416 C418 1.343 . S
C417 C405 1.422 . S
C417 C419 1.321 . S
C417 H425 0.931 . S
C418 N416 1.343 . S
C418 C419 1.390 . S
C418 H420 0.931 . S
C419 C417 1.321 . S
C419 C418 1.390 . S
C419 H421 0.930 . S
H420 C418 0.931 . S
H421 C419 0.930 . S
H422 C445 0.931 . S
H423 C411 0.929 . S
H424 C446 0.930 . S
H425 C417 0.931 . S
H426 C407 0.930 . S
H427 C436 0.929 . S
H428 C412 0.931 . S
H429 C413 0.930 . S
H430 C468 0.930 . S
H431 C409 0.929 . S
H432 C437 0.931 . S
H433 C438 0.930 . S
N434 Gd414 2.622 . S
N434 C435 1.369 . S
N434 C436 1.338 . S
C435 N434 1.369 . S
C435 C439 1.415 . S
C435 C442 1.422 . S
C436 H427 0.929 . S
C436 N434 1.338 . S
C436 C438 1.378 . S
C437 H432 0.931 . S
C437 C438 1.348 . S
C437 C439 1.413 . S
C438 H433 0.930 . S
C438 C436 1.378 . S
C438 C437 1.348 . S
C439 C435 1.415 . S
C439 C437 1.413 . S
C439 C469 1.437 . S
H440 C469 0.929 . S
N441 Gd414 2.570 . S
N441 C442 1.359 . S
N441 C445 1.343 . S
C442 C435 1.422 . S
C442 N441 1.359 . S
C442 C444 1.421 . S
C443 C444 1.422 . S
C443 C446 1.321 . S
C443 H470 0.931 . S
C444 C442 1.421 . S
C444 C443 1.422 . S
C444 C468 1.417 . S
C445 H422 0.931 . S
C445 N441 1.343 . S
C445 C446 1.390 . S
C446 H424 0.930 . S
C446 C443 1.321 . S
C446 C445 1.390 . S
O447 Gd415 2.386 . S
O447 C459 1.265 . S
O448 Gd414 2.353 . S
O448 C459 1.242 . S
O449 Gd414 2.468 . S
O449 C467 1.263 . S
O450 Gd414 2.427 . S
O450 C467 1.252 . S
O451 Gd415 2.307 . S
O451 C460 1.261 . S
O452 Gd414 2.388 . S
O452 C460 1.252 . S
O453 Gd414 2.386 . S
O453 C471 1.265 . S
O454 Gd415 2.353 . S
O454 C471 1.242 . S
O455 Gd415 2.468 . S
O455 C479 1.263 . S
O456 Gd415 2.427 . S
O456 C479 1.252 . S
O457 Gd414 2.307 . S
O457 C472 1.261 . S
O458 Gd415 2.388 . S
O458 C472 1.252 . S
C459 O447 1.265 . S
C459 O448 1.242 . S
C460 O451 1.261 . S
C460 O452 1.252 . S
C461 C464 1.394 . S
C461 C466 1.370 . S
C461 C467 1.500 . S
C462 C465 1.383 . S
C462 C466 1.395 . S
C463 C464 1.396 . S
C463 C465 1.365 . S
C463 H480 0.929 . S
C464 C461 1.394 . S
C464 C463 1.396 . S
C464 H481 0.930 . S
C465 C462 1.383 . S
C465 C463 1.365 . S
C465 H482 0.931 . S
C466 C461 1.370 . S
C466 C462 1.395 . S
C466 H483 0.930 . S
C467 Gd414 2.805 . S
C467 O449 1.263 . S
C467 O450 1.252 . S
C467 C461 1.500 . S
C468 H430 0.930 . S
C468 C444 1.417 . S
C468 C469 1.329 . S
C469 C439 1.437 . S
C469 H440 0.929 . S
C469 C468 1.329 . S
H470 C443 0.931 . S
C471 O453 1.265 . S
C471 O454 1.242 . S
C472 O457 1.261 . S
C472 O458 1.252 . S
C473 C476 1.394 . S
C473 C478 1.370 . S
C473 C479 1.500 . S
C474 C477 1.383 . S
C474 C478 1.395 . S
C475 C476 1.396 . S
C475 C477 1.365 . S
C475 H484 0.929 . S
C476 C473 1.394 . S
C476 C475 1.396 . S
C476 H485 0.930 . S
C477 C474 1.383 . S
C477 C475 1.365 . S
C477 H486 0.931 . S
C478 C473 1.370 . S
C478 C474 1.395 . S
C478 H487 0.930 . S
C479 Gd415 2.805 . S
C479 O455 1.263 . S
C479 O456 1.252 . S
C479 C473 1.500 . S
H480 C463 0.929 . S
H481 C464 0.930 . S
H482 C465 0.931 . S
H483 C466 0.930 . S
H484 C475 0.929 . S
H485 C476 0.930 . S
H486 C477 0.931 . S
H487 C478 0.930 . S
C488 C490 1.422 . S
C488 C492 1.415 . S
C488 N494 1.369 . S
C489 C490 1.421 . S
C489 C491 1.417 . S
C489 C501 1.422 . S
C490 C488 1.422 . S
C490 C489 1.421 . S
C490 N500 1.359 . S
C491 C489 1.417 . S
C491 C493 1.329 . S
C491 H510 0.930 . S
C492 C488 1.415 . S
C492 C493 1.437 . S
C492 C496 1.413 . S
C493 C491 1.329 . S
C493 C492 1.437 . S
C493 H515 0.929 . S
N494 C488 1.369 . S
N494 C495 1.338 . S
N494 Gd499 2.622 . S
C495 N494 1.338 . S
C495 C497 1.378 . S
C495 H507 0.929 . S
C496 C492 1.413 . S
C496 C497 1.348 . S
C496 H512 0.931 . S
C497 C495 1.378 . S
C497 C496 1.348 . S
C497 H513 0.930 . S
Gd498 N518 2.622 . S
Gd498 N525 2.570 . S
Gd498 O532 2.353 . S
Gd498 O533 2.468 . S
Gd498 O534 2.427 . S
Gd498 O536 2.388 . S
Gd498 O537 2.386 . S
Gd498 O541 2.307 . S
Gd498 C551 2.805 . S
Gd499 N494 2.622 . S
Gd499 N500 2.570 . S
Gd499 O531 2.386 . S
Gd499 O535 2.307 1_655 S
Gd499 O538 2.353 1_655 S
Gd499 O539 2.468 . S
Gd499 O540 2.427 . S
Gd499 O542 2.388 . S
Gd499 C563 2.805 . S
N500 C490 1.359 . S
N500 Gd499 2.570 . S
N500 C502 1.343 . S
C501 C489 1.422 . S
C501 C503 1.321 . S
C501 H509 0.931 . S
C502 N500 1.343 . S
C502 C503 1.390 . S
C502 H504 0.931 . S
C503 C501 1.321 . S
C503 C502 1.390 . S
C503 H505 0.930 . S
H504 C502 0.931 . S
H505 C503 0.930 . S
H506 C529 0.931 . S
H507 C495 0.929 . S
H508 C530 0.930 . S
H509 C501 0.931 . S
H510 C491 0.930 . S
H511 C520 0.929 . S
H512 C496 0.931 . S
H513 C497 0.930 . S
H514 C552 0.930 . S
H515 C493 0.929 . S
H516 C521 0.931 . S
H517 C522 0.930 . S
N518 Gd498 2.622 . S
N518 C519 1.369 . S
N518 C520 1.338 . S
C519 N518 1.369 . S
C519 C523 1.415 . S
C519 C526 1.422 . S
C520 H511 0.929 . S
C520 N518 1.338 . S
C520 C522 1.378 . S
C521 H516 0.931 . S
C521 C522 1.348 . S
C521 C523 1.413 . S
C522 H517 0.930 . S
C522 C520 1.378 . S
C522 C521 1.348 . S
C523 C519 1.415 . S
C523 C521 1.413 . S
C523 C553 1.437 . S
H524 C553 0.929 . S
N525 Gd498 2.570 . S
N525 C526 1.359 . S
N525 C529 1.343 . S
C526 C519 1.422 . S
C526 N525 1.359 . S
C526 C528 1.421 . S
C527 C528 1.422 . S
C527 C530 1.321 . S
C527 H554 0.931 . S
C528 C526 1.421 . S
C528 C527 1.422 . S
C528 C552 1.417 . S
C529 H506 0.931 . S
C529 N525 1.343 . S
C529 C530 1.390 . S
C530 H508 0.930 . S
C530 C527 1.321 . S
C530 C529 1.390 . S
O531 Gd499 2.386 . S
O531 C543 1.265 . S
O532 Gd498 2.353 . S
O532 C543 1.242 1_455 S
O533 Gd498 2.468 . S
O533 C551 1.263 . S
O534 Gd498 2.427 . S
O534 C551 1.252 . S
O535 Gd499 2.307 1_455 S
O535 C544 1.261 . S
O536 Gd498 2.388 . S
O536 C544 1.252 . S
O537 Gd498 2.386 . S
O537 C555 1.265 . S
O538 Gd499 2.353 1_455 S
O538 C555 1.242 . S
O539 Gd499 2.468 . S
O539 C563 1.263 . S
O540 Gd499 2.427 . S
O540 C563 1.252 . S
O541 Gd498 2.307 . S
O541 C556 1.261 1_455 S
O542 Gd499 2.388 . S
O542 C556 1.252 . S
C543 O531 1.265 . S
C543 O532 1.242 1_655 S
C544 O535 1.261 . S
C544 O536 1.252 . S
C545 C548 1.394 . S
C545 C550 1.370 . S
C545 C551 1.500 . S
C546 C549 1.383 . S
C546 C550 1.395 . S
C547 C548 1.396 . S
C547 C549 1.365 . S
C547 H564 0.929 . S
C548 C545 1.394 . S
C548 C547 1.396 . S
C548 H565 0.930 . S
C549 C546 1.383 . S
C549 C547 1.365 . S
C549 H566 0.931 . S
C550 C545 1.370 . S
C550 C546 1.395 . S
C550 H567 0.930 . S
C551 Gd498 2.805 . S
C551 O533 1.263 . S
C551 O534 1.252 . S
C551 C545 1.500 . S
C552 H514 0.930 . S
C552 C528 1.417 . S
C552 C553 1.329 . S
C553 C523 1.437 . S
C553 H524 0.929 . S
C553 C552 1.329 . S
H554 C527 0.931 . S
C555 O537 1.265 . S
C555 O538 1.242 . S
C556 O541 1.261 1_655 S
C556 O542 1.252 . S
C557 C560 1.394 . S
C557 C562 1.370 . S
C557 C563 1.500 . S
C558 C561 1.383 . S
C558 C562 1.395 . S
C559 C560 1.396 . S
C559 C561 1.365 . S
C559 H568 0.929 . S
C560 C557 1.394 . S
C560 C559 1.396 . S
C560 H569 0.930 . S
C561 C558 1.383 . S
C561 C559 1.365 . S
C561 H570 0.931 . S
C562 C557 1.370 . S
C562 C558 1.395 . S
C562 H571 0.930 . S
C563 Gd499 2.805 . S
C563 O539 1.263 . S
C563 O540 1.252 . S
C563 C557 1.500 . S
H564 C547 0.929 . S
H565 C548 0.930 . S
H566 C549 0.931 . S
H567 C550 0.930 . S
H568 C559 0.929 . S
H569 C560 0.930 . S
H570 C561 0.931 . S
H571 C562 0.930 . S
C572 C574 1.422 . S
C572 C576 1.415 . S
C572 N578 1.369 . S
C573 C574 1.421 . S
C573 C575 1.417 . S
C573 C585 1.422 . S
C574 C572 1.422 . S
C574 C573 1.421 . S
C574 N584 1.359 . S
C575 C573 1.417 . S
C575 C577 1.329 . S
C575 H594 0.930 . S
C576 C572 1.415 . S
C576 C577 1.437 . S
C576 C580 1.413 . S
C577 C575 1.329 . S
C577 C576 1.437 . S
C577 H599 0.929 . S
N578 C572 1.369 . S
N578 C579 1.338 . S
N578 Gd583 2.622 . S
C579 N578 1.338 . S
C579 C581 1.378 . S
C579 H591 0.929 . S
C580 C576 1.413 . S
C580 C581 1.348 . S
C580 H596 0.931 . S
C581 C579 1.378 . S
C581 C580 1.348 . S
C581 H597 0.930 . S
Gd582 N602 2.622 . S
Gd582 N609 2.570 . S
Gd582 O616 2.353 . S
Gd582 O617 2.468 . S
Gd582 O618 2.427 . S
Gd582 O620 2.388 . S
Gd582 O621 2.386 . S
Gd582 O625 2.307 . S
Gd582 C635 2.805 . S
Gd583 N578 2.622 . S
Gd583 N584 2.570 . S
Gd583 O615 2.386 . S
Gd583 O619 2.307 . S
Gd583 O622 2.353 . S
Gd583 O623 2.468 . S
Gd583 O624 2.427 . S
Gd583 O626 2.388 . S
Gd583 C647 2.805 . S
N584 C574 1.359 . S
N584 Gd583 2.570 . S
N584 C586 1.343 . S
C585 C573 1.422 . S
C585 C587 1.321 . S
C585 H593 0.931 . S
C586 N584 1.343 . S
C586 C587 1.390 . S
C586 H588 0.931 . S
C587 C585 1.321 . S
C587 C586 1.390 . S
C587 H589 0.930 . S
H588 C586 0.931 . S
H589 C587 0.930 . S
H590 C613 0.931 . S
H591 C579 0.929 . S
H592 C614 0.930 . S
H593 C585 0.931 . S
H594 C575 0.930 . S
H595 C604 0.929 . S
H596 C580 0.931 . S
H597 C581 0.930 . S
H598 C636 0.930 . S
H599 C577 0.929 . S
H600 C605 0.931 . S
H601 C606 0.930 . S
N602 Gd582 2.622 . S
N602 C603 1.369 . S
N602 C604 1.338 . S
C603 N602 1.369 . S
C603 C607 1.415 . S
C603 C610 1.422 . S
C604 H595 0.929 . S
C604 N602 1.338 . S
C604 C606 1.378 . S
C605 H600 0.931 . S
C605 C606 1.348 . S
C605 C607 1.413 . S
C606 H601 0.930 . S
C606 C604 1.378 . S
C606 C605 1.348 . S
C607 C603 1.415 . S
C607 C605 1.413 . S
C607 C637 1.437 . S
H608 C637 0.929 . S
N609 Gd582 2.570 . S
N609 C610 1.359 . S
N609 C613 1.343 . S
C610 C603 1.422 . S
C610 N609 1.359 . S
C610 C612 1.421 . S
C611 C612 1.422 . S
C611 C614 1.321 . S
C611 H638 0.931 . S
C612 C610 1.421 . S
C612 C611 1.422 . S
C612 C636 1.417 . S
C613 H590 0.931 . S
C613 N609 1.343 . S
C613 C614 1.390 . S
C614 H592 0.930 . S
C614 C611 1.321 . S
C614 C613 1.390 . S
O615 Gd583 2.386 . S
O615 C627 1.265 . S
O616 Gd582 2.353 . S
O616 C627 1.242 . S
O617 Gd582 2.468 . S
O617 C635 1.263 . S
O618 Gd582 2.427 . S
O618 C635 1.252 . S
O619 Gd583 2.307 . S
O619 C628 1.261 . S
O620 Gd582 2.388 . S
O620 C628 1.252 . S
O621 Gd582 2.386 . S
O621 C639 1.265 . S
O622 Gd583 2.353 . S
O622 C639 1.242 . S
O623 Gd583 2.468 . S
O623 C647 1.263 . S
O624 Gd583 2.427 . S
O624 C647 1.252 . S
O625 Gd582 2.307 . S
O625 C640 1.261 . S
O626 Gd583 2.388 . S
O626 C640 1.252 . S
C627 O615 1.265 . S
C627 O616 1.242 . S
C628 O619 1.261 . S
C628 O620 1.252 . S
C629 C632 1.394 . S
C629 C634 1.370 . S
C629 C635 1.500 . S
C630 C633 1.383 . S
C630 C634 1.395 . S
C631 C632 1.396 . S
C631 C633 1.365 . S
C631 H648 0.929 . S
C632 C629 1.394 . S
C632 C631 1.396 . S
C632 H649 0.930 . S
C633 C630 1.383 . S
C633 C631 1.365 . S
C633 H650 0.931 . S
C634 C629 1.370 . S
C634 C630 1.395 . S
C634 H651 0.930 . S
C635 Gd582 2.805 . S
C635 O617 1.263 . S
C635 O618 1.252 . S
C635 C629 1.500 . S
C636 H598 0.930 . S
C636 C612 1.417 . S
C636 C637 1.329 . S
C637 C607 1.437 . S
C637 H608 0.929 . S
C637 C636 1.329 . S
H638 C611 0.931 . S
C639 O621 1.265 . S
C639 O622 1.242 . S
C640 O625 1.261 . S
C640 O626 1.252 . S
C641 C644 1.394 . S
C641 C646 1.370 . S
C641 C647 1.500 . S
C642 C645 1.383 . S
C642 C646 1.395 . S
C643 C644 1.396 . S
C643 C645 1.365 . S
C643 H652 0.929 . S
C644 C641 1.394 . S
C644 C643 1.396 . S
C644 H653 0.930 . S
C645 C642 1.383 . S
C645 C643 1.365 . S
C645 H654 0.931 . S
C646 C641 1.370 . S
C646 C642 1.395 . S
C646 H655 0.930 . S
C647 Gd583 2.805 . S
C647 O623 1.263 . S
C647 O624 1.252 . S
C647 C641 1.500 . S
H648 C631 0.929 . S
H649 C632 0.930 . S
H650 C633 0.931 . S
H651 C634 0.930 . S
H652 C643 0.929 . S
H653 C644 0.930 . S
H654 C645 0.931 . S
H655 C646 0.930 . S
H656 C662 0.930 . S
H657 C666 0.930 . S
H658 C671 0.929 . S
H659 C669 0.929 . S
H660 C664 0.929 . S
H661 C670 0.929 . S
C662 H656 0.930 . S
C662 C663 1.367 . S
C662 C670 1.378 . S
C663 C662 1.367 . S
C663 C671 1.433 1_545 S
C664 H660 0.929 . S
C664 C666 1.378 . S
C664 C668 1.350 . S
C665 C668 1.463 . S
C665 C670 1.350 . S
C665 N673 1.427 . S
C666 H657 0.930 . S
C666 C664 1.378 . S
C666 C667 1.367 . S
C667 C666 1.367 . S
C667 C669 1.433 . S
C668 C664 1.350 . S
C668 C665 1.463 . S
C668 N672 1.427 . S
C669 H659 0.929 . S
C669 C667 1.433 . S
C669 N672 1.384 . S
C670 H661 0.929 . S
C670 C662 1.378 . S
C670 C665 1.350 . S
C671 H658 0.929 . S
C671 C663 1.433 1_565 S
C671 N673 1.384 1_565 S
N672 C668 1.427 . S
N672 C669 1.384 . S
N673 C665 1.427 . S
N673 C671 1.384 1_545 S
H674 C680 0.930 . S
H675 C684 0.930 . S
H676 C689 0.929 . S
H677 C687 0.929 . S
H678 C682 0.929 . S
H679 C688 0.929 . S
C680 H674 0.930 . S
C680 C681 1.367 . S
C680 C688 1.378 . S
C681 C680 1.367 . S
C681 C689 1.433 . S
C682 H678 0.929 . S
C682 C684 1.378 . S
C682 C686 1.350 . S
C683 C686 1.463 . S
C683 C688 1.350 . S
C683 N691 1.427 . S
C684 H675 0.930 . S
C684 C682 1.378 . S
C684 C685 1.367 . S
C685 C684 1.367 . S
C685 C687 1.433 . S
C686 C682 1.350 . S
C686 C683 1.463 . S
C686 N690 1.427 . S
C687 H677 0.929 . S
C687 C685 1.433 . S
C687 N690 1.384 . S
C688 H679 0.929 . S
C688 C680 1.378 . S
C688 C683 1.350 . S
C689 H676 0.929 . S
C689 C681 1.433 . S
C689 N691 1.384 . S
N690 C686 1.427 . S
N690 C687 1.384 . S
N691 C683 1.427 . S
N691 C689 1.384 . S
H692 C698 0.930 . S
H693 C702 0.930 . S
H694 C707 0.929 . S
H695 C705 0.929 . S
H696 C700 0.929 . S
H697 C706 0.929 . S
C698 H692 0.930 . S
C698 C699 1.367 . S
C698 C706 1.378 . S
C699 C698 1.367 . S
C699 C707 1.433 . S
C700 H696 0.929 . S
C700 C702 1.378 . S
C700 C704 1.350 . S
C701 C704 1.463 . S
C701 C706 1.350 . S
C701 N709 1.427 . S
C702 H693 0.930 . S
C702 C700 1.378 . S
C702 C703 1.367 . S
C703 C702 1.367 . S
C703 C705 1.433 . S
C704 C700 1.350 . S
C704 C701 1.463 . S
C704 N708 1.427 . S
C705 H695 0.929 . S
C705 C703 1.433 . S
C705 N708 1.384 . S
C706 H697 0.929 . S
C706 C698 1.378 . S
C706 C701 1.350 . S
C707 H694 0.929 . S
C707 C699 1.433 . S
C707 N709 1.384 . S
N708 C704 1.427 . S
N708 C705 1.384 . S
N709 C701 1.427 . S
N709 C707 1.384 . S
H710 C716 0.930 . S
H711 C720 0.930 . S
H712 C725 0.929 . S
H713 C723 0.929 . S
H714 C718 0.929 . S
H715 C724 0.929 . S
C716 H710 0.930 . S
C716 C717 1.355 1_565 S
C716 C724 1.378 1_565 S
C717 C716 1.355 1_545 S
C717 C725 1.472 . S
C718 H714 0.929 . S
C718 C720 1.378 . S
C718 C722 1.350 . S
C719 C722 1.463 . S
C719 C724 1.350 . S
C719 N727 1.427 . S
C720 H711 0.930 . S
C720 C718 1.378 . S
C720 C721 1.367 . S
C721 C720 1.367 . S
C721 C723 1.433 . S
C722 C718 1.350 . S
C722 C719 1.463 . S
C722 N726 1.427 . S
C723 H713 0.929 . S
C723 C721 1.433 . S
C723 N726 1.384 . S
C724 H715 0.929 . S
C724 C716 1.378 1_545 S
C724 C719 1.350 . S
C725 H712 0.929 . S
C725 C717 1.472 . S
C725 N727 1.384 . S
N726 C722 1.427 . S
N726 C723 1.384 . S
N727 C719 1.427 . S
N727 C725 1.384 . S
H728 C734 0.937 . S
H729 C738 0.930 . S
H730 C743 0.929 . S
H731 C741 0.929 . S
H732 C736 0.929 . S
H733 C742 0.929 . S
C734 H728 0.937 . S
C734 C735 1.366 1_545 S
C734 C742 1.372 1_545 S
C735 C734 1.366 1_565 S
C735 C743 1.433 . S
C736 H732 0.929 . S
C736 C738 1.378 . S
C736 C740 1.350 . S
C737 C740 1.463 . S
C737 C742 1.350 . S
C737 N745 1.427 . S
C738 H729 0.930 . S
C738 C736 1.378 . S
C738 C739 1.367 . S
C739 C738 1.367 . S
C739 C741 1.433 . S
C740 C736 1.350 . S
C740 C737 1.463 . S
C740 N744 1.427 . S
C741 H731 0.929 . S
C741 C739 1.433 . S
C741 N744 1.384 . S
C742 H733 0.929 . S
C742 C734 1.372 1_565 S
C742 C737 1.350 . S
C743 H730 0.929 . S
C743 C735 1.433 . S
C743 N745 1.384 . S
N744 C740 1.427 . S
N744 C741 1.384 . S
N745 C737 1.427 . S
N745 C743 1.384 . S
H746 C752 0.930 . S
H747 C756 0.930 . S
H748 C761 0.929 . S
H749 C759 0.929 . S
H750 C754 0.929 . S
H751 C760 0.929 . S
C752 H746 0.930 . S
C752 C753 1.367 . S
C752 C760 1.378 . S
C753 C752 1.367 . S
C753 C761 1.433 . S
C754 H750 0.929 . S
C754 C756 1.378 . S
C754 C758 1.350 . S
C755 C758 1.463 . S
C755 C760 1.350 . S
C755 N763 1.427 . S
C756 H747 0.930 . S
C756 C754 1.378 . S
C756 C757 1.367 . S
C757 C756 1.367 . S
C757 C759 1.433 . S
C758 C754 1.350 . S
C758 C755 1.463 . S
C758 N762 1.427 . S
C759 H749 0.929 . S
C759 C757 1.433 . S
C759 N762 1.384 . S
C760 H751 0.929 . S
C760 C752 1.378 . S
C760 C755 1.350 . S
C761 H748 0.929 . S
C761 C753 1.433 . S
C761 N763 1.384 . S
N762 C758 1.427 . S
N762 C759 1.384 . S
N763 C755 1.427 . S
N763 C761 1.384 . S
H764 C770 0.930 . S
H765 C774 0.930 . S
H766 C779 0.929 . S
H767 C777 0.929 . S
H768 C772 0.929 . S
H769 C778 0.929 . S
C770 H764 0.930 . S
C770 C771 1.367 . S
C770 C778 1.378 . S
C771 C770 1.367 . S
C771 C779 1.433 . S
C772 H768 0.929 . S
C772 C774 1.378 . S
C772 C776 1.350 . S
C773 C776 1.463 . S
C773 C778 1.350 . S
C773 N781 1.427 . S
C774 H765 0.930 . S
C774 C772 1.378 . S
C774 C775 1.367 . S
C775 C774 1.367 . S
C775 C777 1.433 . S
C776 C772 1.350 . S
C776 C773 1.463 . S
C776 N780 1.427 . S
C777 H767 0.929 . S
C777 C775 1.433 . S
C777 N780 1.384 . S
C778 H769 0.929 . S
C778 C770 1.378 . S
C778 C773 1.350 . S
C779 H766 0.929 . S
C779 C771 1.433 . S
C779 N781 1.384 . S
N780 C776 1.427 . S
N780 C777 1.384 . S
N781 C773 1.427 . S
N781 C779 1.384 . S
H782 C788 0.930 . S
H783 C792 0.930 . S
H784 C797 0.931 1_545 S
H785 C795 0.929 . S
H786 C790 0.929 . S
H787 C796 0.929 . S
C788 H782 0.930 . S
C788 C789 1.367 . S
C788 C796 1.378 . S
C789 C788 1.367 . S
C789 C797 1.433 . S
C790 H786 0.929 . S
C790 C792 1.378 . S
C790 C794 1.350 . S
C791 C794 1.463 . S
C791 C796 1.350 . S
C791 N799 1.427 . S
C792 H783 0.930 . S
C792 C790 1.378 . S
C792 C793 1.367 . S
C793 C792 1.367 . S
C793 C795 1.433 . S
C794 C790 1.350 . S
C794 C791 1.463 . S
C794 N798 1.427 . S
C795 H785 0.929 . S
C795 C793 1.433 . S
C795 N798 1.384 . S
C796 H787 0.929 . S
C796 C788 1.378 . S
C796 C791 1.350 . S
C797 H784 0.931 1_565 S
C797 C789 1.433 . S
C797 N799 1.382 . S
N798 C794 1.427 . S
N798 C795 1.384 . S
N799 C791 1.427 . S
N799 C797 1.382 . S
H800 C806 0.930 . S
H801 C810 0.930 . S
H802 C815 0.929 . S
H803 C813 0.929 . S
H804 C808 0.929 . S
H805 C814 0.929 . S
C806 H800 0.930 . S
C806 C807 1.367 . S
C806 C814 1.378 . S
C807 C806 1.367 . S
C807 C815 1.433 . S
C808 H804 0.929 . S
C808 C810 1.378 . S
C808 C812 1.350 . S
C809 C812 1.463 . S
C809 C814 1.350 . S
C809 N817 1.427 . S
C810 H801 0.930 . S
C810 C808 1.378 . S
C810 C811 1.367 . S
C811 C810 1.367 . S
C811 C813 1.433 . S
C812 C808 1.350 . S
C812 C809 1.463 . S
C812 N816 1.427 . S
C813 H803 0.929 . S
C813 C811 1.433 . S
C813 N816 1.384 . S
C814 H805 0.929 . S
C814 C806 1.378 . S
C814 C809 1.350 . S
C815 H802 0.929 . S
C815 C807 1.433 . S
C815 N817 1.384 . S
N816 C812 1.427 . S
N816 C813 1.384 . S
N817 C809 1.427 . S
N817 C815 1.384 . S
H818 C824 0.930 . S
H819 C828 0.930 . S
H820 C833 0.929 . S
H821 C831 0.929 . S
H822 C826 0.929 . S
H823 C832 0.929 . S
C824 H818 0.930 . S
C824 C825 1.367 . S
C824 C832 1.378 . S
C825 C824 1.367 . S
C825 C833 1.433 . S
C826 H822 0.929 . S
C826 C828 1.378 . S
C826 C830 1.350 . S
C827 C830 1.463 . S
C827 C832 1.350 . S
C827 N835 1.427 . S
C828 H819 0.930 . S
C828 C826 1.378 . S
C828 C829 1.367 . S
C829 C828 1.367 . S
C829 C831 1.433 . S
C830 C826 1.350 . S
C830 C827 1.463 . S
C830 N834 1.427 . S
C831 H821 0.929 . S
C831 C829 1.433 . S
C831 N834 1.384 . S
C832 H823 0.929 . S
C832 C824 1.378 . S
C832 C827 1.350 . S
C833 H820 0.929 . S
C833 C825 1.433 . S
C833 N835 1.384 . S
N834 C830 1.427 . S
N834 C831 1.384 . S
N835 C827 1.427 . S
N835 C833 1.384 . S
H836 C842 0.930 . S
H837 C846 0.930 . S
H838 C851 0.929 . S
H839 C849 0.929 . S
H840 C844 0.929 . S
H841 C850 0.929 . S
C842 H836 0.930 . S
C842 C843 1.367 . S
C842 C850 1.378 . S
C843 C842 1.367 . S
C843 C851 1.433 . S
C844 H840 0.929 . S
C844 C846 1.378 . S
C844 C848 1.350 . S
C845 C848 1.463 . S
C845 C850 1.350 . S
C845 N853 1.427 . S
C846 H837 0.930 . S
C846 C844 1.378 . S
C846 C847 1.367 . S
C847 C846 1.367 . S
C847 C849 1.433 . S
C848 C844 1.350 . S
C848 C845 1.463 . S
C848 N852 1.427 . S
C849 H839 0.929 . S
C849 C847 1.433 . S
C849 N852 1.384 . S
C850 H841 0.929 . S
C850 C842 1.378 . S
C850 C845 1.350 . S
C851 H838 0.929 . S
C851 C843 1.433 . S
C851 N853 1.384 . S
N852 C848 1.427 . S
N852 C849 1.384 . S
N853 C845 1.427 . S
N853 C851 1.384 . S
H854 C860 0.930 . S
H855 C864 0.930 . S
H856 C869 0.929 . S
H857 C867 0.929 . S
H858 C862 0.929 . S
H859 C868 0.929 . S
C860 H854 0.930 . S
C860 C861 1.367 . S
C860 C868 1.378 . S
C861 C860 1.367 . S
C861 C869 1.433 . S
C862 H858 0.929 . S
C862 C864 1.378 . S
C862 C866 1.350 . S
C863 C866 1.463 . S
C863 C868 1.350 . S
C863 N871 1.427 . S
C864 H855 0.930 . S
C864 C862 1.378 . S
C864 C865 1.367 . S
C865 C864 1.367 . S
C865 C867 1.433 . S
C866 C862 1.350 . S
C866 C863 1.463 . S
C866 N870 1.427 . S
C867 H857 0.929 . S
C867 C865 1.433 . S
C867 N870 1.384 . S
C868 H859 0.929 . S
C868 C860 1.378 . S
C868 C863 1.350 . S
C869 H856 0.929 . S
C869 C861 1.433 . S
C869 N871 1.384 . S
N870 C866 1.427 . S
N870 C867 1.384 . S
N871 C863 1.427 . S
N871 C869 1.384 . S
H872 C878 0.930 . S
H873 C882 0.930 . S
H874 C887 0.929 . S
H875 C885 0.929 . S
H876 C880 0.929 . S
H877 C886 0.929 . S
C878 H872 0.930 . S
C878 C879 1.367 . S
C878 C886 1.378 . S
C879 C878 1.367 . S
C879 C887 1.433 . S
C880 H876 0.929 . S
C880 C882 1.378 . S
C880 C884 1.350 . S
C881 C884 1.463 . S
C881 C886 1.350 . S
C881 N889 1.427 . S
C882 H873 0.930 . S
C882 C880 1.378 . S
C882 C883 1.367 . S
C883 C882 1.367 . S
C883 C885 1.433 . S
C884 C880 1.350 . S
C884 C881 1.463 . S
C884 N888 1.427 . S
C885 H875 0.929 . S
C885 C883 1.433 . S
C885 N888 1.384 . S
C886 H877 0.929 . S
C886 C878 1.378 . S
C886 C881 1.350 . S
C887 H874 0.929 . S
C887 C879 1.433 . S
C887 N889 1.384 . S
N888 C884 1.427 . S
N888 C885 1.384 . S
N889 C881 1.427 . S
N889 C887 1.384 . S
H890 C896 0.930 . S
H891 C900 0.930 . S
H892 C905 0.929 . S
H893 C903 0.929 . S
H894 C898 0.929 . S
H895 C904 0.929 . S
C896 H890 0.930 . S
C896 C897 1.367 . S
C896 C904 1.378 . S
C897 C896 1.367 . S
C897 C905 1.433 . S
C898 H894 0.929 . S
C898 C900 1.378 . S
C898 C902 1.350 . S
C899 C902 1.463 . S
C899 C904 1.350 . S
C899 N907 1.427 . S
C900 H891 0.930 . S
C900 C898 1.378 . S
C900 C901 1.367 . S
C901 C900 1.367 . S
C901 C903 1.433 . S
C902 C898 1.350 . S
C902 C899 1.463 . S
C902 N906 1.427 . S
C903 H893 0.929 . S
C903 C901 1.433 . S
C903 N906 1.384 . S
C904 H895 0.929 . S
C904 C896 1.378 . S
C904 C899 1.350 . S
C905 H892 0.929 . S
C905 C897 1.433 . S
C905 N907 1.384 . S
N906 C902 1.427 . S
N906 C903 1.384 . S
N907 C899 1.427 . S
N907 C905 1.384 . S
H908 C914 0.930 . S
H909 C918 0.930 . S
H910 C923 0.929 . S
H911 C921 0.929 . S
H912 C916 0.929 . S
H913 C922 0.929 . S
C914 H908 0.930 . S
C914 C915 1.367 . S
C914 C922 1.378 . S
C915 C914 1.367 . S
C915 C923 1.433 . S
C916 H912 0.929 . S
C916 C918 1.378 . S
C916 C920 1.350 . S
C917 C920 1.463 . S
C917 C922 1.350 . S
C917 N925 1.427 . S
C918 H909 0.930 . S
C918 C916 1.378 . S
C918 C919 1.367 . S
C919 C918 1.367 . S
C919 C921 1.433 . S
C920 C916 1.350 . S
C920 C917 1.463 . S
C920 N924 1.427 . S
C921 H911 0.929 . S
C921 C919 1.433 . S
C921 N924 1.384 . S
C922 H913 0.929 . S
C922 C914 1.378 . S
C922 C917 1.350 . S
C923 H910 0.929 . S
C923 C915 1.433 . S
C923 N925 1.384 . S
N924 C920 1.427 . S
N924 C921 1.384 . S
N925 C917 1.427 . S
N925 C923 1.384 . S
H926 C932 0.930 . S
H927 C936 0.930 . S
H928 C941 0.929 . S
H929 C939 0.929 . S
H930 C934 0.929 . S
H931 C940 0.929 . S
C932 H926 0.930 . S
C932 C933 1.367 . S
C932 C940 1.378 . S
C933 C932 1.367 . S
C933 C941 1.433 . S
C934 H930 0.929 . S
C934 C936 1.378 . S
C934 C938 1.350 . S
C935 C938 1.463 . S
C935 C940 1.350 . S
C935 N943 1.427 . S
C936 H927 0.930 . S
C936 C934 1.378 . S
C936 C937 1.367 . S
C937 C936 1.367 . S
C937 C939 1.433 . S
C938 C934 1.350 . S
C938 C935 1.463 . S
C938 N942 1.427 . S
C939 H929 0.929 . S
C939 C937 1.433 . S
C939 N942 1.384 . S
C940 H931 0.929 . S
C940 C932 1.378 . S
C940 C935 1.350 . S
C941 H928 0.929 . S
C941 C933 1.433 . S
C941 N943 1.384 . S
N942 C938 1.427 . S
N942 C939 1.384 . S
N943 C935 1.427 . S
N943 C941 1.384 . S
H944 C950 0.930 . S
H945 C954 0.930 . S
H946 C959 0.929 . S
H947 C957 0.929 . S
H948 C952 0.929 . S
H949 C958 0.929 . S
C950 H944 0.930 . S
C950 C951 1.367 . S
C950 C958 1.378 . S
C951 C950 1.367 . S
C951 C959 1.433 . S
C952 H948 0.929 . S
C952 C954 1.378 . S
C952 C956 1.350 . S
C953 C956 1.463 . S
C953 C958 1.350 . S
C953 N961 1.427 . S
C954 H945 0.930 . S
C954 C952 1.378 . S
C954 C955 1.367 . S
C955 C954 1.367 . S
C955 C957 1.433 . S
C956 C952 1.350 . S
C956 C953 1.463 . S
C956 N960 1.427 . S
C957 H947 0.929 . S
C957 C955 1.433 . S
C957 N960 1.384 . S
C958 H949 0.929 . S
C958 C950 1.378 . S
C958 C953 1.350 . S
C959 H946 0.929 . S
C959 C951 1.433 . S
C959 N961 1.384 . S
N960 C956 1.427 . S
N960 C957 1.384 . S
N961 C953 1.427 . S
N961 C959 1.384 . S
H962 C968 0.930 . S
H963 C972 0.930 . S
H964 C977 0.929 . S
H965 C975 0.929 . S
H966 C970 0.929 . S
H967 C976 0.929 . S
C968 H962 0.930 . S
C968 C969 1.367 . S
C968 C976 1.378 . S
C969 C968 1.367 . S
C969 C977 1.433 . S
C970 H966 0.929 . S
C970 C972 1.378 . S
C970 C974 1.350 . S
C971 C974 1.463 . S
C971 C976 1.350 . S
C971 N979 1.427 . S
C972 H963 0.930 . S
C972 C970 1.378 . S
C972 C973 1.367 . S
C973 C972 1.367 . S
C973 C975 1.433 . S
C974 C970 1.350 . S
C974 C971 1.463 . S
C974 N978 1.427 . S
C975 H965 0.929 . S
C975 C973 1.433 . S
C975 N978 1.384 . S
C976 H967 0.929 . S
C976 C968 1.378 . S
C976 C971 1.350 . S
C977 H964 0.929 . S
C977 C969 1.433 . S
C977 N979 1.384 . S
N978 C974 1.427 . S
N978 C975 1.384 . S
N979 C971 1.427 . S
N979 C977 1.384 . S
H980 C986 0.930 . S
H981 C990 0.930 . S
H982 C995 0.929 . S
H983 C993 0.929 . S
H984 C988 0.929 . S
H985 C994 0.929 . S
C986 H980 0.930 . S
C986 C987 1.367 . S
C986 C994 1.378 . S
C987 C986 1.367 . S
C987 C995 1.433 . S
C988 H984 0.929 . S
C988 C990 1.378 . S
C988 C992 1.350 . S
C989 C992 1.463 . S
C989 C994 1.350 . S
C989 N997 1.427 . S
C990 H981 0.930 . S
C990 C988 1.378 . S
C990 C991 1.367 . S
C991 C990 1.367 . S
C991 C993 1.433 . S
C992 C988 1.350 . S
C992 C989 1.463 . S
C992 N996 1.427 . S
C993 H983 0.929 . S
C993 C991 1.433 . S
C993 N996 1.384 . S
C994 H985 0.929 . S
C994 C986 1.378 . S
C994 C989 1.350 . S
C995 H982 0.929 . S
C995 C987 1.433 . S
C995 N997 1.384 . S
N996 C992 1.427 . S
N996 C993 1.384 . S
N997 C989 1.427 . S
N997 C995 1.384 . S
H998 C1004 0.930 . S
H999 C1008 0.930 1_455 S
H1000 C1013 0.929 . S
H1001 C1011 0.929 . S
H1002 C1006 0.929 . S
H1003 C1012 0.929 . S
C1004 H998 0.930 . S
C1004 C1005 1.367 . S
C1004 C1012 1.378 . S
C1005 C1004 1.367 . S
C1005 C1013 1.433 . S
C1006 H1002 0.929 . S
C1006 C1008 1.378 . S
C1006 C1010 1.350 . S
C1007 C1010 1.463 . S
C1007 C1012 1.350 . S
C1007 N1015 1.427 . S
C1008 H999 0.930 1_655 S
C1008 C1006 1.378 . S
C1008 C1009 1.367 . S
C1009 C1008 1.367 . S
C1009 C1011 1.433 . S
C1010 C1006 1.350 . S
C1010 C1007 1.463 . S
C1010 N1014 1.427 . S
C1011 H1001 0.929 . S
C1011 C1009 1.433 . S
C1011 N1014 1.384 . S
C1012 H1003 0.929 . S
C1012 C1004 1.378 . S
C1012 C1007 1.350 . S
C1013 H1000 0.929 . S
C1013 C1005 1.433 . S
C1013 N1015 1.384 . S
N1014 C1010 1.427 . S
N1014 C1011 1.384 . S
N1015 C1007 1.427 . S
N1015 C1013 1.384 . S
H1016 C1022 0.930 . S
H1017 C1026 0.930 1_455 S
H1018 C1031 0.929 . S
H1019 C1029 0.929 . S
H1020 C1024 0.929 . S
H1021 C1030 0.929 . S
C1022 H1016 0.930 . S
C1022 C1023 1.367 . S
C1022 C1030 1.378 . S
C1023 C1022 1.367 . S
C1023 C1031 1.433 . S
C1024 H1020 0.929 . S
C1024 C1026 1.378 . S
C1024 C1028 1.350 . S
C1025 C1028 1.463 . S
C1025 C1030 1.350 . S
C1025 N1033 1.427 . S
C1026 H1017 0.930 1_655 S
C1026 C1024 1.378 . S
C1026 C1027 1.367 . S
C1027 C1026 1.367 . S
C1027 C1029 1.433 . S
C1028 C1024 1.350 . S
C1028 C1025 1.463 . S
C1028 N1032 1.427 . S
C1029 H1019 0.929 . S
C1029 C1027 1.433 . S
C1029 N1032 1.384 . S
C1030 H1021 0.929 . S
C1030 C1022 1.378 . S
C1030 C1025 1.350 . S
C1031 H1018 0.929 . S
C1031 C1023 1.433 . S
C1031 N1033 1.384 . S
N1032 C1028 1.427 . S
N1032 C1029 1.384 . S
N1033 C1025 1.427 . S
N1033 C1031 1.384 . S
H1034 C1040 0.930 . S
H1035 C1044 0.930 . S
H1036 C1049 0.929 . S
H1037 C1047 0.929 . S
H1038 C1042 0.929 . S
H1039 C1048 0.929 . S
C1040 H1034 0.930 . S
C1040 C1041 1.367 . S
C1040 C1048 1.378 . S
C1041 C1040 1.367 . S
C1041 C1049 1.433 . S
C1042 H1038 0.929 . S
C1042 C1044 1.378 . S
C1042 C1046 1.350 . S
C1043 C1046 1.463 . S
C1043 C1048 1.350 . S
C1043 N1051 1.427 . S
C1044 H1035 0.930 . S
C1044 C1042 1.378 . S
C1044 C1045 1.367 . S
C1045 C1044 1.367 . S
C1045 C1047 1.433 . S
C1046 C1042 1.350 . S
C1046 C1043 1.463 . S
C1046 N1050 1.427 . S
C1047 H1037 0.929 . S
C1047 C1045 1.433 . S
C1047 N1050 1.384 . S
C1048 H1039 0.929 . S
C1048 C1040 1.378 . S
C1048 C1043 1.350 . S
C1049 H1036 0.929 . S
C1049 C1041 1.433 . S
C1049 N1051 1.384 . S
N1050 C1046 1.427 . S
N1050 C1047 1.384 . S
N1051 C1043 1.427 . S
N1051 C1049 1.384 . S
H1052 C1058 0.930 . S
H1053 C1062 0.930 . S
H1054 C1067 0.929 . S
H1055 C1065 0.929 . S
H1056 C1060 0.929 . S
H1057 C1066 0.929 . S
C1058 H1052 0.930 . S
C1058 C1059 1.367 . S
C1058 C1066 1.378 . S
C1059 C1058 1.367 . S
C1059 C1067 1.433 . S
C1060 H1056 0.929 . S
C1060 C1062 1.378 . S
C1060 C1064 1.350 . S
C1061 C1064 1.463 . S
C1061 C1066 1.350 . S
C1061 N1069 1.427 . S
C1062 H1053 0.930 . S
C1062 C1060 1.378 . S
C1062 C1063 1.367 . S
C1063 C1062 1.367 . S
C1063 C1065 1.433 . S
C1064 C1060 1.350 . S
C1064 C1061 1.463 . S
C1064 N1068 1.427 . S
C1065 H1055 0.929 . S
C1065 C1063 1.433 . S
C1065 N1068 1.384 . S
C1066 H1057 0.929 . S
C1066 C1058 1.378 . S
C1066 C1061 1.350 . S
C1067 H1054 0.929 . S
C1067 C1059 1.433 . S
C1067 N1069 1.384 . S
N1068 C1064 1.427 . S
N1068 C1065 1.384 . S
N1069 C1061 1.427 . S
N1069 C1067 1.384 . S
H1070 C1076 0.930 . S
H1071 C1080 0.930 . S
H1072 C1085 0.929 . S
H1073 C1083 0.929 . S
H1074 C1078 0.929 . S
H1075 C1084 0.929 . S
C1076 H1070 0.930 . S
C1076 C1077 1.367 . S
C1076 C1084 1.378 . S
C1077 C1076 1.367 . S
C1077 C1085 1.433 . S
C1078 H1074 0.929 . S
C1078 C1080 1.378 . S
C1078 C1082 1.350 . S
C1079 C1082 1.463 . S
C1079 C1084 1.350 . S
C1079 N1087 1.427 . S
C1080 H1071 0.930 . S
C1080 C1078 1.378 . S
C1080 C1081 1.367 . S
C1081 C1080 1.367 . S
C1081 C1083 1.433 . S
C1082 C1078 1.350 . S
C1082 C1079 1.463 . S
C1082 N1086 1.427 . S
C1083 H1073 0.929 . S
C1083 C1081 1.433 . S
C1083 N1086 1.384 . S
C1084 H1075 0.929 . S
C1084 C1076 1.378 . S
C1084 C1079 1.350 . S
C1085 H1072 0.929 . S
C1085 C1077 1.433 . S
C1085 N1087 1.384 . S
N1086 C1082 1.427 . S
N1086 C1083 1.384 . S
N1087 C1079 1.427 . S
N1087 C1085 1.384 . S
C663 C242 1.469 1_545 S
C667 C376 1.478 . S
C685 C460 1.474 . S
C681 C301 1.494 . S
C703 C459 1.493 . S
C699 C162 1.463 . S
C717 C221 1.465 1_545 S
C721 C375 1.483 . S
C739 C556 1.486 . S
C735 C82 1.489 1_565 S
C757 C640 1.481 . S
C753 C141 1.465 . S
C771 C2 1.486 . S
C775 C639 1.490 . S
C789 C61 1.460 1_565 S
C793 C555 1.487 . S
C811 C378 1.331 . S
C807 C42 1.495 . S
C829 C462 1.326 . S
C825 C21 1.534 . S
C847 C474 1.402 . S
C843 C122 1.517 . S
C865 C390 1.405 . S
C861 C101 1.551 . S
C883 C558 1.326 . S
C879 C202 1.530 . S
C897 C181 1.496 . S
C901 C642 1.343 . S
C919 C630 1.397 . S
C915 C282 1.548 . S
C933 C261 1.521 . S
C937 C546 1.397 . S
C955 C387 1.613 . S
C951 C15 1.605 . S
C973 C471 1.601 . S
C969 C55 1.595 . S
C987 C95 1.589 . S
C991 C472 1.588 . S
C1009 C388 1.576 . S
C1005 C135 1.575 . S
C1027 C543 1.615 . S
C1023 C175 1.600 . S
C1041 C215 1.593 . S
C1045 C627 1.598 . S
C1059 C255 1.584 . S
C1063 C628 1.590 . S
C1077 C295 1.582 . S
C1081 C544 1.572 . S
