# Generated by pormake.
# Topology gar, (4,6)-cn, num edge types: 1
# Building blocks:
#     Node 0, Type 0, BuildingBlock: KUFVIS_clean_sbu_0, # of connection points: 4
#     Node 1, Type 0, BuildingBlock: KUFVIS_clean_sbu_0, # of connection points: 4
#     Node 2, Type 0, BuildingBlock: KUFVIS_clean_sbu_0, # of connection points: 4
#     Node 3, Type 0, BuildingBlock: KUFVIS_clean_sbu_0, # of connection points: 4
#     Node 4, Type 0, BuildingBlock: KUFVIS_clean_sbu_0, # of connection points: 4
#     Node 5, Type 0, BuildingBlock: KUFVIS_clean_sbu_0, # of connection points: 4
#     Node 6, Type 0, BuildingBlock: KUFVIS_clean_sbu_0, # of connection points: 4
#     Node 7, Type 0, BuildingBlock: KUFVIS_clean_sbu_0, # of connection points: 4
#     Node 8, Type 0, BuildingBlock: KUFVIS_clean_sbu_0, # of connection points: 4
#     Node 9, Type 0, BuildingBlock: KUFVIS_clean_sbu_0, # of connection points: 4
#     Node 10, Type 0, BuildingBlock: KUFVIS_clean_sbu_0, # of connection points: 4
#     Node 11, Type 0, BuildingBlock: KUFVIS_clean_sbu_0, # of connection points: 4
#     Node 12, Type 0, BuildingBlock: KUFVIS_clean_sbu_0, # of connection points: 4
#     Node 13, Type 0, BuildingBlock: KUFVIS_clean_sbu_0, # of connection points: 4
#     Node 14, Type 0, BuildingBlock: KUFVIS_clean_sbu_0, # of connection points: 4
#     Node 15, Type 0, BuildingBlock: KUFVIS_clean_sbu_0, # of connection points: 4
#     Node 16, Type 0, BuildingBlock: KUFVIS_clean_sbu_0, # of connection points: 4
#     Node 17, Type 0, BuildingBlock: KUFVIS_clean_sbu_0, # of connection points: 4
#     Node 18, Type 0, BuildingBlock: KUFVIS_clean_sbu_0, # of connection points: 4
#     Node 19, Type 0, BuildingBlock: KUFVIS_clean_sbu_0, # of connection points: 4
#     Node 20, Type 0, BuildingBlock: KUFVIS_clean_sbu_0, # of connection points: 4
#     Node 21, Type 0, BuildingBlock: KUFVIS_clean_sbu_0, # of connection points: 4
#     Node 22, Type 0, BuildingBlock: KUFVIS_clean_sbu_0, # of connection points: 4
#     Node 23, Type 0, BuildingBlock: KUFVIS_clean_sbu_0, # of connection points: 4
#     Node 24, Type 1, BuildingBlock: BETFEN_clean_sbu_0, # of connection points: 6
#     Node 25, Type 1, BuildingBlock: BETFEN_clean_sbu_0, # of connection points: 6
#     Node 26, Type 1, BuildingBlock: BETFEN_clean_sbu_0, # of connection points: 6
#     Node 27, Type 1, BuildingBlock: BETFEN_clean_sbu_0, # of connection points: 6
#     Node 28, Type 1, BuildingBlock: BETFEN_clean_sbu_0, # of connection points: 6
#     Node 29, Type 1, BuildingBlock: BETFEN_clean_sbu_0, # of connection points: 6
#     Node 30, Type 1, BuildingBlock: BETFEN_clean_sbu_0, # of connection points: 6
#     Node 31, Type 1, BuildingBlock: BETFEN_clean_sbu_0, # of connection points: 6
#     Node 32, Type 1, BuildingBlock: BETFEN_clean_sbu_0, # of connection points: 6
#     Node 33, Type 1, BuildingBlock: BETFEN_clean_sbu_0, # of connection points: 6
#     Node 34, Type 1, BuildingBlock: BETFEN_clean_sbu_0, # of connection points: 6
#     Node 35, Type 1, BuildingBlock: BETFEN_clean_sbu_0, # of connection points: 6
#     Node 36, Type 1, BuildingBlock: BETFEN_clean_sbu_0, # of connection points: 6
#     Node 37, Type 1, BuildingBlock: BETFEN_clean_sbu_0, # of connection points: 6
#     Node 38, Type 1, BuildingBlock: BETFEN_clean_sbu_0, # of connection points: 6
#     Node 39, Type 1, BuildingBlock: BETFEN_clean_sbu_0, # of connection points: 6
#     Edge 40, Type (0, 1), BuildingBlock: OJICUG_clean_linker_0, # of connection points: 2
#     Edge 41, Type (0, 1), BuildingBlock: OJICUG_clean_linker_0, # of connection points: 2
#     Edge 42, Type (0, 1), BuildingBlock: OJICUG_clean_linker_0, # of connection points: 2
#     Edge 43, Type (0, 1), BuildingBlock: OJICUG_clean_linker_0, # of connection points: 2
#     Edge 44, Type (0, 1), BuildingBlock: OJICUG_clean_linker_0, # of connection points: 2
#     Edge 45, Type (0, 1), BuildingBlock: OJICUG_clean_linker_0, # of connection points: 2
#     Edge 46, Type (0, 1), BuildingBlock: OJICUG_clean_linker_0, # of connection points: 2
#     Edge 47, Type (0, 1), BuildingBlock: OJICUG_clean_linker_0, # of connection points: 2
#     Edge 48, Type (0, 1), BuildingBlock: OJICUG_clean_linker_0, # of connection points: 2
#     Edge 49, Type (0, 1), BuildingBlock: OJICUG_clean_linker_0, # of connection points: 2
#     Edge 50, Type (0, 1), BuildingBlock: OJICUG_clean_linker_0, # of connection points: 2
#     Edge 51, Type (0, 1), BuildingBlock: OJICUG_clean_linker_0, # of connection points: 2
#     Edge 52, Type (0, 1), BuildingBlock: OJICUG_clean_linker_0, # of connection points: 2
#     Edge 53, Type (0, 1), BuildingBlock: OJICUG_clean_linker_0, # of connection points: 2
#     Edge 54, Type (0, 1), BuildingBlock: OJICUG_clean_linker_0, # of connection points: 2
#     Edge 55, Type (0, 1), BuildingBlock: OJICUG_clean_linker_0, # of connection points: 2
#     Edge 56, Type (0, 1), BuildingBlock: OJICUG_clean_linker_0, # of connection points: 2
#     Edge 57, Type (0, 1), BuildingBlock: OJICUG_clean_linker_0, # of connection points: 2
#     Edge 58, Type (0, 1), BuildingBlock: OJICUG_clean_linker_0, # of connection points: 2
#     Edge 59, Type (0, 1), BuildingBlock: OJICUG_clean_linker_0, # of connection points: 2
#     Edge 60, Type (0, 1), BuildingBlock: OJICUG_clean_linker_0, # of connection points: 2
#     Edge 61, Type (0, 1), BuildingBlock: OJICUG_clean_linker_0, # of connection points: 2
#     Edge 62, Type (0, 1), BuildingBlock: OJICUG_clean_linker_0, # of connection points: 2
#     Edge 63, Type (0, 1), BuildingBlock: OJICUG_clean_linker_0, # of connection points: 2
#     Edge 64, Type (0, 1), BuildingBlock: OJICUG_clean_linker_0, # of connection points: 2
#     Edge 65, Type (0, 1), BuildingBlock: OJICUG_clean_linker_0, # of connection points: 2
#     Edge 66, Type (0, 1), BuildingBlock: OJICUG_clean_linker_0, # of connection points: 2
#     Edge 67, Type (0, 1), BuildingBlock: OJICUG_clean_linker_0, # of connection points: 2
#     Edge 68, Type (0, 1), BuildingBlock: OJICUG_clean_linker_0, # of connection points: 2
#     Edge 69, Type (0, 1), BuildingBlock: OJICUG_clean_linker_0, # of connection points: 2
#     Edge 70, Type (0, 1), BuildingBlock: OJICUG_clean_linker_0, # of connection points: 2
#     Edge 71, Type (0, 1), BuildingBlock: OJICUG_clean_linker_0, # of connection points: 2
#     Edge 72, Type (0, 1), BuildingBlock: OJICUG_clean_linker_0, # of connection points: 2
#     Edge 73, Type (0, 1), BuildingBlock: OJICUG_clean_linker_0, # of connection points: 2
#     Edge 74, Type (0, 1), BuildingBlock: OJICUG_clean_linker_0, # of connection points: 2
#     Edge 75, Type (0, 1), BuildingBlock: OJICUG_clean_linker_0, # of connection points: 2
#     Edge 76, Type (0, 1), BuildingBlock: OJICUG_clean_linker_0, # of connection points: 2
#     Edge 77, Type (0, 1), BuildingBlock: OJICUG_clean_linker_0, # of connection points: 2
#     Edge 78, Type (0, 1), BuildingBlock: OJICUG_clean_linker_0, # of connection points: 2
#     Edge 79, Type (0, 1), BuildingBlock: OJICUG_clean_linker_0, # of connection points: 2
#     Edge 80, Type (0, 1), BuildingBlock: OJICUG_clean_linker_0, # of connection points: 2
#     Edge 81, Type (0, 1), BuildingBlock: OJICUG_clean_linker_0, # of connection points: 2
#     Edge 82, Type (0, 1), BuildingBlock: OJICUG_clean_linker_0, # of connection points: 2
#     Edge 83, Type (0, 1), BuildingBlock: OJICUG_clean_linker_0, # of connection points: 2
#     Edge 84, Type (0, 1), BuildingBlock: OJICUG_clean_linker_0, # of connection points: 2
#     Edge 85, Type (0, 1), BuildingBlock: OJICUG_clean_linker_0, # of connection points: 2
#     Edge 86, Type (0, 1), BuildingBlock: OJICUG_clean_linker_0, # of connection points: 2
#     Edge 87, Type (0, 1), BuildingBlock: OJICUG_clean_linker_0, # of connection points: 2
#     Edge 88, Type (0, 1), BuildingBlock: OJICUG_clean_linker_0, # of connection points: 2
#     Edge 89, Type (0, 1), BuildingBlock: OJICUG_clean_linker_0, # of connection points: 2
#     Edge 90, Type (0, 1), BuildingBlock: OJICUG_clean_linker_0, # of connection points: 2
#     Edge 91, Type (0, 1), BuildingBlock: OJICUG_clean_linker_0, # of connection points: 2
#     Edge 92, Type (0, 1), BuildingBlock: OJICUG_clean_linker_0, # of connection points: 2
#     Edge 93, Type (0, 1), BuildingBlock: OJICUG_clean_linker_0, # of connection points: 2
#     Edge 94, Type (0, 1), BuildingBlock: OJICUG_clean_linker_0, # of connection points: 2
#     Edge 95, Type (0, 1), BuildingBlock: OJICUG_clean_linker_0, # of connection points: 2
#     Edge 96, Type (0, 1), BuildingBlock: OJICUG_clean_linker_0, # of connection points: 2
#     Edge 97, Type (0, 1), BuildingBlock: OJICUG_clean_linker_0, # of connection points: 2
#     Edge 98, Type (0, 1), BuildingBlock: OJICUG_clean_linker_0, # of connection points: 2
#     Edge 99, Type (0, 1), BuildingBlock: OJICUG_clean_linker_0, # of connection points: 2
#     Edge 100, Type (0, 1), BuildingBlock: OJICUG_clean_linker_0, # of connection points: 2
#     Edge 101, Type (0, 1), BuildingBlock: OJICUG_clean_linker_0, # of connection points: 2
#     Edge 102, Type (0, 1), BuildingBlock: OJICUG_clean_linker_0, # of connection points: 2
#     Edge 103, Type (0, 1), BuildingBlock: OJICUG_clean_linker_0, # of connection points: 2
#     Edge 104, Type (0, 1), BuildingBlock: OJICUG_clean_linker_0, # of connection points: 2
#     Edge 105, Type (0, 1), BuildingBlock: OJICUG_clean_linker_0, # of connection points: 2
#     Edge 106, Type (0, 1), BuildingBlock: OJICUG_clean_linker_0, # of connection points: 2
#     Edge 107, Type (0, 1), BuildingBlock: OJICUG_clean_linker_0, # of connection points: 2
#     Edge 108, Type (0, 1), BuildingBlock: OJICUG_clean_linker_0, # of connection points: 2
#     Edge 109, Type (0, 1), BuildingBlock: OJICUG_clean_linker_0, # of connection points: 2
#     Edge 110, Type (0, 1), BuildingBlock: OJICUG_clean_linker_0, # of connection points: 2
#     Edge 111, Type (0, 1), BuildingBlock: OJICUG_clean_linker_0, # of connection points: 2
#     Edge 112, Type (0, 1), BuildingBlock: OJICUG_clean_linker_0, # of connection points: 2
#     Edge 113, Type (0, 1), BuildingBlock: OJICUG_clean_linker_0, # of connection points: 2
#     Edge 114, Type (0, 1), BuildingBlock: OJICUG_clean_linker_0, # of connection points: 2
#     Edge 115, Type (0, 1), BuildingBlock: OJICUG_clean_linker_0, # of connection points: 2
#     Edge 116, Type (0, 1), BuildingBlock: OJICUG_clean_linker_0, # of connection points: 2
#     Edge 117, Type (0, 1), BuildingBlock: OJICUG_clean_linker_0, # of connection points: 2
#     Edge 118, Type (0, 1), BuildingBlock: OJICUG_clean_linker_0, # of connection points: 2
#     Edge 119, Type (0, 1), BuildingBlock: OJICUG_clean_linker_0, # of connection points: 2
#     Edge 120, Type (0, 1), BuildingBlock: OJICUG_clean_linker_0, # of connection points: 2
#     Edge 121, Type (0, 1), BuildingBlock: OJICUG_clean_linker_0, # of connection points: 2
#     Edge 122, Type (0, 1), BuildingBlock: OJICUG_clean_linker_0, # of connection points: 2
#     Edge 123, Type (0, 1), BuildingBlock: OJICUG_clean_linker_0, # of connection points: 2
#     Edge 124, Type (0, 1), BuildingBlock: OJICUG_clean_linker_0, # of connection points: 2
#     Edge 125, Type (0, 1), BuildingBlock: OJICUG_clean_linker_0, # of connection points: 2
#     Edge 126, Type (0, 1), BuildingBlock: OJICUG_clean_linker_0, # of connection points: 2
#     Edge 127, Type (0, 1), BuildingBlock: OJICUG_clean_linker_0, # of connection points: 2
#     Edge 128, Type (0, 1), BuildingBlock: OJICUG_clean_linker_0, # of connection points: 2
#     Edge 129, Type (0, 1), BuildingBlock: OJICUG_clean_linker_0, # of connection points: 2
#     Edge 130, Type (0, 1), BuildingBlock: OJICUG_clean_linker_0, # of connection points: 2
#     Edge 131, Type (0, 1), BuildingBlock: OJICUG_clean_linker_0, # of connection points: 2
#     Edge 132, Type (0, 1), BuildingBlock: OJICUG_clean_linker_0, # of connection points: 2
#     Edge 133, Type (0, 1), BuildingBlock: OJICUG_clean_linker_0, # of connection points: 2
#     Edge 134, Type (0, 1), BuildingBlock: OJICUG_clean_linker_0, # of connection points: 2
#     Edge 135, Type (0, 1), BuildingBlock: OJICUG_clean_linker_0, # of connection points: 2
# Relax obj value: 0.246
# Max RMSD: 0.349
# Mean RMSD: 0.176
data_MOF--net-gar--node1-KUFVIS_clean_sbu_0--node2-BETFEN_clean_sbu_0--edge1-OJICUG_clean_linker_0
_symmetry_space_group_name_H-M    P1
_symmetry_Int_Tables_number       1
_symmetry_cell_setting            triclinic
loop_
_symmetry_equiv_pos_as_xyz
'x, y, z'
_cell_length_a     48.182949
_cell_length_b     41.658171
_cell_length_c     42.610277
_cell_angle_alpha  93.80457
_cell_angle_beta   99.566681
_cell_angle_gamma 103.24823
loop_
_atom_site_label
_atom_site_type_symbol
_atom_site_fract_x
_atom_site_fract_y
_atom_site_fract_z
_atom_type_partial_charge
Mn0 Mn 0.04686 0.3429 0.43584 0.0
Mn1 Mn 0.04405 0.39475 0.37741 0.0
C2 C 1.00152 0.35068 0.40908 0.0
C3 C 0.04905 0.28962 0.45492 0.0
C4 C 0.06461 0.42049 0.44841 0.0
O5 O 0.0864 0.34724 0.42074 0.0
O6 O 0.0788 0.37638 0.37868 0.0
C7 C 0.03466 0.3468 0.31976 0.0
N8 N 0.02658 0.37117 0.33624 0.0
C9 C 0.98854 0.3724 0.29218 0.0
C10 C 0.99662 0.3475 0.27462 0.0
C11 C 1.01964 0.33449 0.28856 0.0
C12 C 1.00417 0.38351 0.32322 0.0
H13 H 0.05244 0.33688 0.33035 0.0
C14 C 0.0935 0.35922 0.39528 0.0
O15 O 0.05858 0.31762 0.47288 0.0
O16 O 0.03793 0.29214 0.42548 0.0
N17 N 1.01118 0.41372 0.37293 0.0
C18 C 1.00367 0.43431 0.39446 0.0
C19 C 0.98069 0.44908 0.3847 0.0
C20 C 0.96539 0.44215 0.353 0.0
C21 C 0.97288 0.42 0.33154 0.0
C22 C 0.99627 0.40642 0.34255 0.0
H23 H 1.01449 0.43862 0.41909 0.0
O24 O 1.00396 0.33991 0.43712 0.0
O25 O 0.02531 0.35668 0.39784 0.0
O26 O 0.05931 0.39192 0.45898 0.0
O27 O 0.06162 0.42336 0.41846 0.0
C28 C 0.95754 0.41011 0.29996 0.0
C29 C 0.96524 0.38616 0.28036 0.0
H30 H 0.9851 0.33795 0.25056 0.0
H31 H 0.02586 0.31512 0.27522 0.0
H32 H 0.97454 0.46537 0.4017 0.0
H33 H 0.94739 0.45319 0.34566 0.0
H34 H 0.93932 0.42013 0.29078 0.0
H35 H 0.95282 0.37816 0.25638 0.0
Mn36 Mn 0.11974 0.86728 0.6561 0.0
Mn37 Mn 0.14281 0.92842 0.71821 0.0
C38 C 0.16877 0.88144 0.68411 0.0
C39 C 0.10184 0.80959 0.63283 0.0
C40 C 0.12333 0.94215 0.64937 0.0
O41 O 0.08195 0.87081 0.67259 0.0
O42 O 0.10186 0.90575 0.71833 0.0
C43 C 0.14158 0.89389 0.77658 0.0
N44 N 0.15686 0.91339 0.7578 0.0
C45 C 0.20031 0.92493 0.79814 0.0
C46 C 0.18498 0.90496 0.8179 0.0
C47 C 0.15549 0.88935 0.80705 0.0
C48 C 0.18524 0.92867 0.7681 0.0
H49 H 0.1189 0.88223 0.76849 0.0
C50 C 0.08019 0.88604 0.6994 0.0
O51 O 0.09874 0.83454 0.61716 0.0
O52 O 0.11395 0.81778 0.66276 0.0
N53 N 0.18241 0.95128 0.71959 0.0
C54 C 0.194 0.97031 0.6979 0.0
C55 C 0.22342 0.98732 0.70494 0.0
C56 C 0.24059 0.98485 0.73429 0.0
C57 C 0.22816 0.96526 0.75627 0.0
C58 C 0.19876 0.94869 0.74785 0.0
H59 H 0.18092 0.97265 0.67543 0.0
O60 O 0.16209 0.86806 0.65456 0.0
O61 O 0.14711 0.88794 0.69525 0.0
O62 O 0.12137 0.91284 0.6362 0.0
O63 O 0.12958 0.94898 0.67967 0.0
C64 C 0.24382 0.9614 0.78615 0.0
C65 C 0.22988 0.9415 0.80721 0.0
H66 H 0.19559 0.90156 0.84149 0.0
H67 H 0.14345 0.8741 0.82225 0.0
H68 H 0.23281 1.00243 0.68783 0.0
H69 H 0.26326 0.99809 0.73971 0.0
H70 H 0.26659 0.97352 0.79307 0.0
H71 H 0.24214 0.93905 0.83028 0.0
Mn72 Mn 0.54514 0.8438 0.93576 0.0
Mn73 Mn 0.54224 0.89603 0.87749 0.0
C74 C 0.49951 0.85137 0.90863 0.0
C75 C 0.54758 0.79008 0.95472 0.0
C76 C 0.56235 0.92177 0.94862 0.0
O77 O 0.58482 0.84843 0.92077 0.0
O78 O 0.57754 0.8785 0.87938 0.0
C79 C 0.53458 0.84875 0.81976 0.0
N80 N 0.52562 0.87247 0.83613 0.0
C81 C 0.48788 0.87305 0.79153 0.0
C82 C 0.49682 0.84877 0.7741 0.0
C83 C 0.52016 0.83645 0.78835 0.0
C84 C 0.503 0.88427 0.82275 0.0
H85 H 0.55261 0.83937 0.83056 0.0
C86 C 0.59225 0.86116 0.89575 0.0
O87 O 0.55695 0.81807 0.97273 0.0
O88 O 0.5364 0.79286 0.92537 0.0
N89 N 0.50893 0.91423 0.87238 0.0
C90 C 0.50065 0.93425 0.89373 0.0
C91 C 0.47733 0.94838 0.88363 0.0
C92 C 0.46243 0.9413 0.85177 0.0
C93 C 0.47067 0.91964 0.8305 0.0
C94 C 0.49441 0.90677 0.84185 0.0
H95 H 0.51106 0.93842 0.91851 0.0
O96 O 0.50204 0.84059 0.93666 0.0
O97 O 0.52343 0.85764 0.8976 0.0
O98 O 0.55756 0.89307 0.95911 0.0
O99 O 0.55896 0.92469 0.91867 0.0
C100 C 0.45573 0.90953 0.79879 0.0
C101 C 0.46423 0.88612 0.77937 0.0
H102 H 0.48575 0.8392 0.74989 0.0
H103 H 0.52709 0.8176 0.77508 0.0
H104 H 0.47056 0.9642 0.9005 0.0
H105 H 0.44413 0.95178 0.84417 0.0
H106 H 0.43722 0.91897 0.78936 0.0
H107 H 0.45216 0.87798 0.75526 0.0
Mn108 Mn 0.62068 0.36711 0.16237 0.0
Mn109 Mn 0.56123 0.35054 0.10372 0.0
C110 C 0.59903 0.31132 0.13756 0.0
C111 C 0.67033 0.37571 0.18676 0.0
C112 C 0.55923 0.36798 0.17319 0.0
O113 O 0.62252 0.41437 0.1454 0.0
O114 O 0.5822 0.3985 0.10696 0.0
C115 C 0.58945 0.36072 0.0474 0.0
N116 N 0.57107 0.34093 0.06318 0.0
C117 C 0.55909 0.29665 0.0203 0.0
C118 C 0.57767 0.31669 1.00342 0.0
C119 C 0.59295 0.34883 1.01707 0.0
C120 C 0.55625 0.30996 0.05029 0.0
H121 H 0.60142 0.38529 0.05795 0.0
C122 C 0.60407 0.42103 0.12241 0.0
O123 O 0.65151 0.38484 0.20134 0.0
O124 O 0.66124 0.3648 0.15659 0.0
N125 N 0.53936 0.30538 0.0982 0.0
C126 C 0.52433 0.28835 0.11881 0.0
C127 C 0.50871 0.25534 0.10944 0.0
C128 C 0.50877 0.24017 0.07903 0.0
C129 C 0.52449 0.25819 0.05829 0.0
C130 C 0.53939 0.29114 0.06883 0.0
H131 H 0.52447 0.29975 0.1423 0.0
O132 O 0.6131 0.31724 0.16689 0.0
O133 O 0.59653 0.3381 0.12434 0.0
O134 O 0.58623 0.37207 0.18328 0.0
O135 O 0.5474 0.35923 0.14396 0.0
C136 C 0.52654 0.24452 0.02789 0.0
C137 C 0.54384 0.26373 1.00891 0.0
H138 H 0.58063 0.30752 0.98014 0.0
H139 H 0.60748 0.36435 1.00428 0.0
H140 H 0.4968 0.24158 0.12569 0.0
H141 H 0.49694 0.21458 0.07199 0.0
H142 H 0.51532 0.21908 1.01911 0.0
H143 H 0.54565 0.25274 0.98582 0.0
Mn144 Mn 0.13239 0.87369 0.15537 0.0
Mn145 Mn 0.07345 0.84549 0.09583 0.0
C146 C 0.11749 0.81716 0.13497 0.0
C147 C 0.18196 0.88904 0.18215 0.0
C148 C 0.06931 0.86315 0.16402 0.0
O149 O 0.12821 0.91749 0.1347 0.0
O150 O 0.0891 0.89377 0.09627 0.0
C151 C 0.09455 0.85809 0.03566 0.0
N152 N 0.08118 0.83647 0.05425 0.0
C153 C 0.05613 0.79796 1.00826 0.0
C154 C 0.06985 0.81961 0.98856 0.0
C155 C 0.08953 0.84956 1.00239 0.0
C156 C 0.06302 0.80703 0.04125 0.0
H157 H 0.10812 0.88206 0.04606 0.0
C158 C 0.10852 0.91924 0.11049 0.0
O159 O 0.16119 0.89628 0.19461 0.0
O160 O 0.17481 0.87742 0.15201 0.0
N161 N 0.05569 0.79933 0.09293 0.0
C162 C 0.04435 0.78145 0.11545 0.0
C163 C 0.02629 0.74952 0.1061 0.0
C164 C 1.01909 0.73708 0.07356 0.0
C165 C 0.03067 0.75631 0.05084 0.0
C166 C 0.04991 0.78708 0.06188 0.0
H167 H 0.04877 0.79171 0.14025 0.0
O168 O 0.13092 0.82682 0.16422 0.0
O169 O 0.11168 0.8406 0.11808 0.0
O170 O 0.09625 0.87282 0.17528 0.0
O171 O 0.05949 0.85281 0.13494 0.0
C172 C 1.02292 0.74702 1.01761 0.0
C173 C 0.03488 0.76847 0.99641 0.0
H174 H 0.06524 0.81364 0.9628 0.0
H175 H 0.09994 0.86658 0.98732 0.0
H176 H 1.01719 0.73498 0.12372 0.0
H177 H 1.00439 0.71298 0.06634 0.0
H178 H 1.00722 0.72399 1.00804 0.0
H179 H 0.02733 0.76236 0.97097 0.0
Mn180 Mn 0.53874 0.8394 0.44502 0.0
Mn181 Mn 0.53719 0.89201 0.38694 0.0
C182 C 0.4939 0.84002 0.41163 0.0
C183 C 0.54923 0.79066 0.46747 0.0
C184 C 0.54837 0.91425 0.45771 0.0
O185 O 0.5809 0.85357 0.43756 0.0
O186 O 0.57424 0.87884 0.39233 0.0
C187 C 0.53842 0.85209 0.32743 0.0
N188 N 0.52523 0.8713 0.34402 0.0
C189 C 0.49254 0.87592 0.29619 0.0
C190 C 0.50564 0.85597 0.27859 0.0
C191 C 0.52861 0.84392 0.29429 0.0
C192 C 0.5032 0.88315 0.32912 0.0
H193 H 0.55658 0.84357 0.33935 0.0
C194 C 0.58979 0.86679 0.41351 0.0
O195 O 0.55168 0.81833 0.48446 0.0
O196 O 0.53942 0.79039 0.43697 0.0
N197 N 0.5023 0.90712 0.37963 0.0
C198 C 0.4911 0.92459 0.4004 0.0
C199 C 0.4673 0.93739 0.38882 0.0
C200 C 0.45563 0.9327 0.35591 0.0
C201 C 0.4676 0.91475 0.33498 0.0
C202 C 0.49107 0.90219 0.34801 0.0
H203 H 0.50014 0.92867 0.4256 0.0
O204 O 0.49448 0.82777 0.43903 0.0
O205 O 0.51919 0.8506 0.40413 0.0
O206 O 0.54115 0.88581 0.46742 0.0
O207 O 0.55012 0.91837 0.42884 0.0
C208 C 0.45683 0.90824 0.30178 0.0
C209 C 0.46929 0.88886 0.2824 0.0
H210 H 0.49826 0.84978 0.253 0.0
H211 H 0.53897 0.82875 0.2808 0.0
H212 H 0.45808 0.951 0.4052 0.0
H213 H 0.43729 0.94264 0.34705 0.0
H214 H 0.4387 0.91763 0.29099 0.0
H215 H 0.46065 0.88379 0.25696 0.0
Mn216 Mn 0.63208 0.37461 0.65742 0.0
Mn217 Mn 0.57346 0.34767 0.59763 0.0
C218 C 0.61699 0.3184 0.63579 0.0
C219 C 0.68171 0.38968 0.68403 0.0
C220 C 0.56895 0.36461 0.66603 0.0
O221 O 0.62781 0.41889 0.63742 0.0
O222 O 0.58961 0.3956 0.5977 0.0
C223 C 0.59596 0.3588 0.53792 0.0
N224 N 0.5817 0.33789 0.55645 0.0
C225 C 0.55762 0.29851 0.51079 0.0
C226 C 0.57228 0.31939 0.49115 0.0
C227 C 0.59189 0.34944 0.50487 0.0
C228 C 0.56366 0.30837 0.54367 0.0
H229 H 0.60961 0.38278 0.54818 0.0
C230 C 0.6088 0.42087 0.61257 0.0
O231 O 0.66095 0.39647 0.69684 0.0
O232 O 0.67449 0.37871 0.65372 0.0
N233 N 0.55537 0.30174 0.59523 0.0
C234 C 0.54344 0.28445 0.61778 0.0
C235 C 0.52468 0.2529 0.6085 0.0
C236 C 0.51736 0.24041 0.576 0.0
C237 C 0.52982 0.25898 0.55338 0.0
C238 C 0.54985 0.28912 0.56433 0.0
H239 H 0.54787 0.2949 0.6425 0.0
O240 O 0.6306 0.32721 0.66509 0.0
O241 O 0.61136 0.34242 0.61982 0.0
O242 O 0.59591 0.37291 0.67757 0.0
O243 O 0.55921 0.35581 0.63662 0.0
C244 C 0.52205 0.24968 0.52026 0.0
C245 C 0.53602 0.26931 0.49893 0.0
H246 H 0.56833 0.31284 0.46549 0.0
H247 H 0.60299 0.36589 0.48982 0.0
H248 H 0.51508 0.23881 0.62612 0.0
H249 H 0.50208 0.21669 0.56868 0.0
H250 H 0.50455 0.2282 0.51118 0.0
H251 H 0.52941 0.26242 0.47344 0.0
Mn252 Mn 0.03954 0.33914 0.94437 0.0
Mn253 Mn 0.03755 0.39037 0.88514 0.0
C254 C 0.99431 0.34048 0.91197 0.0
C255 C 0.04935 0.29034 0.96724 0.0
C256 C 0.05071 0.41445 0.9557 0.0
O257 O 0.08136 0.35165 0.93539 0.0
O258 O 0.07419 0.3763 0.88988 0.0
C259 C 0.03588 0.34698 0.82671 0.0
N260 N 1.02413 0.36813 0.84291 0.0
C261 C 0.98978 0.37064 0.79573 0.0
C262 C 1.00141 0.34872 0.77852 0.0
C263 C 0.02447 0.33674 0.79411 0.0
C264 C 1.00191 0.37977 0.82817 0.0
H265 H 0.05399 0.33832 0.83854 0.0
C266 C 0.08988 0.36421 0.91088 0.0
O267 O 0.05325 0.31853 0.98393 0.0
O268 O 0.03856 0.2896 0.93694 0.0
N269 N 1.00314 0.40645 0.87823 0.0
C270 C 0.99324 0.42569 0.89878 0.0
C271 C 0.96961 0.43883 0.88732 0.0
C272 C 0.95675 0.43259 0.85473 0.0
C273 C 0.96745 0.41291 0.83398 0.0
C274 C 0.99089 0.40024 0.84687 0.0
H275 H 1.00322 0.43102 0.92371 0.0
O276 O 0.99529 0.32892 0.93972 0.0
O277 O 1.01938 0.35004 0.90372 0.0
O278 O 0.04349 0.38631 0.96603 0.0
O279 O 0.05183 0.41786 0.92653 0.0
C280 C 0.95537 0.40474 0.80117 0.0
C281 C 0.96646 0.38353 0.78208 0.0
H282 H 0.99275 0.34086 0.75335 0.0
H283 H 0.03361 0.31993 0.78093 0.0
H284 H 0.96143 0.45386 0.90353 0.0
H285 H 0.93849 0.4427 0.84601 0.0
H286 H 0.93719 0.41411 0.79052 0.0
H287 H 0.95666 0.37698 0.75701 0.0
Mn288 Mn 0.49568 0.20853 0.34726 0.0
Mn289 Mn 0.44661 0.19099 0.39496 0.0
C290 C 0.47675 0.15572 0.35596 0.0
C291 C 0.50904 0.2088 0.29761 0.0
C292 C 0.51135 0.2136 0.41926 0.0
O293 O 0.47766 0.24785 0.3444 0.0
O294 O 0.44879 0.23661 0.38135 0.0
C295 C 0.39101 0.19178 0.35276 0.0
N296 N 0.408 0.17486 0.37034 0.0
C297 C 0.36824 0.12612 0.36263 0.0
C298 C 0.35077 0.14288 0.34379 0.0
C299 C 0.36219 0.1759 0.33894 0.0
C300 C 0.39692 0.14319 0.37568 0.0
H301 H 0.39899 0.21739 0.3498 0.0
C302 C 0.45744 0.253 0.35868 0.0
O303 O 0.52668 0.22545 0.32285 0.0
O304 O 0.48266 0.19584 0.3006 0.0
N305 N 0.44201 0.14671 0.40716 0.0
C306 C 0.46191 0.13301 0.42442 0.0
C307 C 0.45378 0.10021 0.4316 0.0
C308 C 0.42533 0.08137 0.42034 0.0
C309 C 0.4055 0.09538 0.40147 0.0
C310 C 0.41491 0.12832 0.39511 0.0
H311 H 0.48406 0.14649 0.43172 0.0
O312 O 0.50313 0.16408 0.35092 0.0
O313 O 0.46374 0.17928 0.35929 0.0
O314 O 0.51827 0.22265 0.39306 0.0
O315 O 0.48507 0.20463 0.42293 0.0
C316 C 0.3768 0.07784 0.38857 0.0
C317 C 0.35812 0.09327 0.36934 0.0
H318 H 0.32843 0.13079 0.3333 0.0
H319 H 0.34866 0.18927 0.32496 0.0
H320 H 0.46951 0.08939 0.44551 0.0
H321 H 0.41909 0.056 0.42587 0.0
H322 H 0.3689 0.05242 0.39321 0.0
H323 H 0.33605 0.07954 0.35961 0.0
Mn324 Mn 0.29231 0.26498 0.53044 0.0
Mn325 Mn 0.27908 0.20393 0.46983 0.0
C326 C 0.24349 0.23325 0.51023 0.0
C327 C 0.30137 0.282 0.58708 0.0
C328 C 0.29893 0.27735 0.45957 0.0
O329 O 0.33201 0.25302 0.53343 0.0
O330 O 0.31863 0.21007 0.49466 0.0
C331 C 0.28132 0.14618 0.5061 0.0
N332 N 0.26647 0.16158 0.48429 0.0
C333 C 0.22697 0.11295 0.47036 0.0
C334 C 0.24183 0.0965 0.49264 0.0
C335 C 0.26905 0.11327 0.51072 0.0
C336 C 0.2401 0.14588 0.46715 0.0
H337 H 0.30249 0.15877 0.5196 0.0
C338 C 0.33729 0.22868 0.51737 0.0
O339 O 0.30878 0.30263 0.56663 0.0
O340 O 0.28944 0.25175 0.57493 0.0
N341 N 0.24123 0.19518 0.44412 0.0
C342 C 0.2302 0.21436 0.42308 0.0
C343 C 0.20319 0.20122 0.40293 0.0
C344 C 0.18802 0.1684 0.40434 0.0
C345 C 0.19994 0.14906 0.42604 0.0
C346 C 0.22685 0.16358 0.44566 0.0
H347 H 0.24207 0.23935 0.42143 0.0
O348 O 0.24906 0.26336 0.52405 0.0
O349 O 0.26686 0.22408 0.50654 0.0
O350 O 0.29869 0.28907 0.48838 0.0
O351 O 0.29206 0.24611 0.45123 0.0
C352 C 0.18637 0.11585 0.42871 0.0
C353 C 0.19985 0.09783 0.4509 0.0
H354 H 0.23261 0.07096 0.49596 0.0
H355 H 0.2807 0.10072 0.52788 0.0
H356 H 0.19423 0.21624 0.38611 0.0
H357 H 0.16729 0.15826 0.38857 0.0
H358 H 0.1656 0.10389 0.41375 0.0
H359 H 0.18925 0.07228 0.45265 0.0
Mn360 Mn 0.22056 0.16038 0.8847 0.0
Mn361 Mn 0.27384 0.17611 0.94688 0.0
C362 C 0.2493 0.21377 0.89547 0.0
C363 C 0.20175 0.14026 0.83313 0.0
C364 C 0.20956 0.15325 0.94911 0.0
O365 O 0.22928 0.11536 0.89319 0.0
O366 O 0.27394 0.13333 0.92359 0.0
C367 C 0.32874 0.1828 0.92254 0.0
N368 N 0.31088 0.19686 0.93756 0.0
C369 C 0.34533 0.24994 0.94606 0.0
C370 C 0.36368 0.2362 0.92989 0.0
C371 C 0.35538 0.20244 0.91818 0.0
C372 C 0.31892 0.22916 0.94947 0.0
H373 H 0.32285 0.15675 0.91415 0.0
C374 C 0.25477 0.11173 0.90353 0.0
O375 O 0.18547 0.13888 0.85457 0.0
O376 O 0.22935 0.15425 0.84153 0.0
N377 N 0.2752 0.21881 0.96801 0.0
C378 C 0.25543 0.22826 0.98367 0.0
C379 C 0.26082 0.26122 0.99737 0.0
C380 C 0.28654 0.28416 0.99498 0.0
C381 C 0.30665 0.27395 0.97885 0.0
C382 C 0.30004 0.2408 0.96556 0.0
H383 H 0.23577 0.21082 0.98588 0.0
O384 O 0.22263 0.20842 0.88023 0.0
O385 O 0.25646 0.18769 0.9058 0.0
O386 O 0.20172 0.16317 0.92268 0.0
O387 O 0.23614 0.15414 0.96009 0.0
C388 C 0.33304 0.29536 0.97558 0.0
C389 C 0.35237 0.28335 0.9592 0.0
H390 H 0.38434 0.25125 0.92665 0.0
H391 H 0.36957 0.19151 0.90604 0.0
H392 H 0.24522 0.26891 1.00984 0.0
H393 H 0.29067 0.30952 1.0057 0.0
H394 H 0.33874 0.32109 0.98568 0.0
H395 H 0.37266 0.29999 0.95699 0.0
Mn396 Mn 0.36656 0.96328 0.0598 0.0
Mn397 Mn 0.3706 0.0231 1.00921 0.0
C398 C 0.41223 0.99318 0.05068 0.0
C399 C 0.36503 0.94484 0.11225 0.0
C400 C 0.34999 0.94929 0.98496 0.0
O401 O 0.32691 0.97638 0.05761 0.0
O402 O 0.33491 0.01908 0.02763 0.0
C403 C 0.37715 0.08325 0.05362 0.0
N404 N 0.38735 0.06635 0.03144 0.0
C405 C 0.42679 0.11349 0.03059 0.0
C406 C 0.41662 0.13147 0.05329 0.0
C407 C 0.39175 0.11624 0.06493 0.0
C408 C 0.41126 0.08076 0.02009 0.0
H409 H 0.35791 0.07173 0.06243 0.0
C410 C 0.31971 1.00138 0.04515 0.0
O411 O 0.355 0.92509 0.08594 0.0
O412 O 0.37557 0.97558 0.10831 0.0
N413 N 0.40463 0.02973 0.99047 0.0
C414 C 0.41272 1.00821 0.97037 0.0
C415 C 0.43801 0.01901 0.95783 0.0
C416 C 0.45452 0.05189 0.96578 0.0
C417 C 0.44574 0.07358 0.98648 0.0
C418 C 0.42044 0.06135 0.99841 0.0
H419 H 0.40015 0.98292 0.96416 0.0
O420 O 0.40915 0.96406 0.06082 0.0
O421 O 0.3886 1.00351 0.04567 0.0
O422 O 0.35496 0.93857 1.01251 0.0
O423 O 0.35335 0.98018 0.9822 0.0
C424 C 0.46142 0.10665 0.99629 0.0
C425 C 0.45192 0.12662 1.01827 0.0
H426 H 0.42783 0.15692 0.0621 0.0
H427 H 0.38379 0.12994 0.08248 0.0
H428 H 0.44481 1.00201 0.94215 0.0
H429 H 0.47412 0.06008 0.95621 0.0
H430 H 0.48105 0.11684 0.98742 0.0
H431 H 0.46434 0.1519 0.02587 0.0
Mn432 Mn 0.37182 0.45084 0.06721 0.0
Mn433 Mn 0.37636 0.51396 1.01918 0.0
C434 C 0.4183 0.48555 0.06304 0.0
C435 C 0.36179 0.42636 0.11674 0.0
C436 C 0.36032 0.44132 0.99316 0.0
O437 O 0.33062 0.4595 0.05819 0.0
O438 O 0.34004 0.50784 0.03585 0.0
C439 C 0.38032 0.57339 0.06333 0.0
N440 N 0.39154 0.55729 0.04157 0.0
C441 C 0.42789 0.60684 0.03857 0.0
C442 C 0.41687 0.62391 0.06115 0.0
C443 C 0.39303 0.6071 0.07363 0.0
C444 C 0.41439 0.57328 0.02929 0.0
H445 H 0.36161 0.56066 0.07242 0.0
C446 C 0.32342 0.48524 0.04765 0.0
O447 O 0.35687 0.40949 0.08894 0.0
O448 O 0.3734 0.45781 0.11646 0.0
N449 N 0.41065 0.52234 1.00096 0.0
C450 C 0.41933 0.50192 0.98031 0.0
C451 C 0.44331 0.51462 0.96624 0.0
C452 C 0.45784 0.54827 0.97316 0.0
C453 C 0.44842 0.56887 0.99429 0.0
C454 C 0.42446 0.55476 1.00772 0.0
H455 H 0.40809 0.47618 0.97449 0.0
O456 O 0.41602 0.45665 0.07375 0.0
O457 O 0.39375 0.49366 0.05602 0.0
O458 O 0.36679 0.42955 0.01974 0.0
O459 O 0.36034 0.47169 0.99167 0.0
C460 C 0.46209 0.60274 1.00289 0.0
C461 C 0.45185 0.62171 0.02503 0.0
H462 H 0.42653 0.64993 0.06906 0.0
H463 H 0.38428 0.62019 0.0909 0.0
H464 H 0.45045 0.49856 0.94995 0.0
H465 H 0.47628 0.55798 0.96226 0.0
H466 H 0.48071 0.61434 0.99292 0.0
H467 H 0.46272 0.64765 0.0317 0.0
Mn468 Mn 0.8074 0.2603 0.04242 0.0
Mn469 Mn 0.78526 0.19603 0.98246 0.0
C470 C 0.75771 0.23043 0.02814 0.0
C471 C 0.82352 0.28415 0.09894 0.0
C472 C 0.80594 0.26777 0.96976 0.0
O473 O 0.84512 0.24469 0.0381 0.0
O474 O 0.82563 0.19784 1.00334 0.0
C475 C 0.78455 0.13487 1.0137 0.0
N476 N 0.76997 0.15388 0.99594 0.0
C477 C 0.72807 0.10794 0.97962 0.0
C478 C 0.74254 0.08801 0.9981 0.0
C479 C 0.77084 0.10157 1.01529 0.0
C480 C 0.74263 0.14108 0.97935 0.0
H481 H 0.80674 0.14485 0.02584 0.0
C482 C 0.84704 0.21797 0.02211 0.0
O483 O 0.82805 0.30085 0.07489 0.0
O484 O 0.81109 0.25294 0.09048 0.0
N485 N 0.74659 0.19246 0.95999 0.0
C486 C 0.73667 0.21398 0.94081 0.0
C487 C 0.70882 0.20416 0.92173 0.0
C488 C 0.69169 0.17203 0.92188 0.0
C489 C 0.70257 0.15007 0.94121 0.0
C490 C 0.73026 0.16153 0.96034 0.0
H491 H 0.7499 0.23842 0.93981 0.0
O492 O 0.76517 0.26061 0.04214 0.0
O493 O 0.77926 0.21904 0.02192 0.0
O494 O 0.80773 0.28153 0.99824 0.0
O495 O 0.79975 0.2365 0.96355 0.0
C496 C 0.68741 0.11693 0.94144 0.0
C497 C 0.70019 0.09584 0.96054 0.0
H498 H 0.73232 0.06212 0.99883 0.0
H499 H 0.78233 0.08615 0.02912 0.0
H500 H 0.70078 0.22113 0.90655 0.0
H501 H 0.67043 0.1643 0.90665 0.0
H502 H 0.66613 0.10725 0.92662 0.0
H503 H 0.68855 0.07022 0.96003 0.0
Mn504 Mn 0.17122 0.51332 0.23718 0.0
Mn505 Mn 0.22461 0.54079 0.30223 0.0
C506 C 0.18668 0.56815 0.2565 0.0
C507 C 0.15076 0.50782 0.18321 0.0
C508 C 0.16242 0.51331 0.30623 0.0
O509 O 0.19116 0.47447 0.23908 0.0
O510 O 0.22088 0.4948 0.28644 0.0
C511 C 0.27422 0.53715 0.27041 0.0
N512 N 0.26084 0.5549 0.28839 0.0
C513 C 0.3035 0.60011 0.30102 0.0
C514 C 0.31775 0.58223 0.28277 0.0
C515 C 0.30291 0.55077 0.26709 0.0
C516 C 0.27452 0.58576 0.3025 0.0
H517 H 0.26326 0.51265 0.25901 0.0
C518 C 0.21018 0.47212 0.26322 0.0
O519 O 0.13762 0.49088 0.20331 0.0
O520 O 0.17804 0.5222 0.19316 0.0
N521 N 0.23162 0.58571 0.32093 0.0
C522 C 0.21586 0.59858 0.34005 0.0
C523 C 0.22764 0.63002 0.35737 0.0
C524 C 0.25601 0.64731 0.35605 0.0
C525 C 0.27235 0.63297 0.33745 0.0
C526 C 0.25915 0.60199 0.31991 0.0
H527 H 0.19442 0.58496 0.34213 0.0
O528 O 0.16058 0.55663 0.24048 0.0
O529 O 0.20298 0.54757 0.26128 0.0
O530 O 0.15361 0.50196 0.27684 0.0
O531 O 0.18856 0.52824 0.31818 0.0
C532 C 0.30161 0.64763 0.33667 0.0
C533 C 0.31718 0.63119 0.31851 0.0
H534 H 0.34014 0.59231 0.28081 0.0
H535 H 0.31376 0.53674 0.25302 0.0
H536 H 0.21508 0.64061 0.37218 0.0
H537 H 0.26522 0.67127 0.36992 0.0
H538 H 0.31241 0.67147 0.35011 0.0
H539 H 0.33968 0.6427 0.31815 0.0
Mn540 Mn 0.87215 0.95131 0.56663 0.0
Mn541 Mn 0.8765 0.01585 0.52051 0.0
C542 C 0.91868 0.98639 0.56262 0.0
C543 C 0.86282 0.92597 0.61616 0.0
C544 C 0.8597 0.94359 0.49245 0.0
O545 O 0.83098 0.9603 0.55858 0.0
O546 O 0.84073 1.00994 0.53851 0.0
C547 C 0.8819 0.07516 0.5654 0.0
N548 N 0.89255 0.05893 0.54318 0.0
C549 C 0.92855 0.10843 0.53908 0.0
C550 C 0.9181 0.12564 0.5621 0.0
C551 C 0.89474 0.10891 0.57539 0.0
C552 C 0.91496 0.07484 0.53016 0.0
H553 H 0.86348 0.06255 0.57501 0.0
C554 C 0.82406 0.98684 0.54976 0.0
O555 O 0.85781 0.90948 0.58813 0.0
O556 O 0.87406 0.95753 0.61603 0.0
N557 N 0.91028 0.02396 0.50125 0.0
C558 C 0.91836 1.00354 0.48001 0.0
C559 C 0.94186 0.01618 0.46516 0.0
C560 C 0.9566 0.04978 0.47192 0.0
C561 C 0.94784 0.07036 0.49373 0.0
C562 C 0.92437 0.05629 0.50797 0.0
H563 H 0.90701 0.97784 0.47426 0.0
O564 O 0.91642 0.95716 0.57256 0.0
O565 O 0.89412 0.99458 0.55628 0.0
O566 O 0.86654 0.93088 0.51846 0.0
O567 O 0.85959 0.97408 0.49259 0.0
C568 C 0.96158 0.10424 0.50203 0.0
C569 C 0.95192 0.12327 0.52466 0.0
H570 H 0.92781 0.1517 0.56972 0.0
H571 H 0.88643 0.12211 0.59297 0.0
H572 H 0.94843 1.0001 0.44834 0.0
H573 H 0.97468 0.05949 0.46033 0.0
H574 H 0.97973 0.11584 0.49133 0.0
H575 H 0.96278 0.14926 0.53097 0.0
Mn576 Mn 0.94468 0.04897 0.19995 0.0
Mn577 Mn 0.89196 0.05246 0.24019 0.0
C578 C 0.91181 0.99904 0.20324 0.0
C579 C 0.97047 0.06428 0.15912 0.0
C580 C 0.95517 0.065 0.26714 0.0
O581 O 0.94391 0.09837 0.2103 0.0
O582 O 0.8967 0.08795 0.21213 0.0
C583 C 0.83705 0.04355 0.19399 0.0
N584 N 0.85245 0.03461 0.22028 0.0
C585 C 0.80879 1.00504 0.23612 0.0
C586 C 0.79242 1.01359 0.209 0.0
C587 C 0.80663 0.03266 0.18768 0.0
C588 C 0.83902 0.01578 0.24063 0.0
H589 H 0.84791 0.05945 0.17842 0.0
C590 C 0.92072 0.10819 0.2115 0.0
O591 O 0.98296 0.06317 0.18797 0.0
O592 O 0.94214 0.05461 0.15262 0.0
N593 N 0.88546 0.01849 0.26831 0.0
C594 C 0.90439 1.01014 0.29205 0.0
C595 C 0.89375 0.99041 0.31495 0.0
C596 C 0.86375 0.98031 0.31391 0.0
C597 C 0.84463 0.98886 0.28912 0.0
C598 C 0.85652 1.00762 0.26635 0.0
H599 H 0.9274 0.01837 0.29377 0.0
O600 O 0.93588 0.99894 0.19305 0.0
O601 O 0.90613 0.02785 0.20716 0.0
O602 O 0.95977 0.04598 0.24562 0.0
O603 O 0.93119 0.07305 0.2659 0.0
C604 C 0.81421 0.97917 0.28588 0.0
C605 C 0.7963 0.98685 0.25918 0.0
H606 H 0.76894 1.00587 0.20443 0.0
H607 H 0.79411 0.03965 0.1669 0.0
H608 H 0.90869 0.9835 0.33367 0.0
H609 H 0.85562 0.96549 0.3319 0.0
H610 H 0.80435 0.96515 0.30342 0.0
H611 H 0.77294 0.97868 0.25665 0.0
Mn612 Mn 0.30654 0.76037 0.54282 0.0
Mn613 Mn 0.28299 0.69569 0.48292 0.0
C614 C 0.25686 0.73034 0.52908 0.0
C615 C 0.32271 0.78436 0.59956 0.0
C616 C 0.30279 0.76725 0.46929 0.0
O617 O 0.34403 0.74433 0.53838 0.0
O618 O 0.32415 0.69898 0.50177 0.0
C619 C 0.28532 0.63545 0.51495 0.0
N620 N 0.2695 0.6537 0.49773 0.0
C621 C 0.22773 0.60719 0.48491 0.0
C622 C 0.24349 0.58806 0.50291 0.0
C623 C 0.27237 0.60228 0.51803 0.0
C624 C 0.24164 0.64023 0.48302 0.0
H625 H 0.30785 0.64594 0.52555 0.0
C626 C 0.34575 0.71838 0.52098 0.0
O627 O 0.32754 0.80106 0.57557 0.0
O628 O 0.31005 0.75326 0.59089 0.0
N629 N 0.24346 0.69083 0.46259 0.0
C630 C 0.23199 0.71178 0.444 0.0
C631 C 0.20341 0.70122 0.42681 0.0
C632 C 0.18708 0.669 0.42836 0.0
C633 C 0.19945 0.64775 0.44729 0.0
C634 C 0.22787 0.6599 0.46442 0.0
H635 H 0.24456 0.73633 0.44207 0.0
O636 O 0.26421 0.76072 0.54259 0.0
O637 O 0.27834 0.71902 0.52274 0.0
O638 O 0.30688 0.78113 0.49823 0.0
O639 O 0.29533 0.73599 0.46289 0.0
C640 C 0.18494 0.61472 0.44921 0.0
C641 C 0.1991 0.59442 0.46791 0.0
H642 H 0.2338 0.56228 0.50484 0.0
H643 H 0.28482 0.58746 0.53147 0.0
H644 H 0.19415 0.71771 0.41204 0.0
H645 H 0.16519 0.66072 0.41465 0.0
H646 H 0.16304 0.60456 0.43603 0.0
H647 H 0.18789 0.56887 0.46872 0.0
Mn648 Mn 0.44307 0.55212 0.69953 0.0
Mn649 Mn 0.38942 0.55334 0.73844 0.0
C650 C 0.41189 0.50128 0.70292 0.0
C651 C 0.47087 0.56808 0.66039 0.0
C652 C 0.45269 0.57153 0.76535 0.0
O653 O 0.43925 0.60086 0.70769 0.0
O654 O 0.39182 0.58745 0.70892 0.0
C655 C 0.33386 0.53898 0.69244 0.0
N656 N 0.35035 0.53223 0.71915 0.0
C657 C 0.3082 0.50061 0.73635 0.0
C658 C 0.29075 0.50681 0.70878 0.0
C659 C 0.30367 0.52579 0.68657 0.0
C660 C 0.3382 0.51345 0.74035 0.0
H661 H 0.34366 0.55487 0.67618 0.0
C662 C 0.41506 0.6089 0.70776 0.0
O663 O 0.48202 0.56827 0.68992 0.0
O664 O 0.44273 0.55675 0.65217 0.0
N665 N 0.38543 0.52038 0.76788 0.0
C666 C 0.40545 0.51427 0.79193 0.0
C667 C 0.39619 0.49461 0.81551 0.0
C668 C 0.36642 0.48242 0.81491 0.0
C669 C 0.34621 0.48892 0.78996 0.0
C670 C 0.35678 0.50748 0.76637 0.0
H671 H 0.42831 0.52428 0.79347 0.0
O672 O 0.43667 0.50235 0.69393 0.0
O673 O 0.40476 0.52938 0.70577 0.0
O674 O 0.45673 0.5503 0.74561 0.0
O675 O 0.428 0.57786 0.76372 0.0
C676 C 0.31596 0.47747 0.78738 0.0
C677 C 0.29699 0.48279 0.76033 0.0
H678 H 0.2674 0.49734 0.70455 0.0
H679 H 0.29029 0.53098 0.66543 0.0
H680 H 0.41197 0.48945 0.83449 0.0
H681 H 0.35933 0.46772 0.83346 0.0
H682 H 0.30709 0.46373 0.80565 0.0
H683 H 0.27382 0.47309 0.75824 0.0
Mn684 Mn 0.67262 0.01752 0.73785 0.0
Mn685 Mn 0.72177 0.04247 0.80486 0.0
C686 C 0.68526 0.07179 0.75954 0.0
C687 C 0.65611 1.01441 0.68286 0.0
C688 C 0.65992 0.01725 0.80588 0.0
O689 O 0.69557 0.98083 0.73863 0.0
O690 O 0.71052 0.99489 0.79052 0.0
C691 C 0.76756 0.03711 0.76571 0.0
N692 N 0.75845 0.05236 0.79007 0.0
C693 C 0.80346 0.09472 0.80081 0.0
C694 C 0.81432 0.07698 0.77869 0.0
C695 C 0.79597 0.04854 0.76038 0.0
C696 C 0.77487 0.082 0.805 0.0
H697 H 0.75327 0.01726 0.74939 0.0
C698 C 0.71149 0.97826 0.76512 0.0
O699 O 0.64121 0.99583 0.70065 0.0
O700 O 0.68244 0.02974 0.696 0.0
N701 N 0.73365 0.08728 0.8245 0.0
C702 C 0.72024 0.10167 0.84534 0.0
C703 C 0.73484 0.13201 0.86345 0.0
C704 C 0.76355 0.14669 0.86103 0.0
C705 C 0.77755 0.13052 0.84098 0.0
C706 C 0.76183 0.10028 0.82343 0.0
H707 H 0.69847 0.09006 0.84819 0.0
O708 O 0.65987 0.05956 0.74204 0.0
O709 O 0.70238 0.05207 0.76417 0.0
O710 O 0.65357 1.00354 0.77681 0.0
O711 O 0.68502 0.03479 0.81918 0.0
C712 C 0.80674 0.14284 0.83839 0.0
C713 C 0.81963 0.12507 0.81812 0.0
H714 H 0.8362 0.08584 0.77446 0.0
H715 H 0.80348 0.03584 0.7417 0.0
H716 H 0.72408 0.14389 0.87943 0.0
H717 H 0.77479 0.17006 0.87513 0.0
H718 H 0.81938 0.16615 0.85163 0.0
H719 H 0.84186 0.13523 0.81563 0.0
Mn720 Mn 0.79325 0.76372 0.03153 0.0
Mn721 Mn 0.77858 0.70441 0.96895 0.0
C722 C 0.74465 0.73199 1.01254 0.0
C723 C 0.80232 0.78027 0.08835 0.0
C724 C 0.79801 0.77819 0.96051 0.0
O725 O 0.83251 0.75124 0.03332 0.0
O726 O 0.81915 0.71107 0.99161 0.0
C727 C 0.7845 0.64468 1.00077 0.0
N728 N 0.76799 0.66083 0.98158 0.0
C729 C 0.72881 0.61178 0.96821 0.0
C730 C 0.74536 0.59461 0.98787 0.0
C731 C 0.77329 0.61117 1.00428 0.0
C732 C 0.74116 0.6451 0.96556 0.0
H733 H 0.80612 0.65716 1.01312 0.0
C734 C 0.83783 0.72837 1.01519 0.0
O735 O 0.80977 0.80103 0.06803 0.0
O736 O 0.79066 0.75001 0.07595 0.0
N737 N 0.73961 0.69567 0.94614 0.0
C738 C 0.72612 0.71631 0.92941 0.0
C739 C 0.69755 0.70403 0.91261 0.0
C740 C 0.68328 0.67066 0.91307 0.0
C741 C 0.69763 0.64996 0.93063 0.0
C742 C 0.726 0.66366 0.94706 0.0
H743 H 0.73712 0.74191 0.92888 0.0
O744 O 0.75013 0.76234 0.02577 0.0
O745 O 0.76777 0.72275 1.00771 0.0
O746 O 0.79982 0.78898 0.9901 0.0
O747 O 0.78948 0.74727 0.95107 0.0
C748 C 0.68487 0.61633 0.9326 0.0
C749 C 0.70048 0.59722 0.9513 0.0
H750 H 0.73681 0.56875 0.9906 0.0
H751 H 0.78622 0.59808 0.01944 0.0
H752 H 0.6866 0.7202 0.89922 0.0
H753 H 0.66128 0.66123 0.89997 0.0
H754 H 0.663 0.60495 0.91996 0.0
H755 H 0.6904 0.57144 0.95273 0.0
Mn756 Mn 0.99638 0.70987 0.84783 0.0
Mn757 Mn 0.94878 0.69612 0.89774 0.0
C758 C 0.97822 0.65803 0.86017 0.0
C759 C 1.00904 0.70682 0.79783 0.0
C760 C 1.01385 0.71726 0.91901 0.0
O761 O 0.97754 0.74838 0.84218 0.0
O762 O 0.95202 0.74121 0.8824 0.0
C763 C 0.89316 0.69653 0.85507 0.0
N764 N 0.91029 0.67983 0.87268 0.0
C765 C 0.87232 0.62928 0.86054 0.0
C766 C 0.85492 0.64582 0.84132 0.0
C767 C 0.86531 0.67967 0.8388 0.0
C768 C 0.9001 0.64729 0.87584 0.0
H769 H 0.90025 0.72263 0.85393 0.0
C770 C 0.95866 0.75527 0.85767 0.0
O771 O 0.02677 0.72516 0.82211 0.0
O772 O 0.98297 0.69367 0.80177 0.0
N773 N 0.94289 0.65286 0.91224 0.0
C774 C 0.95886 0.64261 0.93727 0.0
C775 C 0.95115 0.60963 0.94412 0.0
C776 C 0.9258 0.58805 0.92655 0.0
C777 C 0.90802 0.60009 0.9031 0.0
C778 C 0.91747 0.63298 0.89664 0.0
H779 H 0.97702 0.65977 0.95231 0.0
O780 O 1.00449 0.66614 0.85468 0.0
O781 O 0.96511 0.68168 0.86229 0.0
O782 O 1.01926 0.72791 0.89285 0.0
O783 O 0.98808 0.70885 0.92462 0.0
C784 C 0.88067 0.58121 0.88702 0.0
C785 C 0.86271 0.59591 0.86599 0.0
H786 H 0.83326 0.63298 0.82908 0.0
H787 H 0.85171 0.6929 0.82472 0.0
H788 H 0.96432 0.60109 0.96338 0.0
H789 H 0.91953 0.56276 0.9323 0.0
H790 H 0.87286 0.55569 0.8914 0.0
H791 H 0.84135 0.58141 0.85444 0.0
Mn792 Mn 0.86647 0.4616 0.55885 0.0
Mn793 Mn 0.87289 0.52342 0.5105 0.0
C794 C 0.91262 0.48963 0.54989 0.0
C795 C 0.86452 0.44278 0.6111 0.0
C796 C 0.85115 0.45026 0.48343 0.0
O797 O 0.8279 0.47639 0.55778 0.0
O798 O 0.83614 0.51865 0.52738 0.0
C799 C 0.8796 0.58011 0.55933 0.0
N800 N 0.88968 0.56522 0.53566 0.0
C801 C 0.93087 0.61173 0.54011 0.0
C802 C 0.92078 0.6277 0.56432 0.0
C803 C 0.89511 0.61175 0.57407 0.0
C804 C 0.91453 0.58019 0.52635 0.0
H805 H 0.85989 0.56795 0.5669 0.0
C806 C 0.82078 0.50111 0.54487 0.0
O807 O 0.85339 0.42348 0.58465 0.0
O808 O 0.87655 0.47313 0.60738 0.0
N809 N 0.90758 0.53143 0.49291 0.0
C810 C 0.91535 0.5118 0.47071 0.0
C811 C 0.94087 0.52377 0.45894 0.0
C812 C 0.95804 0.55587 0.46991 0.0
C813 C 0.94959 0.57564 0.49271 0.0
C814 C 0.92384 0.56244 0.50346 0.0
H815 H 0.90236 0.48708 0.46223 0.0
O816 O 0.90844 0.46008 0.55912 0.0
O817 O 0.88975 0.50141 0.54566 0.0
O818 O 0.85365 0.43846 0.51077 0.0
O819 O 0.85638 0.48151 0.48153 0.0
C820 C 0.96601 0.60768 0.50567 0.0
C821 C 0.95673 0.62565 0.52945 0.0
H822 H 0.9327 0.65208 0.57578 0.0
H823 H 0.88729 0.62383 0.59287 0.0
H824 H 0.94738 0.50823 0.44157 0.0
H825 H 0.97789 0.5649 0.46102 0.0
H826 H 0.98607 0.6185 0.49791 0.0
H827 H 0.9698 0.65002 0.53962 0.0
Mn828 Mn 0.71996 0.6611 0.38239 0.0
Mn829 Mn 0.77173 0.67335 0.44651 0.0
C830 C 0.74821 0.71399 0.39686 0.0
C831 C 0.70379 0.64503 0.32991 0.0
C832 C 0.707 0.65099 0.44654 0.0
O833 O 0.72816 0.61582 0.38758 0.0
O834 O 0.77036 0.62977 0.42326 0.0
C835 C 0.82674 0.67677 0.42315 0.0
N836 N 0.80957 0.692 0.43817 0.0
C837 C 0.84587 0.7437 0.44744 0.0
C838 C 0.86367 0.72876 0.43149 0.0
C839 C 0.8541 0.6951 0.41942 0.0
C840 C 0.81886 0.72413 0.45057 0.0
H841 H 0.81949 0.65094 0.41369 0.0
C842 C 0.75196 0.60996 0.40099 0.0
O843 O 0.68612 0.64127 0.34998 0.0
O844 O 0.73107 0.65942 0.34008 0.0
N845 N 0.77466 0.71629 0.46795 0.0
C846 C 0.75469 0.72726 0.48208 0.0
C847 C 0.76092 0.76049 0.49527 0.0
C848 C 0.78756 0.78217 0.49371 0.0
C849 C 0.80772 0.77044 0.47884 0.0
C850 C 0.80032 0.73706 0.46614 0.0
H851 H 0.73412 0.71084 0.48315 0.0
O852 O 0.72166 0.70935 0.38146 0.0
O853 O 0.7553 0.68727 0.40595 0.0
O854 O 0.69926 0.65922 0.41923 0.0
O855 O 0.73353 0.65347 0.45897 0.0
C856 C 0.83475 0.79065 0.47588 0.0
C857 C 0.85384 0.77727 0.46025 0.0
H858 H 0.88475 0.74285 0.42846 0.0
H859 H 0.86775 0.68334 0.4072 0.0
H860 H 0.74516 0.76942 0.50652 0.0
H861 H 0.79225 0.8078 0.50385 0.0
H862 H 0.84106 0.81656 0.48548 0.0
H863 H 0.87456 0.79304 0.45814 0.0
Pr864 Pr 0.05334 0.0902 0.0205 0.0
Pr865 Pr 0.11478 0.12788 0.06897 0.0
C866 C 0.99605 0.08532 1.00199 0.0
C867 C 0.9776 0.10945 1.00544 0.0
C868 C 0.95824 0.11502 0.979 0.0
C869 C 0.93976 0.13626 0.98261 0.0
C870 C 0.94001 0.15257 1.01286 0.0
C871 C 0.96008 0.1477 0.03909 0.0
C872 C 0.97859 0.12663 0.03544 0.0
C873 C 0.10329 0.10409 0.9943 0.0
C874 C 0.0776 0.17607 0.03006 0.0
C875 C 0.17188 0.12982 0.08708 0.0
C876 C 0.18942 0.10444 0.08427 0.0
C877 C 0.21268 0.10323 0.10869 0.0
C878 C 0.23127 0.08216 0.1043 0.0
C879 C 0.22726 0.06201 0.0752 0.0
C880 C 0.20319 0.06212 0.05142 0.0
C881 C 0.18447 0.08274 0.05595 0.0
C882 C 0.06478 0.11471 0.09526 0.0
C883 C 0.08992 0.04176 0.05822 0.0
O884 O 1.00714 0.07496 0.02845 0.0
O885 O 1.01415 0.09049 0.98192 0.0
O886 O 0.09662 0.121 1.01601 0.0
O887 O 0.08167 0.07847 0.98204 0.0
O888 O 0.10341 0.17629 0.04773 0.0
O889 O 0.0568 0.14821 0.02231 0.0
O890 O 0.16084 0.13932 0.0602 0.0
O891 O 0.15405 0.1268 0.10749 0.0
O892 O 0.07119 0.09716 0.07373 0.0
O893 O 0.08669 0.14025 0.10711 0.0
O894 O 0.06503 0.0416 0.03895 0.0
O895 O 0.11004 0.06966 0.06881 0.0
H896 H 0.95701 0.10242 0.95555 0.0
H897 H 0.92461 0.13903 0.96177 0.0
H898 H 0.96153 0.16018 0.06263 0.0
H899 H 0.99349 0.12353 0.05637 0.0
H900 H 0.21713 0.11948 0.13079 0.0
H901 H 0.24967 0.08293 0.12304 0.0
H902 H 0.19931 0.04685 0.02878 0.0
H903 H 0.16663 0.0825 0.03667 0.0
Pr904 Pr 0.3395 0.89094 0.30964 0.0
Pr905 Pr 0.33864 0.83627 0.2818 0.0
C906 C 0.35768 0.95319 0.33513 0.0
C907 C 0.37037 0.98084 0.31916 0.0
C908 C 0.36058 1.00973 0.321 0.0
C909 C 0.37564 0.0377 0.30979 0.0
C910 C 0.401 0.03679 0.2979 0.0
C911 C 0.40769 1.00654 0.29104 0.0
C912 C 0.39253 0.97853 0.30198 0.0
C913 C 0.28438 0.87166 0.27009 0.0
C914 C 0.359 0.89288 0.23727 0.0
C915 C 0.32501 0.77409 0.25561 0.0
C916 C 0.30616 0.74646 0.26587 0.0
C917 C 0.31405 0.71645 0.26691 0.0
C918 C 0.29408 0.68879 0.27218 0.0
C919 C 0.266 0.69112 0.27551 0.0
C920 C 0.25984 0.72217 0.27928 0.0
C921 C 0.28006 0.74996 0.27464 0.0
C922 C 0.39284 0.85555 0.32242 0.0
C923 C 0.31713 0.83432 0.35278 0.0
O924 O 0.37348 0.93179 0.34019 0.0
O925 O 0.33017 0.93984 0.32444 0.0
O926 O 0.30789 0.869 0.2617 0.0
O927 O 0.28859 0.88052 0.30073 0.0
O928 O 0.35255 0.86075 0.2375 0.0
O929 O 0.3583 0.91109 0.26357 0.0
O930 O 0.31213 0.79614 0.24391 0.0
O931 O 0.34926 0.78657 0.27552 0.0
O932 O 0.36892 0.85718 0.33009 0.0
O933 O 0.38972 0.84873 0.29164 0.0
O934 O 0.32791 0.86625 0.3548 0.0
O935 O 0.31444 0.8169 0.32478 0.0
H936 H 0.34276 1.01131 0.33308 0.0
H937 H 0.36986 0.06091 0.31461 0.0
H938 H 0.42697 1.00552 0.28142 0.0
H939 H 0.39978 0.95593 0.29922 0.0
H940 H 0.33478 0.71402 0.26167 0.0
H941 H 0.29955 0.66509 0.27012 0.0
H942 H 0.23858 0.72472 0.28243 0.0
H943 H 0.27437 0.77367 0.27558 0.0
Pr944 Pr 0.61943 0.12049 0.54316 0.0
Pr945 Pr 0.55563 0.11135 0.55358 0.0
C946 C 0.67279 0.11294 0.53859 0.0
C947 C 0.68987 0.08756 0.53966 0.0
C948 C 0.70813 0.08638 0.51736 0.0
C949 C 0.72621 0.06436 0.51924 0.0
C950 C 0.72659 0.04335 0.54369 0.0
C951 C 0.70775 0.04384 0.56549 0.0
C952 C 0.6893 0.06552 0.56329 0.0
C953 C 0.58674 0.15148 0.50058 0.0
C954 C 0.57052 0.0472 0.51889 0.0
C955 C 0.50177 0.11688 0.55892 0.0
C956 C 0.48252 0.1401 0.55518 0.0
C957 C 0.4698 0.14904 0.58082 0.0
C958 C 0.44911 0.16806 0.57646 0.0
C959 C 0.4409 0.17863 0.54637 0.0
C960 C 0.4549 0.17109 0.52133 0.0
C961 C 0.47498 0.15162 0.52551 0.0
C962 C 0.58948 0.07985 0.59507 0.0
C963 C 0.60367 0.18428 0.57839 0.0
O964 O 0.66598 0.12313 0.56542 0.0
O965 O 0.65211 0.11004 0.51365 0.0
O966 O 0.57712 0.12358 0.5101 0.0
O967 O 0.61452 0.1624 0.51023 0.0
O968 O 0.54895 0.06125 0.52166 0.0
O969 O 0.59793 0.06368 0.52819 0.0
O970 O 0.50808 0.10402 0.53285 0.0
O971 O 0.52355 0.1238 0.58319 0.0
O972 O 0.59815 0.10838 0.58654 0.0
O973 O 0.5618 0.06841 0.58494 0.0
O974 O 0.62532 0.17027 0.57571 0.0
O975 O 0.57627 0.16838 0.56816 0.0
H976 H 0.70893 0.10311 0.49893 0.0
H977 H 0.74076 0.06467 0.50236 0.0
H978 H 0.70762 0.02778 0.58448 0.0
H979 H 0.67514 0.06558 0.5805 0.0
H980 H 0.47507 0.14028 0.60392 0.0
H981 H 0.43863 0.17312 0.59619 0.0
H982 H 0.4496 0.17928 0.49797 0.0
H983 H 0.48376 0.14466 0.50507 0.0
Pr984 Pr 0.30211 0.35893 0.78838 0.0
Pr985 Pr 0.36126 0.34138 0.79875 0.0
C986 C 0.24626 0.36038 0.78552 0.0
C987 C 0.22671 0.3617 0.80877 0.0
C988 C 0.21146 0.38662 0.8086 0.0
C989 C 0.19242 0.38794 0.82987 0.0
C990 C 0.18831 0.36445 0.85207 0.0
C991 C 0.20425 0.34001 0.85273 0.0
C992 C 0.2231 0.33856 0.83125 0.0
C993 C 0.34599 0.40458 0.76782 0.0
C994 C 0.34426 0.38372 0.86056 0.0
C995 C 0.41762 0.34133 0.80514 0.0
C996 C 0.43951 0.3446 0.78455 0.0
C997 C 0.46286 0.32988 0.79185 0.0
C998 C 0.48428 0.33348 0.773 0.0
C999 C 0.48244 0.35163 0.74646 0.0
C1000 C 0.45866 0.3657 0.73872 0.0
C1001 C 0.43731 0.3622 0.75762 0.0
C1002 C 0.31817 0.29654 0.82074 0.0
C1003 C 0.31886 0.31902 0.7259 0.0
O1004 O 0.25453 0.33277 0.78106 0.0
O1005 O 0.26696 0.38713 0.78611 0.0
O1006 O 0.34225 0.37375 0.76474 0.0
O1007 O 0.32491 0.41259 0.77929 0.0
O1008 O 0.36545 0.37502 0.84826 0.0
O1009 O 0.31785 0.37809 0.84317 0.0
O1010 O 0.40861 0.36801 0.81164 0.0
O1011 O 0.39681 0.31404 0.79915 0.0
O1012 O 0.32213 0.32747 0.82322 0.0
O1013 O 0.33757 0.28736 0.80674 0.0
O1014 O 0.29721 0.3245 0.73949 0.0
O1015 O 0.34577 0.32662 0.74262 0.0
H1016 H 0.21394 0.40485 0.79162 0.0
H1017 H 0.18028 0.40684 0.82815 0.0
H1018 H 0.20205 0.32181 0.86974 0.0
H1019 H 0.23457 0.31908 0.83206 0.0
H1020 H 0.46457 0.31572 0.8122 0.0
H1021 H 0.50212 0.32183 0.77893 0.0
H1022 H 0.45676 0.37967 0.71822 0.0
H1023 H 0.41915 0.37323 0.75125 0.0
Pr1024 Pr 0.08441 0.0945 0.51826 0.0
Pr1025 Pr 0.08263 0.12626 0.56942 0.0
C1026 C 0.07112 0.0656 0.45886 0.0
C1027 C 0.06405 0.0817 0.43053 0.0
C1028 C 0.07916 0.07999 0.40544 0.0
C1029 C 0.0702 0.0924 0.37707 0.0
C1030 C 0.04585 0.10582 0.37391 0.0
C1031 C 0.03408 0.11263 0.40068 0.0
C1032 C 0.04272 0.09994 0.42881 0.0
C1033 C 0.13954 0.1393 0.53552 0.0
C1034 C 0.06364 0.16688 0.51176 0.0
C1035 C 0.09682 0.15826 0.62807 0.0
C1036 C 0.11165 0.14748 0.65625 0.0
C1037 C 0.10195 0.15027 0.68512 0.0
C1038 C 0.11551 0.1385 0.7117 0.0
C1039 C 0.13869 0.12379 0.70928 0.0
C1040 C 0.1474 0.11961 0.67997 0.0
C1041 C 0.13404 0.13155 0.65357 0.0
C1042 C 0.02752 0.08134 0.55168 0.0
C1043 C 0.10305 0.05451 0.57704 0.0
O1044 O 0.05215 0.06254 0.47777 0.0
O1045 O 0.09801 0.07553 0.47381 0.0
O1046 O 0.11527 0.14634 0.53591 0.0
O1047 O 0.13569 0.10746 0.52926 0.0
O1048 O 0.06881 0.16876 0.54295 0.0
O1049 O 0.06611 0.13956 0.49587 0.0
O1050 O 0.11246 0.16564 0.60617 0.0
O1051 O 0.07079 0.14001 0.61675 0.0
O1052 O 0.0517 0.07423 0.55111 0.0
O1053 O 0.03139 0.11314 0.55846 0.0
O1054 O 0.09498 0.05048 0.54589 0.0
O1055 O 0.10344 0.0835 0.59204 0.0
H1056 H 0.0964 0.0671 0.407 0.0
H1057 H 0.07934 0.08705 0.35632 0.0
H1058 H 1.01517 0.12289 0.39847 0.0
H1059 H 0.03118 0.10244 0.44823 0.0
H1060 H 0.08428 0.16189 0.68716 0.0
H1061 H 0.10888 0.14243 0.73445 0.0
H1062 H 0.16526 0.10832 0.67786 0.0
H1063 H 0.14158 0.1287 0.63122 0.0
Pr1064 Pr 0.32272 0.8287 0.80104 0.0
Pr1065 Pr 0.34536 0.89689 0.78713 0.0
C1066 C 0.3177 0.76295 0.798 0.0
C1067 C 0.33718 0.74446 0.78626 0.0
C1068 C 0.33844 0.71326 0.79601 0.0
C1069 C 0.35757 0.69631 0.78503 0.0
C1070 C 0.37557 0.7105 0.76423 0.0
C1071 C 0.37502 0.74219 0.75549 0.0
C1072 C 0.35614 0.75916 0.76662 0.0
C1073 C 0.32455 0.8682 0.85899 0.0
C1074 C 0.39181 0.86177 0.82639 0.0
C1075 C 0.35139 0.9628 0.78578 0.0
C1076 C 0.33804 0.98551 0.80309 0.0
C1077 C 0.33088 1.01272 0.78903 0.0
C1078 C 0.31586 0.03243 0.80411 0.0
C1079 C 0.30744 0.02519 0.83354 0.0
C1080 C 0.31465 0.9978 0.84751 0.0
C1081 C 0.32977 0.97824 0.83243 0.0
C1082 C 0.34611 0.85033 0.7345 0.0
C1083 C 0.27336 0.86568 0.76811 0.0
O1084 O 0.30273 0.77653 0.77655 0.0
O1085 O 0.32937 0.78295 0.82403 0.0
O1086 O 0.33224 0.8792 0.8338 0.0
O1087 O 0.31335 0.83648 0.85363 0.0
O1088 O 0.38481 0.89049 0.82554 0.0
O1089 O 0.37369 0.83558 0.80933 0.0
O1090 O 0.33325 0.94072 0.7644 0.0
O1091 O 0.37063 0.95031 0.80292 0.0
O1092 O 0.32648 0.8485 0.75144 0.0
O1093 O 0.36651 0.87725 0.7451 0.0
O1094 O 0.2771 0.83647 0.77596 0.0
O1095 O 0.29517 0.89223 0.77473 0.0
H1096 H 0.3244 0.70187 0.81169 0.0
H1097 H 0.35747 0.67164 0.79169 0.0
H1098 H 0.38865 0.75339 0.73935 0.0
H1099 H 0.35601 0.78359 0.75945 0.0
H1100 H 0.33649 0.01842 0.7661 0.0
H1101 H 0.31032 0.05297 0.79232 0.0
H1102 H 0.30886 0.99162 0.87025 0.0
H1103 H 0.3349 0.95718 0.84349 0.0
Pr1104 Pr 0.59578 0.10485 0.07791 0.0
Pr1105 Pr 0.57433 0.12663 1.01422 0.0
C1106 C 0.60452 0.10358 0.14151 0.0
C1107 C 0.58952 0.11769 0.16403 0.0
C1108 C 0.59776 0.11752 0.19703 0.0
C1109 C 0.58319 0.13143 0.218 0.0
C1110 C 0.56019 0.14565 0.20614 0.0
C1111 C 0.55178 0.14521 0.17296 0.0
C1112 C 0.56639 0.13143 0.15211 0.0
C1113 C 0.5914 0.0493 0.03328 0.0
C1114 C 0.52523 0.08058 0.04766 0.0
C1115 C 0.5659 0.13102 0.95095 0.0
C1116 C 0.57348 0.10981 0.92663 0.0
C1117 C 0.57578 0.11908 0.89601 0.0
C1118 C 0.58606 0.09951 0.87474 0.0
C1119 C 0.59359 0.07015 0.88376 0.0
C1120 C 0.59076 0.0611 0.91445 0.0
C1121 C 0.58191 0.08142 0.93587 0.0
C1122 C 0.57636 0.18085 0.05999 0.0
C1123 C 0.646 0.14527 0.04092 0.0
O1124 O 0.62131 0.12518 0.12759 0.0
O1125 O 0.58799 0.07881 0.12155 0.0
O1126 O 0.58521 0.07655 0.02616 0.0
O1127 O 0.60324 0.05224 0.06331 0.0
O1128 O 0.53165 0.08842 0.01984 0.0
O1129 O 0.54474 0.09036 0.07421 0.0
O1130 O 0.54508 0.11651 0.96531 0.0
O1131 O 0.58847 0.14898 0.97094 0.0
O1132 O 0.58326 0.1539 0.06638 0.0
O1133 O 0.56598 0.17869 0.0297 0.0
O1134 O 0.64114 0.13531 0.06875 0.0
O1135 O 0.62466 0.13975 1.01603 0.0
H1136 H 0.61553 0.10692 0.20653 0.0
H1137 H 0.59032 0.13167 0.24351 0.0
H1138 H 0.53389 0.15544 0.16309 0.0
H1139 H 0.55972 0.13169 0.12661 0.0
H1140 H 0.57061 0.14187 0.88901 0.0
H1141 H 0.58896 0.10797 0.85175 0.0
H1142 H 0.59615 0.03877 0.92243 0.0
H1143 H 0.5827 0.07585 0.96029 0.0
Pr1144 Pr 0.30335 0.32527 0.28021 0.0
Pr1145 Pr 0.36244 0.38927 0.30632 0.0
C1146 C 0.24986 0.2928 0.28738 0.0
C1147 C 0.22773 0.30281 0.30441 0.0
C1148 C 0.19939 0.3001 0.28775 0.0
C1149 C 0.17842 0.30971 0.30312 0.0
C1150 C 0.18503 0.32218 0.3358 0.0
C1151 C 0.21349 0.32514 0.35246 0.0
C1152 C 0.23457 0.31582 0.33697 0.0
C1153 C 0.32654 0.35627 0.22803 0.0
C1154 C 0.29875 0.40408 0.28789 0.0
C1155 C 0.4169 0.42378 0.30585 0.0
C1156 C 0.43875 0.41556 0.28792 0.0
C1157 C 0.46845 0.43002 0.29842 0.0
C1158 C 0.48912 0.4212 0.28206 0.0
C1159 C 0.48055 0.39767 0.25469 0.0
C1160 C 0.45065 0.38292 0.24464 0.0
C1161 C 0.43011 0.39159 0.26112 0.0
C1162 C 0.33672 0.3593 0.35715 0.0
C1163 C 0.36723 0.31019 0.29788 0.0
O1164 O 0.2737 0.28893 0.30493 0.0
O1165 O 0.25465 0.307 0.26162 0.0
O1166 O 0.33556 0.36314 0.2581 0.0
O1167 O 0.30508 0.3296 0.22421 0.0
O1168 O 0.32679 0.41793 0.29004 0.0
O1169 O 0.28861 0.37307 0.29278 0.0
O1170 O 0.39398 0.43054 0.28896 0.0
O1171 O 0.41043 0.40455 0.32797 0.0
O1172 O 0.33083 0.35172 0.32716 0.0
O1173 O 0.35715 0.38687 0.36216 0.0
O1174 O 0.33911 0.29657 0.29547 0.0
O1175 O 0.37752 0.34125 0.29288 0.0
H1176 H 0.19341 0.29047 0.26267 0.0
H1177 H 0.1568 0.3069 0.28942 0.0
H1178 H 0.21961 0.3352 0.37741 0.0
H1179 H 0.25628 0.31892 0.35056 0.0
H1180 H 0.47571 0.44804 0.31943 0.0
H1181 H 0.51184 0.43267 0.29111 0.0
H1182 H 0.44286 0.36506 0.22358 0.0
H1183 H 0.40738 0.37955 0.25282 0.0
Pr1184 Pr 0.58297 0.59375 1.01499 0.0
Pr1185 Pr 0.58186 0.62355 0.06715 0.0
C1186 C 0.57064 0.56463 0.95548 0.0
C1187 C 0.55903 0.57878 0.9274 0.0
C1188 C 0.57669 0.59009 0.90546 0.0
C1189 C 0.56589 0.60521 0.87962 0.0
C1190 C 0.53707 0.60827 0.87512 0.0
C1191 C 0.52037 0.59926 0.89858 0.0
C1192 C 0.53125 0.58469 0.92442 0.0
C1193 C 0.63835 0.63774 0.03298 0.0
C1194 C 0.56242 0.6657 1.00979 0.0
C1195 C 0.59479 0.65402 0.12631 0.0
C1196 C 0.60929 0.64246 0.15412 0.0
C1197 C 0.59963 0.64473 0.1831 0.0
C1198 C 0.61441 0.63438 0.20982 0.0
C1199 C 0.63869 0.62188 0.20722 0.0
C1200 C 0.6469 0.61721 0.17779 0.0
C1201 C 0.6322 0.62743 0.15122 0.0
C1202 C 0.52642 0.5797 0.04922 0.0
C1203 C 0.60079 0.5507 0.07213 0.0
O1204 O 0.55316 0.55748 0.9757 0.0
O1205 O 0.59716 0.57947 0.96922 0.0
O1206 O 0.61432 0.64505 0.03401 0.0
O1207 O 0.63427 0.6058 0.0271 0.0
O1208 O 0.56981 0.6676 0.04094 0.0
O1209 O 0.56245 0.63763 0.99324 0.0
O1210 O 0.61086 0.66234 0.10496 0.0
O1211 O 0.56892 0.63585 0.11423 0.0
O1212 O 0.55032 0.57234 0.04761 0.0
O1213 O 0.53068 0.61148 0.05649 0.0
O1214 O 0.59265 0.54887 0.04109 0.0
O1215 O 0.60219 0.57923 0.08879 0.0
H1216 H 0.5986 0.58682 0.90807 0.0
H1217 H 0.57929 0.61232 0.86198 0.0
H1218 H 0.49796 0.60075 0.89582 0.0
H1219 H 0.5175 0.57746 0.94164 0.0
H1220 H 0.58149 0.65551 0.18525 0.0
H1221 H 0.60832 0.63842 0.23287 0.0
H1222 H 0.66586 0.60788 0.17589 0.0
H1223 H 0.63963 0.62485 0.12877 0.0
Pr1224 Pr 0.8246 0.32315 0.30225 0.0
Pr1225 Pr 0.84722 0.39651 0.28811 0.0
C1226 C 0.8202 0.25785 0.30027 0.0
C1227 C 0.83951 0.2399 0.28754 0.0
C1228 C 0.84257 0.20961 0.29817 0.0
C1229 C 0.86248 0.1939 0.28732 0.0
C1230 C 0.87946 0.20832 0.26563 0.0
C1231 C 0.87686 0.23909 0.25576 0.0
C1232 C 0.85727 0.25492 0.2669 0.0
C1233 C 0.82522 0.36572 0.35827 0.0
C1234 C 0.89437 0.3598 0.3265 0.0
C1235 C 0.85276 0.4624 0.29124 0.0
C1236 C 0.83735 0.48313 0.30752 0.0
C1237 C 0.84185 0.51702 0.30401 0.0
C1238 C 0.82601 0.53615 0.31841 0.0
C1239 C 0.80574 0.52167 0.33683 0.0
C1240 C 0.80114 0.48764 0.34004 0.0
C1241 C 0.81651 0.46846 0.32511 0.0
C1242 C 0.84727 0.35463 0.23167 0.0
C1243 C 0.77657 0.35995 0.26639 0.0
O1244 O 0.8039 0.2706 0.2793 0.0
O1245 O 0.83276 0.27837 0.3258 0.0
O1246 O 0.83221 0.37411 0.33196 0.0
O1247 O 0.81445 0.33383 0.35459 0.0
O1248 O 0.88845 0.38896 0.32284 0.0
O1249 O 0.87558 0.33213 0.31302 0.0
O1250 O 0.87061 0.44904 0.30963 0.0
O1251 O 0.83633 0.44158 0.26752 0.0
O1252 O 0.83976 0.34517 0.2576 0.0
O1253 O 0.85829 0.38649 0.2365 0.0
O1254 O 0.78202 0.3306 0.27032 0.0
O1255 O 0.79627 0.38762 0.27807 0.0
H1256 H 0.82962 0.19818 0.3148 0.0
H1257 H 0.86399 0.17003 0.29513 0.0
H1258 H 0.88992 0.2508 0.23934 0.0
H1259 H 0.85606 0.279 0.25949 0.0
H1260 H 0.8574 0.5286 0.28998 0.0
H1261 H 0.82991 0.56236 0.31555 0.0
H1262 H 0.78531 0.4758 0.35365 0.0
H1263 H 0.81193 0.44206 0.32706 0.0
Pr1264 Pr 0.09686 0.60211 0.57874 0.0
Pr1265 Pr 0.07394 0.62265 0.51405 0.0
C1266 C 0.10575 0.60203 0.64249 0.0
C1267 C 0.09039 0.6159 0.66484 0.0
C1268 C 0.09869 0.61609 0.69788 0.0
C1269 C 0.08386 0.62976 0.71874 0.0
C1270 C 0.06048 0.64332 0.70675 0.0
C1271 C 0.05201 0.64252 0.6735 0.0
C1272 C 0.06694 0.62909 0.65275 0.0
C1273 C 0.09295 0.54685 0.53399 0.0
C1274 C 0.0264 0.57545 0.54837 0.0
C1275 C 0.06518 0.6264 0.45072 0.0
C1276 C 0.07448 0.60607 0.42719 0.0
C1277 C 0.07404 0.61326 0.39552 0.0
C1278 C 0.08551 0.59447 0.37479 0.0
C1279 C 0.09691 0.5679 0.38547 0.0
C1280 C 0.09675 0.5609 0.41722 0.0
C1281 C 0.08679 0.58065 0.43802 0.0
C1282 C 0.07514 0.67649 0.55942 0.0
C1283 C 0.14592 0.64326 0.54075 0.0
O1284 O 0.12207 0.62376 0.62823 0.0
O1285 O 0.08971 0.57667 0.62289 0.0
O1286 O 0.08634 0.57393 0.52727 0.0
O1287 O 0.10474 0.54961 0.56404 0.0
O1288 O 0.03246 0.58306 0.52035 0.0
O1289 O 0.0458 0.58635 0.57488 0.0
O1290 O 0.04492 0.61044 0.46501 0.0
O1291 O 0.08683 0.646 0.47072 0.0
O1292 O 0.08278 0.65002 0.5661 0.0
O1293 O 0.06321 0.67315 0.52945 0.0
O1294 O 0.14168 0.63261 0.56853 0.0
O1295 O 0.12432 0.63808 0.51612 0.0
H1296 H 0.11673 0.60598 0.70753 0.0
H1297 H 0.09111 0.63034 0.74428 0.0
H1298 H 0.03384 0.65223 0.6635 0.0
H1299 H 0.06025 0.62916 0.62722 0.0
H1300 H 0.0657 0.63384 0.3872 0.0
H1301 H 0.08616 0.60135 0.35081 0.0
H1302 H 0.10499 0.54062 0.42646 0.0
H1303 H 0.08947 0.57682 0.46305 0.0
Pr1304 Pr 0.79962 0.85944 0.28881 0.0
Pr1305 Pr 0.86184 0.84077 0.29914 0.0
C1306 C 0.7441 0.86213 0.2862 0.0
C1307 C 0.7247 0.86326 0.30957 0.0
C1308 C 0.71034 0.88893 0.3105 0.0
C1309 C 0.69173 0.89038 0.33221 0.0
C1310 C 0.68723 0.86629 0.35379 0.0
C1311 C 0.70229 0.84108 0.35331 0.0
C1312 C 0.72064 0.83947 0.33134 0.0
C1313 C 0.8449 0.90429 0.26934 0.0
C1314 C 0.84318 0.8805 0.36077 0.0
C1315 C 0.91766 0.84116 0.30127 0.0
C1316 C 0.93975 0.84534 0.2812 0.0
C1317 C 0.96329 0.83106 0.28897 0.0
C1318 C 0.98487 0.83487 0.27046 0.0
C1319 C 0.98297 0.85283 0.24384 0.0
C1320 C 0.95902 0.86654 0.23564 0.0
C1321 C 0.93746 0.86278 0.25422 0.0
C1322 C 0.82365 0.79764 0.32879 0.0
C1323 C 0.81683 0.81869 0.22647 0.0
O1324 O 0.75176 0.83427 0.28079 0.0
O1325 O 0.76527 0.8886 0.28763 0.0
O1326 O 0.84072 0.87339 0.2669 0.0
O1327 O 0.82356 0.91283 0.2799 0.0
O1328 O 0.86502 0.8749 0.34756 0.0
O1329 O 0.81636 0.87421 0.34425 0.0
O1330 O 0.9091 0.86775 0.30971 0.0
O1331 O 0.89668 0.81402 0.29383 0.0
O1332 O 0.81835 0.82082 0.31335 0.0
O1333 O 0.84926 0.79391 0.3266 0.0
O1334 O 0.79569 0.82781 0.23865 0.0
O1335 O 0.8433 0.8226 0.2438 0.0
H1336 H 0.71321 0.90769 0.29408 0.0
H1337 H 0.68023 0.90989 0.33135 0.0
H1338 H 0.69979 0.82239 0.36981 0.0
H1339 H 0.73142 0.81939 0.33127 0.0
H1340 H 0.96494 0.81694 0.30937 0.0
H1341 H 1.00282 0.82344 0.27664 0.0
H1342 H 0.95711 0.88026 0.21497 0.0
H1343 H 0.91905 0.87328 0.2475 0.0
Pr1344 Pr 0.84017 0.39115 0.8092 0.0
Pr1345 Pr 0.8387 0.33545 0.78154 0.0
C1346 C 0.85747 0.45371 0.83417 0.0
C1347 C 0.87128 0.48144 0.819 0.0
C1348 C 0.86112 0.51014 0.81943 0.0
C1349 C 0.87712 0.53832 0.80944 0.0
C1350 C 0.90388 0.53796 0.80062 0.0
C1351 C 0.91128 0.50788 0.79491 0.0
C1352 C 0.89495 0.47951 0.80417 0.0
C1353 C 0.78479 0.37138 0.77022 0.0
C1354 C 0.85835 0.39174 0.73645 0.0
C1355 C 0.82502 0.27272 0.75653 0.0
C1356 C 0.80833 0.24514 0.76935 0.0
C1357 C 0.81533 0.21457 0.76741 0.0
C1358 C 0.7959 0.18701 0.77411 0.0
C1359 C 0.76919 0.19021 0.78159 0.0
C1360 C 0.76475 0.22163 0.78875 0.0
C1361 C 0.78433 0.24912 0.78256 0.0
C1362 C 0.89303 0.35507 0.82217 0.0
C1363 C 0.81803 0.33483 0.85298 0.0
O1364 O 0.873 0.43233 0.84078 0.0
O1365 O 0.83031 0.44033 0.82174 0.0
O1366 O 0.80821 0.36867 0.76163 0.0
O1367 O 0.78926 0.38031 0.80084 0.0
O1368 O 0.8492 0.35973 0.73602 0.0
O1369 O 0.86086 0.41022 0.7637 0.0
O1370 O 0.81041 0.29388 0.74622 0.0
O1371 O 0.85045 0.28644 0.77371 0.0
O1372 O 0.86916 0.35713 0.82972 0.0
O1373 O 0.88982 0.3476 0.79144 0.0
O1374 O 0.82835 0.36685 0.85466 0.0
O1375 O 0.81563 0.31711 0.82528 0.0
H1376 H 0.84211 0.5114 0.82949 0.0
H1377 H 0.87057 0.56125 0.81282 0.0
H1378 H 0.93155 0.50717 0.78735 0.0
H1379 H 0.90229 0.45689 0.80209 0.0
H1380 H 0.83452 0.21166 0.75853 0.0
H1381 H 0.80016 0.16286 0.76969 0.0
H1382 H 0.74465 0.22488 0.79512 0.0
H1383 H 0.77913 0.27298 0.78523 0.0
Pr1384 Pr 0.80317 0.82704 0.77986 0.0
Pr1385 Pr 0.86288 0.88932 0.80689 0.0
C1386 C 0.74853 0.79644 0.78575 0.0
C1387 C 0.72661 0.80641 0.80327 0.0
C1388 C 0.6988 0.80613 0.78651 0.0
C1389 C 0.67799 0.81557 0.80232 0.0
C1390 C 0.68419 0.82547 0.83558 0.0
C1391 C 0.7121 0.82592 0.85238 0.0
C1392 C 0.73303 0.81675 0.83646 0.0
C1393 C 0.82817 0.85635 0.72819 0.0
C1394 C 0.80068 0.90754 0.78555 0.0
C1395 C 0.91682 0.92435 0.80545 0.0
C1396 C 0.93904 0.91702 0.78758 0.0
C1397 C 0.9684 0.9257 0.80227 0.0
C1398 C 0.98948 0.91725 0.78651 0.0
C1399 C 0.98177 0.89977 0.75558 0.0
C1400 C 0.95226 0.89104 0.74089 0.0
C1401 C 0.93112 0.89936 0.75679 0.0
C1402 C 0.83753 0.85971 0.85819 0.0
C1403 C 0.8667 0.81078 0.79798 0.0
O1404 O 0.77174 0.79052 0.80268 0.0
O1405 O 0.75429 0.81202 0.76106 0.0
O1406 O 0.83631 0.86388 0.75832 0.0
O1407 O 0.80715 0.82917 0.72417 0.0
O1408 O 0.82901 0.92052 0.79367 0.0
O1409 O 0.78822 0.87583 0.7846 0.0
O1410 O 0.8936 0.93064 0.78871 0.0
O1411 O 0.91098 0.90531 0.82792 0.0
O1412 O 0.82957 0.85319 0.82804 0.0
O1413 O 0.85954 0.88569 0.86287 0.0
O1414 O 0.83856 0.79796 0.79665 0.0
O1415 O 0.87702 0.84134 0.79174 0.0
H1416 H 0.69309 0.79852 0.76099 0.0
H1417 H 0.65679 0.81464 0.78844 0.0
H1418 H 0.71797 0.8339 0.87782 0.0
H1419 H 0.7543 0.81791 0.85022 0.0
H1420 H 0.97503 0.93888 0.82612 0.0
H1421 H 1.01196 0.92477 0.79854 0.0
H1422 H 0.94543 0.87722 0.71735 0.0
H1423 H 0.90853 0.89162 0.74514 0.0
Pr1424 Pr 0.55285 0.59075 0.52099 0.0
Pr1425 Pr 0.61529 0.62826 0.5687 0.0
C1426 C 0.49556 0.58661 0.50291 0.0
C1427 C 0.47736 0.61113 0.50494 0.0
C1428 C 0.4545 0.61136 0.47986 0.0
C1429 C 0.43579 0.63241 0.48284 0.0
C1430 C 0.43937 0.65396 0.51108 0.0
C1431 C 0.46293 0.65439 0.53577 0.0
C1432 C 0.48164 0.6334 0.53273 0.0
C1433 C 0.6022 0.60307 0.49418 0.0
C1434 C 0.57893 0.67673 0.52905 0.0
C1435 C 0.67263 0.63031 0.58528 0.0
C1436 C 0.69056 0.60537 0.5824 0.0
C1437 C 0.71511 0.60602 0.6058 0.0
C1438 C 0.73391 0.58528 0.60125 0.0
C1439 C 0.72887 0.56352 0.57294 0.0
C1440 C 0.70357 0.56191 0.55021 0.0
C1441 C 0.68469 0.58231 0.55492 0.0
C1442 C 0.56593 0.61616 0.59613 0.0
C1443 C 0.58952 0.54242 0.55926 0.0
O1444 O 0.50703 0.57825 0.53019 0.0
O1445 O 0.51329 0.58987 0.48238 0.0
O1446 O 0.59613 0.62049 0.51595 0.0
O1447 O 0.58028 0.57763 0.48227 0.0
O1448 O 0.60399 0.6769 0.54825 0.0
O1449 O 0.55825 0.64896 0.51974 0.0
O1450 O 0.66085 0.63912 0.55839 0.0
O1451 O 0.65532 0.6274 0.60624 0.0
O1452 O 0.57155 0.59842 0.57413 0.0
O1453 O 0.58839 0.64116 0.60779 0.0
O1454 O 0.56459 0.54225 0.53999 0.0
O1455 O 0.60988 0.57017 0.56952 0.0
H1456 H 0.45064 0.59463 0.45816 0.0
H1457 H 0.41789 0.63089 0.46328 0.0
H1458 H 0.46695 0.67092 0.55761 0.0
H1459 H 0.49924 0.63426 0.55248 0.0
H1460 H 0.72031 0.62338 0.62723 0.0
H1461 H 0.75313 0.58741 0.61927 0.0
H1462 H 0.6986 0.5452 0.52835 0.0
H1463 H 0.66587 0.5807 0.53646 0.0
Pr1464 Pr 0.12166 0.62155 0.04145 0.0
Pr1465 Pr 0.05582 0.6111 0.05337 0.0
C1466 C 0.17439 0.61434 0.03422 0.0
C1467 C 0.19109 0.58858 0.03534 0.0
C1468 C 0.20554 0.58301 1.01022 0.0
C1469 C 0.22321 0.56049 1.01206 0.0
C1470 C 0.22672 0.54314 0.0391 0.0
C1471 C 0.2114 0.54785 0.06361 0.0
C1472 C 0.19392 0.57042 0.06183 0.0
C1473 C 0.08736 0.65407 1.00212 0.0
C1474 C 0.07229 0.54706 1.01886 0.0
C1475 C 1.00126 0.61566 0.05521 0.0
C1476 C 0.98193 0.63858 0.05136 0.0
C1477 C 0.96681 0.64438 0.07584 0.0
C1478 C 0.94647 0.66371 0.07158 0.0
C1479 C 0.94065 0.67724 0.04256 0.0
C1480 C 0.95687 0.67268 1.01875 0.0
C1481 C 0.97751 0.65383 0.02327 0.0
C1482 C 0.08873 0.58248 0.0999 0.0
C1483 C 0.10515 0.6821 0.08107 0.0
O1484 O 0.16887 0.62572 0.06143 0.0
O1485 O 0.1528 0.61072 1.01002 0.0
O1486 O 0.07853 0.62533 1.01039 0.0
O1487 O 0.115 0.66574 1.01235 0.0
O1488 O 0.05042 0.55947 0.02459 0.0
O1489 O 0.09956 0.56495 0.02484 0.0
O1490 O 1.00879 0.60343 0.02954 0.0
O1491 O 1.02215 0.62277 0.08037 0.0
O1492 O 0.09702 0.59836 0.0778 0.0
O1493 O 0.06165 0.58196 0.09928 0.0
O1494 O 0.12651 0.66728 0.07925 0.0
O1495 O 0.07781 0.66766 0.06852 0.0
H1496 H 0.20385 0.59683 0.9896 0.0
H1497 H 0.23509 0.55772 0.99299 0.0
H1498 H 0.21359 0.53472 0.08465 0.0
H1499 H 0.18351 0.57446 0.08178 0.0
H1500 H 0.97017 0.63318 0.09796 0.0
H1501 H 0.93433 0.66667 0.09035 0.0
H1502 H 0.95331 0.6834 0.9964 0.0
H1503 H 0.98979 0.65078 1.00472 0.0
C1504 C 0.08212 0.26559 1.00718 0.0
C1505 C 0.05738 0.26115 0.98261 0.0
H1506 H 0.10855 0.24303 0.04089 0.0
C1507 C 0.03989 0.22882 0.97418 0.0
H1508 H 0.09628 0.29013 1.0143 0.0
C1509 C 0.0464 0.20207 0.99013 0.0
C1510 C 0.07116 0.20621 1.01471 0.0
H1511 H 1.02062 0.22425 0.95571 0.0
H1512 H 0.03183 0.1778 0.98277 0.0
C1513 C 0.08917 0.23853 0.02261 0.0
C1514 C 0.23102 0.87363 0.19218 0.0
C1515 C 0.20996 0.88751 0.20351 0.0
H1516 H 0.27075 0.85766 0.20391 0.0
C1517 C 0.21399 0.89613 0.23686 0.0
H1518 H 0.22864 0.86616 0.16685 0.0
C1519 C 0.23768 0.89054 0.25811 0.0
C1520 C 0.25857 0.87635 0.24697 0.0
H1521 H 0.19831 0.90657 0.24684 0.0
H1522 H 0.2396 0.89745 0.28348 0.0
C1523 C 0.25506 0.86837 0.21355 0.0
C1524 C 0.53204 0.95672 0.48957 0.0
C1525 C 0.55466 0.9449 0.47974 0.0
H1526 H 0.51899 0.99869 0.5091 0.0
C1527 C 0.5824 0.96624 0.48431 0.0
H1528 H 0.51026 0.94088 0.48556 0.0
C1529 C 0.58743 0.99905 0.49764 0.0
C1530 C 0.56465 1.01166 0.50612 0.0
H1531 H 0.6 0.95792 0.4762 0.0
H1532 H 0.60909 1.01487 0.50015 0.0
C1533 C 0.53694 0.98993 0.50251 0.0
C1534 C 0.51759 0.34937 0.67403 0.0
C1535 C 0.54725 0.36251 0.6872 0.0
H1536 H 0.47413 0.33552 0.68253 0.0
C1537 C 0.55545 0.37183 0.72037 0.0
H1538 H 0.51035 0.34135 0.64868 0.0
C1539 C 0.5344 0.36809 0.73982 0.0
C1540 C 0.50489 0.35525 0.72635 0.0
H1541 H 0.57804 0.38183 0.73128 0.0
H1542 H 0.54109 0.37554 0.76531 0.0
C1543 C 0.49671 0.34592 0.69335 0.0
C1544 C 0.12014 1.00213 0.64571 0.0
C1545 C 0.11861 0.97056 0.62988 0.0
H1546 H 0.11668 0.05241 0.64227 0.0
C1547 C 0.11252 0.96734 0.59609 0.0
H1548 H 0.12466 1.00622 0.67161 0.0
C1549 C 0.10802 0.99448 0.57906 0.0
C1550 C 0.10946 0.02592 0.5951 0.0
H1551 H 0.11108 0.9438 0.58273 0.0
H1552 H 0.10313 0.99067 0.55316 0.0
C1553 C 0.11564 0.02907 0.62877 0.0
C1554 C 0.45246 0.87051 0.89989 0.0
C1555 C 0.47063 0.85197 0.88885 0.0
H1556 H 0.41439 0.88959 0.88844 0.0
C1557 C 0.46141 0.8347 0.85787 0.0
H1558 H 0.45852 0.88362 0.92376 0.0
C1559 C 0.4357 0.83735 0.83792 0.0
C1560 C 0.41879 0.8581 0.84797 0.0
H1561 H 0.47446 0.81957 0.84878 0.0
H1562 H 0.4296 0.82405 0.81412 0.0
C1563 C 0.42727 0.87415 0.8795 0.0
C1564 C 0.58227 0.24734 0.13111 0.0
C1565 C 0.59336 0.27733 0.11863 0.0
H1566 H 0.56802 0.19372 0.12301 0.0
C1567 C 0.60069 0.27448 0.08808 0.0
H1568 H 0.57678 0.24819 0.15473 0.0
C1569 C 0.59539 0.24335 0.06983 0.0
C1570 C 0.58351 0.21338 0.08169 0.0
H1571 H 0.61043 0.29657 0.078 0.0
H1572 H 0.60071 0.24277 0.04611 0.0
C1573 C 0.57739 0.21591 0.11294 0.0
C1574 C 0.137 0.33322 0.39759 0.0
C1575 C 0.11833 0.35102 0.38172 0.0
H1576 H 0.17264 0.31037 0.39586 0.0
C1577 C 0.12234 0.35949 0.35092 0.0
H1578 H 0.13454 0.32588 0.42108 0.0
C1579 C 0.1438 0.35025 0.33637 0.0
C1580 C 0.16243 0.33245 0.35208 0.0
H1581 H 0.10848 0.37292 0.33749 0.0
H1582 H 0.14589 0.35732 0.3127 0.0
C1583 C 0.15889 0.32433 0.38308 0.0
C1584 C 0.9967 0.05846 0.11408 0.0
C1585 C 0.98897 0.07894 0.13679 0.0
H1586 H 0.02712 0.05356 0.08384 0.0
C1587 C 1.0054 0.11201 0.14453 0.0
H1588 H 0.98528 0.03254 0.10874 0.0
C1589 C 0.02954 0.12418 0.13045 0.0
C1590 C 0.03794 0.10338 0.10857 0.0
H1591 H 1.00046 0.12797 0.16285 0.0
H1592 H 0.04215 0.14947 0.13749 0.0
C1593 C 1.02094 0.07053 0.10016 0.0
C1594 C 0.31715 0.82069 0.44181 0.0
C1595 C 0.30552 0.78624 0.44017 0.0
H1596 H 0.32978 0.86278 0.41594 0.0
C1597 C 0.29655 0.76845 0.40909 0.0
H1598 H 0.32443 0.83544 0.46486 0.0
C1599 C 0.29956 0.78399 0.38112 0.0
C1600 C 0.31153 0.81818 0.38267 0.0
H1601 H 0.28726 0.74194 0.40608 0.0
H1602 H 0.2928 0.76895 0.35817 0.0
C1603 C 0.32011 0.83636 0.41352 0.0
C1604 C 0.61198 1.0123 0.64128 0.0
C1605 C 0.64118 0.02707 0.65461 0.0
H1606 H 0.57291 0.01737 0.61186 0.0
C1607 C 0.65403 0.0582 0.64552 0.0
H1608 H 0.60135 0.98852 0.64783 0.0
C1609 C 0.63751 0.07516 0.6256 0.0
C1610 C 0.60791 0.06118 0.61392 0.0
H1611 H 0.6764 0.0706 0.65552 0.0
H1612 H 0.64767 0.09971 0.62034 0.0
C1613 C 0.5956 0.02907 0.62099 0.0
C1614 C 0.33049 0.42329 0.93826 0.0
C1615 C 0.35422 0.42083 0.96136 0.0
H1616 H 0.30892 0.41398 0.88923 0.0
C1617 C 0.37482 0.40537 0.95117 0.0
H1618 H 0.31453 0.43565 0.94501 0.0
C1619 C 0.37209 0.39364 0.91854 0.0
C1620 C 0.34851 0.39678 0.89535 0.0
H1621 H 0.39383 0.40394 0.96808 0.0
H1622 H 0.38854 0.38233 0.91147 0.0
C1623 C 0.32752 0.41121 0.90602 0.0
C1624 C 0.99092 0.11038 0.30259 0.0
C1625 C 0.97794 0.07644 0.29466 0.0
H1626 H 1.02398 0.14692 0.3347 0.0
C1627 C 0.98896 0.05277 0.31092 0.0
H1628 H 0.98345 0.12873 0.289 0.0
C1629 C 1.0124 0.06294 0.33572 0.0
C1630 C 0.02526 0.09686 0.34412 0.0
H1631 H 0.97938 0.02646 0.30455 0.0
H1632 H 1.01988 0.04432 0.34913 0.0
C1633 C 1.01446 0.12069 0.32778 0.0
C1634 C 0.34802 0.83267 0.64378 0.0
C1635 C 0.32967 0.80047 0.63456 0.0
H1636 H 0.36797 0.87284 0.68128 0.0
C1637 C 0.31717 0.78472 0.65915 0.0
H1638 H 0.35808 0.84614 0.62607 0.0
C1639 C 0.32235 0.80058 0.69107 0.0
C1640 C 0.34091 0.83267 0.70029 0.0
H1641 H 0.30276 0.76016 0.65359 0.0
H1642 H 0.31182 0.7875 0.70869 0.0
C1643 C 0.35378 0.84815 0.67583 0.0
C1644 C 0.64334 0.02006 0.85701 0.0
C1645 C 0.6369 0.01952 0.82369 0.0
H1646 H 0.63623 0.03806 0.90192 0.0
C1647 C 0.61376 0.03223 0.80971 0.0
H1648 H 0.66165 1.01122 0.86827 0.0
C1649 C 0.5987 0.04755 0.8291 0.0
C1650 C 0.6067 0.05044 0.86268 0.0
H1651 H 0.60907 0.03306 0.78405 0.0
H1652 H 0.58166 0.0583 0.81779 0.0
C1653 C 0.62873 0.03569 0.87629 0.0
C1654 C 0.3684 0.4205 0.17803 0.0
C1655 C 0.35312 0.40999 0.14623 0.0
H1656 H 0.37291 0.41236 0.22819 0.0
C1657 C 0.32914 0.38223 0.14243 0.0
H1658 H 0.38705 0.44154 0.18244 0.0
C1659 C 0.32094 0.36562 0.16875 0.0
C1660 C 0.33644 0.37543 0.20046 0.0
H1661 H 0.31632 0.3733 0.11879 0.0
H1662 H 0.30214 0.34475 0.16407 0.0
C1663 C 0.36032 0.4035 0.20452 0.0
C1664 C 0.28103 1.00562 0.07915 0.0
C1665 C 0.29378 1.01319 0.05215 0.0
H1666 H 0.25032 1.01529 0.10809 0.0
C1667 C 0.28366 0.03606 0.03302 0.0
H1668 H 0.28837 0.98855 0.09475 0.0
C1669 C 0.26209 0.0511 0.04055 0.0
C1670 C 0.24973 0.04426 0.0677 0.0
H1671 H 0.29286 0.04303 1.0122 0.0
H1672 H 0.25552 0.06894 0.02536 0.0
C1673 C 0.25942 0.02121 0.08698 0.0
C1674 C 0.71704 0.67496 0.02327 0.0
C1675 C 0.71684 0.70737 1.01561 0.0
H1676 H 0.69305 0.62778 0.03366 0.0
C1677 C 0.69061 0.71713 1.01536 0.0
H1678 H 0.73707 0.66708 0.02636 0.0
C1679 C 0.66546 0.69501 0.02152 0.0
C1680 C 0.66552 0.66218 0.02799 0.0
H1681 H 0.6896 0.74212 1.01073 0.0
H1682 H 0.64582 0.70361 0.02093 0.0
C1683 C 0.69178 0.65257 0.02849 0.0
C1684 C 0.76129 0.58334 0.35133 0.0
C1685 C 0.76205 0.58382 0.38452 0.0
H1686 H 0.77508 0.56376 0.31037 0.0
C1687 C 0.77618 0.56275 0.40169 0.0
H1688 H 0.75113 0.59998 0.33765 0.0
C1689 C 0.78944 0.54157 0.38591 0.0
C1690 C 0.78968 0.54208 0.35297 0.0
H1691 H 0.77738 0.56312 0.42733 0.0
H1692 H 0.80052 0.52574 0.39969 0.0
C1693 C 0.77526 0.56296 0.33577 0.0
C1694 C 0.96112 0.5007 0.53208 0.0
C1695 C 0.94246 0.51057 0.55074 0.0
H1696 H 1.00172 0.51422 0.51563 0.0
C1697 C 0.95256 0.54092 0.57052 0.0
H1698 H 0.9542 0.4772 0.51712 0.0
C1699 C 0.98009 0.56166 0.57043 0.0
C1700 C 0.99786 0.55288 0.55 0.0
H1701 H 0.93892 0.54886 0.58573 0.0
H1702 H 0.98703 0.58511 0.58549 0.0
C1703 C 0.98824 0.52195 0.53115 0.0
C1704 C 0.42671 0.26419 0.30949 0.0
C1705 C 0.43745 0.27172 0.34273 0.0
H1706 H 0.39496 0.26913 0.26921 0.0
C1707 C 0.42375 0.29048 0.36082 0.0
H1708 H 0.436 0.24851 0.2951 0.0
C1709 C 0.40007 0.30168 0.34603 0.0
C1710 C 0.38908 0.29362 0.31304 0.0
H1711 H 0.43103 0.29593 0.38648 0.0
H1712 H 0.39036 0.3169 0.36039 0.0
C1713 C 0.40272 0.27505 0.29477 0.0
C1714 C 0.37164 0.19606 0.50331 0.0
C1715 C 0.36556 0.2193 0.52506 0.0
H1716 H 0.39886 0.16466 0.49336 0.0
C1717 C 0.3853 0.23027 0.55418 0.0
H1718 H 0.35714 0.18673 0.48065 0.0
C1719 C 0.41011 0.21756 0.5614 0.0
C1720 C 0.41562 0.19387 0.53952 0.0
H1721 H 0.38122 0.24791 0.57162 0.0
H1722 H 0.42487 0.22614 0.58403 0.0
C1723 C 0.39596 0.18345 0.51049 0.0
C1724 C 0.79327 0.72886 0.37488 0.0
C1725 C 0.77008 0.73898 0.38518 0.0
H1726 H 0.82826 0.7395 0.34951 0.0
C1727 C 0.76462 0.76939 0.37685 0.0
H1728 H 0.79674 0.70455 0.37829 0.0
C1729 C 0.78201 0.78891 0.3584 0.0
C1730 C 0.80489 0.77812 0.34807 0.0
H1731 H 0.74628 0.77733 0.38345 0.0
H1732 H 0.77757 0.8122 0.35206 0.0
C1733 C 0.81079 0.74844 0.35722 0.0
C1734 C 0.93776 0.62732 0.8189 0.0
C1735 C 0.96056 0.62673 0.844 0.0
H1736 H 0.90269 0.59886 0.78346 0.0
C1737 C 0.96789 0.59708 0.85037 0.0
H1738 H 0.93247 0.65035 0.81288 0.0
C1739 C 0.9509 0.56766 0.83329 0.0
C1740 C 0.9269 0.5681 0.80947 0.0
H1741 H 0.98593 0.59662 0.86915 0.0
H1742 H 0.95524 0.54451 0.84036 0.0
C1743 C 0.9212 0.59816 0.8015 0.0
C1744 C 0.1196 0.98292 0.11355 0.0
C1745 C 0.10601 0.95143 0.09701 0.0
H1746 H 0.12512 0.03572 0.11445 0.0
C1747 C 0.08737 0.9503 0.06717 0.0
H1748 H 0.13365 0.98512 0.13663 0.0
C1749 C 0.08204 0.97917 0.05467 0.0
C1750 C 0.09549 1.01054 0.07115 0.0
H1751 H 0.07638 0.92678 0.05325 0.0
H1752 H 0.06746 0.97687 0.03191 0.0
C1753 C 0.11452 1.01199 0.10073 0.0
C1754 C 0.94577 0.35581 0.9007 0.0
C1755 C 0.96639 0.34064 0.89027 0.0
H1756 H 0.90691 0.37295 0.88741 0.0
C1757 C 0.9609 0.32715 0.85804 0.0
H1758 H 0.94899 0.36591 0.92548 0.0
C1759 C 0.93704 0.33147 0.83614 0.0
C1760 C 0.91769 0.34911 0.84591 0.0
H1761 H 0.97581 0.31433 0.8494 0.0
H1762 H 0.93416 0.32162 0.81133 0.0
C1763 C 0.92176 0.36006 0.87879 0.0
C1764 C 0.61168 0.25745 0.6396 0.0
C1765 C 0.61336 0.284 0.62068 0.0
H1766 H 0.60774 0.20511 0.64099 0.0
C1767 C 0.61402 0.27765 0.58798 0.0
H1768 H 0.61171 0.26158 0.66497 0.0
C1769 C 0.61151 0.24527 0.57423 0.0
C1770 C 0.60947 0.21883 0.59321 0.0
H1771 H 0.61682 0.29772 0.57308 0.0
H1772 H 0.61103 0.24087 0.54877 0.0
C1773 C 0.60966 0.22521 0.62599 0.0
C1774 C 0.62451 0.83641 0.39691 0.0
C1775 C 0.61878 0.86646 0.40723 0.0
H1776 H 0.65009 0.8127 0.37116 0.0
C1777 C 0.63755 0.89642 0.40318 0.0
H1778 H 0.60972 0.81305 0.39884 0.0
C1779 C 0.66092 0.8964 0.38767 0.0
C1780 C 0.66556 0.86636 0.3751 0.0
H1781 H 0.63313 0.91991 0.41043 0.0
H1782 H 0.67458 0.92 0.38436 0.0
C1783 C 0.6476 0.83634 0.38087 0.0
C1784 C 0.04942 0.22752 0.44867 0.0
C1785 C 0.05105 0.25701 0.46817 0.0
H1786 H 0.05236 0.17632 0.44652 0.0
C1787 C 0.05565 0.2556 0.50152 0.0
H1788 H 0.04607 0.22739 0.42289 0.0
C1789 C 0.05874 0.22632 0.51497 0.0
C1790 C 0.05781 0.19694 0.4958 0.0
H1791 H 0.05697 0.27741 0.51756 0.0
H1792 H 0.06245 0.22705 0.5408 0.0
C1793 C 0.053 0.19806 0.46227 0.0
C1794 C 0.71085 0.34622 0.19829 0.0
C1795 C 0.69875 0.37295 0.20553 0.0
H1796 H 0.74407 0.3203 0.2124 0.0
C1797 C 0.71196 0.39448 0.2336 0.0
H1798 H 0.70089 0.32871 0.1773 0.0
C1799 C 0.73683 0.3899 0.25347 0.0
C1800 C 0.74866 0.36289 0.24661 0.0
H1801 H 0.70302 0.415 0.24024 0.0
H1802 H 0.74671 0.40743 0.27449 0.0
C1803 C 0.73526 0.34102 0.21877 0.0
C1804 C 0.56079 0.98212 0.96093 0.0
C1805 C 0.57008 0.95397 0.97115 0.0
H1806 H 0.55638 0.03126 0.97306 0.0
C1807 C 0.58653 0.9578 1.00242 0.0
H1808 H 0.54841 0.98114 0.93718 0.0
C1809 C 0.59393 0.9887 0.02201 0.0
C1810 C 0.58429 0.01666 1.01162 0.0
H1811 H 0.59427 0.93716 1.01154 0.0
H1812 H 0.60709 0.99057 0.04559 0.0
C1813 C 0.56655 1.01204 0.98118 0.0
C1814 C 0.02796 0.8898 0.69212 0.0
C1815 C 0.05204 0.88191 0.71051 0.0
H1816 H 0.9869 0.902 0.69192 0.0
C1817 C 0.05125 0.87658 0.74263 0.0
H1818 H 0.02816 0.89468 0.66749 0.0
C1819 C 0.02795 0.88094 0.75667 0.0
C1820 C 1.00464 0.89098 0.73907 0.0
H1821 H 0.06931 0.87027 0.75743 0.0
H1822 H 0.02862 0.8773 0.78169 0.0
C1823 C 1.00444 0.89423 0.70625 0.0
C1824 C 0.16882 0.10617 0.95437 0.0
C1825 C 0.18587 0.13846 0.96546 0.0
H1826 H 0.12914 0.06959 0.95466 0.0
C1827 C 0.17522 0.15912 0.98507 0.0
H1828 H 0.17588 0.09045 0.93764 0.0
C1829 C 0.14822 0.14775 0.99364 0.0
C1830 C 0.13134 0.1152 0.98338 0.0
H1831 H 0.18705 0.18464 0.99247 0.0
H1832 H 0.1404 0.16483 1.00816 0.0
C1833 C 0.14185 0.09448 0.96348 0.0
C1834 C 0.88039 0.44918 0.67229 0.0
C1835 C 0.86341 0.43061 0.64369 0.0
H1836 H 0.89247 0.45194 0.72388 0.0
C1837 C 0.84515 0.39973 0.64645 0.0
H1838 H 0.89488 0.473 0.67129 0.0
C1839 C 0.84399 0.38767 0.6764 0.0
C1840 C 0.86097 0.40593 0.70501 0.0
H1841 H 0.83144 0.38478 0.62534 0.0
H1842 H 0.82925 0.36391 0.67711 0.0
C1843 C 0.87907 0.4371 0.70254 0.0
C1844 C 0.56107 0.20316 0.43686 0.0
C1845 C 0.5335 0.20408 0.44333 0.0
H1846 H 0.59952 0.18532 0.44988 0.0
C1847 C 0.52487 0.18897 0.46992 0.0
H1848 H 0.5684 0.21378 0.41628 0.0
C1849 C 0.54222 0.17207 0.48844 0.0
C1850 C 0.56892 0.16997 0.48111 0.0
H1851 H 0.50353 0.18803 0.47506 0.0
H1852 H 0.53468 0.16032 0.50837 0.0
C1853 C 0.57873 0.18648 0.4558 0.0
C1854 C 0.78714 0.77248 0.14222 0.0
C1855 C 0.80583 0.7904 0.1237 0.0
H1856 H 0.77519 0.76774 0.18867 0.0
C1857 C 0.82766 0.81794 0.13942 0.0
H1858 H 0.7699 0.7513 0.13099 0.0
C1859 C 0.83122 0.82666 0.17268 0.0
C1860 C 0.81247 0.80882 0.1911 0.0
H1861 H 0.8424 0.83244 0.12611 0.0
H1862 H 0.84852 0.84775 0.18401 0.0
C1863 C 0.79007 0.78192 0.17531 0.0
C1864 C 0.1598 0.10862 0.79345 0.0
C1865 C 0.18842 0.12818 0.80017 0.0
H1866 H 0.12127 0.09109 0.75806 0.0
C1867 C 0.20229 0.13978 0.77534 0.0
H1868 H 0.1489 0.09897 0.81237 0.0
C1869 C 0.1865 0.13508 0.74439 0.0
C1870 C 0.15691 0.11877 0.73836 0.0
H1871 H 0.22438 0.15487 0.78016 0.0
H1872 H 0.19665 0.14698 0.7259 0.0
C1873 C 0.14405 0.10392 0.76255 0.0
C1874 C 0.84665 0.44188 0.42249 0.0
C1875 C 0.84357 0.42787 0.4516 0.0
H1876 H 0.84482 0.43421 0.37159 0.0
C1877 C 0.83428 0.39294 0.44923 0.0
H1878 H 0.85397 0.46848 0.42262 0.0
C1879 C 0.82795 0.37321 0.41914 0.0
C1880 C 0.83118 0.38741 0.39019 0.0
H1881 H 0.83183 0.38076 0.47062 0.0
H1882 H 0.82088 0.34654 0.41866 0.0
C1883 C 0.84109 0.42213 0.3927 0.0
C1884 C 0.52621 0.20774 0.2453 0.0
C1885 C 0.52078 0.19306 0.27292 0.0
H1886 H 0.54315 0.20401 0.20213 0.0
C1887 C 0.52678 0.16215 0.27771 0.0
H1888 H 0.52135 0.2314 0.24117 0.0
C1889 C 0.53902 0.14647 0.25571 0.0
C1890 C 0.54544 0.16142 0.22838 0.0
H1891 H 0.52233 0.15022 0.29878 0.0
H1892 H 0.54355 0.1227 0.26015 0.0
C1893 C 0.53843 0.19192 0.22303 0.0
C1894 C 0.80067 0.78782 0.90219 0.0
C1895 C 0.80679 0.80096 0.9349 0.0
H1896 H 0.80587 0.79465 0.85371 0.0
C1897 C 0.82294 0.83437 0.9418 0.0
H1898 H 0.78877 0.76226 0.89516 0.0
C1899 C 0.83246 0.85338 0.91715 0.0
C1900 C 0.82608 0.83998 0.8845 0.0
H1901 H 0.82882 0.8457 0.96635 0.0
H1902 H 0.84514 0.87868 0.92379 0.0
C1903 C 0.81019 0.8067 0.87782 0.0
C1904 C 0.88449 0.1901 0.04799 0.0
C1905 C 0.87519 0.20856 0.02374 0.0
H1906 H 0.91162 0.15777 0.06354 0.0
C1907 C 0.8884 0.20996 0.9966 0.0
H1908 H 0.87384 0.1873 0.06847 0.0
C1909 C 0.91 0.19288 0.99352 0.0
C1910 C 0.9188 0.17342 1.01732 0.0
H1911 H 0.881 0.22307 0.97699 0.0
H1912 H 0.91933 0.19435 0.97207 0.0
C1913 C 0.90605 0.1729 0.04492 0.0
C1914 C 0.45432 0.54171 0.07543 0.0
C1915 C 0.44714 0.50858 0.06143 0.0
H1916 H 0.48396 0.58992 0.08193 0.0
C1917 C 0.46748 0.49833 0.04533 0.0
H1918 H 0.43972 0.55033 0.08885 0.0
C1919 C 0.49321 0.52111 0.04154 0.0
C1920 C 0.49943 0.55484 0.05379 0.0
H1921 H 0.46298 0.47293 0.03462 0.0
H1922 H 0.50792 0.51246 0.02833 0.0
C1923 C 0.4798 0.56451 0.0714 0.0
C1924 C 0.42677 0.65718 0.74862 0.0
C1925 C 0.41403 0.64301 0.71714 0.0
H1926 H 0.42378 0.68929 0.789 0.0
C1927 C 0.39152 0.65483 0.7003 0.0
H1928 H 0.44358 0.64774 0.76238 0.0
C1929 C 0.38038 0.67846 0.71536 0.0
C1930 C 0.39127 0.69031 0.74765 0.0
H1931 H 0.38065 0.64339 0.6765 0.0
H1932 H 0.36176 0.68561 0.70251 0.0
C1933 C 0.41515 0.68039 0.76401 0.0
C1934 C 0.22751 0.68391 0.55351 0.0
C1935 C 0.22857 0.70749 0.5312 0.0
H1936 H 0.20083 0.64572 0.57479 0.0
C1937 C 0.20249 0.70932 0.512 0.0
H1938 H 0.24729 0.68219 0.56891 0.0
C1939 C 0.17611 0.68743 0.51431 0.0
C1940 C 0.17479 0.66425 0.5371 0.0
H1941 H 0.20251 0.72742 0.49491 0.0
H1942 H 0.15651 0.68942 0.49877 0.0
C1943 C 0.20091 0.66297 0.55686 0.0
C1944 C 0.736 0.93535 0.74484 0.0
C1945 C 0.73428 0.95948 0.76838 0.0
H1946 H 0.75918 0.89956 0.73223 0.0
C1947 C 0.75646 0.96826 0.79608 0.0
H1948 H 0.7196 0.92835 0.72325 0.0
C1949 C 0.77955 0.95338 0.80033 0.0
C1950 C 0.78055 0.92842 0.77765 0.0
H1951 H 0.75637 0.98719 0.81473 0.0
H1952 H 0.79572 0.96014 0.82215 0.0
C1953 C 0.75879 0.9194 0.74981 0.0
C1954 C 0.79367 1.01528 0.57758 0.0
C1955 C 0.79552 0.99285 0.55237 0.0
H1956 H 0.77002 0.04854 0.59462 0.0
C1957 C 0.77301 0.98474 0.52543 0.0
H1958 H 0.81139 0.02309 0.5979 0.0
C1959 C 0.74971 0.99992 0.52316 0.0
C1960 C 0.74846 0.02328 0.54791 0.0
H1961 H 0.77453 0.96851 0.50517 0.0
H1962 H 0.73332 0.99452 0.50152 0.0
C1963 C 0.77019 0.03008 0.57554 0.0
C1964 C 0.36522 0.46172 0.70559 0.0
C1965 C 0.39553 0.47144 0.7144 0.0
H1966 H 0.32553 0.43303 0.71635 0.0
C1967 C 0.40966 0.45546 0.73783 0.0
H1968 H 0.35399 0.47313 0.68698 0.0
C1969 C 0.39343 0.43267 0.75462 0.0
C1970 C 0.36304 0.4256 0.74799 0.0
H1971 H 0.43308 0.46244 0.74482 0.0
H1972 H 0.40458 0.4221 0.77399 0.0
C1973 C 0.34902 0.439 0.7224 0.0
C1974 C 0.22268 0.60809 0.23777 0.0
C1975 C 0.20086 0.60216 0.25592 0.0
H1976 H 0.26015 0.64146 0.22947 0.0
C1977 C 0.19712 0.62723 0.27699 0.0
H1978 H 0.22509 0.58888 0.22068 0.0
C1979 C 0.21826 0.65703 0.28349 0.0
C1980 C 0.24223 0.6615 0.26796 0.0
H1981 H 0.17974 0.62263 0.29055 0.0
H1982 H 0.21676 0.67549 0.30183 0.0
C1983 C 0.24309 0.63776 0.24348 0.0
C1984 C 0.55129 0.72981 0.46619 0.0
C1985 C 0.55812 0.76177 0.48277 0.0
H1986 H 0.55241 0.67867 0.46768 0.0
C1987 C 0.57365 0.76597 0.51471 0.0
H1988 H 0.53971 0.72535 0.44164 0.0
C1989 C 0.58159 0.73913 0.52965 0.0
C1990 C 0.57369 0.70695 0.51338 0.0
H1991 H 0.57963 0.79017 0.52838 0.0
H1992 H 0.59305 0.74339 0.55424 0.0
C1993 C 0.55865 0.70294 0.4813 0.0
C1994 C 0.73174 0.37641 0.69297 0.0
C1995 C 0.70977 0.38786 0.70506 0.0
H1996 H 0.77243 0.36225 0.70362 0.0
C1997 C 0.7131 0.39378 0.73866 0.0
H1998 H 0.72997 0.37114 0.66739 0.0
C1999 C 0.73699 0.38796 0.75937 0.0
C2000 C 0.75881 0.37622 0.74746 0.0
H2001 H 0.69673 0.40222 0.74922 0.0
H2002 H 0.73831 0.39269 0.78494 0.0
C2003 C 0.75599 0.37092 0.71384 0.0
C2004 C 0.08438 0.46775 0.98033 0.0
C2005 C 0.05721 0.44548 0.97737 0.0
H2006 H 0.11046 0.51675 0.99583 0.0
C2007 C 0.03505 0.45613 0.98953 0.0
H2008 H 0.10162 0.4603 0.97059 0.0
C2009 C 0.03975 0.48903 1.00329 0.0
C2010 C 0.06684 0.51169 1.00545 0.0
H2011 H 1.01366 0.43958 0.98679 0.0
H2012 H 1.02205 0.49684 1.01165 0.0
C2013 C 0.08925 0.50026 0.99451 0.0
C2014 C 1.01805 0.84855 0.1719 0.0
C2015 C 0.04769 0.86176 0.18507 0.0
H2016 H 0.97458 0.83535 0.18033 0.0
C2017 C 0.05591 0.87204 0.21805 0.0
H2018 H 1.01081 0.83989 0.14667 0.0
C2019 C 0.03483 0.86909 0.23737 0.0
C2020 C 1.00536 0.85614 0.22388 0.0
H2021 H 0.0785 0.88213 0.22891 0.0
H2022 H 0.04146 0.87713 0.26277 0.0
C2023 C 0.99716 0.8459 0.19107 0.0
C2024 C 0.62034 0.4862 0.13004 0.0
C2025 C 0.60668 0.45561 0.111 0.0
H2026 H 0.62915 0.54014 0.1337 0.0
C2027 C 0.59234 0.45781 0.07976 0.0
H2028 H 0.63142 0.4861 0.1543 0.0
C2029 C 0.59132 0.48833 0.06803 0.0
C2030 C 0.60423 0.51893 0.08679 0.0
H2031 H 0.58129 0.43553 0.06391 0.0
H2032 H 0.5795 0.48767 0.04395 0.0
C2033 C 0.61887 0.51737 0.11824 0.0
C2034 C 0.96365 0.33325 0.35865 0.0
C2035 C 0.97284 0.35119 0.38928 0.0
H2036 H 0.93189 0.32188 0.31493 0.0
C2037 C 0.95503 0.37048 0.39978 0.0
H2038 H 0.97654 0.31761 0.35006 0.0
C2039 C 0.93006 0.37405 0.37908 0.0
C2040 C 0.92159 0.35722 0.3479 0.0
H2041 H 0.96119 0.38413 0.42341 0.0
H2042 H 0.91727 0.38989 0.38752 0.0
C2043 C 0.93816 0.33585 0.33843 0.0
C2044 C 0.07581 0.76682 0.58564 0.0
C2045 C 0.09343 0.77416 0.61634 0.0
H2046 H 0.05611 0.73129 0.54474 0.0
C2047 C 0.10395 0.74784 0.62944 0.0
H2048 H 0.06714 0.78595 0.57447 0.0
C2049 C 0.09764 0.71578 0.61194 0.0
C2050 C 0.08041 0.70893 0.58085 0.0
H2051 H 0.11779 0.75225 0.65285 0.0
H2052 H 0.10683 0.69667 0.62244 0.0
C2053 C 0.06941 0.73508 0.56845 0.0
C2054 C 0.63536 0.83443 0.89726 0.0
C2055 C 0.61746 0.85362 0.88234 0.0
H2056 H 0.67032 0.81065 0.89457 0.0
C2057 C 0.62247 0.86398 0.8524 0.0
H2058 H 0.63217 0.82565 0.92006 0.0
C2059 C 0.644 0.85507 0.83767 0.0
C2060 C 0.66172 0.83566 0.8523 0.0
H2061 H 0.60931 0.87862 0.83973 0.0
H2062 H 0.64679 0.86359 0.81467 0.0
C2063 C 0.6573 0.82582 0.88258 0.0
C2064 C 0.49572 0.56302 0.61377 0.0
C2065 C 0.49059 0.58261 0.63911 0.0
H2066 H 0.52464 0.55742 0.5819 0.0
C2067 C 0.50977 0.61396 0.64944 0.0
H2068 H 0.48213 0.53823 0.60631 0.0
C2069 C 0.53373 0.62546 0.63495 0.0
C2070 C 0.53943 0.60553 0.61021 0.0
H2071 H 0.50688 0.62907 0.66978 0.0
H2072 H 0.54831 0.64941 0.64386 0.0
C2073 C 0.52017 0.57413 0.59987 0.0
C2074 C 0.81305 0.32137 0.94119 0.0
C2075 C 0.80937 0.28676 0.94078 0.0
H2076 H 0.81839 0.36369 0.9141 0.0
C2077 C 0.8077 0.26868 0.9108 0.0
H2078 H 0.81433 0.33634 0.96339 0.0
C2079 C 0.80945 0.2841 0.88266 0.0
C2080 C 0.81325 0.31851 0.88293 0.0
H2081 H 0.80498 0.24205 0.90874 0.0
H2082 H 0.80841 0.26888 0.86066 0.0
C2083 C 0.81513 0.337 0.91272 0.0
C2084 C 0.10739 0.52895 0.16442 0.0
C2085 C 0.13344 0.52227 0.15825 0.0
H2086 H 0.07375 0.55404 0.15168 0.0
C2087 C 0.14466 0.53534 0.13204 0.0
H2088 H 0.09855 0.52037 0.185 0.0
C2089 C 0.13004 0.55472 0.11264 0.0
C2090 C 0.10462 0.56218 0.11975 0.0
H2091 H 0.16488 0.53108 0.12692 0.0
H2092 H 0.13847 0.56402 0.09218 0.0
C2093 C 0.09332 0.54875 0.14559 0.0
C2094 C 0.84361 0.93991 0.43259 0.0
C2095 C 0.85395 0.9247 0.4594 0.0
H2096 H 0.8327 0.93839 0.38149 0.0
C2097 C 0.86103 0.89411 0.45316 0.0
H2098 H 0.83787 0.96342 0.43575 0.0
C2099 C 0.8584 0.8799 0.42121 0.0
C2100 C 0.84841 0.89577 0.3948 0.0
H2101 H 0.86909 0.88151 0.47283 0.0
H2102 H 0.86376 0.85628 0.41717 0.0
C2103 C 0.84076 0.92569 0.40111 0.0
C2104 C 0.50366 0.57931 0.79143 0.0
C2105 C 0.4772 0.58831 0.79032 0.0
H2106 H 0.54429 0.57971 0.81936 0.0
C2107 C 0.47458 0.61229 0.81353 0.0
H2108 H 0.5067 0.56161 0.77328 0.0
C2109 C 0.49706 0.62404 0.83964 0.0
C2110 C 0.52165 0.61084 0.8431 0.0
H2111 H 0.45466 0.62036 0.81259 0.0
H2112 H 0.49383 0.64044 0.85879 0.0
C2113 C 0.52573 0.59048 0.81761 0.0
C2114 C 0.84312 0.33516 0.14053 0.0
C2115 C 0.8306 0.30074 0.13368 0.0
H2116 H 0.85804 0.37809 0.17532 0.0
C2117 C 0.824 0.28352 0.16024 0.0
H2118 H 0.84841 0.34981 0.12132 0.0
C2119 C 0.82945 0.30016 0.19197 0.0
C2120 C 0.84202 0.33471 0.19857 0.0
H2121 H 0.81419 0.25712 0.15646 0.0
H2122 H 0.82344 0.28596 0.2112 0.0
C2123 C 0.84872 0.35158 0.17198 0.0
C2124 C 0.14976 0.52194 0.35926 0.0
C2125 C 0.14105 0.51766 0.32593 0.0
H2126 H 0.14412 0.54286 0.40373 0.0
C2127 C 0.11599 0.52722 0.31215 0.0
H2128 H 0.16938 0.51549 0.3704 0.0
C2129 C 0.10096 0.54268 0.33144 0.0
C2130 C 0.11087 0.54893 0.36475 0.0
H2131 H 0.10931 0.52515 0.28637 0.0
H2132 H 0.0822 0.55063 0.32014 0.0
C2133 C 0.13517 0.53779 0.37838 0.0
C2134 C 0.83942 0.87542 0.64248 0.0
C2135 C 0.85512 0.90902 0.64586 0.0
H2136 H 0.81905 0.83337 0.66448 0.0
C2137 C 0.86262 0.92524 0.67757 0.0
H2138 H 0.83282 0.86161 0.61893 0.0
C2139 C 0.85489 0.90848 0.70437 0.0
C2140 C 0.83905 0.87481 0.70066 0.0
H2141 H 0.87445 0.95104 0.68177 0.0
H2142 H 0.8608 0.9222 0.72794 0.0
C2143 C 0.83146 0.85895 0.66898 0.0
C2144 C 0.78037 0.529 0.52849 0.0
C2145 C 0.79467 0.51254 0.55146 0.0
H2146 H 0.74894 0.55745 0.51707 0.0
C2147 C 0.78626 0.51172 0.58163 0.0
H2148 H 0.78639 0.5306 0.50515 0.0
C2149 C 0.76484 0.52788 0.58876 0.0
C2150 C 0.75084 0.54469 0.56571 0.0
H2151 H 0.79712 0.49988 0.60017 0.0
H2152 H 0.75938 0.52741 0.6124 0.0
C2153 C 0.75875 0.54448 0.53536 0.0
C2154 C 0.19136 0.19766 0.49216 0.0
C2155 C 0.2168 0.20846 0.51562 0.0
H2156 H 0.14755 0.16702 0.47965 0.0
C2157 C 0.21612 0.19688 0.54597 0.0
H2158 H 0.19058 0.20667 0.4689 0.0
C2159 C 0.19118 0.17486 0.55249 0.0
C2160 C 0.16592 0.16362 0.52889 0.0
H2161 H 0.23496 0.20517 0.56495 0.0
H2162 H 0.19162 0.16671 0.57614 0.0
C2163 C 0.16647 0.17525 0.49854 0.0
C2164 C 0.25658 0.0539 0.8834 0.0
C2165 C 0.26592 0.08843 0.88431 0.0
H2166 H 0.26231 1.00653 0.8664 0.0
C2167 C 0.28712 0.10177 0.86662 0.0
H2168 H 0.23982 0.04309 0.89634 0.0
C2169 C 0.30008 0.08124 0.84983 0.0
C2170 C 0.29195 0.04664 0.84993 0.0
H2171 H 0.2939 0.12833 0.86596 0.0
H2172 H 0.3171 0.09267 0.8375 0.0
C2173 C 0.26961 0.03313 0.86646 0.0
C2174 C 0.45028 0.04702 0.06774 0.0
C2175 C 0.44158 1.0151 0.05069 0.0
H2176 H 0.48339 0.09278 0.08013 0.0
C2177 C 0.46136 1.00437 0.03422 0.0
H2178 H 0.43584 0.05573 0.08134 0.0
C2179 C 0.48824 0.0259 0.03285 0.0
C2180 C 0.4965 0.05821 0.049 0.0
H2181 H 0.45561 0.9797 0.02148 0.0
H2182 H 0.50272 0.01722 1.01927 0.0
C2183 C 0.4775 0.06823 0.06711 0.0
C2184 C 0.9227 0.7899 0.86071 0.0
C2185 C 0.93825 0.77397 0.84222 0.0
H2186 H 0.88704 0.81274 0.86093 0.0
C2187 C 0.92897 0.76895 0.80866 0.0
H2188 H 0.92889 0.7936 0.88657 0.0
C2189 C 0.90456 0.77917 0.79411 0.0
C2190 C 0.8887 0.79417 0.8128 0.0
H2191 H 0.93978 0.75577 0.79372 0.0
H2192 H 0.89812 0.77546 0.76827 0.0
C2193 C 0.89827 0.79994 0.84614 0.0
C2194 C 0.87223 0.69637 0.99951 0.0
C2195 C 0.86605 0.71882 0.02203 0.0
H2196 H 0.8999 0.66563 0.98858 0.0
C2197 C 0.8856 0.72883 0.05137 0.0
H2198 H 0.85778 0.68777 0.97669 0.0
C2199 C 0.91024 0.71588 0.05817 0.0
C2200 C 0.91585 0.693 0.03563 0.0
H2201 H 0.88145 0.74582 0.06937 0.0
H2202 H 0.92476 0.72354 0.08108 0.0
C2203 C 0.89662 0.68368 1.00622 0.0
C2204 C 0.26785 0.26995 0.87878 0.0
C2205 C 0.27091 0.23769 0.88254 0.0
H2206 H 0.28115 0.31425 0.85662 0.0
C2207 C 0.29056 0.22553 0.86688 0.0
H2208 H 0.25245 0.27964 0.89005 0.0
C2209 C 0.3059 0.2446 0.84679 0.0
C2210 C 0.30214 0.27637 0.84213 0.0
H2211 H 0.29262 0.20031 0.86834 0.0
H2212 H 0.32024 0.23415 0.8344 0.0
C2213 C 0.28376 0.28937 0.85914 0.0
C2214 C 0.43578 0.12569 0.31506 0.0
C2215 C 0.45904 0.12472 0.33941 0.0
H2216 H 0.3997 0.09756 0.2806 0.0
C2217 C 0.46652 0.09499 0.34499 0.0
H2218 H 0.43045 0.14886 0.30964 0.0
C2219 C 0.44908 0.06576 0.32809 0.0
C2220 C 0.42446 0.06652 0.3053 0.0
H2221 H 0.48491 0.09429 0.36321 0.0
H2222 H 0.45346 0.0425 0.33476 0.0
C2223 C 0.41872 0.09669 0.29783 0.0
C2224 C 0.61733 0.48437 0.61677 0.0
C2225 C 0.60663 0.45305 0.59897 0.0
H2226 H 0.62008 0.53677 0.61834 0.0
C2227 C 0.59039 0.45178 0.56765 0.0
H2228 H 0.62932 0.48659 0.641 0.0
C2229 C 0.58448 0.48029 0.55491 0.0
C2230 C 0.59503 0.51146 0.57267 0.0
H2231 H 0.58166 0.42836 0.55275 0.0
H2232 H 0.57188 0.47793 0.53095 0.0
C2233 C 0.61176 0.51313 0.60372 0.0
C2234 C 0.44473 0.85364 0.40071 0.0
C2235 C 0.46619 0.84036 0.38976 0.0
H2236 H 0.40521 0.86957 0.38809 0.0
C2237 C 0.46165 0.82893 0.35705 0.0
H2238 H 0.44723 0.86203 0.42585 0.0
C2239 C 0.43783 0.8336 0.33535 0.0
C2240 C 0.41758 0.84941 0.34581 0.0
H2241 H 0.4772 0.8175 0.348 0.0
H2242 H 0.43567 0.82545 0.3102 0.0
C2243 C 0.42078 0.8582 0.379 0.0
C2244 C 0.11683 0.75733 0.14107 0.0
C2245 C 0.11469 0.78253 0.12096 0.0
H2246 H 0.11639 0.70585 0.14422 0.0
C2247 C 0.11246 0.77476 0.0879 0.0
H2248 H 0.11946 0.76262 0.16677 0.0
C2249 C 0.10994 0.74214 0.07501 0.0
C2250 C 0.11147 0.71698 0.0951 0.0
H2251 H 0.11288 0.79388 0.07198 0.0
H2252 H 0.10678 0.73657 0.04931 0.0
C2253 C 0.11536 0.72492 0.12828 0.0
C2254 C 0.12524 0.33418 0.8948 0.0
C2255 C 0.11891 0.36411 0.9044 0.0
H2256 H 0.15171 0.31069 0.87007 0.0
C2257 C 0.13731 0.39416 0.8999 0.0
H2258 H 0.11079 0.31071 0.89712 0.0
C2259 C 0.1609 0.39433 0.88471 0.0
C2260 C 0.16624 0.36437 0.87294 0.0
H2261 H 0.13248 0.41755 0.90663 0.0
H2262 H 0.17426 0.41799 0.88106 0.0
C2263 C 0.14864 0.33428 0.87912 0.0
C2264 C 0.55672 0.75584 1.00101 0.0
C2265 C 0.54992 0.75722 0.96771 0.0
H2266 H 0.5653 0.7271 0.03981 0.0
C2267 C 0.54626 0.72728 0.94788 0.0
H2268 H 0.55973 0.77791 1.01737 0.0
C2269 C 0.54977 0.69747 0.96099 0.0
C2270 C 0.5567 0.69636 0.99446 0.0
H2271 H 0.54119 0.72698 0.92212 0.0
H2272 H 0.54735 0.67539 0.94485 0.0
C2273 C 0.55986 0.72625 1.01402 0.0
C2274 C 0.22295 0.89719 0.70481 0.0
C2275 C 0.19536 0.8777 0.70599 0.0
H2276 H 0.26846 0.9097 0.72432 0.0
C2277 C 0.1933 0.85363 0.72791 0.0
H2278 H 0.22538 0.91564 0.68808 0.0
C2279 C 0.21829 0.84908 0.74801 0.0
C2280 C 0.24588 0.86941 0.74754 0.0
H2281 H 0.17231 0.83788 0.7291 0.0
H2282 H 0.21596 0.82999 0.76411 0.0
C2283 C 0.24766 0.89368 0.72577 0.0
C2284 C 0.06459 0.48131 0.46025 0.0
C2285 C 0.07238 0.45254 0.47095 0.0
H2286 H 0.06112 0.53089 0.47208 0.0
C2287 C 0.08698 0.45536 0.50295 0.0
H2288 H 0.05355 0.48095 0.43595 0.0
C2289 C 0.09415 0.48594 0.52289 0.0
C2290 C 0.086 0.51453 0.51205 0.0
H2291 H 0.09337 0.43412 0.51244 0.0
H2292 H 0.10585 0.48705 0.54709 0.0
C2293 C 0.07005 0.51098 0.48075 0.0
C2294 C 0.51628 0.35029 0.19964 0.0
C2295 C 0.54072 0.37463 0.19619 0.0
H2296 H 0.47917 0.33764 0.22188 0.0
C2297 C 0.54654 0.40592 0.21377 0.0
H2298 H 0.51157 0.32577 0.18687 0.0
C2299 C 0.52744 0.41324 0.2332 0.0
C2300 C 0.50233 0.38918 0.23606 0.0
H2301 H 0.56524 0.42519 0.21144 0.0
H2302 H 0.53192 0.43818 0.24503 0.0
C2303 C 0.49757 0.35729 0.21962 0.0
C2304 C 0.6732 0.65776 0.48263 0.0
C2305 C 0.68334 0.63676 0.46291 0.0
H2306 H 0.63902 0.66388 0.50649 0.0
C2307 C 0.66634 0.60433 0.45249 0.0
H2308 H 0.68514 0.68331 0.48959 0.0
C2309 C 0.63978 0.5928 0.46243 0.0
C2310 C 0.62973 0.61388 0.48241 0.0
H2311 H 0.67319 0.58831 0.43583 0.0
H2312 H 0.62706 0.56777 0.45425 0.0
C2313 C 0.64656 0.64658 0.49193 0.0
C2314 C 0.36948 0.95406 0.17326 0.0
C2315 C 0.36483 0.93243 0.14485 0.0
H2316 H 0.37125 0.95905 0.22444 0.0
C2317 C 0.3598 0.8982 0.1478 0.0
H2318 H 0.37341 0.98057 0.17215 0.0
C2319 C 0.3591 0.88595 0.17776 0.0
C2320 C 0.36306 0.90732 0.20615 0.0
H2321 H 0.35631 0.88063 0.12678 0.0
H2322 H 0.35478 0.85935 0.17845 0.0
C2323 C 0.36837 0.94169 0.20339 0.0
C2324 C 0.02867 0.66736 0.93739 0.0
C2325 C 0.03536 0.70209 0.93782 0.0
H2326 H 0.03853 0.62512 0.95858 0.0
C2327 C 0.06162 0.72059 0.95649 0.0
H2328 H 1.01033 0.65204 0.92072 0.0
C2329 C 0.0787 0.70492 0.9774 0.0
C2330 C 0.06992 0.67053 0.9795 0.0
H2331 H 0.06853 0.74708 0.95562 0.0
H2332 H 0.0985 0.71977 0.99228 0.0
C2333 C 0.04509 0.65182 0.9587 0.0
C2334 C 0.33299 0.30918 0.64006 0.0
C2335 C 0.30566 0.29212 0.62241 0.0
H2336 H 0.3587 0.32997 0.68616 0.0
C2337 C 0.28251 0.28376 0.63911 0.0
H2338 H 0.35132 0.31582 0.62809 0.0
C2339 C 0.2865 0.29263 0.67245 0.0
C2340 C 0.31405 0.309 0.69032 0.0
H2341 H 0.26114 0.27069 0.62624 0.0
H2342 H 0.26806 0.28627 0.68429 0.0
C2343 C 0.33721 0.31704 0.67351 0.0
C2344 C 0.66938 0.60581 0.28836 0.0
C2345 C 0.69236 0.63424 0.2966 0.0
H2346 H 0.63374 0.57926 0.2521 0.0
C2347 C 0.70046 0.65519 0.27373 0.0
H2348 H 0.66315 0.58949 0.30612 0.0
C2349 C 0.68384 0.64927 0.24321 0.0
C2350 C 0.65942 0.62236 0.23581 0.0
H2351 H 0.71783 0.67754 0.28015 0.0
H2352 H 0.68859 0.66707 0.22621 0.0
C2353 C 0.65273 0.59992 0.25785 0.0
C2354 C 0.35015 0.89633 0.94985 0.0
C2355 C 0.34135 0.92622 0.95374 0.0
H2356 H 0.35218 0.85514 0.91732 0.0
C2357 C 0.32631 0.93607 0.92598 0.0
H2358 H 0.36219 0.88796 0.97014 0.0
C2359 C 0.32067 0.9173 0.89571 0.0
C2360 C 0.33008 0.88803 0.89162 0.0
H2361 H 0.31888 0.95866 0.92759 0.0
H2362 H 0.30841 0.92548 0.8755 0.0
C2363 C 0.34454 0.87756 0.91935 0.0
C2364 C 0.02554 0.70493 0.74519 0.0
C2365 C 1.02064 0.69076 0.77321 0.0
H2366 H 0.04212 0.70082 0.70186 0.0
C2367 C 0.02733 0.66029 0.77857 0.0
H2368 H 1.02021 0.72829 0.74066 0.0
C2369 C 0.0397 0.64457 0.75668 0.0
C2370 C 0.04553 0.65901 0.7289 0.0
H2371 H 1.02338 0.64884 0.80004 0.0
H2372 H 0.0448 0.62117 0.76158 0.0
C2373 C 0.03784 0.68906 0.72305 0.0
C2374 C 0.31293 0.33452 0.43713 0.0
C2375 C 0.30794 0.29954 0.43366 0.0
H2376 H 0.32557 0.38052 0.41631 0.0
C2377 C 0.3119 0.285 0.40412 0.0
H2378 H 0.31021 0.34711 0.45905 0.0
C2379 C 0.32012 0.30412 0.37938 0.0
C2380 C 0.32526 0.33893 0.38288 0.0
H2381 H 0.30895 0.25841 0.4 0.0
H2382 H 0.32338 0.29153 0.35773 0.0
C2383 C 0.32168 0.3538 0.41237 0.0
C2384 C 0.38276 0.70454 0.49149 0.0
C2385 C 0.37389 0.70923 0.52096 0.0
H2386 H 0.41047 0.6847 0.46535 0.0
C2387 C 0.38815 0.69777 0.54782 0.0
H2388 H 0.37181 0.71254 0.47019 0.0
C2389 C 0.40998 0.68084 0.54491 0.0
C2390 C 0.41814 0.67494 0.51504 0.0
H2391 H 0.38116 0.69998 0.57057 0.0
H2392 H 0.41938 0.67091 0.56582 0.0
C2393 C 0.40465 0.68796 0.48861 0.0
C2394 C 0.95462 0.04261 0.57586 0.0
C2395 C 0.9475 1.00969 0.56126 0.0
H2396 H 0.98435 0.09082 0.58353 0.0
C2397 C 0.96795 0.99991 0.54499 0.0
H2398 H 0.93994 0.05089 0.58939 0.0
C2399 C 0.99387 0.02286 0.54196 0.0
C2400 C 1.00017 0.05633 0.5551 0.0
H2401 H 0.96346 0.97473 0.53371 0.0
H2402 H 1.00872 1.01455 0.52871 0.0
C2403 C 0.98022 0.0656 0.57247 0.0
C2404 C 0.92846 0.15116 0.25629 0.0
C2405 C 0.92195 0.14244 0.22299 0.0
H2406 H 0.91976 0.17883 0.29619 0.0
C2407 C 0.90552 0.15994 0.2037 0.0
H2408 H 0.93973 0.137 0.27185 0.0
C2409 C 0.89369 0.1837 0.21766 0.0
C2410 C 0.89772 0.18979 0.25114 0.0
H2411 H 0.89926 0.15276 0.17812 0.0
H2412 H 0.87916 0.19496 0.20238 0.0
C2413 C 0.91633 0.17452 0.27032 0.0
C2414 C 0.72726 0.18903 0.05687 0.0
C2415 C 0.72938 0.20776 0.03061 0.0
H2416 H 0.69955 0.15523 0.08134 0.0
C2417 C 0.70409 0.20564 1.00812 0.0
H2418 H 0.7463 0.19079 0.07508 0.0
C2419 C 0.67765 0.18417 1.01086 0.0
C2420 C 0.67524 0.16555 0.03726 0.0
H2421 H 0.70468 0.22058 0.98834 0.0
H2422 H 0.65879 0.18304 0.99262 0.0
C2423 C 0.70048 0.16858 0.06043 0.0
C2424 C 0.24315 0.44235 0.24148 0.0
C2425 C 0.22589 0.44578 0.26443 0.0
H2426 H 0.28122 0.42777 0.23158 0.0
C2427 C 0.23313 0.4352 0.29474 0.0
H2428 H 0.23851 0.45106 0.21823 0.0
C2429 C 0.25821 0.42407 0.30288 0.0
C2430 C 0.27646 0.42261 0.28079 0.0
H2431 H 0.22067 0.43835 0.3132 0.0
H2432 H 0.26343 0.4166 0.32661 0.0
C2433 C 0.26828 0.43066 0.2496 0.0
C2434 C 0.27328 0.48434 0.02139 0.0
C2435 C 0.29477 0.49122 0.04926 0.0
H2436 H 0.23462 0.49533 0.99625 0.0
C2437 C 0.29232 0.51303 0.07459 0.0
H2438 H 0.27537 0.4686 1.00106 0.0
C2439 C 0.26932 0.52855 0.07177 0.0
C2440 C 0.24853 0.52294 0.04333 0.0
H2441 H 0.30937 0.51998 0.09564 0.0
H2442 H 0.26886 0.5466 0.09107 0.0
C2443 C 0.25032 0.50006 1.01843 0.0
C2444 C 0.86451 0.96124 0.20695 0.0
C2445 C 0.89489 0.96954 0.21479 0.0
H2446 H 0.8247 0.93415 0.21874 0.0
C2447 C 0.90875 0.95247 0.2374 0.0
H2448 H 0.85343 0.97349 0.18898 0.0
C2449 C 0.89236 0.93012 0.25448 0.0
C2450 C 0.86205 0.92452 0.24894 0.0
H2451 H 0.93222 0.95831 0.24363 0.0
H2452 H 0.90342 0.91889 0.27335 0.0
C2453 C 0.84815 0.93892 0.224 0.0
C2454 C 0.69856 0.12964 0.78376 0.0
C2455 C 0.69888 0.10604 0.75918 0.0
H2456 H 0.72248 0.17487 0.81195 0.0
C2457 C 0.71897 0.11256 0.7389 0.0
H2458 H 0.68256 0.1247 0.79905 0.0
C2459 C 0.74145 0.14048 0.74606 0.0
C2460 C 0.74402 0.16206 0.77364 0.0
H2461 H 0.71887 0.09449 0.71931 0.0
H2462 H 0.75732 0.14441 0.73055 0.0
C2463 C 0.72149 0.15778 0.79129 0.0
loop_
_geom_bond_atom_site_label_1
_geom_bond_atom_site_label_2
_geom_bond_distance
_geom_bond_site_symmetry_2
_ccdc_geom_bond_type
Mn0 O5 2.095 . S
Mn0 O15 2.162 . S
Mn0 O16 2.297 . S
Mn0 O24 2.385 1_455 S
Mn0 O25 2.209 1_455 S
Mn0 O26 2.094 . S
Mn1 O6 2.121 . S
Mn1 N8 2.257 1_455 S
Mn1 N17 2.282 1_455 S
Mn1 O25 2.215 1_455 S
Mn1 O27 2.117 . S
C2 O24 1.234 . S
C2 O25 1.283 . S
C3 O15 1.281 . S
C3 O16 1.236 . S
C4 O26 1.240 . S
C4 O27 1.264 . S
O5 Mn0 2.095 . S
O5 C14 1.250 . S
O6 Mn1 2.121 . S
O6 C14 1.258 . S
C7 N8 1.326 1_455 S
C7 C11 1.460 1_455 S
C7 H13 0.929 . S
N8 Mn1 2.257 1_655 S
N8 C7 1.326 1_655 S
N8 C12 1.362 . S
C9 C10 1.258 . S
C9 C12 1.431 . S
C9 C29 1.449 . S
C10 C9 1.258 . S
C10 C11 1.477 . S
C10 H30 0.931 . S
C11 C7 1.460 1_655 S
C11 C10 1.477 . S
C11 H31 0.930 . S
C12 N8 1.362 . S
C12 C9 1.431 . S
C12 C22 1.476 . S
H13 C7 0.929 . S
C14 O5 1.250 . S
C14 O6 1.258 . S
O15 Mn0 2.162 . S
O15 C3 1.281 . S
O16 Mn0 2.297 . S
O16 C3 1.236 . S
N17 Mn1 2.282 1_655 S
N17 C18 1.328 . S
N17 C22 1.318 . S
C18 N17 1.328 . S
C18 C19 1.457 . S
C18 H23 0.929 . S
C19 C18 1.457 . S
C19 C20 1.291 . S
C19 H32 0.931 . S
C20 C19 1.291 . S
C20 C21 1.373 . S
C20 H33 0.929 . S
C21 C20 1.373 . S
C21 C22 1.396 . S
C21 C28 1.403 . S
C22 C12 1.476 . S
C22 N17 1.318 . S
C22 C21 1.396 . S
H23 C18 0.929 . S
O24 Mn0 2.385 1_655 S
O24 C2 1.234 . S
O25 Mn0 2.209 1_655 S
O25 Mn1 2.215 1_655 S
O25 C2 1.283 . S
O26 Mn0 2.094 . S
O26 C4 1.240 . S
O27 Mn1 2.117 . S
O27 C4 1.264 . S
C28 C21 1.403 . S
C28 C29 1.399 . S
C28 H34 0.929 . S
C29 C9 1.449 . S
C29 C28 1.399 . S
C29 H35 0.930 . S
H30 C10 0.931 . S
H31 C11 0.930 . S
H32 C19 0.931 . S
H33 C20 0.929 . S
H34 C28 0.929 . S
H35 C29 0.930 . S
Mn36 O41 2.095 . S
Mn36 O51 2.162 . S
Mn36 O52 2.297 . S
Mn36 O60 2.385 . S
Mn36 O61 2.209 . S
Mn36 O62 2.094 . S
Mn37 O42 2.121 . S
Mn37 N44 2.257 . S
Mn37 N53 2.282 . S
Mn37 O61 2.215 . S
Mn37 O63 2.117 . S
C38 O60 1.234 . S
C38 O61 1.283 . S
C39 O51 1.281 . S
C39 O52 1.236 . S
C40 O62 1.240 . S
C40 O63 1.264 . S
O41 Mn36 2.095 . S
O41 C50 1.250 . S
O42 Mn37 2.121 . S
O42 C50 1.258 . S
C43 N44 1.326 . S
C43 C47 1.460 . S
C43 H49 0.929 . S
N44 Mn37 2.257 . S
N44 C43 1.326 . S
N44 C48 1.362 . S
C45 C46 1.258 . S
C45 C48 1.431 . S
C45 C65 1.449 . S
C46 C45 1.258 . S
C46 C47 1.477 . S
C46 H66 0.931 . S
C47 C43 1.460 . S
C47 C46 1.477 . S
C47 H67 0.930 . S
C48 N44 1.362 . S
C48 C45 1.431 . S
C48 C58 1.476 . S
H49 C43 0.929 . S
C50 O41 1.250 . S
C50 O42 1.258 . S
O51 Mn36 2.162 . S
O51 C39 1.281 . S
O52 Mn36 2.297 . S
O52 C39 1.236 . S
N53 Mn37 2.282 . S
N53 C54 1.328 . S
N53 C58 1.318 . S
C54 N53 1.328 . S
C54 C55 1.457 . S
C54 H59 0.929 . S
C55 C54 1.457 . S
C55 C56 1.291 . S
C55 H68 0.931 . S
C56 C55 1.291 . S
C56 C57 1.373 . S
C56 H69 0.929 . S
C57 C56 1.373 . S
C57 C58 1.396 . S
C57 C64 1.403 . S
C58 C48 1.476 . S
C58 N53 1.318 . S
C58 C57 1.396 . S
H59 C54 0.929 . S
O60 Mn36 2.385 . S
O60 C38 1.234 . S
O61 Mn36 2.209 . S
O61 Mn37 2.215 . S
O61 C38 1.283 . S
O62 Mn36 2.094 . S
O62 C40 1.240 . S
O63 Mn37 2.117 . S
O63 C40 1.264 . S
C64 C57 1.403 . S
C64 C65 1.399 . S
C64 H70 0.929 . S
C65 C45 1.449 . S
C65 C64 1.399 . S
C65 H71 0.930 . S
H66 C46 0.931 . S
H67 C47 0.930 . S
H68 C55 0.931 . S
H69 C56 0.929 . S
H70 C64 0.929 . S
H71 C65 0.930 . S
Mn72 O77 2.095 . S
Mn72 O87 2.162 . S
Mn72 O88 2.297 . S
Mn72 O96 2.385 . S
Mn72 O97 2.209 . S
Mn72 O98 2.094 . S
Mn73 O78 2.121 . S
Mn73 N80 2.257 . S
Mn73 N89 2.282 . S
Mn73 O97 2.215 . S
Mn73 O99 2.117 . S
C74 O96 1.234 . S
C74 O97 1.283 . S
C75 O87 1.281 . S
C75 O88 1.236 . S
C76 O98 1.240 . S
C76 O99 1.264 . S
O77 Mn72 2.095 . S
O77 C86 1.250 . S
O78 Mn73 2.121 . S
O78 C86 1.258 . S
C79 N80 1.326 . S
C79 C83 1.460 . S
C79 H85 0.929 . S
N80 Mn73 2.257 . S
N80 C79 1.326 . S
N80 C84 1.362 . S
C81 C82 1.258 . S
C81 C84 1.431 . S
C81 C101 1.449 . S
C82 C81 1.258 . S
C82 C83 1.477 . S
C82 H102 0.931 . S
C83 C79 1.460 . S
C83 C82 1.477 . S
C83 H103 0.930 . S
C84 N80 1.362 . S
C84 C81 1.431 . S
C84 C94 1.476 . S
H85 C79 0.929 . S
C86 O77 1.250 . S
C86 O78 1.258 . S
O87 Mn72 2.162 . S
O87 C75 1.281 . S
O88 Mn72 2.297 . S
O88 C75 1.236 . S
N89 Mn73 2.282 . S
N89 C90 1.328 . S
N89 C94 1.318 . S
C90 N89 1.328 . S
C90 C91 1.457 . S
C90 H95 0.929 . S
C91 C90 1.457 . S
C91 C92 1.291 . S
C91 H104 0.931 . S
C92 C91 1.291 . S
C92 C93 1.373 . S
C92 H105 0.929 . S
C93 C92 1.373 . S
C93 C94 1.396 . S
C93 C100 1.403 . S
C94 C84 1.476 . S
C94 N89 1.318 . S
C94 C93 1.396 . S
H95 C90 0.929 . S
O96 Mn72 2.385 . S
O96 C74 1.234 . S
O97 Mn72 2.209 . S
O97 Mn73 2.215 . S
O97 C74 1.283 . S
O98 Mn72 2.094 . S
O98 C76 1.240 . S
O99 Mn73 2.117 . S
O99 C76 1.264 . S
C100 C93 1.403 . S
C100 C101 1.399 . S
C100 H106 0.929 . S
C101 C81 1.449 . S
C101 C100 1.399 . S
C101 H107 0.930 . S
H102 C82 0.931 . S
H103 C83 0.930 . S
H104 C91 0.931 . S
H105 C92 0.929 . S
H106 C100 0.929 . S
H107 C101 0.930 . S
Mn108 O113 2.095 . S
Mn108 O123 2.162 . S
Mn108 O124 2.297 . S
Mn108 O132 2.385 . S
Mn108 O133 2.209 . S
Mn108 O134 2.094 . S
Mn109 O114 2.121 . S
Mn109 N116 2.257 . S
Mn109 N125 2.282 . S
Mn109 O133 2.215 . S
Mn109 O135 2.117 . S
C110 O132 1.234 . S
C110 O133 1.283 . S
C111 O123 1.281 . S
C111 O124 1.236 . S
C112 O134 1.240 . S
C112 O135 1.264 . S
O113 Mn108 2.095 . S
O113 C122 1.250 . S
O114 Mn109 2.121 . S
O114 C122 1.258 . S
C115 N116 1.326 . S
C115 C119 1.460 1_554 S
C115 H121 0.929 . S
N116 Mn109 2.257 . S
N116 C115 1.326 . S
N116 C120 1.362 . S
C117 C118 1.258 1_554 S
C117 C120 1.431 . S
C117 C137 1.449 1_554 S
C118 C117 1.258 1_556 S
C118 C119 1.477 . S
C118 H138 0.931 . S
C119 C115 1.460 1_556 S
C119 C118 1.477 . S
C119 H139 0.930 . S
C120 N116 1.362 . S
C120 C117 1.431 . S
C120 C130 1.476 . S
H121 C115 0.929 . S
C122 O113 1.250 . S
C122 O114 1.258 . S
O123 Mn108 2.162 . S
O123 C111 1.281 . S
O124 Mn108 2.297 . S
O124 C111 1.236 . S
N125 Mn109 2.282 . S
N125 C126 1.328 . S
N125 C130 1.318 . S
C126 N125 1.328 . S
C126 C127 1.457 . S
C126 H131 0.929 . S
C127 C126 1.457 . S
C127 C128 1.291 . S
C127 H140 0.931 . S
C128 C127 1.291 . S
C128 C129 1.373 . S
C128 H141 0.929 . S
C129 C128 1.373 . S
C129 C130 1.396 . S
C129 C136 1.403 . S
C130 C120 1.476 . S
C130 N125 1.318 . S
C130 C129 1.396 . S
H131 C126 0.929 . S
O132 Mn108 2.385 . S
O132 C110 1.234 . S
O133 Mn108 2.209 . S
O133 Mn109 2.215 . S
O133 C110 1.283 . S
O134 Mn108 2.094 . S
O134 C112 1.240 . S
O135 Mn109 2.117 . S
O135 C112 1.264 . S
C136 C129 1.403 . S
C136 C137 1.399 1_554 S
C136 H142 0.929 . S
C137 C117 1.449 1_556 S
C137 C136 1.399 1_556 S
C137 H143 0.930 . S
H138 C118 0.931 . S
H139 C119 0.930 . S
H140 C127 0.931 . S
H141 C128 0.929 . S
H142 C136 0.929 . S
H143 C137 0.930 . S
Mn144 O149 2.095 . S
Mn144 O159 2.162 . S
Mn144 O160 2.297 . S
Mn144 O168 2.385 . S
Mn144 O169 2.209 . S
Mn144 O170 2.094 . S
Mn145 O150 2.121 . S
Mn145 N152 2.257 . S
Mn145 N161 2.282 . S
Mn145 O169 2.215 . S
Mn145 O171 2.117 . S
C146 O168 1.234 . S
C146 O169 1.283 . S
C147 O159 1.281 . S
C147 O160 1.236 . S
C148 O170 1.240 . S
C148 O171 1.264 . S
O149 Mn144 2.095 . S
O149 C158 1.250 . S
O150 Mn145 2.121 . S
O150 C158 1.258 . S
C151 N152 1.326 . S
C151 C155 1.460 1_554 S
C151 H157 0.929 . S
N152 Mn145 2.257 . S
N152 C151 1.326 . S
N152 C156 1.362 . S
C153 C154 1.258 . S
C153 C156 1.431 1_556 S
C153 C173 1.449 . S
C154 C153 1.258 . S
C154 C155 1.477 . S
C154 H174 0.931 . S
C155 C151 1.460 1_556 S
C155 C154 1.477 . S
C155 H175 0.930 . S
C156 N152 1.362 . S
C156 C153 1.431 1_554 S
C156 C166 1.476 . S
H157 C151 0.929 . S
C158 O149 1.250 . S
C158 O150 1.258 . S
O159 Mn144 2.162 . S
O159 C147 1.281 . S
O160 Mn144 2.297 . S
O160 C147 1.236 . S
N161 Mn145 2.282 . S
N161 C162 1.328 . S
N161 C166 1.318 . S
C162 N161 1.328 . S
C162 C163 1.457 1_455 S
C162 H167 0.929 . S
C163 C162 1.457 1_655 S
C163 C164 1.291 . S
C163 H176 0.931 . S
C164 C163 1.291 . S
C164 C165 1.361 1_655 S
C164 H177 0.929 . S
C165 C164 1.361 1_455 S
C165 C166 1.405 . S
C165 C172 1.408 1_455 S
C166 C156 1.476 . S
C166 N161 1.318 . S
C166 C165 1.405 . S
H167 C162 0.929 . S
O168 Mn144 2.385 . S
O168 C146 1.234 . S
O169 Mn144 2.209 . S
O169 Mn145 2.215 . S
O169 C146 1.283 . S
O170 Mn144 2.094 . S
O170 C148 1.240 . S
O171 Mn145 2.117 . S
O171 C148 1.264 . S
C172 C165 1.408 1_655 S
C172 C173 1.399 1_654 S
C172 H178 0.929 1_554 S
C173 C153 1.449 . S
C173 C172 1.399 1_456 S
C173 H179 0.930 . S
H174 C154 0.931 . S
H175 C155 0.930 . S
H176 C163 0.931 . S
H177 C164 0.929 . S
H178 C172 0.929 1_556 S
H179 C173 0.930 . S
Mn180 O185 2.095 . S
Mn180 O195 2.162 . S
Mn180 O196 2.297 . S
Mn180 O204 2.385 . S
Mn180 O205 2.209 . S
Mn180 O206 2.094 . S
Mn181 O186 2.121 . S
Mn181 N188 2.257 . S
Mn181 N197 2.282 . S
Mn181 O205 2.215 . S
Mn181 O207 2.117 . S
C182 O204 1.234 . S
C182 O205 1.283 . S
C183 O195 1.281 . S
C183 O196 1.236 . S
C184 O206 1.240 . S
C184 O207 1.264 . S
O185 Mn180 2.095 . S
O185 C194 1.250 . S
O186 Mn181 2.121 . S
O186 C194 1.258 . S
C187 N188 1.326 . S
C187 C191 1.460 . S
C187 H193 0.929 . S
N188 Mn181 2.257 . S
N188 C187 1.326 . S
N188 C192 1.362 . S
C189 C190 1.258 . S
C189 C192 1.431 . S
C189 C209 1.449 . S
C190 C189 1.258 . S
C190 C191 1.477 . S
C190 H210 0.931 . S
C191 C187 1.460 . S
C191 C190 1.477 . S
C191 H211 0.930 . S
C192 N188 1.362 . S
C192 C189 1.431 . S
C192 C202 1.476 . S
H193 C187 0.929 . S
C194 O185 1.250 . S
C194 O186 1.258 . S
O195 Mn180 2.162 . S
O195 C183 1.281 . S
O196 Mn180 2.297 . S
O196 C183 1.236 . S
N197 Mn181 2.282 . S
N197 C198 1.328 . S
N197 C202 1.318 . S
C198 N197 1.328 . S
C198 C199 1.457 . S
C198 H203 0.929 . S
C199 C198 1.457 . S
C199 C200 1.291 . S
C199 H212 0.931 . S
C200 C199 1.291 . S
C200 C201 1.373 . S
C200 H213 0.929 . S
C201 C200 1.373 . S
C201 C202 1.396 . S
C201 C208 1.403 . S
C202 C192 1.476 . S
C202 N197 1.318 . S
C202 C201 1.396 . S
H203 C198 0.929 . S
O204 Mn180 2.385 . S
O204 C182 1.234 . S
O205 Mn180 2.209 . S
O205 Mn181 2.215 . S
O205 C182 1.283 . S
O206 Mn180 2.094 . S
O206 C184 1.240 . S
O207 Mn181 2.117 . S
O207 C184 1.264 . S
C208 C201 1.403 . S
C208 C209 1.399 . S
C208 H214 0.929 . S
C209 C189 1.449 . S
C209 C208 1.399 . S
C209 H215 0.930 . S
H210 C190 0.931 . S
H211 C191 0.930 . S
H212 C199 0.931 . S
H213 C200 0.929 . S
H214 C208 0.929 . S
H215 C209 0.930 . S
Mn216 O221 2.095 . S
Mn216 O231 2.162 . S
Mn216 O232 2.297 . S
Mn216 O240 2.385 . S
Mn216 O241 2.209 . S
Mn216 O242 2.094 . S
Mn217 O222 2.121 . S
Mn217 N224 2.257 . S
Mn217 N233 2.282 . S
Mn217 O241 2.215 . S
Mn217 O243 2.117 . S
C218 O240 1.234 . S
C218 O241 1.283 . S
C219 O231 1.281 . S
C219 O232 1.236 . S
C220 O242 1.240 . S
C220 O243 1.264 . S
O221 Mn216 2.095 . S
O221 C230 1.250 . S
O222 Mn217 2.121 . S
O222 C230 1.258 . S
C223 N224 1.326 . S
C223 C227 1.460 . S
C223 H229 0.929 . S
N224 Mn217 2.257 . S
N224 C223 1.326 . S
N224 C228 1.362 . S
C225 C226 1.258 . S
C225 C228 1.431 . S
C225 C245 1.449 . S
C226 C225 1.258 . S
C226 C227 1.477 . S
C226 H246 0.931 . S
C227 C223 1.460 . S
C227 C226 1.477 . S
C227 H247 0.930 . S
C228 N224 1.362 . S
C228 C225 1.431 . S
C228 C238 1.476 . S
H229 C223 0.929 . S
C230 O221 1.250 . S
C230 O222 1.258 . S
O231 Mn216 2.162 . S
O231 C219 1.281 . S
O232 Mn216 2.297 . S
O232 C219 1.236 . S
N233 Mn217 2.282 . S
N233 C234 1.328 . S
N233 C238 1.318 . S
C234 N233 1.328 . S
C234 C235 1.457 . S
C234 H239 0.929 . S
C235 C234 1.457 . S
C235 C236 1.291 . S
C235 H248 0.931 . S
C236 C235 1.291 . S
C236 C237 1.373 . S
C236 H249 0.929 . S
C237 C236 1.373 . S
C237 C238 1.396 . S
C237 C244 1.403 . S
C238 C228 1.476 . S
C238 N233 1.318 . S
C238 C237 1.396 . S
H239 C234 0.929 . S
O240 Mn216 2.385 . S
O240 C218 1.234 . S
O241 Mn216 2.209 . S
O241 Mn217 2.215 . S
O241 C218 1.283 . S
O242 Mn216 2.094 . S
O242 C220 1.240 . S
O243 Mn217 2.117 . S
O243 C220 1.264 . S
C244 C237 1.403 . S
C244 C245 1.399 . S
C244 H250 0.929 . S
C245 C225 1.449 . S
C245 C244 1.399 . S
C245 H251 0.930 . S
H246 C226 0.931 . S
H247 C227 0.930 . S
H248 C235 0.931 . S
H249 C236 0.929 . S
H250 C244 0.929 . S
H251 C245 0.930 . S
Mn252 O257 2.095 . S
Mn252 O267 2.162 . S
Mn252 O268 2.297 . S
Mn252 O276 2.385 1_455 S
Mn252 O277 2.209 1_455 S
Mn252 O278 2.094 . S
Mn253 O258 2.121 . S
Mn253 N260 2.261 . S
Mn253 N269 2.282 1_455 S
Mn253 O277 2.215 1_455 S
Mn253 O279 2.117 . S
C254 O276 1.234 . S
C254 O277 1.283 . S
C255 O267 1.281 . S
C255 O268 1.236 . S
C256 O278 1.240 . S
C256 O279 1.264 . S
O257 Mn252 2.095 . S
O257 C266 1.250 . S
O258 Mn253 2.121 . S
O258 C266 1.258 . S
C259 N260 1.342 . S
C259 C263 1.458 1_455 S
C259 H265 0.929 . S
N260 Mn253 2.261 . S
N260 C259 1.342 . S
N260 C264 1.342 1_455 S
C261 C262 1.258 . S
C261 C264 1.431 . S
C261 C281 1.449 . S
C262 C261 1.258 . S
C262 C263 1.482 . S
C262 H282 0.931 . S
C263 C259 1.458 1_655 S
C263 C262 1.482 . S
C263 H283 0.926 1_655 S
C264 N260 1.342 1_655 S
C264 C261 1.431 . S
C264 C274 1.476 . S
H265 C259 0.929 . S
C266 O257 1.250 . S
C266 O258 1.258 . S
O267 Mn252 2.162 . S
O267 C255 1.281 . S
O268 Mn252 2.297 . S
O268 C255 1.236 . S
N269 Mn253 2.282 1_655 S
N269 C270 1.328 . S
N269 C274 1.318 . S
C270 N269 1.328 . S
C270 C271 1.457 . S
C270 H275 0.929 . S
C271 C270 1.457 . S
C271 C272 1.291 . S
C271 H284 0.931 . S
C272 C271 1.291 . S
C272 C273 1.373 . S
C272 H285 0.929 . S
C273 C272 1.373 . S
C273 C274 1.396 . S
C273 C280 1.403 . S
C274 C264 1.476 . S
C274 N269 1.318 . S
C274 C273 1.396 . S
H275 C270 0.929 . S
O276 Mn252 2.385 1_655 S
O276 C254 1.234 . S
O277 Mn252 2.209 1_655 S
O277 Mn253 2.215 1_655 S
O277 C254 1.283 . S
O278 Mn252 2.094 . S
O278 C256 1.240 . S
O279 Mn253 2.117 . S
O279 C256 1.264 . S
C280 C273 1.403 . S
C280 C281 1.399 . S
C280 H286 0.929 . S
C281 C261 1.449 . S
C281 C280 1.399 . S
C281 H287 0.930 . S
H282 C262 0.931 . S
H283 C263 0.926 1_455 S
H284 C271 0.931 . S
H285 C272 0.929 . S
H286 C280 0.929 . S
H287 C281 0.930 . S
Mn288 O293 2.095 . S
Mn288 O303 2.162 . S
Mn288 O304 2.297 . S
Mn288 O312 2.385 . S
Mn288 O313 2.209 . S
Mn288 O314 2.094 . S
Mn289 O294 2.121 . S
Mn289 N296 2.257 . S
Mn289 N305 2.282 . S
Mn289 O313 2.215 . S
Mn289 O315 2.117 . S
C290 O312 1.234 . S
C290 O313 1.283 . S
C291 O303 1.281 . S
C291 O304 1.236 . S
C292 O314 1.240 . S
C292 O315 1.264 . S
O293 Mn288 2.095 . S
O293 C302 1.250 . S
O294 Mn289 2.121 . S
O294 C302 1.258 . S
C295 N296 1.326 . S
C295 C299 1.460 . S
C295 H301 0.929 . S
N296 Mn289 2.257 . S
N296 C295 1.326 . S
N296 C300 1.362 . S
C297 C298 1.258 . S
C297 C300 1.431 . S
C297 C317 1.449 . S
C298 C297 1.258 . S
C298 C299 1.477 . S
C298 H318 0.931 . S
C299 C295 1.460 . S
C299 C298 1.477 . S
C299 H319 0.930 . S
C300 N296 1.362 . S
C300 C297 1.431 . S
C300 C310 1.476 . S
H301 C295 0.929 . S
C302 O293 1.250 . S
C302 O294 1.258 . S
O303 Mn288 2.162 . S
O303 C291 1.281 . S
O304 Mn288 2.297 . S
O304 C291 1.236 . S
N305 Mn289 2.282 . S
N305 C306 1.328 . S
N305 C310 1.318 . S
C306 N305 1.328 . S
C306 C307 1.457 . S
C306 H311 0.929 . S
C307 C306 1.457 . S
C307 C308 1.291 . S
C307 H320 0.931 . S
C308 C307 1.291 . S
C308 C309 1.373 . S
C308 H321 0.929 . S
C309 C308 1.373 . S
C309 C310 1.396 . S
C309 C316 1.403 . S
C310 C300 1.476 . S
C310 N305 1.318 . S
C310 C309 1.396 . S
H311 C306 0.929 . S
O312 Mn288 2.385 . S
O312 C290 1.234 . S
O313 Mn288 2.209 . S
O313 Mn289 2.215 . S
O313 C290 1.283 . S
O314 Mn288 2.094 . S
O314 C292 1.240 . S
O315 Mn289 2.117 . S
O315 C292 1.264 . S
C316 C309 1.403 . S
C316 C317 1.399 . S
C316 H322 0.929 . S
C317 C297 1.449 . S
C317 C316 1.399 . S
C317 H323 0.930 . S
H318 C298 0.931 . S
H319 C299 0.930 . S
H320 C307 0.931 . S
H321 C308 0.929 . S
H322 C316 0.929 . S
H323 C317 0.930 . S
Mn324 O329 2.095 . S
Mn324 O339 2.162 . S
Mn324 O340 2.297 . S
Mn324 O348 2.385 . S
Mn324 O349 2.209 . S
Mn324 O350 2.094 . S
Mn325 O330 2.121 . S
Mn325 N332 2.257 . S
Mn325 N341 2.282 . S
Mn325 O349 2.215 . S
Mn325 O351 2.117 . S
C326 O348 1.234 . S
C326 O349 1.283 . S
C327 O339 1.281 . S
C327 O340 1.236 . S
C328 O350 1.240 . S
C328 O351 1.264 . S
O329 Mn324 2.095 . S
O329 C338 1.250 . S
O330 Mn325 2.121 . S
O330 C338 1.258 . S
C331 N332 1.326 . S
C331 C335 1.460 . S
C331 H337 0.929 . S
N332 Mn325 2.257 . S
N332 C331 1.326 . S
N332 C336 1.362 . S
C333 C334 1.258 . S
C333 C336 1.431 . S
C333 C353 1.449 . S
C334 C333 1.258 . S
C334 C335 1.477 . S
C334 H354 0.931 . S
C335 C331 1.460 . S
C335 C334 1.477 . S
C335 H355 0.930 . S
C336 N332 1.362 . S
C336 C333 1.431 . S
C336 C346 1.476 . S
H337 C331 0.929 . S
C338 O329 1.250 . S
C338 O330 1.258 . S
O339 Mn324 2.162 . S
O339 C327 1.281 . S
O340 Mn324 2.297 . S
O340 C327 1.236 . S
N341 Mn325 2.282 . S
N341 C342 1.328 . S
N341 C346 1.318 . S
C342 N341 1.328 . S
C342 C343 1.457 . S
C342 H347 0.929 . S
C343 C342 1.457 . S
C343 C344 1.291 . S
C343 H356 0.931 . S
C344 C343 1.291 . S
C344 C345 1.373 . S
C344 H357 0.929 . S
C345 C344 1.373 . S
C345 C346 1.396 . S
C345 C352 1.403 . S
C346 C336 1.476 . S
C346 N341 1.318 . S
C346 C345 1.396 . S
H347 C342 0.929 . S
O348 Mn324 2.385 . S
O348 C326 1.234 . S
O349 Mn324 2.209 . S
O349 Mn325 2.215 . S
O349 C326 1.283 . S
O350 Mn324 2.094 . S
O350 C328 1.240 . S
O351 Mn325 2.117 . S
O351 C328 1.264 . S
C352 C345 1.403 . S
C352 C353 1.399 . S
C352 H358 0.929 . S
C353 C333 1.449 . S
C353 C352 1.399 . S
C353 H359 0.930 . S
H354 C334 0.931 . S
H355 C335 0.930 . S
H356 C343 0.931 . S
H357 C344 0.929 . S
H358 C352 0.929 . S
H359 C353 0.930 . S
Mn360 O365 2.095 . S
Mn360 O375 2.162 . S
Mn360 O376 2.297 . S
Mn360 O384 2.385 . S
Mn360 O385 2.209 . S
Mn360 O386 2.094 . S
Mn361 O366 2.121 . S
Mn361 N368 2.257 . S
Mn361 N377 2.282 . S
Mn361 O385 2.215 . S
Mn361 O387 2.117 . S
C362 O384 1.234 . S
C362 O385 1.283 . S
C363 O375 1.281 . S
C363 O376 1.236 . S
C364 O386 1.240 . S
C364 O387 1.264 . S
O365 Mn360 2.095 . S
O365 C374 1.250 . S
O366 Mn361 2.121 . S
O366 C374 1.258 . S
C367 N368 1.326 . S
C367 C371 1.460 . S
C367 H373 0.929 . S
N368 Mn361 2.257 . S
N368 C367 1.326 . S
N368 C372 1.362 . S
C369 C370 1.258 . S
C369 C372 1.431 . S
C369 C389 1.449 . S
C370 C369 1.258 . S
C370 C371 1.477 . S
C370 H390 0.931 . S
C371 C367 1.460 . S
C371 C370 1.477 . S
C371 H391 0.930 . S
C372 N368 1.362 . S
C372 C369 1.431 . S
C372 C382 1.476 . S
H373 C367 0.929 . S
C374 O365 1.250 . S
C374 O366 1.258 . S
O375 Mn360 2.162 . S
O375 C363 1.281 . S
O376 Mn360 2.297 . S
O376 C363 1.236 . S
N377 Mn361 2.282 . S
N377 C378 1.328 . S
N377 C382 1.318 . S
C378 N377 1.328 . S
C378 C379 1.457 . S
C378 H383 0.929 . S
C379 C378 1.457 . S
C379 C380 1.291 . S
C379 H392 0.931 . S
C380 C379 1.291 . S
C380 C381 1.373 . S
C380 H393 0.929 . S
C381 C380 1.373 . S
C381 C382 1.396 . S
C381 C388 1.403 . S
C382 C372 1.476 . S
C382 N377 1.318 . S
C382 C381 1.396 . S
H383 C378 0.929 . S
O384 Mn360 2.385 . S
O384 C362 1.234 . S
O385 Mn360 2.209 . S
O385 Mn361 2.215 . S
O385 C362 1.283 . S
O386 Mn360 2.094 . S
O386 C364 1.240 . S
O387 Mn361 2.117 . S
O387 C364 1.264 . S
C388 C381 1.403 . S
C388 C389 1.399 . S
C388 H394 0.929 . S
C389 C369 1.449 . S
C389 C388 1.399 . S
C389 H395 0.930 . S
H390 C370 0.931 . S
H391 C371 0.930 . S
H392 C379 0.931 . S
H393 C380 0.929 . S
H394 C388 0.929 . S
H395 C389 0.930 . S
Mn396 O401 2.095 . S
Mn396 O411 2.162 . S
Mn396 O412 2.297 . S
Mn396 O420 2.385 . S
Mn396 O421 2.209 . S
Mn396 O422 2.094 . S
Mn397 O402 2.121 . S
Mn397 N404 2.257 . S
Mn397 N413 2.282 1_554 S
Mn397 O421 2.215 1_545 S
Mn397 O423 2.117 1_544 S
C398 O420 1.234 . S
C398 O421 1.283 . S
C399 O411 1.281 . S
C399 O412 1.236 . S
C400 O422 1.240 1_556 S
C400 O423 1.264 . S
O401 Mn396 2.095 . S
O401 C410 1.250 . S
O402 Mn397 2.121 . S
O402 C410 1.258 1_545 S
C403 N404 1.326 . S
C403 C407 1.460 . S
C403 H409 0.929 . S
N404 Mn397 2.257 . S
N404 C403 1.326 . S
N404 C408 1.362 . S
C405 C406 1.258 . S
C405 C408 1.431 . S
C405 C425 1.449 . S
C406 C405 1.258 . S
C406 C407 1.477 . S
C406 H426 0.931 . S
C407 C403 1.460 . S
C407 C406 1.477 . S
C407 H427 0.930 . S
C408 N404 1.362 . S
C408 C405 1.431 . S
C408 C418 1.476 1_554 S
H409 C403 0.929 . S
C410 O401 1.250 . S
C410 O402 1.258 1_565 S
O411 Mn396 2.162 . S
O411 C399 1.281 . S
O412 Mn396 2.297 . S
O412 C399 1.236 . S
N413 Mn397 2.282 1_556 S
N413 C414 1.328 1_545 S
N413 C418 1.318 . S
C414 N413 1.328 1_565 S
C414 C415 1.457 1_565 S
C414 H419 0.929 . S
C415 C414 1.457 1_545 S
C415 C416 1.291 . S
C415 H428 0.931 1_545 S
C416 C415 1.291 . S
C416 C417 1.373 . S
C416 H429 0.929 . S
C417 C416 1.373 . S
C417 C418 1.396 . S
C417 C424 1.403 . S
C418 C408 1.476 1_556 S
C418 N413 1.318 . S
C418 C417 1.396 . S
H419 C414 0.929 . S
O420 Mn396 2.385 . S
O420 C398 1.234 . S
O421 Mn396 2.209 . S
O421 Mn397 2.215 1_565 S
O421 C398 1.283 . S
O422 Mn396 2.094 . S
O422 C400 1.240 1_554 S
O423 Mn397 2.117 1_566 S
O423 C400 1.264 . S
C424 C417 1.403 . S
C424 C425 1.399 1_556 S
C424 H430 0.929 . S
C425 C405 1.449 . S
C425 C424 1.399 1_554 S
C425 H431 0.930 . S
H426 C406 0.931 . S
H427 C407 0.930 . S
H428 C415 0.931 1_565 S
H429 C416 0.929 . S
H430 C424 0.929 . S
H431 C425 0.930 . S
Mn432 O437 2.095 . S
Mn432 O447 2.162 . S
Mn432 O448 2.297 . S
Mn432 O456 2.385 . S
Mn432 O457 2.209 . S
Mn432 O458 2.094 1_554 S
Mn433 O438 2.121 1_556 S
Mn433 N440 2.257 1_556 S
Mn433 N449 2.282 . S
Mn433 O457 2.215 1_556 S
Mn433 O459 2.117 . S
C434 O456 1.234 . S
C434 O457 1.283 . S
C435 O447 1.281 . S
C435 O448 1.236 . S
C436 O458 1.240 . S
C436 O459 1.264 . S
O437 Mn432 2.095 . S
O437 C446 1.250 . S
O438 Mn433 2.121 1_554 S
O438 C446 1.258 . S
C439 N440 1.326 . S
C439 C443 1.460 . S
C439 H445 0.929 . S
N440 Mn433 2.257 1_554 S
N440 C439 1.326 . S
N440 C444 1.362 1_554 S
C441 C442 1.258 . S
C441 C444 1.431 1_554 S
C441 C461 1.449 1_554 S
C442 C441 1.258 . S
C442 C443 1.477 . S
C442 H462 0.931 . S
C443 C439 1.460 . S
C443 C442 1.477 . S
C443 H463 0.930 . S
C444 N440 1.362 1_556 S
C444 C441 1.431 1_556 S
C444 C454 1.476 . S
H445 C439 0.929 . S
C446 O437 1.250 . S
C446 O438 1.258 . S
O447 Mn432 2.162 . S
O447 C435 1.281 . S
O448 Mn432 2.297 . S
O448 C435 1.236 . S
N449 Mn433 2.282 . S
N449 C450 1.328 . S
N449 C454 1.318 . S
C450 N449 1.328 . S
C450 C451 1.457 . S
C450 H455 0.929 . S
C451 C450 1.457 . S
C451 C452 1.291 . S
C451 H464 0.931 . S
C452 C451 1.291 . S
C452 C453 1.373 . S
C452 H465 0.929 . S
C453 C452 1.373 . S
C453 C454 1.396 . S
C453 C460 1.403 . S
C454 C444 1.476 . S
C454 N449 1.318 . S
C454 C453 1.396 . S
H455 C450 0.929 . S
O456 Mn432 2.385 . S
O456 C434 1.234 . S
O457 Mn432 2.209 . S
O457 Mn433 2.215 1_554 S
O457 C434 1.283 . S
O458 Mn432 2.094 1_556 S
O458 C436 1.240 . S
O459 Mn433 2.117 . S
O459 C436 1.264 . S
C460 C453 1.403 . S
C460 C461 1.399 . S
C460 H466 0.929 . S
C461 C441 1.449 1_556 S
C461 C460 1.399 . S
C461 H467 0.930 . S
H462 C442 0.931 . S
H463 C443 0.930 . S
H464 C451 0.931 . S
H465 C452 0.929 . S
H466 C460 0.929 . S
H467 C461 0.930 . S
Mn468 O473 2.095 1_554 S
Mn468 O483 2.162 . S
Mn468 O484 2.297 . S
Mn468 O492 2.385 . S
Mn468 O493 2.209 1_554 S
Mn468 O494 2.094 1_554 S
Mn469 O474 2.121 . S
Mn469 N476 2.257 . S
Mn469 N485 2.282 . S
Mn469 O493 2.215 . S
Mn469 O495 2.117 . S
C470 O492 1.234 1_556 S
C470 O493 1.283 . S
C471 O483 1.281 . S
C471 O484 1.236 . S
C472 O494 1.240 . S
C472 O495 1.264 . S
O473 Mn468 2.095 1_556 S
O473 C482 1.250 . S
O474 Mn469 2.121 . S
O474 C482 1.258 . S
C475 N476 1.326 . S
C475 C479 1.460 . S
C475 H481 0.929 . S
N476 Mn469 2.257 . S
N476 C475 1.326 . S
N476 C480 1.362 . S
C477 C478 1.258 . S
C477 C480 1.431 . S
C477 C497 1.449 . S
C478 C477 1.258 . S
C478 C479 1.477 . S
C478 H498 0.931 . S
C479 C475 1.460 . S
C479 C478 1.477 . S
C479 H499 0.930 . S
C480 N476 1.362 . S
C480 C477 1.431 . S
C480 C490 1.476 . S
H481 C475 0.929 . S
C482 O473 1.250 . S
C482 O474 1.258 . S
O483 Mn468 2.162 . S
O483 C471 1.281 . S
O484 Mn468 2.297 . S
O484 C471 1.236 . S
N485 Mn469 2.282 . S
N485 C486 1.328 . S
N485 C490 1.318 . S
C486 N485 1.328 . S
C486 C487 1.457 . S
C486 H491 0.929 . S
C487 C486 1.457 . S
C487 C488 1.291 . S
C487 H500 0.931 . S
C488 C487 1.291 . S
C488 C489 1.373 . S
C488 H501 0.929 . S
C489 C488 1.373 . S
C489 C490 1.396 . S
C489 C496 1.403 . S
C490 C480 1.476 . S
C490 N485 1.318 . S
C490 C489 1.396 . S
H491 C486 0.929 . S
O492 Mn468 2.385 . S
O492 C470 1.234 1_554 S
O493 Mn468 2.209 1_556 S
O493 Mn469 2.215 . S
O493 C470 1.283 . S
O494 Mn468 2.094 1_556 S
O494 C472 1.240 . S
O495 Mn469 2.117 . S
O495 C472 1.264 . S
C496 C489 1.403 . S
C496 C497 1.399 . S
C496 H502 0.929 . S
C497 C477 1.449 . S
C497 C496 1.399 . S
C497 H503 0.930 . S
H498 C478 0.931 . S
H499 C479 0.930 . S
H500 C487 0.931 . S
H501 C488 0.929 . S
H502 C496 0.929 . S
H503 C497 0.930 . S
Mn504 O509 2.095 . S
Mn504 O519 2.162 . S
Mn504 O520 2.297 . S
Mn504 O528 2.385 . S
Mn504 O529 2.209 . S
Mn504 O530 2.094 . S
Mn505 O510 2.121 . S
Mn505 N512 2.257 . S
Mn505 N521 2.282 . S
Mn505 O529 2.215 . S
Mn505 O531 2.117 . S
C506 O528 1.234 . S
C506 O529 1.283 . S
C507 O519 1.281 . S
C507 O520 1.236 . S
C508 O530 1.240 . S
C508 O531 1.264 . S
O509 Mn504 2.095 . S
O509 C518 1.250 . S
O510 Mn505 2.121 . S
O510 C518 1.258 . S
C511 N512 1.326 . S
C511 C515 1.460 . S
C511 H517 0.929 . S
N512 Mn505 2.257 . S
N512 C511 1.326 . S
N512 C516 1.362 . S
C513 C514 1.258 . S
C513 C516 1.431 . S
C513 C533 1.449 . S
C514 C513 1.258 . S
C514 C515 1.477 . S
C514 H534 0.931 . S
C515 C511 1.460 . S
C515 C514 1.477 . S
C515 H535 0.930 . S
C516 N512 1.362 . S
C516 C513 1.431 . S
C516 C526 1.476 . S
H517 C511 0.929 . S
C518 O509 1.250 . S
C518 O510 1.258 . S
O519 Mn504 2.162 . S
O519 C507 1.281 . S
O520 Mn504 2.297 . S
O520 C507 1.236 . S
N521 Mn505 2.282 . S
N521 C522 1.328 . S
N521 C526 1.318 . S
C522 N521 1.328 . S
C522 C523 1.457 . S
C522 H527 0.929 . S
C523 C522 1.457 . S
C523 C524 1.291 . S
C523 H536 0.931 . S
C524 C523 1.291 . S
C524 C525 1.373 . S
C524 H537 0.929 . S
C525 C524 1.373 . S
C525 C526 1.396 . S
C525 C532 1.403 . S
C526 C516 1.476 . S
C526 N521 1.318 . S
C526 C525 1.396 . S
H527 C522 0.929 . S
O528 Mn504 2.385 . S
O528 C506 1.234 . S
O529 Mn504 2.209 . S
O529 Mn505 2.215 . S
O529 C506 1.283 . S
O530 Mn504 2.094 . S
O530 C508 1.240 . S
O531 Mn505 2.117 . S
O531 C508 1.264 . S
C532 C525 1.403 . S
C532 C533 1.399 . S
C532 H538 0.929 . S
C533 C513 1.449 . S
C533 C532 1.399 . S
C533 H539 0.930 . S
H534 C514 0.931 . S
H535 C515 0.930 . S
H536 C523 0.931 . S
H537 C524 0.929 . S
H538 C532 0.929 . S
H539 C533 0.930 . S
Mn540 O545 2.095 . S
Mn540 O555 2.162 . S
Mn540 O556 2.297 . S
Mn540 O564 2.385 . S
Mn540 O565 2.209 . S
Mn540 O566 2.094 . S
Mn541 O546 2.124 . S
Mn541 N548 2.257 1_565 S
Mn541 N557 2.282 1_565 S
Mn541 O565 2.215 . S
Mn541 O567 2.117 . S
C542 O564 1.234 . S
C542 O565 1.283 . S
C543 O555 1.281 . S
C543 O556 1.236 . S
C544 O566 1.240 . S
C544 O567 1.264 . S
O545 Mn540 2.095 . S
O545 C554 1.250 . S
O546 Mn541 2.124 . S
O546 C554 1.267 . S
C547 N548 1.326 . S
C547 C551 1.460 . S
C547 H553 0.929 . S
N548 Mn541 2.257 1_545 S
N548 C547 1.326 . S
N548 C552 1.362 . S
C549 C550 1.258 . S
C549 C552 1.431 . S
C549 C569 1.449 . S
C550 C549 1.258 . S
C550 C551 1.477 . S
C550 H570 0.931 . S
C551 C547 1.460 . S
C551 C550 1.477 . S
C551 H571 0.930 . S
C552 N548 1.362 . S
C552 C549 1.431 . S
C552 C562 1.476 . S
H553 C547 0.929 . S
C554 O545 1.250 . S
C554 O546 1.267 . S
O555 Mn540 2.162 . S
O555 C543 1.281 . S
O556 Mn540 2.297 . S
O556 C543 1.236 . S
N557 Mn541 2.282 1_545 S
N557 C558 1.328 1_545 S
N557 C562 1.318 . S
C558 N557 1.328 1_565 S
C558 C559 1.457 . S
C558 H563 0.929 . S
C559 C558 1.457 . S
C559 C560 1.291 1_565 S
C559 H572 0.931 . S
C560 C559 1.291 1_545 S
C560 C561 1.373 . S
C560 H573 0.929 . S
C561 C560 1.373 . S
C561 C562 1.396 . S
C561 C568 1.403 . S
C562 C552 1.476 . S
C562 N557 1.318 . S
C562 C561 1.396 . S
H563 C558 0.929 . S
O564 Mn540 2.385 . S
O564 C542 1.234 . S
O565 Mn540 2.209 . S
O565 Mn541 2.215 . S
O565 C542 1.283 . S
O566 Mn540 2.094 . S
O566 C544 1.240 . S
O567 Mn541 2.117 . S
O567 C544 1.264 . S
C568 C561 1.403 . S
C568 C569 1.399 . S
C568 H574 0.929 . S
C569 C549 1.449 . S
C569 C568 1.399 . S
C569 H575 0.930 . S
H570 C550 0.931 . S
H571 C551 0.930 . S
H572 C559 0.931 . S
H573 C560 0.929 . S
H574 C568 0.929 . S
H575 C569 0.930 . S
Mn576 O581 2.095 . S
Mn576 O591 2.162 . S
Mn576 O592 2.297 . S
Mn576 O600 2.385 1_545 S
Mn576 O601 2.209 . S
Mn576 O602 2.094 . S
Mn577 O582 2.121 . S
Mn577 N584 2.257 . S
Mn577 N593 2.282 1_545 S
Mn577 O601 2.215 . S
Mn577 O603 2.117 . S
C578 O600 1.234 . S
C578 O601 1.283 1_565 S
C579 O591 1.281 . S
C579 O592 1.236 . S
C580 O602 1.240 . S
C580 O603 1.264 . S
O581 Mn576 2.095 . S
O581 C590 1.250 . S
O582 Mn577 2.121 . S
O582 C590 1.258 . S
C583 N584 1.326 . S
C583 C587 1.460 . S
C583 H589 0.929 . S
N584 Mn577 2.257 . S
N584 C583 1.326 . S
N584 C588 1.362 1_545 S
C585 C586 1.258 . S
C585 C588 1.431 . S
C585 C605 1.449 . S
C586 C585 1.258 . S
C586 C587 1.477 1_565 S
C586 H606 0.931 . S
C587 C583 1.460 . S
C587 C586 1.477 1_545 S
C587 H607 0.930 . S
C588 N584 1.362 1_565 S
C588 C585 1.431 . S
C588 C598 1.476 . S
H589 C583 0.929 . S
C590 O581 1.250 . S
C590 O582 1.258 . S
O591 Mn576 2.162 . S
O591 C579 1.281 . S
O592 Mn576 2.297 . S
O592 C579 1.236 . S
N593 Mn577 2.282 1_565 S
N593 C594 1.328 . S
N593 C598 1.318 . S
C594 N593 1.328 . S
C594 C595 1.457 . S
C594 H599 0.929 . S
C595 C594 1.457 . S
C595 C596 1.291 . S
C595 H608 0.931 . S
C596 C595 1.291 . S
C596 C597 1.373 . S
C596 H609 0.929 . S
C597 C596 1.373 . S
C597 C598 1.396 . S
C597 C604 1.403 . S
C598 C588 1.476 . S
C598 N593 1.318 . S
C598 C597 1.396 . S
H599 C594 0.929 . S
O600 Mn576 2.385 1_565 S
O600 C578 1.234 . S
O601 Mn576 2.209 . S
O601 Mn577 2.215 . S
O601 C578 1.283 1_545 S
O602 Mn576 2.094 . S
O602 C580 1.240 . S
O603 Mn577 2.117 . S
O603 C580 1.264 . S
C604 C597 1.403 . S
C604 C605 1.399 . S
C604 H610 0.929 . S
C605 C585 1.449 . S
C605 C604 1.399 . S
C605 H611 0.930 . S
H606 C586 0.931 . S
H607 C587 0.930 . S
H608 C595 0.931 . S
H609 C596 0.929 . S
H610 C604 0.929 . S
H611 C605 0.930 . S
Mn612 O617 2.095 . S
Mn612 O627 2.162 . S
Mn612 O628 2.297 . S
Mn612 O636 2.385 . S
Mn612 O637 2.209 . S
Mn612 O638 2.094 . S
Mn613 O618 2.121 . S
Mn613 N620 2.257 . S
Mn613 N629 2.282 . S
Mn613 O637 2.215 . S
Mn613 O639 2.117 . S
C614 O636 1.234 . S
C614 O637 1.283 . S
C615 O627 1.281 . S
C615 O628 1.236 . S
C616 O638 1.240 . S
C616 O639 1.264 . S
O617 Mn612 2.095 . S
O617 C626 1.250 . S
O618 Mn613 2.121 . S
O618 C626 1.258 . S
C619 N620 1.326 . S
C619 C623 1.460 . S
C619 H625 0.929 . S
N620 Mn613 2.257 . S
N620 C619 1.326 . S
N620 C624 1.362 . S
C621 C622 1.258 . S
C621 C624 1.431 . S
C621 C641 1.449 . S
C622 C621 1.258 . S
C622 C623 1.477 . S
C622 H642 0.931 . S
C623 C619 1.460 . S
C623 C622 1.477 . S
C623 H643 0.930 . S
C624 N620 1.362 . S
C624 C621 1.431 . S
C624 C634 1.476 . S
H625 C619 0.929 . S
C626 O617 1.250 . S
C626 O618 1.258 . S
O627 Mn612 2.162 . S
O627 C615 1.281 . S
O628 Mn612 2.297 . S
O628 C615 1.236 . S
N629 Mn613 2.282 . S
N629 C630 1.328 . S
N629 C634 1.318 . S
C630 N629 1.328 . S
C630 C631 1.457 . S
C630 H635 0.929 . S
C631 C630 1.457 . S
C631 C632 1.291 . S
C631 H644 0.931 . S
C632 C631 1.291 . S
C632 C633 1.373 . S
C632 H645 0.929 . S
C633 C632 1.373 . S
C633 C634 1.396 . S
C633 C640 1.403 . S
C634 C624 1.476 . S
C634 N629 1.318 . S
C634 C633 1.396 . S
H635 C630 0.929 . S
O636 Mn612 2.385 . S
O636 C614 1.234 . S
O637 Mn612 2.209 . S
O637 Mn613 2.215 . S
O637 C614 1.283 . S
O638 Mn612 2.094 . S
O638 C616 1.240 . S
O639 Mn613 2.117 . S
O639 C616 1.264 . S
C640 C633 1.403 . S
C640 C641 1.399 . S
C640 H646 0.929 . S
C641 C621 1.449 . S
C641 C640 1.399 . S
C641 H647 0.930 . S
H642 C622 0.931 . S
H643 C623 0.930 . S
H644 C631 0.931 . S
H645 C632 0.929 . S
H646 C640 0.929 . S
H647 C641 0.930 . S
Mn648 O653 2.095 . S
Mn648 O663 2.162 . S
Mn648 O664 2.297 . S
Mn648 O672 2.385 . S
Mn648 O673 2.209 . S
Mn648 O674 2.094 . S
Mn649 O654 2.121 . S
Mn649 N656 2.257 . S
Mn649 N665 2.282 . S
Mn649 O673 2.215 . S
Mn649 O675 2.117 . S
C650 O672 1.234 . S
C650 O673 1.283 . S
C651 O663 1.281 . S
C651 O664 1.236 . S
C652 O674 1.240 . S
C652 O675 1.264 . S
O653 Mn648 2.095 . S
O653 C662 1.250 . S
O654 Mn649 2.121 . S
O654 C662 1.258 . S
C655 N656 1.326 . S
C655 C659 1.460 . S
C655 H661 0.929 . S
N656 Mn649 2.257 . S
N656 C655 1.326 . S
N656 C660 1.362 . S
C657 C658 1.258 . S
C657 C660 1.431 . S
C657 C677 1.449 . S
C658 C657 1.258 . S
C658 C659 1.477 . S
C658 H678 0.931 . S
C659 C655 1.460 . S
C659 C658 1.477 . S
C659 H679 0.930 . S
C660 N656 1.362 . S
C660 C657 1.431 . S
C660 C670 1.476 . S
H661 C655 0.929 . S
C662 O653 1.250 . S
C662 O654 1.258 . S
O663 Mn648 2.162 . S
O663 C651 1.281 . S
O664 Mn648 2.297 . S
O664 C651 1.236 . S
N665 Mn649 2.282 . S
N665 C666 1.328 . S
N665 C670 1.318 . S
C666 N665 1.328 . S
C666 C667 1.457 . S
C666 H671 0.929 . S
C667 C666 1.457 . S
C667 C668 1.291 . S
C667 H680 0.931 . S
C668 C667 1.291 . S
C668 C669 1.373 . S
C668 H681 0.929 . S
C669 C668 1.373 . S
C669 C670 1.396 . S
C669 C676 1.403 . S
C670 C660 1.476 . S
C670 N665 1.318 . S
C670 C669 1.396 . S
H671 C666 0.929 . S
O672 Mn648 2.385 . S
O672 C650 1.234 . S
O673 Mn648 2.209 . S
O673 Mn649 2.215 . S
O673 C650 1.283 . S
O674 Mn648 2.094 . S
O674 C652 1.240 . S
O675 Mn649 2.117 . S
O675 C652 1.264 . S
C676 C669 1.403 . S
C676 C677 1.399 . S
C676 H682 0.929 . S
C677 C657 1.449 . S
C677 C676 1.399 . S
C677 H683 0.930 . S
H678 C658 0.931 . S
H679 C659 0.930 . S
H680 C667 0.931 . S
H681 C668 0.929 . S
H682 C676 0.929 . S
H683 C677 0.930 . S
Mn684 O689 2.103 . S
Mn684 O699 2.161 . S
Mn684 O700 2.297 . S
Mn684 O708 2.377 1_565 S
Mn684 O709 2.206 1_565 S
Mn684 O710 2.094 . S
Mn685 O690 2.121 1_545 S
Mn685 N692 2.257 . S
Mn685 N701 2.282 . S
Mn685 O709 2.215 . S
Mn685 O711 2.117 . S
C686 O708 1.234 . S
C686 O709 1.283 . S
C687 O699 1.281 . S
C687 O700 1.236 . S
C688 O710 1.240 1_545 S
C688 O711 1.264 . S
O689 Mn684 2.103 . S
O689 C698 1.250 . S
O690 Mn685 2.121 1_565 S
O690 C698 1.258 . S
C691 N692 1.326 . S
C691 C695 1.460 . S
C691 H697 0.929 1_545 S
N692 Mn685 2.257 . S
N692 C691 1.326 . S
N692 C696 1.362 . S
C693 C694 1.258 . S
C693 C696 1.431 . S
C693 C713 1.449 . S
C694 C693 1.258 . S
C694 C695 1.477 . S
C694 H714 0.931 . S
C695 C691 1.460 . S
C695 C694 1.477 . S
C695 H715 0.930 . S
C696 N692 1.362 . S
C696 C693 1.431 . S
C696 C706 1.476 . S
H697 C691 0.929 1_565 S
C698 O689 1.250 . S
C698 O690 1.258 . S
O699 Mn684 2.161 . S
O699 C687 1.281 . S
O700 Mn684 2.297 . S
O700 C687 1.236 . S
N701 Mn685 2.282 . S
N701 C702 1.328 . S
N701 C706 1.318 . S
C702 N701 1.328 . S
C702 C703 1.457 . S
C702 H707 0.929 . S
C703 C702 1.457 . S
C703 C704 1.291 . S
C703 H716 0.931 . S
C704 C703 1.291 . S
C704 C705 1.373 . S
C704 H717 0.929 . S
C705 C704 1.373 . S
C705 C706 1.396 . S
C705 C712 1.403 . S
C706 C696 1.476 . S
C706 N701 1.318 . S
C706 C705 1.396 . S
H707 C702 0.929 . S
O708 Mn684 2.377 1_545 S
O708 C686 1.234 . S
O709 Mn684 2.206 1_545 S
O709 Mn685 2.215 . S
O709 C686 1.283 . S
O710 Mn684 2.094 . S
O710 C688 1.240 1_565 S
O711 Mn685 2.117 . S
O711 C688 1.264 . S
C712 C705 1.403 . S
C712 C713 1.399 . S
C712 H718 0.929 . S
C713 C693 1.449 . S
C713 C712 1.399 . S
C713 H719 0.930 . S
H714 C694 0.931 . S
H715 C695 0.930 . S
H716 C703 0.931 . S
H717 C704 0.929 . S
H718 C712 0.929 . S
H719 C713 0.930 . S
Mn720 O725 2.095 . S
Mn720 O735 2.162 . S
Mn720 O736 2.297 . S
Mn720 O744 2.385 . S
Mn720 O745 2.209 . S
Mn720 O746 2.094 1_554 S
Mn721 O726 2.121 . S
Mn721 N728 2.257 . S
Mn721 N737 2.282 . S
Mn721 O745 2.215 1_556 S
Mn721 O747 2.117 . S
C722 O744 1.234 . S
C722 O745 1.283 . S
C723 O735 1.281 . S
C723 O736 1.236 . S
C724 O746 1.240 . S
C724 O747 1.264 . S
O725 Mn720 2.095 . S
O725 C734 1.250 . S
O726 Mn721 2.121 . S
O726 C734 1.258 1_556 S
C727 N728 1.326 . S
C727 C731 1.460 . S
C727 H733 0.929 . S
N728 Mn721 2.257 . S
N728 C727 1.326 . S
N728 C732 1.362 . S
C729 C730 1.258 . S
C729 C732 1.431 . S
C729 C749 1.449 . S
C730 C729 1.258 . S
C730 C731 1.477 . S
C730 H750 0.931 . S
C731 C727 1.460 . S
C731 C730 1.477 . S
C731 H751 0.930 . S
C732 N728 1.362 . S
C732 C729 1.431 . S
C732 C742 1.476 . S
H733 C727 0.929 . S
C734 O725 1.250 . S
C734 O726 1.258 1_554 S
O735 Mn720 2.162 . S
O735 C723 1.281 . S
O736 Mn720 2.297 . S
O736 C723 1.236 . S
N737 Mn721 2.282 . S
N737 C738 1.328 . S
N737 C742 1.318 . S
C738 N737 1.328 . S
C738 C739 1.457 . S
C738 H743 0.929 . S
C739 C738 1.457 . S
C739 C740 1.291 . S
C739 H752 0.931 . S
C740 C739 1.291 . S
C740 C741 1.373 . S
C740 H753 0.929 . S
C741 C740 1.373 . S
C741 C742 1.396 . S
C741 C748 1.403 . S
C742 C732 1.476 . S
C742 N737 1.318 . S
C742 C741 1.396 . S
H743 C738 0.929 . S
O744 Mn720 2.385 . S
O744 C722 1.234 . S
O745 Mn720 2.209 . S
O745 Mn721 2.215 1_554 S
O745 C722 1.283 . S
O746 Mn720 2.094 1_556 S
O746 C724 1.240 . S
O747 Mn721 2.117 . S
O747 C724 1.264 . S
C748 C741 1.403 . S
C748 C749 1.399 . S
C748 H754 0.929 . S
C749 C729 1.449 . S
C749 C748 1.399 . S
C749 H755 0.930 . S
H750 C730 0.931 . S
H751 C731 0.930 . S
H752 C739 0.931 . S
H753 C740 0.929 . S
H754 C748 0.929 . S
H755 C749 0.930 . S
Mn756 O761 2.095 . S
Mn756 O771 2.162 1_655 S
Mn756 O772 2.297 . S
Mn756 O780 2.385 . S
Mn756 O781 2.209 . S
Mn756 O782 2.094 1_655 S
Mn757 O762 2.121 . S
Mn757 N764 2.257 . S
Mn757 N773 2.282 . S
Mn757 O781 2.215 . S
Mn757 O783 2.117 . S
C758 O780 1.234 . S
C758 O781 1.283 . S
C759 O771 1.281 1_655 S
C759 O772 1.236 . S
C760 O782 1.240 . S
C760 O783 1.264 1_455 S
O761 Mn756 2.095 . S
O761 C770 1.250 . S
O762 Mn757 2.121 . S
O762 C770 1.258 . S
C763 N764 1.326 . S
C763 C767 1.460 . S
C763 H769 0.929 . S
N764 Mn757 2.257 . S
N764 C763 1.326 . S
N764 C768 1.362 . S
C765 C766 1.258 . S
C765 C768 1.431 . S
C765 C785 1.449 . S
C766 C765 1.258 . S
C766 C767 1.477 . S
C766 H786 0.931 . S
C767 C763 1.460 . S
C767 C766 1.477 . S
C767 H787 0.930 . S
C768 N764 1.362 . S
C768 C765 1.431 . S
C768 C778 1.476 . S
H769 C763 0.929 . S
C770 O761 1.250 . S
C770 O762 1.258 . S
O771 Mn756 2.162 1_455 S
O771 C759 1.281 1_455 S
O772 Mn756 2.297 . S
O772 C759 1.236 . S
N773 Mn757 2.282 . S
N773 C774 1.328 . S
N773 C778 1.318 . S
C774 N773 1.328 . S
C774 C775 1.457 . S
C774 H779 0.929 . S
C775 C774 1.457 . S
C775 C776 1.291 . S
C775 H788 0.931 . S
C776 C775 1.291 . S
C776 C777 1.373 . S
C776 H789 0.929 . S
C777 C776 1.373 . S
C777 C778 1.396 . S
C777 C784 1.403 . S
C778 C768 1.476 . S
C778 N773 1.318 . S
C778 C777 1.396 . S
H779 C774 0.929 . S
O780 Mn756 2.385 . S
O780 C758 1.234 . S
O781 Mn756 2.209 . S
O781 Mn757 2.215 . S
O781 C758 1.283 . S
O782 Mn756 2.094 1_455 S
O782 C760 1.240 . S
O783 Mn757 2.117 . S
O783 C760 1.264 1_655 S
C784 C777 1.403 . S
C784 C785 1.399 . S
C784 H790 0.929 . S
C785 C765 1.449 . S
C785 C784 1.399 . S
C785 H791 0.930 . S
H786 C766 0.931 . S
H787 C767 0.930 . S
H788 C775 0.931 . S
H789 C776 0.929 . S
H790 C784 0.929 . S
H791 C785 0.930 . S
Mn792 O797 2.095 . S
Mn792 O807 2.162 . S
Mn792 O808 2.297 . S
Mn792 O816 2.385 . S
Mn792 O817 2.209 . S
Mn792 O818 2.094 . S
Mn793 O798 2.121 . S
Mn793 N800 2.257 . S
Mn793 N809 2.282 . S
Mn793 O817 2.215 . S
Mn793 O819 2.117 . S
C794 O816 1.234 . S
C794 O817 1.283 . S
C795 O807 1.281 . S
C795 O808 1.236 . S
C796 O818 1.240 . S
C796 O819 1.264 . S
O797 Mn792 2.095 . S
O797 C806 1.250 . S
O798 Mn793 2.121 . S
O798 C806 1.258 . S
C799 N800 1.326 . S
C799 C803 1.460 . S
C799 H805 0.929 . S
N800 Mn793 2.257 . S
N800 C799 1.326 . S
N800 C804 1.362 . S
C801 C802 1.258 . S
C801 C804 1.431 . S
C801 C821 1.449 . S
C802 C801 1.258 . S
C802 C803 1.477 . S
C802 H822 0.931 . S
C803 C799 1.460 . S
C803 C802 1.477 . S
C803 H823 0.930 . S
C804 N800 1.362 . S
C804 C801 1.431 . S
C804 C814 1.476 . S
H805 C799 0.929 . S
C806 O797 1.250 . S
C806 O798 1.258 . S
O807 Mn792 2.162 . S
O807 C795 1.281 . S
O808 Mn792 2.297 . S
O808 C795 1.236 . S
N809 Mn793 2.282 . S
N809 C810 1.328 . S
N809 C814 1.318 . S
C810 N809 1.328 . S
C810 C811 1.457 . S
C810 H815 0.929 . S
C811 C810 1.457 . S
C811 C812 1.291 . S
C811 H824 0.931 . S
C812 C811 1.291 . S
C812 C813 1.373 . S
C812 H825 0.929 . S
C813 C812 1.373 . S
C813 C814 1.396 . S
C813 C820 1.403 . S
C814 C804 1.476 . S
C814 N809 1.318 . S
C814 C813 1.396 . S
H815 C810 0.929 . S
O816 Mn792 2.385 . S
O816 C794 1.234 . S
O817 Mn792 2.209 . S
O817 Mn793 2.215 . S
O817 C794 1.283 . S
O818 Mn792 2.094 . S
O818 C796 1.240 . S
O819 Mn793 2.117 . S
O819 C796 1.264 . S
C820 C813 1.403 . S
C820 C821 1.399 . S
C820 H826 0.929 . S
C821 C801 1.449 . S
C821 C820 1.399 . S
C821 H827 0.930 . S
H822 C802 0.931 . S
H823 C803 0.930 . S
H824 C811 0.931 . S
H825 C812 0.929 . S
H826 C820 0.929 . S
H827 C821 0.930 . S
Mn828 O833 2.095 . S
Mn828 O843 2.162 . S
Mn828 O844 2.297 . S
Mn828 O852 2.385 . S
Mn828 O853 2.209 . S
Mn828 O854 2.094 . S
Mn829 O834 2.121 . S
Mn829 N836 2.257 . S
Mn829 N845 2.282 . S
Mn829 O853 2.215 . S
Mn829 O855 2.117 . S
C830 O852 1.234 . S
C830 O853 1.283 . S
C831 O843 1.281 . S
C831 O844 1.236 . S
C832 O854 1.240 . S
C832 O855 1.264 . S
O833 Mn828 2.095 . S
O833 C842 1.250 . S
O834 Mn829 2.121 . S
O834 C842 1.258 . S
C835 N836 1.326 . S
C835 C839 1.460 . S
C835 H841 0.929 . S
N836 Mn829 2.257 . S
N836 C835 1.326 . S
N836 C840 1.362 . S
C837 C838 1.258 . S
C837 C840 1.431 . S
C837 C857 1.449 . S
C838 C837 1.258 . S
C838 C839 1.477 . S
C838 H858 0.931 . S
C839 C835 1.460 . S
C839 C838 1.477 . S
C839 H859 0.930 . S
C840 N836 1.362 . S
C840 C837 1.431 . S
C840 C850 1.476 . S
H841 C835 0.929 . S
C842 O833 1.250 . S
C842 O834 1.258 . S
O843 Mn828 2.162 . S
O843 C831 1.281 . S
O844 Mn828 2.297 . S
O844 C831 1.236 . S
N845 Mn829 2.282 . S
N845 C846 1.328 . S
N845 C850 1.318 . S
C846 N845 1.328 . S
C846 C847 1.457 . S
C846 H851 0.929 . S
C847 C846 1.457 . S
C847 C848 1.291 . S
C847 H860 0.931 . S
C848 C847 1.291 . S
C848 C849 1.373 . S
C848 H861 0.929 . S
C849 C848 1.373 . S
C849 C850 1.396 . S
C849 C856 1.403 . S
C850 C840 1.476 . S
C850 N845 1.318 . S
C850 C849 1.396 . S
H851 C846 0.929 . S
O852 Mn828 2.385 . S
O852 C830 1.234 . S
O853 Mn828 2.209 . S
O853 Mn829 2.215 . S
O853 C830 1.283 . S
O854 Mn828 2.094 . S
O854 C832 1.240 . S
O855 Mn829 2.117 . S
O855 C832 1.264 . S
C856 C849 1.403 . S
C856 C857 1.399 . S
C856 H862 0.929 . S
C857 C837 1.449 . S
C857 C856 1.399 . S
C857 H863 0.930 . S
H858 C838 0.931 . S
H859 C839 0.930 . S
H860 C847 0.931 . S
H861 C848 0.929 . S
H862 C856 0.929 . S
H863 C857 0.930 . S
Pr864 C866 2.880 1_455 S
Pr864 O884 2.566 1_455 S
Pr864 O885 2.490 1_455 S
Pr864 O886 2.695 . S
Pr864 O887 2.512 . S
Pr864 O889 2.437 . S
Pr864 O892 2.436 1_556 S
Pr864 O894 2.438 1_556 S
Pr865 C875 2.880 . S
Pr865 O886 2.436 1_554 S
Pr865 O888 2.438 . S
Pr865 O890 2.562 . S
Pr865 O891 2.490 . S
Pr865 O892 2.695 . S
Pr865 O893 2.512 . S
Pr865 O895 2.437 . S
C866 Pr864 2.880 1_655 S
C866 C867 1.491 . S
C866 O884 1.269 . S
C866 O885 1.225 . S
C867 C866 1.491 . S
C867 C868 1.392 . S
C867 C872 1.356 . S
C868 C867 1.392 . S
C868 C869 1.368 . S
C868 H896 0.929 . S
C869 C868 1.368 . S
C869 C870 1.386 . S
C869 H897 0.929 . S
C870 C869 1.386 . S
C870 C871 1.373 . S
C871 C870 1.373 . S
C871 C872 1.409 . S
C871 H898 0.931 . S
C872 C867 1.356 . S
C872 C871 1.409 . S
C872 H899 0.930 . S
C873 O886 1.270 . S
C873 O887 1.248 . S
C874 O888 1.267 . S
C874 O889 1.278 1_554 S
C875 Pr865 2.880 . S
C875 C876 1.491 . S
C875 O890 1.254 . S
C875 O891 1.225 . S
C876 C875 1.491 . S
C876 C877 1.392 . S
C876 C881 1.356 . S
C877 C876 1.392 . S
C877 C878 1.368 . S
C877 H900 0.929 . S
C878 C877 1.368 . S
C878 C879 1.386 . S
C878 H901 0.929 . S
C879 C878 1.386 . S
C879 C880 1.373 . S
C880 C879 1.373 . S
C880 C881 1.409 . S
C880 H902 0.931 . S
C881 C876 1.356 . S
C881 C880 1.409 . S
C881 H903 0.930 . S
C882 O892 1.270 . S
C882 O893 1.248 . S
C883 O894 1.267 . S
C883 O895 1.278 . S
O884 Pr864 2.566 1_655 S
O884 C866 1.269 . S
O885 Pr864 2.490 1_655 S
O885 C866 1.225 . S
O886 Pr864 2.695 . S
O886 Pr865 2.436 1_556 S
O886 C873 1.270 . S
O887 Pr864 2.512 . S
O887 C873 1.248 . S
O888 Pr865 2.438 . S
O888 C874 1.267 . S
O889 Pr864 2.437 . S
O889 C874 1.278 1_556 S
O890 Pr865 2.562 . S
O890 C875 1.254 . S
O891 Pr865 2.490 . S
O891 C875 1.225 . S
O892 Pr864 2.436 1_554 S
O892 Pr865 2.695 . S
O892 C882 1.270 . S
O893 Pr865 2.512 . S
O893 C882 1.248 . S
O894 Pr864 2.438 1_554 S
O894 C883 1.267 . S
O895 Pr865 2.437 . S
O895 C883 1.278 . S
H896 C868 0.929 . S
H897 C869 0.929 . S
H898 C871 0.931 . S
H899 C872 0.930 . S
H900 C877 0.929 . S
H901 C878 0.929 . S
H902 C880 0.931 . S
H903 C881 0.930 . S
Pr904 C906 2.880 . S
Pr904 O924 2.562 . S
Pr904 O925 2.490 . S
Pr904 O926 2.695 . S
Pr904 O927 2.512 . S
Pr904 O929 2.437 . S
Pr904 O932 2.436 . S
Pr904 O934 2.438 . S
Pr905 C915 2.880 . S
Pr905 O926 2.436 . S
Pr905 O928 2.438 . S
Pr905 O930 2.562 . S
Pr905 O931 2.490 . S
Pr905 O932 2.695 . S
Pr905 O933 2.512 . S
Pr905 O935 2.437 . S
C906 Pr904 2.880 . S
C906 C907 1.491 . S
C906 O924 1.254 . S
C906 O925 1.225 . S
C907 C906 1.491 . S
C907 C908 1.392 1_565 S
C907 C912 1.356 . S
C908 C907 1.392 1_545 S
C908 C909 1.368 . S
C908 H936 0.929 . S
C909 C908 1.368 . S
C909 C910 1.386 . S
C909 H937 0.929 . S
C910 C909 1.386 . S
C910 C911 1.373 . S
C911 C910 1.373 . S
C911 C912 1.409 1_545 S
C911 H938 0.931 . S
C912 C907 1.356 . S
C912 C911 1.409 1_565 S
C912 H939 0.930 . S
C913 O926 1.270 . S
C913 O927 1.248 . S
C914 O928 1.267 . S
C914 O929 1.278 . S
C915 Pr905 2.880 . S
C915 C916 1.491 . S
C915 O930 1.254 . S
C915 O931 1.225 . S
C916 C915 1.491 . S
C916 C917 1.392 . S
C916 C921 1.356 . S
C917 C916 1.392 . S
C917 C918 1.368 . S
C917 H940 0.929 . S
C918 C917 1.368 . S
C918 C919 1.386 . S
C918 H941 0.929 . S
C919 C918 1.386 . S
C919 C920 1.373 . S
C920 C919 1.373 . S
C920 C921 1.409 . S
C920 H942 0.931 . S
C921 C916 1.356 . S
C921 C920 1.409 . S
C921 H943 0.930 . S
C922 O932 1.270 . S
C922 O933 1.248 . S
C923 O934 1.267 . S
C923 O935 1.278 . S
O924 Pr904 2.562 . S
O924 C906 1.254 . S
O925 Pr904 2.490 . S
O925 C906 1.225 . S
O926 Pr904 2.695 . S
O926 Pr905 2.436 . S
O926 C913 1.270 . S
O927 Pr904 2.512 . S
O927 C913 1.248 . S
O928 Pr905 2.438 . S
O928 C914 1.267 . S
O929 Pr904 2.437 . S
O929 C914 1.278 . S
O930 Pr905 2.562 . S
O930 C915 1.254 . S
O931 Pr905 2.490 . S
O931 C915 1.225 . S
O932 Pr904 2.436 . S
O932 Pr905 2.695 . S
O932 C922 1.270 . S
O933 Pr905 2.512 . S
O933 C922 1.248 . S
O934 Pr904 2.438 . S
O934 C923 1.267 . S
O935 Pr905 2.437 . S
O935 C923 1.278 . S
H936 C908 0.929 . S
H937 C909 0.929 . S
H938 C911 0.931 . S
H939 C912 0.930 . S
H940 C917 0.929 . S
H941 C918 0.929 . S
H942 C920 0.931 . S
H943 C921 0.930 . S
Pr944 C946 2.880 . S
Pr944 O964 2.562 . S
Pr944 O965 2.490 . S
Pr944 O966 2.695 . S
Pr944 O967 2.512 . S
Pr944 O969 2.437 . S
Pr944 O972 2.436 . S
Pr944 O974 2.438 . S
Pr945 C955 2.880 . S
Pr945 O966 2.436 . S
Pr945 O968 2.438 . S
Pr945 O970 2.562 . S
Pr945 O971 2.490 . S
Pr945 O972 2.695 . S
Pr945 O973 2.512 . S
Pr945 O975 2.437 . S
C946 Pr944 2.880 . S
C946 C947 1.491 . S
C946 O964 1.254 . S
C946 O965 1.225 . S
C947 C946 1.491 . S
C947 C948 1.392 . S
C947 C952 1.356 . S
C948 C947 1.392 . S
C948 C949 1.368 . S
C948 H976 0.929 . S
C949 C948 1.368 . S
C949 C950 1.386 . S
C949 H977 0.929 . S
C950 C949 1.386 . S
C950 C951 1.373 . S
C951 C950 1.373 . S
C951 C952 1.409 . S
C951 H978 0.942 . S
C952 C947 1.356 . S
C952 C951 1.409 . S
C952 H979 0.930 . S
C953 O966 1.270 . S
C953 O967 1.248 . S
C954 O968 1.267 . S
C954 O969 1.278 . S
C955 Pr945 2.880 . S
C955 C956 1.491 . S
C955 O970 1.254 . S
C955 O971 1.225 . S
C956 C955 1.491 . S
C956 C957 1.392 . S
C956 C961 1.356 . S
C957 C956 1.392 . S
C957 C958 1.368 . S
C957 H980 0.929 . S
C958 C957 1.368 . S
C958 C959 1.386 . S
C958 H981 0.929 . S
C959 C958 1.386 . S
C959 C960 1.373 . S
C960 C959 1.373 . S
C960 C961 1.409 . S
C960 H982 0.931 . S
C961 C956 1.356 . S
C961 C960 1.409 . S
C961 H983 0.930 . S
C962 O972 1.270 . S
C962 O973 1.248 . S
C963 O974 1.267 . S
C963 O975 1.278 . S
O964 Pr944 2.562 . S
O964 C946 1.254 . S
O965 Pr944 2.490 . S
O965 C946 1.225 . S
O966 Pr944 2.695 . S
O966 Pr945 2.436 . S
O966 C953 1.270 . S
O967 Pr944 2.512 . S
O967 C953 1.248 . S
O968 Pr945 2.438 . S
O968 C954 1.267 . S
O969 Pr944 2.437 . S
O969 C954 1.278 . S
O970 Pr945 2.562 . S
O970 C955 1.254 . S
O971 Pr945 2.490 . S
O971 C955 1.225 . S
O972 Pr944 2.436 . S
O972 Pr945 2.695 . S
O972 C962 1.270 . S
O973 Pr945 2.512 . S
O973 C962 1.248 . S
O974 Pr944 2.438 . S
O974 C963 1.267 . S
O975 Pr945 2.437 . S
O975 C963 1.278 . S
H976 C948 0.929 . S
H977 C949 0.929 . S
H978 C951 0.942 . S
H979 C952 0.930 . S
H980 C957 0.929 . S
H981 C958 0.929 . S
H982 C960 0.931 . S
H983 C961 0.930 . S
Pr984 C986 2.880 . S
Pr984 O1004 2.562 . S
Pr984 O1005 2.490 . S
Pr984 O1006 2.695 . S
Pr984 O1007 2.512 . S
Pr984 O1009 2.437 . S
Pr984 O1012 2.436 . S
Pr984 O1014 2.438 . S
Pr985 C995 2.880 . S
Pr985 O1006 2.436 . S
Pr985 O1008 2.438 . S
Pr985 O1010 2.562 . S
Pr985 O1011 2.490 . S
Pr985 O1012 2.695 . S
Pr985 O1013 2.512 . S
Pr985 O1015 2.437 . S
C986 Pr984 2.880 . S
C986 C987 1.491 . S
C986 O1004 1.254 . S
C986 O1005 1.225 . S
C987 C986 1.491 . S
C987 C988 1.392 . S
C987 C992 1.356 . S
C988 C987 1.392 . S
C988 C989 1.368 . S
C988 H1016 0.929 . S
C989 C988 1.368 . S
C989 C990 1.386 . S
C989 H1017 0.929 . S
C990 C989 1.386 . S
C990 C991 1.373 . S
C991 C990 1.373 . S
C991 C992 1.409 . S
C991 H1018 0.931 . S
C992 C987 1.356 . S
C992 C991 1.409 . S
C992 H1019 0.930 . S
C993 O1006 1.270 . S
C993 O1007 1.248 . S
C994 O1008 1.267 . S
C994 O1009 1.278 . S
C995 Pr985 2.880 . S
C995 C996 1.491 . S
C995 O1010 1.254 . S
C995 O1011 1.225 . S
C996 C995 1.491 . S
C996 C997 1.392 . S
C996 C1001 1.356 . S
C997 C996 1.392 . S
C997 C998 1.368 . S
C997 H1020 0.929 . S
C998 C997 1.368 . S
C998 C999 1.386 . S
C998 H1021 0.929 . S
C999 C998 1.386 . S
C999 C1000 1.373 . S
C1000 C999 1.373 . S
C1000 C1001 1.409 . S
C1000 H1022 0.931 . S
C1001 C996 1.356 . S
C1001 C1000 1.409 . S
C1001 H1023 0.930 . S
C1002 O1012 1.270 . S
C1002 O1013 1.248 . S
C1003 O1014 1.267 . S
C1003 O1015 1.278 . S
O1004 Pr984 2.562 . S
O1004 C986 1.254 . S
O1005 Pr984 2.490 . S
O1005 C986 1.225 . S
O1006 Pr984 2.695 . S
O1006 Pr985 2.436 . S
O1006 C993 1.270 . S
O1007 Pr984 2.512 . S
O1007 C993 1.248 . S
O1008 Pr985 2.438 . S
O1008 C994 1.267 . S
O1009 Pr984 2.437 . S
O1009 C994 1.278 . S
O1010 Pr985 2.562 . S
O1010 C995 1.254 . S
O1011 Pr985 2.490 . S
O1011 C995 1.225 . S
O1012 Pr984 2.436 . S
O1012 Pr985 2.695 . S
O1012 C1002 1.270 . S
O1013 Pr985 2.512 . S
O1013 C1002 1.248 . S
O1014 Pr984 2.438 . S
O1014 C1003 1.267 . S
O1015 Pr985 2.437 . S
O1015 C1003 1.278 . S
H1016 C988 0.929 . S
H1017 C989 0.929 . S
H1018 C991 0.931 . S
H1019 C992 0.930 . S
H1020 C997 0.929 . S
H1021 C998 0.929 . S
H1022 C1000 0.931 . S
H1023 C1001 0.930 . S
Pr1024 C1026 2.880 . S
Pr1024 O1044 2.562 . S
Pr1024 O1045 2.490 . S
Pr1024 O1046 2.695 . S
Pr1024 O1047 2.512 . S
Pr1024 O1049 2.437 . S
Pr1024 O1052 2.436 . S
Pr1024 O1054 2.438 . S
Pr1025 C1035 2.880 . S
Pr1025 O1046 2.436 . S
Pr1025 O1048 2.438 . S
Pr1025 O1050 2.562 . S
Pr1025 O1051 2.490 . S
Pr1025 O1052 2.695 . S
Pr1025 O1053 2.512 . S
Pr1025 O1055 2.437 . S
C1026 Pr1024 2.880 . S
C1026 C1027 1.491 . S
C1026 O1044 1.254 . S
C1026 O1045 1.225 . S
C1027 C1026 1.491 . S
C1027 C1028 1.392 . S
C1027 C1032 1.356 1_455 S
C1028 C1027 1.392 . S
C1028 C1029 1.368 . S
C1028 H1056 0.929 . S
C1029 C1028 1.368 . S
C1029 C1030 1.386 1_455 S
C1029 H1057 0.929 . S
C1030 C1029 1.386 1_655 S
C1030 C1031 1.373 . S
C1031 C1030 1.373 . S
C1031 C1032 1.409 . S
C1031 H1058 0.931 . S
C1032 C1027 1.356 1_655 S
C1032 C1031 1.409 . S
C1032 H1059 0.930 . S
C1033 O1046 1.270 . S
C1033 O1047 1.248 . S
C1034 O1048 1.267 . S
C1034 O1049 1.278 . S
C1035 Pr1025 2.880 . S
C1035 C1036 1.491 . S
C1035 O1050 1.254 . S
C1035 O1051 1.225 . S
C1036 C1035 1.491 . S
C1036 C1037 1.392 . S
C1036 C1041 1.356 . S
C1037 C1036 1.392 . S
C1037 C1038 1.368 . S
C1037 H1060 0.929 . S
C1038 C1037 1.368 . S
C1038 C1039 1.386 . S
C1038 H1061 0.929 . S
C1039 C1038 1.386 . S
C1039 C1040 1.373 . S
C1040 C1039 1.373 . S
C1040 C1041 1.409 . S
C1040 H1062 0.931 . S
C1041 C1036 1.356 . S
C1041 C1040 1.409 . S
C1041 H1063 0.930 . S
C1042 O1052 1.270 . S
C1042 O1053 1.248 . S
C1043 O1054 1.267 . S
C1043 O1055 1.278 . S
O1044 Pr1024 2.562 . S
O1044 C1026 1.254 . S
O1045 Pr1024 2.490 . S
O1045 C1026 1.225 . S
O1046 Pr1024 2.695 . S
O1046 Pr1025 2.436 . S
O1046 C1033 1.270 . S
O1047 Pr1024 2.512 . S
O1047 C1033 1.248 . S
O1048 Pr1025 2.438 . S
O1048 C1034 1.267 . S
O1049 Pr1024 2.437 . S
O1049 C1034 1.278 . S
O1050 Pr1025 2.562 . S
O1050 C1035 1.254 . S
O1051 Pr1025 2.490 . S
O1051 C1035 1.225 . S
O1052 Pr1024 2.436 . S
O1052 Pr1025 2.695 . S
O1052 C1042 1.270 . S
O1053 Pr1025 2.512 . S
O1053 C1042 1.248 . S
O1054 Pr1024 2.438 . S
O1054 C1043 1.267 . S
O1055 Pr1025 2.437 . S
O1055 C1043 1.278 . S
H1056 C1028 0.929 . S
H1057 C1029 0.929 . S
H1058 C1031 0.931 . S
H1059 C1032 0.930 . S
H1060 C1037 0.929 . S
H1061 C1038 0.929 . S
H1062 C1040 0.931 . S
H1063 C1041 0.930 . S
Pr1064 C1066 2.880 . S
Pr1064 O1084 2.562 . S
Pr1064 O1085 2.490 . S
Pr1064 O1086 2.695 . S
Pr1064 O1087 2.512 . S
Pr1064 O1089 2.437 . S
Pr1064 O1092 2.436 . S
Pr1064 O1094 2.438 . S
Pr1065 C1075 2.880 . S
Pr1065 O1086 2.436 . S
Pr1065 O1088 2.438 . S
Pr1065 O1090 2.562 . S
Pr1065 O1091 2.490 . S
Pr1065 O1092 2.695 . S
Pr1065 O1093 2.512 . S
Pr1065 O1095 2.437 . S
C1066 Pr1064 2.880 . S
C1066 C1067 1.491 . S
C1066 O1084 1.254 . S
C1066 O1085 1.225 . S
C1067 C1066 1.491 . S
C1067 C1068 1.392 . S
C1067 C1072 1.356 . S
C1068 C1067 1.392 . S
C1068 C1069 1.368 . S
C1068 H1096 0.929 . S
C1069 C1068 1.368 . S
C1069 C1070 1.386 . S
C1069 H1097 0.929 . S
C1070 C1069 1.386 . S
C1070 C1071 1.373 . S
C1071 C1070 1.373 . S
C1071 C1072 1.409 . S
C1071 H1098 0.931 . S
C1072 C1067 1.356 . S
C1072 C1071 1.409 . S
C1072 H1099 0.930 . S
C1073 O1086 1.270 . S
C1073 O1087 1.248 . S
C1074 O1088 1.267 . S
C1074 O1089 1.278 . S
C1075 Pr1065 2.880 . S
C1075 C1076 1.491 . S
C1075 O1090 1.254 . S
C1075 O1091 1.225 . S
C1076 C1075 1.491 . S
C1076 C1077 1.392 . S
C1076 C1081 1.356 . S
C1077 C1076 1.392 . S
C1077 C1078 1.368 1_565 S
C1077 H1100 0.929 . S
C1078 C1077 1.368 1_545 S
C1078 C1079 1.386 . S
C1078 H1101 0.929 . S
C1079 C1078 1.386 . S
C1079 C1080 1.373 . S
C1080 C1079 1.373 . S
C1080 C1081 1.409 1_545 S
C1080 H1102 0.931 . S
C1081 C1076 1.356 . S
C1081 C1080 1.409 1_565 S
C1081 H1103 0.930 . S
C1082 O1092 1.270 . S
C1082 O1093 1.248 . S
C1083 O1094 1.267 . S
C1083 O1095 1.278 . S
O1084 Pr1064 2.562 . S
O1084 C1066 1.254 . S
O1085 Pr1064 2.490 . S
O1085 C1066 1.225 . S
O1086 Pr1064 2.695 . S
O1086 Pr1065 2.436 . S
O1086 C1073 1.270 . S
O1087 Pr1064 2.512 . S
O1087 C1073 1.248 . S
O1088 Pr1065 2.438 . S
O1088 C1074 1.267 . S
O1089 Pr1064 2.437 . S
O1089 C1074 1.278 . S
O1090 Pr1065 2.562 . S
O1090 C1075 1.254 . S
O1091 Pr1065 2.490 . S
O1091 C1075 1.225 . S
O1092 Pr1064 2.436 . S
O1092 Pr1065 2.695 . S
O1092 C1082 1.270 . S
O1093 Pr1065 2.512 . S
O1093 C1082 1.248 . S
O1094 Pr1064 2.438 . S
O1094 C1083 1.267 . S
O1095 Pr1065 2.437 . S
O1095 C1083 1.278 . S
H1096 C1068 0.929 . S
H1097 C1069 0.929 . S
H1098 C1071 0.931 . S
H1099 C1072 0.930 . S
H1100 C1077 0.929 . S
H1101 C1078 0.929 . S
H1102 C1080 0.931 . S
H1103 C1081 0.930 . S
Pr1104 C1106 2.880 . S
Pr1104 O1124 2.562 . S
Pr1104 O1125 2.490 . S
Pr1104 O1126 2.695 . S
Pr1104 O1127 2.512 . S
Pr1104 O1129 2.437 . S
Pr1104 O1132 2.436 . S
Pr1104 O1134 2.438 . S
Pr1105 C1115 2.880 . S
Pr1105 O1126 2.436 1_556 S
Pr1105 O1128 2.438 1_556 S
Pr1105 O1130 2.562 . S
Pr1105 O1131 2.490 . S
Pr1105 O1132 2.695 1_556 S
Pr1105 O1133 2.512 1_556 S
Pr1105 O1135 2.436 . S
C1106 Pr1104 2.880 . S
C1106 C1107 1.491 . S
C1106 O1124 1.254 . S
C1106 O1125 1.225 . S
C1107 C1106 1.491 . S
C1107 C1108 1.392 . S
C1107 C1112 1.356 . S
C1108 C1107 1.392 . S
C1108 C1109 1.368 . S
C1108 H1136 0.929 . S
C1109 C1108 1.368 . S
C1109 C1110 1.386 . S
C1109 H1137 0.929 . S
C1110 C1109 1.386 . S
C1110 C1111 1.373 . S
C1111 C1110 1.373 . S
C1111 C1112 1.409 . S
C1111 H1138 0.931 . S
C1112 C1107 1.356 . S
C1112 C1111 1.409 . S
C1112 H1139 0.930 . S
C1113 O1126 1.270 . S
C1113 O1127 1.248 . S
C1114 O1128 1.267 . S
C1114 O1129 1.278 . S
C1115 Pr1105 2.880 . S
C1115 C1116 1.491 . S
C1115 O1130 1.254 . S
C1115 O1131 1.225 . S
C1116 C1115 1.491 . S
C1116 C1117 1.392 . S
C1116 C1121 1.356 . S
C1117 C1116 1.392 . S
C1117 C1118 1.368 . S
C1117 H1140 0.929 . S
C1118 C1117 1.368 . S
C1118 C1119 1.386 . S
C1118 H1141 0.929 . S
C1119 C1118 1.386 . S
C1119 C1120 1.373 . S
C1120 C1119 1.373 . S
C1120 C1121 1.409 . S
C1120 H1142 0.931 . S
C1121 C1116 1.356 . S
C1121 C1120 1.409 . S
C1121 H1143 0.930 . S
C1122 O1132 1.270 . S
C1122 O1133 1.248 . S
C1123 O1134 1.267 . S
C1123 O1135 1.280 1_554 S
O1124 Pr1104 2.562 . S
O1124 C1106 1.254 . S
O1125 Pr1104 2.490 . S
O1125 C1106 1.225 . S
O1126 Pr1104 2.695 . S
O1126 Pr1105 2.436 1_554 S
O1126 C1113 1.270 . S
O1127 Pr1104 2.512 . S
O1127 C1113 1.248 . S
O1128 Pr1105 2.438 1_554 S
O1128 C1114 1.267 . S
O1129 Pr1104 2.437 . S
O1129 C1114 1.278 . S
O1130 Pr1105 2.562 . S
O1130 C1115 1.254 . S
O1131 Pr1105 2.490 . S
O1131 C1115 1.225 . S
O1132 Pr1104 2.436 . S
O1132 Pr1105 2.695 1_554 S
O1132 C1122 1.270 . S
O1133 Pr1105 2.512 1_554 S
O1133 C1122 1.248 . S
O1134 Pr1104 2.438 . S
O1134 C1123 1.267 . S
O1135 Pr1105 2.436 . S
O1135 C1123 1.280 1_556 S
H1136 C1108 0.929 . S
H1137 C1109 0.929 . S
H1138 C1111 0.931 . S
H1139 C1112 0.930 . S
H1140 C1117 0.929 . S
H1141 C1118 0.929 . S
H1142 C1120 0.931 . S
H1143 C1121 0.930 . S
Pr1144 C1146 2.880 . S
Pr1144 O1164 2.562 . S
Pr1144 O1165 2.490 . S
Pr1144 O1166 2.695 . S
Pr1144 O1167 2.512 . S
Pr1144 O1169 2.437 . S
Pr1144 O1172 2.436 . S
Pr1144 O1174 2.438 . S
Pr1145 C1155 2.880 . S
Pr1145 O1166 2.436 . S
Pr1145 O1168 2.438 . S
Pr1145 O1170 2.562 . S
Pr1145 O1171 2.490 . S
Pr1145 O1172 2.695 . S
Pr1145 O1173 2.512 . S
Pr1145 O1175 2.437 . S
C1146 Pr1144 2.880 . S
C1146 C1147 1.491 . S
C1146 O1164 1.254 . S
C1146 O1165 1.225 . S
C1147 C1146 1.491 . S
C1147 C1148 1.392 . S
C1147 C1152 1.356 . S
C1148 C1147 1.392 . S
C1148 C1149 1.368 . S
C1148 H1176 0.929 . S
C1149 C1148 1.368 . S
C1149 C1150 1.386 . S
C1149 H1177 0.929 . S
C1150 C1149 1.386 . S
C1150 C1151 1.373 . S
C1151 C1150 1.373 . S
C1151 C1152 1.409 . S
C1151 H1178 0.931 . S
C1152 C1147 1.356 . S
C1152 C1151 1.409 . S
C1152 H1179 0.930 . S
C1153 O1166 1.270 . S
C1153 O1167 1.248 . S
C1154 O1168 1.267 . S
C1154 O1169 1.278 . S
C1155 Pr1145 2.880 . S
C1155 C1156 1.491 . S
C1155 O1170 1.254 . S
C1155 O1171 1.225 . S
C1156 C1155 1.491 . S
C1156 C1157 1.392 . S
C1156 C1161 1.356 . S
C1157 C1156 1.392 . S
C1157 C1158 1.368 . S
C1157 H1180 0.929 . S
C1158 C1157 1.368 . S
C1158 C1159 1.386 . S
C1158 H1181 0.929 . S
C1159 C1158 1.386 . S
C1159 C1160 1.373 . S
C1160 C1159 1.373 . S
C1160 C1161 1.409 . S
C1160 H1182 0.931 . S
C1161 C1156 1.356 . S
C1161 C1160 1.409 . S
C1161 H1183 0.930 . S
C1162 O1172 1.270 . S
C1162 O1173 1.248 . S
C1163 O1174 1.267 . S
C1163 O1175 1.278 . S
O1164 Pr1144 2.562 . S
O1164 C1146 1.254 . S
O1165 Pr1144 2.490 . S
O1165 C1146 1.225 . S
O1166 Pr1144 2.695 . S
O1166 Pr1145 2.436 . S
O1166 C1153 1.270 . S
O1167 Pr1144 2.512 . S
O1167 C1153 1.248 . S
O1168 Pr1145 2.438 . S
O1168 C1154 1.267 . S
O1169 Pr1144 2.437 . S
O1169 C1154 1.278 . S
O1170 Pr1145 2.562 . S
O1170 C1155 1.254 . S
O1171 Pr1145 2.490 . S
O1171 C1155 1.225 . S
O1172 Pr1144 2.436 . S
O1172 Pr1145 2.695 . S
O1172 C1162 1.270 . S
O1173 Pr1145 2.512 . S
O1173 C1162 1.248 . S
O1174 Pr1144 2.438 . S
O1174 C1163 1.267 . S
O1175 Pr1145 2.437 . S
O1175 C1163 1.278 . S
H1176 C1148 0.929 . S
H1177 C1149 0.929 . S
H1178 C1151 0.931 . S
H1179 C1152 0.930 . S
H1180 C1157 0.929 . S
H1181 C1158 0.929 . S
H1182 C1160 0.931 . S
H1183 C1161 0.930 . S
Pr1184 C1186 2.880 . S
Pr1184 O1204 2.562 . S
Pr1184 O1205 2.490 . S
Pr1184 O1206 2.695 1_556 S
Pr1184 O1207 2.512 . S
Pr1184 O1209 2.437 . S
Pr1184 O1212 2.436 1_556 S
Pr1184 O1214 2.438 1_556 S
Pr1185 C1195 2.880 . S
Pr1185 O1206 2.436 . S
Pr1185 O1208 2.438 . S
Pr1185 O1210 2.562 . S
Pr1185 O1211 2.490 . S
Pr1185 O1212 2.695 . S
Pr1185 O1213 2.512 . S
Pr1185 O1215 2.437 . S
C1186 Pr1184 2.880 . S
C1186 C1187 1.491 . S
C1186 O1204 1.254 . S
C1186 O1205 1.225 . S
C1187 C1186 1.491 . S
C1187 C1188 1.392 . S
C1187 C1192 1.356 . S
C1188 C1187 1.392 . S
C1188 C1189 1.368 . S
C1188 H1216 0.929 . S
C1189 C1188 1.368 . S
C1189 C1190 1.386 . S
C1189 H1217 0.929 . S
C1190 C1189 1.386 . S
C1190 C1191 1.373 . S
C1191 C1190 1.373 . S
C1191 C1192 1.409 . S
C1191 H1218 0.931 . S
C1192 C1187 1.356 . S
C1192 C1191 1.409 . S
C1192 H1219 0.930 . S
C1193 O1206 1.270 . S
C1193 O1207 1.248 1_554 S
C1194 O1208 1.267 1_556 S
C1194 O1209 1.278 . S
C1195 Pr1185 2.880 . S
C1195 C1196 1.491 . S
C1195 O1210 1.254 . S
C1195 O1211 1.225 . S
C1196 C1195 1.491 . S
C1196 C1197 1.392 . S
C1196 C1201 1.356 . S
C1197 C1196 1.392 . S
C1197 C1198 1.368 . S
C1197 H1220 0.929 . S
C1198 C1197 1.368 . S
C1198 C1199 1.386 . S
C1198 H1221 0.929 . S
C1199 C1198 1.386 . S
C1199 C1200 1.373 . S
C1200 C1199 1.373 . S
C1200 C1201 1.409 . S
C1200 H1222 0.931 . S
C1201 C1196 1.356 . S
C1201 C1200 1.409 . S
C1201 H1223 0.930 . S
C1202 O1212 1.270 . S
C1202 O1213 1.248 . S
C1203 O1214 1.267 . S
C1203 O1215 1.278 . S
O1204 Pr1184 2.562 . S
O1204 C1186 1.254 . S
O1205 Pr1184 2.490 . S
O1205 C1186 1.225 . S
O1206 Pr1184 2.695 1_554 S
O1206 Pr1185 2.436 . S
O1206 C1193 1.270 . S
O1207 Pr1184 2.512 . S
O1207 C1193 1.248 1_556 S
O1208 Pr1185 2.438 . S
O1208 C1194 1.267 1_554 S
O1209 Pr1184 2.437 . S
O1209 C1194 1.278 . S
O1210 Pr1185 2.562 . S
O1210 C1195 1.254 . S
O1211 Pr1185 2.490 . S
O1211 C1195 1.225 . S
O1212 Pr1184 2.436 1_554 S
O1212 Pr1185 2.695 . S
O1212 C1202 1.270 . S
O1213 Pr1185 2.512 . S
O1213 C1202 1.248 . S
O1214 Pr1184 2.438 1_554 S
O1214 C1203 1.267 . S
O1215 Pr1185 2.437 . S
O1215 C1203 1.278 . S
H1216 C1188 0.929 . S
H1217 C1189 0.929 . S
H1218 C1191 0.931 . S
H1219 C1192 0.930 . S
H1220 C1197 0.929 . S
H1221 C1198 0.929 . S
H1222 C1200 0.931 . S
H1223 C1201 0.930 . S
Pr1224 C1226 2.880 . S
Pr1224 O1244 2.562 . S
Pr1224 O1245 2.490 . S
Pr1224 O1246 2.695 . S
Pr1224 O1247 2.512 . S
Pr1224 O1249 2.437 . S
Pr1224 O1252 2.436 . S
Pr1224 O1254 2.438 . S
Pr1225 C1235 2.880 . S
Pr1225 O1246 2.436 . S
Pr1225 O1248 2.438 . S
Pr1225 O1250 2.562 . S
Pr1225 O1251 2.490 . S
Pr1225 O1252 2.695 . S
Pr1225 O1253 2.512 . S
Pr1225 O1255 2.437 . S
C1226 Pr1224 2.880 . S
C1226 C1227 1.491 . S
C1226 O1244 1.254 . S
C1226 O1245 1.225 . S
C1227 C1226 1.491 . S
C1227 C1228 1.392 . S
C1227 C1232 1.356 . S
C1228 C1227 1.392 . S
C1228 C1229 1.368 . S
C1228 H1256 0.929 . S
C1229 C1228 1.368 . S
C1229 C1230 1.386 . S
C1229 H1257 0.929 . S
C1230 C1229 1.386 . S
C1230 C1231 1.373 . S
C1231 C1230 1.373 . S
C1231 C1232 1.409 . S
C1231 H1258 0.931 . S
C1232 C1227 1.356 . S
C1232 C1231 1.409 . S
C1232 H1259 0.930 . S
C1233 O1246 1.270 . S
C1233 O1247 1.248 . S
C1234 O1248 1.267 . S
C1234 O1249 1.278 . S
C1235 Pr1225 2.880 . S
C1235 C1236 1.491 . S
C1235 O1250 1.254 . S
C1235 O1251 1.225 . S
C1236 C1235 1.491 . S
C1236 C1237 1.392 . S
C1236 C1241 1.356 . S
C1237 C1236 1.392 . S
C1237 C1238 1.368 . S
C1237 H1260 0.929 . S
C1238 C1237 1.368 . S
C1238 C1239 1.386 . S
C1238 H1261 0.929 . S
C1239 C1238 1.386 . S
C1239 C1240 1.373 . S
C1240 C1239 1.373 . S
C1240 C1241 1.409 . S
C1240 H1262 0.931 . S
C1241 C1236 1.356 . S
C1241 C1240 1.409 . S
C1241 H1263 0.930 . S
C1242 O1252 1.270 . S
C1242 O1253 1.248 . S
C1243 O1254 1.267 . S
C1243 O1255 1.278 . S
O1244 Pr1224 2.562 . S
O1244 C1226 1.254 . S
O1245 Pr1224 2.490 . S
O1245 C1226 1.225 . S
O1246 Pr1224 2.695 . S
O1246 Pr1225 2.436 . S
O1246 C1233 1.270 . S
O1247 Pr1224 2.512 . S
O1247 C1233 1.248 . S
O1248 Pr1225 2.438 . S
O1248 C1234 1.267 . S
O1249 Pr1224 2.437 . S
O1249 C1234 1.278 . S
O1250 Pr1225 2.562 . S
O1250 C1235 1.254 . S
O1251 Pr1225 2.490 . S
O1251 C1235 1.225 . S
O1252 Pr1224 2.436 . S
O1252 Pr1225 2.695 . S
O1252 C1242 1.270 . S
O1253 Pr1225 2.512 . S
O1253 C1242 1.248 . S
O1254 Pr1224 2.438 . S
O1254 C1243 1.267 . S
O1255 Pr1225 2.437 . S
O1255 C1243 1.278 . S
H1256 C1228 0.929 . S
H1257 C1229 0.929 . S
H1258 C1231 0.931 . S
H1259 C1232 0.930 . S
H1260 C1237 0.929 . S
H1261 C1238 0.929 . S
H1262 C1240 0.931 . S
H1263 C1241 0.930 . S
Pr1264 C1266 2.880 . S
Pr1264 O1284 2.562 . S
Pr1264 O1285 2.490 . S
Pr1264 O1286 2.695 . S
Pr1264 O1287 2.512 . S
Pr1264 O1289 2.437 . S
Pr1264 O1292 2.436 . S
Pr1264 O1294 2.438 . S
Pr1265 C1275 2.880 . S
Pr1265 O1286 2.436 . S
Pr1265 O1288 2.438 . S
Pr1265 O1290 2.562 . S
Pr1265 O1291 2.490 . S
Pr1265 O1292 2.695 . S
Pr1265 O1293 2.512 . S
Pr1265 O1295 2.437 . S
C1266 Pr1264 2.880 . S
C1266 C1267 1.491 . S
C1266 O1284 1.254 . S
C1266 O1285 1.225 . S
C1267 C1266 1.491 . S
C1267 C1268 1.392 . S
C1267 C1272 1.356 . S
C1268 C1267 1.392 . S
C1268 C1269 1.368 . S
C1268 H1296 0.929 . S
C1269 C1268 1.368 . S
C1269 C1270 1.386 . S
C1269 H1297 0.929 . S
C1270 C1269 1.386 . S
C1270 C1271 1.373 . S
C1271 C1270 1.373 . S
C1271 C1272 1.409 . S
C1271 H1298 0.931 . S
C1272 C1267 1.356 . S
C1272 C1271 1.409 . S
C1272 H1299 0.930 . S
C1273 O1286 1.270 . S
C1273 O1287 1.248 . S
C1274 O1288 1.267 . S
C1274 O1289 1.278 . S
C1275 Pr1265 2.880 . S
C1275 C1276 1.491 . S
C1275 O1290 1.254 . S
C1275 O1291 1.225 . S
C1276 C1275 1.491 . S
C1276 C1277 1.392 . S
C1276 C1281 1.356 . S
C1277 C1276 1.392 . S
C1277 C1278 1.368 . S
C1277 H1300 0.929 . S
C1278 C1277 1.368 . S
C1278 C1279 1.386 . S
C1278 H1301 0.929 . S
C1279 C1278 1.386 . S
C1279 C1280 1.373 . S
C1280 C1279 1.373 . S
C1280 C1281 1.409 . S
C1280 H1302 0.931 . S
C1281 C1276 1.356 . S
C1281 C1280 1.409 . S
C1281 H1303 0.930 . S
C1282 O1292 1.270 . S
C1282 O1293 1.248 . S
C1283 O1294 1.267 . S
C1283 O1295 1.278 . S
O1284 Pr1264 2.562 . S
O1284 C1266 1.254 . S
O1285 Pr1264 2.490 . S
O1285 C1266 1.225 . S
O1286 Pr1264 2.695 . S
O1286 Pr1265 2.436 . S
O1286 C1273 1.270 . S
O1287 Pr1264 2.512 . S
O1287 C1273 1.248 . S
O1288 Pr1265 2.438 . S
O1288 C1274 1.267 . S
O1289 Pr1264 2.437 . S
O1289 C1274 1.278 . S
O1290 Pr1265 2.562 . S
O1290 C1275 1.254 . S
O1291 Pr1265 2.490 . S
O1291 C1275 1.225 . S
O1292 Pr1264 2.436 . S
O1292 Pr1265 2.695 . S
O1292 C1282 1.270 . S
O1293 Pr1265 2.512 . S
O1293 C1282 1.248 . S
O1294 Pr1264 2.438 . S
O1294 C1283 1.267 . S
O1295 Pr1265 2.437 . S
O1295 C1283 1.278 . S
H1296 C1268 0.929 . S
H1297 C1269 0.929 . S
H1298 C1271 0.931 . S
H1299 C1272 0.930 . S
H1300 C1277 0.929 . S
H1301 C1278 0.929 . S
H1302 C1280 0.931 . S
H1303 C1281 0.930 . S
Pr1304 C1306 2.880 . S
Pr1304 O1324 2.562 . S
Pr1304 O1325 2.490 . S
Pr1304 O1326 2.695 . S
Pr1304 O1327 2.512 . S
Pr1304 O1329 2.437 . S
Pr1304 O1332 2.436 . S
Pr1304 O1334 2.438 . S
Pr1305 C1315 2.880 . S
Pr1305 O1326 2.436 . S
Pr1305 O1328 2.438 . S
Pr1305 O1330 2.562 . S
Pr1305 O1331 2.490 . S
Pr1305 O1332 2.695 . S
Pr1305 O1333 2.512 . S
Pr1305 O1335 2.437 . S
C1306 Pr1304 2.880 . S
C1306 C1307 1.491 . S
C1306 O1324 1.254 . S
C1306 O1325 1.225 . S
C1307 C1306 1.491 . S
C1307 C1308 1.392 . S
C1307 C1312 1.356 . S
C1308 C1307 1.392 . S
C1308 C1309 1.368 . S
C1308 H1336 0.929 . S
C1309 C1308 1.368 . S
C1309 C1310 1.386 . S
C1309 H1337 0.929 . S
C1310 C1309 1.386 . S
C1310 C1311 1.373 . S
C1311 C1310 1.373 . S
C1311 C1312 1.409 . S
C1311 H1338 0.931 . S
C1312 C1307 1.356 . S
C1312 C1311 1.409 . S
C1312 H1339 0.930 . S
C1313 O1326 1.270 . S
C1313 O1327 1.248 . S
C1314 O1328 1.267 . S
C1314 O1329 1.278 . S
C1315 Pr1305 2.880 . S
C1315 C1316 1.491 . S
C1315 O1330 1.254 . S
C1315 O1331 1.225 . S
C1316 C1315 1.491 . S
C1316 C1317 1.392 . S
C1316 C1321 1.356 . S
C1317 C1316 1.392 . S
C1317 C1318 1.368 . S
C1317 H1340 0.929 . S
C1318 C1317 1.368 . S
C1318 C1319 1.386 . S
C1318 H1341 0.929 . S
C1319 C1318 1.386 . S
C1319 C1320 1.373 . S
C1320 C1319 1.373 . S
C1320 C1321 1.409 . S
C1320 H1342 0.931 . S
C1321 C1316 1.356 . S
C1321 C1320 1.409 . S
C1321 H1343 0.930 . S
C1322 O1332 1.270 . S
C1322 O1333 1.248 . S
C1323 O1334 1.267 . S
C1323 O1335 1.278 . S
O1324 Pr1304 2.562 . S
O1324 C1306 1.254 . S
O1325 Pr1304 2.490 . S
O1325 C1306 1.225 . S
O1326 Pr1304 2.695 . S
O1326 Pr1305 2.436 . S
O1326 C1313 1.270 . S
O1327 Pr1304 2.512 . S
O1327 C1313 1.248 . S
O1328 Pr1305 2.438 . S
O1328 C1314 1.267 . S
O1329 Pr1304 2.437 . S
O1329 C1314 1.278 . S
O1330 Pr1305 2.562 . S
O1330 C1315 1.254 . S
O1331 Pr1305 2.490 . S
O1331 C1315 1.225 . S
O1332 Pr1304 2.436 . S
O1332 Pr1305 2.695 . S
O1332 C1322 1.270 . S
O1333 Pr1305 2.512 . S
O1333 C1322 1.248 . S
O1334 Pr1304 2.438 . S
O1334 C1323 1.267 . S
O1335 Pr1305 2.437 . S
O1335 C1323 1.278 . S
H1336 C1308 0.929 . S
H1337 C1309 0.929 . S
H1338 C1311 0.931 . S
H1339 C1312 0.930 . S
H1340 C1317 0.929 . S
H1341 C1318 0.929 . S
H1342 C1320 0.931 . S
H1343 C1321 0.930 . S
Pr1344 C1346 2.880 . S
Pr1344 O1364 2.562 . S
Pr1344 O1365 2.490 . S
Pr1344 O1366 2.695 . S
Pr1344 O1367 2.512 . S
Pr1344 O1369 2.437 . S
Pr1344 O1372 2.436 . S
Pr1344 O1374 2.438 . S
Pr1345 C1355 2.880 . S
Pr1345 O1366 2.436 . S
Pr1345 O1368 2.438 . S
Pr1345 O1370 2.562 . S
Pr1345 O1371 2.490 . S
Pr1345 O1372 2.695 . S
Pr1345 O1373 2.512 . S
Pr1345 O1375 2.437 . S
C1346 Pr1344 2.880 . S
C1346 C1347 1.491 . S
C1346 O1364 1.254 . S
C1346 O1365 1.225 . S
C1347 C1346 1.491 . S
C1347 C1348 1.392 . S
C1347 C1352 1.356 . S
C1348 C1347 1.392 . S
C1348 C1349 1.368 . S
C1348 H1376 0.929 . S
C1349 C1348 1.368 . S
C1349 C1350 1.386 . S
C1349 H1377 0.929 . S
C1350 C1349 1.386 . S
C1350 C1351 1.373 . S
C1351 C1350 1.373 . S
C1351 C1352 1.409 . S
C1351 H1378 0.931 . S
C1352 C1347 1.356 . S
C1352 C1351 1.409 . S
C1352 H1379 0.930 . S
C1353 O1366 1.270 . S
C1353 O1367 1.248 . S
C1354 O1368 1.267 . S
C1354 O1369 1.278 . S
C1355 Pr1345 2.880 . S
C1355 C1356 1.491 . S
C1355 O1370 1.254 . S
C1355 O1371 1.225 . S
C1356 C1355 1.491 . S
C1356 C1357 1.392 . S
C1356 C1361 1.356 . S
C1357 C1356 1.392 . S
C1357 C1358 1.368 . S
C1357 H1380 0.929 . S
C1358 C1357 1.368 . S
C1358 C1359 1.386 . S
C1358 H1381 0.929 . S
C1359 C1358 1.386 . S
C1359 C1360 1.373 . S
C1360 C1359 1.373 . S
C1360 C1361 1.409 . S
C1360 H1382 0.931 . S
C1361 C1356 1.356 . S
C1361 C1360 1.409 . S
C1361 H1383 0.930 . S
C1362 O1372 1.270 . S
C1362 O1373 1.248 . S
C1363 O1374 1.267 . S
C1363 O1375 1.278 . S
O1364 Pr1344 2.562 . S
O1364 C1346 1.254 . S
O1365 Pr1344 2.490 . S
O1365 C1346 1.225 . S
O1366 Pr1344 2.695 . S
O1366 Pr1345 2.436 . S
O1366 C1353 1.270 . S
O1367 Pr1344 2.512 . S
O1367 C1353 1.248 . S
O1368 Pr1345 2.438 . S
O1368 C1354 1.267 . S
O1369 Pr1344 2.437 . S
O1369 C1354 1.278 . S
O1370 Pr1345 2.562 . S
O1370 C1355 1.254 . S
O1371 Pr1345 2.490 . S
O1371 C1355 1.225 . S
O1372 Pr1344 2.436 . S
O1372 Pr1345 2.695 . S
O1372 C1362 1.270 . S
O1373 Pr1345 2.512 . S
O1373 C1362 1.248 . S
O1374 Pr1344 2.438 . S
O1374 C1363 1.267 . S
O1375 Pr1345 2.437 . S
O1375 C1363 1.278 . S
H1376 C1348 0.929 . S
H1377 C1349 0.929 . S
H1378 C1351 0.931 . S
H1379 C1352 0.930 . S
H1380 C1357 0.929 . S
H1381 C1358 0.929 . S
H1382 C1360 0.931 . S
H1383 C1361 0.930 . S
Pr1384 C1386 2.880 . S
Pr1384 O1404 2.562 . S
Pr1384 O1405 2.490 . S
Pr1384 O1406 2.695 . S
Pr1384 O1407 2.512 . S
Pr1384 O1409 2.437 . S
Pr1384 O1412 2.436 . S
Pr1384 O1414 2.438 . S
Pr1385 C1395 2.880 . S
Pr1385 O1406 2.436 . S
Pr1385 O1408 2.438 . S
Pr1385 O1410 2.562 . S
Pr1385 O1411 2.490 . S
Pr1385 O1412 2.695 . S
Pr1385 O1413 2.512 . S
Pr1385 O1415 2.437 . S
C1386 Pr1384 2.880 . S
C1386 C1387 1.491 . S
C1386 O1404 1.254 . S
C1386 O1405 1.225 . S
C1387 C1386 1.491 . S
C1387 C1388 1.392 . S
C1387 C1392 1.356 . S
C1388 C1387 1.392 . S
C1388 C1389 1.368 . S
C1388 H1416 0.929 . S
C1389 C1388 1.368 . S
C1389 C1390 1.386 . S
C1389 H1417 0.929 . S
C1390 C1389 1.386 . S
C1390 C1391 1.373 . S
C1391 C1390 1.373 . S
C1391 C1392 1.409 . S
C1391 H1418 0.931 . S
C1392 C1387 1.356 . S
C1392 C1391 1.409 . S
C1392 H1419 0.930 . S
C1393 O1406 1.270 . S
C1393 O1407 1.248 . S
C1394 O1408 1.267 . S
C1394 O1409 1.278 . S
C1395 Pr1385 2.880 . S
C1395 C1396 1.491 . S
C1395 O1410 1.254 . S
C1395 O1411 1.225 . S
C1396 C1395 1.491 . S
C1396 C1397 1.392 . S
C1396 C1401 1.356 . S
C1397 C1396 1.392 . S
C1397 C1398 1.368 . S
C1397 H1420 0.929 . S
C1398 C1397 1.368 . S
C1398 C1399 1.386 . S
C1398 H1421 0.929 . S
C1399 C1398 1.386 . S
C1399 C1400 1.373 . S
C1400 C1399 1.373 . S
C1400 C1401 1.409 . S
C1400 H1422 0.931 . S
C1401 C1396 1.356 . S
C1401 C1400 1.409 . S
C1401 H1423 0.930 . S
C1402 O1412 1.270 . S
C1402 O1413 1.248 . S
C1403 O1414 1.267 . S
C1403 O1415 1.278 . S
O1404 Pr1384 2.562 . S
O1404 C1386 1.254 . S
O1405 Pr1384 2.490 . S
O1405 C1386 1.225 . S
O1406 Pr1384 2.695 . S
O1406 Pr1385 2.436 . S
O1406 C1393 1.270 . S
O1407 Pr1384 2.512 . S
O1407 C1393 1.248 . S
O1408 Pr1385 2.438 . S
O1408 C1394 1.267 . S
O1409 Pr1384 2.437 . S
O1409 C1394 1.278 . S
O1410 Pr1385 2.562 . S
O1410 C1395 1.254 . S
O1411 Pr1385 2.490 . S
O1411 C1395 1.225 . S
O1412 Pr1384 2.436 . S
O1412 Pr1385 2.695 . S
O1412 C1402 1.270 . S
O1413 Pr1385 2.512 . S
O1413 C1402 1.248 . S
O1414 Pr1384 2.438 . S
O1414 C1403 1.267 . S
O1415 Pr1385 2.437 . S
O1415 C1403 1.278 . S
H1416 C1388 0.929 . S
H1417 C1389 0.929 . S
H1418 C1391 0.931 . S
H1419 C1392 0.930 . S
H1420 C1397 0.929 . S
H1421 C1398 0.929 . S
H1422 C1400 0.931 . S
H1423 C1401 0.930 . S
Pr1424 C1426 2.880 . S
Pr1424 O1444 2.562 . S
Pr1424 O1445 2.490 . S
Pr1424 O1446 2.695 . S
Pr1424 O1447 2.512 . S
Pr1424 O1449 2.437 . S
Pr1424 O1452 2.436 . S
Pr1424 O1454 2.438 . S
Pr1425 C1435 2.880 . S
Pr1425 O1446 2.436 . S
Pr1425 O1448 2.438 . S
Pr1425 O1450 2.562 . S
Pr1425 O1451 2.490 . S
Pr1425 O1452 2.695 . S
Pr1425 O1453 2.512 . S
Pr1425 O1455 2.437 . S
C1426 Pr1424 2.880 . S
C1426 C1427 1.491 . S
C1426 O1444 1.254 . S
C1426 O1445 1.225 . S
C1427 C1426 1.491 . S
C1427 C1428 1.392 . S
C1427 C1432 1.356 . S
C1428 C1427 1.392 . S
C1428 C1429 1.368 . S
C1428 H1456 0.929 . S
C1429 C1428 1.368 . S
C1429 C1430 1.386 . S
C1429 H1457 0.929 . S
C1430 C1429 1.386 . S
C1430 C1431 1.373 . S
C1431 C1430 1.373 . S
C1431 C1432 1.409 . S
C1431 H1458 0.931 . S
C1432 C1427 1.356 . S
C1432 C1431 1.409 . S
C1432 H1459 0.930 . S
C1433 O1446 1.270 . S
C1433 O1447 1.248 . S
C1434 O1448 1.267 . S
C1434 O1449 1.278 . S
C1435 Pr1425 2.880 . S
C1435 C1436 1.491 . S
C1435 O1450 1.254 . S
C1435 O1451 1.225 . S
C1436 C1435 1.491 . S
C1436 C1437 1.392 . S
C1436 C1441 1.356 . S
C1437 C1436 1.392 . S
C1437 C1438 1.368 . S
C1437 H1460 0.929 . S
C1438 C1437 1.368 . S
C1438 C1439 1.386 . S
C1438 H1461 0.929 . S
C1439 C1438 1.386 . S
C1439 C1440 1.373 . S
C1440 C1439 1.373 . S
C1440 C1441 1.409 . S
C1440 H1462 0.931 . S
C1441 C1436 1.356 . S
C1441 C1440 1.409 . S
C1441 H1463 0.930 . S
C1442 O1452 1.270 . S
C1442 O1453 1.248 . S
C1443 O1454 1.267 . S
C1443 O1455 1.278 . S
O1444 Pr1424 2.562 . S
O1444 C1426 1.254 . S
O1445 Pr1424 2.490 . S
O1445 C1426 1.225 . S
O1446 Pr1424 2.695 . S
O1446 Pr1425 2.436 . S
O1446 C1433 1.270 . S
O1447 Pr1424 2.512 . S
O1447 C1433 1.248 . S
O1448 Pr1425 2.438 . S
O1448 C1434 1.267 . S
O1449 Pr1424 2.437 . S
O1449 C1434 1.278 . S
O1450 Pr1425 2.562 . S
O1450 C1435 1.254 . S
O1451 Pr1425 2.490 . S
O1451 C1435 1.225 . S
O1452 Pr1424 2.436 . S
O1452 Pr1425 2.695 . S
O1452 C1442 1.270 . S
O1453 Pr1425 2.512 . S
O1453 C1442 1.248 . S
O1454 Pr1424 2.438 . S
O1454 C1443 1.267 . S
O1455 Pr1425 2.437 . S
O1455 C1443 1.278 . S
H1456 C1428 0.929 . S
H1457 C1429 0.929 . S
H1458 C1431 0.931 . S
H1459 C1432 0.930 . S
H1460 C1437 0.929 . S
H1461 C1438 0.929 . S
H1462 C1440 0.931 . S
H1463 C1441 0.930 . S
Pr1464 C1466 2.880 . S
Pr1464 O1484 2.562 . S
Pr1464 O1485 2.490 1_554 S
Pr1464 O1486 2.695 1_554 S
Pr1464 O1487 2.512 1_554 S
Pr1464 O1489 2.437 1_554 S
Pr1464 O1492 2.436 . S
Pr1464 O1494 2.438 . S
Pr1465 C1475 2.880 1_455 S
Pr1465 O1486 2.436 1_554 S
Pr1465 O1488 2.438 . S
Pr1465 O1490 2.562 1_455 S
Pr1465 O1491 2.490 1_455 S
Pr1465 O1492 2.695 . S
Pr1465 O1493 2.512 . S
Pr1465 O1495 2.437 . S
C1466 Pr1464 2.880 . S
C1466 C1467 1.483 1_554 S
C1466 O1484 1.254 . S
C1466 O1485 1.225 1_554 S
C1467 C1466 1.483 1_556 S
C1467 C1468 1.414 . S
C1467 C1472 1.342 1_556 S
C1468 C1467 1.414 . S
C1468 C1469 1.368 . S
C1468 H1496 0.929 . S
C1469 C1468 1.368 . S
C1469 C1470 1.386 . S
C1469 H1497 0.929 . S
C1470 C1469 1.386 . S
C1470 C1471 1.373 1_556 S
C1471 C1470 1.373 1_554 S
C1471 C1472 1.409 . S
C1471 H1498 0.931 . S
C1472 C1467 1.342 1_554 S
C1472 C1471 1.409 . S
C1472 H1499 0.930 . S
C1473 O1486 1.270 . S
C1473 O1487 1.248 . S
C1474 O1488 1.267 1_556 S
C1474 O1489 1.278 . S
C1475 Pr1465 2.880 1_655 S
C1475 C1476 1.491 . S
C1475 O1490 1.254 . S
C1475 O1491 1.225 . S
C1476 C1475 1.491 . S
C1476 C1477 1.392 . S
C1476 C1481 1.356 . S
C1477 C1476 1.392 . S
C1477 C1478 1.368 . S
C1477 H1500 0.929 . S
C1478 C1477 1.368 . S
C1478 C1479 1.386 . S
C1478 H1501 0.929 . S
C1479 C1478 1.386 . S
C1479 C1480 1.373 . S
C1480 C1479 1.373 . S
C1480 C1481 1.409 . S
C1480 H1502 0.931 . S
C1481 C1476 1.356 . S
C1481 C1480 1.409 . S
C1481 H1503 0.930 . S
C1482 O1492 1.270 . S
C1482 O1493 1.248 . S
C1483 O1494 1.267 . S
C1483 O1495 1.278 . S
O1484 Pr1464 2.562 . S
O1484 C1466 1.254 . S
O1485 Pr1464 2.490 1_556 S
O1485 C1466 1.225 1_556 S
O1486 Pr1464 2.695 1_556 S
O1486 Pr1465 2.436 1_556 S
O1486 C1473 1.270 . S
O1487 Pr1464 2.512 1_556 S
O1487 C1473 1.248 . S
O1488 Pr1465 2.438 . S
O1488 C1474 1.267 1_554 S
O1489 Pr1464 2.437 1_556 S
O1489 C1474 1.278 . S
O1490 Pr1465 2.562 1_655 S
O1490 C1475 1.254 . S
O1491 Pr1465 2.490 1_655 S
O1491 C1475 1.225 . S
O1492 Pr1464 2.436 . S
O1492 Pr1465 2.695 . S
O1492 C1482 1.270 . S
O1493 Pr1465 2.512 . S
O1493 C1482 1.248 . S
O1494 Pr1464 2.438 . S
O1494 C1483 1.267 . S
O1495 Pr1465 2.437 . S
O1495 C1483 1.278 . S
H1496 C1468 0.929 . S
H1497 C1469 0.929 . S
H1498 C1471 0.931 . S
H1499 C1472 0.930 . S
H1500 C1477 0.929 . S
H1501 C1478 0.929 . S
H1502 C1480 0.931 . S
H1503 C1481 0.930 . S
C1504 C1505 1.387 . S
C1504 H1508 0.950 . S
C1504 C1513 1.390 . S
C1505 C1504 1.387 . S
C1505 C1507 1.387 . S
H1506 C1513 0.950 1_554 S
C1507 C1505 1.387 . S
C1507 C1509 1.390 . S
C1507 H1511 0.950 1_455 S
H1508 C1504 0.950 . S
C1509 C1507 1.390 . S
C1509 C1510 1.387 . S
C1509 H1512 0.950 1_455 S
C1510 C1509 1.387 . S
C1510 C1513 1.387 . S
H1511 C1507 0.950 1_655 S
H1512 C1509 0.950 1_655 S
C1513 C1504 1.390 . S
C1513 H1506 0.950 1_556 S
C1513 C1510 1.387 . S
C1514 C1515 1.387 . S
C1514 H1518 0.950 . S
C1514 C1523 1.390 . S
C1515 C1514 1.387 . S
C1515 C1517 1.387 . S
H1516 C1523 0.950 . S
C1517 C1515 1.387 . S
C1517 C1519 1.390 . S
C1517 H1521 0.950 . S
H1518 C1514 0.950 . S
C1519 C1517 1.390 . S
C1519 C1520 1.387 . S
C1519 H1522 0.950 . S
C1520 C1519 1.387 . S
C1520 C1523 1.387 . S
H1521 C1517 0.950 . S
H1522 C1519 0.950 . S
C1523 C1514 1.390 . S
C1523 H1516 0.950 . S
C1523 C1520 1.387 . S
C1524 C1525 1.387 . S
C1524 H1528 0.950 . S
C1524 C1533 1.390 . S
C1525 C1524 1.387 . S
C1525 C1527 1.387 . S
H1526 C1533 0.950 . S
C1527 C1525 1.387 . S
C1527 C1529 1.390 . S
C1527 H1531 0.950 . S
H1528 C1524 0.950 . S
C1529 C1527 1.390 . S
C1529 C1530 1.387 1_565 S
C1529 H1532 0.950 1_565 S
C1530 C1529 1.387 1_545 S
C1530 C1533 1.387 1_545 S
H1531 C1527 0.950 . S
H1532 C1529 0.950 1_545 S
C1533 C1524 1.390 . S
C1533 H1526 0.950 . S
C1533 C1530 1.387 1_565 S
C1534 C1535 1.387 . S
C1534 H1538 0.950 . S
C1534 C1543 1.390 . S
C1535 C1534 1.387 . S
C1535 C1537 1.387 . S
H1536 C1543 0.950 . S
C1537 C1535 1.387 . S
C1537 C1539 1.390 . S
C1537 H1541 0.950 . S
H1538 C1534 0.950 . S
C1539 C1537 1.390 . S
C1539 C1540 1.387 . S
C1539 H1542 0.950 . S
C1540 C1539 1.387 . S
C1540 C1543 1.387 . S
H1541 C1537 0.950 . S
H1542 C1539 0.950 . S
C1543 C1534 1.390 . S
C1543 H1536 0.950 . S
C1543 C1540 1.387 . S
C1544 C1545 1.387 . S
C1544 H1548 0.950 . S
C1544 C1553 1.390 1_565 S
C1545 C1544 1.387 . S
C1545 C1547 1.387 . S
H1546 C1553 0.950 . S
C1547 C1545 1.387 . S
C1547 C1549 1.390 . S
C1547 H1551 0.950 . S
H1548 C1544 0.950 . S
C1549 C1547 1.390 . S
C1549 C1550 1.387 1_565 S
C1549 H1552 0.950 . S
C1550 C1549 1.387 1_545 S
C1550 C1553 1.387 . S
H1551 C1547 0.950 . S
H1552 C1549 0.950 . S
C1553 C1544 1.390 1_545 S
C1553 H1546 0.950 . S
C1553 C1550 1.387 . S
C1554 C1555 1.387 . S
C1554 H1558 0.950 . S
C1554 C1563 1.390 . S
C1555 C1554 1.387 . S
C1555 C1557 1.387 . S
H1556 C1563 0.950 . S
C1557 C1555 1.387 . S
C1557 C1559 1.390 . S
C1557 H1561 0.950 . S
H1558 C1554 0.950 . S
C1559 C1557 1.390 . S
C1559 C1560 1.387 . S
C1559 H1562 0.950 . S
C1560 C1559 1.387 . S
C1560 C1563 1.387 . S
H1561 C1557 0.950 . S
H1562 C1559 0.950 . S
C1563 C1554 1.390 . S
C1563 H1556 0.950 . S
C1563 C1560 1.387 . S
C1564 C1565 1.387 . S
C1564 H1568 0.950 . S
C1564 C1573 1.390 . S
C1565 C1564 1.387 . S
C1565 C1567 1.387 . S
H1566 C1573 0.950 . S
C1567 C1565 1.387 . S
C1567 C1569 1.390 . S
C1567 H1571 0.950 . S
H1568 C1564 0.950 . S
C1569 C1567 1.390 . S
C1569 C1570 1.387 . S
C1569 H1572 0.950 . S
C1570 C1569 1.387 . S
C1570 C1573 1.387 . S
H1571 C1567 0.950 . S
H1572 C1569 0.950 . S
C1573 C1564 1.390 . S
C1573 H1566 0.950 . S
C1573 C1570 1.387 . S
C1574 C1575 1.387 . S
C1574 H1578 0.950 . S
C1574 C1583 1.390 . S
C1575 C1574 1.387 . S
C1575 C1577 1.387 . S
H1576 C1583 0.950 . S
C1577 C1575 1.387 . S
C1577 C1579 1.390 . S
C1577 H1581 0.950 . S
H1578 C1574 0.950 . S
C1579 C1577 1.390 . S
C1579 C1580 1.387 . S
C1579 H1582 0.950 . S
C1580 C1579 1.387 . S
C1580 C1583 1.387 . S
H1581 C1577 0.950 . S
H1582 C1579 0.950 . S
C1583 C1574 1.390 . S
C1583 H1576 0.950 . S
C1583 C1580 1.387 . S
C1584 C1585 1.387 . S
C1584 H1588 0.950 . S
C1584 C1593 1.390 1_655 S
C1585 C1584 1.387 . S
C1585 C1587 1.387 . S
H1586 C1593 0.950 . S
C1587 C1585 1.387 . S
C1587 C1589 1.390 . S
C1587 H1591 0.950 . S
H1588 C1584 0.950 . S
C1589 C1587 1.390 . S
C1589 C1590 1.387 1_655 S
C1589 H1592 0.949 1_655 S
C1590 C1589 1.387 1_455 S
C1590 C1593 1.387 . S
H1591 C1587 0.950 . S
H1592 C1589 0.949 1_455 S
C1593 C1584 1.390 1_455 S
C1593 H1586 0.950 . S
C1593 C1590 1.387 . S
C1594 C1595 1.387 . S
C1594 H1598 0.950 . S
C1594 C1603 1.390 . S
C1595 C1594 1.387 . S
C1595 C1597 1.387 . S
H1596 C1603 0.950 . S
C1597 C1595 1.387 . S
C1597 C1599 1.390 . S
C1597 H1601 0.950 . S
H1598 C1594 0.950 . S
C1599 C1597 1.390 . S
C1599 C1600 1.387 . S
C1599 H1602 0.950 . S
C1600 C1599 1.387 . S
C1600 C1603 1.387 . S
H1601 C1597 0.950 . S
H1602 C1599 0.950 . S
C1603 C1594 1.390 . S
C1603 H1596 0.950 . S
C1603 C1600 1.387 . S
C1604 C1605 1.387 . S
C1604 H1608 0.950 1_545 S
C1604 C1613 1.390 . S
C1605 C1604 1.387 . S
C1605 C1607 1.387 . S
H1606 C1613 0.950 . S
C1607 C1605 1.387 . S
C1607 C1609 1.390 . S
C1607 H1611 0.950 . S
H1608 C1604 0.950 1_565 S
C1609 C1607 1.390 . S
C1609 C1610 1.387 . S
C1609 H1612 0.950 . S
C1610 C1609 1.387 . S
C1610 C1613 1.387 . S
H1611 C1607 0.950 . S
H1612 C1609 0.950 . S
C1613 C1604 1.390 . S
C1613 H1606 0.950 . S
C1613 C1610 1.387 . S
C1614 C1615 1.387 . S
C1614 H1618 0.950 . S
C1614 C1623 1.390 . S
C1615 C1614 1.387 . S
C1615 C1617 1.387 . S
H1616 C1623 0.950 . S
C1617 C1615 1.387 . S
C1617 C1619 1.390 . S
C1617 H1621 0.950 . S
H1618 C1614 0.950 . S
C1619 C1617 1.390 . S
C1619 C1620 1.387 . S
C1619 H1622 0.950 . S
C1620 C1619 1.387 . S
C1620 C1623 1.387 . S
H1621 C1617 0.950 . S
H1622 C1619 0.950 . S
C1623 C1614 1.390 . S
C1623 H1616 0.950 . S
C1623 C1620 1.387 . S
C1624 C1625 1.387 . S
C1624 H1628 0.950 . S
C1624 C1633 1.390 . S
C1625 C1624 1.387 . S
C1625 C1627 1.387 . S
H1626 C1633 0.947 1_455 S
C1627 C1625 1.387 . S
C1627 C1629 1.390 . S
C1627 H1631 0.950 . S
H1628 C1624 0.950 . S
C1629 C1627 1.390 . S
C1629 C1630 1.387 . S
C1629 H1632 0.950 . S
C1630 C1629 1.387 . S
C1630 C1633 1.387 . S
H1631 C1627 0.950 . S
H1632 C1629 0.950 . S
C1633 C1624 1.390 . S
C1633 H1626 0.947 1_655 S
C1633 C1630 1.387 . S
C1634 C1635 1.387 . S
C1634 H1638 0.950 . S
C1634 C1643 1.390 . S
C1635 C1634 1.387 . S
C1635 C1637 1.387 . S
H1636 C1643 0.950 . S
C1637 C1635 1.387 . S
C1637 C1639 1.390 . S
C1637 H1641 0.950 . S
H1638 C1634 0.950 . S
C1639 C1637 1.390 . S
C1639 C1640 1.387 . S
C1639 H1642 0.950 . S
C1640 C1639 1.387 . S
C1640 C1643 1.387 . S
H1641 C1637 0.950 . S
H1642 C1639 0.950 . S
C1643 C1634 1.390 . S
C1643 H1636 0.950 . S
C1643 C1640 1.387 . S
C1644 C1645 1.387 . S
C1644 H1648 0.950 . S
C1644 C1653 1.390 . S
C1645 C1644 1.387 . S
C1645 C1647 1.387 . S
H1646 C1653 0.950 . S
C1647 C1645 1.387 . S
C1647 C1649 1.390 . S
C1647 H1651 0.950 . S
H1648 C1644 0.950 . S
C1649 C1647 1.390 . S
C1649 C1650 1.387 . S
C1649 H1652 0.950 . S
C1650 C1649 1.387 . S
C1650 C1653 1.387 . S
H1651 C1647 0.950 . S
H1652 C1649 0.950 . S
C1653 C1644 1.390 . S
C1653 H1646 0.950 . S
C1653 C1650 1.387 . S
C1654 C1655 1.387 . S
C1654 H1658 0.950 . S
C1654 C1663 1.390 . S
C1655 C1654 1.387 . S
C1655 C1657 1.387 . S
H1656 C1663 0.950 . S
C1657 C1655 1.387 . S
C1657 C1659 1.390 . S
C1657 H1661 0.950 . S
H1658 C1654 0.950 . S
C1659 C1657 1.390 . S
C1659 C1660 1.387 . S
C1659 H1662 0.950 . S
C1660 C1659 1.387 . S
C1660 C1663 1.387 . S
H1661 C1657 0.950 . S
H1662 C1659 0.950 . S
C1663 C1654 1.390 . S
C1663 H1656 0.950 . S
C1663 C1660 1.387 . S
C1664 C1665 1.388 . S
C1664 H1668 0.950 . S
C1664 C1673 1.390 1_565 S
C1665 C1664 1.388 . S
C1665 C1667 1.386 1_565 S
H1666 C1673 0.950 1_565 S
C1667 C1665 1.386 1_545 S
C1667 C1669 1.390 . S
C1667 H1671 0.950 . S
H1668 C1664 0.950 . S
C1669 C1667 1.390 . S
C1669 C1670 1.387 . S
C1669 H1672 0.950 . S
C1670 C1669 1.387 . S
C1670 C1673 1.387 . S
H1671 C1667 0.950 . S
H1672 C1669 0.950 . S
C1673 C1664 1.390 1_545 S
C1673 H1666 0.950 1_545 S
C1673 C1670 1.387 . S
C1674 C1675 1.387 1_556 S
C1674 H1678 0.950 . S
C1674 C1683 1.390 . S
C1675 C1674 1.387 1_554 S
C1675 C1677 1.387 . S
H1676 C1683 0.950 . S
C1677 C1675 1.387 . S
C1677 C1679 1.390 . S
C1677 H1681 0.950 . S
H1678 C1674 0.950 . S
C1679 C1677 1.390 . S
C1679 C1680 1.387 . S
C1679 H1682 0.950 . S
C1680 C1679 1.387 . S
C1680 C1683 1.387 1_554 S
H1681 C1677 0.950 . S
H1682 C1679 0.950 . S
C1683 C1674 1.390 . S
C1683 H1676 0.950 . S
C1683 C1680 1.387 1_556 S
C1684 C1685 1.387 . S
C1684 H1688 0.950 . S
C1684 C1693 1.390 . S
C1685 C1684 1.387 . S
C1685 C1687 1.387 . S
H1686 C1693 0.950 . S
C1687 C1685 1.387 . S
C1687 C1689 1.390 . S
C1687 H1691 0.950 . S
H1688 C1684 0.950 . S
C1689 C1687 1.390 . S
C1689 C1690 1.387 . S
C1689 H1692 0.950 . S
C1690 C1689 1.387 . S
C1690 C1693 1.387 . S
H1691 C1687 0.950 . S
H1692 C1689 0.950 . S
C1693 C1684 1.390 . S
C1693 H1686 0.950 . S
C1693 C1690 1.387 . S
C1694 C1695 1.387 . S
C1694 H1698 0.950 . S
C1694 C1703 1.390 . S
C1695 C1694 1.387 . S
C1695 C1697 1.387 . S
H1696 C1703 0.950 . S
C1697 C1695 1.387 . S
C1697 C1699 1.390 . S
C1697 H1701 0.950 . S
H1698 C1694 0.950 . S
C1699 C1697 1.390 . S
C1699 C1700 1.387 . S
C1699 H1702 0.950 . S
C1700 C1699 1.387 . S
C1700 C1703 1.387 . S
H1701 C1697 0.950 . S
H1702 C1699 0.950 . S
C1703 C1694 1.390 . S
C1703 H1696 0.950 . S
C1703 C1700 1.387 . S
C1704 C1705 1.387 . S
C1704 H1708 0.950 . S
C1704 C1713 1.390 . S
C1705 C1704 1.387 . S
C1705 C1707 1.387 . S
H1706 C1713 0.950 . S
C1707 C1705 1.387 . S
C1707 C1709 1.390 . S
C1707 H1711 0.950 . S
H1708 C1704 0.950 . S
C1709 C1707 1.390 . S
C1709 C1710 1.387 . S
C1709 H1712 0.950 . S
C1710 C1709 1.387 . S
C1710 C1713 1.387 . S
H1711 C1707 0.950 . S
H1712 C1709 0.950 . S
C1713 C1704 1.390 . S
C1713 H1706 0.950 . S
C1713 C1710 1.387 . S
C1714 C1715 1.387 . S
C1714 H1718 0.950 . S
C1714 C1723 1.390 . S
C1715 C1714 1.387 . S
C1715 C1717 1.387 . S
H1716 C1723 0.950 . S
C1717 C1715 1.387 . S
C1717 C1719 1.390 . S
C1717 H1721 0.950 . S
H1718 C1714 0.950 . S
C1719 C1717 1.390 . S
C1719 C1720 1.387 . S
C1719 H1722 0.950 . S
C1720 C1719 1.387 . S
C1720 C1723 1.387 . S
H1721 C1717 0.950 . S
H1722 C1719 0.950 . S
C1723 C1714 1.390 . S
C1723 H1716 0.950 . S
C1723 C1720 1.387 . S
C1724 C1725 1.387 . S
C1724 H1728 0.950 . S
C1724 C1733 1.390 . S
C1725 C1724 1.387 . S
C1725 C1727 1.387 . S
H1726 C1733 0.950 . S
C1727 C1725 1.387 . S
C1727 C1729 1.390 . S
C1727 H1731 0.950 . S
H1728 C1724 0.950 . S
C1729 C1727 1.390 . S
C1729 C1730 1.387 . S
C1729 H1732 0.950 . S
C1730 C1729 1.387 . S
C1730 C1733 1.387 . S
H1731 C1727 0.950 . S
H1732 C1729 0.950 . S
C1733 C1724 1.390 . S
C1733 H1726 0.950 . S
C1733 C1730 1.387 . S
C1734 C1735 1.387 . S
C1734 H1738 0.950 . S
C1734 C1743 1.390 . S
C1735 C1734 1.387 . S
C1735 C1737 1.387 . S
H1736 C1743 0.950 . S
C1737 C1735 1.387 . S
C1737 C1739 1.390 . S
C1737 H1741 0.950 . S
H1738 C1734 0.950 . S
C1739 C1737 1.390 . S
C1739 C1740 1.387 . S
C1739 H1742 0.950 . S
C1740 C1739 1.387 . S
C1740 C1743 1.387 . S
H1741 C1737 0.950 . S
H1742 C1739 0.950 . S
C1743 C1734 1.390 . S
C1743 H1736 0.950 . S
C1743 C1740 1.387 . S
C1744 C1745 1.387 . S
C1744 H1748 0.950 . S
C1744 C1753 1.390 . S
C1745 C1744 1.387 . S
C1745 C1747 1.387 . S
H1746 C1753 0.950 1_545 S
C1747 C1745 1.387 . S
C1747 C1749 1.390 . S
C1747 H1751 0.950 . S
H1748 C1744 0.950 . S
C1749 C1747 1.390 . S
C1749 C1750 1.387 . S
C1749 H1752 0.950 . S
C1750 C1749 1.387 . S
C1750 C1753 1.387 . S
H1751 C1747 0.950 . S
H1752 C1749 0.950 . S
C1753 C1744 1.390 . S
C1753 H1746 0.950 1_565 S
C1753 C1750 1.387 . S
C1754 C1755 1.387 . S
C1754 H1758 0.950 . S
C1754 C1763 1.390 . S
C1755 C1754 1.387 . S
C1755 C1757 1.387 . S
H1756 C1763 0.950 . S
C1757 C1755 1.387 . S
C1757 C1759 1.390 . S
C1757 H1761 0.950 . S
H1758 C1754 0.950 . S
C1759 C1757 1.390 . S
C1759 C1760 1.387 . S
C1759 H1762 0.950 . S
C1760 C1759 1.387 . S
C1760 C1763 1.387 . S
H1761 C1757 0.950 . S
H1762 C1759 0.950 . S
C1763 C1754 1.390 . S
C1763 H1756 0.950 . S
C1763 C1760 1.387 . S
C1764 C1765 1.387 . S
C1764 H1768 0.950 . S
C1764 C1773 1.390 . S
C1765 C1764 1.387 . S
C1765 C1767 1.387 . S
H1766 C1773 0.950 . S
C1767 C1765 1.387 . S
C1767 C1769 1.390 . S
C1767 H1771 0.950 . S
H1768 C1764 0.950 . S
C1769 C1767 1.390 . S
C1769 C1770 1.387 . S
C1769 H1772 0.950 . S
C1770 C1769 1.387 . S
C1770 C1773 1.387 . S
H1771 C1767 0.950 . S
H1772 C1769 0.950 . S
C1773 C1764 1.390 . S
C1773 H1766 0.950 . S
C1773 C1770 1.387 . S
C1774 C1775 1.387 . S
C1774 H1778 0.950 . S
C1774 C1783 1.390 . S
C1775 C1774 1.387 . S
C1775 C1777 1.387 . S
H1776 C1783 0.950 . S
C1777 C1775 1.387 . S
C1777 C1779 1.390 . S
C1777 H1781 0.950 . S
H1778 C1774 0.950 . S
C1779 C1777 1.390 . S
C1779 C1780 1.387 . S
C1779 H1782 0.950 . S
C1780 C1779 1.387 . S
C1780 C1783 1.387 . S
H1781 C1777 0.950 . S
H1782 C1779 0.950 . S
C1783 C1774 1.390 . S
C1783 H1776 0.950 . S
C1783 C1780 1.387 . S
C1784 C1785 1.387 . S
C1784 H1788 0.950 . S
C1784 C1793 1.390 . S
C1785 C1784 1.387 . S
C1785 C1787 1.387 . S
H1786 C1793 0.950 . S
C1787 C1785 1.387 . S
C1787 C1789 1.390 . S
C1787 H1791 0.950 1_455 S
H1788 C1784 0.950 . S
C1789 C1787 1.390 . S
C1789 C1790 1.387 . S
C1789 H1792 0.950 . S
C1790 C1789 1.387 . S
C1790 C1793 1.387 . S
H1791 C1787 0.950 1_655 S
H1792 C1789 0.950 . S
C1793 C1784 1.390 . S
C1793 H1786 0.950 . S
C1793 C1790 1.387 . S
C1794 C1795 1.387 . S
C1794 H1798 0.950 . S
C1794 C1803 1.390 . S
C1795 C1794 1.387 . S
C1795 C1797 1.387 . S
H1796 C1803 0.950 . S
C1797 C1795 1.387 . S
C1797 C1799 1.390 . S
C1797 H1801 0.950 . S
H1798 C1794 0.950 . S
C1799 C1797 1.390 . S
C1799 C1800 1.387 . S
C1799 H1802 0.950 . S
C1800 C1799 1.387 . S
C1800 C1803 1.387 . S
H1801 C1797 0.950 . S
H1802 C1799 0.950 . S
C1803 C1794 1.390 . S
C1803 H1796 0.950 . S
C1803 C1800 1.387 . S
C1804 C1805 1.387 . S
C1804 H1808 0.950 . S
C1804 C1813 1.390 . S
C1805 C1804 1.387 . S
C1805 C1807 1.387 . S
H1806 C1813 0.950 1_545 S
C1807 C1805 1.387 . S
C1807 C1809 1.401 . S
C1807 H1811 0.950 . S
H1808 C1804 0.950 . S
C1809 C1807 1.401 . S
C1809 C1810 1.390 . S
C1809 H1812 0.937 1_556 S
C1810 C1809 1.390 . S
C1810 C1813 1.387 . S
H1811 C1807 0.950 . S
H1812 C1809 0.937 1_554 S
C1813 C1804 1.390 . S
C1813 H1806 0.950 1_565 S
C1813 C1810 1.387 . S
C1814 C1815 1.387 . S
C1814 H1818 0.950 . S
C1814 C1823 1.390 . S
C1815 C1814 1.387 . S
C1815 C1817 1.387 . S
H1816 C1823 0.950 1_655 S
C1817 C1815 1.387 . S
C1817 C1819 1.390 . S
C1817 H1821 0.950 . S
H1818 C1814 0.950 . S
C1819 C1817 1.390 . S
C1819 C1820 1.387 . S
C1819 H1822 0.950 . S
C1820 C1819 1.387 . S
C1820 C1823 1.387 . S
H1821 C1817 0.950 . S
H1822 C1819 0.950 . S
C1823 C1814 1.390 . S
C1823 H1816 0.950 1_455 S
C1823 C1820 1.387 . S
C1824 C1825 1.387 . S
C1824 H1828 0.950 . S
C1824 C1833 1.390 . S
C1825 C1824 1.387 . S
C1825 C1827 1.387 . S
H1826 C1833 0.950 . S
C1827 C1825 1.387 . S
C1827 C1829 1.390 . S
C1827 H1831 0.950 . S
H1828 C1824 0.950 . S
C1829 C1827 1.390 . S
C1829 C1830 1.387 . S
C1829 H1832 0.950 . S
C1830 C1829 1.387 . S
C1830 C1833 1.387 . S
H1831 C1827 0.950 . S
H1832 C1829 0.950 . S
C1833 C1824 1.390 . S
C1833 H1826 0.950 . S
C1833 C1830 1.387 . S
C1834 C1835 1.387 . S
C1834 H1838 0.950 . S
C1834 C1843 1.390 . S
C1835 C1834 1.387 . S
C1835 C1837 1.387 . S
H1836 C1843 0.950 . S
C1837 C1835 1.387 . S
C1837 C1839 1.390 . S
C1837 H1841 0.950 . S
H1838 C1834 0.950 . S
C1839 C1837 1.390 . S
C1839 C1840 1.387 . S
C1839 H1842 0.950 . S
C1840 C1839 1.387 . S
C1840 C1843 1.387 . S
H1841 C1837 0.950 . S
H1842 C1839 0.950 . S
C1843 C1834 1.390 . S
C1843 H1836 0.950 . S
C1843 C1840 1.387 . S
C1844 C1845 1.387 . S
C1844 H1848 0.950 . S
C1844 C1853 1.390 . S
C1845 C1844 1.387 . S
C1845 C1847 1.387 . S
H1846 C1853 0.950 . S
C1847 C1845 1.387 . S
C1847 C1849 1.390 . S
C1847 H1851 0.950 . S
H1848 C1844 0.950 . S
C1849 C1847 1.390 . S
C1849 C1850 1.387 . S
C1849 H1852 0.950 . S
C1850 C1849 1.387 . S
C1850 C1853 1.387 . S
H1851 C1847 0.950 . S
H1852 C1849 0.950 . S
C1853 C1844 1.390 . S
C1853 H1846 0.950 . S
C1853 C1850 1.387 . S
C1854 C1855 1.387 . S
C1854 H1858 0.950 . S
C1854 C1863 1.390 . S
C1855 C1854 1.387 . S
C1855 C1857 1.387 . S
H1856 C1863 0.950 . S
C1857 C1855 1.387 . S
C1857 C1859 1.390 . S
C1857 H1861 0.950 . S
H1858 C1854 0.950 . S
C1859 C1857 1.390 . S
C1859 C1860 1.387 . S
C1859 H1862 0.950 . S
C1860 C1859 1.387 . S
C1860 C1863 1.387 . S
H1861 C1857 0.950 . S
H1862 C1859 0.950 . S
C1863 C1854 1.390 . S
C1863 H1856 0.950 . S
C1863 C1860 1.387 . S
C1864 C1865 1.387 . S
C1864 H1868 0.950 . S
C1864 C1873 1.390 . S
C1865 C1864 1.387 . S
C1865 C1867 1.387 . S
H1866 C1873 0.950 . S
C1867 C1865 1.387 . S
C1867 C1869 1.390 . S
C1867 H1871 0.950 . S
H1868 C1864 0.950 . S
C1869 C1867 1.390 . S
C1869 C1870 1.387 . S
C1869 H1872 0.950 . S
C1870 C1869 1.387 . S
C1870 C1873 1.387 . S
H1871 C1867 0.950 . S
H1872 C1869 0.950 . S
C1873 C1864 1.390 . S
C1873 H1866 0.950 . S
C1873 C1870 1.387 . S
C1874 C1875 1.387 . S
C1874 H1878 0.950 . S
C1874 C1883 1.390 . S
C1875 C1874 1.387 . S
C1875 C1877 1.387 . S
H1876 C1883 0.950 . S
C1877 C1875 1.387 . S
C1877 C1879 1.390 . S
C1877 H1881 0.950 . S
H1878 C1874 0.950 . S
C1879 C1877 1.390 . S
C1879 C1880 1.387 . S
C1879 H1882 0.950 . S
C1880 C1879 1.387 . S
C1880 C1883 1.387 . S
H1881 C1877 0.950 . S
H1882 C1879 0.950 . S
C1883 C1874 1.390 . S
C1883 H1876 0.950 . S
C1883 C1880 1.387 . S
C1884 C1885 1.387 . S
C1884 H1888 0.950 . S
C1884 C1893 1.390 . S
C1885 C1884 1.387 . S
C1885 C1887 1.387 . S
H1886 C1893 0.950 . S
C1887 C1885 1.387 . S
C1887 C1889 1.390 . S
C1887 H1891 0.950 . S
H1888 C1884 0.950 . S
C1889 C1887 1.390 . S
C1889 C1890 1.387 . S
C1889 H1892 0.950 . S
C1890 C1889 1.387 . S
C1890 C1893 1.387 . S
H1891 C1887 0.950 . S
H1892 C1889 0.950 . S
C1893 C1884 1.390 . S
C1893 H1886 0.950 . S
C1893 C1890 1.387 . S
C1894 C1895 1.387 . S
C1894 H1898 0.950 . S
C1894 C1903 1.390 . S
C1895 C1894 1.387 . S
C1895 C1897 1.387 . S
H1896 C1903 0.950 . S
C1897 C1895 1.387 . S
C1897 C1899 1.390 . S
C1897 H1901 0.950 . S
H1898 C1894 0.950 . S
C1899 C1897 1.390 . S
C1899 C1900 1.387 . S
C1899 H1902 0.950 . S
C1900 C1899 1.387 . S
C1900 C1903 1.387 . S
H1901 C1897 0.950 . S
H1902 C1899 0.950 . S
C1903 C1894 1.390 . S
C1903 H1896 0.950 . S
C1903 C1900 1.387 . S
C1904 C1905 1.387 . S
C1904 H1908 0.950 1_556 S
C1904 C1913 1.390 . S
C1905 C1904 1.387 . S
C1905 C1907 1.387 . S
H1906 C1913 0.950 . S
C1907 C1905 1.387 . S
C1907 C1909 1.390 . S
C1907 H1911 0.950 . S
H1908 C1904 0.950 1_554 S
C1909 C1907 1.390 . S
C1909 C1910 1.387 . S
C1909 H1912 0.950 . S
C1910 C1909 1.387 . S
C1910 C1913 1.387 . S
H1911 C1907 0.950 . S
H1912 C1909 0.950 . S
C1913 C1904 1.390 . S
C1913 H1906 0.950 . S
C1913 C1910 1.387 . S
C1914 C1915 1.387 . S
C1914 H1918 0.950 . S
C1914 C1923 1.390 . S
C1915 C1914 1.387 . S
C1915 C1917 1.387 . S
H1916 C1923 0.950 . S
C1917 C1915 1.387 . S
C1917 C1919 1.390 . S
C1917 H1921 0.950 1_554 S
H1918 C1914 0.950 . S
C1919 C1917 1.390 . S
C1919 C1920 1.387 . S
C1919 H1922 0.950 1_554 S
C1920 C1919 1.387 . S
C1920 C1923 1.387 . S
H1921 C1917 0.950 1_556 S
H1922 C1919 0.950 1_556 S
C1923 C1914 1.390 . S
C1923 H1916 0.950 . S
C1923 C1920 1.387 . S
C1924 C1925 1.387 . S
C1924 H1928 0.950 . S
C1924 C1933 1.390 . S
C1925 C1924 1.387 . S
C1925 C1927 1.387 . S
H1926 C1933 0.950 . S
C1927 C1925 1.387 . S
C1927 C1929 1.390 . S
C1927 H1931 0.950 . S
H1928 C1924 0.950 . S
C1929 C1927 1.390 . S
C1929 C1930 1.387 . S
C1929 H1932 0.950 . S
C1930 C1929 1.387 . S
C1930 C1933 1.387 . S
H1931 C1927 0.950 . S
H1932 C1929 0.950 . S
C1933 C1924 1.390 . S
C1933 H1926 0.950 . S
C1933 C1930 1.387 . S
C1934 C1935 1.387 . S
C1934 H1938 0.950 . S
C1934 C1943 1.390 . S
C1935 C1934 1.387 . S
C1935 C1937 1.387 . S
H1936 C1943 0.950 . S
C1937 C1935 1.387 . S
C1937 C1939 1.390 . S
C1937 H1941 0.950 . S
H1938 C1934 0.950 . S
C1939 C1937 1.390 . S
C1939 C1940 1.387 . S
C1939 H1942 0.950 . S
C1940 C1939 1.387 . S
C1940 C1943 1.387 . S
H1941 C1937 0.950 . S
H1942 C1939 0.950 . S
C1943 C1934 1.390 . S
C1943 H1936 0.950 . S
C1943 C1940 1.387 . S
C1944 C1945 1.387 . S
C1944 H1948 0.950 . S
C1944 C1953 1.390 . S
C1945 C1944 1.387 . S
C1945 C1947 1.387 . S
H1946 C1953 0.950 . S
C1947 C1945 1.387 . S
C1947 C1949 1.390 . S
C1947 H1951 0.950 . S
H1948 C1944 0.950 . S
C1949 C1947 1.390 . S
C1949 C1950 1.387 . S
C1949 H1952 0.950 . S
C1950 C1949 1.387 . S
C1950 C1953 1.387 . S
H1951 C1947 0.950 . S
H1952 C1949 0.950 . S
C1953 C1944 1.390 . S
C1953 H1946 0.950 . S
C1953 C1950 1.387 . S
C1954 C1955 1.387 1_545 S
C1954 H1958 0.950 . S
C1954 C1963 1.390 . S
C1955 C1954 1.387 1_565 S
C1955 C1957 1.387 . S
H1956 C1963 0.950 . S
C1957 C1955 1.387 . S
C1957 C1959 1.390 . S
C1957 H1961 0.950 . S
H1958 C1954 0.950 . S
C1959 C1957 1.390 . S
C1959 C1960 1.387 1_565 S
C1959 H1962 0.950 . S
C1960 C1959 1.387 1_545 S
C1960 C1963 1.387 . S
H1961 C1957 0.950 . S
H1962 C1959 0.950 . S
C1963 C1954 1.390 . S
C1963 H1956 0.950 . S
C1963 C1960 1.387 . S
C1964 C1965 1.387 . S
C1964 H1968 0.950 . S
C1964 C1973 1.390 . S
C1965 C1964 1.387 . S
C1965 C1967 1.387 . S
H1966 C1973 0.950 . S
C1967 C1965 1.387 . S
C1967 C1969 1.390 . S
C1967 H1971 0.950 . S
H1968 C1964 0.950 . S
C1969 C1967 1.390 . S
C1969 C1970 1.387 . S
C1969 H1972 0.950 . S
C1970 C1969 1.387 . S
C1970 C1973 1.387 . S
H1971 C1967 0.950 . S
H1972 C1969 0.950 . S
C1973 C1964 1.390 . S
C1973 H1966 0.950 . S
C1973 C1970 1.387 . S
C1974 C1975 1.387 . S
C1974 H1978 0.950 . S
C1974 C1983 1.390 . S
C1975 C1974 1.387 . S
C1975 C1977 1.387 . S
H1976 C1983 0.950 . S
C1977 C1975 1.387 . S
C1977 C1979 1.390 . S
C1977 H1981 0.950 . S
H1978 C1974 0.950 . S
C1979 C1977 1.390 . S
C1979 C1980 1.387 . S
C1979 H1982 0.950 . S
C1980 C1979 1.387 . S
C1980 C1983 1.387 . S
H1981 C1977 0.950 . S
H1982 C1979 0.950 . S
C1983 C1974 1.390 . S
C1983 H1976 0.950 . S
C1983 C1980 1.387 . S
C1984 C1985 1.387 . S
C1984 H1988 0.950 . S
C1984 C1993 1.390 . S
C1985 C1984 1.387 . S
C1985 C1987 1.387 . S
H1986 C1993 0.950 . S
C1987 C1985 1.387 . S
C1987 C1989 1.390 . S
C1987 H1991 0.950 . S
H1988 C1984 0.950 . S
C1989 C1987 1.390 . S
C1989 C1990 1.387 . S
C1989 H1992 0.950 . S
C1990 C1989 1.387 . S
C1990 C1993 1.387 . S
H1991 C1987 0.950 . S
H1992 C1989 0.950 . S
C1993 C1984 1.390 . S
C1993 H1986 0.950 . S
C1993 C1990 1.387 . S
C1994 C1995 1.387 . S
C1994 H1998 0.950 . S
C1994 C2003 1.390 . S
C1995 C1994 1.387 . S
C1995 C1997 1.387 . S
H1996 C2003 0.950 . S
C1997 C1995 1.387 . S
C1997 C1999 1.390 . S
C1997 H2001 0.950 . S
H1998 C1994 0.950 . S
C1999 C1997 1.390 . S
C1999 C2000 1.387 . S
C1999 H2002 0.950 . S
C2000 C1999 1.387 . S
C2000 C2003 1.387 . S
H2001 C1997 0.950 . S
H2002 C1999 0.950 . S
C2003 C1994 1.390 . S
C2003 H1996 0.950 . S
C2003 C2000 1.387 . S
C2004 C2005 1.387 . S
C2004 H2008 0.950 . S
C2004 C2013 1.390 . S
C2005 C2004 1.387 . S
C2005 C2007 1.387 . S
H2006 C2013 0.950 . S
C2007 C2005 1.387 . S
C2007 C2009 1.390 . S
C2007 H2011 0.950 1_455 S
H2008 C2004 0.950 . S
C2009 C2007 1.390 . S
C2009 C2010 1.387 . S
C2009 H2012 0.950 . S
C2010 C2009 1.387 . S
C2010 C2013 1.387 . S
H2011 C2007 0.950 1_655 S
H2012 C2009 0.950 . S
C2013 C2004 1.390 . S
C2013 H2006 0.950 . S
C2013 C2010 1.387 . S
C2014 C2015 1.387 . S
C2014 H2018 0.950 . S
C2014 C2023 1.390 1_455 S
C2015 C2014 1.387 . S
C2015 C2017 1.387 . S
H2016 C2023 0.950 . S
C2017 C2015 1.387 . S
C2017 C2019 1.390 1_455 S
C2017 H2021 0.950 . S
H2018 C2014 0.950 . S
C2019 C2017 1.390 1_655 S
C2019 C2020 1.387 . S
C2019 H2022 0.950 . S
C2020 C2019 1.387 . S
C2020 C2023 1.387 . S
H2021 C2017 0.950 . S
H2022 C2019 0.950 . S
C2023 C2014 1.390 1_655 S
C2023 H2016 0.950 . S
C2023 C2020 1.387 . S
C2024 C2025 1.387 . S
C2024 H2028 0.950 . S
C2024 C2033 1.390 . S
C2025 C2024 1.387 . S
C2025 C2027 1.387 . S
H2026 C2033 0.950 . S
C2027 C2025 1.387 . S
C2027 C2029 1.390 . S
C2027 H2031 0.950 . S
H2028 C2024 0.950 . S
C2029 C2027 1.390 . S
C2029 C2030 1.387 . S
C2029 H2032 0.950 . S
C2030 C2029 1.387 . S
C2030 C2033 1.387 . S
H2031 C2027 0.950 . S
H2032 C2029 0.950 . S
C2033 C2024 1.390 . S
C2033 H2026 0.950 . S
C2033 C2030 1.387 . S
C2034 C2035 1.387 . S
C2034 H2038 0.950 . S
C2034 C2043 1.390 . S
C2035 C2034 1.387 . S
C2035 C2037 1.387 . S
H2036 C2043 0.950 . S
C2037 C2035 1.387 . S
C2037 C2039 1.390 . S
C2037 H2041 0.950 . S
H2038 C2034 0.950 . S
C2039 C2037 1.390 . S
C2039 C2040 1.387 . S
C2039 H2042 0.950 . S
C2040 C2039 1.387 . S
C2040 C2043 1.387 . S
H2041 C2037 0.950 . S
H2042 C2039 0.950 . S
C2043 C2034 1.390 . S
C2043 H2036 0.950 . S
C2043 C2040 1.387 . S
C2044 C2045 1.387 . S
C2044 H2048 0.950 . S
C2044 C2053 1.390 . S
C2045 C2044 1.387 . S
C2045 C2047 1.387 . S
H2046 C2053 0.950 . S
C2047 C2045 1.387 . S
C2047 C2049 1.390 . S
C2047 H2051 0.950 . S
H2048 C2044 0.950 . S
C2049 C2047 1.390 . S
C2049 C2050 1.387 . S
C2049 H2052 0.950 . S
C2050 C2049 1.387 . S
C2050 C2053 1.387 . S
H2051 C2047 0.950 . S
H2052 C2049 0.950 . S
C2053 C2044 1.390 . S
C2053 H2046 0.950 . S
C2053 C2050 1.387 . S
C2054 C2055 1.387 . S
C2054 H2058 0.950 . S
C2054 C2063 1.390 . S
C2055 C2054 1.387 . S
C2055 C2057 1.387 . S
H2056 C2063 0.950 . S
C2057 C2055 1.387 . S
C2057 C2059 1.390 . S
C2057 H2061 0.950 . S
H2058 C2054 0.950 . S
C2059 C2057 1.390 . S
C2059 C2060 1.387 . S
C2059 H2062 0.950 . S
C2060 C2059 1.387 . S
C2060 C2063 1.387 . S
H2061 C2057 0.950 . S
H2062 C2059 0.950 . S
C2063 C2054 1.390 . S
C2063 H2056 0.950 . S
C2063 C2060 1.387 . S
C2064 C2065 1.387 . S
C2064 H2068 0.950 . S
C2064 C2073 1.390 . S
C2065 C2064 1.387 . S
C2065 C2067 1.387 . S
H2066 C2073 0.950 . S
C2067 C2065 1.387 . S
C2067 C2069 1.390 . S
C2067 H2071 0.950 . S
H2068 C2064 0.950 . S
C2069 C2067 1.390 . S
C2069 C2070 1.387 . S
C2069 H2072 0.950 . S
C2070 C2069 1.387 . S
C2070 C2073 1.387 . S
H2071 C2067 0.950 . S
H2072 C2069 0.950 . S
C2073 C2064 1.390 . S
C2073 H2066 0.950 . S
C2073 C2070 1.387 . S
C2074 C2075 1.387 . S
C2074 H2078 0.950 . S
C2074 C2083 1.390 . S
C2075 C2074 1.387 . S
C2075 C2077 1.387 . S
H2076 C2083 0.950 . S
C2077 C2075 1.387 . S
C2077 C2079 1.390 . S
C2077 H2081 0.950 . S
H2078 C2074 0.950 . S
C2079 C2077 1.390 . S
C2079 C2080 1.387 . S
C2079 H2082 0.950 . S
C2080 C2079 1.387 . S
C2080 C2083 1.387 . S
H2081 C2077 0.950 . S
H2082 C2079 0.950 . S
C2083 C2074 1.390 . S
C2083 H2076 0.950 . S
C2083 C2080 1.387 . S
C2084 C2085 1.387 . S
C2084 H2088 0.950 . S
C2084 C2093 1.390 . S
C2085 C2084 1.387 . S
C2085 C2087 1.387 . S
H2086 C2093 0.950 . S
C2087 C2085 1.387 . S
C2087 C2089 1.390 . S
C2087 H2091 0.950 . S
H2088 C2084 0.950 . S
C2089 C2087 1.390 . S
C2089 C2090 1.387 . S
C2089 H2092 0.950 . S
C2090 C2089 1.387 . S
C2090 C2093 1.387 . S
H2091 C2087 0.950 . S
H2092 C2089 0.950 . S
C2093 C2084 1.390 . S
C2093 H2086 0.950 . S
C2093 C2090 1.387 . S
C2094 C2095 1.387 . S
C2094 H2098 0.950 . S
C2094 C2103 1.390 . S
C2095 C2094 1.387 . S
C2095 C2097 1.387 . S
H2096 C2103 0.950 . S
C2097 C2095 1.387 . S
C2097 C2099 1.390 . S
C2097 H2101 0.950 . S
H2098 C2094 0.950 . S
C2099 C2097 1.390 . S
C2099 C2100 1.387 . S
C2099 H2102 0.950 . S
C2100 C2099 1.387 . S
C2100 C2103 1.387 . S
H2101 C2097 0.950 . S
H2102 C2099 0.950 . S
C2103 C2094 1.390 . S
C2103 H2096 0.950 . S
C2103 C2100 1.387 . S
C2104 C2105 1.387 . S
C2104 H2108 0.950 . S
C2104 C2113 1.390 . S
C2105 C2104 1.387 . S
C2105 C2107 1.387 . S
H2106 C2113 0.950 . S
C2107 C2105 1.387 . S
C2107 C2109 1.390 . S
C2107 H2111 0.950 . S
H2108 C2104 0.950 . S
C2109 C2107 1.390 . S
C2109 C2110 1.387 . S
C2109 H2112 0.950 . S
C2110 C2109 1.387 . S
C2110 C2113 1.387 . S
H2111 C2107 0.950 . S
H2112 C2109 0.950 . S
C2113 C2104 1.390 . S
C2113 H2106 0.950 . S
C2113 C2110 1.387 . S
C2114 C2115 1.387 . S
C2114 H2118 0.950 . S
C2114 C2123 1.390 . S
C2115 C2114 1.387 . S
C2115 C2117 1.387 . S
H2116 C2123 0.950 . S
C2117 C2115 1.387 . S
C2117 C2119 1.390 . S
C2117 H2121 0.950 . S
H2118 C2114 0.950 . S
C2119 C2117 1.390 . S
C2119 C2120 1.387 . S
C2119 H2122 0.950 . S
C2120 C2119 1.387 . S
C2120 C2123 1.387 . S
H2121 C2117 0.950 . S
H2122 C2119 0.950 . S
C2123 C2114 1.390 . S
C2123 H2116 0.950 . S
C2123 C2120 1.387 . S
C2124 C2125 1.387 . S
C2124 H2128 0.950 . S
C2124 C2133 1.390 . S
C2125 C2124 1.387 . S
C2125 C2127 1.387 . S
H2126 C2133 0.950 . S
C2127 C2125 1.387 . S
C2127 C2129 1.390 . S
C2127 H2131 0.950 . S
H2128 C2124 0.950 . S
C2129 C2127 1.390 . S
C2129 C2130 1.387 . S
C2129 H2132 0.950 . S
C2130 C2129 1.387 . S
C2130 C2133 1.387 . S
H2131 C2127 0.950 . S
H2132 C2129 0.950 . S
C2133 C2124 1.390 . S
C2133 H2126 0.950 . S
C2133 C2130 1.387 . S
C2134 C2135 1.387 . S
C2134 H2138 0.950 . S
C2134 C2143 1.390 . S
C2135 C2134 1.387 . S
C2135 C2137 1.387 . S
H2136 C2143 0.950 . S
C2137 C2135 1.387 . S
C2137 C2139 1.390 . S
C2137 H2141 0.950 . S
H2138 C2134 0.950 . S
C2139 C2137 1.390 . S
C2139 C2140 1.387 . S
C2139 H2142 0.950 . S
C2140 C2139 1.387 . S
C2140 C2143 1.387 . S
H2141 C2137 0.950 . S
H2142 C2139 0.950 . S
C2143 C2134 1.390 . S
C2143 H2136 0.950 . S
C2143 C2140 1.387 . S
C2144 C2145 1.387 . S
C2144 H2148 0.950 . S
C2144 C2153 1.390 . S
C2145 C2144 1.387 . S
C2145 C2147 1.387 . S
H2146 C2153 0.950 . S
C2147 C2145 1.387 . S
C2147 C2149 1.390 . S
C2147 H2151 0.950 . S
H2148 C2144 0.950 . S
C2149 C2147 1.390 . S
C2149 C2150 1.387 . S
C2149 H2152 0.950 . S
C2150 C2149 1.387 . S
C2150 C2153 1.387 . S
H2151 C2147 0.950 . S
H2152 C2149 0.950 . S
C2153 C2144 1.390 . S
C2153 H2146 0.950 . S
C2153 C2150 1.387 . S
C2154 C2155 1.387 . S
C2154 H2158 0.950 . S
C2154 C2163 1.390 . S
C2155 C2154 1.387 . S
C2155 C2157 1.387 . S
H2156 C2163 0.950 . S
C2157 C2155 1.387 . S
C2157 C2159 1.390 . S
C2157 H2161 0.950 . S
H2158 C2154 0.950 . S
C2159 C2157 1.390 . S
C2159 C2160 1.387 . S
C2159 H2162 0.950 . S
C2160 C2159 1.387 . S
C2160 C2163 1.387 . S
H2161 C2157 0.950 . S
H2162 C2159 0.950 . S
C2163 C2154 1.390 . S
C2163 H2156 0.950 . S
C2163 C2160 1.387 . S
C2164 C2165 1.387 . S
C2164 H2168 0.950 . S
C2164 C2173 1.390 . S
C2165 C2164 1.387 . S
C2165 C2167 1.387 . S
H2166 C2173 0.950 . S
C2167 C2165 1.387 . S
C2167 C2169 1.390 . S
C2167 H2171 0.950 . S
H2168 C2164 0.950 . S
C2169 C2167 1.390 . S
C2169 C2170 1.387 . S
C2169 H2172 0.950 . S
C2170 C2169 1.387 . S
C2170 C2173 1.387 . S
H2171 C2167 0.950 . S
H2172 C2169 0.950 . S
C2173 C2164 1.390 . S
C2173 H2166 0.950 . S
C2173 C2170 1.387 . S
C2174 C2175 1.387 . S
C2174 H2178 0.950 . S
C2174 C2183 1.390 . S
C2175 C2174 1.387 . S
C2175 C2177 1.387 . S
H2176 C2183 0.950 . S
C2177 C2175 1.387 . S
C2177 C2179 1.390 . S
C2177 H2181 0.950 . S
H2178 C2174 0.950 . S
C2179 C2177 1.390 . S
C2179 C2180 1.387 . S
C2179 H2182 0.950 . S
C2180 C2179 1.387 . S
C2180 C2183 1.387 . S
H2181 C2177 0.950 . S
H2182 C2179 0.950 . S
C2183 C2174 1.390 . S
C2183 H2176 0.950 . S
C2183 C2180 1.387 . S
C2184 C2185 1.387 . S
C2184 H2188 0.950 . S
C2184 C2193 1.390 . S
C2185 C2184 1.387 . S
C2185 C2187 1.387 . S
H2186 C2193 0.950 . S
C2187 C2185 1.387 . S
C2187 C2189 1.390 . S
C2187 H2191 0.950 . S
H2188 C2184 0.950 . S
C2189 C2187 1.390 . S
C2189 C2190 1.387 . S
C2189 H2192 0.950 . S
C2190 C2189 1.387 . S
C2190 C2193 1.387 . S
H2191 C2187 0.950 . S
H2192 C2189 0.950 . S
C2193 C2184 1.390 . S
C2193 H2186 0.950 . S
C2193 C2190 1.387 . S
C2194 C2195 1.387 . S
C2194 H2198 0.950 1_554 S
C2194 C2203 1.390 . S
C2195 C2194 1.387 . S
C2195 C2197 1.387 . S
H2196 C2203 0.950 . S
C2197 C2195 1.387 . S
C2197 C2199 1.390 . S
C2197 H2201 0.950 . S
H2198 C2194 0.950 1_556 S
C2199 C2197 1.390 . S
C2199 C2200 1.387 . S
C2199 H2202 0.950 . S
C2200 C2199 1.387 . S
C2200 C2203 1.387 . S
H2201 C2197 0.950 . S
H2202 C2199 0.950 . S
C2203 C2194 1.390 . S
C2203 H2196 0.950 . S
C2203 C2200 1.387 . S
C2204 C2205 1.387 . S
C2204 H2208 0.950 . S
C2204 C2213 1.390 . S
C2205 C2204 1.387 . S
C2205 C2207 1.387 . S
H2206 C2213 0.950 . S
C2207 C2205 1.387 . S
C2207 C2209 1.390 . S
C2207 H2211 0.950 . S
H2208 C2204 0.950 . S
C2209 C2207 1.390 . S
C2209 C2210 1.387 . S
C2209 H2212 0.950 . S
C2210 C2209 1.387 . S
C2210 C2213 1.387 . S
H2211 C2207 0.950 . S
H2212 C2209 0.950 . S
C2213 C2204 1.390 . S
C2213 H2206 0.950 . S
C2213 C2210 1.387 . S
C2214 C2215 1.387 . S
C2214 H2218 0.950 . S
C2214 C2223 1.390 . S
C2215 C2214 1.387 . S
C2215 C2217 1.387 . S
H2216 C2223 0.950 . S
C2217 C2215 1.387 . S
C2217 C2219 1.390 . S
C2217 H2221 0.950 . S
H2218 C2214 0.950 . S
C2219 C2217 1.390 . S
C2219 C2220 1.387 . S
C2219 H2222 0.950 . S
C2220 C2219 1.387 . S
C2220 C2223 1.387 . S
H2221 C2217 0.950 . S
H2222 C2219 0.950 . S
C2223 C2214 1.390 . S
C2223 H2216 0.950 . S
C2223 C2220 1.387 . S
C2224 C2225 1.387 . S
C2224 H2228 0.950 . S
C2224 C2233 1.390 . S
C2225 C2224 1.387 . S
C2225 C2227 1.387 . S
H2226 C2233 0.950 . S
C2227 C2225 1.387 . S
C2227 C2229 1.390 . S
C2227 H2231 0.950 . S
H2228 C2224 0.950 . S
C2229 C2227 1.390 . S
C2229 C2230 1.387 . S
C2229 H2232 0.950 . S
C2230 C2229 1.387 . S
C2230 C2233 1.387 . S
H2231 C2227 0.950 . S
H2232 C2229 0.950 . S
C2233 C2224 1.390 . S
C2233 H2226 0.950 . S
C2233 C2230 1.387 . S
C2234 C2235 1.387 . S
C2234 H2238 0.950 . S
C2234 C2243 1.390 . S
C2235 C2234 1.387 . S
C2235 C2237 1.387 . S
H2236 C2243 0.950 . S
C2237 C2235 1.387 . S
C2237 C2239 1.390 . S
C2237 H2241 0.950 . S
H2238 C2234 0.950 . S
C2239 C2237 1.390 . S
C2239 C2240 1.387 . S
C2239 H2242 0.950 . S
C2240 C2239 1.387 . S
C2240 C2243 1.387 . S
H2241 C2237 0.950 . S
H2242 C2239 0.950 . S
C2243 C2234 1.390 . S
C2243 H2236 0.950 . S
C2243 C2240 1.387 . S
C2244 C2245 1.387 . S
C2244 H2248 0.950 . S
C2244 C2253 1.390 . S
C2245 C2244 1.387 . S
C2245 C2247 1.387 . S
H2246 C2253 0.950 . S
C2247 C2245 1.387 . S
C2247 C2249 1.390 . S
C2247 H2251 0.950 . S
H2248 C2244 0.950 . S
C2249 C2247 1.390 . S
C2249 C2250 1.387 . S
C2249 H2252 0.950 . S
C2250 C2249 1.387 . S
C2250 C2253 1.387 . S
H2251 C2247 0.950 . S
H2252 C2249 0.950 . S
C2253 C2244 1.390 . S
C2253 H2246 0.950 . S
C2253 C2250 1.387 . S
C2254 C2255 1.387 . S
C2254 H2258 0.950 . S
C2254 C2263 1.390 . S
C2255 C2254 1.387 . S
C2255 C2257 1.387 . S
H2256 C2263 0.950 . S
C2257 C2255 1.387 . S
C2257 C2259 1.390 . S
C2257 H2261 0.950 . S
H2258 C2254 0.950 . S
C2259 C2257 1.390 . S
C2259 C2260 1.387 . S
C2259 H2262 0.950 . S
C2260 C2259 1.387 . S
C2260 C2263 1.387 . S
H2261 C2257 0.950 . S
H2262 C2259 0.950 . S
C2263 C2254 1.390 . S
C2263 H2256 0.950 . S
C2263 C2260 1.387 . S
C2264 C2265 1.387 . S
C2264 H2268 0.950 . S
C2264 C2273 1.390 . S
C2265 C2264 1.387 . S
C2265 C2267 1.387 . S
H2266 C2273 0.950 1_554 S
C2267 C2265 1.387 . S
C2267 C2269 1.390 . S
C2267 H2271 0.950 . S
H2268 C2264 0.950 . S
C2269 C2267 1.390 . S
C2269 C2270 1.387 . S
C2269 H2272 0.950 . S
C2270 C2269 1.387 . S
C2270 C2273 1.387 . S
H2271 C2267 0.950 . S
H2272 C2269 0.950 . S
C2273 C2264 1.390 . S
C2273 H2266 0.950 1_556 S
C2273 C2270 1.387 . S
C2274 C2275 1.387 . S
C2274 H2278 0.950 . S
C2274 C2283 1.390 . S
C2275 C2274 1.387 . S
C2275 C2277 1.387 . S
H2276 C2283 0.950 . S
C2277 C2275 1.387 . S
C2277 C2279 1.390 . S
C2277 H2281 0.950 . S
H2278 C2274 0.950 . S
C2279 C2277 1.390 . S
C2279 C2280 1.387 . S
C2279 H2282 0.950 . S
C2280 C2279 1.387 . S
C2280 C2283 1.387 . S
H2281 C2277 0.950 . S
H2282 C2279 0.950 . S
C2283 C2274 1.390 . S
C2283 H2276 0.950 . S
C2283 C2280 1.387 . S
C2284 C2285 1.387 . S
C2284 H2288 0.950 . S
C2284 C2293 1.390 . S
C2285 C2284 1.387 . S
C2285 C2287 1.387 . S
H2286 C2293 0.950 . S
C2287 C2285 1.387 . S
C2287 C2289 1.390 . S
C2287 H2291 0.950 . S
H2288 C2284 0.950 . S
C2289 C2287 1.390 . S
C2289 C2290 1.387 . S
C2289 H2292 0.950 . S
C2290 C2289 1.387 . S
C2290 C2293 1.387 . S
H2291 C2287 0.950 . S
H2292 C2289 0.950 . S
C2293 C2284 1.390 . S
C2293 H2286 0.950 . S
C2293 C2290 1.387 . S
C2294 C2295 1.387 . S
C2294 H2298 0.950 . S
C2294 C2303 1.390 . S
C2295 C2294 1.387 . S
C2295 C2297 1.387 . S
H2296 C2303 0.950 . S
C2297 C2295 1.387 . S
C2297 C2299 1.390 . S
C2297 H2301 0.950 . S
H2298 C2294 0.950 . S
C2299 C2297 1.390 . S
C2299 C2300 1.387 . S
C2299 H2302 0.950 . S
C2300 C2299 1.387 . S
C2300 C2303 1.387 . S
H2301 C2297 0.950 . S
H2302 C2299 0.950 . S
C2303 C2294 1.390 . S
C2303 H2296 0.950 . S
C2303 C2300 1.387 . S
C2304 C2305 1.387 . S
C2304 H2308 0.950 . S
C2304 C2313 1.390 . S
C2305 C2304 1.387 . S
C2305 C2307 1.387 . S
H2306 C2313 0.950 . S
C2307 C2305 1.387 . S
C2307 C2309 1.390 . S
C2307 H2311 0.950 . S
H2308 C2304 0.950 . S
C2309 C2307 1.390 . S
C2309 C2310 1.387 . S
C2309 H2312 0.950 . S
C2310 C2309 1.387 . S
C2310 C2313 1.387 . S
H2311 C2307 0.950 . S
H2312 C2309 0.950 . S
C2313 C2304 1.390 . S
C2313 H2306 0.950 . S
C2313 C2310 1.387 . S
C2314 C2315 1.387 . S
C2314 H2318 0.950 . S
C2314 C2323 1.390 . S
C2315 C2314 1.387 . S
C2315 C2317 1.387 . S
H2316 C2323 0.950 . S
C2317 C2315 1.387 . S
C2317 C2319 1.390 . S
C2317 H2321 0.950 . S
H2318 C2314 0.950 . S
C2319 C2317 1.390 . S
C2319 C2320 1.387 . S
C2319 H2322 0.950 . S
C2320 C2319 1.387 . S
C2320 C2323 1.387 . S
H2321 C2317 0.950 . S
H2322 C2319 0.950 . S
C2323 C2314 1.390 . S
C2323 H2316 0.950 . S
C2323 C2320 1.387 . S
C2324 C2325 1.387 . S
C2324 H2328 0.950 1_455 S
C2324 C2333 1.390 . S
C2325 C2324 1.387 . S
C2325 C2327 1.387 . S
H2326 C2333 0.950 . S
C2327 C2325 1.387 . S
C2327 C2329 1.390 . S
C2327 H2331 0.950 . S
H2328 C2324 0.950 1_655 S
C2329 C2327 1.390 . S
C2329 C2330 1.387 . S
C2329 H2332 0.950 . S
C2330 C2329 1.387 . S
C2330 C2333 1.387 . S
H2331 C2327 0.950 . S
H2332 C2329 0.950 . S
C2333 C2324 1.390 . S
C2333 H2326 0.950 . S
C2333 C2330 1.387 . S
C2334 C2335 1.387 . S
C2334 H2338 0.950 . S
C2334 C2343 1.390 . S
C2335 C2334 1.387 . S
C2335 C2337 1.387 . S
H2336 C2343 0.950 . S
C2337 C2335 1.387 . S
C2337 C2339 1.390 . S
C2337 H2341 0.950 . S
H2338 C2334 0.950 . S
C2339 C2337 1.390 . S
C2339 C2340 1.387 . S
C2339 H2342 0.950 . S
C2340 C2339 1.387 . S
C2340 C2343 1.387 . S
H2341 C2337 0.950 . S
H2342 C2339 0.950 . S
C2343 C2334 1.390 . S
C2343 H2336 0.950 . S
C2343 C2340 1.387 . S
C2344 C2345 1.387 . S
C2344 H2348 0.950 . S
C2344 C2353 1.390 . S
C2345 C2344 1.387 . S
C2345 C2347 1.387 . S
H2346 C2353 0.950 . S
C2347 C2345 1.387 . S
C2347 C2349 1.390 . S
C2347 H2351 0.950 . S
H2348 C2344 0.950 . S
C2349 C2347 1.390 . S
C2349 C2350 1.387 . S
C2349 H2352 0.950 . S
C2350 C2349 1.387 . S
C2350 C2353 1.387 . S
H2351 C2347 0.950 . S
H2352 C2349 0.950 . S
C2353 C2344 1.390 . S
C2353 H2346 0.950 . S
C2353 C2350 1.387 . S
C2354 C2355 1.387 . S
C2354 H2358 0.950 . S
C2354 C2363 1.390 . S
C2355 C2354 1.387 . S
C2355 C2357 1.387 . S
H2356 C2363 0.950 . S
C2357 C2355 1.387 . S
C2357 C2359 1.390 . S
C2357 H2361 0.950 . S
H2358 C2354 0.950 . S
C2359 C2357 1.390 . S
C2359 C2360 1.387 . S
C2359 H2362 0.950 . S
C2360 C2359 1.387 . S
C2360 C2363 1.387 . S
H2361 C2357 0.950 . S
H2362 C2359 0.950 . S
C2363 C2354 1.390 . S
C2363 H2356 0.950 . S
C2363 C2360 1.387 . S
C2364 C2365 1.387 . S
C2364 H2368 0.954 . S
C2364 C2373 1.390 . S
C2365 C2364 1.387 . S
C2365 C2367 1.387 . S
H2366 C2373 0.950 . S
C2367 C2365 1.387 . S
C2367 C2369 1.390 . S
C2367 H2371 0.950 . S
H2368 C2364 0.954 . S
C2369 C2367 1.390 . S
C2369 C2370 1.387 . S
C2369 H2372 0.950 . S
C2370 C2369 1.387 . S
C2370 C2373 1.387 . S
H2371 C2367 0.950 . S
H2372 C2369 0.950 . S
C2373 C2364 1.390 . S
C2373 H2366 0.950 . S
C2373 C2370 1.387 . S
C2374 C2375 1.387 . S
C2374 H2378 0.950 . S
C2374 C2383 1.390 . S
C2375 C2374 1.387 . S
C2375 C2377 1.387 . S
H2376 C2383 0.950 . S
C2377 C2375 1.387 . S
C2377 C2379 1.390 . S
C2377 H2381 0.950 . S
H2378 C2374 0.950 . S
C2379 C2377 1.390 . S
C2379 C2380 1.387 . S
C2379 H2382 0.950 . S
C2380 C2379 1.387 . S
C2380 C2383 1.387 . S
H2381 C2377 0.950 . S
H2382 C2379 0.950 . S
C2383 C2374 1.390 . S
C2383 H2376 0.950 . S
C2383 C2380 1.387 . S
C2384 C2385 1.387 . S
C2384 H2388 0.950 . S
C2384 C2393 1.390 . S
C2385 C2384 1.387 . S
C2385 C2387 1.387 . S
H2386 C2393 0.950 . S
C2387 C2385 1.387 . S
C2387 C2389 1.390 . S
C2387 H2391 0.950 . S
H2388 C2384 0.950 . S
C2389 C2387 1.390 . S
C2389 C2390 1.387 . S
C2389 H2392 0.950 . S
C2390 C2389 1.387 . S
C2390 C2393 1.387 . S
H2391 C2387 0.950 . S
H2392 C2389 0.950 . S
C2393 C2384 1.390 . S
C2393 H2386 0.950 . S
C2393 C2390 1.387 . S
C2394 C2395 1.387 . S
C2394 H2398 0.950 . S
C2394 C2403 1.390 . S
C2395 C2394 1.387 . S
C2395 C2397 1.387 . S
H2396 C2403 0.950 . S
C2397 C2395 1.387 . S
C2397 C2399 1.390 . S
C2397 H2401 0.950 . S
H2398 C2394 0.950 . S
C2399 C2397 1.390 . S
C2399 C2400 1.387 . S
C2399 H2402 0.950 . S
C2400 C2399 1.387 . S
C2400 C2403 1.387 . S
H2401 C2397 0.950 . S
H2402 C2399 0.950 . S
C2403 C2394 1.390 . S
C2403 H2396 0.950 . S
C2403 C2400 1.387 . S
C2404 C2405 1.387 . S
C2404 H2408 0.950 . S
C2404 C2413 1.390 . S
C2405 C2404 1.387 . S
C2405 C2407 1.387 . S
H2406 C2413 0.950 . S
C2407 C2405 1.387 . S
C2407 C2409 1.390 . S
C2407 H2411 0.950 . S
H2408 C2404 0.950 . S
C2409 C2407 1.390 . S
C2409 C2410 1.387 . S
C2409 H2412 0.950 . S
C2410 C2409 1.387 . S
C2410 C2413 1.387 . S
H2411 C2407 0.950 . S
H2412 C2409 0.950 . S
C2413 C2404 1.390 . S
C2413 H2406 0.950 . S
C2413 C2410 1.387 . S
C2414 C2415 1.387 1_554 S
C2414 H2418 0.950 . S
C2414 C2423 1.390 . S
C2415 C2414 1.387 1_556 S
C2415 C2417 1.387 . S
H2416 C2423 0.950 . S
C2417 C2415 1.387 . S
C2417 C2419 1.390 . S
C2417 H2421 0.950 . S
H2418 C2414 0.950 . S
C2419 C2417 1.390 . S
C2419 C2420 1.387 1_556 S
C2419 H2422 0.950 . S
C2420 C2419 1.387 1_554 S
C2420 C2423 1.387 . S
H2421 C2417 0.950 . S
H2422 C2419 0.950 . S
C2423 C2414 1.390 . S
C2423 H2416 0.950 . S
C2423 C2420 1.387 . S
C2424 C2425 1.387 . S
C2424 H2428 0.950 . S
C2424 C2433 1.390 . S
C2425 C2424 1.387 . S
C2425 C2427 1.387 . S
H2426 C2433 0.950 . S
C2427 C2425 1.387 . S
C2427 C2429 1.390 . S
C2427 H2431 0.950 . S
H2428 C2424 0.950 . S
C2429 C2427 1.390 . S
C2429 C2430 1.387 . S
C2429 H2432 0.950 . S
C2430 C2429 1.387 . S
C2430 C2433 1.387 . S
H2431 C2427 0.950 . S
H2432 C2429 0.950 . S
C2433 C2424 1.390 . S
C2433 H2426 0.950 . S
C2433 C2430 1.387 . S
C2434 C2435 1.387 1_556 S
C2434 H2438 0.950 . S
C2434 C2443 1.390 . S
C2435 C2434 1.387 1_554 S
C2435 C2437 1.387 . S
H2436 C2443 0.950 . S
C2437 C2435 1.387 . S
C2437 C2439 1.390 . S
C2437 H2441 0.950 . S
H2438 C2434 0.950 . S
C2439 C2437 1.390 . S
C2439 C2440 1.387 1_554 S
C2439 H2442 0.950 . S
C2440 C2439 1.387 1_556 S
C2440 C2443 1.387 . S
H2441 C2437 0.950 . S
H2442 C2439 0.950 . S
C2443 C2434 1.390 . S
C2443 H2436 0.950 . S
C2443 C2440 1.387 . S
C2444 C2445 1.387 . S
C2444 H2448 0.950 . S
C2444 C2453 1.390 . S
C2445 C2444 1.387 . S
C2445 C2447 1.387 . S
H2446 C2453 0.950 . S
C2447 C2445 1.387 . S
C2447 C2449 1.390 . S
C2447 H2451 0.950 . S
H2448 C2444 0.950 . S
C2449 C2447 1.390 . S
C2449 C2450 1.387 . S
C2449 H2452 0.950 . S
C2450 C2449 1.387 . S
C2450 C2453 1.387 . S
H2451 C2447 0.950 . S
H2452 C2449 0.950 . S
C2453 C2444 1.390 . S
C2453 H2446 0.950 . S
C2453 C2450 1.387 . S
C2454 C2455 1.387 . S
C2454 H2458 0.950 . S
C2454 C2463 1.390 . S
C2455 C2454 1.387 . S
C2455 C2457 1.387 . S
H2456 C2463 0.950 . S
C2457 C2455 1.387 . S
C2457 C2459 1.390 . S
C2457 H2461 0.950 . S
H2458 C2454 0.950 . S
C2459 C2457 1.390 . S
C2459 C2460 1.387 . S
C2459 H2462 0.950 . S
C2460 C2459 1.387 . S
C2460 C2463 1.387 . S
H2461 C2457 0.950 . S
H2462 C2459 0.950 . S
C2463 C2454 1.390 . S
C2463 H2456 0.950 . S
C2463 C2460 1.387 . S
C1505 C255 2.152 . S
C1510 C874 2.103 1_556 S
C1515 C147 1.837 . S
C1520 C913 1.791 . S
C1525 C184 1.554 . S
C1530 C954 1.563 . S
C1540 C999 1.484 . S
C1535 C220 1.528 . S
C1545 C40 2.065 . S
C1550 C1043 2.058 . S
C1560 C1074 1.598 . S
C1555 C74 1.671 . S
C1570 C1122 2.045 . S
C1565 C110 2.041 . S
C1575 C14 2.017 . S
C1580 C1150 1.914 . S
C1590 C882 1.896 . S
C1585 C579 1.770 . S
C1595 C616 1.719 . S
C1600 C923 1.680 . S
C1610 C962 1.742 . S
C1605 C687 1.654 1_545 S
C1620 C994 1.711 . S
C1615 C436 1.677 . S
C1625 C580 0.501 . S
C1630 C1030 0.538 . S
C1640 C1082 2.183 . S
C1635 C615 2.199 . S
C1650 C1119 1.647 . S
C1645 C688 1.654 . S
C1660 C1153 2.077 . S
C1655 C435 2.051 . S
C1670 C879 2.028 . S
C1665 C410 2.225 . S
C1675 C722 2.047 . S
C1680 C1193 2.003 . S
C1690 C1239 1.664 . S
C1685 C842 1.823 . S
C1700 C1274 1.687 1_655 S
C1695 C794 1.760 . S
C1705 C302 2.192 . S
C1710 C1163 2.149 . S
C1715 C338 1.598 . S
C1720 C959 1.487 . S
C1725 C830 1.533 . S
C1730 C1322 1.604 . S
C1740 C1350 0.704 . S
C1735 C758 0.699 . S
C1750 C883 2.100 1_565 S
C1745 C158 2.037 . S
C1760 C1362 1.810 . S
C1755 C254 1.859 . S
C1765 C218 1.560 . S
C1770 C963 1.574 . S
C1775 C194 1.441 . S
C1780 C1310 1.492 . S
C1790 C1034 2.022 . S
C1785 C3 2.009 . S
C1795 C111 1.584 . S
C1800 C1243 1.516 . S
C1810 C1113 1.949 1_566 S
C1805 C76 1.954 . S
C1820 C1399 1.930 1_455 S
C1815 C50 1.901 . S
C1830 C873 1.922 . S
C1825 C364 1.869 . S
C1840 C1354 1.578 . S
C1835 C795 1.633 . S
C1845 C292 1.566 . S
C1850 C953 1.701 . S
C1855 C723 1.634 . S
C1860 C1323 1.635 . S
C1865 C363 0.510 . S
C1870 C1039 0.516 . S
C1880 C1233 2.166 . S
C1875 C796 2.171 . S
C1885 C291 1.658 . S
C1890 C1110 1.587 . S
C1895 C724 2.066 . S
C1900 C1402 2.072 . S
C1905 C482 2.032 . S
C1910 C870 2.087 . S
C1915 C434 2.039 . S
C1920 C1202 1.999 . S
C1925 C662 1.396 . S
C1930 C1070 1.621 . S
C1935 C614 1.795 . S
C1940 C1283 1.709 . S
C1950 C1394 2.141 . S
C1945 C698 1.969 . S
C1955 C554 1.406 . S
C1960 C950 1.478 . S
C1970 C993 1.578 . S
C1965 C650 1.489 . S
C1980 C919 0.722 . S
C1975 C506 0.720 . S
C1985 C183 2.151 . S
C1990 C1434 2.099 . S
C2000 C1353 1.789 . S
C1995 C219 1.836 . S
C2005 C256 1.557 . S
C2010 C1474 1.564 . S
C2015 C148 1.525 . S
C2020 C1319 1.482 . S
C2025 C122 2.010 . S
C2030 C1203 2.115 . S
C2040 C1234 1.533 . S
C2035 C2 1.614 . S
C2050 C1282 1.908 . S
C2045 C39 1.898 . S
C2060 C1390 1.919 . S
C2055 C86 2.017 . S
C2070 C1442 1.920 . S
C2065 C651 1.792 . S
C2075 C472 1.717 . S
C2080 C1363 1.680 . S
C2090 C1482 1.721 . S
C2085 C507 1.639 . S
C2100 C1314 1.710 . S
C2095 C544 1.676 . S
C2110 C1190 0.535 . S
C2105 C652 0.493 . S
C2115 C471 2.189 . S
C2120 C1242 2.170 . S
C2130 C1279 1.596 . S
C2125 C508 1.603 . S
C2135 C543 2.055 . S
C2140 C1393 2.077 . S
C2150 C1439 2.046 . S
C2145 C806 2.244 . S
C2155 C326 2.030 . S
C2160 C1033 1.985 . S
C2170 C1079 1.633 . S
C2165 C374 1.791 . S
C2180 C1114 1.721 . S
C2175 C398 1.802 1_545 S
C2190 C1403 2.124 . S
C2185 C770 2.160 . S
C2195 C734 1.589 . S
C2200 C1479 1.478 . S
C2210 C1002 1.602 . S
C2205 C362 1.528 . S
C2220 C910 0.706 . S
C2215 C290 0.702 . S
C2225 C230 2.037 . S
C2230 C1443 2.100 . S
C2240 C922 1.816 . S
C2235 C182 1.864 . S
C2245 C146 1.556 . S
C2250 C1483 1.571 . S
C2255 C266 1.436 . S
C2260 C990 1.488 . S
C2265 C75 2.063 . S
C2270 C1194 2.070 . S
C2280 C1083 1.617 . S
C2275 C38 1.692 . S
C2285 C4 1.914 . S
C2290 C1273 1.908 . S
C2295 C112 2.079 . S
C2300 C1159 1.898 . S
C2310 C1433 1.917 . S
C2305 C832 1.866 . S
C2315 C399 1.644 . S
C2320 C914 1.590 . S
C2330 C1473 1.688 . S
C2325 C760 1.556 . S
C2335 C327 1.630 . S
C2340 C1003 1.633 . S
C2345 C831 0.525 . S
C2350 C1199 0.532 . S
C2360 C1073 2.165 . S
C2355 C400 2.171 . S
C2365 C759 1.724 1_455 S
C2370 C1270 1.646 . S
C2380 C1162 2.059 . S
C2375 C328 2.055 . S
C2390 C1430 2.092 . S
C2385 C626 2.035 . S
C2400 C1042 1.990 1_655 S
C2395 C542 2.030 1_545 S
C2405 C590 1.372 . S
C2410 C1230 1.593 . S
C2420 C1123 1.700 . S
C2415 C470 1.778 . S
C2425 C518 1.940 . S
C2430 C1154 2.113 . S
C2435 C446 1.390 . S
C2440 C1470 1.463 . S
C2450 C1313 1.577 . S
C2445 C578 1.490 . S
C2460 C1359 0.711 . S
C2455 C686 0.699 . S
