# Generated by pormake.
# Topology gar, (4,6)-cn, num edge types: 1
# Building blocks:
#     Node 0, Type 0, BuildingBlock: QUQFOY_clean_sbu_1, # of connection points: 4
#     Node 1, Type 0, BuildingBlock: QUQFOY_clean_sbu_1, # of connection points: 4
#     Node 2, Type 0, BuildingBlock: QUQFOY_clean_sbu_1, # of connection points: 4
#     Node 3, Type 0, BuildingBlock: QUQFOY_clean_sbu_1, # of connection points: 4
#     Node 4, Type 0, BuildingBlock: QUQFOY_clean_sbu_1, # of connection points: 4
#     Node 5, Type 0, BuildingBlock: QUQFOY_clean_sbu_1, # of connection points: 4
#     Node 6, Type 0, BuildingBlock: QUQFOY_clean_sbu_1, # of connection points: 4
#     Node 7, Type 0, BuildingBlock: QUQFOY_clean_sbu_1, # of connection points: 4
#     Node 8, Type 0, BuildingBlock: QUQFOY_clean_sbu_1, # of connection points: 4
#     Node 9, Type 0, BuildingBlock: QUQFOY_clean_sbu_1, # of connection points: 4
#     Node 10, Type 0, BuildingBlock: QUQFOY_clean_sbu_1, # of connection points: 4
#     Node 11, Type 0, BuildingBlock: QUQFOY_clean_sbu_1, # of connection points: 4
#     Node 12, Type 0, BuildingBlock: QUQFOY_clean_sbu_1, # of connection points: 4
#     Node 13, Type 0, BuildingBlock: QUQFOY_clean_sbu_1, # of connection points: 4
#     Node 14, Type 0, BuildingBlock: QUQFOY_clean_sbu_1, # of connection points: 4
#     Node 15, Type 0, BuildingBlock: QUQFOY_clean_sbu_1, # of connection points: 4
#     Node 16, Type 0, BuildingBlock: QUQFOY_clean_sbu_1, # of connection points: 4
#     Node 17, Type 0, BuildingBlock: QUQFOY_clean_sbu_1, # of connection points: 4
#     Node 18, Type 0, BuildingBlock: QUQFOY_clean_sbu_1, # of connection points: 4
#     Node 19, Type 0, BuildingBlock: QUQFOY_clean_sbu_1, # of connection points: 4
#     Node 20, Type 0, BuildingBlock: QUQFOY_clean_sbu_1, # of connection points: 4
#     Node 21, Type 0, BuildingBlock: QUQFOY_clean_sbu_1, # of connection points: 4
#     Node 22, Type 0, BuildingBlock: QUQFOY_clean_sbu_1, # of connection points: 4
#     Node 23, Type 0, BuildingBlock: QUQFOY_clean_sbu_1, # of connection points: 4
#     Node 24, Type 1, BuildingBlock: PAMTOO_clean_sbu_0, # of connection points: 6
#     Node 25, Type 1, BuildingBlock: PAMTOO_clean_sbu_0, # of connection points: 6
#     Node 26, Type 1, BuildingBlock: PAMTOO_clean_sbu_0, # of connection points: 6
#     Node 27, Type 1, BuildingBlock: PAMTOO_clean_sbu_0, # of connection points: 6
#     Node 28, Type 1, BuildingBlock: PAMTOO_clean_sbu_0, # of connection points: 6
#     Node 29, Type 1, BuildingBlock: PAMTOO_clean_sbu_0, # of connection points: 6
#     Node 30, Type 1, BuildingBlock: PAMTOO_clean_sbu_0, # of connection points: 6
#     Node 31, Type 1, BuildingBlock: PAMTOO_clean_sbu_0, # of connection points: 6
#     Node 32, Type 1, BuildingBlock: PAMTOO_clean_sbu_0, # of connection points: 6
#     Node 33, Type 1, BuildingBlock: PAMTOO_clean_sbu_0, # of connection points: 6
#     Node 34, Type 1, BuildingBlock: PAMTOO_clean_sbu_0, # of connection points: 6
#     Node 35, Type 1, BuildingBlock: PAMTOO_clean_sbu_0, # of connection points: 6
#     Node 36, Type 1, BuildingBlock: PAMTOO_clean_sbu_0, # of connection points: 6
#     Node 37, Type 1, BuildingBlock: PAMTOO_clean_sbu_0, # of connection points: 6
#     Node 38, Type 1, BuildingBlock: PAMTOO_clean_sbu_0, # of connection points: 6
#     Node 39, Type 1, BuildingBlock: PAMTOO_clean_sbu_0, # of connection points: 6
#     Edge 40, Type (0, 1), BuildingBlock: XIVTED_clean_linker_0, # of connection points: 2
#     Edge 41, Type (0, 1), BuildingBlock: XIVTED_clean_linker_0, # of connection points: 2
#     Edge 42, Type (0, 1), BuildingBlock: XIVTED_clean_linker_0, # of connection points: 2
#     Edge 43, Type (0, 1), BuildingBlock: XIVTED_clean_linker_0, # of connection points: 2
#     Edge 44, Type (0, 1), BuildingBlock: XIVTED_clean_linker_0, # of connection points: 2
#     Edge 45, Type (0, 1), BuildingBlock: XIVTED_clean_linker_0, # of connection points: 2
#     Edge 46, Type (0, 1), BuildingBlock: XIVTED_clean_linker_0, # of connection points: 2
#     Edge 47, Type (0, 1), BuildingBlock: XIVTED_clean_linker_0, # of connection points: 2
#     Edge 48, Type (0, 1), BuildingBlock: XIVTED_clean_linker_0, # of connection points: 2
#     Edge 49, Type (0, 1), BuildingBlock: XIVTED_clean_linker_0, # of connection points: 2
#     Edge 50, Type (0, 1), BuildingBlock: XIVTED_clean_linker_0, # of connection points: 2
#     Edge 51, Type (0, 1), BuildingBlock: XIVTED_clean_linker_0, # of connection points: 2
#     Edge 52, Type (0, 1), BuildingBlock: XIVTED_clean_linker_0, # of connection points: 2
#     Edge 53, Type (0, 1), BuildingBlock: XIVTED_clean_linker_0, # of connection points: 2
#     Edge 54, Type (0, 1), BuildingBlock: XIVTED_clean_linker_0, # of connection points: 2
#     Edge 55, Type (0, 1), BuildingBlock: XIVTED_clean_linker_0, # of connection points: 2
#     Edge 56, Type (0, 1), BuildingBlock: XIVTED_clean_linker_0, # of connection points: 2
#     Edge 57, Type (0, 1), BuildingBlock: XIVTED_clean_linker_0, # of connection points: 2
#     Edge 58, Type (0, 1), BuildingBlock: XIVTED_clean_linker_0, # of connection points: 2
#     Edge 59, Type (0, 1), BuildingBlock: XIVTED_clean_linker_0, # of connection points: 2
#     Edge 60, Type (0, 1), BuildingBlock: XIVTED_clean_linker_0, # of connection points: 2
#     Edge 61, Type (0, 1), BuildingBlock: XIVTED_clean_linker_0, # of connection points: 2
#     Edge 62, Type (0, 1), BuildingBlock: XIVTED_clean_linker_0, # of connection points: 2
#     Edge 63, Type (0, 1), BuildingBlock: XIVTED_clean_linker_0, # of connection points: 2
#     Edge 64, Type (0, 1), BuildingBlock: XIVTED_clean_linker_0, # of connection points: 2
#     Edge 65, Type (0, 1), BuildingBlock: XIVTED_clean_linker_0, # of connection points: 2
#     Edge 66, Type (0, 1), BuildingBlock: XIVTED_clean_linker_0, # of connection points: 2
#     Edge 67, Type (0, 1), BuildingBlock: XIVTED_clean_linker_0, # of connection points: 2
#     Edge 68, Type (0, 1), BuildingBlock: XIVTED_clean_linker_0, # of connection points: 2
#     Edge 69, Type (0, 1), BuildingBlock: XIVTED_clean_linker_0, # of connection points: 2
#     Edge 70, Type (0, 1), BuildingBlock: XIVTED_clean_linker_0, # of connection points: 2
#     Edge 71, Type (0, 1), BuildingBlock: XIVTED_clean_linker_0, # of connection points: 2
#     Edge 72, Type (0, 1), BuildingBlock: XIVTED_clean_linker_0, # of connection points: 2
#     Edge 73, Type (0, 1), BuildingBlock: XIVTED_clean_linker_0, # of connection points: 2
#     Edge 74, Type (0, 1), BuildingBlock: XIVTED_clean_linker_0, # of connection points: 2
#     Edge 75, Type (0, 1), BuildingBlock: XIVTED_clean_linker_0, # of connection points: 2
#     Edge 76, Type (0, 1), BuildingBlock: XIVTED_clean_linker_0, # of connection points: 2
#     Edge 77, Type (0, 1), BuildingBlock: XIVTED_clean_linker_0, # of connection points: 2
#     Edge 78, Type (0, 1), BuildingBlock: XIVTED_clean_linker_0, # of connection points: 2
#     Edge 79, Type (0, 1), BuildingBlock: XIVTED_clean_linker_0, # of connection points: 2
#     Edge 80, Type (0, 1), BuildingBlock: XIVTED_clean_linker_0, # of connection points: 2
#     Edge 81, Type (0, 1), BuildingBlock: XIVTED_clean_linker_0, # of connection points: 2
#     Edge 82, Type (0, 1), BuildingBlock: XIVTED_clean_linker_0, # of connection points: 2
#     Edge 83, Type (0, 1), BuildingBlock: XIVTED_clean_linker_0, # of connection points: 2
#     Edge 84, Type (0, 1), BuildingBlock: XIVTED_clean_linker_0, # of connection points: 2
#     Edge 85, Type (0, 1), BuildingBlock: XIVTED_clean_linker_0, # of connection points: 2
#     Edge 86, Type (0, 1), BuildingBlock: XIVTED_clean_linker_0, # of connection points: 2
#     Edge 87, Type (0, 1), BuildingBlock: XIVTED_clean_linker_0, # of connection points: 2
#     Edge 88, Type (0, 1), BuildingBlock: XIVTED_clean_linker_0, # of connection points: 2
#     Edge 89, Type (0, 1), BuildingBlock: XIVTED_clean_linker_0, # of connection points: 2
#     Edge 90, Type (0, 1), BuildingBlock: XIVTED_clean_linker_0, # of connection points: 2
#     Edge 91, Type (0, 1), BuildingBlock: XIVTED_clean_linker_0, # of connection points: 2
#     Edge 92, Type (0, 1), BuildingBlock: XIVTED_clean_linker_0, # of connection points: 2
#     Edge 93, Type (0, 1), BuildingBlock: XIVTED_clean_linker_0, # of connection points: 2
#     Edge 94, Type (0, 1), BuildingBlock: XIVTED_clean_linker_0, # of connection points: 2
#     Edge 95, Type (0, 1), BuildingBlock: XIVTED_clean_linker_0, # of connection points: 2
#     Edge 96, Type (0, 1), BuildingBlock: XIVTED_clean_linker_0, # of connection points: 2
#     Edge 97, Type (0, 1), BuildingBlock: XIVTED_clean_linker_0, # of connection points: 2
#     Edge 98, Type (0, 1), BuildingBlock: XIVTED_clean_linker_0, # of connection points: 2
#     Edge 99, Type (0, 1), BuildingBlock: XIVTED_clean_linker_0, # of connection points: 2
#     Edge 100, Type (0, 1), BuildingBlock: XIVTED_clean_linker_0, # of connection points: 2
#     Edge 101, Type (0, 1), BuildingBlock: XIVTED_clean_linker_0, # of connection points: 2
#     Edge 102, Type (0, 1), BuildingBlock: XIVTED_clean_linker_0, # of connection points: 2
#     Edge 103, Type (0, 1), BuildingBlock: XIVTED_clean_linker_0, # of connection points: 2
#     Edge 104, Type (0, 1), BuildingBlock: XIVTED_clean_linker_0, # of connection points: 2
#     Edge 105, Type (0, 1), BuildingBlock: XIVTED_clean_linker_0, # of connection points: 2
#     Edge 106, Type (0, 1), BuildingBlock: XIVTED_clean_linker_0, # of connection points: 2
#     Edge 107, Type (0, 1), BuildingBlock: XIVTED_clean_linker_0, # of connection points: 2
#     Edge 108, Type (0, 1), BuildingBlock: XIVTED_clean_linker_0, # of connection points: 2
#     Edge 109, Type (0, 1), BuildingBlock: XIVTED_clean_linker_0, # of connection points: 2
#     Edge 110, Type (0, 1), BuildingBlock: XIVTED_clean_linker_0, # of connection points: 2
#     Edge 111, Type (0, 1), BuildingBlock: XIVTED_clean_linker_0, # of connection points: 2
#     Edge 112, Type (0, 1), BuildingBlock: XIVTED_clean_linker_0, # of connection points: 2
#     Edge 113, Type (0, 1), BuildingBlock: XIVTED_clean_linker_0, # of connection points: 2
#     Edge 114, Type (0, 1), BuildingBlock: XIVTED_clean_linker_0, # of connection points: 2
#     Edge 115, Type (0, 1), BuildingBlock: XIVTED_clean_linker_0, # of connection points: 2
#     Edge 116, Type (0, 1), BuildingBlock: XIVTED_clean_linker_0, # of connection points: 2
#     Edge 117, Type (0, 1), BuildingBlock: XIVTED_clean_linker_0, # of connection points: 2
#     Edge 118, Type (0, 1), BuildingBlock: XIVTED_clean_linker_0, # of connection points: 2
#     Edge 119, Type (0, 1), BuildingBlock: XIVTED_clean_linker_0, # of connection points: 2
#     Edge 120, Type (0, 1), BuildingBlock: XIVTED_clean_linker_0, # of connection points: 2
#     Edge 121, Type (0, 1), BuildingBlock: XIVTED_clean_linker_0, # of connection points: 2
#     Edge 122, Type (0, 1), BuildingBlock: XIVTED_clean_linker_0, # of connection points: 2
#     Edge 123, Type (0, 1), BuildingBlock: XIVTED_clean_linker_0, # of connection points: 2
#     Edge 124, Type (0, 1), BuildingBlock: XIVTED_clean_linker_0, # of connection points: 2
#     Edge 125, Type (0, 1), BuildingBlock: XIVTED_clean_linker_0, # of connection points: 2
#     Edge 126, Type (0, 1), BuildingBlock: XIVTED_clean_linker_0, # of connection points: 2
#     Edge 127, Type (0, 1), BuildingBlock: XIVTED_clean_linker_0, # of connection points: 2
#     Edge 128, Type (0, 1), BuildingBlock: XIVTED_clean_linker_0, # of connection points: 2
#     Edge 129, Type (0, 1), BuildingBlock: XIVTED_clean_linker_0, # of connection points: 2
#     Edge 130, Type (0, 1), BuildingBlock: XIVTED_clean_linker_0, # of connection points: 2
#     Edge 131, Type (0, 1), BuildingBlock: XIVTED_clean_linker_0, # of connection points: 2
#     Edge 132, Type (0, 1), BuildingBlock: XIVTED_clean_linker_0, # of connection points: 2
#     Edge 133, Type (0, 1), BuildingBlock: XIVTED_clean_linker_0, # of connection points: 2
#     Edge 134, Type (0, 1), BuildingBlock: XIVTED_clean_linker_0, # of connection points: 2
#     Edge 135, Type (0, 1), BuildingBlock: XIVTED_clean_linker_0, # of connection points: 2
# Relax obj value: 0.166
# Max RMSD: 0.281
# Mean RMSD: 0.182
data_MOF--net-gar--node1-QUQFOY_clean_sbu_1--node2-PAMTOO_clean_sbu_0--edge1-XIVTED_clean_linker_0
_symmetry_space_group_name_H-M    P1
_symmetry_Int_Tables_number       1
_symmetry_cell_setting            triclinic
loop_
_symmetry_equiv_pos_as_xyz
'x, y, z'
_cell_length_a     60.747314
_cell_length_b     60.921367
_cell_length_c     58.932147
_cell_angle_alpha  97.08081
_cell_angle_beta   96.248499
_cell_angle_gamma 107.18864
loop_
_atom_site_label
_atom_site_type_symbol
_atom_site_fract_x
_atom_site_fract_y
_atom_site_fract_z
_atom_type_partial_charge
O0 O 0.05826 0.28951 0.38306 0.0
Cd1 Cd 0.06078 0.30755 0.35507 0.0
Cd2 Cd 0.04769 0.34067 0.3954 0.0
O3 O 0.05133 0.31309 0.41138 0.0
O4 O 0.07738 0.29079 0.33332 0.0
O5 O 0.09448 0.32646 0.35138 0.0
C6 C 0.09615 0.30846 0.33841 0.0
C7 C 0.05254 0.37637 0.42026 0.0
C8 C 0.0548 0.29403 0.40385 0.0
C9 C 0.01419 0.32028 0.34807 0.0
O10 O 0.02055 0.33261 0.36814 0.0
O11 O 0.02741 0.30948 0.33928 0.0
O12 O 0.03464 0.35832 0.41892 0.0
O13 O 0.06827 0.37432 0.40786 0.0
O14 O 0.0154 0.72527 0.70774 0.0
Cd15 Cd 0.02164 0.75334 0.73515 0.0
Cd16 Cd 0.04263 0.77929 0.70121 0.0
O17 O 0.0301 0.74637 0.68181 0.0
O18 O 0.99578 0.74571 0.75591 0.0
O19 O 0.99969 0.77377 0.73524 0.0
C20 C 0.98797 0.76178 0.74912 0.0
C21 C 0.04337 0.80977 0.67949 0.0
C22 C 0.02062 0.72662 0.6874 0.0
C23 C 0.07536 0.77658 0.74363 0.0
O24 O 0.07217 0.78437 0.72488 0.0
O25 O 0.05769 0.76461 0.75185 0.0
O26 O 0.05698 0.79729 0.67735 0.0
O27 O 0.02915 0.80525 0.69428 0.0
O28 O 0.60375 0.82628 0.88207 0.0
Cd29 Cd 0.57691 0.82437 0.90165 0.0
Cd30 Cd 0.55855 0.84091 0.8623 0.0
O31 O 0.58789 0.83262 0.8489 0.0
O32 O 0.58598 0.80982 0.92837 0.0
O33 O 0.5538 0.79296 0.90339 0.0
C34 C 0.56726 0.79244 0.92173 0.0
C35 C 0.51758 0.82788 0.84633 0.0
C36 C 0.60487 0.82864 0.861 0.0
C37 C 0.56953 0.87192 0.90949 0.0
O38 O 0.56577 0.87079 0.88759 0.0
O39 O 0.57293 0.8548 0.91802 0.0
O40 O 0.53268 0.84375 0.83846 0.0
O41 O 0.52589 0.81773 0.86165 0.0
O42 O 0.51363 0.2118 0.20152 0.0
Cd43 Cd 0.52009 0.24264 0.22566 0.0
Cd44 Cd 0.53863 0.26361 0.18909 0.0
O45 O 0.52454 0.22956 0.17216 0.0
O46 O 0.49623 0.23925 0.24861 0.0
O47 O 0.49674 0.26128 0.22179 0.0
C48 C 0.48689 0.25277 0.23856 0.0
C49 C 0.53655 0.29314 0.1671 0.0
C50 C 0.51662 0.21087 0.18032 0.0
C51 C 0.57354 0.26573 0.23144 0.0
O52 O 0.56964 0.2703 0.21117 0.0
O53 O 0.5563 0.25601 0.24147 0.0
O54 O 0.54941 0.28016 0.163 0.0
O55 O 0.52453 0.28942 0.18379 0.0
O56 O 0.05398 0.76716 0.11478 0.0
Cd57 Cd 0.05934 0.79726 0.13811 0.0
Cd58 Cd 0.08245 0.81778 0.10213 0.0
O59 O 0.07054 0.78141 0.08585 0.0
O60 O 0.04305 0.78382 0.1635 0.0
O61 O 0.033 0.81002 0.14604 0.0
C62 C 0.02972 0.79659 0.1615 0.0
C63 C 0.07272 0.85097 0.08886 0.0
C64 C 0.06018 0.7638 0.09503 0.0
C65 C 0.11228 0.82051 0.14825 0.0
O66 O 0.11231 0.8247 0.1275 0.0
O67 O 0.09312 0.81138 0.15535 0.0
O68 O 0.08693 0.84182 0.07949 0.0
O69 O 0.06324 0.84092 0.10509 0.0
O70 O 0.54518 0.77846 0.45561 0.0
Cd71 Cd 0.52681 0.77634 0.48362 0.0
Cd72 Cd 0.49451 0.79027 0.44187 0.0
O73 O 0.52245 0.78522 0.4268 0.0
O74 O 0.54366 0.76045 0.50572 0.0
O75 O 0.50817 0.74273 0.48772 0.0
C76 C 0.52615 0.74153 0.50084 0.0
C77 C 0.46043 0.78792 0.41579 0.0
C78 C 0.54123 0.78157 0.43472 0.0
C79 C 0.51435 0.82326 0.49014 0.0
O80 O 0.50262 0.81707 0.46985 0.0
O81 O 0.52462 0.80987 0.49909 0.0
O82 O 0.47942 0.80498 0.41824 0.0
O83 O 0.46056 0.77161 0.42779 0.0
O84 O 0.56734 0.26915 0.62516 0.0
Cd85 Cd 0.57401 0.29976 0.64797 0.0
Cd86 Cd 0.59665 0.31914 0.6123 0.0
O87 O 0.58344 0.28281 0.59581 0.0
O88 O 0.55715 0.28812 0.67368 0.0
O89 O 0.54814 0.31371 0.65435 0.0
C90 C 0.54422 0.3011 0.67043 0.0
C91 C 0.58624 0.35254 0.60014 0.0
C92 C 0.57286 0.26544 0.60516 0.0
C93 C 0.62708 0.32093 0.65786 0.0
O94 O 0.62704 0.32508 0.63706 0.0
O95 O 0.60786 0.3127 0.66522 0.0
O96 O 0.60013 0.34355 0.58995 0.0
O97 O 0.57762 0.34234 0.61666 0.0
O98 O 1.01105 0.23501 0.95909 0.0
Cd99 Cd 1.00933 0.25945 0.93768 0.0
Cd100 Cd 0.99291 0.27906 0.97758 0.0
O101 O 1.0007 0.24966 0.99099 0.0
O102 O 0.02457 0.25028 0.91121 0.0
O103 O 0.03908 0.2842 0.93424 0.0
C104 C 0.04072 0.27008 0.91673 0.0
C105 C 1.00648 0.32034 0.99315 0.0
C106 C 1.00733 0.23376 0.97983 0.0
C107 C 0.96088 0.2655 0.93069 0.0
O108 O 0.96318 0.27175 0.95252 0.0
O109 O 0.9773 0.26044 0.92176 0.0
O110 O 0.99045 0.30567 1.00131 0.0
O111 O 0.01648 0.31147 0.97778 0.0
O112 O 0.40331 0.07156 0.27479 0.0
Cd113 Cd 0.38737 0.06293 0.30316 0.0
Cd114 Cd 0.42925 0.05938 0.31917 0.0
O115 O 0.43868 0.07485 0.29139 0.0
O116 O 0.35628 0.06657 0.29608 0.0
O117 O 0.38139 0.08614 0.32725 0.0
C118 C 0.36088 0.08078 0.31528 0.0
C119 C 0.4541 0.07252 0.35406 0.0
C120 C 0.42507 0.07657 0.27428 0.0
C121 C 0.38971 0.01568 0.30981 0.0
O122 O 0.41175 0.02411 0.31351 0.0
O123 O 0.37723 0.02871 0.3067 0.0
O124 O 0.45957 0.06139 0.33667 0.0
O125 O 0.43456 0.077 0.3514 0.0
O126 O 0.3028 0.2175 0.58002 0.0
Cd127 Cd 0.29829 0.19265 0.55124 0.0
Cd128 Cd 0.28137 0.22532 0.53162 0.0
O129 O 0.29164 0.24468 0.565 0.0
O130 O 0.31005 0.1693 0.56526 0.0
O131 O 0.32601 0.18697 0.53791 0.0
C132 C 0.32564 0.17216 0.55186 0.0
C133 C 0.29188 0.2384 0.49726 0.0
C134 C 0.29918 0.23712 0.58251 0.0
C135 C 0.24731 0.17821 0.53018 0.0
O136 O 0.25011 0.19903 0.52695 0.0
O137 O 0.26451 0.17224 0.53835 0.0
O138 O 0.27786 0.24605 0.50856 0.0
O139 O 0.30121 0.22432 0.50626 0.0
O140 O 0.13208 0.04873 0.75425 0.0
Cd141 Cd 0.15334 0.04889 0.7842 0.0
Cd142 Cd 0.11804 0.06179 0.80212 0.0
O143 O 0.10042 0.05118 0.76816 0.0
O144 O 0.17734 0.03672 0.7714 0.0
O145 O 0.15542 0.01922 0.7954 0.0
C146 C 0.1717 0.0198 0.78289 0.0
C147 C 0.1023 0.05075 0.8353 0.0
C148 C 0.11113 0.04899 0.751 0.0
C149 C 0.16532 0.09784 0.80806 0.0
O150 O 0.14356 0.09395 0.80804 0.0
O151 O 0.17315 0.08134 0.80148 0.0
O152 O 0.09527 0.06465 0.82363 0.0
O153 O 0.11742 0.04195 0.82737 0.0
O154 O 0.28241 0.94911 0.06392 0.0
Cd155 Cd 0.28571 0.96151 0.03284 0.0
Cd156 Cd 0.27714 0.9175 0.01767 0.0
O157 O 0.26266 0.91341 0.04711 0.0
O158 O 0.28469 0.9938 0.03819 0.0
O159 O 0.25882 0.96548 0.01288 0.0
C160 C 0.26655 0.98715 0.02241 0.0
C161 C 0.25898 0.89254 0.98354 0.0
C162 C 0.2704 0.92849 0.0653 0.0
C163 C 0.32504 0.94807 0.0185 0.0
O164 O 0.31308 0.92764 0.02043 0.0
O165 O 0.31608 0.96439 0.02004 0.0
O166 O 0.26805 0.88535 1.00076 0.0
O167 O 0.25902 0.91393 0.98617 0.0
O168 O 0.28512 0.38342 0.09846 0.0
Cd169 Cd 0.29036 0.40503 0.07366 0.0
Cd170 Cd 0.30357 0.36786 0.05285 0.0
O171 O 0.29202 0.35243 0.08094 0.0
O172 O 0.27611 0.42947 0.08396 0.0
O173 O 0.26399 0.40626 0.05019 0.0
C174 C 0.2622 0.42325 0.06456 0.0
C175 C 0.29404 0.34958 0.01405 0.0
C176 C 0.28629 0.36287 0.09835 0.0
C177 C 0.34005 0.41538 0.06552 0.0
O178 O 0.33541 0.39363 0.05893 0.0
O179 O 0.32423 0.42369 0.07136 0.0
O180 O 0.30809 0.34409 0.0287 0.0
O181 O 0.28388 0.36421 0.02186 0.0
O182 O 0.83054 0.15843 0.12302 0.0
Cd183 Cd 0.81142 0.13423 0.09499 0.0
Cd184 Cd 0.8042 0.17012 0.07656 0.0
O185 O 0.82586 0.18767 0.10663 0.0
O186 O 0.82305 0.1074 0.08932 0.0
O187 O 0.8232 0.13242 0.06478 0.0
C188 C 0.82711 0.11363 0.0696 0.0
C189 C 0.80539 0.19166 0.04641 0.0
C190 C 0.83418 0.18015 0.12364 0.0
C191 C 0.76245 0.13171 0.08575 0.0
O192 O 0.77047 0.15055 0.07801 0.0
O193 O 0.77617 0.12165 0.09422 0.0
O194 O 0.7974 0.19686 0.06492 0.0
O195 O 0.81353 0.17432 0.04507 0.0
O196 O 0.17693 0.52032 0.21517 0.0
Cd197 Cd 0.1976 0.5339 0.24697 0.0
Cd198 Cd 0.15756 0.53537 0.25983 0.0
O199 O 0.1438 0.51383 0.22897 0.0
O200 O 0.22689 0.52636 0.24539 0.0
O201 O 0.20258 0.51359 0.26986 0.0
C202 C 0.22193 0.5148 0.26208 0.0
C203 C 0.13772 0.52827 0.29097 0.0
C204 C 0.15484 0.51194 0.21216 0.0
C205 C 0.19392 0.58074 0.26045 0.0
O206 O 0.17232 0.57046 0.2596 0.0
O207 O 0.20788 0.56913 0.25765 0.0
O208 O 0.12909 0.53509 0.27325 0.0
O209 O 0.15752 0.52448 0.2907 0.0
O210 O 0.79509 0.89016 0.60897 0.0
Cd211 Cd 0.79933 0.90923 0.58225 0.0
Cd212 Cd 0.81188 0.8719 0.56321 0.0
O213 O 0.8003 0.85802 0.59218 0.0
O214 O 0.78588 0.93444 0.5916 0.0
O215 O 0.77215 0.90919 0.55918 0.0
C216 C 0.77113 0.92706 0.57279 0.0
C217 C 0.79975 0.85448 0.5243 0.0
C218 C 0.79566 0.86955 0.6096 0.0
C219 C 0.84867 0.91856 0.57307 0.0
O220 O 0.84438 0.89663 0.56824 0.0
O221 O 0.83271 0.92703 0.57804 0.0
O222 O 0.81235 0.84655 0.53816 0.0
O223 O 0.79246 0.87114 0.53294 0.0
O224 O 0.9558 0.04356 0.23769 0.0
Cd225 Cd 0.93751 0.04163 0.26543 0.0
Cd226 Cd 0.97504 0.02739 0.28221 0.0
O227 O 0.98837 0.03829 0.25288 0.0
O228 O 0.91087 0.05226 0.25437 0.0
O229 O 0.9365 0.07077 0.28537 0.0
C230 C 0.91779 0.06905 0.27163 0.0
C231 C 0.9939 0.03961 0.3205 0.0
C232 C 0.97622 0.04263 0.236 0.0
C233 C 0.9275 0.99276 0.27588 0.0
O234 O 0.94925 0.99564 0.27793 0.0
O235 O 0.91977 0.00948 0.27256 0.0
O236 O 0.99998 0.02537 0.30629 0.0
O237 O 0.97832 0.04839 0.3124 0.0
O238 O 0.33011 0.67406 0.61231 0.0
Cd239 Cd 0.31583 0.65462 0.57988 0.0
Cd240 Cd 0.30808 0.694 0.57176 0.0
O241 O 0.3303 0.70769 0.60215 0.0
O242 O 0.32561 0.62639 0.57833 0.0
O243 O 0.33451 0.65168 0.55417 0.0
C244 C 0.33506 0.63226 0.56052 0.0
C245 C 0.31079 0.71633 0.54229 0.0
C246 C 0.33533 0.69607 0.61723 0.0
C247 C 0.26651 0.65328 0.57285 0.0
O248 O 0.27432 0.67518 0.57393 0.0
O249 O 0.28026 0.64119 0.57308 0.0
O250 O 0.31739 0.69796 0.54038 0.0
O251 O 0.30354 0.72215 0.56113 0.0
O252 O 0.46094 0.55412 0.74814 0.0
Cd253 Cd 0.44069 0.55038 0.77437 0.0
Cd254 Cd 0.47792 0.53625 0.79249 0.0
O255 O 0.49277 0.54811 0.76425 0.0
O256 O 0.41528 0.56265 0.76294 0.0
O257 O 0.43858 0.57795 0.79612 0.0
C258 C 0.42117 0.57796 0.78145 0.0
C259 C 0.49591 0.54653 0.83119 0.0
C260 C 0.48147 0.55316 0.74721 0.0
C261 C 0.43037 0.50065 0.78201 0.0
O262 O 0.45223 0.50433 0.78619 0.0
O263 O 0.42233 0.51713 0.77835 0.0
O264 O 0.50212 0.53283 0.81651 0.0
O265 O 0.48064 0.55585 0.82345 0.0
O266 O 0.67066 1.00512 0.72022 0.0
Cd267 Cd 0.69351 0.0219 0.75016 0.0
Cd268 Cd 0.65768 0.03295 0.76196 0.0
O269 O 0.63946 0.00779 0.73466 0.0
O270 O 0.71975 0.00919 0.75342 0.0
O271 O 0.69472 0.00726 0.77855 0.0
C272 C 0.71344 1.00366 0.77272 0.0
C273 C 0.64214 0.03662 0.79589 0.0
C274 C 0.64864 1.00047 0.71819 0.0
C275 C 0.69772 0.0715 0.75389 0.0
O276 O 0.67608 0.06485 0.75489 0.0
O277 O 0.70904 0.05707 0.75358 0.0
O278 O 0.63319 0.0414 0.77705 0.0
O279 O 0.65935 0.0283 0.79521 0.0
O280 O 0.80017 0.72108 0.08881 0.0
Cd281 Cd 0.79619 0.69613 0.06025 0.0
Cd282 Cd 0.77736 0.72871 0.04072 0.0
O283 O 0.78623 0.74708 0.07457 0.0
O284 O 0.80845 0.67333 0.07484 0.0
O285 O 0.82411 0.69054 0.04713 0.0
C286 C 0.82396 0.67604 0.06137 0.0
C287 C 0.78746 0.74446 0.00729 0.0
C288 C 0.795 0.73991 0.09174 0.0
C289 C 0.74512 0.68001 0.03897 0.0
O290 O 0.74728 0.70056 0.03511 0.0
O291 O 0.76262 0.67489 0.04778 0.0
O292 O 0.77141 0.74897 0.01792 0.0
O293 O 0.79889 0.73205 0.01642 0.0
O294 O 0.88663 0.55588 0.77097 0.0
Cd295 Cd 0.86991 0.54919 0.79916 0.0
Cd296 Cd 0.91287 0.55489 0.82101 0.0
O297 O 0.92176 0.56708 0.7914 0.0
O298 O 0.83843 0.5516 0.79139 0.0
O299 O 0.86428 0.57413 0.82095 0.0
C300 C 0.84354 0.56776 0.8092 0.0
C301 C 0.93809 0.57296 0.85511 0.0
C302 C 0.90859 0.5642 0.77232 0.0
C303 C 0.87805 0.50757 0.81503 0.0
O304 O 0.89947 0.51938 0.81991 0.0
O305 O 0.86315 0.51676 0.80755 0.0
O306 O 0.94419 0.5612 0.83868 0.0
O307 O 0.91762 0.57537 0.85188 0.0
O308 O 0.82491 0.42684 0.56631 0.0
Cd309 Cd 0.81075 0.44049 0.54042 0.0
Cd310 Cd 0.80942 0.40124 0.51499 0.0
O311 O 0.81747 0.39189 0.54618 0.0
O312 O 0.80605 0.46809 0.55786 0.0
O313 O 0.77709 0.43866 0.53736 0.0
C314 C 0.78407 0.45867 0.55069 0.0
C315 C 0.78184 0.37445 0.48676 0.0
C316 C 0.82507 0.40597 0.56506 0.0
C317 C 0.84196 0.44444 0.50483 0.0
O318 O 0.83678 0.42244 0.50244 0.0
O319 O 0.83173 0.455 0.51783 0.0
O320 O 0.80128 0.37135 0.494 0.0
O321 O 0.77745 0.39267 0.4962 0.0
O322 O 0.62624 0.53951 0.26309 0.0
Cd323 Cd 0.65134 0.54404 0.29151 0.0
Cd324 Cd 0.61773 0.55985 0.31245 0.0
O325 O 0.59902 0.55044 0.279 0.0
O326 O 0.67448 0.53194 0.27686 0.0
O327 O 0.65694 0.51641 0.30451 0.0
C328 C 0.67151 0.51641 0.29012 0.0
C329 C 0.60268 0.54934 0.3461 0.0
C330 C 0.6066 0.54313 0.26117 0.0
C331 C 0.66506 0.5945 0.31442 0.0
O332 O 0.64416 0.59102 0.31804 0.0
O333 O 0.67148 0.57788 0.30522 0.0
O334 O 0.59616 0.56384 0.33491 0.0
O335 O 0.61683 0.53963 0.33742 0.0
Dy336 Dy 0.06605 0.05714 0.04712 0.0
Dy337 Dy 1.01363 0.02822 0.02378 0.0
C338 C 0.05378 0.04136 0.993 0.0
O339 O 0.05236 0.08297 0.03 0.0
O340 O 1.01311 0.06578 0.02787 0.0
O341 O 0.09349 0.09014 0.05713 0.0
O342 O 0.09998 0.05828 0.06342 0.0
O343 O 1.01317 0.03031 0.06193 0.0
O344 O 0.04572 0.06167 0.0757 0.0
O345 O 0.03162 1.00068 0.02798 0.0
O346 O 0.05935 0.02163 0.05841 0.0
O347 O 0.97738 0.01198 0.02565 0.0
O348 O 0.98994 0.00845 0.99293 0.0
C349 C 0.03093 0.08423 0.02692 0.0
O350 O 0.06858 0.04186 0.01115 0.0
O351 O 0.03267 0.04152 0.99545 0.0
C352 C 0.12991 0.08602 0.05168 0.0
C353 C 0.16799 0.08416 0.02941 0.0
C354 C 0.14649 0.08213 0.01636 0.0
C355 C 0.12752 0.08296 0.02744 0.0
C356 C 0.15182 0.09037 0.06475 0.0
C357 C 0.1708 0.08954 0.0537 0.0
C358 C 0.10917 0.08039 0.06302 0.0
C359 C 0.02619 0.04669 0.07879 0.0
C360 C 0.04715 1.00136 0.04579 0.0
C361 C 0.95256 0.01239 0.99291 0.0
C362 C 0.91374 0.02799 0.98482 0.0
C363 C 0.93648 0.04387 0.98876 0.0
C364 C 0.95573 0.0361 0.99274 0.0
C365 C 0.93024 0.99624 0.9866 0.0
C366 C 0.91092 1.00397 0.98232 0.0
C367 C 0.97171 1.00518 0.00339 0.0
H368 H 0.14388 0.07821 0.99764 0.0
H369 H 0.11064 0.07954 0.01708 0.0
H370 H 0.15386 0.09261 0.08347 0.0
H371 H 0.18703 0.09094 0.0643 0.0
H372 H 0.93944 0.06247 0.99098 0.0
H373 H 0.97293 0.04878 0.9975 0.0
H374 H 0.92757 0.97784 0.98652 0.0
H375 H 0.89369 0.99126 0.97878 0.0
Dy376 Dy 0.29535 0.79357 0.26064 0.0
Dy377 Dy 0.27112 0.80422 0.30542 0.0
C378 C 0.30492 0.84518 0.28681 0.0
O379 O 0.31341 0.78088 0.28923 0.0
O380 O 0.30787 0.80599 0.31858 0.0
O381 O 0.32636 0.79683 0.24474 0.0
O382 O 0.29233 0.7785 0.22485 0.0
O383 O 0.26735 0.76638 0.30051 0.0
O384 O 0.26639 0.76138 0.2614 0.0
O385 O 0.24438 0.80112 0.27468 0.0
O386 O 0.26905 0.81054 0.24815 0.0
O387 O 0.2422 0.79549 0.32451 0.0
O388 O 0.27297 0.82489 0.33849 0.0
C389 C 0.31925 0.79212 0.31063 0.0
O390 O 0.31427 0.83013 0.27754 0.0
O391 O 0.28468 0.83835 0.29392 0.0
C392 C 0.31788 0.80562 0.20756 0.0
C393 C 0.3113 0.83694 0.17822 0.0
C394 C 0.32203 0.84522 0.20127 0.0
C395 C 0.32524 0.8297 0.21583 0.0
C396 C 0.30902 0.79752 0.18406 0.0
C397 C 0.30576 0.81308 0.16947 0.0
C398 C 0.3142 0.78917 0.22411 0.0
C399 C 0.2614 0.753 0.28026 0.0
C400 C 0.24847 0.8077 0.25467 0.0
C401 C 0.25676 0.80082 0.3643 0.0
C402 C 0.27028 0.78447 0.40453 0.0
C403 C 0.26237 0.76929 0.38329 0.0
C404 C 0.25582 0.7774 0.36336 0.0
C405 C 0.26365 0.81579 0.38563 0.0
C406 C 0.27037 0.8077 0.40561 0.0
C407 C 0.25394 0.81037 0.34284 0.0
H408 H 0.32637 0.86345 0.20857 0.0
H409 H 0.33185 0.83648 0.23396 0.0
H410 H 0.30304 0.77902 0.1774 0.0
H411 H 0.29785 0.80629 0.15162 0.0
H412 H 0.26163 0.75118 0.38197 0.0
H413 H 0.25082 0.76549 0.34708 0.0
H414 H 0.2648 0.83399 0.38664 0.0
H415 H 0.27654 0.81989 0.42167 0.0
Dy416 Dy 0.52162 0.04012 0.55427 0.0
Dy417 Dy 0.57258 0.05029 0.53645 0.0
C418 C 0.52885 0.0543 0.50463 0.0
O419 O 0.52114 1.005 0.53543 0.0
O420 O 0.56053 0.0116 0.53731 0.0
O421 O 0.48425 0.02492 0.54712 0.0
O422 O 0.50084 0.04486 0.58098 0.0
O423 O 0.57849 0.05011 0.57435 0.0
O424 O 0.54274 0.0267 0.57902 0.0
O425 O 0.56766 0.08591 0.54234 0.0
O426 O 0.54115 0.0783 0.56755 0.0
O427 O 0.60962 0.06834 0.54154 0.0
O428 O 0.59347 0.04222 0.51121 0.0
C429 C 0.5391 0.99707 0.53397 0.0
O430 O 0.51883 0.05654 0.52294 0.0
O431 O 0.54713 0.04704 0.5051 0.0
C432 C 0.46535 0.04937 0.56522 0.0
C433 C 0.43526 0.07692 0.56258 0.0
C434 C 0.44907 0.07501 0.54521 0.0
C435 C 0.46403 0.0615 0.54659 0.0
C436 C 0.45176 0.05128 0.58265 0.0
C437 C 0.43689 0.06495 0.58139 0.0
C438 C 0.48127 0.03527 0.56679 0.0
C439 C 0.56535 0.03518 0.58538 0.0
C440 C 0.55593 0.09329 0.55758 0.0
C441 C 0.62989 0.04276 0.52924 0.0
C442 C 0.66088 0.01735 0.53841 0.0
C443 C 0.64218 0.01587 0.55087 0.0
C444 C 0.62674 0.02833 0.5462 0.0
C445 C 0.64849 0.04434 0.51673 0.0
C446 C 0.66385 0.03165 0.52122 0.0
C447 C 0.613 0.05508 0.52398 0.0
H448 H 0.44811 0.08367 0.53033 0.0
H449 H 0.47451 0.06047 0.53301 0.0
H450 H 0.45273 0.04227 0.59729 0.0
H451 H 0.42687 0.06632 0.5953 0.0
H452 H 0.63922 1.00474 0.56396 0.0
H453 H 0.61216 0.02651 0.55566 0.0
H454 H 0.65101 0.05523 0.50342 0.0
H455 H 0.67819 0.0332 0.51145 0.0
Dy456 Dy 0.31842 0.29274 0.80091 0.0
Dy457 Dy 0.27044 0.30833 0.79137 0.0
C458 C 0.32089 0.34333 0.79046 0.0
O459 O 0.31448 0.30976 0.83561 0.0
O460 O 0.27539 0.30591 0.82898 0.0
O461 O 0.35486 0.30182 0.81502 0.0
O462 O 0.33693 0.26765 0.79495 0.0
O463 O 0.25895 0.26991 0.79101 0.0
O464 O 0.2908 0.26488 0.81209 0.0
O465 O 0.28232 0.30442 0.75663 0.0
O466 O 0.30187 0.27857 0.76424 0.0
O467 O 0.23537 0.30191 0.7739 0.0
O468 O 0.25154 0.33244 0.80002 0.0
C469 C 0.29496 0.3102 0.84316 0.0
O470 O 0.3282 0.32533 0.78581 0.0
O471 O 0.30056 0.34112 0.79717 0.0
C472 C 0.37605 0.28533 0.79035 0.0
C473 C 0.41266 0.2903 0.76348 0.0
C474 C 0.39902 0.30541 0.76333 0.0
C475 C 0.38086 0.30287 0.77652 0.0
C476 C 0.3894 0.27011 0.79045 0.0
C477 C 0.40746 0.2725 0.77712 0.0
C478 C 0.35703 0.28261 0.80444 0.0
C479 C 0.26856 0.25762 0.80334 0.0
C480 C 0.29248 0.28903 0.74954 0.0
C481 C 0.21165 0.31347 0.79922 0.0
C482 C 0.17379 0.30415 0.82445 0.0
C483 C 0.18776 0.2894 0.82304 0.0
C484 C 0.20657 0.29409 0.81067 0.0
C485 C 0.19776 0.32819 0.80048 0.0
C486 C 0.17902 0.32361 0.81301 0.0
C487 C 0.23222 0.31917 0.78721 0.0
H488 H 0.40257 0.31946 0.75331 0.0
H489 H 0.37063 0.3147 0.77601 0.0
H490 H 0.38582 0.2563 0.80079 0.0
H491 H 0.41718 0.26021 0.77737 0.0
H492 H 0.18445 0.27446 0.83191 0.0
H493 H 0.21734 0.28274 0.81029 0.0
H494 H 0.20153 0.34336 0.79194 0.0
H495 H 0.16851 0.33521 0.81359 0.0
Dy496 Dy 0.05006 0.02478 0.53595 0.0
Dy497 Dy 0.03709 0.07425 0.54256 0.0
C498 C 0.99968 0.02588 0.54462 0.0
O499 O 0.04771 0.03409 0.50027 0.0
O500 O 0.0245 0.05755 0.5055 0.0
O501 O 0.0413 0.988 0.5224 0.0
O502 O 0.07376 1.00591 0.54518 0.0
O503 O 0.06944 0.08123 0.52659 0.0
O504 O 0.08363 0.05387 0.54053 0.0
O505 O 0.05581 0.0719 0.57691 0.0
O506 O 0.04532 0.03218 0.57284 0.0
O507 O 0.04812 0.11135 0.55504 0.0
O508 O 1.01299 0.09373 0.53719 0.0
C509 C 0.03397 0.04532 0.4919 0.0
O510 O 1.01149 0.01603 0.53166 0.0
O511 O 1.00814 0.04791 0.55426 0.0
C512 C 0.05494 0.96711 0.54905 0.0
C513 C 0.04928 0.93214 0.5774 0.0
C514 C 0.04469 0.95304 0.58463 0.0
C515 C 0.04747 0.97034 0.57059 0.0
C516 C 0.05903 0.94615 0.5415 0.0
C517 C 0.05619 0.92882 0.55549 0.0
C518 C 0.05942 0.98583 0.53483 0.0
C519 C 0.08679 0.07326 0.53194 0.0
C520 C 0.05303 0.05272 0.58592 0.0
C521 C 0.03146 0.13206 0.53061 0.0
C522 C 0.03779 0.16771 0.5029 0.0
C523 C 0.03305 0.14425 0.49281 0.0
C524 C 0.03004 0.12666 0.50651 0.0
C525 C 0.03618 0.15534 0.54077 0.0
C526 C 0.03934 0.17297 0.52711 0.0
C527 C 0.0288 0.11377 0.54537 0.0
H528 H 0.03958 0.95637 0.60144 0.0
H529 H 0.04423 0.98643 0.57675 0.0
H530 H 0.0647 0.94329 0.5249 0.0
H531 H 0.05946 0.91281 0.54911 0.0
H532 H 0.03142 0.13939 0.47426 0.0
H533 H 0.0266 0.10882 0.49827 0.0
H534 H 0.0376 0.15992 0.55935 0.0
H535 H 0.04337 0.19078 0.53563 0.0
Dy536 Dy 0.29969 0.82096 0.78784 0.0
Dy537 Dy 0.28918 0.77068 0.80716 0.0
C538 C 0.28317 0.81512 0.83728 0.0
O539 O 0.33486 0.82244 0.80677 0.0
O540 O 0.32827 0.78358 0.80854 0.0
O541 O 0.31359 0.85848 0.79424 0.0
O542 O 0.29625 0.84023 0.75998 0.0
O543 O 0.29093 0.76336 0.76953 0.0
O544 O 0.31369 0.79905 0.76407 0.0
O545 O 0.2535 0.77529 0.8004 0.0
O546 O 0.26147 0.80139 0.77505 0.0
O547 O 0.27162 0.73361 0.80246 0.0
O548 O 0.29669 0.75077 0.8332 0.0
C549 C 0.3427 0.80489 0.81042 0.0
O550 O 0.28289 0.82519 0.81894 0.0
O551 O 0.28957 0.79639 0.83767 0.0
C552 C 0.29 0.87568 0.77324 0.0
C553 C 0.26243 0.90577 0.77412 0.0
C554 C 0.25359 0.88302 0.77896 0.0
C555 C 0.26727 0.86814 0.77857 0.0
C556 C 0.2989 0.89825 0.76835 0.0
C557 C 0.28527 0.91318 0.76878 0.0
C558 C 0.30468 0.86034 0.77365 0.0
C559 C 0.30565 0.77637 0.75817 0.0
C560 C 0.24636 0.78697 0.78525 0.0
C561 C 0.2973 0.71417 0.8163 0.0
C562 C 0.32446 0.68416 0.80972 0.0
C563 C 0.32405 0.70052 0.79493 0.0
C564 C 0.31072 0.71546 0.79828 0.0
C565 C 0.29753 0.69785 0.83106 0.0
C566 C 0.31105 0.68297 0.82783 0.0
C567 C 0.28444 0.73092 0.82053 0.0
H568 H 0.23603 0.87661 0.78285 0.0
H569 H 0.26015 0.85076 0.78253 0.0
H570 H 0.31649 0.90442 0.76442 0.0
H571 H 0.2928 0.93068 0.76533 0.0
H572 H 0.33445 0.70213 0.78105 0.0
H573 H 0.31115 0.72829 0.78699 0.0
H574 H 0.28747 0.69678 0.8452 0.0
H575 H 0.31089 0.67044 0.8394 0.0
Dy576 Dy 0.54094 0.05438 0.02743 0.0
Dy577 Dy 0.5435 0.02448 0.06951 0.0
C578 C 0.55203 1.00575 0.01847 0.0
O579 O 0.50716 0.02598 0.02138 0.0
O580 O 0.50592 0.01944 0.05866 0.0
O581 O 0.52823 0.05714 0.99261 0.0
O582 O 0.55137 0.0876 0.01562 0.0
O583 O 0.54283 0.05976 0.08561 0.0
O584 O 0.52405 0.06956 0.05459 0.0
O585 O 0.58003 0.03762 0.06307 0.0
O586 O 0.57628 0.06959 0.0485 0.0
O587 O 0.55803 0.02319 0.10426 0.0
O588 O 0.53128 0.99304 0.08416 0.0
C589 C 0.49576 0.01694 0.03732 0.0
O590 O 0.55606 0.02692 0.01335 0.0
O591 O 0.54413 1.0004 0.03769 0.0
C592 C 0.55667 0.08259 0.97662 0.0
C593 C 0.58257 0.08157 0.94004 0.0
C594 C 0.59222 0.08064 0.96255 0.0
C595 C 0.5793 0.08099 0.98068 0.0
C596 C 0.54746 0.0848 0.95453 0.0
C597 C 0.5603 0.08429 0.93634 0.0
C598 C 0.54154 0.07858 0.99438 0.0
C599 C 0.53089 0.07246 0.07699 0.0
C600 C 0.58925 0.05827 0.05779 0.0
C601 C 0.52672 1.00543 0.12243 0.0
C602 C 0.50088 0.0223 0.15323 0.0
C603 C 0.49039 0.01149 0.1306 0.0
C604 C 0.50315 1.00311 0.11538 0.0
C605 C 0.5367 0.01457 0.14553 0.0
C606 C 0.52387 0.02292 0.16084 0.0
C607 C 0.54185 1.0037 0.10484 0.0
H608 H 0.60944 0.07887 0.96602 0.0
H609 H 0.58662 0.07901 0.99763 0.0
H610 H 0.5299 0.08573 0.95109 0.0
H611 H 0.55223 0.08473 0.91916 0.0
H612 H 0.47279 0.01082 0.1241 0.0
H613 H 0.49495 0.99637 0.09763 0.0
H614 H 0.55488 0.01671 0.15131 0.0
H615 H 0.53226 0.03068 0.17837 0.0
Dy616 Dy 0.28117 0.26021 0.28043 0.0
Dy617 Dy 0.30949 0.31337 0.30329 0.0
C618 C 0.29877 0.27394 0.33515 0.0
O619 O 0.25485 0.27377 0.29712 0.0
O620 O 0.27174 0.31312 0.29988 0.0
O621 O 0.24848 0.23272 0.2685 0.0
O622 O 0.28121 0.22559 0.26752 0.0
O623 O 0.30066 0.31593 0.2661 0.0
O624 O 0.27689 0.27878 0.25057 0.0
O625 O 0.33631 0.29423 0.29956 0.0
O626 O 0.31618 0.26806 0.26788 0.0
O627 O 0.33859 0.34409 0.30355 0.0
O628 O 0.3173 0.34267 0.33081 0.0
C629 C 0.25337 0.29506 0.30047 0.0
O630 O 0.29586 0.25822 0.31674 0.0
O631 O 0.30063 0.29553 0.3332 0.0
C632 C 0.25153 0.1977 0.27927 0.0
C633 C 0.25307 0.16357 0.30672 0.0
C634 C 0.25371 0.18584 0.31705 0.0
C635 C 0.25297 0.20283 0.30339 0.0
C636 C 0.24819 0.17488 0.26876 0.0
C637 C 0.2488 0.15784 0.28239 0.0
C638 C 0.25869 0.21673 0.26604 0.0
C639 C 0.28716 0.30059 0.24867 0.0
C640 C 0.3362 0.27963 0.28103 0.0
C641 C 0.33061 0.3784 0.31801 0.0
C642 C 0.31807 0.41853 0.31272 0.0
C643 C 0.31836 0.4029 0.29321 0.0
C644 C 0.32444 0.38294 0.29582 0.0
C645 C 0.33148 0.39456 0.33749 0.0
C646 C 0.32515 0.41446 0.33488 0.0
C647 C 0.33341 0.3558 0.32113 0.0
H648 H 0.2568 0.19068 0.33571 0.0
H649 H 0.25556 0.22045 0.31178 0.0
H650 H 0.2472 0.17071 0.25019 0.0
H651 H 0.24845 0.14092 0.27386 0.0
H652 H 0.31261 0.40541 0.27593 0.0
H653 H 0.32333 0.3706 0.2805 0.0
H654 H 0.33608 0.39126 0.35474 0.0
H655 H 0.32515 0.42632 0.35018 0.0
Dy656 Dy 0.5508 0.52069 0.04302 0.0
Dy657 Dy 0.53569 0.56881 0.05291 0.0
C658 C 0.49919 0.51893 0.05203 0.0
O659 O 0.54862 0.53273 0.00865 0.0
O660 O 0.52366 0.55391 0.01534 0.0
O661 O 0.54441 0.48544 0.02571 0.0
O662 O 0.57479 0.5019 0.05178 0.0
O663 O 0.56876 0.57848 0.03812 0.0
O664 O 0.58384 0.55065 0.04949 0.0
O665 O 0.55223 0.56446 0.08755 0.0
O666 O 0.54594 0.52505 0.08 0.0
O667 O 0.54533 0.60548 0.06697 0.0
O668 O 0.51059 0.58732 0.04843 0.0
C669 C 0.53412 0.54352 1.00111 0.0
O670 O 0.51201 0.50974 0.03973 0.0
O671 O 0.5067 0.54078 0.06225 0.0
C672 C 0.55658 0.46182 0.05027 0.0
C673 C 0.54862 0.42337 0.07429 0.0
C674 C 0.53373 0.43726 0.07448 0.0
C675 C 0.53771 0.45634 0.06265 0.0
C676 C 0.57139 0.44805 0.04994 0.0
C677 C 0.5675 0.42906 0.06182 0.0
C678 C 0.56178 0.48255 0.03876 0.0
C679 C 0.58651 0.57082 0.04258 0.0
C680 C 0.55138 0.54458 0.09465 0.0
C681 C 0.52818 0.62608 0.04295 0.0
C682 C 0.53475 0.66234 0.01615 0.0
C683 C 0.53271 0.63953 0.00597 0.0
C684 C 0.52959 0.62162 0.01927 0.0
C685 C 0.52995 0.6487 0.05312 0.0
C686 C 0.53324 0.66666 0.03987 0.0
C687 C 0.52582 0.60751 0.05728 0.0
H688 H 0.51889 0.43333 0.08366 0.0
H689 H 0.52617 0.46691 0.0633 0.0
H690 H 0.58622 0.45219 0.04074 0.0
H691 H 0.57964 0.41914 0.0616 0.0
H692 H 0.53411 0.63565 0.98785 0.0
H693 H 0.52856 0.60433 0.01112 0.0
H694 H 0.529 0.65251 0.07136 0.0
H695 H 0.53451 0.68395 0.04821 0.0
Dy696 Dy 0.79855 0.31592 0.28538 0.0
Dy697 Dy 0.78685 0.26343 0.29942 0.0
C698 C 0.78133 0.30528 0.33357 0.0
O699 O 0.83304 0.31536 0.30432 0.0
O700 O 0.82595 0.27582 0.30027 0.0
O701 O 0.8128 0.35325 0.29509 0.0
O702 O 0.79628 0.33801 0.2598 0.0
O703 O 0.78665 0.26081 0.26156 0.0
O704 O 0.81319 0.29568 0.26027 0.0
O705 O 0.75154 0.26893 0.29402 0.0
O706 O 0.76053 0.29699 0.27081 0.0
O707 O 0.77039 0.22621 0.2898 0.0
O708 O 0.79142 0.24051 0.32339 0.0
C709 C 0.84067 0.29718 0.30488 0.0
O710 O 0.78085 0.31709 0.31649 0.0
O711 O 0.78828 0.28682 0.3319 0.0
C712 C 0.79021 0.37268 0.276 0.0
C713 C 0.76312 0.40314 0.27939 0.0
C714 C 0.75404 0.37994 0.2829 0.0
C715 C 0.76747 0.36486 0.28125 0.0
C716 C 0.79936 0.39571 0.27244 0.0
C717 C 0.78595 0.41082 0.2741 0.0
C718 C 0.80461 0.35707 0.27505 0.0
C719 C 0.80362 0.27343 0.25234 0.0
C720 C 0.74494 0.28166 0.2797 0.0
C721 C 0.79455 0.20574 0.30441 0.0
C722 C 0.82186 0.17591 0.29834 0.0
C723 C 0.82971 0.19879 0.29372 0.0
C724 C 0.81611 0.21352 0.29661 0.0
C725 C 0.78651 0.18289 0.30885 0.0
C726 C 0.80002 0.16801 0.30573 0.0
C727 C 0.78088 0.22173 0.30834 0.0
H728 H 0.73646 0.37333 0.28671 0.0
H729 H 0.76015 0.34711 0.28414 0.0
H730 H 0.81695 0.40208 0.26857 0.0
H731 H 0.79364 0.42865 0.27163 0.0
H732 H 0.84627 0.20523 0.28765 0.0
H733 H 0.82249 0.23104 0.29286 0.0
H734 H 0.76989 0.17662 0.31488 0.0
H735 H 0.79359 0.15048 0.30949 0.0
Dy736 Dy 0.04704 0.5738 0.52779 0.0
Dy737 Dy 0.04948 0.54591 0.57104 0.0
C738 C 0.05426 0.52314 0.52148 0.0
O739 O 1.01073 0.56131 0.53472 0.0
O740 O 0.01473 0.52937 0.54899 0.0
O741 O 0.02982 0.5763 0.49468 0.0
O742 O 0.06236 0.60257 0.51047 0.0
O743 O 0.03302 0.57313 0.58232 0.0
O744 O 0.04887 0.59946 0.55935 0.0
O745 O 0.08437 0.57246 0.57388 0.0
O746 O 0.08339 0.57296 0.53525 0.0
O747 O 0.06137 0.54626 0.607 0.0
O748 O 0.03988 0.51404 0.58541 0.0
C749 C 1.00179 0.54004 0.53849 0.0
O750 O 0.04326 0.53673 0.51304 0.0
O751 O 0.06318 0.52707 0.54352 0.0
C752 C 0.05801 0.58759 0.47118 0.0
C753 C 0.0745 0.5718 0.43162 0.0
C754 C 0.08004 0.56506 0.45288 0.0
C755 C 0.07187 0.57287 0.47244 0.0
C756 C 0.0526 0.59468 0.45015 0.0
C757 C 0.06086 0.58686 0.43043 0.0
C758 C 0.0476 0.59322 0.49145 0.0
C759 C 0.03889 0.59447 0.57765 0.0
C760 C 0.09505 0.57702 0.5561 0.0
C761 C 0.03082 0.52316 0.62247 0.0
C762 C 1.00101 0.53107 0.65358 0.0
C763 C 0.99328 0.52656 0.62965 0.0
C764 C 1.00808 0.52275 0.61423 0.0
C765 C 0.03813 0.52623 0.64633 0.0
C766 C 0.0233 0.53012 0.66182 0.0
C767 C 0.04792 0.52506 0.6065 0.0
H768 H 0.09011 0.55315 0.4543 0.0
H769 H 0.07583 0.56686 0.48847 0.0
H770 H 0.04169 0.60582 0.44888 0.0
H771 H 0.05649 0.59248 0.41428 0.0
H772 H 0.97633 0.52743 0.62278 0.0
H773 H 1.00221 0.52091 0.59586 0.0
H774 H 0.0557 0.52691 0.65298 0.0
H775 H 0.02956 0.53325 0.68022 0.0
Dy776 Dy 0.81771 0.79168 0.31091 0.0
Dy777 Dy 0.7687 0.80555 0.30353 0.0
C778 C 0.81781 0.84046 0.29808 0.0
O779 O 0.81538 0.81154 0.34496 0.0
O780 O 0.7756 0.80202 0.34073 0.0
O781 O 0.85494 0.80306 0.32238 0.0
O782 O 0.83716 0.76735 0.3062 0.0
O783 O 0.7585 0.7671 0.30268 0.0
O784 O 0.79143 0.7631 0.32278 0.0
O785 O 0.77822 0.80086 0.26776 0.0
O786 O 0.80035 0.77692 0.2745 0.0
O787 O 0.73296 0.79862 0.28766 0.0
O788 O 0.74954 0.82885 0.31405 0.0
C789 C 0.79606 0.80947 0.35385 0.0
O790 O 0.82463 0.82227 0.29296 0.0
O791 O 0.79844 0.83868 0.30678 0.0
C792 C 0.87459 0.78522 0.29725 0.0
C793 C 0.90806 0.78895 0.2668 0.0
C794 C 0.88627 0.79176 0.25976 0.0
C795 C 0.86973 0.78994 0.27484 0.0
C796 C 0.89626 0.78255 0.30443 0.0
C797 C 0.91284 0.7844 0.2894 0.0
C798 C 0.85726 0.78341 0.31322 0.0
C799 C 0.76908 0.75511 0.3144 0.0
C800 C 0.78909 0.78628 0.26016 0.0
C801 C 0.70967 0.80973 0.31374 0.0
C802 C 0.67169 0.80021 0.33894 0.0
C803 C 0.68823 0.7882 0.34086 0.0
C804 C 0.70704 0.79295 0.32842 0.0
C805 C 0.69318 0.82158 0.31157 0.0
C806 C 0.67438 0.81688 0.32401 0.0
C807 C 0.73003 0.81567 0.30145 0.0
H808 H 0.88181 0.795 0.24246 0.0
H809 H 0.85309 0.79214 0.26898 0.0
H810 H 0.90041 0.77909 0.32172 0.0
H811 H 0.92952 0.78252 0.29561 0.0
H812 H 0.68663 0.77505 0.35191 0.0
H813 H 0.71964 0.78364 0.3304 0.0
H814 H 0.69501 0.83473 0.30047 0.0
H815 H 0.66227 0.82674 0.32231 0.0
Dy816 Dy 0.80724 0.28762 0.77384 0.0
Dy817 Dy 0.77657 0.29107 0.81513 0.0
C818 C 0.81153 0.33639 0.8035 0.0
O819 O 0.82174 0.27212 0.80242 0.0
O820 O 0.81198 0.29274 0.8325 0.0
O821 O 0.84116 0.29051 0.76442 0.0
O822 O 0.81055 0.2784 0.73808 0.0
O823 O 0.77434 0.25377 0.80614 0.0
O824 O 0.77808 0.25451 0.7682 0.0
O825 O 0.75343 0.29118 0.78271 0.0
O826 O 0.78095 0.30395 0.75942 0.0
O827 O 0.74487 0.27784 0.82936 0.0
O828 O 0.77285 0.30769 0.84836 0.0
C829 C 0.82502 0.28068 0.82456 0.0
O830 O 0.82284 0.3235 0.79371 0.0
O831 O 0.79062 0.32725 0.8085 0.0
C832 C 0.84495 0.30173 0.72794 0.0
C833 C 0.86056 0.3335 0.69799 0.0
C834 C 0.86211 0.34143 0.72172 0.0
C835 C 0.85417 0.32567 0.73657 0.0
C836 C 0.84485 0.29363 0.70468 0.0
C837 C 0.85253 0.30936 0.68978 0.0
C838 C 0.83326 0.28536 0.74234 0.0
C839 C 0.77108 0.24311 0.7848 0.0
C840 C 0.75947 0.29996 0.7641 0.0
C841 C 0.75435 0.27972 0.86963 0.0
C842 C 0.76494 0.26051 0.90885 0.0
C843 C 0.7602 0.24717 0.88664 0.0
C844 C 0.75511 0.25673 0.8672 0.0
C845 C 0.75791 0.29268 0.89181 0.0
C846 C 0.7632 0.28318 0.91129 0.0
C847 C 0.75361 0.29134 0.8493 0.0
H848 H 0.8685 0.35986 0.72864 0.0
H849 H 0.85435 0.3323 0.75454 0.0
H850 H 0.8377 0.2752 0.69778 0.0
H851 H 0.85071 0.30261 0.67156 0.0
H852 H 0.76093 0.2295 0.88421 0.0
H853 H 0.7527 0.2464 0.85026 0.0
H854 H 0.75773 0.31055 0.89399 0.0
H855 H 0.76696 0.29399 0.92814 0.0
Dy856 Dy 0.78093 0.7721 0.79273 0.0
Dy857 Dy 0.81259 0.82302 0.81801 0.0
C858 C 0.80082 0.78176 0.84644 0.0
O859 O 0.7555 0.79281 0.79501 0.0
O860 O 0.77616 0.81972 0.82622 0.0
O861 O 0.74698 0.7461 0.78542 0.0
O862 O 0.77613 0.73872 0.77196 0.0
O863 O 0.79708 0.82837 0.78335 0.0
O864 O 0.78943 0.79148 0.76363 0.0
O865 O 0.83789 0.80931 0.79995 0.0
O866 O 0.81831 0.77035 0.79575 0.0
O867 O 0.83698 0.85702 0.81816 0.0
O868 O 0.82518 0.84741 0.8499 0.0
C869 C 0.75611 0.80849 0.8128 0.0
O870 O 0.78238 0.77182 0.83075 0.0
O871 O 0.81819 0.79847 0.84185 0.0
C872 C 0.7498 0.70853 0.78533 0.0
C873 C 0.75023 0.66885 0.80482 0.0
C874 C 0.7509 0.68941 0.81901 0.0
C875 C 0.75083 0.70916 0.80934 0.0
C876 C 0.74711 0.68757 0.77098 0.0
C877 C 0.74729 0.66783 0.78063 0.0
C878 C 0.75474 0.73016 0.77563 0.0
C879 C 0.79266 0.81374 0.76376 0.0
C880 C 0.83753 0.78752 0.79505 0.0
C881 C 0.83043 0.8863 0.84423 0.0
C882 C 0.81313 0.92447 0.84705 0.0
C883 C 0.82863 0.92219 0.8315 0.0
C884 C 0.83729 0.90336 0.83021 0.0
C885 C 0.81652 0.88959 0.86112 0.0
C886 C 0.80796 0.90853 0.86251 0.0
C887 C 0.83605 0.86434 0.83968 0.0
H888 H 0.7529 0.69064 0.83765 0.0
H889 H 0.75292 0.72523 0.82076 0.0
H890 H 0.74639 0.68685 0.75244 0.0
H891 H 0.74705 0.65239 0.7692 0.0
H892 H 0.83288 0.93401 0.81918 0.0
H893 H 0.8483 0.90147 0.8173 0.0
H894 H 0.8113 0.877 0.87255 0.0
H895 H 0.79645 0.91009 0.875 0.0
Dy896 Dy 0.57512 0.55792 0.56081 0.0
Dy897 Dy 0.52233 0.52954 0.53775 0.0
C898 C 0.5617 0.54179 0.5068 0.0
O899 O 0.56235 0.58619 0.54802 0.0
O900 O 0.52286 0.5674 0.53975 0.0
O901 O 0.6092 0.58048 0.55792 0.0
O902 O 0.6027 0.56769 0.59002 0.0
O903 O 0.52315 0.53191 0.57601 0.0
O904 O 0.55367 0.56535 0.58745 0.0
O905 O 0.53939 0.50107 0.54116 0.0
O906 O 0.56982 0.52159 0.56955 0.0
O907 O 0.4859 0.51623 0.54044 0.0
O908 O 0.49779 0.50839 0.50801 0.0
C909 C 0.54091 0.58658 0.54193 0.0
O910 O 0.57615 0.54115 0.52477 0.0
O911 O 0.54112 0.54323 0.50963 0.0
C912 C 0.63738 0.56744 0.57716 0.0
C913 C 0.67066 0.5439 0.5783 0.0
C914 C 0.65068 0.53589 0.56141 0.0
C915 C 0.63414 0.54747 0.56093 0.0
C916 C 0.6575 0.57591 0.59378 0.0
C917 C 0.67416 0.56422 0.59429 0.0
C918 C 0.61842 0.57753 0.57791 0.0
C919 C 0.53508 0.5499 0.59174 0.0
C920 C 0.55631 0.5015 0.55753 0.0
C921 C 0.46177 0.5158 0.50692 0.0
C922 C 0.42559 0.53482 0.4972 0.0
C923 C 0.44903 0.54876 0.49962 0.0
C924 C 0.46696 0.53927 0.50435 0.0
C925 C 0.43861 0.50131 0.50224 0.0
C926 C 0.42061 0.5107 0.49712 0.0
C927 C 0.47982 0.50776 0.51847 0.0
H928 H 0.64775 0.52058 0.54856 0.0
H929 H 0.61854 0.54052 0.54815 0.0
H930 H 0.66001 0.59112 0.60662 0.0
H931 H 0.68941 0.57069 0.60753 0.0
H932 H 0.45366 0.56738 0.49994 0.0
H933 H 0.48482 0.55066 0.50779 0.0
H934 H 0.43434 0.4831 0.50404 0.0
H935 H 0.40277 0.49934 0.49471 0.0
Dy936 Dy 0.01545 0.53929 0.05033 0.0
Dy937 Dy 0.06527 0.5495 0.02961 0.0
C938 C 0.02026 0.55413 0.99984 0.0
O939 O 1.01366 0.50364 0.03211 0.0
O940 O 0.05237 0.51039 0.02874 0.0
O941 O 0.97802 0.52492 0.04616 0.0
O942 O 0.99737 0.54494 0.07911 0.0
O943 O 0.07236 0.55117 0.06764 0.0
O944 O 0.03825 0.52585 0.07334 0.0
O945 O 0.06011 0.58511 0.03539 0.0
O946 O 0.03531 0.57756 0.06222 0.0
O947 O 0.10237 0.56716 0.03421 0.0
O948 O 0.08572 0.54102 0.00405 0.0
C949 C 0.03116 0.49585 0.02776 0.0
O950 O 1.00981 0.55381 0.01817 0.0
O951 O 0.03981 0.54916 0.99942 0.0
C952 C 0.96173 0.55071 0.06615 0.0
C953 C 0.9332 0.57996 0.066 0.0
C954 C 0.94688 0.57856 0.04841 0.0
C955 C 0.96109 0.56423 0.04858 0.0
C956 C 0.94829 0.55209 0.08382 0.0
C957 C 0.9342 0.56661 0.0838 0.0
C958 C 0.9769 0.53578 0.06635 0.0
C959 C 0.06083 0.53549 0.07893 0.0
C960 C 0.04888 0.59247 0.05118 0.0
C961 C 0.12217 0.54106 0.02185 0.0
C962 C 0.15295 0.51529 0.03102 0.0
C963 C 0.13467 0.51455 0.04395 0.0
C964 C 0.11936 0.52717 0.0393 0.0
C965 C 0.14034 0.54192 0.00888 0.0
C966 C 0.15559 0.52907 0.01338 0.0
C967 C 0.10543 0.55366 0.01666 0.0
H968 H 0.9464 0.58825 0.03425 0.0
H969 H 0.97152 0.56365 0.03489 0.0
H970 H 0.94878 0.54204 0.09769 0.0
H971 H 0.92428 0.56753 0.09788 0.0
H972 H 0.13193 0.50384 0.05741 0.0
H973 H 0.10514 0.52592 0.04919 0.0
H974 H 0.14265 0.55239 0.99522 0.0
H975 H 0.16958 0.53012 0.00322 0.0
H976 H 0.98363 0.20793 0.01127 0.0
H977 H 0.06176 0.12117 0.01261 0.0
H978 H 0.03938 0.21152 0.97114 0.0
H979 H 0.99162 0.09942 0.02818 0.0
H980 H 0.05614 0.15733 0.00309 0.0
H981 H 0.98851 0.17183 0.02334 0.0
C982 C 0.99712 0.20146 0.00527 0.0
C983 C 1.01115 0.21318 0.99013 0.0
C984 C 0.04192 0.14475 0.00864 0.0
C985 C 0.01693 0.17153 0.00406 0.0
C986 C 0.04514 0.12392 0.01418 0.0
C987 C 0.02719 0.10678 0.02129 0.0
C988 C 0.02066 0.14921 0.01049 0.0
C989 C 1.00605 0.11185 0.02277 0.0
C990 C 0.99976 0.18064 0.01202 0.0
C991 C 0.02808 0.20339 0.98278 0.0
N992 N 1.00345 0.13248 0.0176 0.0
N993 N 0.03053 0.18354 0.98984 0.0
H994 H 0.15719 0.82728 0.13795 0.0
H995 H 0.20509 0.80735 0.26397 0.0
H996 H 0.11788 0.82005 0.19481 0.0
H997 H 0.24813 0.81811 0.21017 0.0
H998 H 0.17371 0.81353 0.23871 0.0
H999 H 0.19141 0.8262 0.16388 0.0
C1000 C 0.15581 0.82588 0.15591 0.0
C1001 C 0.13445 0.82367 0.16407 0.0
C1002 C 0.19001 0.81464 0.23236 0.0
C1003 C 0.17352 0.82206 0.19382 0.0
C1004 C 0.20802 0.81104 0.24685 0.0
C1005 C 0.22942 0.81209 0.2393 0.0
C1006 C 0.1931 0.81924 0.2099 0.0
C1007 C 0.23198 0.81708 0.21682 0.0
C1008 C 0.17533 0.82509 0.17069 0.0
C1009 C 0.1338 0.82167 0.18755 0.0
N1010 N 0.21406 0.82035 0.20291 0.0
N1011 N 0.15285 0.82077 0.20141 0.0
H1012 H 0.48199 0.84627 0.48791 0.0
H1013 H 0.57202 0.97394 0.53696 0.0
H1014 H 0.55309 0.85681 0.51745 0.0
H1015 H 0.49782 0.96032 0.52054 0.0
H1016 H 0.56595 0.93186 0.52955 0.0
H1017 H 0.48769 0.88771 0.49984 0.0
C1018 C 0.49876 0.8572 0.49734 0.0
C1019 C 0.51697 0.84764 0.50184 0.0
C1020 C 0.55097 0.93802 0.52761 0.0
C1021 C 0.52394 0.89608 0.51509 0.0
C1022 C 0.55441 0.9622 0.53175 0.0
C1023 C 0.53543 0.97109 0.52933 0.0
C1024 C 0.52835 0.9222 0.52069 0.0
C1025 C 0.51307 0.9546 0.52265 0.0
C1026 C 0.50204 0.88105 0.50405 0.0
C1027 C 0.53836 0.86307 0.51389 0.0
N1028 N 0.51023 0.93121 0.51848 0.0
N1029 N 0.54131 0.88643 0.5198 0.0
H1030 H 0.53765 0.28239 0.7098 0.0
H1031 H 0.41534 0.30372 0.72046 0.0
H1032 H 0.50797 0.31937 0.66349 0.0
H1033 H 0.45506 0.28346 0.7748 0.0
H1034 H 0.44772 0.30796 0.69827 0.0
H1035 H 0.50616 0.28075 0.73252 0.0
C1036 C 0.52451 0.29023 0.7044 0.0
C1037 C 0.52547 0.30102 0.68465 0.0
C1038 C 0.44932 0.30265 0.71508 0.0
C1039 C 0.48908 0.29904 0.71066 0.0
C1040 C 0.43086 0.30031 0.72786 0.0
C1041 C 0.43228 0.29312 0.74963 0.0
C1042 C 0.46935 0.29759 0.72397 0.0
C1043 C 0.45281 0.28859 0.75798 0.0
C1044 C 0.50653 0.28932 0.71745 0.0
C1045 C 0.50795 0.31092 0.67861 0.0
N1046 N 0.47041 0.29081 0.74514 0.0
N1047 N 0.49037 0.30957 0.69148 0.0
H1048 H 0.0733 0.82363 0.64901 0.0
H1049 H 0.01707 0.91803 0.60665 0.0
H1050 H 0.01532 0.83809 0.67691 0.0
H1051 H 0.07801 0.90538 0.58377 0.0
H1052 H 0.01546 0.88887 0.63214 0.0
H1053 H 0.07446 0.85328 0.62466 0.0
C1054 C 0.06079 0.83308 0.65007 0.0
C1055 C 0.04417 0.8283 0.66509 0.0
C1056 C 0.02915 0.89249 0.62151 0.0
C1057 C 0.04539 0.86252 0.63696 0.0
C1058 C 0.03016 0.90923 0.607 0.0
C1059 C 0.04766 0.9142 0.59286 0.0
C1060 C 0.04576 0.88059 0.62195 0.0
C1061 C 0.06394 0.90193 0.59394 0.0
C1062 C 0.06147 0.85008 0.6361 0.0
C1063 C 0.02844 0.8412 0.66562 0.0
N1064 N 0.06257 0.88578 0.60816 0.0
N1065 N 0.0294 0.8577 0.65172 0.0
H1066 H 0.48081 0.79255 0.85608 0.0
H1067 H 0.37984 0.84362 0.80743 0.0
H1068 H 0.49464 0.85261 0.82173 0.0
H1069 H 0.36533 0.7749 0.82565 0.0
H1070 H 0.42181 0.84861 0.81512 0.0
H1071 H 0.43881 0.78697 0.84735 0.0
C1072 C 0.4751 0.8045 0.84655 0.0
C1073 C 0.49161 0.82303 0.83955 0.0
C1074 C 0.40945 0.83244 0.81747 0.0
C1075 C 0.443 0.81695 0.82982 0.0
C1076 C 0.38537 0.8296 0.81317 0.0
C1077 C 0.36867 0.80879 0.81588 0.0
C1078 C 0.41726 0.81449 0.82487 0.0
C1079 C 0.37729 0.79128 0.82326 0.0
C1080 C 0.451 0.80131 0.8416 0.0
C1081 C 0.4828 0.83796 0.82738 0.0
N1082 N 0.40075 0.79456 0.82755 0.0
N1083 N 0.45933 0.8347 0.82309 0.0
H1084 H 0.50948 0.20155 0.13304 0.0
H1085 H 0.53588 0.07981 0.12473 0.0
H1086 H 0.51765 0.16876 0.19283 0.0
H1087 H 0.51428 0.10761 0.06534 0.0
H1088 H 0.52905 0.11152 0.15007 0.0
H1089 H 0.51048 0.16679 0.10827 0.0
C1090 C 0.51117 0.1869 0.14099 0.0
C1091 C 0.51346 0.18821 0.16517 0.0
C1092 C 0.5257 0.11061 0.1315 0.0
C1093 C 0.51514 0.14814 0.13663 0.0
C1094 C 0.52967 0.09252 0.11697 0.0
C1095 C 0.52583 0.09101 0.09275 0.0
C1096 C 0.51803 0.12757 0.12183 0.0
C1097 C 0.51757 0.10797 0.08383 0.0
C1098 C 0.5118 0.16699 0.12677 0.0
C1099 C 0.51565 0.16855 0.17432 0.0
N1100 N 0.51416 0.12553 0.0983 0.0
N1101 N 0.51672 0.14948 0.16011 0.0
H1102 H 0.10595 0.27093 0.31538 0.0
H1103 H 0.24304 0.33588 0.31494 0.0
H1104 H 0.13934 0.34311 0.34496 0.0
H1105 H 0.21048 0.2616 0.29732 0.0
H1106 H 0.20536 0.33987 0.32335 0.0
H1107 H 0.14349 0.26828 0.30589 0.0
C1108 C 0.12108 0.28635 0.31975 0.0
C1109 C 0.11908 0.30732 0.33103 0.0
C1110 C 0.20645 0.32269 0.31761 0.0
C1111 C 0.16292 0.30433 0.32007 0.0
C1112 C 0.22806 0.32038 0.31273 0.0
C1113 C 0.23034 0.29833 0.30535 0.0
C1114 C 0.18657 0.30285 0.31495 0.0
C1115 C 0.20996 0.27901 0.30297 0.0
C1116 C 0.1427 0.28478 0.31437 0.0
C1117 C 0.13972 0.32655 0.33624 0.0
N1118 N 0.18922 0.28173 0.30764 0.0
N1119 N 0.16057 0.32461 0.33075 0.0
H1120 H 0.02114 0.04996 0.22628 0.0
H1121 H 0.98256 0.02859 0.0897 0.0
H1122 H 0.95097 0.0408 0.19419 0.0
H1123 H 0.05345 0.06638 0.12104 0.0
H1124 H 0.97109 0.02884 0.1282 0.0
H1125 H 0.03393 0.05229 0.18817 0.0
C1126 C 1.00846 0.04852 0.21131 0.0
C1127 C 0.98494 0.0452 0.21352 0.0
C1128 C 0.98915 0.03717 0.12666 0.0
C1129 C 0.99938 0.04749 0.16993 0.0
C1130 C 0.99573 0.03697 0.10468 0.0
C1131 C 0.019 0.04754 0.1021 0.0
C1132 C 1.006 0.04761 0.14636 0.0
C1133 C 0.03528 0.05817 0.1222 0.0
C1134 C 0.01578 0.04991 0.1896 0.0
C1135 C 0.96929 0.04346 0.19345 0.0
N1136 N 0.02853 0.05777 0.14351 0.0
N1137 N 0.97674 0.04441 0.17257 0.0
H1138 H 0.29891 0.75607 0.5425 0.0
H1139 H 0.29715 0.7555 0.40675 0.0
H1140 H 0.31966 0.70629 0.49813 0.0
H1141 H 0.26393 0.79486 0.44951 0.0
H1142 H 0.31051 0.74104 0.44078 0.0
H1143 H 0.29188 0.77475 0.50945 0.0
C1144 C 0.30223 0.7492 0.52583 0.0
C1145 C 0.30964 0.72942 0.523 0.0
C1146 C 0.30035 0.75289 0.4427 0.0
C1147 C 0.30144 0.75067 0.48502 0.0
C1148 C 0.29255 0.76102 0.42327 0.0
C1149 C 0.27913 0.77621 0.42522 0.0
C1150 C 0.29481 0.76008 0.46428 0.0
C1151 C 0.27431 0.78328 0.44719 0.0
C1152 C 0.29813 0.75984 0.50694 0.0
C1153 C 0.31383 0.72142 0.50104 0.0
N1154 N 0.28206 0.77508 0.46585 0.0
N1155 N 0.30948 0.73198 0.4828 0.0
H1156 H 0.60106 0.98413 0.70781 0.0
H1157 H 0.61185 0.04169 0.59665 0.0
H1158 H 0.66346 0.99973 0.67604 0.0
H1159 H 0.54481 1.00613 0.61446 0.0
H1160 H 0.63035 0.02373 0.62439 0.0
H1161 H 0.57886 0.98684 0.67178 0.0
C1162 C 0.60996 0.98732 0.693 0.0
C1163 C 0.63427 0.99246 0.69513 0.0
C1164 C 0.61156 0.01967 0.62213 0.0
C1165 C 0.60914 0.99621 0.6542 0.0
C1166 C 0.60099 0.03016 0.60646 0.0
C1167 C 0.57674 0.02561 0.60339 0.0
C1168 C 0.5979 1.00486 0.63524 0.0
C1169 C 0.56359 0.01032 0.61646 0.0
C1170 C 0.59728 0.98903 0.67247 0.0
C1171 C 0.64482 0.99611 0.67532 0.0
N1172 N 0.57438 1.00069 0.63205 0.0
N1173 N 0.6323 0.99862 0.65584 0.0
H1174 H 0.26371 0.35488 0.97844 0.0
H1175 H 0.32822 0.31103 0.87923 0.0
H1176 H 0.31951 0.3257 0.99207 0.0
H1177 H 0.26074 0.3206 0.86491 0.0
H1178 H 0.32674 0.31888 0.92073 0.0
H1179 H 0.26329 0.34442 0.93681 0.0
C1180 C 0.2757 0.34606 0.97271 0.0
C1181 C 0.29163 0.34114 0.98884 0.0
C1182 C 0.31223 0.3192 0.90849 0.0
C1183 C 0.29157 0.32953 0.94117 0.0
C1184 C 0.31312 0.31482 0.88477 0.0
C1185 C 0.2946 0.31515 0.86846 0.0
C1186 C 0.29282 0.32424 0.91605 0.0
C1187 C 0.27543 0.32009 0.87677 0.0
C1188 C 0.27549 0.34014 0.94893 0.0
C1189 C 0.30684 0.32978 0.98033 0.0
N1190 N 0.2751 0.32455 0.89992 0.0
N1191 N 0.30658 0.32457 0.95715 0.0
H1192 H 0.98273 0.06649 0.3556 0.0
H1193 H 0.04992 0.02264 0.45694 0.0
H1194 H 0.02465 0.02139 0.34303 0.0
H1195 H 1.0076 0.06752 0.46874 0.0
H1196 H 0.04227 0.02312 0.41533 0.0
H1197 H 0.99361 0.06884 0.39724 0.0
C1198 C 0.99446 0.05732 0.36156 0.0
C1199 C 1.00273 0.04369 0.34571 0.0
C1200 C 0.03469 0.03288 0.42705 0.0
C1201 C 0.01504 0.04603 0.39353 0.0
C1202 C 0.039 0.03255 0.45084 0.0
C1203 C 0.02932 0.04495 0.46648 0.0
C1204 C 0.0206 0.04571 0.41877 0.0
C1205 C 0.0154 0.05759 0.45745 0.0
C1206 C 1.00059 0.05856 0.38539 0.0
C1207 C 0.01782 0.03211 0.35456 0.0
N1208 N 1.01146 0.05761 0.43429 0.0
N1209 N 0.02335 0.03342 0.37782 0.0
H1210 H 0.32993 0.67621 0.65629 0.0
H1211 H 0.33502 0.79722 0.72949 0.0
H1212 H 0.35466 0.74262 0.63342 0.0
H1213 H 0.29741 0.72969 0.74426 0.0
H1214 H 0.35036 0.77809 0.69893 0.0
H1215 H 0.32786 0.69647 0.69406 0.0
C1216 C 0.33569 0.69508 0.65944 0.0
C1217 C 0.34195 0.70776 0.64153 0.0
C1218 C 0.33886 0.76749 0.70896 0.0
C1219 C 0.33913 0.73091 0.68443 0.0
C1220 C 0.32995 0.77838 0.72631 0.0
C1221 C 0.31459 0.76504 0.73923 0.0
C1222 C 0.33244 0.74308 0.70454 0.0
C1223 C 0.30893 0.74069 0.73454 0.0
C1224 C 0.33422 0.70661 0.68092 0.0
C1225 C 0.34929 0.73217 0.64663 0.0
N1226 N 0.31776 0.73049 0.7175 0.0
N1227 N 0.34725 0.74296 0.66749 0.0
H1228 H 0.65444 0.02639 0.83868 0.0
H1229 H 0.5853 0.10288 0.90162 0.0
H1230 H 0.61174 0.06078 0.80298 0.0
H1231 H 0.60693 0.05063 0.93294 0.0
H1232 H 0.60097 0.09228 0.86696 0.0
H1233 H 0.64228 0.0391 0.87512 0.0
C1234 C 0.64243 0.03646 0.83849 0.0
C1235 C 0.63398 0.04244 0.8178 0.0
C1236 C 0.60239 0.08324 0.8815 0.0
C1237 C 0.62048 0.05732 0.8592 0.0
C1238 C 0.59344 0.08927 0.90126 0.0
C1239 C 0.5946 0.07749 0.92014 0.0
C1240 C 0.61267 0.06538 0.88062 0.0
C1241 C 0.60582 0.06033 0.9189 0.0
C1242 C 0.63558 0.04375 0.85924 0.0
C1243 C 0.61858 0.05564 0.8185 0.0
N1244 N 0.61433 0.05469 0.89939 0.0
N1245 N 0.61242 0.06272 0.83887 0.0
H1246 H 0.28009 0.38304 0.14026 0.0
H1247 H 0.2736 0.2739 0.20523 0.0
H1248 H 0.28494 0.3184 0.10538 0.0
H1249 H 0.29395 0.34505 0.24009 0.0
H1250 H 0.27107 0.28778 0.16787 0.0
H1251 H 0.2781 0.36702 0.17613 0.0
C1252 C 0.28051 0.36536 0.14002 0.0
C1253 C 0.28282 0.35213 0.11964 0.0
C1254 C 0.27599 0.30028 0.18374 0.0
C1255 C 0.28054 0.33362 0.16104 0.0
C1256 C 0.27732 0.29239 0.20507 0.0
C1257 C 0.28407 0.30833 0.22588 0.0
C1258 C 0.28105 0.32425 0.18322 0.0
C1259 C 0.28882 0.3321 0.22455 0.0
C1260 C 0.27948 0.35627 0.16062 0.0
C1261 C 0.28326 0.3293 0.12062 0.0
N1262 N 0.28715 0.33929 0.20366 0.0
N1263 N 0.28217 0.32077 0.14098 0.0
H1264 H 0.22616 0.9788 0.9923 0.0
H1265 H 0.2158 0.10248 0.03859 0.0
H1266 H 0.2805 0.03394 0.03769 0.0
H1267 H 0.16012 0.04626 0.99609 0.0
H1268 H 0.24317 0.08144 0.02961 0.0
H1269 H 0.20516 1.00654 0.98544 0.0
C1270 C 0.23378 0.99678 1.00063 0.0
C1271 C 0.2548 1.00397 0.01602 0.0
C1272 C 0.22505 0.07397 0.02181 0.0
C1273 C 0.23098 0.03576 0.00825 0.0
C1274 C 0.20945 0.08601 0.0269 0.0
C1275 C 0.18558 0.07587 0.01855 0.0
C1276 C 0.21661 0.05157 0.00849 0.0
C1277 C 0.17834 0.05472 0.00307 0.0
C1278 C 0.22184 0.01264 0.99664 0.0
C1279 C 0.26408 0.02754 0.02607 0.0
N1280 N 0.19371 0.04302 0.99897 0.0
N1281 N 0.25195 0.04252 0.02225 0.0
H1282 H 0.70309 0.68491 0.02245 0.0
H1283 H 0.62826 0.562 0.05077 0.0
H1284 H 0.7336 0.63501 0.04727 0.0
H1285 H 0.59825 0.61282 0.02735 0.0
H1286 H 0.66683 0.58712 0.04672 0.0
H1287 H 0.66438 0.65714 0.0208 0.0
C1288 C 0.70169 0.66804 0.02733 0.0
C1289 C 0.72168 0.6624 0.0352 0.0
C1290 C 0.65178 0.59271 0.04238 0.0
C1291 C 0.67732 0.63055 0.03355 0.0
C1292 C 0.62974 0.57838 0.04471 0.0
C1293 C 0.60996 0.58535 0.03955 0.0
C1294 C 0.65408 0.61418 0.03484 0.0
C1295 C 0.61298 0.60675 0.03167 0.0
C1296 C 0.67955 0.65219 0.02645 0.0
C1297 C 0.71872 0.6402 0.04122 0.0
N1298 N 0.6346 0.62041 0.02966 0.0
N1299 N 0.69697 0.62518 0.04044 0.0
H1300 H 0.70178 0.51209 0.26025 0.0
H1301 H 0.73349 0.40718 0.31074 0.0
H1302 H 0.67109 0.48184 0.31639 0.0
H1303 H 0.76022 0.43597 0.25222 0.0
H1304 H 0.71055 0.4341 0.31342 0.0
H1305 H 0.72349 0.48435 0.25761 0.0
C1306 C 0.69958 0.49959 0.27206 0.0
C1307 C 0.68456 0.49933 0.28859 0.0
C1308 C 0.72143 0.4345 0.29999 0.0
C1309 C 0.70955 0.46734 0.28565 0.0
C1310 C 0.73445 0.41904 0.29836 0.0
C1311 C 0.7489 0.41928 0.28124 0.0
C1312 C 0.72284 0.45036 0.28441 0.0
C1313 C 0.74966 0.43533 0.26592 0.0
C1314 C 0.71202 0.4837 0.27052 0.0
C1315 C 0.68246 0.48266 0.30338 0.0
N1316 N 0.73685 0.45017 0.26789 0.0
N1317 N 0.69485 0.46734 0.30159 0.0
H1318 H 0.87624 0.42918 0.48862 0.0
H1319 H 0.96703 0.5568 0.52218 0.0
H1320 H 0.85616 0.49115 0.50349 0.0
H1321 H 0.98247 0.49296 0.52926 0.0
H1322 H 0.92744 0.53376 0.5035 0.0
H1323 H 0.91623 0.45364 0.48932 0.0
C1324 C 0.88005 0.44792 0.49128 0.0
C1325 C 0.8631 0.4582 0.49688 0.0
C1326 C 0.93964 0.52489 0.50898 0.0
C1327 C 0.90868 0.4861 0.49804 0.0
C1328 C 0.96209 0.53797 0.51978 0.0
C1329 C 0.97781 0.52673 0.52771 0.0
C1330 C 0.93309 0.50049 0.50589 0.0
C1331 C 0.97072 0.50233 0.52389 0.0
C1332 C 0.90292 0.46186 0.49187 0.0
C1333 C 0.86893 0.48256 0.4998 0.0
N1334 N 0.94883 0.49002 0.51333 0.0
N1335 N 0.89144 0.49576 0.50091 0.0
H1336 H 0.36612 0.11951 0.34736 0.0
H1337 H 0.23718 0.11592 0.30329 0.0
H1338 H 0.31425 0.06284 0.30125 0.0
H1339 H 0.29101 0.17712 0.34056 0.0
H1340 H 0.26119 0.09211 0.31475 0.0
H1341 H 0.33549 0.13664 0.35595 0.0
C1342 C 0.34827 0.11054 0.33933 0.0
C1343 C 0.34276 0.09016 0.32306 0.0
C1344 C 0.26748 0.11069 0.32096 0.0
C1345 C 0.30779 0.10932 0.33295 0.0
C1346 C 0.25372 0.12425 0.31449 0.0
C1347 C 0.26242 0.14857 0.32036 0.0
C1348 C 0.29015 0.12163 0.33306 0.0
C1349 C 0.28371 0.15844 0.33534 0.0
C1350 C 0.3308 0.12024 0.34428 0.0
C1351 C 0.31935 0.07898 0.31339 0.0
N1352 N 0.29718 0.145 0.34064 0.0
N1353 N 0.30279 0.08885 0.31826 0.0
H1354 H 0.36469 0.17739 0.53058 0.0
H1355 H 0.39156 0.06763 0.57503 0.0
H1356 H 0.32427 0.13588 0.57498 0.0
H1357 H 0.44178 0.11851 0.54614 0.0
H1358 H 0.36526 0.09093 0.57219 0.0
H1359 H 0.3917 0.15435 0.53288 0.0
C1360 C 0.36148 0.16344 0.54076 0.0
C1361 C 0.34222 0.15859 0.55264 0.0
C1362 C 0.38206 0.09703 0.5665 0.0
C1363 C 0.37287 0.13217 0.55524 0.0
C1364 C 0.39719 0.08378 0.56826 0.0
C1365 C 0.41906 0.09108 0.56093 0.0
C1366 C 0.38865 0.11773 0.55717 0.0
C1367 C 0.42502 0.11197 0.55175 0.0
C1368 C 0.37691 0.15036 0.54212 0.0
C1369 C 0.33891 0.14033 0.5656 0.0
N1370 N 0.40991 0.12452 0.55011 0.0
N1371 N 0.35401 0.12778 0.56649 0.0
H1372 H 0.65557 0.63509 0.327 0.0
H1373 H 0.78418 0.71849 0.32394 0.0
H1374 H 0.7121 0.60867 0.31267 0.0
H1375 H 0.7221 0.739 0.31344 0.0
H1376 H 0.75981 0.67941 0.32779 0.0
H1377 H 0.68193 0.6747 0.33054 0.0
C1378 C 0.67359 0.63759 0.32486 0.0
C1379 C 0.68156 0.61849 0.31926 0.0
C1380 C 0.75162 0.69256 0.32477 0.0
C1381 C 0.7118 0.66385 0.32328 0.0
C1382 C 0.76548 0.71483 0.32264 0.0
C1383 C 0.7551 0.73189 0.31812 0.0
C1384 C 0.72732 0.68755 0.32274 0.0
C1385 C 0.7308 0.72627 0.3166 0.0
C1386 C 0.68859 0.66022 0.32679 0.0
C1387 C 0.70514 0.62287 0.31677 0.0
N1388 N 0.71775 0.70459 0.3189 0.0
N1389 N 0.71943 0.64512 0.31869 0.0
H1390 H 0.90383 0.47755 0.8173 0.0
H1391 H 0.79234 0.36897 0.82068 0.0
H1392 H 0.8342 0.48161 0.81869 0.0
H1393 H 0.85569 0.36167 0.79849 0.0
H1394 H 0.81013 0.41111 0.82773 0.0
H1395 H 0.88888 0.43562 0.81812 0.0
C1396 C 0.88549 0.46966 0.81802 0.0
C1397 C 0.87013 0.4829 0.81759 0.0
C1398 C 0.82016 0.40026 0.8214 0.0
C1399 C 0.8531 0.43538 0.81866 0.0
C1400 C 0.81002 0.37621 0.81736 0.0
C1401 C 0.82245 0.36181 0.80871 0.0
C1402 C 0.84289 0.40998 0.81682 0.0
C1403 C 0.84539 0.37216 0.80493 0.0
C1404 C 0.87698 0.44581 0.81841 0.0
C1405 C 0.84655 0.47194 0.81862 0.0
N1406 N 0.85487 0.39569 0.80892 0.0
N1407 N 0.83874 0.44878 0.81903 0.0
H1408 H 0.0764 0.86752 0.0471 0.0
H1409 H 0.06223 0.99231 0.08868 0.0
H1410 H 0.05885 0.88459 0.11447 0.0
H1411 H 0.04026 0.9589 0.01761 0.0
H1412 H 0.06752 0.95598 0.0989 0.0
H1413 H 0.06962 0.90315 0.03639 0.0
C1414 C 0.07113 0.87869 0.05971 0.0
C1415 C 0.0681 0.87264 0.08178 0.0
C1416 C 0.06156 0.95656 0.08106 0.0
C1417 C 0.06087 0.91434 0.06965 0.0
C1418 C 0.05861 0.97743 0.07513 0.0
C1419 C 0.05068 0.979 0.05215 0.0
C1420 C 0.0573 0.93692 0.06387 0.0
C1421 C 0.04626 0.95876 0.03555 0.0
C1422 C 0.06721 0.8991 0.05351 0.0
C1423 C 0.06127 0.88817 0.09722 0.0
N1424 N 0.04987 0.93887 0.04164 0.0
N1425 N 0.05821 0.90822 0.09101 0.0
H1426 H 0.94914 0.2513 0.88358 0.0
H1427 H 0.8351 0.29289 0.87205 0.0
H1428 H 0.9239 0.27999 0.94228 0.0
H1429 H 0.85824 0.26006 0.81423 0.0
H1430 H 0.86693 0.28784 0.89805 0.0
H1431 H 0.91563 0.25376 0.85821 0.0
C1432 C 0.9365 0.25799 0.89123 0.0
C1433 C 0.93953 0.26544 0.91525 0.0
C1434 C 0.86502 0.28168 0.87969 0.0
C1435 C 0.90086 0.2685 0.88597 0.0
C1436 C 0.84681 0.28457 0.86477 0.0
C1437 C 0.84388 0.27696 0.84077 0.0
C1438 C 0.88066 0.27117 0.87067 0.0
C1439 C 0.85969 0.26623 0.83253 0.0
C1440 C 0.91731 0.25942 0.87664 0.0
C1441 C 0.92241 0.27397 0.92394 0.0
N1442 N 0.87735 0.26376 0.84737 0.0
N1443 N 0.90396 0.27536 0.90935 0.0
H1444 H 0.54181 0.22665 0.61547 0.0
H1445 H 0.58474 0.13088 0.54126 0.0
H1446 H 0.594 0.24606 0.57127 0.0
H1447 H 0.53338 0.11503 0.58688 0.0
H1448 H 0.58806 0.17242 0.5505 0.0
H1449 H 0.53779 0.18581 0.60329 0.0
C1450 C 0.55232 0.2224 0.60294 0.0
C1451 C 0.56828 0.24025 0.59445 0.0
C1452 C 0.57607 0.15985 0.55849 0.0
C1453 C 0.5639 0.19248 0.58043 0.0
C1454 C 0.57418 0.13601 0.55326 0.0
C1455 C 0.5588 0.11905 0.56332 0.0
C1456 C 0.56246 0.1671 0.57392 0.0
C1457 C 0.54558 0.12715 0.57867 0.0
C1458 C 0.55005 0.19885 0.59603 0.0
C1459 C 0.5813 0.23314 0.57821 0.0
N1460 N 0.54773 0.15031 0.58341 0.0
N1461 N 0.57895 0.20996 0.5719 0.0
H1462 H 0.5397 0.78771 0.38913 0.0
H1463 H 0.67217 0.79161 0.38377 0.0
H1464 H 0.5847 0.77707 0.44581 0.0
H1465 H 0.62621 0.79876 0.32588 0.0
H1466 H 0.64009 0.7853 0.40636 0.0
H1467 H 0.57081 0.79092 0.36546 0.0
C1468 C 0.55605 0.78591 0.39661 0.0
C1469 C 0.5595 0.78215 0.41961 0.0
C1470 C 0.63699 0.78818 0.38869 0.0
C1471 C 0.59539 0.78597 0.39248 0.0
C1472 C 0.65531 0.79165 0.37569 0.0
C1473 C 0.65203 0.79576 0.35279 0.0
C1474 C 0.6151 0.78884 0.37885 0.0
C1475 C 0.62977 0.79601 0.34353 0.0
C1476 C 0.57385 0.78779 0.38305 0.0
C1477 C 0.58115 0.77999 0.42822 0.0
N1478 N 0.61224 0.79266 0.35657 0.0
N1479 N 0.59824 0.78202 0.41472 0.0
H1480 H 0.0422 0.29453 0.44728 0.0
H1481 H 0.05897 0.17145 0.46379 0.0
H1482 H 0.06475 0.25277 0.39573 0.0
H1483 H 0.02433 0.20726 0.50855 0.0
H1484 H 0.06383 0.20226 0.44008 0.0
H1485 H 0.03869 0.26426 0.47154 0.0
C1486 C 0.04655 0.27908 0.44107 0.0
C1487 C 0.05375 0.27627 0.41932 0.0
C1488 C 0.05517 0.20337 0.4551 0.0
C1489 C 0.04971 0.24138 0.44716 0.0
C1490 C 0.05224 0.18567 0.46862 0.0
C1491 C 0.04113 0.18656 0.4883 0.0
C1492 C 0.04709 0.2223 0.46127 0.0
C1493 C 0.03329 0.20584 0.49382 0.0
C1494 C 0.04445 0.26173 0.45494 0.0
C1495 C 0.05908 0.25575 0.41229 0.0
N1496 N 0.03642 0.22286 0.48042 0.0
N1497 N 0.05695 0.23914 0.42615 0.0
H1498 H 0.6126 0.29515 0.21953 0.0
H1499 H 0.70662 0.25293 0.29502 0.0
H1500 H 0.59249 0.24623 0.2663 0.0
H1501 H 0.72436 0.305 0.25094 0.0
H1502 H 0.66529 0.25006 0.28548 0.0
H1503 H 0.6534 0.29914 0.23187 0.0
C1504 C 0.61669 0.28537 0.23264 0.0
C1505 C 0.5987 0.27034 0.24184 0.0
C1506 C 0.67822 0.26211 0.27789 0.0
C1507 C 0.6463 0.27464 0.25601 0.0
C1508 C 0.70194 0.26373 0.28329 0.0
C1509 C 0.71935 0.27916 0.27373 0.0
C1510 C 0.67155 0.27598 0.26275 0.0
C1511 C 0.71185 0.29273 0.25873 0.0
C1512 C 0.6402 0.28763 0.23965 0.0
C1513 C 0.60555 0.2582 0.25879 0.0
N1514 N 0.68876 0.29078 0.25375 0.0
N1515 N 0.62867 0.26047 0.26515 0.0
H1516 H 0.57251 0.87775 0.95669 0.0
H1517 H 0.56076 1.00643 0.97342 0.0
H1518 H 0.56474 0.91366 0.89909 0.0
H1519 H 0.55279 0.96237 0.02592 0.0
H1520 H 0.56612 0.97479 0.94664 0.0
H1521 H 0.56943 0.91063 0.98277 0.0
C1522 C 0.57029 0.89259 0.94946 0.0
C1523 C 0.56885 0.89274 0.92549 0.0
C1524 C 0.56323 0.9721 0.96404 0.0
C1525 C 0.56526 0.93086 0.95565 0.0
C1526 C 0.56025 0.9902 0.9794 0.0
C1527 C 0.55625 0.98716 0.00207 0.0
C1528 C 0.56248 0.95082 0.9714 0.0
C1529 C 0.55572 0.96562 0.00868 0.0
C1530 C 0.56844 0.91141 0.96445 0.0
C1531 C 0.56592 0.91265 0.91737 0.0
N1532 N 0.55883 0.94842 0.99352 0.0
N1533 N 0.56423 0.93087 0.93238 0.0
H1534 H 0.97079 0.79859 0.74382 0.0
H1535 H 0.84926 0.7462 0.79176 0.0
H1536 H 0.95425 0.73409 0.77088 0.0
H1537 H 0.8765 0.81793 0.78304 0.0
H1538 H 0.88541 0.73984 0.78121 0.0
H1539 H 0.93481 0.80439 0.75495 0.0
C1540 C 0.95968 0.7856 0.75212 0.0
C1541 C 0.96599 0.76583 0.75641 0.0
C1542 C 0.88348 0.75698 0.78162 0.0
C1543 C 0.92388 0.77229 0.76908 0.0
C1544 C 0.86271 0.76064 0.78762 0.0
C1545 C 0.85948 0.78272 0.78849 0.0
C1546 C 0.90132 0.77539 0.77596 0.0
C1547 C 0.87789 0.80061 0.78284 0.0
C1548 C 0.939 0.78896 0.75852 0.0
C1549 C 0.95046 0.7497 0.76725 0.0
N1550 N 0.89767 0.79654 0.77678 0.0
N1551 N 0.93028 0.75319 0.77301 0.0
H1552 H 0.12142 0.03232 0.86995 0.0
H1553 H 0.02883 0.04578 0.95336 0.0
H1554 H 0.06535 0.06009 0.85235 0.0
H1555 H 0.09463 0.03721 0.97892 0.0
H1556 H 0.04002 0.04631 0.91496 0.0
H1557 H 0.10981 0.02907 0.90841 0.0
C1558 C 0.10651 0.03747 0.87404 0.0
C1559 C 0.09433 0.04649 0.85784 0.0
C1560 C 0.05205 0.04429 0.92891 0.0
C1561 C 0.08102 0.04285 0.90182 0.0
C1562 C 0.04565 0.04394 0.95093 0.0
C1563 C 0.06079 0.04145 0.96954 0.0
C1564 C 0.07373 0.04195 0.92517 0.0
C1565 C 0.08238 0.03918 0.96514 0.0
C1566 C 0.10001 0.03576 0.89606 0.0
C1567 C 0.07529 0.05307 0.86422 0.0
N1568 N 0.08819 0.03943 0.9434 0.0
N1569 N 0.06924 0.05109 0.88561 0.0
H1570 H 0.83938 0.36767 0.56581 0.0
H1571 H 0.84818 0.37331 0.69968 0.0
H1572 H 0.83367 0.42696 0.61032 0.0
H1573 H 0.87968 0.3312 0.65791 0.0
H1574 H 0.84517 0.395 0.66818 0.0
H1575 H 0.85514 0.35465 0.59963 0.0
C1576 C 0.84146 0.37795 0.58272 0.0
C1577 C 0.83493 0.39824 0.58535 0.0
C1578 C 0.85319 0.38133 0.66608 0.0
C1579 C 0.85303 0.38352 0.62405 0.0
C1580 C 0.85511 0.36901 0.68416 0.0
C1581 C 0.86381 0.35005 0.6813 0.0
C1582 C 0.85961 0.37438 0.64489 0.0
C1583 C 0.87222 0.34522 0.66061 0.0
C1584 C 0.85069 0.37065 0.60198 0.0
C1585 C 0.83833 0.41111 0.6076 0.0
N1586 N 0.86946 0.35699 0.64298 0.0
N1587 N 0.84687 0.40334 0.62618 0.0
H1588 H 0.49836 0.07077 0.36333 0.0
H1589 H 0.49249 0.07179 0.49776 0.0
H1590 H 0.443 0.08505 0.39654 0.0
H1591 H 0.5449 0.05291 0.46296 0.0
H1592 H 0.47731 0.08239 0.46216 0.0
H1593 H 0.51928 0.07098 0.40108 0.0
C1594 C 0.49078 0.07432 0.37863 0.0
C1595 C 0.46874 0.07749 0.37682 0.0
C1596 C 0.49221 0.07604 0.46234 0.0
C1597 C 0.49241 0.07739 0.42002 0.0
C1598 C 0.50082 0.06985 0.48265 0.0
C1599 C 0.51979 0.06109 0.48325 0.0
C1600 C 0.5026 0.07344 0.44249 0.0
C1601 C 0.53007 0.05932 0.46322 0.0
C1602 C 0.50269 0.07436 0.40017 0.0
C1603 C 0.45988 0.08233 0.39718 0.0
N1604 N 0.52124 0.06529 0.4436 0.0
N1605 N 0.47159 0.08177 0.41798 0.0
H1606 H 0.77261 0.77056 0.10874 0.0
H1607 H 0.81397 0.76079 0.23996 0.0
H1608 H 0.82143 0.73532 0.13017 0.0
H1609 H 0.76744 0.79993 0.22284 0.0
H1610 H 0.81732 0.75284 0.19943 0.0
H1611 H 0.77162 0.78374 0.14975 0.0
C1612 C 0.78345 0.76597 0.122 0.0
C1613 C 0.79703 0.75168 0.11593 0.0
C1614 C 0.80632 0.76317 0.20438 0.0
C1615 C 0.79569 0.76638 0.1628 0.0
C1616 C 0.80429 0.76766 0.22768 0.0
C1617 C 0.79023 0.78095 0.23501 0.0
C1618 C 0.79416 0.77186 0.18789 0.0
C1619 C 0.77838 0.78949 0.21804 0.0
C1620 C 0.78272 0.77335 0.1454 0.0
C1621 C 0.81054 0.74613 0.1339 0.0
N1622 N 0.78053 0.78473 0.19525 0.0
N1623 N 0.80939 0.75332 0.15635 0.0
H1624 H 0.06476 0.032 0.73076 0.0
H1625 H 0.08598 0.0876 0.61642 0.0
H1626 H 0.13355 0.06759 0.71717 0.0
H1627 H 0.03486 0.02032 0.61283 0.0
H1628 H 0.09879 0.08723 0.65735 0.0
H1629 H 0.04878 0.03374 0.69085 0.0
C1630 C 0.07644 0.04019 0.71944 0.0
C1631 C 0.10054 0.04943 0.7272 0.0
C1632 C 0.08461 0.07268 0.6476 0.0
C1633 C 0.08239 0.05214 0.68213 0.0
C1634 C 0.07722 0.07294 0.62432 0.0
C1635 C 0.05942 0.05392 0.61119 0.0
C1636 C 0.07374 0.05356 0.65797 0.0
C1637 C 0.04877 0.03528 0.62231 0.0
C1638 C 0.06735 0.04116 0.69676 0.0
C1639 C 0.11491 0.05996 0.71184 0.0
N1640 N 0.05602 0.03558 0.64509 0.0
N1641 N 0.10562 0.06121 0.69018 0.0
H1642 H 0.77223 0.32781 0.47535 0.0
H1643 H 0.76655 0.34317 0.34451 0.0
H1644 H 0.76029 0.38741 0.45014 0.0
H1645 H 0.77635 0.28324 0.37123 0.0
H1646 H 0.75499 0.35563 0.38113 0.0
H1647 H 0.76245 0.30656 0.43592 0.0
C1648 C 0.7667 0.33609 0.46151 0.0
C1649 C 0.76743 0.35943 0.46577 0.0
C1650 C 0.75937 0.33959 0.37885 0.0
C1651 C 0.7574 0.33578 0.42059 0.0
C1652 C 0.76617 0.33256 0.35801 0.0
C1653 C 0.77305 0.31245 0.35503 0.0
C1654 C 0.75956 0.32647 0.39682 0.0
C1655 C 0.77174 0.29915 0.37293 0.0
C1656 C 0.76133 0.32407 0.43896 0.0
C1657 C 0.76006 0.36943 0.44741 0.0
N1658 N 0.76543 0.30655 0.39314 0.0
N1659 N 0.75602 0.35776 0.42541 0.0
H1660 H 0.46928 0.09958 0.26811 0.0
H1661 H 0.45447 0.00808 0.15768 0.0
H1662 H 0.40193 0.05759 0.2307 0.0
H1663 H 0.51862 0.06422 0.18225 0.0
H1664 H 0.43434 0.02833 0.18218 0.0
H1665 H 0.48709 0.09094 0.23436 0.0
C1666 C 0.45815 0.08918 0.25248 0.0
C1667 C 0.43419 0.07892 0.25228 0.0
C1668 C 0.45277 0.03635 0.18203 0.0
C1669 C 0.45447 0.06825 0.214 0.0
C1670 C 0.46431 0.02474 0.1681 0.0
C1671 C 0.48837 0.03426 0.16818 0.0
C1672 C 0.46541 0.05751 0.19639 0.0
C1673 C 0.50021 0.05587 0.18215 0.0
C1674 C 0.46833 0.08411 0.23326 0.0
C1675 C 0.42051 0.0657 0.23161 0.0
N1676 N 0.48866 0.06663 0.19589 0.0
N1677 N 0.43095 0.06017 0.21346 0.0
H1678 H 0.75775 0.75785 0.97803 0.0
H1679 H 0.83795 0.78984 0.8814 0.0
H1680 H 0.82512 0.74718 0.98403 0.0
H1681 H 0.76307 0.76028 0.8658 0.0
H1682 H 0.83605 0.78126 0.92112 0.0
H1683 H 0.762 0.76671 0.9391 0.0
C1684 C 0.77359 0.75763 0.97129 0.0
C1685 C 0.7911 0.75172 0.98439 0.0
C1686 C 0.82012 0.7766 0.90888 0.0
C1687 C 0.7961 0.76203 0.93967 0.0
C1688 C 0.82117 0.7815 0.88626 0.0
C1689 C 0.80065 0.77572 0.87017 0.0
C1690 C 0.79837 0.76647 0.9156 0.0
C1691 C 0.77937 0.76495 0.87748 0.0
C1692 C 0.77591 0.76254 0.94898 0.0
C1693 C 0.81117 0.75159 0.97455 0.0
N1694 N 0.77878 0.76095 0.89964 0.0
N1695 N 0.8132 0.75679 0.95281 0.0
H1696 H 0.82634 0.0689 0.07007 0.0
H1697 H 0.90506 0.06708 0.97175 0.0
H1698 H 0.84605 0.12498 0.0307 0.0
H1699 H 0.87722 0.00925 0.00709 0.0
H1700 H 0.87907 0.08646 0.98831 0.0
H1701 H 0.84095 0.04508 0.04322 0.0
C1702 C 0.83379 0.07621 0.05574 0.0
C1703 C 0.83537 0.09908 0.05282 0.0
C1704 C 0.87832 0.06928 0.99197 0.0
C1705 C 0.8522 0.07184 0.02187 0.0
C1706 C 0.89316 0.05821 0.98253 0.0
C1707 C 0.89378 0.03671 0.98842 0.0
C1708 C 0.86413 0.05877 0.00743 0.0
C1709 C 0.87754 0.02579 1.002 0.0
C1710 C 0.84197 0.06252 0.04026 0.0
C1711 C 0.84475 0.10749 0.03368 0.0
N1712 N 0.86373 0.03713 0.01136 0.0
N1713 N 0.85315 0.09396 0.01907 0.0
H1714 H 0.35708 0.46295 0.0787 0.0
H1715 H 0.48054 0.47191 0.03834 0.0
H1716 H 0.3773 0.40374 0.05186 0.0
H1717 H 0.46471 0.53137 0.07187 0.0
H1718 H 0.44233 0.44701 0.04282 0.0
H1719 H 0.39603 0.48854 0.07631 0.0
C1720 C 0.36971 0.4553 0.07241 0.0
C1721 C 0.36384 0.43113 0.06541 0.0
C1722 C 0.44716 0.46549 0.04923 0.0
C1723 C 0.40837 0.46034 0.06252 0.0
C1724 C 0.469 0.47979 0.0466 0.0
C1725 C 0.47586 0.50385 0.05465 0.0
C1726 C 0.43188 0.47523 0.05992 0.0
C1727 C 0.46016 0.51294 0.06538 0.0
C1728 C 0.39194 0.46994 0.07105 0.0
C1729 C 0.38095 0.42224 0.05743 0.0
N1730 N 0.43885 0.49862 0.06764 0.0
N1731 N 0.40235 0.43683 0.05613 0.0
H1732 H 0.38837 0.5857 0.75088 0.0
H1733 H 0.35287 0.67248 0.84248 0.0
H1734 H 0.42334 0.60766 0.82146 0.0
H1735 H 0.32915 0.66036 0.76896 0.0
H1736 H 0.37714 0.64718 0.83597 0.0
H1737 H 0.36516 0.61159 0.75795 0.0
C1738 C 0.39123 0.59603 0.76789 0.0
C1739 C 0.40785 0.59449 0.78561 0.0
C1740 C 0.36665 0.6501 0.82128 0.0
C1741 C 0.38109 0.62419 0.7939 0.0
C1742 C 0.35267 0.66439 0.82499 0.0
C1743 C 0.33897 0.66855 0.80623 0.0
C1744 C 0.36675 0.63972 0.79866 0.0
C1745 C 0.33961 0.65785 0.78391 0.0
C1746 C 0.37796 0.61086 0.77191 0.0
C1747 C 0.41077 0.60836 0.80728 0.0
N1748 N 0.35319 0.6439 0.78078 0.0
N1749 N 0.39742 0.62255 0.81086 0.0
H1750 H 0.23454 0.67144 0.58996 0.0
H1751 H 0.12398 0.57071 0.52562 0.0
H1752 H 0.2415 0.60907 0.55223 0.0
H1753 H 0.12372 0.60579 0.59379 0.0
H1754 H 0.16638 0.58871 0.53058 0.0
H1755 H 0.19253 0.65174 0.58708 0.0
C1756 C 0.22718 0.65365 0.58103 0.0
C1757 C 0.24136 0.64179 0.5713 0.0
C1758 C 0.15698 0.5923 0.54446 0.0
C1759 C 0.19373 0.61952 0.56773 0.0
C1760 C 0.1329 0.58217 0.54163 0.0
C1761 C 0.12052 0.58683 0.55937 0.0
C1762 C 0.16852 0.60763 0.56487 0.0
C1763 C 0.13277 0.60171 0.57981 0.0
C1764 C 0.20336 0.64243 0.57955 0.0
C1765 C 0.23111 0.61873 0.56004 0.0
N1766 N 0.15619 0.61189 0.58192 0.0
N1767 N 0.20778 0.60838 0.5583 0.0
H1768 H 0.70133 0.97926 0.80806 0.0
H1769 H 0.82908 0.96924 0.83814 0.0
H1770 H 0.75925 0.00843 0.77288 0.0
H1771 H 0.76695 0.91772 0.8498 0.0
H1772 H 0.80498 0.99223 0.82462 0.0
H1773 H 0.72678 0.96422 0.83292 0.0
C1774 C 0.71939 0.98257 0.80566 0.0
C1775 C 0.72816 0.9947 0.78817 0.0
C1776 C 0.79675 0.97608 0.83056 0.0
C1777 C 0.75724 0.97827 0.81672 0.0
C1778 C 0.81045 0.96295 0.83825 0.0
C1779 C 0.79998 0.94125 0.8446 0.0
C1780 C 0.77245 0.9675 0.82936 0.0
C1781 C 0.77582 0.9343 0.84503 0.0
C1782 C 0.73385 0.9741 0.81985 0.0
C1783 C 0.7517 0.99877 0.78588 0.0
N1784 N 0.7628 0.94723 0.83714 0.0
N1785 N 0.76542 0.99055 0.79997 0.0
H1786 H 0.74306 0.92223 0.53138 0.0
H1787 H 0.68098 0.01306 0.58069 0.0
H1788 H 0.7602 0.95966 0.60135 0.0
H1789 H 0.6776 0.99107 0.5076 0.0
H1790 H 0.70703 0.99025 0.58887 0.0
H1791 H 0.71587 0.94399 0.52257 0.0
C1792 C 0.74102 0.93492 0.5449 0.0
C1793 C 0.75394 0.93918 0.56712 0.0
C1794 C 0.70064 0.99043 0.57102 0.0
C1795 C 0.72294 0.964 0.5572 0.0
C1796 C 0.68569 1.00336 0.56636 0.0
C1797 C 0.67713 1.00396 0.54343 0.0
C1798 C 0.70696 0.97778 0.55265 0.0
C1799 C 0.684 0.99125 0.52552 0.0
C1800 C 0.72561 0.94739 0.53983 0.0
C1801 C 0.75068 0.95586 0.58396 0.0
N1802 N 0.69844 0.97858 0.5305 0.0
N1803 N 0.73549 0.9676 0.57867 0.0
H1804 H 0.44076 0.46006 0.7839 0.0
H1805 H 0.31081 0.38462 0.79336 0.0
H1806 H 0.38291 0.48771 0.78024 0.0
H1807 H 0.36598 0.35506 0.7823 0.0
H1808 H 0.33714 0.42293 0.79031 0.0
H1809 H 0.41374 0.4217 0.78506 0.0
C1810 C 0.42237 0.45807 0.78329 0.0
C1811 C 0.41411 0.47715 0.78198 0.0
C1812 C 0.3434 0.408 0.78846 0.0
C1813 C 0.38307 0.43326 0.78343 0.0
C1814 C 0.32841 0.38615 0.79025 0.0
C1815 C 0.33619 0.36657 0.7881 0.0
C1816 C 0.36637 0.41031 0.78471 0.0
C1817 C 0.35917 0.3696 0.78403 0.0
C1818 C 0.40694 0.43614 0.7839 0.0
C1819 C 0.39007 0.47349 0.7812 0.0
N1820 N 0.37345 0.39104 0.78258 0.0
N1821 N 0.37541 0.45199 0.78205 0.0
H1822 H 0.23657 0.60794 0.28299 0.0
H1823 H 0.22999 0.72419 0.24457 0.0
H1824 H 0.17168 0.61137 0.24815 0.0
H1825 H 0.2662 0.72517 0.31207 0.0
H1826 H 0.21179 0.68201 0.24123 0.0
H1827 H 0.25164 0.65061 0.28973 0.0
C1828 C 0.22554 0.61771 0.27676 0.0
C1829 C 0.20292 0.60628 0.26495 0.0
C1830 C 0.22359 0.69156 0.25681 0.0
C1831 C 0.22008 0.65465 0.27228 0.0
C1832 C 0.23404 0.71548 0.25867 0.0
C1833 C 0.2496 0.72798 0.27859 0.0
C1834 C 0.22931 0.68011 0.2747 0.0
C1835 C 0.25422 0.71604 0.29648 0.0
C1836 C 0.23407 0.64194 0.28075 0.0
C1837 C 0.18921 0.61964 0.25736 0.0
N1838 N 0.24436 0.69259 0.29397 0.0
N1839 N 0.19815 0.64322 0.26086 0.0
H1840 H 0.56329 0.73304 0.52567 0.0
H1841 H 0.50039 0.59535 0.52383 0.0
H1842 H 0.49224 0.69783 0.49358 0.0
H1843 H 0.57345 0.63048 0.54815 0.0
H1844 H 0.49608 0.63242 0.51468 0.0
H1845 H 0.56622 0.69612 0.53605 0.0
C1846 C 0.54817 0.71764 0.52092 0.0
C1847 C 0.52743 0.71896 0.50869 0.0
C1848 C 0.51305 0.63205 0.52207 0.0
C1849 C 0.53077 0.6758 0.52065 0.0
C1850 C 0.51555 0.61076 0.52739 0.0
C1851 C 0.53738 0.60937 0.53688 0.0
C1852 C 0.53245 0.65249 0.52633 0.0
C1853 C 0.55623 0.63031 0.5409 0.0
C1854 C 0.54991 0.69637 0.52683 0.0
C1855 C 0.5086 0.69799 0.50304 0.0
N1856 N 0.55333 0.6507 0.53569 0.0
N1857 N 0.51072 0.6775 0.509 0.0
H1858 H 0.67156 0.3249 0.64705 0.0
H1859 H 0.71602 0.30027 0.77213 0.0
H1860 H 0.63288 0.32059 0.70442 0.0
H1861 H 0.76113 0.31239 0.7202 0.0
H1862 H 0.68595 0.30828 0.74684 0.0
H1863 H 0.70507 0.32174 0.6727 0.0
C1864 C 0.67018 0.32372 0.66505 0.0
C1865 C 0.64915 0.32295 0.67342 0.0
C1866 C 0.7024 0.3093 0.74086 0.0
C1867 C 0.6874 0.31892 0.70284 0.0
C1868 C 0.7197 0.30462 0.75538 0.0
C1869 C 0.74132 0.30552 0.74842 0.0
C1870 C 0.70635 0.31482 0.71887 0.0
C1871 C 0.7448 0.31145 0.7264 0.0
C1872 C 0.6893 0.32175 0.67967 0.0
C1873 C 0.64851 0.32114 0.69695 0.0
N1874 N 0.7275 0.31573 0.71238 0.0
N1875 N 0.66711 0.31904 0.71061 0.0
H1876 H 0.04206 0.35641 0.98256 0.0
H1877 H 0.99259 0.45915 0.03197 0.0
H1878 H 0.98233 0.34433 0.01814 0.0
H1879 H 0.06094 0.47258 0.01204 0.0
H1880 H 0.9873 0.41718 0.02461 0.0
H1881 H 0.04822 0.39855 0.99103 0.0
C1882 C 0.0303 0.36253 0.9923 0.0
C1883 C 1.01169 0.34644 0.99972 0.0
C1884 C 1.00347 0.42928 0.02181 0.0
C1885 C 0.01845 0.39525 0.00917 0.0
C1886 C 1.00649 0.45339 0.02593 0.0
C1887 C 0.02727 0.46983 0.02263 0.0
C1888 C 0.0212 0.42111 0.01399 0.0
C1889 C 0.04459 0.46086 0.01488 0.0
C1890 C 0.03383 0.38672 0.99711 0.0
C1891 C 0.99703 0.3558 0.01215 0.0
N1892 N 0.04113 0.43734 0.01076 0.0
N1893 N 1.00061 0.37933 0.0163 0.0
H1894 H 0.01888 0.76871 0.19413 0.0
H1895 H 0.91887 0.81874 0.23501 0.0
H1896 H 0.99897 0.82215 0.16349 0.0
H1897 H 0.93746 0.7626 0.26154 0.0
H1898 H 0.9479 0.82075 0.20889 0.0
H1899 H 0.98931 0.76697 0.21919 0.0
C1900 C 1.00827 0.78012 0.19264 0.0
C1901 C 1.01148 0.79562 0.17661 0.0
C1902 C 0.94561 0.808 0.22044 0.0
C1903 C 0.97732 0.7937 0.20552 0.0
C1904 C 0.92893 0.80674 0.2353 0.0
C1905 C 0.92565 0.7905 0.25066 0.0
C1906 C 0.95919 0.79292 0.22085 0.0
C1907 C 0.93953 0.77568 0.25038 0.0
C1908 C 0.99132 0.7791 0.20701 0.0
C1909 C 0.99712 0.80993 0.17556 0.0
N1910 N 0.95561 0.77726 0.23579 0.0
N1911 N 0.98069 0.80865 0.18984 0.0
H1912 H 0.51766 0.32886 0.1751 0.0
H1913 H 0.555 0.38099 0.06149 0.0
H1914 H 0.55459 0.29987 0.12718 0.0
H1915 H 0.53335 0.41951 0.11656 0.0
H1916 H 0.5507 0.34907 0.08357 0.0
H1917 H 0.51894 0.36012 0.15208 0.0
C1918 C 0.52591 0.32898 0.1597 0.0
C1919 C 0.53611 0.31175 0.15313 0.0
C1920 C 0.54685 0.36449 0.09084 0.0
C1921 C 0.53754 0.34734 0.1267 0.0
C1922 C 0.54943 0.38284 0.07826 0.0
C1923 C 0.54479 0.40322 0.08719 0.0
C1924 C 0.53941 0.36628 0.11254 0.0
C1925 C 0.53698 0.40415 0.10882 0.0
C1926 C 0.5267 0.34686 0.14662 0.0
C1927 C 0.5466 0.31281 0.13302 0.0
N1928 N 0.53461 0.38601 0.12077 0.0
N1929 N 0.54702 0.33024 0.12057 0.0
H1930 H 0.99159 0.35297 0.35025 0.0
H1931 H 0.86341 0.26392 0.30109 0.0
H1932 H 0.98036 0.28144 0.3211 0.0
H1933 H 0.87771 0.33805 0.31934 0.0
H1934 H 0.90541 0.26951 0.30841 0.0
H1935 H 0.95024 0.34761 0.33862 0.0
C1936 C 0.98053 0.33617 0.34098 0.0
C1937 C 0.98987 0.31774 0.33651 0.0
C1938 C 0.89942 0.28459 0.31079 0.0
C1939 C 0.9415 0.31118 0.32358 0.0
C1940 C 0.87528 0.28142 0.3067 0.0
C1941 C 0.86659 0.30052 0.30966 0.0
C1942 C 0.91542 0.30705 0.31813 0.0
C1943 C 0.88325 0.32271 0.31682 0.0
C1944 C 0.95672 0.33309 0.33444 0.0
C1945 C 0.97426 0.29633 0.32464 0.0
N1946 N 0.90661 0.32529 0.32088 0.0
N1947 N 0.95095 0.29359 0.31886 0.0
H1948 H 1.01101 0.68069 0.69443 0.0
H1949 H 0.0441 0.63956 0.57137 0.0
H1950 H 0.02598 0.72397 0.64177 0.0
H1951 H 0.0224 0.59236 0.61948 0.0
H1952 H 0.03668 0.67026 0.59714 0.0
H1953 H 1.0135 0.64765 0.66737 0.0
C1954 C 0.01444 0.68321 0.67713 0.0
C1955 C 0.01838 0.70531 0.67053 0.0
C1956 C 0.03344 0.65319 0.60209 0.0
C1957 C 0.02163 0.66758 0.63953 0.0
C1958 C 0.03775 0.63559 0.58734 0.0
C1959 C 0.03397 0.61324 0.59317 0.0
C1960 C 0.02539 0.64866 0.62307 0.0
C1961 C 0.02561 0.60929 0.61418 0.0
C1962 C 0.01601 0.66434 0.66171 0.0
C1963 C 0.02294 0.70741 0.64784 0.0
N1964 N 0.02172 0.6268 0.62838 0.0
N1965 N 0.02459 0.68897 0.63336 0.0
H1966 H 0.61243 0.81735 0.81521 0.0
H1967 H 0.74927 0.83352 0.85232 0.0
H1968 H 0.64806 0.83602 0.8855 0.0
H1969 H 0.71149 0.79349 0.78678 0.0
H1970 H 0.71307 0.83911 0.86253 0.0
H1971 H 0.64867 0.81293 0.8024 0.0
C1972 C 0.62779 0.82073 0.82795 0.0
C1973 C 0.62682 0.82705 0.8516 0.0
C1974 C 0.7126 0.82915 0.84585 0.0
C1975 C 0.66876 0.82218 0.83692 0.0
C1976 C 0.73345 0.82598 0.83991 0.0
C1977 C 0.73381 0.81291 0.81857 0.0
C1978 C 0.69152 0.81951 0.83033 0.0
C1979 C 0.71233 0.80365 0.80345 0.0
C1980 C 0.64851 0.81807 0.82062 0.0
C1981 C 0.64756 0.831 0.86714 0.0
N1982 N 0.69225 0.80715 0.80954 0.0
N1983 N 0.66737 0.82863 0.85959 0.0
H1984 H 0.52677 0.55954 0.73898 0.0
H1985 H 0.49143 0.53222 0.60245 0.0
H1986 H 0.45781 0.55227 0.70486 0.0
H1987 H 0.56166 0.57267 0.63358 0.0
H1988 H 0.47927 0.53503 0.64062 0.0
H1989 H 0.54066 0.56061 0.70126 0.0
C1990 C 0.51461 0.55834 0.72366 0.0
C1991 C 0.49107 0.55581 0.72516 0.0
C1992 C 0.49733 0.54339 0.6391 0.0
C1993 C 0.50674 0.55655 0.68206 0.0
C1994 C 0.5043 0.54171 0.61733 0.0
C1995 C 0.52758 0.55227 0.6148 0.0
C1996 C 0.51382 0.55527 0.65868 0.0
C1997 C 0.5435 0.56441 0.63474 0.0
C1998 C 0.52255 0.55899 0.70219 0.0
C1999 C 0.47611 0.55432 0.70467 0.0
N2000 N 0.53638 0.56539 0.65591 0.0
N2001 N 0.48411 0.55443 0.68403 0.0
H2002 H 0.79043 0.22948 0.04598 0.0
H2003 H 0.79455 0.23426 0.91184 0.0
H2004 H 0.81563 0.18267 0.00256 0.0
H2005 H 0.7534 0.26575 0.95245 0.0
H2006 H 0.80714 0.21903 0.94569 0.0
H2007 H 0.78255 0.24758 0.01281 0.0
C2008 C 0.79451 0.22312 0.02948 0.0
C2009 C 0.80347 0.20436 0.02695 0.0
C2010 C 0.79537 0.22928 0.94714 0.0
C2011 C 0.79431 0.22498 0.98883 0.0
C2012 C 0.788 0.23783 0.92781 0.0
C2013 C 0.77271 0.25116 0.92925 0.0
C2014 C 0.78755 0.23427 0.9681 0.0
C2015 C 0.76534 0.25575 0.95056 0.0
C2016 C 0.78991 0.23343 0.01052 0.0
C2017 C 0.8086 0.19702 0.0052 0.0
N2018 N 0.77282 0.2473 0.96914 0.0
N2019 N 0.80379 0.20728 0.98687 0.0
H2020 H 0.17103 0.51839 0.17112 0.0
H2021 H 0.04371 0.50425 0.10749 0.0
H2022 H 0.10808 0.48977 0.19957 0.0
H2023 H 0.10804 0.54738 0.09024 0.0
H2024 H 0.06644 0.49021 0.13597 0.0
H2025 H 0.14726 0.51838 0.13497 0.0
C2026 C 0.15223 0.51144 0.16956 0.0
C2027 C 0.14149 0.50473 0.1886 0.0
C2028 C 0.0755 0.50262 0.12578 0.0
C2029 C 0.1143 0.50515 0.14756 0.0
C2030 C 0.06257 0.51078 0.10969 0.0
C2031 C 0.07398 0.52729 0.09674 0.0
C2032 C 0.09997 0.51092 0.12875 0.0
C2033 C 0.09846 0.53489 0.10004 0.0
C2034 C 0.13867 0.51167 0.14899 0.0
C2035 C 0.11706 0.49566 0.18548 0.0
N2036 N 0.11061 0.5267 0.11577 0.0
N2037 N 0.10424 0.49659 0.1655 0.0
H2038 H 0.79283 0.81048 0.50118 0.0
H2039 H 0.82696 0.84647 0.38376 0.0
H2040 H 0.79995 0.88069 0.48996 0.0
H2041 H 0.76697 0.78635 0.38135 0.0
H2042 H 0.82625 0.85733 0.42534 0.0
H2043 H 0.79134 0.79889 0.45931 0.0
C2044 C 0.79385 0.82337 0.48988 0.0
C2045 C 0.79621 0.8465 0.49897 0.0
C2046 C 0.81336 0.84172 0.41563 0.0
C2047 C 0.79561 0.83363 0.45151 0.0
C2048 C 0.81385 0.83544 0.39205 0.0
C2049 C 0.797 0.8155 0.37917 0.0
C2050 C 0.7964 0.82754 0.42651 0.0
C2051 C 0.78022 0.8019 0.39069 0.0
C2052 C 0.79305 0.81677 0.46609 0.0
C2053 C 0.79775 0.8626 0.4836 0.0
N2054 N 0.7805 0.808 0.41378 0.0
N2055 N 0.79783 0.85597 0.46067 0.0
H2056 H 0.4835 0.57105 0.86729 0.0
H2057 H 0.55165 0.52417 0.9653 0.0
H2058 H 0.52696 0.52801 0.85265 0.0
H2059 H 0.50672 0.56578 0.97948 0.0
H2060 H 0.54438 0.5269 0.92422 0.0
H2061 H 0.49387 0.57143 0.90868 0.0
C2062 C 0.49545 0.56193 0.87276 0.0
C2063 C 0.50431 0.54945 0.85638 0.0
C2064 C 0.53613 0.53545 0.93634 0.0
C2065 C 0.51606 0.54954 0.90387 0.0
C2066 C 0.54024 0.53384 0.95983 0.0
C2067 C 0.52971 0.54464 0.97598 0.0
C2068 C 0.5214 0.54797 0.92883 0.0
C2069 C 0.51517 0.55705 0.96775 0.0
C2070 C 0.50129 0.56203 0.89642 0.0
C2071 C 0.51966 0.53786 0.86459 0.0
N2072 N 0.51144 0.55834 0.94483 0.0
N2073 N 0.52493 0.53807 0.88768 0.0
H2074 H 0.85019 0.22771 0.13011 0.0
H2075 H 0.80169 0.22807 0.24727 0.0
H2076 H 0.83773 0.16963 0.16742 0.0
H2077 H 0.83096 0.29157 0.22064 0.0
H2078 H 0.81951 0.20781 0.22039 0.0
H2079 H 0.8501 0.25317 0.16542 0.0
C2080 C 0.8482 0.22045 0.14593 0.0
C2081 C 0.84318 0.19638 0.14569 0.0
C2082 C 0.82224 0.22621 0.22044 0.0
C2083 C 0.84252 0.22527 0.1859 0.0
C2084 C 0.81176 0.23774 0.23559 0.0
C2085 C 0.81433 0.2614 0.2357 0.0
C2086 C 0.83504 0.23825 0.20488 0.0
C2087 C 0.82822 0.2732 0.22074 0.0
C2088 C 0.84804 0.235 0.16607 0.0
C2089 C 0.84118 0.18799 0.16671 0.0
N2090 N 0.83774 0.26138 0.20558 0.0
N2091 N 0.84019 0.20232 0.18586 0.0
H2092 H 0.15626 0.52748 0.33525 0.0
H2093 H 0.05 0.55603 0.38786 0.0
H2094 H 0.09332 0.52812 0.29394 0.0
H2095 H 0.11704 0.56595 0.42801 0.0
H2096 H 0.06342 0.54013 0.35383 0.0
H2097 H 0.13935 0.53456 0.37023 0.0
C2098 C 0.13871 0.52862 0.33354 0.0
C2099 C 0.12628 0.52757 0.31175 0.0
C2100 C 0.07515 0.54571 0.37012 0.0
C2101 C 0.10704 0.53597 0.35149 0.0
C2102 C 0.06758 0.555 0.38948 0.0
C2103 C 0.08248 0.5625 0.41074 0.0
C2104 C 0.09779 0.54393 0.37205 0.0
C2105 C 0.10491 0.56024 0.41198 0.0
C2106 C 0.12915 0.53285 0.35348 0.0
C2107 C 0.10362 0.52916 0.31046 0.0
N2108 N 0.11192 0.55124 0.39287 0.0
N2109 N 0.09482 0.53353 0.33008 0.0
H2110 H 0.7951 0.826 0.61867 0.0
H2111 H 0.79482 0.8578 0.75497 0.0
H2112 H 0.78978 0.89143 0.65094 0.0
H2113 H 0.78811 0.78881 0.72062 0.0
H2114 H 0.79388 0.87081 0.71719 0.0
H2115 H 0.79316 0.81221 0.65598 0.0
C2116 C 0.79335 0.83741 0.6335 0.0
C2117 C 0.79263 0.85994 0.63154 0.0
C2118 C 0.79252 0.8528 0.71795 0.0
C2119 C 0.79067 0.84434 0.67449 0.0
C2120 C 0.79309 0.84537 0.73954 0.0
C2121 C 0.79154 0.82215 0.74109 0.0
C2122 C 0.79058 0.83697 0.69773 0.0
C2123 C 0.78933 0.80686 0.7204 0.0
C2124 C 0.79228 0.82954 0.65485 0.0
C2125 C 0.7904 0.87393 0.6515 0.0
N2126 N 0.78902 0.81455 0.69969 0.0
N2127 N 0.78966 0.86598 0.67208 0.0
H2128 H 0.79447 0.5029 0.57375 0.0
H2129 H 0.66151 0.49679 0.57327 0.0
H2130 H 0.73636 0.44203 0.54347 0.0
H2131 H 0.71832 0.56131 0.58456 0.0
H2132 H 0.68934 0.47529 0.56922 0.0
H2133 H 0.76716 0.52331 0.58432 0.0
C2134 C 0.77595 0.49379 0.5694 0.0
C2135 C 0.76761 0.47079 0.55756 0.0
C2136 C 0.69572 0.49414 0.57271 0.0
C2137 C 0.73638 0.49402 0.56973 0.0
C2138 C 0.67988 0.50642 0.57498 0.0
C2139 C 0.68763 0.53087 0.57884 0.0
C2140 C 0.71948 0.5064 0.57445 0.0
C2141 C 0.71164 0.54248 0.58157 0.0
C2142 C 0.7604 0.50547 0.57544 0.0
C2143 C 0.74348 0.45982 0.55243 0.0
N2144 N 0.72675 0.53011 0.57913 0.0
N2145 N 0.72866 0.47158 0.55853 0.0
H2146 H 0.20614 0.18447 0.51315 0.0
H2147 H 0.12773 0.06329 0.54135 0.0
H2148 H 0.2344 0.13313 0.53815 0.0
H2149 H 0.09976 0.11415 0.51482 0.0
H2150 H 0.16683 0.08724 0.53751 0.0
H2151 H 0.16691 0.15743 0.51055 0.0
C2152 C 0.20413 0.16744 0.51789 0.0
C2153 C 0.22362 0.16117 0.5261 0.0
C2154 C 0.15211 0.09308 0.5324 0.0
C2155 C 0.1787 0.13017 0.52333 0.0
C2156 C 0.12977 0.07941 0.53461 0.0
C2157 C 0.11044 0.0868 0.52859 0.0
C2158 C 0.15513 0.1143 0.52416 0.0
C2159 C 0.11415 0.10781 0.51984 0.0
C2160 C 0.1817 0.15201 0.51644 0.0
C2161 C 0.2199 0.1388 0.53188 0.0
N2162 N 0.13605 0.12087 0.51802 0.0
N2163 N 0.19788 0.12419 0.53057 0.0
H2164 H 0.16761 0.98377 0.80788 0.0
H2165 H 0.25951 0.93697 0.74497 0.0
H2166 H 0.20338 0.01507 0.75483 0.0
H2167 H 0.23233 0.91111 0.80458 0.0
H2168 H 0.23679 0.96392 0.74689 0.0
H2169 H 0.1888 0.95511 0.80545 0.0
C2170 C 0.17985 0.98459 0.7957 0.0
C2171 C 0.18377 1.0019 0.78159 0.0
C2172 C 0.23576 0.95235 0.75957 0.0
C2173 C 0.20797 0.9692 0.77867 0.0
C2174 C 0.24886 0.93701 0.75856 0.0
C2175 C 0.24802 0.92179 0.77473 0.0
C2176 C 0.22157 0.95254 0.77685 0.0
C2177 C 0.2334 0.92234 0.7916 0.0
C2178 C 0.19196 0.96826 0.79434 0.0
C2179 C 0.19983 1.00212 0.76612 0.0
N2180 N 0.22081 0.93749 0.79226 0.0
N2181 N 0.21129 0.98606 0.76509 0.0
H2182 H 0.35571 0.92605 0.0336 0.0
H2183 H 0.46553 0.0193 1.00058 0.0
H2184 H 0.35053 0.98277 0.99833 0.0
H2185 H 0.46946 0.98445 0.0597 0.0
H2186 H 0.4237 0.99838 0.99154 0.0
H2187 H 0.39817 0.93971 0.03477 0.0
C2188 C 0.36348 0.94108 0.02571 0.0
C2189 C 0.3498 0.95356 0.01615 0.0
C2190 C 0.43382 0.99525 0.00638 0.0
C2191 C 0.39787 0.96902 0.01731 0.0
C2192 C 0.45762 0.00714 0.01156 0.0
C2193 C 0.47082 1.00385 0.03114 0.0
C2194 C 0.42332 0.97975 0.0207 0.0
C2195 C 0.45978 0.98781 0.04471 0.0
C2196 C 0.38761 0.9489 0.0265 0.0
C2197 C 0.3606 0.97291 0.00617 0.0
N2198 N 0.43659 0.97635 0.03926 0.0
N2199 N 0.38407 0.98015 0.0071 0.0
H2200 H 0.79719 0.55323 0.79223 0.0
H2201 H 0.78434 0.6742 0.84122 0.0
H2202 H 0.84983 0.60689 0.84085 0.0
H2203 H 0.7324 0.62141 0.79114 0.0
H2204 H 0.80315 0.6455 0.84985 0.0
H2205 H 0.76913 0.5737 0.79941 0.0
C2206 C 0.80281 0.56927 0.80457 0.0
C2207 C 0.82603 0.57875 0.81551 0.0
C2208 C 0.78733 0.64002 0.83736 0.0
C2209 C 0.79397 0.60228 0.82378 0.0
C2210 C 0.77638 0.65638 0.83256 0.0
C2211 C 0.75707 0.65033 0.81495 0.0
C2212 C 0.77909 0.61758 0.82425 0.0
C2213 C 0.74767 0.62696 0.80433 0.0
C2214 C 0.78672 0.58088 0.80877 0.0
C2215 C 0.83219 0.59923 0.83173 0.0
N2216 N 0.7591 0.61153 0.80876 0.0
N2217 N 0.81634 0.61056 0.83508 0.0
H2218 H 0.82279 0.64011 0.08499 0.0
H2219 H 0.94122 0.6228 0.05184 0.0
H2220 H 0.86285 0.68085 0.03983 0.0
H2221 H 0.88975 0.57155 0.07908 0.0
H2222 H 0.91501 0.64646 0.05031 0.0
H2223 H 0.84961 0.61731 0.08635 0.0
C2224 C 0.83728 0.64432 0.07537 0.0
C2225 C 0.84054 0.66244 0.06223 0.0
C2226 C 0.9095 0.63003 0.0566 0.0
C2227 C 0.87148 0.63629 0.0638 0.0
C2228 C 0.92441 0.61641 0.0574 0.0
C2229 C 0.91776 0.595 0.06557 0.0
C2230 C 0.88785 0.62237 0.06425 0.0
C2231 C 0.8959 0.58802 0.073 0.0
C2232 C 0.85257 0.63121 0.07611 0.0
C2233 C 0.85964 0.66701 0.05011 0.0
N2234 N 0.8818 0.60165 0.07219 0.0
N2235 N 0.87446 0.65405 0.05125 0.0
H2236 H 0.21311 0.11249 0.81428 0.0
H2237 H 0.22101 0.24169 0.79774 0.0
H2238 H 0.15409 0.13834 0.81283 0.0
H2239 H 0.28192 0.22188 0.81839 0.0
H2240 H 0.19634 0.20379 0.80332 0.0
H2241 H 0.23884 0.1523 0.81662 0.0
C2242 C 0.20558 0.12656 0.81477 0.0
C2243 C 0.18136 0.12202 0.81312 0.0
C2244 C 0.2151 0.20776 0.8068 0.0
C2245 C 0.21069 0.16756 0.81547 0.0
C2246 C 0.22922 0.22937 0.80347 0.0
C2247 C 0.25359 0.2349 0.80741 0.0
C2248 C 0.22535 0.19136 0.8138 0.0
C2249 C 0.26321 0.21832 0.81508 0.0
C2250 C 0.2203 0.14928 0.8161 0.0
C2251 C 0.17262 0.14097 0.81396 0.0
N2252 N 0.24905 0.19717 0.81779 0.0
N2253 N 0.18724 0.16286 0.81475 0.0
H2254 H 0.34457 0.99453 0.31383 0.0
H2255 H 0.34909 0.86574 0.27817 0.0
H2256 H 0.40827 0.97981 0.30283 0.0
H2257 H 0.2906 0.88158 0.3038 0.0
H2258 H 0.37078 0.90731 0.2854 0.0
H2259 H 0.32437 0.95299 0.30901 0.0
C2260 C 0.35434 0.98251 0.31046 0.0
C2261 C 0.37809 0.99058 0.30856 0.0
C2262 C 0.35323 0.90164 0.28949 0.0
C2263 C 0.35499 0.94293 0.30287 0.0
C2264 C 0.34078 0.87794 0.28527 0.0
C2265 C 0.31798 0.8702 0.29037 0.0
C2266 C 0.34271 0.91764 0.29871 0.0
C2267 C 0.30812 0.88676 0.29958 0.0
C2268 C 0.34279 0.95878 0.30776 0.0
C2269 C 0.38993 0.97426 0.30441 0.0
N2270 N 0.32054 0.90971 0.3034 0.0
N2271 N 0.37817 0.9511 0.30149 0.0
H2272 H 0.57335 0.38586 0.6272 0.0
H2273 H 0.54708 0.45881 0.52878 0.0
H2274 H 0.58724 0.36921 0.55815 0.0
H2275 H 0.57452 0.49227 0.59916 0.0
H2276 H 0.5543 0.42296 0.53851 0.0
H2277 H 0.56634 0.42149 0.6169 0.0
C2278 C 0.57477 0.3895 0.6098 0.0
C2279 C 0.581 0.37417 0.59363 0.0
C2280 C 0.55871 0.43814 0.55184 0.0
C2281 C 0.57237 0.41531 0.58142 0.0
C2282 C 0.5545 0.45869 0.54631 0.0
C2283 C 0.5602 0.47897 0.56307 0.0
C2284 C 0.56806 0.43726 0.57459 0.0
C2285 C 0.56988 0.47736 0.5855 0.0
C2286 C 0.57084 0.41002 0.60395 0.0
C2287 C 0.5826 0.3803 0.57134 0.0
N2288 N 0.57319 0.45703 0.59059 0.0
N2289 N 0.5781 0.40004 0.56589 0.0
H2290 H 0.45017 0.82525 0.40182 0.0
H2291 H 0.33833 0.75611 0.30894 0.0
H2292 H 0.42248 0.75047 0.39427 0.0
H2293 H 0.34666 0.82379 0.34734 0.0
H2294 H 0.37217 0.754 0.33482 0.0
H2295 H 0.41559 0.82552 0.37648 0.0
C2296 C 0.43685 0.80884 0.39476 0.0
C2297 C 0.43927 0.7878 0.40026 0.0
C2298 C 0.36648 0.76925 0.33754 0.0
C2299 C 0.39963 0.788 0.3708 0.0
C2300 C 0.34728 0.77053 0.32273 0.0
C2301 C 0.3396 0.79016 0.32595 0.0
C2302 C 0.37848 0.788 0.35528 0.0
C2303 C 0.35183 0.80827 0.34422 0.0
C2304 C 0.41706 0.80904 0.38035 0.0
C2305 C 0.4213 0.76709 0.3906 0.0
N2306 N 0.37073 0.80687 0.35796 0.0
N2307 N 0.40234 0.76767 0.37615 0.0
H2308 H 0.0819 0.74594 0.0607 0.0
H2309 H 0.02651 0.61315 0.08134 0.0
H2310 H 0.0316 0.72392 0.10623 0.0
H2311 H 0.07523 0.6307 0.03338 0.0
H2312 H 0.0284 0.65391 0.08963 0.0
H2313 H 0.07946 0.70475 0.04903 0.0
C2314 C 0.07006 0.73256 0.06798 0.0
C2315 C 0.05691 0.73879 0.08454 0.0
C2316 C 0.03877 0.64902 0.07729 0.0
C2317 C 0.05434 0.69127 0.07146 0.0
C2318 C 0.03775 0.62552 0.07255 0.0
C2319 C 0.05082 0.61805 0.05665 0.0
C2320 C 0.05299 0.66578 0.06618 0.0
C2321 C 0.06487 0.63538 0.04584 0.0
C2322 C 0.06883 0.70897 0.06143 0.0
C2323 C 0.04218 0.72036 0.09348 0.0
N2324 N 0.06561 0.65827 0.0508 0.0
N2325 N 0.04141 0.69781 0.08697 0.0
H2326 H 0.07594 0.31172 0.92073 0.0
H2327 H 0.14155 0.26204 0.82551 0.0
H2328 H 0.05059 0.24183 0.88228 0.0
H2329 H 0.16074 0.335 0.85407 0.0
H2330 H 0.10945 0.2541 0.84806 0.0
H2331 H 0.10833 0.32047 0.89826 0.0
C2332 C 0.07717 0.29823 0.9076 0.0
C2333 C 0.06048 0.27601 0.9034 0.0
C2334 C 0.12064 0.27187 0.84939 0.0
C2335 C 0.09754 0.28585 0.87771 0.0
C2336 C 0.13907 0.2764 0.8366 0.0
C2337 C 0.15392 0.29923 0.83788 0.0
C2338 C 0.117 0.29026 0.86379 0.0
C2339 C 0.14961 0.31716 0.85235 0.0
C2340 C 0.09563 0.30324 0.89475 0.0
C2341 C 0.06297 0.25921 0.88613 0.0
N2342 N 0.13162 0.3123 0.8648 0.0
N2343 N 0.08113 0.26446 0.87402 0.0
H2344 H 0.53154 0.75074 0.91076 0.0
H2345 H 0.56502 0.70672 0.0287 0.0
H2346 H 0.59011 0.78946 0.9632 0.0
H2347 H 0.51454 0.66204 0.97186 0.0
H2348 H 0.5723 0.73815 0.00575 0.0
H2349 H 0.52308 0.71887 0.93352 0.0
C2350 C 0.5426 0.75257 0.92703 0.0
C2351 C 0.56159 0.77283 0.93504 0.0
C2352 C 0.55961 0.72148 0.99825 0.0
C2353 C 0.55195 0.73651 0.96121 0.0
C2354 C 0.55532 0.70355 0.01144 0.0
C2355 C 0.53909 0.68167 0.00226 0.0
C2356 C 0.54751 0.71769 0.97567 0.0
C2357 C 0.52736 0.67854 0.97959 0.0
C2358 C 0.53779 0.73435 0.94 0.0
C2359 C 0.57533 0.77419 0.95626 0.0
N2360 N 0.53173 0.69635 0.96711 0.0
N2361 N 0.5702 0.75636 0.96858 0.0
H2362 H 0.11484 0.80873 0.73585 0.0
H2363 H 0.20837 0.75804 0.80104 0.0
H2364 H 0.0937 0.75174 0.77371 0.0
H2365 H 0.22532 0.81124 0.7581 0.0
H2366 H 0.16709 0.75613 0.79333 0.0
H2367 H 0.1554 0.81101 0.7465 0.0
C2368 C 0.11865 0.79679 0.7467 0.0
C2369 C 0.10039 0.78001 0.75383 0.0
C2370 C 0.17984 0.76819 0.78557 0.0
C2371 C 0.14784 0.78239 0.76603 0.0
C2372 C 0.20353 0.76927 0.78992 0.0
C2373 C 0.22072 0.78474 0.78014 0.0
C2374 C 0.173 0.78278 0.7714 0.0
C2375 C 0.21301 0.79889 0.76599 0.0
C2376 C 0.14204 0.79806 0.7527 0.0
C2377 C 0.10695 0.76513 0.76789 0.0
N2378 N 0.19 0.79757 0.76215 0.0
N2379 N 0.12999 0.76657 0.77338 0.0
H2380 H 0.09194 0.4124 0.441 0.0
H2381 H 0.02339 0.49873 0.4831 0.0
H2382 H 0.01686 0.39111 0.43315 0.0
H2383 H 0.08682 0.49978 0.5246 0.0
H2384 H 0.02379 0.46348 0.45839 0.0
H2385 H 0.09343 0.44868 0.46588 0.0
C2386 C 0.07581 0.41538 0.44441 0.0
C2387 C 0.05424 0.39865 0.43504 0.0
C2388 C 0.03766 0.47148 0.47285 0.0
C2389 C 0.05584 0.44017 0.46297 0.0
C2390 C 0.03753 0.49167 0.48692 0.0
C2391 C 0.05507 0.50222 0.50603 0.0
C2392 C 0.05577 0.46198 0.47749 0.0
C2393 C 0.07288 0.49213 0.51015 0.0
C2394 C 0.07669 0.43599 0.45866 0.0
C2395 C 0.03388 0.40342 0.4401 0.0
N2396 N 0.07289 0.47267 0.4959 0.0
N2397 N 0.03517 0.42377 0.45347 0.0
H2398 H 0.47006 0.2502 0.2804 0.0
H2399 H 0.34605 0.26497 0.2381 0.0
H2400 H 0.45362 0.2662 0.21268 0.0
H2401 H 0.37804 0.28603 0.30951 0.0
H2402 H 0.38253 0.2594 0.22804 0.0
H2403 H 0.43433 0.25737 0.291 0.0
C2404 C 0.45901 0.25522 0.26771 0.0
C2405 C 0.46523 0.25767 0.24556 0.0
C2406 C 0.38161 0.26524 0.24593 0.0
C2407 C 0.42349 0.2654 0.25756 0.0
C2408 C 0.36066 0.26836 0.25175 0.0
C2409 C 0.35868 0.27609 0.27478 0.0
C2410 C 0.40089 0.26918 0.26325 0.0
C2411 C 0.37855 0.28019 0.29153 0.0
C2412 C 0.43855 0.25937 0.27383 0.0
C2413 C 0.44988 0.26421 0.22998 0.0
N2414 N 0.39854 0.27646 0.28552 0.0
N2415 N 0.42979 0.26754 0.23614 0.0
H2416 H 0.56721 0.56041 0.36443 0.0
H2417 H 0.6009 0.53441 0.49141 0.0
H2418 H 0.62172 0.53008 0.38013 0.0
H2419 H 0.53728 0.54837 0.468 0.0
H2420 H 0.61044 0.53429 0.45182 0.0
H2421 H 0.55736 0.55747 0.40319 0.0
C2422 C 0.57702 0.55294 0.37598 0.0
C2423 C 0.59529 0.54543 0.36892 0.0
C2424 C 0.59437 0.53728 0.45542 0.0
C2425 C 0.58429 0.54231 0.41378 0.0
C2426 C 0.58895 0.53743 0.47802 0.0
C2427 C 0.56825 0.54142 0.48314 0.0
C2428 C 0.57909 0.5414 0.4379 0.0
C2429 C 0.55342 0.54518 0.46502 0.0
C2430 C 0.57139 0.55128 0.39819 0.0
C2431 C 0.60739 0.53595 0.38477 0.0
N2432 N 0.55917 0.54518 0.44339 0.0
N2433 N 0.60181 0.53483 0.40652 0.0
H2434 H 0.23965 0.89006 0.07614 0.0
H2435 H 0.33518 0.88214 0.17502 0.0
H2436 H 0.30173 0.94723 0.10489 0.0
H2437 H 0.26966 0.82796 0.15044 0.0
H2438 H 0.32128 0.90811 0.15286 0.0
H2439 H 0.2473 0.86965 0.10766 0.0
C2440 C 0.25453 0.89861 0.0895 0.0
C2441 C 0.27031 0.92016 0.08771 0.0
C2442 C 0.3099 0.89058 0.15242 0.0
C2443 C 0.27964 0.89661 0.12336 0.0
C2444 C 0.31787 0.87573 0.16498 0.0
C2445 C 0.30371 0.85273 0.16424 0.0
C2446 C 0.28764 0.88235 0.139 0.0
C2447 C 0.28142 0.84534 0.15099 0.0
C2448 C 0.25902 0.88687 0.1074 0.0
C2449 C 0.28921 0.93055 0.10554 0.0
N2450 N 0.27414 0.86005 0.1388 0.0
N2451 N 0.29369 0.91841 0.12237 0.0
H2452 H 0.92571 0.58326 0.89751 0.0
H2453 H 0.03875 0.56207 0.96014 0.0
H2454 H 0.9844 0.57862 0.86421 0.0
H2455 H 0.97933 0.56443 0.9934 0.0
H2456 H 0.02183 0.57476 0.92672 0.0
H2457 H 0.94835 0.58449 0.93491 0.0
C2458 C 0.94357 0.58317 0.89815 0.0
C2459 C 0.95308 0.58033 0.87778 0.0
C2460 C 1.01255 0.57263 0.94139 0.0
C2461 C 0.97879 0.58125 0.92019 0.0
C2462 C 0.02213 0.56521 0.96042 0.0
C2463 C 1.01026 0.56179 0.97946 0.0
C2464 C 0.99087 0.57652 0.9413 0.0
C2465 C 0.98898 0.56655 0.979 0.0
C2466 C 0.95642 0.58366 0.91945 0.0
C2467 C 0.97628 0.58034 0.87952 0.0
N2468 N 0.97986 0.57348 0.96013 0.0
N2469 N 0.98823 0.58036 0.90032 0.0
H2470 H 0.27957 0.27069 0.5982 0.0
H2471 H 0.31661 0.26198 0.73075 0.0
H2472 H 0.32344 0.23121 0.62172 0.0
H2473 H 0.27312 0.30338 0.71132 0.0
H2474 H 0.32042 0.25266 0.69053 0.0
H2475 H 0.27876 0.28548 0.63883 0.0
C2476 C 0.28938 0.26548 0.61184 0.0
C2477 C 0.3015 0.24956 0.60647 0.0
C2478 C 0.31001 0.2638 0.6949 0.0
C2479 C 0.30038 0.26615 0.65292 0.0
C2480 C 0.30771 0.2691 0.71802 0.0
C2481 C 0.29432 0.28338 0.7246 0.0
C2482 C 0.29879 0.27268 0.67784 0.0
C2483 C 0.28352 0.2922 0.70709 0.0
C2484 C 0.28876 0.27378 0.63503 0.0
C2485 C 0.31371 0.24328 0.62491 0.0
N2486 N 0.28589 0.28662 0.68449 0.0
N2487 N 0.3127 0.25144 0.64715 0.0
H2488 H 0.57773 0.56752 0.24622 0.0
H2489 H 0.55993 0.50874 0.11365 0.0
H2490 H 0.6076 0.5146 0.22208 0.0
H2491 H 0.5557 0.57793 0.13286 0.0
H2492 H 0.57025 0.50701 0.15432 0.0
H2493 H 0.56228 0.56767 0.20583 0.0
C2494 C 0.58063 0.55561 0.2325 0.0
C2495 C 0.59396 0.54099 0.23754 0.0
C2496 C 0.56701 0.52257 0.14969 0.0
C2497 C 0.57643 0.54115 0.19145 0.0
C2498 C 0.56103 0.52359 0.12641 0.0
C2499 C 0.55701 0.5436 0.11968 0.0
C2500 C 0.56878 0.54155 0.16665 0.0
C2501 C 0.55878 0.56222 0.13719 0.0
C2502 C 0.57203 0.55589 0.20948 0.0
C2503 C 0.59746 0.52617 0.21903 0.0
N2504 N 0.5645 0.56074 0.1599 0.0
N2505 N 0.58876 0.52661 0.1969 0.0
H2506 H 0.25257 0.84599 0.97386 0.0
H2507 H 0.26821 0.85332 0.84247 0.0
H2508 H 0.25115 0.90532 0.94121 0.0
H2509 H 0.27805 0.79825 0.87811 0.0
H2510 H 0.25435 0.86899 0.87614 0.0
H2511 H 0.25276 0.82429 0.93631 0.0
C2512 C 0.25176 0.85428 0.95868 0.0
C2513 C 0.25238 0.87765 0.96068 0.0
C2514 C 0.25941 0.8534 0.87654 0.0
C2515 C 0.25305 0.85309 0.9178 0.0
C2516 C 0.26747 0.84449 0.85737 0.0
C2517 C 0.27469 0.82462 0.85761 0.0
C2518 C 0.25857 0.84242 0.89613 0.0
C2519 C 0.273 0.81378 0.87728 0.0
C2520 C 0.252 0.84192 0.93727 0.0
C2521 C 0.25096 0.88741 0.94045 0.0
N2522 N 0.26526 0.82293 0.89583 0.0
N2523 N 0.25182 0.87521 0.91985 0.0
H2524 H 0.88946 0.54293 0.72791 0.0
H2525 H 0.01551 0.56673 0.69011 0.0
H2526 H 0.95287 0.58979 0.76906 0.0
H2527 H 0.95379 0.51351 0.65299 0.0
H2528 H 0.99161 0.58006 0.71587 0.0
H2529 H 0.91129 0.53797 0.69619 0.0
C2530 C 0.90782 0.55272 0.73002 0.0
C2531 C 0.9195 0.56646 0.75125 0.0
C2532 C 0.98326 0.56551 0.70206 0.0
C2533 C 0.94456 0.56052 0.71536 0.0
C2534 C 0.99694 0.55771 0.68753 0.0
C2535 C 0.98666 0.53874 0.66964 0.0
C2536 C 0.95911 0.55423 0.69873 0.0
C2537 C 0.96241 0.52817 0.66662 0.0
C2538 C 0.92032 0.54968 0.71201 0.0
C2539 C 0.94329 0.57872 0.75308 0.0
N2540 N 0.94946 0.53596 0.68114 0.0
N2541 N 0.95512 0.57518 0.73549 0.0
H2542 H 0.28406 0.27488 0.47894 0.0
H2543 H 0.29894 0.23207 0.34937 0.0
H2544 H 0.30747 0.21538 0.46229 0.0
H2545 H 0.29974 0.30181 0.37534 0.0
H2546 H 0.29911 0.22336 0.38918 0.0
H2547 H 0.28677 0.28297 0.43965 0.0
C2548 C 0.28996 0.2636 0.46706 0.0
C2549 C 0.29566 0.2445 0.47401 0.0
C2550 C 0.29939 0.24058 0.38604 0.0
C2551 C 0.29842 0.25342 0.42857 0.0
C2552 C 0.29924 0.24554 0.36334 0.0
C2553 C 0.29937 0.26774 0.35887 0.0
C2554 C 0.29934 0.25782 0.40428 0.0
C2555 C 0.29968 0.28446 0.37774 0.0
C2556 C 0.2915 0.26821 0.44456 0.0
C2557 C 0.30311 0.23043 0.45773 0.0
N2558 N 0.29952 0.27912 0.39941 0.0
N2559 N 0.30408 0.23503 0.43569 0.0
H2560 H 0.33136 0.58767 0.56545 0.0
H2561 H 0.42088 0.57366 0.47978 0.0
H2562 H 0.36188 0.64083 0.52582 0.0
H2563 H 0.38841 0.52217 0.52037 0.0
H2564 H 0.39577 0.59645 0.49177 0.0
H2565 H 0.34879 0.56172 0.5449 0.0
C2566 C 0.34181 0.59392 0.55241 0.0
C2567 C 0.34546 0.61657 0.54757 0.0
C2568 C 0.39391 0.57994 0.49766 0.0
C2569 C 0.36558 0.58679 0.52382 0.0
C2570 C 0.40825 0.56692 0.49085 0.0
C2571 C 0.40708 0.54606 0.4993 0.0
C2572 C 0.37834 0.57203 0.51302 0.0
C2573 C 0.39 0.53799 0.51321 0.0
C2574 C 0.35167 0.57901 0.54055 0.0
C2575 C 0.35883 0.62355 0.53022 0.0
N2576 N 0.37658 0.55112 0.51983 0.0
N2577 N 0.36864 0.60876 0.51909 0.0
H2578 H 0.88567 0.90702 0.55849 0.0
H2579 H 0.9678 0.03875 0.56873 0.0
H2580 H 0.86462 0.96626 0.58351 0.0
H2581 H 0.98044 0.97894 0.5318 0.0
H2582 H 0.93149 0.0128 0.57756 0.0
H2583 H 0.92263 0.93354 0.55259 0.0
C2584 C 0.88887 0.9256 0.56292 0.0
C2585 C 0.87193 0.9344 0.57137 0.0
C2586 C 0.94225 1.00546 0.56748 0.0
C2587 C 0.91424 0.96494 0.5645 0.0
C2588 C 0.96293 0.02025 0.56241 0.0
C2589 C 0.97715 0.01106 0.54941 0.0
C2590 C 0.93595 0.98136 0.55968 0.0
C2591 C 0.97002 0.9869 0.54176 0.0
C2592 C 0.90996 0.94076 0.55944 0.0
C2593 C 0.87713 0.95869 0.57683 0.0
N2594 N 0.95001 0.97295 0.54705 0.0
N2595 N 0.89781 0.97313 0.57323 0.0
H2596 H 0.8745 0.06472 0.2498 0.0
H2597 H 0.86864 0.18596 0.31294 0.0
H2598 H 0.92959 0.10993 0.30259 0.0
H2599 H 0.80819 0.1306 0.27674 0.0
H2600 H 0.89252 0.16023 0.30681 0.0
H2601 H 0.85131 0.09066 0.25677 0.0
C2602 C 0.88178 0.08018 0.26283 0.0
C2603 C 0.90405 0.08517 0.27564 0.0
C2604 C 0.87402 0.15371 0.3003 0.0
C2605 C 0.87748 0.11502 0.28368 0.0
C2606 C 0.86042 0.16839 0.30368 0.0
C2607 C 0.83641 0.16037 0.29531 0.0
C2608 C 0.86358 0.13096 0.28821 0.0
C2609 C 0.82659 0.13741 0.28364 0.0
C2610 C 0.86845 0.09492 0.26687 0.0
C2611 C 0.9125 0.10541 0.29235 0.0
N2612 N 0.84024 0.12356 0.28031 0.0
N2613 N 0.89922 0.11968 0.29584 0.0
H2614 H 0.73823 0.08999 0.09749 0.0
H2615 H 0.61432 0.1007 0.04898 0.0
H2616 H 0.72862 0.14936 0.06946 0.0
H2617 H 0.62225 0.04122 0.078 0.0
H2618 H 0.65634 0.11897 0.05732 0.0
H2619 H 0.69586 0.07212 0.09176 0.0
C2620 C 0.72723 0.09932 0.09027 0.0
C2621 C 0.73699 0.12115 0.08384 0.0
C2622 C 0.64893 0.10194 0.06193 0.0
C2623 C 0.68863 0.10081 0.07717 0.0
C2624 C 0.62489 0.09147 0.05715 0.0
C2625 C 0.61474 0.06939 0.06281 0.0
C2626 C 0.66299 0.09026 0.07241 0.0
C2627 C 0.62935 0.05827 0.07333 0.0
C2628 C 0.70307 0.0891 0.08697 0.0
C2629 C 0.72191 0.13246 0.07458 0.0
N2630 N 0.65279 0.06883 0.07777 0.0
N2631 N 0.69852 0.12212 0.07145 0.0
H2632 H 0.26367 0.51477 0.2492 0.0
H2633 H 0.28615 0.43064 0.33649 0.0
H2634 H 0.21756 0.48949 0.29767 0.0
H2635 H 0.32651 0.44891 0.28182 0.0
H2636 H 0.26478 0.4574 0.327 0.0
H2637 H 0.29021 0.49541 0.26498 0.0
C2638 C 0.25912 0.50516 0.2632 0.0
C2639 C 0.23823 0.50351 0.27197 0.0
C2640 C 0.27851 0.45577 0.31727 0.0
C2641 C 0.26864 0.48135 0.29017 0.0
C2642 C 0.29085 0.44068 0.32282 0.0
C2643 C 0.30797 0.43746 0.30977 0.0
C2644 C 0.28335 0.46768 0.29857 0.0
C2645 C 0.3132 0.45067 0.29207 0.0
C2646 C 0.27434 0.49415 0.27224 0.0
C2647 C 0.23338 0.49102 0.29026 0.0
N2648 N 0.30078 0.46507 0.28685 0.0
N2649 N 0.24844 0.48028 0.29869 0.0
H2650 H 0.23516 0.42 0.02289 0.0
H2651 H 0.17327 0.51082 0.07326 0.0
H2652 H 0.25061 0.45502 0.09372 0.0
H2653 H 0.16926 0.48859 1.00011 0.0
H2654 H 0.19907 0.48771 0.08125 0.0
H2655 H 0.20832 0.44219 0.01436 0.0
C2656 C 0.23283 0.43225 0.03666 0.0
C2657 C 0.24518 0.43568 0.05904 0.0
C2658 C 0.1926 0.48789 0.06344 0.0
C2659 C 0.21453 0.46105 0.04943 0.0
C2660 C 0.17776 0.501 0.05887 0.0
C2661 C 0.16908 0.50165 0.03598 0.0
C2662 C 0.19871 0.47511 0.04501 0.0
C2663 C 0.17574 0.48878 0.01801 0.0
C2664 C 0.21759 0.44497 0.03176 0.0
C2665 C 0.24153 0.45184 0.07619 0.0
N2666 N 0.19008 0.47596 0.02291 0.0
N2667 N 0.22654 0.46385 0.07104 0.0
H2668 H 0.93642 0.95145 0.27771 0.0
H2669 H 0.80941 0.8828 0.30242 0.0
H2670 H 0.88107 0.98241 0.27942 0.0
H2671 H 0.86064 0.84993 0.28464 0.0
H2672 H 0.83575 0.92011 0.2963 0.0
H2673 H 0.90916 0.91449 0.28259 0.0
C2674 C 0.91853 0.95047 0.27905 0.0
C2675 C 0.91104 0.97006 0.27812 0.0
C2676 C 0.84109 0.90465 0.29368 0.0
C2677 C 0.87971 0.92781 0.28386 0.0
C2678 C 0.82611 0.8834 0.2972 0.0
C2679 C 0.8328 0.8632 0.29406 0.0
C2680 C 0.86294 0.90566 0.28719 0.0
C2681 C 0.85465 0.86498 0.28726 0.0
C2682 C 0.90294 0.92935 0.28181 0.0
C2683 C 0.8876 0.96773 0.27997 0.0
N2684 N 0.86892 0.8858 0.28417 0.0
N2685 N 0.87278 0.94701 0.28285 0.0
H2686 H 0.74232 0.09504 0.77401 0.0
H2687 H 0.74396 0.21827 0.74478 0.0
H2688 H 0.68076 0.10442 0.73807 0.0
H2689 H 0.77384 0.21079 0.81214 0.0
H2690 H 0.72668 0.17579 0.73533 0.0
H2691 H 0.76089 0.1374 0.78098 0.0
C2692 C 0.73291 0.10601 0.76724 0.0
C2693 C 0.71001 0.0964 0.75552 0.0
C2694 C 0.73705 0.18355 0.75214 0.0
C2695 C 0.73107 0.14435 0.76324 0.0
C2696 C 0.74689 0.20764 0.75752 0.0
C2697 C 0.76018 0.21784 0.77928 0.0
C2698 C 0.74117 0.16974 0.7684 0.0
C2699 C 0.7635 0.20346 0.79526 0.0
C2700 C 0.74341 0.13005 0.77139 0.0
C2701 C 0.69842 0.11128 0.74728 0.0
N2702 N 0.75421 0.17999 0.7894 0.0
N2703 N 0.70915 0.13464 0.75122 0.0
loop_
_geom_bond_atom_site_label_1
_geom_bond_atom_site_label_2
_geom_bond_distance
_geom_bond_site_symmetry_2
_ccdc_geom_bond_type
O0 Cd1 2.223 . S
O0 C8 1.315 . S
Cd1 O0 2.223 . S
Cd1 O4 2.297 . S
Cd1 O5 2.439 . S
Cd1 O11 2.240 . S
Cd2 O3 2.240 . S
Cd2 O10 2.223 1_455 S
Cd2 O12 2.297 . S
Cd2 O13 2.439 . S
O3 Cd2 2.240 . S
O3 C8 1.279 . S
O4 Cd1 2.297 . S
O4 C6 1.247 . S
O5 Cd1 2.439 . S
O5 C6 1.208 . S
C6 O4 1.247 . S
C6 O5 1.208 . S
C7 O12 1.247 . S
C7 O13 1.208 . S
C8 O0 1.315 . S
C8 O3 1.279 . S
C9 O10 1.315 . S
C9 O11 1.279 1_655 S
O10 Cd2 2.223 1_655 S
O10 C9 1.315 . S
O11 Cd1 2.240 . S
O11 C9 1.279 1_455 S
O12 Cd2 2.297 . S
O12 C7 1.247 . S
O13 Cd2 2.439 . S
O13 C7 1.208 . S
O14 Cd15 2.223 . S
O14 C22 1.315 . S
Cd15 O14 2.223 . S
Cd15 O18 2.297 1_455 S
Cd15 O19 2.439 1_455 S
Cd15 O25 2.240 . S
Cd16 O17 2.240 . S
Cd16 O24 2.223 . S
Cd16 O26 2.297 . S
Cd16 O27 2.439 . S
O17 Cd16 2.240 . S
O17 C22 1.279 . S
O18 Cd15 2.297 1_655 S
O18 C20 1.247 . S
O19 Cd15 2.439 1_655 S
O19 C20 1.208 . S
C20 O18 1.247 . S
C20 O19 1.208 . S
C21 O26 1.247 . S
C21 O27 1.208 . S
C22 O14 1.315 . S
C22 O17 1.279 . S
C23 O24 1.315 . S
C23 O25 1.279 . S
O24 Cd16 2.223 . S
O24 C23 1.315 . S
O25 Cd15 2.240 . S
O25 C23 1.279 . S
O26 Cd16 2.297 . S
O26 C21 1.247 . S
O27 Cd16 2.439 . S
O27 C21 1.208 . S
O28 Cd29 2.223 . S
O28 C36 1.315 . S
Cd29 O28 2.223 . S
Cd29 O32 2.297 . S
Cd29 O33 2.439 . S
Cd29 O39 2.240 . S
Cd30 O31 2.240 . S
Cd30 O38 2.223 . S
Cd30 O40 2.297 . S
Cd30 O41 2.439 . S
O31 Cd30 2.240 . S
O31 C36 1.279 . S
O32 Cd29 2.297 . S
O32 C34 1.247 . S
O33 Cd29 2.439 . S
O33 C34 1.208 . S
C34 O32 1.247 . S
C34 O33 1.208 . S
C35 O40 1.247 . S
C35 O41 1.208 . S
C36 O28 1.315 . S
C36 O31 1.279 . S
C37 O38 1.315 . S
C37 O39 1.279 . S
O38 Cd30 2.223 . S
O38 C37 1.315 . S
O39 Cd29 2.240 . S
O39 C37 1.279 . S
O40 Cd30 2.297 . S
O40 C35 1.247 . S
O41 Cd30 2.439 . S
O41 C35 1.208 . S
O42 Cd43 2.223 . S
O42 C50 1.315 . S
Cd43 O42 2.223 . S
Cd43 O46 2.297 . S
Cd43 O47 2.439 . S
Cd43 O53 2.240 . S
Cd44 O45 2.240 . S
Cd44 O52 2.223 . S
Cd44 O54 2.297 . S
Cd44 O55 2.439 . S
O45 Cd44 2.240 . S
O45 C50 1.279 . S
O46 Cd43 2.297 . S
O46 C48 1.247 . S
O47 Cd43 2.439 . S
O47 C48 1.208 . S
C48 O46 1.247 . S
C48 O47 1.208 . S
C49 O54 1.247 . S
C49 O55 1.208 . S
C50 O42 1.315 . S
C50 O45 1.279 . S
C51 O52 1.315 . S
C51 O53 1.279 . S
O52 Cd44 2.223 . S
O52 C51 1.315 . S
O53 Cd43 2.240 . S
O53 C51 1.279 . S
O54 Cd44 2.297 . S
O54 C49 1.247 . S
O55 Cd44 2.439 . S
O55 C49 1.208 . S
O56 Cd57 2.223 . S
O56 C64 1.315 . S
Cd57 O56 2.223 . S
Cd57 O60 2.297 . S
Cd57 O61 2.439 . S
Cd57 O67 2.240 . S
Cd58 O59 2.240 . S
Cd58 O66 2.223 . S
Cd58 O68 2.297 . S
Cd58 O69 2.439 . S
O59 Cd58 2.240 . S
O59 C64 1.279 . S
O60 Cd57 2.297 . S
O60 C62 1.247 . S
O61 Cd57 2.439 . S
O61 C62 1.208 . S
C62 O60 1.247 . S
C62 O61 1.208 . S
C63 O68 1.247 . S
C63 O69 1.208 . S
C64 O56 1.315 . S
C64 O59 1.279 . S
C65 O66 1.315 . S
C65 O67 1.279 . S
O66 Cd58 2.223 . S
O66 C65 1.315 . S
O67 Cd57 2.240 . S
O67 C65 1.279 . S
O68 Cd58 2.297 . S
O68 C63 1.247 . S
O69 Cd58 2.439 . S
O69 C63 1.208 . S
O70 Cd71 2.223 . S
O70 C78 1.315 . S
Cd71 O70 2.223 . S
Cd71 O74 2.297 . S
Cd71 O75 2.439 . S
Cd71 O81 2.240 . S
Cd72 O73 2.240 . S
Cd72 O80 2.223 . S
Cd72 O82 2.297 . S
Cd72 O83 2.439 . S
O73 Cd72 2.240 . S
O73 C78 1.279 . S
O74 Cd71 2.297 . S
O74 C76 1.247 . S
O75 Cd71 2.439 . S
O75 C76 1.208 . S
C76 O74 1.247 . S
C76 O75 1.208 . S
C77 O82 1.247 . S
C77 O83 1.208 . S
C78 O70 1.315 . S
C78 O73 1.279 . S
C79 O80 1.315 . S
C79 O81 1.279 . S
O80 Cd72 2.223 . S
O80 C79 1.315 . S
O81 Cd71 2.240 . S
O81 C79 1.279 . S
O82 Cd72 2.297 . S
O82 C77 1.247 . S
O83 Cd72 2.439 . S
O83 C77 1.208 . S
O84 Cd85 2.223 . S
O84 C92 1.315 . S
Cd85 O84 2.223 . S
Cd85 O88 2.297 . S
Cd85 O89 2.439 . S
Cd85 O95 2.240 . S
Cd86 O87 2.240 . S
Cd86 O94 2.223 . S
Cd86 O96 2.297 . S
Cd86 O97 2.439 . S
O87 Cd86 2.240 . S
O87 C92 1.279 . S
O88 Cd85 2.297 . S
O88 C90 1.247 . S
O89 Cd85 2.439 . S
O89 C90 1.208 . S
C90 O88 1.247 . S
C90 O89 1.208 . S
C91 O96 1.247 . S
C91 O97 1.208 . S
C92 O84 1.315 . S
C92 O87 1.279 . S
C93 O94 1.315 . S
C93 O95 1.279 . S
O94 Cd86 2.223 . S
O94 C93 1.315 . S
O95 Cd85 2.240 . S
O95 C93 1.279 . S
O96 Cd86 2.297 . S
O96 C91 1.247 . S
O97 Cd86 2.439 . S
O97 C91 1.208 . S
O98 Cd99 2.223 1_655 S
O98 C106 1.315 . S
Cd99 O98 2.223 1_455 S
Cd99 O102 2.297 . S
Cd99 O103 2.439 . S
Cd99 O109 2.240 1_455 S
Cd100 O101 2.240 1_655 S
Cd100 O108 2.223 . S
Cd100 O110 2.297 1_556 S
Cd100 O111 2.439 1_655 S
O101 Cd100 2.240 1_455 S
O101 C106 1.279 1_455 S
O102 Cd99 2.297 . S
O102 C104 1.247 . S
O103 Cd99 2.439 . S
O103 C104 1.208 . S
C104 O102 1.247 . S
C104 O103 1.208 . S
C105 O110 1.247 1_456 S
C105 O111 1.208 . S
C106 O98 1.315 . S
C106 O101 1.279 1_655 S
C107 O108 1.315 . S
C107 O109 1.279 . S
O108 Cd100 2.223 . S
O108 C107 1.315 . S
O109 Cd99 2.240 1_655 S
O109 C107 1.279 . S
O110 Cd100 2.297 1_554 S
O110 C105 1.247 1_654 S
O111 Cd100 2.439 1_455 S
O111 C105 1.208 . S
O112 Cd113 2.223 1_565 S
O112 C120 1.315 1_565 S
Cd113 O112 2.223 1_545 S
Cd113 O116 2.297 . S
Cd113 O117 2.439 . S
Cd113 O123 2.240 1_545 S
Cd114 O115 2.240 1_565 S
Cd114 O122 2.223 . S
Cd114 O124 2.297 . S
Cd114 O125 2.439 1_565 S
O115 Cd114 2.240 1_545 S
O115 C120 1.279 . S
O116 Cd113 2.297 . S
O116 C118 1.247 . S
O117 Cd113 2.439 . S
O117 C118 1.208 . S
C118 O116 1.247 . S
C118 O117 1.208 . S
C119 O124 1.247 1_545 S
C119 O125 1.208 . S
C120 O112 1.315 1_545 S
C120 O115 1.279 . S
C121 O122 1.315 . S
C121 O123 1.279 . S
O122 Cd114 2.223 . S
O122 C121 1.315 . S
O123 Cd113 2.240 1_565 S
O123 C121 1.279 . S
O124 Cd114 2.297 . S
O124 C119 1.247 1_565 S
O125 Cd114 2.439 1_545 S
O125 C119 1.208 . S
O126 Cd127 2.223 . S
O126 C134 1.315 . S
Cd127 O126 2.223 . S
Cd127 O130 2.297 . S
Cd127 O131 2.439 . S
Cd127 O137 2.240 . S
Cd128 O129 2.240 . S
Cd128 O136 2.223 . S
Cd128 O138 2.297 . S
Cd128 O139 2.439 . S
O129 Cd128 2.240 . S
O129 C134 1.279 . S
O130 Cd127 2.297 . S
O130 C132 1.247 . S
O131 Cd127 2.439 . S
O131 C132 1.208 . S
C132 O130 1.247 . S
C132 O131 1.208 . S
C133 O138 1.247 . S
C133 O139 1.208 . S
C134 O126 1.315 . S
C134 O129 1.279 . S
C135 O136 1.315 . S
C135 O137 1.279 . S
O136 Cd128 2.223 . S
O136 C135 1.315 . S
O137 Cd127 2.240 . S
O137 C135 1.279 . S
O138 Cd128 2.297 . S
O138 C133 1.247 . S
O139 Cd128 2.439 . S
O139 C133 1.208 . S
O140 Cd141 2.223 . S
O140 C148 1.315 . S
Cd141 O140 2.223 . S
Cd141 O144 2.297 . S
Cd141 O145 2.439 . S
Cd141 O151 2.240 . S
Cd142 O143 2.240 . S
Cd142 O150 2.223 . S
Cd142 O152 2.297 . S
Cd142 O153 2.439 . S
O143 Cd142 2.240 . S
O143 C148 1.279 . S
O144 Cd141 2.297 . S
O144 C146 1.245 1_545 S
O145 Cd141 2.439 . S
O145 C146 1.206 1_545 S
C146 O144 1.245 1_565 S
C146 O145 1.206 1_565 S
C147 O152 1.247 . S
C147 O153 1.208 . S
C148 O140 1.315 . S
C148 O143 1.279 . S
C149 O150 1.315 . S
C149 O151 1.279 . S
O150 Cd142 2.223 . S
O150 C149 1.315 . S
O151 Cd141 2.240 . S
O151 C149 1.279 . S
O152 Cd142 2.297 . S
O152 C147 1.247 . S
O153 Cd142 2.439 . S
O153 C147 1.208 . S
O154 Cd155 2.223 . S
O154 C162 1.315 . S
Cd155 O154 2.223 . S
Cd155 O158 2.297 . S
Cd155 O159 2.439 1_554 S
Cd155 O165 2.240 1_554 S
Cd156 O157 2.240 1_556 S
Cd156 O164 2.223 1_556 S
Cd156 O166 2.297 . S
Cd156 O167 2.439 . S
O157 Cd156 2.240 1_554 S
O157 C162 1.279 . S
O158 Cd155 2.297 . S
O158 C160 1.247 . S
O159 Cd155 2.439 1_556 S
O159 C160 1.208 1_556 S
C160 O158 1.247 . S
C160 O159 1.208 1_554 S
C161 O166 1.247 . S
C161 O167 1.208 . S
C162 O154 1.315 . S
C162 O157 1.279 . S
C163 O164 1.315 . S
C163 O165 1.279 1_554 S
O164 Cd156 2.223 1_554 S
O164 C163 1.315 . S
O165 Cd155 2.240 1_556 S
O165 C163 1.279 1_556 S
O166 Cd156 2.297 . S
O166 C161 1.247 . S
O167 Cd156 2.439 . S
O167 C161 1.208 . S
O168 Cd169 2.223 . S
O168 C176 1.315 . S
Cd169 O168 2.223 . S
Cd169 O172 2.297 . S
Cd169 O173 2.439 . S
Cd169 O179 2.240 . S
Cd170 O171 2.240 . S
Cd170 O178 2.223 . S
Cd170 O180 2.333 . S
Cd170 O181 2.439 . S
O171 Cd170 2.240 . S
O171 C176 1.279 . S
O172 Cd169 2.297 . S
O172 C174 1.247 . S
O173 Cd169 2.439 . S
O173 C174 1.208 . S
C174 O172 1.247 . S
C174 O173 1.208 . S
C175 O180 1.233 1_556 S
C175 O181 1.208 1_556 S
C176 O168 1.315 . S
C176 O171 1.279 . S
C177 O178 1.315 . S
C177 O179 1.279 . S
O178 Cd170 2.223 . S
O178 C177 1.315 . S
O179 Cd169 2.240 . S
O179 C177 1.279 . S
O180 Cd170 2.333 . S
O180 C175 1.233 1_554 S
O181 Cd170 2.439 . S
O181 C175 1.208 1_554 S
O182 Cd183 2.223 . S
O182 C190 1.315 . S
Cd183 O182 2.223 . S
Cd183 O186 2.297 . S
Cd183 O187 2.439 . S
Cd183 O193 2.240 . S
Cd184 O185 2.240 . S
Cd184 O192 2.223 . S
Cd184 O194 2.297 . S
Cd184 O195 2.439 . S
O185 Cd184 2.240 . S
O185 C190 1.279 . S
O186 Cd183 2.297 . S
O186 C188 1.247 . S
O187 Cd183 2.439 . S
O187 C188 1.208 . S
C188 O186 1.247 . S
C188 O187 1.208 . S
C189 O194 1.247 . S
C189 O195 1.208 . S
C190 O182 1.315 . S
C190 O185 1.279 . S
C191 O192 1.315 . S
C191 O193 1.279 . S
O192 Cd184 2.223 . S
O192 C191 1.315 . S
O193 Cd183 2.240 . S
O193 C191 1.279 . S
O194 Cd184 2.297 . S
O194 C189 1.247 . S
O195 Cd184 2.439 . S
O195 C189 1.208 . S
O196 Cd197 2.223 . S
O196 C204 1.315 . S
Cd197 O196 2.223 . S
Cd197 O200 2.297 . S
Cd197 O201 2.439 . S
Cd197 O207 2.240 . S
Cd198 O199 2.240 . S
Cd198 O206 2.223 . S
Cd198 O208 2.297 . S
Cd198 O209 2.439 . S
O199 Cd198 2.240 . S
O199 C204 1.279 . S
O200 Cd197 2.297 . S
O200 C202 1.247 . S
O201 Cd197 2.439 . S
O201 C202 1.208 . S
C202 O200 1.247 . S
C202 O201 1.208 . S
C203 O208 1.247 . S
C203 O209 1.208 . S
C204 O196 1.315 . S
C204 O199 1.279 . S
C205 O206 1.315 . S
C205 O207 1.279 . S
O206 Cd198 2.223 . S
O206 C205 1.315 . S
O207 Cd197 2.240 . S
O207 C205 1.279 . S
O208 Cd198 2.297 . S
O208 C203 1.247 . S
O209 Cd198 2.439 . S
O209 C203 1.208 . S
O210 Cd211 2.223 . S
O210 C218 1.315 . S
Cd211 O210 2.223 . S
Cd211 O214 2.297 . S
Cd211 O215 2.439 . S
Cd211 O221 2.240 . S
Cd212 O213 2.240 . S
Cd212 O220 2.223 . S
Cd212 O222 2.297 . S
Cd212 O223 2.439 . S
O213 Cd212 2.240 . S
O213 C218 1.279 . S
O214 Cd211 2.297 . S
O214 C216 1.247 . S
O215 Cd211 2.439 . S
O215 C216 1.208 . S
C216 O214 1.247 . S
C216 O215 1.208 . S
C217 O222 1.247 . S
C217 O223 1.208 . S
C218 O210 1.315 . S
C218 O213 1.279 . S
C219 O220 1.315 . S
C219 O221 1.279 . S
O220 Cd212 2.223 . S
O220 C219 1.315 . S
O221 Cd211 2.240 . S
O221 C219 1.279 . S
O222 Cd212 2.297 . S
O222 C217 1.247 . S
O223 Cd212 2.439 . S
O223 C217 1.208 . S
O224 Cd225 2.223 . S
O224 C232 1.315 . S
Cd225 O224 2.223 . S
Cd225 O228 2.297 . S
Cd225 O229 2.439 . S
Cd225 O235 2.262 . S
Cd226 O227 2.240 . S
Cd226 O234 2.223 1_545 S
Cd226 O236 2.297 . S
Cd226 O237 2.439 . S
O227 Cd226 2.240 . S
O227 C232 1.279 . S
O228 Cd225 2.297 . S
O228 C230 1.247 . S
O229 Cd225 2.439 . S
O229 C230 1.208 . S
C230 O228 1.247 . S
C230 O229 1.208 . S
C231 O236 1.247 . S
C231 O237 1.208 . S
C232 O224 1.315 . S
C232 O227 1.279 . S
C233 O234 1.315 . S
C233 O235 1.256 1_565 S
O234 Cd226 2.223 1_565 S
O234 C233 1.315 . S
O235 Cd225 2.262 . S
O235 C233 1.256 1_545 S
O236 Cd226 2.297 . S
O236 C231 1.247 . S
O237 Cd226 2.439 . S
O237 C231 1.208 . S
O238 Cd239 2.223 . S
O238 C246 1.315 . S
Cd239 O238 2.223 . S
Cd239 O242 2.297 . S
Cd239 O243 2.439 . S
Cd239 O249 2.240 . S
Cd240 O241 2.240 . S
Cd240 O248 2.223 . S
Cd240 O250 2.297 . S
Cd240 O251 2.439 . S
O241 Cd240 2.240 . S
O241 C246 1.279 . S
O242 Cd239 2.297 . S
O242 C244 1.247 . S
O243 Cd239 2.439 . S
O243 C244 1.208 . S
C244 O242 1.247 . S
C244 O243 1.208 . S
C245 O250 1.247 . S
C245 O251 1.208 . S
C246 O238 1.315 . S
C246 O241 1.279 . S
C247 O248 1.315 . S
C247 O249 1.279 . S
O248 Cd240 2.223 . S
O248 C247 1.315 . S
O249 Cd239 2.240 . S
O249 C247 1.279 . S
O250 Cd240 2.297 . S
O250 C245 1.247 . S
O251 Cd240 2.439 . S
O251 C245 1.208 . S
O252 Cd253 2.223 . S
O252 C260 1.315 . S
Cd253 O252 2.223 . S
Cd253 O256 2.297 . S
Cd253 O257 2.439 . S
Cd253 O263 2.240 . S
Cd254 O255 2.240 . S
Cd254 O262 2.223 . S
Cd254 O264 2.297 . S
Cd254 O265 2.439 . S
O255 Cd254 2.240 . S
O255 C260 1.279 . S
O256 Cd253 2.297 . S
O256 C258 1.247 . S
O257 Cd253 2.439 . S
O257 C258 1.208 . S
C258 O256 1.247 . S
C258 O257 1.208 . S
C259 O264 1.247 . S
C259 O265 1.208 . S
C260 O252 1.315 . S
C260 O255 1.279 . S
C261 O262 1.315 . S
C261 O263 1.279 . S
O262 Cd254 2.223 . S
O262 C261 1.315 . S
O263 Cd253 2.240 . S
O263 C261 1.279 . S
O264 Cd254 2.297 . S
O264 C259 1.247 . S
O265 Cd254 2.439 . S
O265 C259 1.208 . S
O266 Cd267 2.223 . S
O266 C274 1.315 . S
Cd267 O266 2.223 . S
Cd267 O270 2.297 . S
Cd267 O271 2.439 . S
Cd267 O277 2.240 . S
Cd268 O269 2.240 . S
Cd268 O276 2.223 . S
Cd268 O278 2.297 . S
Cd268 O279 2.439 . S
O269 Cd268 2.240 . S
O269 C274 1.279 . S
O270 Cd267 2.297 . S
O270 C272 1.247 . S
O271 Cd267 2.439 . S
O271 C272 1.208 . S
C272 O270 1.247 . S
C272 O271 1.208 . S
C273 O278 1.247 . S
C273 O279 1.208 . S
C274 O266 1.315 . S
C274 O269 1.279 . S
C275 O276 1.315 . S
C275 O277 1.279 . S
O276 Cd268 2.223 . S
O276 C275 1.315 . S
O277 Cd267 2.240 . S
O277 C275 1.279 . S
O278 Cd268 2.297 . S
O278 C273 1.247 . S
O279 Cd268 2.439 . S
O279 C273 1.208 . S
O280 Cd281 2.223 . S
O280 C288 1.315 . S
Cd281 O280 2.223 . S
Cd281 O284 2.297 . S
Cd281 O285 2.439 . S
Cd281 O291 2.240 . S
Cd282 O283 2.240 . S
Cd282 O290 2.223 . S
Cd282 O292 2.297 1_554 S
Cd282 O293 2.439 . S
O283 Cd282 2.240 . S
O283 C288 1.279 . S
O284 Cd281 2.297 . S
O284 C286 1.247 . S
O285 Cd281 2.439 . S
O285 C286 1.208 . S
C286 O284 1.247 . S
C286 O285 1.208 . S
C287 O292 1.247 . S
C287 O293 1.208 1_556 S
C288 O280 1.315 . S
C288 O283 1.279 . S
C289 O290 1.315 . S
C289 O291 1.279 . S
O290 Cd282 2.223 . S
O290 C289 1.315 . S
O291 Cd281 2.240 . S
O291 C289 1.279 . S
O292 Cd282 2.297 1_556 S
O292 C287 1.247 . S
O293 Cd282 2.439 . S
O293 C287 1.208 1_554 S
O294 Cd295 2.223 . S
O294 C302 1.315 . S
Cd295 O294 2.223 . S
Cd295 O298 2.297 . S
Cd295 O299 2.439 . S
Cd295 O305 2.240 . S
Cd296 O297 2.240 . S
Cd296 O304 2.223 . S
Cd296 O306 2.297 . S
Cd296 O307 2.439 . S
O297 Cd296 2.240 . S
O297 C302 1.279 . S
O298 Cd295 2.297 . S
O298 C300 1.247 . S
O299 Cd295 2.439 . S
O299 C300 1.208 . S
C300 O298 1.247 . S
C300 O299 1.208 . S
C301 O306 1.247 . S
C301 O307 1.208 . S
C302 O294 1.315 . S
C302 O297 1.279 . S
C303 O304 1.315 . S
C303 O305 1.279 . S
O304 Cd296 2.223 . S
O304 C303 1.315 . S
O305 Cd295 2.240 . S
O305 C303 1.279 . S
O306 Cd296 2.297 . S
O306 C301 1.247 . S
O307 Cd296 2.439 . S
O307 C301 1.208 . S
O308 Cd309 2.223 . S
O308 C316 1.315 . S
Cd309 O308 2.223 . S
Cd309 O312 2.297 . S
Cd309 O313 2.439 . S
Cd309 O319 2.240 . S
Cd310 O311 2.240 . S
Cd310 O318 2.223 . S
Cd310 O320 2.297 . S
Cd310 O321 2.439 . S
O311 Cd310 2.240 . S
O311 C316 1.279 . S
O312 Cd309 2.297 . S
O312 C314 1.247 . S
O313 Cd309 2.439 . S
O313 C314 1.208 . S
C314 O312 1.247 . S
C314 O313 1.208 . S
C315 O320 1.247 . S
C315 O321 1.208 . S
C316 O308 1.315 . S
C316 O311 1.279 . S
C317 O318 1.315 . S
C317 O319 1.279 . S
O318 Cd310 2.223 . S
O318 C317 1.315 . S
O319 Cd309 2.240 . S
O319 C317 1.279 . S
O320 Cd310 2.297 . S
O320 C315 1.247 . S
O321 Cd310 2.439 . S
O321 C315 1.208 . S
O322 Cd323 2.223 . S
O322 C330 1.315 . S
Cd323 O322 2.223 . S
Cd323 O326 2.297 . S
Cd323 O327 2.439 . S
Cd323 O333 2.240 . S
Cd324 O325 2.240 . S
Cd324 O332 2.223 . S
Cd324 O334 2.297 . S
Cd324 O335 2.439 . S
O325 Cd324 2.240 . S
O325 C330 1.279 . S
O326 Cd323 2.297 . S
O326 C328 1.247 . S
O327 Cd323 2.439 . S
O327 C328 1.208 . S
C328 O326 1.247 . S
C328 O327 1.208 . S
C329 O334 1.247 . S
C329 O335 1.208 . S
C330 O322 1.315 . S
C330 O325 1.279 . S
C331 O332 1.315 . S
C331 O333 1.279 . S
O332 Cd324 2.223 . S
O332 C331 1.315 . S
O333 Cd323 2.240 . S
O333 C331 1.279 . S
O334 Cd324 2.297 . S
O334 C329 1.247 . S
O335 Cd324 2.439 . S
O335 C329 1.208 . S
Dy336 O339 2.307 . S
Dy336 O341 2.395 . S
Dy336 O342 2.379 . S
Dy336 O344 2.339 . S
Dy336 O346 2.298 . S
Dy336 O350 2.275 . S
Dy336 C358 2.738 . S
Dy337 O340 2.298 1_655 S
Dy337 O343 2.275 1_655 S
Dy337 O345 2.307 1_655 S
Dy337 O347 2.395 . S
Dy337 O348 2.379 . S
Dy337 O351 2.339 1_655 S
Dy337 C367 2.738 . S
C338 O350 1.254 . S
C338 O351 1.257 . S
O339 Dy336 2.307 . S
O339 C349 1.266 . S
O340 Dy337 2.298 1_455 S
O340 C349 1.236 . S
O341 Dy336 2.395 . S
O341 C358 1.255 . S
O342 Dy336 2.379 . S
O342 C358 1.249 . S
O343 Dy337 2.275 1_455 S
O343 C359 1.254 . S
O344 Dy336 2.339 . S
O344 C359 1.257 . S
O345 Dy337 2.307 1_455 S
O345 C360 1.266 . S
O346 Dy336 2.298 . S
O346 C360 1.236 . S
O347 Dy337 2.395 . S
O347 C367 1.255 . S
O348 Dy337 2.379 . S
O348 C367 1.249 . S
C349 O339 1.266 . S
C349 O340 1.236 . S
O350 Dy336 2.275 . S
O350 C338 1.254 . S
O351 Dy337 2.339 1_455 S
O351 C338 1.257 . S
C352 C355 1.344 . S
C352 C356 1.328 . S
C352 C358 1.516 . S
C353 C354 1.304 . S
C353 C357 1.323 . S
C354 C353 1.304 . S
C354 C355 1.371 . S
C354 H368 0.930 . S
C355 C352 1.344 . S
C355 C354 1.371 . S
C355 H369 0.931 . S
C356 C352 1.328 . S
C356 C357 1.433 . S
C356 H370 0.931 . S
C357 C353 1.323 . S
C357 C356 1.433 . S
C357 H371 0.933 . S
C358 Dy336 2.738 . S
C358 O341 1.255 . S
C358 O342 1.249 . S
C358 C352 1.516 . S
C359 O343 1.254 . S
C359 O344 1.257 . S
C360 O345 1.266 . S
C360 O346 1.236 . S
C361 C364 1.344 . S
C361 C365 1.328 . S
C361 C367 1.516 . S
C362 C363 1.304 . S
C362 C366 1.323 . S
C363 C362 1.304 . S
C363 C364 1.371 . S
C363 H372 0.930 . S
C364 C361 1.344 . S
C364 C363 1.371 . S
C364 H373 0.931 . S
C365 C361 1.328 . S
C365 C366 1.433 . S
C365 H374 0.896 1_554 S
C366 C362 1.323 . S
C366 C365 1.433 . S
C366 H375 0.933 1_554 S
C367 Dy337 2.738 . S
C367 O347 1.255 . S
C367 O348 1.249 . S
C367 C361 1.516 . S
H368 C354 0.930 . S
H369 C355 0.931 . S
H370 C356 0.931 . S
H371 C357 0.933 . S
H372 C363 0.930 . S
H373 C364 0.931 . S
H374 C365 0.896 1_556 S
H375 C366 0.933 1_556 S
Dy376 O379 2.307 . S
Dy376 O381 2.395 . S
Dy376 O382 2.379 . S
Dy376 O384 2.339 . S
Dy376 O386 2.298 . S
Dy376 O390 2.275 . S
Dy376 C398 2.738 . S
Dy377 O380 2.298 . S
Dy377 O383 2.275 . S
Dy377 O385 2.307 . S
Dy377 O387 2.395 . S
Dy377 O388 2.379 . S
Dy377 O391 2.339 . S
Dy377 C407 2.738 . S
C378 O390 1.254 . S
C378 O391 1.257 . S
O379 Dy376 2.307 . S
O379 C389 1.266 . S
O380 Dy377 2.298 . S
O380 C389 1.236 . S
O381 Dy376 2.395 . S
O381 C398 1.255 . S
O382 Dy376 2.379 . S
O382 C398 1.249 . S
O383 Dy377 2.275 . S
O383 C399 1.254 . S
O384 Dy376 2.339 . S
O384 C399 1.257 . S
O385 Dy377 2.307 . S
O385 C400 1.266 . S
O386 Dy376 2.298 . S
O386 C400 1.236 . S
O387 Dy377 2.395 . S
O387 C407 1.255 . S
O388 Dy377 2.379 . S
O388 C407 1.249 . S
C389 O379 1.266 . S
C389 O380 1.236 . S
O390 Dy376 2.275 . S
O390 C378 1.254 . S
O391 Dy377 2.339 . S
O391 C378 1.257 . S
C392 C395 1.344 . S
C392 C396 1.328 . S
C392 C398 1.516 . S
C393 C394 1.304 . S
C393 C397 1.323 . S
C394 C393 1.304 . S
C394 C395 1.371 . S
C394 H408 0.930 . S
C395 C392 1.344 . S
C395 C394 1.371 . S
C395 H409 0.931 . S
C396 C392 1.328 . S
C396 C397 1.433 . S
C396 H410 0.931 . S
C397 C393 1.323 . S
C397 C396 1.433 . S
C397 H411 0.933 . S
C398 Dy376 2.738 . S
C398 O381 1.255 . S
C398 O382 1.249 . S
C398 C392 1.516 . S
C399 O383 1.254 . S
C399 O384 1.257 . S
C400 O385 1.266 . S
C400 O386 1.236 . S
C401 C404 1.344 . S
C401 C405 1.328 . S
C401 C407 1.516 . S
C402 C403 1.304 . S
C402 C406 1.323 . S
C403 C402 1.304 . S
C403 C404 1.371 . S
C403 H412 0.930 . S
C404 C401 1.344 . S
C404 C403 1.371 . S
C404 H413 0.931 . S
C405 C401 1.328 . S
C405 C406 1.433 . S
C405 H414 0.931 . S
C406 C402 1.323 . S
C406 C405 1.433 . S
C406 H415 0.933 . S
C407 Dy377 2.738 . S
C407 O387 1.255 . S
C407 O388 1.249 . S
C407 C401 1.516 . S
H408 C394 0.930 . S
H409 C395 0.931 . S
H410 C396 0.931 . S
H411 C397 0.933 . S
H412 C403 0.930 . S
H413 C404 0.931 . S
H414 C405 0.931 . S
H415 C406 0.933 . S
Dy416 O419 2.307 . S
Dy416 O421 2.395 . S
Dy416 O422 2.379 . S
Dy416 O424 2.339 . S
Dy416 O426 2.298 . S
Dy416 O430 2.275 . S
Dy416 C438 2.738 . S
Dy417 O420 2.298 . S
Dy417 O423 2.275 . S
Dy417 O425 2.307 . S
Dy417 O427 2.395 . S
Dy417 O428 2.379 . S
Dy417 O431 2.339 . S
Dy417 C447 2.738 . S
C418 O430 1.254 . S
C418 O431 1.257 . S
O419 Dy416 2.307 . S
O419 C429 1.266 1_545 S
O420 Dy417 2.298 . S
O420 C429 1.236 1_545 S
O421 Dy416 2.395 . S
O421 C438 1.255 . S
O422 Dy416 2.379 . S
O422 C438 1.249 . S
O423 Dy417 2.275 . S
O423 C439 1.254 . S
O424 Dy416 2.339 . S
O424 C439 1.257 . S
O425 Dy417 2.307 . S
O425 C440 1.266 . S
O426 Dy416 2.298 . S
O426 C440 1.236 . S
O427 Dy417 2.395 . S
O427 C447 1.255 . S
O428 Dy417 2.379 . S
O428 C447 1.249 . S
C429 O419 1.266 1_565 S
C429 O420 1.236 1_565 S
O430 Dy416 2.275 . S
O430 C418 1.254 . S
O431 Dy417 2.339 . S
O431 C418 1.257 . S
C432 C435 1.344 . S
C432 C436 1.328 . S
C432 C438 1.516 . S
C433 C434 1.304 . S
C433 C437 1.323 . S
C434 C433 1.304 . S
C434 C435 1.371 . S
C434 H448 0.930 . S
C435 C432 1.344 . S
C435 C434 1.371 . S
C435 H449 0.931 . S
C436 C432 1.328 . S
C436 C437 1.433 . S
C436 H450 0.931 . S
C437 C433 1.323 . S
C437 C436 1.433 . S
C437 H451 0.933 . S
C438 Dy416 2.738 . S
C438 O421 1.255 . S
C438 O422 1.249 . S
C438 C432 1.516 . S
C439 O423 1.254 . S
C439 O424 1.257 . S
C440 O425 1.266 . S
C440 O426 1.236 . S
C441 C444 1.344 1_545 S
C441 C445 1.328 . S
C441 C447 1.516 . S
C442 C443 1.304 . S
C442 C446 1.323 . S
C443 C442 1.304 . S
C443 C444 1.371 . S
C443 H452 0.930 . S
C444 C441 1.344 1_565 S
C444 C443 1.371 . S
C444 H453 0.931 . S
C445 C441 1.328 . S
C445 C446 1.433 1_545 S
C445 H454 0.931 . S
C446 C442 1.323 . S
C446 C445 1.433 1_565 S
C446 H455 0.933 . S
C447 Dy417 2.738 . S
C447 O427 1.255 . S
C447 O428 1.249 . S
C447 C441 1.516 . S
H448 C434 0.930 . S
H449 C435 0.931 . S
H450 C436 0.931 . S
H451 C437 0.933 . S
H452 C443 0.930 . S
H453 C444 0.931 . S
H454 C445 0.931 . S
H455 C446 0.933 . S
Dy456 O459 2.307 . S
Dy456 O461 2.395 . S
Dy456 O462 2.379 . S
Dy456 O464 2.339 . S
Dy456 O466 2.298 . S
Dy456 O470 2.275 . S
Dy456 C478 2.738 . S
Dy457 O460 2.298 . S
Dy457 O463 2.275 . S
Dy457 O465 2.307 . S
Dy457 O467 2.395 . S
Dy457 O468 2.379 . S
Dy457 O471 2.339 . S
Dy457 C487 2.738 . S
C458 O470 1.254 . S
C458 O471 1.257 . S
O459 Dy456 2.307 . S
O459 C469 1.266 . S
O460 Dy457 2.298 . S
O460 C469 1.236 . S
O461 Dy456 2.395 . S
O461 C478 1.255 . S
O462 Dy456 2.379 . S
O462 C478 1.249 . S
O463 Dy457 2.275 . S
O463 C479 1.254 . S
O464 Dy456 2.339 . S
O464 C479 1.257 . S
O465 Dy457 2.307 . S
O465 C480 1.266 . S
O466 Dy456 2.298 . S
O466 C480 1.236 . S
O467 Dy457 2.395 . S
O467 C487 1.255 . S
O468 Dy457 2.379 . S
O468 C487 1.249 . S
C469 O459 1.266 . S
C469 O460 1.236 . S
O470 Dy456 2.275 . S
O470 C458 1.254 . S
O471 Dy457 2.339 . S
O471 C458 1.257 . S
C472 C475 1.344 . S
C472 C476 1.328 . S
C472 C478 1.516 . S
C473 C474 1.304 . S
C473 C477 1.323 . S
C474 C473 1.304 . S
C474 C475 1.371 . S
C474 H488 0.930 . S
C475 C472 1.344 . S
C475 C474 1.371 . S
C475 H489 0.931 . S
C476 C472 1.328 . S
C476 C477 1.433 . S
C476 H490 0.931 . S
C477 C473 1.323 . S
C477 C476 1.433 . S
C477 H491 0.933 . S
C478 Dy456 2.738 . S
C478 O461 1.255 . S
C478 O462 1.249 . S
C478 C472 1.516 . S
C479 O463 1.254 . S
C479 O464 1.257 . S
C480 O465 1.266 . S
C480 O466 1.236 . S
C481 C484 1.344 . S
C481 C485 1.328 . S
C481 C487 1.516 . S
C482 C483 1.304 . S
C482 C486 1.323 . S
C483 C482 1.304 . S
C483 C484 1.371 . S
C483 H492 0.930 . S
C484 C481 1.344 . S
C484 C483 1.371 . S
C484 H493 0.931 . S
C485 C481 1.328 . S
C485 C486 1.433 . S
C485 H494 0.931 . S
C486 C482 1.323 . S
C486 C485 1.433 . S
C486 H495 0.933 . S
C487 Dy457 2.738 . S
C487 O467 1.255 . S
C487 O468 1.249 . S
C487 C481 1.516 . S
H488 C474 0.930 . S
H489 C475 0.931 . S
H490 C476 0.931 . S
H491 C477 0.933 . S
H492 C483 0.930 . S
H493 C484 0.931 . S
H494 C485 0.931 . S
H495 C486 0.933 . S
Dy496 O499 2.307 . S
Dy496 O501 2.395 1_545 S
Dy496 O502 2.379 1_545 S
Dy496 O504 2.339 . S
Dy496 O506 2.298 . S
Dy496 O510 2.275 . S
Dy496 C518 2.738 1_545 S
Dy497 O500 2.298 . S
Dy497 O503 2.275 . S
Dy497 O505 2.307 . S
Dy497 O507 2.395 . S
Dy497 O508 2.379 . S
Dy497 O511 2.339 1_455 S
Dy497 C527 2.738 . S
C498 O510 1.254 1_655 S
C498 O511 1.257 . S
O499 Dy496 2.307 . S
O499 C509 1.266 . S
O500 Dy497 2.298 . S
O500 C509 1.236 . S
O501 Dy496 2.395 1_565 S
O501 C518 1.255 . S
O502 Dy496 2.379 1_565 S
O502 C518 1.249 . S
O503 Dy497 2.275 . S
O503 C519 1.254 . S
O504 Dy496 2.339 . S
O504 C519 1.257 . S
O505 Dy497 2.307 . S
O505 C520 1.266 . S
O506 Dy496 2.298 . S
O506 C520 1.236 . S
O507 Dy497 2.395 . S
O507 C527 1.255 . S
O508 Dy497 2.379 . S
O508 C527 1.249 . S
C509 O499 1.266 . S
C509 O500 1.236 . S
O510 Dy496 2.275 . S
O510 C498 1.254 1_455 S
O511 Dy497 2.339 1_655 S
O511 C498 1.257 . S
C512 C515 1.344 . S
C512 C516 1.328 . S
C512 C518 1.516 . S
C513 C514 1.304 . S
C513 C517 1.323 . S
C514 C513 1.304 . S
C514 C515 1.371 . S
C514 H528 0.930 . S
C515 C512 1.344 . S
C515 C514 1.371 . S
C515 H529 0.931 . S
C516 C512 1.328 . S
C516 C517 1.433 . S
C516 H530 0.931 . S
C517 C513 1.323 . S
C517 C516 1.433 . S
C517 H531 0.933 . S
C518 Dy496 2.738 1_565 S
C518 O501 1.255 . S
C518 O502 1.249 . S
C518 C512 1.516 . S
C519 O503 1.254 . S
C519 O504 1.257 . S
C520 O505 1.266 . S
C520 O506 1.236 . S
C521 C524 1.344 . S
C521 C525 1.328 . S
C521 C527 1.516 . S
C522 C523 1.304 . S
C522 C526 1.323 . S
C523 C522 1.304 . S
C523 C524 1.371 . S
C523 H532 0.930 . S
C524 C521 1.344 . S
C524 C523 1.371 . S
C524 H533 0.931 . S
C525 C521 1.328 . S
C525 C526 1.433 . S
C525 H534 0.931 1_455 S
C526 C522 1.323 . S
C526 C525 1.433 . S
C526 H535 0.933 1_455 S
C527 Dy497 2.738 . S
C527 O507 1.255 . S
C527 O508 1.249 . S
C527 C521 1.516 . S
H528 C514 0.930 . S
H529 C515 0.931 . S
H530 C516 0.931 . S
H531 C517 0.933 . S
H532 C523 0.930 . S
H533 C524 0.931 . S
H534 C525 0.931 1_655 S
H535 C526 0.933 1_655 S
Dy536 O539 2.307 . S
Dy536 O541 2.395 . S
Dy536 O542 2.379 . S
Dy536 O544 2.339 . S
Dy536 O546 2.298 . S
Dy536 O550 2.275 . S
Dy536 C558 2.738 . S
Dy537 O540 2.298 . S
Dy537 O543 2.275 . S
Dy537 O545 2.307 . S
Dy537 O547 2.395 . S
Dy537 O548 2.379 . S
Dy537 O551 2.339 . S
Dy537 C567 2.738 . S
C538 O550 1.254 . S
C538 O551 1.257 . S
O539 Dy536 2.307 . S
O539 C549 1.266 . S
O540 Dy537 2.298 . S
O540 C549 1.236 . S
O541 Dy536 2.395 . S
O541 C558 1.255 . S
O542 Dy536 2.379 . S
O542 C558 1.249 . S
O543 Dy537 2.275 . S
O543 C559 1.254 . S
O544 Dy536 2.339 . S
O544 C559 1.257 . S
O545 Dy537 2.307 . S
O545 C560 1.266 . S
O546 Dy536 2.298 . S
O546 C560 1.236 . S
O547 Dy537 2.395 . S
O547 C567 1.255 . S
O548 Dy537 2.379 . S
O548 C567 1.249 . S
C549 O539 1.266 . S
C549 O540 1.236 . S
O550 Dy536 2.275 . S
O550 C538 1.254 . S
O551 Dy537 2.339 . S
O551 C538 1.257 . S
C552 C555 1.344 . S
C552 C556 1.328 . S
C552 C558 1.516 . S
C553 C554 1.304 . S
C553 C557 1.323 . S
C554 C553 1.304 . S
C554 C555 1.371 . S
C554 H568 0.930 . S
C555 C552 1.344 . S
C555 C554 1.371 . S
C555 H569 0.931 . S
C556 C552 1.328 . S
C556 C557 1.433 . S
C556 H570 0.931 . S
C557 C553 1.323 . S
C557 C556 1.433 . S
C557 H571 0.933 . S
C558 Dy536 2.738 . S
C558 O541 1.255 . S
C558 O542 1.249 . S
C558 C552 1.516 . S
C559 O543 1.254 . S
C559 O544 1.257 . S
C560 O545 1.266 . S
C560 O546 1.236 . S
C561 C564 1.344 . S
C561 C565 1.328 . S
C561 C567 1.516 . S
C562 C563 1.304 . S
C562 C566 1.323 . S
C563 C562 1.304 . S
C563 C564 1.371 . S
C563 H572 0.930 . S
C564 C561 1.344 . S
C564 C563 1.371 . S
C564 H573 0.931 . S
C565 C561 1.328 . S
C565 C566 1.433 . S
C565 H574 0.931 . S
C566 C562 1.323 . S
C566 C565 1.433 . S
C566 H575 0.933 . S
C567 Dy537 2.738 . S
C567 O547 1.255 . S
C567 O548 1.249 . S
C567 C561 1.516 . S
H568 C554 0.930 . S
H569 C555 0.931 . S
H570 C556 0.931 . S
H571 C557 0.933 . S
H572 C563 0.930 . S
H573 C564 0.931 . S
H574 C565 0.931 . S
H575 C566 0.933 . S
Dy576 O579 2.307 . S
Dy576 O581 2.395 1_554 S
Dy576 O582 2.379 1_554 S
Dy576 O584 2.339 . S
Dy576 O586 2.298 . S
Dy576 O590 2.275 . S
Dy576 C598 2.738 1_554 S
Dy577 O580 2.298 . S
Dy577 O583 2.275 . S
Dy577 O585 2.307 . S
Dy577 O587 2.395 . S
Dy577 O588 2.381 . S
Dy577 O591 2.339 1_545 S
Dy577 C607 2.738 . S
C578 O590 1.303 . S
C578 O591 1.240 1_545 S
O579 Dy576 2.307 . S
O579 C589 1.266 . S
O580 Dy577 2.298 . S
O580 C589 1.236 . S
O581 Dy576 2.395 1_556 S
O581 C598 1.255 . S
O582 Dy576 2.379 1_556 S
O582 C598 1.249 . S
O583 Dy577 2.275 . S
O583 C599 1.254 . S
O584 Dy576 2.339 . S
O584 C599 1.257 . S
O585 Dy577 2.307 . S
O585 C600 1.266 . S
O586 Dy576 2.298 . S
O586 C600 1.236 . S
O587 Dy577 2.395 . S
O587 C607 1.255 . S
O588 Dy577 2.381 . S
O588 C607 1.252 . S
C589 O579 1.266 . S
C589 O580 1.236 . S
O590 Dy576 2.275 . S
O590 C578 1.303 . S
O591 Dy577 2.339 1_565 S
O591 C578 1.240 1_565 S
C592 C595 1.344 . S
C592 C596 1.328 . S
C592 C598 1.516 . S
C593 C594 1.304 . S
C593 C597 1.323 . S
C594 C593 1.304 . S
C594 C595 1.371 . S
C594 H608 0.930 . S
C595 C592 1.344 . S
C595 C594 1.371 . S
C595 H609 0.931 . S
C596 C592 1.328 . S
C596 C597 1.433 . S
C596 H610 0.931 . S
C597 C593 1.323 . S
C597 C596 1.433 . S
C597 H611 0.933 . S
C598 Dy576 2.738 1_556 S
C598 O581 1.255 . S
C598 O582 1.249 . S
C598 C592 1.516 . S
C599 O583 1.254 . S
C599 O584 1.257 . S
C600 O585 1.266 . S
C600 O586 1.236 . S
C601 C604 1.344 . S
C601 C605 1.328 1_545 S
C601 C607 1.516 . S
C602 C603 1.304 1_565 S
C602 C606 1.323 . S
C603 C602 1.304 1_545 S
C603 C604 1.371 . S
C603 H612 0.930 . S
C604 C601 1.344 . S
C604 C603 1.371 . S
C604 H613 0.931 . S
C605 C601 1.328 1_565 S
C605 C606 1.433 . S
C605 H614 0.931 . S
C606 C602 1.323 . S
C606 C605 1.433 . S
C606 H615 0.933 . S
C607 Dy577 2.738 . S
C607 O587 1.255 . S
C607 O588 1.252 . S
C607 C601 1.516 . S
H608 C594 0.930 . S
H609 C595 0.931 . S
H610 C596 0.931 . S
H611 C597 0.933 . S
H612 C603 0.930 . S
H613 C604 0.931 . S
H614 C605 0.931 . S
H615 C606 0.933 . S
Dy616 O619 2.307 . S
Dy616 O621 2.395 . S
Dy616 O622 2.379 . S
Dy616 O624 2.339 . S
Dy616 O626 2.298 . S
Dy616 O630 2.275 . S
Dy616 C638 2.738 . S
Dy617 O620 2.298 . S
Dy617 O623 2.275 . S
Dy617 O625 2.307 . S
Dy617 O627 2.395 . S
Dy617 O628 2.379 . S
Dy617 O631 2.339 . S
Dy617 C647 2.738 . S
C618 O630 1.254 . S
C618 O631 1.257 . S
O619 Dy616 2.307 . S
O619 C629 1.266 . S
O620 Dy617 2.298 . S
O620 C629 1.236 . S
O621 Dy616 2.395 . S
O621 C638 1.255 . S
O622 Dy616 2.379 . S
O622 C638 1.249 . S
O623 Dy617 2.275 . S
O623 C639 1.254 . S
O624 Dy616 2.339 . S
O624 C639 1.257 . S
O625 Dy617 2.307 . S
O625 C640 1.266 . S
O626 Dy616 2.298 . S
O626 C640 1.236 . S
O627 Dy617 2.395 . S
O627 C647 1.255 . S
O628 Dy617 2.379 . S
O628 C647 1.249 . S
C629 O619 1.266 . S
C629 O620 1.236 . S
O630 Dy616 2.275 . S
O630 C618 1.254 . S
O631 Dy617 2.339 . S
O631 C618 1.257 . S
C632 C635 1.344 . S
C632 C636 1.328 . S
C632 C638 1.516 . S
C633 C634 1.304 . S
C633 C637 1.323 . S
C634 C633 1.304 . S
C634 C635 1.371 . S
C634 H648 0.930 . S
C635 C632 1.344 . S
C635 C634 1.371 . S
C635 H649 0.931 . S
C636 C632 1.328 . S
C636 C637 1.433 . S
C636 H650 0.931 . S
C637 C633 1.323 . S
C637 C636 1.433 . S
C637 H651 0.933 . S
C638 Dy616 2.738 . S
C638 O621 1.255 . S
C638 O622 1.249 . S
C638 C632 1.516 . S
C639 O623 1.254 . S
C639 O624 1.257 . S
C640 O625 1.266 . S
C640 O626 1.236 . S
C641 C644 1.344 . S
C641 C645 1.328 . S
C641 C647 1.516 . S
C642 C643 1.304 . S
C642 C646 1.323 . S
C643 C642 1.304 . S
C643 C644 1.371 . S
C643 H652 0.930 . S
C644 C641 1.344 . S
C644 C643 1.371 . S
C644 H653 0.931 . S
C645 C641 1.328 . S
C645 C646 1.433 . S
C645 H654 0.931 . S
C646 C642 1.323 . S
C646 C645 1.433 . S
C646 H655 0.933 . S
C647 Dy617 2.738 . S
C647 O627 1.255 . S
C647 O628 1.249 . S
C647 C641 1.516 . S
H648 C634 0.930 . S
H649 C635 0.931 . S
H650 C636 0.931 . S
H651 C637 0.933 . S
H652 C643 0.930 . S
H653 C644 0.931 . S
H654 C645 0.931 . S
H655 C646 0.933 . S
Dy656 O659 2.307 . S
Dy656 O661 2.395 . S
Dy656 O662 2.379 . S
Dy656 O664 2.339 . S
Dy656 O666 2.298 . S
Dy656 O670 2.275 . S
Dy656 C678 2.738 . S
Dy657 O660 2.298 . S
Dy657 O663 2.275 . S
Dy657 O665 2.307 . S
Dy657 O667 2.395 . S
Dy657 O668 2.379 . S
Dy657 O671 2.339 . S
Dy657 C687 2.738 . S
C658 O670 1.254 . S
C658 O671 1.257 . S
O659 Dy656 2.307 . S
O659 C669 1.266 . S
O660 Dy657 2.298 . S
O660 C669 1.236 . S
O661 Dy656 2.395 . S
O661 C678 1.255 . S
O662 Dy656 2.379 . S
O662 C678 1.249 . S
O663 Dy657 2.275 . S
O663 C679 1.254 . S
O664 Dy656 2.339 . S
O664 C679 1.257 . S
O665 Dy657 2.307 . S
O665 C680 1.266 . S
O666 Dy656 2.298 . S
O666 C680 1.236 . S
O667 Dy657 2.395 . S
O667 C687 1.255 . S
O668 Dy657 2.379 . S
O668 C687 1.249 . S
C669 O659 1.266 . S
C669 O660 1.236 . S
O670 Dy656 2.275 . S
O670 C658 1.254 . S
O671 Dy657 2.339 . S
O671 C658 1.257 . S
C672 C675 1.344 . S
C672 C676 1.328 . S
C672 C678 1.516 . S
C673 C674 1.304 . S
C673 C677 1.323 . S
C674 C673 1.304 . S
C674 C675 1.371 . S
C674 H688 0.930 . S
C675 C672 1.344 . S
C675 C674 1.371 . S
C675 H689 0.931 . S
C676 C672 1.328 . S
C676 C677 1.433 . S
C676 H690 0.931 . S
C677 C673 1.323 . S
C677 C676 1.433 . S
C677 H691 0.933 . S
C678 Dy656 2.738 . S
C678 O661 1.255 . S
C678 O662 1.249 . S
C678 C672 1.516 . S
C679 O663 1.254 . S
C679 O664 1.257 . S
C680 O665 1.266 . S
C680 O666 1.236 . S
C681 C684 1.344 . S
C681 C685 1.328 . S
C681 C687 1.516 . S
C682 C683 1.304 . S
C682 C686 1.323 1_556 S
C683 C682 1.304 . S
C683 C684 1.371 1_556 S
C683 H692 0.930 . S
C684 C681 1.344 . S
C684 C683 1.371 1_554 S
C684 H693 0.931 . S
C685 C681 1.328 . S
C685 C686 1.433 . S
C685 H694 0.931 . S
C686 C682 1.323 1_554 S
C686 C685 1.433 . S
C686 H695 0.933 . S
C687 Dy657 2.738 . S
C687 O667 1.255 . S
C687 O668 1.249 . S
C687 C681 1.516 . S
H688 C674 0.930 . S
H689 C675 0.931 . S
H690 C676 0.931 . S
H691 C677 0.933 . S
H692 C683 0.930 . S
H693 C684 0.931 . S
H694 C685 0.931 . S
H695 C686 0.933 . S
Dy696 O699 2.307 . S
Dy696 O701 2.395 . S
Dy696 O702 2.379 . S
Dy696 O704 2.339 . S
Dy696 O706 2.298 . S
Dy696 O710 2.275 . S
Dy696 C718 2.738 . S
Dy697 O700 2.298 . S
Dy697 O703 2.275 . S
Dy697 O705 2.307 . S
Dy697 O707 2.395 . S
Dy697 O708 2.379 . S
Dy697 O711 2.339 . S
Dy697 C727 2.738 . S
C698 O710 1.254 . S
C698 O711 1.257 . S
O699 Dy696 2.307 . S
O699 C709 1.266 . S
O700 Dy697 2.298 . S
O700 C709 1.236 . S
O701 Dy696 2.395 . S
O701 C718 1.255 . S
O702 Dy696 2.379 . S
O702 C718 1.249 . S
O703 Dy697 2.275 . S
O703 C719 1.254 . S
O704 Dy696 2.339 . S
O704 C719 1.257 . S
O705 Dy697 2.307 . S
O705 C720 1.266 . S
O706 Dy696 2.298 . S
O706 C720 1.236 . S
O707 Dy697 2.395 . S
O707 C727 1.255 . S
O708 Dy697 2.379 . S
O708 C727 1.249 . S
C709 O699 1.266 . S
C709 O700 1.236 . S
O710 Dy696 2.275 . S
O710 C698 1.254 . S
O711 Dy697 2.339 . S
O711 C698 1.257 . S
C712 C715 1.344 . S
C712 C716 1.328 . S
C712 C718 1.516 . S
C713 C714 1.304 . S
C713 C717 1.323 . S
C714 C713 1.304 . S
C714 C715 1.371 . S
C714 H728 0.930 . S
C715 C712 1.344 . S
C715 C714 1.371 . S
C715 H729 0.931 . S
C716 C712 1.328 . S
C716 C717 1.433 . S
C716 H730 0.931 . S
C717 C713 1.323 . S
C717 C716 1.433 . S
C717 H731 0.933 . S
C718 Dy696 2.738 . S
C718 O701 1.255 . S
C718 O702 1.249 . S
C718 C712 1.516 . S
C719 O703 1.254 . S
C719 O704 1.257 . S
C720 O705 1.266 . S
C720 O706 1.236 . S
C721 C724 1.344 . S
C721 C725 1.328 . S
C721 C727 1.516 . S
C722 C723 1.304 . S
C722 C726 1.323 . S
C723 C722 1.304 . S
C723 C724 1.371 . S
C723 H732 0.930 . S
C724 C721 1.344 . S
C724 C723 1.371 . S
C724 H733 0.931 . S
C725 C721 1.328 . S
C725 C726 1.433 . S
C725 H734 0.931 . S
C726 C722 1.323 . S
C726 C725 1.433 . S
C726 H735 0.933 . S
C727 Dy697 2.738 . S
C727 O707 1.255 . S
C727 O708 1.249 . S
C727 C721 1.516 . S
H728 C714 0.930 . S
H729 C715 0.931 . S
H730 C716 0.931 . S
H731 C717 0.933 . S
H732 C723 0.930 . S
H733 C724 0.931 . S
H734 C725 0.931 . S
H735 C726 0.933 . S
Dy736 O739 2.307 1_455 S
Dy736 O741 2.395 . S
Dy736 O742 2.379 . S
Dy736 O744 2.339 . S
Dy736 O746 2.298 . S
Dy736 O750 2.275 . S
Dy736 C758 2.738 . S
Dy737 O740 2.298 1_455 S
Dy737 O743 2.275 . S
Dy737 O745 2.307 . S
Dy737 O747 2.395 . S
Dy737 O748 2.379 . S
Dy737 O751 2.339 . S
Dy737 C767 2.752 . S
C738 O750 1.254 . S
C738 O751 1.257 . S
O739 Dy736 2.307 1_655 S
O739 C749 1.266 . S
O740 Dy737 2.298 1_655 S
O740 C749 1.236 . S
O741 Dy736 2.395 . S
O741 C758 1.255 . S
O742 Dy736 2.379 . S
O742 C758 1.249 . S
O743 Dy737 2.275 . S
O743 C759 1.254 . S
O744 Dy736 2.339 . S
O744 C759 1.257 . S
O745 Dy737 2.307 . S
O745 C760 1.266 . S
O746 Dy736 2.298 . S
O746 C760 1.236 . S
O747 Dy737 2.395 . S
O747 C767 1.252 . S
O748 Dy737 2.379 . S
O748 C767 1.266 . S
C749 O739 1.266 . S
C749 O740 1.236 . S
O750 Dy736 2.275 . S
O750 C738 1.254 . S
O751 Dy737 2.339 . S
O751 C738 1.257 . S
C752 C755 1.344 . S
C752 C756 1.328 . S
C752 C758 1.516 . S
C753 C754 1.304 . S
C753 C757 1.323 . S
C754 C753 1.304 . S
C754 C755 1.371 . S
C754 H768 0.930 . S
C755 C752 1.344 . S
C755 C754 1.371 . S
C755 H769 0.931 . S
C756 C752 1.328 . S
C756 C757 1.433 . S
C756 H770 0.931 . S
C757 C753 1.323 . S
C757 C756 1.433 . S
C757 H771 0.933 . S
C758 Dy736 2.738 . S
C758 O741 1.255 . S
C758 O742 1.249 . S
C758 C752 1.516 . S
C759 O743 1.254 . S
C759 O744 1.257 . S
C760 O745 1.266 . S
C760 O746 1.236 . S
C761 C764 1.344 . S
C761 C765 1.328 . S
C761 C767 1.502 1_655 S
C762 C763 1.304 . S
C762 C766 1.323 . S
C763 C762 1.304 . S
C763 C764 1.371 . S
C763 H772 0.930 . S
C764 C761 1.344 . S
C764 C763 1.371 . S
C764 H773 0.931 . S
C765 C761 1.328 . S
C765 C766 1.433 . S
C765 H774 0.931 . S
C766 C762 1.323 . S
C766 C765 1.433 . S
C766 H775 0.933 . S
C767 Dy737 2.752 . S
C767 O747 1.252 . S
C767 O748 1.266 . S
C767 C761 1.502 1_455 S
H768 C754 0.930 . S
H769 C755 0.931 . S
H770 C756 0.931 . S
H771 C757 0.933 . S
H772 C763 0.930 . S
H773 C764 0.931 . S
H774 C765 0.931 . S
H775 C766 0.933 . S
Dy776 O779 2.307 . S
Dy776 O781 2.395 . S
Dy776 O782 2.379 . S
Dy776 O784 2.339 . S
Dy776 O786 2.298 . S
Dy776 O790 2.275 . S
Dy776 C798 2.738 . S
Dy777 O780 2.298 . S
Dy777 O783 2.275 . S
Dy777 O785 2.307 . S
Dy777 O787 2.395 . S
Dy777 O788 2.379 . S
Dy777 O791 2.339 . S
Dy777 C807 2.738 . S
C778 O790 1.254 . S
C778 O791 1.257 . S
O779 Dy776 2.307 . S
O779 C789 1.266 . S
O780 Dy777 2.298 . S
O780 C789 1.236 . S
O781 Dy776 2.395 . S
O781 C798 1.255 . S
O782 Dy776 2.379 . S
O782 C798 1.249 . S
O783 Dy777 2.275 . S
O783 C799 1.254 . S
O784 Dy776 2.339 . S
O784 C799 1.257 . S
O785 Dy777 2.307 . S
O785 C800 1.266 . S
O786 Dy776 2.298 . S
O786 C800 1.236 . S
O787 Dy777 2.395 . S
O787 C807 1.255 . S
O788 Dy777 2.379 . S
O788 C807 1.249 . S
C789 O779 1.266 . S
C789 O780 1.236 . S
O790 Dy776 2.275 . S
O790 C778 1.254 . S
O791 Dy777 2.339 . S
O791 C778 1.257 . S
C792 C795 1.344 . S
C792 C796 1.328 . S
C792 C798 1.516 . S
C793 C794 1.304 . S
C793 C797 1.323 . S
C794 C793 1.304 . S
C794 C795 1.371 . S
C794 H808 0.930 . S
C795 C792 1.344 . S
C795 C794 1.371 . S
C795 H809 0.931 . S
C796 C792 1.328 . S
C796 C797 1.433 . S
C796 H810 0.931 . S
C797 C793 1.323 . S
C797 C796 1.433 . S
C797 H811 0.933 . S
C798 Dy776 2.738 . S
C798 O781 1.255 . S
C798 O782 1.249 . S
C798 C792 1.516 . S
C799 O783 1.254 . S
C799 O784 1.257 . S
C800 O785 1.266 . S
C800 O786 1.236 . S
C801 C804 1.344 . S
C801 C805 1.328 . S
C801 C807 1.516 . S
C802 C803 1.304 . S
C802 C806 1.323 . S
C803 C802 1.304 . S
C803 C804 1.371 . S
C803 H812 0.930 . S
C804 C801 1.344 . S
C804 C803 1.371 . S
C804 H813 0.931 . S
C805 C801 1.328 . S
C805 C806 1.433 . S
C805 H814 0.931 . S
C806 C802 1.323 . S
C806 C805 1.433 . S
C806 H815 0.933 . S
C807 Dy777 2.738 . S
C807 O787 1.255 . S
C807 O788 1.249 . S
C807 C801 1.516 . S
H808 C794 0.930 . S
H809 C795 0.931 . S
H810 C796 0.931 . S
H811 C797 0.933 . S
H812 C803 0.930 . S
H813 C804 0.931 . S
H814 C805 0.931 . S
H815 C806 0.933 . S
Dy816 O819 2.307 . S
Dy816 O821 2.395 . S
Dy816 O822 2.379 . S
Dy816 O824 2.339 . S
Dy816 O826 2.298 . S
Dy816 O830 2.275 . S
Dy816 C838 2.738 . S
Dy817 O820 2.298 . S
Dy817 O823 2.275 . S
Dy817 O825 2.307 . S
Dy817 O827 2.395 . S
Dy817 O828 2.379 . S
Dy817 O831 2.339 . S
Dy817 C847 2.738 . S
C818 O830 1.254 . S
C818 O831 1.257 . S
O819 Dy816 2.307 . S
O819 C829 1.266 . S
O820 Dy817 2.298 . S
O820 C829 1.236 . S
O821 Dy816 2.395 . S
O821 C838 1.255 . S
O822 Dy816 2.379 . S
O822 C838 1.249 . S
O823 Dy817 2.275 . S
O823 C839 1.254 . S
O824 Dy816 2.339 . S
O824 C839 1.257 . S
O825 Dy817 2.307 . S
O825 C840 1.266 . S
O826 Dy816 2.298 . S
O826 C840 1.236 . S
O827 Dy817 2.395 . S
O827 C847 1.255 . S
O828 Dy817 2.379 . S
O828 C847 1.249 . S
C829 O819 1.266 . S
C829 O820 1.236 . S
O830 Dy816 2.275 . S
O830 C818 1.254 . S
O831 Dy817 2.339 . S
O831 C818 1.257 . S
C832 C835 1.344 . S
C832 C836 1.328 . S
C832 C838 1.516 . S
C833 C834 1.304 . S
C833 C837 1.323 . S
C834 C833 1.304 . S
C834 C835 1.371 . S
C834 H848 0.930 . S
C835 C832 1.344 . S
C835 C834 1.371 . S
C835 H849 0.931 . S
C836 C832 1.328 . S
C836 C837 1.433 . S
C836 H850 0.931 . S
C837 C833 1.323 . S
C837 C836 1.433 . S
C837 H851 0.933 . S
C838 Dy816 2.738 . S
C838 O821 1.255 . S
C838 O822 1.249 . S
C838 C832 1.516 . S
C839 O823 1.254 . S
C839 O824 1.257 . S
C840 O825 1.266 . S
C840 O826 1.236 . S
C841 C844 1.344 . S
C841 C845 1.328 . S
C841 C847 1.516 . S
C842 C843 1.304 . S
C842 C846 1.323 . S
C843 C842 1.304 . S
C843 C844 1.371 . S
C843 H852 0.930 . S
C844 C841 1.344 . S
C844 C843 1.371 . S
C844 H853 0.931 . S
C845 C841 1.328 . S
C845 C846 1.433 . S
C845 H854 0.931 . S
C846 C842 1.323 . S
C846 C845 1.433 . S
C846 H855 0.933 . S
C847 Dy817 2.738 . S
C847 O827 1.255 . S
C847 O828 1.249 . S
C847 C841 1.516 . S
H848 C834 0.930 . S
H849 C835 0.931 . S
H850 C836 0.931 . S
H851 C837 0.933 . S
H852 C843 0.930 . S
H853 C844 0.931 . S
H854 C845 0.931 . S
H855 C846 0.933 . S
Dy856 O859 2.307 . S
Dy856 O861 2.395 . S
Dy856 O862 2.379 . S
Dy856 O864 2.339 . S
Dy856 O866 2.298 . S
Dy856 O870 2.275 . S
Dy856 C878 2.738 . S
Dy857 O860 2.298 . S
Dy857 O863 2.275 . S
Dy857 O865 2.307 . S
Dy857 O867 2.395 . S
Dy857 O868 2.379 . S
Dy857 O871 2.339 . S
Dy857 C887 2.738 . S
C858 O870 1.254 . S
C858 O871 1.257 . S
O859 Dy856 2.307 . S
O859 C869 1.266 . S
O860 Dy857 2.298 . S
O860 C869 1.236 . S
O861 Dy856 2.395 . S
O861 C878 1.255 . S
O862 Dy856 2.379 . S
O862 C878 1.249 . S
O863 Dy857 2.275 . S
O863 C879 1.254 . S
O864 Dy856 2.339 . S
O864 C879 1.257 . S
O865 Dy857 2.307 . S
O865 C880 1.266 . S
O866 Dy856 2.298 . S
O866 C880 1.236 . S
O867 Dy857 2.395 . S
O867 C887 1.255 . S
O868 Dy857 2.379 . S
O868 C887 1.249 . S
C869 O859 1.266 . S
C869 O860 1.236 . S
O870 Dy856 2.275 . S
O870 C858 1.254 . S
O871 Dy857 2.339 . S
O871 C858 1.257 . S
C872 C875 1.344 . S
C872 C876 1.328 . S
C872 C878 1.516 . S
C873 C874 1.304 . S
C873 C877 1.323 . S
C874 C873 1.304 . S
C874 C875 1.371 . S
C874 H888 0.930 . S
C875 C872 1.344 . S
C875 C874 1.371 . S
C875 H889 0.931 . S
C876 C872 1.328 . S
C876 C877 1.433 . S
C876 H890 0.931 . S
C877 C873 1.323 . S
C877 C876 1.433 . S
C877 H891 0.933 . S
C878 Dy856 2.738 . S
C878 O861 1.255 . S
C878 O862 1.249 . S
C878 C872 1.516 . S
C879 O863 1.254 . S
C879 O864 1.257 . S
C880 O865 1.266 . S
C880 O866 1.236 . S
C881 C884 1.344 . S
C881 C885 1.328 . S
C881 C887 1.516 . S
C882 C883 1.304 . S
C882 C886 1.323 . S
C883 C882 1.304 . S
C883 C884 1.371 . S
C883 H892 0.930 . S
C884 C881 1.344 . S
C884 C883 1.371 . S
C884 H893 0.931 . S
C885 C881 1.328 . S
C885 C886 1.433 . S
C885 H894 0.931 . S
C886 C882 1.323 . S
C886 C885 1.433 . S
C886 H895 0.933 . S
C887 Dy857 2.738 . S
C887 O867 1.255 . S
C887 O868 1.249 . S
C887 C881 1.516 . S
H888 C874 0.930 . S
H889 C875 0.931 . S
H890 C876 0.931 . S
H891 C877 0.933 . S
H892 C883 0.930 . S
H893 C884 0.931 . S
H894 C885 0.931 . S
H895 C886 0.933 . S
Dy896 O899 2.307 . S
Dy896 O901 2.395 . S
Dy896 O902 2.379 . S
Dy896 O904 2.339 . S
Dy896 O906 2.298 . S
Dy896 O910 2.275 . S
Dy896 C918 2.738 . S
Dy897 O900 2.298 . S
Dy897 O903 2.275 . S
Dy897 O905 2.307 . S
Dy897 O907 2.395 . S
Dy897 O908 2.379 . S
Dy897 O911 2.339 . S
Dy897 C927 2.738 . S
C898 O910 1.254 . S
C898 O911 1.257 . S
O899 Dy896 2.307 . S
O899 C909 1.266 . S
O900 Dy897 2.298 . S
O900 C909 1.236 . S
O901 Dy896 2.395 . S
O901 C918 1.255 . S
O902 Dy896 2.379 . S
O902 C918 1.249 . S
O903 Dy897 2.275 . S
O903 C919 1.254 . S
O904 Dy896 2.339 . S
O904 C919 1.257 . S
O905 Dy897 2.307 . S
O905 C920 1.266 . S
O906 Dy896 2.298 . S
O906 C920 1.236 . S
O907 Dy897 2.395 . S
O907 C927 1.255 . S
O908 Dy897 2.379 . S
O908 C927 1.249 . S
C909 O899 1.266 . S
C909 O900 1.236 . S
O910 Dy896 2.275 . S
O910 C898 1.254 . S
O911 Dy897 2.339 . S
O911 C898 1.257 . S
C912 C915 1.344 . S
C912 C916 1.328 . S
C912 C918 1.516 . S
C913 C914 1.304 . S
C913 C917 1.323 . S
C914 C913 1.304 . S
C914 C915 1.371 . S
C914 H928 0.930 . S
C915 C912 1.344 . S
C915 C914 1.371 . S
C915 H929 0.931 . S
C916 C912 1.328 . S
C916 C917 1.433 . S
C916 H930 0.931 . S
C917 C913 1.323 . S
C917 C916 1.433 . S
C917 H931 0.933 . S
C918 Dy896 2.738 . S
C918 O901 1.255 . S
C918 O902 1.249 . S
C918 C912 1.516 . S
C919 O903 1.254 . S
C919 O904 1.257 . S
C920 O905 1.266 . S
C920 O906 1.236 . S
C921 C924 1.344 . S
C921 C925 1.328 . S
C921 C927 1.516 . S
C922 C923 1.304 . S
C922 C926 1.323 . S
C923 C922 1.304 . S
C923 C924 1.371 . S
C923 H932 0.930 . S
C924 C921 1.344 . S
C924 C923 1.371 . S
C924 H933 0.931 . S
C925 C921 1.328 . S
C925 C926 1.433 . S
C925 H934 0.931 . S
C926 C922 1.323 . S
C926 C925 1.433 . S
C926 H935 0.933 . S
C927 Dy897 2.738 . S
C927 O907 1.255 . S
C927 O908 1.249 . S
C927 C921 1.516 . S
H928 C914 0.930 . S
H929 C915 0.931 . S
H930 C916 0.931 . S
H931 C917 0.933 . S
H932 C923 0.930 . S
H933 C924 0.931 . S
H934 C925 0.931 . S
H935 C926 0.933 . S
Dy936 O939 2.323 . S
Dy936 O941 2.371 1_455 S
Dy936 O942 2.358 1_455 S
Dy936 O944 2.353 . S
Dy936 O946 2.306 . S
Dy936 O950 2.286 . S
Dy936 C958 2.713 1_455 S
Dy937 O940 2.298 . S
Dy937 O943 2.275 . S
Dy937 O945 2.307 . S
Dy937 O947 2.395 . S
Dy937 O948 2.379 . S
Dy937 O951 2.339 . S
Dy937 C967 2.738 . S
C938 O950 1.254 . S
C938 O951 1.257 . S
O939 Dy936 2.323 . S
O939 C949 1.266 . S
O940 Dy937 2.298 . S
O940 C949 1.236 . S
O941 Dy936 2.371 1_655 S
O941 C958 1.255 . S
O942 Dy936 2.358 1_655 S
O942 C958 1.249 . S
O943 Dy937 2.275 . S
O943 C959 1.254 . S
O944 Dy936 2.353 . S
O944 C959 1.257 . S
O945 Dy937 2.307 . S
O945 C960 1.266 . S
O946 Dy936 2.306 . S
O946 C960 1.236 . S
O947 Dy937 2.395 . S
O947 C967 1.255 . S
O948 Dy937 2.379 . S
O948 C967 1.249 . S
C949 O939 1.266 . S
C949 O940 1.236 . S
O950 Dy936 2.286 . S
O950 C938 1.254 . S
O951 Dy937 2.339 . S
O951 C938 1.257 . S
C952 C955 1.344 . S
C952 C956 1.328 . S
C952 C958 1.516 . S
C953 C954 1.304 . S
C953 C957 1.323 . S
C954 C953 1.304 . S
C954 C955 1.371 . S
C954 H968 0.930 . S
C955 C952 1.344 . S
C955 C954 1.371 . S
C955 H969 0.931 . S
C956 C952 1.328 . S
C956 C957 1.433 . S
C956 H970 0.931 . S
C957 C953 1.323 . S
C957 C956 1.433 . S
C957 H971 0.933 . S
C958 Dy936 2.713 1_655 S
C958 O941 1.255 . S
C958 O942 1.249 . S
C958 C952 1.516 . S
C959 O943 1.254 . S
C959 O944 1.257 . S
C960 O945 1.266 . S
C960 O946 1.236 . S
C961 C964 1.344 . S
C961 C965 1.328 . S
C961 C967 1.516 . S
C962 C963 1.304 . S
C962 C966 1.323 . S
C963 C962 1.304 . S
C963 C964 1.371 . S
C963 H972 0.930 . S
C964 C961 1.344 . S
C964 C963 1.371 . S
C964 H973 0.931 . S
C965 C961 1.328 . S
C965 C966 1.433 . S
C965 H974 0.931 . S
C966 C962 1.323 . S
C966 C965 1.433 . S
C966 H975 0.933 . S
C967 Dy937 2.738 . S
C967 O947 1.255 . S
C967 O948 1.249 . S
C967 C961 1.516 . S
H968 C954 0.930 . S
H969 C955 0.931 . S
H970 C956 0.931 . S
H971 C957 0.933 . S
H972 C963 0.930 . S
H973 C964 0.931 . S
H974 C965 0.931 . S
H975 C966 0.933 . S
H976 C982 0.930 . S
H977 C986 0.930 . S
H978 C991 0.929 . S
H979 C989 0.929 . S
H980 C984 0.929 1_556 S
H981 C990 0.929 . S
C982 H976 0.930 . S
C982 C983 1.367 1_554 S
C982 C990 1.378 . S
C983 C982 1.367 1_556 S
C983 C991 1.433 1_655 S
C984 H980 0.929 1_554 S
C984 C986 1.378 . S
C984 C988 1.350 . S
C985 C988 1.463 . S
C985 C990 1.350 1_455 S
C985 N993 1.427 1_554 S
C986 H977 0.930 . S
C986 C984 1.378 . S
C986 C987 1.367 . S
C987 C986 1.367 . S
C987 C989 1.433 . S
C988 C984 1.350 . S
C988 C985 1.463 . S
C988 N992 1.427 . S
C989 H979 0.929 . S
C989 C987 1.433 . S
C989 N992 1.384 . S
C990 H981 0.929 . S
C990 C982 1.378 . S
C990 C985 1.350 1_655 S
C991 H978 0.929 . S
C991 C983 1.433 1_455 S
C991 N993 1.384 . S
N992 C988 1.427 . S
N992 C989 1.384 . S
N993 C985 1.427 1_556 S
N993 C991 1.384 . S
H994 C1000 0.930 . S
H995 C1004 0.930 . S
H996 C1009 0.929 . S
H997 C1007 0.929 . S
H998 C1002 0.929 . S
H999 C1008 0.929 . S
C1000 H994 0.930 . S
C1000 C1001 1.367 . S
C1000 C1008 1.378 . S
C1001 C1000 1.367 . S
C1001 C1009 1.433 . S
C1002 H998 0.929 . S
C1002 C1004 1.378 . S
C1002 C1006 1.350 . S
C1003 C1006 1.463 . S
C1003 C1008 1.350 . S
C1003 N1011 1.427 . S
C1004 H995 0.930 . S
C1004 C1002 1.378 . S
C1004 C1005 1.367 . S
C1005 C1004 1.367 . S
C1005 C1007 1.433 . S
C1006 C1002 1.350 . S
C1006 C1003 1.463 . S
C1006 N1010 1.427 . S
C1007 H997 0.929 . S
C1007 C1005 1.433 . S
C1007 N1010 1.384 . S
C1008 H999 0.929 . S
C1008 C1000 1.378 . S
C1008 C1003 1.350 . S
C1009 H996 0.929 . S
C1009 C1001 1.433 . S
C1009 N1011 1.384 . S
N1010 C1006 1.427 . S
N1010 C1007 1.384 . S
N1011 C1003 1.427 . S
N1011 C1009 1.384 . S
H1012 C1018 0.930 . S
H1013 C1022 0.930 . S
H1014 C1027 0.929 . S
H1015 C1025 0.929 . S
H1016 C1020 0.929 . S
H1017 C1026 0.929 . S
C1018 H1012 0.930 . S
C1018 C1019 1.367 . S
C1018 C1026 1.378 . S
C1019 C1018 1.367 . S
C1019 C1027 1.433 . S
C1020 H1016 0.929 . S
C1020 C1022 1.378 . S
C1020 C1024 1.350 . S
C1021 C1024 1.463 . S
C1021 C1026 1.350 . S
C1021 N1029 1.427 . S
C1022 H1013 0.930 . S
C1022 C1020 1.378 . S
C1022 C1023 1.367 . S
C1023 C1022 1.367 . S
C1023 C1025 1.433 . S
C1024 C1020 1.350 . S
C1024 C1021 1.463 . S
C1024 N1028 1.427 . S
C1025 H1015 0.929 . S
C1025 C1023 1.433 . S
C1025 N1028 1.384 . S
C1026 H1017 0.929 . S
C1026 C1018 1.378 . S
C1026 C1021 1.350 . S
C1027 H1014 0.929 . S
C1027 C1019 1.433 . S
C1027 N1029 1.384 . S
N1028 C1024 1.427 . S
N1028 C1025 1.384 . S
N1029 C1021 1.427 . S
N1029 C1027 1.384 . S
H1030 C1036 0.930 . S
H1031 C1040 0.930 . S
H1032 C1045 0.929 . S
H1033 C1043 0.929 . S
H1034 C1038 0.929 . S
H1035 C1044 0.929 . S
C1036 H1030 0.930 . S
C1036 C1037 1.367 . S
C1036 C1044 1.378 . S
C1037 C1036 1.367 . S
C1037 C1045 1.433 . S
C1038 H1034 0.929 . S
C1038 C1040 1.378 . S
C1038 C1042 1.350 . S
C1039 C1042 1.463 . S
C1039 C1044 1.350 . S
C1039 N1047 1.427 . S
C1040 H1031 0.930 . S
C1040 C1038 1.378 . S
C1040 C1041 1.367 . S
C1041 C1040 1.367 . S
C1041 C1043 1.433 . S
C1042 C1038 1.350 . S
C1042 C1039 1.463 . S
C1042 N1046 1.427 . S
C1043 H1033 0.929 . S
C1043 C1041 1.433 . S
C1043 N1046 1.384 . S
C1044 H1035 0.929 . S
C1044 C1036 1.378 . S
C1044 C1039 1.350 . S
C1045 H1032 0.929 . S
C1045 C1037 1.433 . S
C1045 N1047 1.384 . S
N1046 C1042 1.427 . S
N1046 C1043 1.384 . S
N1047 C1039 1.427 . S
N1047 C1045 1.384 . S
H1048 C1054 0.930 . S
H1049 C1058 0.930 . S
H1050 C1063 0.929 . S
H1051 C1061 0.929 . S
H1052 C1056 0.929 . S
H1053 C1062 0.929 . S
C1054 H1048 0.930 . S
C1054 C1055 1.367 . S
C1054 C1062 1.378 . S
C1055 C1054 1.367 . S
C1055 C1063 1.433 . S
C1056 H1052 0.929 . S
C1056 C1058 1.378 . S
C1056 C1060 1.350 . S
C1057 C1060 1.463 . S
C1057 C1062 1.350 . S
C1057 N1065 1.427 . S
C1058 H1049 0.930 . S
C1058 C1056 1.378 . S
C1058 C1059 1.367 . S
C1059 C1058 1.367 . S
C1059 C1061 1.433 . S
C1060 C1056 1.350 . S
C1060 C1057 1.463 . S
C1060 N1064 1.427 . S
C1061 H1051 0.929 . S
C1061 C1059 1.433 . S
C1061 N1064 1.384 . S
C1062 H1053 0.929 . S
C1062 C1054 1.378 . S
C1062 C1057 1.350 . S
C1063 H1050 0.929 . S
C1063 C1055 1.433 . S
C1063 N1065 1.384 . S
N1064 C1060 1.427 . S
N1064 C1061 1.384 . S
N1065 C1057 1.427 . S
N1065 C1063 1.384 . S
H1066 C1072 0.930 . S
H1067 C1076 0.930 . S
H1068 C1081 0.929 . S
H1069 C1079 0.929 . S
H1070 C1074 0.929 . S
H1071 C1080 0.929 . S
C1072 H1066 0.930 . S
C1072 C1073 1.367 . S
C1072 C1080 1.378 . S
C1073 C1072 1.367 . S
C1073 C1081 1.433 . S
C1074 H1070 0.929 . S
C1074 C1076 1.378 . S
C1074 C1078 1.350 . S
C1075 C1078 1.463 . S
C1075 C1080 1.350 . S
C1075 N1083 1.427 . S
C1076 H1067 0.930 . S
C1076 C1074 1.378 . S
C1076 C1077 1.367 . S
C1077 C1076 1.367 . S
C1077 C1079 1.433 . S
C1078 C1074 1.350 . S
C1078 C1075 1.463 . S
C1078 N1082 1.427 . S
C1079 H1069 0.929 . S
C1079 C1077 1.433 . S
C1079 N1082 1.384 . S
C1080 H1071 0.929 . S
C1080 C1072 1.378 . S
C1080 C1075 1.350 . S
C1081 H1068 0.929 . S
C1081 C1073 1.433 . S
C1081 N1083 1.384 . S
N1082 C1078 1.427 . S
N1082 C1079 1.384 . S
N1083 C1075 1.427 . S
N1083 C1081 1.384 . S
H1084 C1090 0.930 . S
H1085 C1094 0.930 . S
H1086 C1099 0.929 . S
H1087 C1097 0.929 . S
H1088 C1092 0.929 . S
H1089 C1098 0.929 . S
C1090 H1084 0.930 . S
C1090 C1091 1.367 . S
C1090 C1098 1.378 . S
C1091 C1090 1.367 . S
C1091 C1099 1.433 . S
C1092 H1088 0.929 . S
C1092 C1094 1.378 . S
C1092 C1096 1.350 . S
C1093 C1096 1.463 . S
C1093 C1098 1.350 . S
C1093 N1101 1.427 . S
C1094 H1085 0.930 . S
C1094 C1092 1.378 . S
C1094 C1095 1.367 . S
C1095 C1094 1.367 . S
C1095 C1097 1.433 . S
C1096 C1092 1.350 . S
C1096 C1093 1.463 . S
C1096 N1100 1.427 . S
C1097 H1087 0.929 . S
C1097 C1095 1.433 . S
C1097 N1100 1.384 . S
C1098 H1089 0.929 . S
C1098 C1090 1.378 . S
C1098 C1093 1.350 . S
C1099 H1086 0.929 . S
C1099 C1091 1.433 . S
C1099 N1101 1.384 . S
N1100 C1096 1.427 . S
N1100 C1097 1.384 . S
N1101 C1093 1.427 . S
N1101 C1099 1.384 . S
H1102 C1108 0.930 . S
H1103 C1112 0.930 . S
H1104 C1117 0.929 . S
H1105 C1115 0.929 . S
H1106 C1110 0.929 . S
H1107 C1116 0.929 . S
C1108 H1102 0.930 . S
C1108 C1109 1.367 . S
C1108 C1116 1.378 . S
C1109 C1108 1.367 . S
C1109 C1117 1.433 . S
C1110 H1106 0.929 . S
C1110 C1112 1.378 . S
C1110 C1114 1.350 . S
C1111 C1114 1.463 . S
C1111 C1116 1.350 . S
C1111 N1119 1.427 . S
C1112 H1103 0.930 . S
C1112 C1110 1.378 . S
C1112 C1113 1.367 . S
C1113 C1112 1.367 . S
C1113 C1115 1.433 . S
C1114 C1110 1.350 . S
C1114 C1111 1.463 . S
C1114 N1118 1.427 . S
C1115 H1105 0.929 . S
C1115 C1113 1.433 . S
C1115 N1118 1.384 . S
C1116 H1107 0.929 . S
C1116 C1108 1.378 . S
C1116 C1111 1.350 . S
C1117 H1104 0.929 . S
C1117 C1109 1.433 . S
C1117 N1119 1.384 . S
N1118 C1114 1.427 . S
N1118 C1115 1.384 . S
N1119 C1111 1.427 . S
N1119 C1117 1.384 . S
H1120 C1126 0.930 . S
H1121 C1130 0.930 . S
H1122 C1135 0.929 . S
H1123 C1133 0.929 . S
H1124 C1128 0.929 . S
H1125 C1134 0.929 1_455 S
C1126 H1120 0.930 . S
C1126 C1127 1.367 . S
C1126 C1134 1.378 . S
C1127 C1126 1.367 . S
C1127 C1135 1.433 . S
C1128 H1124 0.929 . S
C1128 C1130 1.378 . S
C1128 C1132 1.350 . S
C1129 C1132 1.463 . S
C1129 C1134 1.350 . S
C1129 N1137 1.427 . S
C1130 H1121 0.930 . S
C1130 C1128 1.378 . S
C1130 C1131 1.367 1_655 S
C1131 C1130 1.367 1_455 S
C1131 C1133 1.433 . S
C1132 C1128 1.350 . S
C1132 C1129 1.463 . S
C1132 N1136 1.427 1_655 S
C1133 H1123 0.929 . S
C1133 C1131 1.433 . S
C1133 N1136 1.384 . S
C1134 H1125 0.929 1_655 S
C1134 C1126 1.378 . S
C1134 C1129 1.350 . S
C1135 H1122 0.929 . S
C1135 C1127 1.433 . S
C1135 N1137 1.384 . S
N1136 C1132 1.427 1_455 S
N1136 C1133 1.384 . S
N1137 C1129 1.427 . S
N1137 C1135 1.384 . S
H1138 C1144 0.930 . S
H1139 C1148 0.930 . S
H1140 C1153 0.929 . S
H1141 C1151 0.929 . S
H1142 C1146 0.929 . S
H1143 C1152 0.929 . S
C1144 H1138 0.930 . S
C1144 C1145 1.367 . S
C1144 C1152 1.378 . S
C1145 C1144 1.367 . S
C1145 C1153 1.433 . S
C1146 H1142 0.929 . S
C1146 C1148 1.378 . S
C1146 C1150 1.350 . S
C1147 C1150 1.463 . S
C1147 C1152 1.350 . S
C1147 N1155 1.427 . S
C1148 H1139 0.930 . S
C1148 C1146 1.378 . S
C1148 C1149 1.367 . S
C1149 C1148 1.367 . S
C1149 C1151 1.433 . S
C1150 C1146 1.350 . S
C1150 C1147 1.463 . S
C1150 N1154 1.427 . S
C1151 H1141 0.929 . S
C1151 C1149 1.433 . S
C1151 N1154 1.384 . S
C1152 H1143 0.929 . S
C1152 C1144 1.378 . S
C1152 C1147 1.350 . S
C1153 H1140 0.929 . S
C1153 C1145 1.433 . S
C1153 N1155 1.384 . S
N1154 C1150 1.427 . S
N1154 C1151 1.384 . S
N1155 C1147 1.427 . S
N1155 C1153 1.384 . S
H1156 C1162 0.930 . S
H1157 C1166 0.930 . S
H1158 C1171 0.929 . S
H1159 C1169 0.929 . S
H1160 C1164 0.929 . S
H1161 C1170 0.929 . S
C1162 H1156 0.930 . S
C1162 C1163 1.367 . S
C1162 C1170 1.378 . S
C1163 C1162 1.367 . S
C1163 C1171 1.433 . S
C1164 H1160 0.929 . S
C1164 C1166 1.378 . S
C1164 C1168 1.350 . S
C1165 C1168 1.463 . S
C1165 C1170 1.350 . S
C1165 N1173 1.427 . S
C1166 H1157 0.930 . S
C1166 C1164 1.378 . S
C1166 C1167 1.367 . S
C1167 C1166 1.367 . S
C1167 C1169 1.433 . S
C1168 C1164 1.350 . S
C1168 C1165 1.463 . S
C1168 N1172 1.427 . S
C1169 H1159 0.929 . S
C1169 C1167 1.433 . S
C1169 N1172 1.384 . S
C1170 H1161 0.929 . S
C1170 C1162 1.378 . S
C1170 C1165 1.350 . S
C1171 H1158 0.929 . S
C1171 C1163 1.433 . S
C1171 N1173 1.384 . S
N1172 C1168 1.427 . S
N1172 C1169 1.384 . S
N1173 C1165 1.427 . S
N1173 C1171 1.384 . S
H1174 C1180 0.930 . S
H1175 C1184 0.930 . S
H1176 C1189 0.929 . S
H1177 C1187 0.929 . S
H1178 C1182 0.929 . S
H1179 C1188 0.929 . S
C1180 H1174 0.930 . S
C1180 C1181 1.367 . S
C1180 C1188 1.378 . S
C1181 C1180 1.367 . S
C1181 C1189 1.433 . S
C1182 H1178 0.929 . S
C1182 C1184 1.378 . S
C1182 C1186 1.350 . S
C1183 C1186 1.463 . S
C1183 C1188 1.350 . S
C1183 N1191 1.427 . S
C1184 H1175 0.930 . S
C1184 C1182 1.378 . S
C1184 C1185 1.367 . S
C1185 C1184 1.367 . S
C1185 C1187 1.433 . S
C1186 C1182 1.350 . S
C1186 C1183 1.463 . S
C1186 N1190 1.427 . S
C1187 H1177 0.929 . S
C1187 C1185 1.433 . S
C1187 N1190 1.384 . S
C1188 H1179 0.929 . S
C1188 C1180 1.378 . S
C1188 C1183 1.350 . S
C1189 H1176 0.929 . S
C1189 C1181 1.433 . S
C1189 N1191 1.384 . S
N1190 C1186 1.427 . S
N1190 C1187 1.384 . S
N1191 C1183 1.427 . S
N1191 C1189 1.384 . S
H1192 C1198 0.930 . S
H1193 C1202 0.930 . S
H1194 C1207 0.929 . S
H1195 C1205 0.929 . S
H1196 C1200 0.929 . S
H1197 C1206 0.929 . S
C1198 H1192 0.930 . S
C1198 C1199 1.367 . S
C1198 C1206 1.378 . S
C1199 C1198 1.367 . S
C1199 C1207 1.433 . S
C1200 H1196 0.929 . S
C1200 C1202 1.378 . S
C1200 C1204 1.350 . S
C1201 C1204 1.463 1_655 S
C1201 C1206 1.350 . S
C1201 N1209 1.427 . S
C1202 H1193 0.930 . S
C1202 C1200 1.378 . S
C1202 C1203 1.367 . S
C1203 C1202 1.367 . S
C1203 C1205 1.433 . S
C1204 C1200 1.350 . S
C1204 C1201 1.463 1_455 S
C1204 N1208 1.427 . S
C1205 H1195 0.929 . S
C1205 C1203 1.433 . S
C1205 N1208 1.384 . S
C1206 H1197 0.929 . S
C1206 C1198 1.378 . S
C1206 C1201 1.350 . S
C1207 H1194 0.929 . S
C1207 C1199 1.433 . S
C1207 N1209 1.384 . S
N1208 C1204 1.427 . S
N1208 C1205 1.384 . S
N1209 C1201 1.427 . S
N1209 C1207 1.384 . S
H1210 C1216 0.930 . S
H1211 C1220 0.930 . S
H1212 C1225 0.929 . S
H1213 C1223 0.929 . S
H1214 C1218 0.929 . S
H1215 C1224 0.929 . S
C1216 H1210 0.930 . S
C1216 C1217 1.367 . S
C1216 C1224 1.378 . S
C1217 C1216 1.367 . S
C1217 C1225 1.433 . S
C1218 H1214 0.929 . S
C1218 C1220 1.378 . S
C1218 C1222 1.350 . S
C1219 C1222 1.463 . S
C1219 C1224 1.350 . S
C1219 N1227 1.427 . S
C1220 H1211 0.930 . S
C1220 C1218 1.378 . S
C1220 C1221 1.367 . S
C1221 C1220 1.367 . S
C1221 C1223 1.433 . S
C1222 C1218 1.350 . S
C1222 C1219 1.463 . S
C1222 N1226 1.427 . S
C1223 H1213 0.929 . S
C1223 C1221 1.433 . S
C1223 N1226 1.384 . S
C1224 H1215 0.929 . S
C1224 C1216 1.378 . S
C1224 C1219 1.350 . S
C1225 H1212 0.929 . S
C1225 C1217 1.433 . S
C1225 N1227 1.384 . S
N1226 C1222 1.427 . S
N1226 C1223 1.384 . S
N1227 C1219 1.427 . S
N1227 C1225 1.384 . S
H1228 C1234 0.930 . S
H1229 C1238 0.930 . S
H1230 C1243 0.929 . S
H1231 C1241 0.929 . S
H1232 C1236 0.929 . S
H1233 C1242 0.929 . S
C1234 H1228 0.930 . S
C1234 C1235 1.367 . S
C1234 C1242 1.378 . S
C1235 C1234 1.367 . S
C1235 C1243 1.433 . S
C1236 H1232 0.929 . S
C1236 C1238 1.378 . S
C1236 C1240 1.350 . S
C1237 C1240 1.463 . S
C1237 C1242 1.350 . S
C1237 N1245 1.427 . S
C1238 H1229 0.930 . S
C1238 C1236 1.378 . S
C1238 C1239 1.367 . S
C1239 C1238 1.367 . S
C1239 C1241 1.433 . S
C1240 C1236 1.350 . S
C1240 C1237 1.463 . S
C1240 N1244 1.427 . S
C1241 H1231 0.929 . S
C1241 C1239 1.433 . S
C1241 N1244 1.384 . S
C1242 H1233 0.929 . S
C1242 C1234 1.378 . S
C1242 C1237 1.350 . S
C1243 H1230 0.929 . S
C1243 C1235 1.433 . S
C1243 N1245 1.384 . S
N1244 C1240 1.427 . S
N1244 C1241 1.384 . S
N1245 C1237 1.427 . S
N1245 C1243 1.384 . S
H1246 C1252 0.930 . S
H1247 C1256 0.930 . S
H1248 C1261 0.929 . S
H1249 C1259 0.929 . S
H1250 C1254 0.929 . S
H1251 C1260 0.929 . S
C1252 H1246 0.930 . S
C1252 C1253 1.367 . S
C1252 C1260 1.378 . S
C1253 C1252 1.367 . S
C1253 C1261 1.433 . S
C1254 H1250 0.929 . S
C1254 C1256 1.378 . S
C1254 C1258 1.350 . S
C1255 C1258 1.463 . S
C1255 C1260 1.350 . S
C1255 N1263 1.427 . S
C1256 H1247 0.930 . S
C1256 C1254 1.378 . S
C1256 C1257 1.367 . S
C1257 C1256 1.367 . S
C1257 C1259 1.433 . S
C1258 C1254 1.350 . S
C1258 C1255 1.463 . S
C1258 N1262 1.427 . S
C1259 H1249 0.929 . S
C1259 C1257 1.433 . S
C1259 N1262 1.384 . S
C1260 H1251 0.929 . S
C1260 C1252 1.378 . S
C1260 C1255 1.350 . S
C1261 H1248 0.929 . S
C1261 C1253 1.433 . S
C1261 N1263 1.384 . S
N1262 C1258 1.427 . S
N1262 C1259 1.384 . S
N1263 C1255 1.427 . S
N1263 C1261 1.384 . S
H1264 C1270 0.930 1_556 S
H1265 C1274 0.930 . S
H1266 C1279 0.929 . S
H1267 C1277 0.943 . S
H1268 C1272 0.929 . S
H1269 C1278 0.929 . S
C1270 H1264 0.930 1_554 S
C1270 C1271 1.367 . S
C1270 C1278 1.378 . S
C1271 C1270 1.367 . S
C1271 C1279 1.433 . S
C1272 H1268 0.929 . S
C1272 C1274 1.378 1_565 S
C1272 C1276 1.350 . S
C1273 C1276 1.463 . S
C1273 C1278 1.350 . S
C1273 N1281 1.427 . S
C1274 H1265 0.930 . S
C1274 C1272 1.378 1_545 S
C1274 C1275 1.367 . S
C1275 C1274 1.367 . S
C1275 C1277 1.441 . S
C1276 C1272 1.350 . S
C1276 C1273 1.463 . S
C1276 N1280 1.427 . S
C1277 H1267 0.943 . S
C1277 C1275 1.441 . S
C1277 N1280 1.363 1_545 S
C1278 H1269 0.929 . S
C1278 C1270 1.378 . S
C1278 C1273 1.350 . S
C1279 H1266 0.929 . S
C1279 C1271 1.433 . S
C1279 N1281 1.384 . S
N1280 C1276 1.427 . S
N1280 C1277 1.363 1_565 S
N1281 C1273 1.427 . S
N1281 C1279 1.384 . S
H1282 C1288 0.930 . S
H1283 C1292 0.930 . S
H1284 C1297 0.929 . S
H1285 C1295 0.929 . S
H1286 C1290 0.929 . S
H1287 C1296 0.929 . S
C1288 H1282 0.930 . S
C1288 C1289 1.367 . S
C1288 C1296 1.378 . S
C1289 C1288 1.367 . S
C1289 C1297 1.433 . S
C1290 H1286 0.929 . S
C1290 C1292 1.378 . S
C1290 C1294 1.350 . S
C1291 C1294 1.463 . S
C1291 C1296 1.350 . S
C1291 N1299 1.427 . S
C1292 H1283 0.930 . S
C1292 C1290 1.378 . S
C1292 C1293 1.367 . S
C1293 C1292 1.367 . S
C1293 C1295 1.433 . S
C1294 C1290 1.350 . S
C1294 C1291 1.463 . S
C1294 N1298 1.427 . S
C1295 H1285 0.929 . S
C1295 C1293 1.433 . S
C1295 N1298 1.384 . S
C1296 H1287 0.929 . S
C1296 C1288 1.378 . S
C1296 C1291 1.350 . S
C1297 H1284 0.929 . S
C1297 C1289 1.433 . S
C1297 N1299 1.384 . S
N1298 C1294 1.427 . S
N1298 C1295 1.384 . S
N1299 C1291 1.427 . S
N1299 C1297 1.384 . S
H1300 C1306 0.930 . S
H1301 C1310 0.930 . S
H1302 C1315 0.929 . S
H1303 C1313 0.929 . S
H1304 C1308 0.929 . S
H1305 C1314 0.929 . S
C1306 H1300 0.930 . S
C1306 C1307 1.367 . S
C1306 C1314 1.378 . S
C1307 C1306 1.367 . S
C1307 C1315 1.433 . S
C1308 H1304 0.929 . S
C1308 C1310 1.378 . S
C1308 C1312 1.350 . S
C1309 C1312 1.463 . S
C1309 C1314 1.350 . S
C1309 N1317 1.427 . S
C1310 H1301 0.930 . S
C1310 C1308 1.378 . S
C1310 C1311 1.367 . S
C1311 C1310 1.367 . S
C1311 C1313 1.433 . S
C1312 C1308 1.350 . S
C1312 C1309 1.463 . S
C1312 N1316 1.427 . S
C1313 H1303 0.929 . S
C1313 C1311 1.433 . S
C1313 N1316 1.384 . S
C1314 H1305 0.929 . S
C1314 C1306 1.378 . S
C1314 C1309 1.350 . S
C1315 H1302 0.929 . S
C1315 C1307 1.433 . S
C1315 N1317 1.384 . S
N1316 C1312 1.427 . S
N1316 C1313 1.384 . S
N1317 C1309 1.427 . S
N1317 C1315 1.384 . S
H1318 C1324 0.930 . S
H1319 C1328 0.930 . S
H1320 C1333 0.929 . S
H1321 C1331 0.929 . S
H1322 C1326 0.929 . S
H1323 C1332 0.929 . S
C1324 H1318 0.930 . S
C1324 C1325 1.367 . S
C1324 C1332 1.378 . S
C1325 C1324 1.367 . S
C1325 C1333 1.433 . S
C1326 H1322 0.929 . S
C1326 C1328 1.378 . S
C1326 C1330 1.350 . S
C1327 C1330 1.463 . S
C1327 C1332 1.350 . S
C1327 N1335 1.427 . S
C1328 H1319 0.930 . S
C1328 C1326 1.378 . S
C1328 C1329 1.367 . S
C1329 C1328 1.367 . S
C1329 C1331 1.433 . S
C1330 C1326 1.350 . S
C1330 C1327 1.463 . S
C1330 N1334 1.427 . S
C1331 H1321 0.929 . S
C1331 C1329 1.433 . S
C1331 N1334 1.384 . S
C1332 H1323 0.929 . S
C1332 C1324 1.378 . S
C1332 C1327 1.350 . S
C1333 H1320 0.929 . S
C1333 C1325 1.433 . S
C1333 N1335 1.384 . S
N1334 C1330 1.427 . S
N1334 C1331 1.384 . S
N1335 C1327 1.427 . S
N1335 C1333 1.384 . S
H1336 C1342 0.930 . S
H1337 C1346 0.930 . S
H1338 C1351 0.929 . S
H1339 C1349 0.929 . S
H1340 C1344 0.929 . S
H1341 C1350 0.929 . S
C1342 H1336 0.930 . S
C1342 C1343 1.367 . S
C1342 C1350 1.378 . S
C1343 C1342 1.367 . S
C1343 C1351 1.433 . S
C1344 H1340 0.929 . S
C1344 C1346 1.378 . S
C1344 C1348 1.350 . S
C1345 C1348 1.463 . S
C1345 C1350 1.350 . S
C1345 N1353 1.427 . S
C1346 H1337 0.930 . S
C1346 C1344 1.378 . S
C1346 C1347 1.367 . S
C1347 C1346 1.367 . S
C1347 C1349 1.433 . S
C1348 C1344 1.350 . S
C1348 C1345 1.463 . S
C1348 N1352 1.427 . S
C1349 H1339 0.929 . S
C1349 C1347 1.433 . S
C1349 N1352 1.384 . S
C1350 H1341 0.929 . S
C1350 C1342 1.378 . S
C1350 C1345 1.350 . S
C1351 H1338 0.929 . S
C1351 C1343 1.433 . S
C1351 N1353 1.384 . S
N1352 C1348 1.427 . S
N1352 C1349 1.384 . S
N1353 C1345 1.427 . S
N1353 C1351 1.384 . S
H1354 C1360 0.930 . S
H1355 C1364 0.930 . S
H1356 C1369 0.929 . S
H1357 C1367 0.929 . S
H1358 C1362 0.929 . S
H1359 C1368 0.929 . S
C1360 H1354 0.930 . S
C1360 C1361 1.367 . S
C1360 C1368 1.378 . S
C1361 C1360 1.367 . S
C1361 C1369 1.433 . S
C1362 H1358 0.929 . S
C1362 C1364 1.378 . S
C1362 C1366 1.350 . S
C1363 C1366 1.463 . S
C1363 C1368 1.350 . S
C1363 N1371 1.427 . S
C1364 H1355 0.930 . S
C1364 C1362 1.378 . S
C1364 C1365 1.367 . S
C1365 C1364 1.367 . S
C1365 C1367 1.433 . S
C1366 C1362 1.350 . S
C1366 C1363 1.463 . S
C1366 N1370 1.427 . S
C1367 H1357 0.929 . S
C1367 C1365 1.433 . S
C1367 N1370 1.384 . S
C1368 H1359 0.929 . S
C1368 C1360 1.378 . S
C1368 C1363 1.350 . S
C1369 H1356 0.929 . S
C1369 C1361 1.433 . S
C1369 N1371 1.384 . S
N1370 C1366 1.427 . S
N1370 C1367 1.384 . S
N1371 C1363 1.427 . S
N1371 C1369 1.384 . S
H1372 C1378 0.930 . S
H1373 C1382 0.930 . S
H1374 C1387 0.929 . S
H1375 C1385 0.929 . S
H1376 C1380 0.929 . S
H1377 C1386 0.929 . S
C1378 H1372 0.930 . S
C1378 C1379 1.367 . S
C1378 C1386 1.378 . S
C1379 C1378 1.367 . S
C1379 C1387 1.433 . S
C1380 H1376 0.929 . S
C1380 C1382 1.378 . S
C1380 C1384 1.350 . S
C1381 C1384 1.463 . S
C1381 C1386 1.350 . S
C1381 N1389 1.427 . S
C1382 H1373 0.930 . S
C1382 C1380 1.378 . S
C1382 C1383 1.367 . S
C1383 C1382 1.367 . S
C1383 C1385 1.433 . S
C1384 C1380 1.350 . S
C1384 C1381 1.463 . S
C1384 N1388 1.427 . S
C1385 H1375 0.929 . S
C1385 C1383 1.433 . S
C1385 N1388 1.384 . S
C1386 H1377 0.929 . S
C1386 C1378 1.378 . S
C1386 C1381 1.350 . S
C1387 H1374 0.929 . S
C1387 C1379 1.433 . S
C1387 N1389 1.384 . S
N1388 C1384 1.427 . S
N1388 C1385 1.384 . S
N1389 C1381 1.427 . S
N1389 C1387 1.384 . S
H1390 C1396 0.930 . S
H1391 C1400 0.930 . S
H1392 C1405 0.929 . S
H1393 C1403 0.929 . S
H1394 C1398 0.929 . S
H1395 C1404 0.929 . S
C1396 H1390 0.930 . S
C1396 C1397 1.367 . S
C1396 C1404 1.378 . S
C1397 C1396 1.367 . S
C1397 C1405 1.433 . S
C1398 H1394 0.929 . S
C1398 C1400 1.378 . S
C1398 C1402 1.350 . S
C1399 C1402 1.463 . S
C1399 C1404 1.350 . S
C1399 N1407 1.427 . S
C1400 H1391 0.930 . S
C1400 C1398 1.378 . S
C1400 C1401 1.367 . S
C1401 C1400 1.367 . S
C1401 C1403 1.433 . S
C1402 C1398 1.350 . S
C1402 C1399 1.463 . S
C1402 N1406 1.427 . S
C1403 H1393 0.929 . S
C1403 C1401 1.433 . S
C1403 N1406 1.384 . S
C1404 H1395 0.929 . S
C1404 C1396 1.378 . S
C1404 C1399 1.350 . S
C1405 H1392 0.929 . S
C1405 C1397 1.433 . S
C1405 N1407 1.384 . S
N1406 C1402 1.427 . S
N1406 C1403 1.384 . S
N1407 C1399 1.427 . S
N1407 C1405 1.384 . S
H1408 C1414 0.930 . S
H1409 C1418 0.930 . S
H1410 C1423 0.929 . S
H1411 C1421 0.929 . S
H1412 C1416 0.929 . S
H1413 C1422 0.929 . S
C1414 H1408 0.930 . S
C1414 C1415 1.367 . S
C1414 C1422 1.378 . S
C1415 C1414 1.367 . S
C1415 C1423 1.433 . S
C1416 H1412 0.929 . S
C1416 C1418 1.378 . S
C1416 C1420 1.350 . S
C1417 C1420 1.463 . S
C1417 C1422 1.350 . S
C1417 N1425 1.427 . S
C1418 H1409 0.930 . S
C1418 C1416 1.378 . S
C1418 C1419 1.367 . S
C1419 C1418 1.367 . S
C1419 C1421 1.433 . S
C1420 C1416 1.350 . S
C1420 C1417 1.463 . S
C1420 N1424 1.427 . S
C1421 H1411 0.929 . S
C1421 C1419 1.433 . S
C1421 N1424 1.384 . S
C1422 H1413 0.929 . S
C1422 C1414 1.378 . S
C1422 C1417 1.350 . S
C1423 H1410 0.929 . S
C1423 C1415 1.433 . S
C1423 N1425 1.384 . S
N1424 C1420 1.427 . S
N1424 C1421 1.384 . S
N1425 C1417 1.427 . S
N1425 C1423 1.384 . S
H1426 C1432 0.930 . S
H1427 C1436 0.930 . S
H1428 C1441 0.929 . S
H1429 C1439 0.929 . S
H1430 C1434 0.929 . S
H1431 C1440 0.929 . S
C1432 H1426 0.930 . S
C1432 C1433 1.367 . S
C1432 C1440 1.378 . S
C1433 C1432 1.367 . S
C1433 C1441 1.433 . S
C1434 H1430 0.929 . S
C1434 C1436 1.378 . S
C1434 C1438 1.350 . S
C1435 C1438 1.463 . S
C1435 C1440 1.350 . S
C1435 N1443 1.427 . S
C1436 H1427 0.930 . S
C1436 C1434 1.378 . S
C1436 C1437 1.367 . S
C1437 C1436 1.367 . S
C1437 C1439 1.433 . S
C1438 C1434 1.350 . S
C1438 C1435 1.463 . S
C1438 N1442 1.427 . S
C1439 H1429 0.929 . S
C1439 C1437 1.433 . S
C1439 N1442 1.384 . S
C1440 H1431 0.929 . S
C1440 C1432 1.378 . S
C1440 C1435 1.350 . S
C1441 H1428 0.929 . S
C1441 C1433 1.433 . S
C1441 N1443 1.384 . S
N1442 C1438 1.427 . S
N1442 C1439 1.384 . S
N1443 C1435 1.427 . S
N1443 C1441 1.384 . S
H1444 C1450 0.930 . S
H1445 C1454 0.930 . S
H1446 C1459 0.929 . S
H1447 C1457 0.929 . S
H1448 C1452 0.929 . S
H1449 C1458 0.929 . S
C1450 H1444 0.930 . S
C1450 C1451 1.367 . S
C1450 C1458 1.378 . S
C1451 C1450 1.367 . S
C1451 C1459 1.433 . S
C1452 H1448 0.929 . S
C1452 C1454 1.378 . S
C1452 C1456 1.350 . S
C1453 C1456 1.463 . S
C1453 C1458 1.350 . S
C1453 N1461 1.427 . S
C1454 H1445 0.930 . S
C1454 C1452 1.378 . S
C1454 C1455 1.367 . S
C1455 C1454 1.367 . S
C1455 C1457 1.433 . S
C1456 C1452 1.350 . S
C1456 C1453 1.463 . S
C1456 N1460 1.427 . S
C1457 H1447 0.929 . S
C1457 C1455 1.433 . S
C1457 N1460 1.384 . S
C1458 H1449 0.929 . S
C1458 C1450 1.378 . S
C1458 C1453 1.350 . S
C1459 H1446 0.929 . S
C1459 C1451 1.433 . S
C1459 N1461 1.384 . S
N1460 C1456 1.427 . S
N1460 C1457 1.384 . S
N1461 C1453 1.427 . S
N1461 C1459 1.384 . S
H1462 C1468 0.930 . S
H1463 C1472 0.930 . S
H1464 C1477 0.929 . S
H1465 C1475 0.929 . S
H1466 C1470 0.929 . S
H1467 C1476 0.929 . S
C1468 H1462 0.930 . S
C1468 C1469 1.367 . S
C1468 C1476 1.378 . S
C1469 C1468 1.367 . S
C1469 C1477 1.433 . S
C1470 H1466 0.929 . S
C1470 C1472 1.378 . S
C1470 C1474 1.350 . S
C1471 C1474 1.463 . S
C1471 C1476 1.350 . S
C1471 N1479 1.427 . S
C1472 H1463 0.930 . S
C1472 C1470 1.378 . S
C1472 C1473 1.367 . S
C1473 C1472 1.367 . S
C1473 C1475 1.433 . S
C1474 C1470 1.350 . S
C1474 C1471 1.463 . S
C1474 N1478 1.427 . S
C1475 H1465 0.929 . S
C1475 C1473 1.433 . S
C1475 N1478 1.384 . S
C1476 H1467 0.929 . S
C1476 C1468 1.378 . S
C1476 C1471 1.350 . S
C1477 H1464 0.929 . S
C1477 C1469 1.433 . S
C1477 N1479 1.384 . S
N1478 C1474 1.427 . S
N1478 C1475 1.384 . S
N1479 C1471 1.427 . S
N1479 C1477 1.384 . S
H1480 C1486 0.930 1_655 S
H1481 C1490 0.930 . S
H1482 C1495 0.929 . S
H1483 C1493 0.929 . S
H1484 C1488 0.929 . S
H1485 C1494 0.929 1_655 S
C1486 H1480 0.930 1_455 S
C1486 C1487 1.367 . S
C1486 C1494 1.378 . S
C1487 C1486 1.367 . S
C1487 C1495 1.433 . S
C1488 H1484 0.929 . S
C1488 C1490 1.378 . S
C1488 C1492 1.350 . S
C1489 C1492 1.463 . S
C1489 C1494 1.350 . S
C1489 N1497 1.427 . S
C1490 H1481 0.930 . S
C1490 C1488 1.378 . S
C1490 C1491 1.367 . S
C1491 C1490 1.367 . S
C1491 C1493 1.433 1_455 S
C1492 C1488 1.350 . S
C1492 C1489 1.463 . S
C1492 N1496 1.427 1_455 S
C1493 H1483 0.929 . S
C1493 C1491 1.433 1_655 S
C1493 N1496 1.384 . S
C1494 H1485 0.929 1_455 S
C1494 C1486 1.378 . S
C1494 C1489 1.350 . S
C1495 H1482 0.929 . S
C1495 C1487 1.433 . S
C1495 N1497 1.384 . S
N1496 C1492 1.427 1_655 S
N1496 C1493 1.384 . S
N1497 C1489 1.427 . S
N1497 C1495 1.384 . S
H1498 C1504 0.930 . S
H1499 C1508 0.930 . S
H1500 C1513 0.929 . S
H1501 C1511 0.929 . S
H1502 C1506 0.929 . S
H1503 C1512 0.929 . S
C1504 H1498 0.930 . S
C1504 C1505 1.367 . S
C1504 C1512 1.378 . S
C1505 C1504 1.367 . S
C1505 C1513 1.433 . S
C1506 H1502 0.929 . S
C1506 C1508 1.378 . S
C1506 C1510 1.350 . S
C1507 C1510 1.463 . S
C1507 C1512 1.350 . S
C1507 N1515 1.427 . S
C1508 H1499 0.930 . S
C1508 C1506 1.378 . S
C1508 C1509 1.367 . S
C1509 C1508 1.367 . S
C1509 C1511 1.433 . S
C1510 C1506 1.350 . S
C1510 C1507 1.463 . S
C1510 N1514 1.427 . S
C1511 H1501 0.929 . S
C1511 C1509 1.433 . S
C1511 N1514 1.384 . S
C1512 H1503 0.929 . S
C1512 C1504 1.378 . S
C1512 C1507 1.350 . S
C1513 H1500 0.929 . S
C1513 C1505 1.433 . S
C1513 N1515 1.384 . S
N1514 C1510 1.427 . S
N1514 C1511 1.384 . S
N1515 C1507 1.427 . S
N1515 C1513 1.384 . S
H1516 C1522 0.930 . S
H1517 C1526 0.930 . S
H1518 C1531 0.929 . S
H1519 C1529 0.929 . S
H1520 C1524 0.929 . S
H1521 C1530 0.929 . S
C1522 H1516 0.930 . S
C1522 C1523 1.367 . S
C1522 C1530 1.378 . S
C1523 C1522 1.367 . S
C1523 C1531 1.433 . S
C1524 H1520 0.929 . S
C1524 C1526 1.378 . S
C1524 C1528 1.350 . S
C1525 C1528 1.463 . S
C1525 C1530 1.350 . S
C1525 N1533 1.427 . S
C1526 H1517 0.930 . S
C1526 C1524 1.378 . S
C1526 C1527 1.367 1_556 S
C1527 C1526 1.367 1_554 S
C1527 C1529 1.433 . S
C1528 C1524 1.350 . S
C1528 C1525 1.463 . S
C1528 N1532 1.427 . S
C1529 H1519 0.929 . S
C1529 C1527 1.433 . S
C1529 N1532 1.384 1_554 S
C1530 H1521 0.929 . S
C1530 C1522 1.378 . S
C1530 C1525 1.350 . S
C1531 H1518 0.929 . S
C1531 C1523 1.433 . S
C1531 N1533 1.384 . S
N1532 C1528 1.427 . S
N1532 C1529 1.384 1_556 S
N1533 C1525 1.427 . S
N1533 C1531 1.384 . S
H1534 C1540 0.930 . S
H1535 C1544 0.930 . S
H1536 C1549 0.929 . S
H1537 C1547 0.929 . S
H1538 C1542 0.929 . S
H1539 C1548 0.929 . S
C1540 H1534 0.930 . S
C1540 C1541 1.367 . S
C1540 C1548 1.378 . S
C1541 C1540 1.367 . S
C1541 C1549 1.433 . S
C1542 H1538 0.929 . S
C1542 C1544 1.378 . S
C1542 C1546 1.350 . S
C1543 C1546 1.463 . S
C1543 C1548 1.350 . S
C1543 N1551 1.427 . S
C1544 H1535 0.930 . S
C1544 C1542 1.378 . S
C1544 C1545 1.367 . S
C1545 C1544 1.367 . S
C1545 C1547 1.433 . S
C1546 C1542 1.350 . S
C1546 C1543 1.463 . S
C1546 N1550 1.427 . S
C1547 H1537 0.929 . S
C1547 C1545 1.433 . S
C1547 N1550 1.384 . S
C1548 H1539 0.929 . S
C1548 C1540 1.378 . S
C1548 C1543 1.350 . S
C1549 H1536 0.929 . S
C1549 C1541 1.433 . S
C1549 N1551 1.384 . S
N1550 C1546 1.427 . S
N1550 C1547 1.384 . S
N1551 C1543 1.427 . S
N1551 C1549 1.384 . S
H1552 C1558 0.930 . S
H1553 C1562 0.930 . S
H1554 C1567 0.929 . S
H1555 C1565 0.929 . S
H1556 C1560 0.929 . S
H1557 C1566 0.929 . S
C1558 H1552 0.930 . S
C1558 C1559 1.367 . S
C1558 C1566 1.378 . S
C1559 C1558 1.367 . S
C1559 C1567 1.433 . S
C1560 H1556 0.929 . S
C1560 C1562 1.378 . S
C1560 C1564 1.350 . S
C1561 C1564 1.463 . S
C1561 C1566 1.350 . S
C1561 N1569 1.427 . S
C1562 H1553 0.930 . S
C1562 C1560 1.378 . S
C1562 C1563 1.367 . S
C1563 C1562 1.367 . S
C1563 C1565 1.433 . S
C1564 C1560 1.350 . S
C1564 C1561 1.463 . S
C1564 N1568 1.427 . S
C1565 H1555 0.929 . S
C1565 C1563 1.433 . S
C1565 N1568 1.384 . S
C1566 H1557 0.929 . S
C1566 C1558 1.378 . S
C1566 C1561 1.350 . S
C1567 H1554 0.929 . S
C1567 C1559 1.433 . S
C1567 N1569 1.384 . S
N1568 C1564 1.427 . S
N1568 C1565 1.384 . S
N1569 C1561 1.427 . S
N1569 C1567 1.384 . S
H1570 C1576 0.930 . S
H1571 C1580 0.930 . S
H1572 C1585 0.929 . S
H1573 C1583 0.929 . S
H1574 C1578 0.929 . S
H1575 C1584 0.929 . S
C1576 H1570 0.930 . S
C1576 C1577 1.367 . S
C1576 C1584 1.378 . S
C1577 C1576 1.367 . S
C1577 C1585 1.433 . S
C1578 H1574 0.929 . S
C1578 C1580 1.378 . S
C1578 C1582 1.350 . S
C1579 C1582 1.463 . S
C1579 C1584 1.350 . S
C1579 N1587 1.427 . S
C1580 H1571 0.930 . S
C1580 C1578 1.378 . S
C1580 C1581 1.367 . S
C1581 C1580 1.367 . S
C1581 C1583 1.433 . S
C1582 C1578 1.350 . S
C1582 C1579 1.463 . S
C1582 N1586 1.427 . S
C1583 H1573 0.929 . S
C1583 C1581 1.433 . S
C1583 N1586 1.384 . S
C1584 H1575 0.929 . S
C1584 C1576 1.378 . S
C1584 C1579 1.350 . S
C1585 H1572 0.929 . S
C1585 C1577 1.433 . S
C1585 N1587 1.384 . S
N1586 C1582 1.427 . S
N1586 C1583 1.384 . S
N1587 C1579 1.427 . S
N1587 C1585 1.384 . S
H1588 C1594 0.930 . S
H1589 C1598 0.930 . S
H1590 C1603 0.929 . S
H1591 C1601 0.929 . S
H1592 C1596 0.929 . S
H1593 C1602 0.929 . S
C1594 H1588 0.930 . S
C1594 C1595 1.367 1_565 S
C1594 C1602 1.378 . S
C1595 C1594 1.367 1_545 S
C1595 C1603 1.433 . S
C1596 H1592 0.929 . S
C1596 C1598 1.378 . S
C1596 C1600 1.350 . S
C1597 C1600 1.463 . S
C1597 C1602 1.350 1_545 S
C1597 N1605 1.427 . S
C1598 H1589 0.930 . S
C1598 C1596 1.378 . S
C1598 C1599 1.367 . S
C1599 C1598 1.367 . S
C1599 C1601 1.433 . S
C1600 C1596 1.350 . S
C1600 C1597 1.463 . S
C1600 N1604 1.427 . S
C1601 H1591 0.929 . S
C1601 C1599 1.433 . S
C1601 N1604 1.384 . S
C1602 H1593 0.929 . S
C1602 C1594 1.378 . S
C1602 C1597 1.350 1_565 S
C1603 H1590 0.929 . S
C1603 C1595 1.433 . S
C1603 N1605 1.384 . S
N1604 C1600 1.427 . S
N1604 C1601 1.384 . S
N1605 C1597 1.427 . S
N1605 C1603 1.384 . S
H1606 C1612 0.930 . S
H1607 C1616 0.930 . S
H1608 C1621 0.929 . S
H1609 C1619 0.929 . S
H1610 C1614 0.929 . S
H1611 C1620 0.929 . S
C1612 H1606 0.930 . S
C1612 C1613 1.367 . S
C1612 C1620 1.378 . S
C1613 C1612 1.367 . S
C1613 C1621 1.433 . S
C1614 H1610 0.929 . S
C1614 C1616 1.378 . S
C1614 C1618 1.350 . S
C1615 C1618 1.463 . S
C1615 C1620 1.350 . S
C1615 N1623 1.427 . S
C1616 H1607 0.930 . S
C1616 C1614 1.378 . S
C1616 C1617 1.367 . S
C1617 C1616 1.367 . S
C1617 C1619 1.433 . S
C1618 C1614 1.350 . S
C1618 C1615 1.463 . S
C1618 N1622 1.427 . S
C1619 H1609 0.929 . S
C1619 C1617 1.433 . S
C1619 N1622 1.384 . S
C1620 H1611 0.929 . S
C1620 C1612 1.378 . S
C1620 C1615 1.350 . S
C1621 H1608 0.929 . S
C1621 C1613 1.433 . S
C1621 N1623 1.384 . S
N1622 C1618 1.427 . S
N1622 C1619 1.384 . S
N1623 C1615 1.427 . S
N1623 C1621 1.384 . S
H1624 C1630 0.930 . S
H1625 C1634 0.930 . S
H1626 C1639 0.929 . S
H1627 C1637 0.929 . S
H1628 C1632 0.929 . S
H1629 C1638 0.929 . S
C1630 H1624 0.930 . S
C1630 C1631 1.367 . S
C1630 C1638 1.378 . S
C1631 C1630 1.367 . S
C1631 C1639 1.433 . S
C1632 H1628 0.929 . S
C1632 C1634 1.378 . S
C1632 C1636 1.350 . S
C1633 C1636 1.463 . S
C1633 C1638 1.350 . S
C1633 N1641 1.427 . S
C1634 H1625 0.930 . S
C1634 C1632 1.378 . S
C1634 C1635 1.367 . S
C1635 C1634 1.367 . S
C1635 C1637 1.433 . S
C1636 C1632 1.350 . S
C1636 C1633 1.463 . S
C1636 N1640 1.427 . S
C1637 H1627 0.929 . S
C1637 C1635 1.433 . S
C1637 N1640 1.384 . S
C1638 H1629 0.929 . S
C1638 C1630 1.378 . S
C1638 C1633 1.350 . S
C1639 H1626 0.929 . S
C1639 C1631 1.433 . S
C1639 N1641 1.384 . S
N1640 C1636 1.427 . S
N1640 C1637 1.384 . S
N1641 C1633 1.427 . S
N1641 C1639 1.384 . S
H1642 C1648 0.930 . S
H1643 C1652 0.930 . S
H1644 C1657 0.929 . S
H1645 C1655 0.929 . S
H1646 C1650 0.929 . S
H1647 C1656 0.929 . S
C1648 H1642 0.930 . S
C1648 C1649 1.367 . S
C1648 C1656 1.378 . S
C1649 C1648 1.367 . S
C1649 C1657 1.433 . S
C1650 H1646 0.929 . S
C1650 C1652 1.378 . S
C1650 C1654 1.350 . S
C1651 C1654 1.463 . S
C1651 C1656 1.350 . S
C1651 N1659 1.427 . S
C1652 H1643 0.930 . S
C1652 C1650 1.378 . S
C1652 C1653 1.367 . S
C1653 C1652 1.367 . S
C1653 C1655 1.433 . S
C1654 C1650 1.350 . S
C1654 C1651 1.463 . S
C1654 N1658 1.427 . S
C1655 H1645 0.929 . S
C1655 C1653 1.433 . S
C1655 N1658 1.384 . S
C1656 H1647 0.929 . S
C1656 C1648 1.378 . S
C1656 C1651 1.350 . S
C1657 H1644 0.929 . S
C1657 C1649 1.433 . S
C1657 N1659 1.384 . S
N1658 C1654 1.427 . S
N1658 C1655 1.384 . S
N1659 C1651 1.427 . S
N1659 C1657 1.384 . S
H1660 C1666 0.930 . S
H1661 C1670 0.930 . S
H1662 C1675 0.929 . S
H1663 C1673 0.929 1_545 S
H1664 C1668 0.929 . S
H1665 C1674 0.929 . S
C1666 H1660 0.930 . S
C1666 C1667 1.367 . S
C1666 C1674 1.378 . S
C1667 C1666 1.367 . S
C1667 C1675 1.433 1_545 S
C1668 H1664 0.929 . S
C1668 C1670 1.378 . S
C1668 C1672 1.350 . S
C1669 C1672 1.463 . S
C1669 C1674 1.350 1_565 S
C1669 N1677 1.427 . S
C1670 H1661 0.930 . S
C1670 C1668 1.378 . S
C1670 C1671 1.367 . S
C1671 C1670 1.367 . S
C1671 C1673 1.433 . S
C1672 C1668 1.350 . S
C1672 C1669 1.463 . S
C1672 N1676 1.428 . S
C1673 H1663 0.929 1_565 S
C1673 C1671 1.433 . S
C1673 N1676 1.383 . S
C1674 H1665 0.929 . S
C1674 C1666 1.378 . S
C1674 C1669 1.350 1_545 S
C1675 H1662 0.929 . S
C1675 C1667 1.433 1_565 S
C1675 N1677 1.384 . S
N1676 C1672 1.428 . S
N1676 C1673 1.383 . S
N1677 C1669 1.427 . S
N1677 C1675 1.384 . S
H1678 C1684 0.930 . S
H1679 C1688 0.930 . S
H1680 C1693 0.929 . S
H1681 C1691 0.929 . S
H1682 C1686 0.929 . S
H1683 C1692 0.929 . S
C1684 H1678 0.930 . S
C1684 C1685 1.367 . S
C1684 C1692 1.378 . S
C1685 C1684 1.367 . S
C1685 C1693 1.433 . S
C1686 H1682 0.929 . S
C1686 C1688 1.378 . S
C1686 C1690 1.350 . S
C1687 C1690 1.463 . S
C1687 C1692 1.350 . S
C1687 N1695 1.427 . S
C1688 H1679 0.930 . S
C1688 C1686 1.378 . S
C1688 C1689 1.367 . S
C1689 C1688 1.367 . S
C1689 C1691 1.433 . S
C1690 C1686 1.350 . S
C1690 C1687 1.463 . S
C1690 N1694 1.427 . S
C1691 H1681 0.929 . S
C1691 C1689 1.433 . S
C1691 N1694 1.384 . S
C1692 H1683 0.929 . S
C1692 C1684 1.378 . S
C1692 C1687 1.350 . S
C1693 H1680 0.929 . S
C1693 C1685 1.433 . S
C1693 N1695 1.384 . S
N1694 C1690 1.427 . S
N1694 C1691 1.384 . S
N1695 C1687 1.427 . S
N1695 C1693 1.384 . S
H1696 C1702 0.930 . S
H1697 C1706 0.930 . S
H1698 C1711 0.929 . S
H1699 C1709 0.929 . S
H1700 C1704 0.929 . S
H1701 C1710 0.929 . S
C1702 H1696 0.930 . S
C1702 C1703 1.367 . S
C1702 C1710 1.378 . S
C1703 C1702 1.367 . S
C1703 C1711 1.433 . S
C1704 H1700 0.929 . S
C1704 C1706 1.378 . S
C1704 C1708 1.350 . S
C1705 C1708 1.463 . S
C1705 C1710 1.350 . S
C1705 N1713 1.427 . S
C1706 H1697 0.930 . S
C1706 C1704 1.378 . S
C1706 C1707 1.367 . S
C1707 C1706 1.367 . S
C1707 C1709 1.433 . S
C1708 C1704 1.350 . S
C1708 C1705 1.463 . S
C1708 N1712 1.427 . S
C1709 H1699 0.929 . S
C1709 C1707 1.433 . S
C1709 N1712 1.384 . S
C1710 H1701 0.929 . S
C1710 C1702 1.378 . S
C1710 C1705 1.350 . S
C1711 H1698 0.929 . S
C1711 C1703 1.433 . S
C1711 N1713 1.384 . S
N1712 C1708 1.427 . S
N1712 C1709 1.384 . S
N1713 C1705 1.427 . S
N1713 C1711 1.384 . S
H1714 C1720 0.930 . S
H1715 C1724 0.930 . S
H1716 C1729 0.929 . S
H1717 C1727 0.929 . S
H1718 C1722 0.929 . S
H1719 C1728 0.929 . S
C1720 H1714 0.930 . S
C1720 C1721 1.367 . S
C1720 C1728 1.378 . S
C1721 C1720 1.367 . S
C1721 C1729 1.433 . S
C1722 H1718 0.929 . S
C1722 C1724 1.378 . S
C1722 C1726 1.350 . S
C1723 C1726 1.463 . S
C1723 C1728 1.350 . S
C1723 N1731 1.427 . S
C1724 H1715 0.930 . S
C1724 C1722 1.378 . S
C1724 C1725 1.367 . S
C1725 C1724 1.367 . S
C1725 C1727 1.433 . S
C1726 C1722 1.350 . S
C1726 C1723 1.463 . S
C1726 N1730 1.427 . S
C1727 H1717 0.929 . S
C1727 C1725 1.433 . S
C1727 N1730 1.384 . S
C1728 H1719 0.929 . S
C1728 C1720 1.378 . S
C1728 C1723 1.350 . S
C1729 H1716 0.929 . S
C1729 C1721 1.433 . S
C1729 N1731 1.384 . S
N1730 C1726 1.427 . S
N1730 C1727 1.384 . S
N1731 C1723 1.427 . S
N1731 C1729 1.384 . S
H1732 C1738 0.930 . S
H1733 C1742 0.930 . S
H1734 C1747 0.929 . S
H1735 C1745 0.929 . S
H1736 C1740 0.929 . S
H1737 C1746 0.929 . S
C1738 H1732 0.930 . S
C1738 C1739 1.367 . S
C1738 C1746 1.378 . S
C1739 C1738 1.367 . S
C1739 C1747 1.433 . S
C1740 H1736 0.929 . S
C1740 C1742 1.378 . S
C1740 C1744 1.350 . S
C1741 C1744 1.463 . S
C1741 C1746 1.350 . S
C1741 N1749 1.427 . S
C1742 H1733 0.930 . S
C1742 C1740 1.378 . S
C1742 C1743 1.367 . S
C1743 C1742 1.367 . S
C1743 C1745 1.433 . S
C1744 C1740 1.350 . S
C1744 C1741 1.463 . S
C1744 N1748 1.427 . S
C1745 H1735 0.929 . S
C1745 C1743 1.433 . S
C1745 N1748 1.384 . S
C1746 H1737 0.929 . S
C1746 C1738 1.378 . S
C1746 C1741 1.350 . S
C1747 H1734 0.929 . S
C1747 C1739 1.433 . S
C1747 N1749 1.384 . S
N1748 C1744 1.427 . S
N1748 C1745 1.384 . S
N1749 C1741 1.427 . S
N1749 C1747 1.384 . S
H1750 C1756 0.930 . S
H1751 C1760 0.930 . S
H1752 C1765 0.929 . S
H1753 C1763 0.929 . S
H1754 C1758 0.929 . S
H1755 C1764 0.929 . S
C1756 H1750 0.930 . S
C1756 C1757 1.367 . S
C1756 C1764 1.378 . S
C1757 C1756 1.367 . S
C1757 C1765 1.433 . S
C1758 H1754 0.929 . S
C1758 C1760 1.378 . S
C1758 C1762 1.350 . S
C1759 C1762 1.463 . S
C1759 C1764 1.350 . S
C1759 N1767 1.427 . S
C1760 H1751 0.930 . S
C1760 C1758 1.378 . S
C1760 C1761 1.367 . S
C1761 C1760 1.367 . S
C1761 C1763 1.433 . S
C1762 C1758 1.350 . S
C1762 C1759 1.463 . S
C1762 N1766 1.427 . S
C1763 H1753 0.929 . S
C1763 C1761 1.433 . S
C1763 N1766 1.384 . S
C1764 H1755 0.929 . S
C1764 C1756 1.378 . S
C1764 C1759 1.350 . S
C1765 H1752 0.929 . S
C1765 C1757 1.433 . S
C1765 N1767 1.384 . S
N1766 C1762 1.427 . S
N1766 C1763 1.384 . S
N1767 C1759 1.427 . S
N1767 C1765 1.384 . S
H1768 C1774 0.930 . S
H1769 C1778 0.930 . S
H1770 C1783 0.929 . S
H1771 C1781 0.929 . S
H1772 C1776 0.929 . S
H1773 C1782 0.929 . S
C1774 H1768 0.930 . S
C1774 C1775 1.367 . S
C1774 C1782 1.378 1_545 S
C1775 C1774 1.367 . S
C1775 C1783 1.433 . S
C1776 H1772 0.929 . S
C1776 C1778 1.378 . S
C1776 C1780 1.350 . S
C1777 C1780 1.463 . S
C1777 C1782 1.350 . S
C1777 N1785 1.427 . S
C1778 H1769 0.930 . S
C1778 C1776 1.378 . S
C1778 C1779 1.367 . S
C1779 C1778 1.367 . S
C1779 C1781 1.433 . S
C1780 C1776 1.350 . S
C1780 C1777 1.463 . S
C1780 N1784 1.427 . S
C1781 H1771 0.929 . S
C1781 C1779 1.433 . S
C1781 N1784 1.384 . S
C1782 H1773 0.929 . S
C1782 C1774 1.378 1_565 S
C1782 C1777 1.350 . S
C1783 H1770 0.929 . S
C1783 C1775 1.433 . S
C1783 N1785 1.384 1_545 S
N1784 C1780 1.427 . S
N1784 C1781 1.384 . S
N1785 C1777 1.427 . S
N1785 C1783 1.384 1_565 S
H1786 C1792 0.930 . S
H1787 C1796 0.924 1_545 S
H1788 C1801 0.929 . S
H1789 C1799 0.929 . S
H1790 C1794 0.929 . S
H1791 C1800 0.929 . S
C1792 H1786 0.930 . S
C1792 C1793 1.367 . S
C1792 C1800 1.378 . S
C1793 C1792 1.367 . S
C1793 C1801 1.433 . S
C1794 H1790 0.929 . S
C1794 C1796 1.378 . S
C1794 C1798 1.350 . S
C1795 C1798 1.463 . S
C1795 C1800 1.350 . S
C1795 N1803 1.427 . S
C1796 H1787 0.924 1_565 S
C1796 C1794 1.378 . S
C1796 C1797 1.367 . S
C1797 C1796 1.367 . S
C1797 C1799 1.433 . S
C1798 C1794 1.350 . S
C1798 C1795 1.463 . S
C1798 N1802 1.427 . S
C1799 H1789 0.929 . S
C1799 C1797 1.433 . S
C1799 N1802 1.384 . S
C1800 H1791 0.929 . S
C1800 C1792 1.378 . S
C1800 C1795 1.350 . S
C1801 H1788 0.929 . S
C1801 C1793 1.433 . S
C1801 N1803 1.384 . S
N1802 C1798 1.427 . S
N1802 C1799 1.384 . S
N1803 C1795 1.427 . S
N1803 C1801 1.384 . S
H1804 C1810 0.930 . S
H1805 C1814 0.930 . S
H1806 C1819 0.929 . S
H1807 C1817 0.929 . S
H1808 C1812 0.929 . S
H1809 C1818 0.929 . S
C1810 H1804 0.930 . S
C1810 C1811 1.367 . S
C1810 C1818 1.378 . S
C1811 C1810 1.367 . S
C1811 C1819 1.433 . S
C1812 H1808 0.929 . S
C1812 C1814 1.378 . S
C1812 C1816 1.350 . S
C1813 C1816 1.463 . S
C1813 C1818 1.350 . S
C1813 N1821 1.427 . S
C1814 H1805 0.930 . S
C1814 C1812 1.378 . S
C1814 C1815 1.367 . S
C1815 C1814 1.367 . S
C1815 C1817 1.433 . S
C1816 C1812 1.350 . S
C1816 C1813 1.463 . S
C1816 N1820 1.427 . S
C1817 H1807 0.929 . S
C1817 C1815 1.433 . S
C1817 N1820 1.384 . S
C1818 H1809 0.929 . S
C1818 C1810 1.378 . S
C1818 C1813 1.350 . S
C1819 H1806 0.929 . S
C1819 C1811 1.433 . S
C1819 N1821 1.384 . S
N1820 C1816 1.427 . S
N1820 C1817 1.384 . S
N1821 C1813 1.427 . S
N1821 C1819 1.384 . S
H1822 C1828 0.930 . S
H1823 C1832 0.930 . S
H1824 C1837 0.929 . S
H1825 C1835 0.929 . S
H1826 C1830 0.929 . S
H1827 C1836 0.929 . S
C1828 H1822 0.930 . S
C1828 C1829 1.367 . S
C1828 C1836 1.378 . S
C1829 C1828 1.367 . S
C1829 C1837 1.433 . S
C1830 H1826 0.929 . S
C1830 C1832 1.378 . S
C1830 C1834 1.350 . S
C1831 C1834 1.463 . S
C1831 C1836 1.350 . S
C1831 N1839 1.427 . S
C1832 H1823 0.930 . S
C1832 C1830 1.378 . S
C1832 C1833 1.367 . S
C1833 C1832 1.367 . S
C1833 C1835 1.433 . S
C1834 C1830 1.350 . S
C1834 C1831 1.463 . S
C1834 N1838 1.427 . S
C1835 H1825 0.929 . S
C1835 C1833 1.433 . S
C1835 N1838 1.384 . S
C1836 H1827 0.929 . S
C1836 C1828 1.378 . S
C1836 C1831 1.350 . S
C1837 H1824 0.929 . S
C1837 C1829 1.433 . S
C1837 N1839 1.384 . S
N1838 C1834 1.427 . S
N1838 C1835 1.384 . S
N1839 C1831 1.427 . S
N1839 C1837 1.384 . S
H1840 C1846 0.930 . S
H1841 C1850 0.930 . S
H1842 C1855 0.929 . S
H1843 C1853 0.929 . S
H1844 C1848 0.929 . S
H1845 C1854 0.929 . S
C1846 H1840 0.930 . S
C1846 C1847 1.367 . S
C1846 C1854 1.378 . S
C1847 C1846 1.367 . S
C1847 C1855 1.433 . S
C1848 H1844 0.929 . S
C1848 C1850 1.378 . S
C1848 C1852 1.350 . S
C1849 C1852 1.463 . S
C1849 C1854 1.350 . S
C1849 N1857 1.427 . S
C1850 H1841 0.930 . S
C1850 C1848 1.378 . S
C1850 C1851 1.367 . S
C1851 C1850 1.367 . S
C1851 C1853 1.433 . S
C1852 C1848 1.350 . S
C1852 C1849 1.463 . S
C1852 N1856 1.427 . S
C1853 H1843 0.929 . S
C1853 C1851 1.433 . S
C1853 N1856 1.384 . S
C1854 H1845 0.929 . S
C1854 C1846 1.378 . S
C1854 C1849 1.350 . S
C1855 H1842 0.929 . S
C1855 C1847 1.433 . S
C1855 N1857 1.384 . S
N1856 C1852 1.427 . S
N1856 C1853 1.384 . S
N1857 C1849 1.427 . S
N1857 C1855 1.384 . S
H1858 C1864 0.930 . S
H1859 C1868 0.930 . S
H1860 C1873 0.929 . S
H1861 C1871 0.929 . S
H1862 C1866 0.929 . S
H1863 C1872 0.929 . S
C1864 H1858 0.930 . S
C1864 C1865 1.367 . S
C1864 C1872 1.378 . S
C1865 C1864 1.367 . S
C1865 C1873 1.433 . S
C1866 H1862 0.929 . S
C1866 C1868 1.378 . S
C1866 C1870 1.350 . S
C1867 C1870 1.463 . S
C1867 C1872 1.350 . S
C1867 N1875 1.427 . S
C1868 H1859 0.930 . S
C1868 C1866 1.378 . S
C1868 C1869 1.367 . S
C1869 C1868 1.367 . S
C1869 C1871 1.433 . S
C1870 C1866 1.350 . S
C1870 C1867 1.463 . S
C1870 N1874 1.427 . S
C1871 H1861 0.929 . S
C1871 C1869 1.433 . S
C1871 N1874 1.384 . S
C1872 H1863 0.929 . S
C1872 C1864 1.378 . S
C1872 C1867 1.350 . S
C1873 H1860 0.929 . S
C1873 C1865 1.433 . S
C1873 N1875 1.384 . S
N1874 C1870 1.427 . S
N1874 C1871 1.384 . S
N1875 C1867 1.427 . S
N1875 C1873 1.384 . S
H1876 C1882 0.930 . S
H1877 C1886 0.930 . S
H1878 C1891 0.929 . S
H1879 C1889 0.929 1_655 S
H1880 C1884 0.929 . S
H1881 C1890 0.929 1_556 S
C1882 H1876 0.930 . S
C1882 C1883 1.367 1_656 S
C1882 C1890 1.378 1_556 S
C1883 C1882 1.367 1_454 S
C1883 C1891 1.433 . S
C1884 H1880 0.929 . S
C1884 C1886 1.378 . S
C1884 C1888 1.350 . S
C1885 C1888 1.463 . S
C1885 C1890 1.350 1_455 S
C1885 N1893 1.427 . S
C1886 H1877 0.930 . S
C1886 C1884 1.378 . S
C1886 C1887 1.367 . S
C1887 C1886 1.367 . S
C1887 C1889 1.433 . S
C1888 C1884 1.350 . S
C1888 C1885 1.463 . S
C1888 N1892 1.427 . S
C1889 H1879 0.929 1_455 S
C1889 C1887 1.433 . S
C1889 N1892 1.384 . S
C1890 H1881 0.929 1_554 S
C1890 C1882 1.378 1_554 S
C1890 C1885 1.350 1_655 S
C1891 H1878 0.929 . S
C1891 C1883 1.433 . S
C1891 N1893 1.384 . S
N1892 C1888 1.427 . S
N1892 C1889 1.384 . S
N1893 C1885 1.427 . S
N1893 C1891 1.384 . S
H1894 C1900 0.930 . S
H1895 C1904 0.930 . S
H1896 C1909 0.929 . S
H1897 C1907 0.929 . S
H1898 C1902 0.929 . S
H1899 C1908 0.929 . S
C1900 H1894 0.930 . S
C1900 C1901 1.367 . S
C1900 C1908 1.378 . S
C1901 C1900 1.367 . S
C1901 C1909 1.433 . S
C1902 H1898 0.929 . S
C1902 C1904 1.378 . S
C1902 C1906 1.350 . S
C1903 C1906 1.463 . S
C1903 C1908 1.350 . S
C1903 N1911 1.427 . S
C1904 H1895 0.930 . S
C1904 C1902 1.378 . S
C1904 C1905 1.367 . S
C1905 C1904 1.367 . S
C1905 C1907 1.433 . S
C1906 C1902 1.350 . S
C1906 C1903 1.463 . S
C1906 N1910 1.427 . S
C1907 H1897 0.929 . S
C1907 C1905 1.433 . S
C1907 N1910 1.384 . S
C1908 H1899 0.929 . S
C1908 C1900 1.378 . S
C1908 C1903 1.350 . S
C1909 H1896 0.929 . S
C1909 C1901 1.433 . S
C1909 N1911 1.384 . S
N1910 C1906 1.427 . S
N1910 C1907 1.384 . S
N1911 C1903 1.427 . S
N1911 C1909 1.384 . S
H1912 C1918 0.930 . S
H1913 C1922 0.930 . S
H1914 C1927 0.929 . S
H1915 C1925 0.929 . S
H1916 C1920 0.929 . S
H1917 C1926 0.929 . S
C1918 H1912 0.930 . S
C1918 C1919 1.367 . S
C1918 C1926 1.378 . S
C1919 C1918 1.367 . S
C1919 C1927 1.433 . S
C1920 H1916 0.929 . S
C1920 C1922 1.378 . S
C1920 C1924 1.350 . S
C1921 C1924 1.463 . S
C1921 C1926 1.350 . S
C1921 N1929 1.427 . S
C1922 H1913 0.930 . S
C1922 C1920 1.378 . S
C1922 C1923 1.367 . S
C1923 C1922 1.367 . S
C1923 C1925 1.433 . S
C1924 C1920 1.350 . S
C1924 C1921 1.463 . S
C1924 N1928 1.427 . S
C1925 H1915 0.929 . S
C1925 C1923 1.433 . S
C1925 N1928 1.384 . S
C1926 H1917 0.929 . S
C1926 C1918 1.378 . S
C1926 C1921 1.350 . S
C1927 H1914 0.929 . S
C1927 C1919 1.433 . S
C1927 N1929 1.384 . S
N1928 C1924 1.427 . S
N1928 C1925 1.384 . S
N1929 C1921 1.427 . S
N1929 C1927 1.384 . S
H1930 C1936 0.930 . S
H1931 C1940 0.930 . S
H1932 C1945 0.929 . S
H1933 C1943 0.929 . S
H1934 C1938 0.929 . S
H1935 C1944 0.929 . S
C1936 H1930 0.930 . S
C1936 C1937 1.367 . S
C1936 C1944 1.378 . S
C1937 C1936 1.367 . S
C1937 C1945 1.433 . S
C1938 H1934 0.929 . S
C1938 C1940 1.378 . S
C1938 C1942 1.350 . S
C1939 C1942 1.463 . S
C1939 C1944 1.350 . S
C1939 N1947 1.427 . S
C1940 H1931 0.930 . S
C1940 C1938 1.378 . S
C1940 C1941 1.367 . S
C1941 C1940 1.367 . S
C1941 C1943 1.433 . S
C1942 C1938 1.350 . S
C1942 C1939 1.463 . S
C1942 N1946 1.427 . S
C1943 H1933 0.929 . S
C1943 C1941 1.433 . S
C1943 N1946 1.384 . S
C1944 H1935 0.929 . S
C1944 C1936 1.378 . S
C1944 C1939 1.350 . S
C1945 H1932 0.929 . S
C1945 C1937 1.433 . S
C1945 N1947 1.384 . S
N1946 C1942 1.427 . S
N1946 C1943 1.384 . S
N1947 C1939 1.427 . S
N1947 C1945 1.384 . S
H1948 C1954 0.930 1_655 S
H1949 C1958 0.930 . S
H1950 C1963 0.929 . S
H1951 C1961 0.928 1_655 S
H1952 C1956 0.929 . S
H1953 C1962 0.929 1_655 S
C1954 H1948 0.930 1_455 S
C1954 C1955 1.367 . S
C1954 C1962 1.378 . S
C1955 C1954 1.367 . S
C1955 C1963 1.433 . S
C1956 H1952 0.929 . S
C1956 C1958 1.378 . S
C1956 C1960 1.350 . S
C1957 C1960 1.463 . S
C1957 C1962 1.350 . S
C1957 N1965 1.427 . S
C1958 H1949 0.930 . S
C1958 C1956 1.378 . S
C1958 C1959 1.367 . S
C1959 C1958 1.367 . S
C1959 C1961 1.433 . S
C1960 C1956 1.350 . S
C1960 C1957 1.463 . S
C1960 N1964 1.427 . S
C1961 H1951 0.928 1_455 S
C1961 C1959 1.433 . S
C1961 N1964 1.384 . S
C1962 H1953 0.929 1_455 S
C1962 C1954 1.378 . S
C1962 C1957 1.350 . S
C1963 H1950 0.929 . S
C1963 C1955 1.433 . S
C1963 N1965 1.384 . S
N1964 C1960 1.427 . S
N1964 C1961 1.384 . S
N1965 C1957 1.427 . S
N1965 C1963 1.384 . S
H1966 C1972 0.930 . S
H1967 C1976 0.930 . S
H1968 C1981 0.929 . S
H1969 C1979 0.929 . S
H1970 C1974 0.929 . S
H1971 C1980 0.929 . S
C1972 H1966 0.930 . S
C1972 C1973 1.367 . S
C1972 C1980 1.378 . S
C1973 C1972 1.367 . S
C1973 C1981 1.433 . S
C1974 H1970 0.929 . S
C1974 C1976 1.378 . S
C1974 C1978 1.350 . S
C1975 C1978 1.463 . S
C1975 C1980 1.350 . S
C1975 N1983 1.427 . S
C1976 H1967 0.930 . S
C1976 C1974 1.378 . S
C1976 C1977 1.367 . S
C1977 C1976 1.367 . S
C1977 C1979 1.433 . S
C1978 C1974 1.350 . S
C1978 C1975 1.463 . S
C1978 N1982 1.427 . S
C1979 H1969 0.929 . S
C1979 C1977 1.433 . S
C1979 N1982 1.384 . S
C1980 H1971 0.929 . S
C1980 C1972 1.378 . S
C1980 C1975 1.350 . S
C1981 H1968 0.929 . S
C1981 C1973 1.433 . S
C1981 N1983 1.384 . S
N1982 C1978 1.427 . S
N1982 C1979 1.384 . S
N1983 C1975 1.427 . S
N1983 C1981 1.384 . S
H1984 C1990 0.930 . S
H1985 C1994 0.930 . S
H1986 C1999 0.929 . S
H1987 C1997 0.929 . S
H1988 C1992 0.929 . S
H1989 C1998 0.929 . S
C1990 H1984 0.930 . S
C1990 C1991 1.367 . S
C1990 C1998 1.378 . S
C1991 C1990 1.367 . S
C1991 C1999 1.433 . S
C1992 H1988 0.929 . S
C1992 C1994 1.378 . S
C1992 C1996 1.350 . S
C1993 C1996 1.463 . S
C1993 C1998 1.350 . S
C1993 N2001 1.427 . S
C1994 H1985 0.930 . S
C1994 C1992 1.378 . S
C1994 C1995 1.367 . S
C1995 C1994 1.367 . S
C1995 C1997 1.433 . S
C1996 C1992 1.350 . S
C1996 C1993 1.463 . S
C1996 N2000 1.427 . S
C1997 H1987 0.929 . S
C1997 C1995 1.433 . S
C1997 N2000 1.384 . S
C1998 H1989 0.929 . S
C1998 C1990 1.378 . S
C1998 C1993 1.350 . S
C1999 H1986 0.929 . S
C1999 C1991 1.433 . S
C1999 N2001 1.384 . S
N2000 C1996 1.427 . S
N2000 C1997 1.384 . S
N2001 C1993 1.427 . S
N2001 C1999 1.384 . S
H2002 C2008 0.930 . S
H2003 C2012 0.930 . S
H2004 C2017 0.929 . S
H2005 C2015 0.929 . S
H2006 C2010 0.929 . S
H2007 C2016 0.929 . S
C2008 H2002 0.930 . S
C2008 C2009 1.367 1_556 S
C2008 C2016 1.378 . S
C2009 C2008 1.367 1_554 S
C2009 C2017 1.433 . S
C2010 H2006 0.929 . S
C2010 C2012 1.378 . S
C2010 C2014 1.350 . S
C2011 C2014 1.463 . S
C2011 C2016 1.350 . S
C2011 N2019 1.427 . S
C2012 H2003 0.930 . S
C2012 C2010 1.378 . S
C2012 C2013 1.367 . S
C2013 C2012 1.367 . S
C2013 C2015 1.433 . S
C2014 C2010 1.350 . S
C2014 C2011 1.463 . S
C2014 N2018 1.427 . S
C2015 H2005 0.929 . S
C2015 C2013 1.433 . S
C2015 N2018 1.384 . S
C2016 H2007 0.929 . S
C2016 C2008 1.378 . S
C2016 C2011 1.350 . S
C2017 H2004 0.929 . S
C2017 C2009 1.433 . S
C2017 N2019 1.384 1_554 S
N2018 C2014 1.427 . S
N2018 C2015 1.384 . S
N2019 C2011 1.427 . S
N2019 C2017 1.384 1_556 S
H2020 C2026 0.930 . S
H2021 C2030 0.930 . S
H2022 C2035 0.929 . S
H2023 C2033 0.929 . S
H2024 C2028 0.929 . S
H2025 C2034 0.929 . S
C2026 H2020 0.930 . S
C2026 C2027 1.367 . S
C2026 C2034 1.378 . S
C2027 C2026 1.367 . S
C2027 C2035 1.433 . S
C2028 H2024 0.929 . S
C2028 C2030 1.378 . S
C2028 C2032 1.350 . S
C2029 C2032 1.463 . S
C2029 C2034 1.350 . S
C2029 N2037 1.427 . S
C2030 H2021 0.930 . S
C2030 C2028 1.378 . S
C2030 C2031 1.367 . S
C2031 C2030 1.367 . S
C2031 C2033 1.433 . S
C2032 C2028 1.350 . S
C2032 C2029 1.463 . S
C2032 N2036 1.427 . S
C2033 H2023 0.929 . S
C2033 C2031 1.433 . S
C2033 N2036 1.384 . S
C2034 H2025 0.929 . S
C2034 C2026 1.378 . S
C2034 C2029 1.350 . S
C2035 H2022 0.929 . S
C2035 C2027 1.433 . S
C2035 N2037 1.384 . S
N2036 C2032 1.427 . S
N2036 C2033 1.384 . S
N2037 C2029 1.427 . S
N2037 C2035 1.384 . S
H2038 C2044 0.930 . S
H2039 C2048 0.930 . S
H2040 C2053 0.929 . S
H2041 C2051 0.929 . S
H2042 C2046 0.929 . S
H2043 C2052 0.929 . S
C2044 H2038 0.930 . S
C2044 C2045 1.367 . S
C2044 C2052 1.378 . S
C2045 C2044 1.367 . S
C2045 C2053 1.433 . S
C2046 H2042 0.929 . S
C2046 C2048 1.378 . S
C2046 C2050 1.350 . S
C2047 C2050 1.463 . S
C2047 C2052 1.350 . S
C2047 N2055 1.427 . S
C2048 H2039 0.930 . S
C2048 C2046 1.378 . S
C2048 C2049 1.367 . S
C2049 C2048 1.367 . S
C2049 C2051 1.433 . S
C2050 C2046 1.350 . S
C2050 C2047 1.463 . S
C2050 N2054 1.427 . S
C2051 H2041 0.929 . S
C2051 C2049 1.433 . S
C2051 N2054 1.384 . S
C2052 H2043 0.929 . S
C2052 C2044 1.378 . S
C2052 C2047 1.350 . S
C2053 H2040 0.929 . S
C2053 C2045 1.433 . S
C2053 N2055 1.384 . S
N2054 C2050 1.427 . S
N2054 C2051 1.384 . S
N2055 C2047 1.427 . S
N2055 C2053 1.384 . S
H2056 C2062 0.930 . S
H2057 C2066 0.930 . S
H2058 C2071 0.929 . S
H2059 C2069 0.929 . S
H2060 C2064 0.929 . S
H2061 C2070 0.929 . S
C2062 H2056 0.930 . S
C2062 C2063 1.367 . S
C2062 C2070 1.378 . S
C2063 C2062 1.367 . S
C2063 C2071 1.433 . S
C2064 H2060 0.929 . S
C2064 C2066 1.378 . S
C2064 C2068 1.350 . S
C2065 C2068 1.463 . S
C2065 C2070 1.350 . S
C2065 N2073 1.427 . S
C2066 H2057 0.930 . S
C2066 C2064 1.378 . S
C2066 C2067 1.367 . S
C2067 C2066 1.367 . S
C2067 C2069 1.433 . S
C2068 C2064 1.350 . S
C2068 C2065 1.463 . S
C2068 N2072 1.427 . S
C2069 H2059 0.929 . S
C2069 C2067 1.433 . S
C2069 N2072 1.384 . S
C2070 H2061 0.929 . S
C2070 C2062 1.378 . S
C2070 C2065 1.350 . S
C2071 H2058 0.929 . S
C2071 C2063 1.433 . S
C2071 N2073 1.384 . S
N2072 C2068 1.427 . S
N2072 C2069 1.384 . S
N2073 C2065 1.427 . S
N2073 C2071 1.384 . S
H2074 C2080 0.930 . S
H2075 C2084 0.930 . S
H2076 C2089 0.929 . S
H2077 C2087 0.929 . S
H2078 C2082 0.929 . S
H2079 C2088 0.929 . S
C2080 H2074 0.930 . S
C2080 C2081 1.367 . S
C2080 C2088 1.378 . S
C2081 C2080 1.367 . S
C2081 C2089 1.433 . S
C2082 H2078 0.929 . S
C2082 C2084 1.378 . S
C2082 C2086 1.350 . S
C2083 C2086 1.463 . S
C2083 C2088 1.350 . S
C2083 N2091 1.427 . S
C2084 H2075 0.930 . S
C2084 C2082 1.378 . S
C2084 C2085 1.367 . S
C2085 C2084 1.367 . S
C2085 C2087 1.433 . S
C2086 C2082 1.350 . S
C2086 C2083 1.463 . S
C2086 N2090 1.427 . S
C2087 H2077 0.929 . S
C2087 C2085 1.433 . S
C2087 N2090 1.384 . S
C2088 H2079 0.929 . S
C2088 C2080 1.378 . S
C2088 C2083 1.350 . S
C2089 H2076 0.929 . S
C2089 C2081 1.433 . S
C2089 N2091 1.384 . S
N2090 C2086 1.427 . S
N2090 C2087 1.384 . S
N2091 C2083 1.427 . S
N2091 C2089 1.384 . S
H2092 C2098 0.930 . S
H2093 C2102 0.930 . S
H2094 C2107 0.929 . S
H2095 C2105 0.929 . S
H2096 C2100 0.929 . S
H2097 C2106 0.929 . S
C2098 H2092 0.930 . S
C2098 C2099 1.367 . S
C2098 C2106 1.378 . S
C2099 C2098 1.367 . S
C2099 C2107 1.433 . S
C2100 H2096 0.929 . S
C2100 C2102 1.378 . S
C2100 C2104 1.350 . S
C2101 C2104 1.463 . S
C2101 C2106 1.350 . S
C2101 N2109 1.427 . S
C2102 H2093 0.930 . S
C2102 C2100 1.378 . S
C2102 C2103 1.367 . S
C2103 C2102 1.367 . S
C2103 C2105 1.433 . S
C2104 C2100 1.350 . S
C2104 C2101 1.463 . S
C2104 N2108 1.427 . S
C2105 H2095 0.929 . S
C2105 C2103 1.433 . S
C2105 N2108 1.384 . S
C2106 H2097 0.929 . S
C2106 C2098 1.378 . S
C2106 C2101 1.350 . S
C2107 H2094 0.929 . S
C2107 C2099 1.433 . S
C2107 N2109 1.384 . S
N2108 C2104 1.427 . S
N2108 C2105 1.384 . S
N2109 C2101 1.427 . S
N2109 C2107 1.384 . S
H2110 C2116 0.930 . S
H2111 C2120 0.930 . S
H2112 C2125 0.929 . S
H2113 C2123 0.929 . S
H2114 C2118 0.929 . S
H2115 C2124 0.929 . S
C2116 H2110 0.930 . S
C2116 C2117 1.367 . S
C2116 C2124 1.378 . S
C2117 C2116 1.367 . S
C2117 C2125 1.433 . S
C2118 H2114 0.929 . S
C2118 C2120 1.378 . S
C2118 C2122 1.350 . S
C2119 C2122 1.463 . S
C2119 C2124 1.350 . S
C2119 N2127 1.427 . S
C2120 H2111 0.930 . S
C2120 C2118 1.378 . S
C2120 C2121 1.367 . S
C2121 C2120 1.367 . S
C2121 C2123 1.433 . S
C2122 C2118 1.350 . S
C2122 C2119 1.463 . S
C2122 N2126 1.427 . S
C2123 H2113 0.929 . S
C2123 C2121 1.433 . S
C2123 N2126 1.384 . S
C2124 H2115 0.929 . S
C2124 C2116 1.378 . S
C2124 C2119 1.350 . S
C2125 H2112 0.929 . S
C2125 C2117 1.433 . S
C2125 N2127 1.384 . S
N2126 C2122 1.427 . S
N2126 C2123 1.384 . S
N2127 C2119 1.427 . S
N2127 C2125 1.384 . S
H2128 C2134 0.930 . S
H2129 C2138 0.930 . S
H2130 C2143 0.929 . S
H2131 C2141 0.929 . S
H2132 C2136 0.929 . S
H2133 C2142 0.929 . S
C2134 H2128 0.930 . S
C2134 C2135 1.367 . S
C2134 C2142 1.378 . S
C2135 C2134 1.367 . S
C2135 C2143 1.433 . S
C2136 H2132 0.929 . S
C2136 C2138 1.378 . S
C2136 C2140 1.350 . S
C2137 C2140 1.463 . S
C2137 C2142 1.350 . S
C2137 N2145 1.427 . S
C2138 H2129 0.930 . S
C2138 C2136 1.378 . S
C2138 C2139 1.367 . S
C2139 C2138 1.367 . S
C2139 C2141 1.433 . S
C2140 C2136 1.350 . S
C2140 C2137 1.463 . S
C2140 N2144 1.427 . S
C2141 H2131 0.929 . S
C2141 C2139 1.433 . S
C2141 N2144 1.384 . S
C2142 H2133 0.929 . S
C2142 C2134 1.378 . S
C2142 C2137 1.350 . S
C2143 H2130 0.929 . S
C2143 C2135 1.433 . S
C2143 N2145 1.384 . S
N2144 C2140 1.427 . S
N2144 C2141 1.384 . S
N2145 C2137 1.427 . S
N2145 C2143 1.384 . S
H2146 C2152 0.930 . S
H2147 C2156 0.930 . S
H2148 C2161 0.929 . S
H2149 C2159 0.929 . S
H2150 C2154 0.929 . S
H2151 C2160 0.929 . S
C2152 H2146 0.930 . S
C2152 C2153 1.367 . S
C2152 C2160 1.378 . S
C2153 C2152 1.367 . S
C2153 C2161 1.433 . S
C2154 H2150 0.929 . S
C2154 C2156 1.378 . S
C2154 C2158 1.350 . S
C2155 C2158 1.463 . S
C2155 C2160 1.350 . S
C2155 N2163 1.427 . S
C2156 H2147 0.930 . S
C2156 C2154 1.378 . S
C2156 C2157 1.367 . S
C2157 C2156 1.367 . S
C2157 C2159 1.433 . S
C2158 C2154 1.350 . S
C2158 C2155 1.463 . S
C2158 N2162 1.427 . S
C2159 H2149 0.929 . S
C2159 C2157 1.433 . S
C2159 N2162 1.384 . S
C2160 H2151 0.929 . S
C2160 C2152 1.378 . S
C2160 C2155 1.350 . S
C2161 H2148 0.929 . S
C2161 C2153 1.433 . S
C2161 N2163 1.384 . S
N2162 C2158 1.427 . S
N2162 C2159 1.384 . S
N2163 C2155 1.427 . S
N2163 C2161 1.384 . S
H2164 C2170 0.930 . S
H2165 C2174 0.930 . S
H2166 C2179 0.929 . S
H2167 C2177 0.929 . S
H2168 C2172 0.929 . S
H2169 C2178 0.929 . S
C2170 H2164 0.930 . S
C2170 C2171 1.367 . S
C2170 C2178 1.378 . S
C2171 C2170 1.367 . S
C2171 C2179 1.433 . S
C2172 H2168 0.929 . S
C2172 C2174 1.378 . S
C2172 C2176 1.350 . S
C2173 C2176 1.463 . S
C2173 C2178 1.350 . S
C2173 N2181 1.427 . S
C2174 H2165 0.930 . S
C2174 C2172 1.378 . S
C2174 C2175 1.367 . S
C2175 C2174 1.367 . S
C2175 C2177 1.433 . S
C2176 C2172 1.350 . S
C2176 C2173 1.463 . S
C2176 N2180 1.427 . S
C2177 H2167 0.929 . S
C2177 C2175 1.433 . S
C2177 N2180 1.384 . S
C2178 H2169 0.929 . S
C2178 C2170 1.378 . S
C2178 C2173 1.350 . S
C2179 H2166 0.929 . S
C2179 C2171 1.433 . S
C2179 N2181 1.384 . S
N2180 C2176 1.427 . S
N2180 C2177 1.384 . S
N2181 C2173 1.427 . S
N2181 C2179 1.384 . S
H2182 C2188 0.930 . S
H2183 C2192 0.930 . S
H2184 C2197 0.952 . S
H2185 C2195 0.929 . S
H2186 C2190 0.929 . S
H2187 C2196 0.929 . S
C2188 H2182 0.930 . S
C2188 C2189 1.367 . S
C2188 C2196 1.378 . S
C2189 C2188 1.367 . S
C2189 C2197 1.411 1_554 S
C2190 H2186 0.929 . S
C2190 C2192 1.378 . S
C2190 C2194 1.350 1_545 S
C2191 C2194 1.463 . S
C2191 C2196 1.350 . S
C2191 N2199 1.427 . S
C2192 H2183 0.930 . S
C2192 C2190 1.378 . S
C2192 C2193 1.367 . S
C2193 C2192 1.367 . S
C2193 C2195 1.433 1_545 S
C2194 C2190 1.350 1_565 S
C2194 C2191 1.463 . S
C2194 N2198 1.427 . S
C2195 H2185 0.929 . S
C2195 C2193 1.433 1_565 S
C2195 N2198 1.384 . S
C2196 H2187 0.929 . S
C2196 C2188 1.378 . S
C2196 C2191 1.350 . S
C2197 H2184 0.952 . S
C2197 C2189 1.411 1_556 S
C2197 N2199 1.382 1_556 S
N2198 C2194 1.427 . S
N2198 C2195 1.384 . S
N2199 C2191 1.427 . S
N2199 C2197 1.382 1_554 S
H2200 C2206 0.930 . S
H2201 C2210 0.930 . S
H2202 C2215 0.929 . S
H2203 C2213 0.929 . S
H2204 C2208 0.929 . S
H2205 C2214 0.929 . S
C2206 H2200 0.930 . S
C2206 C2207 1.367 . S
C2206 C2214 1.378 . S
C2207 C2206 1.367 . S
C2207 C2215 1.433 . S
C2208 H2204 0.929 . S
C2208 C2210 1.378 . S
C2208 C2212 1.350 . S
C2209 C2212 1.463 . S
C2209 C2214 1.350 . S
C2209 N2217 1.427 . S
C2210 H2201 0.930 . S
C2210 C2208 1.378 . S
C2210 C2211 1.367 . S
C2211 C2210 1.367 . S
C2211 C2213 1.433 . S
C2212 C2208 1.350 . S
C2212 C2209 1.463 . S
C2212 N2216 1.427 . S
C2213 H2203 0.929 . S
C2213 C2211 1.433 . S
C2213 N2216 1.384 . S
C2214 H2205 0.929 . S
C2214 C2206 1.378 . S
C2214 C2209 1.350 . S
C2215 H2202 0.929 . S
C2215 C2207 1.433 . S
C2215 N2217 1.384 . S
N2216 C2212 1.427 . S
N2216 C2213 1.384 . S
N2217 C2209 1.427 . S
N2217 C2215 1.384 . S
H2218 C2224 0.930 . S
H2219 C2228 0.930 . S
H2220 C2233 0.929 . S
H2221 C2231 0.929 . S
H2222 C2226 0.929 . S
H2223 C2232 0.929 . S
C2224 H2218 0.930 . S
C2224 C2225 1.367 . S
C2224 C2232 1.378 . S
C2225 C2224 1.367 . S
C2225 C2233 1.433 . S
C2226 H2222 0.929 . S
C2226 C2228 1.378 . S
C2226 C2230 1.350 . S
C2227 C2230 1.463 . S
C2227 C2232 1.350 . S
C2227 N2235 1.427 . S
C2228 H2219 0.930 . S
C2228 C2226 1.378 . S
C2228 C2229 1.367 . S
C2229 C2228 1.367 . S
C2229 C2231 1.433 . S
C2230 C2226 1.350 . S
C2230 C2227 1.463 . S
C2230 N2234 1.427 . S
C2231 H2221 0.929 . S
C2231 C2229 1.433 . S
C2231 N2234 1.384 . S
C2232 H2223 0.929 . S
C2232 C2224 1.378 . S
C2232 C2227 1.350 . S
C2233 H2220 0.929 . S
C2233 C2225 1.433 . S
C2233 N2235 1.384 . S
N2234 C2230 1.427 . S
N2234 C2231 1.384 . S
N2235 C2227 1.427 . S
N2235 C2233 1.384 . S
H2236 C2242 0.930 . S
H2237 C2246 0.930 . S
H2238 C2251 0.929 . S
H2239 C2249 0.929 . S
H2240 C2244 0.929 . S
H2241 C2250 0.929 . S
C2242 H2236 0.930 . S
C2242 C2243 1.367 . S
C2242 C2250 1.378 . S
C2243 C2242 1.367 . S
C2243 C2251 1.433 . S
C2244 H2240 0.929 . S
C2244 C2246 1.378 . S
C2244 C2248 1.350 . S
C2245 C2248 1.463 . S
C2245 C2250 1.350 . S
C2245 N2253 1.427 . S
C2246 H2237 0.930 . S
C2246 C2244 1.378 . S
C2246 C2247 1.367 . S
C2247 C2246 1.367 . S
C2247 C2249 1.433 . S
C2248 C2244 1.350 . S
C2248 C2245 1.463 . S
C2248 N2252 1.427 . S
C2249 H2239 0.929 . S
C2249 C2247 1.433 . S
C2249 N2252 1.384 . S
C2250 H2241 0.929 . S
C2250 C2242 1.378 . S
C2250 C2245 1.350 . S
C2251 H2238 0.929 . S
C2251 C2243 1.433 . S
C2251 N2253 1.384 . S
N2252 C2248 1.427 . S
N2252 C2249 1.384 . S
N2253 C2245 1.427 . S
N2253 C2251 1.384 . S
H2254 C2260 0.930 . S
H2255 C2264 0.930 . S
H2256 C2269 0.929 . S
H2257 C2267 0.929 . S
H2258 C2262 0.929 . S
H2259 C2268 0.929 . S
C2260 H2254 0.930 . S
C2260 C2261 1.367 . S
C2260 C2268 1.378 . S
C2261 C2260 1.367 . S
C2261 C2269 1.433 . S
C2262 H2258 0.929 . S
C2262 C2264 1.378 . S
C2262 C2266 1.350 . S
C2263 C2266 1.463 . S
C2263 C2268 1.350 . S
C2263 N2271 1.427 . S
C2264 H2255 0.930 . S
C2264 C2262 1.378 . S
C2264 C2265 1.367 . S
C2265 C2264 1.367 . S
C2265 C2267 1.433 . S
C2266 C2262 1.350 . S
C2266 C2263 1.463 . S
C2266 N2270 1.427 . S
C2267 H2257 0.929 . S
C2267 C2265 1.433 . S
C2267 N2270 1.384 . S
C2268 H2259 0.929 . S
C2268 C2260 1.378 . S
C2268 C2263 1.350 . S
C2269 H2256 0.929 . S
C2269 C2261 1.433 . S
C2269 N2271 1.384 . S
N2270 C2266 1.427 . S
N2270 C2267 1.384 . S
N2271 C2263 1.427 . S
N2271 C2269 1.384 . S
H2272 C2278 0.930 . S
H2273 C2282 0.930 . S
H2274 C2287 0.929 . S
H2275 C2285 0.929 . S
H2276 C2280 0.929 . S
H2277 C2286 0.929 . S
C2278 H2272 0.930 . S
C2278 C2279 1.367 . S
C2278 C2286 1.378 . S
C2279 C2278 1.367 . S
C2279 C2287 1.433 . S
C2280 H2276 0.929 . S
C2280 C2282 1.378 . S
C2280 C2284 1.350 . S
C2281 C2284 1.463 . S
C2281 C2286 1.350 . S
C2281 N2289 1.427 . S
C2282 H2273 0.930 . S
C2282 C2280 1.378 . S
C2282 C2283 1.367 . S
C2283 C2282 1.367 . S
C2283 C2285 1.433 . S
C2284 C2280 1.350 . S
C2284 C2281 1.463 . S
C2284 N2288 1.427 . S
C2285 H2275 0.929 . S
C2285 C2283 1.433 . S
C2285 N2288 1.384 . S
C2286 H2277 0.929 . S
C2286 C2278 1.378 . S
C2286 C2281 1.350 . S
C2287 H2274 0.929 . S
C2287 C2279 1.433 . S
C2287 N2289 1.384 . S
N2288 C2284 1.427 . S
N2288 C2285 1.384 . S
N2289 C2281 1.427 . S
N2289 C2287 1.384 . S
H2290 C2296 0.930 . S
H2291 C2300 0.930 . S
H2292 C2305 0.929 . S
H2293 C2303 0.929 . S
H2294 C2298 0.929 . S
H2295 C2304 0.929 . S
C2296 H2290 0.930 . S
C2296 C2297 1.367 . S
C2296 C2304 1.378 . S
C2297 C2296 1.367 . S
C2297 C2305 1.433 . S
C2298 H2294 0.929 . S
C2298 C2300 1.378 . S
C2298 C2302 1.350 . S
C2299 C2302 1.463 . S
C2299 C2304 1.350 . S
C2299 N2307 1.427 . S
C2300 H2291 0.930 . S
C2300 C2298 1.378 . S
C2300 C2301 1.367 . S
C2301 C2300 1.367 . S
C2301 C2303 1.433 . S
C2302 C2298 1.350 . S
C2302 C2299 1.463 . S
C2302 N2306 1.427 . S
C2303 H2293 0.929 . S
C2303 C2301 1.433 . S
C2303 N2306 1.384 . S
C2304 H2295 0.929 . S
C2304 C2296 1.378 . S
C2304 C2299 1.350 . S
C2305 H2292 0.929 . S
C2305 C2297 1.433 . S
C2305 N2307 1.384 . S
N2306 C2302 1.427 . S
N2306 C2303 1.384 . S
N2307 C2299 1.427 . S
N2307 C2305 1.384 . S
H2308 C2314 0.930 . S
H2309 C2318 0.930 . S
H2310 C2323 0.929 . S
H2311 C2321 0.929 . S
H2312 C2316 0.929 . S
H2313 C2322 0.929 . S
C2314 H2308 0.930 . S
C2314 C2315 1.367 . S
C2314 C2322 1.378 . S
C2315 C2314 1.367 . S
C2315 C2323 1.433 . S
C2316 H2312 0.929 . S
C2316 C2318 1.378 . S
C2316 C2320 1.350 . S
C2317 C2320 1.463 . S
C2317 C2322 1.350 . S
C2317 N2325 1.427 . S
C2318 H2309 0.930 . S
C2318 C2316 1.378 . S
C2318 C2319 1.367 . S
C2319 C2318 1.367 . S
C2319 C2321 1.433 . S
C2320 C2316 1.350 . S
C2320 C2317 1.463 . S
C2320 N2324 1.427 . S
C2321 H2311 0.929 . S
C2321 C2319 1.433 . S
C2321 N2324 1.384 . S
C2322 H2313 0.929 . S
C2322 C2314 1.378 . S
C2322 C2317 1.350 . S
C2323 H2310 0.929 . S
C2323 C2315 1.433 . S
C2323 N2325 1.384 . S
N2324 C2320 1.427 . S
N2324 C2321 1.384 . S
N2325 C2317 1.427 . S
N2325 C2323 1.384 . S
H2326 C2332 0.930 . S
H2327 C2336 0.930 . S
H2328 C2341 0.929 . S
H2329 C2339 0.929 . S
H2330 C2334 0.929 . S
H2331 C2340 0.929 . S
C2332 H2326 0.930 . S
C2332 C2333 1.367 . S
C2332 C2340 1.378 . S
C2333 C2332 1.367 . S
C2333 C2341 1.433 . S
C2334 H2330 0.929 . S
C2334 C2336 1.378 . S
C2334 C2338 1.350 . S
C2335 C2338 1.463 . S
C2335 C2340 1.350 . S
C2335 N2343 1.427 . S
C2336 H2327 0.930 . S
C2336 C2334 1.378 . S
C2336 C2337 1.367 . S
C2337 C2336 1.367 . S
C2337 C2339 1.433 . S
C2338 C2334 1.350 . S
C2338 C2335 1.463 . S
C2338 N2342 1.427 . S
C2339 H2329 0.929 . S
C2339 C2337 1.433 . S
C2339 N2342 1.384 . S
C2340 H2331 0.929 . S
C2340 C2332 1.378 . S
C2340 C2335 1.350 . S
C2341 H2328 0.929 . S
C2341 C2333 1.433 . S
C2341 N2343 1.384 . S
N2342 C2338 1.427 . S
N2342 C2339 1.384 . S
N2343 C2335 1.427 . S
N2343 C2341 1.384 . S
H2344 C2350 0.930 . S
H2345 C2354 0.930 1_554 S
H2346 C2359 0.929 . S
H2347 C2357 0.929 . S
H2348 C2352 0.929 . S
H2349 C2358 0.929 . S
C2350 H2344 0.930 . S
C2350 C2351 1.367 . S
C2350 C2358 1.378 . S
C2351 C2350 1.367 . S
C2351 C2359 1.433 . S
C2352 H2348 0.929 . S
C2352 C2354 1.378 . S
C2352 C2356 1.350 . S
C2353 C2356 1.463 . S
C2353 C2358 1.350 . S
C2353 N2361 1.427 . S
C2354 H2345 0.930 1_556 S
C2354 C2352 1.378 . S
C2354 C2355 1.367 . S
C2355 C2354 1.367 . S
C2355 C2357 1.433 . S
C2356 C2352 1.350 . S
C2356 C2353 1.463 . S
C2356 N2360 1.427 . S
C2357 H2347 0.929 . S
C2357 C2355 1.433 . S
C2357 N2360 1.384 . S
C2358 H2349 0.929 . S
C2358 C2350 1.378 . S
C2358 C2353 1.350 . S
C2359 H2346 0.929 . S
C2359 C2351 1.433 . S
C2359 N2361 1.384 . S
N2360 C2356 1.427 . S
N2360 C2357 1.384 . S
N2361 C2353 1.427 . S
N2361 C2359 1.384 . S
H2362 C2368 0.930 . S
H2363 C2372 0.930 . S
H2364 C2377 0.929 . S
H2365 C2375 0.929 . S
H2366 C2370 0.929 . S
H2367 C2376 0.929 . S
C2368 H2362 0.930 . S
C2368 C2369 1.367 . S
C2368 C2376 1.378 . S
C2369 C2368 1.367 . S
C2369 C2377 1.433 . S
C2370 H2366 0.929 . S
C2370 C2372 1.378 . S
C2370 C2374 1.350 . S
C2371 C2374 1.463 . S
C2371 C2376 1.350 . S
C2371 N2379 1.427 . S
C2372 H2363 0.930 . S
C2372 C2370 1.378 . S
C2372 C2373 1.367 . S
C2373 C2372 1.367 . S
C2373 C2375 1.433 . S
C2374 C2370 1.350 . S
C2374 C2371 1.463 . S
C2374 N2378 1.427 . S
C2375 H2365 0.929 . S
C2375 C2373 1.433 . S
C2375 N2378 1.384 . S
C2376 H2367 0.929 . S
C2376 C2368 1.378 . S
C2376 C2371 1.350 . S
C2377 H2364 0.929 . S
C2377 C2369 1.433 . S
C2377 N2379 1.384 . S
N2378 C2374 1.427 . S
N2378 C2375 1.384 . S
N2379 C2371 1.427 . S
N2379 C2377 1.384 . S
H2380 C2386 0.930 . S
H2381 C2390 0.930 . S
H2382 C2395 0.929 . S
H2383 C2393 0.929 . S
H2384 C2388 0.929 . S
H2385 C2394 0.929 . S
C2386 H2380 0.930 . S
C2386 C2387 1.367 . S
C2386 C2394 1.378 . S
C2387 C2386 1.367 . S
C2387 C2395 1.433 . S
C2388 H2384 0.929 . S
C2388 C2390 1.378 . S
C2388 C2392 1.350 . S
C2389 C2392 1.463 . S
C2389 C2394 1.350 . S
C2389 N2397 1.427 . S
C2390 H2381 0.930 . S
C2390 C2388 1.378 . S
C2390 C2391 1.367 . S
C2391 C2390 1.367 . S
C2391 C2393 1.433 . S
C2392 C2388 1.350 . S
C2392 C2389 1.463 . S
C2392 N2396 1.427 . S
C2393 H2383 0.929 . S
C2393 C2391 1.433 . S
C2393 N2396 1.384 . S
C2394 H2385 0.929 . S
C2394 C2386 1.378 . S
C2394 C2389 1.350 . S
C2395 H2382 0.929 . S
C2395 C2387 1.433 . S
C2395 N2397 1.384 . S
N2396 C2392 1.427 . S
N2396 C2393 1.384 . S
N2397 C2389 1.427 . S
N2397 C2395 1.384 . S
H2398 C2404 0.930 . S
H2399 C2408 0.930 . S
H2400 C2413 0.929 . S
H2401 C2411 0.929 . S
H2402 C2406 0.929 . S
H2403 C2412 0.929 . S
C2404 H2398 0.930 . S
C2404 C2405 1.367 . S
C2404 C2412 1.378 . S
C2405 C2404 1.367 . S
C2405 C2413 1.433 . S
C2406 H2402 0.929 . S
C2406 C2408 1.378 . S
C2406 C2410 1.350 . S
C2407 C2410 1.463 . S
C2407 C2412 1.350 . S
C2407 N2415 1.427 . S
C2408 H2399 0.930 . S
C2408 C2406 1.378 . S
C2408 C2409 1.367 . S
C2409 C2408 1.367 . S
C2409 C2411 1.433 . S
C2410 C2406 1.350 . S
C2410 C2407 1.463 . S
C2410 N2414 1.427 . S
C2411 H2401 0.929 . S
C2411 C2409 1.433 . S
C2411 N2414 1.384 . S
C2412 H2403 0.929 . S
C2412 C2404 1.378 . S
C2412 C2407 1.350 . S
C2413 H2400 0.929 . S
C2413 C2405 1.433 . S
C2413 N2415 1.384 . S
N2414 C2410 1.427 . S
N2414 C2411 1.384 . S
N2415 C2407 1.427 . S
N2415 C2413 1.384 . S
H2416 C2422 0.930 . S
H2417 C2426 0.930 . S
H2418 C2431 0.929 . S
H2419 C2429 0.929 . S
H2420 C2424 0.929 . S
H2421 C2430 0.929 . S
C2422 H2416 0.930 . S
C2422 C2423 1.367 . S
C2422 C2430 1.378 . S
C2423 C2422 1.367 . S
C2423 C2431 1.433 . S
C2424 H2420 0.929 . S
C2424 C2426 1.378 . S
C2424 C2428 1.350 . S
C2425 C2428 1.463 . S
C2425 C2430 1.350 . S
C2425 N2433 1.427 . S
C2426 H2417 0.930 . S
C2426 C2424 1.378 . S
C2426 C2427 1.367 . S
C2427 C2426 1.367 . S
C2427 C2429 1.433 . S
C2428 C2424 1.350 . S
C2428 C2425 1.463 . S
C2428 N2432 1.427 . S
C2429 H2419 0.929 . S
C2429 C2427 1.433 . S
C2429 N2432 1.384 . S
C2430 H2421 0.929 . S
C2430 C2422 1.378 . S
C2430 C2425 1.350 . S
C2431 H2418 0.929 . S
C2431 C2423 1.433 . S
C2431 N2433 1.384 . S
N2432 C2428 1.427 . S
N2432 C2429 1.384 . S
N2433 C2425 1.427 . S
N2433 C2431 1.384 . S
H2434 C2440 0.930 . S
H2435 C2444 0.930 . S
H2436 C2449 0.929 . S
H2437 C2447 0.929 . S
H2438 C2442 0.929 . S
H2439 C2448 0.929 . S
C2440 H2434 0.930 . S
C2440 C2441 1.367 . S
C2440 C2448 1.378 . S
C2441 C2440 1.367 . S
C2441 C2449 1.433 . S
C2442 H2438 0.929 . S
C2442 C2444 1.378 . S
C2442 C2446 1.350 . S
C2443 C2446 1.463 . S
C2443 C2448 1.350 . S
C2443 N2451 1.427 . S
C2444 H2435 0.930 . S
C2444 C2442 1.378 . S
C2444 C2445 1.367 . S
C2445 C2444 1.367 . S
C2445 C2447 1.433 . S
C2446 C2442 1.350 . S
C2446 C2443 1.463 . S
C2446 N2450 1.427 . S
C2447 H2437 0.929 . S
C2447 C2445 1.433 . S
C2447 N2450 1.384 . S
C2448 H2439 0.929 . S
C2448 C2440 1.378 . S
C2448 C2443 1.350 . S
C2449 H2436 0.929 . S
C2449 C2441 1.433 . S
C2449 N2451 1.384 . S
N2450 C2446 1.427 . S
N2450 C2447 1.384 . S
N2451 C2443 1.427 . S
N2451 C2449 1.384 . S
H2452 C2458 0.930 . S
H2453 C2462 0.930 1_454 S
H2454 C2467 0.929 . S
H2455 C2465 0.929 1_554 S
H2456 C2460 0.929 . S
H2457 C2466 0.929 . S
C2458 H2452 0.930 . S
C2458 C2459 1.367 . S
C2458 C2466 1.378 . S
C2459 C2458 1.367 . S
C2459 C2467 1.433 . S
C2460 H2456 0.929 . S
C2460 C2462 1.378 . S
C2460 C2464 1.350 . S
C2461 C2464 1.463 . S
C2461 C2466 1.350 . S
C2461 N2469 1.427 . S
C2462 H2453 0.930 1_656 S
C2462 C2460 1.378 . S
C2462 C2463 1.352 1_656 S
C2463 C2462 1.352 1_454 S
C2463 C2465 1.429 1_454 S
C2464 C2460 1.350 . S
C2464 C2461 1.463 . S
C2464 N2468 1.427 . S
C2465 H2455 0.929 1_556 S
C2465 C2463 1.429 1_656 S
C2465 N2468 1.384 . S
C2466 H2457 0.929 . S
C2466 C2458 1.378 . S
C2466 C2461 1.350 . S
C2467 H2454 0.929 . S
C2467 C2459 1.433 . S
C2467 N2469 1.384 . S
N2468 C2464 1.427 . S
N2468 C2465 1.384 . S
N2469 C2461 1.427 . S
N2469 C2467 1.384 . S
H2470 C2476 0.930 . S
H2471 C2480 0.930 . S
H2472 C2485 0.929 . S
H2473 C2483 0.929 . S
H2474 C2478 0.929 . S
H2475 C2484 0.929 . S
C2476 H2470 0.930 . S
C2476 C2477 1.367 . S
C2476 C2484 1.378 . S
C2477 C2476 1.367 . S
C2477 C2485 1.433 . S
C2478 H2474 0.929 . S
C2478 C2480 1.378 . S
C2478 C2482 1.350 . S
C2479 C2482 1.463 . S
C2479 C2484 1.350 . S
C2479 N2487 1.427 . S
C2480 H2471 0.930 . S
C2480 C2478 1.378 . S
C2480 C2481 1.367 . S
C2481 C2480 1.367 . S
C2481 C2483 1.433 . S
C2482 C2478 1.350 . S
C2482 C2479 1.463 . S
C2482 N2486 1.427 . S
C2483 H2473 0.929 . S
C2483 C2481 1.433 . S
C2483 N2486 1.384 . S
C2484 H2475 0.929 . S
C2484 C2476 1.378 . S
C2484 C2479 1.350 . S
C2485 H2472 0.929 . S
C2485 C2477 1.433 . S
C2485 N2487 1.384 . S
N2486 C2482 1.427 . S
N2486 C2483 1.384 . S
N2487 C2479 1.427 . S
N2487 C2485 1.384 . S
H2488 C2494 0.930 . S
H2489 C2498 0.930 . S
H2490 C2503 0.929 . S
H2491 C2501 0.929 . S
H2492 C2496 0.929 . S
H2493 C2502 0.929 . S
C2494 H2488 0.930 . S
C2494 C2495 1.367 . S
C2494 C2502 1.378 . S
C2495 C2494 1.367 . S
C2495 C2503 1.433 . S
C2496 H2492 0.929 . S
C2496 C2498 1.378 . S
C2496 C2500 1.350 . S
C2497 C2500 1.463 . S
C2497 C2502 1.350 . S
C2497 N2505 1.427 . S
C2498 H2489 0.930 . S
C2498 C2496 1.378 . S
C2498 C2499 1.367 . S
C2499 C2498 1.367 . S
C2499 C2501 1.433 . S
C2500 C2496 1.350 . S
C2500 C2497 1.463 . S
C2500 N2504 1.427 . S
C2501 H2491 0.929 . S
C2501 C2499 1.433 . S
C2501 N2504 1.384 . S
C2502 H2493 0.929 . S
C2502 C2494 1.378 . S
C2502 C2497 1.350 . S
C2503 H2490 0.929 . S
C2503 C2495 1.433 . S
C2503 N2505 1.384 . S
N2504 C2500 1.427 . S
N2504 C2501 1.384 . S
N2505 C2497 1.427 . S
N2505 C2503 1.384 . S
H2506 C2512 0.930 . S
H2507 C2516 0.930 . S
H2508 C2521 0.929 . S
H2509 C2519 0.929 . S
H2510 C2514 0.929 . S
H2511 C2520 0.929 . S
C2512 H2506 0.930 . S
C2512 C2513 1.367 . S
C2512 C2520 1.378 . S
C2513 C2512 1.367 . S
C2513 C2521 1.433 . S
C2514 H2510 0.929 . S
C2514 C2516 1.378 . S
C2514 C2518 1.350 . S
C2515 C2518 1.463 . S
C2515 C2520 1.350 . S
C2515 N2523 1.427 . S
C2516 H2507 0.930 . S
C2516 C2514 1.378 . S
C2516 C2517 1.367 . S
C2517 C2516 1.367 . S
C2517 C2519 1.433 . S
C2518 C2514 1.350 . S
C2518 C2515 1.463 . S
C2518 N2522 1.427 . S
C2519 H2509 0.929 . S
C2519 C2517 1.433 . S
C2519 N2522 1.384 . S
C2520 H2511 0.929 . S
C2520 C2512 1.378 . S
C2520 C2515 1.350 . S
C2521 H2508 0.929 . S
C2521 C2513 1.433 . S
C2521 N2523 1.384 . S
N2522 C2518 1.427 . S
N2522 C2519 1.384 . S
N2523 C2515 1.427 . S
N2523 C2521 1.384 . S
H2524 C2530 0.930 . S
H2525 C2534 0.930 . S
H2526 C2539 0.929 . S
H2527 C2537 0.929 . S
H2528 C2532 0.929 . S
H2529 C2538 0.929 . S
C2530 H2524 0.930 . S
C2530 C2531 1.367 . S
C2530 C2538 1.378 . S
C2531 C2530 1.367 . S
C2531 C2539 1.433 . S
C2532 H2528 0.929 . S
C2532 C2534 1.378 . S
C2532 C2536 1.350 . S
C2533 C2536 1.463 . S
C2533 C2538 1.350 . S
C2533 N2541 1.427 . S
C2534 H2525 0.930 . S
C2534 C2532 1.378 . S
C2534 C2535 1.367 . S
C2535 C2534 1.367 . S
C2535 C2537 1.433 . S
C2536 C2532 1.350 . S
C2536 C2533 1.463 . S
C2536 N2540 1.427 . S
C2537 H2527 0.929 . S
C2537 C2535 1.433 . S
C2537 N2540 1.384 . S
C2538 H2529 0.929 . S
C2538 C2530 1.378 . S
C2538 C2533 1.350 . S
C2539 H2526 0.929 . S
C2539 C2531 1.433 . S
C2539 N2541 1.384 . S
N2540 C2536 1.427 . S
N2540 C2537 1.384 . S
N2541 C2533 1.427 . S
N2541 C2539 1.384 . S
H2542 C2548 0.930 . S
H2543 C2552 0.930 . S
H2544 C2557 0.929 . S
H2545 C2555 0.929 . S
H2546 C2550 0.929 . S
H2547 C2556 0.929 . S
C2548 H2542 0.930 . S
C2548 C2549 1.367 . S
C2548 C2556 1.378 . S
C2549 C2548 1.367 . S
C2549 C2557 1.433 . S
C2550 H2546 0.929 . S
C2550 C2552 1.378 . S
C2550 C2554 1.350 . S
C2551 C2554 1.463 . S
C2551 C2556 1.350 . S
C2551 N2559 1.427 . S
C2552 H2543 0.930 . S
C2552 C2550 1.378 . S
C2552 C2553 1.367 . S
C2553 C2552 1.367 . S
C2553 C2555 1.433 . S
C2554 C2550 1.350 . S
C2554 C2551 1.463 . S
C2554 N2558 1.427 . S
C2555 H2545 0.929 . S
C2555 C2553 1.433 . S
C2555 N2558 1.384 . S
C2556 H2547 0.929 . S
C2556 C2548 1.378 . S
C2556 C2551 1.350 . S
C2557 H2544 0.929 . S
C2557 C2549 1.433 . S
C2557 N2559 1.384 . S
N2558 C2554 1.427 . S
N2558 C2555 1.384 . S
N2559 C2551 1.427 . S
N2559 C2557 1.384 . S
H2560 C2566 0.930 . S
H2561 C2570 0.930 . S
H2562 C2575 0.929 . S
H2563 C2573 0.929 . S
H2564 C2568 0.929 . S
H2565 C2574 0.929 . S
C2566 H2560 0.930 . S
C2566 C2567 1.367 . S
C2566 C2574 1.378 . S
C2567 C2566 1.367 . S
C2567 C2575 1.433 . S
C2568 H2564 0.929 . S
C2568 C2570 1.378 . S
C2568 C2572 1.350 . S
C2569 C2572 1.463 . S
C2569 C2574 1.350 . S
C2569 N2577 1.427 . S
C2570 H2561 0.930 . S
C2570 C2568 1.378 . S
C2570 C2571 1.367 . S
C2571 C2570 1.367 . S
C2571 C2573 1.433 . S
C2572 C2568 1.350 . S
C2572 C2569 1.463 . S
C2572 N2576 1.427 . S
C2573 H2563 0.929 . S
C2573 C2571 1.433 . S
C2573 N2576 1.384 . S
C2574 H2565 0.929 . S
C2574 C2566 1.378 . S
C2574 C2569 1.350 . S
C2575 H2562 0.929 . S
C2575 C2567 1.433 . S
C2575 N2577 1.384 . S
N2576 C2572 1.427 . S
N2576 C2573 1.384 . S
N2577 C2569 1.427 . S
N2577 C2575 1.384 . S
H2578 C2584 0.930 . S
H2579 C2588 0.930 . S
H2580 C2593 0.929 . S
H2581 C2591 0.929 . S
H2582 C2586 0.929 . S
H2583 C2592 0.929 . S
C2584 H2578 0.930 . S
C2584 C2585 1.367 . S
C2584 C2592 1.378 . S
C2585 C2584 1.367 . S
C2585 C2593 1.433 . S
C2586 H2582 0.929 . S
C2586 C2588 1.378 1_565 S
C2586 C2590 1.350 . S
C2587 C2590 1.463 . S
C2587 C2592 1.350 . S
C2587 N2595 1.427 . S
C2588 H2579 0.930 . S
C2588 C2586 1.378 1_545 S
C2588 C2589 1.374 . S
C2589 C2588 1.374 . S
C2589 C2591 1.414 1_545 S
C2590 C2586 1.350 . S
C2590 C2587 1.463 . S
C2590 N2594 1.427 . S
C2591 H2581 0.929 . S
C2591 C2589 1.414 1_565 S
C2591 N2594 1.384 . S
C2592 H2583 0.929 . S
C2592 C2584 1.378 . S
C2592 C2587 1.350 . S
C2593 H2580 0.929 . S
C2593 C2585 1.433 . S
C2593 N2595 1.384 . S
N2594 C2590 1.427 . S
N2594 C2591 1.384 . S
N2595 C2587 1.427 . S
N2595 C2593 1.384 . S
H2596 C2602 0.930 . S
H2597 C2606 0.930 . S
H2598 C2611 0.929 . S
H2599 C2609 0.929 . S
H2600 C2604 0.929 . S
H2601 C2610 0.929 . S
C2602 H2596 0.930 . S
C2602 C2603 1.367 . S
C2602 C2610 1.378 . S
C2603 C2602 1.367 . S
C2603 C2611 1.433 . S
C2604 H2600 0.929 . S
C2604 C2606 1.378 . S
C2604 C2608 1.350 . S
C2605 C2608 1.463 . S
C2605 C2610 1.350 . S
C2605 N2613 1.427 . S
C2606 H2597 0.930 . S
C2606 C2604 1.378 . S
C2606 C2607 1.367 . S
C2607 C2606 1.367 . S
C2607 C2609 1.433 . S
C2608 C2604 1.350 . S
C2608 C2605 1.463 . S
C2608 N2612 1.427 . S
C2609 H2599 0.929 . S
C2609 C2607 1.433 . S
C2609 N2612 1.384 . S
C2610 H2601 0.929 . S
C2610 C2602 1.378 . S
C2610 C2605 1.350 . S
C2611 H2598 0.929 . S
C2611 C2603 1.433 . S
C2611 N2613 1.384 . S
N2612 C2608 1.427 . S
N2612 C2609 1.384 . S
N2613 C2605 1.427 . S
N2613 C2611 1.384 . S
H2614 C2620 0.930 . S
H2615 C2624 0.930 . S
H2616 C2629 0.929 . S
H2617 C2627 0.929 . S
H2618 C2622 0.929 . S
H2619 C2628 0.929 . S
C2620 H2614 0.930 . S
C2620 C2621 1.367 . S
C2620 C2628 1.378 . S
C2621 C2620 1.367 . S
C2621 C2629 1.433 . S
C2622 H2618 0.929 . S
C2622 C2624 1.378 . S
C2622 C2626 1.350 . S
C2623 C2626 1.463 . S
C2623 C2628 1.350 . S
C2623 N2631 1.427 . S
C2624 H2615 0.930 . S
C2624 C2622 1.378 . S
C2624 C2625 1.367 . S
C2625 C2624 1.367 . S
C2625 C2627 1.433 . S
C2626 C2622 1.350 . S
C2626 C2623 1.463 . S
C2626 N2630 1.427 . S
C2627 H2617 0.929 . S
C2627 C2625 1.433 . S
C2627 N2630 1.384 . S
C2628 H2619 0.929 . S
C2628 C2620 1.378 . S
C2628 C2623 1.350 . S
C2629 H2616 0.929 . S
C2629 C2621 1.433 . S
C2629 N2631 1.384 . S
N2630 C2626 1.427 . S
N2630 C2627 1.384 . S
N2631 C2623 1.427 . S
N2631 C2629 1.384 . S
H2632 C2638 0.930 . S
H2633 C2642 0.930 . S
H2634 C2647 0.929 . S
H2635 C2645 0.929 . S
H2636 C2640 0.929 . S
H2637 C2646 0.929 . S
C2638 H2632 0.930 . S
C2638 C2639 1.367 . S
C2638 C2646 1.378 . S
C2639 C2638 1.367 . S
C2639 C2647 1.433 . S
C2640 H2636 0.929 . S
C2640 C2642 1.378 . S
C2640 C2644 1.350 . S
C2641 C2644 1.463 . S
C2641 C2646 1.350 . S
C2641 N2649 1.427 . S
C2642 H2633 0.930 . S
C2642 C2640 1.378 . S
C2642 C2643 1.367 . S
C2643 C2642 1.367 . S
C2643 C2645 1.433 . S
C2644 C2640 1.350 . S
C2644 C2641 1.463 . S
C2644 N2648 1.427 . S
C2645 H2635 0.929 . S
C2645 C2643 1.433 . S
C2645 N2648 1.384 . S
C2646 H2637 0.929 . S
C2646 C2638 1.378 . S
C2646 C2641 1.350 . S
C2647 H2634 0.929 . S
C2647 C2639 1.433 . S
C2647 N2649 1.384 . S
N2648 C2644 1.427 . S
N2648 C2645 1.384 . S
N2649 C2641 1.427 . S
N2649 C2647 1.384 . S
H2650 C2656 0.930 . S
H2651 C2660 0.930 . S
H2652 C2665 0.929 . S
H2653 C2663 0.929 . S
H2654 C2658 0.929 . S
H2655 C2664 0.929 . S
C2656 H2650 0.930 . S
C2656 C2657 1.367 . S
C2656 C2664 1.378 . S
C2657 C2656 1.367 . S
C2657 C2665 1.433 . S
C2658 H2654 0.929 . S
C2658 C2660 1.378 . S
C2658 C2662 1.350 . S
C2659 C2662 1.463 . S
C2659 C2664 1.350 . S
C2659 N2667 1.427 . S
C2660 H2651 0.930 . S
C2660 C2658 1.378 . S
C2660 C2661 1.367 . S
C2661 C2660 1.367 . S
C2661 C2663 1.433 . S
C2662 C2658 1.350 . S
C2662 C2659 1.463 . S
C2662 N2666 1.427 . S
C2663 H2653 0.929 . S
C2663 C2661 1.433 . S
C2663 N2666 1.384 . S
C2664 H2655 0.929 . S
C2664 C2656 1.378 . S
C2664 C2659 1.350 . S
C2665 H2652 0.929 . S
C2665 C2657 1.433 . S
C2665 N2667 1.384 . S
N2666 C2662 1.427 . S
N2666 C2663 1.384 . S
N2667 C2659 1.427 . S
N2667 C2665 1.384 . S
H2668 C2674 0.930 . S
H2669 C2678 0.930 . S
H2670 C2683 0.929 . S
H2671 C2681 0.929 . S
H2672 C2676 0.929 . S
H2673 C2682 0.929 . S
C2674 H2668 0.930 . S
C2674 C2675 1.367 . S
C2674 C2682 1.378 . S
C2675 C2674 1.367 . S
C2675 C2683 1.433 . S
C2676 H2672 0.929 . S
C2676 C2678 1.378 . S
C2676 C2680 1.350 . S
C2677 C2680 1.463 . S
C2677 C2682 1.350 . S
C2677 N2685 1.427 . S
C2678 H2669 0.930 . S
C2678 C2676 1.378 . S
C2678 C2679 1.367 . S
C2679 C2678 1.367 . S
C2679 C2681 1.433 . S
C2680 C2676 1.350 . S
C2680 C2677 1.463 . S
C2680 N2684 1.427 . S
C2681 H2671 0.929 . S
C2681 C2679 1.433 . S
C2681 N2684 1.384 . S
C2682 H2673 0.929 . S
C2682 C2674 1.378 . S
C2682 C2677 1.350 . S
C2683 H2670 0.929 . S
C2683 C2675 1.433 . S
C2683 N2685 1.384 . S
N2684 C2680 1.427 . S
N2684 C2681 1.384 . S
N2685 C2677 1.427 . S
N2685 C2683 1.384 . S
H2686 C2692 0.930 . S
H2687 C2696 0.930 . S
H2688 C2701 0.929 . S
H2689 C2699 0.929 . S
H2690 C2694 0.929 . S
H2691 C2700 0.929 . S
C2692 H2686 0.930 . S
C2692 C2693 1.367 . S
C2692 C2700 1.378 . S
C2693 C2692 1.367 . S
C2693 C2701 1.433 . S
C2694 H2690 0.929 . S
C2694 C2696 1.378 . S
C2694 C2698 1.350 . S
C2695 C2698 1.463 . S
C2695 C2700 1.350 . S
C2695 N2703 1.427 . S
C2696 H2687 0.930 . S
C2696 C2694 1.378 . S
C2696 C2697 1.367 . S
C2697 C2696 1.367 . S
C2697 C2699 1.433 . S
C2698 C2694 1.350 . S
C2698 C2695 1.463 . S
C2698 N2702 1.427 . S
C2699 H2689 0.929 . S
C2699 C2697 1.433 . S
C2699 N2702 1.384 . S
C2700 H2691 0.929 . S
C2700 C2692 1.378 . S
C2700 C2695 1.350 . S
C2701 H2688 0.929 . S
C2701 C2693 1.433 . S
C2701 N2703 1.384 . S
N2702 C2698 1.427 . S
N2702 C2699 1.384 . S
N2703 C2695 1.427 . S
N2703 C2701 1.384 . S
C983 C106 2.489 . S
C987 C349 2.494 . S
C1001 C65 2.063 . S
C1005 C400 2.040 . S
C1019 C79 1.896 . S
C1023 C429 1.887 . S
C1041 C473 1.252 . S
C1037 C90 1.234 . S
C1055 C21 1.166 . S
C1059 C513 1.171 . S
C1077 C549 1.561 . S
C1073 C35 1.574 . S
C1095 C599 1.902 . S
C1091 C50 1.903 . S
C1109 C6 2.243 . S
C1113 C629 2.260 . S
C1131 C359 2.127 . S
C1127 C232 2.127 . S
C1145 C245 0.667 . S
C1149 C402 0.664 . S
C1167 C439 1.281 . S
C1163 C274 1.284 . S
C1185 C469 1.411 . S
C1181 C175 1.406 . S
C1199 C231 1.292 . S
C1203 C509 1.291 . S
C1221 C559 0.822 . S
C1217 C246 0.827 . S
C1239 C593 0.732 . S
C1235 C273 0.725 . S
C1257 C639 2.048 . S
C1253 C176 2.046 . S
C1275 C353 1.280 . S
C1271 C160 1.274 . S
C1289 C289 1.703 . S
C1293 C679 1.699 . S
C1311 C713 1.486 . S
C1307 C328 1.467 . S
C1329 C749 1.088 . S
C1325 C317 1.117 . S
C1343 C118 1.434 . S
C1347 C633 1.424 . S
C1361 C132 1.537 . S
C1365 C433 1.558 . S
C1379 C331 1.681 . S
C1383 C799 1.671 . S
C1401 C818 0.481 . S
C1397 C303 0.468 . S
C1419 C360 2.149 1_565 S
C1415 C63 2.166 . S
C1437 C829 2.487 . S
C1433 C107 2.452 . S
C1451 C92 1.748 . S
C1455 C440 1.788 . S
C1469 C78 1.767 . S
C1473 C802 1.724 . S
C1491 C522 1.597 . S
C1487 C8 1.639 . S
C1505 C51 1.780 . S
C1509 C720 1.806 . S
C1527 C578 2.266 1_565 S
C1523 C37 2.243 . S
C1545 C880 2.278 . S
C1541 C20 2.289 . S
C1563 C338 1.946 1_556 S
C1559 C147 1.954 . S
C1581 C833 0.731 . S
C1577 C316 0.746 . S
C1595 C119 1.227 . S
C1599 C418 1.290 . S
C1613 C288 1.581 . S
C1617 C800 1.581 . S
C1631 C148 1.641 . S
C1635 C520 1.641 . S
C1653 C698 0.942 . S
C1649 C315 0.914 . S
C1667 C120 1.023 . S
C1671 C602 0.991 . S
C1685 C287 1.948 . S
C1689 C858 1.943 . S
C1703 C188 1.079 . S
C1707 C362 1.063 . S
C1721 C177 2.021 . S
C1725 C658 2.030 . S
C1739 C258 1.483 . S
C1743 C562 1.508 . S
C1757 C247 1.101 . S
C1761 C760 1.100 . S
C1779 C882 1.273 . S
C1775 C272 1.310 . S
C1793 C216 1.397 . S
C1797 C442 1.395 . S
C1815 C458 1.955 . S
C1811 C261 1.944 . S
C1833 C399 0.493 . S
C1829 C205 0.507 . S
C1847 C76 2.094 . S
C1851 C909 2.103 . S
C1869 C840 2.107 . S
C1865 C93 2.136 . S
C1883 C105 1.531 1_554 S
C1887 C949 1.514 . S
C1901 C62 1.264 1_655 S
C1905 C793 1.282 . S
C1919 C49 1.137 . S
C1923 C673 1.140 . S
C1941 C709 1.941 . S
C1937 C9 1.962 . S
C1959 C759 1.822 . S
C1955 C22 1.828 . S
C1977 C869 2.653 . S
C1973 C36 2.642 . S
C1995 C919 2.054 . S
C1991 C260 2.054 . S
C2009 C189 0.599 . S
C2013 C842 0.585 . S
C2031 C959 1.215 . S
C2027 C204 1.217 . S
C2049 C789 1.234 . S
C2045 C217 1.236 . S
C2067 C669 1.459 1_556 S
C2063 C259 1.453 . S
C2081 C190 0.903 . S
C2085 C719 0.901 . S
C2103 C753 0.823 . S
C2099 C203 0.832 . S
C2117 C218 2.122 . S
C2121 C879 2.123 . S
C2139 C913 1.284 . S
C2135 C314 1.277 . S
C2153 C135 1.774 . S
C2157 C519 1.763 . S
C2175 C553 1.491 . S
C2171 C146 1.466 . S
C2193 C589 1.134 . S
C2189 C163 1.159 . S
C2211 C873 1.426 . S
C2207 C300 1.432 . S
C2225 C286 1.518 . S
C2229 C953 1.542 . S
C2247 C479 1.610 . S
C2243 C149 1.614 . S
C2265 C378 0.458 . S
C2261 C121 0.399 . S
C2279 C91 2.163 . S
C2283 C920 2.157 . S
C2301 C389 2.111 . S
C2297 C77 1.983 . S
C2315 C64 1.743 . S
C2319 C960 1.780 . S
C2333 C104 1.412 . S
C2337 C482 1.431 . S
C2351 C34 1.307 . S
C2355 C682 1.326 . S
C2373 C560 1.790 . S
C2369 C23 1.752 . S
C2387 C7 1.770 . S
C2391 C738 1.903 . S
C2405 C48 2.278 . S
C2409 C640 2.272 . S
C2427 C898 1.919 . S
C2423 C329 1.924 . S
C2441 C162 0.772 . S
C2445 C393 0.750 . S
C2463 C938 1.296 . S
C2459 C301 1.218 . S
C2477 C134 1.589 . S
C2481 C480 1.596 . S
C2495 C330 1.648 . S
C2499 C680 1.660 . S
C2517 C538 0.940 . S
C2513 C161 0.916 . S
C2531 C302 1.027 . S
C2535 C762 0.995 . S
C2553 C618 1.908 . S
C2549 C133 1.914 . S
C2571 C922 1.190 . S
C2567 C244 1.203 . S
C2589 C498 2.014 . S
C2585 C219 1.970 . S
C2603 C230 1.310 . S
C2607 C722 1.327 . S
C2625 C600 1.083 . S
C2621 C191 1.104 . S
C2639 C202 1.449 . S
C2643 C642 1.419 . S
C2657 C174 1.557 . S
C2661 C962 1.563 . S
C2679 C778 1.923 . S
C2675 C233 1.901 . S
C2697 C839 0.463 . S
C2693 C275 0.468 . S
