# Generated by pormake.
# Topology tsx, (6,3)-cn, num edge types: 1
# Building blocks:
#     Node 0, Type 0, BuildingBlock: FUNLAD_clean_sbu_0, # of connection points: 6
#     Node 1, Type 0, BuildingBlock: FUNLAD_clean_sbu_0, # of connection points: 6
#     Node 2, Type 1, BuildingBlock: OLANEW_clean_sbu_2, # of connection points: 3
#     Node 3, Type 1, BuildingBlock: OLANEW_clean_sbu_2, # of connection points: 3
#     Node 4, Type 1, BuildingBlock: OLANEW_clean_sbu_2, # of connection points: 3
#     Node 5, Type 1, BuildingBlock: OLANEW_clean_sbu_2, # of connection points: 3
#     Edge 6, Type (0, 1), BuildingBlock: MIFKUJ_clean_linker_0, # of connection points: 2
#     Edge 7, Type (0, 1), BuildingBlock: MIFKUJ_clean_linker_0, # of connection points: 2
#     Edge 8, Type (0, 1), BuildingBlock: MIFKUJ_clean_linker_0, # of connection points: 2
#     Edge 9, Type (0, 1), BuildingBlock: MIFKUJ_clean_linker_0, # of connection points: 2
#     Edge 10, Type (0, 1), BuildingBlock: MIFKUJ_clean_linker_0, # of connection points: 2
#     Edge 11, Type (0, 1), BuildingBlock: MIFKUJ_clean_linker_0, # of connection points: 2
#     Edge 12, Type (0, 1), BuildingBlock: MIFKUJ_clean_linker_0, # of connection points: 2
#     Edge 13, Type (0, 1), BuildingBlock: MIFKUJ_clean_linker_0, # of connection points: 2
#     Edge 14, Type (0, 1), BuildingBlock: MIFKUJ_clean_linker_0, # of connection points: 2
#     Edge 15, Type (0, 1), BuildingBlock: MIFKUJ_clean_linker_0, # of connection points: 2
#     Edge 16, Type (0, 1), BuildingBlock: MIFKUJ_clean_linker_0, # of connection points: 2
#     Edge 17, Type (0, 1), BuildingBlock: MIFKUJ_clean_linker_0, # of connection points: 2
# Relax obj value: 0.078
# Max RMSD: 0.100
# Mean RMSD: 0.086
data_MOF--net-tsx--node1-FUNLAD_clean_sbu_0--node2-OLANEW_clean_sbu_2--edge1-MIFKUJ_clean_linker_0
_symmetry_space_group_name_H-M    P1
_symmetry_Int_Tables_number       1
_symmetry_cell_setting            triclinic
loop_
_symmetry_equiv_pos_as_xyz
'x, y, z'
_cell_length_a     26.936281
_cell_length_b     29.654595
_cell_length_c     50.348001
_cell_angle_alpha  96.757637
_cell_angle_beta   92.2531
_cell_angle_gamma 89.936303
loop_
_atom_site_label
_atom_site_type_symbol
_atom_site_fract_x
_atom_site_fract_y
_atom_site_fract_z
_atom_type_partial_charge
C0 C 0.93288 0.95556 0.00609 0.0
N1 N 0.0114 0.03567 0.06859 0.0
C2 C 0.96963 0.03537 0.08289 0.0
C3 C 0.97318 0.03755 0.11078 0.0
C4 C 0.0202 0.04009 0.12403 0.0
C5 C 0.06255 0.04131 0.10874 0.0
C6 C 0.0573 0.03895 0.08096 0.0
Zn7 Zn 0.00664 0.02826 0.02775 0.0
C8 C 0.07666 0.95769 0.00499 0.0
N9 N 0.99793 0.01011 0.94236 0.0
C10 C 0.95425 0.00474 0.92776 0.0
C11 C 0.042 0.0126 0.93027 0.0
C12 C 0.04324 0.01123 0.90259 0.0
C13 C 0.99885 0.00632 0.88709 0.0
C14 C 0.95393 0.00228 0.89982 0.0
Zn15 Zn 0.00015 0.01742 0.98325 0.0
O16 O 0.95224 0.97603 0.02764 0.0
C17 C 0.92971 0.0874 0.00593 0.0
O18 O 0.94596 0.96635 0.98369 0.0
H19 H 0.07638 0.01623 0.94215 0.0
H20 H 0.93353 0.03261 0.07263 0.0
H21 H 0.91965 0.00294 0.93779 0.0
O22 O 0.95015 0.07841 0.02789 0.0
O23 O 0.94352 0.06661 0.98393 0.0
H24 H 0.09005 0.03911 0.06922 0.0
O25 O 0.05464 0.06915 0.98341 0.0
O26 O 0.06097 0.07957 0.02719 0.0
O27 O 0.05645 0.9675 0.98318 0.0
O28 O 0.06303 0.9784 0.027 0.0
C29 C 0.07444 0.0897 0.00474 0.0
H30 H 0.93956 0.03602 0.12174 0.0
H31 H 0.09947 0.04396 0.11813 0.0
H32 H 0.07861 0.01381 0.89333 0.0
H33 H 0.91902 0.99839 0.88834 0.0
C34 C 0.42304 0.45143 0.49763 0.0
N35 N 0.50387 0.52464 0.56186 0.0
C36 C 0.4623 0.53334 0.57611 0.0
C37 C 0.46513 0.5367 0.60407 0.0
C38 C 0.51096 0.53017 0.61727 0.0
C39 C 0.55317 0.52151 0.60214 0.0
C40 C 0.54889 0.51933 0.57435 0.0
Zn41 Zn 0.50059 0.51801 0.52093 0.0
C42 C 0.56745 0.44452 0.49849 0.0
N43 N 0.49696 0.50374 0.43554 0.0
C44 C 0.45404 0.50641 0.42062 0.0
C45 C 0.54165 0.49899 0.42385 0.0
C46 C 0.54452 0.49705 0.39619 0.0
C47 C 0.50102 0.50035 0.38029 0.0
C48 C 0.45526 0.50498 0.39278 0.0
Zn49 Zn 0.49743 0.50996 0.47639 0.0
O50 O 0.44131 0.47101 0.5197 0.0
C51 C 0.43077 0.5836 0.49887 0.0
O52 O 0.43983 0.46113 0.47571 0.0
H53 H 0.57542 0.49752 0.43605 0.0
H54 H 0.42687 0.53733 0.56578 0.0
H55 H 0.41893 0.51026 0.43034 0.0
O56 O 0.44906 0.57251 0.52086 0.0
O57 O 0.44426 0.56237 0.47693 0.0
H58 H 0.58163 0.51306 0.56275 0.0
O59 O 0.55456 0.55907 0.47764 0.0
O60 O 0.56055 0.56424 0.5215 0.0
O61 O 0.55124 0.45731 0.47656 0.0
O62 O 0.55148 0.46375 0.52033 0.0
C63 C 0.57531 0.57588 0.49964 0.0
H64 H 0.43179 0.5433 0.61523 0.0
H65 H 0.5892 0.51676 0.61174 0.0
H66 H 0.58062 0.49419 0.38741 0.0
H67 H 0.42086 0.50737 0.38115 0.0
O68 O 0.01387 0.01443 0.41996 0.0
Cd69 Cd 0.00986 0.0091 0.46778 0.0
O70 O 0.07672 0.06226 0.42437 0.0
Cd71 Cd 0.05825 0.08151 0.46588 0.0
O72 O 0.00047 0.12272 0.48589 0.0
C73 C 0.95632 0.11581 0.47647 0.0
O74 O 0.94806 0.08288 0.45695 0.0
C75 C 0.0473 0.03597 0.40946 0.0
C76 C 0.07498 0.94103 0.48031 0.0
O77 O 0.03022 0.93175 0.47192 0.0
O78 O 0.08876 0.98273 0.48319 0.0
O79 O 0.0644 0.00161 0.59183 0.0
Cd80 Cd 0.06823 0.99571 0.54313 0.0
O81 O 0.08716 0.93066 0.59359 0.0
Cd82 Cd 0.08158 0.91155 0.55061 0.0
O83 O 0.03143 0.86442 0.5267 0.0
C84 C 0.98945 0.87831 0.51872 0.0
O85 O 0.97914 0.92181 0.52312 0.0
C86 C 0.07546 0.96921 0.6054 0.0
C87 C 0.11589 0.07162 0.52817 0.0
O88 O 0.06859 0.0709 0.53009 0.0
O89 O 0.14043 0.03627 0.53306 0.0
O90 O 0.52553 0.51154 0.91211 0.0
Cd91 Cd 0.51293 0.50721 0.95947 0.0
O92 O 0.56794 0.57556 0.91837 0.0
Cd93 Cd 0.55012 0.5857 0.96042 0.0
O94 O 0.48997 0.6188 0.98273 0.0
C95 C 0.44985 0.61898 0.96861 0.0
O96 O 0.4488 0.5976 0.94419 0.0
C97 C 0.55013 0.54222 0.90275 0.0
C98 C 0.57414 0.43927 0.9757 0.0
O99 O 0.53037 0.43015 0.96562 0.0
O100 O 0.58853 0.4808 0.97872 0.0
O101 O 0.5442 0.50909 0.08331 0.0
Cd102 Cd 0.55486 0.50165 0.03501 0.0
O103 O 0.59459 0.45206 0.0883 0.0
Cd104 Cd 0.58424 0.42556 0.04632 0.0
O105 O 0.52856 0.38256 0.02327 0.0
C106 C 0.48409 0.39678 0.02402 0.0
O107 O 0.47534 0.43711 0.03673 0.0
C108 C 0.56896 0.48524 0.09853 0.0
C109 C 0.61507 0.5727 0.02361 0.0
O110 O 0.56766 0.57516 0.02094 0.0
O111 O 0.63389 0.53633 0.03109 0.0
H112 H 0.11582 0.11448 0.95989 0.0
H113 H 0.18574 0.16616 0.95765 0.0
H114 H 0.19257 0.1936 0.04378 0.0
H115 H 0.12324 0.14137 0.04627 0.0
H116 H 0.20232 0.25483 0.97313 0.0
H117 H 0.31393 0.20167 0.06547 0.0
H118 H 0.3223 0.13467 0.09006 0.0
H119 H 0.277 0.04773 0.01899 0.0
H120 H 0.26982 0.11392 0.9938 0.0
H121 H 0.38498 0.41503 0.02633 0.0
H122 H 0.31621 0.36165 0.01625 0.0
H123 H 0.41917 0.25584 0.98962 0.0
H124 H 0.48854 0.30905 7e-05 0.0
H125 H 0.35858 0.22751 0.02425 0.0
H126 H 0.33858 0.29947 0.94505 0.0
H127 H 0.33088 0.36331 0.91792 0.0
H128 H 0.19709 0.4063 0.95697 0.0
H129 H 0.20434 0.34306 0.98462 0.0
C130 C 0.13198 0.13171 0.97837 0.0
C131 C 0.11424 0.12353 0.00329 0.0
C132 C 0.17184 0.16135 0.97702 0.0
C133 C 0.19476 0.18322 0.00054 0.0
C134 C 0.17592 0.17645 0.0254 0.0
C135 C 0.13621 0.1467 0.02678 0.0
C136 C 0.23949 0.21183 -0.0008 0.0
C137 C 0.23654 0.24889 0.98426 0.0
C138 C 0.28455 0.20321 0.01311 0.0
C139 C 0.29087 0.16289 0.02782 0.0
C140 C 0.30623 0.16821 0.05503 0.0
C141 C 0.31079 0.13034 0.06907 0.0
C142 C 0.30016 0.08694 0.0561 0.0
C143 C 0.28531 0.0813 0.02902 0.0
C144 C 0.28103 0.11899 0.01484 0.0
C145 C 0.39304 0.38061 0.01793 0.0
C146 C 0.44229 0.36618 0.01422 0.0
C147 C 0.35359 0.35014 0.01205 0.0
C148 C 0.3625 0.30476 0.0021 0.0
C149 C 0.41148 0.2907 0.99735 0.0
C150 C 0.45105 0.32117 0.00326 0.0
C151 C 0.32105 0.27142 -0.00119 0.0
C152 C 0.32457 0.23336 0.01292 0.0
C153 C 0.2769 0.27867 0.98372 0.0
C154 C 0.27222 0.31666 0.96705 0.0
C155 C 0.3077 0.32271 0.948 0.0
C156 C 0.30338 0.35877 0.9325 0.0
C157 C 0.26357 0.38889 0.93576 0.0
C158 C 0.22792 0.38294 0.95448 0.0
C159 C 0.23208 0.34696 0.97004 0.0
H160 H 0.2603 0.41679 0.92374 0.0
H161 H 0.30344 0.0577 0.06705 0.0
H162 H 0.13676 0.93665 0.04683 0.0
H163 H 0.19822 0.87565 0.04647 0.0
H164 H 0.16329 0.8361 0.96264 0.0
H165 H 0.10206 0.89698 0.96273 0.0
H166 H 0.16675 0.76297 0.99323 0.0
H167 H 0.26623 0.89439 0.97998 0.0
H168 H 0.30033 0.97164 0.99159 0.0
H169 H 0.35986 0.93472 0.06638 0.0
H170 H 0.32579 0.85725 0.05526 0.0
H171 H 0.36483 0.63434 0.94016 0.0
H172 H 0.29879 0.68733 0.95304 0.0
H173 H 0.37103 0.72024 0.03096 0.0
H174 H 0.43866 0.66797 0.01777 0.0
H175 H 0.3465 0.79452 0.01127 0.0
H176 H 0.25846 0.65991 0.02193 0.0
H177 H 0.22667 0.58189 0.01025 0.0
H178 H 0.14493 0.62314 0.9423 0.0
H179 H 0.17681 0.70128 0.95332 0.0
C180 C 0.14225 0.91501 0.0283 0.0
C181 C 0.11463 0.92166 0.00478 0.0
C182 C 0.17739 0.88027 0.02814 0.0
C183 C 0.18525 0.8515 0.00452 0.0
C184 C 0.15761 0.85792 0.98108 0.0
C185 C 0.12285 0.89286 0.98115 0.0
C186 C 0.22236 0.81462 0.00402 0.0
C187 C 0.20613 0.76972 0.99702 0.0
C188 C 0.27336 0.82348 0.01003 0.0
C189 C 0.29297 0.87024 0.01693 0.0
C190 C 0.28613 0.9029 -0.00097 0.0
C191 C 0.30558 0.94668 0.00548 0.0
C192 C 0.33212 0.95812 0.02975 0.0
C193 C 0.33923 0.92582 0.04761 0.0
C194 C 0.31992 0.88197 0.04123 0.0
C195 C 0.36646 0.65229 0.9602 0.0
C196 C 0.40712 0.64704 0.97792 0.0
C197 C 0.32835 0.68243 0.96762 0.0
C198 C 0.32948 0.7074 0.99312 0.0
C199 C 0.3693 0.70123 0.0112 0.0
C200 C 0.40783 0.67129 0.00367 0.0
C201 C 0.29123 0.74258 -0.00024 0.0
C202 C 0.30711 0.78732 0.00797 0.0
C203 C 0.23981 0.73346 0.99507 0.0
C204 C 0.22031 0.68647 0.98839 0.0
C205 C 0.23398 0.6523 0.00439 0.0
C206 C 0.2159 0.60805 0.9979 0.0
C207 C 0.18387 0.59755 0.97553 0.0
C208 C 0.16976 0.63132 0.95963 0.0
C209 C 0.18777 0.67562 0.96601 0.0
H210 H 0.16992 0.56326 0.97053 0.0
H211 H 0.34741 0.99193 0.03465 0.0
H212 H 0.9204 0.90429 0.0469 0.0
H213 H 0.86396 0.83961 0.04732 0.0
H214 H 0.80677 0.85877 0.96829 0.0
H215 H 0.86419 0.9227 0.9673 0.0
H216 H 0.73596 0.84488 0.01971 0.0
H217 H 0.86446 0.78321 0.95872 0.0
H218 H 0.95229 0.77085 0.94781 0.0
H219 H 0.9772 0.70501 0.01868 0.0
H220 H 0.88962 0.71769 0.0302 0.0
H221 H 0.59166 0.6443 0.99587 0.0
H222 H 0.64415 0.70918 0.98997 0.0
H223 H 0.76195 0.65499 0.03739 0.0
H224 H 0.71075 0.58863 0.04176 0.0
H225 H 0.802 0.68871 7e-05 0.0
H226 H 0.67965 0.74509 0.06209 0.0
H227 H 0.59526 0.75959 0.07834 0.0
H228 H 0.56138 0.83729 0.0132 0.0
H229 H 0.64543 0.82278 0.99637 0.0
C230 C 0.89561 0.89492 0.02967 0.0
C231 C 0.89677 0.9184 0.00702 0.0
C232 C 0.86352 0.85801 0.02995 0.0
C233 C 0.83151 0.84461 0.00782 0.0
C234 C 0.83138 0.86877 0.98551 0.0
C235 C 0.86422 0.90509 0.98497 0.0
C236 C 0.7993 0.80438 0.00779 0.0
C237 C 0.74989 0.81064 0.01502 0.0
C238 C 0.81836 0.76003 0.00257 0.0
C239 C 0.87073 0.75188 0.99547 0.0
C240 C 0.88881 0.76652 0.9721 0.0
C241 C 0.9385 0.75937 0.96578 0.0
C242 C 0.97036 0.73729 0.98259 0.0
C243 C 0.95252 0.72218 0.00571 0.0
C244 C 0.90286 0.72931 0.01213 0.0
C245 C 0.62894 0.64601 0.00477 0.0
C246 C 0.6471 0.61137 0.01926 0.0
C247 C 0.65881 0.68338 0.00162 0.0
C248 C 0.70678 0.68767 0.01373 0.0
C249 C 0.72515 0.65263 0.02785 0.0
C250 C 0.69578 0.61471 0.0304 0.0
C251 C 0.73778 0.72867 0.01195 0.0
C252 C 0.78737 0.72273 0.00455 0.0
C253 C 0.71906 0.77339 0.01764 0.0
C254 C 0.66864 0.78245 0.02782 0.0
C255 C 0.65409 0.76503 0.05114 0.0
C256 C 0.60634 0.77328 0.06046 0.0
C257 C 0.57293 0.79923 0.04676 0.0
C258 C 0.58727 0.81713 0.02376 0.0
C259 C 0.63497 0.80894 0.01433 0.0
H260 H 0.53597 0.80556 0.05401 0.0
H261 H 0.00882 0.73179 0.97767 0.0
H262 H 0.91982 0.16411 0.04088 0.0
H263 H 0.85764 0.22385 0.03851 0.0
H264 H 0.78742 0.14666 0.96901 0.0
H265 H 0.85159 0.08865 0.97031 0.0
H266 H 0.7909 0.22669 0.95946 0.0
H267 H 0.73857 0.16036 0.03601 0.0
H268 H 0.74719 0.13308 0.08038 0.0
H269 H 0.78639 0.26758 0.11615 0.0
H270 H 0.77865 0.29556 0.07193 0.0
H271 H 0.56344 0.3483 0.96083 0.0
H272 H 0.62217 0.28816 0.96933 0.0
H273 H 0.71901 0.38685 0.01482 0.0
H274 H 0.66092 0.44752 0.00596 0.0
H275 H 0.70083 0.29804 0.03759 0.0
H276 H 0.75207 0.36105 0.95797 0.0
H277 H 0.73688 0.38482 0.91304 0.0
H278 H 0.69095 0.24927 0.88269 0.0
H279 H 0.70515 0.22488 0.92757 0.0
C280 C 0.89086 0.15994 0.02522 0.0
C281 C 0.89041 0.12194 0.00575 0.0
C282 C 0.85508 0.19391 0.02398 0.0
C283 C 0.81714 0.18964 0.00381 0.0
C284 C 0.81628 0.15101 0.98471 0.0
C285 C 0.85286 0.11778 0.98549 0.0
C286 C 0.77978 0.22621 0.00167 0.0
C287 C 0.77081 0.2416 0.97656 0.0
C288 C 0.75393 0.24665 0.02398 0.0
C289 C 0.7585 0.22995 0.05061 0.0
C290 C 0.74938 0.18405 0.05331 0.0
C291 C 0.75405 0.16847 0.07844 0.0
C292 C 0.76746 0.19855 0.10106 0.0
C293 C 0.77608 0.24431 0.09861 0.0
C294 C 0.77151 0.26005 0.07352 0.0
C295 C 0.59706 0.35721 0.9728 0.0
C296 C 0.60782 0.40267 0.98255 0.0
C297 C 0.63045 0.32282 0.97766 0.0
C298 C 0.67482 0.33325 0.9926 0.0
C299 C 0.68483 0.37828 0.00328 0.0
C300 C 0.6518 0.41285 0.99806 0.0
C301 C 0.71216 0.29748 0.99552 0.0
C302 C 0.72109 0.28261 0.02066 0.0
C303 C 0.73721 0.27672 0.9732 0.0
C304 C 0.72918 0.29128 0.94617 0.0
C305 C 0.73832 0.33642 0.94176 0.0
C306 C 0.72997 0.34999 0.9163 0.0
C307 C 0.71283 0.31861 0.89504 0.0
C308 C 0.70415 0.27356 0.89918 0.0
C309 C 0.71238 0.25984 0.92462 0.0
H310 H 0.70639 0.32917 0.87534 0.0
H311 H 0.77106 0.18642 0.12049 0.0
H312 H 0.58711 0.64085 0.46656 0.0
H313 H 0.65742 0.69284 0.46621 0.0
H314 H 0.72993 0.63109 0.53091 0.0
H315 H 0.65781 0.58167 0.53259 0.0
H316 H 0.74535 0.71356 0.54034 0.0
H317 H 0.76171 0.61056 0.46058 0.0
H318 H 0.73493 0.5683 0.41727 0.0
H319 H 0.71137 0.69378 0.38396 0.0
H320 H 0.73742 0.73682 0.4272 0.0
H321 H 0.98986 0.78692 0.52115 0.0
H322 H 0.91922 0.73491 0.51276 0.0
H323 H 0.82932 0.84214 0.48571 0.0
H324 H 0.89958 0.89502 0.49465 0.0
H325 H 0.824 0.73863 0.45574 0.0
H326 H 0.80697 0.83865 0.54043 0.0
H327 H 0.84176 0.8745 0.58388 0.0
H328 H 0.87629 0.7431 0.60741 0.0
H329 H 0.84239 0.70656 0.56389 0.0
C330 C 0.61807 0.6387 0.48076 0.0
C331 C 0.61728 0.60748 0.49962 0.0
C332 C 0.65848 0.66806 0.48038 0.0
C333 C 0.69975 0.66533 0.49811 0.0
C334 C 0.69868 0.63403 0.51702 0.0
C335 C 0.65754 0.60576 0.51798 0.0
C336 C 0.74355 0.69565 0.49747 0.0
C337 C 0.7626 0.71842 0.52177 0.0
C338 C 0.76628 0.70269 0.4733 0.0
C339 C 0.75107 0.67691 0.4472 0.0
C340 C 0.75054 0.62914 0.44407 0.0
C341 C 0.73552 0.60505 0.41952 0.0
C342 C 0.72133 0.62834 0.3979 0.0
C343 C 0.72231 0.67578 0.40074 0.0
C344 C 0.73725 0.70004 0.42525 0.0
C345 C 0.95544 0.79931 0.51288 0.0
C346 C 0.95003 0.84524 0.50888 0.0
C347 C 0.9152 0.7695 0.50807 0.0
C348 C 0.86929 0.78493 0.49877 0.0
C349 C 0.86468 0.82979 0.49285 0.0
C350 C 0.90472 0.85991 0.49807 0.0
C351 C 0.82494 0.75574 0.49844 0.0
C352 C 0.80615 0.73341 0.47409 0.0
C353 C 0.80317 0.74801 0.52255 0.0
C354 C 0.82265 0.76996 0.54885 0.0
C355 C 0.82238 0.81746 0.55479 0.0
C356 C 0.84185 0.83789 0.57944 0.0
C357 C 0.86135 0.8111 0.59837 0.0
C358 C 0.86125 0.76381 0.59272 0.0
C359 C 0.84188 0.74324 0.56808 0.0
H360 H 0.87643 0.82697 0.61743 0.0
H361 H 0.70968 0.60963 0.37892 0.0
H362 H 0.60608 0.40703 0.5418 0.0
H363 H 0.67275 0.35119 0.54268 0.0
H364 H 0.68241 0.34549 0.45704 0.0
H365 H 0.61593 0.40157 0.45594 0.0
H366 H 0.68168 0.26425 0.5191 0.0
H367 H 0.80471 0.33646 0.44213 0.0
H368 H 0.82162 0.41011 0.42598 0.0
H369 H 0.78014 0.48012 0.50136 0.0
H370 H 0.76374 0.40691 0.51811 0.0
H371 H 0.85766 0.10689 0.4626 0.0
H372 H 0.79225 0.16278 0.47212 0.0
H373 H 0.89761 0.25253 0.51841 0.0
H374 H 0.96357 0.19672 0.50887 0.0
H375 H 0.84456 0.29573 0.48219 0.0
H376 H 0.80989 0.20188 0.54981 0.0
H377 H 0.79392 0.13039 0.56859 0.0
H378 H 0.66253 0.1077 0.51768 0.0
H379 H 0.67809 0.17876 0.4983 0.0
C380 C 0.6222 0.39376 0.52311 0.0
C381 C 0.60585 0.40889 0.49879 0.0
C382 C 0.6602 0.36177 0.52367 0.0
C383 C 0.68282 0.3446 0.49999 0.0
C384 C 0.66583 0.3588 0.4756 0.0
C385 C 0.62772 0.3907 0.475 0.0
C386 C 0.72483 0.31244 0.50082 0.0
C387 C 0.71732 0.27108 0.51106 0.0
C388 C 0.77166 0.32195 0.49093 0.0
C389 C 0.78257 0.36616 0.48127 0.0
C390 C 0.79947 0.36756 0.45531 0.0
C391 C 0.80892 0.40923 0.44604 0.0
C392 C 0.80181 0.44977 0.4626 0.0
C393 C 0.78547 0.4487 0.48852 0.0
C394 C 0.77605 0.40713 0.4979 0.0
C395 C 0.86687 0.13825 0.4751 0.0
C396 C 0.91586 0.14744 0.48489 0.0
C397 C 0.82936 0.17011 0.4806 0.0
C398 C 0.84005 0.21174 0.49604 0.0
C399 C 0.88863 0.22058 0.50644 0.0
C400 C 0.92619 0.18859 0.50107 0.0
C401 C 0.80103 0.24695 0.49983 0.0
C402 C 0.80905 0.28893 0.49039 0.0
C403 C 0.75495 0.23826 0.51084 0.0
C404 C 0.74539 0.1955 0.52246 0.0
C405 C 0.7778 0.18147 0.54246 0.0
C406 C 0.76878 0.14106 0.55325 0.0
C407 C 0.72729 0.11448 0.5443 0.0
C408 C 0.69467 0.12831 0.52458 0.0
C409 C 0.70354 0.16869 0.51371 0.0
H410 H 0.72037 0.0832 0.55267 0.0
H411 H 0.80904 0.48199 0.45537 0.0
H412 H 0.36831 0.40944 0.45471 0.0
H413 H 0.30585 0.34956 0.45492 0.0
H414 H 0.32887 0.35317 0.54047 0.0
H415 H 0.38989 0.41371 0.54052 0.0
H416 H 0.31214 0.26737 0.46666 0.0
H417 H 0.22694 0.32697 0.5701 0.0
H418 H 0.20646 0.39906 0.597 0.0
H419 H 0.19777 0.46628 0.52595 0.0
H420 H 0.21739 0.39447 0.49857 0.0
H421 H 0.21535 0.08297 0.52258 0.0
H422 H 0.25818 0.15085 0.51238 0.0
H423 H 0.11771 0.2199 0.50661 0.0
H424 H 0.07487 0.15272 0.51817 0.0
H425 H 0.17999 0.27455 0.53294 0.0
H426 H 0.18393 0.18275 0.45002 0.0
H427 H 0.1966 0.11357 0.41879 0.0
H428 H 0.35251 0.11668 0.44031 0.0
H429 H 0.34068 0.18552 0.47199 0.0
C430 C 0.35966 0.39774 0.47359 0.0
C431 C 0.38392 0.41645 0.49762 0.0
C432 C 0.32406 0.36344 0.47367 0.0
C433 C 0.31215 0.34719 0.49774 0.0
C434 C 0.33649 0.36582 0.52171 0.0
C435 C 0.37163 0.40033 0.52169 0.0
C436 C 0.27591 0.3095 0.49791 0.0
C437 C 0.28302 0.26904 0.48102 0.0
C438 C 0.23671 0.31211 0.51597 0.0
C439 C 0.224 0.35532 0.5323 0.0
C440 C 0.22034 0.35704 0.56019 0.0
C441 C 0.20895 0.39789 0.57553 0.0
C442 C 0.20093 0.43724 0.5632 0.0
C443 C 0.20412 0.4358 0.53549 0.0
C444 C 0.21543 0.39504 0.52005 0.0
C445 C 0.1935 0.11251 0.51904 0.0
C446 C 0.14159 0.11226 0.52092 0.0
C447 C 0.21803 0.15125 0.51299 0.0
C448 C 0.19115 0.19032 0.50821 0.0
C449 C 0.13927 0.19013 0.51005 0.0
C450 C 0.11476 0.15154 0.51644 0.0
C451 C 0.21764 0.23183 0.50249 0.0
C452 C 0.20865 0.27303 0.51832 0.0
C453 C 0.25381 0.23039 0.48275 0.0
C454 C 0.26134 0.1892 0.46351 0.0
C455 C 0.22088 0.16855 0.44822 0.0
C456 C 0.22791 0.1294 0.43042 0.0
C457 C 0.27532 0.11071 0.4276 0.0
C458 C 0.31581 0.1312 0.44252 0.0
C459 C 0.30897 0.17034 0.46038 0.0
H460 H 0.28069 0.08038 0.41383 0.0
H461 H 0.19219 0.46883 0.57512 0.0
H462 H 0.39041 0.63398 0.54186 0.0
H463 H 0.32957 0.69528 0.54104 0.0
H464 H 0.32724 0.67831 0.45472 0.0
H465 H 0.38819 0.61746 0.45532 0.0
H466 H 0.33259 0.76645 0.47413 0.0
H467 H 0.23433 0.6366 0.48764 0.0
H468 H 0.21096 0.57092 0.51036 0.0
H469 H 0.18708 0.65936 0.58255 0.0
H470 H 0.21104 0.72553 0.56035 0.0
H471 H 0.06165 0.84957 0.46816 0.0
H472 H 0.12169 0.78948 0.4743 0.0
H473 H 0.22761 0.88947 0.51064 0.0
H474 H 0.16787 0.94989 0.50432 0.0
H475 H 0.17026 0.75986 0.51688 0.0
H476 H 0.34259 0.85754 0.48963 0.0
H477 H 0.36326 0.91981 0.46344 0.0
H478 H 0.23351 0.889 0.41223 0.0
H479 H 0.21247 0.82621 0.43789 0.0
C480 C 0.37697 0.64333 0.5227 0.0
C481 C 0.3941 0.62078 0.49865 0.0
C482 C 0.3421 0.67826 0.52228 0.0
C483 C 0.32366 0.69114 0.49781 0.0
C484 C 0.34105 0.66896 0.47382 0.0
C485 C 0.37578 0.63406 0.47421 0.0
C486 C 0.2862 0.72771 0.49705 0.0
C487 C 0.29722 0.7651 0.4836 0.0
C488 C 0.23977 0.72565 0.50909 0.0
C489 C 0.22499 0.68596 0.52242 0.0
C490 C 0.22447 0.642 0.50842 0.0
C491 C 0.21106 0.60469 0.52119 0.0
C492 C 0.19768 0.61095 0.5479 0.0
C493 C 0.19753 0.65456 0.56187 0.0
C494 C 0.211 0.69198 0.5492 0.0
C495 C 0.09761 0.85878 0.47763 0.0
C496 C 0.11017 0.90452 0.48559 0.0
C497 C 0.13179 0.82436 0.48123 0.0
C498 C 0.17928 0.83502 0.49267 0.0
C499 C 0.19137 0.88054 0.50144 0.0
C500 C 0.1572 0.91502 0.49782 0.0
C501 C 0.21686 0.7987 0.49413 0.0
C502 C 0.20588 0.7614 0.50768 0.0
C503 C 0.26298 0.80035 0.48173 0.0
C504 C 0.27572 0.83753 0.46587 0.0
C505 C 0.3186 0.86398 0.47272 0.0
C506 C 0.33035 0.89937 0.45798 0.0
C507 C 0.29962 0.90846 0.43625 0.0
C508 C 0.25718 0.88204 0.42913 0.0
C509 C 0.2453 0.84658 0.44379 0.0
H510 H 0.30875 0.93592 0.42489 0.0
H511 H 0.18732 0.58201 0.55776 0.0
H512 H 0.08886 0.99504 0.15242 0.0
H513 H 0.09674 0.99439 0.20083 0.0
H514 H 0.96991 0.08286 0.21082 0.0
H515 H 0.96292 0.08512 0.1624 0.0
H516 H 0.04132 0.10869 0.24762 0.0
H517 H 0.95842 0.96971 0.21413 0.0
H518 H 0.94648 0.89684 0.18552 0.0
H519 H 0.08227 0.84649 0.21838 0.0
H520 H 0.09538 0.91935 0.24693 0.0
H521 H 0.98267 0.99156 0.3723 0.0
H522 H 0.9816 0.99158 0.32389 0.0
H523 H 0.11615 0.07167 0.3312 0.0
H524 H 0.1168 0.07286 0.3799 0.0
H525 H 0.04025 0.96174 0.28567 0.0
H526 H 0.1121 0.14486 0.284 0.0
H527 H 0.11439 0.21813 0.3129 0.0
H528 H 0.98301 0.18087 0.35088 0.0
H529 H 0.97959 0.10768 0.32198 0.0
C530 C 0.06302 0.01489 0.16491 0.0
C531 C 0.02521 0.04013 0.15352 0.0
C532 C 0.0673 0.01411 0.19257 0.0
C533 C 0.03358 0.03816 0.2094 0.0
C534 C 0.99627 0.06396 0.19818 0.0
C535 C 0.99203 0.06487 0.17049 0.0
C536 C 0.03685 0.03593 0.23867 0.0
C537 C 0.04122 0.07656 0.25595 0.0
C538 C 0.03596 0.99404 0.24954 0.0
C539 C 0.02814 0.95015 0.23245 0.0
C540 C 0.98594 0.94323 0.21509 0.0
C541 C 0.97892 0.90191 0.19892 0.0
C542 C 0.01366 0.8671 0.20007 0.0
C543 C 0.05543 0.87351 0.21747 0.0
C544 C 0.06266 0.9148 0.23367 0.0
C545 C 0.01229 0.00895 0.36365 0.0
C546 C 0.04959 0.03256 0.37999 0.0
C547 C 0.01166 0.00882 0.33593 0.0
C548 C 0.04838 0.03214 0.32394 0.0
C549 C 0.08691 0.05416 0.34008 0.0
C550 C 0.08734 0.05464 0.36789 0.0
C551 C 0.04509 0.03449 0.29466 0.0
C552 C 0.04075 0.99386 0.27736 0.0
C553 C 0.0447 0.07644 0.28381 0.0
C554 C 0.04595 0.12063 0.30102 0.0
C555 C 0.08362 0.1524 0.29845 0.0
C556 C 0.08512 0.19389 0.31484 0.0
C557 C 0.04896 0.20408 0.33377 0.0
C558 C 0.0111 0.17287 0.33628 0.0
C559 C 0.00939 0.13136 0.31992 0.0
H560 H 0.05023 0.2362 0.34646 0.0
H561 H 0.00816 0.83513 0.18754 0.0
H562 H 0.03753 0.07065 0.85973 0.0
H563 H 0.04705 0.06666 0.81124 0.0
H564 H 0.97489 0.93567 0.80026 0.0
H565 H 0.96422 0.94005 0.84879 0.0
H566 H 0.07516 0.94404 0.77721 0.0
H567 H 0.9117 0.01197 0.78009 0.0
H568 H 0.85063 0.06969 0.79639 0.0
H569 H 0.93984 0.17421 0.7697 0.0
H570 H 0.00186 0.11715 0.75359 0.0
H571 H 0.05955 0.90309 0.63709 0.0
H572 H 0.04515 0.91203 0.68481 0.0
H573 H 0.06738 0.05679 0.68806 0.0
H574 H 0.07908 0.04815 0.63969 0.0
H575 H 0.99346 0.04353 0.71606 0.0
H576 H 0.15664 0.98186 0.71353 0.0
H577 H 0.22353 0.92888 0.69895 0.0
H578 H 0.14452 0.81918 0.72698 0.0
H579 H 0.07681 0.87139 0.74142 0.0
C580 C 0.02313 0.04135 0.84686 0.0
C581 C 0.00016 0.00563 0.85779 0.0
C582 C 0.0285 0.03915 0.81928 0.0
C583 C 0.01166 0.00089 0.80233 0.0
C584 C 0.98798 0.96547 0.81314 0.0
C585 C 0.98172 0.96806 0.84071 0.0
C586 C 0.02146 0.99687 0.77351 0.0
C587 C 0.05685 0.96522 0.76365 0.0
C588 C 0.99907 0.02605 0.75635 0.0
C589 C 0.96168 0.06033 0.7659 0.0
C590 C 0.91855 0.04731 0.77793 0.0
C591 C 0.8837 0.07989 0.78708 0.0
C592 C 0.89142 0.1256 0.78415 0.0
C593 C 0.93394 0.1388 0.77199 0.0
C594 C 0.96893 0.10634 0.76283 0.0
C595 C 0.0619 0.9368 0.648 0.0
C596 C 0.07082 0.97492 0.63472 0.0
C597 C 0.05385 0.94187 0.67536 0.0
C598 C 0.05615 0.98499 0.69025 0.0
C599 C 0.06551 0.02315 0.67704 0.0
C600 C 0.07242 0.01819 0.64946 0.0
C601 C 0.04709 0.99016 0.71938 0.0
C602 C 0.01199 0.0222 0.72945 0.0
C603 C 0.07071 0.96203 0.73694 0.0
C604 C 0.11144 0.9305 0.72835 0.0
C605 C 0.15336 0.94638 0.71642 0.0
C606 C 0.19145 0.91649 0.70821 0.0
C607 C 0.18822 0.87067 0.71198 0.0
C608 C 0.14695 0.85467 0.72405 0.0
C609 C 0.10873 0.88441 0.73228 0.0
H610 H 0.21775 0.84759 0.70561 0.0
H611 H 0.86439 0.15078 0.79125 0.0
H612 H 0.54871 0.46513 0.64593 0.0
H613 H 0.55754 0.46789 0.69479 0.0
H614 H 0.49293 0.60167 0.7036 0.0
H615 H 0.48282 0.59857 0.65463 0.0
H616 H 0.59235 0.58389 0.73438 0.0
H617 H 0.42103 0.53333 0.71701 0.0
H618 H 0.35619 0.48284 0.69392 0.0
H619 H 0.42807 0.3674 0.72237 0.0
H620 H 0.4938 0.4172 0.7453 0.0
H621 H 0.55671 0.61387 0.87392 0.0
H622 H 0.55337 0.61192 0.82531 0.0
H623 H 0.55158 0.46527 0.81711 0.0
H624 H 0.55164 0.46735 0.86582 0.0
H625 H 0.48704 0.48938 0.78482 0.0
H626 H 0.65633 0.53357 0.80266 0.0
H627 H 0.72703 0.5785 0.82419 0.0
H628 H 0.66893 0.69803 0.79377 0.0
H629 H 0.59751 0.65394 0.77233 0.0
C630 C 0.5363 0.49502 0.65835 0.0
C631 C 0.51503 0.53163 0.64669 0.0
C632 C 0.54135 0.49655 0.68613 0.0
C633 C 0.52597 0.53501 0.70262 0.0
C634 C 0.50505 0.57179 0.69107 0.0
C635 C 0.49904 0.56989 0.66324 0.0
C636 C 0.53158 0.53647 0.73198 0.0
C637 C 0.56903 0.5638 0.74561 0.0
C638 C 0.50232 0.50878 0.74619 0.0
C639 C 0.4626 0.47892 0.73261 0.0
C640 C 0.42327 0.49713 0.71812 0.0
C641 C 0.3863 0.46865 0.70511 0.0
C642 C 0.38809 0.42192 0.7066 0.0
C643 C 0.42678 0.4036 0.72119 0.0
C644 C 0.46387 0.43193 0.73421 0.0
C645 C 0.55631 0.58124 0.86172 0.0
C646 C 0.5545 0.54075 0.87357 0.0
C647 C 0.55465 0.58011 0.83389 0.0
C648 C 0.5529 0.53842 0.81738 0.0
C649 C 0.55273 0.49789 0.82933 0.0
C650 C 0.55301 0.49906 0.85715 0.0
C651 C 0.54813 0.53705 0.78774 0.0
C652 C 0.51074 0.5096 0.77388 0.0
C653 C 0.57837 0.56387 0.77326 0.0
C654 C 0.62132 0.59051 0.78609 0.0
C655 C 0.65843 0.56951 0.80072 0.0
C656 C 0.69867 0.59481 0.81288 0.0
C657 C 0.7024 0.64111 0.8104 0.0
C658 C 0.66596 0.66218 0.7957 0.0
C659 C 0.62562 0.63703 0.78351 0.0
H660 H 0.73358 0.66065 0.81983 0.0
H661 H 0.35944 0.39993 0.69652 0.0
H662 H 0.45404 0.55686 0.34824 0.0
H663 H 0.46469 0.56008 0.3004 0.0
H664 H 0.56594 0.44697 0.29848 0.0
H665 H 0.55574 0.44386 0.34624 0.0
H666 H 0.60334 0.51345 0.27405 0.0
H667 H 0.44592 0.43512 0.27206 0.0
H668 H 0.35892 0.42542 0.28391 0.0
H669 H 0.3184 0.54746 0.25031 0.0
H670 H 0.40534 0.5582 0.23856 0.0
H671 H 0.61379 0.43826 0.13631 0.0
H672 H 0.60216 0.44804 0.18439 0.0
H673 H 0.50461 0.5613 0.1757 0.0
H674 H 0.51537 0.55128 0.12732 0.0
H675 H 0.4646 0.50335 0.20583 0.0
H676 H 0.62102 0.5783 0.20454 0.0
H677 H 0.70791 0.58752 0.1924 0.0
H678 H 0.75055 0.47211 0.23206 0.0
H679 H 0.66376 0.46179 0.24412 0.0
C680 C 0.47798 0.53229 0.33749 0.0
C681 C 0.50413 0.50016 0.35095 0.0
C682 C 0.48412 0.53421 0.31019 0.0
C683 C 0.51602 0.50367 0.29585 0.0
C684 C 0.5414 0.47106 0.30919 0.0
C685 C 0.53552 0.4693 0.33645 0.0
C686 C 0.52417 0.50616 0.2671 0.0
C687 C 0.57305 0.51079 0.25909 0.0
C688 C 0.4845 0.50424 0.24772 0.0
C689 C 0.43222 0.49773 0.2547 0.0
C690 C 0.41853 0.46008 0.26739 0.0
C691 C 0.36922 0.45435 0.27406 0.0
C692 C 0.33319 0.48588 0.26794 0.0
C693 C 0.34637 0.52312 0.25508 0.0
C694 C 0.39564 0.52902 0.24839 0.0
C695 C 0.59027 0.46561 0.1446 0.0
C696 C 0.56546 0.49396 0.12794 0.0
C697 C 0.58382 0.47126 0.17214 0.0
C698 C 0.55286 0.50566 0.18367 0.0
C699 C 0.52871 0.53458 0.1672 0.0
C700 C 0.53506 0.52888 0.13958 0.0
C701 C 0.54389 0.50972 0.21272 0.0
C702 C 0.49487 0.50644 0.22081 0.0
C703 C 0.58345 0.51287 0.23219 0.0
C704 C 0.63577 0.51909 0.22506 0.0
C705 C 0.64885 0.55468 0.21051 0.0
C706 C 0.6981 0.56014 0.20367 0.0
C707 C 0.73471 0.53037 0.21141 0.0
C708 C 0.72215 0.49514 0.22606 0.0
C709 C 0.67294 0.48951 0.23294 0.0
H710 H 0.77282 0.53465 0.20609 0.0
H711 H 0.29503 0.48138 0.27312 0.0
loop_
_geom_bond_atom_site_label_1
_geom_bond_atom_site_label_2
_geom_bond_distance
_geom_bond_site_symmetry_2
_ccdc_geom_bond_type
C0 O16 1.251 . S
C0 O18 1.254 1_554 S
N1 C2 1.333 1_455 S
N1 C6 1.307 . S
N1 Zn7 2.020 . S
C2 N1 1.333 1_655 S
C2 C3 1.379 . S
C2 H20 0.952 1_545 S
C3 C2 1.379 . S
C3 C4 1.390 1_655 S
C3 H30 0.949 . S
C4 C3 1.390 1_455 S
C4 C5 1.357 . S
C5 C4 1.357 . S
C5 C6 1.370 . S
C5 H31 0.950 . S
C6 N1 1.307 . S
C6 C5 1.370 . S
C6 H24 0.948 . S
Zn7 N1 2.020 . S
Zn7 O16 2.039 1_445 S
Zn7 O22 2.034 1_455 S
Zn7 O26 2.025 . S
Zn7 O28 2.024 1_545 S
C8 O27 1.246 1_554 S
C8 O28 1.249 . S
N9 C10 1.307 1_445 S
N9 C11 1.333 . S
N9 Zn15 2.020 . S
C10 N9 1.307 1_665 S
C10 C14 1.370 . S
C10 H21 0.948 . S
C11 N9 1.333 . S
C11 C12 1.379 . S
C11 H19 0.952 . S
C12 C11 1.379 . S
C12 C13 1.390 . S
C12 H32 0.949 . S
C13 C12 1.390 . S
C13 C14 1.357 1_445 S
C14 C10 1.370 . S
C14 C13 1.357 1_665 S
C14 H33 0.950 . S
Zn15 N9 2.020 . S
Zn15 O18 2.025 1_445 S
Zn15 O23 2.024 1_455 S
Zn15 O25 2.039 . S
Zn15 O27 2.034 1_545 S
O16 C0 1.251 . S
O16 Zn7 2.039 1_665 S
C17 O22 1.246 . S
C17 O23 1.249 1_554 S
O18 C0 1.254 1_556 S
O18 Zn15 2.025 1_665 S
H19 C11 0.952 . S
H20 C2 0.952 1_565 S
H21 C10 0.948 . S
O22 Zn7 2.034 1_655 S
O22 C17 1.246 . S
O23 Zn15 2.024 1_655 S
O23 C17 1.249 1_556 S
H24 C6 0.948 . S
O25 Zn15 2.039 . S
O25 C29 1.251 1_556 S
O26 Zn7 2.025 . S
O26 C29 1.254 . S
O27 C8 1.246 1_556 S
O27 Zn15 2.034 1_565 S
O28 Zn7 2.024 1_565 S
O28 C8 1.249 . S
C29 O25 1.251 1_554 S
C29 O26 1.254 . S
H30 C3 0.949 . S
H31 C5 0.950 . S
H32 C12 0.949 . S
H33 C14 0.950 . S
C34 O50 1.251 . S
C34 O52 1.254 . S
N35 C36 1.333 . S
N35 C40 1.307 . S
N35 Zn41 2.020 . S
C36 N35 1.333 . S
C36 C37 1.379 . S
C36 H54 0.952 . S
C37 C36 1.379 . S
C37 C38 1.390 . S
C37 H64 0.949 . S
C38 C37 1.390 . S
C38 C39 1.357 . S
C39 C38 1.357 . S
C39 C40 1.370 . S
C39 H65 0.950 . S
C40 N35 1.307 . S
C40 C39 1.370 . S
C40 H58 0.948 . S
Zn41 N35 2.020 . S
Zn41 O50 2.039 . S
Zn41 O56 2.034 . S
Zn41 O60 2.025 . S
Zn41 O62 2.024 . S
C42 O61 1.246 . S
C42 O62 1.249 . S
N43 C44 1.307 . S
N43 C45 1.333 . S
N43 Zn49 2.020 . S
C44 N43 1.307 . S
C44 C48 1.370 . S
C44 H55 0.948 . S
C45 N43 1.333 . S
C45 C46 1.379 . S
C45 H53 0.952 . S
C46 C45 1.379 . S
C46 C47 1.390 . S
C46 H66 0.949 . S
C47 C46 1.390 . S
C47 C48 1.357 . S
C48 C44 1.370 . S
C48 C47 1.357 . S
C48 H67 0.950 . S
Zn49 N43 2.020 . S
Zn49 O52 2.025 . S
Zn49 O57 2.024 . S
Zn49 O59 2.039 . S
Zn49 O61 2.034 . S
O50 C34 1.251 . S
O50 Zn41 2.039 . S
C51 O56 1.246 . S
C51 O57 1.249 . S
O52 C34 1.254 . S
O52 Zn49 2.025 . S
H53 C45 0.952 . S
H54 C36 0.952 . S
H55 C44 0.948 . S
O56 Zn41 2.034 . S
O56 C51 1.246 . S
O57 Zn49 2.024 . S
O57 C51 1.249 . S
H58 C40 0.948 . S
O59 Zn49 2.039 . S
O59 C63 1.251 . S
O60 Zn41 2.025 . S
O60 C63 1.254 . S
O61 C42 1.246 . S
O61 Zn49 2.034 . S
O62 Zn41 2.024 . S
O62 C42 1.249 . S
C63 O59 1.251 . S
C63 O60 1.254 . S
H64 C37 0.949 . S
H65 C39 0.950 . S
H66 C46 0.949 . S
H67 C48 0.950 . S
O68 Cd69 2.300 1_565 S
O68 C75 1.275 1_565 S
Cd69 O68 2.300 1_545 S
Cd69 O77 2.381 1_545 S
Cd69 O78 2.378 1_545 S
O70 Cd71 2.385 . S
O70 C75 1.255 . S
Cd71 O70 2.385 . S
Cd71 O72 2.317 1_455 S
O72 Cd71 2.317 1_655 S
O72 C73 1.232 . S
C73 O72 1.232 . S
C73 O74 1.218 . S
O74 C73 1.218 . S
C75 O68 1.275 1_545 S
C75 O70 1.255 . S
C76 O77 1.258 . S
C76 O78 1.256 . S
O77 Cd69 2.381 1_565 S
O77 C76 1.258 . S
O78 Cd69 2.378 1_565 S
O78 C76 1.256 . S
O79 Cd80 2.300 . S
O79 C86 1.258 1_545 S
Cd80 O79 2.300 . S
Cd80 O88 2.381 . S
Cd80 O89 2.378 . S
O81 Cd82 2.385 . S
O81 C86 1.270 . S
Cd82 O81 2.385 . S
Cd82 O83 2.317 1_455 S
O83 Cd82 2.317 1_655 S
O83 C84 1.232 . S
C84 O83 1.232 . S
C84 O85 1.218 . S
O85 C84 1.218 . S
C86 O79 1.258 1_565 S
C86 O81 1.270 . S
C87 O88 1.258 . S
C87 O89 1.256 . S
O88 Cd80 2.381 . S
O88 C87 1.258 . S
O89 Cd80 2.378 . S
O89 C87 1.256 . S
O90 Cd91 2.300 . S
O90 C97 1.275 . S
Cd91 O90 2.300 . S
Cd91 O99 2.381 . S
Cd91 O100 2.378 . S
O92 Cd93 2.385 . S
O92 C97 1.255 . S
Cd93 O92 2.385 . S
Cd93 O94 2.317 . S
O94 Cd93 2.317 . S
O94 C95 1.232 . S
C95 O94 1.232 . S
C95 O96 1.218 . S
O96 C95 1.218 . S
C97 O90 1.275 . S
C97 O92 1.255 . S
C98 O99 1.258 . S
C98 O100 1.256 . S
O99 Cd91 2.381 . S
O99 C98 1.258 . S
O100 Cd91 2.378 . S
O100 C98 1.256 . S
O101 Cd102 2.300 . S
O101 C108 1.275 . S
Cd102 O101 2.300 . S
Cd102 O110 2.381 . S
Cd102 O111 2.378 . S
O103 Cd104 2.385 . S
O103 C108 1.255 . S
Cd104 O103 2.385 . S
Cd104 O105 2.317 . S
O105 Cd104 2.317 . S
O105 C106 1.232 . S
C106 O105 1.232 . S
C106 O107 1.218 . S
O107 C106 1.218 . S
C108 O101 1.275 . S
C108 O103 1.255 . S
C109 O110 1.258 . S
C109 O111 1.256 . S
O110 Cd102 2.381 . S
O110 C109 1.258 . S
O111 Cd102 2.378 . S
O111 C109 1.256 . S
H112 C130 0.951 . S
H113 C132 0.951 . S
H114 C134 0.950 . S
H115 C135 0.950 . S
H116 C137 0.950 . S
H117 C140 0.950 . S
H118 C141 0.950 . S
H119 C143 0.950 . S
H120 C144 0.950 . S
H121 C145 0.951 . S
H122 C147 0.951 . S
H123 C149 0.950 . S
H124 C150 0.950 . S
H125 C152 0.950 . S
H126 C155 0.950 . S
H127 C156 0.950 . S
H128 C158 0.950 . S
H129 C159 0.950 . S
C130 H112 0.951 . S
C130 C131 1.366 . S
C130 C132 1.388 . S
C131 C130 1.366 . S
C131 C135 1.385 . S
C132 H113 0.951 . S
C132 C130 1.388 . S
C132 C133 1.366 . S
C133 C132 1.366 . S
C133 C134 1.414 . S
C133 C136 1.499 . S
C134 H114 0.950 . S
C134 C133 1.414 . S
C134 C135 1.374 . S
C135 H115 0.950 . S
C135 C131 1.385 . S
C135 C134 1.374 . S
C136 C133 1.499 . S
C136 C137 1.373 1_554 S
C136 C138 1.389 . S
C137 H116 0.950 . S
C137 C136 1.373 1_556 S
C137 C153 1.377 . S
C138 C136 1.389 . S
C138 C139 1.524 . S
C138 C152 1.377 . S
C139 C138 1.524 . S
C139 C140 1.397 . S
C139 C144 1.363 . S
C140 H117 0.950 . S
C140 C139 1.397 . S
C140 C141 1.334 . S
C141 H118 0.950 . S
C141 C140 1.334 . S
C141 C142 1.287 . S
C142 C141 1.287 . S
C142 C143 1.524 . S
C142 H161 0.913 . S
C143 H119 0.950 . S
C143 C142 1.524 . S
C143 C144 1.415 . S
C144 H120 0.950 . S
C144 C139 1.363 . S
C144 C143 1.415 . S
C145 H121 0.951 . S
C145 C146 1.366 . S
C145 C147 1.388 . S
C146 C145 1.366 . S
C146 C150 1.385 . S
C147 H122 0.951 . S
C147 C145 1.388 . S
C147 C148 1.366 . S
C148 C147 1.366 . S
C148 C149 1.414 . S
C148 C151 1.499 . S
C149 H123 0.950 . S
C149 C148 1.414 . S
C149 C150 1.374 . S
C150 H124 0.950 . S
C150 C146 1.385 . S
C150 C149 1.374 . S
C151 C148 1.499 . S
C151 C152 1.373 . S
C151 C153 1.389 1_554 S
C152 H125 0.950 . S
C152 C138 1.377 . S
C152 C151 1.373 . S
C153 C137 1.377 . S
C153 C151 1.389 1_556 S
C153 C154 1.524 . S
C154 C153 1.524 . S
C154 C155 1.397 . S
C154 C159 1.363 . S
C155 H126 0.950 . S
C155 C154 1.397 . S
C155 C156 1.334 . S
C156 H127 0.950 . S
C156 C155 1.334 . S
C156 C157 1.287 . S
C157 C156 1.287 . S
C157 C158 1.524 . S
C157 H160 0.999 . S
C158 H128 0.950 . S
C158 C157 1.524 . S
C158 C159 1.415 . S
C159 H129 0.950 . S
C159 C154 1.363 . S
C159 C158 1.415 . S
H160 C157 0.999 . S
H161 C142 0.913 . S
H162 C180 0.951 . S
H163 C182 0.951 . S
H164 C184 0.950 . S
H165 C185 0.950 . S
H166 C187 0.950 . S
H167 C190 0.950 1_556 S
H168 C191 0.950 . S
H169 C193 0.950 . S
H170 C194 0.950 . S
H171 C195 0.951 . S
H172 C197 0.951 . S
H173 C199 0.950 . S
H174 C200 0.950 . S
H175 C202 0.950 . S
H176 C205 0.950 . S
H177 C206 0.950 . S
H178 C208 0.950 . S
H179 C209 0.950 . S
C180 H162 0.951 . S
C180 C181 1.343 1_554 S
C180 C182 1.388 . S
C181 C180 1.343 1_556 S
C181 C185 1.408 . S
C182 H163 0.951 . S
C182 C180 1.388 . S
C182 C183 1.366 1_554 S
C183 C182 1.366 1_556 S
C183 C184 1.414 . S
C183 C186 1.499 . S
C184 H164 0.950 . S
C184 C183 1.414 . S
C184 C185 1.374 . S
C185 H165 0.950 . S
C185 C181 1.408 . S
C185 C184 1.374 . S
C186 C183 1.499 . S
C186 C187 1.373 . S
C186 C188 1.389 1_556 S
C187 H166 0.950 . S
C187 C186 1.373 . S
C187 C203 1.377 . S
C188 C186 1.389 1_554 S
C188 C189 1.524 . S
C188 C202 1.377 . S
C189 C188 1.524 . S
C189 C190 1.397 . S
C189 C194 1.363 . S
C190 H167 0.950 1_554 S
C190 C189 1.397 . S
C190 C191 1.334 . S
C191 H168 0.950 . S
C191 C190 1.334 . S
C191 C192 1.287 . S
C192 C191 1.287 . S
C192 C193 1.524 . S
C192 H211 0.913 . S
C193 H169 0.950 . S
C193 C192 1.524 . S
C193 C194 1.415 . S
C194 H170 0.950 . S
C194 C189 1.363 . S
C194 C193 1.415 . S
C195 H171 0.951 . S
C195 C196 1.366 . S
C195 C197 1.388 . S
C196 C195 1.366 . S
C196 C200 1.385 1_556 S
C197 H172 0.951 . S
C197 C195 1.388 . S
C197 C198 1.366 . S
C198 C197 1.366 . S
C198 C199 1.414 1_556 S
C198 C201 1.499 . S
C199 H173 0.950 . S
C199 C198 1.414 1_554 S
C199 C200 1.374 . S
C200 H174 0.950 . S
C200 C196 1.385 1_554 S
C200 C199 1.374 . S
C201 C198 1.499 . S
C201 C202 1.373 1_556 S
C201 C203 1.389 . S
C202 H175 0.950 . S
C202 C188 1.377 . S
C202 C201 1.373 1_554 S
C203 C187 1.377 . S
C203 C201 1.389 . S
C203 C204 1.524 . S
C204 C203 1.524 . S
C204 C205 1.397 . S
C204 C209 1.363 . S
C205 H176 0.950 . S
C205 C204 1.397 . S
C205 C206 1.334 . S
C206 H177 0.950 . S
C206 C205 1.334 . S
C206 C207 1.287 . S
C207 C206 1.287 . S
C207 C208 1.524 . S
C207 H210 0.999 . S
C208 H178 0.950 . S
C208 C207 1.524 . S
C208 C209 1.415 . S
C209 H179 0.950 . S
C209 C204 1.363 . S
C209 C208 1.415 . S
H210 C207 0.999 . S
H211 C192 0.913 . S
H212 C230 0.951 . S
H213 C232 0.951 . S
H214 C234 0.950 . S
H215 C235 0.950 . S
H216 C237 0.950 . S
H217 C240 0.950 . S
H218 C241 0.950 . S
H219 C243 0.950 . S
H220 C244 0.950 . S
H221 C245 0.935 1_556 S
H222 C247 0.962 . S
H223 C249 0.950 . S
H224 C250 0.950 . S
H225 C252 0.950 . S
H226 C255 0.950 . S
H227 C256 0.950 . S
H228 C258 0.950 . S
H229 C259 0.950 1_556 S
C230 H212 0.951 . S
C230 C231 1.366 . S
C230 C232 1.388 . S
C231 C230 1.366 . S
C231 C235 1.385 1_554 S
C232 H213 0.951 . S
C232 C230 1.388 . S
C232 C233 1.366 . S
C233 C232 1.366 . S
C233 C234 1.414 1_554 S
C233 C236 1.499 . S
C234 H214 0.950 . S
C234 C233 1.414 1_556 S
C234 C235 1.374 . S
C235 H215 0.950 . S
C235 C231 1.385 1_556 S
C235 C234 1.374 . S
C236 C233 1.499 . S
C236 C237 1.373 . S
C236 C238 1.389 . S
C237 H216 0.950 . S
C237 C236 1.373 . S
C237 C253 1.377 . S
C238 C236 1.389 . S
C238 C239 1.524 1_554 S
C238 C252 1.377 . S
C239 C238 1.524 1_556 S
C239 C240 1.397 . S
C239 C244 1.363 1_556 S
C240 H217 0.950 . S
C240 C239 1.397 . S
C240 C241 1.334 . S
C241 H218 0.950 . S
C241 C240 1.334 . S
C241 C242 1.287 . S
C242 C241 1.287 . S
C242 C243 1.524 1_556 S
C242 H261 0.911 1_655 S
C243 H219 0.950 . S
C243 C242 1.524 1_554 S
C243 C244 1.415 . S
C244 H220 0.950 . S
C244 C239 1.363 1_554 S
C244 C243 1.415 . S
C245 H221 0.935 1_554 S
C245 C246 1.388 . S
C245 C247 1.381 1_554 S
C246 C245 1.388 . S
C246 C250 1.385 . S
C247 H222 0.962 . S
C247 C245 1.381 1_556 S
C247 C248 1.357 1_556 S
C248 C247 1.357 1_554 S
C248 C249 1.414 . S
C248 C251 1.499 . S
C249 H223 0.950 . S
C249 C248 1.414 . S
C249 C250 1.374 . S
C250 H224 0.950 . S
C250 C246 1.385 . S
C250 C249 1.374 . S
C251 C248 1.499 . S
C251 C252 1.373 . S
C251 C253 1.389 . S
C252 H225 0.950 . S
C252 C238 1.377 . S
C252 C251 1.373 . S
C253 C237 1.377 . S
C253 C251 1.389 . S
C253 C254 1.524 . S
C254 C253 1.524 . S
C254 C255 1.397 . S
C254 C259 1.363 . S
C255 H226 0.950 . S
C255 C254 1.397 . S
C255 C256 1.334 . S
C256 H227 0.950 . S
C256 C255 1.334 . S
C256 C257 1.287 . S
C257 C256 1.287 . S
C257 C258 1.524 . S
C257 H260 0.999 . S
C258 H228 0.950 . S
C258 C257 1.524 . S
C258 C259 1.415 . S
C259 H229 0.950 1_554 S
C259 C254 1.363 . S
C259 C258 1.415 . S
H260 C257 0.999 . S
H261 C242 0.911 1_455 S
H262 C280 0.951 . S
H263 C282 0.951 . S
H264 C284 0.950 . S
H265 C285 0.950 . S
H266 C287 0.950 . S
H267 C290 0.950 . S
H268 C291 0.950 . S
H269 C293 0.950 . S
H270 C294 0.950 . S
H271 C295 0.951 . S
H272 C297 0.951 . S
H273 C299 0.950 1_554 S
H274 C300 0.950 . S
H275 C302 0.950 . S
H276 C305 0.950 . S
H277 C306 0.950 . S
H278 C308 0.950 . S
H279 C309 0.950 . S
C280 H262 0.951 . S
C280 C281 1.366 . S
C280 C282 1.388 . S
C281 C280 1.366 . S
C281 C285 1.383 1_554 S
C282 H263 0.951 . S
C282 C280 1.388 . S
C282 C283 1.366 . S
C283 C282 1.366 . S
C283 C284 1.414 1_554 S
C283 C286 1.504 . S
C284 H264 0.950 . S
C284 C283 1.414 1_556 S
C284 C285 1.375 . S
C285 H265 0.950 . S
C285 C281 1.383 1_556 S
C285 C284 1.375 . S
C286 C283 1.504 . S
C286 C287 1.343 1_554 S
C286 C288 1.413 . S
C287 H266 0.950 . S
C287 C286 1.343 1_556 S
C287 C303 1.377 . S
C288 C286 1.413 . S
C288 C289 1.524 . S
C288 C302 1.377 . S
C289 C288 1.524 . S
C289 C290 1.397 . S
C289 C294 1.363 . S
C290 H267 0.950 . S
C290 C289 1.397 . S
C290 C291 1.334 . S
C291 H268 0.950 . S
C291 C290 1.334 . S
C291 C292 1.287 . S
C292 C291 1.287 . S
C292 C293 1.524 . S
C292 H311 0.913 . S
C293 H269 0.950 . S
C293 C292 1.524 . S
C293 C294 1.415 . S
C294 H270 0.950 . S
C294 C289 1.363 . S
C294 C293 1.415 . S
C295 H271 0.951 . S
C295 C296 1.366 . S
C295 C297 1.388 . S
C296 C295 1.366 . S
C296 C300 1.385 . S
C297 H272 0.951 . S
C297 C295 1.388 . S
C297 C298 1.366 . S
C298 C297 1.366 . S
C298 C299 1.414 . S
C298 C301 1.499 . S
C299 H273 0.950 1_556 S
C299 C298 1.414 . S
C299 C300 1.374 . S
C300 H274 0.950 . S
C300 C296 1.385 . S
C300 C299 1.374 . S
C301 C298 1.499 . S
C301 C302 1.373 1_556 S
C301 C303 1.389 . S
C302 H275 0.950 . S
C302 C288 1.377 . S
C302 C301 1.373 1_554 S
C303 C287 1.377 . S
C303 C301 1.389 . S
C303 C304 1.524 . S
C304 C303 1.524 . S
C304 C305 1.397 . S
C304 C309 1.363 . S
C305 H276 0.950 . S
C305 C304 1.397 . S
C305 C306 1.334 . S
C306 H277 0.950 . S
C306 C305 1.334 . S
C306 C307 1.287 . S
C307 C306 1.287 . S
C307 C308 1.524 . S
C307 H310 0.999 . S
C308 H278 0.950 . S
C308 C307 1.524 . S
C308 C309 1.415 . S
C309 H279 0.950 . S
C309 C304 1.363 . S
C309 C308 1.415 . S
H310 C307 0.999 . S
H311 C292 0.913 . S
H312 C330 0.951 . S
H313 C332 0.951 . S
H314 C334 0.950 . S
H315 C335 0.950 . S
H316 C337 0.950 . S
H317 C340 0.950 . S
H318 C341 0.950 . S
H319 C343 0.950 . S
H320 C344 0.950 . S
H321 C345 0.951 . S
H322 C347 0.951 . S
H323 C349 0.950 . S
H324 C350 0.950 . S
H325 C352 0.950 . S
H326 C355 0.950 . S
H327 C356 0.950 . S
H328 C358 0.950 . S
H329 C359 0.950 . S
C330 H312 0.951 . S
C330 C331 1.366 . S
C330 C332 1.388 . S
C331 C330 1.366 . S
C331 C335 1.385 . S
C332 H313 0.951 . S
C332 C330 1.388 . S
C332 C333 1.366 . S
C333 C332 1.366 . S
C333 C334 1.414 . S
C333 C336 1.499 . S
C334 H314 0.950 . S
C334 C333 1.414 . S
C334 C335 1.374 . S
C335 H315 0.950 . S
C335 C331 1.385 . S
C335 C334 1.374 . S
C336 C333 1.499 . S
C336 C337 1.373 . S
C336 C338 1.389 . S
C337 H316 0.950 . S
C337 C336 1.373 . S
C337 C353 1.377 . S
C338 C336 1.389 . S
C338 C339 1.524 . S
C338 C352 1.377 . S
C339 C338 1.524 . S
C339 C340 1.397 . S
C339 C344 1.363 . S
C340 H317 0.950 . S
C340 C339 1.397 . S
C340 C341 1.334 . S
C341 H318 0.950 . S
C341 C340 1.334 . S
C341 C342 1.287 . S
C342 C341 1.287 . S
C342 C343 1.524 . S
C342 H361 0.913 . S
C343 H319 0.950 . S
C343 C342 1.524 . S
C343 C344 1.415 . S
C344 H320 0.950 . S
C344 C339 1.363 . S
C344 C343 1.415 . S
C345 H321 0.951 . S
C345 C346 1.366 . S
C345 C347 1.388 . S
C346 C345 1.366 . S
C346 C350 1.385 . S
C347 H322 0.951 . S
C347 C345 1.388 . S
C347 C348 1.366 . S
C348 C347 1.366 . S
C348 C349 1.414 . S
C348 C351 1.499 . S
C349 H323 0.950 . S
C349 C348 1.414 . S
C349 C350 1.374 . S
C350 H324 0.950 . S
C350 C346 1.385 . S
C350 C349 1.374 . S
C351 C348 1.499 . S
C351 C352 1.373 . S
C351 C353 1.389 . S
C352 H325 0.950 . S
C352 C338 1.377 . S
C352 C351 1.373 . S
C353 C337 1.377 . S
C353 C351 1.389 . S
C353 C354 1.524 . S
C354 C353 1.524 . S
C354 C355 1.397 . S
C354 C359 1.363 . S
C355 H326 0.950 . S
C355 C354 1.397 . S
C355 C356 1.334 . S
C356 H327 0.950 . S
C356 C355 1.334 . S
C356 C357 1.287 . S
C357 C356 1.287 . S
C357 C358 1.524 . S
C357 H360 0.999 . S
C358 H328 0.950 . S
C358 C357 1.524 . S
C358 C359 1.415 . S
C359 H329 0.950 . S
C359 C354 1.363 . S
C359 C358 1.415 . S
H360 C357 0.999 . S
H361 C342 0.913 . S
H362 C380 0.951 . S
H363 C382 0.951 . S
H364 C384 0.950 . S
H365 C385 0.950 . S
H366 C387 0.950 . S
H367 C390 0.950 . S
H368 C391 0.950 . S
H369 C393 0.950 . S
H370 C394 0.950 . S
H371 C395 0.951 . S
H372 C397 0.951 . S
H373 C399 0.950 . S
H374 C400 0.950 . S
H375 C402 0.950 . S
H376 C405 0.950 . S
H377 C406 0.950 . S
H378 C408 0.950 . S
H379 C409 0.950 . S
C380 H362 0.951 . S
C380 C381 1.366 . S
C380 C382 1.388 . S
C381 C380 1.366 . S
C381 C385 1.385 . S
C382 H363 0.951 . S
C382 C380 1.388 . S
C382 C383 1.366 . S
C383 C382 1.366 . S
C383 C384 1.414 . S
C383 C386 1.499 . S
C384 H364 0.950 . S
C384 C383 1.414 . S
C384 C385 1.374 . S
C385 H365 0.950 . S
C385 C381 1.385 . S
C385 C384 1.374 . S
C386 C383 1.499 . S
C386 C387 1.373 . S
C386 C388 1.389 . S
C387 H366 0.950 . S
C387 C386 1.373 . S
C387 C403 1.377 . S
C388 C386 1.389 . S
C388 C389 1.524 . S
C388 C402 1.377 . S
C389 C388 1.524 . S
C389 C390 1.397 . S
C389 C394 1.363 . S
C390 H367 0.950 . S
C390 C389 1.397 . S
C390 C391 1.334 . S
C391 H368 0.950 . S
C391 C390 1.334 . S
C391 C392 1.287 . S
C392 C391 1.287 . S
C392 C393 1.524 . S
C392 H411 0.913 . S
C393 H369 0.950 . S
C393 C392 1.524 . S
C393 C394 1.415 . S
C394 H370 0.950 . S
C394 C389 1.363 . S
C394 C393 1.415 . S
C395 H371 0.951 . S
C395 C396 1.366 . S
C395 C397 1.388 . S
C396 C395 1.366 . S
C396 C400 1.385 . S
C397 H372 0.951 . S
C397 C395 1.388 . S
C397 C398 1.366 . S
C398 C397 1.366 . S
C398 C399 1.414 . S
C398 C401 1.499 . S
C399 H373 0.950 . S
C399 C398 1.414 . S
C399 C400 1.374 . S
C400 H374 0.950 . S
C400 C396 1.385 . S
C400 C399 1.374 . S
C401 C398 1.499 . S
C401 C402 1.373 . S
C401 C403 1.389 . S
C402 H375 0.950 . S
C402 C388 1.377 . S
C402 C401 1.373 . S
C403 C387 1.377 . S
C403 C401 1.389 . S
C403 C404 1.524 . S
C404 C403 1.524 . S
C404 C405 1.397 . S
C404 C409 1.363 . S
C405 H376 0.950 . S
C405 C404 1.397 . S
C405 C406 1.334 . S
C406 H377 0.950 . S
C406 C405 1.334 . S
C406 C407 1.287 . S
C407 C406 1.287 . S
C407 C408 1.524 . S
C407 H410 0.999 . S
C408 H378 0.950 . S
C408 C407 1.524 . S
C408 C409 1.415 . S
C409 H379 0.950 . S
C409 C404 1.363 . S
C409 C408 1.415 . S
H410 C407 0.999 . S
H411 C392 0.913 . S
H412 C430 0.951 . S
H413 C432 0.951 . S
H414 C434 0.950 . S
H415 C435 0.950 . S
H416 C437 0.950 . S
H417 C440 0.950 . S
H418 C441 0.950 . S
H419 C443 0.950 . S
H420 C444 0.950 . S
H421 C445 0.951 . S
H422 C447 0.951 . S
H423 C449 0.950 . S
H424 C450 0.950 . S
H425 C452 0.950 . S
H426 C455 0.950 . S
H427 C456 0.950 . S
H428 C458 0.950 . S
H429 C459 0.950 . S
C430 H412 0.951 . S
C430 C431 1.366 . S
C430 C432 1.388 . S
C431 C430 1.366 . S
C431 C435 1.385 . S
C432 H413 0.951 . S
C432 C430 1.388 . S
C432 C433 1.366 . S
C433 C432 1.366 . S
C433 C434 1.414 . S
C433 C436 1.499 . S
C434 H414 0.950 . S
C434 C433 1.414 . S
C434 C435 1.374 . S
C435 H415 0.950 . S
C435 C431 1.385 . S
C435 C434 1.374 . S
C436 C433 1.499 . S
C436 C437 1.373 . S
C436 C438 1.389 . S
C437 H416 0.950 . S
C437 C436 1.373 . S
C437 C453 1.377 . S
C438 C436 1.389 . S
C438 C439 1.524 . S
C438 C452 1.377 . S
C439 C438 1.524 . S
C439 C440 1.397 . S
C439 C444 1.363 . S
C440 H417 0.950 . S
C440 C439 1.397 . S
C440 C441 1.334 . S
C441 H418 0.950 . S
C441 C440 1.334 . S
C441 C442 1.287 . S
C442 C441 1.287 . S
C442 C443 1.524 . S
C442 H461 0.913 . S
C443 H419 0.950 . S
C443 C442 1.524 . S
C443 C444 1.415 . S
C444 H420 0.950 . S
C444 C439 1.363 . S
C444 C443 1.415 . S
C445 H421 0.951 . S
C445 C446 1.366 . S
C445 C447 1.388 . S
C446 C445 1.366 . S
C446 C450 1.385 . S
C447 H422 0.951 . S
C447 C445 1.388 . S
C447 C448 1.366 . S
C448 C447 1.366 . S
C448 C449 1.414 . S
C448 C451 1.499 . S
C449 H423 0.950 . S
C449 C448 1.414 . S
C449 C450 1.374 . S
C450 H424 0.950 . S
C450 C446 1.385 . S
C450 C449 1.374 . S
C451 C448 1.499 . S
C451 C452 1.373 . S
C451 C453 1.389 . S
C452 H425 0.950 . S
C452 C438 1.377 . S
C452 C451 1.373 . S
C453 C437 1.377 . S
C453 C451 1.389 . S
C453 C454 1.524 . S
C454 C453 1.524 . S
C454 C455 1.397 . S
C454 C459 1.363 . S
C455 H426 0.950 . S
C455 C454 1.397 . S
C455 C456 1.334 . S
C456 H427 0.950 . S
C456 C455 1.334 . S
C456 C457 1.287 . S
C457 C456 1.287 . S
C457 C458 1.524 . S
C457 H460 0.999 . S
C458 H428 0.950 . S
C458 C457 1.524 . S
C458 C459 1.415 . S
C459 H429 0.950 . S
C459 C454 1.363 . S
C459 C458 1.415 . S
H460 C457 0.999 . S
H461 C442 0.913 . S
H462 C480 0.951 . S
H463 C482 0.951 . S
H464 C484 0.950 . S
H465 C485 0.950 . S
H466 C487 0.950 . S
H467 C490 0.950 . S
H468 C491 0.950 . S
H469 C493 0.950 . S
H470 C494 0.950 . S
H471 C495 0.951 . S
H472 C497 0.951 . S
H473 C499 0.950 . S
H474 C500 0.950 . S
H475 C502 0.950 . S
H476 C505 0.950 . S
H477 C506 0.950 . S
H478 C508 0.950 . S
H479 C509 0.950 . S
C480 H462 0.951 . S
C480 C481 1.366 . S
C480 C482 1.388 . S
C481 C480 1.366 . S
C481 C485 1.385 . S
C482 H463 0.951 . S
C482 C480 1.388 . S
C482 C483 1.366 . S
C483 C482 1.366 . S
C483 C484 1.414 . S
C483 C486 1.499 . S
C484 H464 0.950 . S
C484 C483 1.414 . S
C484 C485 1.374 . S
C485 H465 0.950 . S
C485 C481 1.385 . S
C485 C484 1.374 . S
C486 C483 1.499 . S
C486 C487 1.373 . S
C486 C488 1.389 . S
C487 H466 0.950 . S
C487 C486 1.373 . S
C487 C503 1.377 . S
C488 C486 1.389 . S
C488 C489 1.524 . S
C488 C502 1.377 . S
C489 C488 1.524 . S
C489 C490 1.397 . S
C489 C494 1.363 . S
C490 H467 0.950 . S
C490 C489 1.397 . S
C490 C491 1.334 . S
C491 H468 0.950 . S
C491 C490 1.334 . S
C491 C492 1.287 . S
C492 C491 1.287 . S
C492 C493 1.524 . S
C492 H511 0.913 . S
C493 H469 0.950 . S
C493 C492 1.524 . S
C493 C494 1.415 . S
C494 H470 0.950 . S
C494 C489 1.363 . S
C494 C493 1.415 . S
C495 H471 0.951 . S
C495 C496 1.366 . S
C495 C497 1.388 . S
C496 C495 1.366 . S
C496 C500 1.385 . S
C497 H472 0.951 . S
C497 C495 1.388 . S
C497 C498 1.366 . S
C498 C497 1.366 . S
C498 C499 1.414 . S
C498 C501 1.499 . S
C499 H473 0.950 . S
C499 C498 1.414 . S
C499 C500 1.374 . S
C500 H474 0.950 . S
C500 C496 1.385 . S
C500 C499 1.374 . S
C501 C498 1.499 . S
C501 C502 1.373 . S
C501 C503 1.389 . S
C502 H475 0.950 . S
C502 C488 1.377 . S
C502 C501 1.373 . S
C503 C487 1.377 . S
C503 C501 1.389 . S
C503 C504 1.524 . S
C504 C503 1.524 . S
C504 C505 1.397 . S
C504 C509 1.363 . S
C505 H476 0.950 . S
C505 C504 1.397 . S
C505 C506 1.334 . S
C506 H477 0.950 . S
C506 C505 1.334 . S
C506 C507 1.287 . S
C507 C506 1.287 . S
C507 C508 1.524 . S
C507 H510 0.999 . S
C508 H478 0.950 . S
C508 C507 1.524 . S
C508 C509 1.415 . S
C509 H479 0.950 . S
C509 C504 1.363 . S
C509 C508 1.415 . S
H510 C507 0.999 . S
H511 C492 0.913 . S
H512 C530 0.951 . S
H513 C532 0.951 . S
H514 C534 0.950 . S
H515 C535 0.950 . S
H516 C537 0.950 . S
H517 C540 0.950 . S
H518 C541 0.950 . S
H519 C543 0.950 . S
H520 C544 0.950 . S
H521 C545 0.951 . S
H522 C547 0.951 . S
H523 C549 0.950 . S
H524 C550 0.950 . S
H525 C552 0.950 . S
H526 C555 0.950 . S
H527 C556 0.950 . S
H528 C558 0.950 . S
H529 C559 0.950 1_655 S
C530 H512 0.951 . S
C530 C531 1.366 1_565 S
C530 C532 1.388 . S
C531 C530 1.366 1_545 S
C531 C535 1.385 1_455 S
C532 H513 0.951 . S
C532 C530 1.388 . S
C532 C533 1.366 1_565 S
C533 C532 1.366 1_545 S
C533 C534 1.414 1_455 S
C533 C536 1.499 . S
C534 H514 0.950 . S
C534 C533 1.414 1_655 S
C534 C535 1.374 . S
C535 H515 0.950 . S
C535 C531 1.385 1_655 S
C535 C534 1.374 . S
C536 C533 1.499 . S
C536 C537 1.373 . S
C536 C538 1.389 1_545 S
C537 H516 0.950 . S
C537 C536 1.373 . S
C537 C553 1.377 . S
C538 C536 1.389 1_565 S
C538 C539 1.524 1_455 S
C538 C552 1.377 . S
C539 C538 1.524 1_655 S
C539 C540 1.397 . S
C539 C544 1.363 1_655 S
C540 H517 0.950 . S
C540 C539 1.397 . S
C540 C541 1.334 . S
C541 H518 0.950 . S
C541 C540 1.334 . S
C541 C542 1.287 . S
C542 C541 1.287 . S
C542 C543 1.524 1_655 S
C542 H561 0.913 . S
C543 H519 0.950 . S
C543 C542 1.524 1_455 S
C543 C544 1.415 . S
C544 H520 0.950 . S
C544 C539 1.363 1_455 S
C544 C543 1.415 . S
C545 H521 0.951 . S
C545 C546 1.366 1_655 S
C545 C547 1.388 . S
C546 C545 1.366 1_455 S
C546 C550 1.385 1_545 S
C547 H522 0.951 . S
C547 C545 1.388 . S
C547 C548 1.366 1_655 S
C548 C547 1.366 1_455 S
C548 C549 1.414 1_545 S
C548 C551 1.499 . S
C549 H523 0.950 . S
C549 C548 1.414 1_565 S
C549 C550 1.374 . S
C550 H524 0.950 . S
C550 C546 1.385 1_565 S
C550 C549 1.374 . S
C551 C548 1.499 . S
C551 C552 1.373 1_545 S
C551 C553 1.389 . S
C552 H525 0.950 . S
C552 C538 1.377 . S
C552 C551 1.373 1_565 S
C553 C537 1.377 . S
C553 C551 1.389 . S
C553 C554 1.524 . S
C554 C553 1.524 . S
C554 C555 1.397 . S
C554 C559 1.363 . S
C555 H526 0.950 . S
C555 C554 1.397 . S
C555 C556 1.334 . S
C556 H527 0.950 . S
C556 C555 1.334 . S
C556 C557 1.287 . S
C557 C556 1.287 . S
C557 C558 1.524 . S
C557 H560 0.999 . S
C558 H528 0.950 . S
C558 C557 1.524 . S
C558 C559 1.415 . S
C559 H529 0.950 1_455 S
C559 C554 1.363 . S
C559 C558 1.415 . S
H560 C557 0.999 . S
H561 C542 0.913 . S
H562 C580 0.951 . S
H563 C582 0.951 . S
H564 C584 0.948 1_655 S
H565 C585 0.946 1_655 S
H566 C587 0.950 . S
H567 C590 0.950 . S
H568 C591 0.950 . S
H569 C593 0.950 . S
H570 C594 0.950 1_455 S
H571 C595 0.951 1_655 S
H572 C597 0.951 1_655 S
H573 C599 0.950 . S
H574 C600 0.950 . S
H575 C602 0.950 1_655 S
H576 C605 0.950 . S
H577 C606 0.950 . S
H578 C608 0.950 . S
H579 C609 0.950 . S
C580 H562 0.951 . S
C580 C581 1.366 . S
C580 C582 1.388 . S
C581 C580 1.366 . S
C581 C585 1.389 1_545 S
C582 H563 0.951 . S
C582 C580 1.388 . S
C582 C583 1.366 . S
C583 C582 1.366 . S
C583 C584 1.417 1_545 S
C583 C586 1.498 . S
C584 H564 0.948 1_455 S
C584 C583 1.417 1_565 S
C584 C585 1.374 . S
C585 H565 0.946 1_455 S
C585 C581 1.389 1_565 S
C585 C584 1.374 . S
C586 C583 1.498 . S
C586 C587 1.364 1_545 S
C586 C588 1.400 . S
C587 H566 0.950 . S
C587 C586 1.364 1_565 S
C587 C603 1.377 . S
C588 C586 1.400 . S
C588 C589 1.524 1_455 S
C588 C602 1.377 . S
C589 C588 1.524 1_655 S
C589 C590 1.397 . S
C589 C594 1.363 . S
C590 H567 0.950 . S
C590 C589 1.397 . S
C590 C591 1.334 . S
C591 H568 0.950 . S
C591 C590 1.334 . S
C591 C592 1.287 . S
C592 C591 1.287 . S
C592 C593 1.524 . S
C592 H611 0.913 . S
C593 H569 0.950 . S
C593 C592 1.524 . S
C593 C594 1.415 . S
C594 H570 0.950 1_655 S
C594 C589 1.363 . S
C594 C593 1.415 . S
C595 H571 0.951 1_455 S
C595 C596 1.366 . S
C595 C597 1.388 . S
C596 C595 1.366 . S
C596 C600 1.385 1_565 S
C597 H572 0.951 1_455 S
C597 C595 1.388 . S
C597 C598 1.366 . S
C598 C597 1.366 . S
C598 C599 1.414 1_565 S
C598 C601 1.498 1_565 S
C599 H573 0.950 . S
C599 C598 1.414 1_545 S
C599 C600 1.374 . S
C600 H574 0.950 . S
C600 C596 1.385 1_545 S
C600 C599 1.374 . S
C601 C598 1.498 1_545 S
C601 C602 1.372 . S
C601 C603 1.391 1_545 S
C602 H575 0.950 1_455 S
C602 C588 1.377 . S
C602 C601 1.372 . S
C603 C587 1.377 . S
C603 C601 1.391 1_565 S
C603 C604 1.524 . S
C604 C603 1.524 . S
C604 C605 1.397 . S
C604 C609 1.363 . S
C605 H576 0.950 . S
C605 C604 1.397 . S
C605 C606 1.334 . S
C606 H577 0.950 . S
C606 C605 1.334 . S
C606 C607 1.287 . S
C607 C606 1.287 . S
C607 C608 1.524 . S
C607 H610 0.999 . S
C608 H578 0.950 . S
C608 C607 1.524 . S
C608 C609 1.415 . S
C609 H579 0.950 . S
C609 C604 1.363 . S
C609 C608 1.415 . S
H610 C607 0.999 . S
H611 C592 0.913 . S
H612 C630 0.951 . S
H613 C632 0.951 . S
H614 C634 0.950 . S
H615 C635 0.950 . S
H616 C637 0.950 . S
H617 C640 0.950 . S
H618 C641 0.950 . S
H619 C643 0.950 . S
H620 C644 0.950 . S
H621 C645 0.951 . S
H622 C647 0.951 . S
H623 C649 0.950 . S
H624 C650 0.950 . S
H625 C652 0.950 . S
H626 C655 0.950 . S
H627 C656 0.950 . S
H628 C658 0.950 . S
H629 C659 0.950 . S
C630 H612 0.951 . S
C630 C631 1.366 . S
C630 C632 1.388 . S
C631 C630 1.366 . S
C631 C635 1.385 . S
C632 H613 0.951 . S
C632 C630 1.388 . S
C632 C633 1.366 . S
C633 C632 1.366 . S
C633 C634 1.414 . S
C633 C636 1.499 . S
C634 H614 0.950 . S
C634 C633 1.414 . S
C634 C635 1.374 . S
C635 H615 0.950 . S
C635 C631 1.385 . S
C635 C634 1.374 . S
C636 C633 1.499 . S
C636 C637 1.373 . S
C636 C638 1.389 . S
C637 H616 0.950 . S
C637 C636 1.373 . S
C637 C653 1.377 . S
C638 C636 1.389 . S
C638 C639 1.524 . S
C638 C652 1.377 . S
C639 C638 1.524 . S
C639 C640 1.397 . S
C639 C644 1.363 . S
C640 H617 0.950 . S
C640 C639 1.397 . S
C640 C641 1.334 . S
C641 H618 0.950 . S
C641 C640 1.334 . S
C641 C642 1.287 . S
C642 C641 1.287 . S
C642 C643 1.524 . S
C642 H661 0.913 . S
C643 H619 0.950 . S
C643 C642 1.524 . S
C643 C644 1.415 . S
C644 H620 0.950 . S
C644 C639 1.363 . S
C644 C643 1.415 . S
C645 H621 0.951 . S
C645 C646 1.366 . S
C645 C647 1.388 . S
C646 C645 1.366 . S
C646 C650 1.385 . S
C647 H622 0.951 . S
C647 C645 1.388 . S
C647 C648 1.366 . S
C648 C647 1.366 . S
C648 C649 1.414 . S
C648 C651 1.499 . S
C649 H623 0.950 . S
C649 C648 1.414 . S
C649 C650 1.374 . S
C650 H624 0.950 . S
C650 C646 1.385 . S
C650 C649 1.374 . S
C651 C648 1.499 . S
C651 C652 1.373 . S
C651 C653 1.389 . S
C652 H625 0.950 . S
C652 C638 1.377 . S
C652 C651 1.373 . S
C653 C637 1.377 . S
C653 C651 1.389 . S
C653 C654 1.524 . S
C654 C653 1.524 . S
C654 C655 1.397 . S
C654 C659 1.363 . S
C655 H626 0.950 . S
C655 C654 1.397 . S
C655 C656 1.334 . S
C656 H627 0.950 . S
C656 C655 1.334 . S
C656 C657 1.287 . S
C657 C656 1.287 . S
C657 C658 1.524 . S
C657 H660 0.999 . S
C658 H628 0.950 . S
C658 C657 1.524 . S
C658 C659 1.415 . S
C659 H629 0.950 . S
C659 C654 1.363 . S
C659 C658 1.415 . S
H660 C657 0.999 . S
H661 C642 0.913 . S
H662 C680 0.951 . S
H663 C682 0.951 . S
H664 C684 0.950 . S
H665 C685 0.950 . S
H666 C687 0.950 . S
H667 C690 0.950 . S
H668 C691 0.950 . S
H669 C693 0.950 . S
H670 C694 0.950 . S
H671 C695 0.951 . S
H672 C697 0.951 . S
H673 C699 0.950 . S
H674 C700 0.950 . S
H675 C702 0.950 . S
H676 C705 0.950 . S
H677 C706 0.950 . S
H678 C708 0.950 . S
H679 C709 0.950 . S
C680 H662 0.951 . S
C680 C681 1.366 . S
C680 C682 1.388 . S
C681 C680 1.366 . S
C681 C685 1.385 . S
C682 H663 0.951 . S
C682 C680 1.388 . S
C682 C683 1.366 . S
C683 C682 1.366 . S
C683 C684 1.414 . S
C683 C686 1.499 . S
C684 H664 0.950 . S
C684 C683 1.414 . S
C684 C685 1.374 . S
C685 H665 0.950 . S
C685 C681 1.385 . S
C685 C684 1.374 . S
C686 C683 1.499 . S
C686 C687 1.373 . S
C686 C688 1.389 . S
C687 H666 0.950 . S
C687 C686 1.373 . S
C687 C703 1.377 . S
C688 C686 1.389 . S
C688 C689 1.524 . S
C688 C702 1.377 . S
C689 C688 1.524 . S
C689 C690 1.397 . S
C689 C694 1.363 . S
C690 H667 0.950 . S
C690 C689 1.397 . S
C690 C691 1.334 . S
C691 H668 0.950 . S
C691 C690 1.334 . S
C691 C692 1.287 . S
C692 C691 1.287 . S
C692 C693 1.524 . S
C692 H711 0.913 . S
C693 H669 0.950 . S
C693 C692 1.524 . S
C693 C694 1.415 . S
C694 H670 0.950 . S
C694 C689 1.363 . S
C694 C693 1.415 . S
C695 H671 0.951 . S
C695 C696 1.366 . S
C695 C697 1.388 . S
C696 C695 1.366 . S
C696 C700 1.385 . S
C697 H672 0.951 . S
C697 C695 1.388 . S
C697 C698 1.366 . S
C698 C697 1.366 . S
C698 C699 1.414 . S
C698 C701 1.499 . S
C699 H673 0.950 . S
C699 C698 1.414 . S
C699 C700 1.374 . S
C700 H674 0.950 . S
C700 C696 1.385 . S
C700 C699 1.374 . S
C701 C698 1.499 . S
C701 C702 1.373 . S
C701 C703 1.389 . S
C702 H675 0.950 . S
C702 C688 1.377 . S
C702 C701 1.373 . S
C703 C687 1.377 . S
C703 C701 1.389 . S
C703 C704 1.524 . S
C704 C703 1.524 . S
C704 C705 1.397 . S
C704 C709 1.363 . S
C705 H676 0.950 . S
C705 C704 1.397 . S
C705 C706 1.334 . S
C706 H677 0.950 . S
C706 C705 1.334 . S
C706 C707 1.287 . S
C707 C706 1.287 . S
C707 C708 1.524 . S
C707 H710 0.999 . S
C708 H678 0.950 . S
C708 C707 1.524 . S
C708 C709 1.415 . S
C709 H679 0.950 . S
C709 C704 1.363 . S
C709 C708 1.415 . S
H710 C707 0.999 . S
H711 C692 0.913 . S
C146 C106 1.245 . S
C131 C29 1.462 . S
C181 C8 1.469 1_556 S
C196 C95 1.246 . S
C231 C0 1.403 . S
C246 C109 1.374 . S
C281 C17 1.388 . S
C296 C98 1.358 . S
C331 C63 1.462 . S
C346 C84 1.246 . S
C381 C42 1.469 . S
C396 C73 1.246 . S
C446 C87 1.374 . S
C431 C34 1.403 . S
C496 C76 1.358 . S
C481 C51 1.388 . S
C531 C4 1.509 . S
C546 C75 1.456 . S
C581 C13 1.500 . S
C596 C86 1.456 . S
C646 C97 1.456 . S
C631 C38 1.509 . S
C681 C47 1.500 . S
C696 C108 1.453 . S
