# Generated by pormake.
# Topology ocu, (6,8)-cn, num edge types: 1
# Building blocks:
#     Node 0, Type 0, BuildingBlock: JUFBIX_clean_sbu_0, # of connection points: 6
#     Node 1, Type 0, BuildingBlock: JUFBIX_clean_sbu_0, # of connection points: 6
#     Node 2, Type 0, BuildingBlock: JUFBIX_clean_sbu_0, # of connection points: 6
#     Node 3, Type 0, BuildingBlock: JUFBIX_clean_sbu_0, # of connection points: 6
#     Node 4, Type 0, BuildingBlock: JUFBIX_clean_sbu_0, # of connection points: 6
#     Node 5, Type 0, BuildingBlock: JUFBIX_clean_sbu_0, # of connection points: 6
#     Node 6, Type 0, BuildingBlock: JUFBIX_clean_sbu_0, # of connection points: 6
#     Node 7, Type 0, BuildingBlock: JUFBIX_clean_sbu_0, # of connection points: 6
#     Node 8, Type 1, BuildingBlock: TAGTUT_clean_sbu_1, # of connection points: 8
#     Node 9, Type 1, BuildingBlock: TAGTUT_clean_sbu_1, # of connection points: 8
#     Node 10, Type 1, BuildingBlock: TAGTUT_clean_sbu_1, # of connection points: 8
#     Node 11, Type 1, BuildingBlock: TAGTUT_clean_sbu_1, # of connection points: 8
#     Node 12, Type 1, BuildingBlock: TAGTUT_clean_sbu_1, # of connection points: 8
#     Node 13, Type 1, BuildingBlock: TAGTUT_clean_sbu_1, # of connection points: 8
#     Edge 14, Type (0, 1), BuildingBlock: OJICUG_clean_linker_0, # of connection points: 2
#     Edge 15, Type (0, 1), BuildingBlock: OJICUG_clean_linker_0, # of connection points: 2
#     Edge 16, Type (0, 1), BuildingBlock: OJICUG_clean_linker_0, # of connection points: 2
#     Edge 17, Type (0, 1), BuildingBlock: OJICUG_clean_linker_0, # of connection points: 2
#     Edge 18, Type (0, 1), BuildingBlock: OJICUG_clean_linker_0, # of connection points: 2
#     Edge 19, Type (0, 1), BuildingBlock: OJICUG_clean_linker_0, # of connection points: 2
#     Edge 20, Type (0, 1), BuildingBlock: OJICUG_clean_linker_0, # of connection points: 2
#     Edge 21, Type (0, 1), BuildingBlock: OJICUG_clean_linker_0, # of connection points: 2
#     Edge 22, Type (0, 1), BuildingBlock: OJICUG_clean_linker_0, # of connection points: 2
#     Edge 23, Type (0, 1), BuildingBlock: OJICUG_clean_linker_0, # of connection points: 2
#     Edge 24, Type (0, 1), BuildingBlock: OJICUG_clean_linker_0, # of connection points: 2
#     Edge 25, Type (0, 1), BuildingBlock: OJICUG_clean_linker_0, # of connection points: 2
#     Edge 26, Type (0, 1), BuildingBlock: OJICUG_clean_linker_0, # of connection points: 2
#     Edge 27, Type (0, 1), BuildingBlock: OJICUG_clean_linker_0, # of connection points: 2
#     Edge 28, Type (0, 1), BuildingBlock: OJICUG_clean_linker_0, # of connection points: 2
#     Edge 29, Type (0, 1), BuildingBlock: OJICUG_clean_linker_0, # of connection points: 2
#     Edge 30, Type (0, 1), BuildingBlock: OJICUG_clean_linker_0, # of connection points: 2
#     Edge 31, Type (0, 1), BuildingBlock: OJICUG_clean_linker_0, # of connection points: 2
#     Edge 32, Type (0, 1), BuildingBlock: OJICUG_clean_linker_0, # of connection points: 2
#     Edge 33, Type (0, 1), BuildingBlock: OJICUG_clean_linker_0, # of connection points: 2
#     Edge 34, Type (0, 1), BuildingBlock: OJICUG_clean_linker_0, # of connection points: 2
#     Edge 35, Type (0, 1), BuildingBlock: OJICUG_clean_linker_0, # of connection points: 2
#     Edge 36, Type (0, 1), BuildingBlock: OJICUG_clean_linker_0, # of connection points: 2
#     Edge 37, Type (0, 1), BuildingBlock: OJICUG_clean_linker_0, # of connection points: 2
#     Edge 38, Type (0, 1), BuildingBlock: OJICUG_clean_linker_0, # of connection points: 2
#     Edge 39, Type (0, 1), BuildingBlock: OJICUG_clean_linker_0, # of connection points: 2
#     Edge 40, Type (0, 1), BuildingBlock: OJICUG_clean_linker_0, # of connection points: 2
#     Edge 41, Type (0, 1), BuildingBlock: OJICUG_clean_linker_0, # of connection points: 2
#     Edge 42, Type (0, 1), BuildingBlock: OJICUG_clean_linker_0, # of connection points: 2
#     Edge 43, Type (0, 1), BuildingBlock: OJICUG_clean_linker_0, # of connection points: 2
#     Edge 44, Type (0, 1), BuildingBlock: OJICUG_clean_linker_0, # of connection points: 2
#     Edge 45, Type (0, 1), BuildingBlock: OJICUG_clean_linker_0, # of connection points: 2
#     Edge 46, Type (0, 1), BuildingBlock: OJICUG_clean_linker_0, # of connection points: 2
#     Edge 47, Type (0, 1), BuildingBlock: OJICUG_clean_linker_0, # of connection points: 2
#     Edge 48, Type (0, 1), BuildingBlock: OJICUG_clean_linker_0, # of connection points: 2
#     Edge 49, Type (0, 1), BuildingBlock: OJICUG_clean_linker_0, # of connection points: 2
#     Edge 50, Type (0, 1), BuildingBlock: OJICUG_clean_linker_0, # of connection points: 2
#     Edge 51, Type (0, 1), BuildingBlock: OJICUG_clean_linker_0, # of connection points: 2
#     Edge 52, Type (0, 1), BuildingBlock: OJICUG_clean_linker_0, # of connection points: 2
#     Edge 53, Type (0, 1), BuildingBlock: OJICUG_clean_linker_0, # of connection points: 2
#     Edge 54, Type (0, 1), BuildingBlock: OJICUG_clean_linker_0, # of connection points: 2
#     Edge 55, Type (0, 1), BuildingBlock: OJICUG_clean_linker_0, # of connection points: 2
#     Edge 56, Type (0, 1), BuildingBlock: OJICUG_clean_linker_0, # of connection points: 2
#     Edge 57, Type (0, 1), BuildingBlock: OJICUG_clean_linker_0, # of connection points: 2
#     Edge 58, Type (0, 1), BuildingBlock: OJICUG_clean_linker_0, # of connection points: 2
#     Edge 59, Type (0, 1), BuildingBlock: OJICUG_clean_linker_0, # of connection points: 2
#     Edge 60, Type (0, 1), BuildingBlock: OJICUG_clean_linker_0, # of connection points: 2
#     Edge 61, Type (0, 1), BuildingBlock: OJICUG_clean_linker_0, # of connection points: 2
# Relax obj value: 0.218
# Max RMSD: 0.322
# Mean RMSD: 0.177
data_MOF--net-ocu--node1-JUFBIX_clean_sbu_0--node2-TAGTUT_clean_sbu_1--edge1-OJICUG_clean_linker_0
_symmetry_space_group_name_H-M    P1
_symmetry_Int_Tables_number       1
_symmetry_cell_setting            triclinic
loop_
_symmetry_equiv_pos_as_xyz
'x, y, z'
_cell_length_a     27.85226
_cell_length_b     27.450365
_cell_length_c     30.699448
_cell_angle_alpha  93.091985
_cell_angle_beta   95.02366
_cell_angle_gamma 102.77725
loop_
_atom_site_label
_atom_site_type_symbol
_atom_site_fract_x
_atom_site_fract_y
_atom_site_fract_z
_atom_type_partial_charge
Co0 Co 0.24991 0.23356 0.2333 0.0
C1 C 0.24765 0.30387 0.30339 0.0
Co2 Co 0.31416 0.29712 0.24423 0.0
C3 C 0.16672 0.16648 0.25895 0.0
C4 C 0.17294 0.15062 0.19109 0.0
N5 N 0.19417 0.18201 0.22639 0.0
N6 N 0.12927 0.12725 0.24575 0.0
C7 C 0.13334 0.11592 0.2033 0.0
H8 H 0.17587 0.18126 0.29281 0.0
H9 H 0.18645 0.1516 0.1591 0.0
C10 C 0.31705 0.22756 0.17425 0.0
N11 N 0.36999 0.34856 0.2508 0.0
C12 C 0.38272 0.38009 0.21972 0.0
C13 C 0.40936 0.3591 0.28165 0.0
N14 N 0.42802 0.40965 0.22951 0.0
C15 C 0.44578 0.39646 0.26812 0.0
C16 C 0.32704 0.21424 0.29018 0.0
O17 O 0.27593 0.20443 0.18572 0.0
O18 O 0.33893 0.26902 0.19488 0.0
O19 O 0.3475 0.25847 0.28178 0.0
O20 O 0.28286 0.1957 0.27332 0.0
O21 O 0.29001 0.32553 0.29342 0.0
H22 H 0.41256 0.33925 0.31087 0.0
H23 H 0.36088 0.37901 0.18859 0.0
O24 O 0.22458 0.26387 0.28123 0.0
O25 O 0.21701 0.27052 0.19369 0.0
O26 O 0.27941 0.33527 0.2059 0.0
C27 C 0.23653 0.31554 0.1868 0.0
H28 H 0.11083 0.08389 0.18337 0.0
H29 H 0.48264 0.41137 0.28432 0.0
Co30 Co 0.81452 0.2842 0.22936 0.0
C31 C 0.79691 0.32815 0.31116 0.0
Co32 Co 0.74335 0.25621 0.25296 0.0
C33 C 0.90078 0.32473 0.18805 0.0
C34 C 0.91706 0.31277 0.25541 0.0
N35 N 0.87964 0.30639 0.22283 0.0
N36 N 0.94961 0.34327 0.19786 0.0
C37 C 0.96026 0.33651 0.24019 0.0
H38 H 0.88014 0.32913 0.15749 0.0
H39 H 0.91258 0.30401 0.28897 0.0
C40 C 0.76096 0.21179 0.17133 0.0
N41 N 0.67802 0.23311 0.25986 0.0
C42 C 0.66012 0.20021 0.28811 0.0
C43 C 0.63975 0.23099 0.22874 0.0
N44 N 0.61346 0.17573 0.27466 0.0
C45 C 0.59971 0.19521 0.23782 0.0
C46 C 0.7498 0.33928 0.19866 0.0
O47 O 0.8034 0.24145 0.17614 0.0
O48 O 0.73164 0.21362 0.20033 0.0
O49 O 0.72403 0.30887 0.22189 0.0
O50 O 0.79477 0.33691 0.19648 0.0
O51 O 0.7548 0.29788 0.30671 0.0
H52 H 0.64256 0.24915 0.19838 0.0
H53 H 0.68253 0.18969 0.31506 0.0
O54 O 0.82564 0.32739 0.28151 0.0
O55 O 0.83442 0.23241 0.26094 0.0
O56 O 0.7635 0.20273 0.28486 0.0
C57 C 0.80859 0.201 0.28317 0.0
H58 H 0.9955 0.35146 0.25935 0.0
H59 H 0.56571 0.18076 0.21673 0.0
Co60 Co 0.77371 0.72724 0.25125 0.0
C61 C 0.84837 0.8001 0.30023 0.0
Co62 Co 0.79544 0.79946 0.22256 0.0
C63 C 0.80132 0.64002 0.27586 0.0
C64 C 0.7337 0.64436 0.30188 0.0
N65 N 0.76502 0.66511 0.2734 0.0
N66 N 0.79737 0.60849 0.30769 0.0
C67 C 0.754 0.60989 0.3235 0.0
H68 H 0.83609 0.6524 0.26223 0.0
H69 H 0.7024 0.65833 0.31122 0.0
C70 C 0.72047 0.72729 0.17376 0.0
N71 N 0.80412 0.86171 0.20044 0.0
C72 C 0.76828 0.88742 0.19915 0.0
C73 C 0.83413 0.88154 0.17065 0.0
N74 N 0.77108 0.91838 0.16689 0.0
C75 C 0.81339 0.91606 0.14952 0.0
C76 C 0.84511 0.73615 0.1883 0.0
O77 O 0.72539 0.70083 0.20569 0.0
O78 O 0.7446 0.77262 0.17593 0.0
O79 O 0.84199 0.78131 0.18648 0.0
O80 O 0.82065 0.70984 0.21497 0.0
O81 O 0.84454 0.8255 0.26739 0.0
H82 H 0.86452 0.86685 0.16013 0.0
H83 H 0.73428 0.87591 0.21414 0.0
O84 O 0.82376 0.75493 0.29874 0.0
O85 O 0.72627 0.74475 0.28642 0.0
O86 O 0.74933 0.81713 0.25985 0.0
C87 C 0.724 0.79022 0.28567 0.0
H88 H 0.74236 0.59413 0.35348 0.0
H89 H 0.82375 0.93114 0.11894 0.0
Co90 Co 0.25645 0.78718 0.23342 0.0
C91 C 0.31976 0.81402 0.31058 0.0
Co92 Co 0.30955 0.73963 0.24476 0.0
C93 C 0.18071 0.83262 0.25566 0.0
C94 C 0.21816 0.87203 0.206 0.0
N95 N 0.21266 0.82877 0.22612 0.0
N96 N 0.16878 0.8773 0.25737 0.0
C97 C 0.19195 0.90249 0.22598 0.0
H98 H 0.17377 0.80776 0.28162 0.0
H99 H 0.24463 0.88394 0.18283 0.0
C100 C 0.24638 0.71272 0.16752 0.0
N101 N 0.35327 0.69767 0.25206 0.0
C102 C 0.38592 0.69451 0.22298 0.0
C103 C 0.34558 0.65293 0.26991 0.0
N104 N 0.39547 0.64883 0.21878 0.0
C105 C 0.37073 0.6224 0.24869 0.0
C106 C 0.22014 0.7032 0.28532 0.0
O107 O 0.22883 0.74944 0.18028 0.0
O108 O 0.28095 0.70091 0.19141 0.0
O109 O 0.26231 0.69521 0.27834 0.0
O110 O 0.20866 0.74072 0.26764 0.0
O111 O 0.33734 0.77738 0.2977 0.0
H112 H 0.318 0.64018 0.29191 0.0
H113 H 0.39477 0.72103 0.19856 0.0
O114 O 0.285 0.82578 0.28688 0.0
O115 O 0.30359 0.83188 0.20012 0.0
O116 O 0.35722 0.78622 0.2103 0.0
C117 C 0.34574 0.82397 0.19296 0.0
H118 H 0.19499 0.94194 0.22179 0.0
H119 H 0.36547 0.58232 0.25059 0.0
Co120 Co 0.31755 0.78421 0.72587 0.0
C121 C 0.30025 0.82674 0.80854 0.0
Co122 Co 0.24643 0.75588 0.74977 0.0
C123 C 0.40075 0.84391 0.69253 0.0
C124 C 0.42203 0.80673 0.7478 0.0
N125 N 0.38279 0.80878 0.71895 0.0
N126 N 0.44874 0.86459 0.70448 0.0
C127 C 0.46308 0.84105 0.73859 0.0
H128 H 0.37848 0.85696 0.66697 0.0
H129 H 0.42021 0.78549 0.77647 0.0
C130 C 0.26401 0.7128 0.66739 0.0
N131 N 0.18143 0.73178 0.75678 0.0
C132 C 0.16361 0.69963 0.78559 0.0
C133 C 0.14272 0.7301 0.7262 0.0
N134 N 0.11629 0.6765 0.77329 0.0
C135 C 0.10226 0.69567 0.7364 0.0
C136 C 0.25111 0.83943 0.69687 0.0
O137 O 0.30628 0.74287 0.67189 0.0
O138 O 0.23504 0.71396 0.69682 0.0
O139 O 0.22571 0.8083 0.71964 0.0
O140 O 0.29608 0.83751 0.69451 0.0
O141 O 0.25782 0.797 0.80375 0.0
H142 H 0.14511 0.74814 0.69577 0.0
H143 H 0.18613 0.68915 0.81249 0.0
O144 O 0.3291 0.82595 0.77895 0.0
O145 O 0.33805 0.7315 0.75601 0.0
O146 O 0.26755 0.7025 0.78104 0.0
C147 C 0.31243 0.70031 0.77861 0.0
H148 H 0.49913 0.85071 0.75726 0.0
H149 H 0.06738 0.68219 0.71631 0.0
Co150 Co 0.27675 0.23098 0.74822 0.0
C151 C 0.35146 0.30383 0.79674 0.0
Co152 Co 0.29743 0.30335 0.71964 0.0
C153 C 0.3065 0.14526 0.77291 0.0
C154 C 0.23682 0.14598 0.79657 0.0
N155 N 0.26915 0.16887 0.7698 0.0
N156 N 0.30176 0.11201 0.80335 0.0
C157 C 0.25731 0.11135 0.81781 0.0
H158 H 0.34189 0.15965 0.76089 0.0
H159 H 0.20432 0.15835 0.80496 0.0
C160 C 0.22231 0.2306 0.67135 0.0
N161 N 0.30525 0.36583 0.69783 0.0
C162 C 0.26964 0.39181 0.69792 0.0
C163 C 0.33389 0.38548 0.66704 0.0
N164 N 0.27082 0.42228 0.66533 0.0
C165 C 0.31237 0.41991 0.64666 0.0
C166 C 0.34731 0.2409 0.68439 0.0
O167 O 0.22781 0.20449 0.70339 0.0
O168 O 0.24622 0.27603 0.67312 0.0
O169 O 0.34399 0.28605 0.68308 0.0
O170 O 0.32314 0.21416 0.71098 0.0
O171 O 0.34678 0.32965 0.76431 0.0
H172 H 0.36366 0.37062 0.65534 0.0
H173 H 0.23651 0.38071 0.71422 0.0
O174 O 0.32735 0.2585 0.79499 0.0
O175 O 0.22983 0.24779 0.78452 0.0
O176 O 0.25135 0.32011 0.7575 0.0
C177 C 0.22691 0.29309 0.78379 0.0
H178 H 0.24456 0.09371 0.8467 0.0
H179 H 0.32134 0.43459 0.6156 0.0
Co180 Co 0.75558 0.28681 0.73256 0.0
C181 C 0.81823 0.31344 0.80982 0.0
Co182 Co 0.80836 0.23904 0.74408 0.0
C183 C 0.67971 0.33261 0.754 0.0
C184 C 0.71885 0.37263 0.70556 0.0
N185 N 0.7121 0.32879 0.72485 0.0
N186 N 0.66896 0.37784 0.75653 0.0
C187 C 0.6931 0.40335 0.7258 0.0
H188 H 0.67171 0.30716 0.77938 0.0
H189 H 0.74601 0.3847 0.683 0.0
C190 C 0.74585 0.21243 0.66656 0.0
N191 N 0.85166 0.19718 0.75227 0.0
C192 C 0.88306 0.19183 0.72266 0.0
C193 C 0.84584 0.15464 0.7735 0.0
N194 N 0.89417 0.14675 0.72188 0.0
C195 C 0.8711 0.12294 0.75396 0.0
C196 C 0.7186 0.20301 0.78433 0.0
O197 O 0.72826 0.24911 0.67936 0.0
O198 O 0.78017 0.20035 0.69058 0.0
O199 O 0.76066 0.1948 0.77731 0.0
O200 O 0.70732 0.24062 0.76665 0.0
O201 O 0.83572 0.27674 0.79703 0.0
H202 H 0.81963 0.14397 0.79715 0.0
H203 H 0.88981 0.21579 0.69599 0.0
O204 O 0.78375 0.32542 0.78596 0.0
O205 O 0.80339 0.33114 0.69948 0.0
O206 O 0.85681 0.28521 0.70994 0.0
C207 C 0.84557 0.32306 0.69254 0.0
H208 H 0.69725 0.44309 0.72241 0.0
H209 H 0.86731 0.08356 0.75889 0.0
Co210 Co 0.75218 0.73483 0.73432 0.0
C211 C 0.74867 0.80615 0.80307 0.0
Co212 Co 0.81663 0.79818 0.74532 0.0
C213 C 0.6694 0.66715 0.75968 0.0
C214 C 0.6741 0.65381 0.69118 0.0
N215 N 0.69622 0.68377 0.72706 0.0
N216 N 0.63151 0.62853 0.74596 0.0
C217 C 0.63457 0.61879 0.70307 0.0
H218 H 0.67923 0.68083 0.79376 0.0
H219 H 0.68693 0.65601 0.65893 0.0
C220 C 0.8199 0.72673 0.67661 0.0
N221 N 0.87256 0.84952 0.75217 0.0
C222 C 0.89917 0.86546 0.71919 0.0
C223 C 0.89343 0.88166 0.78709 0.0
N224 N 0.93562 0.90583 0.73169 0.0
C225 C 0.93182 0.9173 0.77418 0.0
C226 C 0.8282 0.71624 0.7931 0.0
O227 O 0.77788 0.7049 0.68698 0.0
O228 O 0.84236 0.7675 0.69784 0.0
O229 O 0.84859 0.76078 0.78525 0.0
O230 O 0.7847 0.69703 0.77477 0.0
O231 O 0.79064 0.82823 0.79267 0.0
H232 H 0.88003 0.88094 0.81912 0.0
H233 H 0.88956 0.85052 0.68541 0.0
O234 O 0.72646 0.76523 0.7819 0.0
O235 O 0.72023 0.77229 0.69455 0.0
O236 O 0.78422 0.83584 0.70468 0.0
C237 C 0.74072 0.81666 0.68643 0.0
H238 H 0.61141 0.58761 0.68256 0.0
H239 H 0.95327 0.95031 0.79354 0.0
C240 C 0.91019 0.11448 0.54268 0.0
C241 C 0.9163 0.09365 0.40005 0.0
C242 C 0.95318 0.90968 0.45622 0.0
Mg243 Mg 0.99353 0.12597 0.48131 0.0
O244 O 0.98293 0.06063 0.49754 0.0
Mg245 Mg 0.91716 1.0141 0.48379 0.0
Mg246 Mg 1.02874 0.01726 0.48786 0.0
O247 O 0.0745 0.97374 0.47836 0.0
Mg248 Mg 0.06362 0.90921 0.49666 0.0
Mg249 Mg 0.14031 0.02017 0.49228 0.0
C250 C 0.10449 0.12467 0.51987 0.0
C251 C 0.0838 0.05375 0.40485 0.0
O252 O 0.8869 0.07287 0.52201 0.0
O253 O 0.94849 0.14243 0.52947 0.0
O254 O 0.89911 0.05275 0.41789 0.0
O255 O 0.95532 0.12503 0.41714 0.0
O256 O 0.07291 0.14835 0.50345 0.0
O257 O 0.09477 0.07658 0.51975 0.0
C258 C 0.97388 0.98036 0.57099 0.0
O259 O 1.01481 0.9887 0.55415 0.0
O260 O 0.93366 0.98489 0.54998 0.0
O261 O 0.16996 0.96074 0.45429 0.0
O262 O 0.10883 0.89086 0.4493 0.0
O263 O 0.15854 0.98257 0.55857 0.0
C264 C 0.14741 0.91778 0.43559 0.0
O265 O 0.10184 0.91115 0.5612 0.0
O266 O 0.98428 0.88646 0.47428 0.0
C267 C 0.14127 0.9425 0.57747 0.0
O268 O 0.96279 0.95777 0.45588 0.0
O269 O 0.04276 0.04584 0.42152 0.0
O270 O 0.12382 0.0489 0.42599 0.0
C271 C 0.42047 0.13379 0.05007 0.0
C272 C 0.46112 0.10949 0.91803 0.0
C273 C 0.44314 0.92324 0.94245 0.0
Mg274 Mg 0.51762 0.1307 0.0073 0.0
O275 O 0.49637 0.06212 0.01729 0.0
Mg276 Mg 0.42723 0.02704 -0.00859 0.0
Mg277 Mg 0.53284 0.01549 -0.00987 0.0
O278 O 0.56921 0.96893 0.96291 0.0
Mg279 Mg 0.54795 0.90006 0.97195 0.0
Mg280 Mg 0.63841 1.00407 -0.01153 0.0
C281 C 0.62243 0.10804 0.03738 0.0
C282 C 0.6108 0.07566 0.91425 0.0
O283 O 0.40117 0.08909 0.03286 0.0
O284 O 0.4649 0.15656 0.04499 0.0
O285 O 0.43465 0.07329 0.93507 0.0
O286 O 0.49857 0.13902 0.93924 0.0
O287 O 0.59561 0.14014 0.03124 0.0
O288 O 0.60487 0.06064 0.02852 0.0
C289 C 0.45443 0.95496 0.06557 0.0
O290 O 0.49839 0.9608 0.05136 0.0
O291 O 0.42338 0.97775 0.04785 0.0
O292 O 0.66439 0.94255 0.9463 0.0
O293 O 0.6006 0.87522 0.93338 0.0
O294 O 0.63129 0.95713 0.04428 0.0
C295 C 0.64503 0.89816 0.92844 0.0
O296 O 0.568 0.89077 0.0398 0.0
O297 O 0.46971 0.8908 0.94807 0.0
C298 C 0.60539 0.92037 0.0611 0.0
O299 O 0.46105 0.97043 0.952 0.0
O300 O 0.56689 0.06979 0.92853 0.0
O301 O 0.64208 0.05338 0.93224 0.0
C302 C 0.93332 0.63599 0.05622 0.0
C303 C 0.93587 0.61367 0.91722 0.0
C304 C 0.9447 0.41747 0.95265 0.0
Mg305 Mg 1.01644 0.63073 -0.00344 0.0
O306 O 0.99967 0.56354 0.00845 0.0
Mg307 Mg 0.92934 0.52719 -0.0045 0.0
Mg308 Mg 0.03529 0.51319 0.98587 0.0
O309 O 0.07081 0.46258 0.9637 0.0
Mg310 Mg 0.05388 0.39561 0.97626 0.0
Mg311 Mg 0.14098 0.49903 0.97771 0.0
C312 C 0.12555 0.60947 0.02021 0.0
C313 C 0.08352 0.55043 0.90177 0.0
O314 O 0.91117 0.59119 0.04094 0.0
O315 O 0.97525 0.65824 0.04471 0.0
O316 O 0.91427 0.5735 0.93388 0.0
O317 O 0.97817 0.63917 0.93417 0.0
O318 O 0.09637 0.63905 0.0117 0.0
O319 O 0.11015 0.56134 0.01607 0.0
C320 C 0.98615 0.47144 0.06818 0.0
O321 O 1.02358 0.47698 0.04667 0.0
O322 O 0.94696 0.48626 0.05579 0.0
O323 O 0.16013 0.43457 0.93365 0.0
O324 O 0.09595 0.36758 0.92884 0.0
O325 O 0.15493 0.45467 0.0407 0.0
C326 C 0.13824 0.38985 0.91801 0.0
O327 O 0.09097 0.38901 0.03976 0.0
O328 O 0.97388 0.38779 0.96088 0.0
C329 C 0.13261 0.41499 0.05758 0.0
O330 O 0.96027 0.46553 0.95617 0.0
O331 O 0.04671 0.5478 0.92396 0.0
O332 O 0.12281 0.53664 0.9158 0.0
C333 C 0.4124 0.61738 0.03839 0.0
C334 C 0.42029 0.5941 0.8966 0.0
C335 C 0.45468 0.41038 0.95453 0.0
Mg336 Mg 0.49694 0.62638 0.97826 0.0
O337 O 0.48525 0.56144 -0.00423 0.0
Mg338 Mg 0.41936 0.51539 0.98109 0.0
Mg339 Mg 0.53062 0.51729 0.98695 0.0
O340 O 0.57595 0.47318 0.97803 0.0
Mg341 Mg 0.56436 0.40855 -0.00392 0.0
Mg342 Mg 0.64197 0.51914 -0.00805 0.0
C343 C 0.60693 0.62414 0.01914 0.0
C344 C 0.58653 0.553 0.90422 0.0
O345 O 0.38947 0.57504 0.01871 0.0
O346 O 0.45114 0.64454 0.02516 0.0
O347 O 0.40257 0.55374 0.91494 0.0
O348 O 0.45962 0.62522 0.91346 0.0
O349 O 0.5761 0.64816 0.00182 0.0
O350 O 0.59672 0.57607 0.01903 0.0
C351 C 0.47395 0.4813 0.06925 0.0
O352 O 0.51551 0.4892 0.05344 0.0
O353 O 0.43446 0.48609 0.04716 0.0
O354 O 0.67136 0.45924 0.95431 0.0
O355 O 0.60965 0.38984 0.9489 0.0
O356 O 0.65925 0.48159 0.05837 0.0
C357 C 0.64847 0.41651 0.93536 0.0
O358 O 0.60208 0.41045 0.06087 0.0
O359 O 0.48512 0.38666 0.97297 0.0
C360 C 0.64155 0.44167 0.0773 0.0
O361 O 0.46482 0.45845 0.95441 0.0
O362 O 0.54546 0.54545 0.92078 0.0
O363 O 0.62636 0.5479 0.9255 0.0
C364 C 0.92179 0.63328 0.55099 0.0
C365 C 0.96046 0.60901 0.41827 0.0
C366 C 0.94279 0.42304 0.44276 0.0
Mg367 Mg 1.01815 0.63023 0.50695 0.0
O368 O 0.99709 0.56174 0.51734 0.0
Mg369 Mg 0.92769 0.52669 0.49198 0.0
Mg370 Mg 0.03323 0.51492 0.49003 0.0
O371 O 0.0691 0.46807 0.46253 0.0
Mg372 Mg 0.04733 0.39927 0.47185 0.0
Mg373 Mg 0.13836 0.50284 0.48826 0.0
C374 C 0.12323 0.60759 0.53612 0.0
C375 C 0.11146 0.57476 0.41416 0.0
O376 O 0.9022 0.58865 0.53378 0.0
O377 O 0.96609 0.65602 0.54545 0.0
O378 O 0.93449 0.57284 0.4357 0.0
O379 O 0.99812 0.63868 0.43902 0.0
O380 O 0.09637 0.63964 0.52991 0.0
O381 O 0.10549 0.56008 0.52801 0.0
C382 C 0.95503 0.45441 0.56579 0.0
O383 O 0.99889 0.46017 0.55137 0.0
O384 O 0.92403 0.47738 0.54831 0.0
O385 O 0.16396 0.44076 0.44649 0.0
O386 O 0.09993 0.37365 0.43369 0.0
O387 O 0.13035 0.45629 0.54427 0.0
C388 C 0.14448 0.39631 0.42882 0.0
O389 O 0.06666 0.39035 0.53989 0.0
O390 O 0.9691 0.39033 0.4481 0.0
C391 C 0.10399 0.41996 0.56124 0.0
O392 O 0.9611 0.47015 0.45227 0.0
O393 O 0.06757 0.56923 0.42849 0.0
O394 O 0.14247 0.55203 0.43196 0.0
C395 C 0.43516 0.14156 0.55151 0.0
C396 C 0.4367 0.11278 0.41313 0.0
C397 C 0.44444 0.91769 0.4552 0.0
Mg398 Mg 0.51815 0.13336 0.49246 0.0
O399 O 0.5008 0.06668 0.50551 0.0
Mg400 Mg 0.43037 0.03052 0.49439 0.0
Mg401 Mg 0.53574 1.01424 0.4862 0.0
O402 O 0.57065 0.962 0.46667 0.0
Mg403 Mg 0.55338 0.89515 0.47911 0.0
Mg404 Mg 0.64103 0.9984 0.47766 0.0
C405 C 0.62691 0.11095 0.51746 0.0
C406 C 0.58243 0.04562 0.39955 0.0
O407 O 0.4127 0.09674 0.5367 0.0
O408 O 0.47746 0.163 0.54019 0.0
O409 O 0.4152 0.07317 0.43064 0.0
O410 O 0.47897 0.13892 0.42964 0.0
O411 O 0.59813 0.14071 0.50807 0.0
O412 O 0.61109 0.06289 0.5141 0.0
C413 C 0.48868 0.98322 0.57258 0.0
O414 O 0.52543 0.9846 0.55055 0.0
O415 O 0.44925 0.996 0.55755 0.0
O416 O 0.65891 0.9326 0.43502 0.0
O417 O 0.59423 0.86623 0.43109 0.0
O418 O 0.65593 0.95565 0.54159 0.0
C419 C 0.63649 0.88793 0.41983 0.0
O420 O 0.59218 0.88977 0.54213 0.0
O421 O 0.47334 0.88784 0.46386 0.0
C422 C 0.63417 0.9161 0.55908 0.0
O423 O 0.4604 0.96572 0.4585 0.0
O424 O 0.54591 0.04358 0.42195 0.0
O425 O 0.62227 0.03339 0.41432 0.0
C426 C 0.12083 0.0567 0.2906 0.0
C427 C 0.10266 0.09719 0.27594 0.0
H428 H 0.1299 1.01206 0.34435 0.0
C429 C 0.07114 0.11781 0.30095 0.0
H430 H 0.14605 0.04126 0.27203 0.0
C431 C 0.06168 0.10118 0.34218 0.0
C432 C 0.08496 0.06487 0.35892 0.0
H433 H 0.05784 0.14987 0.29028 0.0
H434 H 0.03985 0.11957 0.36231 0.0
C435 C 0.11255 0.04099 0.33216 0.0
C436 C 0.88463 0.17028 0.30724 0.0
C437 C 0.83336 0.16625 0.3084 0.0
H438 H 0.95048 0.15003 0.33426 0.0
C439 C 0.80835 0.1316 0.33569 0.0
H440 H 0.9055 0.19609 0.28657 0.0
C441 C 0.83456 0.10401 0.36273 0.0
C442 C 0.88642 0.11088 0.36347 0.0
H443 H 0.76897 0.12723 0.33745 0.0
H444 H 0.81472 0.07992 0.3852 0.0
C445 C 0.91067 0.14345 0.33447 0.0
C446 C 0.87479 0.87836 0.34885 0.0
C447 C 0.87194 0.82666 0.34226 0.0
H448 H 0.89989 0.94486 0.39125 0.0
C449 C 0.88769 0.8011 0.37705 0.0
H450 H 0.86101 0.89885 0.3232 0.0
C451 C 0.90967 0.82754 0.41661 0.0
C452 C 0.91597 0.88002 0.422 0.0
H453 H 0.88475 0.76115 0.37312 0.0
H454 H 0.92438 0.80726 0.44193 0.0
C455 C 0.89607 0.90465 0.38838 0.0
C456 C 0.19527 0.93193 0.32449 0.0
C457 C 0.15783 0.89743 0.2981 0.0
H458 H 0.22286 0.96389 0.38951 0.0
C459 C 0.11764 0.87009 0.31722 0.0
H460 H 0.22751 0.95213 0.31046 0.0
C461 C 0.11626 0.87441 0.36226 0.0
C462 C 0.15449 0.90752 0.38929 0.0
H463 H 0.0893 0.8423 0.29742 0.0
H464 H 0.08472 0.85192 0.37566 0.0
C465 C 0.19354 0.93711 0.3698 0.0
C466 C 0.1745 0.86933 0.67257 0.0
C467 C 0.22578 0.87346 0.67115 0.0
H468 H 0.10809 0.88811 0.64494 0.0
C469 C 0.25018 0.90704 0.64272 0.0
H470 H 0.15409 0.84442 0.69415 0.0
C471 C 0.22343 0.93339 0.6149 0.0
C472 C 0.17156 0.92625 0.61439 0.0
H473 H 0.28951 0.91143 0.64067 0.0
H474 H 0.24288 0.95669 0.59171 0.0
C475 C 0.14787 0.8948 0.64445 0.0
C476 C 0.17601 0.23148 0.59787 0.0
C477 C 0.19605 0.20519 0.62988 0.0
H478 H 0.1325 0.22681 0.53629 0.0
C479 C 0.19365 0.15387 0.62114 0.0
H480 H 0.17821 0.27108 0.60363 0.0
C481 C 0.16855 0.12852 0.58245 0.0
C482 C 0.1445 0.15378 0.55197 0.0
H483 H 0.21055 0.13295 0.6446 0.0
H484 H 0.16522 0.08845 0.578 0.0
C485 C 0.15037 0.20604 0.55916 0.0
C486 C 0.94594 0.14814 0.66313 0.0
C487 C 0.90323 0.12498 0.68121 0.0
H488 H 0.98043 0.16596 0.60538 0.0
C489 C 0.8628 0.09619 0.65363 0.0
H490 H 0.97678 0.17153 0.68392 0.0
C491 C 0.86391 0.09377 0.60818 0.0
C492 C 0.9054 0.12046 0.58989 0.0
H493 H 0.82884 0.07937 0.66706 0.0
H494 H 0.83204 0.07212 0.58743 0.0
C495 C 0.9469 0.1465 0.61802 0.0
C496 C 0.99255 0.91895 0.67564 0.0
C497 C 0.95948 0.93692 0.70071 0.0
H498 H 1.02341 0.91909 0.61402 0.0
C499 C 0.93732 0.9747 0.68553 0.0
H500 H 1.00891 0.88889 0.68667 0.0
C501 C 0.94365 0.99019 0.64359 0.0
C502 C 0.97321 0.9689 0.61692 0.0
H503 H 0.91084 0.98799 0.70414 0.0
H504 H 0.92356 0.01698 0.6312 0.0
C505 C 1.00001 0.93544 0.63402 0.0
C506 C 0.38692 0.2308 0.12751 0.0
C507 C 0.34099 0.20517 0.13938 0.0
H508 H 0.44766 0.22877 0.09004 0.0
C509 C 0.3198 0.15694 0.11945 0.0
H510 H 0.40426 0.26807 0.14205 0.0
C511 C 0.34483 0.1342 0.08949 0.0
C512 C 0.39161 0.1592 0.07877 0.0
H513 H 0.28443 0.13617 0.12781 0.0
H514 H 0.32799 0.09655 0.0756 0.0
C515 C 0.41188 0.20814 0.09761 0.0
C516 C 0.96946 0.42911 0.18002 0.0
C517 C 0.9764 0.38026 0.1737 0.0
H518 H 0.96529 0.49668 0.1496 0.0
C519 C 0.99379 0.36466 0.13536 0.0
H520 H 0.95484 0.44066 0.20946 0.0
C521 C 0.99927 0.396 0.10144 0.0
C522 C 0.98716 0.44277 0.10601 0.0
H523 H 0.99781 0.32649 0.13006 0.0
H524 H 1.00851 0.38199 0.0704 0.0
C525 C 0.97414 0.46028 0.14581 0.0
C526 C 0.70638 0.87786 0.11034 0.0
C527 C 0.72586 0.91824 0.14151 0.0
H528 H 0.64597 0.84195 0.06381 0.0
C529 C 0.69556 0.94931 0.15508 0.0
H530 H 0.72866 0.85183 0.10154 0.0
C531 C 0.64803 0.94344 0.13391 0.0
C532 C 0.63059 0.90593 0.09959 0.0
H533 H 0.70925 0.97867 0.18106 0.0
H534 H 0.62722 0.97149 0.14079 0.0
C535 C 0.65841 0.87069 0.09057 0.0
C536 C 0.2175 0.63235 0.12003 0.0
C537 C 0.22701 0.68491 0.12492 0.0
H538 H 0.17783 0.56589 0.08132 0.0
C539 C 0.21428 0.71113 0.08942 0.0
H540 H 0.22793 0.61142 0.14682 0.0
C541 C 0.18771 0.68534 0.05138 0.0
C542 C 0.17148 0.63281 0.0488 0.0
H543 H 0.22263 0.75172 0.09197 0.0
H544 H 0.17533 0.70691 0.0259 0.0
C545 C 0.18947 0.60632 0.08223 0.0
C546 C 0.3297 0.83265 0.88763 0.0
C547 C 0.3207 0.85707 0.84982 0.0
H548 H 0.37631 0.83511 0.94751 0.0
C549 C 0.34465 0.90762 0.84816 0.0
H550 H 0.3125 0.7934 0.88926 0.0
C551 C 0.38044 0.93193 0.88192 0.0
C552 C 0.39401 0.90541 0.91708 0.0
H553 H 0.33889 0.92694 0.81895 0.0
H554 H 0.40127 0.96946 0.87792 0.0
C555 C 0.36649 0.85646 0.9208 0.0
C556 C 0.16809 0.2884 0.84226 0.0
C557 C 0.20193 0.31693 0.81693 0.0
H558 H 0.12107 0.28908 0.89398 0.0
C559 C 0.21498 0.36934 0.82562 0.0
H560 H 0.15766 0.24798 0.83661 0.0
C561 C 0.19516 0.39267 0.859 0.0
C562 C 0.16102 0.36437 0.88415 0.0
H563 H 0.24147 0.39251 0.80717 0.0
H564 H 0.20613 0.43307 0.86466 0.0
C565 C 0.14738 0.31196 0.8752 0.0
C566 C 0.64525 0.18323 0.83411 0.0
C567 C 0.68508 0.16957 0.8139 0.0
H568 H 0.59008 0.16595 0.88068 0.0
C569 C 0.69499 0.12319 0.8244 0.0
H570 H 0.6359 0.21854 0.8275 0.0
C571 C 0.66834 0.09293 0.85413 0.0
C572 C 0.63004 0.10686 0.87613 0.0
H573 H 0.72447 0.11017 0.81001 0.0
H574 H 0.67922 0.05835 0.86089 0.0
C575 C 0.6184 0.15264 0.86471 0.0
C576 C 0.90637 0.70619 0.83609 0.0
C577 C 0.85574 0.68731 0.8225 0.0
H578 H 0.97119 0.69755 0.87483 0.0
C579 C 0.83251 0.64107 0.83742 0.0
H580 H 0.92594 0.74122 0.825 0.0
C581 C 0.85877 0.61566 0.86649 0.0
C582 C 0.90912 0.63559 0.88118 0.0
H583 H 0.79369 0.62506 0.82748 0.0
H584 H 0.83917 0.58119 0.87846 0.0
C585 C 0.93257 0.68076 0.86467 0.0
C586 C 0.15931 0.32444 0.14163 0.0
C587 C 0.20942 0.34404 0.1567 0.0
H588 H 0.09582 0.33172 0.10022 0.0
C589 C 0.233 0.39021 0.14188 0.0
H590 H 0.13956 0.28939 0.15255 0.0
C591 C 0.2077 0.41479 0.11136 0.0
C592 C 0.15798 0.39407 0.09508 0.0
H593 H 0.27149 0.40667 0.15287 0.0
H594 H 0.22763 0.44917 0.09947 0.0
C595 C 0.13401 0.34908 0.11159 0.0
C596 C 0.11888 0.59375 0.79401 0.0
C597 C 0.09266 0.63171 0.79036 0.0
H598 H 0.13792 0.53868 0.83442 0.0
C599 C 0.05404 0.63314 0.81593 0.0
H600 H 0.14841 0.59222 0.77358 0.0
C601 C 0.0478 0.60256 0.85045 0.0
C602 C 0.08075 0.57144 0.85943 0.0
H603 H 0.03348 0.6622 0.81295 0.0
H604 H 1.02078 0.60716 0.87251 0.0
C605 C 0.11361 0.56411 0.82911 0.0
C606 C 0.37567 0.07975 0.82027 0.0
C607 C 0.34514 0.11171 0.83116 0.0
H608 H 0.44245 0.05651 0.83925 0.0
C609 C 0.36297 0.15213 0.86262 0.0
H610 H 0.36327 0.0502 0.79426 0.0
C611 C 0.40954 0.15871 0.88513 0.0
C612 C 0.43741 0.12297 0.87838 0.0
H613 H 0.34047 0.1786 0.86948 0.0
H614 H 0.4206 0.18764 0.91187 0.0
C615 C 0.42165 0.08503 0.8442 0.0
C616 C 0.85229 0.31567 0.88731 0.0
C617 C 0.83834 0.34155 0.85202 0.0
H618 H 0.89424 0.32045 0.94949 0.0
C619 C 0.84839 0.39413 0.85631 0.0
H620 H 0.84363 0.27508 0.88517 0.0
C621 C 0.87823 0.42043 0.89306 0.0
C622 C 0.89759 0.39415 0.92591 0.0
H623 H 0.83713 0.41478 0.82963 0.0
H624 H 0.89022 0.46079 0.89336 0.0
C625 C 0.88083 0.34177 0.92431 0.0
C626 C 0.67827 0.80281 0.84913 0.0
C627 C 0.72444 0.82849 0.83776 0.0
H628 H 0.61743 0.8042 0.8866 0.0
C629 C 0.74578 0.87632 0.85844 0.0
H630 H 0.66079 0.76582 0.83404 0.0
C631 C 0.72074 0.89854 0.88877 0.0
C632 C 0.67381 0.8734 0.89913 0.0
H633 H 0.78134 0.8971 0.85048 0.0
H634 H 0.73772 0.93587 0.90334 0.0
C635 C 0.65333 0.82492 0.87938 0.0
C636 C 0.90359 0.73921 0.12978 0.0
C637 C 0.87028 0.71144 0.15595 0.0
H638 H 0.94999 0.73709 0.07781 0.0
C639 C 0.85779 0.65884 0.14881 0.0
H640 H 0.91359 0.77973 0.13424 0.0
C641 C 0.87752 0.63457 0.11596 0.0
C642 C 0.91099 0.66216 0.08988 0.0
H643 H 0.83174 0.63621 0.16799 0.0
H644 H 0.86692 0.59407 0.11135 0.0
C645 C 0.9242 0.71475 0.09738 0.0
C646 C 0.41969 0.84549 0.14393 0.0
C647 C 0.37927 0.85818 0.16388 0.0
H648 H 0.47559 0.8644 0.09822 0.0
C649 C 0.36893 0.90453 0.15378 0.0
H650 H 0.42943 0.81029 0.15026 0.0
C651 C 0.39576 0.93566 0.1247 0.0
C652 C 0.43473 0.92274 0.10299 0.0
H653 H 0.33901 0.91687 0.16801 0.0
H654 H 0.38453 0.97014 0.11824 0.0
C655 C 0.44674 0.87698 0.11399 0.0
C656 C 0.73421 0.20116 0.09142 0.0
C657 C 0.74161 0.17927 0.13094 0.0
H658 H 0.68995 0.19487 0.02971 0.0
C659 C 0.71765 0.12904 0.13437 0.0
H660 H 0.7515 0.24009 0.08832 0.0
C661 C 0.68327 0.10267 0.10044 0.0
C662 C 0.67112 0.12681 0.06323 0.0
H663 H 0.72227 0.11165 0.16486 0.0
H664 H 0.6622 0.06562 0.10566 0.0
C665 C 0.69881 0.1753 0.05798 0.0
C666 C 0.62448 0.55776 0.79031 0.0
C667 C 0.60512 0.59754 0.77563 0.0
H668 H 0.63462 0.51336 0.844 0.0
C669 C 0.57269 0.61693 0.80043 0.0
H670 H 0.65041 0.5433 0.77187 0.0
C671 C 0.56348 0.59993 0.84157 0.0
C672 C 0.58789 0.56447 0.8584 0.0
H673 H 0.55848 0.64847 0.78975 0.0
H674 H 0.5409 0.61745 0.86158 0.0
C675 C 0.61642 0.54168 0.83179 0.0
C676 C 0.31243 0.63207 0.83217 0.0
C677 C 0.33724 0.6656 0.80391 0.0
H678 H 0.31894 0.58167 0.88269 0.0
C679 C 0.38832 0.66878 0.80219 0.0
H680 H 0.2732 0.62834 0.83441 0.0
C681 C 0.41447 0.64252 0.82998 0.0
C682 C 0.3904 0.61111 0.85987 0.0
H683 H 0.40897 0.69347 0.78061 0.0
H684 H 0.45419 0.64852 0.82936 0.0
C685 C 0.33865 0.60489 0.85958 0.0
C686 C 0.37798 0.38136 0.84623 0.0
C687 C 0.37518 0.32978 0.83889 0.0
H688 H 0.4024 0.44698 0.88978 0.0
C689 C 0.39054 0.30346 0.87331 0.0
H690 H 0.36448 0.4024 0.82086 0.0
C691 C 0.41189 0.32903 0.91336 0.0
C692 C 0.41802 0.38141 0.9196 0.0
H693 H 0.38763 0.26355 0.86878 0.0
H694 H 0.42622 0.30818 0.93842 0.0
C695 C 0.39866 0.4068 0.88624 0.0
C696 C 0.61803 0.37058 0.81659 0.0
C697 C 0.65857 0.39755 0.79766 0.0
H698 H 0.58485 0.35223 0.87489 0.0
C699 C 0.69652 0.43112 0.82436 0.0
H700 H 0.58926 0.34348 0.79657 0.0
C701 C 0.69486 0.43579 0.8697 0.0
C702 C 0.65538 0.40659 0.88895 0.0
H703 H 0.72902 0.45101 0.81048 0.0
H704 H 0.72456 0.46189 0.88962 0.0
C705 C 0.61671 0.37438 0.86167 0.0
C706 C 0.74962 0.40609 0.14366 0.0
C707 C 0.72484 0.37305 0.17228 0.0
H708 H 0.743 0.45521 0.09209 0.0
C709 C 0.67356 0.36924 0.17332 0.0
H710 H 0.78897 0.41022 0.14188 0.0
C711 C 0.6473 0.39451 0.14469 0.0
C712 C 0.67139 0.42547 0.11452 0.0
H713 H 0.65286 0.34474 0.19502 0.0
H714 H 0.60751 0.38809 0.14493 0.0
C715 C 0.72325 0.43228 0.11536 0.0
C716 C 0.67583 0.72951 0.09983 0.0
C717 C 0.69492 0.70252 0.13185 0.0
H718 H 0.63425 0.7261 0.03744 0.0
C719 C 0.69282 0.65139 0.12251 0.0
H720 H 0.67792 0.76907 0.10606 0.0
C721 C 0.66901 0.62686 0.08306 0.0
C722 C 0.64589 0.65274 0.05242 0.0
H723 H 0.70908 0.63002 0.14599 0.0
H724 H 0.66594 0.58688 0.07804 0.0
C725 C 0.65143 0.70486 0.06038 0.0
C726 C 0.36485 0.59975 0.1493 0.0
C727 C 0.40439 0.63029 0.17671 0.0
H728 H 0.33502 0.57341 0.08335 0.0
C729 C 0.44571 0.65632 0.15827 0.0
H730 H 0.33177 0.58076 0.16288 0.0
C731 C 0.44649 0.65459 0.11313 0.0
C732 C 0.40635 0.62547 0.08522 0.0
H733 H 0.47572 0.68119 0.17889 0.0
H734 H 0.47911 0.67585 0.10033 0.0
C735 C 0.36589 0.59716 0.10384 0.0
C736 C 0.49023 0.42527 0.17751 0.0
C737 C 0.45281 0.44051 0.19878 0.0
H738 H 0.5264 0.42626 0.11842 0.0
C739 C 0.42903 0.47557 0.18044 0.0
H740 H 0.50823 0.39748 0.19105 0.0
C741 C 0.43796 0.49051 0.13892 0.0
C742 C 0.4714 0.47113 0.11541 0.0
H743 H 0.39979 0.48722 0.19642 0.0
H744 H 0.41671 0.51512 0.12423 0.0
C745 C 0.49983 0.44089 0.13586 0.0
C746 C 0.89003 0.72939 0.63039 0.0
C747 C 0.84377 0.70414 0.64187 0.0
H748 H 0.95054 0.72726 0.5927 0.0
C749 C 0.82188 0.65644 0.62122 0.0
H750 H 0.9079 0.76628 0.64547 0.0
C751 C 0.84648 0.63385 0.5908 0.0
C752 C 0.89349 0.65852 0.58033 0.0
H753 H 0.78622 0.63601 0.62927 0.0
H754 H 0.82909 0.5966 0.57628 0.0
C755 C 0.91453 0.70692 0.60002 0.0
C756 C 0.45261 0.94785 0.68202 0.0
C757 C 0.47542 0.9075 0.68664 0.0
H758 H 0.4379 1.00336 0.64006 0.0
C759 C 0.51319 0.90202 0.66114 0.0
H760 H 0.42382 0.95255 0.70236 0.0
C761 C 0.5213 0.93084 0.6256 0.0
C762 C 0.49123 0.96451 0.61586 0.0
H763 H 0.53112 0.87104 0.66484 0.0
H764 H 0.5469 0.92274 0.6033 0.0
C765 C 0.4599 0.97597 0.64612 0.0
C766 C 0.2051 0.37928 0.61064 0.0
C767 C 0.22464 0.42057 0.64089 0.0
H768 H 0.14421 0.34148 0.56543 0.0
C769 C 0.19395 0.45118 0.65455 0.0
H770 H 0.22774 0.35362 0.60184 0.0
C771 C 0.14594 0.44405 0.63407 0.0
C772 C 0.12856 0.4059 0.60025 0.0
H773 H 0.20772 0.48123 0.67993 0.0
H774 H 0.12476 0.47184 0.64073 0.0
C775 C 0.15668 0.37084 0.59169 0.0
C776 C 0.71457 0.21198 0.58838 0.0
C777 C 0.72699 0.18523 0.62361 0.0
H778 H 0.67635 0.2087 0.52465 0.0
C779 C 0.71776 0.13273 0.61805 0.0
H780 H 0.72276 0.25257 0.59144 0.0
C781 C 0.69025 0.10722 0.57982 0.0
C782 C 0.67247 0.13418 0.54663 0.0
H783 H 0.728 0.11139 0.64461 0.0
H784 H 0.67884 0.06675 0.57836 0.0
C785 C 0.6885 0.18673 0.54992 0.0
C786 C 0.82767 0.33346 0.38976 0.0
C787 C 0.81771 0.35827 0.35242 0.0
H788 H 0.87597 0.33509 0.44845 0.0
C789 C 0.84175 0.4088 0.35076 0.0
H790 H 0.81044 0.29421 0.39134 0.0
C791 C 0.87862 0.43261 0.38386 0.0
C792 C 0.89311 0.40561 0.41831 0.0
H793 H 0.83529 0.4284 0.32187 0.0
H794 H 0.89944 0.47011 0.37976 0.0
C795 C 0.8655 0.35677 0.42224 0.0
C796 C 0.7121 0.86668 0.32695 0.0
C797 C 0.6989 0.81428 0.31849 0.0
H798 H 0.70373 0.93061 0.3659 0.0
C799 C 0.66507 0.78594 0.34395 0.0
H800 H 0.73855 0.8897 0.30837 0.0
C801 C 0.64465 0.80971 0.37696 0.0
C802 C 0.65861 0.8621 0.38578 0.0
H803 H 0.65452 0.74551 0.33845 0.0
H804 H 0.61842 0.78702 0.39593 0.0
C805 C 0.69257 0.8902 0.36037 0.0
C806 C 0.19648 0.62314 0.32508 0.0
C807 C 0.18656 0.66955 0.31471 0.0
H808 H 0.18048 0.55801 0.36118 0.0
C809 C 0.14652 0.68297 0.33474 0.0
H810 H 0.2261 0.61028 0.31081 0.0
C811 C 0.11944 0.65213 0.36505 0.0
C812 C 0.13106 0.6063 0.37635 0.0
H813 H 0.13713 0.71828 0.32819 0.0
H814 H 0.09093 0.66526 0.38088 0.0
C815 C 0.1696 0.59261 0.35452 0.0
C816 C 0.4062 0.20345 0.33079 0.0
C817 C 0.35517 0.1851 0.31874 0.0
H818 H 0.47178 0.19467 0.36822 0.0
C819 C 0.33205 0.13942 0.33464 0.0
H820 H 0.42566 0.23802 0.31887 0.0
C821 C 0.35883 0.11417 0.36339 0.0
C822 C 0.40955 0.13376 0.37677 0.0
H823 H 0.29292 0.12384 0.32587 0.0
H824 H 0.33931 0.08029 0.37633 0.0
C825 C 0.43289 0.17819 0.35907 0.0
C826 C 0.66266 0.82662 0.64338 0.0
C827 C 0.7134 0.84526 0.65656 0.0
H828 H 0.598 0.83472 0.60413 0.0
C829 C 0.73701 0.89069 0.64052 0.0
H830 H 0.64282 0.79223 0.65535 0.0
C831 C 0.71101 0.9154 0.61061 0.0
C832 C 0.66058 0.89554 0.5962 0.0
H833 H 0.77595 0.90647 0.65012 0.0
H834 H 0.7309 0.94912 0.59767 0.0
C835 C 0.63672 0.85137 0.61398 0.0
C836 C 0.55033 0.1263 0.31316 0.0
C837 C 0.59137 0.1291 0.28979 0.0
H838 H 0.51467 0.09547 0.36705 0.0
C839 C 0.62015 0.09328 0.29386 0.0
H840 H 0.52759 0.15344 0.30966 0.0
C841 C 0.61478 0.06219 0.328 0.0
C842 C 0.57928 0.06583 0.35677 0.0
H843 H 0.65145 0.09477 0.27494 0.0
H844 H 0.6411 0.03898 0.33414 0.0
C845 C 0.54391 0.09405 0.34651 0.0
C846 C 0.87248 0.57768 0.32266 0.0
C847 C 0.84168 0.60898 0.33453 0.0
H848 H 0.94057 0.55598 0.3395 0.0
C849 C 0.86009 0.64987 0.36544 0.0
H850 H 0.85963 0.54785 0.29695 0.0
C851 C 0.9075 0.65746 0.38653 0.0
C852 C 0.93578 0.62227 0.37899 0.0
H853 H 0.83744 0.67599 0.37293 0.0
H854 H 0.91908 0.68668 0.41299 0.0
C855 C 0.91941 0.58404 0.34513 0.0
C856 C 0.34988 0.89465 0.35736 0.0
C857 C 0.33976 0.84207 0.35292 0.0
H858 H 0.39111 0.9612 0.39498 0.0
C859 C 0.35311 0.81607 0.38835 0.0
H860 H 0.33909 0.91541 0.33058 0.0
C861 C 0.38095 0.84204 0.42577 0.0
C862 C 0.39771 0.89447 0.42771 0.0
H863 H 0.34439 0.77547 0.38611 0.0
H864 H 0.39381 0.8206 0.45112 0.0
C865 C 0.37907 0.92083 0.39452 0.0
C866 C 0.17732 0.30066 0.34954 0.0
C867 C 0.22376 0.32601 0.33845 0.0
H868 H 0.11632 0.30248 0.3867 0.0
C869 C 0.24546 0.37358 0.35948 0.0
H870 H 0.15955 0.26388 0.33418 0.0
C871 C 0.22047 0.39595 0.38977 0.0
C872 C 0.17324 0.37121 0.39975 0.0
H873 H 0.2812 0.39412 0.35173 0.0
H874 H 0.23772 0.43313 0.40454 0.0
C875 C 0.15245 0.3229 0.37977 0.0
C876 C 0.4055 0.2447 0.6254 0.0
C877 C 0.3724 0.21667 0.65165 0.0
H878 H 0.45178 0.24289 0.57318 0.0
C879 C 0.36009 0.16411 0.64434 0.0
H880 H 0.41538 0.28521 0.63002 0.0
C881 C 0.37973 0.14013 0.61132 0.0
C882 C 0.41299 0.1679 0.58515 0.0
H883 H 0.33426 0.14127 0.66357 0.0
H884 H 0.36926 0.09962 0.6067 0.0
C885 C 0.4261 0.22046 0.59279 0.0
C886 C 0.86969 0.40406 0.65412 0.0
C887 C 0.87943 0.35732 0.6637 0.0
H888 H 0.88595 0.47007 0.61915 0.0
C889 C 0.91952 0.34433 0.64343 0.0
H890 H 0.84005 0.41665 0.66862 0.0
C891 C 0.94678 0.3759 0.61364 0.0
C892 C 0.93533 0.42207 0.60315 0.0
H893 H 0.9288 0.30883 0.64935 0.0
H894 H 0.97529 0.36307 0.59757 0.0
C895 C 0.89675 0.43528 0.62522 0.0
C896 C 0.23558 0.7017 0.5878 0.0
C897 C 0.24443 0.68006 0.62717 0.0
H898 H 0.18958 0.69475 0.52698 0.0
C899 C 0.22126 0.62967 0.631 0.0
H900 H 0.25222 0.74073 0.58441 0.0
C901 C 0.18612 0.60291 0.59779 0.0
C902 C 0.1725 0.62679 0.5609 0.0
H903 H 0.22699 0.61245 0.6614 0.0
H904 H 0.16566 0.56575 0.60344 0.0
C905 C 0.19951 0.6754 0.55506 0.0
loop_
_geom_bond_atom_site_label_1
_geom_bond_atom_site_label_2
_geom_bond_distance
_geom_bond_site_symmetry_2
_ccdc_geom_bond_type
Co0 N5 2.057 . S
Co0 O17 2.021 . S
Co0 O20 2.062 . S
Co0 O24 2.117 . S
Co0 O25 2.020 . S
C1 O21 1.259 . S
C1 O24 1.258 . S
Co2 N11 2.057 . S
Co2 O18 2.117 . S
Co2 O19 2.020 . S
Co2 O21 2.021 . S
Co2 O26 2.062 . S
C3 N5 1.316 . S
C3 N6 1.347 . S
C3 H8 0.931 . S
C4 N5 1.375 . S
C4 C7 1.350 . S
C4 H9 0.930 . S
N5 Co0 2.057 . S
N5 C3 1.316 . S
N5 C4 1.375 . S
N6 C3 1.347 . S
N6 C7 1.373 . S
C7 C4 1.350 . S
C7 N6 1.373 . S
C7 H28 0.931 . S
H8 C3 0.931 . S
H9 C4 0.930 . S
C10 O17 1.259 . S
C10 O18 1.258 . S
N11 Co2 2.057 . S
N11 C12 1.316 . S
N11 C13 1.375 . S
C12 N11 1.316 . S
C12 N14 1.347 . S
C12 H23 0.931 . S
C13 N11 1.375 . S
C13 C15 1.350 . S
C13 H22 0.930 . S
N14 C12 1.347 . S
N14 C15 1.373 . S
C15 C13 1.350 . S
C15 N14 1.373 . S
C15 H29 0.931 . S
C16 O19 1.256 . S
C16 O20 1.255 . S
O17 Co0 2.021 . S
O17 C10 1.259 . S
O18 Co2 2.117 . S
O18 C10 1.258 . S
O19 Co2 2.020 . S
O19 C16 1.256 . S
O20 Co0 2.062 . S
O20 C16 1.255 . S
O21 C1 1.259 . S
O21 Co2 2.021 . S
H22 C13 0.930 . S
H23 C12 0.931 . S
O24 Co0 2.117 . S
O24 C1 1.258 . S
O25 Co0 2.020 . S
O25 C27 1.256 . S
O26 Co2 2.062 . S
O26 C27 1.255 . S
C27 O25 1.256 . S
C27 O26 1.255 . S
H28 C7 0.931 . S
H29 C15 0.931 . S
Co30 N35 2.057 . S
Co30 O47 2.021 . S
Co30 O50 2.062 . S
Co30 O54 2.117 . S
Co30 O55 2.020 . S
C31 O51 1.259 . S
C31 O54 1.258 . S
Co32 N41 2.057 . S
Co32 O48 2.117 . S
Co32 O49 2.020 . S
Co32 O51 2.021 . S
Co32 O56 2.062 . S
C33 N35 1.316 . S
C33 N36 1.347 . S
C33 H38 0.931 . S
C34 N35 1.375 . S
C34 C37 1.350 . S
C34 H39 0.930 . S
N35 Co30 2.057 . S
N35 C33 1.316 . S
N35 C34 1.375 . S
N36 C33 1.347 . S
N36 C37 1.373 . S
C37 C34 1.350 . S
C37 N36 1.373 . S
C37 H58 0.931 . S
H38 C33 0.931 . S
H39 C34 0.930 . S
C40 O47 1.259 . S
C40 O48 1.258 . S
N41 Co32 2.057 . S
N41 C42 1.316 . S
N41 C43 1.375 . S
C42 N41 1.316 . S
C42 N44 1.347 . S
C42 H53 0.931 . S
C43 N41 1.375 . S
C43 C45 1.350 . S
C43 H52 0.930 . S
N44 C42 1.347 . S
N44 C45 1.373 . S
C45 C43 1.350 . S
C45 N44 1.373 . S
C45 H59 0.931 . S
C46 O49 1.256 . S
C46 O50 1.255 . S
O47 Co30 2.021 . S
O47 C40 1.259 . S
O48 Co32 2.117 . S
O48 C40 1.258 . S
O49 Co32 2.020 . S
O49 C46 1.256 . S
O50 Co30 2.062 . S
O50 C46 1.255 . S
O51 C31 1.259 . S
O51 Co32 2.021 . S
H52 C43 0.930 . S
H53 C42 0.931 . S
O54 Co30 2.117 . S
O54 C31 1.258 . S
O55 Co30 2.020 . S
O55 C57 1.256 . S
O56 Co32 2.062 . S
O56 C57 1.255 . S
C57 O55 1.256 . S
C57 O56 1.255 . S
H58 C37 0.931 . S
H59 C45 0.931 . S
Co60 N65 2.057 . S
Co60 O77 2.021 . S
Co60 O80 2.062 . S
Co60 O84 2.117 . S
Co60 O85 2.020 . S
C61 O81 1.259 . S
C61 O84 1.258 . S
Co62 N71 2.057 . S
Co62 O78 2.117 . S
Co62 O79 2.020 . S
Co62 O81 2.021 . S
Co62 O86 2.062 . S
C63 N65 1.316 . S
C63 N66 1.347 . S
C63 H68 0.931 . S
C64 N65 1.375 . S
C64 C67 1.350 . S
C64 H69 0.930 . S
N65 Co60 2.057 . S
N65 C63 1.316 . S
N65 C64 1.375 . S
N66 C63 1.347 . S
N66 C67 1.373 . S
C67 C64 1.350 . S
C67 N66 1.373 . S
C67 H88 0.931 . S
H68 C63 0.931 . S
H69 C64 0.930 . S
C70 O77 1.259 . S
C70 O78 1.258 . S
N71 Co62 2.057 . S
N71 C72 1.316 . S
N71 C73 1.375 . S
C72 N71 1.316 . S
C72 N74 1.347 . S
C72 H83 0.931 . S
C73 N71 1.375 . S
C73 C75 1.350 . S
C73 H82 0.930 . S
N74 C72 1.347 . S
N74 C75 1.373 . S
C75 C73 1.350 . S
C75 N74 1.373 . S
C75 H89 0.931 . S
C76 O79 1.256 . S
C76 O80 1.255 . S
O77 Co60 2.021 . S
O77 C70 1.259 . S
O78 Co62 2.117 . S
O78 C70 1.258 . S
O79 Co62 2.020 . S
O79 C76 1.256 . S
O80 Co60 2.062 . S
O80 C76 1.255 . S
O81 C61 1.259 . S
O81 Co62 2.021 . S
H82 C73 0.930 . S
H83 C72 0.931 . S
O84 Co60 2.117 . S
O84 C61 1.258 . S
O85 Co60 2.020 . S
O85 C87 1.256 . S
O86 Co62 2.062 . S
O86 C87 1.255 . S
C87 O85 1.256 . S
C87 O86 1.255 . S
H88 C67 0.931 . S
H89 C75 0.931 . S
Co90 N95 2.057 . S
Co90 O107 2.021 . S
Co90 O110 2.062 . S
Co90 O114 2.117 . S
Co90 O115 2.020 . S
C91 O111 1.259 . S
C91 O114 1.258 . S
Co92 N101 2.057 . S
Co92 O108 2.117 . S
Co92 O109 2.020 . S
Co92 O111 2.021 . S
Co92 O116 2.062 . S
C93 N95 1.316 . S
C93 N96 1.347 . S
C93 H98 0.931 . S
C94 N95 1.375 . S
C94 C97 1.350 . S
C94 H99 0.930 . S
N95 Co90 2.057 . S
N95 C93 1.316 . S
N95 C94 1.375 . S
N96 C93 1.347 . S
N96 C97 1.373 . S
C97 C94 1.350 . S
C97 N96 1.373 . S
C97 H118 0.931 . S
H98 C93 0.931 . S
H99 C94 0.930 . S
C100 O107 1.259 . S
C100 O108 1.258 . S
N101 Co92 2.057 . S
N101 C102 1.316 . S
N101 C103 1.375 . S
C102 N101 1.316 . S
C102 N104 1.347 . S
C102 H113 0.931 . S
C103 N101 1.375 . S
C103 C105 1.350 . S
C103 H112 0.930 . S
N104 C102 1.347 . S
N104 C105 1.373 . S
C105 C103 1.350 . S
C105 N104 1.373 . S
C105 H119 0.931 . S
C106 O109 1.256 . S
C106 O110 1.255 . S
O107 Co90 2.021 . S
O107 C100 1.259 . S
O108 Co92 2.117 . S
O108 C100 1.258 . S
O109 Co92 2.020 . S
O109 C106 1.256 . S
O110 Co90 2.062 . S
O110 C106 1.255 . S
O111 C91 1.259 . S
O111 Co92 2.021 . S
H112 C103 0.930 . S
H113 C102 0.931 . S
O114 Co90 2.117 . S
O114 C91 1.258 . S
O115 Co90 2.020 . S
O115 C117 1.256 . S
O116 Co92 2.062 . S
O116 C117 1.255 . S
C117 O115 1.256 . S
C117 O116 1.255 . S
H118 C97 0.931 . S
H119 C105 0.931 . S
Co120 N125 2.057 . S
Co120 O137 2.021 . S
Co120 O140 2.062 . S
Co120 O144 2.117 . S
Co120 O145 2.020 . S
C121 O141 1.259 . S
C121 O144 1.258 . S
Co122 N131 2.057 . S
Co122 O138 2.117 . S
Co122 O139 2.020 . S
Co122 O141 2.021 . S
Co122 O146 2.062 . S
C123 N125 1.316 . S
C123 N126 1.347 . S
C123 H128 0.931 . S
C124 N125 1.375 . S
C124 C127 1.350 . S
C124 H129 0.930 . S
N125 Co120 2.057 . S
N125 C123 1.316 . S
N125 C124 1.375 . S
N126 C123 1.347 . S
N126 C127 1.373 . S
C127 C124 1.350 . S
C127 N126 1.373 . S
C127 H148 0.931 . S
H128 C123 0.931 . S
H129 C124 0.930 . S
C130 O137 1.259 . S
C130 O138 1.258 . S
N131 Co122 2.057 . S
N131 C132 1.316 . S
N131 C133 1.375 . S
C132 N131 1.316 . S
C132 N134 1.347 . S
C132 H143 0.931 . S
C133 N131 1.375 . S
C133 C135 1.350 . S
C133 H142 0.930 . S
N134 C132 1.347 . S
N134 C135 1.373 . S
C135 C133 1.350 . S
C135 N134 1.373 . S
C135 H149 0.931 . S
C136 O139 1.256 . S
C136 O140 1.255 . S
O137 Co120 2.021 . S
O137 C130 1.259 . S
O138 Co122 2.117 . S
O138 C130 1.258 . S
O139 Co122 2.020 . S
O139 C136 1.256 . S
O140 Co120 2.062 . S
O140 C136 1.255 . S
O141 C121 1.259 . S
O141 Co122 2.021 . S
H142 C133 0.930 . S
H143 C132 0.931 . S
O144 Co120 2.117 . S
O144 C121 1.258 . S
O145 Co120 2.020 . S
O145 C147 1.256 . S
O146 Co122 2.062 . S
O146 C147 1.255 . S
C147 O145 1.256 . S
C147 O146 1.255 . S
H148 C127 0.931 . S
H149 C135 0.931 . S
Co150 N155 2.057 . S
Co150 O167 2.021 . S
Co150 O170 2.062 . S
Co150 O174 2.117 . S
Co150 O175 2.020 . S
C151 O171 1.259 . S
C151 O174 1.258 . S
Co152 N161 2.057 . S
Co152 O168 2.117 . S
Co152 O169 2.020 . S
Co152 O171 2.021 . S
Co152 O176 2.062 . S
C153 N155 1.316 . S
C153 N156 1.347 . S
C153 H158 0.931 . S
C154 N155 1.375 . S
C154 C157 1.350 . S
C154 H159 0.930 . S
N155 Co150 2.057 . S
N155 C153 1.316 . S
N155 C154 1.375 . S
N156 C153 1.347 . S
N156 C157 1.373 . S
C157 C154 1.350 . S
C157 N156 1.373 . S
C157 H178 0.931 . S
H158 C153 0.931 . S
H159 C154 0.930 . S
C160 O167 1.259 . S
C160 O168 1.258 . S
N161 Co152 2.057 . S
N161 C162 1.316 . S
N161 C163 1.375 . S
C162 N161 1.316 . S
C162 N164 1.347 . S
C162 H173 0.931 . S
C163 N161 1.375 . S
C163 C165 1.350 . S
C163 H172 0.930 . S
N164 C162 1.347 . S
N164 C165 1.373 . S
C165 C163 1.350 . S
C165 N164 1.373 . S
C165 H179 0.931 . S
C166 O169 1.256 . S
C166 O170 1.255 . S
O167 Co150 2.021 . S
O167 C160 1.259 . S
O168 Co152 2.117 . S
O168 C160 1.258 . S
O169 Co152 2.020 . S
O169 C166 1.256 . S
O170 Co150 2.062 . S
O170 C166 1.255 . S
O171 C151 1.259 . S
O171 Co152 2.021 . S
H172 C163 0.930 . S
H173 C162 0.931 . S
O174 Co150 2.117 . S
O174 C151 1.258 . S
O175 Co150 2.020 . S
O175 C177 1.256 . S
O176 Co152 2.062 . S
O176 C177 1.255 . S
C177 O175 1.256 . S
C177 O176 1.255 . S
H178 C157 0.931 . S
H179 C165 0.931 . S
Co180 N185 2.057 . S
Co180 O197 2.021 . S
Co180 O200 2.062 . S
Co180 O204 2.117 . S
Co180 O205 2.020 . S
C181 O201 1.259 . S
C181 O204 1.258 . S
Co182 N191 2.057 . S
Co182 O198 2.117 . S
Co182 O199 2.020 . S
Co182 O201 2.021 . S
Co182 O206 2.062 . S
C183 N185 1.316 . S
C183 N186 1.347 . S
C183 H188 0.931 . S
C184 N185 1.375 . S
C184 C187 1.350 . S
C184 H189 0.930 . S
N185 Co180 2.057 . S
N185 C183 1.316 . S
N185 C184 1.375 . S
N186 C183 1.347 . S
N186 C187 1.373 . S
C187 C184 1.350 . S
C187 N186 1.373 . S
C187 H208 0.931 . S
H188 C183 0.931 . S
H189 C184 0.930 . S
C190 O197 1.259 . S
C190 O198 1.258 . S
N191 Co182 2.057 . S
N191 C192 1.316 . S
N191 C193 1.375 . S
C192 N191 1.316 . S
C192 N194 1.347 . S
C192 H203 0.931 . S
C193 N191 1.375 . S
C193 C195 1.350 . S
C193 H202 0.930 . S
N194 C192 1.347 . S
N194 C195 1.373 . S
C195 C193 1.350 . S
C195 N194 1.373 . S
C195 H209 0.931 . S
C196 O199 1.256 . S
C196 O200 1.255 . S
O197 Co180 2.021 . S
O197 C190 1.259 . S
O198 Co182 2.117 . S
O198 C190 1.258 . S
O199 Co182 2.020 . S
O199 C196 1.256 . S
O200 Co180 2.062 . S
O200 C196 1.255 . S
O201 C181 1.259 . S
O201 Co182 2.021 . S
H202 C193 0.930 . S
H203 C192 0.931 . S
O204 Co180 2.117 . S
O204 C181 1.258 . S
O205 Co180 2.020 . S
O205 C207 1.256 . S
O206 Co182 2.062 . S
O206 C207 1.255 . S
C207 O205 1.256 . S
C207 O206 1.255 . S
H208 C187 0.931 . S
H209 C195 0.931 . S
Co210 N215 2.057 . S
Co210 O227 2.021 . S
Co210 O230 2.062 . S
Co210 O234 2.117 . S
Co210 O235 2.020 . S
C211 O231 1.259 . S
C211 O234 1.258 . S
Co212 N221 2.057 . S
Co212 O228 2.117 . S
Co212 O229 2.020 . S
Co212 O231 2.021 . S
Co212 O236 2.062 . S
C213 N215 1.316 . S
C213 N216 1.347 . S
C213 H218 0.931 . S
C214 N215 1.375 . S
C214 C217 1.350 . S
C214 H219 0.930 . S
N215 Co210 2.057 . S
N215 C213 1.316 . S
N215 C214 1.375 . S
N216 C213 1.347 . S
N216 C217 1.373 . S
C217 C214 1.350 . S
C217 N216 1.373 . S
C217 H238 0.931 . S
H218 C213 0.931 . S
H219 C214 0.930 . S
C220 O227 1.259 . S
C220 O228 1.258 . S
N221 Co212 2.057 . S
N221 C222 1.316 . S
N221 C223 1.375 . S
C222 N221 1.316 . S
C222 N224 1.347 . S
C222 H233 0.931 . S
C223 N221 1.375 . S
C223 C225 1.350 . S
C223 H232 0.930 . S
N224 C222 1.347 . S
N224 C225 1.373 . S
C225 C223 1.350 . S
C225 N224 1.373 . S
C225 H239 0.931 . S
C226 O229 1.256 . S
C226 O230 1.255 . S
O227 Co210 2.021 . S
O227 C220 1.259 . S
O228 Co212 2.117 . S
O228 C220 1.258 . S
O229 Co212 2.020 . S
O229 C226 1.256 . S
O230 Co210 2.062 . S
O230 C226 1.255 . S
O231 C211 1.259 . S
O231 Co212 2.021 . S
H232 C223 0.930 . S
H233 C222 0.931 . S
O234 Co210 2.117 . S
O234 C211 1.258 . S
O235 Co210 2.020 . S
O235 C237 1.256 . S
O236 Co212 2.062 . S
O236 C237 1.255 . S
C237 O235 1.256 . S
C237 O236 1.255 . S
H238 C217 0.931 . S
H239 C225 0.931 . S
C240 O252 1.241 . S
C240 O253 1.280 . S
C241 O254 1.277 . S
C241 O255 1.245 . S
C242 O266 1.247 . S
C242 O268 1.289 . S
Mg243 O244 1.926 . S
Mg243 O253 1.984 . S
Mg243 O255 1.988 . S
Mg243 O256 2.061 1_655 S
O244 Mg243 1.926 . S
O244 Mg245 1.986 . S
O244 Mg246 1.917 1_655 S
Mg245 O244 1.986 . S
Mg245 O252 2.042 . S
Mg245 O254 2.041 . S
Mg245 O260 2.038 1_545 S
Mg245 O268 2.238 1_545 S
Mg246 O244 1.917 1_455 S
Mg246 O247 1.917 1_545 S
Mg246 O257 2.106 . S
Mg246 O259 2.079 1_445 S
Mg246 O268 2.106 1_445 S
Mg246 O269 2.079 . S
O247 Mg246 1.917 1_565 S
O247 Mg248 1.926 . S
O247 Mg249 1.986 . S
Mg248 O247 1.926 . S
Mg248 O262 1.984 . S
Mg248 O265 1.988 . S
Mg248 O266 2.061 1_455 S
Mg249 O247 1.986 . S
Mg249 O257 2.238 1_565 S
Mg249 O261 2.042 . S
Mg249 O263 2.041 . S
Mg249 O270 2.038 1_565 S
C250 O256 1.247 . S
C250 O257 1.289 . S
C251 O269 1.245 . S
C251 O270 1.274 . S
O252 C240 1.241 . S
O252 Mg245 2.042 . S
O253 C240 1.280 . S
O253 Mg243 1.984 . S
O254 C241 1.277 . S
O254 Mg245 2.041 . S
O255 C241 1.245 . S
O255 Mg243 1.988 . S
O256 Mg243 2.061 1_455 S
O256 C250 1.247 . S
O257 Mg246 2.106 . S
O257 Mg249 2.238 1_545 S
O257 C250 1.289 . S
C258 O259 1.245 . S
C258 O260 1.274 . S
O259 Mg246 2.079 1_665 S
O259 C258 1.245 . S
O260 Mg245 2.038 1_565 S
O260 C258 1.274 . S
O261 Mg249 2.042 . S
O261 C264 1.241 . S
O262 Mg248 1.984 . S
O262 C264 1.280 . S
O263 Mg249 2.041 . S
O263 C267 1.277 . S
C264 O261 1.241 . S
C264 O262 1.280 . S
O265 Mg248 1.988 . S
O265 C267 1.245 . S
O266 C242 1.247 . S
O266 Mg248 2.061 1_655 S
C267 O263 1.277 . S
C267 O265 1.245 . S
O268 C242 1.289 . S
O268 Mg245 2.238 1_565 S
O268 Mg246 2.106 1_665 S
O269 Mg246 2.079 . S
O269 C251 1.245 . S
O270 Mg249 2.038 1_545 S
O270 C251 1.274 . S
C271 O283 1.241 . S
C271 O284 1.280 . S
C272 O285 1.277 . S
C272 O286 1.245 . S
C273 O297 1.247 . S
C273 O299 1.289 . S
Mg274 O275 1.926 . S
Mg274 O284 1.984 . S
Mg274 O286 1.988 1_554 S
Mg274 O287 2.061 . S
O275 Mg274 1.926 . S
O275 Mg276 1.986 1_554 S
O275 Mg277 1.918 . S
Mg276 O275 1.986 1_556 S
Mg276 O283 2.042 1_556 S
Mg276 O285 2.041 . S
Mg276 O291 2.038 1_546 S
Mg276 O299 2.238 1_545 S
Mg277 O275 1.918 . S
Mg277 O278 1.916 1_544 S
Mg277 O288 2.108 . S
Mg277 O290 2.082 1_545 S
Mg277 O299 2.104 1_544 S
Mg277 O300 2.075 1_554 S
O278 Mg277 1.916 1_566 S
O278 Mg279 1.926 . S
O278 Mg280 1.986 1_556 S
Mg279 O278 1.926 . S
Mg279 O293 1.984 . S
Mg279 O296 1.988 1_556 S
Mg279 O297 2.061 . S
Mg280 O278 1.986 1_554 S
Mg280 O288 2.238 1_565 S
Mg280 O292 2.042 1_554 S
Mg280 O294 2.041 . S
Mg280 O301 2.038 1_564 S
C281 O287 1.247 . S
C281 O288 1.289 . S
C282 O300 1.245 . S
C282 O301 1.274 . S
O283 C271 1.241 . S
O283 Mg276 2.042 1_554 S
O284 C271 1.280 . S
O284 Mg274 1.984 . S
O285 C272 1.277 . S
O285 Mg276 2.041 . S
O286 C272 1.245 . S
O286 Mg274 1.988 1_556 S
O287 Mg274 2.061 . S
O287 C281 1.247 . S
O288 Mg277 2.108 . S
O288 Mg280 2.238 1_545 S
O288 C281 1.289 . S
C289 O290 1.245 . S
C289 O291 1.274 . S
O290 Mg277 2.082 1_565 S
O290 C289 1.245 . S
O291 Mg276 2.038 1_564 S
O291 C289 1.274 . S
O292 Mg280 2.042 1_556 S
O292 C295 1.241 . S
O293 Mg279 1.984 . S
O293 C295 1.280 . S
O294 Mg280 2.041 . S
O294 C298 1.277 . S
C295 O292 1.241 . S
C295 O293 1.280 . S
O296 Mg279 1.988 1_554 S
O296 C298 1.245 . S
O297 C273 1.247 . S
O297 Mg279 2.061 . S
C298 O294 1.277 . S
C298 O296 1.245 . S
O299 C273 1.289 . S
O299 Mg276 2.238 1_565 S
O299 Mg277 2.104 1_566 S
O300 Mg277 2.075 1_556 S
O300 C282 1.245 . S
O301 Mg280 2.038 1_546 S
O301 C282 1.274 . S
C302 O314 1.241 . S
C302 O315 1.280 . S
C303 O316 1.277 . S
C303 O317 1.245 . S
C304 O328 1.247 . S
C304 O330 1.289 . S
Mg305 O306 1.926 . S
Mg305 O315 1.984 . S
Mg305 O317 1.988 1_554 S
Mg305 O318 2.061 1_655 S
O306 Mg305 1.926 . S
O306 Mg307 1.986 1_554 S
O306 Mg308 1.918 1_655 S
Mg307 O306 1.986 1_556 S
Mg307 O314 2.042 1_556 S
Mg307 O316 2.041 . S
Mg307 O322 2.038 1_556 S
Mg307 O330 2.238 . S
Mg308 O306 1.918 1_455 S
Mg308 O309 1.916 1_554 S
Mg308 O319 2.108 . S
Mg308 O321 2.082 1_455 S
Mg308 O330 2.104 1_454 S
Mg308 O331 2.075 1_554 S
O309 Mg308 1.916 1_556 S
O309 Mg310 1.926 . S
O309 Mg311 1.986 1_556 S
Mg310 O309 1.926 . S
Mg310 O324 1.984 . S
Mg310 O327 1.988 1_556 S
Mg310 O328 2.061 1_455 S
Mg311 O309 1.986 1_554 S
Mg311 O319 2.238 . S
Mg311 O323 2.042 1_554 S
Mg311 O325 2.041 . S
Mg311 O332 2.038 1_554 S
C312 O318 1.247 . S
C312 O319 1.289 . S
C313 O331 1.245 . S
C313 O332 1.274 . S
O314 C302 1.241 . S
O314 Mg307 2.042 1_554 S
O315 C302 1.280 . S
O315 Mg305 1.984 . S
O316 C303 1.277 . S
O316 Mg307 2.041 . S
O317 C303 1.245 . S
O317 Mg305 1.988 1_556 S
O318 Mg305 2.061 1_455 S
O318 C312 1.247 . S
O319 Mg308 2.108 . S
O319 Mg311 2.238 . S
O319 C312 1.289 . S
C320 O321 1.245 . S
C320 O322 1.274 . S
O321 Mg308 2.082 1_655 S
O321 C320 1.245 . S
O322 Mg307 2.038 1_554 S
O322 C320 1.274 . S
O323 Mg311 2.042 1_556 S
O323 C326 1.241 . S
O324 Mg310 1.984 . S
O324 C326 1.280 . S
O325 Mg311 2.041 . S
O325 C329 1.277 . S
C326 O323 1.241 . S
C326 O324 1.280 . S
O327 Mg310 1.988 1_554 S
O327 C329 1.245 . S
O328 C304 1.247 . S
O328 Mg310 2.061 1_655 S
C329 O325 1.277 . S
C329 O327 1.245 . S
O330 C304 1.289 . S
O330 Mg307 2.238 . S
O330 Mg308 2.104 1_656 S
O331 Mg308 2.075 1_556 S
O331 C313 1.245 . S
O332 Mg311 2.038 1_556 S
O332 C313 1.274 . S
C333 O345 1.241 . S
C333 O346 1.280 . S
C334 O347 1.277 . S
C334 O348 1.245 . S
C335 O359 1.247 . S
C335 O361 1.289 . S
Mg336 O337 1.926 . S
Mg336 O346 1.984 . S
Mg336 O348 1.988 1_554 S
Mg336 O349 2.061 . S
O337 Mg336 1.926 . S
O337 Mg338 1.986 1_554 S
O337 Mg339 1.918 . S
Mg338 O337 1.986 1_556 S
Mg338 O345 2.042 1_556 S
Mg338 O347 2.041 . S
Mg338 O353 2.038 1_556 S
Mg338 O361 2.238 . S
Mg339 O337 1.918 . S
Mg339 O340 1.916 1_554 S
Mg339 O350 2.108 . S
Mg339 O352 2.082 . S
Mg339 O361 2.104 1_554 S
Mg339 O362 2.075 1_554 S
O340 Mg339 1.916 1_556 S
O340 Mg341 1.926 . S
O340 Mg342 1.986 1_556 S
Mg341 O340 1.926 . S
Mg341 O355 1.984 . S
Mg341 O358 1.988 1_556 S
Mg341 O359 2.061 . S
Mg342 O340 1.986 1_554 S
Mg342 O350 2.238 . S
Mg342 O354 2.042 1_554 S
Mg342 O356 2.041 . S
Mg342 O363 2.038 1_554 S
C343 O349 1.247 . S
C343 O350 1.289 . S
C344 O362 1.245 . S
C344 O363 1.274 . S
O345 C333 1.241 . S
O345 Mg338 2.042 1_554 S
O346 C333 1.280 . S
O346 Mg336 1.984 . S
O347 C334 1.277 . S
O347 Mg338 2.041 . S
O348 C334 1.245 . S
O348 Mg336 1.988 1_556 S
O349 Mg336 2.061 . S
O349 C343 1.247 . S
O350 Mg339 2.108 . S
O350 Mg342 2.238 . S
O350 C343 1.289 . S
C351 O352 1.245 . S
C351 O353 1.274 . S
O352 Mg339 2.082 . S
O352 C351 1.245 . S
O353 Mg338 2.038 1_554 S
O353 C351 1.274 . S
O354 Mg342 2.042 1_556 S
O354 C357 1.241 . S
O355 Mg341 1.984 . S
O355 C357 1.280 . S
O356 Mg342 2.041 . S
O356 C360 1.277 . S
C357 O354 1.241 . S
C357 O355 1.280 . S
O358 Mg341 1.988 1_554 S
O358 C360 1.245 . S
O359 C335 1.247 . S
O359 Mg341 2.061 . S
C360 O356 1.277 . S
C360 O358 1.245 . S
O361 C335 1.289 . S
O361 Mg338 2.238 . S
O361 Mg339 2.104 1_556 S
O362 Mg339 2.075 1_556 S
O362 C344 1.245 . S
O363 Mg342 2.038 1_556 S
O363 C344 1.274 . S
C364 O376 1.241 . S
C364 O377 1.280 . S
C365 O378 1.277 . S
C365 O379 1.245 . S
C366 O390 1.247 . S
C366 O392 1.289 . S
Mg367 O368 1.926 . S
Mg367 O377 1.984 . S
Mg367 O379 1.988 . S
Mg367 O380 2.061 1_655 S
O368 Mg367 1.926 . S
O368 Mg369 1.986 . S
O368 Mg370 1.917 1_655 S
Mg369 O368 1.986 . S
Mg369 O376 2.042 . S
Mg369 O378 2.041 . S
Mg369 O384 2.038 . S
Mg369 O392 2.238 . S
Mg370 O368 1.917 1_455 S
Mg370 O371 1.917 . S
Mg370 O381 2.106 . S
Mg370 O383 2.079 1_455 S
Mg370 O392 2.106 1_455 S
Mg370 O393 2.079 . S
O371 Mg370 1.917 . S
O371 Mg372 1.926 . S
O371 Mg373 1.986 . S
Mg372 O371 1.926 . S
Mg372 O386 1.984 . S
Mg372 O389 1.988 . S
Mg372 O390 2.061 1_455 S
Mg373 O371 1.986 . S
Mg373 O381 2.238 . S
Mg373 O385 2.042 . S
Mg373 O387 2.041 . S
Mg373 O394 2.038 . S
C374 O380 1.247 . S
C374 O381 1.289 . S
C375 O393 1.245 . S
C375 O394 1.274 . S
O376 C364 1.241 . S
O376 Mg369 2.042 . S
O377 C364 1.280 . S
O377 Mg367 1.984 . S
O378 C365 1.277 . S
O378 Mg369 2.041 . S
O379 C365 1.245 . S
O379 Mg367 1.988 . S
O380 Mg367 2.061 1_455 S
O380 C374 1.247 . S
O381 Mg370 2.106 . S
O381 Mg373 2.238 . S
O381 C374 1.289 . S
C382 O383 1.245 . S
C382 O384 1.274 . S
O383 Mg370 2.079 1_655 S
O383 C382 1.245 . S
O384 Mg369 2.038 . S
O384 C382 1.274 . S
O385 Mg373 2.042 . S
O385 C388 1.241 . S
O386 Mg372 1.984 . S
O386 C388 1.280 . S
O387 Mg373 2.041 . S
O387 C391 1.277 . S
C388 O385 1.241 . S
C388 O386 1.280 . S
O389 Mg372 1.988 . S
O389 C391 1.245 . S
O390 C366 1.247 . S
O390 Mg372 2.061 1_655 S
C391 O387 1.277 . S
C391 O389 1.245 . S
O392 C366 1.289 . S
O392 Mg369 2.238 . S
O392 Mg370 2.106 1_655 S
O393 Mg370 2.079 . S
O393 C375 1.245 . S
O394 Mg373 2.038 . S
O394 C375 1.274 . S
C395 O407 1.241 . S
C395 O408 1.280 . S
C396 O409 1.277 . S
C396 O410 1.245 . S
C397 O421 1.247 . S
C397 O423 1.289 . S
Mg398 O399 1.926 . S
Mg398 O408 1.984 . S
Mg398 O410 1.988 . S
Mg398 O411 2.061 . S
O399 Mg398 1.926 . S
O399 Mg400 1.986 . S
O399 Mg401 1.917 . S
Mg400 O399 1.986 . S
Mg400 O407 2.042 . S
Mg400 O409 2.041 . S
Mg400 O415 2.038 1_545 S
Mg400 O423 2.238 1_545 S
Mg401 O399 1.917 . S
Mg401 O402 1.917 1_545 S
Mg401 O412 2.106 . S
Mg401 O414 2.079 1_545 S
Mg401 O423 2.106 1_545 S
Mg401 O424 2.079 . S
O402 Mg401 1.917 1_565 S
O402 Mg403 1.926 . S
O402 Mg404 1.986 . S
Mg403 O402 1.926 . S
Mg403 O417 1.984 . S
Mg403 O420 1.988 . S
Mg403 O421 2.061 . S
Mg404 O402 1.986 . S
Mg404 O412 2.238 1_565 S
Mg404 O416 2.042 . S
Mg404 O418 2.041 . S
Mg404 O425 2.038 1_565 S
C405 O411 1.247 . S
C405 O412 1.289 . S
C406 O424 1.245 . S
C406 O425 1.274 . S
O407 C395 1.241 . S
O407 Mg400 2.042 . S
O408 C395 1.280 . S
O408 Mg398 1.984 . S
O409 C396 1.277 . S
O409 Mg400 2.041 . S
O410 C396 1.245 . S
O410 Mg398 1.988 . S
O411 Mg398 2.061 . S
O411 C405 1.247 . S
O412 Mg401 2.106 . S
O412 Mg404 2.238 1_545 S
O412 C405 1.289 . S
C413 O414 1.245 . S
C413 O415 1.274 . S
O414 Mg401 2.079 1_565 S
O414 C413 1.245 . S
O415 Mg400 2.038 1_565 S
O415 C413 1.274 . S
O416 Mg404 2.042 . S
O416 C419 1.241 . S
O417 Mg403 1.984 . S
O417 C419 1.280 . S
O418 Mg404 2.041 . S
O418 C422 1.277 . S
C419 O416 1.241 . S
C419 O417 1.280 . S
O420 Mg403 1.988 . S
O420 C422 1.245 . S
O421 C397 1.247 . S
O421 Mg403 2.061 . S
C422 O418 1.277 . S
C422 O420 1.245 . S
O423 C397 1.289 . S
O423 Mg400 2.238 1_565 S
O423 Mg401 2.106 1_565 S
O424 Mg401 2.079 . S
O424 C406 1.245 . S
O425 Mg404 2.038 1_545 S
O425 C406 1.274 . S
C426 C427 1.387 . S
C426 H430 0.950 . S
C426 C435 1.390 . S
C427 C426 1.387 . S
C427 C429 1.387 . S
H428 C435 0.950 1_565 S
C429 C427 1.387 . S
C429 C431 1.390 . S
C429 H433 0.950 . S
H430 C426 0.950 . S
C431 C429 1.390 . S
C431 C432 1.387 . S
C431 H434 0.950 . S
C432 C431 1.387 . S
C432 C435 1.387 . S
H433 C429 0.950 . S
H434 C431 0.950 . S
C435 C426 1.390 . S
C435 H428 0.950 1_545 S
C435 C432 1.387 . S
C436 C437 1.387 . S
C436 H440 0.950 . S
C436 C445 1.390 . S
C437 C436 1.387 . S
C437 C439 1.387 . S
H438 C445 0.950 . S
C439 C437 1.387 . S
C439 C441 1.390 . S
C439 H443 0.950 . S
H440 C436 0.950 . S
C441 C439 1.390 . S
C441 C442 1.387 . S
C441 H444 0.950 . S
C442 C441 1.387 . S
C442 C445 1.387 . S
H443 C439 0.950 . S
H444 C441 0.950 . S
C445 C436 1.390 . S
C445 H438 0.950 . S
C445 C442 1.387 . S
C446 C447 1.387 . S
C446 H450 0.950 . S
C446 C455 1.390 . S
C447 C446 1.387 . S
C447 C449 1.387 . S
H448 C455 0.950 . S
C449 C447 1.387 . S
C449 C451 1.390 . S
C449 H453 0.950 . S
H450 C446 0.950 . S
C451 C449 1.390 . S
C451 C452 1.387 . S
C451 H454 0.950 . S
C452 C451 1.387 . S
C452 C455 1.387 . S
H453 C449 0.950 . S
H454 C451 0.950 . S
C455 C446 1.390 . S
C455 H448 0.950 . S
C455 C452 1.387 . S
C456 C457 1.387 . S
C456 H460 0.950 . S
C456 C465 1.390 . S
C457 C456 1.387 . S
C457 C459 1.387 . S
H458 C465 0.950 . S
C459 C457 1.387 . S
C459 C461 1.390 . S
C459 H463 0.950 . S
H460 C456 0.950 . S
C461 C459 1.390 . S
C461 C462 1.387 . S
C461 H464 0.950 . S
C462 C461 1.387 . S
C462 C465 1.387 . S
H463 C459 0.950 . S
H464 C461 0.950 . S
C465 C456 1.390 . S
C465 H458 0.950 . S
C465 C462 1.387 . S
C466 C467 1.387 . S
C466 H470 0.950 . S
C466 C475 1.390 . S
C467 C466 1.387 . S
C467 C469 1.387 . S
H468 C475 0.950 . S
C469 C467 1.387 . S
C469 C471 1.390 . S
C469 H473 0.950 . S
H470 C466 0.950 . S
C471 C469 1.390 . S
C471 C472 1.387 . S
C471 H474 0.950 . S
C472 C471 1.387 . S
C472 C475 1.387 . S
H473 C469 0.950 . S
H474 C471 0.950 . S
C475 C466 1.390 . S
C475 H468 0.950 . S
C475 C472 1.387 . S
C476 C477 1.387 . S
C476 H480 0.950 . S
C476 C485 1.390 . S
C477 C476 1.387 . S
C477 C479 1.387 . S
H478 C485 0.950 . S
C479 C477 1.387 . S
C479 C481 1.390 . S
C479 H483 0.950 . S
H480 C476 0.950 . S
C481 C479 1.390 . S
C481 C482 1.387 . S
C481 H484 0.950 . S
C482 C481 1.387 . S
C482 C485 1.387 . S
H483 C479 0.950 . S
H484 C481 0.950 . S
C485 C476 1.390 . S
C485 H478 0.950 . S
C485 C482 1.387 . S
C486 C487 1.387 . S
C486 H490 0.950 . S
C486 C495 1.390 . S
C487 C486 1.387 . S
C487 C489 1.387 . S
H488 C495 0.950 . S
C489 C487 1.387 . S
C489 C491 1.390 . S
C489 H493 0.950 . S
H490 C486 0.950 . S
C491 C489 1.390 . S
C491 C492 1.387 . S
C491 H494 0.950 . S
C492 C491 1.387 . S
C492 C495 1.387 . S
H493 C489 0.950 . S
H494 C491 0.950 . S
C495 C486 1.390 . S
C495 H488 0.950 . S
C495 C492 1.387 . S
C496 C497 1.387 . S
C496 H500 0.950 . S
C496 C505 1.390 . S
C497 C496 1.387 . S
C497 C499 1.387 . S
H498 C505 0.950 . S
C499 C497 1.387 . S
C499 C501 1.390 . S
C499 H503 0.950 . S
H500 C496 0.950 . S
C501 C499 1.390 . S
C501 C502 1.387 . S
C501 H504 0.950 1_565 S
C502 C501 1.387 . S
C502 C505 1.387 . S
H503 C499 0.950 . S
H504 C501 0.950 1_545 S
C505 C496 1.390 . S
C505 H498 0.950 . S
C505 C502 1.387 . S
C506 C507 1.387 . S
C506 H510 0.950 . S
C506 C515 1.390 . S
C507 C506 1.387 . S
C507 C509 1.387 . S
H508 C515 0.950 . S
C509 C507 1.387 . S
C509 C511 1.390 . S
C509 H513 0.950 . S
H510 C506 0.950 . S
C511 C509 1.390 . S
C511 C512 1.387 . S
C511 H514 0.950 . S
C512 C511 1.387 . S
C512 C515 1.387 . S
H513 C509 0.950 . S
H514 C511 0.950 . S
C515 C506 1.390 . S
C515 H508 0.950 . S
C515 C512 1.387 . S
C516 C517 1.387 . S
C516 H520 0.950 . S
C516 C525 1.390 . S
C517 C516 1.387 . S
C517 C519 1.387 . S
H518 C525 0.950 . S
C519 C517 1.387 . S
C519 C521 1.390 . S
C519 H523 0.950 . S
H520 C516 0.950 . S
C521 C519 1.390 . S
C521 C522 1.387 . S
C521 H524 0.950 . S
C522 C521 1.387 . S
C522 C525 1.387 . S
H523 C519 0.950 . S
H524 C521 0.950 . S
C525 C516 1.390 . S
C525 H518 0.950 . S
C525 C522 1.387 . S
C526 C527 1.387 . S
C526 H530 0.950 . S
C526 C535 1.390 . S
C527 C526 1.387 . S
C527 C529 1.387 . S
H528 C535 0.950 . S
C529 C527 1.387 . S
C529 C531 1.390 . S
C529 H533 0.950 . S
H530 C526 0.950 . S
C531 C529 1.390 . S
C531 C532 1.387 . S
C531 H534 0.950 . S
C532 C531 1.387 . S
C532 C535 1.387 . S
H533 C529 0.950 . S
H534 C531 0.950 . S
C535 C526 1.390 . S
C535 H528 0.950 . S
C535 C532 1.387 . S
C536 C537 1.387 . S
C536 H540 0.950 . S
C536 C545 1.390 . S
C537 C536 1.387 . S
C537 C539 1.387 . S
H538 C545 0.950 . S
C539 C537 1.387 . S
C539 C541 1.390 . S
C539 H543 0.950 . S
H540 C536 0.950 . S
C541 C539 1.390 . S
C541 C542 1.387 . S
C541 H544 0.950 . S
C542 C541 1.387 . S
C542 C545 1.387 . S
H543 C539 0.950 . S
H544 C541 0.950 . S
C545 C536 1.390 . S
C545 H538 0.950 . S
C545 C542 1.387 . S
C546 C547 1.387 . S
C546 H550 0.950 . S
C546 C555 1.390 . S
C547 C546 1.387 . S
C547 C549 1.387 . S
H548 C555 0.950 . S
C549 C547 1.387 . S
C549 C551 1.390 . S
C549 H553 0.950 . S
H550 C546 0.950 . S
C551 C549 1.390 . S
C551 C552 1.387 . S
C551 H554 0.950 . S
C552 C551 1.387 . S
C552 C555 1.387 . S
H553 C549 0.950 . S
H554 C551 0.950 . S
C555 C546 1.390 . S
C555 H548 0.950 . S
C555 C552 1.387 . S
C556 C557 1.387 . S
C556 H560 0.950 . S
C556 C565 1.390 . S
C557 C556 1.387 . S
C557 C559 1.387 . S
H558 C565 0.950 . S
C559 C557 1.387 . S
C559 C561 1.390 . S
C559 H563 0.950 . S
H560 C556 0.950 . S
C561 C559 1.390 . S
C561 C562 1.387 . S
C561 H564 0.950 . S
C562 C561 1.387 . S
C562 C565 1.387 . S
H563 C559 0.950 . S
H564 C561 0.950 . S
C565 C556 1.390 . S
C565 H558 0.950 . S
C565 C562 1.387 . S
C566 C567 1.387 . S
C566 H570 0.950 . S
C566 C575 1.390 . S
C567 C566 1.387 . S
C567 C569 1.387 . S
H568 C575 0.950 . S
C569 C567 1.387 . S
C569 C571 1.390 . S
C569 H573 0.950 . S
H570 C566 0.950 . S
C571 C569 1.390 . S
C571 C572 1.387 . S
C571 H574 0.950 . S
C572 C571 1.387 . S
C572 C575 1.387 . S
H573 C569 0.950 . S
H574 C571 0.950 . S
C575 C566 1.390 . S
C575 H568 0.950 . S
C575 C572 1.387 . S
C576 C577 1.387 . S
C576 H580 0.950 . S
C576 C585 1.390 . S
C577 C576 1.387 . S
C577 C579 1.387 . S
H578 C585 0.950 . S
C579 C577 1.387 . S
C579 C581 1.390 . S
C579 H583 0.950 . S
H580 C576 0.950 . S
C581 C579 1.390 . S
C581 C582 1.387 . S
C581 H584 0.950 . S
C582 C581 1.387 . S
C582 C585 1.387 . S
H583 C579 0.950 . S
H584 C581 0.950 . S
C585 C576 1.390 . S
C585 H578 0.950 . S
C585 C582 1.387 . S
C586 C587 1.387 . S
C586 H590 0.950 . S
C586 C595 1.390 . S
C587 C586 1.387 . S
C587 C589 1.387 . S
H588 C595 0.950 . S
C589 C587 1.387 . S
C589 C591 1.390 . S
C589 H593 0.950 . S
H590 C586 0.950 . S
C591 C589 1.390 . S
C591 C592 1.387 . S
C591 H594 0.950 . S
C592 C591 1.387 . S
C592 C595 1.387 . S
H593 C589 0.950 . S
H594 C591 0.950 . S
C595 C586 1.390 . S
C595 H588 0.950 . S
C595 C592 1.387 . S
C596 C597 1.387 . S
C596 H600 0.950 . S
C596 C605 1.390 . S
C597 C596 1.387 . S
C597 C599 1.387 . S
H598 C605 0.950 . S
C599 C597 1.387 . S
C599 C601 1.390 . S
C599 H603 0.950 . S
H600 C596 0.950 . S
C601 C599 1.390 . S
C601 C602 1.387 . S
C601 H604 0.950 . S
C602 C601 1.387 . S
C602 C605 1.387 . S
H603 C599 0.950 . S
H604 C601 0.950 . S
C605 C596 1.390 . S
C605 H598 0.950 . S
C605 C602 1.387 . S
C606 C607 1.387 . S
C606 H610 0.950 . S
C606 C615 1.390 . S
C607 C606 1.387 . S
C607 C609 1.387 . S
H608 C615 0.950 . S
C609 C607 1.387 . S
C609 C611 1.390 . S
C609 H613 0.950 . S
H610 C606 0.950 . S
C611 C609 1.390 . S
C611 C612 1.387 . S
C611 H614 0.950 . S
C612 C611 1.387 . S
C612 C615 1.387 . S
H613 C609 0.950 . S
H614 C611 0.950 . S
C615 C606 1.390 . S
C615 H608 0.950 . S
C615 C612 1.387 . S
C616 C617 1.387 . S
C616 H620 0.950 . S
C616 C625 1.390 . S
C617 C616 1.387 . S
C617 C619 1.387 . S
H618 C625 0.950 . S
C619 C617 1.387 . S
C619 C621 1.390 . S
C619 H623 0.950 . S
H620 C616 0.950 . S
C621 C619 1.390 . S
C621 C622 1.387 . S
C621 H624 0.950 . S
C622 C621 1.387 . S
C622 C625 1.387 . S
H623 C619 0.950 . S
H624 C621 0.950 . S
C625 C616 1.390 . S
C625 H618 0.950 . S
C625 C622 1.387 . S
C626 C627 1.387 . S
C626 H630 0.950 . S
C626 C635 1.390 . S
C627 C626 1.387 . S
C627 C629 1.387 . S
H628 C635 0.950 . S
C629 C627 1.387 . S
C629 C631 1.390 . S
C629 H633 0.950 . S
H630 C626 0.950 . S
C631 C629 1.390 . S
C631 C632 1.387 . S
C631 H634 0.950 . S
C632 C631 1.387 . S
C632 C635 1.387 . S
H633 C629 0.950 . S
H634 C631 0.950 . S
C635 C626 1.390 . S
C635 H628 0.950 . S
C635 C632 1.387 . S
C636 C637 1.387 . S
C636 H640 0.950 . S
C636 C645 1.390 . S
C637 C636 1.387 . S
C637 C639 1.387 . S
H638 C645 0.950 . S
C639 C637 1.387 . S
C639 C641 1.390 . S
C639 H643 0.950 . S
H640 C636 0.950 . S
C641 C639 1.390 . S
C641 C642 1.387 . S
C641 H644 0.950 . S
C642 C641 1.387 . S
C642 C645 1.387 . S
H643 C639 0.950 . S
H644 C641 0.950 . S
C645 C636 1.390 . S
C645 H638 0.950 . S
C645 C642 1.387 . S
C646 C647 1.387 . S
C646 H650 0.950 . S
C646 C655 1.390 . S
C647 C646 1.387 . S
C647 C649 1.387 . S
H648 C655 0.950 . S
C649 C647 1.387 . S
C649 C651 1.390 . S
C649 H653 0.950 . S
H650 C646 0.950 . S
C651 C649 1.390 . S
C651 C652 1.387 . S
C651 H654 0.950 . S
C652 C651 1.387 . S
C652 C655 1.387 . S
H653 C649 0.950 . S
H654 C651 0.950 . S
C655 C646 1.390 . S
C655 H648 0.950 . S
C655 C652 1.387 . S
C656 C657 1.387 . S
C656 H660 0.950 . S
C656 C665 1.390 . S
C657 C656 1.387 . S
C657 C659 1.387 . S
H658 C665 0.950 . S
C659 C657 1.387 . S
C659 C661 1.390 . S
C659 H663 0.950 . S
H660 C656 0.950 . S
C661 C659 1.390 . S
C661 C662 1.387 . S
C661 H664 0.950 . S
C662 C661 1.387 . S
C662 C665 1.387 . S
H663 C659 0.950 . S
H664 C661 0.950 . S
C665 C656 1.390 . S
C665 H658 0.950 . S
C665 C662 1.387 . S
C666 C667 1.387 . S
C666 H670 0.950 . S
C666 C675 1.390 . S
C667 C666 1.387 . S
C667 C669 1.387 . S
H668 C675 0.950 . S
C669 C667 1.387 . S
C669 C671 1.390 . S
C669 H673 0.950 . S
H670 C666 0.950 . S
C671 C669 1.390 . S
C671 C672 1.387 . S
C671 H674 0.950 . S
C672 C671 1.387 . S
C672 C675 1.387 . S
H673 C669 0.950 . S
H674 C671 0.950 . S
C675 C666 1.390 . S
C675 H668 0.950 . S
C675 C672 1.387 . S
C676 C677 1.387 . S
C676 H680 0.950 . S
C676 C685 1.390 . S
C677 C676 1.387 . S
C677 C679 1.387 . S
H678 C685 0.950 . S
C679 C677 1.387 . S
C679 C681 1.390 . S
C679 H683 0.950 . S
H680 C676 0.950 . S
C681 C679 1.390 . S
C681 C682 1.387 . S
C681 H684 0.950 . S
C682 C681 1.387 . S
C682 C685 1.387 . S
H683 C679 0.950 . S
H684 C681 0.950 . S
C685 C676 1.390 . S
C685 H678 0.950 . S
C685 C682 1.387 . S
C686 C687 1.387 . S
C686 H690 0.950 . S
C686 C695 1.390 . S
C687 C686 1.387 . S
C687 C689 1.387 . S
H688 C695 0.950 . S
C689 C687 1.387 . S
C689 C691 1.390 . S
C689 H693 0.950 . S
H690 C686 0.950 . S
C691 C689 1.390 . S
C691 C692 1.387 . S
C691 H694 0.950 . S
C692 C691 1.387 . S
C692 C695 1.387 . S
H693 C689 0.950 . S
H694 C691 0.950 . S
C695 C686 1.390 . S
C695 H688 0.950 . S
C695 C692 1.387 . S
C696 C697 1.387 . S
C696 H700 0.950 . S
C696 C705 1.390 . S
C697 C696 1.387 . S
C697 C699 1.387 . S
H698 C705 0.950 . S
C699 C697 1.387 . S
C699 C701 1.390 . S
C699 H703 0.950 . S
H700 C696 0.950 . S
C701 C699 1.390 . S
C701 C702 1.387 . S
C701 H704 0.950 . S
C702 C701 1.387 . S
C702 C705 1.387 . S
H703 C699 0.950 . S
H704 C701 0.950 . S
C705 C696 1.390 . S
C705 H698 0.950 . S
C705 C702 1.387 . S
C706 C707 1.387 . S
C706 H710 0.950 . S
C706 C715 1.390 . S
C707 C706 1.387 . S
C707 C709 1.387 . S
H708 C715 0.950 . S
C709 C707 1.387 . S
C709 C711 1.390 . S
C709 H713 0.950 . S
H710 C706 0.950 . S
C711 C709 1.390 . S
C711 C712 1.387 . S
C711 H714 0.950 . S
C712 C711 1.387 . S
C712 C715 1.387 . S
H713 C709 0.950 . S
H714 C711 0.950 . S
C715 C706 1.390 . S
C715 H708 0.950 . S
C715 C712 1.387 . S
C716 C717 1.387 . S
C716 H720 0.950 . S
C716 C725 1.390 . S
C717 C716 1.387 . S
C717 C719 1.387 . S
H718 C725 0.950 . S
C719 C717 1.387 . S
C719 C721 1.390 . S
C719 H723 0.950 . S
H720 C716 0.950 . S
C721 C719 1.390 . S
C721 C722 1.387 . S
C721 H724 0.950 . S
C722 C721 1.387 . S
C722 C725 1.387 . S
H723 C719 0.950 . S
H724 C721 0.950 . S
C725 C716 1.390 . S
C725 H718 0.950 . S
C725 C722 1.387 . S
C726 C727 1.387 . S
C726 H730 0.950 . S
C726 C735 1.390 . S
C727 C726 1.387 . S
C727 C729 1.387 . S
H728 C735 0.950 . S
C729 C727 1.387 . S
C729 C731 1.390 . S
C729 H733 0.950 . S
H730 C726 0.950 . S
C731 C729 1.390 . S
C731 C732 1.387 . S
C731 H734 0.950 . S
C732 C731 1.387 . S
C732 C735 1.387 . S
H733 C729 0.950 . S
H734 C731 0.950 . S
C735 C726 1.390 . S
C735 H728 0.950 . S
C735 C732 1.387 . S
C736 C737 1.387 . S
C736 H740 0.950 . S
C736 C745 1.390 . S
C737 C736 1.387 . S
C737 C739 1.387 . S
H738 C745 0.950 . S
C739 C737 1.387 . S
C739 C741 1.390 . S
C739 H743 0.950 . S
H740 C736 0.950 . S
C741 C739 1.390 . S
C741 C742 1.387 . S
C741 H744 0.950 . S
C742 C741 1.387 . S
C742 C745 1.387 . S
H743 C739 0.950 . S
H744 C741 0.950 . S
C745 C736 1.390 . S
C745 H738 0.950 . S
C745 C742 1.387 . S
C746 C747 1.387 . S
C746 H750 0.950 . S
C746 C755 1.390 . S
C747 C746 1.387 . S
C747 C749 1.387 . S
H748 C755 0.950 . S
C749 C747 1.387 . S
C749 C751 1.390 . S
C749 H753 0.950 . S
H750 C746 0.950 . S
C751 C749 1.390 . S
C751 C752 1.387 . S
C751 H754 0.950 . S
C752 C751 1.387 . S
C752 C755 1.387 . S
H753 C749 0.950 . S
H754 C751 0.950 . S
C755 C746 1.390 . S
C755 H748 0.950 . S
C755 C752 1.387 . S
C756 C757 1.387 . S
C756 H760 0.950 . S
C756 C765 1.390 . S
C757 C756 1.387 . S
C757 C759 1.387 . S
H758 C765 0.950 . S
C759 C757 1.387 . S
C759 C761 1.390 . S
C759 H763 0.950 . S
H760 C756 0.950 . S
C761 C759 1.390 . S
C761 C762 1.387 . S
C761 H764 0.950 . S
C762 C761 1.387 . S
C762 C765 1.387 . S
H763 C759 0.950 . S
H764 C761 0.950 . S
C765 C756 1.390 . S
C765 H758 0.950 . S
C765 C762 1.387 . S
C766 C767 1.387 . S
C766 H770 0.950 . S
C766 C775 1.390 . S
C767 C766 1.387 . S
C767 C769 1.387 . S
H768 C775 0.950 . S
C769 C767 1.387 . S
C769 C771 1.390 . S
C769 H773 0.950 . S
H770 C766 0.950 . S
C771 C769 1.390 . S
C771 C772 1.387 . S
C771 H774 0.950 . S
C772 C771 1.387 . S
C772 C775 1.387 . S
H773 C769 0.950 . S
H774 C771 0.950 . S
C775 C766 1.390 . S
C775 H768 0.950 . S
C775 C772 1.387 . S
C776 C777 1.387 . S
C776 H780 0.950 . S
C776 C785 1.390 . S
C777 C776 1.387 . S
C777 C779 1.387 . S
H778 C785 0.950 . S
C779 C777 1.387 . S
C779 C781 1.390 . S
C779 H783 0.950 . S
H780 C776 0.950 . S
C781 C779 1.390 . S
C781 C782 1.387 . S
C781 H784 0.950 . S
C782 C781 1.387 . S
C782 C785 1.387 . S
H783 C779 0.950 . S
H784 C781 0.950 . S
C785 C776 1.390 . S
C785 H778 0.950 . S
C785 C782 1.387 . S
C786 C787 1.387 . S
C786 H790 0.950 . S
C786 C795 1.390 . S
C787 C786 1.387 . S
C787 C789 1.387 . S
H788 C795 0.950 . S
C789 C787 1.387 . S
C789 C791 1.390 . S
C789 H793 0.950 . S
H790 C786 0.950 . S
C791 C789 1.390 . S
C791 C792 1.387 . S
C791 H794 0.950 . S
C792 C791 1.387 . S
C792 C795 1.387 . S
H793 C789 0.950 . S
H794 C791 0.950 . S
C795 C786 1.390 . S
C795 H788 0.950 . S
C795 C792 1.387 . S
C796 C797 1.387 . S
C796 H800 0.950 . S
C796 C805 1.390 . S
C797 C796 1.387 . S
C797 C799 1.387 . S
H798 C805 0.950 . S
C799 C797 1.387 . S
C799 C801 1.390 . S
C799 H803 0.950 . S
H800 C796 0.950 . S
C801 C799 1.390 . S
C801 C802 1.387 . S
C801 H804 0.950 . S
C802 C801 1.387 . S
C802 C805 1.387 . S
H803 C799 0.950 . S
H804 C801 0.950 . S
C805 C796 1.390 . S
C805 H798 0.950 . S
C805 C802 1.387 . S
C806 C807 1.387 . S
C806 H810 0.950 . S
C806 C815 1.390 . S
C807 C806 1.387 . S
C807 C809 1.387 . S
H808 C815 0.950 . S
C809 C807 1.387 . S
C809 C811 1.390 . S
C809 H813 0.950 . S
H810 C806 0.950 . S
C811 C809 1.390 . S
C811 C812 1.387 . S
C811 H814 0.950 . S
C812 C811 1.387 . S
C812 C815 1.387 . S
H813 C809 0.950 . S
H814 C811 0.950 . S
C815 C806 1.390 . S
C815 H808 0.950 . S
C815 C812 1.387 . S
C816 C817 1.387 . S
C816 H820 0.950 . S
C816 C825 1.390 . S
C817 C816 1.387 . S
C817 C819 1.387 . S
H818 C825 0.950 . S
C819 C817 1.387 . S
C819 C821 1.390 . S
C819 H823 0.950 . S
H820 C816 0.950 . S
C821 C819 1.390 . S
C821 C822 1.387 . S
C821 H824 0.950 . S
C822 C821 1.387 . S
C822 C825 1.387 . S
H823 C819 0.950 . S
H824 C821 0.950 . S
C825 C816 1.390 . S
C825 H818 0.950 . S
C825 C822 1.387 . S
C826 C827 1.387 . S
C826 H830 0.950 . S
C826 C835 1.390 . S
C827 C826 1.387 . S
C827 C829 1.387 . S
H828 C835 0.950 . S
C829 C827 1.387 . S
C829 C831 1.390 . S
C829 H833 0.950 . S
H830 C826 0.950 . S
C831 C829 1.390 . S
C831 C832 1.387 . S
C831 H834 0.950 . S
C832 C831 1.387 . S
C832 C835 1.387 . S
H833 C829 0.950 . S
H834 C831 0.950 . S
C835 C826 1.390 . S
C835 H828 0.950 . S
C835 C832 1.387 . S
C836 C837 1.387 . S
C836 H840 0.950 . S
C836 C845 1.390 . S
C837 C836 1.387 . S
C837 C839 1.387 . S
H838 C845 0.950 . S
C839 C837 1.387 . S
C839 C841 1.390 . S
C839 H843 0.950 . S
H840 C836 0.950 . S
C841 C839 1.390 . S
C841 C842 1.387 . S
C841 H844 0.950 . S
C842 C841 1.387 . S
C842 C845 1.387 . S
H843 C839 0.950 . S
H844 C841 0.950 . S
C845 C836 1.390 . S
C845 H838 0.950 . S
C845 C842 1.387 . S
C846 C847 1.387 . S
C846 H850 0.950 . S
C846 C855 1.390 . S
C847 C846 1.387 . S
C847 C849 1.387 . S
H848 C855 0.950 . S
C849 C847 1.387 . S
C849 C851 1.390 . S
C849 H853 0.950 . S
H850 C846 0.950 . S
C851 C849 1.390 . S
C851 C852 1.387 . S
C851 H854 0.950 . S
C852 C851 1.387 . S
C852 C855 1.387 . S
H853 C849 0.950 . S
H854 C851 0.950 . S
C855 C846 1.390 . S
C855 H848 0.950 . S
C855 C852 1.387 . S
C856 C857 1.387 . S
C856 H860 0.950 . S
C856 C865 1.390 . S
C857 C856 1.387 . S
C857 C859 1.387 . S
H858 C865 0.950 . S
C859 C857 1.387 . S
C859 C861 1.390 . S
C859 H863 0.950 . S
H860 C856 0.950 . S
C861 C859 1.390 . S
C861 C862 1.387 . S
C861 H864 0.950 . S
C862 C861 1.387 . S
C862 C865 1.387 . S
H863 C859 0.950 . S
H864 C861 0.950 . S
C865 C856 1.390 . S
C865 H858 0.950 . S
C865 C862 1.387 . S
C866 C867 1.387 . S
C866 H870 0.950 . S
C866 C875 1.390 . S
C867 C866 1.387 . S
C867 C869 1.387 . S
H868 C875 0.950 . S
C869 C867 1.387 . S
C869 C871 1.390 . S
C869 H873 0.950 . S
H870 C866 0.950 . S
C871 C869 1.390 . S
C871 C872 1.387 . S
C871 H874 0.950 . S
C872 C871 1.387 . S
C872 C875 1.387 . S
H873 C869 0.950 . S
H874 C871 0.950 . S
C875 C866 1.390 . S
C875 H868 0.950 . S
C875 C872 1.387 . S
C876 C877 1.387 . S
C876 H880 0.950 . S
C876 C885 1.390 . S
C877 C876 1.387 . S
C877 C879 1.387 . S
H878 C885 0.950 . S
C879 C877 1.387 . S
C879 C881 1.390 . S
C879 H883 0.950 . S
H880 C876 0.950 . S
C881 C879 1.390 . S
C881 C882 1.387 . S
C881 H884 0.950 . S
C882 C881 1.387 . S
C882 C885 1.387 . S
H883 C879 0.950 . S
H884 C881 0.950 . S
C885 C876 1.390 . S
C885 H878 0.950 . S
C885 C882 1.387 . S
C886 C887 1.387 . S
C886 H890 0.950 . S
C886 C895 1.390 . S
C887 C886 1.387 . S
C887 C889 1.387 . S
H888 C895 0.950 . S
C889 C887 1.387 . S
C889 C891 1.390 . S
C889 H893 0.950 . S
H890 C886 0.950 . S
C891 C889 1.390 . S
C891 C892 1.387 . S
C891 H894 0.950 . S
C892 C891 1.387 . S
C892 C895 1.387 . S
H893 C889 0.950 . S
H894 C891 0.950 . S
C895 C886 1.390 . S
C895 H888 0.950 . S
C895 C892 1.387 . S
C896 C897 1.387 . S
C896 H900 0.950 . S
C896 C905 1.390 . S
C897 C896 1.387 . S
C897 C899 1.387 . S
H898 C905 0.950 . S
C899 C897 1.387 . S
C899 C901 1.390 . S
C899 H903 0.950 . S
H900 C896 0.950 . S
C901 C899 1.390 . S
C901 C902 1.387 . S
C901 H904 0.950 . S
C902 C901 1.387 . S
C902 C905 1.387 . S
H903 C899 0.950 . S
H904 C901 0.950 . S
C905 C896 1.390 . S
C905 H898 0.950 . S
C905 C902 1.387 . S
C432 C251 1.161 . S
C427 N6 1.036 . S
C442 C241 2.044 . S
C437 C57 2.031 . S
C452 C242 1.186 . S
C447 C61 1.205 . S
C457 N96 0.796 . S
C462 C264 0.853 . S
C467 C136 2.030 . S
C472 C267 2.046 . S
C482 C250 1.185 . S
C477 C160 1.202 . S
C487 N194 0.795 . S
C492 C240 0.853 . S
C497 N224 1.040 . S
C502 C258 1.163 . S
C512 C271 1.944 . S
C507 C10 1.974 . S
C517 N36 0.969 . S
C522 C320 0.996 . S
C532 C298 0.847 . S
C527 N74 0.819 . S
C542 C312 1.134 . S
C537 C100 1.206 . S
C547 C121 1.198 . S
C552 C273 1.157 . S
C562 C326 1.891 . S
C557 C177 1.931 . S
C567 C196 2.338 . S
C572 C282 2.251 . S
C577 C226 2.036 . S
C582 C303 2.009 . S
C587 C27 2.036 . S
C592 C329 2.008 . S
C597 N134 0.970 . S
C602 C313 0.994 . S
C612 C272 0.847 . S
C607 N156 0.812 . S
C622 C304 1.136 . S
C617 C181 1.208 . S
C627 C211 1.974 . S
C632 C295 1.944 . S
C637 C76 1.930 . S
C642 C302 1.891 . S
C652 C289 2.252 . S
C647 C117 2.339 . S
C657 C40 1.196 . S
C662 C281 1.154 . S
C667 N216 1.041 . S
C672 C344 1.163 . S
C677 C147 2.030 . S
C682 C334 2.046 . S
C692 C335 1.184 . S
C687 C151 1.204 . S
C702 C357 0.856 . S
C697 N186 0.804 . S
C707 C46 2.031 . S
C712 C360 2.045 . S
C722 C343 1.184 . S
C717 C70 1.203 . S
C727 N104 0.799 . S
C732 C333 0.853 . S
C737 N14 1.040 . S
C742 C351 1.164 . S
C747 C220 1.975 . S
C752 C364 1.945 . S
C762 C413 0.999 . S
C757 N126 0.975 . S
C767 N164 0.815 . S
C772 C391 0.847 . S
C777 C190 1.208 . S
C782 C405 1.138 . S
C792 C366 1.157 . S
C787 C31 1.198 . S
C797 C87 1.930 . S
C802 C419 1.891 . S
C812 C375 2.250 . S
C807 C106 2.336 . S
C822 C396 2.008 . S
C817 C16 2.035 . S
C832 C422 2.009 . S
C827 C237 2.038 . S
C837 N44 0.974 . S
C842 C406 0.997 . S
C847 N66 0.816 . S
C852 C365 0.848 . S
C862 C397 1.137 . S
C857 C91 1.209 . S
C867 C1 1.974 . S
C872 C388 1.942 . S
C877 C166 1.932 . S
C882 C395 1.890 . S
C892 C382 2.252 . S
C887 C207 2.339 . S
C902 C374 1.156 . S
C897 C130 1.195 . S
