# Generated by pormake.
# Topology ocu, (6,8)-cn, num edge types: 1
# Building blocks:
#     Node 0, Type 0, BuildingBlock: JUFBIX_clean_sbu_0, # of connection points: 6
#     Node 1, Type 0, BuildingBlock: JUFBIX_clean_sbu_0, # of connection points: 6
#     Node 2, Type 0, BuildingBlock: JUFBIX_clean_sbu_0, # of connection points: 6
#     Node 3, Type 0, BuildingBlock: JUFBIX_clean_sbu_0, # of connection points: 6
#     Node 4, Type 0, BuildingBlock: JUFBIX_clean_sbu_0, # of connection points: 6
#     Node 5, Type 0, BuildingBlock: JUFBIX_clean_sbu_0, # of connection points: 6
#     Node 6, Type 0, BuildingBlock: JUFBIX_clean_sbu_0, # of connection points: 6
#     Node 7, Type 0, BuildingBlock: JUFBIX_clean_sbu_0, # of connection points: 6
#     Node 8, Type 1, BuildingBlock: AJUNOK_clean_sbu_0, # of connection points: 8
#     Node 9, Type 1, BuildingBlock: AJUNOK_clean_sbu_0, # of connection points: 8
#     Node 10, Type 1, BuildingBlock: AJUNOK_clean_sbu_0, # of connection points: 8
#     Node 11, Type 1, BuildingBlock: AJUNOK_clean_sbu_0, # of connection points: 8
#     Node 12, Type 1, BuildingBlock: AJUNOK_clean_sbu_0, # of connection points: 8
#     Node 13, Type 1, BuildingBlock: AJUNOK_clean_sbu_0, # of connection points: 8
#     Edge 14, Type (0, 1), BuildingBlock: AJUNOK_clean_linker_0, # of connection points: 2
#     Edge 15, Type (0, 1), BuildingBlock: AJUNOK_clean_linker_0, # of connection points: 2
#     Edge 16, Type (0, 1), BuildingBlock: AJUNOK_clean_linker_0, # of connection points: 2
#     Edge 17, Type (0, 1), BuildingBlock: AJUNOK_clean_linker_0, # of connection points: 2
#     Edge 18, Type (0, 1), BuildingBlock: AJUNOK_clean_linker_0, # of connection points: 2
#     Edge 19, Type (0, 1), BuildingBlock: AJUNOK_clean_linker_0, # of connection points: 2
#     Edge 20, Type (0, 1), BuildingBlock: AJUNOK_clean_linker_0, # of connection points: 2
#     Edge 21, Type (0, 1), BuildingBlock: AJUNOK_clean_linker_0, # of connection points: 2
#     Edge 22, Type (0, 1), BuildingBlock: AJUNOK_clean_linker_0, # of connection points: 2
#     Edge 23, Type (0, 1), BuildingBlock: AJUNOK_clean_linker_0, # of connection points: 2
#     Edge 24, Type (0, 1), BuildingBlock: AJUNOK_clean_linker_0, # of connection points: 2
#     Edge 25, Type (0, 1), BuildingBlock: AJUNOK_clean_linker_0, # of connection points: 2
#     Edge 26, Type (0, 1), BuildingBlock: AJUNOK_clean_linker_0, # of connection points: 2
#     Edge 27, Type (0, 1), BuildingBlock: AJUNOK_clean_linker_0, # of connection points: 2
#     Edge 28, Type (0, 1), BuildingBlock: AJUNOK_clean_linker_0, # of connection points: 2
#     Edge 29, Type (0, 1), BuildingBlock: AJUNOK_clean_linker_0, # of connection points: 2
#     Edge 30, Type (0, 1), BuildingBlock: AJUNOK_clean_linker_0, # of connection points: 2
#     Edge 31, Type (0, 1), BuildingBlock: AJUNOK_clean_linker_0, # of connection points: 2
#     Edge 32, Type (0, 1), BuildingBlock: AJUNOK_clean_linker_0, # of connection points: 2
#     Edge 33, Type (0, 1), BuildingBlock: AJUNOK_clean_linker_0, # of connection points: 2
#     Edge 34, Type (0, 1), BuildingBlock: AJUNOK_clean_linker_0, # of connection points: 2
#     Edge 35, Type (0, 1), BuildingBlock: AJUNOK_clean_linker_0, # of connection points: 2
#     Edge 36, Type (0, 1), BuildingBlock: AJUNOK_clean_linker_0, # of connection points: 2
#     Edge 37, Type (0, 1), BuildingBlock: AJUNOK_clean_linker_0, # of connection points: 2
#     Edge 38, Type (0, 1), BuildingBlock: AJUNOK_clean_linker_0, # of connection points: 2
#     Edge 39, Type (0, 1), BuildingBlock: AJUNOK_clean_linker_0, # of connection points: 2
#     Edge 40, Type (0, 1), BuildingBlock: AJUNOK_clean_linker_0, # of connection points: 2
#     Edge 41, Type (0, 1), BuildingBlock: AJUNOK_clean_linker_0, # of connection points: 2
#     Edge 42, Type (0, 1), BuildingBlock: AJUNOK_clean_linker_0, # of connection points: 2
#     Edge 43, Type (0, 1), BuildingBlock: AJUNOK_clean_linker_0, # of connection points: 2
#     Edge 44, Type (0, 1), BuildingBlock: AJUNOK_clean_linker_0, # of connection points: 2
#     Edge 45, Type (0, 1), BuildingBlock: AJUNOK_clean_linker_0, # of connection points: 2
#     Edge 46, Type (0, 1), BuildingBlock: AJUNOK_clean_linker_0, # of connection points: 2
#     Edge 47, Type (0, 1), BuildingBlock: AJUNOK_clean_linker_0, # of connection points: 2
#     Edge 48, Type (0, 1), BuildingBlock: AJUNOK_clean_linker_0, # of connection points: 2
#     Edge 49, Type (0, 1), BuildingBlock: AJUNOK_clean_linker_0, # of connection points: 2
#     Edge 50, Type (0, 1), BuildingBlock: AJUNOK_clean_linker_0, # of connection points: 2
#     Edge 51, Type (0, 1), BuildingBlock: AJUNOK_clean_linker_0, # of connection points: 2
#     Edge 52, Type (0, 1), BuildingBlock: AJUNOK_clean_linker_0, # of connection points: 2
#     Edge 53, Type (0, 1), BuildingBlock: AJUNOK_clean_linker_0, # of connection points: 2
#     Edge 54, Type (0, 1), BuildingBlock: AJUNOK_clean_linker_0, # of connection points: 2
#     Edge 55, Type (0, 1), BuildingBlock: AJUNOK_clean_linker_0, # of connection points: 2
#     Edge 56, Type (0, 1), BuildingBlock: AJUNOK_clean_linker_0, # of connection points: 2
#     Edge 57, Type (0, 1), BuildingBlock: AJUNOK_clean_linker_0, # of connection points: 2
#     Edge 58, Type (0, 1), BuildingBlock: AJUNOK_clean_linker_0, # of connection points: 2
#     Edge 59, Type (0, 1), BuildingBlock: AJUNOK_clean_linker_0, # of connection points: 2
#     Edge 60, Type (0, 1), BuildingBlock: AJUNOK_clean_linker_0, # of connection points: 2
#     Edge 61, Type (0, 1), BuildingBlock: AJUNOK_clean_linker_0, # of connection points: 2
# Relax obj value: 0.290
# Max RMSD: 0.357
# Mean RMSD: 0.227
data_MOF--net-ocu--node1-JUFBIX_clean_sbu_0--node2-AJUNOK_clean_sbu_0--edge1-AJUNOK_clean_linker_0
_symmetry_space_group_name_H-M    P1
_symmetry_Int_Tables_number       1
_symmetry_cell_setting            triclinic
loop_
_symmetry_equiv_pos_as_xyz
'x, y, z'
_cell_length_a     32.577596
_cell_length_b     32.965321
_cell_length_c     27.972151
_cell_angle_alpha  102.41685
_cell_angle_beta   101.68787
_cell_angle_gamma 102.47536
loop_
_atom_site_label
_atom_site_type_symbol
_atom_site_fract_x
_atom_site_fract_y
_atom_site_fract_z
_atom_type_partial_charge
Co0 Co 0.23118 0.22854 0.24148 0.0
C1 C 0.2356 0.29923 0.32143 0.0
Co2 Co 0.2906 0.28122 0.2605 0.0
C3 C 0.1626 0.17349 0.26251 0.0
C4 C 0.15024 0.16566 0.18255 0.0
N5 N 0.18037 0.18604 0.22699 0.0
N6 N 0.12204 0.14735 0.24259 0.0
C7 C 0.1141 0.14148 0.19211 0.0
H8 H 0.17858 0.18476 0.30269 0.0
H9 H 0.15348 0.16988 0.14606 0.0
C10 C 0.285 0.20951 0.1804 0.0
N11 N 0.34222 0.32421 0.27725 0.0
C12 C 0.3689 0.33156 0.24728 0.0
C13 C 0.36338 0.35257 0.3229 0.0
N14 N 0.40574 0.36283 0.27235 0.0
C15 C 0.40231 0.37695 0.31971 0.0
C16 C 0.30102 0.21554 0.30772 0.0
O17 O 0.24801 0.19572 0.18798 0.0
O18 O 0.30799 0.24746 0.20556 0.0
O19 O 0.31954 0.25262 0.30442 0.0
O20 O 0.26058 0.1997 0.2857 0.0
O21 O 0.27268 0.3139 0.31455 0.0
H22 H 0.35174 0.35501 0.35668 0.0
H23 H 0.36149 0.31468 0.20753 0.0
O24 O 0.21363 0.26136 0.29551 0.0
O25 O 0.20219 0.25726 0.19731 0.0
O26 O 0.26139 0.31025 0.21623 0.0
C27 C 0.22089 0.29434 0.19399 0.0
H28 H 0.08368 0.12302 0.16466 0.0
H29 H 0.42633 0.40257 0.34966 0.0
Co30 Co 0.76008 0.2541 0.20147 0.0
C31 C 0.80315 0.328 0.28152 0.0
Co32 Co 0.72445 0.2693 0.25947 0.0
C33 C 0.78428 0.25087 0.10808 0.0
C34 C 0.83105 0.23593 0.16196 0.0
N35 N 0.79128 0.24291 0.15386 0.0
N36 N 0.81971 0.25414 0.08983 0.0
C37 C 0.84841 0.24256 0.12257 0.0
H38 H 0.75668 0.26136 0.09212 0.0
H39 H 0.84875 0.23207 0.19707 0.0
C40 C 0.68255 0.19458 0.18139 0.0
N41 N 0.6917 0.27821 0.30644 0.0
C42 C 0.6982 0.26765 0.35082 0.0
C43 C 0.64908 0.27679 0.29418 0.0
N44 N 0.6608 0.25488 0.36374 0.0
C45 C 0.63008 0.26236 0.32923 0.0
C46 C 0.70363 0.30411 0.17907 0.0
O47 O 0.71547 0.20434 0.16431 0.0
O48 O 0.68047 0.21895 0.22205 0.0
O49 O 0.69618 0.30157 0.22135 0.0
O50 O 0.73192 0.28709 0.16453 0.0
O51 O 0.76902 0.31892 0.29688 0.0
H52 H 0.63139 0.27862 0.25793 0.0
H53 H 0.72818 0.2621 0.36888 0.0
O54 O 0.80564 0.30476 0.24003 0.0
O55 O 0.78694 0.22104 0.23818 0.0
O56 O 0.75292 0.23612 0.29641 0.0
C57 C 0.77933 0.21737 0.27987 0.0
H58 H 0.88239 0.24647 0.12303 0.0
H59 H 0.59534 0.25089 0.3244 0.0
Co60 Co 0.74873 0.72843 0.2752 0.0
C61 C 0.81273 0.80518 0.30091 0.0
Co62 Co 0.75218 0.76051 0.21396 0.0
C63 C 0.76415 0.66671 0.32874 0.0
C64 C 0.75804 0.72335 0.37749 0.0
N65 N 0.75115 0.70273 0.32819 0.0
N66 N 0.78259 0.6658 0.37601 0.0
C67 C 0.77781 0.70088 0.40694 0.0
H68 H 0.76726 0.64535 0.29521 0.0
H69 H 0.7555 0.75579 0.39101 0.0
C70 C 0.68728 0.68417 0.18928 0.0
N71 N 0.74977 0.78643 0.16124 0.0
C72 C 0.73731 0.8228 0.16117 0.0
C73 C 0.74408 0.7668 0.11189 0.0
N74 N 0.72099 0.82523 0.114 0.0
C75 C 0.72598 0.79047 0.08273 0.0
C76 C 0.80265 0.70239 0.21167 0.0
O77 O 0.7016 0.68358 0.23468 0.0
O78 O 0.70471 0.71481 0.17301 0.0
O79 O 0.79173 0.72994 0.18964 0.0
O80 O 0.78795 0.69755 0.24952 0.0
O81 O 0.79905 0.80634 0.25553 0.0
H82 H 0.74685 0.73453 0.09785 0.0
H83 H 0.73387 0.84389 0.19469 0.0
O84 O 0.79586 0.77336 0.31554 0.0
O85 O 0.70991 0.7599 0.30022 0.0
O86 O 0.71256 0.79082 0.23901 0.0
C87 C 0.69879 0.7871 0.27771 0.0
H88 H 0.79373 0.71306 0.44712 0.0
H89 H 0.71167 0.77962 0.04214 0.0
Co90 Co 0.23959 0.77444 0.25837 0.0
C91 C 0.31988 0.79823 0.32811 0.0
Co92 Co 0.27744 0.728 0.24474 0.0
C93 C 0.1689 0.80851 0.27445 0.0
C94 C 0.22205 0.85675 0.26858 0.0
N95 N 0.2093 0.81478 0.26773 0.0
N96 N 0.15599 0.84483 0.2793 0.0
C97 C 0.18911 0.87535 0.27564 0.0
H98 H 0.14949 0.77815 0.27657 0.0
H99 H 0.25355 0.87303 0.26542 0.0
C100 C 0.19702 0.70562 0.17515 0.0
N101 N 0.30648 0.68618 0.23419 0.0
C102 C 0.30114 0.6572 0.18973 0.0
C103 C 0.32896 0.67158 0.26968 0.0
N104 N 0.31836 0.62454 0.19608 0.0
C105 C 0.33631 0.6336 0.24631 0.0
C106 C 0.21949 0.70897 0.30727 0.0
O107 O 0.19368 0.7408 0.20091 0.0
O108 O 0.23164 0.69459 0.18761 0.0
O109 O 0.24806 0.6969 0.28684 0.0
O110 O 0.21099 0.74381 0.30121 0.0
O111 O 0.32377 0.76286 0.30277 0.0
H112 H 0.33695 0.68605 0.31012 0.0
H113 H 0.2822 0.65835 0.15376 0.0
O114 O 0.28462 0.80841 0.31568 0.0
O115 O 0.26877 0.80488 0.21603 0.0
O116 O 0.3063 0.7582 0.20189 0.0
C117 C 0.29736 0.79285 0.19561 0.0
H118 H 0.19011 0.90905 0.28026 0.0
H119 H 0.35239 0.61352 0.26494 0.0
Co120 Co 0.26251 0.75397 0.71165 0.0
C121 C 0.30163 0.83171 0.78666 0.0
Co122 Co 0.22536 0.77009 0.76726 0.0
C123 C 0.30743 0.76889 0.63812 0.0
C124 C 0.31178 0.70922 0.65423 0.0
N125 N 0.29417 0.74243 0.66562 0.0
N126 N 0.33273 0.75397 0.61027 0.0
C127 C 0.33646 0.71679 0.62078 0.0
H128 H 0.30159 0.80038 0.64151 0.0
H129 H 0.30873 0.68247 0.6711 0.0
C130 C 0.18651 0.69235 0.69281 0.0
N131 N 0.19177 0.78015 0.81301 0.0
C132 C 0.19743 0.77053 0.85799 0.0
C133 C 0.1493 0.77906 0.79975 0.0
N134 N 0.15958 0.75842 0.87022 0.0
C135 C 0.12957 0.76582 0.83482 0.0
C136 C 0.20368 0.79912 0.68264 0.0
O137 O 0.22055 0.7015 0.67758 0.0
O138 O 0.18275 0.71795 0.73157 0.0
O139 O 0.19622 0.79917 0.72549 0.0
O140 O 0.23196 0.78136 0.6696 0.0
O141 O 0.26793 0.82168 0.80246 0.0
H142 H 0.13202 0.77975 0.76287 0.0
H143 H 0.2269 0.76435 0.87676 0.0
O144 O 0.30497 0.80716 0.74658 0.0
O145 O 0.29299 0.72681 0.75335 0.0
O146 O 0.2555 0.74053 0.80824 0.0
C147 C 0.28507 0.72477 0.79537 0.0
H148 H 0.35737 0.69797 0.60754 0.0
H149 H 0.0947 0.75433 0.82905 0.0
Co150 Co 0.25506 0.23169 0.79901 0.0
C151 C 0.31974 0.30681 0.81338 0.0
Co152 Co 0.2543 0.25904 0.73334 0.0
C153 C 0.27565 0.17696 0.86198 0.0
C154 C 0.26486 0.23427 0.90385 0.0
N155 N 0.26125 0.21142 0.85622 0.0
N156 N 0.29005 0.17835 0.91111 0.0
C157 C 0.28299 0.21421 0.93768 0.0
H158 H 0.28099 0.15422 0.83125 0.0
H159 H 0.25967 0.266 0.91368 0.0
C160 C 0.18753 0.18607 0.7201 0.0
N161 N 0.24743 0.28011 0.67635 0.0
C162 C 0.23511 0.31624 0.67361 0.0
C163 C 0.23755 0.25646 0.6277 0.0
N164 N 0.21492 0.31474 0.62592 0.0
C165 C 0.21729 0.2776 0.59666 0.0
C166 C 0.30289 0.19878 0.7313 0.0
O167 O 0.20577 0.18517 0.76428 0.0
O168 O 0.20397 0.21494 0.70083 0.0
O169 O 0.28904 0.22332 0.70621 0.0
O170 O 0.29254 0.1984 0.77285 0.0
O171 O 0.30396 0.30369 0.76698 0.0
H172 H 0.23916 0.22347 0.61618 0.0
H173 H 0.23499 0.34046 0.70647 0.0
O174 O 0.30392 0.27836 0.83362 0.0
O175 O 0.21789 0.2656 0.8241 0.0
O176 O 0.21978 0.29436 0.7611 0.0
C177 C 0.20733 0.29267 0.80101 0.0
H178 H 0.29472 0.2275 0.97841 0.0
H179 H 0.20016 0.26388 0.55697 0.0
Co180 Co 0.73677 0.27416 0.75196 0.0
C181 C 0.81247 0.30634 0.83132 0.0
Co182 Co 0.77946 0.23166 0.75393 0.0
C183 C 0.68919 0.33259 0.78677 0.0
C184 C 0.69408 0.33046 0.71118 0.0
N185 N 0.70384 0.31237 0.74937 0.0
N186 N 0.67095 0.36299 0.77367 0.0
C187 C 0.67451 0.36201 0.72626 0.0
H188 H 0.69248 0.32547 0.82314 0.0
H189 H 0.70214 0.3224 0.6753 0.0
C190 C 0.70436 0.20024 0.67371 0.0
N191 N 0.81261 0.19365 0.75647 0.0
C192 C 0.85547 0.20076 0.75977 0.0
C193 C 0.79842 0.15168 0.7547 0.0
N194 N 0.86867 0.16478 0.76004 0.0
C195 C 0.83278 0.13379 0.75665 0.0
C196 C 0.71413 0.21475 0.80759 0.0
O197 O 0.69726 0.23574 0.69279 0.0
O198 O 0.73891 0.19192 0.69442 0.0
O199 O 0.74726 0.20467 0.79635 0.0
O200 O 0.70288 0.24553 0.79231 0.0
O201 O 0.81969 0.27089 0.81225 0.0
H202 H 0.76491 0.1348 0.75029 0.0
H203 H 0.87628 0.23132 0.76012 0.0
O204 O 0.77695 0.31366 0.81192 0.0
O205 O 0.76978 0.30188 0.71125 0.0
O206 O 0.81233 0.25922 0.71185 0.0
C207 C 0.80163 0.29073 0.69791 0.0
H208 H 0.66542 0.38352 0.70441 0.0
H209 H 0.83077 0.0999 0.75206 0.0
Co210 Co 0.73994 0.73682 0.74808 0.0
C211 C 0.74735 0.81159 0.82551 0.0
Co212 Co 0.79903 0.78893 0.76375 0.0
C213 C 0.67539 0.68364 0.77745 0.0
C214 C 0.65645 0.6752 0.69731 0.0
N215 N 0.68943 0.69546 0.73918 0.0
N216 N 0.63477 0.6572 0.76163 0.0
C217 C 0.62257 0.65161 0.71108 0.0
H218 H 0.69427 0.69539 0.81665 0.0
H219 H 0.65629 0.679 0.65982 0.0
C220 C 0.79193 0.7143 0.68599 0.0
N221 N 0.85013 0.83035 0.7741 0.0
C222 C 0.86727 0.84121 0.73729 0.0
C223 C 0.88164 0.85017 0.8175 0.0
N224 N 0.90859 0.86627 0.75553 0.0
C225 C 0.91781 0.87227 0.80616 0.0
C226 C 0.8112 0.72655 0.81534 0.0
O227 O 0.75492 0.7006 0.69393 0.0
O228 O 0.8142 0.75267 0.71001 0.0
O229 O 0.82956 0.76278 0.80982 0.0
O230 O 0.7708 0.71028 0.79377 0.0
O231 O 0.78409 0.82485 0.81699 0.0
H232 H 0.87937 0.84664 0.85452 0.0
H233 H 0.85019 0.82938 0.69745 0.0
O234 O 0.7248 0.77315 0.80234 0.0
O235 O 0.70911 0.76315 0.70228 0.0
O236 O 0.76814 0.81547 0.71766 0.0
C237 C 0.72746 0.79949 0.69681 0.0
H238 H 0.59082 0.63362 0.68624 0.0
H239 H 0.94906 0.88917 0.83276 0.0
Cd240 Cd 0.01816 0.97594 0.55137 0.0
Cd241 Cd 0.98762 0.0455 0.43903 0.0
C242 C 0.10707 0.95155 0.54671 0.0
N243 N 0.06329 0.93542 0.52788 0.0
C244 C 0.06796 0.86362 0.52175 0.0
C245 C 0.11212 0.88001 0.548 0.0
C246 C 0.13257 0.92393 0.55675 0.0
C247 C 0.04382 0.89234 0.51201 0.0
H248 H 0.12135 0.98596 0.55994 0.0
H249 H 0.00875 0.88079 0.49826 0.0
C250 C 0.92259 0.95747 0.45164 0.0
C251 C 0.89867 0.05323 0.37826 0.0
C252 C 0.86799 0.0731 0.35912 0.0
C253 C 0.87056 0.11556 0.38447 0.0
C254 C 0.9022 0.13599 0.43072 0.0
C255 C 0.93202 0.1146 0.44887 0.0
N256 N 0.93017 0.07446 0.42179 0.0
H257 H 0.8991 0.02191 0.35682 0.0
H258 H 0.95836 0.13099 0.48261 0.0
C259 C 0.98203 0.95057 0.37439 0.0
N260 N 0.01046 0.98521 0.41059 0.0
C261 C 0.06921 0.95391 0.40496 0.0
C262 C 0.04051 0.9177 0.36815 0.0
C263 C 0.99644 0.91597 0.35258 0.0
C264 C 0.05359 0.98806 0.42468 0.0
H265 H 0.94872 0.95088 0.36044 0.0
H266 H 0.07633 0.01784 0.44856 0.0
C267 C 0.06244 0.0709 0.54758 0.0
C268 C 0.99888 0.92894 0.62038 0.0
N269 N 0.00777 0.03333 0.60636 0.0
C270 C 0.03249 0.04969 0.65516 0.0
C271 C 0.02221 0.08152 0.6885 0.0
C272 C 0.98608 0.09603 0.67112 0.0
C273 C 0.96218 0.07963 0.62013 0.0
C274 C 0.97347 0.04783 0.5883 0.0
C275 C 0.02274 0.08281 0.36984 0.0
O276 O 0.95334 0.9534 0.4844 0.0
O277 O 0.92424 0.99281 0.4401 0.0
O278 O 0.03237 0.08315 0.52321 0.0
O279 O 0.06579 0.03314 0.53163 0.0
O280 O 0.97288 0.92183 0.57708 0.0
O281 O 0.03553 0.95663 0.63072 0.0
O282 O 0.03451 0.10139 0.41709 0.0
O283 O 0.99413 0.04671 0.35483 0.0
H284 H 0.05991 0.0378 0.66836 0.0
H285 H 0.95433 0.03384 0.54944 0.0
H286 H 0.05141 0.82979 0.51445 0.0
H287 H 0.16655 0.93749 0.57732 0.0
H288 H 0.84411 0.05645 0.32329 0.0
H289 H 0.90583 0.16911 0.45068 0.0
H290 H 0.1039 0.95709 0.4155 0.0
H291 H 0.97405 0.88923 0.32243 0.0
H292 H 0.04134 0.09369 0.72761 0.0
H293 H 0.93363 0.08962 0.60572 0.0
Cd294 Cd 0.44979 0.9652 0.04769 0.0
Cd295 Cd 0.55665 0.03482 0.94217 0.0
C296 C 0.52845 0.9361 0.10744 0.0
N297 N 0.50818 0.93501 0.05949 0.0
C298 C 0.55873 0.90215 0.02605 0.0
C299 C 0.58025 0.90294 0.07511 0.0
C300 C 0.5647 0.92003 0.11615 0.0
C301 C 0.52235 0.91822 0.01901 0.0
H302 H 0.51661 0.9498 0.13892 0.0
H303 H 0.50542 0.91705 0.98115 0.0
C304 C 0.45749 0.96128 0.91413 0.0
C305 C 0.47362 0.06383 0.89918 0.0
C306 C 0.437 0.07903 0.89832 0.0
C307 C 0.43266 0.1045 0.94313 0.0
C308 C 0.46614 0.11502 0.98781 0.0
C309 C 0.50196 0.09829 0.98717 0.0
N310 N 0.50438 0.07238 0.94346 0.0
H311 H 0.47685 0.04391 0.86474 0.0
H312 H 0.5273 0.10525 0.02167 0.0
C313 C 0.57782 0.94073 0.90278 0.0
N314 N 0.5969 0.98241 0.93068 0.0
C315 C 0.66769 0.9703 0.93744 0.0
C316 C 0.64918 0.92754 0.90699 0.0
C317 C 0.6034 0.91267 0.8907 0.0
C318 C 0.64097 0.99717 0.9487 0.0
H319 H 0.5428 0.92951 0.88834 0.0
H320 H 0.65556 0.03038 0.97071 0.0
C321 C 0.54432 0.04008 0.07188 0.0
C322 C 0.39638 0.90443 0.09198 0.0
N323 N 0.41691 0.02338 0.06667 0.0
C324 C 0.41677 0.03693 0.11618 0.0
C325 C 0.39572 0.06827 0.1318 0.0
C326 C 0.37482 0.08666 0.09644 0.0
C327 C 0.37644 0.07312 0.04579 0.0
C328 C 0.39767 0.04123 0.03156 0.0
C329 C 0.6102 0.09943 0.90287 0.0
O330 O 0.46454 0.97013 0.96231 0.0
O331 O 0.48704 0.97773 0.89419 0.0
O332 O 0.53814 0.02631 0.02407 0.0
O333 O 0.51683 0.02271 0.0934 0.0
O334 O 0.39161 0.89629 0.04405 0.0
O335 O 0.42508 0.93914 0.11793 0.0
O336 O 0.61985 0.09954 0.94958 0.0
O337 O 0.57626 0.0702 0.87498 0.0
H338 H 0.43251 0.02283 0.14371 0.0
H339 H 0.39807 0.0303 0.99238 0.0
H340 H 0.56929 0.88836 0.99343 0.0
H341 H 0.58051 0.92098 0.15455 0.0
H342 H 0.41233 0.0708 0.86288 0.0
H343 H 0.46406 0.135 0.02299 0.0
H344 H 0.70262 0.98312 0.95229 0.0
H345 H 0.58746 0.88013 0.86707 0.0
H346 H 0.39549 0.07785 0.17128 0.0
H347 H 0.36019 0.08605 0.01734 0.0
Cd348 Cd 0.98572 0.47417 0.06621 0.0
Cd349 Cd 0.03247 0.53346 0.93237 0.0
C350 C 0.07119 0.45584 0.14148 0.0
N351 N 0.04296 0.44125 0.09434 0.0
C352 C 0.0753 0.38259 0.07411 0.0
C353 C 0.10479 0.39661 0.12253 0.0
C354 C 0.10238 0.43405 0.1563 0.0
C355 C 0.04485 0.40539 0.0608 0.0
H356 H 0.06917 0.48406 0.16803 0.0
H357 H 0.02221 0.39404 0.02356 0.0
C358 C 0.95545 0.4564 0.93045 0.0
C359 C 0.9497 0.55738 0.86176 0.0
C360 C 0.92091 0.58199 0.84892 0.0
C361 C 0.91921 0.61795 0.88552 0.0
C362 C 0.94566 0.62688 0.93504 0.0
C363 C 0.97366 0.60128 0.94634 0.0
N364 N 0.9757 0.56753 0.9098 0.0
H365 H 0.95216 0.53096 0.83292 0.0
H366 H 0.99482 0.60917 0.98417 0.0
C367 C 0.064 0.46248 0.85462 0.0
N368 N 0.06867 0.47927 0.905 0.0
C369 C 0.11596 0.43489 0.92525 0.0
C370 C 0.11185 0.41693 0.87343 0.0
C371 C 0.08533 0.4314 0.83806 0.0
C372 C 0.09404 0.46592 0.94018 0.0
H373 H 0.04374 0.47333 0.8271 0.0
H374 H 0.09762 0.47966 0.98007 0.0
C375 C 0.05793 0.55662 0.06853 0.0
C376 C 0.91901 0.40206 0.05679 0.0
N377 N 0.94933 0.52647 0.0996 0.0
C378 C 0.95618 0.54293 0.15051 0.0
C379 C 0.93442 0.57286 0.16947 0.0
C380 C 0.90517 0.58645 0.13597 0.0
C381 C 0.89885 0.56877 0.08359 0.0
C382 C 0.92136 0.53907 0.06628 0.0
C383 C 0.09107 0.60492 0.9227 0.0
O384 O 0.9762 0.47452 0.97646 0.0
O385 O 0.96811 0.47192 0.89648 0.0
O386 O 0.04108 0.53688 0.02215 0.0
O387 O 0.04514 0.5398 0.10152 0.0
O388 O 0.93445 0.40642 0.01947 0.0
O389 O 0.93517 0.4315 0.09854 0.0
O390 O 0.08484 0.60329 0.96575 0.0
O391 O 0.07122 0.57232 0.88496 0.0
H392 H 0.97852 0.53276 0.1766 0.0
H393 H 0.91619 0.52576 0.02599 0.0
H394 H 0.07574 0.35412 0.04659 0.0
H395 H 0.1236 0.4458 0.1944 0.0
H396 H 0.90133 0.57392 0.81022 0.0
H397 H 0.94508 0.65376 0.96475 0.0
H398 H 0.13669 0.42581 0.9542 0.0
H399 H 0.08085 0.4186 0.79774 0.0
H400 H 0.94068 0.58545 0.21011 0.0
H401 H 0.87599 0.57706 0.05597 0.0
Cd402 Cd 0.48462 0.43959 0.04181 0.0
Cd403 Cd 0.49501 0.55565 0.95734 0.0
C404 C 0.55939 0.41075 0.00654 0.0
N405 N 0.51705 0.39127 0.00219 0.0
C406 C 0.53558 0.32983 0.0224 0.0
C407 C 0.57999 0.35204 0.03491 0.0
C408 C 0.59179 0.39154 0.02313 0.0
C409 C 0.50424 0.35024 0.00578 0.0
H410 H 0.56865 0.4441 0.00584 0.0
H411 H 0.47051 0.33623 0.00391 0.0
C412 C 0.4286 0.46928 0.94076 0.0
C413 C 0.41944 0.57974 0.89635 0.0
C414 C 0.39084 0.60183 0.87853 0.0
C415 C 0.38739 0.6388 0.91111 0.0
C416 C 0.41071 0.6512 0.96239 0.0
C417 C 0.43896 0.62747 0.97905 0.0
N418 N 0.44317 0.59298 0.9455 0.0
H419 H 0.42434 0.55312 0.87006 0.0
H420 H 0.45897 0.63776 0.01771 0.0
C421 C 0.51397 0.46853 0.90133 0.0
N422 N 0.53378 0.50575 0.93869 0.0
C423 C 0.60386 0.49532 0.93709 0.0
C424 C 0.58383 0.458 0.8969 0.0
C425 C 0.53838 0.44309 0.88158 0.0
C426 C 0.57781 0.51891 0.95783 0.0
H427 H 0.4797 0.46004 0.88332 0.0
H428 H 0.5928 0.54949 0.98616 0.0
C429 C 0.54291 0.54261 0.06615 0.0
C430 C 0.48822 0.41723 0.13298 0.0
N431 N 0.41919 0.452 0.04838 0.0
C432 C 0.43183 0.49118 0.0826 0.0
C433 C 0.40139 0.51118 0.09627 0.0
C434 C 0.35718 0.49061 0.07482 0.0
C435 C 0.34415 0.44943 0.04043 0.0
C436 C 0.37639 0.43022 0.02758 0.0
C437 C 0.5396 0.59392 0.89535 0.0
O438 O 0.45925 0.47467 0.9794 0.0
O439 O 0.43002 0.49915 0.91908 0.0
O440 O 0.50791 0.54962 0.0446 0.0
O441 O 0.54294 0.50537 0.07206 0.0
O442 O 0.46617 0.39086 0.09054 0.0
O443 O 0.50977 0.45438 0.13298 0.0
O444 O 0.54958 0.61284 0.94277 0.0
O445 O 0.50905 0.55925 0.87896 0.0
H446 H 0.46603 0.50701 0.09924 0.0
H447 H 0.36736 0.39855 0.00119 0.0
H448 H 0.5253 0.29922 0.03082 0.0
H449 H 0.62557 0.41 0.03292 0.0
H450 H 0.37333 0.59151 0.83875 0.0
H451 H 0.40894 0.67999 0.98826 0.0
H452 H 0.63898 0.50767 0.94967 0.0
H453 H 0.52192 0.41401 0.8511 0.0
H454 H 0.4123 0.5427 0.1235 0.0
H455 H 0.30999 0.43277 0.02387 0.0
Cd456 Cd 0.95197 0.46493 0.55171 0.0
Cd457 Cd 0.05732 0.53152 0.44252 0.0
C458 C 0.03447 0.44215 0.61133 0.0
N459 N 0.01031 0.43447 0.56301 0.0
C460 C 0.05513 0.39241 0.53105 0.0
C461 C 0.0798 0.39893 0.58074 0.0
C462 C 0.06972 0.42491 0.62105 0.0
C463 C 0.02011 0.41049 0.52299 0.0
H464 H 0.02622 0.46163 0.64242 0.0
H465 H 1.00044 0.40481 0.4849 0.0
C466 C 0.95839 0.45498 0.41595 0.0
C467 C 0.9793 0.55994 0.37937 0.0
C468 C 0.94315 0.57615 0.37017 0.0
C469 C 0.92822 0.59449 0.41114 0.0
C470 C 0.95001 0.59647 0.46046 0.0
C471 C 0.98632 0.58047 0.46796 0.0
N472 N 0.99985 0.56219 0.42766 0.0
H473 H 0.99073 0.5451 0.34809 0.0
H474 H 0.00361 0.58278 0.50604 0.0
C475 C 0.08001 0.44619 0.38456 0.0
N476 N 0.09352 0.47592 0.43056 0.0
C477 C 0.15342 0.44648 0.45507 0.0
C478 C 0.14086 0.41613 0.40726 0.0
C479 C 0.10306 0.41586 0.37224 0.0
C480 C 0.12922 0.47623 0.46595 0.0
H481 H 0.05204 0.44692 0.35664 0.0
H482 H 0.13968 0.50035 0.50215 0.0
C483 C 0.04605 0.54205 0.5745 0.0
C484 C 0.89967 0.40271 0.59505 0.0
N485 N 0.91842 0.52271 0.5712 0.0
C486 C 0.93213 0.54936 0.61922 0.0
C487 C 0.91229 0.5821 0.63392 0.0
C488 C 0.87716 0.58723 0.59938 0.0
C489 C 0.86327 0.559 0.55019 0.0
C490 C 0.88465 0.52709 0.5367 0.0
C491 C 0.11447 0.59415 0.40324 0.0
O492 O 0.9641 0.46467 0.46408 0.0
O493 O 0.98745 0.47339 0.39668 0.0
O494 O 0.04092 0.52828 0.52683 0.0
O495 O 0.01792 0.52472 0.59529 0.0
O496 O 0.88645 0.4047 0.54964 0.0
O497 O 0.93621 0.42909 0.62001 0.0
O498 O 0.11436 0.60224 0.45004 0.0
O499 O 0.08903 0.558 0.37556 0.0
H500 H 0.95805 0.54468 0.6466 0.0
H501 H 0.87372 0.50531 0.49891 0.0
H502 H 0.06198 0.37247 0.49906 0.0
H503 H 0.08854 0.43129 0.65984 0.0
H504 H 0.92685 0.57416 0.33158 0.0
H505 H 0.93955 0.61096 0.49285 0.0
H506 H 0.1819 0.44754 0.48357 0.0
H507 H 0.09225 0.3934 0.33481 0.0
H508 H 0.92362 0.60255 0.67251 0.0
H509 H 0.83619 0.56163 0.52245 0.0
Cd510 Cd 0.48913 0.97657 0.57334 0.0
Cd511 Cd 0.5317 0.03019 0.42515 0.0
C512 C 0.57902 0.96162 0.6436 0.0
N513 N 0.54936 0.94615 0.59743 0.0
C514 C 0.58071 0.88678 0.57701 0.0
C515 C 0.61149 0.90156 0.62457 0.0
C516 C 0.61041 0.9399 0.65785 0.0
C517 C 0.5501 0.90955 0.56419 0.0
H518 H 0.57765 0.9902 0.67009 0.0
H519 H 0.52603 0.89729 0.52794 0.0
C520 C 0.45937 0.94904 0.43451 0.0
C521 C 0.47495 0.07911 0.35621 0.0
C522 C 0.44546 0.10273 0.34268 0.0
C523 C 0.41255 0.10616 0.36785 0.0
C524 C 0.4099 0.08429 0.40567 0.0
C525 C 0.44039 0.06126 0.4184 0.0
N526 N 0.4725 0.05933 0.39403 0.0
H527 H 0.50078 0.07785 0.33748 0.0
H528 H 0.43933 0.04623 0.44908 0.0
C529 C 0.5531 0.95365 0.34274 0.0
N530 N 0.56605 0.97574 0.3928 0.0
C531 C 0.61828 0.93504 0.40781 0.0
C532 C 0.60561 0.91156 0.35629 0.0
C533 C 0.5725 0.92157 0.32371 0.0
C534 C 0.59799 0.96682 0.42526 0.0
H535 H 0.52754 0.96085 0.31741 0.0
H536 H 0.60792 0.98454 0.4649 0.0
C537 C 0.56291 0.05462 0.56186 0.0
C538 C 0.43593 0.89906 0.57515 0.0
N539 N 0.45092 0.02616 0.61144 0.0
C540 C 0.47106 0.0584 0.655 0.0
C541 C 0.44875 0.08712 0.67582 0.0
C542 C 0.40489 0.08301 0.65207 0.0
C543 C 0.38518 0.04955 0.60695 0.0
C544 C 0.40865 0.02156 0.58743 0.0
C545 C 0.59241 0.10304 0.41981 0.0
O546 O 0.47734 0.96935 0.48083 0.0
O547 O 0.4713 0.96491 0.40032 0.0
O548 O 0.54276 0.03503 0.51606 0.0
O549 O 0.55071 0.04034 0.59685 0.0
O550 O 0.43127 0.91157 0.5349 0.0
O551 O 0.46372 0.92423 0.61509 0.0
O552 O 0.58086 0.10226 0.46048 0.0
O553 O 0.57701 0.06913 0.3828 0.0
H554 H 0.50471 0.06217 0.67362 0.0
H555 H 0.39294 0.99603 0.5528 0.0
H556 H 0.58004 0.85755 0.54993 0.0
H557 H 0.63264 0.95226 0.69536 0.0
H558 H 0.44879 0.11876 0.31313 0.0
H559 H 0.38562 0.08641 0.42673 0.0
H560 H 0.64425 0.92956 0.43442 0.0
H561 H 0.56135 0.90448 0.2838 0.0
H562 H 0.46611 0.11281 0.70985 0.0
H563 H 0.35159 0.04466 0.58702 0.0
C564 C 0.06797 0.08962 0.25676 0.0
C565 C 0.09258 0.13285 0.27088 0.0
C566 C 0.04372 0.07388 0.28811 0.0
C567 C 0.04354 0.10104 0.33439 0.0
H568 H 0.06917 0.06756 0.22259 0.0
H569 H 0.02662 0.03988 0.27709 0.0
S570 S 0.09663 0.21858 0.38343 0.0
N571 N 0.11071 0.20373 0.33024 0.0
N572 N 0.06575 0.17421 0.38958 0.0
C573 C 0.06584 0.14492 0.34716 0.0
C574 C 0.09023 0.16084 0.31523 0.0
C575 C 0.82311 0.16448 0.2834 0.0
C576 C 0.80089 0.19109 0.30785 0.0
C577 C 0.84463 0.13962 0.30834 0.0
C578 C 0.84484 0.14026 0.35878 0.0
H579 H 0.82421 0.16289 0.2446 0.0
H580 H 0.86213 0.12046 0.28819 0.0
S581 S 0.79105 0.20352 0.43995 0.0
N582 N 0.78042 0.21635 0.38574 0.0
N583 N 0.82026 0.1686 0.43222 0.0
C584 C 0.82248 0.16622 0.38373 0.0
C585 C 0.80057 0.19179 0.35833 0.0
C586 C 0.84008 0.88419 0.33409 0.0
C587 C 0.84202 0.84322 0.3391 0.0
C588 C 0.86343 0.92107 0.37297 0.0
C589 C 0.89032 0.91825 0.41768 0.0
H590 H 0.81973 0.8878 0.30032 0.0
H591 H 0.86158 0.95203 0.36689 0.0
S592 S 0.90372 0.8174 0.45007 0.0
N593 N 0.87038 0.80107 0.3926 0.0
N594 N 0.91497 0.87055 0.46596 0.0
C595 C 0.89121 0.8771 0.42377 0.0
C596 C 0.86714 0.83955 0.38422 0.0
C597 C 0.0924 0.87321 0.26958 0.0
C598 C 0.11892 0.85235 0.29553 0.0
C599 C 0.06244 0.89 0.29112 0.0
C600 C 0.05911 0.88705 0.33961 0.0
H601 H 0.09688 0.8788 0.23398 0.0
H602 H 0.04479 0.90878 0.27192 0.0
S603 S 0.11861 0.83197 0.42048 0.0
N604 N 0.13737 0.826 0.36952 0.0
N605 N 0.08173 0.85882 0.41091 0.0
C606 C 0.08316 0.86352 0.36417 0.0
C607 C 0.11303 0.84578 0.34183 0.0
C608 C 0.19608 0.83 0.6082 0.0
C609 C 0.17907 0.81814 0.64727 0.0
C610 C 0.17365 0.84872 0.57457 0.0
C611 C 0.1331 0.85512 0.57827 0.0
H612 H 0.2274 0.82574 0.60424 0.0
H613 H 0.1883 0.8588 0.54606 0.0
S614 S 0.0736 0.8284 0.67227 0.0
N615 N 0.1186 0.81322 0.68645 0.0
N616 N 0.07653 0.84813 0.62326 0.0
C617 C 0.11527 0.8425 0.61626 0.0
C618 C 0.13826 0.82407 0.6508 0.0
C619 C 0.1547 0.11236 0.66682 0.0
C620 C 0.14944 0.15268 0.68811 0.0
C621 C 0.12555 0.08555 0.62181 0.0
C622 C 0.09028 0.09831 0.59715 0.0
H623 H 0.18346 0.10316 0.68248 0.0
H624 H 0.13203 0.05564 0.60518 0.0
S625 S 0.0594 0.19861 0.64401 0.0
N626 N 0.1048 0.20267 0.68596 0.0
N627 N 0.04893 0.15187 0.60154 0.0
C628 C 0.08297 0.13732 0.62074 0.0
C629 C 0.1128 0.16457 0.66643 0.0
C630 C 0.92598 0.17514 0.71541 0.0
C631 C 0.90842 0.15734 0.75068 0.0
C632 C 0.95564 0.15817 0.69346 0.0
C633 C 0.96872 0.12319 0.70642 0.0
H634 H 0.91358 0.19928 0.70095 0.0
H635 H 0.96536 0.16989 0.66299 0.0
S636 S 0.93948 0.07197 0.80504 0.0
N637 N 0.91208 0.10864 0.80435 0.0
N638 N 0.96735 0.07592 0.76229 0.0
C639 C 0.95552 0.10876 0.74605 0.0
C640 C 0.92535 0.12607 0.76838 0.0
C641 C 0.93182 0.854 0.67643 0.0
C642 C 0.93714 0.87997 0.72554 0.0
C643 C 0.95449 0.86897 0.64354 0.0
C644 C 0.98392 0.91012 0.65888 0.0
H645 H 0.90879 0.82238 0.66258 0.0
H646 H 0.94762 0.84888 0.60514 0.0
S647 S 0.01237 0.9896 0.78447 0.0
N648 N 0.97577 0.94809 0.78863 0.0
N649 N 0.01962 0.9757 0.72709 0.0
C650 C 0.99199 0.93531 0.70891 0.0
C651 C 0.9683 0.92034 0.74226 0.0
C652 C 0.2956 0.13559 0.15721 0.0
C653 C 0.30474 0.17815 0.15251 0.0
C654 C 0.31785 0.10635 0.13821 0.0
C655 C 0.34969 0.11788 0.11262 0.0
H656 H 0.27233 0.12522 0.17783 0.0
H657 H 0.31041 0.07446 0.1442 0.0
S658 S 0.38337 0.22402 0.08629 0.0
N659 N 0.34669 0.22972 0.11841 0.0
N660 N 0.38751 0.17424 0.08108 0.0
C661 C 0.35791 0.1597 0.10565 0.0
C662 C 0.33585 0.18995 0.12611 0.0
C663 C 0.83163 0.33016 0.09171 0.0
C664 C 0.8341 0.28868 0.06846 0.0
C665 C 0.85702 0.36683 0.08445 0.0
C666 C 0.88545 0.36334 0.05336 0.0
H667 H 0.81319 0.33464 0.11963 0.0
H668 H 0.85643 0.39819 0.1059 0.0
S669 S 0.89803 0.26222 0.97677 0.0
N670 N 0.8629 0.24596 0.00846 0.0
N671 N 0.91027 0.31551 0.9932 0.0
C672 C 0.88491 0.32216 0.02555 0.0
C673 C 0.85937 0.28459 0.03369 0.0
C674 C 0.64907 0.83307 0.12 0.0
C675 C 0.68614 0.84445 0.10222 0.0
C676 C 0.61511 0.85226 0.11097 0.0
C677 C 0.61686 0.88327 0.08343 0.0
H678 H 0.64649 0.8091 0.14114 0.0
H679 H 0.58711 0.84253 0.12535 0.0
S680 S 0.7074 0.92412 0.02941 0.0
N681 N 0.7231 0.88807 0.05624 0.0
N682 N 0.65896 0.92471 0.03871 0.0
C683 C 0.65359 0.89449 0.06479 0.0
C684 C 0.68832 0.87487 0.07428 0.0
C685 C 0.16538 0.63978 0.10238 0.0
C686 C 0.15895 0.67386 0.13765 0.0
C687 C 0.13116 0.60283 0.07613 0.0
C688 C 0.08981 0.59887 0.08488 0.0
H689 H 0.19764 0.64046 0.09744 0.0
H690 H 0.13787 0.57604 0.05184 0.0
S691 S 0.05425 0.68065 0.16745 0.0
N692 N 0.10649 0.70299 0.17503 0.0
N693 N 0.04259 0.63297 0.12629 0.0
C694 C 0.08202 0.63382 0.11672 0.0
C695 C 0.11653 0.67168 0.14285 0.0
C696 C 0.37646 0.87858 0.8002 0.0
C697 C 0.33894 0.8685 0.8177 0.0
C698 C 0.41443 0.90921 0.83136 0.0
C699 C 0.41646 0.93058 0.88136 0.0
H700 H 0.377 0.86192 0.76255 0.0
H701 H 0.44276 0.91524 0.81655 0.0
S702 S 0.32601 0.91951 0.94388 0.0
N703 N 0.3052 0.88515 0.88711 0.0
N704 N 0.37686 0.94227 0.94574 0.0
C705 C 0.37876 0.92215 0.89875 0.0
C706 C 0.3399 0.8913 0.86686 0.0
C707 C 0.18004 0.35882 0.80045 0.0
C708 C 0.18253 0.3234 0.82063 0.0
C709 C 0.15726 0.3884 0.81753 0.0
C710 C 0.13593 0.38449 0.85611 0.0
H711 H 0.19607 0.36408 0.77113 0.0
H712 H 0.15688 0.41502 0.80065 0.0
S713 S 0.13141 0.29725 0.92148 0.0
N714 N 0.16103 0.28617 0.88151 0.0
N715 N 0.11819 0.34139 0.91335 0.0
C716 C 0.13821 0.34932 0.87687 0.0
C717 C 0.16143 0.31902 0.85931 0.0
C718 C 0.64262 0.16902 0.81397 0.0
C719 C 0.68768 0.18856 0.8349 0.0
C720 C 0.61814 0.14066 0.83609 0.0
C721 C 0.63705 0.13122 0.88121 0.0
H722 H 0.62633 0.17451 0.7791 0.0
H723 H 0.5839 0.12591 0.81747 0.0
S724 S 0.75353 0.17598 0.95305 0.0
N725 N 0.74996 0.19684 0.90415 0.0
N726 N 0.7041 0.14577 0.94674 0.0
C727 C 0.68186 0.15174 0.90335 0.0
C728 C 0.70702 0.17962 0.87999 0.0
C729 C 0.82096 0.65543 0.82907 0.0
C730 C 0.83783 0.70054 0.8392 0.0
C731 C 0.84712 0.62915 0.84451 0.0
C732 C 0.89127 0.64673 0.87156 0.0
H733 H 0.78756 0.63989 0.80733 0.0
H734 H 0.83269 0.59464 0.83482 0.0
S735 S 0.95155 0.76283 0.90904 0.0
N736 N 0.90187 0.76147 0.87908 0.0
N737 N 0.95051 0.7124 0.90831 0.0
C738 C 0.90828 0.69186 0.88317 0.0
C739 C 0.8818 0.71858 0.86698 0.0
C740 C 0.14977 0.30135 0.14414 0.0
C741 C 0.19388 0.3207 0.17098 0.0
C742 C 0.12185 0.32585 0.12786 0.0
C743 C 0.13627 0.37116 0.13808 0.0
H744 H 0.13622 0.26687 0.13651 0.0
H745 H 0.08814 0.30914 0.10839 0.0
S746 S 0.24923 0.43802 0.20426 0.0
N747 N 0.25093 0.38843 0.20491 0.0
N748 N 0.19867 0.43408 0.17451 0.0
C749 C 0.18054 0.3909 0.16372 0.0
C750 C 0.20917 0.36588 0.17994 0.0
C751 C 0.13129 0.72306 0.93051 0.0
C752 C 0.14955 0.7214 0.88914 0.0
C753 C 0.11522 0.68518 0.94388 0.0
C754 C 0.11617 0.64472 0.91533 0.0
H755 H 0.12802 0.75345 0.95123 0.0
H756 H 0.09957 0.68728 0.97467 0.0
S757 S 0.16332 0.62406 0.80555 0.0
N758 N 0.16978 0.67668 0.82145 0.0
N759 N 0.13953 0.60575 0.8464 0.0
C760 C 0.13614 0.64309 0.87536 0.0
C761 C 0.15276 0.68142 0.86218 0.0
C762 C 0.36497 0.184 0.95545 0.0
C763 C 0.32286 0.15824 0.92843 0.0
C764 C 0.40011 0.16597 0.96242 0.0
C765 C 0.39425 0.12161 0.94222 0.0
H766 H 0.37126 0.21871 0.9684 0.0
H767 H 0.4324 0.18727 0.9812 0.0
S768 S 0.28929 0.0398 0.87423 0.0
N769 N 0.27642 0.08613 0.88535 0.0
N770 N 0.34237 0.05167 0.89896 0.0
C771 C 0.35181 0.09517 0.91773 0.0
C772 C 0.31613 0.11364 0.91071 0.0
C773 C 0.89185 0.34081 0.8684 0.0
C774 C 0.84866 0.34182 0.8675 0.0
C775 C 0.92669 0.37779 0.89141 0.0
C776 C 0.91974 0.41669 0.91544 0.0
H777 H 0.89865 0.31219 0.84804 0.0
H778 H 0.95908 0.37647 0.88848 0.0
S779 S 0.81453 0.43496 0.93129 0.0
N780 N 0.80177 0.38404 0.89783 0.0
N781 N 0.86787 0.45338 0.94216 0.0
C782 C 0.87751 0.41745 0.91862 0.0
C783 C 0.84178 0.37994 0.8945 0.0
C784 C 0.69062 0.82741 0.87106 0.0
C785 C 0.72697 0.84258 0.85328 0.0
C786 C 0.66651 0.85512 0.88963 0.0
C787 C 0.67724 0.8992 0.89066 0.0
H788 H 0.68004 0.79356 0.86955 0.0
H789 H 0.63881 0.84169 0.90265 0.0
S790 S 0.76819 0.95483 0.84615 0.0
N791 N 0.77216 0.90487 0.83766 0.0
N792 N 0.72635 0.95617 0.87067 0.0
C793 C 0.71384 0.91484 0.8735 0.0
C794 C 0.73873 0.88681 0.85531 0.0
C795 C 0.83753 0.64086 0.21417 0.0
C796 C 0.83045 0.67464 0.19268 0.0
C797 C 0.86199 0.61325 0.19626 0.0
C798 C 0.88054 0.61765 0.15559 0.0
H799 H 0.8236 0.63517 0.24493 0.0
H800 H 0.86555 0.58755 0.21387 0.0
S801 S 0.87469 0.70257 0.08786 0.0
N802 N 0.84603 0.71178 0.12943 0.0
N803 N 0.89205 0.66048 0.09632 0.0
C804 C 0.87447 0.65178 0.13431 0.0
C805 C 0.84955 0.67999 0.15263 0.0
C806 C 0.33103 0.80373 0.12212 0.0
C807 C 0.32205 0.821 0.16853 0.0
C808 C 0.35376 0.83054 0.09675 0.0
C809 C 0.36997 0.87581 0.11738 0.0
H810 H 0.31988 0.76923 0.10486 0.0
H811 H 0.35948 0.8155 0.06119 0.0
S812 S 0.35682 0.93716 0.23896 0.0
N813 N 0.33186 0.88659 0.23387 0.0
N814 N 0.37531 0.93608 0.18804 0.0
C815 C 0.36161 0.89318 0.16409 0.0
C816 C 0.33759 0.86615 0.18906 0.0
C817 C 0.64686 0.13129 0.1063 0.0
C818 C 0.64723 0.1551 0.15464 0.0
C819 C 0.61362 0.09382 0.07999 0.0
C820 C 0.57975 0.07872 0.10124 0.0
H821 H 0.67222 0.14177 0.08834 0.0
H822 H 0.61449 0.07661 0.04273 0.0
S823 S 0.56596 0.12907 0.22721 0.0
N824 N 0.61096 0.16081 0.22297 0.0
N825 N 0.54863 0.09021 0.1737 0.0
C826 C 0.57992 0.10196 0.14983 0.0
C827 C 0.6136 0.14026 0.17646 0.0
C828 C 0.61465 0.66704 0.84295 0.0
C829 C 0.60945 0.64142 0.79364 0.0
C830 C 0.59186 0.65165 0.8757 0.0
C831 C 0.56288 0.61017 0.86019 0.0
H832 H 0.63639 0.69935 0.8563 0.0
H833 H 0.59697 0.67242 0.91332 0.0
S834 S 0.53863 0.53001 0.73515 0.0
N835 N 0.57414 0.57245 0.73137 0.0
N836 N 0.53059 0.54342 0.79214 0.0
C837 C 0.55719 0.58432 0.81076 0.0
C838 C 0.58058 0.6 0.77763 0.0
C839 C 0.35064 0.69934 0.8189 0.0
C840 C 0.31182 0.70612 0.82928 0.0
C841 C 0.37614 0.67997 0.84797 0.0
C842 C 0.36379 0.66628 0.88841 0.0
H843 H 0.36129 0.70846 0.7875 0.0
H844 H 0.40513 0.67426 0.83762 0.0
S845 S 0.26716 0.679 0.93413 0.0
N846 N 0.26385 0.70009 0.88544 0.0
N847 N 0.31193 0.66256 0.93957 0.0
C848 C 0.32631 0.67441 0.90097 0.0
C849 C 0.30022 0.69455 0.87143 0.0
C850 C 0.38391 0.34976 0.88423 0.0
C851 C 0.3474 0.34792 0.84648 0.0
C852 C 0.40899 0.38936 0.91775 0.0
C853 C 0.39729 0.42755 0.9149 0.0
H854 H 0.3936 0.32072 0.88697 0.0
H855 H 0.43848 0.3903 0.94449 0.0
S856 S 0.29923 0.43751 0.8292 0.0
N857 N 0.2974 0.38589 0.81206 0.0
N858 N 0.3437 0.46019 0.87621 0.0
C859 C 0.35893 0.42533 0.87971 0.0
C860 C 0.33415 0.38543 0.84504 0.0
C861 C 0.66524 0.40051 0.85762 0.0
C862 C 0.65147 0.39011 0.80421 0.0
C863 C 0.64424 0.4238 0.88797 0.0
C864 C 0.60911 0.43767 0.86579 0.0
H865 H 0.69206 0.39015 0.87616 0.0
H866 H 0.65465 0.42985 0.92879 0.0
S867 S 0.56298 0.42285 0.72861 0.0
N868 N 0.60118 0.39715 0.73104 0.0
N869 N 0.56427 0.44372 0.78817 0.0
C870 C 0.59671 0.4298 0.8128 0.0
C871 C 0.61726 0.40533 0.78194 0.0
C872 C 0.63377 0.32222 0.15083 0.0
C873 C 0.67483 0.32013 0.14361 0.0
C874 C 0.60323 0.33149 0.11478 0.0
C875 C 0.61242 0.33928 0.06999 0.0
H876 H 0.62453 0.3156 0.18404 0.0
H877 H 0.57225 0.33309 0.12244 0.0
S878 S 0.71583 0.34 0.0337 0.0
N879 N 0.72371 0.32851 0.08892 0.0
N880 N 0.66595 0.34567 0.02098 0.0
C881 C 0.65363 0.33833 0.06265 0.0
C882 C 0.68485 0.32877 0.09942 0.0
C883 C 0.6485 0.60705 0.16063 0.0
C884 C 0.65157 0.64876 0.15528 0.0
C885 C 0.61409 0.57255 0.12982 0.0
C886 C 0.58114 0.57889 0.09342 0.0
H887 H 0.67283 0.60102 0.18892 0.0
H888 H 0.61276 0.54097 0.13588 0.0
S889 S 0.57566 0.68251 0.06404 0.0
N890 N 0.62065 0.69502 0.11014 0.0
N891 N 0.55459 0.63004 0.05269 0.0
C892 C 0.58445 0.62053 0.08697 0.0
C893 C 0.62009 0.65558 0.11786 0.0
C894 C 0.31143 0.54655 0.16995 0.0
C895 C 0.31536 0.58628 0.15787 0.0
C896 C 0.31708 0.51094 0.13701 0.0
C897 C 0.32693 0.51415 0.09117 0.0
H898 H 0.30678 0.54383 0.20649 0.0
H899 H 0.31897 0.48262 0.15015 0.0
S900 S 0.33343 0.60815 0.03801 0.0
N901 N 0.32388 0.62469 0.09374 0.0
N902 N 0.33411 0.55737 0.03181 0.0
C903 C 0.32549 0.55175 0.07588 0.0
C904 C 0.32009 0.58814 0.10946 0.0
C905 C 0.44789 0.42304 0.24911 0.0
C906 C 0.43901 0.37968 0.25001 0.0
C907 C 0.46928 0.43682 0.2144 0.0
C908 C 0.48193 0.40734 0.1799 0.0
H909 H 0.43455 0.44519 0.27175 0.0
H910 H 0.47178 0.46937 0.21107 0.0
S911 S 0.47682 0.29375 0.17771 0.0
N912 N 0.45222 0.30992 0.22154 0.0
N913 N 0.4921 0.33566 0.15568 0.0
C914 C 0.47793 0.36541 0.18489 0.0
C915 C 0.45646 0.35155 0.22026 0.0
C916 C 0.78902 0.64053 0.63227 0.0
C917 C 0.81241 0.68398 0.65673 0.0
C918 C 0.80962 0.60988 0.61181 0.0
C919 C 0.85467 0.6211 0.61558 0.0
H920 H 0.75474 0.62966 0.63036 0.0
H921 H 0.79046 0.57669 0.59485 0.0
S922 S 0.93049 0.73077 0.67136 0.0
N923 N 0.88319 0.73679 0.67968 0.0
N924 N 0.92134 0.67926 0.64218 0.0
C925 C 0.87808 0.66459 0.63796 0.0
C926 C 0.85714 0.69593 0.65815 0.0
C927 C 0.40472 0.79749 0.61542 0.0
C928 C 0.36051 0.78087 0.5896 0.0
C929 C 0.42949 0.83514 0.60891 0.0
C930 C 0.4108 0.8567 0.57578 0.0
H931 H 0.41902 0.78352 0.64411 0.0
H932 H 0.46294 0.84842 0.6315 0.0
S933 S 0.29754 0.82233 0.49479 0.0
N934 N 0.2999 0.78585 0.52682 0.0
N935 N 0.34678 0.85623 0.51301 0.0
C936 C 0.36763 0.83817 0.54643 0.0
C937 C 0.34235 0.80022 0.55374 0.0
C938 C 0.18035 0.35821 0.57697 0.0
C939 C 0.18104 0.33531 0.61391 0.0
C940 C 0.14724 0.3786 0.56577 0.0
C941 C 0.11399 0.37648 0.59124 0.0
H942 H 0.20579 0.36073 0.55726 0.0
H943 H 0.148 0.39664 0.53771 0.0
S944 S 0.09829 0.31524 0.68588 0.0
N945 N 0.14355 0.30801 0.67204 0.0
N946 N 0.08177 0.34628 0.65138 0.0
C947 C 0.11368 0.35226 0.62684 0.0
C948 C 0.14708 0.33163 0.63805 0.0
C949 C 0.62604 0.16875 0.6279 0.0
C950 C 0.6694 0.16645 0.63371 0.0
C951 C 0.59112 0.13302 0.6001 0.0
C952 C 0.59835 0.09428 0.57606 0.0
H953 H 0.61878 0.19709 0.64824 0.0
H954 H 0.55829 0.13478 0.6002 0.0
S955 S 0.7049 0.07359 0.57182 0.0
N956 N 0.71735 0.12372 0.60761 0.0
N957 N 0.65115 0.05672 0.55447 0.0
C958 C 0.64116 0.09266 0.5774 0.0
C959 C 0.6769 0.12882 0.6064 0.0
C960 C 0.86708 0.39168 0.29816 0.0
C961 C 0.842 0.36074 0.31573 0.0
C962 C 0.90473 0.42216 0.33097 0.0
C963 C 0.91877 0.42219 0.38213 0.0
H964 H 0.85729 0.39257 0.25908 0.0
H965 H 0.92277 0.44604 0.31621 0.0
S966 S 0.86777 0.34238 0.44311 0.0
N967 N 0.83562 0.32879 0.38522 0.0
N968 N 0.90666 0.38532 0.44675 0.0
C969 C 0.89454 0.39024 0.39938 0.0
C970 C 0.85609 0.35965 0.36614 0.0
C971 C 0.66199 0.84682 0.27178 0.0
C972 C 0.67266 0.81644 0.29745 0.0
C973 C 0.63997 0.87664 0.29053 0.0
C974 C 0.6276 0.878 0.33623 0.0
H975 H 0.67128 0.84817 0.23702 0.0
H976 H 0.63352 0.89957 0.26946 0.0
S977 S 0.64488 0.80395 0.41695 0.0
N978 N 0.66717 0.78879 0.37047 0.0
N979 N 0.62569 0.84427 0.40527 0.0
C980 C 0.63721 0.84727 0.36185 0.0
C981 C 0.65959 0.81674 0.34263 0.0
C982 C 0.18132 0.63543 0.31501 0.0
C983 C 0.19417 0.68086 0.33408 0.0
C984 C 0.15577 0.60821 0.33735 0.0
C985 C 0.1427 0.62461 0.38118 0.0
H986 H 0.19018 0.62064 0.28149 0.0
H987 H 0.14639 0.57372 0.32011 0.0
S988 S 0.16913 0.74118 0.44809 0.0
N989 N 0.19175 0.74087 0.40023 0.0
N990 N 0.14605 0.69012 0.44335 0.0
C991 C 0.15623 0.66999 0.40143 0.0
C992 C 0.18117 0.69784 0.37769 0.0
C993 C 0.37404 0.20298 0.34066 0.0
C994 C 0.32815 0.18866 0.32907 0.0
C995 C 0.40067 0.1764 0.35353 0.0
C996 C 0.38297 0.1342 0.35614 0.0
H997 H 0.38978 0.23467 0.33819 0.0
H998 H 0.43562 0.18904 0.36124 0.0
S999 S 0.26509 0.0809 0.33105 0.0
N1000 N 0.26638 0.12911 0.32232 0.0
N1001 N 0.31638 0.07964 0.34704 0.0
C1002 C 0.33727 0.11978 0.3462 0.0
C1003 C 0.30999 0.14675 0.33253 0.0
C1004 C 0.65569 0.80632 0.64824 0.0
C1005 C 0.7002 0.82544 0.67337 0.0
C1006 C 0.62784 0.83083 0.63172 0.0
C1007 C 0.64279 0.87593 0.64005 0.0
H1008 H 0.64181 0.77208 0.64217 0.0
H1009 H 0.59383 0.81437 0.61364 0.0
S1010 S 0.75683 0.94199 0.70135 0.0
N1011 N 0.7581 0.89263 0.70366 0.0
N1012 N 0.70599 0.93826 0.67292 0.0
C1013 C 0.68741 0.89537 0.66402 0.0
C1014 C 0.71594 0.87034 0.68042 0.0
C1015 C 0.62864 0.22058 0.42254 0.0
C1016 C 0.65165 0.21913 0.38521 0.0
C1017 C 0.61245 0.18321 0.43683 0.0
C1018 C 0.61791 0.14317 0.41314 0.0
H1019 H 0.62161 0.25033 0.43906 0.0
H1020 H 0.59308 0.18514 0.46407 0.0
S1021 S 0.67831 0.12309 0.3155 0.0
N1022 N 0.6812 0.175 0.32689 0.0
N1023 N 0.65059 0.10501 0.35344 0.0
C1024 C 0.64271 0.14185 0.3776 0.0
C1025 C 0.65958 0.17979 0.3636 0.0
C1026 C 0.81871 0.61655 0.41196 0.0
C1027 C 0.8194 0.64899 0.3867 0.0
C1028 C 0.8543 0.59895 0.42008 0.0
C1029 C 0.89113 0.61326 0.40277 0.0
H1030 H 0.79042 0.60452 0.42477 0.0
H1031 H 0.85281 0.57358 0.4392 0.0
S1032 S 0.90989 0.70069 0.33925 0.0
N1033 N 0.86077 0.69708 0.34807 0.0
N1034 N 0.92719 0.66358 0.36248 0.0
C1035 C 0.8924 0.64642 0.37861 0.0
C1036 C 0.85662 0.66448 0.37088 0.0
C1037 C 0.35056 0.8667 0.39797 0.0
C1038 C 0.35769 0.83118 0.36556 0.0
C1039 C 0.38466 0.90387 0.42428 0.0
C1040 C 0.42697 0.90678 0.4189 0.0
H1041 H 0.3179 0.86686 0.40073 0.0
H1042 H 0.37731 0.9315 0.44612 0.0
S1043 S 0.46433 0.82204 0.34345 0.0
N1044 N 0.41161 0.80037 0.33363 0.0
N1045 N 0.47532 0.87057 0.38257 0.0
C1046 C 0.43524 0.87072 0.38955 0.0
C1047 C 0.40073 0.83269 0.36318 0.0
C1048 C 0.16951 0.31394 0.34734 0.0
C1049 C 0.21448 0.32804 0.35145 0.0
C1050 C 0.14653 0.34204 0.36732 0.0
C1051 C 0.16733 0.38578 0.39247 0.0
H1052 H 0.15121 0.28133 0.32621 0.0
H1053 H 0.11179 0.32959 0.36173 0.0
S1054 S 0.28494 0.4393 0.4156 0.0
N1055 N 0.27928 0.38888 0.38482 0.0
N1056 N 0.23609 0.44167 0.42178 0.0
C1057 C 0.21261 0.4001 0.39872 0.0
C1058 C 0.2361 0.37137 0.37833 0.0
C1059 C 0.32885 0.15818 0.66016 0.0
C1060 C 0.33005 0.17028 0.71212 0.0
C1061 C 0.35282 0.13019 0.64132 0.0
C1062 C 0.37988 0.11333 0.67348 0.0
H1063 H 0.30863 0.16989 0.63351 0.0
H1064 H 0.35037 0.12203 0.60103 0.0
S1065 S 0.39583 0.13622 0.81307 0.0
N1066 N 0.36155 0.16375 0.79557 0.0
N1067 N 0.40625 0.11171 0.76067 0.0
C1068 C 0.38179 0.12575 0.72568 0.0
C1069 C 0.35703 0.15387 0.74473 0.0
C1070 C 0.87222 0.33135 0.68376 0.0
C1071 C 0.82639 0.31584 0.66839 0.0
C1072 C 0.89539 0.35905 0.6599 0.0
C1073 C 0.87409 0.37171 0.61847 0.0
H1074 H 0.89029 0.3233 0.71573 0.0
H1075 H 0.93047 0.37075 0.67423 0.0
S1076 S 0.7545 0.33791 0.56139 0.0
N1077 N 0.76075 0.31463 0.60812 0.0
N1078 N 0.80395 0.36454 0.56226 0.0
C1079 C 0.82837 0.35513 0.60171 0.0
C1080 C 0.80473 0.32794 0.62689 0.0
C1081 C 0.15422 0.62686 0.61937 0.0
C1082 C 0.15063 0.65368 0.66402 0.0
C1083 C 0.11997 0.59102 0.59014 0.0
C1084 C 0.08125 0.58047 0.60496 0.0
H1085 H 0.18356 0.63369 0.60654 0.0
H1086 H 0.12405 0.5712 0.55606 0.0
S1087 S 0.0544 0.64124 0.71724 0.0
N1088 N 0.10426 0.6681 0.72033 0.0
N1089 N 0.04048 0.6002 0.66614 0.0
C1090 C 0.07709 0.60701 0.64937 0.0
C1091 C 0.11166 0.64377 0.67874 0.0
loop_
_geom_bond_atom_site_label_1
_geom_bond_atom_site_label_2
_geom_bond_distance
_geom_bond_site_symmetry_2
_ccdc_geom_bond_type
Co0 N5 2.057 . S
Co0 O17 2.021 . S
Co0 O20 2.062 . S
Co0 O24 2.117 . S
Co0 O25 2.020 . S
C1 O21 1.259 . S
C1 O24 1.258 . S
Co2 N11 2.057 . S
Co2 O18 2.117 . S
Co2 O19 2.020 . S
Co2 O21 2.021 . S
Co2 O26 2.062 . S
C3 N5 1.316 . S
C3 N6 1.347 . S
C3 H8 0.931 . S
C4 N5 1.375 . S
C4 C7 1.350 . S
C4 H9 0.930 . S
N5 Co0 2.057 . S
N5 C3 1.316 . S
N5 C4 1.375 . S
N6 C3 1.347 . S
N6 C7 1.373 . S
C7 C4 1.350 . S
C7 N6 1.373 . S
C7 H28 0.931 . S
H8 C3 0.931 . S
H9 C4 0.930 . S
C10 O17 1.259 . S
C10 O18 1.258 . S
N11 Co2 2.057 . S
N11 C12 1.316 . S
N11 C13 1.375 . S
C12 N11 1.316 . S
C12 N14 1.347 . S
C12 H23 0.931 . S
C13 N11 1.375 . S
C13 C15 1.350 . S
C13 H22 0.930 . S
N14 C12 1.347 . S
N14 C15 1.373 . S
C15 C13 1.350 . S
C15 N14 1.373 . S
C15 H29 0.931 . S
C16 O19 1.256 . S
C16 O20 1.255 . S
O17 Co0 2.021 . S
O17 C10 1.259 . S
O18 Co2 2.117 . S
O18 C10 1.258 . S
O19 Co2 2.020 . S
O19 C16 1.256 . S
O20 Co0 2.062 . S
O20 C16 1.255 . S
O21 C1 1.259 . S
O21 Co2 2.021 . S
H22 C13 0.930 . S
H23 C12 0.931 . S
O24 Co0 2.117 . S
O24 C1 1.258 . S
O25 Co0 2.020 . S
O25 C27 1.256 . S
O26 Co2 2.062 . S
O26 C27 1.255 . S
C27 O25 1.256 . S
C27 O26 1.255 . S
H28 C7 0.931 . S
H29 C15 0.931 . S
Co30 N35 2.057 . S
Co30 O47 2.021 . S
Co30 O50 2.062 . S
Co30 O54 2.117 . S
Co30 O55 2.020 . S
C31 O51 1.259 . S
C31 O54 1.258 . S
Co32 N41 2.057 . S
Co32 O48 2.117 . S
Co32 O49 2.020 . S
Co32 O51 2.021 . S
Co32 O56 2.062 . S
C33 N35 1.316 . S
C33 N36 1.347 . S
C33 H38 0.931 . S
C34 N35 1.375 . S
C34 C37 1.350 . S
C34 H39 0.930 . S
N35 Co30 2.057 . S
N35 C33 1.316 . S
N35 C34 1.375 . S
N36 C33 1.347 . S
N36 C37 1.373 . S
C37 C34 1.350 . S
C37 N36 1.373 . S
C37 H58 0.931 . S
H38 C33 0.931 . S
H39 C34 0.930 . S
C40 O47 1.259 . S
C40 O48 1.258 . S
N41 Co32 2.057 . S
N41 C42 1.316 . S
N41 C43 1.375 . S
C42 N41 1.316 . S
C42 N44 1.347 . S
C42 H53 0.931 . S
C43 N41 1.375 . S
C43 C45 1.350 . S
C43 H52 0.930 . S
N44 C42 1.347 . S
N44 C45 1.373 . S
C45 C43 1.350 . S
C45 N44 1.373 . S
C45 H59 0.931 . S
C46 O49 1.256 . S
C46 O50 1.255 . S
O47 Co30 2.021 . S
O47 C40 1.259 . S
O48 Co32 2.117 . S
O48 C40 1.258 . S
O49 Co32 2.020 . S
O49 C46 1.256 . S
O50 Co30 2.062 . S
O50 C46 1.255 . S
O51 C31 1.259 . S
O51 Co32 2.021 . S
H52 C43 0.930 . S
H53 C42 0.931 . S
O54 Co30 2.117 . S
O54 C31 1.258 . S
O55 Co30 2.020 . S
O55 C57 1.256 . S
O56 Co32 2.062 . S
O56 C57 1.255 . S
C57 O55 1.256 . S
C57 O56 1.255 . S
H58 C37 0.931 . S
H59 C45 0.931 . S
Co60 N65 2.057 . S
Co60 O77 2.021 . S
Co60 O80 2.062 . S
Co60 O84 2.117 . S
Co60 O85 2.020 . S
C61 O81 1.259 . S
C61 O84 1.258 . S
Co62 N71 2.057 . S
Co62 O78 2.117 . S
Co62 O79 2.020 . S
Co62 O81 2.021 . S
Co62 O86 2.062 . S
C63 N65 1.316 . S
C63 N66 1.347 . S
C63 H68 0.931 . S
C64 N65 1.375 . S
C64 C67 1.350 . S
C64 H69 0.930 . S
N65 Co60 2.057 . S
N65 C63 1.316 . S
N65 C64 1.375 . S
N66 C63 1.347 . S
N66 C67 1.373 . S
C67 C64 1.350 . S
C67 N66 1.373 . S
C67 H88 0.931 . S
H68 C63 0.931 . S
H69 C64 0.930 . S
C70 O77 1.259 . S
C70 O78 1.258 . S
N71 Co62 2.057 . S
N71 C72 1.316 . S
N71 C73 1.375 . S
C72 N71 1.316 . S
C72 N74 1.347 . S
C72 H83 0.931 . S
C73 N71 1.375 . S
C73 C75 1.350 . S
C73 H82 0.930 . S
N74 C72 1.347 . S
N74 C75 1.373 . S
C75 C73 1.350 . S
C75 N74 1.373 . S
C75 H89 0.931 . S
C76 O79 1.256 . S
C76 O80 1.255 . S
O77 Co60 2.021 . S
O77 C70 1.259 . S
O78 Co62 2.117 . S
O78 C70 1.258 . S
O79 Co62 2.020 . S
O79 C76 1.256 . S
O80 Co60 2.062 . S
O80 C76 1.255 . S
O81 C61 1.259 . S
O81 Co62 2.021 . S
H82 C73 0.930 . S
H83 C72 0.931 . S
O84 Co60 2.117 . S
O84 C61 1.258 . S
O85 Co60 2.020 . S
O85 C87 1.256 . S
O86 Co62 2.062 . S
O86 C87 1.255 . S
C87 O85 1.256 . S
C87 O86 1.255 . S
H88 C67 0.931 . S
H89 C75 0.931 . S
Co90 N95 2.057 . S
Co90 O107 2.021 . S
Co90 O110 2.062 . S
Co90 O114 2.117 . S
Co90 O115 2.020 . S
C91 O111 1.259 . S
C91 O114 1.258 . S
Co92 N101 2.057 . S
Co92 O108 2.117 . S
Co92 O109 2.020 . S
Co92 O111 2.021 . S
Co92 O116 2.062 . S
C93 N95 1.316 . S
C93 N96 1.347 . S
C93 H98 0.931 . S
C94 N95 1.375 . S
C94 C97 1.350 . S
C94 H99 0.930 . S
N95 Co90 2.057 . S
N95 C93 1.316 . S
N95 C94 1.375 . S
N96 C93 1.347 . S
N96 C97 1.373 . S
C97 C94 1.350 . S
C97 N96 1.373 . S
C97 H118 0.931 . S
H98 C93 0.931 . S
H99 C94 0.930 . S
C100 O107 1.259 . S
C100 O108 1.258 . S
N101 Co92 2.057 . S
N101 C102 1.316 . S
N101 C103 1.375 . S
C102 N101 1.316 . S
C102 N104 1.347 . S
C102 H113 0.931 . S
C103 N101 1.375 . S
C103 C105 1.350 . S
C103 H112 0.930 . S
N104 C102 1.347 . S
N104 C105 1.373 . S
C105 C103 1.350 . S
C105 N104 1.373 . S
C105 H119 0.931 . S
C106 O109 1.256 . S
C106 O110 1.255 . S
O107 Co90 2.021 . S
O107 C100 1.259 . S
O108 Co92 2.117 . S
O108 C100 1.258 . S
O109 Co92 2.020 . S
O109 C106 1.256 . S
O110 Co90 2.062 . S
O110 C106 1.255 . S
O111 C91 1.259 . S
O111 Co92 2.021 . S
H112 C103 0.930 . S
H113 C102 0.931 . S
O114 Co90 2.117 . S
O114 C91 1.258 . S
O115 Co90 2.020 . S
O115 C117 1.256 . S
O116 Co92 2.062 . S
O116 C117 1.255 . S
C117 O115 1.256 . S
C117 O116 1.255 . S
H118 C97 0.931 . S
H119 C105 0.931 . S
Co120 N125 2.057 . S
Co120 O137 2.021 . S
Co120 O140 2.062 . S
Co120 O144 2.117 . S
Co120 O145 2.020 . S
C121 O141 1.259 . S
C121 O144 1.258 . S
Co122 N131 2.057 . S
Co122 O138 2.117 . S
Co122 O139 2.020 . S
Co122 O141 2.021 . S
Co122 O146 2.062 . S
C123 N125 1.316 . S
C123 N126 1.347 . S
C123 H128 0.931 . S
C124 N125 1.375 . S
C124 C127 1.350 . S
C124 H129 0.930 . S
N125 Co120 2.057 . S
N125 C123 1.316 . S
N125 C124 1.375 . S
N126 C123 1.347 . S
N126 C127 1.373 . S
C127 C124 1.350 . S
C127 N126 1.373 . S
C127 H148 0.931 . S
H128 C123 0.931 . S
H129 C124 0.930 . S
C130 O137 1.259 . S
C130 O138 1.258 . S
N131 Co122 2.057 . S
N131 C132 1.316 . S
N131 C133 1.375 . S
C132 N131 1.316 . S
C132 N134 1.347 . S
C132 H143 0.931 . S
C133 N131 1.375 . S
C133 C135 1.350 . S
C133 H142 0.930 . S
N134 C132 1.347 . S
N134 C135 1.373 . S
C135 C133 1.350 . S
C135 N134 1.373 . S
C135 H149 0.931 . S
C136 O139 1.256 . S
C136 O140 1.255 . S
O137 Co120 2.021 . S
O137 C130 1.259 . S
O138 Co122 2.117 . S
O138 C130 1.258 . S
O139 Co122 2.020 . S
O139 C136 1.256 . S
O140 Co120 2.062 . S
O140 C136 1.255 . S
O141 C121 1.259 . S
O141 Co122 2.021 . S
H142 C133 0.930 . S
H143 C132 0.931 . S
O144 Co120 2.117 . S
O144 C121 1.258 . S
O145 Co120 2.020 . S
O145 C147 1.256 . S
O146 Co122 2.062 . S
O146 C147 1.255 . S
C147 O145 1.256 . S
C147 O146 1.255 . S
H148 C127 0.931 . S
H149 C135 0.931 . S
Co150 N155 2.057 . S
Co150 O167 2.021 . S
Co150 O170 2.062 . S
Co150 O174 2.117 . S
Co150 O175 2.020 . S
C151 O171 1.259 . S
C151 O174 1.258 . S
Co152 N161 2.057 . S
Co152 O168 2.117 . S
Co152 O169 2.020 . S
Co152 O171 2.021 . S
Co152 O176 2.062 . S
C153 N155 1.316 . S
C153 N156 1.347 . S
C153 H158 0.931 . S
C154 N155 1.375 . S
C154 C157 1.350 . S
C154 H159 0.930 . S
N155 Co150 2.057 . S
N155 C153 1.316 . S
N155 C154 1.375 . S
N156 C153 1.347 . S
N156 C157 1.373 . S
C157 C154 1.350 . S
C157 N156 1.373 . S
C157 H178 0.931 . S
H158 C153 0.931 . S
H159 C154 0.930 . S
C160 O167 1.259 . S
C160 O168 1.258 . S
N161 Co152 2.057 . S
N161 C162 1.316 . S
N161 C163 1.375 . S
C162 N161 1.316 . S
C162 N164 1.347 . S
C162 H173 0.931 . S
C163 N161 1.375 . S
C163 C165 1.350 . S
C163 H172 0.930 . S
N164 C162 1.347 . S
N164 C165 1.373 . S
C165 C163 1.350 . S
C165 N164 1.373 . S
C165 H179 0.931 . S
C166 O169 1.256 . S
C166 O170 1.255 . S
O167 Co150 2.021 . S
O167 C160 1.259 . S
O168 Co152 2.117 . S
O168 C160 1.258 . S
O169 Co152 2.020 . S
O169 C166 1.256 . S
O170 Co150 2.062 . S
O170 C166 1.255 . S
O171 C151 1.259 . S
O171 Co152 2.021 . S
H172 C163 0.930 . S
H173 C162 0.931 . S
O174 Co150 2.117 . S
O174 C151 1.258 . S
O175 Co150 2.020 . S
O175 C177 1.256 . S
O176 Co152 2.062 . S
O176 C177 1.255 . S
C177 O175 1.256 . S
C177 O176 1.255 . S
H178 C157 0.931 . S
H179 C165 0.931 . S
Co180 N185 2.057 . S
Co180 O197 2.021 . S
Co180 O200 2.062 . S
Co180 O204 2.117 . S
Co180 O205 2.020 . S
C181 O201 1.259 . S
C181 O204 1.258 . S
Co182 N191 2.057 . S
Co182 O198 2.117 . S
Co182 O199 2.020 . S
Co182 O201 2.021 . S
Co182 O206 2.062 . S
C183 N185 1.316 . S
C183 N186 1.347 . S
C183 H188 0.931 . S
C184 N185 1.375 . S
C184 C187 1.350 . S
C184 H189 0.930 . S
N185 Co180 2.057 . S
N185 C183 1.316 . S
N185 C184 1.375 . S
N186 C183 1.347 . S
N186 C187 1.373 . S
C187 C184 1.350 . S
C187 N186 1.373 . S
C187 H208 0.931 . S
H188 C183 0.931 . S
H189 C184 0.930 . S
C190 O197 1.259 . S
C190 O198 1.258 . S
N191 Co182 2.057 . S
N191 C192 1.316 . S
N191 C193 1.375 . S
C192 N191 1.316 . S
C192 N194 1.347 . S
C192 H203 0.931 . S
C193 N191 1.375 . S
C193 C195 1.350 . S
C193 H202 0.930 . S
N194 C192 1.347 . S
N194 C195 1.373 . S
C195 C193 1.350 . S
C195 N194 1.373 . S
C195 H209 0.931 . S
C196 O199 1.256 . S
C196 O200 1.255 . S
O197 Co180 2.021 . S
O197 C190 1.259 . S
O198 Co182 2.117 . S
O198 C190 1.258 . S
O199 Co182 2.020 . S
O199 C196 1.256 . S
O200 Co180 2.062 . S
O200 C196 1.255 . S
O201 C181 1.259 . S
O201 Co182 2.021 . S
H202 C193 0.930 . S
H203 C192 0.931 . S
O204 Co180 2.117 . S
O204 C181 1.258 . S
O205 Co180 2.020 . S
O205 C207 1.256 . S
O206 Co182 2.062 . S
O206 C207 1.255 . S
C207 O205 1.256 . S
C207 O206 1.255 . S
H208 C187 0.931 . S
H209 C195 0.931 . S
Co210 N215 2.057 . S
Co210 O227 2.021 . S
Co210 O230 2.062 . S
Co210 O234 2.117 . S
Co210 O235 2.020 . S
C211 O231 1.259 . S
C211 O234 1.258 . S
Co212 N221 2.057 . S
Co212 O228 2.117 . S
Co212 O229 2.020 . S
Co212 O231 2.021 . S
Co212 O236 2.062 . S
C213 N215 1.316 . S
C213 N216 1.347 . S
C213 H218 0.931 . S
C214 N215 1.375 . S
C214 C217 1.350 . S
C214 H219 0.930 . S
N215 Co210 2.057 . S
N215 C213 1.316 . S
N215 C214 1.375 . S
N216 C213 1.347 . S
N216 C217 1.373 . S
C217 C214 1.350 . S
C217 N216 1.373 . S
C217 H238 0.931 . S
H218 C213 0.931 . S
H219 C214 0.930 . S
C220 O227 1.259 . S
C220 O228 1.258 . S
N221 Co212 2.057 . S
N221 C222 1.316 . S
N221 C223 1.375 . S
C222 N221 1.316 . S
C222 N224 1.347 . S
C222 H233 0.931 . S
C223 N221 1.375 . S
C223 C225 1.350 . S
C223 H232 0.930 . S
N224 C222 1.347 . S
N224 C225 1.373 . S
C225 C223 1.350 . S
C225 N224 1.373 . S
C225 H239 0.931 . S
C226 O229 1.256 . S
C226 O230 1.255 . S
O227 Co210 2.021 . S
O227 C220 1.259 . S
O228 Co212 2.117 . S
O228 C220 1.258 . S
O229 Co212 2.020 . S
O229 C226 1.256 . S
O230 Co210 2.062 . S
O230 C226 1.255 . S
O231 C211 1.259 . S
O231 Co212 2.021 . S
H232 C223 0.930 . S
H233 C222 0.931 . S
O234 Co210 2.117 . S
O234 C211 1.258 . S
O235 Co210 2.020 . S
O235 C237 1.256 . S
O236 Co212 2.062 . S
O236 C237 1.255 . S
C237 O235 1.256 . S
C237 O236 1.255 . S
H238 C217 0.931 . S
H239 C225 0.931 . S
Cd240 N243 2.334 1_655 S
Cd240 N269 2.304 1_565 S
Cd240 O276 2.268 . S
Cd240 O279 2.273 1_665 S
Cd240 O280 2.417 . S
Cd240 O281 2.330 . S
Cd241 N256 2.304 1_455 S
Cd241 N260 2.334 1_545 S
Cd241 O277 2.273 1_445 S
Cd241 O278 2.268 . S
Cd241 O282 2.417 . S
Cd241 O283 2.330 . S
C242 N243 1.332 . S
C242 C246 1.381 . S
C242 H248 0.931 . S
N243 Cd240 2.334 1_455 S
N243 C242 1.332 . S
N243 C247 1.328 . S
C244 C245 1.396 . S
C244 C247 1.378 . S
C244 H286 0.931 . S
C245 C244 1.396 . S
C245 C246 1.382 . S
C246 C242 1.381 . S
C246 C245 1.382 . S
C246 H287 0.930 . S
C247 N243 1.328 . S
C247 C244 1.378 . S
C247 H249 0.930 1_455 S
H248 C242 0.931 . S
H249 C247 0.930 1_655 S
C250 O276 1.238 . S
C250 O277 1.253 . S
C251 C252 1.379 . S
C251 N256 1.337 . S
C251 H257 0.929 . S
C252 C251 1.379 . S
C252 C253 1.380 . S
C252 H288 0.929 . S
C253 C252 1.380 . S
C253 C254 1.399 . S
C254 C253 1.399 . S
C254 C255 1.376 . S
C254 H289 0.931 . S
C255 C254 1.376 . S
C255 N256 1.338 . S
C255 H258 0.930 1_655 S
N256 Cd241 2.304 1_655 S
N256 C251 1.337 . S
N256 C255 1.338 . S
H257 C251 0.929 . S
H258 C255 0.930 1_455 S
C259 N260 1.332 . S
C259 C263 1.381 . S
C259 H265 0.931 . S
N260 Cd241 2.334 1_565 S
N260 C259 1.332 . S
N260 C264 1.328 . S
C261 C262 1.396 . S
C261 C264 1.378 . S
C261 H290 0.931 . S
C262 C261 1.396 . S
C262 C263 1.382 . S
C263 C259 1.381 . S
C263 C262 1.382 . S
C263 H291 0.930 . S
C264 N260 1.328 . S
C264 C261 1.378 . S
C264 H266 0.930 1_565 S
H265 C259 0.931 . S
H266 C264 0.930 1_545 S
C267 O278 1.238 . S
C267 O279 1.253 . S
C268 O280 1.239 . S
C268 O281 1.230 . S
N269 Cd240 2.304 1_545 S
N269 C270 1.337 . S
N269 C274 1.338 . S
C270 N269 1.337 . S
C270 C271 1.379 . S
C270 H284 0.929 . S
C271 C270 1.379 . S
C271 C272 1.380 . S
C271 H292 0.929 . S
C272 C271 1.380 . S
C272 C273 1.399 . S
C273 C272 1.399 . S
C273 C274 1.376 . S
C273 H293 0.931 . S
C274 N269 1.338 . S
C274 C273 1.376 . S
C274 H285 0.930 1_545 S
C275 O282 1.239 . S
C275 O283 1.230 . S
O276 Cd240 2.268 . S
O276 C250 1.238 . S
O277 Cd241 2.273 1_665 S
O277 C250 1.253 . S
O278 Cd241 2.268 . S
O278 C267 1.238 . S
O279 Cd240 2.273 1_445 S
O279 C267 1.253 . S
O280 Cd240 2.417 . S
O280 C268 1.239 . S
O281 Cd240 2.330 . S
O281 C268 1.230 . S
O282 Cd241 2.417 . S
O282 C275 1.239 . S
O283 Cd241 2.330 . S
O283 C275 1.230 . S
H284 C270 0.929 . S
H285 C274 0.930 1_565 S
H286 C244 0.931 . S
H287 C246 0.930 . S
H288 C252 0.929 . S
H289 C254 0.931 . S
H290 C261 0.931 . S
H291 C263 0.930 . S
H292 C271 0.929 . S
H293 C273 0.931 . S
Cd294 N297 2.334 . S
Cd294 N323 2.304 1_565 S
Cd294 O330 2.268 1_554 S
Cd294 O333 2.273 1_565 S
Cd294 O334 2.417 . S
Cd294 O335 2.330 . S
Cd295 N310 2.304 . S
Cd295 N314 2.334 1_545 S
Cd295 O331 2.273 1_545 S
Cd295 O332 2.268 1_556 S
Cd295 O336 2.417 . S
Cd295 O337 2.330 . S
C296 N297 1.332 . S
C296 C300 1.381 . S
C296 H302 0.931 . S
N297 Cd294 2.334 . S
N297 C296 1.332 . S
N297 C301 1.328 . S
C298 C299 1.396 . S
C298 C301 1.378 . S
C298 H340 0.931 1_554 S
C299 C298 1.396 . S
C299 C300 1.382 . S
C300 C296 1.381 . S
C300 C299 1.382 . S
C300 H341 0.930 . S
C301 N297 1.328 . S
C301 C298 1.378 . S
C301 H303 0.930 1_554 S
H302 C296 0.931 . S
H303 C301 0.930 1_556 S
C304 O330 1.238 . S
C304 O331 1.253 . S
C305 C306 1.379 . S
C305 N310 1.337 . S
C305 H311 0.929 . S
C306 C305 1.379 . S
C306 C307 1.380 . S
C306 H342 0.929 . S
C307 C306 1.380 . S
C307 C308 1.399 . S
C308 C307 1.399 . S
C308 C309 1.376 . S
C308 H343 0.931 1_556 S
C309 C308 1.376 . S
C309 N310 1.338 . S
C309 H312 0.930 1_556 S
N310 Cd295 2.304 . S
N310 C305 1.337 . S
N310 C309 1.338 . S
H311 C305 0.929 . S
H312 C309 0.930 1_554 S
C313 N314 1.332 . S
C313 C317 1.381 . S
C313 H319 0.931 . S
N314 Cd295 2.334 1_565 S
N314 C313 1.332 . S
N314 C318 1.328 . S
C315 C316 1.396 . S
C315 C318 1.378 . S
C315 H344 0.931 1_556 S
C316 C315 1.396 . S
C316 C317 1.382 . S
C317 C313 1.381 . S
C317 C316 1.382 . S
C317 H345 0.930 . S
C318 N314 1.328 . S
C318 C315 1.378 . S
C318 H320 0.930 1_566 S
H319 C313 0.931 . S
H320 C318 0.930 1_544 S
C321 O332 1.238 . S
C321 O333 1.253 . S
C322 O334 1.239 . S
C322 O335 1.230 . S
N323 Cd294 2.304 1_545 S
N323 C324 1.337 . S
N323 C328 1.338 . S
C324 N323 1.337 . S
C324 C325 1.379 . S
C324 H338 0.929 . S
C325 C324 1.379 . S
C325 C326 1.380 . S
C325 H346 0.929 . S
C326 C325 1.380 . S
C326 C327 1.399 . S
C327 C326 1.399 . S
C327 C328 1.376 . S
C327 H347 0.931 1_554 S
C328 N323 1.338 . S
C328 C327 1.376 . S
C328 H339 0.930 1_544 S
C329 O336 1.239 . S
C329 O337 1.230 . S
O330 Cd294 2.268 1_556 S
O330 C304 1.238 . S
O331 Cd295 2.273 1_565 S
O331 C304 1.253 . S
O332 Cd295 2.268 1_554 S
O332 C321 1.238 . S
O333 Cd294 2.273 1_545 S
O333 C321 1.253 . S
O334 Cd294 2.417 . S
O334 C322 1.239 . S
O335 Cd294 2.330 . S
O335 C322 1.230 . S
O336 Cd295 2.417 . S
O336 C329 1.239 . S
O337 Cd295 2.330 . S
O337 C329 1.230 . S
H338 C324 0.929 . S
H339 C328 0.930 1_566 S
H340 C298 0.931 1_556 S
H341 C300 0.930 . S
H342 C306 0.929 . S
H343 C308 0.931 1_554 S
H344 C315 0.931 1_554 S
H345 C317 0.930 . S
H346 C325 0.929 . S
H347 C327 0.931 1_556 S
Cd348 N351 2.334 1_655 S
Cd348 N377 2.304 . S
Cd348 O384 2.268 1_554 S
Cd348 O387 2.273 1_655 S
Cd348 O388 2.417 . S
Cd348 O389 2.330 . S
Cd349 N364 2.304 1_455 S
Cd349 N368 2.334 . S
Cd349 O385 2.273 1_455 S
Cd349 O386 2.268 1_556 S
Cd349 O390 2.417 . S
Cd349 O391 2.330 . S
C350 N351 1.332 . S
C350 C354 1.381 . S
C350 H356 0.931 . S
N351 Cd348 2.334 1_455 S
N351 C350 1.332 . S
N351 C355 1.328 . S
C352 C353 1.396 . S
C352 C355 1.378 . S
C352 H394 0.931 1_554 S
C353 C352 1.396 . S
C353 C354 1.382 . S
C354 C350 1.381 . S
C354 C353 1.382 . S
C354 H395 0.930 . S
C355 N351 1.328 . S
C355 C352 1.378 . S
C355 H357 0.930 1_454 S
H356 C350 0.931 . S
H357 C355 0.930 1_656 S
C358 O384 1.238 . S
C358 O385 1.253 . S
C359 C360 1.379 . S
C359 N364 1.337 . S
C359 H365 0.929 . S
C360 C359 1.379 . S
C360 C361 1.380 . S
C360 H396 0.929 . S
C361 C360 1.380 . S
C361 C362 1.399 . S
C362 C361 1.399 . S
C362 C363 1.376 . S
C362 H397 0.931 1_556 S
C363 C362 1.376 . S
C363 N364 1.338 . S
C363 H366 0.930 1_656 S
N364 Cd349 2.304 1_655 S
N364 C359 1.337 . S
N364 C363 1.338 . S
H365 C359 0.929 . S
H366 C363 0.930 1_454 S
C367 N368 1.332 . S
C367 C371 1.381 . S
C367 H373 0.931 . S
N368 Cd349 2.334 . S
N368 C367 1.332 . S
N368 C372 1.328 . S
C369 C370 1.396 . S
C369 C372 1.378 . S
C369 H398 0.931 1_556 S
C370 C369 1.396 . S
C370 C371 1.382 . S
C371 C367 1.381 . S
C371 C370 1.382 . S
C371 H399 0.930 . S
C372 N368 1.328 . S
C372 C369 1.378 . S
C372 H374 0.930 1_556 S
H373 C367 0.931 . S
H374 C372 0.930 1_554 S
C375 O386 1.238 . S
C375 O387 1.253 . S
C376 O388 1.239 . S
C376 O389 1.230 . S
N377 Cd348 2.304 . S
N377 C378 1.337 . S
N377 C382 1.338 . S
C378 N377 1.337 . S
C378 C379 1.379 . S
C378 H392 0.929 . S
C379 C378 1.379 . S
C379 C380 1.380 . S
C379 H400 0.929 . S
C380 C379 1.380 . S
C380 C381 1.399 . S
C381 C380 1.399 . S
C381 C382 1.376 . S
C381 H401 0.931 1_554 S
C382 N377 1.338 . S
C382 C381 1.376 . S
C382 H393 0.930 1_554 S
C383 O390 1.239 . S
C383 O391 1.230 . S
O384 Cd348 2.268 1_556 S
O384 C358 1.238 . S
O385 Cd349 2.273 1_655 S
O385 C358 1.253 . S
O386 Cd349 2.268 1_554 S
O386 C375 1.238 . S
O387 Cd348 2.273 1_455 S
O387 C375 1.253 . S
O388 Cd348 2.417 . S
O388 C376 1.239 . S
O389 Cd348 2.330 . S
O389 C376 1.230 . S
O390 Cd349 2.417 . S
O390 C383 1.239 . S
O391 Cd349 2.330 . S
O391 C383 1.230 . S
H392 C378 0.929 . S
H393 C382 0.930 1_556 S
H394 C352 0.931 1_556 S
H395 C354 0.930 . S
H396 C360 0.929 . S
H397 C362 0.931 1_554 S
H398 C369 0.931 1_554 S
H399 C371 0.930 . S
H400 C379 0.929 . S
H401 C381 0.931 1_556 S
Cd402 N405 2.334 . S
Cd402 N431 2.304 . S
Cd402 O438 2.268 1_554 S
Cd402 O441 2.273 . S
Cd402 O442 2.417 . S
Cd402 O443 2.330 . S
Cd403 N418 2.304 . S
Cd403 N422 2.334 . S
Cd403 O439 2.273 . S
Cd403 O440 2.268 1_556 S
Cd403 O444 2.417 . S
Cd403 O445 2.330 . S
C404 N405 1.332 . S
C404 C408 1.381 . S
C404 H410 0.931 . S
N405 Cd402 2.334 . S
N405 C404 1.332 . S
N405 C409 1.328 . S
C406 C407 1.396 . S
C406 C409 1.378 . S
C406 H448 0.931 1_554 S
C407 C406 1.396 . S
C407 C408 1.382 . S
C408 C404 1.381 . S
C408 C407 1.382 . S
C408 H449 0.930 . S
C409 N405 1.328 . S
C409 C406 1.378 . S
C409 H411 0.930 1_554 S
H410 C404 0.931 . S
H411 C409 0.930 1_556 S
C412 O438 1.238 . S
C412 O439 1.253 . S
C413 C414 1.379 . S
C413 N418 1.337 . S
C413 H419 0.929 . S
C414 C413 1.379 . S
C414 C415 1.380 . S
C414 H450 0.929 . S
C415 C414 1.380 . S
C415 C416 1.399 . S
C416 C415 1.399 . S
C416 C417 1.376 . S
C416 H451 0.931 1_556 S
C417 C416 1.376 . S
C417 N418 1.338 . S
C417 H420 0.930 1_556 S
N418 Cd403 2.304 . S
N418 C413 1.337 . S
N418 C417 1.338 . S
H419 C413 0.929 . S
H420 C417 0.930 1_554 S
C421 N422 1.332 . S
C421 C425 1.381 . S
C421 H427 0.931 . S
N422 Cd403 2.334 . S
N422 C421 1.332 . S
N422 C426 1.328 . S
C423 C424 1.396 . S
C423 C426 1.378 . S
C423 H452 0.931 1_556 S
C424 C423 1.396 . S
C424 C425 1.382 . S
C425 C421 1.381 . S
C425 C424 1.382 . S
C425 H453 0.930 . S
C426 N422 1.328 . S
C426 C423 1.378 . S
C426 H428 0.930 1_556 S
H427 C421 0.931 . S
H428 C426 0.930 1_554 S
C429 O440 1.238 . S
C429 O441 1.253 . S
C430 O442 1.239 . S
C430 O443 1.230 . S
N431 Cd402 2.304 . S
N431 C432 1.337 . S
N431 C436 1.338 . S
C432 N431 1.337 . S
C432 C433 1.379 . S
C432 H446 0.929 . S
C433 C432 1.379 . S
C433 C434 1.380 . S
C433 H454 0.929 . S
C434 C433 1.380 . S
C434 C435 1.399 . S
C435 C434 1.399 . S
C435 C436 1.376 . S
C435 H455 0.931 1_554 S
C436 N431 1.338 . S
C436 C435 1.376 . S
C436 H447 0.930 1_554 S
C437 O444 1.239 . S
C437 O445 1.230 . S
O438 Cd402 2.268 1_556 S
O438 C412 1.238 . S
O439 Cd403 2.273 . S
O439 C412 1.253 . S
O440 Cd403 2.268 1_554 S
O440 C429 1.238 . S
O441 Cd402 2.273 . S
O441 C429 1.253 . S
O442 Cd402 2.417 . S
O442 C430 1.239 . S
O443 Cd402 2.330 . S
O443 C430 1.230 . S
O444 Cd403 2.417 . S
O444 C437 1.239 . S
O445 Cd403 2.330 . S
O445 C437 1.230 . S
H446 C432 0.929 . S
H447 C436 0.930 1_556 S
H448 C406 0.931 1_556 S
H449 C408 0.930 . S
H450 C414 0.929 . S
H451 C416 0.931 1_554 S
H452 C423 0.931 1_554 S
H453 C425 0.930 . S
H454 C433 0.929 . S
H455 C435 0.931 1_556 S
Cd456 N459 2.334 1_655 S
Cd456 N485 2.304 . S
Cd456 O492 2.268 . S
Cd456 O495 2.273 1_655 S
Cd456 O496 2.417 . S
Cd456 O497 2.330 . S
Cd457 N472 2.304 1_455 S
Cd457 N476 2.334 . S
Cd457 O493 2.273 1_455 S
Cd457 O494 2.268 . S
Cd457 O498 2.417 . S
Cd457 O499 2.330 . S
C458 N459 1.332 . S
C458 C462 1.381 . S
C458 H464 0.931 . S
N459 Cd456 2.334 1_455 S
N459 C458 1.332 . S
N459 C463 1.328 . S
C460 C461 1.396 . S
C460 C463 1.378 . S
C460 H502 0.931 . S
C461 C460 1.396 . S
C461 C462 1.382 . S
C462 C458 1.381 . S
C462 C461 1.382 . S
C462 H503 0.930 . S
C463 N459 1.328 . S
C463 C460 1.378 . S
C463 H465 0.930 1_455 S
H464 C458 0.931 . S
H465 C463 0.930 1_655 S
C466 O492 1.238 . S
C466 O493 1.253 . S
C467 C468 1.379 . S
C467 N472 1.337 . S
C467 H473 0.929 . S
C468 C467 1.379 . S
C468 C469 1.380 . S
C468 H504 0.929 . S
C469 C468 1.380 . S
C469 C470 1.399 . S
C470 C469 1.399 . S
C470 C471 1.376 . S
C470 H505 0.931 . S
C471 C470 1.376 . S
C471 N472 1.338 . S
C471 H474 0.930 1_655 S
N472 Cd457 2.304 1_655 S
N472 C467 1.337 . S
N472 C471 1.338 . S
H473 C467 0.929 . S
H474 C471 0.930 1_455 S
C475 N476 1.332 . S
C475 C479 1.381 . S
C475 H481 0.931 . S
N476 Cd457 2.334 . S
N476 C475 1.332 . S
N476 C480 1.328 . S
C477 C478 1.396 . S
C477 C480 1.378 . S
C477 H506 0.931 . S
C478 C477 1.396 . S
C478 C479 1.382 . S
C479 C475 1.381 . S
C479 C478 1.382 . S
C479 H507 0.930 . S
C480 N476 1.328 . S
C480 C477 1.378 . S
C480 H482 0.930 . S
H481 C475 0.931 . S
H482 C480 0.930 . S
C483 O494 1.238 . S
C483 O495 1.253 . S
C484 O496 1.239 . S
C484 O497 1.230 . S
N485 Cd456 2.304 . S
N485 C486 1.337 . S
N485 C490 1.338 . S
C486 N485 1.337 . S
C486 C487 1.379 . S
C486 H500 0.929 . S
C487 C486 1.379 . S
C487 C488 1.380 . S
C487 H508 0.929 . S
C488 C487 1.380 . S
C488 C489 1.399 . S
C489 C488 1.399 . S
C489 C490 1.376 . S
C489 H509 0.931 . S
C490 N485 1.338 . S
C490 C489 1.376 . S
C490 H501 0.930 . S
C491 O498 1.239 . S
C491 O499 1.230 . S
O492 Cd456 2.268 . S
O492 C466 1.238 . S
O493 Cd457 2.273 1_655 S
O493 C466 1.253 . S
O494 Cd457 2.268 . S
O494 C483 1.238 . S
O495 Cd456 2.273 1_455 S
O495 C483 1.253 . S
O496 Cd456 2.417 . S
O496 C484 1.239 . S
O497 Cd456 2.330 . S
O497 C484 1.230 . S
O498 Cd457 2.417 . S
O498 C491 1.239 . S
O499 Cd457 2.330 . S
O499 C491 1.230 . S
H500 C486 0.929 . S
H501 C490 0.930 . S
H502 C460 0.931 . S
H503 C462 0.930 . S
H504 C468 0.929 . S
H505 C470 0.931 . S
H506 C477 0.931 . S
H507 C479 0.930 . S
H508 C487 0.929 . S
H509 C489 0.931 . S
Cd510 N513 2.334 . S
Cd510 N539 2.304 1_565 S
Cd510 O546 2.268 . S
Cd510 O549 2.273 1_565 S
Cd510 O550 2.417 . S
Cd510 O551 2.330 . S
Cd511 N526 2.304 . S
Cd511 N530 2.334 1_545 S
Cd511 O547 2.273 1_545 S
Cd511 O548 2.268 . S
Cd511 O552 2.417 . S
Cd511 O553 2.330 . S
C512 N513 1.332 . S
C512 C516 1.381 . S
C512 H518 0.931 . S
N513 Cd510 2.334 . S
N513 C512 1.332 . S
N513 C517 1.328 . S
C514 C515 1.396 . S
C514 C517 1.378 . S
C514 H556 0.931 . S
C515 C514 1.396 . S
C515 C516 1.382 . S
C516 C512 1.381 . S
C516 C515 1.382 . S
C516 H557 0.930 . S
C517 N513 1.328 . S
C517 C514 1.378 . S
C517 H519 0.930 . S
H518 C512 0.931 . S
H519 C517 0.930 . S
C520 O546 1.238 . S
C520 O547 1.253 . S
C521 C522 1.379 . S
C521 N526 1.337 . S
C521 H527 0.929 . S
C522 C521 1.379 . S
C522 C523 1.380 . S
C522 H558 0.929 . S
C523 C522 1.380 . S
C523 C524 1.399 . S
C524 C523 1.399 . S
C524 C525 1.376 . S
C524 H559 0.931 . S
C525 C524 1.376 . S
C525 N526 1.338 . S
C525 H528 0.930 . S
N526 Cd511 2.304 . S
N526 C521 1.337 . S
N526 C525 1.338 . S
H527 C521 0.929 . S
H528 C525 0.930 . S
C529 N530 1.332 . S
C529 C533 1.381 . S
C529 H535 0.931 . S
N530 Cd511 2.334 1_565 S
N530 C529 1.332 . S
N530 C534 1.328 . S
C531 C532 1.396 . S
C531 C534 1.378 . S
C531 H560 0.931 . S
C532 C531 1.396 . S
C532 C533 1.382 . S
C533 C529 1.381 . S
C533 C532 1.382 . S
C533 H561 0.930 . S
C534 N530 1.328 . S
C534 C531 1.378 . S
C534 H536 0.930 1_565 S
H535 C529 0.931 . S
H536 C534 0.930 1_545 S
C537 O548 1.238 . S
C537 O549 1.253 . S
C538 O550 1.239 . S
C538 O551 1.230 . S
N539 Cd510 2.304 1_545 S
N539 C540 1.337 . S
N539 C544 1.338 . S
C540 N539 1.337 . S
C540 C541 1.379 . S
C540 H554 0.929 . S
C541 C540 1.379 . S
C541 C542 1.380 . S
C541 H562 0.929 . S
C542 C541 1.380 . S
C542 C543 1.399 . S
C543 C542 1.399 . S
C543 C544 1.376 . S
C543 H563 0.931 . S
C544 N539 1.338 . S
C544 C543 1.376 . S
C544 H555 0.930 1_545 S
C545 O552 1.239 . S
C545 O553 1.230 . S
O546 Cd510 2.268 . S
O546 C520 1.238 . S
O547 Cd511 2.273 1_565 S
O547 C520 1.253 . S
O548 Cd511 2.268 . S
O548 C537 1.238 . S
O549 Cd510 2.273 1_545 S
O549 C537 1.253 . S
O550 Cd510 2.417 . S
O550 C538 1.239 . S
O551 Cd510 2.330 . S
O551 C538 1.230 . S
O552 Cd511 2.417 . S
O552 C545 1.239 . S
O553 Cd511 2.330 . S
O553 C545 1.230 . S
H554 C540 0.929 . S
H555 C544 0.930 1_565 S
H556 C514 0.931 . S
H557 C516 0.930 . S
H558 C522 0.929 . S
H559 C524 0.931 . S
H560 C531 0.931 . S
H561 C533 0.930 . S
H562 C541 0.929 . S
H563 C543 0.931 . S
C564 C565 1.369 . S
C564 C566 1.419 . S
C564 H568 0.930 . S
C565 C564 1.369 . S
C565 C574 1.429 . S
C566 C564 1.419 . S
C566 C567 1.363 . S
C566 H569 0.929 . S
C567 C566 1.363 . S
C567 C573 1.428 . S
H568 C564 0.930 . S
H569 C566 0.929 . S
S570 N571 1.613 . S
S570 N572 1.610 . S
N571 S570 1.613 . S
N571 C574 1.350 . S
N572 S570 1.610 . S
N572 C573 1.351 . S
C573 C567 1.428 . S
C573 N572 1.351 . S
C573 C574 1.434 . S
C574 C565 1.429 . S
C574 N571 1.350 . S
C574 C573 1.434 . S
C575 C576 1.369 . S
C575 C577 1.419 . S
C575 H579 0.930 . S
C576 C575 1.369 . S
C576 C585 1.429 . S
C577 C575 1.419 . S
C577 C578 1.363 . S
C577 H580 0.929 . S
C578 C577 1.363 . S
C578 C584 1.428 . S
H579 C575 0.930 . S
H580 C577 0.929 . S
S581 N582 1.613 . S
S581 N583 1.610 . S
N582 S581 1.613 . S
N582 C585 1.350 . S
N583 S581 1.610 . S
N583 C584 1.351 . S
C584 C578 1.428 . S
C584 N583 1.351 . S
C584 C585 1.434 . S
C585 C576 1.429 . S
C585 N582 1.350 . S
C585 C584 1.434 . S
C586 C587 1.369 . S
C586 C588 1.419 . S
C586 H590 0.930 . S
C587 C586 1.369 . S
C587 C596 1.429 . S
C588 C586 1.419 . S
C588 C589 1.363 . S
C588 H591 0.929 . S
C589 C588 1.363 . S
C589 C595 1.428 . S
H590 C586 0.930 . S
H591 C588 0.929 . S
S592 N593 1.613 . S
S592 N594 1.610 . S
N593 S592 1.613 . S
N593 C596 1.350 . S
N594 S592 1.610 . S
N594 C595 1.351 . S
C595 C589 1.428 . S
C595 N594 1.351 . S
C595 C596 1.434 . S
C596 C587 1.429 . S
C596 N593 1.350 . S
C596 C595 1.434 . S
C597 C598 1.369 . S
C597 C599 1.419 . S
C597 H601 0.930 . S
C598 C597 1.369 . S
C598 C607 1.429 . S
C599 C597 1.419 . S
C599 C600 1.363 . S
C599 H602 0.929 . S
C600 C599 1.363 . S
C600 C606 1.428 . S
H601 C597 0.930 . S
H602 C599 0.929 . S
S603 N604 1.613 . S
S603 N605 1.610 . S
N604 S603 1.613 . S
N604 C607 1.350 . S
N605 S603 1.610 . S
N605 C606 1.351 . S
C606 C600 1.428 . S
C606 N605 1.351 . S
C606 C607 1.434 . S
C607 C598 1.429 . S
C607 N604 1.350 . S
C607 C606 1.434 . S
C608 C609 1.369 . S
C608 C610 1.419 . S
C608 H612 0.930 . S
C609 C608 1.369 . S
C609 C618 1.429 . S
C610 C608 1.419 . S
C610 C611 1.363 . S
C610 H613 0.929 . S
C611 C610 1.363 . S
C611 C617 1.428 . S
H612 C608 0.930 . S
H613 C610 0.929 . S
S614 N615 1.613 . S
S614 N616 1.610 . S
N615 S614 1.613 . S
N615 C618 1.350 . S
N616 S614 1.610 . S
N616 C617 1.351 . S
C617 C611 1.428 . S
C617 N616 1.351 . S
C617 C618 1.434 . S
C618 C609 1.429 . S
C618 N615 1.350 . S
C618 C617 1.434 . S
C619 C620 1.369 . S
C619 C621 1.419 . S
C619 H623 0.930 . S
C620 C619 1.369 . S
C620 C629 1.429 . S
C621 C619 1.419 . S
C621 C622 1.363 . S
C621 H624 0.929 . S
C622 C621 1.363 . S
C622 C628 1.428 . S
H623 C619 0.930 . S
H624 C621 0.929 . S
S625 N626 1.613 . S
S625 N627 1.610 . S
N626 S625 1.613 . S
N626 C629 1.350 . S
N627 S625 1.610 . S
N627 C628 1.351 . S
C628 C622 1.428 . S
C628 N627 1.351 . S
C628 C629 1.434 . S
C629 C620 1.429 . S
C629 N626 1.350 . S
C629 C628 1.434 . S
C630 C631 1.369 . S
C630 C632 1.419 . S
C630 H634 0.930 . S
C631 C630 1.369 . S
C631 C640 1.429 . S
C632 C630 1.419 . S
C632 C633 1.363 . S
C632 H635 0.929 . S
C633 C632 1.363 . S
C633 C639 1.428 . S
H634 C630 0.930 . S
H635 C632 0.929 . S
S636 N637 1.613 . S
S636 N638 1.610 . S
N637 S636 1.613 . S
N637 C640 1.350 . S
N638 S636 1.610 . S
N638 C639 1.351 . S
C639 C633 1.428 . S
C639 N638 1.351 . S
C639 C640 1.434 . S
C640 C631 1.429 . S
C640 N637 1.350 . S
C640 C639 1.434 . S
C641 C642 1.369 . S
C641 C643 1.419 . S
C641 H645 0.930 . S
C642 C641 1.369 . S
C642 C651 1.429 . S
C643 C641 1.419 . S
C643 C644 1.363 . S
C643 H646 0.929 . S
C644 C643 1.363 . S
C644 C650 1.428 . S
H645 C641 0.930 . S
H646 C643 0.929 . S
S647 N648 1.613 1_545 S
S647 N649 1.610 . S
N648 S647 1.613 1_565 S
N648 C651 1.350 . S
N649 S647 1.610 . S
N649 C650 1.351 1_545 S
C650 C644 1.428 . S
C650 N649 1.351 1_565 S
C650 C651 1.434 . S
C651 C642 1.429 . S
C651 N648 1.350 . S
C651 C650 1.434 . S
C652 C653 1.369 . S
C652 C654 1.419 . S
C652 H656 0.930 . S
C653 C652 1.369 . S
C653 C662 1.429 . S
C654 C652 1.419 . S
C654 C655 1.363 . S
C654 H657 0.929 . S
C655 C654 1.363 . S
C655 C661 1.428 . S
H656 C652 0.930 . S
H657 C654 0.929 . S
S658 N659 1.613 . S
S658 N660 1.610 . S
N659 S658 1.613 . S
N659 C662 1.350 . S
N660 S658 1.610 . S
N660 C661 1.351 . S
C661 C655 1.428 . S
C661 N660 1.351 . S
C661 C662 1.434 . S
C662 C653 1.429 . S
C662 N659 1.350 . S
C662 C661 1.434 . S
C663 C664 1.369 . S
C663 C665 1.419 . S
C663 H667 0.930 . S
C664 C663 1.369 . S
C664 C673 1.429 . S
C665 C663 1.419 . S
C665 C666 1.363 . S
C665 H668 0.929 . S
C666 C665 1.363 . S
C666 C672 1.428 . S
H667 C663 0.930 . S
H668 C665 0.929 . S
S669 N670 1.613 . S
S669 N671 1.610 . S
N670 S669 1.613 . S
N670 C673 1.350 . S
N671 S669 1.610 . S
N671 C672 1.351 . S
C672 C666 1.428 . S
C672 N671 1.351 . S
C672 C673 1.434 . S
C673 C664 1.429 . S
C673 N670 1.350 . S
C673 C672 1.434 . S
C674 C675 1.369 . S
C674 C676 1.419 . S
C674 H678 0.930 . S
C675 C674 1.369 . S
C675 C684 1.429 . S
C676 C674 1.419 . S
C676 C677 1.363 . S
C676 H679 0.929 . S
C677 C676 1.363 . S
C677 C683 1.428 . S
H678 C674 0.930 . S
H679 C676 0.929 . S
S680 N681 1.613 . S
S680 N682 1.610 . S
N681 S680 1.613 . S
N681 C684 1.350 . S
N682 S680 1.610 . S
N682 C683 1.351 . S
C683 C677 1.428 . S
C683 N682 1.351 . S
C683 C684 1.434 . S
C684 C675 1.429 . S
C684 N681 1.350 . S
C684 C683 1.434 . S
C685 C686 1.369 . S
C685 C687 1.419 . S
C685 H689 0.930 . S
C686 C685 1.369 . S
C686 C695 1.429 . S
C687 C685 1.419 . S
C687 C688 1.363 . S
C687 H690 0.929 . S
C688 C687 1.363 . S
C688 C694 1.428 . S
H689 C685 0.930 . S
H690 C687 0.929 . S
S691 N692 1.613 . S
S691 N693 1.610 . S
N692 S691 1.613 . S
N692 C695 1.350 . S
N693 S691 1.610 . S
N693 C694 1.351 . S
C694 C688 1.428 . S
C694 N693 1.351 . S
C694 C695 1.434 . S
C695 C686 1.429 . S
C695 N692 1.350 . S
C695 C694 1.434 . S
C696 C697 1.369 . S
C696 C698 1.419 . S
C696 H700 0.930 . S
C697 C696 1.369 . S
C697 C706 1.429 . S
C698 C696 1.419 . S
C698 C699 1.363 . S
C698 H701 0.929 . S
C699 C698 1.363 . S
C699 C705 1.428 . S
H700 C696 0.930 . S
H701 C698 0.929 . S
S702 N703 1.613 . S
S702 N704 1.610 . S
N703 S702 1.613 . S
N703 C706 1.350 . S
N704 S702 1.610 . S
N704 C705 1.351 . S
C705 C699 1.428 . S
C705 N704 1.351 . S
C705 C706 1.434 . S
C706 C697 1.429 . S
C706 N703 1.350 . S
C706 C705 1.434 . S
C707 C708 1.369 . S
C707 C709 1.419 . S
C707 H711 0.930 . S
C708 C707 1.369 . S
C708 C717 1.429 . S
C709 C707 1.419 . S
C709 C710 1.363 . S
C709 H712 0.929 . S
C710 C709 1.363 . S
C710 C716 1.428 . S
H711 C707 0.930 . S
H712 C709 0.929 . S
S713 N714 1.613 . S
S713 N715 1.610 . S
N714 S713 1.613 . S
N714 C717 1.350 . S
N715 S713 1.610 . S
N715 C716 1.351 . S
C716 C710 1.428 . S
C716 N715 1.351 . S
C716 C717 1.434 . S
C717 C708 1.429 . S
C717 N714 1.350 . S
C717 C716 1.434 . S
C718 C719 1.369 . S
C718 C720 1.419 . S
C718 H722 0.930 . S
C719 C718 1.369 . S
C719 C728 1.429 . S
C720 C718 1.419 . S
C720 C721 1.363 . S
C720 H723 0.929 . S
C721 C720 1.363 . S
C721 C727 1.428 . S
H722 C718 0.930 . S
H723 C720 0.929 . S
S724 N725 1.613 . S
S724 N726 1.610 . S
N725 S724 1.613 . S
N725 C728 1.350 . S
N726 S724 1.610 . S
N726 C727 1.351 . S
C727 C721 1.428 . S
C727 N726 1.351 . S
C727 C728 1.434 . S
C728 C719 1.429 . S
C728 N725 1.350 . S
C728 C727 1.434 . S
C729 C730 1.369 . S
C729 C731 1.419 . S
C729 H733 0.930 . S
C730 C729 1.369 . S
C730 C739 1.429 . S
C731 C729 1.419 . S
C731 C732 1.363 . S
C731 H734 0.929 . S
C732 C731 1.363 . S
C732 C738 1.428 . S
H733 C729 0.930 . S
H734 C731 0.929 . S
S735 N736 1.613 . S
S735 N737 1.610 . S
N736 S735 1.613 . S
N736 C739 1.350 . S
N737 S735 1.610 . S
N737 C738 1.351 . S
C738 C732 1.428 . S
C738 N737 1.351 . S
C738 C739 1.434 . S
C739 C730 1.429 . S
C739 N736 1.350 . S
C739 C738 1.434 . S
C740 C741 1.369 . S
C740 C742 1.419 . S
C740 H744 0.930 . S
C741 C740 1.369 . S
C741 C750 1.429 . S
C742 C740 1.419 . S
C742 C743 1.363 . S
C742 H745 0.929 . S
C743 C742 1.363 . S
C743 C749 1.428 . S
H744 C740 0.930 . S
H745 C742 0.929 . S
S746 N747 1.613 . S
S746 N748 1.610 . S
N747 S746 1.613 . S
N747 C750 1.350 . S
N748 S746 1.610 . S
N748 C749 1.351 . S
C749 C743 1.428 . S
C749 N748 1.351 . S
C749 C750 1.434 . S
C750 C741 1.429 . S
C750 N747 1.350 . S
C750 C749 1.434 . S
C751 C752 1.369 . S
C751 C753 1.419 . S
C751 H755 0.930 . S
C752 C751 1.369 . S
C752 C761 1.429 . S
C753 C751 1.419 . S
C753 C754 1.363 . S
C753 H756 0.929 . S
C754 C753 1.363 . S
C754 C760 1.428 . S
H755 C751 0.930 . S
H756 C753 0.929 . S
S757 N758 1.613 . S
S757 N759 1.610 . S
N758 S757 1.613 . S
N758 C761 1.350 . S
N759 S757 1.610 . S
N759 C760 1.351 . S
C760 C754 1.428 . S
C760 N759 1.351 . S
C760 C761 1.434 . S
C761 C752 1.429 . S
C761 N758 1.350 . S
C761 C760 1.434 . S
C762 C763 1.369 . S
C762 C764 1.419 . S
C762 H766 0.930 . S
C763 C762 1.369 . S
C763 C772 1.429 . S
C764 C762 1.419 . S
C764 C765 1.363 . S
C764 H767 0.929 . S
C765 C764 1.363 . S
C765 C771 1.428 . S
H766 C762 0.930 . S
H767 C764 0.929 . S
S768 N769 1.613 . S
S768 N770 1.610 . S
N769 S768 1.613 . S
N769 C772 1.350 . S
N770 S768 1.610 . S
N770 C771 1.351 . S
C771 C765 1.428 . S
C771 N770 1.351 . S
C771 C772 1.434 . S
C772 C763 1.429 . S
C772 N769 1.350 . S
C772 C771 1.434 . S
C773 C774 1.369 . S
C773 C775 1.419 . S
C773 H777 0.930 . S
C774 C773 1.369 . S
C774 C783 1.429 . S
C775 C773 1.419 . S
C775 C776 1.363 . S
C775 H778 0.929 . S
C776 C775 1.363 . S
C776 C782 1.428 . S
H777 C773 0.930 . S
H778 C775 0.929 . S
S779 N780 1.613 . S
S779 N781 1.610 . S
N780 S779 1.613 . S
N780 C783 1.350 . S
N781 S779 1.610 . S
N781 C782 1.351 . S
C782 C776 1.428 . S
C782 N781 1.351 . S
C782 C783 1.434 . S
C783 C774 1.429 . S
C783 N780 1.350 . S
C783 C782 1.434 . S
C784 C785 1.369 . S
C784 C786 1.419 . S
C784 H788 0.930 . S
C785 C784 1.369 . S
C785 C794 1.429 . S
C786 C784 1.419 . S
C786 C787 1.363 . S
C786 H789 0.929 . S
C787 C786 1.363 . S
C787 C793 1.428 . S
H788 C784 0.930 . S
H789 C786 0.929 . S
S790 N791 1.613 . S
S790 N792 1.610 . S
N791 S790 1.613 . S
N791 C794 1.350 . S
N792 S790 1.610 . S
N792 C793 1.351 . S
C793 C787 1.428 . S
C793 N792 1.351 . S
C793 C794 1.434 . S
C794 C785 1.429 . S
C794 N791 1.350 . S
C794 C793 1.434 . S
C795 C796 1.369 . S
C795 C797 1.419 . S
C795 H799 0.930 . S
C796 C795 1.369 . S
C796 C805 1.429 . S
C797 C795 1.419 . S
C797 C798 1.363 . S
C797 H800 0.929 . S
C798 C797 1.363 . S
C798 C804 1.428 . S
H799 C795 0.930 . S
H800 C797 0.929 . S
S801 N802 1.613 . S
S801 N803 1.610 . S
N802 S801 1.613 . S
N802 C805 1.350 . S
N803 S801 1.610 . S
N803 C804 1.351 . S
C804 C798 1.428 . S
C804 N803 1.351 . S
C804 C805 1.434 . S
C805 C796 1.429 . S
C805 N802 1.350 . S
C805 C804 1.434 . S
C806 C807 1.369 . S
C806 C808 1.419 . S
C806 H810 0.930 . S
C807 C806 1.369 . S
C807 C816 1.429 . S
C808 C806 1.419 . S
C808 C809 1.363 . S
C808 H811 0.929 . S
C809 C808 1.363 . S
C809 C815 1.428 . S
H810 C806 0.930 . S
H811 C808 0.929 . S
S812 N813 1.613 . S
S812 N814 1.610 . S
N813 S812 1.613 . S
N813 C816 1.350 . S
N814 S812 1.610 . S
N814 C815 1.351 . S
C815 C809 1.428 . S
C815 N814 1.351 . S
C815 C816 1.434 . S
C816 C807 1.429 . S
C816 N813 1.350 . S
C816 C815 1.434 . S
C817 C818 1.369 . S
C817 C819 1.419 . S
C817 H821 0.930 . S
C818 C817 1.369 . S
C818 C827 1.429 . S
C819 C817 1.419 . S
C819 C820 1.363 . S
C819 H822 0.929 . S
C820 C819 1.363 . S
C820 C826 1.428 . S
H821 C817 0.930 . S
H822 C819 0.929 . S
S823 N824 1.613 . S
S823 N825 1.610 . S
N824 S823 1.613 . S
N824 C827 1.350 . S
N825 S823 1.610 . S
N825 C826 1.351 . S
C826 C820 1.428 . S
C826 N825 1.351 . S
C826 C827 1.434 . S
C827 C818 1.429 . S
C827 N824 1.350 . S
C827 C826 1.434 . S
C828 C829 1.369 . S
C828 C830 1.419 . S
C828 H832 0.930 . S
C829 C828 1.369 . S
C829 C838 1.429 . S
C830 C828 1.419 . S
C830 C831 1.363 . S
C830 H833 0.929 . S
C831 C830 1.363 . S
C831 C837 1.428 . S
H832 C828 0.930 . S
H833 C830 0.929 . S
S834 N835 1.613 . S
S834 N836 1.610 . S
N835 S834 1.613 . S
N835 C838 1.350 . S
N836 S834 1.610 . S
N836 C837 1.351 . S
C837 C831 1.428 . S
C837 N836 1.351 . S
C837 C838 1.434 . S
C838 C829 1.429 . S
C838 N835 1.350 . S
C838 C837 1.434 . S
C839 C840 1.369 . S
C839 C841 1.419 . S
C839 H843 0.930 . S
C840 C839 1.369 . S
C840 C849 1.429 . S
C841 C839 1.419 . S
C841 C842 1.363 . S
C841 H844 0.929 . S
C842 C841 1.363 . S
C842 C848 1.428 . S
H843 C839 0.930 . S
H844 C841 0.929 . S
S845 N846 1.613 . S
S845 N847 1.610 . S
N846 S845 1.613 . S
N846 C849 1.350 . S
N847 S845 1.610 . S
N847 C848 1.351 . S
C848 C842 1.428 . S
C848 N847 1.351 . S
C848 C849 1.434 . S
C849 C840 1.429 . S
C849 N846 1.350 . S
C849 C848 1.434 . S
C850 C851 1.369 . S
C850 C852 1.419 . S
C850 H854 0.930 . S
C851 C850 1.369 . S
C851 C860 1.429 . S
C852 C850 1.419 . S
C852 C853 1.363 . S
C852 H855 0.929 . S
C853 C852 1.363 . S
C853 C859 1.428 . S
H854 C850 0.930 . S
H855 C852 0.929 . S
S856 N857 1.613 . S
S856 N858 1.610 . S
N857 S856 1.613 . S
N857 C860 1.350 . S
N858 S856 1.610 . S
N858 C859 1.351 . S
C859 C853 1.428 . S
C859 N858 1.351 . S
C859 C860 1.434 . S
C860 C851 1.429 . S
C860 N857 1.350 . S
C860 C859 1.434 . S
C861 C862 1.369 . S
C861 C863 1.419 . S
C861 H865 0.930 . S
C862 C861 1.369 . S
C862 C871 1.429 . S
C863 C861 1.419 . S
C863 C864 1.363 . S
C863 H866 0.929 . S
C864 C863 1.363 . S
C864 C870 1.428 . S
H865 C861 0.930 . S
H866 C863 0.929 . S
S867 N868 1.613 . S
S867 N869 1.610 . S
N868 S867 1.613 . S
N868 C871 1.350 . S
N869 S867 1.610 . S
N869 C870 1.351 . S
C870 C864 1.428 . S
C870 N869 1.351 . S
C870 C871 1.434 . S
C871 C862 1.429 . S
C871 N868 1.350 . S
C871 C870 1.434 . S
C872 C873 1.369 . S
C872 C874 1.419 . S
C872 H876 0.930 . S
C873 C872 1.369 . S
C873 C882 1.429 . S
C874 C872 1.419 . S
C874 C875 1.363 . S
C874 H877 0.929 . S
C875 C874 1.363 . S
C875 C881 1.428 . S
H876 C872 0.930 . S
H877 C874 0.929 . S
S878 N879 1.613 . S
S878 N880 1.610 . S
N879 S878 1.613 . S
N879 C882 1.350 . S
N880 S878 1.610 . S
N880 C881 1.351 . S
C881 C875 1.428 . S
C881 N880 1.351 . S
C881 C882 1.434 . S
C882 C873 1.429 . S
C882 N879 1.350 . S
C882 C881 1.434 . S
C883 C884 1.369 . S
C883 C885 1.419 . S
C883 H887 0.930 . S
C884 C883 1.369 . S
C884 C893 1.429 . S
C885 C883 1.419 . S
C885 C886 1.363 . S
C885 H888 0.929 . S
C886 C885 1.363 . S
C886 C892 1.428 . S
H887 C883 0.930 . S
H888 C885 0.929 . S
S889 N890 1.613 . S
S889 N891 1.610 . S
N890 S889 1.613 . S
N890 C893 1.350 . S
N891 S889 1.610 . S
N891 C892 1.351 . S
C892 C886 1.428 . S
C892 N891 1.351 . S
C892 C893 1.434 . S
C893 C884 1.429 . S
C893 N890 1.350 . S
C893 C892 1.434 . S
C894 C895 1.369 . S
C894 C896 1.419 . S
C894 H898 0.930 . S
C895 C894 1.369 . S
C895 C904 1.429 . S
C896 C894 1.419 . S
C896 C897 1.363 . S
C896 H899 0.929 . S
C897 C896 1.363 . S
C897 C903 1.428 . S
H898 C894 0.930 . S
H899 C896 0.929 . S
S900 N901 1.613 . S
S900 N902 1.610 . S
N901 S900 1.613 . S
N901 C904 1.350 . S
N902 S900 1.610 . S
N902 C903 1.351 . S
C903 C897 1.428 . S
C903 N902 1.351 . S
C903 C904 1.434 . S
C904 C895 1.429 . S
C904 N901 1.350 . S
C904 C903 1.434 . S
C905 C906 1.369 . S
C905 C907 1.419 . S
C905 H909 0.930 . S
C906 C905 1.369 . S
C906 C915 1.429 . S
C907 C905 1.419 . S
C907 C908 1.363 . S
C907 H910 0.929 . S
C908 C907 1.363 . S
C908 C914 1.428 . S
H909 C905 0.930 . S
H910 C907 0.929 . S
S911 N912 1.613 . S
S911 N913 1.610 . S
N912 S911 1.613 . S
N912 C915 1.350 . S
N913 S911 1.610 . S
N913 C914 1.351 . S
C914 C908 1.428 . S
C914 N913 1.351 . S
C914 C915 1.434 . S
C915 C906 1.429 . S
C915 N912 1.350 . S
C915 C914 1.434 . S
C916 C917 1.369 . S
C916 C918 1.419 . S
C916 H920 0.930 . S
C917 C916 1.369 . S
C917 C926 1.429 . S
C918 C916 1.419 . S
C918 C919 1.363 . S
C918 H921 0.929 . S
C919 C918 1.363 . S
C919 C925 1.428 . S
H920 C916 0.930 . S
H921 C918 0.929 . S
S922 N923 1.613 . S
S922 N924 1.610 . S
N923 S922 1.613 . S
N923 C926 1.350 . S
N924 S922 1.610 . S
N924 C925 1.351 . S
C925 C919 1.428 . S
C925 N924 1.351 . S
C925 C926 1.434 . S
C926 C917 1.429 . S
C926 N923 1.350 . S
C926 C925 1.434 . S
C927 C928 1.369 . S
C927 C929 1.419 . S
C927 H931 0.930 . S
C928 C927 1.369 . S
C928 C937 1.429 . S
C929 C927 1.419 . S
C929 C930 1.363 . S
C929 H932 0.929 . S
C930 C929 1.363 . S
C930 C936 1.428 . S
H931 C927 0.930 . S
H932 C929 0.929 . S
S933 N934 1.613 . S
S933 N935 1.610 . S
N934 S933 1.613 . S
N934 C937 1.350 . S
N935 S933 1.610 . S
N935 C936 1.351 . S
C936 C930 1.428 . S
C936 N935 1.351 . S
C936 C937 1.434 . S
C937 C928 1.429 . S
C937 N934 1.350 . S
C937 C936 1.434 . S
C938 C939 1.369 . S
C938 C940 1.419 . S
C938 H942 0.930 . S
C939 C938 1.369 . S
C939 C948 1.429 . S
C940 C938 1.419 . S
C940 C941 1.363 . S
C940 H943 0.929 . S
C941 C940 1.363 . S
C941 C947 1.428 . S
H942 C938 0.930 . S
H943 C940 0.929 . S
S944 N945 1.613 . S
S944 N946 1.610 . S
N945 S944 1.613 . S
N945 C948 1.350 . S
N946 S944 1.610 . S
N946 C947 1.351 . S
C947 C941 1.428 . S
C947 N946 1.351 . S
C947 C948 1.434 . S
C948 C939 1.429 . S
C948 N945 1.350 . S
C948 C947 1.434 . S
C949 C950 1.369 . S
C949 C951 1.419 . S
C949 H953 0.930 . S
C950 C949 1.369 . S
C950 C959 1.429 . S
C951 C949 1.419 . S
C951 C952 1.363 . S
C951 H954 0.929 . S
C952 C951 1.363 . S
C952 C958 1.428 . S
H953 C949 0.930 . S
H954 C951 0.929 . S
S955 N956 1.613 . S
S955 N957 1.610 . S
N956 S955 1.613 . S
N956 C959 1.350 . S
N957 S955 1.610 . S
N957 C958 1.351 . S
C958 C952 1.428 . S
C958 N957 1.351 . S
C958 C959 1.434 . S
C959 C950 1.429 . S
C959 N956 1.350 . S
C959 C958 1.434 . S
C960 C961 1.369 . S
C960 C962 1.419 . S
C960 H964 0.930 . S
C961 C960 1.369 . S
C961 C970 1.429 . S
C962 C960 1.419 . S
C962 C963 1.363 . S
C962 H965 0.929 . S
C963 C962 1.363 . S
C963 C969 1.428 . S
H964 C960 0.930 . S
H965 C962 0.929 . S
S966 N967 1.613 . S
S966 N968 1.610 . S
N967 S966 1.613 . S
N967 C970 1.350 . S
N968 S966 1.610 . S
N968 C969 1.351 . S
C969 C963 1.428 . S
C969 N968 1.351 . S
C969 C970 1.434 . S
C970 C961 1.429 . S
C970 N967 1.350 . S
C970 C969 1.434 . S
C971 C972 1.369 . S
C971 C973 1.419 . S
C971 H975 0.930 . S
C972 C971 1.369 . S
C972 C981 1.429 . S
C973 C971 1.419 . S
C973 C974 1.363 . S
C973 H976 0.929 . S
C974 C973 1.363 . S
C974 C980 1.428 . S
H975 C971 0.930 . S
H976 C973 0.929 . S
S977 N978 1.613 . S
S977 N979 1.610 . S
N978 S977 1.613 . S
N978 C981 1.350 . S
N979 S977 1.610 . S
N979 C980 1.351 . S
C980 C974 1.428 . S
C980 N979 1.351 . S
C980 C981 1.434 . S
C981 C972 1.429 . S
C981 N978 1.350 . S
C981 C980 1.434 . S
C982 C983 1.369 . S
C982 C984 1.419 . S
C982 H986 0.930 . S
C983 C982 1.369 . S
C983 C992 1.429 . S
C984 C982 1.419 . S
C984 C985 1.363 . S
C984 H987 0.929 . S
C985 C984 1.363 . S
C985 C991 1.428 . S
H986 C982 0.930 . S
H987 C984 0.929 . S
S988 N989 1.613 . S
S988 N990 1.610 . S
N989 S988 1.613 . S
N989 C992 1.350 . S
N990 S988 1.610 . S
N990 C991 1.351 . S
C991 C985 1.428 . S
C991 N990 1.351 . S
C991 C992 1.434 . S
C992 C983 1.429 . S
C992 N989 1.350 . S
C992 C991 1.434 . S
C993 C994 1.369 . S
C993 C995 1.419 . S
C993 H997 0.930 . S
C994 C993 1.369 . S
C994 C1003 1.429 . S
C995 C993 1.419 . S
C995 C996 1.363 . S
C995 H998 0.929 . S
C996 C995 1.363 . S
C996 C1002 1.428 . S
H997 C993 0.930 . S
H998 C995 0.929 . S
S999 N1000 1.613 . S
S999 N1001 1.610 . S
N1000 S999 1.613 . S
N1000 C1003 1.350 . S
N1001 S999 1.610 . S
N1001 C1002 1.351 . S
C1002 C996 1.428 . S
C1002 N1001 1.351 . S
C1002 C1003 1.434 . S
C1003 C994 1.429 . S
C1003 N1000 1.350 . S
C1003 C1002 1.434 . S
C1004 C1005 1.369 . S
C1004 C1006 1.419 . S
C1004 H1008 0.930 . S
C1005 C1004 1.369 . S
C1005 C1014 1.429 . S
C1006 C1004 1.419 . S
C1006 C1007 1.363 . S
C1006 H1009 0.929 . S
C1007 C1006 1.363 . S
C1007 C1013 1.428 . S
H1008 C1004 0.930 . S
H1009 C1006 0.929 . S
S1010 N1011 1.613 . S
S1010 N1012 1.610 . S
N1011 S1010 1.613 . S
N1011 C1014 1.350 . S
N1012 S1010 1.610 . S
N1012 C1013 1.351 . S
C1013 C1007 1.428 . S
C1013 N1012 1.351 . S
C1013 C1014 1.434 . S
C1014 C1005 1.429 . S
C1014 N1011 1.350 . S
C1014 C1013 1.434 . S
C1015 C1016 1.369 . S
C1015 C1017 1.419 . S
C1015 H1019 0.930 . S
C1016 C1015 1.369 . S
C1016 C1025 1.429 . S
C1017 C1015 1.419 . S
C1017 C1018 1.363 . S
C1017 H1020 0.929 . S
C1018 C1017 1.363 . S
C1018 C1024 1.428 . S
H1019 C1015 0.930 . S
H1020 C1017 0.929 . S
S1021 N1022 1.613 . S
S1021 N1023 1.610 . S
N1022 S1021 1.613 . S
N1022 C1025 1.350 . S
N1023 S1021 1.610 . S
N1023 C1024 1.351 . S
C1024 C1018 1.428 . S
C1024 N1023 1.351 . S
C1024 C1025 1.434 . S
C1025 C1016 1.429 . S
C1025 N1022 1.350 . S
C1025 C1024 1.434 . S
C1026 C1027 1.369 . S
C1026 C1028 1.419 . S
C1026 H1030 0.930 . S
C1027 C1026 1.369 . S
C1027 C1036 1.429 . S
C1028 C1026 1.419 . S
C1028 C1029 1.363 . S
C1028 H1031 0.929 . S
C1029 C1028 1.363 . S
C1029 C1035 1.428 . S
H1030 C1026 0.930 . S
H1031 C1028 0.929 . S
S1032 N1033 1.613 . S
S1032 N1034 1.610 . S
N1033 S1032 1.613 . S
N1033 C1036 1.350 . S
N1034 S1032 1.610 . S
N1034 C1035 1.351 . S
C1035 C1029 1.428 . S
C1035 N1034 1.351 . S
C1035 C1036 1.434 . S
C1036 C1027 1.429 . S
C1036 N1033 1.350 . S
C1036 C1035 1.434 . S
C1037 C1038 1.369 . S
C1037 C1039 1.419 . S
C1037 H1041 0.930 . S
C1038 C1037 1.369 . S
C1038 C1047 1.429 . S
C1039 C1037 1.419 . S
C1039 C1040 1.363 . S
C1039 H1042 0.929 . S
C1040 C1039 1.363 . S
C1040 C1046 1.428 . S
H1041 C1037 0.930 . S
H1042 C1039 0.929 . S
S1043 N1044 1.613 . S
S1043 N1045 1.610 . S
N1044 S1043 1.613 . S
N1044 C1047 1.350 . S
N1045 S1043 1.610 . S
N1045 C1046 1.351 . S
C1046 C1040 1.428 . S
C1046 N1045 1.351 . S
C1046 C1047 1.434 . S
C1047 C1038 1.429 . S
C1047 N1044 1.350 . S
C1047 C1046 1.434 . S
C1048 C1049 1.369 . S
C1048 C1050 1.419 . S
C1048 H1052 0.930 . S
C1049 C1048 1.369 . S
C1049 C1058 1.429 . S
C1050 C1048 1.419 . S
C1050 C1051 1.363 . S
C1050 H1053 0.929 . S
C1051 C1050 1.363 . S
C1051 C1057 1.428 . S
H1052 C1048 0.930 . S
H1053 C1050 0.929 . S
S1054 N1055 1.613 . S
S1054 N1056 1.610 . S
N1055 S1054 1.613 . S
N1055 C1058 1.350 . S
N1056 S1054 1.610 . S
N1056 C1057 1.351 . S
C1057 C1051 1.428 . S
C1057 N1056 1.351 . S
C1057 C1058 1.434 . S
C1058 C1049 1.429 . S
C1058 N1055 1.350 . S
C1058 C1057 1.434 . S
C1059 C1060 1.369 . S
C1059 C1061 1.419 . S
C1059 H1063 0.930 . S
C1060 C1059 1.369 . S
C1060 C1069 1.429 . S
C1061 C1059 1.419 . S
C1061 C1062 1.363 . S
C1061 H1064 0.929 . S
C1062 C1061 1.363 . S
C1062 C1068 1.428 . S
H1063 C1059 0.930 . S
H1064 C1061 0.929 . S
S1065 N1066 1.613 . S
S1065 N1067 1.610 . S
N1066 S1065 1.613 . S
N1066 C1069 1.350 . S
N1067 S1065 1.610 . S
N1067 C1068 1.351 . S
C1068 C1062 1.428 . S
C1068 N1067 1.351 . S
C1068 C1069 1.434 . S
C1069 C1060 1.429 . S
C1069 N1066 1.350 . S
C1069 C1068 1.434 . S
C1070 C1071 1.369 . S
C1070 C1072 1.419 . S
C1070 H1074 0.930 . S
C1071 C1070 1.369 . S
C1071 C1080 1.429 . S
C1072 C1070 1.419 . S
C1072 C1073 1.363 . S
C1072 H1075 0.929 . S
C1073 C1072 1.363 . S
C1073 C1079 1.428 . S
H1074 C1070 0.930 . S
H1075 C1072 0.929 . S
S1076 N1077 1.613 . S
S1076 N1078 1.610 . S
N1077 S1076 1.613 . S
N1077 C1080 1.350 . S
N1078 S1076 1.610 . S
N1078 C1079 1.351 . S
C1079 C1073 1.428 . S
C1079 N1078 1.351 . S
C1079 C1080 1.434 . S
C1080 C1071 1.429 . S
C1080 N1077 1.350 . S
C1080 C1079 1.434 . S
C1081 C1082 1.369 . S
C1081 C1083 1.419 . S
C1081 H1085 0.930 . S
C1082 C1081 1.369 . S
C1082 C1091 1.429 . S
C1083 C1081 1.419 . S
C1083 C1084 1.363 . S
C1083 H1086 0.929 . S
C1084 C1083 1.363 . S
C1084 C1090 1.428 . S
H1085 C1081 0.930 . S
H1086 C1083 0.929 . S
S1087 N1088 1.613 . S
S1087 N1089 1.610 . S
N1088 S1087 1.613 . S
N1088 C1091 1.350 . S
N1089 S1087 1.610 . S
N1089 C1090 1.351 . S
C1090 C1084 1.428 . S
C1090 N1089 1.351 . S
C1090 C1091 1.434 . S
C1091 C1082 1.429 . S
C1091 N1088 1.350 . S
C1091 C1090 1.434 . S
C567 C275 0.828 . S
C565 N6 0.794 . S
C578 C253 2.120 . S
C576 C57 2.219 . S
C589 C250 1.007 . S
C587 C61 1.011 . S
C598 N96 0.957 . S
C600 C262 0.954 . S
C609 C136 2.216 . S
C611 C245 2.112 . S
C622 C267 1.006 . S
C620 C160 1.011 . S
C631 N194 0.962 . S
C633 C272 0.954 . S
C642 N224 0.813 . S
C644 C268 0.826 . S
C655 C326 2.105 . S
C653 C10 2.180 . S
C664 N36 0.975 . S
C666 C376 1.089 . S
C677 C299 0.881 . S
C675 N74 0.863 . S
C688 C375 1.087 . S
C686 C100 1.078 . S
C697 C121 1.094 . S
C699 C304 1.111 . S
C710 C370 2.064 . S
C708 C177 2.130 . S
C719 C196 2.176 . S
C721 C329 2.194 . S
C730 C226 2.195 . S
C732 C361 2.141 . S
C741 C27 2.196 . S
C743 C353 2.146 . S
C752 N134 0.974 . S
C754 C383 1.108 . S
C765 C307 0.893 . S
C763 N156 0.876 . S
C776 C358 1.099 . S
C774 C181 1.082 . S
C785 C211 2.185 . S
C787 C316 2.106 . S
C796 C76 2.141 . S
C798 C380 2.080 . S
C809 C322 2.201 . S
C807 C117 2.184 . S
C818 C40 1.102 . S
C820 C321 1.122 . S
C829 N216 0.791 . S
C831 C437 0.829 . S
C840 C147 2.218 . S
C842 C415 2.122 . S
C853 C412 1.005 . S
C851 C151 1.012 . S
C864 C424 0.934 . S
C862 N186 0.975 . S
C873 C46 2.215 . S
C875 C407 2.114 . S
C886 C429 1.004 . S
C884 C70 1.011 . S
C895 N104 0.965 . S
C897 C434 0.961 . S
C906 N14 0.792 . S
C908 C430 0.829 . S
C917 C220 2.178 . S
C919 C488 2.104 . S
C930 C538 1.085 . S
C928 N126 0.986 . S
C939 N164 0.842 . S
C941 C461 0.882 . S
C950 C190 1.075 . S
C952 C537 1.090 . S
C963 C466 1.111 . S
C961 C31 1.098 . S
C972 C87 2.130 . S
C974 C532 2.063 . S
C985 C491 2.193 . S
C983 C106 2.176 . S
C996 C523 2.145 . S
C994 C16 2.197 . S
C1007 C515 2.149 . S
C1005 C237 2.196 . S
C1016 N44 0.969 . S
C1018 C545 1.110 . S
C1027 N66 0.875 . S
C1029 C469 0.891 . S
C1040 C520 1.097 . S
C1038 C91 1.090 . S
C1049 C1 2.185 . S
C1051 C478 2.105 . S
C1060 C166 2.142 . S
C1062 C542 2.076 . S
C1073 C484 2.201 . S
C1071 C207 2.184 . S
C1084 C483 1.122 . S
C1082 C130 1.101 . S
